0:0
     RDKit          3D

 37 38  0  0  0  0  0  0  0  0999 V2000
   -4.6590   20.0790  -31.3930 C   0  0  0  0  0  0  0  0  0  0  0  0
   -5.2450   19.5250  -32.6060 N   0  0  0  0  0  0  0  0  0  0  0  0
   -5.0770   20.0090  -33.8220 N   0  0  0  0  0  0  0  0  0  0  0  0
   -5.8070   19.2930  -34.6650 N   0  0  0  0  0  0  0  0  0  0  0  0
   -6.4650   18.3440  -34.0100 N   0  0  0  0  0  0  0  0  0  0  0  0
   -6.1100   18.5050  -32.7230 C   0  0  0  0  0  0  0  0  0  0  0  0
   -6.7230   17.4980  -31.3720 S   0  0  0  0  0  0  0  0  0  0  0  0
   -8.2770   18.4440  -31.2180 C   0  0  0  0  0  0  0  0  0  0  0  0
   -8.8730   18.7460  -32.5980 C   0  0  0  0  0  0  0  0  0  0  0  0
   -8.4410   20.0650  -33.0970 N   0  0  0  0  0  0  0  0  0  0  0  0
   -8.8440   21.1530  -32.1890 C   0  0  0  0  0  0  0  0  0  0  0  0
   -7.6680   22.0040  -31.7740 C   0  0  0  0  0  0  0  0  0  0  0  0
   -7.5580   22.4770  -30.4580 C   0  0  0  0  0  0  0  0  0  0  0  0
   -6.4820   23.2870  -30.0850 C   0  0  0  0  0  0  0  0  0  0  0  0
   -5.5000   23.6450  -31.0310 C   0  0  0  0  0  0  0  0  0  0  0  0
   -4.4010   24.4610  -30.7140 O   0  0  0  0  0  0  0  0  0  0  0  0
   -3.3440   24.1080  -29.8240 C   0  0  0  0  0  0  0  0  0  0  0  0
   -2.6910   25.2460  -29.3880 F   0  0  0  0  0  0  0  0  0  0  0  0
   -3.8450   23.4060  -28.7430 F   0  0  0  0  0  0  0  0  0  0  0  0
   -2.4420   23.3080  -30.4970 F   0  0  0  0  0  0  0  0  0  0  0  0
   -5.6160   23.1730  -32.3430 C   0  0  0  0  0  0  0  0  0  0  0  0
   -6.6900   22.3610  -32.7160 C   0  0  0  0  0  0  0  0  0  0  0  0
   -5.1391   19.6251  -30.5135 H   0  0  0  0  0  0  0  0  0  0  0  0
   -3.5807   19.8625  -31.3747 H   0  0  0  0  0  0  0  0  0  0  0  0
   -4.8147   21.1678  -31.3747 H   0  0  0  0  0  0  0  0  0  0  0  0
   -9.0003   17.8558  -30.6342 H   0  0  0  0  0  0  0  0  0  0  0  0
   -8.0598   19.3968  -30.7130 H   0  0  0  0  0  0  0  0  0  0  0  0
   -8.5449   17.9710  -33.3063 H   0  0  0  0  0  0  0  0  0  0  0  0
   -9.9691   18.7541  -32.5061 H   0  0  0  0  0  0  0  0  0  0  0  0
   -8.8340   20.2380  -34.0510 H   0  0  0  0  0  0  0  0  0  0  0  0
   -7.3960   20.0750  -33.1670 H   0  0  0  0  0  0  0  0  0  0  0  0
   -9.5804   21.7895  -32.7014 H   0  0  0  0  0  0  0  0  0  0  0  0
   -9.2737   20.7000  -31.2834 H   0  0  0  0  0  0  0  0  0  0  0  0
   -8.3235   22.2087  -29.7150 H   0  0  0  0  0  0  0  0  0  0  0  0
   -6.4009   23.6468  -29.0487 H   0  0  0  0  0  0  0  0  0  0  0  0
   -4.8538   23.4440  -33.0884 H   0  0  0  0  0  0  0  0  0  0  0  0
   -6.7697   21.9999  -33.7520 H   0  0  0  0  0  0  0  0  0  0  0  0
  1  2  1  0
  2  3  1  0
  3  4  2  0
  4  5  1  0
  5  6  2  0
  6  7  1  0
  7  8  1  0
  8  9  1  0
  9 10  1  0
 10 11  1  0
 11 12  1  0
 12 13  2  0
 13 14  1  0
 14 15  2  0
 15 16  1  0
 16 17  1  0
 17 18  1  0
 17 19  1  0
 17 20  1  0
 15 21  1  0
 21 22  2  0
  6  2  1  0
 22 12  1  0
  1 23  1  0
  1 24  1  0
  1 25  1  0
  8 26  1  0
  8 27  1  0
  9 28  1  0
  9 29  1  0
 10 30  1  0
 10 31  1  0
 11 32  1  0
 11 33  1  0
 13 34  1  0
 14 35  1  0
 21 36  1  0
 22 37  1  0
M  CHG  1  10   1
M  END
>  <UniqueID>  (1) 
1

>  <SMILES>  (1) 
Cn1nnnc1SCC[NH2+]Cc1ccc(OC(F)(F)F)cc1

>  <Energy>  (1) 
70.25374036052312

>  <Genealogy>  (1) 
Cn1nnnc1SCC[NH2+]Cc1ccc(OC(F)(F)F)cc1 (protonated)
Cn1nnnc1SCC[NH2+]Cc1ccc(OC(F)(F)F)cc1 (3D coordinates assigned)
Cn1nnnc1SCC[NH2+]Cc1ccc(OC(F)(F)F)cc1 (optimized conformer: 70.25374036052312 kcal/mol)

>  <smiles>  (1) 
Cn1nnnc1SCCNCc1ccc(OC(F)(F)F)cc1

>  <score_type>  (1) 
oracle

>  <origin>  (1) 
adgpu

>  <m_score__min__energy>  (1) 
-6.5999999999999996

>  <m_primary>  (1) 
energy

$$$$
1:0
     RDKit          3D

 37 39  0  0  0  0  0  0  0  0999 V2000
   -0.1933   25.7305  -28.1921 H   0  0  0  0  0  0  0  0  0  0  0  0
   -1.0930   25.1030  -28.2740 C   0  0  0  0  0  0  0  0  0  0  0  0
   -1.9580   25.2870  -29.3060 N   0  0  0  0  0  0  0  0  0  0  0  0
   -3.0860   24.5380  -29.4540 C   0  0  0  0  0  0  0  0  0  0  0  0
   -3.8650   24.7860  -30.4670 N   0  0  0  0  0  0  0  0  0  0  0  0
   -5.3570   23.9780  -30.8490 S   0  0  0  0  0  0  0  0  0  0  0  0
   -5.9960   23.5050  -29.5740 O   0  0  0  0  0  0  0  0  0  0  0  0
   -6.2820   24.9490  -31.5280 O   0  0  0  0  0  0  0  0  0  0  0  0
   -5.0480   22.5860  -31.8810 C   0  0  0  0  0  0  0  0  0  0  0  0
   -6.1090   21.7750  -32.2990 C   0  0  0  0  0  0  0  0  0  0  0  0
   -7.1380   22.0202  -31.9974 H   0  0  0  0  0  0  0  0  0  0  0  0
   -5.8660   20.6550  -33.0980 C   0  0  0  0  0  0  0  0  0  0  0  0
   -6.7058   20.0256  -33.4276 H   0  0  0  0  0  0  0  0  0  0  0  0
   -4.5540   20.3280  -33.4830 C   0  0  0  0  0  0  0  0  0  0  0  0
   -4.2830   19.2120  -34.2890 O   0  0  0  0  0  0  0  0  0  0  0  0
   -4.4380   17.8730  -33.8990 C   0  0  0  0  0  0  0  0  0  0  0  0
   -3.4320   17.2770  -33.1320 C   0  0  0  0  0  0  0  0  0  0  0  0
   -2.5382   17.8565  -32.8576 H   0  0  0  0  0  0  0  0  0  0  0  0
   -3.5550   15.9500  -32.7120 C   0  0  0  0  0  0  0  0  0  0  0  0
   -2.7541   15.4878  -32.1163 H   0  0  0  0  0  0  0  0  0  0  0  0
   -4.6930   15.2060  -33.0460 C   0  0  0  0  0  0  0  0  0  0  0  0
   -4.7980   13.8380  -32.6020 C   0  0  0  0  0  0  0  0  0  0  0  0
   -4.8810   12.7400  -32.2460 N   0  0  0  0  0  0  0  0  0  0  0  0
   -5.7200   15.8050  -33.7990 C   0  0  0  0  0  0  0  0  0  0  0  0
   -7.1800   14.9180  -34.2270 Cl  0  0  0  0  0  0  0  0  0  0  0  0
   -5.5920   17.1340  -34.2150 C   0  0  0  0  0  0  0  0  0  0  0  0
   -6.4002   17.6049  -34.7938 H   0  0  0  0  0  0  0  0  0  0  0  0
   -3.4950   21.1620  -33.0890 C   0  0  0  0  0  0  0  0  0  0  0  0
   -1.8470   20.7980  -33.5770 Cl  0  0  0  0  0  0  0  0  0  0  0  0
   -3.7420   22.2810  -32.2870 C   0  0  0  0  0  0  0  0  0  0  0  0
   -2.9070   22.9247  -31.9735 H   0  0  0  0  0  0  0  0  0  0  0  0
   -3.3660   23.5310  -28.5070 C   0  0  0  0  0  0  0  0  0  0  0  0
   -4.2680   22.9096  -28.6088 H   0  0  0  0  0  0  0  0  0  0  0  0
   -2.4890   23.3290  -27.4390 C   0  0  0  0  0  0  0  0  0  0  0  0
   -2.7000   22.5479  -26.6938 H   0  0  0  0  0  0  0  0  0  0  0  0
   -1.3460   24.1180  -27.3180 C   0  0  0  0  0  0  0  0  0  0  0  0
   -0.2370   23.8740  -25.9800 Cl  0  0  0  0  0  0  0  0  0  0  0  0
  1  2  1  0
  2  3  1  0
  3  4  1  0
  4  5  2  0
  5  6  1  0
  6  7  2  0
  6  8  2  0
  6  9  1  0
  9 10  2  0
 10 11  1  0
 10 12  1  0
 12 13  1  0
 12 14  2  0
 14 15  1  0
 15 16  1  0
 16 17  2  0
 17 18  1  0
 17 19  1  0
 19 20  1  0
 19 21  2  0
 21 22  1  0
 22 23  3  0
 21 24  1  0
 24 25  1  0
 24 26  2  0
 26 27  1  0
 14 28  1  0
 28 29  1  0
 28 30  2  0
 30 31  1  0
  4 32  1  0
 32 33  1  0
 32 34  2  0
 34 35  1  0
 34 36  1  0
 36 37  1  0
 36  2  2  0
 30  9  1  0
 26 16  1  0
M  CHG  1   3  -1
M  END
>  <UniqueID>  (2) 
2

>  <SMILES>  (2) 
N#Cc1ccc(Oc2ccc(S(=O)(=O)/N=c3\ccc(Cl)c[n-]3)cc2Cl)cc1Cl

>  <Energy>  (2) 
52.51216012412791

>  <Genealogy>  (2) 
N#Cc1ccc(Oc2ccc(S(=O)(=O)N=c3ccc(Cl)c[n-]3)cc2Cl)cc1Cl (protonated)
N#Cc1ccc(Oc2ccc(S(=O)(=O)/N=c3\ccc(Cl)c[n-]3)cc2Cl)cc1Cl (cis-trans isomerization)
N#Cc1ccc(Oc2ccc(S(=O)(=O)/N=c3\ccc(Cl)c[n-]3)cc2Cl)cc1Cl (3D coordinates assigned)
N#Cc1ccc(Oc2ccc(S(=O)(=O)/N=c3\ccc(Cl)c[n-]3)cc2Cl)cc1Cl (optimized conformer: 52.51216012412791 kcal/mol)

>  <smiles>  (2) 
N#Cc1ccc(Oc2ccc(S(=O)(=O)N=c3ccc(Cl)c[nH]3)cc2Cl)cc1Cl

>  <score_type>  (2) 
oracle

>  <origin>  (2) 
adgpu

>  <m_score__min__energy>  (2) 
-11.43

>  <m_primary>  (2) 
energy

$$$$
2:0
     RDKit          3D

 37 39  0  0  0  0  0  0  0  0999 V2000
   -5.2059   26.7570  -30.7369 H   0  0  0  0  0  0  0  0  0  0  0  0
   -5.0460   25.6740  -30.8440 C   0  0  0  0  0  0  0  0  0  0  0  0
   -5.9820   24.9080  -31.4590 N   0  0  0  0  0  0  0  0  0  0  0  0
   -5.7920   23.5710  -31.5890 C   0  0  0  0  0  0  0  0  0  0  0  0
   -6.6920   22.8590  -32.2030 N   0  0  0  0  0  0  0  0  0  0  0  0
   -6.6800   21.4330  -32.3910 C   0  0  0  0  0  0  0  0  0  0  0  0
   -7.7690   20.6210  -32.0210 C   0  0  0  0  0  0  0  0  0  0  0  0
   -8.6549   21.0739  -31.5518 H   0  0  0  0  0  0  0  0  0  0  0  0
   -7.7300   19.2420  -32.2470 C   0  0  0  0  0  0  0  0  0  0  0  0
   -8.5743   18.6113  -31.9317 H   0  0  0  0  0  0  0  0  0  0  0  0
   -6.6190   18.6590  -32.8740 C   0  0  0  0  0  0  0  0  0  0  0  0
   -6.5610   17.1740  -33.0800 C   0  0  0  0  0  0  0  0  0  0  0  0
   -6.5413   16.6688  -32.1031 H   0  0  0  0  0  0  0  0  0  0  0  0
   -7.4471   16.8472  -33.6440 H   0  0  0  0  0  0  0  0  0  0  0  0
   -5.6521   16.9173  -33.6440 H   0  0  0  0  0  0  0  0  0  0  0  0
   -5.5400   19.4690  -33.2560 C   0  0  0  0  0  0  0  0  0  0  0  0
   -4.6585   19.0174  -33.7346 H   0  0  0  0  0  0  0  0  0  0  0  0
   -5.5800   20.8490  -33.0310 C   0  0  0  0  0  0  0  0  0  0  0  0
   -4.7410   21.4802  -33.3593 H   0  0  0  0  0  0  0  0  0  0  0  0
   -4.6500   23.0100  -31.1120 N   0  0  0  0  0  0  0  0  0  0  0  0
   -3.7070   23.7680  -30.4930 C   0  0  0  0  0  0  0  0  0  0  0  0
   -2.4690   23.1410  -29.9680 C   0  0  0  0  0  0  0  0  0  0  0  0
   -2.2800   21.7490  -30.0560 C   0  0  0  0  0  0  0  0  0  0  0  0
   -3.0552   21.1204  -30.5185 H   0  0  0  0  0  0  0  0  0  0  0  0
   -1.1150   21.1610  -29.5600 C   0  0  0  0  0  0  0  0  0  0  0  0
   -0.9770   20.0723  -29.6348 H   0  0  0  0  0  0  0  0  0  0  0  0
   -0.1250   21.9470  -28.9700 C   0  0  0  0  0  0  0  0  0  0  0  0
    0.7900   21.4763  -28.5811 H   0  0  0  0  0  0  0  0  0  0  0  0
   -0.2940   23.3410  -28.8710 C   0  0  0  0  0  0  0  0  0  0  0  0
    0.6720   24.1750  -28.2880 O   0  0  0  0  0  0  0  0  0  0  0  0
    0.7610   24.4490  -26.8940 C   0  0  0  0  0  0  0  0  0  0  0  0
    0.4702   23.5536  -26.3250 H   0  0  0  0  0  0  0  0  0  0  0  0
    1.7950   24.7251  -26.6399 H   0  0  0  0  0  0  0  0  0  0  0  0
    0.0866   25.2800  -26.6399 H   0  0  0  0  0  0  0  0  0  0  0  0
   -1.4640   23.9260  -29.3700 C   0  0  0  0  0  0  0  0  0  0  0  0
   -1.6004   25.0149  -29.2939 H   0  0  0  0  0  0  0  0  0  0  0  0
   -3.9150   25.1060  -30.3620 N   0  0  0  0  0  0  0  0  0  0  0  0
  1  2  1  0
  2  3  2  0
  3  4  1  0
  4  5  2  0
  5  6  1  0
  6  7  2  0
  7  8  1  0
  7  9  1  0
  9 10  1  0
  9 11  2  0
 11 12  1  0
 12 13  1  0
 12 14  1  0
 12 15  1  0
 11 16  1  0
 16 17  1  0
 16 18  2  0
 18 19  1  0
  4 20  1  0
 20 21  2  0
 21 22  1  0
 22 23  2  0
 23 24  1  0
 23 25  1  0
 25 26  1  0
 25 27  2  0
 27 28  1  0
 27 29  1  0
 29 30  1  0
 30 31  1  0
 31 32  1  0
 31 33  1  0
 31 34  1  0
 29 35  2  0
 35 36  1  0
 21 37  1  0
 37  2  1  0
 18  6  1  0
 35 22  1  0
M  CHG  1  37  -1
M  END
>  <UniqueID>  (3) 
3

>  <SMILES>  (3) 
COc1cccc(-c2n/c(=N\c3ccc(C)cc3)nc[n-]2)c1

>  <Energy>  (3) 
46.34973489030263

>  <Genealogy>  (3) 
COc1cccc(-c2nc(=Nc3ccc(C)cc3)nc[n-]2)c1 (protonated)
COc1cccc(-c2n/c(=N\c3ccc(C)cc3)nc[n-]2)c1 (cis-trans isomerization)
COc1cccc(-c2n/c(=N\c3ccc(C)cc3)nc[n-]2)c1 (3D coordinates assigned)
COc1cccc(-c2n/c(=N\c3ccc(C)cc3)nc[n-]2)c1 (optimized conformer: 46.34973489030263 kcal/mol)

>  <smiles>  (3) 
COc1cccc(-c2nc(=Nc3ccc(C)cc3)nc[nH]2)c1

>  <score_type>  (3) 
oracle

>  <origin>  (3) 
adgpu

>  <m_score__min__energy>  (3) 
-8.7599999999999998

>  <m_primary>  (3) 
energy

$$$$
3:0
     RDKit          3D

 53 56  0  0  0  0  0  0  0  0999 V2000
   -2.4410   19.4080  -26.3300 C   0  0  0  0  0  0  0  0  0  0  0  0
   -1.7690   20.2970  -27.3350 C   0  0  0  0  0  0  0  0  0  0  0  0
   -1.4480   19.8150  -28.6130 C   0  0  0  0  0  0  0  0  0  0  0  0
   -0.8130   20.6480  -29.5410 C   0  0  0  0  0  0  0  0  0  0  0  0
   -0.4850   21.9620  -29.1970 C   0  0  0  0  0  0  0  0  0  0  0  0
   -0.7710   22.4450  -27.9120 C   0  0  0  0  0  0  0  0  0  0  0  0
   -0.4190   23.8310  -27.5470 C   0  0  0  0  0  0  0  0  0  0  0  0
    0.8490   24.0720  -26.9910 C   0  0  0  0  0  0  0  0  0  0  0  0
    1.2560   25.3730  -26.6880 C   0  0  0  0  0  0  0  0  0  0  0  0
    0.3970   26.4450  -26.9210 C   0  0  0  0  0  0  0  0  0  0  0  0
   -0.8730   26.2230  -27.4550 C   0  0  0  0  0  0  0  0  0  0  0  0
   -1.2990   24.9210  -27.7830 C   0  0  0  0  0  0  0  0  0  0  0  0
   -2.6810   24.7190  -28.2990 C   0  0  0  0  0  0  0  0  0  0  0  0
   -3.6080   24.4340  -27.4950 O   0  0  0  0  0  0  0  0  0  0  0  0
   -3.0140   24.9260  -29.6780 N   0  0  0  0  0  0  0  0  0  0  0  0
   -3.6880   23.9960  -30.5400 C   0  0  0  0  0  0  0  0  0  0  0  0
   -3.0110   22.8840  -31.0740 C   0  0  0  0  0  0  0  0  0  0  0  0
   -3.6780   21.9850  -31.9080 C   0  0  0  0  0  0  0  0  0  0  0  0
   -5.0270   22.1780  -32.2280 C   0  0  0  0  0  0  0  0  0  0  0  0
   -5.6970   21.2280  -33.0760 N   0  0  0  0  0  0  0  0  0  0  0  0
   -6.7700   20.3700  -32.6500 C   0  0  0  0  0  0  0  0  0  0  0  0
   -7.9980   20.9360  -32.2760 C   0  0  0  0  0  0  0  0  0  0  0  0
   -9.0460   20.1240  -31.8310 C   0  0  0  0  0  0  0  0  0  0  0  0
   -8.8710   18.7420  -31.7450 C   0  0  0  0  0  0  0  0  0  0  0  0
   -7.6450   18.1700  -32.0930 C   0  0  0  0  0  0  0  0  0  0  0  0
   -6.5940   18.9780  -32.5360 C   0  0  0  0  0  0  0  0  0  0  0  0
   -5.7210   23.2600  -31.6510 C   0  0  0  0  0  0  0  0  0  0  0  0
   -5.0600   24.1710  -30.8120 C   0  0  0  0  0  0  0  0  0  0  0  0
   -5.8110   25.3290  -30.2240 C   0  0  0  0  0  0  0  0  0  0  0  0
   -1.4100   21.6080  -26.9810 C   0  0  0  0  0  0  0  0  0  0  0  0
   -2.1864   19.7449  -25.3143 H   0  0  0  0  0  0  0  0  0  0  0  0
   -3.5311   19.4553  -26.4695 H   0  0  0  0  0  0  0  0  0  0  0  0
   -2.0981   18.3722  -26.4695 H   0  0  0  0  0  0  0  0  0  0  0  0
   -1.6963   18.7789  -28.8864 H   0  0  0  0  0  0  0  0  0  0  0  0
   -0.5713   20.2672  -30.5443 H   0  0  0  0  0  0  0  0  0  0  0  0
   -0.0017   22.6186  -29.9354 H   0  0  0  0  0  0  0  0  0  0  0  0
    1.5267   23.2286  -26.7928 H   0  0  0  0  0  0  0  0  0  0  0  0
    2.2556   25.5516  -26.2650 H   0  0  0  0  0  0  0  0  0  0  0  0
    0.7208   27.4691  -26.6834 H   0  0  0  0  0  0  0  0  0  0  0  0
   -1.5492   27.0745  -27.6217 H   0  0  0  0  0  0  0  0  0  0  0  0
   -1.9500   22.7222  -30.8329 H   0  0  0  0  0  0  0  0  0  0  0  0
   -3.1390   21.1177  -32.3171 H   0  0  0  0  0  0  0  0  0  0  0  0
   -5.4020   21.1760  -34.0780 H   0  0  0  0  0  0  0  0  0  0  0  0
   -8.1374   22.0256  -32.3332 H   0  0  0  0  0  0  0  0  0  0  0  0
  -10.0088   20.5748  -31.5486 H   0  0  0  0  0  0  0  0  0  0  0  0
   -9.6986   18.1031  -31.4031 H   0  0  0  0  0  0  0  0  0  0  0  0
   -7.5064   17.0813  -32.0182 H   0  0  0  0  0  0  0  0  0  0  0  0
   -5.6262   18.5247  -32.7964 H   0  0  0  0  0  0  0  0  0  0  0  0
   -6.7928   23.3924  -31.8603 H   0  0  0  0  0  0  0  0  0  0  0  0
   -5.7734   25.2710  -29.1262 H   0  0  0  0  0  0  0  0  0  0  0  0
   -5.3516   26.2712  -30.5573 H   0  0  0  0  0  0  0  0  0  0  0  0
   -6.8587   25.2938  -30.5573 H   0  0  0  0  0  0  0  0  0  0  0  0
   -1.6300   21.9816  -25.9700 H   0  0  0  0  0  0  0  0  0  0  0  0
  1  2  1  0
  2  3  2  0
  3  4  1  0
  4  5  2  0
  5  6  1  0
  6  7  1  0
  7  8  2  0
  8  9  1  0
  9 10  2  0
 10 11  1  0
 11 12  2  0
 12 13  1  0
 13 14  2  0
 13 15  1  0
 15 16  1  0
 16 17  2  0
 17 18  1  0
 18 19  2  0
 19 20  1  0
 20 21  1  0
 21 22  2  0
 22 23  1  0
 23 24  2  0
 24 25  1  0
 25 26  2  0
 19 27  1  0
 27 28  2  0
 28 29  1  0
  6 30  2  0
 30  2  1  0
 12  7  1  0
 28 16  1  0
 26 21  1  0
  1 31  1  0
  1 32  1  0
  1 33  1  0
  3 34  1  0
  4 35  1  0
  5 36  1  0
  8 37  1  0
  9 38  1  0
 10 39  1  0
 11 40  1  0
 17 41  1  0
 18 42  1  0
 20 43  1  0
 22 44  1  0
 23 45  1  0
 24 46  1  0
 25 47  1  0
 26 48  1  0
 27 49  1  0
 29 50  1  0
 29 51  1  0
 29 52  1  0
 30 53  1  0
M  CHG  1  15  -1
M  END
>  <UniqueID>  (4) 
4

>  <SMILES>  (4) 
Cc1cccc(-c2ccccc2C(=O)[N-]c2ccc(Nc3ccccc3)cc2C)c1

>  <Energy>  (4) 
77.4153830094638

>  <Genealogy>  (4) 
Cc1cccc(-c2ccccc2C(=O)[N-]c2ccc(Nc3ccccc3)cc2C)c1 (protonated)
Cc1cccc(-c2ccccc2C(=O)[N-]c2ccc(Nc3ccccc3)cc2C)c1 (3D coordinates assigned)
Cc1cccc(-c2ccccc2C(=O)[N-]c2ccc(Nc3ccccc3)cc2C)c1 (optimized conformer: 77.4153830094638 kcal/mol)

>  <smiles>  (4) 
Cc1cccc(-c2ccccc2C(=O)Nc2ccc(Nc3ccccc3)cc2C)c1

>  <score_type>  (4) 
oracle

>  <origin>  (4) 
adgpu

>  <m_score__min__energy>  (4) 
-12.18

>  <m_primary>  (4) 
energy

$$$$
4:0
     RDKit          3D

 48 50  0  0  0  0  0  0  0  0999 V2000
   -4.4880   17.4790  -33.9520 C   0  0  0  0  0  0  0  0  0  0  0  0
   -4.0820   18.7830  -33.3340 C   0  0  0  0  0  0  0  0  0  0  0  0
   -2.8020   19.3140  -33.3070 C   0  0  0  0  0  0  0  0  0  0  0  0
   -1.6040   18.7180  -33.9220 C   0  0  0  0  0  0  0  0  0  0  0  0
   -1.1320   19.2330  -34.9680 O   0  0  0  0  0  0  0  0  0  0  0  0
   -0.9720   17.5550  -33.3720 N   0  0  0  0  0  0  0  0  0  0  0  0
   -1.2980   16.1770  -33.7310 C   0  0  0  0  0  0  0  0  0  0  0  0
   -0.8530   15.8750  -35.1670 C   0  0  0  0  0  0  0  0  0  0  0  0
   -0.1010   16.9960  -35.7270 N   0  0  0  0  0  0  0  0  0  0  0  0
   -2.8890   20.5320  -32.6470 C   0  0  0  0  0  0  0  0  0  0  0  0
   -1.7740   21.5280  -32.4890 C   0  0  0  0  0  0  0  0  0  0  0  0
   -4.1660   20.7510  -32.2560 N   0  0  0  0  0  0  0  0  0  0  0  0
   -4.6630   21.9350  -31.6080 C   0  0  0  0  0  0  0  0  0  0  0  0
   -5.3610   22.9060  -32.3440 C   0  0  0  0  0  0  0  0  0  0  0  0
   -5.8570   24.0480  -31.7110 C   0  0  0  0  0  0  0  0  0  0  0  0
   -5.6600   24.2300  -30.3380 C   0  0  0  0  0  0  0  0  0  0  0  0
   -6.2840   25.6640  -29.5440 Cl  0  0  0  0  0  0  0  0  0  0  0  0
   -4.9670   23.2660  -29.5980 C   0  0  0  0  0  0  0  0  0  0  0  0
   -4.4710   22.1220  -30.2300 C   0  0  0  0  0  0  0  0  0  0  0  0
   -4.9020   19.6960  -32.6830 C   0  0  0  0  0  0  0  0  0  0  0  0
   -6.3560   19.5380  -32.4540 C   0  0  0  0  0  0  0  0  0  0  0  0
   -6.8510   18.4170  -31.7660 C   0  0  0  0  0  0  0  0  0  0  0  0
   -8.2250   18.2650  -31.5650 C   0  0  0  0  0  0  0  0  0  0  0  0
   -9.1160   19.2280  -32.0480 C   0  0  0  0  0  0  0  0  0  0  0  0
   -8.6310   20.3450  -32.7350 C   0  0  0  0  0  0  0  0  0  0  0  0
   -7.2570   20.5010  -32.9380 C   0  0  0  0  0  0  0  0  0  0  0  0
   -4.7144   16.7518  -33.1583 H   0  0  0  0  0  0  0  0  0  0  0  0
   -5.3813   17.6311  -34.5756 H   0  0  0  0  0  0  0  0  0  0  0  0
   -3.6662   17.0972  -34.5756 H   0  0  0  0  0  0  0  0  0  0  0  0
   -0.7833   15.4920  -33.0412 H   0  0  0  0  0  0  0  0  0  0  0  0
   -2.3871   16.0398  -33.6604 H   0  0  0  0  0  0  0  0  0  0  0  0
   -0.2154   14.9787  -35.1654 H   0  0  0  0  0  0  0  0  0  0  0  0
   -1.7480   15.7090  -35.7845 H   0  0  0  0  0  0  0  0  0  0  0  0
    0.2920   17.5870  -34.9580 H   0  0  0  0  0  0  0  0  0  0  0  0
   -0.7430   17.5820  -36.3090 H   0  0  0  0  0  0  0  0  0  0  0  0
    0.6740   16.6420  -36.3340 H   0  0  0  0  0  0  0  0  0  0  0  0
   -1.5833   21.6983  -31.4191 H   0  0  0  0  0  0  0  0  0  0  0  0
   -0.8631   21.1374  -32.9661 H   0  0  0  0  0  0  0  0  0  0  0  0
   -2.0598   22.4770  -32.9661 H   0  0  0  0  0  0  0  0  0  0  0  0
   -5.5179   22.7667  -33.4238 H   0  0  0  0  0  0  0  0  0  0  0  0
   -6.4032   24.8052  -32.2927 H   0  0  0  0  0  0  0  0  0  0  0  0
   -4.8123   23.4083  -28.5183 H   0  0  0  0  0  0  0  0  0  0  0  0
   -3.9279   21.3651  -29.6450 H   0  0  0  0  0  0  0  0  0  0  0  0
   -6.1539   17.6565  -31.3844 H   0  0  0  0  0  0  0  0  0  0  0  0
   -8.6067   17.3857  -31.0255 H   0  0  0  0  0  0  0  0  0  0  0  0
  -10.1975   19.1070  -31.8877 H   0  0  0  0  0  0  0  0  0  0  0  0
   -9.3319   21.1022  -33.1163 H   0  0  0  0  0  0  0  0  0  0  0  0
   -6.8796   21.3813  -33.4789 H   0  0  0  0  0  0  0  0  0  0  0  0
  1  2  1  0
  2  3  1  0
  3  4  1  0
  4  5  2  0
  4  6  1  0
  6  7  1  0
  7  8  1  0
  8  9  1  0
  3 10  2  0
 10 11  1  0
 10 12  1  0
 12 13  1  0
 13 14  2  0
 14 15  1  0
 15 16  2  0
 16 17  1  0
 16 18  1  0
 18 19  2  0
 12 20  1  0
 20 21  1  0
 21 22  2  0
 22 23  1  0
 23 24  2  0
 24 25  1  0
 25 26  2  0
 20  2  2  0
 26 21  1  0
 19 13  1  0
  1 27  1  0
  1 28  1  0
  1 29  1  0
  7 30  1  0
  7 31  1  0
  8 32  1  0
  8 33  1  0
  9 34  1  0
  9 35  1  0
  9 36  1  0
 11 37  1  0
 11 38  1  0
 11 39  1  0
 14 40  1  0
 15 41  1  0
 18 42  1  0
 19 43  1  0
 22 44  1  0
 23 45  1  0
 24 46  1  0
 25 47  1  0
 26 48  1  0
M  CHG  2   6  -1   9   1
M  END
>  <UniqueID>  (5) 
5

>  <SMILES>  (5) 
Cc1c(C(=O)[N-]CC[NH3+])c(C)n(-c2ccc(Cl)cc2)c1-c1ccccc1

>  <Energy>  (5) 
86.2217122024706

>  <Genealogy>  (5) 
Cc1c(C(=O)[N-]CC[NH3+])c(C)n(-c2ccc(Cl)cc2)c1-c1ccccc1 (protonated)
Cc1c(C(=O)[N-]CC[NH3+])c(C)n(-c2ccc(Cl)cc2)c1-c1ccccc1 (3D coordinates assigned)
Cc1c(C(=O)[N-]CC[NH3+])c(C)n(-c2ccc(Cl)cc2)c1-c1ccccc1 (optimized conformer: 86.2217122024706 kcal/mol)

>  <smiles>  (5) 
Cc1c(C(=O)NCCN)c(C)n(-c2ccc(Cl)cc2)c1-c1ccccc1

>  <score_type>  (5) 
oracle

>  <origin>  (5) 
adgpu

>  <m_score__min__energy>  (5) 
-10.24

>  <m_primary>  (5) 
energy

$$$$
5:0
     RDKit          3D

 50 52  0  0  0  0  0  0  0  0999 V2000
   -2.9810   25.3160  -26.0630 C   0  0  0  0  0  0  0  0  0  0  0  0
   -2.5510   24.5340  -27.2610 C   0  0  0  0  0  0  0  0  0  0  0  0
   -1.3460   23.9380  -27.3770 N   0  0  0  0  0  0  0  0  0  0  0  0
   -1.3610   23.2180  -28.4910 N   0  0  0  0  0  0  0  0  0  0  0  0
   -0.2310   22.4170  -28.9440 C   0  0  0  0  0  0  0  0  0  0  0  0
   -2.5620   23.3310  -29.0970 C   0  0  0  0  0  0  0  0  0  0  0  0
   -2.9670   22.6210  -30.3530 C   0  0  0  0  0  0  0  0  0  0  0  0
   -3.3490   24.1590  -28.3230 C   0  0  0  0  0  0  0  0  0  0  0  0
   -4.7480   24.4150  -28.4650 N   0  0  0  0  0  0  0  0  0  0  0  0
   -5.3600   25.0170  -29.9700 S   0  0  0  0  0  0  0  0  0  0  0  0
   -6.3440   26.1200  -29.6980 O   0  0  0  0  0  0  0  0  0  0  0  0
   -4.2400   25.5720  -30.8030 O   0  0  0  0  0  0  0  0  0  0  0  0
   -6.1650   23.7050  -30.8230 C   0  0  0  0  0  0  0  0  0  0  0  0
   -5.6500   23.2440  -32.0420 C   0  0  0  0  0  0  0  0  0  0  0  0
   -6.2190   22.1350  -32.6720 C   0  0  0  0  0  0  0  0  0  0  0  0
   -7.3070   21.4680  -32.0830 C   0  0  0  0  0  0  0  0  0  0  0  0
   -7.8910   20.3440  -32.6830 O   0  0  0  0  0  0  0  0  0  0  0  0
   -7.2070   19.1610  -33.0020 C   0  0  0  0  0  0  0  0  0  0  0  0
   -6.1940   19.2060  -33.9650 C   0  0  0  0  0  0  0  0  0  0  0  0
   -5.5010   18.0440  -34.3180 C   0  0  0  0  0  0  0  0  0  0  0  0
   -5.8230   16.8200  -33.7170 C   0  0  0  0  0  0  0  0  0  0  0  0
   -4.9640   15.3570  -34.1880 S   0  0  0  0  0  0  0  0  0  0  0  0
   -4.0200   14.7580  -32.8070 C   0  0  0  0  0  0  0  0  0  0  0  0
   -4.0390   15.6490  -35.3360 O   0  0  0  0  0  0  0  0  0  0  0  0
   -5.9510   14.3090  -34.6200 O   0  0  0  0  0  0  0  0  0  0  0  0
   -6.8550   16.7650  -32.7710 C   0  0  0  0  0  0  0  0  0  0  0  0
   -7.5450   17.9270  -32.4140 C   0  0  0  0  0  0  0  0  0  0  0  0
   -7.8440   21.9530  -30.8850 C   0  0  0  0  0  0  0  0  0  0  0  0
   -7.2680   23.0570  -30.2500 C   0  0  0  0  0  0  0  0  0  0  0  0
   -2.6858   24.7792  -25.1494 H   0  0  0  0  0  0  0  0  0  0  0  0
   -2.4999   26.3051  -26.0787 H   0  0  0  0  0  0  0  0  0  0  0  0
   -4.0739   25.4396  -26.0787 H   0  0  0  0  0  0  0  0  0  0  0  0
    0.3163   22.0290  -28.0723 H   0  0  0  0  0  0  0  0  0  0  0  0
   -0.5976   21.5759  -29.5508 H   0  0  0  0  0  0  0  0  0  0  0  0
    0.4412   23.0414  -29.5508 H   0  0  0  0  0  0  0  0  0  0  0  0
   -3.4968   21.6922  -30.0946 H   0  0  0  0  0  0  0  0  0  0  0  0
   -3.6309   23.2698  -30.9432 H   0  0  0  0  0  0  0  0  0  0  0  0
   -2.0706   22.3798  -30.9432 H   0  0  0  0  0  0  0  0  0  0  0  0
   -5.4090   23.8750  -27.8660 H   0  0  0  0  0  0  0  0  0  0  0  0
   -4.7942   23.7576  -32.5045 H   0  0  0  0  0  0  0  0  0  0  0  0
   -5.8144   21.7824  -33.6322 H   0  0  0  0  0  0  0  0  0  0  0  0
   -5.9408   20.1614  -34.4478 H   0  0  0  0  0  0  0  0  0  0  0  0
   -4.7000   18.0910  -35.0704 H   0  0  0  0  0  0  0  0  0  0  0  0
   -4.5058   15.0663  -31.8695 H   0  0  0  0  0  0  0  0  0  0  0  0
   -3.9661   13.6601  -32.8483 H   0  0  0  0  0  0  0  0  0  0  0  0
   -3.0037   15.1768  -32.8483 H   0  0  0  0  0  0  0  0  0  0  0  0
   -7.1232   15.8041  -32.3076 H   0  0  0  0  0  0  0  0  0  0  0  0
   -8.3548   17.8773  -31.6712 H   0  0  0  0  0  0  0  0  0  0  0  0
   -8.7233   21.4632  -30.4412 H   0  0  0  0  0  0  0  0  0  0  0  0
   -7.6818   23.4186  -29.2971 H   0  0  0  0  0  0  0  0  0  0  0  0
  1  2  1  0
  2  3  2  0
  3  4  1  0
  4  5  1  0
  4  6  1  0
  6  7  1  0
  6  8  2  0
  8  9  1  0
  9 10  1  0
 10 11  2  0
 10 12  2  0
 10 13  1  0
 13 14  2  0
 14 15  1  0
 15 16  2  0
 16 17  1  0
 17 18  1  0
 18 19  2  0
 19 20  1  0
 20 21  2  0
 21 22  1  0
 22 23  1  0
 22 24  2  0
 22 25  2  0
 21 26  1  0
 26 27  2  0
 16 28  1  0
 28 29  2  0
  8  2  1  0
 29 13  1  0
 27 18  1  0
  1 30  1  0
  1 31  1  0
  1 32  1  0
  5 33  1  0
  5 34  1  0
  5 35  1  0
  7 36  1  0
  7 37  1  0
  7 38  1  0
  9 39  1  0
 14 40  1  0
 15 41  1  0
 19 42  1  0
 20 43  1  0
 23 44  1  0
 23 45  1  0
 23 46  1  0
 26 47  1  0
 27 48  1  0
 28 49  1  0
 29 50  1  0
M  END
>  <UniqueID>  (6) 
6

>  <SMILES>  (6) 
Cc1nn(C)c(C)c1NS(=O)(=O)c1ccc(Oc2ccc(S(C)(=O)=O)cc2)cc1

>  <Energy>  (6) 
89.3083925554191

>  <Genealogy>  (6) 
Cc1nn(C)c(C)c1NS(=O)(=O)c1ccc(Oc2ccc(S(C)(=O)=O)cc2)cc1 (3D coordinates assigned)
Cc1nn(C)c(C)c1NS(=O)(=O)c1ccc(Oc2ccc(S(C)(=O)=O)cc2)cc1 (optimized conformer: 89.3083925554191 kcal/mol)

>  <smiles>  (6) 
Cc1nn(C)c(C)c1NS(=O)(=O)c1ccc(Oc2ccc(S(C)(=O)=O)cc2)cc1

>  <score_type>  (6) 
oracle

>  <origin>  (6) 
adgpu

>  <m_score__min__energy>  (6) 
-9.7200000000000006

>  <m_primary>  (6) 
energy

$$$$
6:0
     RDKit          3D

 51 54  0  0  0  0  0  0  0  0999 V2000
   -0.8720   26.0840  -24.3000 C   0  0  0  0  0  0  0  0  0  0  0  0
   -2.0860   26.3090  -25.0070 O   0  0  0  0  0  0  0  0  0  0  0  0
   -2.3940   25.6580  -26.2050 C   0  0  0  0  0  0  0  0  0  0  0  0
   -1.5230   25.7530  -27.2910 C   0  0  0  0  0  0  0  0  0  0  0  0
   -1.8280   25.1170  -28.4520 N   0  0  0  0  0  0  0  0  0  0  0  0
   -2.9670   24.3830  -28.5870 C   0  0  0  0  0  0  0  0  0  0  0  0
   -3.2640   23.7120  -29.8700 C   0  0  0  0  0  0  0  0  0  0  0  0
   -3.7710   24.3710  -30.8170 O   0  0  0  0  0  0  0  0  0  0  0  0
   -3.0120   22.3040  -30.0280 N   0  0  0  0  0  0  0  0  0  0  0  0
   -3.0130   21.6280  -31.2980 C   0  0  0  0  0  0  0  0  0  0  0  0
   -1.9660   21.8010  -32.2150 C   0  0  0  0  0  0  0  0  0  0  0  0
   -1.9700   21.1060  -33.4230 C   0  0  0  0  0  0  0  0  0  0  0  0
   -3.0120   20.2300  -33.7260 C   0  0  0  0  0  0  0  0  0  0  0  0
   -4.0830   20.0290  -32.8280 C   0  0  0  0  0  0  0  0  0  0  0  0
   -5.1840   19.0020  -33.1880 C   0  0  1  0  0  0  0  0  0  0  0  0
   -5.4340   18.9510  -34.7210 C   0  0  0  0  0  0  0  0  0  0  0  0
   -4.7290   17.6600  -32.7520 N   0  0  0  0  0  0  0  0  0  0  0  0
   -5.5290   16.6490  -32.5430 C   0  0  0  0  0  0  0  0  0  0  0  0
   -5.0360   15.4610  -31.9200 N   0  0  0  0  0  0  0  0  0  0  0  0
   -7.2440   16.6840  -33.0820 S   0  0  0  0  0  0  0  0  0  0  0  0
   -7.5650   18.3260  -32.4340 C   0  0  0  0  0  0  0  0  0  0  0  0
   -8.8080   18.6360  -32.0430 C   0  0  0  0  0  0  0  0  0  0  0  0
   -9.1610   19.9570  -31.7270 O   0  0  0  0  0  0  0  0  0  0  0  0
   -8.2330   21.0470  -31.7550 C   0  0  0  0  0  0  0  0  0  0  0  0
   -7.0830   20.7620  -32.7280 C   0  0  0  0  0  0  0  0  0  0  0  0
   -6.4800   19.3820  -32.3870 C   0  0  2  0  0  0  0  0  0  0  0  0
   -4.0480   20.7280  -31.5970 C   0  0  0  0  0  0  0  0  0  0  0  0
   -3.8430   24.2910  -27.4930 C   0  0  0  0  0  0  0  0  0  0  0  0
   -3.5360   24.9270  -26.3340 N   0  0  0  0  0  0  0  0  0  0  0  0
   -1.0659   26.1199  -23.2178 H   0  0  0  0  0  0  0  0  0  0  0  0
   -0.4694   25.0960  -24.5678 H   0  0  0  0  0  0  0  0  0  0  0  0
   -0.1421   26.8622  -24.5678 H   0  0  0  0  0  0  0  0  0  0  0  0
   -0.5957   26.3389  -27.2076 H   0  0  0  0  0  0  0  0  0  0  0  0
   -2.9120   21.7210  -29.1670 H   0  0  0  0  0  0  0  0  0  0  0  0
   -1.1391   22.4873  -31.9800 H   0  0  0  0  0  0  0  0  0  0  0  0
   -1.1482   21.2489  -34.1401 H   0  0  0  0  0  0  0  0  0  0  0  0
   -2.9993   19.6858  -34.6819 H   0  0  0  0  0  0  0  0  0  0  0  0
   -6.4954   18.7345  -34.9124 H   0  0  0  0  0  0  0  0  0  0  0  0
   -5.1713   19.9212  -35.1678 H   0  0  0  0  0  0  0  0  0  0  0  0
   -4.8123   18.1612  -35.1678 H   0  0  0  0  0  0  0  0  0  0  0  0
   -3.7170   17.5280  -32.5210 H   0  0  0  0  0  0  0  0  0  0  0  0
   -4.0450   15.3910  -31.5990 H   0  0  0  0  0  0  0  0  0  0  0  0
   -5.6690   14.6450  -31.7710 H   0  0  0  0  0  0  0  0  0  0  0  0
   -9.5651   17.8415  -31.9683 H   0  0  0  0  0  0  0  0  0  0  0  0
   -8.7582   21.9589  -32.0754 H   0  0  0  0  0  0  0  0  0  0  0  0
   -7.8151   21.1786  -30.7460 H   0  0  0  0  0  0  0  0  0  0  0  0
   -7.4637   20.7553  -33.7600 H   0  0  0  0  0  0  0  0  0  0  0  0
   -6.3123   21.5416  -32.6377 H   0  0  0  0  0  0  0  0  0  0  0  0
   -6.0995   19.4434  -31.3567 H   0  0  0  0  0  0  0  0  0  0  0  0
   -4.8479   20.5624  -30.8603 H   0  0  0  0  0  0  0  0  0  0  0  0
   -4.7718   23.7073  -27.5750 H   0  0  0  0  0  0  0  0  0  0  0  0
  1  2  1  0
  2  3  1  0
  3  4  2  0
  4  5  1  0
  5  6  2  0
  6  7  1  0
  7  8  2  0
  7  9  1  0
  9 10  1  0
 10 11  2  0
 11 12  1  0
 12 13  2  0
 13 14  1  0
 14 15  1  0
 15 16  1  6
 15 17  1  0
 17 18  2  0
 18 19  1  0
 18 20  1  0
 20 21  1  0
 21 22  2  0
 22 23  1  0
 23 24  1  0
 24 25  1  0
 25 26  1  0
 14 27  2  0
  6 28  1  0
 28 29  2  0
 29  3  1  0
 27 10  1  0
 26 15  1  0
 26 21  1  0
  1 30  1  0
  1 31  1  0
  1 32  1  0
  4 33  1  0
  9 34  1  0
 11 35  1  0
 12 36  1  0
 13 37  1  0
 16 38  1  0
 16 39  1  0
 16 40  1  0
 17 41  1  0
 19 42  1  0
 19 43  1  0
 22 44  1  0
 24 45  1  0
 24 46  1  0
 25 47  1  0
 25 48  1  0
 26 49  1  1
 27 50  1  0
 28 51  1  0
M  CHG  1  17   1
M  END
>  <UniqueID>  (7) 
7

>  <SMILES>  (7) 
COc1cnc(C(=O)Nc2cccc([C@@]3(C)[NH+]=C(N)SC4=COCC[C@@H]43)c2)cn1

>  <Energy>  (7) 
77.23036182611247

>  <Genealogy>  (7) 
COc1cnc(C(=O)Nc2cccc(C3(C)[NH+]=C(N)SC4=COCCC43)c2)cn1 (protonated)
COc1cnc(C(=O)Nc2cccc([C@@]3(C)[NH+]=C(N)SC4=COCC[C@@H]43)c2)cn1 (chirality)
COc1cnc(C(=O)Nc2cccc([C@@]3(C)[NH+]=C(N)SC4=COCC[C@@H]43)c2)cn1 (3D coordinates assigned)
COc1cnc(C(=O)Nc2cccc([C@@]3(C)[NH+]=C(N)SC4=COCC[C@@H]43)c2)cn1 (nonaromatic ring conformer: 77.23036182611247 kcal/mol)

>  <smiles>  (7) 
COc1cnc(C(=O)Nc2cccc(C3(C)N=C(N)SC4=COCCC43)c2)cn1

>  <score_type>  (7) 
oracle

>  <origin>  (7) 
adgpu

>  <m_score__min__energy>  (7) 
-8.6500000000000004

>  <m_primary>  (7) 
energy

$$$$
7:0
     RDKit          3D

 51 54  0  0  0  0  0  0  0  0999 V2000
   -0.4040   30.5380  -26.4610 C   0  0  0  0  0  0  0  0  0  0  0  0
   -1.0830   29.8530  -25.2810 C   0  0  0  0  0  0  0  0  0  0  0  0
   -0.6210   28.5090  -25.1420 O   0  0  0  0  0  0  0  0  0  0  0  0
   -0.9100   27.4500  -26.0190 C   0  0  0  0  0  0  0  0  0  0  0  0
   -0.5080   27.4430  -27.3680 C   0  0  0  0  0  0  0  0  0  0  0  0
   -0.8260   26.3610  -28.1930 C   0  0  0  0  0  0  0  0  0  0  0  0
   -1.5440   25.2660  -27.6880 C   0  0  0  0  0  0  0  0  0  0  0  0
   -1.8700   24.1530  -28.5420 N   0  0  0  0  0  0  0  0  0  0  0  0
   -1.4640   22.8710  -28.4010 C   0  0  0  0  0  0  0  0  0  0  0  0
   -0.6100   22.4270  -27.3990 O   0  0  0  0  0  0  0  0  0  0  0  0
   -1.9900   22.0660  -29.3930 C   0  0  0  0  0  0  0  0  0  0  0  0
   -2.7450   22.9080  -30.1920 C   0  0  0  0  0  0  0  0  0  0  0  0
   -3.5300   22.5110  -31.3310 N   0  0  0  0  0  0  0  0  0  0  0  0
   -4.9360   22.9130  -31.4630 C   0  0  0  0  0  0  0  0  0  0  0  0
   -5.7980   21.6860  -31.7750 C   0  0  0  0  0  0  0  0  0  0  0  0
   -5.1530   20.8170  -32.7750 N   0  0  0  0  0  0  0  0  0  0  0  0
   -5.6940   19.5090  -33.0340 C   0  0  0  0  0  0  0  0  0  0  0  0
   -6.6600   18.9540  -32.1750 C   0  0  0  0  0  0  0  0  0  0  0  0
   -7.1950   17.6870  -32.4360 C   0  0  0  0  0  0  0  0  0  0  0  0
   -6.7730   16.9660  -33.5560 C   0  0  0  0  0  0  0  0  0  0  0  0
   -7.2920   15.7390  -33.8070 F   0  0  0  0  0  0  0  0  0  0  0  0
   -5.8190   17.5120  -34.4180 C   0  0  0  0  0  0  0  0  0  0  0  0
   -5.2830   18.7770  -34.1620 C   0  0  0  0  0  0  0  0  0  0  0  0
   -3.9250   21.2680  -33.4450 C   0  0  0  0  0  0  0  0  0  0  0  0
   -2.8990   21.7180  -32.3980 C   0  0  0  0  0  0  0  0  0  0  0  0
   -2.6640   24.1720  -29.6320 C   0  0  0  0  0  0  0  0  0  0  0  0
   -3.3550   25.2970  -30.0700 O   0  0  0  0  0  0  0  0  0  0  0  0
   -1.9390   25.2720  -26.3420 C   0  0  0  0  0  0  0  0  0  0  0  0
   -1.6230   26.3550  -25.5170 C   0  0  0  0  0  0  0  0  0  0  0  0
    0.3247   31.2731  -26.0886 H   0  0  0  0  0  0  0  0  0  0  0  0
    0.1146   29.7854  -27.0731 H   0  0  0  0  0  0  0  0  0  0  0  0
   -1.1612   31.0499  -27.0731 H   0  0  0  0  0  0  0  0  0  0  0  0
   -0.8549   30.4100  -24.3603 H   0  0  0  0  0  0  0  0  0  0  0  0
   -2.1684   29.8367  -25.4589 H   0  0  0  0  0  0  0  0  0  0  0  0
    0.0591   28.2933  -27.7746 H   0  0  0  0  0  0  0  0  0  0  0  0
   -0.5110   26.3675  -29.2469 H   0  0  0  0  0  0  0  0  0  0  0  0
   -1.8405   20.9838  -29.5211 H   0  0  0  0  0  0  0  0  0  0  0  0
   -5.2758   23.3684  -30.5211 H   0  0  0  0  0  0  0  0  0  0  0  0
   -5.0307   23.6417  -32.2816 H   0  0  0  0  0  0  0  0  0  0  0  0
   -5.9531   21.1126  -30.8492 H   0  0  0  0  0  0  0  0  0  0  0  0
   -6.7583   22.0323  -32.1847 H   0  0  0  0  0  0  0  0  0  0  0  0
   -6.9968   19.5188  -31.2932 H   0  0  0  0  0  0  0  0  0  0  0  0
   -7.9484   17.2586  -31.7586 H   0  0  0  0  0  0  0  0  0  0  0  0
   -5.4888   16.9447  -35.3007 H   0  0  0  0  0  0  0  0  0  0  0  0
   -4.5350   19.2026  -34.8471 H   0  0  0  0  0  0  0  0  0  0  0  0
   -3.5056   20.4400  -34.0353 H   0  0  0  0  0  0  0  0  0  0  0  0
   -4.1619   22.1126  -34.1087 H   0  0  0  0  0  0  0  0  0  0  0  0
   -2.4294   20.8287  -31.9524 H   0  0  0  0  0  0  0  0  0  0  0  0
   -2.1486   22.3477  -32.8984 H   0  0  0  0  0  0  0  0  0  0  0  0
   -2.5009   24.4192  -25.9334 H   0  0  0  0  0  0  0  0  0  0  0  0
   -1.9376   26.3468  -24.4630 H   0  0  0  0  0  0  0  0  0  0  0  0
  1  2  1  0
  2  3  1  0
  3  4  1  0
  4  5  2  0
  5  6  1  0
  6  7  2  0
  7  8  1  0
  8  9  1  0
  9 10  1  0
  9 11  2  0
 11 12  1  0
 12 13  1  0
 13 14  1  0
 14 15  1  0
 15 16  1  0
 16 17  1  0
 17 18  2  0
 18 19  1  0
 19 20  2  0
 20 21  1  0
 20 22  1  0
 22 23  2  0
 16 24  1  0
 24 25  1  0
 12 26  2  0
 26 27  1  0
  7 28  1  0
 28 29  2  0
 29  4  1  0
 26  8  1  0
 25 13  1  0
 23 17  1  0
  1 30  1  0
  1 31  1  0
  1 32  1  0
  2 33  1  0
  2 34  1  0
  5 35  1  0
  6 36  1  0
 11 37  1  0
 14 38  1  0
 14 39  1  0
 15 40  1  0
 15 41  1  0
 18 42  1  0
 19 43  1  0
 22 44  1  0
 23 45  1  0
 24 46  1  0
 24 47  1  0
 25 48  1  0
 25 49  1  0
 28 50  1  0
 29 51  1  0
M  CHG  2  10  -1  27  -1
M  END
>  <UniqueID>  (8) 
8

>  <SMILES>  (8) 
CCOc1ccc(-n2c([O-])cc(N3CCN(c4ccc(F)cc4)CC3)c2[O-])cc1

>  <Energy>  (8) 
94.9329130491631

>  <Genealogy>  (8) 
CCOc1ccc(-n2c([O-])cc(N3CCN(c4ccc(F)cc4)CC3)c2[O-])cc1 (protonated)
CCOc1ccc(-n2c([O-])cc(N3CCN(c4ccc(F)cc4)CC3)c2[O-])cc1 (3D coordinates assigned)
CCOc1ccc(-n2c([O-])cc(N3CCN(c4ccc(F)cc4)CC3)c2[O-])cc1 (nonaromatic ring conformer: 94.9329130491631 kcal/mol)

>  <smiles>  (8) 
CCOc1ccc(-n2c(O)cc(N3CCN(c4ccc(F)cc4)CC3)c2O)cc1

>  <score_type>  (8) 
oracle

>  <origin>  (8) 
adgpu

>  <m_score__min__energy>  (8) 
-10.949999999999999

>  <m_primary>  (8) 
energy

$$$$
8:0
     RDKit          3D

 49 51  0  0  0  0  0  0  0  0999 V2000
   -6.3400   19.3900  -33.2630 C   0  0  0  0  0  0  0  0  0  0  0  0
   -5.6060   20.5680  -32.9490 O   0  0  0  0  0  0  0  0  0  0  0  0
   -6.1000   21.6500  -32.2020 C   0  0  0  0  0  0  0  0  0  0  0  0
   -7.4240   21.6560  -31.7260 C   0  0  0  0  0  0  0  0  0  0  0  0
   -7.8880   22.7060  -30.9390 C   0  0  0  0  0  0  0  0  0  0  0  0
   -7.0430   23.7620  -30.6110 C   0  0  0  0  0  0  0  0  0  0  0  0
   -5.7180   23.7900  -31.0730 C   0  0  0  0  0  0  0  0  0  0  0  0
   -4.8800   24.9800  -30.7610 C   0  0  0  0  0  0  0  0  0  0  0  0
   -5.4010   26.1260  -30.8350 O   0  0  0  0  0  0  0  0  0  0  0  0
   -3.4840   24.8900  -30.4450 N   0  0  0  0  0  0  0  0  0  0  0  0
   -2.9110   24.7520  -29.1360 C   0  0  0  0  0  0  0  0  0  0  0  0
   -3.6810   24.3560  -28.0310 C   0  0  0  0  0  0  0  0  0  0  0  0
   -3.0940   24.2500  -26.7660 C   0  0  0  0  0  0  0  0  0  0  0  0
   -1.7250   24.5350  -26.5900 C   0  0  0  0  0  0  0  0  0  0  0  0
   -1.0860   24.4450  -25.3440 O   0  0  0  0  0  0  0  0  0  0  0  0
    0.0910   23.2690  -24.9350 S   0  0  0  0  0  0  0  0  0  0  0  0
    1.3940   24.0360  -24.1000 N   0  0  0  0  0  0  0  0  0  0  0  0
   -0.5260   22.2280  -24.0440 O   0  0  0  0  0  0  0  0  0  0  0  0
    0.6200   22.6170  -26.1850 O   0  0  0  0  0  0  0  0  0  0  0  0
   -0.9660   24.9320  -27.6960 C   0  0  0  0  0  0  0  0  0  0  0  0
   -1.5560   25.0540  -28.9570 C   0  0  0  0  0  0  0  0  0  0  0  0
   -5.2450   22.7380  -31.8950 C   0  0  0  0  0  0  0  0  0  0  0  0
   -3.9240   22.8110  -32.3680 O   0  0  0  0  0  0  0  0  0  0  0  0
   -2.9800   21.7410  -32.4140 C   0  0  0  0  0  0  0  0  0  0  0  0
   -2.4160   21.5610  -31.0350 C   0  0  0  0  0  0  0  0  0  0  0  0
   -1.0850   21.9220  -30.7720 C   0  0  0  0  0  0  0  0  0  0  0  0
   -0.5810   21.8600  -29.4670 C   0  0  0  0  0  0  0  0  0  0  0  0
   -1.4080   21.4480  -28.4170 C   0  0  0  0  0  0  0  0  0  0  0  0
   -2.7370   21.0970  -28.6680 C   0  0  0  0  0  0  0  0  0  0  0  0
   -3.2440   21.1560  -29.9720 C   0  0  0  0  0  0  0  0  0  0  0  0
   -6.6501   18.8923  -32.3324 H   0  0  0  0  0  0  0  0  0  0  0  0
   -7.2309   19.6585  -33.8497 H   0  0  0  0  0  0  0  0  0  0  0  0
   -5.7063   18.7086  -33.8497 H   0  0  0  0  0  0  0  0  0  0  0  0
   -8.0980   20.8240  -31.9779 H   0  0  0  0  0  0  0  0  0  0  0  0
   -8.9260   22.7012  -30.5751 H   0  0  0  0  0  0  0  0  0  0  0  0
   -7.4176   24.5836  -29.9828 H   0  0  0  0  0  0  0  0  0  0  0  0
   -4.7494   24.1284  -28.1605 H   0  0  0  0  0  0  0  0  0  0  0  0
   -3.7040   23.9426  -25.9038 H   0  0  0  0  0  0  0  0  0  0  0  0
    1.6310   23.4270  -23.2830 H   0  0  0  0  0  0  0  0  0  0  0  0
    1.0180   24.9300  -23.7100 H   0  0  0  0  0  0  0  0  0  0  0  0
    0.1050   25.1501  -27.5720 H   0  0  0  0  0  0  0  0  0  0  0  0
   -0.9524   25.3891  -29.8134 H   0  0  0  0  0  0  0  0  0  0  0  0
   -3.4798   20.8158  -32.7367 H   0  0  0  0  0  0  0  0  0  0  0  0
   -2.1761   21.9709  -33.1288 H   0  0  0  0  0  0  0  0  0  0  0  0
   -0.4352   22.2550  -31.5947 H   0  0  0  0  0  0  0  0  0  0  0  0
    0.4652   22.1353  -29.2677 H   0  0  0  0  0  0  0  0  0  0  0  0
   -1.0116   21.4002  -27.3920 H   0  0  0  0  0  0  0  0  0  0  0  0
   -3.3857   20.7740  -27.8404 H   0  0  0  0  0  0  0  0  0  0  0  0
   -4.2923   20.8850  -30.1658 H   0  0  0  0  0  0  0  0  0  0  0  0
  1  2  1  0
  2  3  1  0
  3  4  2  0
  4  5  1  0
  5  6  2  0
  6  7  1  0
  7  8  1  0
  8  9  2  0
  8 10  1  0
 10 11  1  0
 11 12  2  0
 12 13  1  0
 13 14  2  0
 14 15  1  0
 15 16  1  0
 16 17  1  0
 16 18  2  0
 16 19  2  0
 14 20  1  0
 20 21  2  0
  7 22  2  0
 22 23  1  0
 23 24  1  0
 24 25  1  0
 25 26  2  0
 26 27  1  0
 27 28  2  0
 28 29  1  0
 29 30  2  0
 22  3  1  0
 30 25  1  0
 21 11  1  0
  1 31  1  0
  1 32  1  0
  1 33  1  0
  4 34  1  0
  5 35  1  0
  6 36  1  0
 12 37  1  0
 13 38  1  0
 17 39  1  0
 17 40  1  0
 20 41  1  0
 21 42  1  0
 24 43  1  0
 24 44  1  0
 26 45  1  0
 27 46  1  0
 28 47  1  0
 29 48  1  0
 30 49  1  0
M  CHG  1  10  -1
M  END
>  <UniqueID>  (9) 
9

>  <SMILES>  (9) 
COc1cccc(C(=O)[N-]c2ccc(OS(N)(=O)=O)cc2)c1OCc1ccccc1

>  <Energy>  (9) 
57.18597093210475

>  <Genealogy>  (9) 
COc1cccc(C(=O)[N-]c2ccc(OS(N)(=O)=O)cc2)c1OCc1ccccc1 (protonated)
COc1cccc(C(=O)[N-]c2ccc(OS(N)(=O)=O)cc2)c1OCc1ccccc1 (3D coordinates assigned)
COc1cccc(C(=O)[N-]c2ccc(OS(N)(=O)=O)cc2)c1OCc1ccccc1 (optimized conformer: 57.18597093210475 kcal/mol)

>  <smiles>  (9) 
COc1cccc(C(=O)Nc2ccc(OS(N)(=O)=O)cc2)c1OCc1ccccc1

>  <score_type>  (9) 
oracle

>  <origin>  (9) 
adgpu

>  <m_score__min__energy>  (9) 
-10.029999999999999

>  <m_primary>  (9) 
energy

$$$$
9:0
     RDKit          3D

 40 42  0  0  0  0  0  0  0  0999 V2000
   -0.8470   26.7990  -27.8430 C   0  0  0  0  0  0  0  0  0  0  0  0
   -1.2840   26.0260  -28.9560 O   0  0  0  0  0  0  0  0  0  0  0  0
   -1.4260   24.6290  -28.9460 C   0  0  0  0  0  0  0  0  0  0  0  0
   -0.5170   23.7910  -28.2690 C   0  0  0  0  0  0  0  0  0  0  0  0
   -0.6790   22.4060  -28.2970 C   0  0  0  0  0  0  0  0  0  0  0  0
   -1.7480   21.8410  -28.9940 C   0  0  0  0  0  0  0  0  0  0  0  0
   -2.6600   22.6600  -29.6630 C   0  0  0  0  0  0  0  0  0  0  0  0
   -2.5040   24.0590  -29.6460 C   0  0  0  0  0  0  0  0  0  0  0  0
   -3.4120   24.9280  -30.3390 N   0  0  0  0  0  0  0  0  0  0  0  0
   -5.1230   24.6880  -30.4800 S   0  0  0  0  0  0  0  0  0  0  0  0
   -5.7210   25.8680  -31.1920 O   0  0  0  0  0  0  0  0  0  0  0  0
   -5.7160   24.5900  -29.1030 O   0  0  0  0  0  0  0  0  0  0  0  0
   -5.4680   23.2280  -31.4030 C   0  0  0  0  0  0  0  0  0  0  0  0
   -4.4870   22.6830  -32.2410 C   0  0  0  0  0  0  0  0  0  0  0  0
   -4.7710   21.5520  -33.0100 C   0  0  0  0  0  0  0  0  0  0  0  0
   -6.0330   20.9570  -32.9430 C   0  0  0  0  0  0  0  0  0  0  0  0
   -7.0160   21.4740  -32.0890 C   0  0  0  0  0  0  0  0  0  0  0  0
   -8.3100   20.8550  -32.0790 N   0  0  0  0  0  0  0  0  0  0  0  0
   -8.6420   19.5470  -32.5610 C   0  0  0  0  0  0  0  0  0  0  0  0
   -9.7900   19.2980  -33.0170 O   0  0  0  0  0  0  0  0  0  0  0  0
   -7.6430   18.4770  -32.4710 C   0  0  0  0  0  0  0  0  0  0  0  0
   -6.8660   18.1790  -31.3690 C   0  0  0  0  0  0  0  0  0  0  0  0
   -6.0850   17.1090  -31.7480 C   0  0  0  0  0  0  0  0  0  0  0  0
   -6.4360   16.8200  -33.0510 C   0  0  0  0  0  0  0  0  0  0  0  0
   -7.3660   17.6530  -33.4540 O   0  0  0  0  0  0  0  0  0  0  0  0
   -6.7290   22.6210  -31.3250 C   0  0  0  0  0  0  0  0  0  0  0  0
   -1.1334   26.2923  -26.9096 H   0  0  0  0  0  0  0  0  0  0  0  0
    0.2469   26.9089  -27.8798 H   0  0  0  0  0  0  0  0  0  0  0  0
   -1.3168   27.7929  -27.8798 H   0  0  0  0  0  0  0  0  0  0  0  0
    0.3251   24.2319  -27.7154 H   0  0  0  0  0  0  0  0  0  0  0  0
    0.0365   21.7583  -27.7692 H   0  0  0  0  0  0  0  0  0  0  0  0
   -1.8724   20.7483  -29.0164 H   0  0  0  0  0  0  0  0  0  0  0  0
   -3.5042   22.2099  -30.2058 H   0  0  0  0  0  0  0  0  0  0  0  0
   -3.4908   23.1466  -32.2937 H   0  0  0  0  0  0  0  0  0  0  0  0
   -3.9991   21.1290  -33.6698 H   0  0  0  0  0  0  0  0  0  0  0  0
   -6.2564   20.0773  -33.5645 H   0  0  0  0  0  0  0  0  0  0  0  0
   -6.8698   18.6885  -30.3941 H   0  0  0  0  0  0  0  0  0  0  0  0
   -5.3332   16.5898  -31.1354 H   0  0  0  0  0  0  0  0  0  0  0  0
   -6.0017   16.0132  -33.6597 H   0  0  0  0  0  0  0  0  0  0  0  0
   -7.4990   23.0435  -30.6628 H   0  0  0  0  0  0  0  0  0  0  0  0
  1  2  1  0
  2  3  1  0
  3  4  2  0
  4  5  1  0
  5  6  2  0
  6  7  1  0
  7  8  2  0
  8  9  1  0
  9 10  1  0
 10 11  2  0
 10 12  2  0
 10 13  1  0
 13 14  2  0
 14 15  1  0
 15 16  2  0
 16 17  1  0
 17 18  1  0
 18 19  1  0
 19 20  2  0
 19 21  1  0
 21 22  2  0
 22 23  1  0
 23 24  2  0
 24 25  1  0
 17 26  2  0
  8  3  1  0
 26 13  1  0
 25 21  1  0
  1 27  1  0
  1 28  1  0
  1 29  1  0
  4 30  1  0
  5 31  1  0
  6 32  1  0
  7 33  1  0
 14 34  1  0
 15 35  1  0
 16 36  1  0
 22 37  1  0
 23 38  1  0
 24 39  1  0
 26 40  1  0
M  CHG  2   9  -1  18  -1
M  END
>  <UniqueID>  (10) 
10

>  <SMILES>  (10) 
COc1ccccc1[N-]S(=O)(=O)c1cccc([N-]C(=O)c2ccco2)c1

>  <Energy>  (10) 
73.26007411283358

>  <Genealogy>  (10) 
COc1ccccc1[N-]S(=O)(=O)c1cccc([N-]C(=O)c2ccco2)c1 (protonated)
COc1ccccc1[N-]S(=O)(=O)c1cccc([N-]C(=O)c2ccco2)c1 (3D coordinates assigned)
COc1ccccc1[N-]S(=O)(=O)c1cccc([N-]C(=O)c2ccco2)c1 (optimized conformer: 73.26007411283358 kcal/mol)

>  <smiles>  (10) 
COc1ccccc1NS(=O)(=O)c1cccc(NC(=O)c2ccco2)c1

>  <score_type>  (10) 
oracle

>  <origin>  (10) 
adgpu

>  <m_score__min__energy>  (10) 
-10.23

>  <m_primary>  (10) 
energy

$$$$
10:0
     RDKit          3D

 43 45  0  0  0  0  0  0  0  0999 V2000
   -6.8650   24.8070  -29.8000 C   0  0  0  0  0  0  0  0  0  0  0  0
   -6.0330   26.0490  -30.0750 C   0  0  0  0  0  0  0  0  0  0  0  0
   -4.8890   25.6950  -30.8500 O   0  0  0  0  0  0  0  0  0  0  0  0
   -4.2920   24.4240  -30.8450 C   0  0  0  0  0  0  0  0  0  0  0  0
   -4.8250   23.3440  -31.5710 C   0  0  0  0  0  0  0  0  0  0  0  0
   -4.2390   22.0690  -31.4930 C   0  0  0  0  0  0  0  0  0  0  0  0
   -4.8230   20.9130  -32.2160 C   0  0  0  0  0  0  0  0  0  0  0  0
   -6.1760   20.7610  -32.1920 N   0  0  0  0  0  0  0  0  0  0  0  0
   -6.8060   19.7190  -32.7930 C   0  0  0  0  0  0  0  0  0  0  0  0
   -8.1910   19.6130  -32.7340 O   0  0  0  0  0  0  0  0  0  0  0  0
   -6.0630   18.7520  -33.4670 C   0  0  0  0  0  0  0  0  0  0  0  0
   -4.6740   18.8750  -33.5360 C   0  0  0  0  0  0  0  0  0  0  0  0
   -4.0100   18.0110  -34.1710 O   0  0  0  0  0  0  0  0  0  0  0  0
   -4.0290   19.9650  -32.9160 C   0  0  0  0  0  0  0  0  0  0  0  0
   -2.5600   20.1250  -33.0480 C   0  0  0  0  0  0  0  0  0  0  0  0
   -2.0300   21.1520  -33.8440 C   0  0  0  0  0  0  0  0  0  0  0  0
   -0.6480   21.2640  -34.0240 C   0  0  0  0  0  0  0  0  0  0  0  0
    0.2250   20.3500  -33.4030 C   0  0  0  0  0  0  0  0  0  0  0  0
    1.6170   20.4110  -33.5640 O   0  0  0  0  0  0  0  0  0  0  0  0
    2.4060   19.3720  -34.1360 C   0  0  0  0  0  0  0  0  0  0  0  0
   -0.3070   19.3390  -32.5960 C   0  0  0  0  0  0  0  0  0  0  0  0
   -1.6890   19.2250  -32.4160 C   0  0  0  0  0  0  0  0  0  0  0  0
   -3.0680   21.8990  -30.7390 C   0  0  0  0  0  0  0  0  0  0  0  0
   -2.5180   22.9750  -30.0400 C   0  0  0  0  0  0  0  0  0  0  0  0
   -3.1300   24.2320  -30.0860 C   0  0  0  0  0  0  0  0  0  0  0  0
   -2.5800   25.2900  -29.3720 O   0  0  0  0  0  0  0  0  0  0  0  0
   -6.9613   24.6633  -28.7137 H   0  0  0  0  0  0  0  0  0  0  0  0
   -7.8641   24.9293  -30.2436 H   0  0  0  0  0  0  0  0  0  0  0  0
   -6.3717   23.9296  -30.2436 H   0  0  0  0  0  0  0  0  0  0  0  0
   -6.6391   26.7806  -30.6295 H   0  0  0  0  0  0  0  0  0  0  0  0
   -5.7068   26.4895  -29.1213 H   0  0  0  0  0  0  0  0  0  0  0  0
   -5.7095   23.4987  -32.2064 H   0  0  0  0  0  0  0  0  0  0  0  0
   -8.7240   19.3110  -33.5410 H   0  0  0  0  0  0  0  0  0  0  0  0
   -6.5674   17.8974  -33.9416 H   0  0  0  0  0  0  0  0  0  0  0  0
   -2.7052   21.8725  -34.3288 H   0  0  0  0  0  0  0  0  0  0  0  0
   -0.2410   22.0693  -34.6532 H   0  0  0  0  0  0  0  0  0  0  0  0
    2.8609   18.7729  -33.3334 H   0  0  0  0  0  0  0  0  0  0  0  0
    1.7679   18.7272  -34.7581 H   0  0  0  0  0  0  0  0  0  0  0  0
    3.1984   19.8136  -34.7581 H   0  0  0  0  0  0  0  0  0  0  0  0
    0.3679   18.6271  -32.0984 H   0  0  0  0  0  0  0  0  0  0  0  0
   -2.0946   18.4270  -31.7767 H   0  0  0  0  0  0  0  0  0  0  0  0
   -2.5811   20.9134  -30.6985 H   0  0  0  0  0  0  0  0  0  0  0  0
   -1.5999   22.8338  -29.4508 H   0  0  0  0  0  0  0  0  0  0  0  0
  1  2  1  0
  2  3  1  0
  3  4  1  0
  4  5  2  0
  5  6  1  0
  6  7  1  0
  7  8  1  0
  8  9  1  0
  9 10  1  0
  9 11  2  0
 11 12  1  0
 12 13  2  0
 12 14  1  0
 14 15  1  0
 15 16  2  0
 16 17  1  0
 17 18  2  0
 18 19  1  0
 19 20  1  0
 18 21  1  0
 21 22  2  0
  6 23  2  0
 23 24  1  0
 24 25  2  0
 25 26  1  0
 25  4  1  0
 14  7  2  0
 22 15  1  0
  1 27  1  0
  1 28  1  0
  1 29  1  0
  2 30  1  0
  2 31  1  0
  5 32  1  0
 10 33  1  0
 11 34  1  0
 16 35  1  0
 17 36  1  0
 20 37  1  0
 20 38  1  0
 20 39  1  0
 21 40  1  0
 22 41  1  0
 23 42  1  0
 24 43  1  0
M  CHG  2   8  -1  26  -1
M  END
>  <UniqueID>  (11) 
11

>  <SMILES>  (11) 
CCOc1cc(-c2[n-]c(O)cc(=O)c2-c2ccc(OC)cc2)ccc1[O-]

>  <Energy>  (11) 
54.07747968622064

>  <Genealogy>  (11) 
CCOc1cc(-c2[n-]c(O)cc(=O)c2-c2ccc(OC)cc2)ccc1[O-] (protonated)
CCOc1cc(-c2[n-]c(O)cc(=O)c2-c2ccc(OC)cc2)ccc1[O-] (3D coordinates assigned)
CCOc1cc(-c2[n-]c(O)cc(=O)c2-c2ccc(OC)cc2)ccc1[O-] (optimized conformer: 54.07747968622064 kcal/mol)

>  <smiles>  (11) 
CCOc1cc(-c2[nH]c(O)cc(=O)c2-c2ccc(OC)cc2)ccc1O

>  <score_type>  (11) 
oracle

>  <origin>  (11) 
adgpu

>  <m_score__min__energy>  (11) 
-10.02

>  <m_primary>  (11) 
energy

$$$$
11:0
     RDKit          3D

 41 43  0  0  0  0  0  0  0  0999 V2000
   -3.9170   22.2540  -33.4060 N   0  0  0  0  0  0  0  0  0  0  0  0
   -4.8730   20.9490  -32.7890 S   0  0  0  0  0  0  0  0  0  0  0  0
   -4.9980   19.8750  -33.8330 O   0  0  0  0  0  0  0  0  0  0  0  0
   -4.1920   20.3770  -31.5760 O   0  0  0  0  0  0  0  0  0  0  0  0
   -6.4800   21.5520  -32.3670 C   0  0  0  0  0  0  0  0  0  0  0  0
   -7.5830   20.6850  -32.4140 C   0  0  0  0  0  0  0  0  0  0  0  0
   -8.8510   21.1360  -32.0490 C   0  0  0  0  0  0  0  0  0  0  0  0
   -9.0320   22.4580  -31.6450 C   0  0  0  0  0  0  0  0  0  0  0  0
   -7.9460   23.3340  -31.6050 C   0  0  0  0  0  0  0  0  0  0  0  0
   -6.6590   22.8910  -31.9640 C   0  0  0  0  0  0  0  0  0  0  0  0
   -5.5270   23.7720  -31.9320 N   0  0  0  0  0  0  0  0  0  0  0  0
   -4.6890   24.2850  -30.5040 S   0  0  0  0  0  0  0  0  0  0  0  0
   -3.8650   25.4980  -30.8240 O   0  0  0  0  0  0  0  0  0  0  0  0
   -5.6920   24.6470  -29.4440 O   0  0  0  0  0  0  0  0  0  0  0  0
   -3.6210   23.0000  -29.9520 C   0  0  0  0  0  0  0  0  0  0  0  0
   -2.4850   22.6730  -30.7010 C   0  0  0  0  0  0  0  0  0  0  0  0
   -1.6310   21.6500  -30.2770 C   0  0  0  0  0  0  0  0  0  0  0  0
   -1.9040   20.9340  -29.0990 C   0  0  0  0  0  0  0  0  0  0  0  0
   -0.9990   19.8470  -28.6480 C   0  0  0  0  0  0  0  0  0  0  0  0
   -1.3350   19.0530  -27.5350 C   0  0  0  0  0  0  0  0  0  0  0  0
   -0.4850   18.0240  -27.1180 C   0  0  0  0  0  0  0  0  0  0  0  0
    0.7080   17.7790  -27.8040 C   0  0  0  0  0  0  0  0  0  0  0  0
    1.7710   16.4840  -27.2820 Cl  0  0  0  0  0  0  0  0  0  0  0  0
    1.0530   18.5640  -28.9090 C   0  0  0  0  0  0  0  0  0  0  0  0
    0.2070   19.5920  -29.3310 C   0  0  0  0  0  0  0  0  0  0  0  0
   -3.0490   21.2670  -28.3530 C   0  0  0  0  0  0  0  0  0  0  0  0
   -3.8990   22.2940  -28.7740 C   0  0  0  0  0  0  0  0  0  0  0  0
   -3.4360   21.9030  -34.2650 H   0  0  0  0  0  0  0  0  0  0  0  0
   -4.5760   23.0050  -33.7090 H   0  0  0  0  0  0  0  0  0  0  0  0
   -7.4462   19.6436  -32.7407 H   0  0  0  0  0  0  0  0  0  0  0  0
   -9.7090   20.4483  -32.0798 H   0  0  0  0  0  0  0  0  0  0  0  0
  -10.0330   22.8116  -31.3571 H   0  0  0  0  0  0  0  0  0  0  0  0
   -8.0969   24.3773  -31.2909 H   0  0  0  0  0  0  0  0  0  0  0  0
   -2.2628   23.2231  -31.6273 H   0  0  0  0  0  0  0  0  0  0  0  0
   -0.7382   21.4037  -30.8705 H   0  0  0  0  0  0  0  0  0  0  0  0
   -2.2716   19.2432  -26.9903 H   0  0  0  0  0  0  0  0  0  0  0  0
   -0.7555   17.4064  -26.2489 H   0  0  0  0  0  0  0  0  0  0  0  0
    1.9929   18.3712  -29.4470 H   0  0  0  0  0  0  0  0  0  0  0  0
    0.4835   20.2058  -30.2010 H   0  0  0  0  0  0  0  0  0  0  0  0
   -3.2777   20.7143  -27.4299 H   0  0  0  0  0  0  0  0  0  0  0  0
   -4.7884   22.5485  -28.1789 H   0  0  0  0  0  0  0  0  0  0  0  0
  1  2  1  0
  2  3  2  0
  2  4  2  0
  2  5  1  0
  5  6  2  0
  6  7  1  0
  7  8  2  0
  8  9  1  0
  9 10  2  0
 10 11  1  0
 11 12  1  0
 12 13  2  0
 12 14  2  0
 12 15  1  0
 15 16  2  0
 16 17  1  0
 17 18  2  0
 18 19  1  0
 19 20  2  0
 20 21  1  0
 21 22  2  0
 22 23  1  0
 22 24  1  0
 24 25  2  0
 18 26  1  0
 26 27  2  0
 10  5  1  0
 27 15  1  0
 25 19  1  0
  1 28  1  0
  1 29  1  0
  6 30  1  0
  7 31  1  0
  8 32  1  0
  9 33  1  0
 16 34  1  0
 17 35  1  0
 20 36  1  0
 21 37  1  0
 24 38  1  0
 25 39  1  0
 26 40  1  0
 27 41  1  0
M  CHG  1  11  -1
M  END
>  <UniqueID>  (12) 
12

>  <SMILES>  (12) 
NS(=O)(=O)c1ccccc1[N-]S(=O)(=O)c1ccc(-c2ccc(Cl)cc2)cc1

>  <Energy>  (12) 
51.45528558109857

>  <Genealogy>  (12) 
NS(=O)(=O)c1ccccc1[N-]S(=O)(=O)c1ccc(-c2ccc(Cl)cc2)cc1 (protonated)
NS(=O)(=O)c1ccccc1[N-]S(=O)(=O)c1ccc(-c2ccc(Cl)cc2)cc1 (3D coordinates assigned)
NS(=O)(=O)c1ccccc1[N-]S(=O)(=O)c1ccc(-c2ccc(Cl)cc2)cc1 (optimized conformer: 51.45528558109857 kcal/mol)

>  <smiles>  (12) 
NS(=O)(=O)c1ccccc1NS(=O)(=O)c1ccc(-c2ccc(Cl)cc2)cc1

>  <score_type>  (12) 
oracle

>  <origin>  (12) 
adgpu

>  <m_score__min__energy>  (12) 
-10.18

>  <m_primary>  (12) 
energy

$$$$
12:0
     RDKit          3D

 27 28  0  0  0  0  0  0  0  0999 V2000
   -0.7770   21.5760  -25.5290 N   0  0  0  0  0  0  0  0  0  0  0  0
   -1.2790   22.2040  -26.3610 C   0  0  0  0  0  0  0  0  0  0  0  0
   -1.9020   22.9870  -27.3960 C   0  0  0  0  0  0  0  0  0  0  0  0
   -3.1340   22.5900  -27.9290 C   0  0  0  0  0  0  0  0  0  0  0  0
   -3.7390   23.3460  -28.9360 C   0  0  0  0  0  0  0  0  0  0  0  0
   -3.1070   24.4990  -29.4330 C   0  0  0  0  0  0  0  0  0  0  0  0
   -3.6990   25.2850  -30.4790 N   0  0  0  0  0  0  0  0  0  0  0  0
   -5.0880   25.3020  -30.8320 C   0  0  0  0  0  0  0  0  0  0  0  0
   -5.8890   25.9650  -30.1240 O   0  0  0  0  0  0  0  0  0  0  0  0
   -5.5940   24.5880  -31.9690 N   0  0  0  0  0  0  0  0  0  0  0  0
   -6.0320   23.2220  -31.9780 C   0  0  0  0  0  0  0  0  0  0  0  0
   -5.0740   22.2030  -32.0040 C   0  0  0  0  0  0  0  0  0  0  0  0
   -5.4690   20.8630  -32.0350 C   0  0  0  0  0  0  0  0  0  0  0  0
   -6.8280   20.5270  -32.0250 C   0  0  0  0  0  0  0  0  0  0  0  0
   -7.2870   18.8310  -32.0780 Cl  0  0  0  0  0  0  0  0  0  0  0  0
   -7.7960   21.5430  -31.9710 C   0  0  0  0  0  0  0  0  0  0  0  0
   -9.5140   21.1670  -31.9490 Cl  0  0  0  0  0  0  0  0  0  0  0  0
   -7.3970   22.8850  -31.9330 C   0  0  0  0  0  0  0  0  0  0  0  0
   -1.8830   24.9060  -28.8790 C   0  0  0  0  0  0  0  0  0  0  0  0
   -1.2560   26.0570  -29.3410 O   0  0  0  0  0  0  0  0  0  0  0  0
   -1.2820   24.1490  -27.8690 C   0  0  0  0  0  0  0  0  0  0  0  0
   -3.6268   21.6808  -27.5541 H   0  0  0  0  0  0  0  0  0  0  0  0
   -4.7139   23.0377  -29.3416 H   0  0  0  0  0  0  0  0  0  0  0  0
   -4.0040   22.4579  -32.0000 H   0  0  0  0  0  0  0  0  0  0  0  0
   -4.7088   20.0686  -32.0674 H   0  0  0  0  0  0  0  0  0  0  0  0
   -8.1549   23.6795  -31.8676 H   0  0  0  0  0  0  0  0  0  0  0  0
   -0.3185   24.4678  -27.4447 H   0  0  0  0  0  0  0  0  0  0  0  0
  1  2  3  0
  2  3  1  0
  3  4  2  0
  4  5  1  0
  5  6  2  0
  6  7  1  0
  7  8  1  0
  8  9  2  0
  8 10  1  0
 10 11  1  0
 11 12  2  0
 12 13  1  0
 13 14  2  0
 14 15  1  0
 14 16  1  0
 16 17  1  0
 16 18  2  0
  6 19  1  0
 19 20  1  0
 19 21  2  0
 21  3  1  0
 18 11  1  0
  4 22  1  0
  5 23  1  0
 12 24  1  0
 13 25  1  0
 18 26  1  0
 21 27  1  0
M  CHG  3   7  -1  10  -1  20  -1
M  END
>  <UniqueID>  (13) 
13

>  <SMILES>  (13) 
N#Cc1ccc([N-]C(=O)[N-]c2ccc(Cl)c(Cl)c2)c([O-])c1

>  <Energy>  (13) 
35.0566492976271

>  <Genealogy>  (13) 
N#Cc1ccc([N-]C(=O)[N-]c2ccc(Cl)c(Cl)c2)c([O-])c1 (protonated)
N#Cc1ccc([N-]C(=O)[N-]c2ccc(Cl)c(Cl)c2)c([O-])c1 (3D coordinates assigned)
N#Cc1ccc([N-]C(=O)[N-]c2ccc(Cl)c(Cl)c2)c([O-])c1 (optimized conformer: 35.0566492976271 kcal/mol)

>  <smiles>  (13) 
N#Cc1ccc(NC(=O)Nc2ccc(Cl)c(Cl)c2)c(O)c1

>  <score_type>  (13) 
oracle

>  <origin>  (13) 
adgpu

>  <m_score__min__energy>  (13) 
-13.94

>  <m_primary>  (13) 
energy

$$$$
13:0
     RDKit          3D

 39 40  0  0  0  0  0  0  0  0999 V2000
   -2.1950   22.5640  -29.8370 N   0  0  0  0  0  0  0  0  0  0  0  0
   -1.3970   23.4740  -29.0220 C   0  0  0  0  0  0  0  0  0  0  0  0
   -1.9850   24.8850  -29.0770 C   0  0  0  0  0  0  0  0  0  0  0  0
   -3.1200   24.9270  -29.9910 N   0  0  0  0  0  0  0  0  0  0  0  0
   -4.4370   24.4960  -29.6360 C   0  0  0  0  0  0  0  0  0  0  0  0
   -4.6310   23.8300  -28.5830 O   0  0  0  0  0  0  0  0  0  0  0  0
   -5.5810   24.7880  -30.5540 C   0  0  0  0  0  0  0  0  0  0  0  0
   -5.9930   23.5280  -31.2640 C   0  0  0  0  0  0  0  0  0  0  0  0
   -5.0480   22.7760  -31.9770 C   0  0  0  0  0  0  0  0  0  0  0  0
   -5.4430   21.6390  -32.6850 C   0  0  0  0  0  0  0  0  0  0  0  0
   -6.7880   21.2510  -32.7120 C   0  0  0  0  0  0  0  0  0  0  0  0
   -7.1640   20.0880  -33.4640 N   0  0  0  0  0  0  0  0  0  0  0  0
   -6.5110   18.8110  -33.3400 C   0  0  0  0  0  0  0  0  0  0  0  0
   -6.6660   18.0720  -32.1590 C   0  0  0  0  0  0  0  0  0  0  0  0
   -6.0350   16.8350  -32.0100 C   0  0  0  0  0  0  0  0  0  0  0  0
   -5.2330   16.3220  -33.0350 C   0  0  0  0  0  0  0  0  0  0  0  0
   -4.4620   14.7590  -32.8000 Cl  0  0  0  0  0  0  0  0  0  0  0  0
   -5.0560   17.0610  -34.2200 C   0  0  0  0  0  0  0  0  0  0  0  0
   -4.2590   16.5930  -35.2650 O   0  0  0  0  0  0  0  0  0  0  0  0
   -5.6910   18.3010  -34.3640 C   0  0  0  0  0  0  0  0  0  0  0  0
   -7.7390   21.9920  -31.9820 C   0  0  0  0  0  0  0  0  0  0  0  0
   -9.4240   21.4940  -31.8950 Cl  0  0  0  0  0  0  0  0  0  0  0  0
   -7.3390   23.1300  -31.2720 C   0  0  0  0  0  0  0  0  0  0  0  0
   -2.3210   23.0070  -30.7770 H   0  0  0  0  0  0  0  0  0  0  0  0
   -3.1490   22.4970  -29.4110 H   0  0  0  0  0  0  0  0  0  0  0  0
   -1.3947   23.1216  -27.9800 H   0  0  0  0  0  0  0  0  0  0  0  0
   -0.3689   23.4979  -29.4123 H   0  0  0  0  0  0  0  0  0  0  0  0
   -2.3189   25.1781  -28.0707 H   0  0  0  0  0  0  0  0  0  0  0  0
   -1.2118   25.5802  -29.4359 H   0  0  0  0  0  0  0  0  0  0  0  0
   -6.4298   25.1733  -29.9700 H   0  0  0  0  0  0  0  0  0  0  0  0
   -5.2719   25.5401  -31.2948 H   0  0  0  0  0  0  0  0  0  0  0  0
   -3.9917   23.0830  -31.9785 H   0  0  0  0  0  0  0  0  0  0  0  0
   -4.6921   21.0439  -33.2254 H   0  0  0  0  0  0  0  0  0  0  0  0
   -8.0330   20.1470  -34.0440 H   0  0  0  0  0  0  0  0  0  0  0  0
   -7.2889   18.4691  -31.3440 H   0  0  0  0  0  0  0  0  0  0  0  0
   -6.1694   16.2608  -31.0814 H   0  0  0  0  0  0  0  0  0  0  0  0
   -3.3090   16.2710  -35.1280 H   0  0  0  0  0  0  0  0  0  0  0  0
   -5.5474   18.8822  -35.2868 H   0  0  0  0  0  0  0  0  0  0  0  0
   -8.0851   23.7168  -30.7161 H   0  0  0  0  0  0  0  0  0  0  0  0
  1  2  1  0
  2  3  1  0
  3  4  1  0
  4  5  1  0
  5  6  2  0
  5  7  1  0
  7  8  1  0
  8  9  2  0
  9 10  1  0
 10 11  2  0
 11 12  1  0
 12 13  1  0
 13 14  2  0
 14 15  1  0
 15 16  2  0
 16 17  1  0
 16 18  1  0
 18 19  1  0
 18 20  2  0
 11 21  1  0
 21 22  1  0
 21 23  2  0
 23  8  1  0
 20 13  1  0
  1 24  1  0
  1 25  1  0
  2 26  1  0
  2 27  1  0
  3 28  1  0
  3 29  1  0
  7 30  1  0
  7 31  1  0
  9 32  1  0
 10 33  1  0
 12 34  1  0
 14 35  1  0
 15 36  1  0
 19 37  1  0
 20 38  1  0
 23 39  1  0
M  CHG  1   4  -1
M  END
>  <UniqueID>  (14) 
14

>  <SMILES>  (14) 
NCC[N-]C(=O)Cc1ccc(Nc2ccc(Cl)c(O)c2)c(Cl)c1

>  <Energy>  (14) 
39.391064239413865

>  <Genealogy>  (14) 
NCC[N-]C(=O)Cc1ccc(Nc2ccc(Cl)c(O)c2)c(Cl)c1 (protonated)
NCC[N-]C(=O)Cc1ccc(Nc2ccc(Cl)c(O)c2)c(Cl)c1 (3D coordinates assigned)
NCC[N-]C(=O)Cc1ccc(Nc2ccc(Cl)c(O)c2)c(Cl)c1 (optimized conformer: 39.391064239413865 kcal/mol)

>  <smiles>  (14) 
NCCNC(=O)Cc1ccc(Nc2ccc(Cl)c(O)c2)c(Cl)c1

>  <score_type>  (14) 
oracle

>  <origin>  (14) 
adgpu

>  <m_score__min__energy>  (14) 
-10.210000000000001

>  <m_primary>  (14) 
energy

$$$$
14:0
     RDKit          3D

 56 59  0  0  0  0  0  0  0  0999 V2000
   -0.3150   21.1910  -31.3960 C   0  0  0  0  0  0  0  0  0  0  0  0
   -0.4740   21.7410  -30.0930 O   0  0  0  0  0  0  0  0  0  0  0  0
   -1.1020   21.0850  -29.0220 C   0  0  0  0  0  0  0  0  0  0  0  0
   -0.4260   20.1370  -28.2280 C   0  0  0  0  0  0  0  0  0  0  0  0
   -1.0920   19.4810  -27.1900 C   0  0  0  0  0  0  0  0  0  0  0  0
   -2.4350   19.7580  -26.9340 C   0  0  0  0  0  0  0  0  0  0  0  0
   -3.1150   20.6980  -27.7100 C   0  0  0  0  0  0  0  0  0  0  0  0
   -2.4530   21.3730  -28.7460 C   0  0  0  0  0  0  0  0  0  0  0  0
   -3.1880   22.3810  -29.5350 C   0  0  0  0  0  0  0  0  0  0  0  0
   -3.9070   22.1140  -30.6950 C   0  0  0  0  0  0  0  0  0  0  0  0
   -4.0790   20.8030  -31.3400 C   0  0  0  0  0  0  0  0  0  0  0  0
   -3.0940   20.2440  -31.8890 O   0  0  0  0  0  0  0  0  0  0  0  0
   -5.4390   20.1700  -31.4320 C   0  0  0  0  0  0  0  0  0  0  0  0
   -6.2020   20.6440  -32.6880 C   0  0  0  0  0  0  0  0  0  0  0  0
   -6.1020   19.6240  -33.8310 C   0  0  0  0  0  0  0  0  0  0  0  0
   -7.6740   20.9030  -32.3450 C   0  0  0  0  0  0  0  0  0  0  0  0
   -4.2530   23.3460  -31.2220 C   0  0  0  0  0  0  0  0  0  0  0  0
   -4.9810   23.5910  -32.3830 O   0  0  0  0  0  0  0  0  0  0  0  0
   -3.7420   24.3010  -30.3760 C   0  0  0  0  0  0  0  0  0  0  0  0
   -3.8890   25.6740  -30.5410 O   0  0  0  0  0  0  0  0  0  0  0  0
   -3.0860   23.7210  -29.3500 N   0  0  0  0  0  0  0  0  0  0  0  0
   -2.3980   24.4010  -28.2840 C   0  0  0  0  0  0  0  0  0  0  0  0
   -1.1020   24.9010  -28.4800 C   0  0  0  0  0  0  0  0  0  0  0  0
   -0.4400   25.5760  -27.4500 C   0  0  0  0  0  0  0  0  0  0  0  0
   -1.0610   25.7630  -26.2010 C   0  0  0  0  0  0  0  0  0  0  0  0
   -0.3600   26.4840  -25.1060 C   0  0  0  0  0  0  0  0  0  0  0  0
   -0.5410   26.3140  -23.7450 C   0  0  0  0  0  0  0  0  0  0  0  0
    0.3220   27.1990  -23.1330 C   0  0  0  0  0  0  0  0  0  0  0  0
    0.9910   27.8670  -24.0440 O   0  0  0  0  0  0  0  0  0  0  0  0
    0.6090   27.4660  -25.2350 C   0  0  0  0  0  0  0  0  0  0  0  0
   -2.3590   25.2570  -26.0100 C   0  0  0  0  0  0  0  0  0  0  0  0
   -3.0190   24.5820  -27.0400 C   0  0  0  0  0  0  0  0  0  0  0  0
   -0.0103   20.1372  -31.3145 H   0  0  0  0  0  0  0  0  0  0  0  0
   -1.2687   21.2559  -31.9403 H   0  0  0  0  0  0  0  0  0  0  0  0
    0.4569   21.7548  -31.9403 H   0  0  0  0  0  0  0  0  0  0  0  0
    0.6323   19.9123  -28.4268 H   0  0  0  0  0  0  0  0  0  0  0  0
   -0.5563   18.7444  -26.5732 H   0  0  0  0  0  0  0  0  0  0  0  0
   -2.9585   19.2352  -26.1200 H   0  0  0  0  0  0  0  0  0  0  0  0
   -4.1752   20.9104  -27.5081 H   0  0  0  0  0  0  0  0  0  0  0  0
   -5.3220   19.0771  -31.4765 H   0  0  0  0  0  0  0  0  0  0  0  0
   -6.0178   20.4670  -30.5450 H   0  0  0  0  0  0  0  0  0  0  0  0
   -5.7349   21.5796  -33.0291 H   0  0  0  0  0  0  0  0  0  0  0  0
   -6.0028   18.6119  -33.4116 H   0  0  0  0  0  0  0  0  0  0  0  0
   -7.0096   19.6770  -34.4502 H   0  0  0  0  0  0  0  0  0  0  0  0
   -5.2219   19.8522  -34.4502 H   0  0  0  0  0  0  0  0  0  0  0  0
   -7.7975   20.9247  -31.2522 H   0  0  0  0  0  0  0  0  0  0  0  0
   -7.9846   21.8696  -32.7684 H   0  0  0  0  0  0  0  0  0  0  0  0
   -8.2958   20.1005  -32.7684 H   0  0  0  0  0  0  0  0  0  0  0  0
   -4.8230   23.0540  -33.2260 H   0  0  0  0  0  0  0  0  0  0  0  0
   -0.6033   24.7611  -29.4504 H   0  0  0  0  0  0  0  0  0  0  0  0
    0.5754   25.9644  -27.6174 H   0  0  0  0  0  0  0  0  0  0  0  0
   -1.2324   25.6152  -23.2514 H   0  0  0  0  0  0  0  0  0  0  0  0
    0.4329   27.3259  -22.0460 H   0  0  0  0  0  0  0  0  0  0  0  0
    0.9987   27.8509  -26.1889 H   0  0  0  0  0  0  0  0  0  0  0  0
   -2.8597   25.3939  -25.0402 H   0  0  0  0  0  0  0  0  0  0  0  0
   -4.0331   24.1897  -26.8738 H   0  0  0  0  0  0  0  0  0  0  0  0
  1  2  1  0
  2  3  1  0
  3  4  2  0
  4  5  1  0
  5  6  2  0
  6  7  1  0
  7  8  2  0
  8  9  1  0
  9 10  2  0
 10 11  1  0
 11 12  2  0
 11 13  1  0
 13 14  1  0
 14 15  1  0
 14 16  1  0
 10 17  1  0
 17 18  1  0
 17 19  2  0
 19 20  1  0
 19 21  1  0
 21 22  1  0
 22 23  2  0
 23 24  1  0
 24 25  2  0
 25 26  1  0
 26 27  1  0
 27 28  2  0
 28 29  1  0
 29 30  1  0
 25 31  1  0
 31 32  2  0
  8  3  1  0
 21  9  1  0
 32 22  1  0
 30 26  2  0
  1 33  1  0
  1 34  1  0
  1 35  1  0
  4 36  1  0
  5 37  1  0
  6 38  1  0
  7 39  1  0
 13 40  1  0
 13 41  1  0
 14 42  1  0
 15 43  1  0
 15 44  1  0
 15 45  1  0
 16 46  1  0
 16 47  1  0
 16 48  1  0
 18 49  1  0
 23 50  1  0
 24 51  1  0
 27 52  1  0
 28 53  1  0
 30 54  1  0
 31 55  1  0
 32 56  1  0
M  CHG  1  20  -1
M  END
>  <UniqueID>  (15) 
15

>  <SMILES>  (15) 
COc1ccccc1-c1c(C(=O)CC(C)C)c(O)c([O-])n1-c1ccc(-c2ccoc2)cc1

>  <Energy>  (15) 
125.58963265136607

>  <Genealogy>  (15) 
COc1ccccc1-c1c(C(=O)CC(C)C)c(O)c([O-])n1-c1ccc(-c2ccoc2)cc1 (protonated)
COc1ccccc1-c1c(C(=O)CC(C)C)c(O)c([O-])n1-c1ccc(-c2ccoc2)cc1 (3D coordinates assigned)
COc1ccccc1-c1c(C(=O)CC(C)C)c(O)c([O-])n1-c1ccc(-c2ccoc2)cc1 (optimized conformer: 125.58963265136607 kcal/mol)

>  <smiles>  (15) 
COc1ccccc1-c1c(C(=O)CC(C)C)c(O)c(O)n1-c1ccc(-c2ccoc2)cc1

>  <score_type>  (15) 
oracle

>  <origin>  (15) 
adgpu

>  <m_score__min__energy>  (15) 
-12.890000000000001

>  <m_primary>  (15) 
energy

$$$$
15:0
     RDKit          3D

 42 45  0  0  0  0  0  0  0  0999 V2000
   -2.6204   25.4097  -25.8266 H   0  0  0  0  0  0  0  0  0  0  0  0
   -2.3230   25.0770  -26.8320 C   0  0  0  0  0  0  0  0  0  0  0  0
   -1.3190   25.7090  -27.4920 N   0  0  0  0  0  0  0  0  0  0  0  0
   -0.9410   25.3270  -28.7140 N   0  0  0  0  0  0  0  0  0  0  0  0
   -1.5420   24.2850  -29.3480 C   0  0  0  0  0  0  0  0  0  0  0  0
   -1.2289   23.9995  -30.3631 H   0  0  0  0  0  0  0  0  0  0  0  0
   -2.5590   23.5800  -28.7020 C   0  0  0  0  0  0  0  0  0  0  0  0
   -3.2380   22.5210  -29.3840 N   0  0  0  0  0  0  0  0  0  0  0  0
   -4.4110   22.5710  -29.9500 C   0  0  0  0  0  0  0  0  0  0  0  0
   -5.3550   23.6120  -29.9170 C   0  0  0  0  0  0  0  0  0  0  0  0
   -5.3230   24.9270  -29.1910 C   0  0  0  0  0  0  0  0  0  0  0  0
   -5.3274   24.7469  -28.1058 H   0  0  0  0  0  0  0  0  0  0  0  0
   -4.4112   25.4766  -29.4678 H   0  0  0  0  0  0  0  0  0  0  0  0
   -6.2070   25.5203  -29.4678 H   0  0  0  0  0  0  0  0  0  0  0  0
   -6.3920   23.1300  -30.7050 C   0  0  0  0  0  0  0  0  0  0  0  0
   -7.5880   23.7470  -31.0740 C   0  0  0  0  0  0  0  0  0  0  0  0
   -7.8367   24.7596  -30.7235 H   0  0  0  0  0  0  0  0  0  0  0  0
   -8.4620   23.0340  -31.9060 C   0  0  0  0  0  0  0  0  0  0  0  0
   -9.4117   23.4905  -32.2215 H   0  0  0  0  0  0  0  0  0  0  0  0
   -8.1310   21.7390  -32.3390 C   0  0  0  0  0  0  0  0  0  0  0  0
   -8.8206   21.1823  -32.9906 H   0  0  0  0  0  0  0  0  0  0  0  0
   -6.9150   21.1560  -31.9370 C   0  0  0  0  0  0  0  0  0  0  0  0
   -6.5720   19.7790  -32.3580 C   0  0  0  0  0  0  0  0  0  0  0  0
   -7.5260   18.7580  -32.2220 C   0  0  0  0  0  0  0  0  0  0  0  0
   -8.5124   18.9850  -31.7913 H   0  0  0  0  0  0  0  0  0  0  0  0
   -7.2300   17.4570  -32.6300 C   0  0  0  0  0  0  0  0  0  0  0  0
   -7.9813   16.6616  -32.5162 H   0  0  0  0  0  0  0  0  0  0  0  0
   -5.9830   17.1630  -33.1820 C   0  0  0  0  0  0  0  0  0  0  0  0
   -5.7526   16.1363  -33.5028 H   0  0  0  0  0  0  0  0  0  0  0  0
   -5.0260   18.1710  -33.3280 C   0  0  0  0  0  0  0  0  0  0  0  0
   -4.0457   17.9343  -33.7672 H   0  0  0  0  0  0  0  0  0  0  0  0
   -5.3090   19.4890  -32.9160 C   0  0  0  0  0  0  0  0  0  0  0  0
   -4.3640   20.5210  -33.0360 O   0  0  0  0  0  0  0  0  0  0  0  0
   -3.0190   20.3400  -33.4680 C   0  0  0  0  0  0  0  0  0  0  0  0
   -2.3610   20.2514  -32.5910 H   0  0  0  0  0  0  0  0  0  0  0  0
   -2.9484   19.4243  -34.0733 H   0  0  0  0  0  0  0  0  0  0  0  0
   -2.7088   21.2045  -34.0733 H   0  0  0  0  0  0  0  0  0  0  0  0
   -6.0910   21.8880  -31.1300 N   0  0  0  0  0  0  0  0  0  0  0  0
   -4.8960   21.5440  -30.6770 N   0  0  0  0  0  0  0  0  0  0  0  0
   -4.4010   20.6470  -30.8810 H   0  0  0  0  0  0  0  0  0  0  0  0
   -2.9740   24.0040  -27.4370 C   0  0  0  0  0  0  0  0  0  0  0  0
   -3.8048   23.4967  -26.9248 H   0  0  0  0  0  0  0  0  0  0  0  0
  1  2  1  0
  2  3  2  0
  3  4  1  0
  4  5  2  0
  5  6  1  0
  5  7  1  0
  7  8  1  0
  8  9  2  0
  9 10  1  0
 10 11  1  0
 11 12  1  0
 11 13  1  0
 11 14  1  0
 10 15  2  0
 15 16  1  0
 16 17  1  0
 16 18  2  0
 18 19  1  0
 18 20  1  0
 20 21  1  0
 20 22  2  0
 22 23  1  0
 23 24  2  0
 24 25  1  0
 24 26  1  0
 26 27  1  0
 26 28  2  0
 28 29  1  0
 28 30  1  0
 30 31  1  0
 30 32  2  0
 32 33  1  0
 33 34  1  0
 34 35  1  0
 34 36  1  0
 34 37  1  0
 22 38  1  0
 38 39  1  0
 39 40  1  0
  7 41  2  0
 41 42  1  0
 41  2  1  0
 39  9  1  0
 38 15  1  0
 32 23  1  0
M  END
>  <UniqueID>  (16) 
16

>  <SMILES>  (16) 
COc1ccccc1-c1cccc2c(C)/c(=N\c3ccnnc3)[nH]n12

>  <Energy>  (16) 
102.77762743709124

>  <Genealogy>  (16) 
COc1ccccc1-c1cccc2c(C)/c(=N\c3ccnnc3)[nH]n12 (cis-trans isomerization)
COc1ccccc1-c1cccc2c(C)/c(=N\c3ccnnc3)[nH]n12 (3D coordinates assigned)
COc1ccccc1-c1cccc2c(C)/c(=N\c3ccnnc3)[nH]n12 (optimized conformer: 102.77762743709124 kcal/mol)

>  <smiles>  (16) 
COc1ccccc1-c1cccc2c(C)c(=Nc3ccnnc3)[nH]n12

>  <score_type>  (16) 
oracle

>  <origin>  (16) 
adgpu

>  <m_score__min__energy>  (16) 
-7.6600000000000001

>  <m_primary>  (16) 
energy

$$$$
17:0
     RDKit          3D

 43 45  0  0  0  0  0  0  0  0999 V2000
   -5.5850   26.2130  -30.2580 O   0  0  0  0  0  0  0  0  0  0  0  0
   -4.9400   25.1980  -30.6260 C   0  0  0  0  0  0  0  0  0  0  0  0
   -3.5130   25.1930  -30.4800 N   0  0  0  0  0  0  0  0  0  0  0  0
   -2.7610   24.2060  -29.7130 C   0  0  0  0  0  0  0  0  0  0  0  0
   -2.1630   24.8670  -28.4970 C   0  0  0  0  0  0  0  0  0  0  0  0
   -0.8650   25.4000  -28.6080 C   0  0  0  0  0  0  0  0  0  0  0  0
   -0.2500   26.0130  -27.5180 C   0  0  0  0  0  0  0  0  0  0  0  0
   -0.9170   26.1000  -26.2990 C   0  0  0  0  0  0  0  0  0  0  0  0
   -2.1970   25.5620  -26.1600 C   0  0  0  0  0  0  0  0  0  0  0  0
   -2.8350   24.9200  -27.2420 C   0  0  0  0  0  0  0  0  0  0  0  0
   -4.2320   24.3570  -27.0540 C   0  0  0  0  0  0  0  0  0  0  0  0
   -4.6980   24.6920  -25.7970 F   0  0  0  0  0  0  0  0  0  0  0  0
   -4.2480   22.9780  -27.1700 F   0  0  0  0  0  0  0  0  0  0  0  0
   -5.0890   24.8670  -28.0130 F   0  0  0  0  0  0  0  0  0  0  0  0
   -5.6730   24.0390  -31.1690 C   0  0  0  0  0  0  0  0  0  0  0  0
   -7.0580   23.9300  -30.9730 C   0  0  0  0  0  0  0  0  0  0  0  0
   -7.7520   22.8210  -31.4630 C   0  0  0  0  0  0  0  0  0  0  0  0
   -7.0720   21.8190  -32.1600 C   0  0  0  0  0  0  0  0  0  0  0  0
   -5.6930   21.9340  -32.3970 C   0  0  0  0  0  0  0  0  0  0  0  0
   -4.9460   20.8390  -33.1080 C   0  0  0  0  0  0  0  0  0  0  0  0
   -5.6550   19.5250  -32.9160 C   0  0  0  0  0  0  0  0  0  0  0  0
   -6.0730   18.7740  -34.0250 C   0  0  0  0  0  0  0  0  0  0  0  0
   -6.6820   17.5340  -33.8240 C   0  0  0  0  0  0  0  0  0  0  0  0
   -6.8610   17.0560  -32.5640 N   0  0  0  0  0  0  0  0  0  0  0  0
   -6.4570   17.7580  -31.4730 C   0  0  0  0  0  0  0  0  0  0  0  0
   -5.8420   19.0030  -31.6280 C   0  0  0  0  0  0  0  0  0  0  0  0
   -5.0000   23.0500  -31.9040 C   0  0  0  0  0  0  0  0  0  0  0  0
   -3.4347   23.3961  -29.3965 H   0  0  0  0  0  0  0  0  0  0  0  0
   -1.9571   23.7897  -30.3378 H   0  0  0  0  0  0  0  0  0  0  0  0
   -0.3297   25.3319  -29.5665 H   0  0  0  0  0  0  0  0  0  0  0  0
    0.7633   26.4285  -27.6208 H   0  0  0  0  0  0  0  0  0  0  0  0
   -0.4337   26.5941  -25.4433 H   0  0  0  0  0  0  0  0  0  0  0  0
   -2.7158   25.6396  -25.1931 H   0  0  0  0  0  0  0  0  0  0  0  0
   -7.5991   24.7202  -30.4318 H   0  0  0  0  0  0  0  0  0  0  0  0
   -8.8365   22.7364  -31.2997 H   0  0  0  0  0  0  0  0  0  0  0  0
   -7.6190   20.9369  -32.5243 H   0  0  0  0  0  0  0  0  0  0  0  0
   -4.8936   21.0714  -34.1819 H   0  0  0  0  0  0  0  0  0  0  0  0
   -3.9300   20.7657  -32.6927 H   0  0  0  0  0  0  0  0  0  0  0  0
   -5.9221   19.1591  -35.0443 H   0  0  0  0  0  0  0  0  0  0  0  0
   -7.0181   16.9418  -34.6879 H   0  0  0  0  0  0  0  0  0  0  0  0
   -6.6144   17.3453  -30.4656 H   0  0  0  0  0  0  0  0  0  0  0  0
   -5.5071   19.5693  -30.7465 H   0  0  0  0  0  0  0  0  0  0  0  0
   -3.9214   23.1508  -32.0948 H   0  0  0  0  0  0  0  0  0  0  0  0
  1  2  2  0
  2  3  1  0
  3  4  1  0
  4  5  1  0
  5  6  2  0
  6  7  1  0
  7  8  2  0
  8  9  1  0
  9 10  2  0
 10 11  1  0
 11 12  1  0
 11 13  1  0
 11 14  1  0
  2 15  1  0
 15 16  2  0
 16 17  1  0
 17 18  2  0
 18 19  1  0
 19 20  1  0
 20 21  1  0
 21 22  2  0
 22 23  1  0
 23 24  2  0
 24 25  1  0
 25 26  2  0
 19 27  2  0
 10  5  1  0
 27 15  1  0
 26 21  1  0
  4 28  1  0
  4 29  1  0
  6 30  1  0
  7 31  1  0
  8 32  1  0
  9 33  1  0
 16 34  1  0
 17 35  1  0
 18 36  1  0
 20 37  1  0
 20 38  1  0
 22 39  1  0
 23 40  1  0
 25 41  1  0
 26 42  1  0
 27 43  1  0
M  CHG  1   3  -1
M  END
>  <UniqueID>  (17) 
17

>  <SMILES>  (17) 
O=C([N-]Cc1ccccc1C(F)(F)F)c1cccc(Cc2ccncc2)c1

>  <Energy>  (17) 
50.321445707671266

>  <Genealogy>  (17) 
O=C([N-]Cc1ccccc1C(F)(F)F)c1cccc(Cc2ccncc2)c1 (protonated)
O=C([N-]Cc1ccccc1C(F)(F)F)c1cccc(Cc2ccncc2)c1 (3D coordinates assigned)
O=C([N-]Cc1ccccc1C(F)(F)F)c1cccc(Cc2ccncc2)c1 (optimized conformer: 50.321445707671266 kcal/mol)

>  <smiles>  (17) 
O=C(NCc1ccccc1C(F)(F)F)c1cccc(Cc2ccncc2)c1

>  <score_type>  (17) 
oracle

>  <origin>  (17) 
adgpu

>  <m_score__min__energy>  (17) 
-10.210000000000001

>  <m_primary>  (17) 
energy

$$$$
18:0
     RDKit          3D

 53 54  0  0  0  0  0  0  0  0999 V2000
    0.3130   18.0510  -27.8470 C   0  0  0  0  0  0  0  0  0  0  0  0
   -0.3600   19.3770  -27.5090 C   0  0  0  0  0  0  0  0  0  0  0  0
   -1.6300   19.5050  -28.2620 N   0  0  0  0  0  0  0  0  0  0  0  0
   -2.7250   19.9940  -27.3970 C   0  0  0  0  0  0  0  0  0  0  0  0
   -3.1300   18.9470  -26.3590 C   0  0  0  0  0  0  0  0  0  0  0  0
   -1.4080   20.5580  -29.6480 S   0  0  0  0  0  0  0  0  0  0  0  0
   -2.3520   20.1640  -30.7510 O   0  0  0  0  0  0  0  0  0  0  0  0
    0.0000   20.4630  -30.1650 O   0  0  0  0  0  0  0  0  0  0  0  0
   -1.6960   22.2340  -29.1860 C   0  0  0  0  0  0  0  0  0  0  0  0
   -1.0730   22.7860  -28.0580 C   0  0  0  0  0  0  0  0  0  0  0  0
   -1.2960   24.1230  -27.7190 C   0  0  0  0  0  0  0  0  0  0  0  0
   -2.1220   24.9210  -28.5170 C   0  0  0  0  0  0  0  0  0  0  0  0
   -2.7220   24.3890  -29.6650 C   0  0  0  0  0  0  0  0  0  0  0  0
   -3.5620   25.2330  -30.4650 N   0  0  0  0  0  0  0  0  0  0  0  0
   -4.9950   25.2930  -30.4270 C   0  0  0  0  0  0  0  0  0  0  0  0
   -5.5550   26.4210  -30.4720 O   0  0  0  0  0  0  0  0  0  0  0  0
   -5.8480   24.0500  -30.3930 C   0  0  0  0  0  0  0  0  0  0  0  0
   -5.7350   23.2650  -31.7000 C   0  0  0  0  0  0  0  0  0  0  0  0
   -6.9940   23.3620  -32.4420 N   0  0  0  0  0  0  0  0  0  0  0  0
   -8.1380   22.2160  -31.8130 S   0  0  0  0  0  0  0  0  0  0  0  0
   -8.1360   22.2830  -30.3110 O   0  0  0  0  0  0  0  0  0  0  0  0
   -9.5180   22.5520  -32.3080 O   0  0  0  0  0  0  0  0  0  0  0  0
   -7.6830   20.5880  -32.3120 C   0  0  0  0  0  0  0  0  0  0  0  0
   -6.6030   20.3790  -33.1830 C   0  0  0  0  0  0  0  0  0  0  0  0
   -6.2420   19.0780  -33.5530 C   0  0  0  0  0  0  0  0  0  0  0  0
   -6.9560   17.9840  -33.0550 C   0  0  0  0  0  0  0  0  0  0  0  0
   -8.0290   18.1880  -32.1820 C   0  0  0  0  0  0  0  0  0  0  0  0
   -8.3910   19.4870  -31.8080 C   0  0  0  0  0  0  0  0  0  0  0  0
   -2.5340   23.0320  -29.9760 C   0  0  0  0  0  0  0  0  0  0  0  0
    0.5789   17.5272  -26.9170 H   0  0  0  0  0  0  0  0  0  0  0  0
   -0.3781   17.4282  -28.4339 H   0  0  0  0  0  0  0  0  0  0  0  0
    1.2237   18.2411  -28.4339 H   0  0  0  0  0  0  0  0  0  0  0  0
   -0.5705   19.4145  -26.4300 H   0  0  0  0  0  0  0  0  0  0  0  0
    0.3101   20.2041  -27.7863 H   0  0  0  0  0  0  0  0  0  0  0  0
   -2.3899   20.9029  -26.8758 H   0  0  0  0  0  0  0  0  0  0  0  0
   -3.5979   20.2057  -28.0321 H   0  0  0  0  0  0  0  0  0  0  0  0
   -2.9731   19.3526  -25.3486 H   0  0  0  0  0  0  0  0  0  0  0  0
   -4.1918   18.6916  -26.4908 H   0  0  0  0  0  0  0  0  0  0  0  0
   -2.5165   18.0436  -26.4908 H   0  0  0  0  0  0  0  0  0  0  0  0
   -0.4079   22.1659  -27.4391 H   0  0  0  0  0  0  0  0  0  0  0  0
   -0.8210   24.5487  -26.8228 H   0  0  0  0  0  0  0  0  0  0  0  0
   -2.3011   25.9708  -28.2418 H   0  0  0  0  0  0  0  0  0  0  0  0
   -5.5174   23.4108  -29.5610 H   0  0  0  0  0  0  0  0  0  0  0  0
   -6.8972   24.3516  -30.2578 H   0  0  0  0  0  0  0  0  0  0  0  0
   -4.9187   23.6820  -32.3081 H   0  0  0  0  0  0  0  0  0  0  0  0
   -5.5242   22.2091  -31.4748 H   0  0  0  0  0  0  0  0  0  0  0  0
   -6.8090   23.0920  -33.4360 H   0  0  0  0  0  0  0  0  0  0  0  0
   -6.0394   21.2383  -33.5755 H   0  0  0  0  0  0  0  0  0  0  0  0
   -5.3954   18.9163  -34.2365 H   0  0  0  0  0  0  0  0  0  0  0  0
   -6.6736   16.9626  -33.3500 H   0  0  0  0  0  0  0  0  0  0  0  0
   -8.5890   17.3267  -31.7889 H   0  0  0  0  0  0  0  0  0  0  0  0
   -9.2325   19.6450  -31.1174 H   0  0  0  0  0  0  0  0  0  0  0  0
   -3.0475   22.5936  -30.8444 H   0  0  0  0  0  0  0  0  0  0  0  0
  1  2  1  0
  2  3  1  0
  3  4  1  0
  4  5  1  0
  3  6  1  0
  6  7  2  0
  6  8  2  0
  6  9  1  0
  9 10  2  0
 10 11  1  0
 11 12  2  0
 12 13  1  0
 13 14  1  0
 14 15  1  0
 15 16  2  0
 15 17  1  0
 17 18  1  0
 18 19  1  0
 19 20  1  0
 20 21  2  0
 20 22  2  0
 20 23  1  0
 23 24  2  0
 24 25  1  0
 25 26  2  0
 26 27  1  0
 27 28  2  0
 13 29  2  0
 29  9  1  0
 28 23  1  0
  1 30  1  0
  1 31  1  0
  1 32  1  0
  2 33  1  0
  2 34  1  0
  4 35  1  0
  4 36  1  0
  5 37  1  0
  5 38  1  0
  5 39  1  0
 10 40  1  0
 11 41  1  0
 12 42  1  0
 17 43  1  0
 17 44  1  0
 18 45  1  0
 18 46  1  0
 19 47  1  0
 24 48  1  0
 25 49  1  0
 26 50  1  0
 27 51  1  0
 28 52  1  0
 29 53  1  0
M  CHG  1  14  -1
M  END
>  <UniqueID>  (18) 
18

>  <SMILES>  (18) 
CCN(CC)S(=O)(=O)c1cccc([N-]C(=O)CCNS(=O)(=O)c2ccccc2)c1

>  <Energy>  (18) 
49.989684289772015

>  <Genealogy>  (18) 
CCN(CC)S(=O)(=O)c1cccc([N-]C(=O)CCNS(=O)(=O)c2ccccc2)c1 (protonated)
CCN(CC)S(=O)(=O)c1cccc([N-]C(=O)CCNS(=O)(=O)c2ccccc2)c1 (3D coordinates assigned)
CCN(CC)S(=O)(=O)c1cccc([N-]C(=O)CCNS(=O)(=O)c2ccccc2)c1 (optimized conformer: 49.989684289772015 kcal/mol)

>  <smiles>  (18) 
CCN(CC)S(=O)(=O)c1cccc(NC(=O)CCNS(=O)(=O)c2ccccc2)c1

>  <score_type>  (18) 
oracle

>  <origin>  (18) 
adgpu

>  <m_score__min__energy>  (18) 
-11.65

>  <m_primary>  (18) 
energy

$$$$
19:0
     RDKit          3D

 43 46  0  0  1  0  0  0  0  0999 V2000
   -0.0140   22.3450  -35.1100 O   0  0  0  0  0  0  0  0  0  0  0  0
   -0.2080   21.1520  -34.4140 C   0  0  0  0  0  0  0  0  0  0  0  0
    0.8570   20.4530  -33.8570 C   0  0  0  0  0  0  0  0  0  0  0  0
    0.5910   19.2860  -33.1860 C   0  0  0  0  0  0  0  0  0  0  0  0
   -0.6960   18.7960  -33.0530 C   0  0  0  0  0  0  0  0  0  0  0  0
   -1.7610   19.4760  -33.6000 C   0  0  0  0  0  0  0  0  0  0  0  0
   -3.1080   19.0320  -33.5010 N   0  0  0  0  0  0  0  0  0  0  0  0
   -4.0300   19.7040  -32.9350 C   0  0  0  0  0  0  0  0  0  0  0  0
   -5.3020   19.1560  -32.9070 C   0  0  0  0  0  0  0  0  0  0  0  0
   -6.2870   19.8870  -32.2970 C   0  0  0  0  0  0  0  0  0  0  0  0
   -7.6400   19.3580  -32.2390 C   0  0  0  0  0  0  0  0  0  0  0  0
   -8.7510   19.7760  -32.9430 C   0  0  0  0  0  0  0  0  0  0  0  0
   -9.8160   19.0260  -32.6020 N   0  0  0  0  0  0  0  0  0  0  0  0
   -9.4050   18.1460  -31.6970 N   0  0  0  0  0  0  0  0  0  0  0  0
   -8.0890   18.3140  -31.4480 C   0  0  0  0  0  0  0  0  0  0  0  0
   -5.9630   21.0800  -31.7650 N   0  0  0  0  0  0  0  0  0  0  0  0
   -4.7180   21.5930  -31.8040 C   0  0  0  0  0  0  0  0  0  0  0  0
   -4.4380   22.8660  -31.2210 N   0  0  0  0  0  0  0  0  0  0  0  0
   -5.4610   23.8900  -31.3280 C   0  0  0  0  0  0  0  0  0  0  0  0
   -5.1950   25.0860  -30.4820 C   0  0  0  0  0  0  0  0  0  0  0  0
   -3.8500   25.3800  -30.4590 O   0  0  0  0  0  0  0  0  0  0  0  0
   -3.2180   24.3390  -29.7400 C   0  0  0  0  0  0  0  0  0  0  0  0
   -3.1680   23.0740  -30.5610 C   0  0  0  0  0  0  0  0  0  0  0  0
   -3.7410   20.8820  -32.4040 N   0  0  0  0  0  0  0  0  0  0  0  0
   -1.4980   20.6670  -34.2850 C   0  0  0  0  0  0  0  0  0  0  0  0
   -0.7390   22.7200  -35.6890 H   0  0  0  0  0  0  0  0  0  0  0  0
    1.8874   20.8263  -33.9519 H   0  0  0  0  0  0  0  0  0  0  0  0
    1.4252   18.7238  -32.7410 H   0  0  0  0  0  0  0  0  0  0  0  0
   -0.8695   17.8571  -32.5067 H   0  0  0  0  0  0  0  0  0  0  0  0
   -5.5125   18.1742  -33.3561 H   0  0  0  0  0  0  0  0  0  0  0  0
   -8.7645   20.5986  -33.6732 H   0  0  0  0  0  0  0  0  0  0  0  0
   -9.9720   17.4240  -31.2290 H   0  0  0  0  0  0  0  0  0  0  0  0
   -7.4821   17.7268  -30.7431 H   0  0  0  0  0  0  0  0  0  0  0  0
   -6.7730   21.5970  -31.3060 H   0  0  0  0  0  0  0  0  0  0  0  0
   -5.5221   24.2127  -32.3778 H   0  0  0  0  0  0  0  0  0  0  0  0
   -6.4023   23.4453  -30.9728 H   0  0  0  0  0  0  0  0  0  0  0  0
   -5.7452   25.9464  -30.8908 H   0  0  0  0  0  0  0  0  0  0  0  0
   -5.5265   24.8720  -29.4552 H   0  0  0  0  0  0  0  0  0  0  0  0
   -2.1922   24.6460  -29.4879 H   0  0  0  0  0  0  0  0  0  0  0  0
   -3.7950   24.1423  -28.8243 H   0  0  0  0  0  0  0  0  0  0  0  0
   -2.3738   23.1608  -31.3171 H   0  0  0  0  0  0  0  0  0  0  0  0
   -2.9592   22.2204  -29.8993 H   0  0  0  0  0  0  0  0  0  0  0  0
   -2.3325   21.2290  -34.7297 H   0  0  0  0  0  0  0  0  0  0  0  0
  1  2  1  0
  2  3  2  0
  3  4  1  0
  4  5  2  0
  5  6  1  0
  6  7  1  0
  7  8  2  0
  8  9  1  0
  9 10  2  0
 10 11  1  0
 11 12  1  0
 12 13  2  0
 13 14  1  0
 14 15  1  0
 10 16  1  0
 16 17  1  0
 17 18  1  0
 18 19  1  0
 19 20  1  0
 20 21  1  0
 21 22  1  0
 22 23  1  0
 17 24  2  0
  6 25  2  0
 25  2  1  0
 24  8  1  0
 15 11  2  0
 23 18  1  0
  1 26  1  0
  3 27  1  0
  4 28  1  0
  5 29  1  0
  9 30  1  0
 12 31  1  0
 14 32  1  0
 15 33  1  0
 16 34  1  0
 19 35  1  0
 19 36  1  0
 20 37  1  0
 20 38  1  0
 22 39  1  0
 22 40  1  0
 23 41  1  0
 23 42  1  0
 25 43  1  0
M  END
>  <smiles>  (19) 
Oc1cccc(N=c2cc(-c3cn[nH]c3)[nH]c(N3CCOCC3)n2)c1

>  <score_type>  (19) 
oracle

>  <origin>  (19) 
adgpu

>  <m_score__min__energy>  (19) 
-8.5099999999999998

>  <m_primary>  (19) 
energy

$$$$
20:0
     RDKit          3D

 51 54  0  0  0  0  0  0  0  0999 V2000
   -3.6800   19.8970  -30.8160 O   0  0  0  0  0  0  0  0  0  0  0  0
   -3.6410   20.5490  -32.1690 S   0  0  0  0  0  0  0  0  0  0  0  0
   -4.4650   21.8050  -32.1060 O   0  0  0  0  0  0  0  0  0  0  0  0
   -4.4000   19.4770  -33.3990 C   0  0  0  0  0  0  0  0  0  0  0  0
   -5.7990   19.0550  -33.0170 C   0  0  0  0  0  0  0  0  0  0  0  0
   -6.8360   20.0010  -32.9700 C   0  0  0  0  0  0  0  0  0  0  0  0
   -8.1250   19.6200  -32.5840 C   0  0  0  0  0  0  0  0  0  0  0  0
   -8.3990   18.2870  -32.2650 C   0  0  0  0  0  0  0  0  0  0  0  0
   -9.6870   17.9220  -31.8810 O   0  0  0  0  0  0  0  0  0  0  0  0
   -7.3780   17.3310  -32.3400 C   0  0  0  0  0  0  0  0  0  0  0  0
   -6.0880   17.7100  -32.7250 C   0  0  0  0  0  0  0  0  0  0  0  0
   -1.9930   21.0050  -32.5700 N   0  0  0  0  0  0  0  0  0  0  0  0
   -1.0910   19.8450  -32.6850 C   0  0  0  0  0  0  0  0  0  0  0  0
   -0.8340   19.1750  -31.3250 C   0  0  0  0  0  0  0  0  0  0  0  0
   -0.7030   20.1790  -30.2590 N   0  0  0  0  0  0  0  0  0  0  0  0
   -1.1940   19.9050  -28.9270 C   0  0  0  0  0  0  0  0  0  0  0  0
   -0.8600   18.7250  -28.3340 N   0  0  0  0  0  0  0  0  0  0  0  0
   -1.2180   18.4400  -27.0570 C   0  0  0  0  0  0  0  0  0  0  0  0
   -1.9180   19.3440  -26.3300 N   0  0  0  0  0  0  0  0  0  0  0  0
   -2.2870   20.5330  -26.8680 C   0  0  0  0  0  0  0  0  0  0  0  0
   -1.9520   20.8470  -28.1910 C   0  0  0  0  0  0  0  0  0  0  0  0
   -2.4540   22.1050  -28.7790 C   0  0  0  0  0  0  0  0  0  0  0  0
   -1.6640   23.2650  -28.7440 C   0  0  0  0  0  0  0  0  0  0  0  0
   -2.1340   24.4540  -29.3100 C   0  0  0  0  0  0  0  0  0  0  0  0
   -1.3600   25.5660  -29.2810 F   0  0  0  0  0  0  0  0  0  0  0  0
   -3.4010   24.4940  -29.9060 C   0  0  0  0  0  0  0  0  0  0  0  0
   -3.8660   25.6760  -30.4700 O   0  0  0  0  0  0  0  0  0  0  0  0
   -4.1980   23.3440  -29.9310 C   0  0  0  0  0  0  0  0  0  0  0  0
   -5.4270   23.3800  -30.5040 F   0  0  0  0  0  0  0  0  0  0  0  0
   -3.7290   22.1540  -29.3670 C   0  0  0  0  0  0  0  0  0  0  0  0
   -0.4130   21.5590  -30.6610 C   0  0  0  0  0  0  0  0  0  0  0  0
   -1.4810   22.0580  -31.6550 C   0  0  0  0  0  0  0  0  0  0  0  0
   -4.4437   20.0157  -34.3571 H   0  0  0  0  0  0  0  0  0  0  0  0
   -3.7859   18.5674  -33.4729 H   0  0  0  0  0  0  0  0  0  0  0  0
   -6.6330   21.0482  -33.2385 H   0  0  0  0  0  0  0  0  0  0  0  0
   -8.9261   20.3720  -32.5312 H   0  0  0  0  0  0  0  0  0  0  0  0
   -9.8850   17.5880  -30.9450 H   0  0  0  0  0  0  0  0  0  0  0  0
   -7.5913   16.2799  -32.0956 H   0  0  0  0  0  0  0  0  0  0  0  0
   -5.2948   16.9516  -32.7999 H   0  0  0  0  0  0  0  0  0  0  0  0
   -1.5458   19.1080  -33.3632 H   0  0  0  0  0  0  0  0  0  0  0  0
   -0.1264   20.2032  -33.0738 H   0  0  0  0  0  0  0  0  0  0  0  0
   -1.6753   18.5070  -31.0885 H   0  0  0  0  0  0  0  0  0  0  0  0
    0.1050   18.6054  -31.3870 H   0  0  0  0  0  0  0  0  0  0  0  0
   -0.9396   17.4737  -26.6111 H   0  0  0  0  0  0  0  0  0  0  0  0
   -2.8530   21.2553  -26.2614 H   0  0  0  0  0  0  0  0  0  0  0  0
   -0.6719   23.2384  -28.2697 H   0  0  0  0  0  0  0  0  0  0  0  0
   -4.3601   21.2532  -29.3836 H   0  0  0  0  0  0  0  0  0  0  0  0
   -0.4147   22.2051  -29.7707 H   0  0  0  0  0  0  0  0  0  0  0  0
    0.5735   21.5924  -31.1464 H   0  0  0  0  0  0  0  0  0  0  0  0
   -2.3287   22.4587  -31.0798 H   0  0  0  0  0  0  0  0  0  0  0  0
   -0.9988   22.8202  -32.2847 H   0  0  0  0  0  0  0  0  0  0  0  0
  1  2  2  0
  2  3  2  0
  2  4  1  0
  4  5  1  0
  5  6  2  0
  6  7  1  0
  7  8  2  0
  8  9  1  0
  8 10  1  0
 10 11  2  0
  2 12  1  0
 12 13  1  0
 13 14  1  0
 14 15  1  0
 15 16  1  0
 16 17  2  0
 17 18  1  0
 18 19  2  0
 19 20  1  0
 20 21  2  0
 21 22  1  0
 22 23  2  0
 23 24  1  0
 24 25  1  0
 24 26  2  0
 26 27  1  0
 26 28  1  0
 28 29  1  0
 28 30  2  0
 15 31  1  0
 31 32  1  0
 11  5  1  0
 32 12  1  0
 21 16  1  0
 30 22  1  0
  4 33  1  0
  4 34  1  0
  6 35  1  0
  7 36  1  0
  9 37  1  0
 10 38  1  0
 11 39  1  0
 13 40  1  0
 13 41  1  0
 14 42  1  0
 14 43  1  0
 18 44  1  0
 20 45  1  0
 23 46  1  0
 30 47  1  0
 31 48  1  0
 31 49  1  0
 32 50  1  0
 32 51  1  0
M  CHG  1  27  -1
M  END
>  <UniqueID>  (20) 
19

>  <SMILES>  (20) 
O=S(=O)(Cc1ccc(O)cc1)N1CCN(c2ncncc2-c2cc(F)c([O-])c(F)c2)CC1

>  <Energy>  (20) 
67.90323336073844

>  <Genealogy>  (20) 
O=S(=O)(Cc1ccc(O)cc1)N1CCN(c2ncncc2-c2cc(F)c([O-])c(F)c2)CC1 (protonated)
O=S(=O)(Cc1ccc(O)cc1)N1CCN(c2ncncc2-c2cc(F)c([O-])c(F)c2)CC1 (3D coordinates assigned)
O=S(=O)(Cc1ccc(O)cc1)N1CCN(c2ncncc2-c2cc(F)c([O-])c(F)c2)CC1 (nonaromatic ring conformer: 67.90323336073844 kcal/mol)

>  <smiles>  (20) 
O=S(=O)(Cc1ccc(O)cc1)N1CCN(c2ncncc2-c2cc(F)c(O)c(F)c2)CC1

>  <score_type>  (20) 
oracle

>  <origin>  (20) 
adgpu

>  <m_score__min__energy>  (20) 
-11.34

>  <m_primary>  (20) 
energy

$$$$
21:0
     RDKit          3D

 32 34  0  0  0  0  0  0  0  0999 V2000
   -6.4750   24.5360  -30.9060 C   0  0  0  0  0  0  0  0  0  0  0  0
   -5.1910   23.9250  -30.3890 C   0  0  0  0  0  0  0  0  0  0  0  0
   -4.7670   24.3510  -29.1180 C   0  0  0  0  0  0  0  0  0  0  0  0
   -3.5160   23.9890  -28.6410 C   0  0  0  0  0  0  0  0  0  0  0  0
   -2.6760   23.2270  -29.4360 C   0  0  0  0  0  0  0  0  0  0  0  0
   -3.1190   22.7740  -30.6800 C   0  0  0  0  0  0  0  0  0  0  0  0
   -2.2570   22.0470  -31.4380 N   0  0  0  0  0  0  0  0  0  0  0  0
   -2.6180   21.5520  -32.6420 C   0  0  0  0  0  0  0  0  0  0  0  0
   -1.7900   20.8970  -33.3260 O   0  0  0  0  0  0  0  0  0  0  0  0
   -3.9100   21.7460  -33.1020 C   0  0  0  0  0  0  0  0  0  0  0  0
   -4.8130   22.4650  -32.3140 C   0  0  0  0  0  0  0  0  0  0  0  0
   -6.1900   22.4240  -32.7130 N   0  0  0  0  0  0  0  0  0  0  0  0
   -7.0470   21.2970  -32.4470 C   0  0  0  0  0  0  0  0  0  0  0  0
   -8.2980   21.4520  -31.8150 C   0  0  0  0  0  0  0  0  0  0  0  0
   -9.1120   20.3410  -31.5820 C   0  0  0  0  0  0  0  0  0  0  0  0
   -8.6920   19.0670  -31.9740 C   0  0  0  0  0  0  0  0  0  0  0  0
   -9.4880   17.9920  -31.7460 F   0  0  0  0  0  0  0  0  0  0  0  0
   -7.4540   18.9030  -32.6010 C   0  0  0  0  0  0  0  0  0  0  0  0
   -7.0440   17.6680  -32.9840 F   0  0  0  0  0  0  0  0  0  0  0  0
   -6.6350   20.0120  -32.8360 C   0  0  0  0  0  0  0  0  0  0  0  0
   -4.3990   23.0580  -31.1320 N   0  0  0  0  0  0  0  0  0  0  0  0
   -7.1061   24.8363  -30.0566 H   0  0  0  0  0  0  0  0  0  0  0  0
   -6.2402   25.4189  -31.5186 H   0  0  0  0  0  0  0  0  0  0  0  0
   -7.0121   23.7969  -31.5186 H   0  0  0  0  0  0  0  0  0  0  0  0
   -5.4300   24.9738  -28.4995 H   0  0  0  0  0  0  0  0  0  0  0  0
   -3.1931   24.3050  -27.6380 H   0  0  0  0  0  0  0  0  0  0  0  0
   -1.6623   22.9793  -29.0881 H   0  0  0  0  0  0  0  0  0  0  0  0
   -4.2215   21.3392  -34.0754 H   0  0  0  0  0  0  0  0  0  0  0  0
   -6.5060   23.1380  -33.4090 H   0  0  0  0  0  0  0  0  0  0  0  0
   -8.6343   22.4521  -31.5041 H   0  0  0  0  0  0  0  0  0  0  0  0
  -10.0866   20.4693  -31.0884 H   0  0  0  0  0  0  0  0  0  0  0  0
   -5.6611   19.8768  -33.3291 H   0  0  0  0  0  0  0  0  0  0  0  0
  1  2  1  0
  2  3  2  0
  3  4  1  0
  4  5  2  0
  5  6  1  0
  6  7  2  0
  7  8  1  0
  8  9  2  0
  8 10  1  0
 10 11  2  0
 11 12  1  0
 12 13  1  0
 13 14  2  0
 14 15  1  0
 15 16  2  0
 16 17  1  0
 16 18  1  0
 18 19  1  0
 18 20  2  0
 11 21  1  0
 21  2  1  0
 21  6  1  0
 20 13  1  0
  1 22  1  0
  1 23  1  0
  1 24  1  0
  3 25  1  0
  4 26  1  0
  5 27  1  0
 10 28  1  0
 12 29  1  0
 14 30  1  0
 15 31  1  0
 20 32  1  0
M  END
>  <UniqueID>  (21) 
20

>  <SMILES>  (21) 
Cc1cccc2nc(=O)cc(Nc3ccc(F)c(F)c3)n12

>  <Energy>  (21) 
56.27050889127452

>  <Genealogy>  (21) 
Cc1cccc2nc(=O)cc(Nc3ccc(F)c(F)c3)n12 (3D coordinates assigned)
Cc1cccc2nc(=O)cc(Nc3ccc(F)c(F)c3)n12 (optimized conformer: 56.27050889127452 kcal/mol)

>  <smiles>  (21) 
Cc1cccc2nc(=O)cc(Nc3ccc(F)c(F)c3)n12

>  <score_type>  (21) 
oracle

>  <origin>  (21) 
adgpu

>  <m_score__min__energy>  (21) 
-7.1200000000000001

>  <m_primary>  (21) 
energy

$$$$
22:0
     RDKit          3D

 62 64  0  0  0  0  0  0  0  0999 V2000
   -9.4540   19.7240  -32.3780 C   0  0  0  0  0  0  0  0  0  0  0  0
   -9.1700   20.8740  -31.4180 C   0  0  0  0  0  0  0  0  0  0  0  0
   -8.5550   21.9650  -32.1010 O   0  0  0  0  0  0  0  0  0  0  0  0
   -7.1860   22.2790  -32.0960 C   0  0  0  0  0  0  0  0  0  0  0  0
   -6.6880   23.4480  -31.4930 C   0  0  0  0  0  0  0  0  0  0  0  0
   -5.3100   23.7190  -31.4760 C   0  0  0  0  0  0  0  0  0  0  0  0
   -4.7940   24.9480  -30.8250 C   0  0  0  0  0  0  0  0  0  0  0  0
   -5.4920   25.9970  -30.8370 O   0  0  0  0  0  0  0  0  0  0  0  0
   -3.5160   24.9210  -30.1690 N   0  0  0  0  0  0  0  0  0  0  0  0
   -2.9670   23.9730  -29.2370 C   0  0  0  0  0  0  0  0  0  0  0  0
   -3.6200   22.7790  -28.8670 C   0  0  0  0  0  0  0  0  0  0  0  0
   -3.0210   21.9030  -27.9570 C   0  0  0  0  0  0  0  0  0  0  0  0
   -1.7800   22.2100  -27.3990 C   0  0  0  0  0  0  0  0  0  0  0  0
   -1.1300   23.3990  -27.7440 C   0  0  0  0  0  0  0  0  0  0  0  0
    0.4220   23.8190  -27.0260 S   0  0  0  0  0  0  0  0  0  0  0  0
    1.0440   24.9230  -27.8340 O   0  0  0  0  0  0  0  0  0  0  0  0
    1.3550   22.6390  -27.0290 O   0  0  0  0  0  0  0  0  0  0  0  0
    0.1890   24.3630  -25.3960 N   0  0  0  0  0  0  0  0  0  0  0  0
   -0.0950   25.5940  -25.0780 C   0  0  0  0  0  0  0  0  0  0  0  0
   -0.2850   26.0500  -23.6830 C   0  0  0  0  0  0  0  0  0  0  0  0
   -0.5080   27.5620  -23.8230 C   0  0  0  0  0  0  0  0  0  0  0  0
   -0.5690   27.8780  -25.3280 C   0  0  0  0  0  0  0  0  0  0  0  0
   -0.2490   26.6440  -26.0150 N   0  0  0  0  0  0  0  0  0  0  0  0
   -1.7260   24.2750  -28.6600 C   0  0  0  0  0  0  0  0  0  0  0  0
   -4.4250   22.8000  -32.0640 C   0  0  0  0  0  0  0  0  0  0  0  0
   -4.9070   21.6230  -32.6660 C   0  0  0  0  0  0  0  0  0  0  0  0
   -4.0550   20.6690  -33.2500 O   0  0  0  0  0  0  0  0  0  0  0  0
   -2.6480   20.8130  -33.4410 C   0  0  0  0  0  0  0  0  0  0  0  0
   -1.9050   20.7390  -32.1070 C   0  0  0  0  0  0  0  0  0  0  0  0
   -6.2870   21.3820  -32.7030 C   0  0  0  0  0  0  0  0  0  0  0  0
   -6.7440   20.2140  -33.3220 O   0  0  0  0  0  0  0  0  0  0  0  0
   -6.3070   18.9140  -32.9330 C   0  0  0  0  0  0  0  0  0  0  0  0
   -5.9410   18.1110  -34.1700 C   0  0  0  0  0  0  0  0  0  0  0  0
   -9.6789   18.8135  -31.8031 H   0  0  0  0  0  0  0  0  0  0  0  0
  -10.3160   19.9797  -33.0117 H   0  0  0  0  0  0  0  0  0  0  0  0
   -8.5721   19.5491  -33.0117 H   0  0  0  0  0  0  0  0  0  0  0  0
  -10.1168   21.2147  -30.9735 H   0  0  0  0  0  0  0  0  0  0  0  0
   -8.4849   20.5178  -30.6345 H   0  0  0  0  0  0  0  0  0  0  0  0
   -7.3869   24.1593  -31.0287 H   0  0  0  0  0  0  0  0  0  0  0  0
   -4.6035   22.5363  -29.2957 H   0  0  0  0  0  0  0  0  0  0  0  0
   -3.5302   20.9681  -27.6800 H   0  0  0  0  0  0  0  0  0  0  0  0
   -1.3117   21.5153  -26.6861 H   0  0  0  0  0  0  0  0  0  0  0  0
    0.2910   23.6530  -24.6350 H   0  0  0  0  0  0  0  0  0  0  0  0
   -1.1607   25.5647  -23.2273 H   0  0  0  0  0  0  0  0  0  0  0  0
    0.5675   25.8027  -23.0333 H   0  0  0  0  0  0  0  0  0  0  0  0
   -1.4532   27.8495  -23.3393 H   0  0  0  0  0  0  0  0  0  0  0  0
    0.3062   28.1222  -23.3401 H   0  0  0  0  0  0  0  0  0  0  0  0
   -1.5777   28.2179  -25.6054 H   0  0  0  0  0  0  0  0  0  0  0  0
    0.1343   28.6798  -25.5973 H   0  0  0  0  0  0  0  0  0  0  0  0
   -0.2130   26.5580  -27.0550 H   0  0  0  0  0  0  0  0  0  0  0  0
   -1.2143   25.2106  -28.9296 H   0  0  0  0  0  0  0  0  0  0  0  0
   -3.3439   23.0026  -32.0537 H   0  0  0  0  0  0  0  0  0  0  0  0
   -2.2895   20.0068  -34.0979 H   0  0  0  0  0  0  0  0  0  0  0  0
   -2.4543   21.7953  -33.8967 H   0  0  0  0  0  0  0  0  0  0  0  0
   -2.6273   20.8109  -31.2805 H   0  0  0  0  0  0  0  0  0  0  0  0
   -1.3655   19.7827  -32.0403 H   0  0  0  0  0  0  0  0  0  0  0  0
   -1.1875   21.5701  -32.0403 H   0  0  0  0  0  0  0  0  0  0  0  0
   -5.4262   19.0034  -32.2801 H   0  0  0  0  0  0  0  0  0  0  0  0
   -7.1156   18.4027  -32.3902 H   0  0  0  0  0  0  0  0  0  0  0  0
   -5.5025   17.1490  -33.8662 H   0  0  0  0  0  0  0  0  0  0  0  0
   -6.8450   17.9288  -34.7696 H   0  0  0  0  0  0  0  0  0  0  0  0
   -5.2105   18.6738  -34.7696 H   0  0  0  0  0  0  0  0  0  0  0  0
  1  2  1  0
  2  3  1  0
  3  4  1  0
  4  5  2  0
  5  6  1  0
  6  7  1  0
  7  8  2  0
  7  9  1  0
  9 10  1  0
 10 11  2  0
 11 12  1  0
 12 13  2  0
 13 14  1  0
 14 15  1  0
 15 16  2  0
 15 17  2  0
 15 18  1  0
 18 19  2  3
 19 20  1  0
 20 21  1  0
 21 22  1  0
 22 23  1  0
 14 24  2  0
  6 25  2  0
 25 26  1  0
 26 27  1  0
 27 28  1  0
 28 29  1  0
 26 30  2  0
 30 31  1  0
 31 32  1  0
 32 33  1  0
 30  4  1  0
 24 10  1  0
 23 19  1  0
  1 34  1  0
  1 35  1  0
  1 36  1  0
  2 37  1  0
  2 38  1  0
  5 39  1  0
 11 40  1  0
 12 41  1  0
 13 42  1  0
 18 43  1  0
 20 44  1  0
 20 45  1  0
 21 46  1  0
 21 47  1  0
 22 48  1  0
 22 49  1  0
 23 50  1  0
 24 51  1  0
 25 52  1  0
 28 53  1  0
 28 54  1  0
 29 55  1  0
 29 56  1  0
 29 57  1  0
 32 58  1  0
 32 59  1  0
 33 60  1  0
 33 61  1  0
 33 62  1  0
M  CHG  2   9  -1  18   1
M  END
>  <UniqueID>  (22) 
21

>  <SMILES>  (22) 
CCOc1cc(C(=O)[N-]c2cccc(S(=O)(=O)[NH+]=C3CCCN3)c2)cc(OCC)c1OCC

>  <Energy>  (22) 
74.33211290431132

>  <Genealogy>  (22) 
CCOc1cc(C(=O)[N-]c2cccc(S(=O)(=O)[NH+]=C3CCCN3)c2)cc(OCC)c1OCC (protonated)
CCOc1cc(C(=O)[N-]c2cccc(S(=O)(=O)[NH+]=C3CCCN3)c2)cc(OCC)c1OCC (3D coordinates assigned)
CCOc1cc(C(=O)[N-]c2cccc(S(=O)(=O)[NH+]=C3CCCN3)c2)cc(OCC)c1OCC (nonaromatic ring conformer: 74.33211290431132 kcal/mol)

>  <smiles>  (22) 
CCOc1cc(C(=O)Nc2cccc(S(=O)(=O)N=C3CCCN3)c2)cc(OCC)c1OCC

>  <score_type>  (22) 
oracle

>  <origin>  (22) 
adgpu

>  <m_score__min__energy>  (22) 
-10.279999999999999

>  <m_primary>  (22) 
energy

$$$$
23:0
     RDKit          3D

 33 34  0  0  0  0  0  0  0  0999 V2000
   -5.4740   25.9880  -30.4820 C   0  0  0  0  0  0  0  0  0  0  0  0
   -4.1010   25.6270  -30.5840 O   0  0  0  0  0  0  0  0  0  0  0  0
   -3.5590   24.4260  -30.0980 C   0  0  0  0  0  0  0  0  0  0  0  0
   -4.2290   23.1950  -30.2200 C   0  0  0  0  0  0  0  0  0  0  0  0
   -3.6530   22.0240  -29.7220 C   0  0  0  0  0  0  0  0  0  0  0  0
   -2.3960   22.0580  -29.0930 C   0  0  0  0  0  0  0  0  0  0  0  0
   -1.7830   20.8120  -28.5630 C   0  0  0  0  0  0  0  0  0  0  0  0
   -0.5580   20.3520  -29.0700 C   0  0  0  0  0  0  0  0  0  0  0  0
    0.0320   19.1780  -28.5800 C   0  0  0  0  0  0  0  0  0  0  0  0
    1.3230   18.7470  -29.1620 C   0  0  0  0  0  0  0  0  0  0  0  0
    2.4180   19.2470  -28.7900 O   0  0  0  0  0  0  0  0  0  0  0  0
   -0.6190   18.4480  -27.5610 C   0  0  0  0  0  0  0  0  0  0  0  0
   -0.0420   17.2760  -27.0640 O   0  0  0  0  0  0  0  0  0  0  0  0
   -1.8480   18.9000  -27.0440 C   0  0  0  0  0  0  0  0  0  0  0  0
   -2.4690   18.1530  -26.0290 O   0  0  0  0  0  0  0  0  0  0  0  0
   -3.8090   18.3430  -25.5880 C   0  0  0  0  0  0  0  0  0  0  0  0
   -2.4210   20.0800  -27.5510 C   0  0  0  0  0  0  0  0  0  0  0  0
   -1.7300   23.2900  -28.9720 C   0  0  0  0  0  0  0  0  0  0  0  0
   -2.3070   24.4620  -29.4700 C   0  0  0  0  0  0  0  0  0  0  0  0
   -1.6310   25.6700  -29.3360 O   0  0  0  0  0  0  0  0  0  0  0  0
   -5.7558   26.0621  -29.4213 H   0  0  0  0  0  0  0  0  0  0  0  0
   -5.6353   26.9591  -30.9729 H   0  0  0  0  0  0  0  0  0  0  0  0
   -6.0920   25.2218  -30.9729 H   0  0  0  0  0  0  0  0  0  0  0  0
   -5.2127   23.1544  -30.7107 H   0  0  0  0  0  0  0  0  0  0  0  0
   -4.1870   21.0676  -29.8227 H   0  0  0  0  0  0  0  0  0  0  0  0
   -0.0527   20.9212  -29.8642 H   0  0  0  0  0  0  0  0  0  0  0  0
    1.3264   17.9694  -29.9400 H   0  0  0  0  0  0  0  0  0  0  0  0
   -0.4940   16.7000  -26.3650 H   0  0  0  0  0  0  0  0  0  0  0  0
   -3.8360   18.3468  -24.4883 H   0  0  0  0  0  0  0  0  0  0  0  0
   -4.1871   19.3037  -25.9674 H   0  0  0  0  0  0  0  0  0  0  0  0
   -4.4393   17.5252  -25.9674 H   0  0  0  0  0  0  0  0  0  0  0  0
   -3.3819   20.4334  -27.1487 H   0  0  0  0  0  0  0  0  0  0  0  0
   -0.7464   23.3323  -28.4813 H   0  0  0  0  0  0  0  0  0  0  0  0
  1  2  1  0
  2  3  1  0
  3  4  2  0
  4  5  1  0
  5  6  2  0
  6  7  1  0
  7  8  2  0
  8  9  1  0
  9 10  1  0
 10 11  2  0
  9 12  2  0
 12 13  1  0
 12 14  1  0
 14 15  1  0
 15 16  1  0
 14 17  2  0
  6 18  1  0
 18 19  2  0
 19 20  1  0
 19  3  1  0
 17  7  1  0
  1 21  1  0
  1 22  1  0
  1 23  1  0
  4 24  1  0
  5 25  1  0
  8 26  1  0
 10 27  1  0
 13 28  1  0
 16 29  1  0
 16 30  1  0
 16 31  1  0
 17 32  1  0
 18 33  1  0
M  CHG  1  20  -1
M  END
>  <UniqueID>  (23) 
22

>  <SMILES>  (23) 
COc1ccc(-c2cc(C=O)c(O)c(OC)c2)cc1[O-]

>  <Energy>  (23) 
39.74816444875493

>  <Genealogy>  (23) 
COc1ccc(-c2cc(C=O)c(O)c(OC)c2)cc1[O-] (protonated)
COc1ccc(-c2cc(C=O)c(O)c(OC)c2)cc1[O-] (3D coordinates assigned)
COc1ccc(-c2cc(C=O)c(O)c(OC)c2)cc1[O-] (optimized conformer: 39.74816444875493 kcal/mol)

>  <smiles>  (23) 
COc1ccc(-c2cc(C=O)c(O)c(OC)c2)cc1O

>  <score_type>  (23) 
oracle

>  <origin>  (23) 
adgpu

>  <m_score__min__energy>  (23) 
-9.5800000000000001

>  <m_primary>  (23) 
energy

$$$$
24:0
     RDKit          3D

 31 33  0  0  0  0  0  0  0  0999 V2000
   -2.3320   19.5620  -26.7080 C   0  0  0  0  0  0  0  0  0  0  0  0
   -1.8190   20.4960  -27.7640 C   0  0  0  0  0  0  0  0  0  0  0  0
   -1.0840   19.9980  -28.8520 C   0  0  0  0  0  0  0  0  0  0  0  0
   -0.6370   20.8650  -29.8530 C   0  0  0  0  0  0  0  0  0  0  0  0
   -0.9300   22.2290  -29.7820 C   0  0  0  0  0  0  0  0  0  0  0  0
   -1.6750   22.7310  -28.7090 C   0  0  0  0  0  0  0  0  0  0  0  0
   -2.0550   24.4810  -28.6210 S   0  0  0  0  0  0  0  0  0  0  0  0
   -3.4360   24.3200  -29.7450 C   0  0  0  0  0  0  0  0  0  0  0  0
   -4.1670   23.1970  -29.8690 N   0  0  0  0  0  0  0  0  0  0  0  0
   -5.0720   23.5620  -30.8000 C   0  0  0  0  0  0  0  0  0  0  0  0
   -6.1390   22.6720  -31.3040 C   0  0  0  0  0  0  0  0  0  0  0  0
   -7.4670   22.8280  -30.8650 C   0  0  0  0  0  0  0  0  0  0  0  0
   -8.4740   21.9830  -31.3430 C   0  0  0  0  0  0  0  0  0  0  0  0
   -8.1660   20.9760  -32.2620 C   0  0  0  0  0  0  0  0  0  0  0  0
   -6.8510   20.8110  -32.7030 C   0  0  0  0  0  0  0  0  0  0  0  0
   -5.8410   21.6540  -32.2290 C   0  0  0  0  0  0  0  0  0  0  0  0
   -4.8960   24.8320  -31.2140 N   0  0  0  0  0  0  0  0  0  0  0  0
   -3.8610   25.3110  -30.5470 N   0  0  0  0  0  0  0  0  0  0  0  0
   -2.1270   21.8640  -27.7070 C   0  0  0  0  0  0  0  0  0  0  0  0
   -2.1059   19.9736  -25.7133 H   0  0  0  0  0  0  0  0  0  0  0  0
   -3.4203   19.4462  -26.8182 H   0  0  0  0  0  0  0  0  0  0  0  0
   -1.8459   18.5814  -26.8182 H   0  0  0  0  0  0  0  0  0  0  0  0
   -0.8595   18.9231  -28.9166 H   0  0  0  0  0  0  0  0  0  0  0  0
   -0.0532   20.4724  -30.6986 H   0  0  0  0  0  0  0  0  0  0  0  0
   -0.5748   22.9091  -30.5702 H   0  0  0  0  0  0  0  0  0  0  0  0
   -7.7145   23.6190  -30.1418 H   0  0  0  0  0  0  0  0  0  0  0  0
   -9.5097   22.1112  -30.9952 H   0  0  0  0  0  0  0  0  0  0  0  0
   -8.9594   20.3133  -32.6380 H   0  0  0  0  0  0  0  0  0  0  0  0
   -6.6095   20.0165  -33.4244 H   0  0  0  0  0  0  0  0  0  0  0  0
   -4.8075   21.5207  -32.5812 H   0  0  0  0  0  0  0  0  0  0  0  0
   -2.7258   22.2565  -26.8719 H   0  0  0  0  0  0  0  0  0  0  0  0
  1  2  1  0
  2  3  2  0
  3  4  1  0
  4  5  2  0
  5  6  1  0
  6  7  1  0
  7  8  1  0
  8  9  2  0
  9 10  1  0
 10 11  1  0
 11 12  2  0
 12 13  1  0
 13 14  2  0
 14 15  1  0
 15 16  2  0
 10 17  2  0
 17 18  1  0
  6 19  2  0
 19  2  1  0
 18  8  1  0
 16 11  1  0
  1 20  1  0
  1 21  1  0
  1 22  1  0
  3 23  1  0
  4 24  1  0
  5 25  1  0
 12 26  1  0
 13 27  1  0
 14 28  1  0
 15 29  1  0
 16 30  1  0
 19 31  1  0
M  CHG  1  18  -1
M  END
>  <UniqueID>  (24) 
23

>  <SMILES>  (24) 
Cc1cccc(Sc2nc(-c3ccccc3)n[n-]2)c1

>  <Energy>  (24) 
60.97612912460139

>  <Genealogy>  (24) 
Cc1cccc(Sc2nc(-c3ccccc3)n[n-]2)c1 (protonated)
Cc1cccc(Sc2nc(-c3ccccc3)n[n-]2)c1 (3D coordinates assigned)
Cc1cccc(Sc2nc(-c3ccccc3)n[n-]2)c1 (optimized conformer: 60.97612912460139 kcal/mol)

>  <smiles>  (24) 
Cc1cccc(Sc2nc(-c3ccccc3)n[nH]2)c1

>  <score_type>  (24) 
oracle

>  <origin>  (24) 
adgpu

>  <m_score__min__energy>  (24) 
-8.9499999999999993

>  <m_primary>  (24) 
energy

$$$$
25:0
     RDKit          3D

 61 65  0  0  0  0  0  0  0  0999 V2000
   -4.1190   20.9470  -33.4580 C   0  0  0  0  0  0  0  0  0  0  0  0
   -4.0870   21.7180  -32.1690 C   0  0  0  0  0  0  0  0  0  0  0  0
   -5.1110   22.5230  -31.6840 C   0  0  0  0  0  0  0  0  0  0  0  0
   -6.4420   22.7560  -32.2850 C   0  0  0  0  0  0  0  0  0  0  0  0
   -6.7880   23.9260  -32.5950 O   0  0  0  0  0  0  0  0  0  0  0  0
   -7.3290   21.6710  -32.5910 N   0  0  0  0  0  0  0  0  0  0  0  0
   -6.9620   20.2850  -32.6480 C   0  0  0  0  0  0  0  0  0  0  0  0
   -6.7520   19.5320  -31.4810 C   0  0  0  0  0  0  0  0  0  0  0  0
   -6.3640   18.1930  -31.5670 C   0  0  0  0  0  0  0  0  0  0  0  0
   -6.2010   17.5820  -32.8190 C   0  0  0  0  0  0  0  0  0  0  0  0
   -5.7320   16.1530  -32.9090 C   0  0  0  0  0  0  0  0  0  0  0  0
   -4.2010   16.0460  -32.8080 C   0  0  0  0  0  0  0  0  0  0  0  0
   -3.5350   17.3150  -33.1000 N   0  0  0  0  0  0  0  0  0  0  0  0
   -6.4440   18.3270  -33.9850 C   0  0  0  0  0  0  0  0  0  0  0  0
   -6.8340   19.6660  -33.8970 C   0  0  0  0  0  0  0  0  0  0  0  0
   -4.6530   23.0760  -30.5020 C   0  0  0  0  0  0  0  0  0  0  0  0
   -3.3720   22.5970  -30.3100 C   0  0  0  0  0  0  0  0  0  0  0  0
   -2.5210   22.9290  -29.1460 C   0  0  0  0  0  0  0  0  0  0  0  0
   -2.0800   21.9090  -28.2840 C   0  0  0  0  0  0  0  0  0  0  0  0
   -1.2810   22.2150  -27.1780 C   0  0  0  0  0  0  0  0  0  0  0  0
   -0.9220   23.5380  -26.9180 C   0  0  0  0  0  0  0  0  0  0  0  0
   -1.3600   24.5610  -27.7630 C   0  0  0  0  0  0  0  0  0  0  0  0
   -2.1560   24.2630  -28.8750 C   0  0  0  0  0  0  0  0  0  0  0  0
   -2.5630   25.2960  -29.7130 O   0  0  0  0  0  0  0  0  0  0  0  0
   -3.0330   21.7580  -31.3190 N   0  0  0  0  0  0  0  0  0  0  0  0
   -1.7640   21.1010  -31.4970 C   0  0  0  0  0  0  0  0  0  0  0  0
   -1.3800   20.0630  -30.6380 C   0  0  0  0  0  0  0  0  0  0  0  0
   -0.1400   19.4390  -30.7970 C   0  0  0  0  0  0  0  0  0  0  0  0
    0.7400   19.8430  -31.8190 C   0  0  0  0  0  0  0  0  0  0  0  0
    2.0600   19.1820  -31.9870 C   0  0  0  0  0  0  0  0  0  0  0  0
    2.8860   18.8050  -30.9110 C   0  0  0  0  0  0  0  0  0  0  0  0
    4.0730   18.2010  -31.3010 C   0  0  0  0  0  0  0  0  0  0  0  0
    4.0990   18.1330  -32.9770 S   0  0  0  0  0  0  0  0  0  0  0  0
    2.6110   18.8690  -33.2310 C   0  0  0  0  0  0  0  0  0  0  0  0
    0.3460   20.8870  -32.6780 C   0  0  0  0  0  0  0  0  0  0  0  0
   -0.8940   21.5090  -32.5170 C   0  0  0  0  0  0  0  0  0  0  0  0
   -4.1637   19.8698  -33.2399 H   0  0  0  0  0  0  0  0  0  0  0  0
   -5.0057   21.2406  -34.0390 H   0  0  0  0  0  0  0  0  0  0  0  0
   -3.2110   21.1661  -34.0390 H   0  0  0  0  0  0  0  0  0  0  0  0
   -6.8937   19.9989  -30.4951 H   0  0  0  0  0  0  0  0  0  0  0  0
   -6.1854   17.6148  -30.6484 H   0  0  0  0  0  0  0  0  0  0  0  0
   -6.1839   15.5777  -32.0876 H   0  0  0  0  0  0  0  0  0  0  0  0
   -6.0385   15.7539  -33.8872 H   0  0  0  0  0  0  0  0  0  0  0  0
   -3.9349   15.7336  -31.7874 H   0  0  0  0  0  0  0  0  0  0  0  0
   -3.8653   15.3105  -33.5539 H   0  0  0  0  0  0  0  0  0  0  0  0
   -2.5000   17.1700  -33.0900 H   0  0  0  0  0  0  0  0  0  0  0  0
   -3.7710   18.0070  -32.3510 H   0  0  0  0  0  0  0  0  0  0  0  0
   -6.3268   17.8544  -34.9713 H   0  0  0  0  0  0  0  0  0  0  0  0
   -7.0415   20.2367  -34.8142 H   0  0  0  0  0  0  0  0  0  0  0  0
   -5.2025   23.7640  -29.8426 H   0  0  0  0  0  0  0  0  0  0  0  0
   -2.3651   20.8650  -28.4809 H   0  0  0  0  0  0  0  0  0  0  0  0
   -0.9348   21.4112  -26.5117 H   0  0  0  0  0  0  0  0  0  0  0  0
   -0.2936   23.7759  -26.0470 H   0  0  0  0  0  0  0  0  0  0  0  0
   -1.0784   25.6035  -27.5537 H   0  0  0  0  0  0  0  0  0  0  0  0
   -2.0577   19.7378  -29.8349 H   0  0  0  0  0  0  0  0  0  0  0  0
    0.1513   18.6246  -30.1174 H   0  0  0  0  0  0  0  0  0  0  0  0
    2.6154   18.9737  -29.8582 H   0  0  0  0  0  0  0  0  0  0  0  0
    4.8604   17.8310  -30.6278 H   0  0  0  0  0  0  0  0  0  0  0  0
    2.1498   19.0699  -34.2092 H   0  0  0  0  0  0  0  0  0  0  0  0
    1.0205   21.2153  -33.4825 H   0  0  0  0  0  0  0  0  0  0  0  0
   -1.1894   22.3237  -33.1946 H   0  0  0  0  0  0  0  0  0  0  0  0
  1  2  1  0
  2  3  2  0
  3  4  1  0
  4  5  2  0
  4  6  1  0
  6  7  1  0
  7  8  2  0
  8  9  1  0
  9 10  2  0
 10 11  1  0
 11 12  1  0
 12 13  1  0
 10 14  1  0
 14 15  2  0
  3 16  1  0
 16 17  2  0
 17 18  1  0
 18 19  2  0
 19 20  1  0
 20 21  2  0
 21 22  1  0
 22 23  2  0
 23 24  1  0
 17 25  1  0
 25 26  1  0
 26 27  2  0
 27 28  1  0
 28 29  2  0
 29 30  1  0
 30 31  1  0
 31 32  2  0
 32 33  1  0
 33 34  1  0
 29 35  1  0
 35 36  2  0
 25  2  1  0
 36 26  1  0
 15  7  1  0
 23 18  1  0
 34 30  2  0
  1 37  1  0
  1 38  1  0
  1 39  1  0
  8 40  1  0
  9 41  1  0
 11 42  1  0
 11 43  1  0
 12 44  1  0
 12 45  1  0
 13 46  1  0
 13 47  1  0
 14 48  1  0
 15 49  1  0
 16 50  1  0
 19 51  1  0
 20 52  1  0
 21 53  1  0
 22 54  1  0
 27 55  1  0
 28 56  1  0
 31 57  1  0
 32 58  1  0
 34 59  1  0
 35 60  1  0
 36 61  1  0
M  CHG  2   6  -1  24  -1
M  END
>  <UniqueID>  (25) 
24

>  <SMILES>  (25) 
Cc1c(C(=O)[N-]c2ccc(CCN)cc2)cc(-c2ccccc2[O-])n1-c1ccc(-c2ccsc2)cc1

>  <Energy>  (25) 
134.99532227801757

>  <Genealogy>  (25) 
Cc1c(C(=O)[N-]c2ccc(CCN)cc2)cc(-c2ccccc2[O-])n1-c1ccc(-c2ccsc2)cc1 (protonated)
Cc1c(C(=O)[N-]c2ccc(CCN)cc2)cc(-c2ccccc2[O-])n1-c1ccc(-c2ccsc2)cc1 (3D coordinates assigned)
Cc1c(C(=O)[N-]c2ccc(CCN)cc2)cc(-c2ccccc2[O-])n1-c1ccc(-c2ccsc2)cc1 (optimized conformer: 134.99532227801757 kcal/mol)

>  <smiles>  (25) 
Cc1c(C(=O)Nc2ccc(CCN)cc2)cc(-c2ccccc2O)n1-c1ccc(-c2ccsc2)cc1

>  <score_type>  (25) 
oracle

>  <origin>  (25) 
adgpu

>  <m_score__min__energy>  (25) 
-14.4

>  <m_primary>  (25) 
energy

$$$$
26:0
     RDKit          3D

 28 29  0  0  0  0  0  0  0  0999 V2000
   -5.9330   24.3290  -31.2390 C   0  0  0  0  0  0  0  0  0  0  0  0
   -5.2080   23.0910  -30.9400 N   0  0  0  0  0  0  0  0  0  0  0  0
   -5.3210   21.9360  -31.8060 C   0  0  0  0  0  0  0  0  0  0  0  0
   -4.2240   21.5260  -32.5890 C   0  0  0  0  0  0  0  0  0  0  0  0
   -4.3260   20.4120  -33.4270 C   0  0  0  0  0  0  0  0  0  0  0  0
   -5.5210   19.6910  -33.4950 C   0  0  0  0  0  0  0  0  0  0  0  0
   -5.6560   18.1700  -34.6410 Br  0  0  0  0  0  0  0  0  0  0  0  0
   -6.6160   20.0860  -32.7220 C   0  0  0  0  0  0  0  0  0  0  0  0
   -6.5200   21.2000  -31.8830 C   0  0  0  0  0  0  0  0  0  0  0  0
   -4.2280   23.1060  -29.8860 C   0  0  0  0  0  0  0  0  0  0  0  0
   -4.1430   22.0200  -29.0030 C   0  0  0  0  0  0  0  0  0  0  0  0
   -3.1990   22.0210  -27.9750 C   0  0  0  0  0  0  0  0  0  0  0  0
   -2.3360   23.1070  -27.8190 C   0  0  0  0  0  0  0  0  0  0  0  0
   -2.4140   24.2030  -28.6860 C   0  0  0  0  0  0  0  0  0  0  0  0
   -1.2060   25.6640  -28.4070 Br  0  0  0  0  0  0  0  0  0  0  0  0
   -3.3690   24.2090  -29.7240 C   0  0  0  0  0  0  0  0  0  0  0  0
   -3.4920   25.2980  -30.5900 O   0  0  0  0  0  0  0  0  0  0  0  0
   -6.2213   24.8213  -30.2985 H   0  0  0  0  0  0  0  0  0  0  0  0
   -5.2859   25.0013  -31.8214 H   0  0  0  0  0  0  0  0  0  0  0  0
   -6.8360   24.0936  -31.8214 H   0  0  0  0  0  0  0  0  0  0  0  0
   -3.2792   22.0873  -32.5405 H   0  0  0  0  0  0  0  0  0  0  0  0
   -3.4631   20.1020  -34.0347 H   0  0  0  0  0  0  0  0  0  0  0  0
   -7.5568   19.5184  -32.7739 H   0  0  0  0  0  0  0  0  0  0  0  0
   -7.3871   21.5043  -31.2783 H   0  0  0  0  0  0  0  0  0  0  0  0
   -4.8232   21.1636  -29.1210 H   0  0  0  0  0  0  0  0  0  0  0  0
   -3.1350   21.1651  -27.2870 H   0  0  0  0  0  0  0  0  0  0  0  0
   -1.5905   23.1014  -27.0102 H   0  0  0  0  0  0  0  0  0  0  0  0
   -3.3600   25.2230  -31.5900 H   0  0  0  0  0  0  0  0  0  0  0  0
  1  2  1  0
  2  3  1  0
  3  4  2  0
  4  5  1  0
  5  6  2  0
  6  7  1  0
  6  8  1  0
  8  9  2  0
  2 10  1  0
 10 11  2  0
 11 12  1  0
 12 13  2  0
 13 14  1  0
 14 15  1  0
 14 16  2  0
 16 17  1  0
  9  3  1  0
 16 10  1  0
  1 18  1  0
  1 19  1  0
  1 20  1  0
  4 21  1  0
  5 22  1  0
  8 23  1  0
  9 24  1  0
 11 25  1  0
 12 26  1  0
 13 27  1  0
 17 28  1  0
M  END
>  <UniqueID>  (26) 
25

>  <SMILES>  (26) 
CN(c1ccc(Br)cc1)c1cccc(Br)c1O

>  <Energy>  (26) 
38.58813549520275

>  <Genealogy>  (26) 
CN(c1ccc(Br)cc1)c1cccc(Br)c1O (3D coordinates assigned)
CN(c1ccc(Br)cc1)c1cccc(Br)c1O (optimized conformer: 38.58813549520275 kcal/mol)

>  <smiles>  (26) 
CN(c1ccc(Br)cc1)c1cccc(Br)c1O

>  <score_type>  (26) 
oracle

>  <origin>  (26) 
adgpu

>  <m_score__min__energy>  (26) 
-7.8300000000000001

>  <m_primary>  (26) 
energy

$$$$
27:0
     RDKit          3D

 54 56  0  0  0  0  0  0  0  0999 V2000
   -2.4760   19.4750  -26.8310 C   0  0  0  0  0  0  0  0  0  0  0  0
   -1.3370   20.2010  -26.3010 N   0  0  0  0  0  0  0  0  0  0  0  0
   -0.6370   21.1970  -27.0620 C   0  0  0  0  0  0  0  0  0  0  0  0
    0.3280   20.8510  -27.7960 O   0  0  0  0  0  0  0  0  0  0  0  0
   -1.0700   22.6130  -27.0270 C   0  0  0  0  0  0  0  0  0  0  0  0
   -0.9620   23.3550  -25.8320 C   0  0  0  0  0  0  0  0  0  0  0  0
   -1.2890   24.7140  -25.8100 C   0  0  0  0  0  0  0  0  0  0  0  0
   -1.7320   25.3460  -26.9750 C   0  0  0  0  0  0  0  0  0  0  0  0
   -1.8700   24.6180  -28.1690 C   0  0  0  0  0  0  0  0  0  0  0  0
   -2.3730   25.2470  -29.3580 N   0  0  0  0  0  0  0  0  0  0  0  0
   -3.4780   24.7240  -30.0930 C   0  0  0  0  0  0  0  0  0  0  0  0
   -4.3270   25.5120  -30.5790 O   0  0  0  0  0  0  0  0  0  0  0  0
   -3.6830   23.3070  -30.1630 N   0  0  0  0  0  0  0  0  0  0  0  0
   -3.0830   22.4600  -31.1480 C   0  0  0  0  0  0  0  0  0  0  0  0
   -1.6920   22.3010  -31.1900 C   0  0  0  0  0  0  0  0  0  0  0  0
   -1.1070   21.4500  -32.1330 C   0  0  0  0  0  0  0  0  0  0  0  0
   -1.9050   20.7580  -33.0580 C   0  0  0  0  0  0  0  0  0  0  0  0
   -1.2900   19.8840  -34.0820 C   0  0  0  0  0  0  0  0  0  0  0  0
   -1.3600   18.6200  -33.9640 O   0  0  0  0  0  0  0  0  0  0  0  0
   -0.6110   20.4530  -35.1970 N   0  0  0  0  0  0  0  0  0  0  0  0
    0.8310   20.6680  -35.2230 C   0  0  0  0  0  0  0  0  0  0  0  0
    1.1350   22.1530  -35.3760 C   0  0  0  0  0  0  0  0  0  0  0  0
   -0.0980   22.9000  -35.5990 N   0  0  0  0  0  0  0  0  0  0  0  0
   -3.3000   20.9190  -33.0100 C   0  0  0  0  0  0  0  0  0  0  0  0
   -3.8910   21.7570  -32.0540 C   0  0  0  0  0  0  0  0  0  0  0  0
   -5.6800   21.9660  -32.0480 S   0  0  0  0  0  0  0  0  0  0  0  0
   -5.9810   20.2710  -32.5500 C   0  0  0  0  0  0  0  0  0  0  0  0
   -5.9760   19.9230  -33.9070 C   0  0  0  0  0  0  0  0  0  0  0  0
   -6.1550   18.5910  -34.2940 C   0  0  0  0  0  0  0  0  0  0  0  0
   -6.3600   17.6070  -33.3220 C   0  0  0  0  0  0  0  0  0  0  0  0
   -6.3770   17.9550  -31.9650 C   0  0  0  0  0  0  0  0  0  0  0  0
   -6.1960   19.2830  -31.5820 C   0  0  0  0  0  0  0  0  0  0  0  0
   -1.5500   23.2530  -28.1890 C   0  0  0  0  0  0  0  0  0  0  0  0
   -3.0833   19.0879  -25.9995 H   0  0  0  0  0  0  0  0  0  0  0  0
   -3.0869   20.1507  -27.4476 H   0  0  0  0  0  0  0  0  0  0  0  0
   -2.1214   18.6360  -27.4476 H   0  0  0  0  0  0  0  0  0  0  0  0
   -0.6182   22.8609  -24.9113 H   0  0  0  0  0  0  0  0  0  0  0  0
   -1.1975   25.2863  -24.8750 H   0  0  0  0  0  0  0  0  0  0  0  0
   -1.9739   26.4189  -26.9573 H   0  0  0  0  0  0  0  0  0  0  0  0
   -1.0568   22.8481  -30.4779 H   0  0  0  0  0  0  0  0  0  0  0  0
   -0.0146   21.3219  -32.1502 H   0  0  0  0  0  0  0  0  0  0  0  0
    1.2707   20.3013  -34.2838 H   0  0  0  0  0  0  0  0  0  0  0  0
    1.2616   20.1221  -36.0754 H   0  0  0  0  0  0  0  0  0  0  0  0
    1.6217   22.5203  -34.4605 H   0  0  0  0  0  0  0  0  0  0  0  0
    1.8017   22.2955  -36.2392 H   0  0  0  0  0  0  0  0  0  0  0  0
   -0.4890   22.6210  -36.5270 H   0  0  0  0  0  0  0  0  0  0  0  0
   -0.7920   22.5980  -34.8750 H   0  0  0  0  0  0  0  0  0  0  0  0
   -3.9350   20.3820  -33.7300 H   0  0  0  0  0  0  0  0  0  0  0  0
   -5.8307   20.7006  -34.6713 H   0  0  0  0  0  0  0  0  0  0  0  0
   -6.1346   18.3184  -35.3595 H   0  0  0  0  0  0  0  0  0  0  0  0
   -6.5080   16.5593  -33.6229 H   0  0  0  0  0  0  0  0  0  0  0  0
   -6.5334   17.1793  -31.2009 H   0  0  0  0  0  0  0  0  0  0  0  0
   -6.2222   19.5552  -30.5165 H   0  0  0  0  0  0  0  0  0  0  0  0
   -1.6742   22.6768  -29.1178 H   0  0  0  0  0  0  0  0  0  0  0  0
  1  2  1  0
  2  3  1  0
  3  4  2  0
  3  5  1  0
  5  6  2  0
  6  7  1  0
  7  8  2  0
  8  9  1  0
  9 10  1  0
 10 11  1  0
 11 12  2  0
 11 13  1  0
 13 14  1  0
 14 15  2  0
 15 16  1  0
 16 17  2  0
 17 18  1  0
 18 19  2  0
 18 20  1  0
 20 21  1  0
 21 22  1  0
 22 23  1  0
 17 24  1  0
 24 25  2  0
 25 26  1  0
 26 27  1  0
 27 28  2  0
 28 29  1  0
 29 30  2  0
 30 31  1  0
 31 32  2  0
  9 33  2  0
 33  5  1  0
 25 14  1  0
 32 27  1  0
  1 34  1  0
  1 35  1  0
  1 36  1  0
  6 37  1  0
  7 38  1  0
  8 39  1  0
 15 40  1  0
 16 41  1  0
 21 42  1  0
 21 43  1  0
 22 44  1  0
 22 45  1  0
 23 46  1  0
 23 47  1  0
 24 48  1  0
 28 49  1  0
 29 50  1  0
 30 51  1  0
 31 52  1  0
 32 53  1  0
 33 54  1  0
M  CHG  4   2  -1  10  -1  13  -1  20  -1
M  END
>  <UniqueID>  (27) 
26

>  <SMILES>  (27) 
C[N-]C(=O)c1cccc([N-]C(=O)[N-]c2ccc(C(=O)[N-]CCN)cc2Sc2ccccc2)c1

>  <Energy>  (27) 
55.900708049334156

>  <Genealogy>  (27) 
C[N-]C(=O)c1cccc([N-]C(=O)[N-]c2ccc(C(=O)[N-]CCN)cc2Sc2ccccc2)c1 (protonated)
C[N-]C(=O)c1cccc([N-]C(=O)[N-]c2ccc(C(=O)[N-]CCN)cc2Sc2ccccc2)c1 (3D coordinates assigned)
C[N-]C(=O)c1cccc([N-]C(=O)[N-]c2ccc(C(=O)[N-]CCN)cc2Sc2ccccc2)c1 (optimized conformer: 55.900708049334156 kcal/mol)

>  <smiles>  (27) 
CNC(=O)c1cccc(NC(=O)Nc2ccc(C(=O)NCCN)cc2Sc2ccccc2)c1

>  <score_type>  (27) 
oracle

>  <origin>  (27) 
adgpu

>  <m_score__min__energy>  (27) 
-11.52

>  <m_primary>  (27) 
energy

$$$$
28:0
     RDKit          3D

 34 36  0  0  0  0  0  0  0  0999 V2000
   -9.8330   21.5600  -31.4370 C   0  0  0  0  0  0  0  0  0  0  0  0
   -8.6590   20.7390  -31.8840 C   0  0  0  0  0  0  0  0  0  0  0  0
   -8.8340   19.4020  -32.2560 C   0  0  0  0  0  0  0  0  0  0  0  0
   -7.7490   18.6480  -32.7040 C   0  0  0  0  0  0  0  0  0  0  0  0
   -6.4670   19.2180  -32.7950 C   0  0  0  0  0  0  0  0  0  0  0  0
   -5.3320   18.3690  -33.3030 C   0  0  0  0  0  0  0  0  0  0  0  0
   -6.2910   20.5830  -32.4570 C   0  0  0  0  0  0  0  0  0  0  0  0
   -4.7140   21.3800  -32.5860 S   0  0  0  0  0  0  0  0  0  0  0  0
   -4.0050   20.9230  -33.8300 O   0  0  0  0  0  0  0  0  0  0  0  0
   -4.9190   22.8680  -32.6480 O   0  0  0  0  0  0  0  0  0  0  0  0
   -3.7480   20.9660  -31.2070 N   0  0  0  0  0  0  0  0  0  0  0  0
   -2.8010   21.8330  -30.5700 C   0  0  0  0  0  0  0  0  0  0  0  0
   -1.4990   21.3920  -30.2080 C   0  0  0  0  0  0  0  0  0  0  0  0
   -0.5920   22.2700  -29.5860 C   0  0  0  0  0  0  0  0  0  0  0  0
   -1.0170   23.5720  -29.3400 C   0  0  0  0  0  0  0  0  0  0  0  0
   -0.3240   24.5650  -28.7630 N   0  0  0  0  0  0  0  0  0  0  0  0
   -1.2210   25.5850  -28.7860 C   0  0  0  0  0  0  0  0  0  0  0  0
   -0.9540   26.7260  -28.3260 O   0  0  0  0  0  0  0  0  0  0  0  0
   -2.4230   25.2880  -29.3400 N   0  0  0  0  0  0  0  0  0  0  0  0
   -2.2620   24.0000  -29.6830 C   0  0  0  0  0  0  0  0  0  0  0  0
   -3.1870   23.1620  -30.3000 C   0  0  0  0  0  0  0  0  0  0  0  0
   -7.3920   21.3280  -32.0030 C   0  0  0  0  0  0  0  0  0  0  0  0
   -9.8667   21.5836  -30.3378 H   0  0  0  0  0  0  0  0  0  0  0  0
   -9.7317   22.5851  -31.8228 H   0  0  0  0  0  0  0  0  0  0  0  0
  -10.7611   21.1131  -31.8228 H   0  0  0  0  0  0  0  0  0  0  0  0
   -9.8318   18.9429  -32.1950 H   0  0  0  0  0  0  0  0  0  0  0  0
   -7.8982   17.5961  -32.9891 H   0  0  0  0  0  0  0  0  0  0  0  0
   -4.7754   17.9527  -32.4504 H   0  0  0  0  0  0  0  0  0  0  0  0
   -5.7337   17.5478  -33.9149 H   0  0  0  0  0  0  0  0  0  0  0  0
   -4.6577   18.9862  -33.9149 H   0  0  0  0  0  0  0  0  0  0  0  0
   -1.1976   20.3547  -30.4160 H   0  0  0  0  0  0  0  0  0  0  0  0
    0.4182   21.9385  -29.3040 H   0  0  0  0  0  0  0  0  0  0  0  0
   -4.1896   23.5261  -30.5689 H   0  0  0  0  0  0  0  0  0  0  0  0
   -7.2585   22.3871  -31.7374 H   0  0  0  0  0  0  0  0  0  0  0  0
  1  2  1  0
  2  3  2  0
  3  4  1  0
  4  5  2  0
  5  6  1  0
  5  7  1  0
  7  8  1  0
  8  9  2  0
  8 10  2  0
  8 11  1  0
 11 12  1  0
 12 13  2  0
 13 14  1  0
 14 15  2  0
 15 16  1  0
 16 17  1  0
 17 18  2  0
 17 19  1  0
 19 20  1  0
 20 21  2  0
  7 22  2  0
 22  2  1  0
 21 12  1  0
 20 15  1  0
  1 23  1  0
  1 24  1  0
  1 25  1  0
  3 26  1  0
  4 27  1  0
  6 28  1  0
  6 29  1  0
  6 30  1  0
 13 31  1  0
 14 32  1  0
 21 33  1  0
 22 34  1  0
M  CHG  3  11  -1  16  -1  19  -1
M  END
>  <UniqueID>  (28) 
27

>  <SMILES>  (28) 
Cc1ccc(C)c(S(=O)(=O)[N-]c2ccc3[n-]c(=O)[n-]c3c2)c1

>  <Energy>  (28) 
76.38368766028523

>  <Genealogy>  (28) 
Cc1ccc(C)c(S(=O)(=O)[N-]c2ccc3[n-]c(=O)[n-]c3c2)c1 (protonated)
Cc1ccc(C)c(S(=O)(=O)[N-]c2ccc3[n-]c(=O)[n-]c3c2)c1 (3D coordinates assigned)
Cc1ccc(C)c(S(=O)(=O)[N-]c2ccc3[n-]c(=O)[n-]c3c2)c1 (optimized conformer: 76.38368766028523 kcal/mol)

>  <smiles>  (28) 
Cc1ccc(C)c(S(=O)(=O)Nc2ccc3[nH]c(=O)[nH]c3c2)c1

>  <score_type>  (28) 
oracle

>  <origin>  (28) 
adgpu

>  <m_score__min__energy>  (28) 
-11.17

>  <m_primary>  (28) 
energy

$$$$
29:0
     RDKit          3D

 43 45  0  0  0  0  0  0  0  0999 V2000
   -0.1220   24.1740  -25.0940 C   0  0  0  0  0  0  0  0  0  0  0  0
   -0.4710   22.6900  -25.0470 C   0  0  0  0  0  0  0  0  0  0  0  0
   -0.8150   22.2090  -26.3470 O   0  0  0  0  0  0  0  0  0  0  0  0
   -1.4910   22.9440  -27.3340 C   0  0  0  0  0  0  0  0  0  0  0  0
   -2.7730   23.4910  -27.1330 C   0  0  0  0  0  0  0  0  0  0  0  0
   -3.4130   24.1840  -28.1650 C   0  0  0  0  0  0  0  0  0  0  0  0
   -2.7980   24.3170  -29.4140 C   0  0  0  0  0  0  0  0  0  0  0  0
   -3.4900   25.0070  -30.4620 N   0  0  0  0  0  0  0  0  0  0  0  0
   -4.9140   25.1230  -30.5950 C   0  0  0  0  0  0  0  0  0  0  0  0
   -5.4340   26.2690  -30.5590 O   0  0  0  0  0  0  0  0  0  0  0  0
   -5.8120   23.9180  -30.6540 C   0  0  0  0  0  0  0  0  0  0  0  0
   -6.6450   23.8010  -32.2740 S   0  0  0  0  0  0  0  0  0  0  0  0
   -7.2390   22.1150  -32.0450 C   0  0  0  0  0  0  0  0  0  0  0  0
   -8.5790   21.9120  -31.9600 N   0  0  0  0  0  0  0  0  0  0  0  0
   -9.0880   20.6960  -31.7580 N   0  0  0  0  0  0  0  0  0  0  0  0
   -8.2750   19.6190  -31.6240 C   0  0  0  0  0  0  0  0  0  0  0  0
   -6.9310   19.7810  -31.6970 N   0  0  0  0  0  0  0  0  0  0  0  0
   -6.3810   21.0040  -31.9190 C   0  0  0  0  0  0  0  0  0  0  0  0
   -4.9080   21.1150  -31.9610 C   0  0  0  0  0  0  0  0  0  0  0  0
   -4.1320   20.9560  -30.8000 C   0  0  0  0  0  0  0  0  0  0  0  0
   -2.7390   21.0740  -30.8610 C   0  0  0  0  0  0  0  0  0  0  0  0
   -2.1130   21.3660  -32.0770 C   0  0  0  0  0  0  0  0  0  0  0  0
   -0.7640   21.4810  -32.1340 F   0  0  0  0  0  0  0  0  0  0  0  0
   -2.8800   21.5490  -33.2300 C   0  0  0  0  0  0  0  0  0  0  0  0
   -4.2720   21.4340  -33.1720 C   0  0  0  0  0  0  0  0  0  0  0  0
   -1.4970   23.8230  -29.5980 C   0  0  0  0  0  0  0  0  0  0  0  0
   -0.8530   23.1380  -28.5650 C   0  0  0  0  0  0  0  0  0  0  0  0
   -0.0308   24.5619  -24.0687 H   0  0  0  0  0  0  0  0  0  0  0  0
    0.8325   24.3096  -25.6236 H   0  0  0  0  0  0  0  0  0  0  0  0
   -0.9160   24.7208  -25.6236 H   0  0  0  0  0  0  0  0  0  0  0  0
    0.3965   22.1271  -24.6720 H   0  0  0  0  0  0  0  0  0  0  0  0
   -1.3345   22.5516  -24.3797 H   0  0  0  0  0  0  0  0  0  0  0  0
   -3.2728   23.3726  -26.1603 H   0  0  0  0  0  0  0  0  0  0  0  0
   -4.4052   24.6268  -27.9937 H   0  0  0  0  0  0  0  0  0  0  0  0
   -5.2092   23.0120  -30.4933 H   0  0  0  0  0  0  0  0  0  0  0  0
   -6.5793   24.0144  -29.8717 H   0  0  0  0  0  0  0  0  0  0  0  0
   -8.7035   18.6197  -31.4570 H   0  0  0  0  0  0  0  0  0  0  0  0
   -4.6217   20.7379  -29.8395 H   0  0  0  0  0  0  0  0  0  0  0  0
   -2.1357   20.9369  -29.9515 H   0  0  0  0  0  0  0  0  0  0  0  0
   -2.3878   21.7840  -34.1853 H   0  0  0  0  0  0  0  0  0  0  0  0
   -4.8724   21.5942  -34.0796 H   0  0  0  0  0  0  0  0  0  0  0  0
   -0.9832   23.9758  -30.5585 H   0  0  0  0  0  0  0  0  0  0  0  0
    0.1637   22.7478  -28.7200 H   0  0  0  0  0  0  0  0  0  0  0  0
  1  2  1  0
  2  3  1  0
  3  4  1  0
  4  5  2  0
  5  6  1  0
  6  7  2  0
  7  8  1  0
  8  9  1  0
  9 10  2  0
  9 11  1  0
 11 12  1  0
 12 13  1  0
 13 14  2  0
 14 15  1  0
 15 16  2  0
 16 17  1  0
 17 18  2  0
 18 19  1  0
 19 20  2  0
 20 21  1  0
 21 22  2  0
 22 23  1  0
 22 24  1  0
 24 25  2  0
  7 26  1  0
 26 27  2  0
 27  4  1  0
 18 13  1  0
 25 19  1  0
  1 28  1  0
  1 29  1  0
  1 30  1  0
  2 31  1  0
  2 32  1  0
  5 33  1  0
  6 34  1  0
 11 35  1  0
 11 36  1  0
 16 37  1  0
 20 38  1  0
 21 39  1  0
 24 40  1  0
 25 41  1  0
 26 42  1  0
 27 43  1  0
M  CHG  1   8  -1
M  END
>  <UniqueID>  (29) 
28

>  <SMILES>  (29) 
CCOc1ccc([N-]C(=O)CSc2nncnc2-c2ccc(F)cc2)cc1

>  <Energy>  (29) 
48.329277207582145

>  <Genealogy>  (29) 
CCOc1ccc([N-]C(=O)CSc2nncnc2-c2ccc(F)cc2)cc1 (protonated)
CCOc1ccc([N-]C(=O)CSc2nncnc2-c2ccc(F)cc2)cc1 (3D coordinates assigned)
CCOc1ccc([N-]C(=O)CSc2nncnc2-c2ccc(F)cc2)cc1 (optimized conformer: 48.329277207582145 kcal/mol)

>  <smiles>  (29) 
CCOc1ccc(NC(=O)CSc2nncnc2-c2ccc(F)cc2)cc1

>  <score_type>  (29) 
oracle

>  <origin>  (29) 
adgpu

>  <m_score__min__energy>  (29) 
-9.9700000000000006

>  <m_primary>  (29) 
energy

$$$$
30:0
     RDKit          3D

 34 36  0  0  0  0  0  0  0  0999 V2000
   -1.6960   23.1120  -29.7830 O   0  0  0  0  0  0  0  0  0  0  0  0
   -2.1910   24.2420  -29.5290 C   0  0  0  0  0  0  0  0  0  0  0  0
   -3.4170   24.6160  -30.1700 N   0  0  0  0  0  0  0  0  0  0  0  0
   -4.5120   23.7410  -30.4760 C   0  0  0  0  0  0  0  0  0  0  0  0
   -5.8370   24.0720  -30.1600 C   0  0  0  0  0  0  0  0  0  0  0  0
   -6.8690   23.1790  -30.4510 C   0  0  0  0  0  0  0  0  0  0  0  0
   -6.5670   21.9380  -31.0350 C   0  0  0  0  0  0  0  0  0  0  0  0
   -7.6070   20.9990  -31.3690 N   0  0  0  0  0  0  0  0  0  0  0  0
   -7.2380   19.6260  -31.7350 C   0  0  0  0  0  0  0  0  0  0  0  0
   -8.4620   18.8480  -32.2370 C   0  0  0  0  0  0  0  0  0  0  0  0
   -9.2950   19.7010  -33.0930 N   0  0  0  0  0  0  0  0  0  0  0  0
   -9.8710   20.8490  -32.3640 C   0  0  0  0  0  0  0  0  0  0  0  0
   -9.0260   21.3150  -31.1610 C   0  0  0  0  0  0  0  0  0  0  0  0
   -5.2700   21.6370  -31.3220 N   0  0  0  0  0  0  0  0  0  0  0  0
   -4.2500   22.4930  -31.0490 C   0  0  0  0  0  0  0  0  0  0  0  0
   -1.4630   25.1770  -28.6480 C   0  0  0  0  0  0  0  0  0  0  0  0
   -1.2220   26.4670  -28.9570 N   0  0  0  0  0  0  0  0  0  0  0  0
   -0.5290   27.0140  -27.9700 N   0  0  0  0  0  0  0  0  0  0  0  0
   -0.3150   26.0790  -27.0250 C   0  0  0  0  0  0  0  0  0  0  0  0
   -0.8900   24.8940  -27.4230 C   0  0  0  0  0  0  0  0  0  0  0  0
   -0.8960   23.2540  -26.4400 Br  0  0  0  0  0  0  0  0  0  0  0  0
   -6.0634   25.0366  -29.6822 H   0  0  0  0  0  0  0  0  0  0  0  0
   -7.9120   23.4453  -30.2245 H   0  0  0  0  0  0  0  0  0  0  0  0
   -6.4789   19.6565  -32.5305 H   0  0  0  0  0  0  0  0  0  0  0  0
   -6.8390   19.1188  -30.8442 H   0  0  0  0  0  0  0  0  0  0  0  0
   -8.1245   17.9746  -32.8144 H   0  0  0  0  0  0  0  0  0  0  0  0
   -9.0571   18.5219  -31.3712 H   0  0  0  0  0  0  0  0  0  0  0  0
   -8.7020   20.0620  -33.8780 H   0  0  0  0  0  0  0  0  0  0  0  0
   -9.9682   21.6908  -33.0654 H   0  0  0  0  0  0  0  0  0  0  0  0
  -10.8404   20.5180  -31.9632 H   0  0  0  0  0  0  0  0  0  0  0  0
   -9.1396   22.4024  -31.0396 H   0  0  0  0  0  0  0  0  0  0  0  0
   -9.3761   20.7913  -30.2592 H   0  0  0  0  0  0  0  0  0  0  0  0
   -3.2144   22.2026  -31.2798 H   0  0  0  0  0  0  0  0  0  0  0  0
    0.2326   26.2374  -26.0842 H   0  0  0  0  0  0  0  0  0  0  0  0
  1  2  2  0
  2  3  1  0
  3  4  1  0
  4  5  2  0
  5  6  1  0
  6  7  2  0
  7  8  1  0
  8  9  1  0
  9 10  1  0
 10 11  1  0
 11 12  1  0
 12 13  1  0
  7 14  1  0
 14 15  2  0
  2 16  1  0
 16 17  1  0
 17 18  1  0
 18 19  2  0
 19 20  1  0
 20 21  1  0
 15  4  1  0
 20 16  2  0
 13  8  1  0
  5 22  1  0
  6 23  1  0
  9 24  1  0
  9 25  1  0
 10 26  1  0
 10 27  1  0
 11 28  1  0
 12 29  1  0
 12 30  1  0
 13 31  1  0
 13 32  1  0
 15 33  1  0
 19 34  1  0
M  CHG  2   3  -1  17  -1
M  END
>  <UniqueID>  (30) 
29

>  <SMILES>  (30) 
O=C([N-]c1ccc(N2CCNCC2)nc1)c1[n-]ncc1Br

>  <Energy>  (30) 
78.94854033530925

>  <Genealogy>  (30) 
O=C([N-]c1ccc(N2CCNCC2)nc1)c1[n-]ncc1Br (protonated)
O=C([N-]c1ccc(N2CCNCC2)nc1)c1[n-]ncc1Br (3D coordinates assigned)
O=C([N-]c1ccc(N2CCNCC2)nc1)c1[n-]ncc1Br (nonaromatic ring conformer: 78.94854033530925 kcal/mol)

>  <smiles>  (30) 
O=C(Nc1ccc(N2CCNCC2)nc1)c1[nH]ncc1Br

>  <score_type>  (30) 
oracle

>  <origin>  (30) 
adgpu

>  <m_score__min__energy>  (30) 
-10.16

>  <m_primary>  (30) 
energy

$$$$
31:0
     RDKit          3D

 63 67  0  0  0  0  0  0  0  0999 V2000
   -9.1790   21.7710  -31.2050 C   0  0  0  0  0  0  0  0  0  0  0  0
   -8.5500   22.8980  -31.8080 O   0  0  0  0  0  0  0  0  0  0  0  0
   -7.3110   23.4200  -31.4060 C   0  0  0  0  0  0  0  0  0  0  0  0
   -7.1990   24.4440  -30.4460 C   0  0  0  0  0  0  0  0  0  0  0  0
   -5.9420   24.9480  -30.0980 C   0  0  0  0  0  0  0  0  0  0  0  0
   -4.7820   24.4440  -30.7110 C   0  0  0  0  0  0  0  0  0  0  0  0
   -3.4910   25.0020  -30.4350 N   0  0  0  0  0  0  0  0  0  0  0  0
   -2.8100   24.8680  -29.1830 C   0  0  0  0  0  0  0  0  0  0  0  0
   -1.6590   25.3620  -29.0320 O   0  0  0  0  0  0  0  0  0  0  0  0
   -3.4720   24.1620  -28.0410 C   0  0  0  0  0  0  0  0  0  0  0  0
   -2.7500   22.9290  -27.7420 N   0  0  0  0  0  0  0  0  0  0  0  0
   -2.8000   21.7880  -28.4490 C   0  0  0  0  0  0  0  0  0  0  0  0
   -1.8060   20.9830  -27.9410 C   0  0  0  0  0  0  0  0  0  0  0  0
   -1.3230   19.7020  -28.5310 C   0  0  0  0  0  0  0  0  0  0  0  0
    0.2680   20.0040  -29.3760 S   0  0  0  0  0  0  0  0  0  0  0  0
   -0.4410   20.2200  -31.0050 C   0  0  0  0  0  0  0  0  0  0  0  0
    0.3410   20.6220  -32.0410 N   0  0  0  0  0  0  0  0  0  0  0  0
   -0.1750   20.7910  -33.2880 C   0  0  0  0  0  0  0  0  0  0  0  0
    0.7080   21.2370  -34.3930 C   0  0  0  0  0  0  0  0  0  0  0  0
    2.0150   20.7300  -34.5200 C   0  0  0  0  0  0  0  0  0  0  0  0
    2.8490   21.1790  -35.5480 C   0  0  0  0  0  0  0  0  0  0  0  0
    2.3940   22.1420  -36.4510 C   0  0  0  0  0  0  0  0  0  0  0  0
    1.0950   22.6450  -36.3410 C   0  0  0  0  0  0  0  0  0  0  0  0
    0.2550   22.1950  -35.3180 C   0  0  0  0  0  0  0  0  0  0  0  0
   -1.5420   20.5540  -33.5010 C   0  0  0  0  0  0  0  0  0  0  0  0
   -2.3390   20.1380  -32.4230 C   0  0  0  0  0  0  0  0  0  0  0  0
   -3.7980   19.8860  -32.5780 C   0  0  0  0  0  0  0  0  0  0  0  0
   -4.6500   19.9980  -31.4630 C   0  0  0  0  0  0  0  0  0  0  0  0
   -6.0250   19.7840  -31.5920 C   0  0  0  0  0  0  0  0  0  0  0  0
   -6.5720   19.4310  -32.8350 C   0  0  0  0  0  0  0  0  0  0  0  0
   -8.0520   19.2280  -32.9840 C   0  0  0  0  0  0  0  0  0  0  0  0
   -5.7310   19.3220  -33.9510 C   0  0  0  0  0  0  0  0  0  0  0  0
   -4.3560   19.5300  -33.8230 C   0  0  0  0  0  0  0  0  0  0  0  0
   -1.7640   19.9910  -31.1990 N   0  0  0  0  0  0  0  0  0  0  0  0
   -1.1680   21.6580  -26.9620 N   0  0  0  0  0  0  0  0  0  0  0  0
   -1.7630   22.8370  -26.8620 N   0  0  0  0  0  0  0  0  0  0  0  0
   -4.8960   23.4210  -31.6610 C   0  0  0  0  0  0  0  0  0  0  0  0
   -6.1490   22.9020  -31.9930 C   0  0  0  0  0  0  0  0  0  0  0  0
   -9.1270   21.8643  -30.1102 H   0  0  0  0  0  0  0  0  0  0  0  0
  -10.2321   21.7270  -31.5196 H   0  0  0  0  0  0  0  0  0  0  0  0
   -8.6636   20.8515  -31.5196 H   0  0  0  0  0  0  0  0  0  0  0  0
   -8.1034   24.8488  -29.9682 H   0  0  0  0  0  0  0  0  0  0  0  0
   -5.8607   25.7422  -29.3413 H   0  0  0  0  0  0  0  0  0  0  0  0
   -3.4659   24.8137  -27.1549 H   0  0  0  0  0  0  0  0  0  0  0  0
   -4.5099   23.9203  -28.3136 H   0  0  0  0  0  0  0  0  0  0  0  0
   -3.4941   21.5462  -29.2674 H   0  0  0  0  0  0  0  0  0  0  0  0
   -1.1822   18.9578  -27.7333 H   0  0  0  0  0  0  0  0  0  0  0  0
   -2.0618   19.3211  -29.2515 H   0  0  0  0  0  0  0  0  0  0  0  0
    2.3818   19.9770  -33.8070 H   0  0  0  0  0  0  0  0  0  0  0  0
    3.8665   20.7726  -35.6459 H   0  0  0  0  0  0  0  0  0  0  0  0
    3.0583   22.5047  -37.2492 H   0  0  0  0  0  0  0  0  0  0  0  0
    0.7332   23.3952  -37.0595 H   0  0  0  0  0  0  0  0  0  0  0  0
   -0.7672   22.5929  -35.2359 H   0  0  0  0  0  0  0  0  0  0  0  0
   -1.9828   20.6924  -34.4993 H   0  0  0  0  0  0  0  0  0  0  0  0
   -4.2292   20.2566  -30.4801 H   0  0  0  0  0  0  0  0  0  0  0  0
   -6.6810   19.8927  -30.7157 H   0  0  0  0  0  0  0  0  0  0  0  0
   -8.5154   19.1644  -31.9884 H   0  0  0  0  0  0  0  0  0  0  0  0
   -8.4845   20.0752  -33.5364 H   0  0  0  0  0  0  0  0  0  0  0  0
   -8.2404   18.2956  -33.5364 H   0  0  0  0  0  0  0  0  0  0  0  0
   -6.1567   19.0711  -34.9338 H   0  0  0  0  0  0  0  0  0  0  0  0
   -3.7029   19.4152  -34.7007 H   0  0  0  0  0  0  0  0  0  0  0  0
   -3.9932   23.0242  -32.1483 H   0  0  0  0  0  0  0  0  0  0  0  0
   -6.2244   22.0805  -32.7207 H   0  0  0  0  0  0  0  0  0  0  0  0
  1  2  1  0
  2  3  1  0
  3  4  2  0
  4  5  1  0
  5  6  2  0
  6  7  1  0
  7  8  1  0
  8  9  2  0
  8 10  1  0
 10 11  1  0
 11 12  1  0
 12 13  2  0
 13 14  1  0
 14 15  1  0
 15 16  1  0
 16 17  2  0
 17 18  1  0
 18 19  1  0
 19 20  2  0
 20 21  1  0
 21 22  2  0
 22 23  1  0
 23 24  2  0
 18 25  2  0
 25 26  1  0
 26 27  1  0
 27 28  2  0
 28 29  1  0
 29 30  2  0
 30 31  1  0
 30 32  1  0
 32 33  2  0
 26 34  2  0
 13 35  1  0
 35 36  2  0
  6 37  1  0
 37 38  2  0
 38  3  1  0
 36 11  1  0
 34 16  1  0
 24 19  1  0
 33 27  1  0
  1 39  1  0
  1 40  1  0
  1 41  1  0
  4 42  1  0
  5 43  1  0
 10 44  1  0
 10 45  1  0
 12 46  1  0
 14 47  1  0
 14 48  1  0
 20 49  1  0
 21 50  1  0
 22 51  1  0
 23 52  1  0
 24 53  1  0
 25 54  1  0
 28 55  1  0
 29 56  1  0
 31 57  1  0
 31 58  1  0
 31 59  1  0
 32 60  1  0
 33 61  1  0
 37 62  1  0
 38 63  1  0
M  CHG  1   7  -1
M  END
>  <UniqueID>  (31) 
30

>  <SMILES>  (31) 
COc1ccc([N-]C(=O)Cn2cc(CSc3nc(-c4ccccc4)cc(-c4ccc(C)cc4)n3)nn2)cc1

>  <Energy>  (31) 
104.86047274091383

>  <Genealogy>  (31) 
COc1ccc([N-]C(=O)Cn2cc(CSc3nc(-c4ccccc4)cc(-c4ccc(C)cc4)n3)nn2)cc1 (protonated)
COc1ccc([N-]C(=O)Cn2cc(CSc3nc(-c4ccccc4)cc(-c4ccc(C)cc4)n3)nn2)cc1 (3D coordinates assigned)
COc1ccc([N-]C(=O)Cn2cc(CSc3nc(-c4ccccc4)cc(-c4ccc(C)cc4)n3)nn2)cc1 (optimized conformer: 104.86047274091383 kcal/mol)

>  <smiles>  (31) 
COc1ccc(NC(=O)Cn2cc(CSc3nc(-c4ccccc4)cc(-c4ccc(C)cc4)n3)nn2)cc1

>  <score_type>  (31) 
oracle

>  <origin>  (31) 
adgpu

>  <m_score__min__energy>  (31) 
-12.390000000000001

>  <m_primary>  (31) 
energy

$$$$
32:0
     RDKit          3D

 44 46  0  0  0  0  0  0  0  0999 V2000
    0.0980   20.0240  -28.9750 C   0  0  0  0  0  0  0  0  0  0  0  0
    0.8270   20.5790  -27.7540 C   0  0  0  0  0  0  0  0  0  0  0  0
    0.0490   21.6620  -27.1290 N   0  0  0  0  0  0  0  0  0  0  0  0
   -1.3100   21.3700  -26.6400 C   0  0  0  0  0  0  0  0  0  0  0  0
   -2.3340   22.0670  -27.4960 C   0  0  0  0  0  0  0  0  0  0  0  0
   -2.9880   21.3650  -28.5210 C   0  0  0  0  0  0  0  0  0  0  0  0
   -3.9120   22.0150  -29.3430 C   0  0  0  0  0  0  0  0  0  0  0  0
   -4.1980   23.3730  -29.1450 C   0  0  0  0  0  0  0  0  0  0  0  0
   -5.3300   24.2080  -30.2000 S   0  0  0  0  0  0  0  0  0  0  0  0
   -4.5730   25.0430  -31.1960 O   0  0  0  0  0  0  0  0  0  0  0  0
   -6.2110   25.1250  -29.3960 O   0  0  0  0  0  0  0  0  0  0  0  0
   -6.3170   23.0170  -31.0380 C   0  0  0  0  0  0  0  0  0  0  0  0
   -5.7410   22.1840  -32.0080 C   0  0  0  0  0  0  0  0  0  0  0  0
   -6.5210   21.2210  -32.6600 C   0  0  0  0  0  0  0  0  0  0  0  0
   -5.9630   20.4190  -33.5980 F   0  0  0  0  0  0  0  0  0  0  0  0
   -7.8760   21.0850  -32.3400 C   0  0  0  0  0  0  0  0  0  0  0  0
   -8.4510   21.9070  -31.3660 C   0  0  0  0  0  0  0  0  0  0  0  0
   -9.7620   21.7700  -31.0520 F   0  0  0  0  0  0  0  0  0  0  0  0
   -7.6730   22.8700  -30.7140 C   0  0  0  0  0  0  0  0  0  0  0  0
   -3.5440   24.0770  -28.1270 C   0  0  0  0  0  0  0  0  0  0  0  0
   -2.6180   23.4290  -27.3050 C   0  0  0  0  0  0  0  0  0  0  0  0
    0.5800   23.0040  -26.9770 C   0  0  0  0  0  0  0  0  0  0  0  0
    0.6350   23.9180  -28.0470 C   0  0  0  0  0  0  0  0  0  0  0  0
    1.1320   25.1660  -27.8420 N   0  0  0  0  0  0  0  0  0  0  0  0
    1.5760   25.5590  -26.6210 C   0  0  0  0  0  0  0  0  0  0  0  0
    1.5210   24.6650  -25.5550 C   0  0  0  0  0  0  0  0  0  0  0  0
    1.0280   23.4160  -25.7570 N   0  0  0  0  0  0  0  0  0  0  0  0
   -0.7371   19.3882  -28.6458 H   0  0  0  0  0  0  0  0  0  0  0  0
   -0.2911   20.8565  -29.5795 H   0  0  0  0  0  0  0  0  0  0  0  0
    0.7970   19.4273  -29.5795 H   0  0  0  0  0  0  0  0  0  0  0  0
    0.9724   19.7706  -27.0223 H   0  0  0  0  0  0  0  0  0  0  0  0
    1.7983   20.9826  -28.0761 H   0  0  0  0  0  0  0  0  0  0  0  0
   -1.4838   20.2845  -26.6776 H   0  0  0  0  0  0  0  0  0  0  0  0
   -1.4032   21.7308  -25.6050 H   0  0  0  0  0  0  0  0  0  0  0  0
   -2.7718   20.2979  -28.6777 H   0  0  0  0  0  0  0  0  0  0  0  0
   -4.4163   21.4598  -30.1476 H   0  0  0  0  0  0  0  0  0  0  0  0
   -4.6746   22.2873  -32.2571 H   0  0  0  0  0  0  0  0  0  0  0  0
   -8.4894   20.3310  -32.8549 H   0  0  0  0  0  0  0  0  0  0  0  0
   -8.1264   23.5132  -29.9454 H   0  0  0  0  0  0  0  0  0  0  0  0
   -3.7598   25.1446  -27.9734 H   0  0  0  0  0  0  0  0  0  0  0  0
   -2.1097   23.9879  -26.5054 H   0  0  0  0  0  0  0  0  0  0  0  0
    0.2772   23.6229  -29.0444 H   0  0  0  0  0  0  0  0  0  0  0  0
    1.9752   26.5736  -26.4752 H   0  0  0  0  0  0  0  0  0  0  0  0
    1.8738   24.9678  -24.5581 H   0  0  0  0  0  0  0  0  0  0  0  0
  1  2  1  0
  2  3  1  0
  3  4  1  0
  4  5  1  0
  5  6  2  0
  6  7  1  0
  7  8  2  0
  8  9  1  0
  9 10  2  0
  9 11  2  0
  9 12  1  0
 12 13  2  0
 13 14  1  0
 14 15  1  0
 14 16  2  0
 16 17  1  0
 17 18  1  0
 17 19  2  0
  8 20  1  0
 20 21  2  0
  3 22  1  0
 22 23  2  0
 23 24  1  0
 24 25  2  0
 25 26  1  0
 26 27  2  0
 21  5  1  0
 27 22  1  0
 19 12  1  0
  1 28  1  0
  1 29  1  0
  1 30  1  0
  2 31  1  0
  2 32  1  0
  4 33  1  0
  4 34  1  0
  6 35  1  0
  7 36  1  0
 13 37  1  0
 16 38  1  0
 19 39  1  0
 20 40  1  0
 21 41  1  0
 23 42  1  0
 25 43  1  0
 26 44  1  0
M  END
>  <UniqueID>  (32) 
31

>  <SMILES>  (32) 
CCN(Cc1ccc(S(=O)(=O)c2cc(F)cc(F)c2)cc1)c1cnccn1

>  <Energy>  (32) 
47.72253946964518

>  <Genealogy>  (32) 
CCN(Cc1ccc(S(=O)(=O)c2cc(F)cc(F)c2)cc1)c1cnccn1 (3D coordinates assigned)
CCN(Cc1ccc(S(=O)(=O)c2cc(F)cc(F)c2)cc1)c1cnccn1 (optimized conformer: 47.72253946964518 kcal/mol)

>  <smiles>  (32) 
CCN(Cc1ccc(S(=O)(=O)c2cc(F)cc(F)c2)cc1)c1cnccn1

>  <score_type>  (32) 
oracle

>  <origin>  (32) 
adgpu

>  <m_score__min__energy>  (32) 
-8.4600000000000009

>  <m_primary>  (32) 
energy

$$$$
33:0
     RDKit          3D

 57 60  0  0  0  0  0  0  0  0999 V2000
    2.1610   23.3870  -27.3880 C   0  0  0  0  0  0  0  0  0  0  0  0
    1.1390   22.2990  -27.3760 C   0  0  0  0  0  0  0  0  0  0  0  0
    1.3990   21.0250  -27.7320 N   0  0  0  0  0  0  0  0  0  0  0  0
    0.2800   20.3270  -27.5900 N   0  0  0  0  0  0  0  0  0  0  0  0
    0.1920   18.8960  -27.8600 C   0  0  0  0  0  0  0  0  0  0  0  0
   -0.7110   21.1310  -27.1420 C   0  0  0  0  0  0  0  0  0  0  0  0
   -2.0960   20.6880  -26.7730 C   0  0  0  0  0  0  0  0  0  0  0  0
   -0.1840   22.3990  -26.9820 C   0  0  0  0  0  0  0  0  0  0  0  0
   -0.8590   23.5660  -26.4910 N   0  0  0  0  0  0  0  0  0  0  0  0
   -0.8680   23.8590  -25.0600 C   0  0  0  0  0  0  0  0  0  0  0  0
   -1.5530   24.6990  -27.6120 S   0  0  0  0  0  0  0  0  0  0  0  0
   -0.4780   25.1950  -28.5380 O   0  0  0  0  0  0  0  0  0  0  0  0
   -2.1040   25.8650  -26.8390 O   0  0  0  0  0  0  0  0  0  0  0  0
   -2.8460   23.9610  -28.5690 C   0  0  0  0  0  0  0  0  0  0  0  0
   -4.1880   24.2400  -28.2670 C   0  0  0  0  0  0  0  0  0  0  0  0
   -5.2180   23.6610  -29.0090 C   0  0  0  0  0  0  0  0  0  0  0  0
   -4.9310   22.7930  -30.0740 C   0  0  0  0  0  0  0  0  0  0  0  0
   -6.0300   22.1800  -30.8650 C   0  0  0  0  0  0  0  0  0  0  0  0
   -7.2730   22.8220  -30.9780 C   0  0  0  0  0  0  0  0  0  0  0  0
   -8.2910   22.2290  -31.7220 C   0  0  0  0  0  0  0  0  0  0  0  0
   -8.0820   21.0370  -32.3370 N   0  0  0  0  0  0  0  0  0  0  0  0
   -6.8920   20.3780  -32.2570 C   0  0  0  0  0  0  0  0  0  0  0  0
   -6.7340   19.1160  -32.9350 N   0  0  0  0  0  0  0  0  0  0  0  0
   -7.4310   17.8910  -32.5740 C   0  0  0  0  0  0  0  0  0  0  0  0
   -6.8360   16.8030  -33.4590 C   0  0  0  0  0  0  0  0  0  0  0  0
   -6.1030   17.5300  -34.5820 C   0  0  0  0  0  0  0  0  0  0  0  0
   -5.8430   18.9380  -34.0690 C   0  0  0  0  0  0  0  0  0  0  0  0
   -5.8430   20.9460  -31.5130 C   0  0  0  0  0  0  0  0  0  0  0  0
   -3.5880   22.5150  -30.3800 C   0  0  0  0  0  0  0  0  0  0  0  0
   -2.5500   23.0910  -29.6390 C   0  0  0  0  0  0  0  0  0  0  0  0
   -0.8940   22.6930  -30.0820 Cl  0  0  0  0  0  0  0  0  0  0  0  0
    2.4177   23.6603  -26.3539 H   0  0  0  0  0  0  0  0  0  0  0  0
    3.0638   23.0363  -27.9095 H   0  0  0  0  0  0  0  0  0  0  0  0
    1.7545   24.2661  -27.9095 H   0  0  0  0  0  0  0  0  0  0  0  0
    0.1581   18.3448  -26.9087 H   0  0  0  0  0  0  0  0  0  0  0  0
   -0.7207   18.6873  -28.4374 H   0  0  0  0  0  0  0  0  0  0  0  0
    1.0722   18.5770  -28.4374 H   0  0  0  0  0  0  0  0  0  0  0  0
   -2.1915   20.6574  -25.6776 H   0  0  0  0  0  0  0  0  0  0  0  0
   -2.8296   21.3963  -27.1854 H   0  0  0  0  0  0  0  0  0  0  0  0
   -2.2824   19.6854  -27.1854 H   0  0  0  0  0  0  0  0  0  0  0  0
   -0.8391   22.9170  -24.4927 H   0  0  0  0  0  0  0  0  0  0  0  0
    0.0119   24.4679  -24.8049 H   0  0  0  0  0  0  0  0  0  0  0  0
   -1.7836   24.4127  -24.8049 H   0  0  0  0  0  0  0  0  0  0  0  0
   -4.4299   24.9212  -27.4379 H   0  0  0  0  0  0  0  0  0  0  0  0
   -6.2647   23.8869  -28.7570 H   0  0  0  0  0  0  0  0  0  0  0  0
   -7.4427   23.7888  -30.4815 H   0  0  0  0  0  0  0  0  0  0  0  0
   -9.2671   22.7283  -31.8113 H   0  0  0  0  0  0  0  0  0  0  0  0
   -7.2666   17.6546  -31.5124 H   0  0  0  0  0  0  0  0  0  0  0  0
   -8.5174   17.9838  -32.7191 H   0  0  0  0  0  0  0  0  0  0  0  0
   -6.1337   16.1828  -32.8827 H   0  0  0  0  0  0  0  0  0  0  0  0
   -7.6144   16.1330  -33.8530 H   0  0  0  0  0  0  0  0  0  0  0  0
   -5.1529   17.0241  -34.8087 H   0  0  0  0  0  0  0  0  0  0  0  0
   -6.6952   17.5415  -35.5089 H   0  0  0  0  0  0  0  0  0  0  0  0
   -4.7947   19.0432  -33.7529 H   0  0  0  0  0  0  0  0  0  0  0  0
   -6.0232   19.6930  -34.8484 H   0  0  0  0  0  0  0  0  0  0  0  0
   -4.8768   20.4256  -31.4378 H   0  0  0  0  0  0  0  0  0  0  0  0
   -3.3497   21.8363  -31.2122 H   0  0  0  0  0  0  0  0  0  0  0  0
  1  2  1  0
  2  3  2  0
  3  4  1  0
  4  5  1  0
  4  6  1  0
  6  7  1  0
  6  8  2  0
  8  9  1  0
  9 10  1  0
  9 11  1  0
 11 12  2  0
 11 13  2  0
 11 14  1  0
 14 15  2  0
 15 16  1  0
 16 17  2  0
 17 18  1  0
 18 19  2  0
 19 20  1  0
 20 21  2  0
 21 22  1  0
 22 23  1  0
 23 24  1  0
 24 25  1  0
 25 26  1  0
 26 27  1  0
 22 28  2  0
 17 29  1  0
 29 30  2  0
 30 31  1  0
  8  2  1  0
 30 14  1  0
 28 18  1  0
 27 23  1  0
  1 32  1  0
  1 33  1  0
  1 34  1  0
  5 35  1  0
  5 36  1  0
  5 37  1  0
  7 38  1  0
  7 39  1  0
  7 40  1  0
 10 41  1  0
 10 42  1  0
 10 43  1  0
 15 44  1  0
 16 45  1  0
 19 46  1  0
 20 47  1  0
 24 48  1  0
 24 49  1  0
 25 50  1  0
 25 51  1  0
 26 52  1  0
 26 53  1  0
 27 54  1  0
 27 55  1  0
 28 56  1  0
 29 57  1  0
M  END
>  <UniqueID>  (33) 
32

>  <SMILES>  (33) 
Cc1nn(C)c(C)c1N(C)S(=O)(=O)c1ccc(-c2ccnc(N3CCCC3)c2)cc1Cl

>  <Energy>  (33) 
100.90772529503603

>  <Genealogy>  (33) 
Cc1nn(C)c(C)c1N(C)S(=O)(=O)c1ccc(-c2ccnc(N3CCCC3)c2)cc1Cl (3D coordinates assigned)
Cc1nn(C)c(C)c1N(C)S(=O)(=O)c1ccc(-c2ccnc(N3CCCC3)c2)cc1Cl (nonaromatic ring conformer: 100.90772529503603 kcal/mol)

>  <smiles>  (33) 
Cc1nn(C)c(C)c1N(C)S(=O)(=O)c1ccc(-c2ccnc(N3CCCC3)c2)cc1Cl

>  <score_type>  (33) 
oracle

>  <origin>  (33) 
adgpu

>  <m_score__min__energy>  (33) 
-9.4800000000000004

>  <m_primary>  (33) 
energy

$$$$
34:0
     RDKit          3D

 63 66  0  0  0  0  0  0  0  0999 V2000
   -5.8520   18.8360  -34.2200 C   0  0  0  0  0  0  0  0  0  0  0  0
   -6.0170   19.1890  -32.8520 O   0  0  0  0  0  0  0  0  0  0  0  0
   -6.9510   20.1220  -32.3780 C   0  0  0  0  0  0  0  0  0  0  0  0
   -8.3200   20.0410  -32.7040 C   0  0  0  0  0  0  0  0  0  0  0  0
   -9.2210   20.9900  -32.2140 C   0  0  0  0  0  0  0  0  0  0  0  0
   -8.7660   22.0320  -31.4060 C   0  0  0  0  0  0  0  0  0  0  0  0
   -7.4120   22.1260  -31.0800 C   0  0  0  0  0  0  0  0  0  0  0  0
   -6.5000   21.1630  -31.5470 C   0  0  0  0  0  0  0  0  0  0  0  0
   -5.0970   21.2530  -31.2510 N   0  0  0  0  0  0  0  0  0  0  0  0
   -4.1830   22.2570  -31.7170 C   0  0  0  0  0  0  0  0  0  0  0  0
   -3.9880   22.3700  -32.9570 O   0  0  0  0  0  0  0  0  0  0  0  0
   -3.4450   23.1490  -30.7900 C   0  0  0  0  0  0  0  0  0  0  0  0
   -2.2770   22.7300  -30.0990 C   0  0  0  0  0  0  0  0  0  0  0  0
   -1.6610   21.3660  -30.3430 C   0  0  0  0  0  0  0  0  0  0  0  0
   -1.6570   23.6280  -29.1880 C   0  0  0  0  0  0  0  0  0  0  0  0
   -0.4470   23.2370  -28.4250 C   0  0  0  0  0  0  0  0  0  0  0  0
    0.6440   23.8300  -28.6410 O   0  0  0  0  0  0  0  0  0  0  0  0
   -0.5280   22.2060  -27.4330 N   0  0  0  0  0  0  0  0  0  0  0  0
   -0.0880   20.8500  -27.5860 C   0  0  0  0  0  0  0  0  0  0  0  0
   -0.9460   19.7610  -27.3540 C   0  0  0  0  0  0  0  0  0  0  0  0
   -0.4710   18.4520  -27.4790 C   0  0  0  0  0  0  0  0  0  0  0  0
    0.8660   18.2170  -27.8290 C   0  0  0  0  0  0  0  0  0  0  0  0
    1.4870   16.5720  -27.9440 S   0  0  0  0  0  0  0  0  0  0  0  0
    0.5910   15.6590  -27.1520 O   0  0  0  0  0  0  0  0  0  0  0  0
    2.8730   16.5050  -27.3620 O   0  0  0  0  0  0  0  0  0  0  0  0
    1.5160   16.0640  -29.6150 N   0  0  0  0  0  0  0  0  0  0  0  0
    0.3380   16.5990  -30.3250 C   0  0  0  0  0  0  0  0  0  0  0  0
    0.5900   16.6450  -31.8410 C   0  0  0  0  0  0  0  0  0  0  0  0
    1.6960   17.4540  -32.2240 O   0  0  0  0  0  0  0  0  0  0  0  0
    2.6460   17.6540  -31.1870 C   0  0  0  0  0  0  0  0  0  0  0  0
    2.7960   16.4340  -30.2600 C   0  0  0  0  0  0  0  0  0  0  0  0
    1.7280   19.3020  -28.0340 C   0  0  0  0  0  0  0  0  0  0  0  0
    1.2530   20.6110  -27.9070 C   0  0  0  0  0  0  0  0  0  0  0  0
   -2.2070   24.9190  -29.0130 C   0  0  0  0  0  0  0  0  0  0  0  0
   -1.6020   25.9250  -28.0760 C   0  0  0  0  0  0  0  0  0  0  0  0
   -3.3100   25.2810  -29.7120 N   0  0  0  0  0  0  0  0  0  0  0  0
   -3.9300   24.4510  -30.5840 C   0  0  0  0  0  0  0  0  0  0  0  0
   -4.9570   24.8580  -31.1890 O   0  0  0  0  0  0  0  0  0  0  0  0
   -5.3871   17.8414  -34.2885 H   0  0  0  0  0  0  0  0  0  0  0  0
   -6.8343   18.8165  -34.7147 H   0  0  0  0  0  0  0  0  0  0  0  0
   -5.2070   19.5771  -34.7147 H   0  0  0  0  0  0  0  0  0  0  0  0
   -8.6812   19.2257  -33.3481 H   0  0  0  0  0  0  0  0  0  0  0  0
  -10.2893   20.9153  -32.4655 H   0  0  0  0  0  0  0  0  0  0  0  0
   -9.4756   22.7812  -31.0249 H   0  0  0  0  0  0  0  0  0  0  0  0
   -7.0565   22.9580  -30.4543 H   0  0  0  0  0  0  0  0  0  0  0  0
   -1.4434   20.8841  -29.3784 H   0  0  0  0  0  0  0  0  0  0  0  0
   -2.3649   20.7426  -30.9138 H   0  0  0  0  0  0  0  0  0  0  0  0
   -0.7278   21.4819  -30.9138 H   0  0  0  0  0  0  0  0  0  0  0  0
   -1.9945   19.9393  -27.0732 H   0  0  0  0  0  0  0  0  0  0  0  0
   -1.1486   17.6037  -27.3021 H   0  0  0  0  0  0  0  0  0  0  0  0
   -0.5292   15.9532  -30.1228 H   0  0  0  0  0  0  0  0  0  0  0  0
    0.1449   17.6214  -29.9680 H   0  0  0  0  0  0  0  0  0  0  0  0
    0.7755   15.6189  -32.1912 H   0  0  0  0  0  0  0  0  0  0  0  0
   -0.3041   17.0956  -32.2966 H   0  0  0  0  0  0  0  0  0  0  0  0
    3.6232   17.8681  -31.6443 H   0  0  0  0  0  0  0  0  0  0  0  0
    2.2866   18.4913  -30.5707 H   0  0  0  0  0  0  0  0  0  0  0  0
    3.1542   15.5797  -30.8532 H   0  0  0  0  0  0  0  0  0  0  0  0
    3.5113   16.6971  -29.4669 H   0  0  0  0  0  0  0  0  0  0  0  0
    2.7815   19.1238  -28.2956 H   0  0  0  0  0  0  0  0  0  0  0  0
    1.9377   21.4582  -28.0604 H   0  0  0  0  0  0  0  0  0  0  0  0
   -1.7877   25.6161  -27.0367 H   0  0  0  0  0  0  0  0  0  0  0  0
   -0.5179   25.9849  -28.2525 H   0  0  0  0  0  0  0  0  0  0  0  0
   -2.0573   26.9107  -28.2525 H   0  0  0  0  0  0  0  0  0  0  0  0
  1  2  1  0
  2  3  1  0
  3  4  2  0
  4  5  1  0
  5  6  2  0
  6  7  1  0
  7  8  2  0
  8  9  1  0
  9 10  1  0
 10 11  2  0
 10 12  1  0
 12 13  2  0
 13 14  1  0
 13 15  1  0
 15 16  1  0
 16 17  2  0
 16 18  1  0
 18 19  1  0
 19 20  2  0
 20 21  1  0
 21 22  2  0
 22 23  1  0
 23 24  2  0
 23 25  2  0
 23 26  1  0
 26 27  1  0
 27 28  1  0
 28 29  1  0
 29 30  1  0
 30 31  1  0
 22 32  1  0
 32 33  2  0
 15 34  2  0
 34 35  1  0
 34 36  1  0
 36 37  1  0
 37 38  2  0
  8  3  1  0
 37 12  1  0
 33 19  1  0
 31 26  1  0
  1 39  1  0
  1 40  1  0
  1 41  1  0
  4 42  1  0
  5 43  1  0
  6 44  1  0
  7 45  1  0
 14 46  1  0
 14 47  1  0
 14 48  1  0
 20 49  1  0
 21 50  1  0
 27 51  1  0
 27 52  1  0
 28 53  1  0
 28 54  1  0
 30 55  1  0
 30 56  1  0
 31 57  1  0
 31 58  1  0
 32 59  1  0
 33 60  1  0
 35 61  1  0
 35 62  1  0
 35 63  1  0
M  CHG  3   9  -1  18  -1  36  -1
M  END
>  <UniqueID>  (34) 
33

>  <SMILES>  (34) 
COc1ccccc1[N-]C(=O)c1c(C)c(C(=O)[N-]c2ccc(S(=O)(=O)N3CCOCC3)cc2)c(C)[n-]c1=O

>  <Energy>  (34) 
102.05843458507039

>  <Genealogy>  (34) 
COc1ccccc1[N-]C(=O)c1c(C)c(C(=O)[N-]c2ccc(S(=O)(=O)N3CCOCC3)cc2)c(C)[n-]c1=O (protonated)
COc1ccccc1[N-]C(=O)c1c(C)c(C(=O)[N-]c2ccc(S(=O)(=O)N3CCOCC3)cc2)c(C)[n-]c1=O (3D coordinates assigned)
COc1ccccc1[N-]C(=O)c1c(C)c(C(=O)[N-]c2ccc(S(=O)(=O)N3CCOCC3)cc2)c(C)[n-]c1=O (nonaromatic ring conformer: 102.05843458507039 kcal/mol)

>  <smiles>  (34) 
COc1ccccc1NC(=O)c1c(C)c(C(=O)Nc2ccc(S(=O)(=O)N3CCOCC3)cc2)c(C)[nH]c1=O

>  <score_type>  (34) 
oracle

>  <origin>  (34) 
adgpu

>  <m_score__min__energy>  (34) 
-11.68

>  <m_primary>  (34) 
energy

$$$$
35:0
     RDKit          3D

 53 55  0  0  0  0  0  0  0  0999 V2000
    0.6510   21.9350  -35.6990 C   0  0  0  0  0  0  0  0  0  0  0  0
    0.4020   21.8490  -34.2910 O   0  0  0  0  0  0  0  0  0  0  0  0
   -0.7310   21.2410  -33.7250 C   0  0  0  0  0  0  0  0  0  0  0  0
   -1.5410   20.3410  -34.4410 C   0  0  0  0  0  0  0  0  0  0  0  0
   -2.6790   19.7910  -33.8450 C   0  0  0  0  0  0  0  0  0  0  0  0
   -3.0410   20.1410  -32.5400 C   0  0  0  0  0  0  0  0  0  0  0  0
   -4.2570   19.6080  -32.0000 N   0  0  0  0  0  0  0  0  0  0  0  0
   -5.8610   20.0260  -32.5130 S   0  0  0  0  0  0  0  0  0  0  0  0
   -6.8690   19.0670  -31.9370 O   0  0  0  0  0  0  0  0  0  0  0  0
   -5.9270   19.9910  -34.0160 O   0  0  0  0  0  0  0  0  0  0  0  0
   -6.2230   21.6420  -31.9050 C   0  0  0  0  0  0  0  0  0  0  0  0
   -7.5390   22.1210  -31.9740 C   0  0  0  0  0  0  0  0  0  0  0  0
   -7.8620   23.3860  -31.4780 C   0  0  0  0  0  0  0  0  0  0  0  0
   -6.8670   24.1850  -30.9080 C   0  0  0  0  0  0  0  0  0  0  0  0
   -5.5340   23.7310  -30.8420 C   0  0  0  0  0  0  0  0  0  0  0  0
   -4.4830   24.5930  -30.2470 C   0  0  0  0  0  0  0  0  0  0  0  0
   -4.0900   25.6220  -30.8660 O   0  0  0  0  0  0  0  0  0  0  0  0
   -3.8770   24.2400  -28.9930 N   0  0  0  0  0  0  0  0  0  0  0  0
   -2.6160   23.5650  -28.8800 C   0  0  0  0  0  0  0  0  0  0  0  0
   -2.6080   22.1720  -28.7330 C   0  0  0  0  0  0  0  0  0  0  0  0
   -1.4010   21.4620  -28.6770 C   0  0  0  0  0  0  0  0  0  0  0  0
   -1.4440   20.0380  -28.4970 N   0  0  0  0  0  0  0  0  0  0  0  0
   -1.7300   19.3570  -27.2670 C   0  0  0  0  0  0  0  0  0  0  0  0
   -3.1060   19.4240  -26.6960 C   0  0  0  0  0  0  0  0  0  0  0  0
   -0.8650   18.6180  -26.7230 O   0  0  0  0  0  0  0  0  0  0  0  0
   -0.1870   22.1670  -28.7090 C   0  0  0  0  0  0  0  0  0  0  0  0
   -0.1840   23.5650  -28.8120 C   0  0  0  0  0  0  0  0  0  0  0  0
   -1.3950   24.2800  -28.8940 C   0  0  0  0  0  0  0  0  0  0  0  0
   -1.4240   25.6860  -28.9620 O   0  0  0  0  0  0  0  0  0  0  0  0
   -0.8520   26.5560  -27.9880 C   0  0  0  0  0  0  0  0  0  0  0  0
   -5.2220   22.4490  -31.3430 C   0  0  0  0  0  0  0  0  0  0  0  0
   -2.2110   21.0100  -31.8080 C   0  0  0  0  0  0  0  0  0  0  0  0
   -1.0620   21.5490  -32.3990 C   0  0  0  0  0  0  0  0  0  0  0  0
    1.6783   22.2898  -35.8687 H   0  0  0  0  0  0  0  0  0  0  0  0
    0.5262   20.9417  -36.1548 H   0  0  0  0  0  0  0  0  0  0  0  0
   -0.0602   22.6396  -36.1548 H   0  0  0  0  0  0  0  0  0  0  0  0
   -1.2776   20.0692  -35.4738 H   0  0  0  0  0  0  0  0  0  0  0  0
   -3.2964   19.0755  -34.4079 H   0  0  0  0  0  0  0  0  0  0  0  0
   -8.3241   21.4948  -32.4228 H   0  0  0  0  0  0  0  0  0  0  0  0
   -8.8974   23.7527  -31.5359 H   0  0  0  0  0  0  0  0  0  0  0  0
   -7.1261   25.1762  -30.5076 H   0  0  0  0  0  0  0  0  0  0  0  0
   -3.5615   21.6283  -28.6606 H   0  0  0  0  0  0  0  0  0  0  0  0
   -3.0477   19.4212  -25.5975 H   0  0  0  0  0  0  0  0  0  0  0  0
   -3.5990   20.3472  -27.0346 H   0  0  0  0  0  0  0  0  0  0  0  0
   -3.6863   18.5530  -27.0346 H   0  0  0  0  0  0  0  0  0  0  0  0
    0.7657   21.6199  -28.6530 H   0  0  0  0  0  0  0  0  0  0  0  0
    0.7722   24.1084  -28.8289 H   0  0  0  0  0  0  0  0  0  0  0  0
   -1.0941   26.1877  -26.9801 H   0  0  0  0  0  0  0  0  0  0  0  0
    0.2402   26.5823  -28.1162 H   0  0  0  0  0  0  0  0  0  0  0  0
   -1.2608   27.5692  -28.1162 H   0  0  0  0  0  0  0  0  0  0  0  0
   -4.1870   22.0799  -31.2926 H   0  0  0  0  0  0  0  0  0  0  0  0
   -2.4655   21.2664  -30.7690 H   0  0  0  0  0  0  0  0  0  0  0  0
   -0.4134   22.2203  -31.8171 H   0  0  0  0  0  0  0  0  0  0  0  0
  1  2  1  0
  2  3  1  0
  3  4  2  0
  4  5  1  0
  5  6  2  0
  6  7  1  0
  7  8  1  0
  8  9  2  0
  8 10  2  0
  8 11  1  0
 11 12  2  0
 12 13  1  0
 13 14  2  0
 14 15  1  0
 15 16  1  0
 16 17  2  0
 16 18  1  0
 18 19  1  0
 19 20  2  0
 20 21  1  0
 21 22  1  0
 22 23  1  0
 23 24  1  0
 23 25  2  0
 21 26  2  0
 26 27  1  0
 27 28  2  0
 28 29  1  0
 29 30  1  0
 15 31  2  0
  6 32  1  0
 32 33  2  0
 33  3  1  0
 31 11  1  0
 28 19  1  0
  1 34  1  0
  1 35  1  0
  1 36  1  0
  4 37  1  0
  5 38  1  0
 12 39  1  0
 13 40  1  0
 14 41  1  0
 20 42  1  0
 24 43  1  0
 24 44  1  0
 24 45  1  0
 26 46  1  0
 27 47  1  0
 30 48  1  0
 30 49  1  0
 30 50  1  0
 31 51  1  0
 32 52  1  0
 33 53  1  0
M  CHG  3   7  -1  18  -1  22  -1
M  END
>  <UniqueID>  (35) 
34

>  <SMILES>  (35) 
COc1ccc([N-]S(=O)(=O)c2cccc(C(=O)[N-]c3cc([N-]C(C)=O)ccc3OC)c2)cc1

>  <Energy>  (35) 
68.45380334649509

>  <Genealogy>  (35) 
COc1ccc([N-]S(=O)(=O)c2cccc(C(=O)[N-]c3cc([N-]C(C)=O)ccc3OC)c2)cc1 (protonated)
COc1ccc([N-]S(=O)(=O)c2cccc(C(=O)[N-]c3cc([N-]C(C)=O)ccc3OC)c2)cc1 (3D coordinates assigned)
COc1ccc([N-]S(=O)(=O)c2cccc(C(=O)[N-]c3cc([N-]C(C)=O)ccc3OC)c2)cc1 (optimized conformer: 68.45380334649509 kcal/mol)

>  <smiles>  (35) 
COc1ccc(NS(=O)(=O)c2cccc(C(=O)Nc3cc(NC(C)=O)ccc3OC)c2)cc1

>  <score_type>  (35) 
oracle

>  <origin>  (35) 
adgpu

>  <m_score__min__energy>  (35) 
-10.98

>  <m_primary>  (35) 
energy

$$$$
36:0
     RDKit          3D

 27 28  0  0  0  0  0  0  0  0999 V2000
   -8.9590   18.5470  -31.6110 C   0  0  0  0  0  0  0  0  0  0  0  0
   -8.3970   19.2620  -32.7070 O   0  0  0  0  0  0  0  0  0  0  0  0
   -7.0200   19.4080  -32.9370 C   0  0  0  0  0  0  0  0  0  0  0  0
   -6.3260   20.5940  -32.6220 C   0  0  0  0  0  0  0  0  0  0  0  0
   -4.9450   20.6970  -32.8590 C   0  0  0  0  0  0  0  0  0  0  0  0
   -4.2140   21.9700  -32.5210 C   0  0  0  0  0  0  0  0  0  0  0  0
   -5.0900   23.1250  -32.6970 N   0  0  0  0  0  0  0  0  0  0  0  0
   -5.5530   23.9010  -31.5900 C   0  0  0  0  0  0  0  0  0  0  0  0
   -5.0440   24.9330  -30.8200 C   0  0  0  0  0  0  0  0  0  0  0  0
   -3.8590   25.6550  -30.8000 O   0  0  0  0  0  0  0  0  0  0  0  0
   -6.2060   24.9510  -30.0760 C   0  0  0  0  0  0  0  0  0  0  0  0
   -6.6260   25.6260  -29.1010 O   0  0  0  0  0  0  0  0  0  0  0  0
   -6.7170   23.9260  -30.8450 C   0  0  0  0  0  0  0  0  0  0  0  0
   -7.7960   23.2790  -30.8630 O   0  0  0  0  0  0  0  0  0  0  0  0
   -4.2620   19.6140  -33.4330 C   0  0  0  0  0  0  0  0  0  0  0  0
   -4.9460   18.4380  -33.7480 C   0  0  0  0  0  0  0  0  0  0  0  0
   -6.3180   18.3340  -33.5010 C   0  0  0  0  0  0  0  0  0  0  0  0
   -6.9840   17.1560  -33.8180 O   0  0  0  0  0  0  0  0  0  0  0  0
   -8.6105   18.9904  -30.6666 H   0  0  0  0  0  0  0  0  0  0  0  0
  -10.0564   18.6042  -31.6599 H   0  0  0  0  0  0  0  0  0  0  0  0
   -8.6442   17.4942  -31.6599 H   0  0  0  0  0  0  0  0  0  0  0  0
   -6.8700   21.4455  -32.1872 H   0  0  0  0  0  0  0  0  0  0  0  0
   -3.8773   21.9272  -31.4747 H   0  0  0  0  0  0  0  0  0  0  0  0
   -3.3497   22.0732  -33.1936 H   0  0  0  0  0  0  0  0  0  0  0  0
   -5.3930   23.3930  -33.6600 H   0  0  0  0  0  0  0  0  0  0  0  0
   -3.1836   19.6916  -33.6356 H   0  0  0  0  0  0  0  0  0  0  0  0
   -4.4033   17.5905  -34.1921 H   0  0  0  0  0  0  0  0  0  0  0  0
  1  2  1  0
  2  3  1  0
  3  4  2  0
  4  5  1  0
  5  6  1  0
  6  7  1  0
  7  8  1  0
  8  9  2  0
  9 10  1  0
  9 11  1  0
 11 12  2  0
 11 13  1  0
 13 14  2  0
  5 15  2  0
 15 16  1  0
 16 17  2  0
 17 18  1  0
 17  3  1  0
 13  8  1  0
  1 19  1  0
  1 20  1  0
  1 21  1  0
  4 22  1  0
  6 23  1  0
  6 24  1  0
  7 25  1  0
 15 26  1  0
 16 27  1  0
M  CHG  2  10  -1  18  -1
M  END
>  <UniqueID>  (36) 
35

>  <SMILES>  (36) 
COc1cc(CNc2c([O-])c(=O)c2=O)ccc1[O-]

>  <Energy>  (36) 
16.002070553506513

>  <Genealogy>  (36) 
COc1cc(CNc2c([O-])c(=O)c2=O)ccc1[O-] (protonated)
COc1cc(CNc2c([O-])c(=O)c2=O)ccc1[O-] (3D coordinates assigned)
COc1cc(CNc2c([O-])c(=O)c2=O)ccc1[O-] (optimized conformer: 16.002070553506513 kcal/mol)

>  <smiles>  (36) 
COc1cc(CNc2c(O)c(=O)c2=O)ccc1O

>  <score_type>  (36) 
oracle

>  <origin>  (36) 
adgpu

>  <m_score__min__energy>  (36) 
-9.2300000000000004

>  <m_primary>  (36) 
energy

$$$$
37:0
     RDKit          3D

 31 33  0  0  0  0  0  0  0  0999 V2000
   -4.2820   15.3000  -32.9250 C   0  0  0  0  0  0  0  0  0  0  0  0
   -5.4190   15.9410  -33.4940 O   0  0  0  0  0  0  0  0  0  0  0  0
   -5.9680   17.1450  -33.0270 C   0  0  0  0  0  0  0  0  0  0  0  0
   -7.3570   17.2970  -33.0620 C   0  0  0  0  0  0  0  0  0  0  0  0
   -7.9640   18.4740  -32.6120 C   0  0  0  0  0  0  0  0  0  0  0  0
   -9.3500   18.5750  -32.6680 O   0  0  0  0  0  0  0  0  0  0  0  0
   -7.1690   19.5300  -32.1110 C   0  0  0  0  0  0  0  0  0  0  0  0
   -7.7070   20.7450  -31.6440 C   0  0  0  0  0  0  0  0  0  0  0  0
   -8.9490   20.9620  -31.6540 O   0  0  0  0  0  0  0  0  0  0  0  0
   -6.8500   21.7380  -31.1640 C   0  0  0  0  0  0  0  0  0  0  0  0
   -5.4640   21.5060  -31.1500 C   0  0  0  0  0  0  0  0  0  0  0  0
   -4.5050   22.5240  -30.6520 C   0  0  0  0  0  0  0  0  0  0  0  0
   -3.2710   22.1610  -30.0760 C   0  0  0  0  0  0  0  0  0  0  0  0
   -2.3830   23.1440  -29.6260 C   0  0  0  0  0  0  0  0  0  0  0  0
   -2.7090   24.4960  -29.7520 C   0  0  0  0  0  0  0  0  0  0  0  0
   -1.8210   25.4670  -29.3010 O   0  0  0  0  0  0  0  0  0  0  0  0
   -3.9240   24.8700  -30.3340 C   0  0  0  0  0  0  0  0  0  0  0  0
   -4.2510   26.2150  -30.4660 O   0  0  0  0  0  0  0  0  0  0  0  0
   -4.8150   23.8900  -30.7850 C   0  0  0  0  0  0  0  0  0  0  0  0
   -4.9890   20.3500  -31.6060 O   0  0  0  0  0  0  0  0  0  0  0  0
   -5.7640   19.3750  -32.0740 C   0  0  0  0  0  0  0  0  0  0  0  0
   -5.1730   18.1930  -32.5290 C   0  0  0  0  0  0  0  0  0  0  0  0
   -4.3502   15.3385  -31.8278 H   0  0  0  0  0  0  0  0  0  0  0  0
   -4.2498   14.2508  -33.2538 H   0  0  0  0  0  0  0  0  0  0  0  0
   -3.3676   15.8155  -33.2538 H   0  0  0  0  0  0  0  0  0  0  0  0
   -7.9820   16.4788  -33.4492 H   0  0  0  0  0  0  0  0  0  0  0  0
   -7.2564   22.6932  -30.8001 H   0  0  0  0  0  0  0  0  0  0  0  0
   -3.0044   21.0982  -29.9796 H   0  0  0  0  0  0  0  0  0  0  0  0
   -1.4251   22.8510  -29.1715 H   0  0  0  0  0  0  0  0  0  0  0  0
   -5.7667   24.1902  -31.2478 H   0  0  0  0  0  0  0  0  0  0  0  0
   -4.0791   18.0816  -32.4974 H   0  0  0  0  0  0  0  0  0  0  0  0
  1  2  1  0
  2  3  1  0
  3  4  2  0
  4  5  1  0
  5  6  1  0
  5  7  2  0
  7  8  1  0
  8  9  2  0
  8 10  1  0
 10 11  2  0
 11 12  1  0
 12 13  2  0
 13 14  1  0
 14 15  2  0
 15 16  1  0
 15 17  1  0
 17 18  1  0
 17 19  2  0
 11 20  1  0
 20 21  1  0
 21 22  2  0
 22  3  1  0
 21  7  1  0
 19 12  1  0
  1 23  1  0
  1 24  1  0
  1 25  1  0
  4 26  1  0
 10 27  1  0
 13 28  1  0
 14 29  1  0
 19 30  1  0
 22 31  1  0
M  CHG  3   6  -1  16  -1  18  -1
M  END
>  <UniqueID>  (37) 
36

>  <SMILES>  (37) 
COc1cc([O-])c2c(=O)cc(-c3ccc([O-])c([O-])c3)oc2c1

>  <Energy>  (37) 
44.10196720423077

>  <Genealogy>  (37) 
COc1cc([O-])c2c(=O)cc(-c3ccc([O-])c([O-])c3)oc2c1 (protonated)
COc1cc([O-])c2c(=O)cc(-c3ccc([O-])c([O-])c3)oc2c1 (3D coordinates assigned)
COc1cc([O-])c2c(=O)cc(-c3ccc([O-])c([O-])c3)oc2c1 (optimized conformer: 44.10196720423077 kcal/mol)

>  <smiles>  (37) 
COc1cc(O)c2c(=O)cc(-c3ccc(O)c(O)c3)oc2c1

>  <score_type>  (37) 
oracle

>  <origin>  (37) 
adgpu

>  <m_score__min__energy>  (37) 
-11.59

>  <m_primary>  (37) 
energy

$$$$
38:0
     RDKit          3D

 43 45  0  0  0  0  0  0  0  0999 V2000
   -3.9920   19.6300  -33.6940 N   0  0  0  0  0  0  0  0  0  0  0  0
   -4.5360   20.6820  -33.1790 C   0  0  0  0  0  0  0  0  0  0  0  0
   -5.6980   20.7720  -32.4830 N   0  0  0  0  0  0  0  0  0  0  0  0
   -5.8560   22.0850  -32.1480 C   0  0  0  0  0  0  0  0  0  0  0  0
   -7.1850   22.8240  -31.2350 S   0  0  0  0  0  0  0  0  0  0  0  0
   -6.7660   24.5210  -30.8440 C   0  0  0  0  0  0  0  0  0  0  0  0
   -5.4020   24.5520  -30.2500 C   0  0  0  0  0  0  0  0  0  0  0  0
   -4.4300   25.1190  -30.8420 O   0  0  0  0  0  0  0  0  0  0  0  0
   -5.0940   23.9540  -28.9940 N   0  0  0  0  0  0  0  0  0  0  0  0
   -3.7440   24.0610  -28.5500 C   0  0  0  0  0  0  0  0  0  0  0  0
   -3.5610   24.5050  -27.2430 C   0  0  0  0  0  0  0  0  0  0  0  0
   -2.2880   24.6440  -26.7210 C   0  0  0  0  0  0  0  0  0  0  0  0
   -1.1940   24.3270  -27.5370 C   0  0  0  0  0  0  0  0  0  0  0  0
    0.3840   24.5280  -26.8080 S   0  0  0  0  0  0  0  0  0  0  0  0
    1.4530   24.6970  -27.8350 O   0  0  0  0  0  0  0  0  0  0  0  0
    0.7730   23.2900  -26.0090 O   0  0  0  0  0  0  0  0  0  0  0  0
    0.3180   25.8340  -25.7090 N   0  0  0  0  0  0  0  0  0  0  0  0
   -0.3110   26.9960  -26.2230 C   0  0  0  0  0  0  0  0  0  0  0  0
   -0.9310   27.7410  -25.0640 C   0  0  0  0  0  0  0  0  0  0  0  0
   -0.8930   26.7730  -23.9030 C   0  0  0  0  0  0  0  0  0  0  0  0
   -0.2760   25.5050  -24.4410 C   0  0  0  0  0  0  0  0  0  0  0  0
   -1.3650   23.8850  -28.8360 C   0  0  0  0  0  0  0  0  0  0  0  0
   -2.6620   23.7570  -29.3300 C   0  0  0  0  0  0  0  0  0  0  0  0
   -4.8080   22.7680  -32.6350 N   0  0  0  0  0  0  0  0  0  0  0  0
   -3.9830   21.9210  -33.2730 N   0  0  0  0  0  0  0  0  0  0  0  0
   -4.4820   18.7070  -33.5770 H   0  0  0  0  0  0  0  0  0  0  0  0
   -6.7838   25.1273  -31.7616 H   0  0  0  0  0  0  0  0  0  0  0  0
   -7.4948   24.9315  -30.1296 H   0  0  0  0  0  0  0  0  0  0  0  0
   -5.8430   23.4700  -28.4520 H   0  0  0  0  0  0  0  0  0  0  0  0
   -4.4355   24.7470  -26.6211 H   0  0  0  0  0  0  0  0  0  0  0  0
   -2.1378   24.9952  -25.6894 H   0  0  0  0  0  0  0  0  0  0  0  0
    0.4333   27.6340  -26.7219 H   0  0  0  0  0  0  0  0  0  0  0  0
   -1.0822   26.7206  -26.9574 H   0  0  0  0  0  0  0  0  0  0  0  0
   -0.3492   28.6451  -24.8313 H   0  0  0  0  0  0  0  0  0  0  0  0
   -1.9556   28.0718  -25.2894 H   0  0  0  0  0  0  0  0  0  0  0  0
   -0.2796   27.1799  -23.0856 H   0  0  0  0  0  0  0  0  0  0  0  0
   -1.8986   26.5914  -23.4958 H   0  0  0  0  0  0  0  0  0  0  0  0
    0.4936   25.1351  -23.7475 H   0  0  0  0  0  0  0  0  0  0  0  0
   -1.0340   24.7160  -24.5545 H   0  0  0  0  0  0  0  0  0  0  0  0
   -0.4968   23.6399  -29.4654 H   0  0  0  0  0  0  0  0  0  0  0  0
   -2.8177   23.4068  -30.3611 H   0  0  0  0  0  0  0  0  0  0  0  0
   -4.6180   23.8030  -32.5540 H   0  0  0  0  0  0  0  0  0  0  0  0
   -3.0900   22.1750  -33.7480 H   0  0  0  0  0  0  0  0  0  0  0  0
  1  2  2  3
  2  3  1  0
  3  4  2  0
  4  5  1  0
  5  6  1  0
  6  7  1  0
  7  8  2  0
  7  9  1  0
  9 10  1  0
 10 11  2  0
 11 12  1  0
 12 13  2  0
 13 14  1  0
 14 15  2  0
 14 16  2  0
 14 17  1  0
 17 18  1  0
 18 19  1  0
 19 20  1  0
 20 21  1  0
 13 22  1  0
 22 23  2  0
  4 24  1  0
 24 25  1  0
 25  2  1  0
 23 10  1  0
 21 17  1  0
  1 26  1  0
  6 27  1  0
  6 28  1  0
  9 29  1  0
 11 30  1  0
 12 31  1  0
 18 32  1  0
 18 33  1  0
 19 34  1  0
 19 35  1  0
 20 36  1  0
 20 37  1  0
 21 38  1  0
 21 39  1  0
 22 40  1  0
 23 41  1  0
 24 42  1  0
 25 43  1  0
M  END
>  <smiles>  (38) 
N=c1nc(SCC(=O)Nc2ccc(S(=O)(=O)N3CCCC3)cc2)[nH][nH]1

>  <score_type>  (38) 
oracle

>  <origin>  (38) 
adgpu

>  <m_score__min__energy>  (38) 
-8.7200000000000006

>  <m_primary>  (38) 
energy

$$$$
39:0
     RDKit          3D

 58 61  0  0  0  0  0  0  0  0999 V2000
   -5.6530   25.0970  -30.4520 C   0  0  0  0  0  0  0  0  0  0  0  0
   -4.4360   24.3720  -30.8430 N   0  0  0  0  0  0  0  0  0  0  0  0
   -4.7900   23.0820  -31.4480 C   0  0  0  0  0  0  0  0  0  0  0  0
   -3.4270   24.1100  -29.4410 S   0  0  0  0  0  0  0  0  0  0  0  0
   -4.2880   24.0020  -28.2130 O   0  0  0  0  0  0  0  0  0  0  0  0
   -2.5120   25.2910  -29.2630 O   0  0  0  0  0  0  0  0  0  0  0  0
   -2.4560   22.6420  -29.6000 C   0  0  0  0  0  0  0  0  0  0  0  0
   -2.4610   21.6780  -28.5840 C   0  0  0  0  0  0  0  0  0  0  0  0
   -1.6820   20.5240  -28.7090 C   0  0  0  0  0  0  0  0  0  0  0  0
   -0.9030   20.3230  -29.8510 C   0  0  0  0  0  0  0  0  0  0  0  0
   -0.9080   21.2670  -30.8850 C   0  0  0  0  0  0  0  0  0  0  0  0
   -0.0840   21.0410  -32.0380 N   0  0  0  0  0  0  0  0  0  0  0  0
   -0.4170   20.2050  -33.1550 C   0  0  0  0  0  0  0  0  0  0  0  0
    0.5080   19.8110  -33.9130 O   0  0  0  0  0  0  0  0  0  0  0  0
   -1.8060   19.7630  -33.4100 C   0  0  0  0  0  0  0  0  0  0  0  0
   -2.8670   20.6840  -33.3960 C   0  0  0  0  0  0  0  0  0  0  0  0
   -4.1770   20.2590  -33.6330 C   0  0  0  0  0  0  0  0  0  0  0  0
   -4.4460   18.9070  -33.8950 C   0  0  0  0  0  0  0  0  0  0  0  0
   -5.8660   18.4400  -34.1290 C   0  0  0  0  0  0  0  0  0  0  0  0
   -6.5440   17.8370  -32.9420 N   0  0  0  0  0  0  0  0  0  0  0  0
   -5.8140   18.0850  -31.6820 C   0  0  0  0  0  0  0  0  0  0  0  0
   -5.9230   19.5520  -31.2200 C   0  0  0  0  0  0  0  0  0  0  0  0
   -7.2860   20.1520  -31.4610 C   0  0  0  0  0  0  0  0  0  0  0  0
   -7.5650   21.4360  -30.9680 C   0  0  0  0  0  0  0  0  0  0  0  0
   -8.7970   22.0430  -31.2300 C   0  0  0  0  0  0  0  0  0  0  0  0
   -9.7600   21.3730  -31.9870 C   0  0  0  0  0  0  0  0  0  0  0  0
   -9.4940   20.0960  -32.4870 C   0  0  0  0  0  0  0  0  0  0  0  0
   -8.2520   19.4860  -32.2450 C   0  0  0  0  0  0  0  0  0  0  0  0
   -7.9880   18.0950  -32.7600 C   0  0  0  0  0  0  0  0  0  0  0  0
   -3.3880   17.9860  -33.9080 C   0  0  0  0  0  0  0  0  0  0  0  0
   -2.0800   18.4080  -33.6560 C   0  0  0  0  0  0  0  0  0  0  0  0
   -1.6740   22.4390  -30.7450 C   0  0  0  0  0  0  0  0  0  0  0  0
   -5.7196   25.1367  -29.3547 H   0  0  0  0  0  0  0  0  0  0  0  0
   -5.6155   26.1201  -30.8543 H   0  0  0  0  0  0  0  0  0  0  0  0
   -6.5348   24.5769  -30.8543 H   0  0  0  0  0  0  0  0  0  0  0  0
   -4.9915   22.3477  -30.6542 H   0  0  0  0  0  0  0  0  0  0  0  0
   -5.6880   23.2036  -32.0716 H   0  0  0  0  0  0  0  0  0  0  0  0
   -3.9557   22.7282  -32.0716 H   0  0  0  0  0  0  0  0  0  0  0  0
   -3.0787   21.8291  -27.6865 H   0  0  0  0  0  0  0  0  0  0  0  0
   -1.6824   19.7722  -27.9060 H   0  0  0  0  0  0  0  0  0  0  0  0
   -0.2827   19.4188  -29.9383 H   0  0  0  0  0  0  0  0  0  0  0  0
   -2.6651   21.7469  -33.1971 H   0  0  0  0  0  0  0  0  0  0  0  0
   -5.0009   20.9876  -33.6141 H   0  0  0  0  0  0  0  0  0  0  0  0
   -6.4594   19.3069  -34.4552 H   0  0  0  0  0  0  0  0  0  0  0  0
   -5.8029   17.6404  -34.8818 H   0  0  0  0  0  0  0  0  0  0  0  0
   -6.2310   17.4356  -30.8982 H   0  0  0  0  0  0  0  0  0  0  0  0
   -4.7508   17.8674  -31.8613 H   0  0  0  0  0  0  0  0  0  0  0  0
   -5.7074   19.5959  -30.1422 H   0  0  0  0  0  0  0  0  0  0  0  0
   -5.2006   20.1348  -31.8103 H   0  0  0  0  0  0  0  0  0  0  0  0
   -6.8095   21.9684  -30.3715 H   0  0  0  0  0  0  0  0  0  0  0  0
   -9.0078   23.0494  -30.8393 H   0  0  0  0  0  0  0  0  0  0  0  0
  -10.7295   21.8513  -32.1900 H   0  0  0  0  0  0  0  0  0  0  0  0
  -10.2599   19.5662  -33.0724 H   0  0  0  0  0  0  0  0  0  0  0  0
   -8.3909   17.3673  -32.0401 H   0  0  0  0  0  0  0  0  0  0  0  0
   -8.4770   17.9971  -33.7405 H   0  0  0  0  0  0  0  0  0  0  0  0
   -3.5893   16.9251  -34.1179 H   0  0  0  0  0  0  0  0  0  0  0  0
   -1.2603   17.6745  -33.6503 H   0  0  0  0  0  0  0  0  0  0  0  0
   -1.6589   23.2002  -31.5389 H   0  0  0  0  0  0  0  0  0  0  0  0
  1  2  1  0
  2  3  1  0
  2  4  1  0
  4  5  2  0
  4  6  2  0
  4  7  1  0
  7  8  2  0
  8  9  1  0
  9 10  2  0
 10 11  1  0
 11 12  1  0
 12 13  1  0
 13 14  2  0
 13 15  1  0
 15 16  2  0
 16 17  1  0
 17 18  2  0
 18 19  1  0
 19 20  1  0
 20 21  1  0
 21 22  1  0
 22 23  1  0
 23 24  2  0
 24 25  1  0
 25 26  2  0
 26 27  1  0
 27 28  2  0
 28 29  1  0
 18 30  1  0
 30 31  2  0
 11 32  2  0
 32  7  1  0
 31 15  1  0
 29 20  1  0
 28 23  1  0
  1 33  1  0
  1 34  1  0
  1 35  1  0
  3 36  1  0
  3 37  1  0
  3 38  1  0
  8 39  1  0
  9 40  1  0
 10 41  1  0
 16 42  1  0
 17 43  1  0
 19 44  1  0
 19 45  1  0
 21 46  1  0
 21 47  1  0
 22 48  1  0
 22 49  1  0
 24 50  1  0
 25 51  1  0
 26 52  1  0
 27 53  1  0
 29 54  1  0
 29 55  1  0
 30 56  1  0
 31 57  1  0
 32 58  1  0
M  CHG  1  12  -1
M  END
>  <UniqueID>  (39) 
37

>  <SMILES>  (39) 
CN(C)S(=O)(=O)c1cccc([N-]C(=O)c2ccc(CN3CCc4ccccc4C3)cc2)c1

>  <Energy>  (39) 
75.34403869130767

>  <Genealogy>  (39) 
CN(C)S(=O)(=O)c1cccc([N-]C(=O)c2ccc(CN3CCc4ccccc4C3)cc2)c1 (protonated)
CN(C)S(=O)(=O)c1cccc([N-]C(=O)c2ccc(CN3CCc4ccccc4C3)cc2)c1 (3D coordinates assigned)
CN(C)S(=O)(=O)c1cccc([N-]C(=O)c2ccc(CN3CCc4ccccc4C3)cc2)c1 (nonaromatic ring conformer: 75.34403869130767 kcal/mol)

>  <smiles>  (39) 
CN(C)S(=O)(=O)c1cccc(NC(=O)c2ccc(CN3CCc4ccccc4C3)cc2)c1

>  <score_type>  (39) 
oracle

>  <origin>  (39) 
adgpu

>  <m_score__min__energy>  (39) 
-12.130000000000001

>  <m_primary>  (39) 
energy

$$$$
40:0
     RDKit          3D

 48 51  0  0  0  0  0  0  0  0999 V2000
   -8.2697   17.9666  -32.6155 H   0  0  0  0  0  0  0  0  0  0  0  0
   -7.8580   18.9750  -32.4620 C   0  0  0  0  0  0  0  0  0  0  0  0
   -8.6910   20.0140  -32.1910 N   0  0  0  0  0  0  0  0  0  0  0  0
   -8.2200   21.2750  -32.0000 C   0  0  0  0  0  0  0  0  0  0  0  0
   -8.9193   22.0959  -31.7831 H   0  0  0  0  0  0  0  0  0  0  0  0
   -6.8480   21.5290  -32.0790 C   0  0  0  0  0  0  0  0  0  0  0  0
   -6.4652   22.5509  -31.9404 H   0  0  0  0  0  0  0  0  0  0  0  0
   -5.9630   20.4730  -32.3360 C   0  0  0  0  0  0  0  0  0  0  0  0
   -4.4810   20.7290  -32.4360 C   0  0  0  0  0  0  0  0  0  0  0  0
   -4.3150   21.6779  -32.9670 H   0  0  0  0  0  0  0  0  0  0  0  0
   -4.0177   19.8947  -32.9831 H   0  0  0  0  0  0  0  0  0  0  0  0
   -3.8710   20.8110  -31.1070 N   0  0  0  0  0  0  0  0  0  0  0  0
   -3.7460   19.9120  -30.5880 H   0  0  0  0  0  0  0  0  0  0  0  0
   -3.4240   22.0320  -30.4840 C   0  0  0  0  0  0  0  0  0  0  0  0
   -4.1260   23.2170  -30.7330 C   0  0  0  0  0  0  0  0  0  0  0  0
   -5.0330   23.1931  -31.3550 H   0  0  0  0  0  0  0  0  0  0  0  0
   -3.6860   24.4260  -30.2000 C   0  0  0  0  0  0  0  0  0  0  0  0
   -4.2249   25.3558  -30.4347 H   0  0  0  0  0  0  0  0  0  0  0  0
   -2.5640   24.4640  -29.3690 C   0  0  0  0  0  0  0  0  0  0  0  0
   -2.0930   25.6670  -28.9540 N   0  0  0  0  0  0  0  0  0  0  0  0
   -0.9720   25.7820  -28.2000 C   0  0  0  0  0  0  0  0  0  0  0  0
   -0.5000   27.1360  -27.7730 C   0  0  0  0  0  0  0  0  0  0  0  0
   -0.4818   27.1883  -26.6744 H   0  0  0  0  0  0  0  0  0  0  0  0
    0.5125   27.3119  -28.1653 H   0  0  0  0  0  0  0  0  0  0  0  0
   -1.1837   27.9032  -28.1653 H   0  0  0  0  0  0  0  0  0  0  0  0
   -0.3080   24.6330  -27.7640 C   0  0  0  0  0  0  0  0  0  0  0  0
    0.6087   24.7266  -27.1632 H   0  0  0  0  0  0  0  0  0  0  0  0
   -0.8020   23.3610  -28.0870 C   0  0  0  0  0  0  0  0  0  0  0  0
   -0.2350   22.3500  -27.4770 N   0  0  0  0  0  0  0  0  0  0  0  0
   -0.6760   20.9930  -27.3230 C   0  0  0  0  0  0  0  0  0  0  0  0
   -1.9320   20.7420  -26.7610 C   0  0  0  0  0  0  0  0  0  0  0  0
   -2.5573   21.5799  -26.4190 H   0  0  0  0  0  0  0  0  0  0  0  0
   -2.3940   19.4310  -26.6330 C   0  0  0  0  0  0  0  0  0  0  0  0
   -3.3744   19.2380  -26.1729 H   0  0  0  0  0  0  0  0  0  0  0  0
   -1.6160   18.3630  -27.0870 C   0  0  0  0  0  0  0  0  0  0  0  0
   -1.9717   17.3307  -26.9531 H   0  0  0  0  0  0  0  0  0  0  0  0
   -0.3790   18.6020  -27.7150 C   0  0  0  0  0  0  0  0  0  0  0  0
    0.4830   17.4560  -28.1780 C   0  0  0  0  0  0  0  0  0  0  0  0
    0.2640   16.3280  -27.4060 F   0  0  0  0  0  0  0  0  0  0  0  0
    0.2010   17.1390  -29.4960 F   0  0  0  0  0  0  0  0  0  0  0  0
    1.8130   17.8170  -28.0770 F   0  0  0  0  0  0  0  0  0  0  0  0
    0.0840   19.9250  -27.8280 C   0  0  0  0  0  0  0  0  0  0  0  0
    1.0493   20.1252  -28.3159 H   0  0  0  0  0  0  0  0  0  0  0  0
   -1.8990   23.2660  -29.0010 C   0  0  0  0  0  0  0  0  0  0  0  0
   -2.2950   22.0700  -29.6430 C   0  0  0  0  0  0  0  0  0  0  0  0
   -1.7103   21.1522  -29.4826 H   0  0  0  0  0  0  0  0  0  0  0  0
   -6.4790   19.1860  -32.5460 C   0  0  0  0  0  0  0  0  0  0  0  0
   -5.8033   18.3488  -32.7751 H   0  0  0  0  0  0  0  0  0  0  0  0
  1  2  1  0
  2  3  2  0
  3  4  1  0
  4  5  1  0
  4  6  2  0
  6  7  1  0
  6  8  1  0
  8  9  1  0
  9 10  1  0
  9 11  1  0
  9 12  1  0
 12 13  1  0
 12 14  1  0
 14 15  2  0
 15 16  1  0
 15 17  1  0
 17 18  1  0
 17 19  2  0
 19 20  1  0
 20 21  1  0
 21 22  1  0
 22 23  1  0
 22 24  1  0
 22 25  1  0
 21 26  2  0
 26 27  1  0
 26 28  1  0
 28 29  2  0
 29 30  1  0
 30 31  2  0
 31 32  1  0
 31 33  1  0
 33 34  1  0
 33 35  2  0
 35 36  1  0
 35 37  1  0
 37 38  1  0
 38 39  1  0
 38 40  1  0
 38 41  1  0
 37 42  2  0
 42 43  1  0
 28 44  1  0
 44 45  2  0
 45 46  1  0
  8 47  2  0
 47 48  1  0
 47  2  1  0
 45 14  1  0
 44 19  1  0
 42 30  1  0
M  CHG  1  20  -1
M  END
>  <UniqueID>  (40) 
38

>  <SMILES>  (40) 
Cc1c/c(=N/c2cccc(C(F)(F)F)c2)c2cc(NCc3ccncc3)ccc2[n-]1

>  <Energy>  (40) 
72.25297298715614

>  <Genealogy>  (40) 
Cc1cc(=Nc2cccc(C(F)(F)F)c2)c2cc(NCc3ccncc3)ccc2[n-]1 (protonated)
Cc1c/c(=N/c2cccc(C(F)(F)F)c2)c2cc(NCc3ccncc3)ccc2[n-]1 (cis-trans isomerization)
Cc1c/c(=N/c2cccc(C(F)(F)F)c2)c2cc(NCc3ccncc3)ccc2[n-]1 (3D coordinates assigned)
Cc1c/c(=N/c2cccc(C(F)(F)F)c2)c2cc(NCc3ccncc3)ccc2[n-]1 (optimized conformer: 72.25297298715614 kcal/mol)

>  <smiles>  (40) 
Cc1cc(=Nc2cccc(C(F)(F)F)c2)c2cc(NCc3ccncc3)ccc2[nH]1

>  <score_type>  (40) 
oracle

>  <origin>  (40) 
adgpu

>  <m_score__min__energy>  (40) 
-9.7599999999999998

>  <m_primary>  (40) 
energy

$$$$
41:0
     RDKit          3D

 38 40  0  0  1  0  0  0  0  0999 V2000
   -2.4280   25.4070  -26.3420 C   0  0  0  0  0  0  0  0  0  0  0  0
   -2.2750   24.5470  -27.5350 C   0  0  0  0  0  0  0  0  0  0  0  0
   -1.4840   23.4440  -27.7060 C   0  0  0  0  0  0  0  0  0  0  0  0
   -1.6900   22.9890  -28.9910 C   0  0  0  0  0  0  0  0  0  0  0  0
   -1.1670   21.9810  -29.6070 N   0  0  0  0  0  0  0  0  0  0  0  0
   -1.5400   21.6940  -30.9710 C   0  0  0  0  0  0  0  0  0  0  0  0
   -0.5430   21.3090  -31.8440 C   0  0  0  0  0  0  0  0  0  0  0  0
   -0.8960   21.0360  -33.1370 C   0  0  0  0  0  0  0  0  0  0  0  0
   -2.2290   21.1610  -33.4920 C   0  0  0  0  0  0  0  0  0  0  0  0
   -3.1920   21.5510  -32.5800 C   0  0  0  0  0  0  0  0  0  0  0  0
   -4.6170   21.6810  -32.9770 C   0  0  0  0  0  0  0  0  0  0  0  0
   -5.1070   23.0190  -32.7340 N   0  0  0  0  0  0  0  0  0  0  0  0
   -5.6940   23.3130  -31.4970 N   0  0  0  0  0  0  0  0  0  0  0  0
   -6.7050   22.6490  -30.9070 C   0  0  0  0  0  0  0  0  0  0  0  0
   -7.4380   21.4570  -31.4170 C   0  0  0  0  0  0  0  0  0  0  0  0
   -6.9930   23.2350  -29.7160 N   0  0  0  0  0  0  0  0  0  0  0  0
   -6.1560   24.2690  -29.5650 N   0  0  0  0  0  0  0  0  0  0  0  0
   -5.3550   24.3230  -30.6570 C   0  0  0  0  0  0  0  0  0  0  0  0
   -4.4320   25.1750  -30.8710 O   0  0  0  0  0  0  0  0  0  0  0  0
   -2.8190   21.8120  -31.3170 N   0  0  0  0  0  0  0  0  0  0  0  0
   -2.5880   23.8240  -29.5440 N   0  0  0  0  0  0  0  0  0  0  0  0
   -2.9470   24.7530  -28.6960 N   0  0  0  0  0  0  0  0  0  0  0  0
   -2.3194   24.7964  -25.4335 H   0  0  0  0  0  0  0  0  0  0  0  0
   -1.6550   26.1895  -26.3525 H   0  0  0  0  0  0  0  0  0  0  0  0
   -3.4235   25.8749  -26.3525 H   0  0  0  0  0  0  0  0  0  0  0  0
   -0.8094   23.0025  -26.9577 H   0  0  0  0  0  0  0  0  0  0  0  0
    0.5019   21.2244  -31.5108 H   0  0  0  0  0  0  0  0  0  0  0  0
   -0.1416   20.7256  -33.8750 H   0  0  0  0  0  0  0  0  0  0  0  0
   -2.5295   20.9441  -34.5277 H   0  0  0  0  0  0  0  0  0  0  0  0
   -4.7132   21.4527  -34.0487 H   0  0  0  0  0  0  0  0  0  0  0  0
   -5.2118   20.9775  -32.3759 H   0  0  0  0  0  0  0  0  0  0  0  0
   -5.0340   23.7570  -33.4460 H   0  0  0  0  0  0  0  0  0  0  0  0
   -7.8045   20.8610  -30.5682 H   0  0  0  0  0  0  0  0  0  0  0  0
   -8.2905   21.7853  -32.0298 H   0  0  0  0  0  0  0  0  0  0  0  0
   -6.7604   20.8443  -32.0298 H   0  0  0  0  0  0  0  0  0  0  0  0
   -6.1220   24.9320  -28.7410 H   0  0  0  0  0  0  0  0  0  0  0  0
   -2.9750   23.7670  -30.5250 H   0  0  0  0  0  0  0  0  0  0  0  0
   -3.6260   25.5240  -28.8630 H   0  0  0  0  0  0  0  0  0  0  0  0
  1  2  1  0
  2  3  2  0
  3  4  1  0
  4  5  2  0
  5  6  1  0
  6  7  2  0
  7  8  1  0
  8  9  2  0
  9 10  1  0
 10 11  1  0
 11 12  1  0
 12 13  1  0
 13 14  1  0
 14 15  1  0
 14 16  2  0
 16 17  1  0
 17 18  1  0
 18 19  2  0
 10 20  2  0
  4 21  1  0
 21 22  1  0
 22  2  1  0
 20  6  1  0
 18 13  1  0
  1 23  1  0
  1 24  1  0
  1 25  1  0
  3 26  1  0
  7 27  1  0
  8 28  1  0
  9 29  1  0
 11 30  1  0
 11 31  1  0
 12 32  1  0
 15 33  1  0
 15 34  1  0
 15 35  1  0
 17 36  1  0
 21 37  1  0
 22 38  1  0
M  END
>  <smiles>  (41) 
Cc1cc(=Nc2cccc(CNn3c(C)n[nH]c3=O)n2)[nH][nH]1

>  <score_type>  (41) 
oracle

>  <origin>  (41) 
adgpu

>  <m_score__min__energy>  (41) 
-8.1099999999999994

>  <m_primary>  (41) 
energy

$$$$
42:0
     RDKit          3D

 57 60  0  0  0  0  0  0  0  0999 V2000
   -9.1350   18.2020  -31.6940 O   0  0  0  0  0  0  0  0  0  0  0  0
   -8.1360   18.8640  -32.0900 C   0  0  0  0  0  0  0  0  0  0  0  0
   -8.1830   20.3440  -32.0090 C   0  0  0  0  0  0  0  0  0  0  0  0
   -7.0010   21.1040  -31.9300 C   0  0  0  0  0  0  0  0  0  0  0  0
   -7.0610   22.4980  -31.8460 C   0  0  0  0  0  0  0  0  0  0  0  0
   -8.2970   23.1460  -31.8270 C   0  0  0  0  0  0  0  0  0  0  0  0
   -9.4770   22.4020  -31.8860 C   0  0  0  0  0  0  0  0  0  0  0  0
   -9.4230   21.0070  -31.9700 C   0  0  0  0  0  0  0  0  0  0  0  0
   -6.9590   18.1360  -32.6230 C   0  0  0  0  0  0  0  0  0  0  0  0
   -6.4840   18.3820  -33.9230 C   0  0  0  0  0  0  0  0  0  0  0  0
   -5.3820   17.6830  -34.4210 C   0  0  0  0  0  0  0  0  0  0  0  0
   -4.7420   16.7070  -33.6330 C   0  0  0  0  0  0  0  0  0  0  0  0
   -3.6290   15.9760  -34.0800 O   0  0  0  0  0  0  0  0  0  0  0  0
   -2.2700   16.4120  -34.0080 C   0  0  0  0  0  0  0  0  0  0  0  0
   -2.1310   17.6350  -33.0930 C   0  0  0  0  0  0  0  0  0  0  0  0
   -2.3800   18.9440  -33.8540 C   0  0  0  0  0  0  0  0  0  0  0  0
   -2.7690   20.0250  -32.9210 N   0  0  0  0  0  0  0  0  0  0  0  0
   -1.6110   20.8660  -32.5790 C   0  0  0  0  0  0  0  0  0  0  0  0
   -1.9890   21.7750  -31.4090 C   0  0  0  0  0  0  0  0  0  0  0  0
   -3.2810   22.4300  -31.6470 N   0  0  0  0  0  0  0  0  0  0  0  0
   -3.7890   23.3790  -30.6840 C   0  0  0  0  0  0  0  0  0  0  0  0
   -4.6090   24.2660  -31.0450 O   0  0  0  0  0  0  0  0  0  0  0  0
   -3.3100   23.3680  -29.2600 C   0  0  0  0  0  0  0  0  0  0  0  0
   -4.1640   24.1600  -28.2810 C   0  0  0  0  0  0  0  0  0  0  0  0
   -4.2380   22.6450  -28.2950 C   0  0  0  0  0  0  0  0  0  0  0  0
   -3.9300   22.2900  -32.9560 C   0  0  0  0  0  0  0  0  0  0  0  0
   -3.9060   20.8250  -33.4480 C   0  0  0  0  0  0  0  0  0  0  0  0
   -5.2260   16.4520  -32.3450 C   0  0  0  0  0  0  0  0  0  0  0  0
   -6.3270   17.1530  -31.8440 C   0  0  0  0  0  0  0  0  0  0  0  0
   -6.0243   20.5980  -31.9344 H   0  0  0  0  0  0  0  0  0  0  0  0
   -6.1324   23.0854  -31.7948 H   0  0  0  0  0  0  0  0  0  0  0  0
   -8.3415   24.2434  -31.7655 H   0  0  0  0  0  0  0  0  0  0  0  0
  -10.4505   22.9138  -31.8664 H   0  0  0  0  0  0  0  0  0  0  0  0
  -10.3557   20.4249  -32.0058 H   0  0  0  0  0  0  0  0  0  0  0  0
   -6.9845   19.1315  -34.5536 H   0  0  0  0  0  0  0  0  0  0  0  0
   -5.0119   17.8962  -35.4347 H   0  0  0  0  0  0  0  0  0  0  0  0
   -1.6507   15.5941  -33.6112 H   0  0  0  0  0  0  0  0  0  0  0  0
   -1.9386   16.6921  -35.0188 H   0  0  0  0  0  0  0  0  0  0  0  0
   -2.8622   17.5534  -32.2752 H   0  0  0  0  0  0  0  0  0  0  0  0
   -1.1031   17.6558  -32.7019 H   0  0  0  0  0  0  0  0  0  0  0  0
   -1.4599   19.2358  -34.3814 H   0  0  0  0  0  0  0  0  0  0  0  0
   -3.1976   18.7855  -34.5726 H   0  0  0  0  0  0  0  0  0  0  0  0
   -0.7626   20.2275  -32.2917 H   0  0  0  0  0  0  0  0  0  0  0  0
   -1.3233   21.4762  -33.4479 H   0  0  0  0  0  0  0  0  0  0  0  0
   -2.0553   21.1716  -30.4917 H   0  0  0  0  0  0  0  0  0  0  0  0
   -1.2167   22.5514  -31.3050 H   0  0  0  0  0  0  0  0  0  0  0  0
   -2.2366   23.3300  -29.4976 H   0  0  0  0  0  0  0  0  0  0  0  0
   -3.6912   24.6795  -27.4345 H   0  0  0  0  0  0  0  0  0  0  0  0
   -4.8973   24.9748  -28.3720 H   0  0  0  0  0  0  0  0  0  0  0  0
   -3.8188   22.0664  -27.4586 H   0  0  0  0  0  0  0  0  0  0  0  0
   -5.0471   21.9073  -28.4003 H   0  0  0  0  0  0  0  0  0  0  0  0
   -4.9755   22.6220  -32.8737 H   0  0  0  0  0  0  0  0  0  0  0  0
   -3.3787   22.9061  -33.6815 H   0  0  0  0  0  0  0  0  0  0  0  0
   -4.8430   20.3406  -33.1358 H   0  0  0  0  0  0  0  0  0  0  0  0
   -3.7888   20.8600  -34.5412 H   0  0  0  0  0  0  0  0  0  0  0  0
   -4.7348   15.6917  -31.7199 H   0  0  0  0  0  0  0  0  0  0  0  0
   -6.7007   16.9332  -30.8331 H   0  0  0  0  0  0  0  0  0  0  0  0
  1  2  2  0
  2  3  1  0
  3  4  2  0
  4  5  1  0
  5  6  2  0
  6  7  1  0
  7  8  2  0
  2  9  1  0
  9 10  2  0
 10 11  1  0
 11 12  2  0
 12 13  1  0
 13 14  1  0
 14 15  1  0
 15 16  1  0
 16 17  1  0
 17 18  1  0
 18 19  1  0
 19 20  1  0
 20 21  1  0
 21 22  2  0
 21 23  1  0
 23 24  1  0
 24 25  1  0
 20 26  1  0
 26 27  1  0
 12 28  1  0
 28 29  2  0
  8  3  1  0
 29  9  1  0
 27 17  1  0
 25 23  1  0
  4 30  1  0
  5 31  1  0
  6 32  1  0
  7 33  1  0
  8 34  1  0
 10 35  1  0
 11 36  1  0
 14 37  1  0
 14 38  1  0
 15 39  1  0
 15 40  1  0
 16 41  1  0
 16 42  1  0
 18 43  1  0
 18 44  1  0
 19 45  1  0
 19 46  1  0
 23 47  1  0
 24 48  1  0
 24 49  1  0
 25 50  1  0
 25 51  1  0
 26 52  1  0
 26 53  1  0
 27 54  1  0
 27 55  1  0
 28 56  1  0
 29 57  1  0
M  END
>  <UniqueID>  (42) 
39

>  <SMILES>  (42) 
O=C(c1ccccc1)c1ccc(OCCCN2CCN(C(=O)C3CC3)CC2)cc1

>  <Energy>  (42) 
332.0535029092577

>  <Genealogy>  (42) 
O=C(c1ccccc1)c1ccc(OCCCN2CCN(C(=O)C3CC3)CC2)cc1 (3D coordinates assigned)
O=C(c1ccccc1)c1ccc(OCCCN2CCN(C(=O)C3CC3)CC2)cc1 (nonaromatic ring conformer: 332.0535029092577 kcal/mol)

>  <smiles>  (42) 
O=C(c1ccccc1)c1ccc(OCCCN2CCN(C(=O)C3CC3)CC2)cc1

>  <score_type>  (42) 
oracle

>  <origin>  (42) 
adgpu

>  <m_score__min__energy>  (42) 
-9.1899999999999995

>  <m_primary>  (42) 
energy

$$$$
43:0
     RDKit          3D

 47 50  0  0  0  0  0  0  0  0999 V2000
    0.5970   21.9970  -35.9720 C   0  0  0  0  0  0  0  0  0  0  0  0
    0.2700   22.1100  -34.5920 O   0  0  0  0  0  0  0  0  0  0  0  0
   -0.2430   21.0410  -33.8500 C   0  0  0  0  0  0  0  0  0  0  0  0
    0.5960   20.3440  -32.9770 C   0  0  0  0  0  0  0  0  0  0  0  0
    0.0790   19.2830  -32.2330 C   0  0  0  0  0  0  0  0  0  0  0  0
   -1.2650   18.9280  -32.3650 C   0  0  0  0  0  0  0  0  0  0  0  0
   -2.0850   19.6490  -33.2480 C   0  0  0  0  0  0  0  0  0  0  0  0
   -3.5150   19.2940  -33.4220 C   0  0  0  0  0  0  0  0  0  0  0  0
   -3.8490   17.9450  -33.6440 C   0  0  0  0  0  0  0  0  0  0  0  0
   -5.1730   17.5650  -33.8590 C   0  0  0  0  0  0  0  0  0  0  0  0
   -5.4760   16.2610  -34.0790 F   0  0  0  0  0  0  0  0  0  0  0  0
   -6.1820   18.5230  -33.8600 C   0  0  0  0  0  0  0  0  0  0  0  0
   -5.8750   19.8650  -33.6350 C   0  0  0  0  0  0  0  0  0  0  0  0
   -4.5450   20.2750  -33.3920 C   0  0  0  0  0  0  0  0  0  0  0  0
   -4.2160   21.7380  -33.1210 C   0  0  0  0  0  0  0  0  0  0  0  0
   -4.5790   22.1830  -31.7620 N   0  0  0  0  0  0  0  0  0  0  0  0
   -5.9680   22.1780  -31.3640 C   0  0  0  0  0  0  0  0  0  0  0  0
   -6.5600   21.0870  -31.1360 O   0  0  0  0  0  0  0  0  0  0  0  0
   -6.7390   23.4510  -31.2520 C   0  0  0  0  0  0  0  0  0  0  0  0
   -6.1320   24.2710  -30.2190 N   0  0  0  0  0  0  0  0  0  0  0  0
   -4.8060   24.7930  -30.3220 C   0  0  0  0  0  0  0  0  0  0  0  0
   -4.6520   26.0380  -30.4390 O   0  0  0  0  0  0  0  0  0  0  0  0
   -3.6150   23.9170  -30.2240 C   0  0  0  0  0  0  0  0  0  0  0  0
   -2.5230   24.3700  -29.4610 C   0  0  0  0  0  0  0  0  0  0  0  0
   -1.3750   23.5860  -29.3180 C   0  0  0  0  0  0  0  0  0  0  0  0
   -0.2700   24.0610  -28.5260 C   0  0  0  0  0  0  0  0  0  0  0  0
    0.6180   24.4430  -27.8900 N   0  0  0  0  0  0  0  0  0  0  0  0
   -1.3030   22.3410  -29.9420 C   0  0  0  0  0  0  0  0  0  0  0  0
   -2.3690   21.8830  -30.7160 C   0  0  0  0  0  0  0  0  0  0  0  0
   -3.5360   22.6550  -30.8750 C   0  0  0  0  0  0  0  0  0  0  0  0
   -1.5500   20.6760  -33.9650 N   0  0  0  0  0  0  0  0  0  0  0  0
    1.6321   21.6393  -36.0755 H   0  0  0  0  0  0  0  0  0  0  0  0
   -0.0875   21.2833  -36.4538 H   0  0  0  0  0  0  0  0  0  0  0  0
    0.4992   22.9810  -36.4538 H   0  0  0  0  0  0  0  0  0  0  0  0
    1.6538   20.6289  -32.8772 H   0  0  0  0  0  0  0  0  0  0  0  0
    0.7299   18.7264  -31.5427 H   0  0  0  0  0  0  0  0  0  0  0  0
   -1.6777   18.0911  -31.7825 H   0  0  0  0  0  0  0  0  0  0  0  0
   -3.0566   17.1820  -33.6479 H   0  0  0  0  0  0  0  0  0  0  0  0
   -7.2246   18.2213  -34.0387 H   0  0  0  0  0  0  0  0  0  0  0  0
   -6.6799   20.6147  -33.6469 H   0  0  0  0  0  0  0  0  0  0  0  0
   -3.1339   21.8820  -33.2567 H   0  0  0  0  0  0  0  0  0  0  0  0
   -4.8096   22.3382  -33.8263 H   0  0  0  0  0  0  0  0  0  0  0  0
   -6.7127   23.9859  -32.2128 H   0  0  0  0  0  0  0  0  0  0  0  0
   -7.7860   23.2346  -30.9931 H   0  0  0  0  0  0  0  0  0  0  0  0
   -2.5736   25.3535  -28.9710 H   0  0  0  0  0  0  0  0  0  0  0  0
   -0.4036   21.7189  -29.8235 H   0  0  0  0  0  0  0  0  0  0  0  0
   -2.2970   20.9029  -31.2102 H   0  0  0  0  0  0  0  0  0  0  0  0
  1  2  1  0
  2  3  1  0
  3  4  2  0
  4  5  1  0
  5  6  2  0
  6  7  1  0
  7  8  1  0
  8  9  2  0
  9 10  1  0
 10 11  1  0
 10 12  2  0
 12 13  1  0
 13 14  2  0
 14 15  1  0
 15 16  1  0
 16 17  1  0
 17 18  2  0
 17 19  1  0
 19 20  1  0
 20 21  1  0
 21 22  2  0
 21 23  1  0
 23 24  2  0
 24 25  1  0
 25 26  1  0
 26 27  3  0
 25 28  2  0
 28 29  1  0
 29 30  2  0
  7 31  2  0
 31  3  1  0
 14  8  1  0
 30 16  1  0
 30 23  1  0
  1 32  1  0
  1 33  1  0
  1 34  1  0
  4 35  1  0
  5 36  1  0
  6 37  1  0
  9 38  1  0
 12 39  1  0
 13 40  1  0
 15 41  1  0
 15 42  1  0
 19 43  1  0
 19 44  1  0
 24 45  1  0
 28 46  1  0
 29 47  1  0
M  CHG  1  20  -1
M  END
>  <UniqueID>  (43) 
40

>  <SMILES>  (43) 
COc1cccc(-c2cc(F)ccc2CN2C(=O)C[N-]C(=O)c3cc(C#N)ccc32)n1

>  <Energy>  (43) 
68.4471567273565

>  <Genealogy>  (43) 
COc1cccc(-c2cc(F)ccc2CN2C(=O)C[N-]C(=O)c3cc(C#N)ccc32)n1 (protonated)
COc1cccc(-c2cc(F)ccc2CN2C(=O)C[N-]C(=O)c3cc(C#N)ccc32)n1 (3D coordinates assigned)
COc1cccc(-c2cc(F)ccc2CN2C(=O)C[N-]C(=O)c3cc(C#N)ccc32)n1 (nonaromatic ring conformer: 68.4471567273565 kcal/mol)

>  <smiles>  (43) 
COc1cccc(-c2cc(F)ccc2CN2C(=O)CNC(=O)c3cc(C#N)ccc32)n1

>  <score_type>  (43) 
oracle

>  <origin>  (43) 
adgpu

>  <m_score__min__energy>  (43) 
-9.5

>  <m_primary>  (43) 
energy

$$$$
44:0
     RDKit          3D

 37 39  0  0  0  0  0  0  0  0999 V2000
   -2.7776   21.5318  -27.1658 H   0  0  0  0  0  0  0  0  0  0  0  0
   -2.6470   22.4970  -27.6770 C   0  0  0  0  0  0  0  0  0  0  0  0
   -3.3180   22.7500  -28.8330 N   0  0  0  0  0  0  0  0  0  0  0  0
   -3.1810   23.9300  -29.5050 C   0  0  0  0  0  0  0  0  0  0  0  0
   -3.8470   24.1680  -30.5970 N   0  0  0  0  0  0  0  0  0  0  0  0
   -4.7110   23.2580  -31.2970 C   0  0  0  0  0  0  0  0  0  0  0  0
   -6.1110   23.3870  -31.2670 C   0  0  0  0  0  0  0  0  0  0  0  0
   -6.5719   24.2203  -30.7164 H   0  0  0  0  0  0  0  0  0  0  0  0
   -6.9200   22.4620  -31.9330 C   0  0  0  0  0  0  0  0  0  0  0  0
   -8.0127   22.5881  -31.9236 H   0  0  0  0  0  0  0  0  0  0  0  0
   -6.3500   21.3700  -32.6160 C   0  0  0  0  0  0  0  0  0  0  0  0
   -7.1940   20.3690  -33.3970 C   0  0  0  0  0  0  0  0  0  0  0  0
   -7.3999   20.8404  -34.3693 H   0  0  0  0  0  0  0  0  0  0  0  0
   -8.5370   20.1070  -32.6900 C   0  0  0  0  0  0  0  0  0  0  0  0
   -8.9488   21.0693  -32.3518 H   0  0  0  0  0  0  0  0  0  0  0  0
   -9.1987   19.6093  -33.4142 H   0  0  0  0  0  0  0  0  0  0  0  0
   -8.4030   19.1730  -31.4690 C   0  0  0  0  0  0  0  0  0  0  0  0
   -8.2536   19.7927  -30.5725 H   0  0  0  0  0  0  0  0  0  0  0  0
   -9.3257   18.5764  -31.4180 H   0  0  0  0  0  0  0  0  0  0  0  0
   -7.2800   18.2220  -31.5700 N   0  0  0  0  0  0  0  0  0  0  0  0
   -7.5310   17.3550  -31.0370 H   0  0  0  0  0  0  0  0  0  0  0  0
   -6.9930   17.8400  -32.9550 C   0  0  0  0  0  0  0  0  0  0  0  0
   -6.2419   17.0364  -32.9618 H   0  0  0  0  0  0  0  0  0  0  0  0
   -7.9216   17.4911  -33.4303 H   0  0  0  0  0  0  0  0  0  0  0  0
   -6.4520   19.0470  -33.7390 C   0  0  0  0  0  0  0  0  0  0  0  0
   -5.3852   19.1711  -33.5011 H   0  0  0  0  0  0  0  0  0  0  0  0
   -6.6108   18.8453  -34.8086 H   0  0  0  0  0  0  0  0  0  0  0  0
   -4.9500   21.2400  -32.6260 C   0  0  0  0  0  0  0  0  0  0  0  0
   -4.4855   20.4010  -33.1648 H   0  0  0  0  0  0  0  0  0  0  0  0
   -4.1420   22.1650  -31.9590 C   0  0  0  0  0  0  0  0  0  0  0  0
   -3.0500   22.0325  -31.9546 H   0  0  0  0  0  0  0  0  0  0  0  0
   -2.3400   24.9230  -28.9840 C   0  0  0  0  0  0  0  0  0  0  0  0
   -2.2303   25.8854  -29.5053 H   0  0  0  0  0  0  0  0  0  0  0  0
   -1.6420   24.6820  -27.7980 C   0  0  0  0  0  0  0  0  0  0  0  0
   -0.9750   25.4528  -27.3846 H   0  0  0  0  0  0  0  0  0  0  0  0
   -1.7930   23.4610  -27.1390 C   0  0  0  0  0  0  0  0  0  0  0  0
   -1.2453   23.2607  -26.2063 H   0  0  0  0  0  0  0  0  0  0  0  0
  1  2  1  0
  2  3  1  0
  3  4  1  0
  4  5  2  0
  5  6  1  0
  6  7  2  0
  7  8  1  0
  7  9  1  0
  9 10  1  0
  9 11  2  0
 11 12  1  0
 12 13  1  0
 12 14  1  0
 14 15  1  0
 14 16  1  0
 14 17  1  0
 17 18  1  0
 17 19  1  0
 17 20  1  0
 20 21  1  0
 20 22  1  0
 22 23  1  0
 22 24  1  0
 22 25  1  0
 25 26  1  0
 25 27  1  0
 11 28  1  0
 28 29  1  0
 28 30  2  0
 30 31  1  0
  4 32  1  0
 32 33  1  0
 32 34  2  0
 34 35  1  0
 34 36  1  0
 36 37  1  0
 36  2  2  0
 30  6  1  0
 25 12  1  0
M  CHG  1   3  -1
M  END
>  <UniqueID>  (44) 
41

>  <SMILES>  (44) 
c1cc/c(=N/c2ccc(C3CCNCC3)cc2)[n-]c1

>  <Energy>  (44) 
53.17374576722959

>  <Genealogy>  (44) 
c1ccc(=Nc2ccc(C3CCNCC3)cc2)[n-]c1 (protonated)
c1cc/c(=N/c2ccc(C3CCNCC3)cc2)[n-]c1 (cis-trans isomerization)
c1cc/c(=N/c2ccc(C3CCNCC3)cc2)[n-]c1 (3D coordinates assigned)
c1cc/c(=N/c2ccc(C3CCNCC3)cc2)[n-]c1 (nonaromatic ring conformer: 53.17374576722959 kcal/mol)

>  <smiles>  (44) 
c1ccc(=Nc2ccc(C3CCNCC3)cc2)[nH]c1

>  <score_type>  (44) 
oracle

>  <origin>  (44) 
adgpu

>  <m_score__min__energy>  (44) 
-8.0700000000000003

>  <m_primary>  (44) 
energy

$$$$
45:0
     RDKit          3D

 45 48  0  0  0  0  0  0  0  0999 V2000
   -3.4860   21.3970  -27.8370 C   0  0  0  0  0  0  0  0  0  0  0  0
   -2.5990   22.5520  -28.2250 C   0  0  0  0  0  0  0  0  0  0  0  0
   -1.2200   22.3260  -28.3790 C   0  0  0  0  0  0  0  0  0  0  0  0
   -0.3580   23.3730  -28.7100 C   0  0  0  0  0  0  0  0  0  0  0  0
   -0.8600   24.6600  -28.8870 C   0  0  0  0  0  0  0  0  0  0  0  0
   -2.2270   24.9040  -28.7430 C   0  0  0  0  0  0  0  0  0  0  0  0
   -3.1130   23.8610  -28.4220 C   0  0  0  0  0  0  0  0  0  0  0  0
   -4.5880   24.1890  -28.3160 C   0  0  0  0  0  0  0  0  0  0  0  0
   -5.2140   24.9300  -29.8650 S   0  0  0  0  0  0  0  0  0  0  0  0
   -4.6940   23.5680  -30.9070 C   0  0  0  0  0  0  0  0  0  0  0  0
   -3.4470   23.3040  -31.2060 O   0  0  0  0  0  0  0  0  0  0  0  0
   -3.4580   22.2320  -31.9650 C   0  0  0  0  0  0  0  0  0  0  0  0
   -2.2430   21.6090  -32.4950 C   0  0  0  0  0  0  0  0  0  0  0  0
   -2.1670   20.7990  -33.6110 C   0  0  0  0  0  0  0  0  0  0  0  0
   -0.8390   20.4500  -33.7230 C   0  0  0  0  0  0  0  0  0  0  0  0
   -0.1900   21.0630  -32.6690 C   0  0  0  0  0  0  0  0  0  0  0  0
   -1.0550   21.7480  -31.9560 O   0  0  0  0  0  0  0  0  0  0  0  0
   -4.7030   21.7600  -32.1950 N   0  0  0  0  0  0  0  0  0  0  0  0
   -5.4850   22.6210  -31.5190 C   0  0  0  0  0  0  0  0  0  0  0  0
   -7.2310   22.4730  -31.4130 S   0  0  0  0  0  0  0  0  0  0  0  0
   -7.6810   22.8380  -30.0260 O   0  0  0  0  0  0  0  0  0  0  0  0
   -7.8670   23.4200  -32.3910 O   0  0  0  0  0  0  0  0  0  0  0  0
   -7.7200   20.8140  -31.7450 C   0  0  0  0  0  0  0  0  0  0  0  0
   -9.0450   20.5410  -32.1150 C   0  0  0  0  0  0  0  0  0  0  0  0
   -9.4490   19.2250  -32.3630 C   0  0  0  0  0  0  0  0  0  0  0  0
   -8.5320   18.1770  -32.2380 C   0  0  0  0  0  0  0  0  0  0  0  0
   -7.2120   18.4430  -31.8650 C   0  0  0  0  0  0  0  0  0  0  0  0
   -6.8040   19.7580  -31.6210 C   0  0  0  0  0  0  0  0  0  0  0  0
   -3.5392   21.3278  -26.7405 H   0  0  0  0  0  0  0  0  0  0  0  0
   -4.4954   21.5572  -28.2437 H   0  0  0  0  0  0  0  0  0  0  0  0
   -3.0708   20.4631  -28.2437 H   0  0  0  0  0  0  0  0  0  0  0  0
   -0.8157   21.3129  -28.2371 H   0  0  0  0  0  0  0  0  0  0  0  0
    0.7184   23.1814  -28.8311 H   0  0  0  0  0  0  0  0  0  0  0  0
   -0.1785   25.4853  -29.1406 H   0  0  0  0  0  0  0  0  0  0  0  0
   -2.6151   25.9238  -28.8823 H   0  0  0  0  0  0  0  0  0  0  0  0
   -5.1471   23.2645  -28.1091 H   0  0  0  0  0  0  0  0  0  0  0  0
   -4.7253   24.9161  -27.5020 H   0  0  0  0  0  0  0  0  0  0  0  0
   -2.9929   20.4962  -34.2714 H   0  0  0  0  0  0  0  0  0  0  0  0
   -0.3866   19.8117  -34.4962 H   0  0  0  0  0  0  0  0  0  0  0  0
    0.8872   20.9889  -32.4587 H   0  0  0  0  0  0  0  0  0  0  0  0
   -9.7685   21.3641  -32.2104 H   0  0  0  0  0  0  0  0  0  0  0  0
  -10.4881   19.0146  -32.6563 H   0  0  0  0  0  0  0  0  0  0  0  0
   -8.8500   17.1423  -32.4335 H   0  0  0  0  0  0  0  0  0  0  0  0
   -6.4929   17.6169  -31.7632 H   0  0  0  0  0  0  0  0  0  0  0  0
   -5.7632   19.9651  -31.3313 H   0  0  0  0  0  0  0  0  0  0  0  0
  1  2  1  0
  2  3  2  0
  3  4  1  0
  4  5  2  0
  5  6  1  0
  6  7  2  0
  7  8  1  0
  8  9  1  0
  9 10  1  0
 10 11  1  0
 11 12  1  0
 12 13  1  0
 13 14  2  0
 14 15  1  0
 15 16  2  0
 16 17  1  0
 12 18  2  0
 18 19  1  0
 19 20  1  0
 20 21  2  0
 20 22  2  0
 20 23  1  0
 23 24  2  0
 24 25  1  0
 25 26  2  0
 26 27  1  0
 27 28  2  0
  7  2  1  0
 19 10  2  0
 28 23  1  0
 17 13  1  0
  1 29  1  0
  1 30  1  0
  1 31  1  0
  3 32  1  0
  4 33  1  0
  5 34  1  0
  6 35  1  0
  8 36  1  0
  8 37  1  0
 14 38  1  0
 15 39  1  0
 16 40  1  0
 24 41  1  0
 25 42  1  0
 26 43  1  0
 27 44  1  0
 28 45  1  0
M  END
>  <UniqueID>  (45) 
42

>  <SMILES>  (45) 
Cc1ccccc1CSc1oc(-c2ccco2)nc1S(=O)(=O)c1ccccc1

>  <Energy>  (45) 
101.21678463263632

>  <Genealogy>  (45) 
Cc1ccccc1CSc1oc(-c2ccco2)nc1S(=O)(=O)c1ccccc1 (3D coordinates assigned)
Cc1ccccc1CSc1oc(-c2ccco2)nc1S(=O)(=O)c1ccccc1 (optimized conformer: 101.21678463263632 kcal/mol)

>  <smiles>  (45) 
Cc1ccccc1CSc1oc(-c2ccco2)nc1S(=O)(=O)c1ccccc1

>  <score_type>  (45) 
oracle

>  <origin>  (45) 
adgpu

>  <m_score__min__energy>  (45) 
-9.2300000000000004

>  <m_primary>  (45) 
energy

$$$$
46:0
     RDKit          3D

 57 59  0  0  0  0  0  0  0  0999 V2000
    0.4410   19.9090  -29.2170 C   0  0  0  0  0  0  0  0  0  0  0  0
   -0.7450   20.6870  -28.7300 C   0  0  0  0  0  0  0  0  0  0  0  0
   -1.8230   20.0290  -28.1270 C   0  0  0  0  0  0  0  0  0  0  0  0
   -2.9420   20.7480  -27.7100 C   0  0  0  0  0  0  0  0  0  0  0  0
   -3.0110   22.1400  -27.8930 C   0  0  0  0  0  0  0  0  0  0  0  0
   -4.2460   22.8750  -27.4410 C   0  0  0  0  0  0  0  0  0  0  0  0
   -1.9320   22.8100  -28.5240 C   0  0  0  0  0  0  0  0  0  0  0  0
   -1.9680   24.5560  -28.8260 S   0  0  0  0  0  0  0  0  0  0  0  0
   -0.6220   24.9970  -29.3280 O   0  0  0  0  0  0  0  0  0  0  0  0
   -2.2710   25.2630  -27.5350 O   0  0  0  0  0  0  0  0  0  0  0  0
   -3.1550   24.9150  -30.0610 N   0  0  0  0  0  0  0  0  0  0  0  0
   -4.1870   23.8920  -30.3190 C   0  0  2  0  0  0  0  0  0  0  0  0
   -3.7060   22.7360  -31.1690 C   0  0  0  0  0  0  0  0  0  0  0  0
   -2.5140   22.7300  -31.5770 O   0  0  0  0  0  0  0  0  0  0  0  0
   -4.5610   21.6120  -31.4170 N   0  0  0  0  0  0  0  0  0  0  0  0
   -4.3600   20.5660  -32.3810 C   0  0  0  0  0  0  0  0  0  0  0  0
   -3.0730   20.2420  -32.8500 C   0  0  0  0  0  0  0  0  0  0  0  0
   -2.8960   19.2090  -33.7710 C   0  0  0  0  0  0  0  0  0  0  0  0
   -3.9960   18.4950  -34.2440 C   0  0  0  0  0  0  0  0  0  0  0  0
   -5.2820   18.8240  -33.8110 C   0  0  0  0  0  0  0  0  0  0  0  0
   -5.4790   19.8700  -32.8920 C   0  0  0  0  0  0  0  0  0  0  0  0
   -6.8580   20.2090  -32.4630 C   0  0  0  0  0  0  0  0  0  0  0  0
   -7.7700   19.1900  -32.1360 C   0  0  0  0  0  0  0  0  0  0  0  0
   -9.0690   19.5090  -31.7280 C   0  0  0  0  0  0  0  0  0  0  0  0
   -9.4690   20.8460  -31.6500 C   0  0  0  0  0  0  0  0  0  0  0  0
   -8.5750   21.8650  -31.9830 C   0  0  0  0  0  0  0  0  0  0  0  0
   -7.2760   21.5500  -32.3930 C   0  0  0  0  0  0  0  0  0  0  0  0
   -5.5460   24.5210  -30.7500 C   0  0  0  0  0  0  0  0  0  0  0  0
   -5.6610   26.0280  -30.4720 C   0  0  0  0  0  0  0  0  0  0  0  0
   -6.7220   23.7870  -30.0860 C   0  0  0  0  0  0  0  0  0  0  0  0
   -0.8110   22.0710  -28.9380 C   0  0  0  0  0  0  0  0  0  0  0  0
    1.0126   19.5341  -28.3552 H   0  0  0  0  0  0  0  0  0  0  0  0
    0.0975   19.0602  -29.8265 H   0  0  0  0  0  0  0  0  0  0  0  0
    1.0828   20.5621  -29.8265 H   0  0  0  0  0  0  0  0  0  0  0  0
   -1.7871   18.9393  -27.9814 H   0  0  0  0  0  0  0  0  0  0  0  0
   -3.7805   20.2201  -27.2323 H   0  0  0  0  0  0  0  0  0  0  0  0
   -4.2792   22.8948  -26.3417 H   0  0  0  0  0  0  0  0  0  0  0  0
   -4.2209   23.9053  -27.8257 H   0  0  0  0  0  0  0  0  0  0  0  0
   -5.1396   22.3616  -27.8257 H   0  0  0  0  0  0  0  0  0  0  0  0
   -4.3979   23.4078  -29.3541 H   0  0  0  0  0  0  0  0  0  0  0  0
   -2.2012   20.8068  -32.4881 H   0  0  0  0  0  0  0  0  0  0  0  0
   -1.8854   18.9572  -34.1250 H   0  0  0  0  0  0  0  0  0  0  0  0
   -3.8507   17.6717  -34.9589 H   0  0  0  0  0  0  0  0  0  0  0  0
   -6.1471   18.2610  -34.1914 H   0  0  0  0  0  0  0  0  0  0  0  0
   -7.4601   18.1366  -32.2014 H   0  0  0  0  0  0  0  0  0  0  0  0
   -9.7762   18.7075  -31.4684 H   0  0  0  0  0  0  0  0  0  0  0  0
  -10.4900   21.0956  -31.3257 H   0  0  0  0  0  0  0  0  0  0  0  0
   -8.8927   22.9164  -31.9228 H   0  0  0  0  0  0  0  0  0  0  0  0
   -6.5770   22.3555  -32.6623 H   0  0  0  0  0  0  0  0  0  0  0  0
   -5.5855   24.3988  -31.8425 H   0  0  0  0  0  0  0  0  0  0  0  0
   -5.6742   26.2005  -29.3857 H   0  0  0  0  0  0  0  0  0  0  0  0
   -4.8000   26.5494  -30.9157 H   0  0  0  0  0  0  0  0  0  0  0  0
   -6.5911   26.4128  -30.9157 H   0  0  0  0  0  0  0  0  0  0  0  0
   -6.6225   23.8491  -28.9923 H   0  0  0  0  0  0  0  0  0  0  0  0
   -7.6681   24.2552  -30.3953 H   0  0  0  0  0  0  0  0  0  0  0  0
   -6.7170   22.7314  -30.3953 H   0  0  0  0  0  0  0  0  0  0  0  0
    0.0261   22.5860  -29.4321 H   0  0  0  0  0  0  0  0  0  0  0  0
  1  2  1  0
  2  3  2  0
  3  4  1  0
  4  5  2  0
  5  6  1  0
  5  7  1  0
  7  8  1  0
  8  9  2  0
  8 10  2  0
  8 11  1  0
 11 12  1  0
 12 13  1  0
 13 14  2  0
 13 15  1  0
 15 16  1  0
 16 17  2  0
 17 18  1  0
 18 19  2  0
 19 20  1  0
 20 21  2  0
 21 22  1  0
 22 23  2  0
 23 24  1  0
 24 25  2  0
 25 26  1  0
 26 27  2  0
 12 28  1  0
 28 29  1  0
 28 30  1  0
  7 31  2  0
 31  2  1  0
 21 16  1  0
 27 22  1  0
  1 32  1  0
  1 33  1  0
  1 34  1  0
  3 35  1  0
  4 36  1  0
  6 37  1  0
  6 38  1  0
  6 39  1  0
 12 40  1  1
 17 41  1  0
 18 42  1  0
 19 43  1  0
 20 44  1  0
 23 45  1  0
 24 46  1  0
 25 47  1  0
 26 48  1  0
 27 49  1  0
 28 50  1  0
 29 51  1  0
 29 52  1  0
 29 53  1  0
 30 54  1  0
 30 55  1  0
 30 56  1  0
 31 57  1  0
M  CHG  2  11  -1  15  -1
M  END
>  <UniqueID>  (46) 
43

>  <SMILES>  (46) 
Cc1ccc(C)c(S(=O)(=O)[N-][C@H](C(=O)[N-]c2ccccc2-c2ccccc2)C(C)C)c1

>  <Energy>  (46) 
73.142592860897

>  <Genealogy>  (46) 
Cc1ccc(C)c(S(=O)(=O)[N-]C(C(=O)[N-]c2ccccc2-c2ccccc2)C(C)C)c1 (protonated)
Cc1ccc(C)c(S(=O)(=O)[N-][C@H](C(=O)[N-]c2ccccc2-c2ccccc2)C(C)C)c1 (chirality)
Cc1ccc(C)c(S(=O)(=O)[N-][C@H](C(=O)[N-]c2ccccc2-c2ccccc2)C(C)C)c1 (3D coordinates assigned)
Cc1ccc(C)c(S(=O)(=O)[N-][C@H](C(=O)[N-]c2ccccc2-c2ccccc2)C(C)C)c1 (optimized conformer: 73.142592860897 kcal/mol)

>  <smiles>  (46) 
Cc1ccc(C)c(S(=O)(=O)NC(C(=O)Nc2ccccc2-c2ccccc2)C(C)C)c1

>  <score_type>  (46) 
oracle

>  <origin>  (46) 
adgpu

>  <m_score__min__energy>  (46) 
-12.9

>  <m_primary>  (46) 
energy

$$$$
47:0
     RDKit          3D

 36 38  0  0  1  0  0  0  0  0999 V2000
   -2.8770   16.4600  -33.3740 N   0  0  0  0  0  0  0  0  0  0  0  0
   -4.2180   16.9260  -33.2510 C   0  0  0  0  0  0  0  0  0  0  0  0
   -5.1250   16.3820  -32.3670 C   0  0  0  0  0  0  0  0  0  0  0  0
   -4.6640   15.3220  -31.5740 O   0  0  0  0  0  0  0  0  0  0  0  0
   -6.4080   16.8630  -32.2830 C   0  0  0  0  0  0  0  0  0  0  0  0
   -6.8560   17.9160  -33.0760 C   0  0  0  0  0  0  0  0  0  0  0  0
   -8.1980   18.3890  -32.9600 N   0  0  0  0  0  0  0  0  0  0  0  0
   -8.4620   19.5730  -32.5390 C   0  0  0  0  0  0  0  0  0  0  0  0
   -7.4450   20.4520  -32.1750 C   0  0  0  0  0  0  0  0  0  0  0  0
   -7.6970   21.7300  -31.7190 C   0  0  0  0  0  0  0  0  0  0  0  0
   -6.6220   22.6300  -31.3460 C   0  0  0  0  0  0  0  0  0  0  0  0
   -5.3060   22.3570  -31.6610 C   0  0  0  0  0  0  0  0  0  0  0  0
   -4.2650   23.2240  -31.3040 C   0  0  0  0  0  0  0  0  0  0  0  0
   -4.5100   24.3900  -30.6210 C   0  0  0  0  0  0  0  0  0  0  0  0
   -3.5270   25.2880  -30.2380 O   0  0  0  0  0  0  0  0  0  0  0  0
   -5.8190   24.6720  -30.3010 C   0  0  0  0  0  0  0  0  0  0  0  0
   -6.8510   23.8090  -30.6580 C   0  0  0  0  0  0  0  0  0  0  0  0
   -8.9820   22.1010  -31.6380 N   0  0  0  0  0  0  0  0  0  0  0  0
  -10.0070   21.2670  -31.9850 C   0  0  0  0  0  0  0  0  0  0  0  0
   -9.7200   20.0140  -32.4300 N   0  0  0  0  0  0  0  0  0  0  0  0
   -5.9460   18.4610  -33.9610 C   0  0  0  0  0  0  0  0  0  0  0  0
   -4.6530   17.9820  -34.0520 C   0  0  0  0  0  0  0  0  0  0  0  0
   -3.7960   18.5490  -34.9350 F   0  0  0  0  0  0  0  0  0  0  0  0
   -2.6160   15.6570  -32.7490 H   0  0  0  0  0  0  0  0  0  0  0  0
   -2.1760   16.8550  -34.0200 H   0  0  0  0  0  0  0  0  0  0  0  0
   -5.3330   15.0040  -30.8660 H   0  0  0  0  0  0  0  0  0  0  0  0
   -7.1039   16.4020  -31.5667 H   0  0  0  0  0  0  0  0  0  0  0  0
   -6.4009   20.1148  -32.2539 H   0  0  0  0  0  0  0  0  0  0  0  0
   -5.0680   21.4326  -32.2077 H   0  0  0  0  0  0  0  0  0  0  0  0
   -3.2310   22.9657  -31.5761 H   0  0  0  0  0  0  0  0  0  0  0  0
   -2.8440   25.6780  -30.8500 H   0  0  0  0  0  0  0  0  0  0  0  0
   -6.0536   25.5965  -29.7530 H   0  0  0  0  0  0  0  0  0  0  0  0
   -7.8832   24.0728  -30.3842 H   0  0  0  0  0  0  0  0  0  0  0  0
   -9.2900   23.0410  -31.3080 H   0  0  0  0  0  0  0  0  0  0  0  0
  -11.0510   21.6044  -31.9056 H   0  0  0  0  0  0  0  0  0  0  0  0
   -6.2575   19.2946  -34.6075 H   0  0  0  0  0  0  0  0  0  0  0  0
  1  2  1  0
  2  3  2  0
  3  4  1  0
  3  5  1  0
  5  6  2  0
  6  7  1  0
  7  8  2  0
  8  9  1  0
  9 10  2  0
 10 11  1  0
 11 12  2  0
 12 13  1  0
 13 14  2  0
 14 15  1  0
 14 16  1  0
 16 17  2  0
 10 18  1  0
 18 19  1  0
 19 20  2  0
  6 21  1  0
 21 22  2  0
 22 23  1  0
 22  2  1  0
 20  8  1  0
 17 11  1  0
  1 24  1  0
  1 25  1  0
  4 26  1  0
  5 27  1  0
  9 28  1  0
 12 29  1  0
 13 30  1  0
 15 31  1  0
 16 32  1  0
 17 33  1  0
 18 34  1  0
 19 35  1  0
 21 36  1  0
M  END
>  <smiles>  (47) 
Nc1c(O)cc(N=c2cc(-c3ccc(O)cc3)[nH]cn2)cc1F

>  <score_type>  (47) 
oracle

>  <origin>  (47) 
adgpu

>  <m_score__min__energy>  (47) 
-8.4000000000000004

>  <m_primary>  (47) 
energy

$$$$
48:0
     RDKit          3D

 53 56  0  0  0  0  0  0  0  0999 V2000
   -5.6512   26.7106  -30.1818 H   0  0  0  0  0  0  0  0  0  0  0  0
   -5.2840   25.7160  -30.4750 C   0  0  0  0  0  0  0  0  0  0  0  0
   -4.0620   25.2940  -30.0590 N   0  0  0  0  0  0  0  0  0  0  0  0
   -3.5610   24.0750  -30.4040 C   0  0  0  0  0  0  0  0  0  0  0  0
   -2.4000   23.6700  -29.9740 N   0  0  0  0  0  0  0  0  0  0  0  0
   -1.4520   24.3920  -29.1680 C   0  0  0  0  0  0  0  0  0  0  0  0
   -1.3420   25.6350  -29.3390 O   0  0  0  0  0  0  0  0  0  0  0  0
   -0.5850   23.7220  -28.1400 C   0  0  0  0  0  0  0  0  0  0  0  0
   -0.2365   22.9080  -28.7926 H   0  0  0  0  0  0  0  0  0  0  0  0
    0.0800   24.6660  -27.1440 C   0  0  0  0  0  0  0  0  0  0  0  0
    1.0848   24.4396  -26.7579 H   0  0  0  0  0  0  0  0  0  0  0  0
    0.3164   25.7402  -27.1283 H   0  0  0  0  0  0  0  0  0  0  0  0
   -1.1060   23.8210  -26.7160 C   0  0  0  0  0  0  0  0  0  0  0  0
   -0.9602   22.9832  -26.0183 H   0  0  0  0  0  0  0  0  0  0  0  0
   -2.0849   24.0314  -26.2605 H   0  0  0  0  0  0  0  0  0  0  0  0
   -4.3260   23.2210  -31.2070 C   0  0  0  0  0  0  0  0  0  0  0  0
   -3.9380   22.2303  -31.4861 H   0  0  0  0  0  0  0  0  0  0  0  0
   -5.5920   23.6350  -31.6550 C   0  0  0  0  0  0  0  0  0  0  0  0
   -6.4110   22.8030  -32.4310 O   0  0  0  0  0  0  0  0  0  0  0  0
   -6.3340   21.4030  -32.4730 C   0  0  0  0  0  0  0  0  0  0  0  0
   -7.5180   20.6610  -32.4170 C   0  0  0  0  0  0  0  0  0  0  0  0
   -8.4838   21.1797  -32.3266 H   0  0  0  0  0  0  0  0  0  0  0  0
   -7.4830   19.2660  -32.4750 C   0  0  0  0  0  0  0  0  0  0  0  0
   -8.4179   18.6916  -32.3974 H   0  0  0  0  0  0  0  0  0  0  0  0
   -6.2590   18.5920  -32.6320 C   0  0  0  0  0  0  0  0  0  0  0  0
   -6.1890   17.1550  -32.6840 N   0  0  0  0  0  0  0  0  0  0  0  0
   -6.4070   16.6250  -31.8080 H   0  0  0  0  0  0  0  0  0  0  0  0
   -5.7600   16.4030  -33.8320 C   0  0  0  0  0  0  0  0  0  0  0  0
   -5.1990   16.9790  -34.8020 O   0  0  0  0  0  0  0  0  0  0  0  0
   -5.9890   14.9200  -33.8890 C   0  0  0  0  0  0  0  0  0  0  0  0
   -6.0502   14.6058  -34.9414 H   0  0  0  0  0  0  0  0  0  0  0  0
   -6.9271   14.6900  -33.3627 H   0  0  0  0  0  0  0  0  0  0  0  0
   -4.8670   14.1740  -33.2170 C   0  0  0  0  0  0  0  0  0  0  0  0
   -4.8790   13.9830  -31.8270 C   0  0  0  0  0  0  0  0  0  0  0  0
   -5.7028   14.3939  -31.2249 H   0  0  0  0  0  0  0  0  0  0  0  0
   -3.8490   13.2730  -31.2040 C   0  0  0  0  0  0  0  0  0  0  0  0
   -3.8640   13.1324  -30.1131 H   0  0  0  0  0  0  0  0  0  0  0  0
   -2.7910   12.7360  -31.9650 C   0  0  0  0  0  0  0  0  0  0  0  0
   -1.7340   12.0250  -31.3790 O   0  0  0  0  0  0  0  0  0  0  0  0
   -0.4170   12.5390  -31.2070 C   0  0  0  0  0  0  0  0  0  0  0  0
   -0.1946   12.6258  -30.1332 H   0  0  0  0  0  0  0  0  0  0  0  0
    0.3070   11.8574  -31.6775 H   0  0  0  0  0  0  0  0  0  0  0  0
   -0.3461   13.5308  -31.6775 H   0  0  0  0  0  0  0  0  0  0  0  0
   -2.7900   12.9170  -33.3540 C   0  0  0  0  0  0  0  0  0  0  0  0
   -1.7820   12.4020  -34.1030 F   0  0  0  0  0  0  0  0  0  0  0  0
   -3.8230   13.6250  -33.9780 C   0  0  0  0  0  0  0  0  0  0  0  0
   -3.8170   13.7521  -35.0706 H   0  0  0  0  0  0  0  0  0  0  0  0
   -5.0730   19.3380  -32.6810 C   0  0  0  0  0  0  0  0  0  0  0  0
   -4.1070   18.8203  -32.7746 H   0  0  0  0  0  0  0  0  0  0  0  0
   -5.1070   20.7330  -32.6120 C   0  0  0  0  0  0  0  0  0  0  0  0
   -4.1709   21.3081  -32.6666 H   0  0  0  0  0  0  0  0  0  0  0  0
   -6.0740   24.8890  -31.2740 C   0  0  0  0  0  0  0  0  0  0  0  0
   -7.0697   25.2225  -31.6016 H   0  0  0  0  0  0  0  0  0  0  0  0
  1  2  1  0
  2  3  1  0
  3  4  1  0
  4  5  2  0
  5  6  1  0
  6  7  2  0
  6  8  1  0
  8  9  1  0
  8 10  1  0
 10 11  1  0
 10 12  1  0
 10 13  1  0
 13 14  1  0
 13 15  1  0
  4 16  1  0
 16 17  1  0
 16 18  2  0
 18 19  1  0
 19 20  1  0
 20 21  2  0
 21 22  1  0
 21 23  1  0
 23 24  1  0
 23 25  2  0
 25 26  1  0
 26 27  1  0
 26 28  1  0
 28 29  2  0
 28 30  1  0
 30 31  1  0
 30 32  1  0
 30 33  1  0
 33 34  2  0
 34 35  1  0
 34 36  1  0
 36 37  1  0
 36 38  2  0
 38 39  1  0
 39 40  1  0
 40 41  1  0
 40 42  1  0
 40 43  1  0
 38 44  1  0
 44 45  1  0
 44 46  2  0
 46 47  1  0
 25 48  1  0
 48 49  1  0
 48 50  2  0
 50 51  1  0
 18 52  1  0
 52 53  1  0
 52  2  2  0
 13  8  1  0
 50 20  1  0
 46 33  1  0
M  CHG  1   3  -1
M  END
>  <UniqueID>  (48) 
44

>  <SMILES>  (48) 
COc1ccc(CC(=O)Nc2ccc(Oc3cc[n-]/c(=N\C(=O)C4CC4)c3)cc2)cc1F

>  <Energy>  (48) 
332.4466278518426

>  <Genealogy>  (48) 
COc1ccc(CC(=O)Nc2ccc(Oc3cc[n-]c(=NC(=O)C4CC4)c3)cc2)cc1F (protonated)
COc1ccc(CC(=O)Nc2ccc(Oc3cc[n-]/c(=N\C(=O)C4CC4)c3)cc2)cc1F (cis-trans isomerization)
COc1ccc(CC(=O)Nc2ccc(Oc3cc[n-]/c(=N\C(=O)C4CC4)c3)cc2)cc1F (3D coordinates assigned)
COc1ccc(CC(=O)Nc2ccc(Oc3cc[n-]/c(=N\C(=O)C4CC4)c3)cc2)cc1F (nonaromatic ring conformer: 332.4466278518426 kcal/mol)

>  <smiles>  (48) 
COc1ccc(CC(=O)Nc2ccc(Oc3cc[nH]c(=NC(=O)C4CC4)c3)cc2)cc1F

>  <score_type>  (48) 
oracle

>  <origin>  (48) 
adgpu

>  <m_score__min__energy>  (48) 
-9.5199999999999996

>  <m_primary>  (48) 
energy

$$$$
