0:0
     RDKit          3D

 53 56  0  0  0  0  0  0  0  0999 V2000
   -6.8540   25.5890  -29.7590 O   0  0  0  0  0  0  0  0  0  0  0  0
   -5.7490   24.6540  -30.1480 S   0  0  0  0  0  0  0  0  0  0  0  0
   -4.8210   25.3530  -31.0960 O   0  0  0  0  0  0  0  0  0  0  0  0
   -4.8700   24.1770  -28.7340 N   0  0  0  0  0  0  0  0  0  0  0  0
   -3.7520   23.2820  -28.7710 C   0  0  0  0  0  0  0  0  0  0  0  0
   -3.8790   21.9600  -28.3190 C   0  0  0  0  0  0  0  0  0  0  0  0
   -2.7500   21.1470  -28.1820 C   0  0  0  0  0  0  0  0  0  0  0  0
   -1.4870   21.6360  -28.5450 C   0  0  0  0  0  0  0  0  0  0  0  0
   -1.3680   22.9260  -29.0810 C   0  0  0  0  0  0  0  0  0  0  0  0
   -2.4910   23.7530  -29.1880 C   0  0  0  0  0  0  0  0  0  0  0  0
   -2.3290   25.0420  -29.6860 O   0  0  0  0  0  0  0  0  0  0  0  0
   -0.2920   20.7280  -28.4100 C   0  0  0  0  0  0  0  0  0  0  0  0
   -0.3230   19.9070  -27.0980 C   0  0  0  0  0  0  0  0  0  0  0  0
   -1.7410   19.5510  -26.5760 C   0  0  0  0  0  0  0  0  0  0  0  0
   -2.8500   19.7570  -27.6170 C   0  0  0  0  0  0  0  0  0  0  0  0
   -6.4540   23.2240  -30.9020 C   0  0  0  0  0  0  0  0  0  0  0  0
   -5.6780   22.0810  -31.1380 C   0  0  0  0  0  0  0  0  0  0  0  0
   -6.2830   20.9010  -31.5770 C   0  0  0  0  0  0  0  0  0  0  0  0
   -7.6670   20.8540  -31.7900 C   0  0  0  0  0  0  0  0  0  0  0  0
   -8.4380   19.3480  -32.2960 S   0  0  0  0  0  0  0  0  0  0  0  0
   -9.6320   19.6680  -33.1550 O   0  0  0  0  0  0  0  0  0  0  0  0
   -8.9250   18.6120  -31.0790 O   0  0  0  0  0  0  0  0  0  0  0  0
   -7.3430   18.3270  -33.1920 N   0  0  0  0  0  0  0  0  0  0  0  0
   -6.4650   19.1410  -34.0520 C   0  0  0  0  0  0  0  0  0  0  0  0
   -5.2690   18.3130  -34.5630 C   0  0  0  0  0  0  0  0  0  0  0  0
   -5.5350   16.9290  -34.4570 O   0  0  0  0  0  0  0  0  0  0  0  0
   -5.6370   16.5530  -33.0930 C   0  0  0  0  0  0  0  0  0  0  0  0
   -6.5420   17.5010  -32.2770 C   0  0  0  0  0  0  0  0  0  0  0  0
   -8.4370   22.0050  -31.5810 C   0  0  0  0  0  0  0  0  0  0  0  0
   -7.8330   23.1830  -31.1410 C   0  0  0  0  0  0  0  0  0  0  0  0
   -4.8734   21.5605  -28.0708 H   0  0  0  0  0  0  0  0  0  0  0  0
   -0.3865   23.2896  -29.4191 H   0  0  0  0  0  0  0  0  0  0  0  0
   -3.1040   25.6830  -29.7840 H   0  0  0  0  0  0  0  0  0  0  0  0
   -0.2781   20.0326  -29.2622 H   0  0  0  0  0  0  0  0  0  0  0  0
    0.6092   21.3585  -28.3911 H   0  0  0  0  0  0  0  0  0  0  0  0
    0.2219   18.9673  -27.2713 H   0  0  0  0  0  0  0  0  0  0  0  0
    0.1355   20.5443  -26.3275 H   0  0  0  0  0  0  0  0  0  0  0  0
   -1.7435   18.4944  -26.2700 H   0  0  0  0  0  0  0  0  0  0  0  0
   -1.9557   20.2305  -25.7380 H   0  0  0  0  0  0  0  0  0  0  0  0
   -2.7345   19.0220  -28.4272 H   0  0  0  0  0  0  0  0  0  0  0  0
   -3.8322   19.6231  -27.1402 H   0  0  0  0  0  0  0  0  0  0  0  0
   -4.5903   22.1132  -30.9772 H   0  0  0  0  0  0  0  0  0  0  0  0
   -5.6704   20.0051  -31.7562 H   0  0  0  0  0  0  0  0  0  0  0  0
   -7.0436   19.5064  -34.9132 H   0  0  0  0  0  0  0  0  0  0  0  0
   -6.0796   19.9845  -33.4604 H   0  0  0  0  0  0  0  0  0  0  0  0
   -5.0805   18.5643  -35.6172 H   0  0  0  0  0  0  0  0  0  0  0  0
   -4.3876   18.5507  -33.9492 H   0  0  0  0  0  0  0  0  0  0  0  0
   -6.0536   15.5364  -33.0389 H   0  0  0  0  0  0  0  0  0  0  0  0
   -4.6275   16.6040  -32.6591 H   0  0  0  0  0  0  0  0  0  0  0  0
   -7.2123   16.9073  -31.6380 H   0  0  0  0  0  0  0  0  0  0  0  0
   -5.9165   18.1527  -31.6493 H   0  0  0  0  0  0  0  0  0  0  0  0
   -9.5213   21.9801  -31.7643 H   0  0  0  0  0  0  0  0  0  0  0  0
   -8.4432   24.0842  -30.9810 H   0  0  0  0  0  0  0  0  0  0  0  0
  1  2  2  0
  2  3  2  0
  2  4  1  0
  4  5  1  0
  5  6  2  0
  6  7  1  0
  7  8  2  0
  8  9  1  0
  9 10  2  0
 10 11  1  0
  8 12  1  0
 12 13  1  0
 13 14  1  0
 14 15  1  0
  2 16  1  0
 16 17  2  0
 17 18  1  0
 18 19  2  0
 19 20  1  0
 20 21  2  0
 20 22  2  0
 20 23  1  0
 23 24  1  0
 24 25  1  0
 25 26  1  0
 26 27  1  0
 27 28  1  0
 19 29  1  0
 29 30  2  0
 10  5  1  0
 30 16  1  0
 15  7  1  0
 28 23  1  0
  6 31  1  0
  9 32  1  0
 11 33  1  0
 12 34  1  0
 12 35  1  0
 13 36  1  0
 13 37  1  0
 14 38  1  0
 14 39  1  0
 15 40  1  0
 15 41  1  0
 17 42  1  0
 18 43  1  0
 24 44  1  0
 24 45  1  0
 25 46  1  0
 25 47  1  0
 27 48  1  0
 27 49  1  0
 28 50  1  0
 28 51  1  0
 29 52  1  0
 30 53  1  0
M  CHG  1   4  -1
M  END
>  <UniqueID>  (1) 
1

>  <SMILES>  (1) 
O=S(=O)([N-]c1cc2c(cc1O)CCCC2)c1ccc(S(=O)(=O)N2CCOCC2)cc1

>  <Energy>  (1) 
70.94773441650396

>  <Genealogy>  (1) 
O=S(=O)([N-]c1cc2c(cc1O)CCCC2)c1ccc(S(=O)(=O)N2CCOCC2)cc1 (protonated)
O=S(=O)([N-]c1cc2c(cc1O)CCCC2)c1ccc(S(=O)(=O)N2CCOCC2)cc1 (3D coordinates assigned)
O=S(=O)([N-]c1cc2c(cc1O)CCCC2)c1ccc(S(=O)(=O)N2CCOCC2)cc1 (nonaromatic ring conformer: 70.94773441650396 kcal/mol)

>  <smiles>  (1) 
O=S(=O)(Nc1cc2c(cc1O)CCCC2)c1ccc(S(=O)(=O)N2CCOCC2)cc1

>  <score_type>  (1) 
oracle

>  <origin>  (1) 
adgpu

>  <m_score__min__energy>  (1) 
-13.82

>  <m_primary>  (1) 
energy

$$$$
1:0
     RDKit          3D

 44 46  0  0  0  0  0  0  0  0999 V2000
   -7.7110   23.3630  -31.3410 C   0  0  0  0  0  0  0  0  0  0  0  0
   -8.5790   22.2780  -31.6530 O   0  0  0  0  0  0  0  0  0  0  0  0
   -8.1520   20.9810  -31.9730 C   0  0  0  0  0  0  0  0  0  0  0  0
   -8.7910   19.8300  -31.4750 C   0  0  0  0  0  0  0  0  0  0  0  0
   -8.3300   18.5570  -31.8310 C   0  0  0  0  0  0  0  0  0  0  0  0
   -7.1980   18.4190  -32.6550 C   0  0  0  0  0  0  0  0  0  0  0  0
   -6.6440   17.1420  -32.9940 N   0  0  0  0  0  0  0  0  0  0  0  0
   -5.3930   16.8370  -34.1600 S   0  0  0  0  0  0  0  0  0  0  0  0
   -5.7050   17.5260  -35.4590 O   0  0  0  0  0  0  0  0  0  0  0  0
   -5.3440   15.3550  -34.4070 O   0  0  0  0  0  0  0  0  0  0  0  0
   -3.8270   17.3660  -33.5510 C   0  0  0  0  0  0  0  0  0  0  0  0
   -2.7600   16.4600  -33.5120 C   0  0  0  0  0  0  0  0  0  0  0  0
   -1.5330   16.8410  -32.9670 C   0  0  0  0  0  0  0  0  0  0  0  0
   -1.3570   18.1330  -32.4580 C   0  0  0  0  0  0  0  0  0  0  0  0
   -0.1250   18.4700  -31.8960 O   0  0  0  0  0  0  0  0  0  0  0  0
   -2.4110   19.0650  -32.5240 C   0  0  0  0  0  0  0  0  0  0  0  0
   -2.2260   20.3840  -31.9860 N   0  0  0  0  0  0  0  0  0  0  0  0
   -1.9220   20.7110  -30.6240 C   0  0  0  0  0  0  0  0  0  0  0  0
   -1.6170   19.7790  -29.8360 O   0  0  0  0  0  0  0  0  0  0  0  0
   -1.8840   22.1130  -30.1400 C   0  0  0  0  0  0  0  0  0  0  0  0
   -0.8020   22.5550  -29.3590 C   0  0  0  0  0  0  0  0  0  0  0  0
   -0.7190   23.8920  -28.9580 C   0  0  0  0  0  0  0  0  0  0  0  0
   -1.7150   24.8020  -29.3250 C   0  0  0  0  0  0  0  0  0  0  0  0
   -1.6200   26.1300  -28.9290 O   0  0  0  0  0  0  0  0  0  0  0  0
   -2.8000   24.3710  -30.0910 C   0  0  0  0  0  0  0  0  0  0  0  0
   -3.8010   25.2690  -30.4500 O   0  0  0  0  0  0  0  0  0  0  0  0
   -2.8800   23.0370  -30.5070 C   0  0  0  0  0  0  0  0  0  0  0  0
   -3.6500   18.6710  -33.0620 C   0  0  0  0  0  0  0  0  0  0  0  0
   -6.5780   19.5650  -33.1620 C   0  0  0  0  0  0  0  0  0  0  0  0
   -7.0500   20.8350  -32.8240 C   0  0  0  0  0  0  0  0  0  0  0  0
   -7.6295   23.4649  -30.2488 H   0  0  0  0  0  0  0  0  0  0  0  0
   -6.7152   23.1700  -31.7666 H   0  0  0  0  0  0  0  0  0  0  0  0
   -8.1179   24.2921  -31.7666 H   0  0  0  0  0  0  0  0  0  0  0  0
   -9.6562   19.9312  -30.8033 H   0  0  0  0  0  0  0  0  0  0  0  0
   -8.8544   17.6619  -31.4654 H   0  0  0  0  0  0  0  0  0  0  0  0
   -2.8895   15.4438  -33.9126 H   0  0  0  0  0  0  0  0  0  0  0  0
   -0.7004   16.1227  -32.9373 H   0  0  0  0  0  0  0  0  0  0  0  0
   -0.0250   19.2160  -31.2170 H   0  0  0  0  0  0  0  0  0  0  0  0
   -0.0161   21.8451  -29.0616 H   0  0  0  0  0  0  0  0  0  0  0  0
    0.1340   24.2294  -28.3509 H   0  0  0  0  0  0  0  0  0  0  0  0
   -3.7280   22.7082  -31.1257 H   0  0  0  0  0  0  0  0  0  0  0  0
   -4.4835   19.3878  -33.0999 H   0  0  0  0  0  0  0  0  0  0  0  0
   -5.7116   19.4654  -33.8324 H   0  0  0  0  0  0  0  0  0  0  0  0
   -6.5519   21.7279  -33.2297 H   0  0  0  0  0  0  0  0  0  0  0  0
  1  2  1  0
  2  3  1  0
  3  4  2  0
  4  5  1  0
  5  6  2  0
  6  7  1  0
  7  8  1  0
  8  9  2  0
  8 10  2  0
  8 11  1  0
 11 12  2  0
 12 13  1  0
 13 14  2  0
 14 15  1  0
 14 16  1  0
 16 17  1  0
 17 18  1  0
 18 19  2  0
 18 20  1  0
 20 21  2  0
 21 22  1  0
 22 23  2  0
 23 24  1  0
 23 25  1  0
 25 26  1  0
 25 27  2  0
 16 28  2  0
  6 29  1  0
 29 30  2  0
 30  3  1  0
 28 11  1  0
 27 20  1  0
  1 31  1  0
  1 32  1  0
  1 33  1  0
  4 34  1  0
  5 35  1  0
 12 36  1  0
 13 37  1  0
 15 38  1  0
 21 39  1  0
 22 40  1  0
 27 41  1  0
 28 42  1  0
 29 43  1  0
 30 44  1  0
M  CHG  4   7  -1  17  -1  24  -1  26  -1
M  END
>  <UniqueID>  (2) 
2

>  <SMILES>  (2) 
COc1ccc([N-]S(=O)(=O)c2ccc(O)c([N-]C(=O)c3ccc([O-])c([O-])c3)c2)cc1

>  <Energy>  (2) 
54.631767120291634

>  <Genealogy>  (2) 
COc1ccc([N-]S(=O)(=O)c2ccc(O)c([N-]C(=O)c3ccc([O-])c([O-])c3)c2)cc1 (protonated)
COc1ccc([N-]S(=O)(=O)c2ccc(O)c([N-]C(=O)c3ccc([O-])c([O-])c3)c2)cc1 (3D coordinates assigned)
COc1ccc([N-]S(=O)(=O)c2ccc(O)c([N-]C(=O)c3ccc([O-])c([O-])c3)c2)cc1 (optimized conformer: 54.631767120291634 kcal/mol)

>  <smiles>  (2) 
COc1ccc(NS(=O)(=O)c2ccc(O)c(NC(=O)c3ccc(O)c(O)c3)c2)cc1

>  <score_type>  (2) 
oracle

>  <origin>  (2) 
adgpu

>  <m_score__min__energy>  (2) 
-13.73

>  <m_primary>  (2) 
energy

$$$$
2:0
     RDKit          3D

 24 24  0  0  0  0  0  0  0  0999 V2000
    1.6700   26.2680  -23.9510 C   0  0  0  0  0  0  0  0  0  0  0  0
    0.7840   27.4890  -23.6540 C   0  0  2  0  0  0  0  0  0  0  0  0
    0.9730   27.9210  -22.2640 N   0  0  0  0  0  0  0  0  0  0  0  0
   -0.7070   27.1820  -23.9190 C   0  0  0  0  0  0  0  0  0  0  0  0
   -0.9610   26.7900  -25.3530 C   0  0  0  0  0  0  0  0  0  0  0  0
   -1.7910   25.6980  -25.6570 C   0  0  0  0  0  0  0  0  0  0  0  0
   -2.0060   25.3260  -26.9870 C   0  0  0  0  0  0  0  0  0  0  0  0
   -1.3930   26.0390  -28.0230 C   0  0  0  0  0  0  0  0  0  0  0  0
   -1.6090   25.6670  -29.3450 O   0  0  0  0  0  0  0  0  0  0  0  0
   -0.5620   27.1240  -27.7270 C   0  0  0  0  0  0  0  0  0  0  0  0
   -0.3450   27.4980  -26.3980 C   0  0  0  0  0  0  0  0  0  0  0  0
    1.9989   25.8147  -23.0043 H   0  0  0  0  0  0  0  0  0  0  0  0
    1.0955   25.5304  -24.5306 H   0  0  0  0  0  0  0  0  0  0  0  0
    2.5494   26.5854  -24.5306 H   0  0  0  0  0  0  0  0  0  0  0  0
    1.0863   28.3014  -24.3313 H   0  0  0  0  0  0  0  0  0  0  0  0
    0.6110   28.8940  -22.1400 H   0  0  0  0  0  0  0  0  0  0  0  0
    1.9860   27.8940  -22.0060 H   0  0  0  0  0  0  0  0  0  0  0  0
    0.4370   27.2930  -21.6200 H   0  0  0  0  0  0  0  0  0  0  0  0
   -1.0203   26.3551  -23.2647 H   0  0  0  0  0  0  0  0  0  0  0  0
   -1.2824   28.0962  -23.7115 H   0  0  0  0  0  0  0  0  0  0  0  0
   -2.2734   25.1337  -24.8453 H   0  0  0  0  0  0  0  0  0  0  0  0
   -2.6582   24.4713  -27.2196 H   0  0  0  0  0  0  0  0  0  0  0  0
   -0.0785   27.6838  -28.5412 H   0  0  0  0  0  0  0  0  0  0  0  0
    0.3112   28.3507  -26.1694 H   0  0  0  0  0  0  0  0  0  0  0  0
  1  2  1  0
  2  3  1  0
  2  4  1  0
  4  5  1  0
  5  6  2  0
  6  7  1  0
  7  8  2  0
  8  9  1  0
  8 10  1  0
 10 11  2  0
 11  5  1  0
  1 12  1  0
  1 13  1  0
  1 14  1  0
  2 15  1  6
  3 16  1  0
  3 17  1  0
  3 18  1  0
  4 19  1  0
  4 20  1  0
  6 21  1  0
  7 22  1  0
 10 23  1  0
 11 24  1  0
M  CHG  2   3   1   9  -1
M  END
>  <UniqueID>  (3) 
3

>  <SMILES>  (3) 
C[C@H]([NH3+])Cc1ccc([O-])cc1

>  <Energy>  (3) 
17.694275886512294

>  <Genealogy>  (3) 
CC([NH3+])Cc1ccc([O-])cc1 (protonated)
C[C@H]([NH3+])Cc1ccc([O-])cc1 (chirality)
C[C@H]([NH3+])Cc1ccc([O-])cc1 (3D coordinates assigned)
C[C@H]([NH3+])Cc1ccc([O-])cc1 (optimized conformer: 17.694275886512294 kcal/mol)

>  <smiles>  (3) 
CC(N)Cc1ccc(O)cc1

>  <score_type>  (3) 
oracle

>  <origin>  (3) 
adgpu

>  <m_score__min__energy>  (3) 
-8.3300000000000001

>  <m_primary>  (3) 
energy

$$$$
3:0
     RDKit          3D

 47 49  0  0  0  0  0  0  0  0999 V2000
   -2.2910   20.5450  -26.7670 O   0  0  0  0  0  0  0  0  0  0  0  0
   -1.5540   21.3680  -27.3650 C   0  0  0  0  0  0  0  0  0  0  0  0
   -0.1270   21.2210  -27.2710 N   0  0  0  0  0  0  0  0  0  0  0  0
    0.7220   20.5290  -28.2420 C   0  0  0  0  0  0  0  0  0  0  0  0
    0.0420   20.4430  -29.5850 C   0  0  0  0  0  0  0  0  0  0  0  0
   -0.1440   21.6050  -30.3540 C   0  0  0  0  0  0  0  0  0  0  0  0
   -0.7160   21.5250  -31.6270 C   0  0  0  0  0  0  0  0  0  0  0  0
   -1.1100   20.2830  -32.1470 C   0  0  0  0  0  0  0  0  0  0  0  0
   -1.7550   20.1700  -33.7850 S   0  0  0  0  0  0  0  0  0  0  0  0
   -1.6560   18.7450  -34.2660 O   0  0  0  0  0  0  0  0  0  0  0  0
   -0.9330   21.0440  -34.6950 O   0  0  0  0  0  0  0  0  0  0  0  0
   -3.4230   20.7000  -33.8170 N   0  0  0  0  0  0  0  0  0  0  0  0
   -3.5710   21.9370  -33.0160 C   0  0  0  0  0  0  0  0  0  0  0  0
   -5.0350   22.2080  -32.6560 C   0  0  0  0  0  0  0  0  0  0  0  0
   -5.6390   21.0580  -31.8200 C   0  0  0  0  0  0  0  0  0  0  0  0
   -4.8640   19.7400  -31.9810 C   0  0  0  0  0  0  0  0  0  0  0  0
   -4.3360   19.5960  -33.4180 C   0  0  0  0  0  0  0  0  0  0  0  0
   -0.9410   19.1240  -31.3760 C   0  0  0  0  0  0  0  0  0  0  0  0
   -0.3760   19.2050  -30.0980 C   0  0  0  0  0  0  0  0  0  0  0  0
   -2.1780   22.4480  -28.1530 C   0  0  0  0  0  0  0  0  0  0  0  0
   -3.3600   22.2030  -28.8660 C   0  0  0  0  0  0  0  0  0  0  0  0
   -3.9380   23.2190  -29.6390 C   0  0  0  0  0  0  0  0  0  0  0  0
   -3.3470   24.4890  -29.6960 C   0  0  0  0  0  0  0  0  0  0  0  0
   -3.9380   25.4830  -30.4770 O   0  0  0  0  0  0  0  0  0  0  0  0
   -2.1730   24.7410  -28.9650 C   0  0  0  0  0  0  0  0  0  0  0  0
   -1.5690   25.9940  -29.0030 O   0  0  0  0  0  0  0  0  0  0  0  0
   -1.5970   23.7240  -28.1940 C   0  0  0  0  0  0  0  0  0  0  0  0
    1.6675   21.0805  -28.3515 H   0  0  0  0  0  0  0  0  0  0  0  0
    0.9128   19.5086  -27.8783 H   0  0  0  0  0  0  0  0  0  0  0  0
    0.1621   22.5821  -29.9520 H   0  0  0  0  0  0  0  0  0  0  0  0
   -0.8576   22.4387  -32.2229 H   0  0  0  0  0  0  0  0  0  0  0  0
   -2.9894   21.8325  -32.0882 H   0  0  0  0  0  0  0  0  0  0  0  0
   -3.2045   22.7812  -33.6185 H   0  0  0  0  0  0  0  0  0  0  0  0
   -5.0927   23.1400  -32.0746 H   0  0  0  0  0  0  0  0  0  0  0  0
   -5.6088   22.2910  -33.5908 H   0  0  0  0  0  0  0  0  0  0  0  0
   -5.6241   21.3482  -30.7591 H   0  0  0  0  0  0  0  0  0  0  0  0
   -6.6645   20.8876  -32.1796 H   0  0  0  0  0  0  0  0  0  0  0  0
   -4.0153   19.7316  -31.2813 H   0  0  0  0  0  0  0  0  0  0  0  0
   -5.5420   18.9009  -31.7660 H   0  0  0  0  0  0  0  0  0  0  0  0
   -3.7900   18.6443  -33.4967 H   0  0  0  0  0  0  0  0  0  0  0  0
   -5.2049   19.6290  -34.0917 H   0  0  0  0  0  0  0  0  0  0  0  0
   -1.2534   18.1484  -31.7767 H   0  0  0  0  0  0  0  0  0  0  0  0
   -0.2589   18.2941  -29.4926 H   0  0  0  0  0  0  0  0  0  0  0  0
   -3.8345   21.2117  -28.8186 H   0  0  0  0  0  0  0  0  0  0  0  0
   -4.8603   23.0190  -30.2041 H   0  0  0  0  0  0  0  0  0  0  0  0
   -3.8580   26.4670  -30.2470 H   0  0  0  0  0  0  0  0  0  0  0  0
   -0.6829   23.9270  -27.6167 H   0  0  0  0  0  0  0  0  0  0  0  0
  1  2  2  0
  2  3  1  0
  3  4  1  0
  4  5  1  0
  5  6  2  0
  6  7  1  0
  7  8  2  0
  8  9  1  0
  9 10  2  0
  9 11  2  0
  9 12  1  0
 12 13  1  0
 13 14  1  0
 14 15  1  0
 15 16  1  0
 16 17  1  0
  8 18  1  0
 18 19  2  0
  2 20  1  0
 20 21  2  0
 21 22  1  0
 22 23  2  0
 23 24  1  0
 23 25  1  0
 25 26  1  0
 25 27  2  0
 19  5  1  0
 27 20  1  0
 17 12  1  0
  4 28  1  0
  4 29  1  0
  6 30  1  0
  7 31  1  0
 13 32  1  0
 13 33  1  0
 14 34  1  0
 14 35  1  0
 15 36  1  0
 15 37  1  0
 16 38  1  0
 16 39  1  0
 17 40  1  0
 17 41  1  0
 18 42  1  0
 19 43  1  0
 21 44  1  0
 22 45  1  0
 24 46  1  0
 27 47  1  0
M  CHG  2   3  -1  26  -1
M  END
>  <UniqueID>  (4) 
4

>  <SMILES>  (4) 
O=C([N-]Cc1ccc(S(=O)(=O)N2CCCCC2)cc1)c1ccc(O)c([O-])c1

>  <Energy>  (4) 
54.761945586648125

>  <Genealogy>  (4) 
O=C([N-]Cc1ccc(S(=O)(=O)N2CCCCC2)cc1)c1ccc(O)c([O-])c1 (protonated)
O=C([N-]Cc1ccc(S(=O)(=O)N2CCCCC2)cc1)c1ccc(O)c([O-])c1 (3D coordinates assigned)
O=C([N-]Cc1ccc(S(=O)(=O)N2CCCCC2)cc1)c1ccc(O)c([O-])c1 (nonaromatic ring conformer: 54.761945586648125 kcal/mol)

>  <smiles>  (4) 
O=C(NCc1ccc(S(=O)(=O)N2CCCCC2)cc1)c1ccc(O)c(O)c1

>  <score_type>  (4) 
oracle

>  <origin>  (4) 
adgpu

>  <m_score__min__energy>  (4) 
-11.77

>  <m_primary>  (4) 
energy

$$$$
4:0
     RDKit          3D

 55 58  0  0  0  0  0  0  0  0999 V2000
   -8.3080   21.2560  -30.5150 O   0  0  0  0  0  0  0  0  0  0  0  0
   -7.9210   22.1500  -31.6620 S   0  0  0  0  0  0  0  0  0  0  0  0
   -9.0780   23.0660  -31.9580 O   0  0  0  0  0  0  0  0  0  0  0  0
   -7.5740   21.2010  -33.0680 N   0  0  0  0  0  0  0  0  0  0  0  0
   -6.9830   19.9060  -32.9540 C   0  0  0  0  0  0  0  0  0  0  0  0
   -5.7150   19.6830  -33.5030 C   0  0  0  0  0  0  0  0  0  0  0  0
   -5.0860   18.4370  -33.3680 C   0  0  0  0  0  0  0  0  0  0  0  0
   -5.7630   17.3790  -32.7160 C   0  0  0  0  0  0  0  0  0  0  0  0
   -7.0400   17.6090  -32.1740 C   0  0  0  0  0  0  0  0  0  0  0  0
   -7.6540   18.8590  -32.2900 C   0  0  0  0  0  0  0  0  0  0  0  0
   -8.9260   19.0340  -31.7420 O   0  0  0  0  0  0  0  0  0  0  0  0
   -5.0990   16.0380  -32.4790 C   0  0  0  0  0  0  0  0  0  0  0  0
   -3.8790   15.8090  -33.3710 C   0  0  0  0  0  0  0  0  0  0  0  0
   -2.9790   17.0400  -33.3930 C   0  0  0  0  0  0  0  0  0  0  0  0
   -3.7280   18.2320  -33.9980 C   0  0  0  0  0  0  0  0  0  0  0  0
   -6.4940   23.0800  -31.2170 C   0  0  0  0  0  0  0  0  0  0  0  0
   -6.5290   24.4780  -31.2110 C   0  0  0  0  0  0  0  0  0  0  0  0
   -5.3980   25.2060  -30.8360 C   0  0  0  0  0  0  0  0  0  0  0  0
   -4.2230   24.5450  -30.4650 C   0  0  0  0  0  0  0  0  0  0  0  0
   -3.1200   25.2950  -30.0760 O   0  0  0  0  0  0  0  0  0  0  0  0
   -4.1700   23.1380  -30.4880 C   0  0  0  0  0  0  0  0  0  0  0  0
   -2.6990   22.2680  -30.0240 S   0  0  0  0  0  0  0  0  0  0  0  0
   -1.7810   23.1970  -29.2840 O   0  0  0  0  0  0  0  0  0  0  0  0
   -3.0660   21.1470  -29.0940 O   0  0  0  0  0  0  0  0  0  0  0  0
   -1.8620   21.6070  -31.4090 N   0  0  0  0  0  0  0  0  0  0  0  0
   -2.7740   21.4930  -32.5580 C   0  0  0  0  0  0  0  0  0  0  0  0
   -1.9890   21.1330  -33.8360 C   0  0  0  0  0  0  0  0  0  0  0  0
   -0.6360   20.4700  -33.5320 C   0  0  0  0  0  0  0  0  0  0  0  0
   -0.7410   19.5470  -32.3160 C   0  0  0  0  0  0  0  0  0  0  0  0
   -1.2750   20.2970  -31.0680 C   0  0  0  0  0  0  0  0  0  0  0  0
   -5.3110   22.4150  -30.8680 C   0  0  0  0  0  0  0  0  0  0  0  0
   -5.2067   20.4934  -34.0459 H   0  0  0  0  0  0  0  0  0  0  0  0
   -7.5626   16.7941  -31.6517 H   0  0  0  0  0  0  0  0  0  0  0  0
   -9.3530   19.9480  -31.6400 H   0  0  0  0  0  0  0  0  0  0  0  0
   -4.7792   15.9863  -31.4278 H   0  0  0  0  0  0  0  0  0  0  0  0
   -5.8358   15.2586  -32.7232 H   0  0  0  0  0  0  0  0  0  0  0  0
   -3.3071   14.9522  -32.9852 H   0  0  0  0  0  0  0  0  0  0  0  0
   -4.2264   15.6106  -34.3957 H   0  0  0  0  0  0  0  0  0  0  0  0
   -2.6745   17.2860  -32.3650 H   0  0  0  0  0  0  0  0  0  0  0  0
   -2.0914   16.8249  -34.0062 H   0  0  0  0  0  0  0  0  0  0  0  0
   -3.1272   19.1409  -33.8465 H   0  0  0  0  0  0  0  0  0  0  0  0
   -3.8815   18.0248  -35.0673 H   0  0  0  0  0  0  0  0  0  0  0  0
   -7.4494   25.0052  -31.5023 H   0  0  0  0  0  0  0  0  0  0  0  0
   -5.4316   26.3055  -30.8324 H   0  0  0  0  0  0  0  0  0  0  0  0
   -3.5157   20.7065  -32.3550 H   0  0  0  0  0  0  0  0  0  0  0  0
   -3.2780   22.4589  -32.7098 H   0  0  0  0  0  0  0  0  0  0  0  0
   -2.5943   20.4387  -34.4373 H   0  0  0  0  0  0  0  0  0  0  0  0
   -1.7870   22.0689  -34.3775 H   0  0  0  0  0  0  0  0  0  0  0  0
   -0.3195   19.8806  -34.4052 H   0  0  0  0  0  0  0  0  0  0  0  0
    0.0999   21.2576  -33.3128 H   0  0  0  0  0  0  0  0  0  0  0  0
   -1.4261   18.7202  -32.5547 H   0  0  0  0  0  0  0  0  0  0  0  0
    0.2665   19.1713  -32.0840 H   0  0  0  0  0  0  0  0  0  0  0  0
   -2.0469   19.6782  -30.5871 H   0  0  0  0  0  0  0  0  0  0  0  0
   -0.4244   20.4753  -30.3937 H   0  0  0  0  0  0  0  0  0  0  0  0
   -5.2765   21.3158  -30.8921 H   0  0  0  0  0  0  0  0  0  0  0  0
  1  2  2  0
  2  3  2  0
  2  4  1  0
  4  5  1  0
  5  6  2  0
  6  7  1  0
  7  8  2  0
  8  9  1  0
  9 10  2  0
 10 11  1  0
  8 12  1  0
 12 13  1  0
 13 14  1  0
 14 15  1  0
  2 16  1  0
 16 17  2  0
 17 18  1  0
 18 19  2  0
 19 20  1  0
 19 21  1  0
 21 22  1  0
 22 23  2  0
 22 24  2  0
 22 25  1  0
 25 26  1  0
 26 27  1  0
 27 28  1  0
 28 29  1  0
 29 30  1  0
 21 31  2  0
 10  5  1  0
 31 16  1  0
 15  7  1  0
 30 25  1  0
  6 32  1  0
  9 33  1  0
 11 34  1  0
 12 35  1  0
 12 36  1  0
 13 37  1  0
 13 38  1  0
 14 39  1  0
 14 40  1  0
 15 41  1  0
 15 42  1  0
 17 43  1  0
 18 44  1  0
 26 45  1  0
 26 46  1  0
 27 47  1  0
 27 48  1  0
 28 49  1  0
 28 50  1  0
 29 51  1  0
 29 52  1  0
 30 53  1  0
 30 54  1  0
 31 55  1  0
M  CHG  2   4  -1  20  -1
M  END
>  <UniqueID>  (5) 
5

>  <SMILES>  (5) 
O=S(=O)([N-]c1cc2c(cc1O)CCCC2)c1ccc([O-])c(S(=O)(=O)N2CCCCC2)c1

>  <Energy>  (5) 
67.80859858793991

>  <Genealogy>  (5) 
O=S(=O)([N-]c1cc2c(cc1O)CCCC2)c1ccc([O-])c(S(=O)(=O)N2CCCCC2)c1 (protonated)
O=S(=O)([N-]c1cc2c(cc1O)CCCC2)c1ccc([O-])c(S(=O)(=O)N2CCCCC2)c1 (3D coordinates assigned)
O=S(=O)([N-]c1cc2c(cc1O)CCCC2)c1ccc([O-])c(S(=O)(=O)N2CCCCC2)c1 (nonaromatic ring conformer: 67.80859858793991 kcal/mol)

>  <smiles>  (5) 
O=S(=O)(Nc1cc2c(cc1O)CCCC2)c1ccc(O)c(S(=O)(=O)N2CCCCC2)c1

>  <score_type>  (5) 
oracle

>  <origin>  (5) 
adgpu

>  <m_score__min__energy>  (5) 
-12.609999999999999

>  <m_primary>  (5) 
energy

$$$$
5:0
     RDKit          3D

 58 62  0  0  0  0  0  0  0  0999 V2000
   -3.8740   25.6650  -30.8350 O   0  0  0  0  0  0  0  0  0  0  0  0
   -4.3710   24.5130  -30.7100 C   0  0  0  0  0  0  0  0  0  0  0  0
   -5.3940   24.0590  -31.6050 N   0  0  0  0  0  0  0  0  0  0  0  0
   -5.9560   22.7410  -31.6950 C   0  0  0  0  0  0  0  0  0  0  0  0
   -5.1830   21.5730  -31.4660 C   0  0  0  0  0  0  0  0  0  0  0  0
   -5.7550   20.2970  -31.6000 C   0  0  0  0  0  0  0  0  0  0  0  0
   -7.0940   20.2070  -31.9880 C   0  0  0  0  0  0  0  0  0  0  0  0
   -7.8480   21.3440  -32.2380 C   0  0  0  0  0  0  0  0  0  0  0  0
   -7.3000   22.6180  -32.0970 C   0  0  0  0  0  0  0  0  0  0  0  0
   -9.0570   21.0970  -32.6320 N   0  0  0  0  0  0  0  0  0  0  0  0
   -9.1100   19.6750  -32.6440 C   0  0  0  0  0  0  0  0  0  0  0  0
  -10.1170   19.0110  -33.0000 O   0  0  0  0  0  0  0  0  0  0  0  0
   -7.8330   19.1280  -32.2110 C   0  0  0  0  0  0  0  0  0  0  0  0
   -7.4180   17.6850  -32.1670 C   0  0  0  0  0  0  0  0  0  0  0  0
   -6.2060   17.4520  -33.0280 C   0  0  0  0  0  0  0  0  0  0  0  0
   -6.1110   18.0380  -34.3020 C   0  0  0  0  0  0  0  0  0  0  0  0
   -4.9870   17.8060  -35.1020 C   0  0  0  0  0  0  0  0  0  0  0  0
   -3.9520   16.9890  -34.6380 C   0  0  0  0  0  0  0  0  0  0  0  0
   -2.8370   16.7590  -35.4360 O   0  0  0  0  0  0  0  0  0  0  0  0
   -4.0380   16.4030  -33.3730 C   0  0  0  0  0  0  0  0  0  0  0  0
   -5.1600   16.6330  -32.5690 C   0  0  0  0  0  0  0  0  0  0  0  0
   -3.9210   23.6340  -29.6690 N   0  0  0  0  0  0  0  0  0  0  0  0
   -2.7850   23.8850  -28.8230 C   0  0  0  0  0  0  0  0  0  0  0  0
   -2.9790   24.0290  -27.4410 C   0  0  0  0  0  0  0  0  0  0  0  0
   -1.8910   24.2510  -26.5920 C   0  0  0  0  0  0  0  0  0  0  0  0
   -0.5910   24.3270  -27.1120 C   0  0  0  0  0  0  0  0  0  0  0  0
    0.7840   24.6020  -26.0360 S   0  0  0  0  0  0  0  0  0  0  0  0
    2.0330   24.7250  -26.8620 O   0  0  0  0  0  0  0  0  0  0  0  0
    0.9420   23.4140  -25.1300 O   0  0  0  0  0  0  0  0  0  0  0  0
    0.6040   26.0410  -25.0620 N   0  0  0  0  0  0  0  0  0  0  0  0
   -0.2500   25.8160  -23.8980 C   0  0  0  0  0  0  0  0  0  0  0  0
   -0.8300   27.1700  -23.5230 C   0  0  0  0  0  0  0  0  0  0  0  0
   -0.6880   28.0300  -24.7710 C   0  0  0  0  0  0  0  0  0  0  0  0
   -0.0250   27.1320  -25.8040 C   0  0  0  0  0  0  0  0  0  0  0  0
   -0.3900   24.1500  -28.4870 C   0  0  0  0  0  0  0  0  0  0  0  0
   -1.4760   23.9260  -29.3370 C   0  0  0  0  0  0  0  0  0  0  0  0
   -4.1249   21.6679  -31.1806 H   0  0  0  0  0  0  0  0  0  0  0  0
   -5.1630   19.3908  -31.4042 H   0  0  0  0  0  0  0  0  0  0  0  0
   -7.9077   23.5129  -32.2966 H   0  0  0  0  0  0  0  0  0  0  0  0
   -7.1815   17.4091  -31.1288 H   0  0  0  0  0  0  0  0  0  0  0  0
   -8.2453   17.0680  -32.5477 H   0  0  0  0  0  0  0  0  0  0  0  0
   -6.9233   18.6813  -34.6713 H   0  0  0  0  0  0  0  0  0  0  0  0
   -4.9175   18.2674  -36.0981 H   0  0  0  0  0  0  0  0  0  0  0  0
   -3.2231   15.7602  -33.0085 H   0  0  0  0  0  0  0  0  0  0  0  0
   -5.2237   16.1706  -31.5729 H   0  0  0  0  0  0  0  0  0  0  0  0
   -4.5240   22.8090  -29.4510 H   0  0  0  0  0  0  0  0  0  0  0  0
   -3.9944   23.9668  -27.0226 H   0  0  0  0  0  0  0  0  0  0  0  0
   -2.0554   24.3667  -25.5105 H   0  0  0  0  0  0  0  0  0  0  0  0
   -1.0576   25.1125  -24.1490 H   0  0  0  0  0  0  0  0  0  0  0  0
    0.3198   25.3813  -23.0635 H   0  0  0  0  0  0  0  0  0  0  0  0
   -1.8890   27.0707  -23.2424 H   0  0  0  0  0  0  0  0  0  0  0  0
   -0.3111   27.6126  -22.6599 H   0  0  0  0  0  0  0  0  0  0  0  0
   -1.6754   28.3610  -25.1252 H   0  0  0  0  0  0  0  0  0  0  0  0
   -0.0981   28.9382  -24.5782 H   0  0  0  0  0  0  0  0  0  0  0  0
   -0.7776   26.7337  -26.5004 H   0  0  0  0  0  0  0  0  0  0  0  0
    0.7152   27.6879  -26.3982 H   0  0  0  0  0  0  0  0  0  0  0  0
    0.6289   24.1876  -28.8999 H   0  0  0  0  0  0  0  0  0  0  0  0
   -1.3066   23.7809  -30.4141 H   0  0  0  0  0  0  0  0  0  0  0  0
  1  2  2  0
  2  3  1  0
  3  4  1  0
  4  5  1  0
  5  6  2  0
  6  7  1  0
  7  8  1  0
  8  9  1  0
  8 10  2  0
 10 11  1  0
 11 12  2  0
 11 13  1  0
 13 14  1  0
 14 15  1  0
 15 16  2  0
 16 17  1  0
 17 18  2  0
 18 19  1  0
 18 20  1  0
 20 21  2  0
  2 22  1  0
 22 23  1  0
 23 24  2  0
 24 25  1  0
 25 26  2  0
 26 27  1  0
 27 28  2  0
 27 29  2  0
 27 30  1  0
 30 31  1  0
 31 32  1  0
 32 33  1  0
 33 34  1  0
 26 35  1  0
 35 36  2  0
  9  4  2  0
 21 15  1  0
 36 23  1  0
 13  7  2  0
 34 30  1  0
  5 37  1  0
  6 38  1  0
  9 39  1  0
 14 40  1  0
 14 41  1  0
 16 42  1  0
 17 43  1  0
 20 44  1  0
 21 45  1  0
 22 46  1  0
 24 47  1  0
 25 48  1  0
 31 49  1  0
 31 50  1  0
 32 51  1  0
 32 52  1  0
 33 53  1  0
 33 54  1  0
 34 55  1  0
 34 56  1  0
 35 57  1  0
 36 58  1  0
M  CHG  2   3  -1  19  -1
M  END
>  <UniqueID>  (6) 
6

>  <SMILES>  (6) 
O=C([N-]c1ccc2c(c1)=NC(=O)C=2Cc1ccc([O-])cc1)Nc1ccc(S(=O)(=O)N2CCCC2)cc1

>  <Energy>  (6) 
101.97110031966591

>  <Genealogy>  (6) 
O=C([N-]c1ccc2c(c1)=NC(=O)C=2Cc1ccc([O-])cc1)Nc1ccc(S(=O)(=O)N2CCCC2)cc1 (protonated)
O=C([N-]c1ccc2c(c1)=NC(=O)C=2Cc1ccc([O-])cc1)Nc1ccc(S(=O)(=O)N2CCCC2)cc1 (3D coordinates assigned)
O=C([N-]c1ccc2c(c1)=NC(=O)C=2Cc1ccc([O-])cc1)Nc1ccc(S(=O)(=O)N2CCCC2)cc1 (nonaromatic ring conformer: 101.97110031966591 kcal/mol)

>  <smiles>  (6) 
O=C(Nc1ccc(S(=O)(=O)N2CCCC2)cc1)Nc1ccc2c(c1)=NC(=O)C=2Cc1ccc(O)cc1

>  <score_type>  (6) 
oracle

>  <origin>  (6) 
adgpu

>  <m_score__min__energy>  (6) 
-12.380000000000001

>  <m_primary>  (6) 
energy

$$$$
6:0
     RDKit          3D

 46 48  0  0  0  0  0  0  0  0999 V2000
   -2.2650   20.6720  -29.8440 C   0  0  0  0  0  0  0  0  0  0  0  0
   -2.1180   20.5990  -31.3300 C   0  0  0  0  0  0  0  0  0  0  0  0
   -1.2580   21.4770  -32.0030 C   0  0  0  0  0  0  0  0  0  0  0  0
   -1.1320   21.3810  -33.3900 C   0  0  0  0  0  0  0  0  0  0  0  0
   -1.8580   20.4160  -34.0920 C   0  0  0  0  0  0  0  0  0  0  0  0
   -2.7150   19.5570  -33.3890 C   0  0  0  0  0  0  0  0  0  0  0  0
   -3.4840   18.4860  -34.1050 C   0  0  0  0  0  0  0  0  0  0  0  0
   -4.5420   17.9360  -33.2550 N   0  0  0  0  0  0  0  0  0  0  0  0
   -6.1270   18.3600  -33.8410 S   0  0  0  0  0  0  0  0  0  0  0  0
   -6.0270   18.7280  -35.2950 O   0  0  0  0  0  0  0  0  0  0  0  0
   -7.0430   17.1740  -33.7160 O   0  0  0  0  0  0  0  0  0  0  0  0
   -6.7870   19.7360  -32.9570 C   0  0  0  0  0  0  0  0  0  0  0  0
   -8.1430   19.7780  -32.6040 C   0  0  0  0  0  0  0  0  0  0  0  0
   -8.6450   20.8620  -31.8770 C   0  0  0  0  0  0  0  0  0  0  0  0
   -7.7970   21.9080  -31.5020 C   0  0  0  0  0  0  0  0  0  0  0  0
   -6.4400   21.8750  -31.8540 C   0  0  0  0  0  0  0  0  0  0  0  0
   -5.3700   23.1980  -31.4010 S   0  0  0  0  0  0  0  0  0  0  0  0
   -5.9360   24.4850  -31.9310 O   0  0  0  0  0  0  0  0  0  0  0  0
   -3.9970   22.9890  -31.9770 O   0  0  0  0  0  0  0  0  0  0  0  0
   -5.2510   23.2950  -29.6740 N   0  0  0  0  0  0  0  0  0  0  0  0
   -4.0340   23.4940  -28.9400 C   0  0  0  0  0  0  0  0  0  0  0  0
   -3.7020   22.7040  -27.8220 C   0  0  0  0  0  0  0  0  0  0  0  0
   -2.5120   22.9310  -27.1280 C   0  0  0  0  0  0  0  0  0  0  0  0
   -1.6400   23.9400  -27.5410 C   0  0  0  0  0  0  0  0  0  0  0  0
   -1.9590   24.7280  -28.6500 C   0  0  0  0  0  0  0  0  0  0  0  0
   -3.1530   24.5080  -29.3510 C   0  0  0  0  0  0  0  0  0  0  0  0
   -3.4720   25.2970  -30.4550 O   0  0  0  0  0  0  0  0  0  0  0  0
   -5.9380   20.7830  -32.5760 C   0  0  0  0  0  0  0  0  0  0  0  0
   -2.8200   19.6700  -32.0350 N   0  0  0  0  0  0  0  0  0  0  0  0
   -1.3778   20.2314  -29.3657 H   0  0  0  0  0  0  0  0  0  0  0  0
   -2.3632   21.7236  -29.5365 H   0  0  0  0  0  0  0  0  0  0  0  0
   -3.1621   20.1147  -29.5365 H   0  0  0  0  0  0  0  0  0  0  0  0
   -0.6881   22.2340  -31.4443 H   0  0  0  0  0  0  0  0  0  0  0  0
   -0.4610   22.0652  -33.9300 H   0  0  0  0  0  0  0  0  0  0  0  0
   -1.7586   20.3308  -35.1842 H   0  0  0  0  0  0  0  0  0  0  0  0
   -3.9378   18.9146  -35.0107 H   0  0  0  0  0  0  0  0  0  0  0  0
   -2.7895   17.6740  -34.3664 H   0  0  0  0  0  0  0  0  0  0  0  0
   -8.8131   18.9572  -32.8993 H   0  0  0  0  0  0  0  0  0  0  0  0
   -9.7091   20.8916  -31.5998 H   0  0  0  0  0  0  0  0  0  0  0  0
   -8.1950   22.7588  -30.9296 H   0  0  0  0  0  0  0  0  0  0  0  0
   -4.3832   21.9049  -27.4944 H   0  0  0  0  0  0  0  0  0  0  0  0
   -2.2608   22.3131  -26.2533 H   0  0  0  0  0  0  0  0  0  0  0  0
   -0.7020   24.1147  -26.9935 H   0  0  0  0  0  0  0  0  0  0  0  0
   -1.2714   25.5231  -28.9739 H   0  0  0  0  0  0  0  0  0  0  0  0
   -3.8830   24.8990  -31.2910 H   0  0  0  0  0  0  0  0  0  0  0  0
   -4.8719   20.7483  -32.8447 H   0  0  0  0  0  0  0  0  0  0  0  0
  1  2  1  0
  2  3  2  0
  3  4  1  0
  4  5  2  0
  5  6  1  0
  6  7  1  0
  7  8  1  0
  8  9  1  0
  9 10  2  0
  9 11  2  0
  9 12  1  0
 12 13  2  0
 13 14  1  0
 14 15  2  0
 15 16  1  0
 16 17  1  0
 17 18  2  0
 17 19  2  0
 17 20  1  0
 20 21  1  0
 21 22  2  0
 22 23  1  0
 23 24  2  0
 24 25  1  0
 25 26  2  0
 26 27  1  0
 16 28  2  0
  6 29  2  0
 29  2  1  0
 28 12  1  0
 26 21  1  0
  1 30  1  0
  1 31  1  0
  1 32  1  0
  3 33  1  0
  4 34  1  0
  5 35  1  0
  7 36  1  0
  7 37  1  0
 13 38  1  0
 14 39  1  0
 15 40  1  0
 22 41  1  0
 23 42  1  0
 24 43  1  0
 25 44  1  0
 27 45  1  0
 28 46  1  0
M  CHG  2   8  -1  20  -1
M  END
>  <UniqueID>  (7) 
7

>  <SMILES>  (7) 
Cc1cccc(C[N-]S(=O)(=O)c2cccc(S(=O)(=O)[N-]c3ccccc3O)c2)n1

>  <Energy>  (7) 
48.17684078172908

>  <Genealogy>  (7) 
Cc1cccc(C[N-]S(=O)(=O)c2cccc(S(=O)(=O)[N-]c3ccccc3O)c2)n1 (protonated)
Cc1cccc(C[N-]S(=O)(=O)c2cccc(S(=O)(=O)[N-]c3ccccc3O)c2)n1 (3D coordinates assigned)
Cc1cccc(C[N-]S(=O)(=O)c2cccc(S(=O)(=O)[N-]c3ccccc3O)c2)n1 (optimized conformer: 48.17684078172908 kcal/mol)

>  <smiles>  (7) 
Cc1cccc(CNS(=O)(=O)c2cccc(S(=O)(=O)Nc3ccccc3O)c2)n1

>  <score_type>  (7) 
oracle

>  <origin>  (7) 
adgpu

>  <m_score__min__energy>  (7) 
-10.970000000000001

>  <m_primary>  (7) 
energy

$$$$
7:0
     RDKit          3D

 64 67  0  0  1  0  0  0  0  0999 V2000
   -3.8530   18.6880  -25.9970 C   0  0  0  0  0  0  0  0  0  0  0  0
   -2.5600   18.8840  -26.7000 C   0  0  0  0  0  0  0  0  0  0  0  0
   -1.6290   17.8700  -26.6600 C   0  0  0  0  0  0  0  0  0  0  0  0
   -0.4310   18.0650  -27.3170 C   0  0  0  0  0  0  0  0  0  0  0  0
   -0.1290   19.2230  -28.0060 C   0  0  0  0  0  0  0  0  0  0  0  0
    1.0820   19.3270  -28.6260 O   0  0  0  0  0  0  0  0  0  0  0  0
    1.3380   19.0920  -29.9690 C   0  0  0  0  0  0  0  0  0  0  0  0
    1.0750   20.1240  -30.8450 C   0  0  0  0  0  0  0  0  0  0  0  0
    1.3170   19.9160  -32.1480 N   0  0  0  0  0  0  0  0  0  0  0  0
    1.8000   18.7650  -32.6460 C   0  0  0  0  0  0  0  0  0  0  0  0
    1.9880   18.6860  -33.8980 N   0  0  0  0  0  0  0  0  0  0  0  0
    1.7560   19.6770  -34.8970 C   0  0  0  0  0  0  0  0  0  0  0  0
    0.5150   19.6290  -35.6960 C   0  0  0  0  0  0  0  0  0  0  0  0
   -0.0050   21.0770  -35.8470 C   0  0  0  0  0  0  0  0  0  0  0  0
    1.1690   21.7930  -36.3770 N   0  0  0  0  0  0  0  0  0  0  0  0
    1.1460   23.2230  -36.4470 C   0  0  0  0  0  0  0  0  0  0  0  0
    2.1450   23.8720  -36.8990 O   0  0  0  0  0  0  0  0  0  0  0  0
   -0.0060   23.9310  -36.0080 N   0  0  0  0  0  0  0  0  0  0  0  0
    0.0290   25.3510  -36.1030 C   0  0  0  0  0  0  0  0  0  0  0  0
   -0.8200   26.1000  -36.8510 C   0  0  0  0  0  0  0  0  0  0  0  0
   -0.6640   27.4750  -36.8440 C   0  0  0  0  0  0  0  0  0  0  0  0
    0.3160   28.0910  -36.1070 C   0  0  0  0  0  0  0  0  0  0  0  0
    0.4270   29.5510  -36.1440 C   0  0  0  0  0  0  0  0  0  0  0  0
   -0.2060   30.2490  -37.0010 O   0  0  0  0  0  0  0  0  0  0  0  0
    1.2280   30.2360  -35.2400 O   0  0  0  0  0  0  0  0  0  0  0  0
    1.1850   27.3480  -35.3420 C   0  0  0  0  0  0  0  0  0  0  0  0
    2.1840   27.9400  -34.5880 O   0  0  0  0  0  0  0  0  0  0  0  0
    1.0280   25.9780  -35.3510 C   0  0  0  0  0  0  0  0  0  0  0  0
    2.3090   21.0380  -36.8090 C   0  0  0  0  0  0  0  0  0  0  0  0
    2.9040   20.1440  -35.7130 C   0  0  0  0  0  0  0  0  0  0  0  0
    2.0610   17.7450  -31.7840 N   0  0  0  0  0  0  0  0  0  0  0  0
    1.8340   17.9010  -30.4540 C   0  0  0  0  0  0  0  0  0  0  0  0
    2.0730   16.9510  -29.6140 N   0  0  0  0  0  0  0  0  0  0  0  0
   -1.0810   20.2230  -28.0290 C   0  0  0  0  0  0  0  0  0  0  0  0
   -0.8100   21.4910  -28.7560 C   0  0  0  0  0  0  0  0  0  0  0  0
   -2.2810   20.0500  -27.3820 C   0  0  0  0  0  0  0  0  0  0  0  0
   -3.6868   18.7132  -24.9099 H   0  0  0  0  0  0  0  0  0  0  0  0
   -4.5497   19.4908  -26.2801 H   0  0  0  0  0  0  0  0  0  0  0  0
   -4.2805   17.7148  -26.2801 H   0  0  0  0  0  0  0  0  0  0  0  0
   -1.8339   16.9333  -26.1209 H   0  0  0  0  0  0  0  0  0  0  0  0
    0.3184   17.2602  -27.2905 H   0  0  0  0  0  0  0  0  0  0  0  0
    0.6798   21.0861  -30.4871 H   0  0  0  0  0  0  0  0  0  0  0  0
    1.1220   20.6830  -32.8010 H   0  0  0  0  0  0  0  0  0  0  0  0
    1.5728   20.4648  -34.1515 H   0  0  0  0  0  0  0  0  0  0  0  0
    0.7244   19.2011  -36.6875 H   0  0  0  0  0  0  0  0  0  0  0  0
   -0.2382   18.9997  -35.1993 H   0  0  0  0  0  0  0  0  0  0  0  0
   -0.8485   21.1234  -36.5515 H   0  0  0  0  0  0  0  0  0  0  0  0
   -0.3864   21.5026  -34.9071 H   0  0  0  0  0  0  0  0  0  0  0  0
   -0.8550   23.4210  -35.6260 H   0  0  0  0  0  0  0  0  0  0  0  0
   -1.6128   25.6258  -37.4483 H   0  0  0  0  0  0  0  0  0  0  0  0
   -1.3458   28.0925  -37.4471 H   0  0  0  0  0  0  0  0  0  0  0  0
    2.1740   29.8960  -35.0880 H   0  0  0  0  0  0  0  0  0  0  0  0
    1.9900   28.6210  -33.8650 H   0  0  0  0  0  0  0  0  0  0  0  0
    1.7092   25.3593  -34.7484 H   0  0  0  0  0  0  0  0  0  0  0  0
    2.0046   20.3996  -37.6515 H   0  0  0  0  0  0  0  0  0  0  0  0
    3.0870   21.7619  -37.0929 H   0  0  0  0  0  0  0  0  0  0  0  0
    3.4277   19.2869  -36.1615 H   0  0  0  0  0  0  0  0  0  0  0  0
    3.6368   20.6907  -35.1013 H   0  0  0  0  0  0  0  0  0  0  0  0
    2.4370   16.8420  -32.1530 H   0  0  0  0  0  0  0  0  0  0  0  0
    2.4400   16.0180  -29.8290 H   0  0  0  0  0  0  0  0  0  0  0  0
   -0.6372   22.2998  -28.0307 H   0  0  0  0  0  0  0  0  0  0  0  0
    0.0822   21.3681  -29.3876 H   0  0  0  0  0  0  0  0  0  0  0  0
   -1.6745   21.7435  -29.3876 H   0  0  0  0  0  0  0  0  0  0  0  0
   -3.0310   20.8542  -27.4084 H   0  0  0  0  0  0  0  0  0  0  0  0
  1  2  1  0
  2  3  2  0
  3  4  1  0
  4  5  2  0
  5  6  1  0
  6  7  1  0
  7  8  2  0
  8  9  1  0
  9 10  1  0
 10 11  2  0
 11 12  1  0
 12 13  1  0
 13 14  1  0
 14 15  1  0
 15 16  1  0
 16 17  2  0
 16 18  1  0
 18 19  1  0
 19 20  2  0
 20 21  1  0
 21 22  2  0
 22 23  1  0
 23 24  2  0
 23 25  1  0
 22 26  1  0
 26 27  1  0
 26 28  2  0
 15 29  1  0
 29 30  1  0
 10 31  1  0
 31 32  1  0
 32 33  2  3
  5 34  1  0
 34 35  1  0
 34 36  2  0
 36  2  1  0
 32  7  1  0
 30 12  1  0
 28 19  1  0
  1 37  1  0
  1 38  1  0
  1 39  1  0
  3 40  1  0
  4 41  1  0
  8 42  1  0
  9 43  1  0
 12 44  1  0
 13 45  1  0
 13 46  1  0
 14 47  1  0
 14 48  1  0
 18 49  1  0
 20 50  1  0
 21 51  1  0
 25 52  1  0
 27 53  1  0
 28 54  1  0
 29 55  1  0
 29 56  1  0
 30 57  1  0
 30 58  1  0
 31 59  1  0
 33 60  1  0
 35 61  1  0
 35 62  1  0
 35 63  1  0
 36 64  1  0
M  END
>  <smiles>  (8) 
Cc1ccc(Oc2c[nH]c(=NC3CCN(C(=O)Nc4ccc(C(=O)O)c(O)c4)CC3)[nH]c2=N)c(C)c1

>  <score_type>  (8) 
oracle

>  <origin>  (8) 
adgpu

>  <m_score__min__energy>  (8) 
-8.5999999999999996

>  <m_primary>  (8) 
energy

$$$$
8:0
     RDKit          3D

 55 58  0  0  0  0  0  0  0  0999 V2000
   -7.6490   17.7980  -32.4360 C   0  0  0  0  0  0  0  0  0  0  0  0
   -7.8280   19.2740  -32.2490 C   0  0  0  0  0  0  0  0  0  0  0  0
   -9.1160   19.8040  -31.9810 C   0  0  0  0  0  0  0  0  0  0  0  0
   -9.3050   21.1920  -31.8430 C   0  0  0  0  0  0  0  0  0  0  0  0
   -8.1940   22.0200  -31.9870 C   0  0  0  0  0  0  0  0  0  0  0  0
   -8.1650   23.3620  -31.9150 N   0  0  0  0  0  0  0  0  0  0  0  0
   -6.8800   23.7200  -32.1440 C   0  0  0  0  0  0  0  0  0  0  0  0
   -6.0930   22.5920  -32.3530 C   0  0  0  0  0  0  0  0  0  0  0  0
   -4.6350   22.5750  -32.7030 C   0  0  0  0  0  0  0  0  0  0  0  0
   -3.7540   22.5110  -31.4510 C   0  0  0  0  0  0  0  0  0  0  0  0
   -4.5260   22.7660  -30.2320 N   0  0  0  0  0  0  0  0  0  0  0  0
   -4.2020   24.3460  -29.5780 S   0  0  0  0  0  0  0  0  0  0  0  0
   -5.4210   24.8750  -28.8770 O   0  0  0  0  0  0  0  0  0  0  0  0
   -3.8670   25.2790  -30.7060 O   0  0  0  0  0  0  0  0  0  0  0  0
   -2.8360   24.2930  -28.4650 C   0  0  0  0  0  0  0  0  0  0  0  0
   -2.7080   23.2220  -27.5700 C   0  0  0  0  0  0  0  0  0  0  0  0
   -1.6340   23.1760  -26.6770 C   0  0  0  0  0  0  0  0  0  0  0  0
   -0.6770   24.2010  -26.6700 C   0  0  0  0  0  0  0  0  0  0  0  0
    0.6790   24.1460  -25.5370 S   0  0  0  0  0  0  0  0  0  0  0  0
    1.9520   24.4330  -26.2840 O   0  0  0  0  0  0  0  0  0  0  0  0
    0.7790   22.7610  -24.9600 O   0  0  0  0  0  0  0  0  0  0  0  0
    0.5100   25.2980  -24.2330 N   0  0  0  0  0  0  0  0  0  0  0  0
    1.3370   26.4900  -24.4280 C   0  0  0  0  0  0  0  0  0  0  0  0
    0.6650   27.6130  -23.6510 C   0  0  0  0  0  0  0  0  0  0  0  0
   -0.7700   27.1540  -23.4310 C   0  0  0  0  0  0  0  0  0  0  0  0
   -0.8630   25.7850  -24.0910 C   0  0  0  0  0  0  0  0  0  0  0  0
   -0.8160   25.2810  -27.5530 C   0  0  0  0  0  0  0  0  0  0  0  0
   -1.8880   25.3250  -28.4490 C   0  0  0  0  0  0  0  0  0  0  0  0
   -6.9500   21.5140  -32.2580 C   0  0  0  0  0  0  0  0  0  0  0  0
   -6.7280   20.1450  -32.4050 C   0  0  0  0  0  0  0  0  0  0  0  0
   -7.5896   17.3084  -31.4528 H   0  0  0  0  0  0  0  0  0  0  0  0
   -8.5046   17.3930  -32.9962 H   0  0  0  0  0  0  0  0  0  0  0  0
   -6.7214   17.6092  -32.9962 H   0  0  0  0  0  0  0  0  0  0  0  0
   -9.9749   19.1243  -31.8801 H   0  0  0  0  0  0  0  0  0  0  0  0
  -10.2995   21.6101  -31.6280 H   0  0  0  0  0  0  0  0  0  0  0  0
   -8.9700   24.0030  -31.7340 H   0  0  0  0  0  0  0  0  0  0  0  0
   -6.5104   24.7559  -32.1623 H   0  0  0  0  0  0  0  0  0  0  0  0
   -4.4288   21.6949  -33.3297 H   0  0  0  0  0  0  0  0  0  0  0  0
   -4.4000   23.5050  -33.2413 H   0  0  0  0  0  0  0  0  0  0  0  0
   -3.3018   21.5105  -31.3839 H   0  0  0  0  0  0  0  0  0  0  0  0
   -2.9802   23.2882  -31.5359 H   0  0  0  0  0  0  0  0  0  0  0  0
   -3.4554   22.4149  -27.5705 H   0  0  0  0  0  0  0  0  0  0  0  0
   -1.5390   22.3327  -25.9771 H   0  0  0  0  0  0  0  0  0  0  0  0
    0.7980   24.8260  -23.3420 H   0  0  0  0  0  0  0  0  0  0  0  0
    2.3523   26.3155  -24.0424 H   0  0  0  0  0  0  0  0  0  0  0  0
    1.4266   26.7422  -25.4949 H   0  0  0  0  0  0  0  0  0  0  0  0
    1.1707   27.7693  -22.6867 H   0  0  0  0  0  0  0  0  0  0  0  0
    0.7089   28.5683  -24.1946 H   0  0  0  0  0  0  0  0  0  0  0  0
   -0.9892   27.0784  -22.3557 H   0  0  0  0  0  0  0  0  0  0  0  0
   -1.4957   27.8629  -23.8561 H   0  0  0  0  0  0  0  0  0  0  0  0
   -1.4466   25.0980  -23.4605 H   0  0  0  0  0  0  0  0  0  0  0  0
   -1.3659   25.8474  -25.0673 H   0  0  0  0  0  0  0  0  0  0  0  0
   -0.0785   26.0971  -27.5407 H   0  0  0  0  0  0  0  0  0  0  0  0
   -1.9878   26.1721  -29.1436 H   0  0  0  0  0  0  0  0  0  0  0  0
   -5.7255   19.7554  -32.6357 H   0  0  0  0  0  0  0  0  0  0  0  0
  1  2  1  0
  2  3  2  0
  3  4  1  0
  4  5  2  0
  5  6  1  0
  6  7  1  0
  7  8  2  0
  8  9  1  0
  9 10  1  0
 10 11  1  0
 11 12  1  0
 12 13  2  0
 12 14  2  0
 12 15  1  0
 15 16  2  0
 16 17  1  0
 17 18  2  0
 18 19  1  0
 19 20  2  0
 19 21  2  0
 19 22  1  0
 22 23  1  0
 23 24  1  0
 24 25  1  0
 25 26  1  0
 18 27  1  0
 27 28  2  0
  8 29  1  0
 29 30  2  0
 30  2  1  0
 29  5  1  0
 28 15  1  0
 26 22  1  0
  1 31  1  0
  1 32  1  0
  1 33  1  0
  3 34  1  0
  4 35  1  0
  6 36  1  0
  7 37  1  0
  9 38  1  0
  9 39  1  0
 10 40  1  0
 10 41  1  0
 16 42  1  0
 17 43  1  0
 22 44  1  0
 23 45  1  0
 23 46  1  0
 24 47  1  0
 24 48  1  0
 25 49  1  0
 25 50  1  0
 26 51  1  0
 26 52  1  0
 27 53  1  0
 28 54  1  0
 30 55  1  0
M  CHG  2  11  -1  22   1
M  END
>  <UniqueID>  (9) 
8

>  <SMILES>  (9) 
Cc1ccc2[nH]cc(CC[N-]S(=O)(=O)c3ccc(S(=O)(=O)[NH+]4CCCC4)cc3)c2c1

>  <Energy>  (9) 
87.83138083248508

>  <Genealogy>  (9) 
Cc1ccc2[nH]cc(CC[N-]S(=O)(=O)c3ccc(S(=O)(=O)[NH+]4CCCC4)cc3)c2c1 (protonated)
Cc1ccc2[nH]cc(CC[N-]S(=O)(=O)c3ccc(S(=O)(=O)[NH+]4CCCC4)cc3)c2c1 (3D coordinates assigned)
Cc1ccc2[nH]cc(CC[N-]S(=O)(=O)c3ccc(S(=O)(=O)[NH+]4CCCC4)cc3)c2c1 (nonaromatic ring conformer: 87.83138083248508 kcal/mol)

>  <smiles>  (9) 
Cc1ccc2[nH]cc(CCNS(=O)(=O)c3ccc(S(=O)(=O)N4CCCC4)cc3)c2c1

>  <score_type>  (9) 
oracle

>  <origin>  (9) 
adgpu

>  <m_score__min__energy>  (9) 
-11.99

>  <m_primary>  (9) 
energy

$$$$
9:0
     RDKit          3D

 38 40  0  0  0  0  0  0  0  0999 V2000
   -6.1240   25.5810  -29.8500 C   0  0  0  0  0  0  0  0  0  0  0  0
   -5.3090   24.6000  -30.5640 N   0  0  0  0  0  0  0  0  0  0  0  0
   -5.6910   23.7860  -31.5660 C   0  0  0  0  0  0  0  0  0  0  0  0
   -7.0870   23.6420  -32.1000 C   0  0  0  0  0  0  0  0  0  0  0  0
   -7.5370   22.2240  -31.9760 C   0  0  0  0  0  0  0  0  0  0  0  0
   -6.8050   21.1730  -32.4010 N   0  0  0  0  0  0  0  0  0  0  0  0
   -7.3990   19.9780  -32.1210 C   0  0  0  0  0  0  0  0  0  0  0  0
   -6.7580   18.6910  -32.4960 C   0  0  0  0  0  0  0  0  0  0  0  0
   -6.3810   17.7780  -31.4930 C   0  0  0  0  0  0  0  0  0  0  0  0
   -5.7760   16.5630  -31.8270 C   0  0  0  0  0  0  0  0  0  0  0  0
   -5.5380   16.2370  -33.1670 C   0  0  0  0  0  0  0  0  0  0  0  0
   -4.7590   14.7150  -33.5850 S   0  0  0  0  0  0  0  0  0  0  0  0
   -4.2670   13.8760  -32.0960 C   0  0  0  0  0  0  0  0  0  0  0  0
   -3.5500   14.9780  -34.4380 O   0  0  0  0  0  0  0  0  0  0  0  0
   -5.7150   13.8490  -34.3570 O   0  0  0  0  0  0  0  0  0  0  0  0
   -5.8960   17.1440  -34.1720 C   0  0  0  0  0  0  0  0  0  0  0  0
   -6.5020   18.3600  -33.8420 C   0  0  0  0  0  0  0  0  0  0  0  0
   -8.6200   20.0870  -31.4460 C   0  0  0  0  0  0  0  0  0  0  0  0
   -8.9410   21.7200  -31.2080 S   0  0  0  0  0  0  0  0  0  0  0  0
   -4.5890   23.0560  -31.9570 C   0  0  0  0  0  0  0  0  0  0  0  0
   -4.5750   22.0830  -32.9510 O   0  0  0  0  0  0  0  0  0  0  0  0
   -3.5050   23.4100  -31.2370 N   0  0  0  0  0  0  0  0  0  0  0  0
   -3.9890   24.3570  -30.4050 C   0  0  0  0  0  0  0  0  0  0  0  0
   -3.2680   24.9540  -29.5610 O   0  0  0  0  0  0  0  0  0  0  0  0
   -6.0047   25.4374  -28.7660 H   0  0  0  0  0  0  0  0  0  0  0  0
   -5.7995   26.5959  -30.1234 H   0  0  0  0  0  0  0  0  0  0  0  0
   -7.1812   25.4480  -30.1234 H   0  0  0  0  0  0  0  0  0  0  0  0
   -7.7652   24.2909  -31.5265 H   0  0  0  0  0  0  0  0  0  0  0  0
   -7.0999   23.9336  -33.1606 H   0  0  0  0  0  0  0  0  0  0  0  0
   -6.5643   18.0231  -30.4364 H   0  0  0  0  0  0  0  0  0  0  0  0
   -5.4855   15.8596  -31.0327 H   0  0  0  0  0  0  0  0  0  0  0  0
   -4.6048   14.4520  -31.2219 H   0  0  0  0  0  0  0  0  0  0  0  0
   -4.7207   12.8742  -32.0726 H   0  0  0  0  0  0  0  0  0  0  0  0
   -3.1712   13.7829  -32.0726 H   0  0  0  0  0  0  0  0  0  0  0  0
   -5.6995   16.8986  -35.2261 H   0  0  0  0  0  0  0  0  0  0  0  0
   -6.7813   19.0643  -34.6395 H   0  0  0  0  0  0  0  0  0  0  0  0
   -9.2585   19.2501  -31.1268 H   0  0  0  0  0  0  0  0  0  0  0  0
   -5.2940   22.0640  -33.6640 H   0  0  0  0  0  0  0  0  0  0  0  0
  1  2  1  0
  2  3  1  0
  3  4  1  0
  4  5  1  0
  5  6  2  0
  6  7  1  0
  7  8  1  0
  8  9  2  0
  9 10  1  0
 10 11  2  0
 11 12  1  0
 12 13  1  0
 12 14  2  0
 12 15  2  0
 11 16  1  0
 16 17  2  0
  7 18  2  0
 18 19  1  0
  3 20  2  0
 20 21  1  0
 20 22  1  0
 22 23  1  0
 23 24  2  0
 23  2  1  0
 19  5  1  0
 17  8  1  0
  1 25  1  0
  1 26  1  0
  1 27  1  0
  4 28  1  0
  4 29  1  0
  9 30  1  0
 10 31  1  0
 13 32  1  0
 13 33  1  0
 13 34  1  0
 16 35  1  0
 17 36  1  0
 18 37  1  0
 21 38  1  0
M  CHG  1  22  -1
M  END
>  <UniqueID>  (10) 
9

>  <SMILES>  (10) 
Cn1c(Cc2nc(-c3ccc(S(C)(=O)=O)cc3)cs2)c(O)[n-]c1=O

>  <Energy>  (10) 
97.177353797667

>  <Genealogy>  (10) 
Cn1c(Cc2nc(-c3ccc(S(C)(=O)=O)cc3)cs2)c(O)[n-]c1=O (protonated)
Cn1c(Cc2nc(-c3ccc(S(C)(=O)=O)cc3)cs2)c(O)[n-]c1=O (3D coordinates assigned)
Cn1c(Cc2nc(-c3ccc(S(C)(=O)=O)cc3)cs2)c(O)[n-]c1=O (optimized conformer: 97.177353797667 kcal/mol)

>  <smiles>  (10) 
Cn1c(Cc2nc(-c3ccc(S(C)(=O)=O)cc3)cs2)c(O)[nH]c1=O

>  <score_type>  (10) 
oracle

>  <origin>  (10) 
adgpu

>  <m_score__min__energy>  (10) 
-9.5299999999999994

>  <m_primary>  (10) 
energy

$$$$
10:0
     RDKit          3D

 56 59  0  0  0  0  0  0  0  0999 V2000
    0.1260   17.1040  -31.0180 C   0  0  0  0  0  0  0  0  0  0  0  0
    0.8560   17.9930  -30.0990 N   0  0  0  0  0  0  0  0  0  0  0  0
    0.8890   19.3880  -30.6140 C   0  0  0  0  0  0  0  0  0  0  0  0
   -0.1170   20.3160  -29.9150 C   0  0  0  0  0  0  0  0  0  0  0  0
    0.0800   20.2690  -28.4590 N   0  0  0  0  0  0  0  0  0  0  0  0
   -0.1970   21.4220  -27.6460 C   0  0  0  0  0  0  0  0  0  0  0  0
    0.6010   21.7340  -26.7200 O   0  0  0  0  0  0  0  0  0  0  0  0
   -1.4080   22.2400  -27.8660 C   0  0  0  0  0  0  0  0  0  0  0  0
   -1.2960   23.5910  -28.2370 C   0  0  0  0  0  0  0  0  0  0  0  0
   -2.4420   24.3560  -28.4710 C   0  0  0  0  0  0  0  0  0  0  0  0
   -3.7160   23.7810  -28.3390 C   0  0  0  0  0  0  0  0  0  0  0  0
   -4.8990   24.5550  -28.5710 N   0  0  0  0  0  0  0  0  0  0  0  0
   -5.5490   24.7490  -30.1680 S   0  0  0  0  0  0  0  0  0  0  0  0
   -6.8760   25.4520  -30.0720 O   0  0  0  0  0  0  0  0  0  0  0  0
   -4.6150   25.6020  -30.9840 O   0  0  0  0  0  0  0  0  0  0  0  0
   -5.7290   23.1910  -30.9700 C   0  0  0  0  0  0  0  0  0  0  0  0
   -4.6680   22.6360  -31.6970 C   0  0  0  0  0  0  0  0  0  0  0  0
   -4.8210   21.4030  -32.3380 C   0  0  0  0  0  0  0  0  0  0  0  0
   -6.0380   20.7010  -32.2600 C   0  0  0  0  0  0  0  0  0  0  0  0
   -6.1920   19.3820  -32.9270 C   0  0  0  0  0  0  0  0  0  0  0  0
   -5.5050   19.1010  -34.1260 C   0  0  0  0  0  0  0  0  0  0  0  0
   -5.6540   17.8620  -34.7550 C   0  0  0  0  0  0  0  0  0  0  0  0
   -6.4860   16.8880  -34.1980 C   0  0  0  0  0  0  0  0  0  0  0  0
   -7.1720   17.1530  -33.0100 C   0  0  0  0  0  0  0  0  0  0  0  0
   -7.0300   18.3910  -32.3760 C   0  0  0  0  0  0  0  0  0  0  0  0
   -7.1010   21.2680  -31.5300 C   0  0  0  0  0  0  0  0  0  0  0  0
   -6.9460   22.5030  -30.8910 C   0  0  0  0  0  0  0  0  0  0  0  0
   -3.8290   22.4360  -27.9610 C   0  0  0  0  0  0  0  0  0  0  0  0
   -2.6840   21.6640  -27.7410 C   0  0  0  0  0  0  0  0  0  0  0  0
    0.6600   19.0680  -27.8520 C   0  0  0  0  0  0  0  0  0  0  0  0
    0.3320   17.8500  -28.7200 C   0  0  0  0  0  0  0  0  0  0  0  0
   -0.4666   16.3823  -30.4366 H   0  0  0  0  0  0  0  0  0  0  0  0
   -0.5445   17.7027  -31.6520 H   0  0  0  0  0  0  0  0  0  0  0  0
    0.8437   16.5628  -31.6520 H   0  0  0  0  0  0  0  0  0  0  0  0
    1.9008   19.7924  -30.4631 H   0  0  0  0  0  0  0  0  0  0  0  0
    0.6134   19.3499  -31.6782 H   0  0  0  0  0  0  0  0  0  0  0  0
    0.0318   21.3467  -30.2692 H   0  0  0  0  0  0  0  0  0  0  0  0
   -1.1384   19.9830  -30.1512 H   0  0  0  0  0  0  0  0  0  0  0  0
   -0.3014   24.0485  -28.3437 H   0  0  0  0  0  0  0  0  0  0  0  0
   -2.3454   25.4130  -28.7598 H   0  0  0  0  0  0  0  0  0  0  0  0
   -5.5570   24.7060  -27.7740 H   0  0  0  0  0  0  0  0  0  0  0  0
   -3.7102   23.1727  -31.7638 H   0  0  0  0  0  0  0  0  0  0  0  0
   -3.9822   20.9777  -32.9086 H   0  0  0  0  0  0  0  0  0  0  0  0
   -4.8469   19.8627  -34.5695 H   0  0  0  0  0  0  0  0  0  0  0  0
   -5.1149   17.6533  -35.6908 H   0  0  0  0  0  0  0  0  0  0  0  0
   -6.6010   15.9131  -34.6943 H   0  0  0  0  0  0  0  0  0  0  0  0
   -7.8262   16.3848  -32.5719 H   0  0  0  0  0  0  0  0  0  0  0  0
   -7.5751   18.5930  -31.4421 H   0  0  0  0  0  0  0  0  0  0  0  0
   -8.0610   20.7353  -31.4618 H   0  0  0  0  0  0  0  0  0  0  0  0
   -7.7837   22.9353  -30.3242 H   0  0  0  0  0  0  0  0  0  0  0  0
   -4.8245   21.9850  -27.8366 H   0  0  0  0  0  0  0  0  0  0  0  0
   -2.7822   20.6026  -27.4693 H   0  0  0  0  0  0  0  0  0  0  0  0
    1.7515   19.1839  -27.7798 H   0  0  0  0  0  0  0  0  0  0  0  0
    0.2397   18.9256  -26.8455 H   0  0  0  0  0  0  0  0  0  0  0  0
    0.7795   16.9561  -28.2611 H   0  0  0  0  0  0  0  0  0  0  0  0
   -0.7627   17.7609  -28.7803 H   0  0  0  0  0  0  0  0  0  0  0  0
  1  2  1  0
  2  3  1  0
  3  4  1  0
  4  5  1  0
  5  6  1  0
  6  7  2  0
  6  8  1  0
  8  9  2  0
  9 10  1  0
 10 11  2  0
 11 12  1  0
 12 13  1  0
 13 14  2  0
 13 15  2  0
 13 16  1  0
 16 17  2  0
 17 18  1  0
 18 19  2  0
 19 20  1  0
 20 21  2  0
 21 22  1  0
 22 23  2  0
 23 24  1  0
 24 25  2  0
 19 26  1  0
 26 27  2  0
 11 28  1  0
 28 29  2  0
  5 30  1  0
 30 31  1  0
 31  2  1  0
 29  8  1  0
 27 16  1  0
 25 20  1  0
  1 32  1  0
  1 33  1  0
  1 34  1  0
  3 35  1  0
  3 36  1  0
  4 37  1  0
  4 38  1  0
  9 39  1  0
 10 40  1  0
 12 41  1  0
 17 42  1  0
 18 43  1  0
 21 44  1  0
 22 45  1  0
 23 46  1  0
 24 47  1  0
 25 48  1  0
 26 49  1  0
 27 50  1  0
 28 51  1  0
 29 52  1  0
 30 53  1  0
 30 54  1  0
 31 55  1  0
 31 56  1  0
M  END
>  <UniqueID>  (11) 
10

>  <SMILES>  (11) 
CN1CCN(C(=O)c2ccc(NS(=O)(=O)c3ccc(-c4ccccc4)cc3)cc2)CC1

>  <Energy>  (11) 
81.62109033635971

>  <Genealogy>  (11) 
CN1CCN(C(=O)c2ccc(NS(=O)(=O)c3ccc(-c4ccccc4)cc3)cc2)CC1 (3D coordinates assigned)
CN1CCN(C(=O)c2ccc(NS(=O)(=O)c3ccc(-c4ccccc4)cc3)cc2)CC1 (nonaromatic ring conformer: 81.62109033635971 kcal/mol)

>  <smiles>  (11) 
CN1CCN(C(=O)c2ccc(NS(=O)(=O)c3ccc(-c4ccccc4)cc3)cc2)CC1

>  <score_type>  (11) 
oracle

>  <origin>  (11) 
adgpu

>  <m_score__min__energy>  (11) 
-10.57

>  <m_primary>  (11) 
energy

$$$$
11:0
     RDKit          3D

 56 59  0  0  0  0  0  0  0  0999 V2000
   -2.6110   22.0540  -31.6990 O   0  0  0  0  0  0  0  0  0  0  0  0
   -3.2120   22.4340  -30.6620 C   0  0  0  0  0  0  0  0  0  0  0  0
   -2.5930   22.2390  -29.3870 N   0  0  0  0  0  0  0  0  0  0  0  0
   -2.5350   23.2260  -28.3470 C   0  0  0  0  0  0  0  0  0  0  0  0
   -3.7130   23.5800  -27.6780 C   0  0  0  0  0  0  0  0  0  0  0  0
   -3.6940   24.5730  -26.6950 C   0  0  0  0  0  0  0  0  0  0  0  0
   -2.5020   25.2370  -26.3910 C   0  0  0  0  0  0  0  0  0  0  0  0
   -1.3200   24.9090  -27.0680 C   0  0  0  0  0  0  0  0  0  0  0  0
    0.1700   25.8020  -26.7400 S   0  0  0  0  0  0  0  0  0  0  0  0
   -0.0610   27.2610  -27.0220 O   0  0  0  0  0  0  0  0  0  0  0  0
    1.2480   25.3190  -27.6720 O   0  0  0  0  0  0  0  0  0  0  0  0
    0.7140   25.6120  -25.0850 N   0  0  0  0  0  0  0  0  0  0  0  0
   -0.4040   25.2730  -24.1980 C   0  0  0  0  0  0  0  0  0  0  0  0
   -0.8900   26.5550  -23.5370 C   0  0  0  0  0  0  0  0  0  0  0  0
    0.2170   27.5690  -23.7410 C   0  0  0  0  0  0  0  0  0  0  0  0
    1.2820   26.8610  -24.5670 C   0  0  0  0  0  0  0  0  0  0  0  0
   -1.3390   23.9010  -28.0430 C   0  0  0  0  0  0  0  0  0  0  0  0
   -4.5210   23.1120  -30.7840 C   0  0  0  0  0  0  0  0  0  0  0  0
   -5.6770   22.3520  -31.0240 C   0  0  0  0  0  0  0  0  0  0  0  0
   -6.9270   22.9760  -31.1430 C   0  0  0  0  0  0  0  0  0  0  0  0
   -8.3800   22.0090  -31.4170 S   0  0  0  0  0  0  0  0  0  0  0  0
   -8.9280   21.5520  -30.0920 O   0  0  0  0  0  0  0  0  0  0  0  0
   -9.4250   22.8620  -32.0810 O   0  0  0  0  0  0  0  0  0  0  0  0
   -8.0450   20.6160  -32.4190 N   0  0  0  0  0  0  0  0  0  0  0  0
   -8.1980   19.3740  -31.6400 C   0  0  0  0  0  0  0  0  0  0  0  0
   -7.4720   18.2060  -32.3360 C   0  0  0  0  0  0  0  0  0  0  0  0
   -6.0700   18.4080  -32.5230 O   0  0  0  0  0  0  0  0  0  0  0  0
   -5.6850   19.7750  -32.4640 C   0  0  0  0  0  0  0  0  0  0  0  0
   -6.7270   20.7240  -33.0840 C   0  0  0  0  0  0  0  0  0  0  0  0
   -7.0170   24.3700  -31.0350 C   0  0  0  0  0  0  0  0  0  0  0  0
   -5.8690   25.1340  -30.8180 C   0  0  0  0  0  0  0  0  0  0  0  0
   -4.6230   24.5130  -30.6880 C   0  0  0  0  0  0  0  0  0  0  0  0
   -3.4940   25.2970  -30.4800 O   0  0  0  0  0  0  0  0  0  0  0  0
   -4.6575   23.0742  -27.9273 H   0  0  0  0  0  0  0  0  0  0  0  0
   -4.6190   24.8327  -26.1593 H   0  0  0  0  0  0  0  0  0  0  0  0
   -2.4920   26.0194  -25.6179 H   0  0  0  0  0  0  0  0  0  0  0  0
   -1.2199   24.8225  -24.7823 H   0  0  0  0  0  0  0  0  0  0  0  0
   -0.0789   24.5507  -23.4347 H   0  0  0  0  0  0  0  0  0  0  0  0
   -1.8198   26.9021  -24.0114 H   0  0  0  0  0  0  0  0  0  0  0  0
   -1.1085   26.4029  -22.4697 H   0  0  0  0  0  0  0  0  0  0  0  0
   -0.1641   28.4486  -24.2805 H   0  0  0  0  0  0  0  0  0  0  0  0
    0.6201   27.9263  -22.7819 H   0  0  0  0  0  0  0  0  0  0  0  0
    1.5905   27.5039  -25.4045 H   0  0  0  0  0  0  0  0  0  0  0  0
    2.1617   26.6451  -23.9429 H   0  0  0  0  0  0  0  0  0  0  0  0
   -0.4124   23.6365  -28.5735 H   0  0  0  0  0  0  0  0  0  0  0  0
   -5.6014   21.2588  -31.1194 H   0  0  0  0  0  0  0  0  0  0  0  0
   -7.7694   19.5205  -30.6376 H   0  0  0  0  0  0  0  0  0  0  0  0
   -9.2683   19.1321  -31.5637 H   0  0  0  0  0  0  0  0  0  0  0  0
   -7.6105   17.3020  -31.7247 H   0  0  0  0  0  0  0  0  0  0  0  0
   -7.9123   18.1173  -33.3401 H   0  0  0  0  0  0  0  0  0  0  0  0
   -5.5421   20.0531  -31.4094 H   0  0  0  0  0  0  0  0  0  0  0  0
   -4.7582   19.8799  -33.0472 H   0  0  0  0  0  0  0  0  0  0  0  0
   -6.3655   21.7585  -32.9886 H   0  0  0  0  0  0  0  0  0  0  0  0
   -6.8563   20.4416  -34.1393 H   0  0  0  0  0  0  0  0  0  0  0  0
   -7.9959   24.8643  -31.1215 H   0  0  0  0  0  0  0  0  0  0  0  0
   -5.9449   26.2292  -30.7490 H   0  0  0  0  0  0  0  0  0  0  0  0
  1  2  2  0
  2  3  1  0
  3  4  1  0
  4  5  2  0
  5  6  1  0
  6  7  2  0
  7  8  1  0
  8  9  1  0
  9 10  2  0
  9 11  2  0
  9 12  1  0
 12 13  1  0
 13 14  1  0
 14 15  1  0
 15 16  1  0
  8 17  2  0
  2 18  1  0
 18 19  2  0
 19 20  1  0
 20 21  1  0
 21 22  2  0
 21 23  2  0
 21 24  1  0
 24 25  1  0
 25 26  1  0
 26 27  1  0
 27 28  1  0
 28 29  1  0
 20 30  2  0
 30 31  1  0
 31 32  2  0
 32 33  1  0
 17  4  1  0
 32 18  1  0
 16 12  1  0
 29 24  1  0
  5 34  1  0
  6 35  1  0
  7 36  1  0
 13 37  1  0
 13 38  1  0
 14 39  1  0
 14 40  1  0
 15 41  1  0
 15 42  1  0
 16 43  1  0
 16 44  1  0
 17 45  1  0
 19 46  1  0
 25 47  1  0
 25 48  1  0
 26 49  1  0
 26 50  1  0
 28 51  1  0
 28 52  1  0
 29 53  1  0
 29 54  1  0
 30 55  1  0
 31 56  1  0
M  CHG  2   3  -1  33  -1
M  END
>  <UniqueID>  (12) 
11

>  <SMILES>  (12) 
O=C([N-]c1cccc(S(=O)(=O)N2CCCC2)c1)c1cc(S(=O)(=O)N2CCOCC2)ccc1[O-]

>  <Energy>  (12) 
75.4446191472782

>  <Genealogy>  (12) 
O=C([N-]c1cccc(S(=O)(=O)N2CCCC2)c1)c1cc(S(=O)(=O)N2CCOCC2)ccc1[O-] (protonated)
O=C([N-]c1cccc(S(=O)(=O)N2CCCC2)c1)c1cc(S(=O)(=O)N2CCOCC2)ccc1[O-] (3D coordinates assigned)
O=C([N-]c1cccc(S(=O)(=O)N2CCCC2)c1)c1cc(S(=O)(=O)N2CCOCC2)ccc1[O-] (nonaromatic ring conformer: 75.4446191472782 kcal/mol)

>  <smiles>  (12) 
O=C(Nc1cccc(S(=O)(=O)N2CCCC2)c1)c1cc(S(=O)(=O)N2CCOCC2)ccc1O

>  <score_type>  (12) 
oracle

>  <origin>  (12) 
adgpu

>  <m_score__min__energy>  (12) 
-14.960000000000001

>  <m_primary>  (12) 
energy

$$$$
12:0
     RDKit          3D

 56 59  0  0  1  0  0  0  0  0999 V2000
   -9.4430   19.9780  -33.1070 N   0  0  0  0  0  0  0  0  0  0  0  0
   -7.9190   19.3900  -32.5350 S   0  0  0  0  0  0  0  0  0  0  0  0
   -7.2150   18.7720  -33.7180 O   0  0  0  0  0  0  0  0  0  0  0  0
   -8.1860   18.3490  -31.5080 O   0  0  0  0  0  0  0  0  0  0  0  0
   -6.9130   20.6910  -31.9640 C   0  0  0  0  0  0  0  0  0  0  0  0
   -7.4940   21.7320  -31.2500 C   0  0  0  0  0  0  0  0  0  0  0  0
   -6.7410   22.7890  -30.7730 C   0  0  0  0  0  0  0  0  0  0  0  0
   -5.3820   22.8250  -31.0040 C   0  0  0  0  0  0  0  0  0  0  0  0
   -4.5360   23.8750  -30.5510 N   0  0  0  0  0  0  0  0  0  0  0  0
   -3.6030   23.6890  -29.7110 C   0  0  0  0  0  0  0  0  0  0  0  0
   -3.3410   22.4480  -29.1730 C   0  0  0  0  0  0  0  0  0  0  0  0
   -2.3100   22.3270  -28.2650 C   0  0  0  0  0  0  0  0  0  0  0  0
   -2.0250   21.0390  -27.6920 N   0  0  0  0  0  0  0  0  0  0  0  0
   -3.0420   20.2150  -27.1050 C   0  0  0  0  0  0  0  0  0  0  0  0
   -2.4100   18.8520  -26.9480 C   0  0  0  0  0  0  0  0  0  0  0  0
   -0.9280   19.1080  -26.9840 C   0  0  0  0  0  0  0  0  0  0  0  0
   -0.7250   20.4350  -27.6390 C   0  0  0  0  0  0  0  0  0  0  0  0
   -1.5500   23.3830  -27.8860 N   0  0  0  0  0  0  0  0  0  0  0  0
   -1.8320   24.5850  -28.4310 C   0  0  0  0  0  0  0  0  0  0  0  0
   -1.1550   25.6520  -28.1250 N   0  0  0  0  0  0  0  0  0  0  0  0
   -0.0980   25.4640  -27.1760 C   0  0  0  0  0  0  0  0  0  0  0  0
   -0.2350   25.9050  -25.8760 C   0  0  0  0  0  0  0  0  0  0  0  0
    0.7900   25.7210  -24.9650 C   0  0  0  0  0  0  0  0  0  0  0  0
    1.9740   25.0990  -25.3110 C   0  0  0  0  0  0  0  0  0  0  0  0
    3.2740   24.8650  -24.1580 S   0  0  0  0  0  0  0  0  0  0  0  0
    3.5170   26.2530  -23.1640 N   0  0  0  0  0  0  0  0  0  0  0  0
    4.5700   24.5790  -24.8560 O   0  0  0  0  0  0  0  0  0  0  0  0
    3.0220   23.6870  -23.2510 O   0  0  0  0  0  0  0  0  0  0  0  0
    2.0950   24.6590  -26.6290 C   0  0  0  0  0  0  0  0  0  0  0  0
    1.0800   24.8360  -27.5510 C   0  0  0  0  0  0  0  0  0  0  0  0
   -2.8350   24.7440  -29.3240 N   0  0  0  0  0  0  0  0  0  0  0  0
   -4.8050   21.7720  -31.7240 C   0  0  0  0  0  0  0  0  0  0  0  0
   -5.5370   20.7190  -32.2030 C   0  0  0  0  0  0  0  0  0  0  0  0
   -9.4420   21.0070  -32.9750 H   0  0  0  0  0  0  0  0  0  0  0  0
   -9.5320   19.7200  -34.1290 H   0  0  0  0  0  0  0  0  0  0  0  0
   -8.5773   21.7147  -31.0600 H   0  0  0  0  0  0  0  0  0  0  0  0
   -7.2255   23.6003  -30.2099 H   0  0  0  0  0  0  0  0  0  0  0  0
   -3.9412   21.5725  -29.4615 H   0  0  0  0  0  0  0  0  0  0  0  0
   -3.3440   20.6147  -26.1257 H   0  0  0  0  0  0  0  0  0  0  0  0
   -3.9486   20.1773  -27.7269 H   0  0  0  0  0  0  0  0  0  0  0  0
   -2.7015   18.3980  -25.9894 H   0  0  0  0  0  0  0  0  0  0  0  0
   -2.7295   18.1534  -27.7353 H   0  0  0  0  0  0  0  0  0  0  0  0
   -0.5238   19.1268  -25.9611 H   0  0  0  0  0  0  0  0  0  0  0  0
   -0.4079   18.3142  -27.5403 H   0  0  0  0  0  0  0  0  0  0  0  0
   -0.0368   21.0552  -27.0459 H   0  0  0  0  0  0  0  0  0  0  0  0
   -0.2816   20.3323  -28.6404 H   0  0  0  0  0  0  0  0  0  0  0  0
   -0.7740   23.2910  -27.2030 H   0  0  0  0  0  0  0  0  0  0  0  0
   -1.1632   26.4051  -25.5623 H   0  0  0  0  0  0  0  0  0  0  0  0
    0.6581   26.0809  -23.9339 H   0  0  0  0  0  0  0  0  0  0  0  0
    3.4670   27.0860  -23.7910 H   0  0  0  0  0  0  0  0  0  0  0  0
    2.7930   26.2660  -22.4080 H   0  0  0  0  0  0  0  0  0  0  0  0
    3.0225   24.1579  -26.9432 H   0  0  0  0  0  0  0  0  0  0  0  0
    1.2071   24.4782  -28.5834 H   0  0  0  0  0  0  0  0  0  0  0  0
   -3.0590   25.6710  -29.7500 H   0  0  0  0  0  0  0  0  0  0  0  0
   -3.7214   21.7915  -31.9121 H   0  0  0  0  0  0  0  0  0  0  0  0
   -5.0502   19.9092  -32.7662 H   0  0  0  0  0  0  0  0  0  0  0  0
  1  2  1  0
  2  3  2  0
  2  4  2  0
  2  5  1  0
  5  6  2  0
  6  7  1  0
  7  8  2  0
  8  9  1  0
  9 10  2  0
 10 11  1  0
 11 12  2  0
 12 13  1  0
 13 14  1  0
 14 15  1  0
 15 16  1  0
 16 17  1  0
 12 18  1  0
 18 19  1  0
 19 20  2  0
 20 21  1  0
 21 22  2  0
 22 23  1  0
 23 24  2  0
 24 25  1  0
 25 26  1  0
 25 27  2  0
 25 28  2  0
 24 29  1  0
 29 30  2  0
 19 31  1  0
  8 32  1  0
 32 33  2  0
 33  5  1  0
 31 10  1  0
 17 13  1  0
 30 21  1  0
  1 34  1  0
  1 35  1  0
  6 36  1  0
  7 37  1  0
 11 38  1  0
 14 39  1  0
 14 40  1  0
 15 41  1  0
 15 42  1  0
 16 43  1  0
 16 44  1  0
 17 45  1  0
 17 46  1  0
 18 47  1  0
 22 48  1  0
 23 49  1  0
 26 50  1  0
 26 51  1  0
 29 52  1  0
 30 53  1  0
 31 54  1  0
 32 55  1  0
 33 56  1  0
M  END
>  <smiles>  (13) 
NS(=O)(=O)c1ccc(N=c2cc(N3CCCC3)[nH]c(=Nc3ccc(S(N)(=O)=O)cc3)[nH]2)cc1

>  <score_type>  (13) 
oracle

>  <origin>  (13) 
adgpu

>  <m_score__min__energy>  (13) 
-10.539999999999999

>  <m_primary>  (13) 
energy

$$$$
13:0
     RDKit          3D

 32 33  0  0  0  0  0  0  0  0999 V2000
   -2.8100   21.2200  -33.7110 N   0  0  0  0  0  0  0  0  0  0  0  0
   -4.0540   20.6790  -33.2720 C   0  0  0  0  0  0  0  0  0  0  0  0
   -4.3340   19.4790  -33.5390 O   0  0  0  0  0  0  0  0  0  0  0  0
   -5.0270   21.5380  -32.5600 C   0  0  0  0  0  0  0  0  0  0  0  0
   -6.3880   21.1950  -32.6180 C   0  0  0  0  0  0  0  0  0  0  0  0
   -7.3510   21.9190  -31.8960 C   0  0  0  0  0  0  0  0  0  0  0  0
   -8.7430   21.5520  -31.9550 N   0  0  0  0  0  0  0  0  0  0  0  0
   -9.1050   20.3840  -31.7020 O   0  0  0  0  0  0  0  0  0  0  0  0
   -9.6950   22.4770  -32.3200 O   0  0  0  0  0  0  0  0  0  0  0  0
   -6.9380   22.9980  -31.1050 C   0  0  0  0  0  0  0  0  0  0  0  0
   -5.5910   23.3850  -31.0640 C   0  0  0  0  0  0  0  0  0  0  0  0
   -5.1240   24.7860  -30.0910 S   0  0  0  0  0  0  0  0  0  0  0  0
   -4.2060   25.6550  -30.9040 O   0  0  0  0  0  0  0  0  0  0  0  0
   -6.3330   25.5860  -29.6930 O   0  0  0  0  0  0  0  0  0  0  0  0
   -4.2910   24.2860  -28.6540 N   0  0  0  0  0  0  0  0  0  0  0  0
   -3.0220   23.6160  -28.6200 C   0  0  0  0  0  0  0  0  0  0  0  0
   -2.9030   22.2640  -28.2480 C   0  0  0  0  0  0  0  0  0  0  0  0
   -1.6520   21.6400  -28.2510 C   0  0  0  0  0  0  0  0  0  0  0  0
   -0.5110   22.3590  -28.6150 C   0  0  0  0  0  0  0  0  0  0  0  0
   -0.6190   23.7030  -28.9770 C   0  0  0  0  0  0  0  0  0  0  0  0
   -1.8690   24.3330  -28.9800 C   0  0  0  0  0  0  0  0  0  0  0  0
   -1.9620   25.6720  -29.3430 O   0  0  0  0  0  0  0  0  0  0  0  0
   -4.6300   22.6660  -31.7980 C   0  0  0  0  0  0  0  0  0  0  0  0
   -3.3030   23.1060  -31.7730 O   0  0  0  0  0  0  0  0  0  0  0  0
   -2.6500   22.2520  -33.7300 H   0  0  0  0  0  0  0  0  0  0  0  0
   -6.7051   20.3447  -33.2396 H   0  0  0  0  0  0  0  0  0  0  0  0
   -7.6797   23.5490  -30.5082 H   0  0  0  0  0  0  0  0  0  0  0  0
   -3.7978   21.6960  -27.9537 H   0  0  0  0  0  0  0  0  0  0  0  0
   -1.5660   20.5810  -27.9662 H   0  0  0  0  0  0  0  0  0  0  0  0
    0.4725   21.8663  -28.6164 H   0  0  0  0  0  0  0  0  0  0  0  0
    0.2808   24.2685  -29.2607 H   0  0  0  0  0  0  0  0  0  0  0  0
   -2.9800   23.8820  -31.2120 H   0  0  0  0  0  0  0  0  0  0  0  0
  1  2  1  0
  2  3  2  0
  2  4  1  0
  4  5  2  0
  5  6  1  0
  6  7  1  0
  7  8  2  0
  7  9  1  0
  6 10  2  0
 10 11  1  0
 11 12  1  0
 12 13  2  0
 12 14  2  0
 12 15  1  0
 15 16  1  0
 16 17  2  0
 17 18  1  0
 18 19  2  0
 19 20  1  0
 20 21  2  0
 21 22  1  0
 11 23  2  0
 23 24  1  0
 23  4  1  0
 21 16  1  0
  1 25  1  0
  5 26  1  0
 10 27  1  0
 17 28  1  0
 18 29  1  0
 19 30  1  0
 20 31  1  0
 24 32  1  0
M  CHG  5   1  -1   7   1   9  -1  15  -1  22  -1
M  END
>  <UniqueID>  (14) 
12

>  <SMILES>  (14) 
[NH-]C(=O)c1cc([N+](=O)[O-])cc(S(=O)(=O)[N-]c2ccccc2[O-])c1O

>  <Energy>  (14) 
43.80846293375937

>  <Genealogy>  (14) 
[NH-]C(=O)c1cc([N+](=O)[O-])cc(S(=O)(=O)[N-]c2ccccc2[O-])c1O (protonated)
[NH-]C(=O)c1cc([N+](=O)[O-])cc(S(=O)(=O)[N-]c2ccccc2[O-])c1O (3D coordinates assigned)
[NH-]C(=O)c1cc([N+](=O)[O-])cc(S(=O)(=O)[N-]c2ccccc2[O-])c1O (optimized conformer: 43.80846293375937 kcal/mol)

>  <smiles>  (14) 
NC(=O)c1cc([N+](=O)[O-])cc(S(=O)(=O)Nc2ccccc2O)c1O

>  <score_type>  (14) 
oracle

>  <origin>  (14) 
adgpu

>  <m_score__min__energy>  (14) 
-12.210000000000001

>  <m_primary>  (14) 
energy

$$$$
14:0
     RDKit          3D

 35 37  0  0  0  0  0  0  0  0999 V2000
   -6.8730   16.0020  -33.8790 C   0  0  0  0  0  0  0  0  0  0  0  0
   -6.7700   17.4830  -33.7180 C   0  0  0  0  0  0  0  0  0  0  0  0
   -5.9810   18.2670  -34.4810 N   0  0  0  0  0  0  0  0  0  0  0  0
   -6.1630   19.5190  -34.0930 N   0  0  0  0  0  0  0  0  0  0  0  0
   -7.0560   19.5560  -33.0860 C   0  0  0  0  0  0  0  0  0  0  0  0
   -7.4890   20.7960  -32.4220 C   0  0  0  0  0  0  0  0  0  0  0  0
   -8.8420   21.1640  -32.3530 C   0  0  0  0  0  0  0  0  0  0  0  0
   -9.0610   22.3750  -31.7110 C   0  0  0  0  0  0  0  0  0  0  0  0
   -7.5730   23.0060  -31.2510 S   0  0  0  0  0  0  0  0  0  0  0  0
   -6.6380   21.7440  -31.8490 C   0  0  0  0  0  0  0  0  0  0  0  0
   -4.8770   21.7520  -31.8450 S   0  0  0  0  0  0  0  0  0  0  0  0
   -4.3860   21.5480  -33.2500 O   0  0  0  0  0  0  0  0  0  0  0  0
   -4.3860   20.6390  -30.9630 O   0  0  0  0  0  0  0  0  0  0  0  0
   -4.3000   23.2670  -31.2200 N   0  0  0  0  0  0  0  0  0  0  0  0
   -3.2610   23.4530  -30.4590 C   0  0  0  0  0  0  0  0  0  0  0  0
   -2.4510   22.3900  -30.0100 C   0  0  0  0  0  0  0  0  0  0  0  0
   -1.3460   22.6670  -29.2020 C   0  0  0  0  0  0  0  0  0  0  0  0
   -1.0530   23.9820  -28.8460 C   0  0  0  0  0  0  0  0  0  0  0  0
   -1.8760   25.0110  -29.3050 C   0  0  0  0  0  0  0  0  0  0  0  0
   -1.6030   26.3290  -28.9620 O   0  0  0  0  0  0  0  0  0  0  0  0
   -2.9480   24.7250  -30.0910 N   0  0  0  0  0  0  0  0  0  0  0  0
   -7.4910   18.2650  -32.8350 C   0  0  0  0  0  0  0  0  0  0  0  0
   -8.5250   17.8030  -31.8570 C   0  0  0  0  0  0  0  0  0  0  0  0
   -6.9060   15.5268  -32.8875 H   0  0  0  0  0  0  0  0  0  0  0  0
   -7.7904   15.7564  -34.4341 H   0  0  0  0  0  0  0  0  0  0  0  0
   -5.9984   15.6318  -34.4341 H   0  0  0  0  0  0  0  0  0  0  0  0
   -5.6700   20.3390  -34.5110 H   0  0  0  0  0  0  0  0  0  0  0  0
   -9.6537   20.5493  -32.7693 H   0  0  0  0  0  0  0  0  0  0  0  0
  -10.0411   22.8419  -31.5336 H   0  0  0  0  0  0  0  0  0  0  0  0
   -2.6868   21.3535  -30.2930 H   0  0  0  0  0  0  0  0  0  0  0  0
   -0.7061   21.8460  -28.8462 H   0  0  0  0  0  0  0  0  0  0  0  0
   -0.1834   24.2061  -28.2108 H   0  0  0  0  0  0  0  0  0  0  0  0
   -8.1595   17.9663  -30.8324 H   0  0  0  0  0  0  0  0  0  0  0  0
   -9.4542   18.3715  -32.0098 H   0  0  0  0  0  0  0  0  0  0  0  0
   -8.7214   16.7315  -32.0098 H   0  0  0  0  0  0  0  0  0  0  0  0
  1  2  1  0
  2  3  2  0
  3  4  1  0
  4  5  1  0
  5  6  1  0
  6  7  1  0
  7  8  2  0
  8  9  1  0
  9 10  1  0
 10 11  1  0
 11 12  2  0
 11 13  2  0
 11 14  1  0
 14 15  2  3
 15 16  1  0
 16 17  2  0
 17 18  1  0
 18 19  2  0
 19 20  1  0
 19 21  1  0
  5 22  2  0
 22 23  1  0
 22  2  1  0
 10  6  2  0
 21 15  1  0
  1 24  1  0
  1 25  1  0
  1 26  1  0
  4 27  1  0
  7 28  1  0
  8 29  1  0
 16 30  1  0
 17 31  1  0
 18 32  1  0
 23 33  1  0
 23 34  1  0
 23 35  1  0
M  CHG  2  20  -1  21  -1
M  END
>  <UniqueID>  (15) 
13

>  <SMILES>  (15) 
Cc1n[nH]c(-c2ccsc2S(=O)(=O)N=c2cccc([O-])[n-]2)c1C

>  <Energy>  (15) 
102.7868354943207

>  <Genealogy>  (15) 
Cc1n[nH]c(-c2ccsc2S(=O)(=O)N=c2cccc([O-])[n-]2)c1C (protonated)
Cc1n[nH]c(-c2ccsc2S(=O)(=O)N=c2cccc([O-])[n-]2)c1C (3D coordinates assigned)
Cc1n[nH]c(-c2ccsc2S(=O)(=O)N=c2cccc([O-])[n-]2)c1C (optimized conformer: 102.7868354943207 kcal/mol)

>  <smiles>  (15) 
Cc1n[nH]c(-c2ccsc2S(=O)(=O)N=c2cccc(O)[nH]2)c1C

>  <score_type>  (15) 
oracle

>  <origin>  (15) 
adgpu

>  <m_score__min__energy>  (15) 
-12.41

>  <m_primary>  (15) 
energy

$$$$
15:0
     RDKit          3D

 55 58  0  0  0  0  0  0  0  0999 V2000
   -2.3650   19.6470  -26.2140 C   0  0  0  0  0  0  0  0  0  0  0  0
   -1.6460   19.7400  -27.5010 N   0  0  0  0  0  0  0  0  0  0  0  0
   -0.7460   18.7670  -27.8560 C   0  0  0  0  0  0  0  0  0  0  0  0
   -0.5460   17.7660  -27.1140 O   0  0  0  0  0  0  0  0  0  0  0  0
   -0.0260   18.8680  -29.0510 C   0  0  0  0  0  0  0  0  0  0  0  0
    0.7920   17.9540  -29.3550 O   0  0  0  0  0  0  0  0  0  0  0  0
   -0.2110   19.9440  -29.8780 N   0  0  0  0  0  0  0  0  0  0  0  0
    0.5480   20.0700  -31.1370 C   0  0  0  0  0  0  0  0  0  0  0  0
   -1.1030   20.9220  -29.5350 C   0  0  0  0  0  0  0  0  0  0  0  0
   -1.2920   21.9940  -30.3600 N   0  0  0  0  0  0  0  0  0  0  0  0
   -2.1950   22.9660  -30.0950 C   0  0  0  0  0  0  0  0  0  0  0  0
   -2.9810   22.8940  -28.9420 C   0  0  0  0  0  0  0  0  0  0  0  0
   -4.0110   23.8540  -28.6790 N   0  0  0  0  0  0  0  0  0  0  0  0
   -4.9760   24.5320  -29.9490 S   0  0  0  0  0  0  0  0  0  0  0  0
   -4.1130   25.2980  -30.9080 O   0  0  0  0  0  0  0  0  0  0  0  0
   -5.9940   25.4660  -29.3610 O   0  0  0  0  0  0  0  0  0  0  0  0
   -5.8050   23.2120  -30.7640 C   0  0  0  0  0  0  0  0  0  0  0  0
   -7.1320   23.3760  -31.1840 C   0  0  0  0  0  0  0  0  0  0  0  0
   -7.8540   22.2840  -31.6740 C   0  0  0  0  0  0  0  0  0  0  0  0
   -7.2630   21.0150  -31.7310 C   0  0  0  0  0  0  0  0  0  0  0  0
   -8.2170   19.6070  -32.2040 S   0  0  0  0  0  0  0  0  0  0  0  0
   -9.3640   20.0530  -33.0680 O   0  0  0  0  0  0  0  0  0  0  0  0
   -8.7840   18.9570  -30.9740 O   0  0  0  0  0  0  0  0  0  0  0  0
   -7.2490   18.4500  -33.0920 N   0  0  0  0  0  0  0  0  0  0  0  0
   -6.4760   17.5930  -32.1680 C   0  0  0  0  0  0  0  0  0  0  0  0
   -5.2870   16.9330  -32.8730 C   0  0  0  0  0  0  0  0  0  0  0  0
   -4.2910   17.9920  -33.3660 C   0  0  0  0  0  0  0  0  0  0  0  0
   -4.9750   19.3180  -33.7440 C   0  0  0  0  0  0  0  0  0  0  0  0
   -6.4420   19.1090  -34.1500 C   0  0  0  0  0  0  0  0  0  0  0  0
   -5.9230   20.8590  -31.3450 C   0  0  0  0  0  0  0  0  0  0  0  0
   -5.1980   21.9530  -30.8660 C   0  0  0  0  0  0  0  0  0  0  0  0
   -2.7830   21.8360  -28.0520 C   0  0  0  0  0  0  0  0  0  0  0  0
   -1.8460   20.8170  -28.3360 C   0  0  0  0  0  0  0  0  0  0  0  0
   -1.6474   19.7398  -25.3855 H   0  0  0  0  0  0  0  0  0  0  0  0
   -3.1067   20.4567  -26.1490 H   0  0  0  0  0  0  0  0  0  0  0  0
   -2.8763   18.6752  -26.1490 H   0  0  0  0  0  0  0  0  0  0  0  0
    1.6096   20.2462  -30.9091 H   0  0  0  0  0  0  0  0  0  0  0  0
    0.4472   19.1428  -31.7203 H   0  0  0  0  0  0  0  0  0  0  0  0
    0.1530   20.9149  -31.7203 H   0  0  0  0  0  0  0  0  0  0  0  0
   -2.3104   23.8130  -30.7873 H   0  0  0  0  0  0  0  0  0  0  0  0
   -7.6066   24.3667  -31.1279 H   0  0  0  0  0  0  0  0  0  0  0  0
   -8.8903   22.4215  -32.0162 H   0  0  0  0  0  0  0  0  0  0  0  0
   -6.1013   18.2100  -31.3380 H   0  0  0  0  0  0  0  0  0  0  0  0
   -7.1409   16.7987  -31.7979 H   0  0  0  0  0  0  0  0  0  0  0  0
   -4.7780   16.2593  -32.1680 H   0  0  0  0  0  0  0  0  0  0  0  0
   -5.6598   16.3680  -33.7401 H   0  0  0  0  0  0  0  0  0  0  0  0
   -3.5607   18.1876  -32.5670 H   0  0  0  0  0  0  0  0  0  0  0  0
   -3.8064   17.5974  -34.2712 H   0  0  0  0  0  0  0  0  0  0  0  0
   -4.9384   19.9966  -32.8790 H   0  0  0  0  0  0  0  0  0  0  0  0
   -4.4399   19.7449  -34.6050 H   0  0  0  0  0  0  0  0  0  0  0  0
   -6.8877   20.0901  -34.3707 H   0  0  0  0  0  0  0  0  0  0  0  0
   -6.4489   18.4475  -35.0289 H   0  0  0  0  0  0  0  0  0  0  0  0
   -5.4420   19.8726  -31.4197 H   0  0  0  0  0  0  0  0  0  0  0  0
   -4.1469   21.8257  -30.5678 H   0  0  0  0  0  0  0  0  0  0  0  0
   -3.3635   21.7954  -27.1185 H   0  0  0  0  0  0  0  0  0  0  0  0
  1  2  1  0
  2  3  1  0
  3  4  2  0
  3  5  1  0
  5  6  2  0
  5  7  1  0
  7  8  1  0
  7  9  1  0
  9 10  2  0
 10 11  1  0
 11 12  2  0
 12 13  1  0
 13 14  1  0
 14 15  2  0
 14 16  2  0
 14 17  1  0
 17 18  2  0
 18 19  1  0
 19 20  2  0
 20 21  1  0
 21 22  2  0
 21 23  2  0
 21 24  1  0
 24 25  1  0
 25 26  1  0
 26 27  1  0
 27 28  1  0
 28 29  1  0
 20 30  1  0
 30 31  2  0
 12 32  1  0
 32 33  2  0
 33  2  1  0
 33  9  1  0
 31 17  1  0
 29 24  1  0
  1 34  1  0
  1 35  1  0
  1 36  1  0
  8 37  1  0
  8 38  1  0
  8 39  1  0
 11 40  1  0
 18 41  1  0
 19 42  1  0
 25 43  1  0
 25 44  1  0
 26 45  1  0
 26 46  1  0
 27 47  1  0
 27 48  1  0
 28 49  1  0
 28 50  1  0
 29 51  1  0
 29 52  1  0
 30 53  1  0
 31 54  1  0
 32 55  1  0
M  CHG  1  13  -1
M  END
>  <UniqueID>  (16) 
14

>  <SMILES>  (16) 
Cn1c(=O)c(=O)n(C)c2ncc([N-]S(=O)(=O)c3ccc(S(=O)(=O)N4CCCCC4)cc3)cc21

>  <Energy>  (16) 
79.172502838601

>  <Genealogy>  (16) 
Cn1c(=O)c(=O)n(C)c2ncc([N-]S(=O)(=O)c3ccc(S(=O)(=O)N4CCCCC4)cc3)cc21 (protonated)
Cn1c(=O)c(=O)n(C)c2ncc([N-]S(=O)(=O)c3ccc(S(=O)(=O)N4CCCCC4)cc3)cc21 (3D coordinates assigned)
Cn1c(=O)c(=O)n(C)c2ncc([N-]S(=O)(=O)c3ccc(S(=O)(=O)N4CCCCC4)cc3)cc21 (nonaromatic ring conformer: 79.172502838601 kcal/mol)

>  <smiles>  (16) 
Cn1c(=O)c(=O)n(C)c2ncc(NS(=O)(=O)c3ccc(S(=O)(=O)N4CCCCC4)cc3)cc21

>  <score_type>  (16) 
oracle

>  <origin>  (16) 
adgpu

>  <m_score__min__energy>  (16) 
-11.48

>  <m_primary>  (16) 
energy

$$$$
16:0
     RDKit          3D

 34 37  0  0  0  0  0  0  0  0999 V2000
   -7.5970   20.4270  -32.6410 C   0  0  0  0  0  0  0  0  0  0  0  0
   -8.6290   21.0300  -31.9170 C   0  0  0  0  0  0  0  0  0  0  0  0
   -8.4150   22.2570  -31.2810 C   0  0  0  0  0  0  0  0  0  0  0  0
   -7.1650   22.8940  -31.3750 C   0  0  0  0  0  0  0  0  0  0  0  0
   -6.9220   24.1940  -30.6590 C   0  0  0  0  0  0  0  0  0  0  0  0
   -5.4650   24.3520  -30.3680 C   0  0  0  0  0  0  0  0  0  0  0  0
   -4.6910   25.3010  -30.9270 N   0  0  0  0  0  0  0  0  0  0  0  0
   -3.4990   25.0650  -30.4710 O   0  0  0  0  0  0  0  0  0  0  0  0
   -3.5260   24.0200  -29.6810 C   0  0  0  0  0  0  0  0  0  0  0  0
   -2.3410   23.4770  -29.0000 C   0  0  0  0  0  0  0  0  0  0  0  0
   -1.0950   24.0920  -28.9230 C   0  0  0  0  0  0  0  0  0  0  0  0
   -0.2290   23.3230  -28.2270 N   0  0  0  0  0  0  0  0  0  0  0  0
   -0.9150   22.2260  -27.8630 C   0  0  0  0  0  0  0  0  0  0  0  0
   -0.4380   21.1420  -27.1270 C   0  0  0  0  0  0  0  0  0  0  0  0
   -1.3270   20.0880  -26.8540 C   0  0  0  0  0  0  0  0  0  0  0  0
   -2.6600   20.1400  -27.3180 C   0  0  0  0  0  0  0  0  0  0  0  0
   -3.1160   21.2460  -28.0590 C   0  0  0  0  0  0  0  0  0  0  0  0
   -2.2110   22.2790  -28.3150 C   0  0  0  0  0  0  0  0  0  0  0  0
   -4.7680   23.5100  -29.5780 N   0  0  0  0  0  0  0  0  0  0  0  0
   -6.1290   22.2740  -32.0920 C   0  0  0  0  0  0  0  0  0  0  0  0
   -6.3470   21.0470  -32.7260 C   0  0  0  0  0  0  0  0  0  0  0  0
   -7.7684   19.4640  -33.1443 H   0  0  0  0  0  0  0  0  0  0  0  0
   -9.6108   20.5390  -31.8473 H   0  0  0  0  0  0  0  0  0  0  0  0
   -9.2271   22.7252  -30.7054 H   0  0  0  0  0  0  0  0  0  0  0  0
   -7.2595   25.0275  -31.2925 H   0  0  0  0  0  0  0  0  0  0  0  0
   -7.4817   24.1950  -29.7121 H   0  0  0  0  0  0  0  0  0  0  0  0
   -0.8494   25.0680  -29.3669 H   0  0  0  0  0  0  0  0  0  0  0  0
    0.7700   23.5400  -28.0180 H   0  0  0  0  0  0  0  0  0  0  0  0
    0.6023   21.1126  -26.7709 H   0  0  0  0  0  0  0  0  0  0  0  0
   -0.9827   19.2179  -26.2758 H   0  0  0  0  0  0  0  0  0  0  0  0
   -3.3471   19.3095  -27.0984 H   0  0  0  0  0  0  0  0  0  0  0  0
   -4.1521   21.2956  -28.4250 H   0  0  0  0  0  0  0  0  0  0  0  0
   -5.1420   22.7555  -32.1551 H   0  0  0  0  0  0  0  0  0  0  0  0
   -5.5340   20.5691  -33.2923 H   0  0  0  0  0  0  0  0  0  0  0  0
  1  2  2  0
  2  3  1  0
  3  4  2  0
  4  5  1  0
  5  6  1  0
  6  7  2  0
  7  8  1  0
  8  9  1  0
  9 10  1  0
 10 11  2  0
 11 12  1  0
 12 13  1  0
 13 14  2  0
 14 15  1  0
 15 16  2  0
 16 17  1  0
 17 18  2  0
  9 19  2  0
  4 20  1  0
 20 21  2  0
 21  1  1  0
 19  6  1  0
 18 10  1  0
 18 13  1  0
  1 22  1  0
  2 23  1  0
  3 24  1  0
  5 25  1  0
  5 26  1  0
 11 27  1  0
 12 28  1  0
 14 29  1  0
 15 30  1  0
 16 31  1  0
 17 32  1  0
 20 33  1  0
 21 34  1  0
M  END
>  <UniqueID>  (17) 
15

>  <SMILES>  (17) 
c1ccc(Cc2noc(-c3c[nH]c4ccccc34)n2)cc1

>  <Energy>  (17) 
102.64874351737666

>  <Genealogy>  (17) 
c1ccc(Cc2noc(-c3c[nH]c4ccccc34)n2)cc1 (3D coordinates assigned)
c1ccc(Cc2noc(-c3c[nH]c4ccccc34)n2)cc1 (optimized conformer: 102.64874351737666 kcal/mol)

>  <smiles>  (17) 
c1ccc(Cc2noc(-c3c[nH]c4ccccc34)n2)cc1

>  <score_type>  (17) 
oracle

>  <origin>  (17) 
adgpu

>  <m_score__min__energy>  (17) 
-8.6999999999999993

>  <m_primary>  (17) 
energy

$$$$
17:0
     RDKit          3D

 49 51  0  0  0  0  0  0  0  0999 V2000
   -3.8490   21.1060  -33.4690 C   0  0  0  0  0  0  0  0  0  0  0  0
   -2.4950   20.5130  -33.1760 C   0  0  0  0  0  0  0  0  0  0  0  0
   -1.9270   19.6650  -34.1400 C   0  0  0  0  0  0  0  0  0  0  0  0
   -0.6990   19.0600  -33.8930 C   0  0  0  0  0  0  0  0  0  0  0  0
   -0.1850   18.2990  -34.7530 O   0  0  0  0  0  0  0  0  0  0  0  0
   -0.0590   19.2810  -32.7200 N   0  0  0  0  0  0  0  0  0  0  0  0
   -0.5570   20.1020  -31.7570 C   0  0  0  0  0  0  0  0  0  0  0  0
    0.2320   20.2280  -30.4880 C   0  0  0  0  0  0  0  0  0  0  0  0
   -1.7800   20.7920  -31.9800 C   0  0  0  0  0  0  0  0  0  0  0  0
   -2.4350   21.9290  -30.7680 S   0  0  0  0  0  0  0  0  0  0  0  0
   -1.3220   22.6090  -30.0220 O   0  0  0  0  0  0  0  0  0  0  0  0
   -3.2630   21.2070  -29.7430 O   0  0  0  0  0  0  0  0  0  0  0  0
   -3.3750   23.1350  -31.5900 N   0  0  0  0  0  0  0  0  0  0  0  0
   -4.7050   23.5150  -31.2200 C   0  0  0  0  0  0  0  0  0  0  0  0
   -5.7830   22.6250  -31.3570 C   0  0  0  0  0  0  0  0  0  0  0  0
   -7.0820   23.0290  -31.0180 C   0  0  0  0  0  0  0  0  0  0  0  0
   -8.4420   21.9330  -31.2510 S   0  0  0  0  0  0  0  0  0  0  0  0
   -9.3160   22.4700  -32.3510 O   0  0  0  0  0  0  0  0  0  0  0  0
   -9.2580   21.8580  -29.9880 O   0  0  0  0  0  0  0  0  0  0  0  0
   -7.8480   20.3490  -31.6830 N   0  0  0  0  0  0  0  0  0  0  0  0
   -8.9730   19.4120  -31.8350 C   0  0  0  0  0  0  0  0  0  0  0  0
   -8.4550   17.9700  -31.9840 C   0  0  0  0  0  0  0  0  0  0  0  0
   -7.0230   17.9180  -32.5430 C   0  0  0  0  0  0  0  0  0  0  0  0
   -6.7830   19.0440  -33.5510 C   0  0  0  0  0  0  0  0  0  0  0  0
   -7.0630   20.4340  -32.9320 C   0  0  0  0  0  0  0  0  0  0  0  0
   -7.2980   24.3190  -30.5190 C   0  0  0  0  0  0  0  0  0  0  0  0
   -6.2220   25.1920  -30.3390 C   0  0  0  0  0  0  0  0  0  0  0  0
   -4.9280   24.7920  -30.6840 C   0  0  0  0  0  0  0  0  0  0  0  0
   -3.8660   25.6710  -30.5090 O   0  0  0  0  0  0  0  0  0  0  0  0
   -4.3632   21.3312  -32.5230 H   0  0  0  0  0  0  0  0  0  0  0  0
   -3.7258   22.0325  -34.0489 H   0  0  0  0  0  0  0  0  0  0  0  0
   -4.4464   20.3871  -34.0489 H   0  0  0  0  0  0  0  0  0  0  0  0
   -2.4519   19.4794  -35.0887 H   0  0  0  0  0  0  0  0  0  0  0  0
   -0.4417   20.1204  -29.6251 H   0  0  0  0  0  0  0  0  0  0  0  0
    0.9999   19.4411  -30.4540 H   0  0  0  0  0  0  0  0  0  0  0  0
    0.7166   21.2149  -30.4540 H   0  0  0  0  0  0  0  0  0  0  0  0
   -5.6071   21.6060  -31.7321 H   0  0  0  0  0  0  0  0  0  0  0  0
   -9.6194   19.4749  -30.9472 H   0  0  0  0  0  0  0  0  0  0  0  0
   -9.5420   19.6814  -32.7371 H   0  0  0  0  0  0  0  0  0  0  0  0
   -8.4667   17.4863  -30.9961 H   0  0  0  0  0  0  0  0  0  0  0  0
   -9.1125   17.4484  -32.6951 H   0  0  0  0  0  0  0  0  0  0  0  0
   -6.3093   18.0214  -31.7124 H   0  0  0  0  0  0  0  0  0  0  0  0
   -6.8832   16.9549  -33.0557 H   0  0  0  0  0  0  0  0  0  0  0  0
   -5.7355   19.0066  -33.8848 H   0  0  0  0  0  0  0  0  0  0  0  0
   -7.4711   18.8999  -34.3970 H   0  0  0  0  0  0  0  0  0  0  0  0
   -6.1022   20.9225  -32.7123 H   0  0  0  0  0  0  0  0  0  0  0  0
   -7.6530   21.0112  -33.6592 H   0  0  0  0  0  0  0  0  0  0  0  0
   -8.3177   24.6463  -30.2679 H   0  0  0  0  0  0  0  0  0  0  0  0
   -6.3937   26.1965  -29.9248 H   0  0  0  0  0  0  0  0  0  0  0  0
  1  2  1  0
  2  3  2  0
  3  4  1  0
  4  5  2  0
  4  6  1  0
  6  7  1  0
  7  8  1  0
  7  9  2  0
  9 10  1  0
 10 11  2  0
 10 12  2  0
 10 13  1  0
 13 14  1  0
 14 15  2  0
 15 16  1  0
 16 17  1  0
 17 18  2  0
 17 19  2  0
 17 20  1  0
 20 21  1  0
 21 22  1  0
 22 23  1  0
 23 24  1  0
 24 25  1  0
 16 26  2  0
 26 27  1  0
 27 28  2  0
 28 29  1  0
  9  2  1  0
 28 14  1  0
 25 20  1  0
  1 30  1  0
  1 31  1  0
  1 32  1  0
  3 33  1  0
  8 34  1  0
  8 35  1  0
  8 36  1  0
 15 37  1  0
 21 38  1  0
 21 39  1  0
 22 40  1  0
 22 41  1  0
 23 42  1  0
 23 43  1  0
 24 44  1  0
 24 45  1  0
 25 46  1  0
 25 47  1  0
 26 48  1  0
 27 49  1  0
M  CHG  3   6  -1  13  -1  29  -1
M  END
>  <UniqueID>  (18) 
16

>  <SMILES>  (18) 
Cc1cc(=O)[n-]c(C)c1S(=O)(=O)[N-]c1cc(S(=O)(=O)N2CCCCC2)ccc1[O-]

>  <Energy>  (18) 
64.65372031828493

>  <Genealogy>  (18) 
Cc1cc(=O)[n-]c(C)c1S(=O)(=O)[N-]c1cc(S(=O)(=O)N2CCCCC2)ccc1[O-] (protonated)
Cc1cc(=O)[n-]c(C)c1S(=O)(=O)[N-]c1cc(S(=O)(=O)N2CCCCC2)ccc1[O-] (3D coordinates assigned)
Cc1cc(=O)[n-]c(C)c1S(=O)(=O)[N-]c1cc(S(=O)(=O)N2CCCCC2)ccc1[O-] (nonaromatic ring conformer: 64.65372031828493 kcal/mol)

>  <smiles>  (18) 
Cc1cc(=O)[nH]c(C)c1S(=O)(=O)Nc1cc(S(=O)(=O)N2CCCCC2)ccc1O

>  <score_type>  (18) 
oracle

>  <origin>  (18) 
adgpu

>  <m_score__min__energy>  (18) 
-13.9

>  <m_primary>  (18) 
energy

$$$$
18:0
     RDKit          3D

 57 60  0  0  0  0  0  0  0  0999 V2000
    1.4330   25.2740  -26.3960 C   0  0  0  0  0  0  0  0  0  0  0  0
    0.9580   25.5130  -27.7540 N   0  0  0  0  0  0  0  0  0  0  0  0
   -0.7780   25.6580  -27.7690 S   0  0  0  0  0  0  0  0  0  0  0  0
   -1.2240   26.4250  -28.9820 O   0  0  0  0  0  0  0  0  0  0  0  0
   -1.1920   26.4040  -26.5320 O   0  0  0  0  0  0  0  0  0  0  0  0
   -1.5460   24.0610  -27.7640 C   0  0  0  0  0  0  0  0  0  0  0  0
   -1.1220   23.0950  -26.8340 C   0  0  0  0  0  0  0  0  0  0  0  0
   -1.7290   21.8390  -26.7910 C   0  0  0  0  0  0  0  0  0  0  0  0
   -2.7650   21.5310  -27.6710 C   0  0  0  0  0  0  0  0  0  0  0  0
   -3.2020   22.4810  -28.5950 C   0  0  0  0  0  0  0  0  0  0  0  0
   -2.6090   23.7530  -28.6470 C   0  0  0  0  0  0  0  0  0  0  0  0
   -3.1090   24.7300  -29.5770 N   0  0  0  0  0  0  0  0  0  0  0  0
   -4.7210   24.6150  -30.2030 S   0  0  0  0  0  0  0  0  0  0  0  0
   -5.7070   24.7640  -29.0790 O   0  0  0  0  0  0  0  0  0  0  0  0
   -4.9590   25.7110  -31.2040 O   0  0  0  0  0  0  0  0  0  0  0  0
   -4.9350   23.0300  -30.9460 C   0  0  0  0  0  0  0  0  0  0  0  0
   -3.9190   22.4990  -31.7490 C   0  0  0  0  0  0  0  0  0  0  0  0
   -4.1070   21.2780  -32.4050 C   0  0  0  0  0  0  0  0  0  0  0  0
   -5.3210   20.5770  -32.2780 C   0  0  0  0  0  0  0  0  0  0  0  0
   -5.5290   19.3010  -33.0060 C   0  0  0  0  0  0  0  0  0  0  0  0
   -5.9080   19.1610  -34.3400 C   0  0  0  0  0  0  0  0  0  0  0  0
   -5.9870   17.8280  -34.7620 C   0  0  0  0  0  0  0  0  0  0  0  0
   -5.6870   16.9190  -33.7590 C   0  0  0  0  0  0  0  0  0  0  0  0
   -5.6450   15.1690  -33.9270 S   0  0  0  0  0  0  0  0  0  0  0  0
   -7.0050   14.6950  -34.3660 O   0  0  0  0  0  0  0  0  0  0  0  0
   -5.3460   14.5640  -32.5790 O   0  0  0  0  0  0  0  0  0  0  0  0
   -4.4560   14.6400  -35.1000 N   0  0  0  0  0  0  0  0  0  0  0  0
   -3.9270   13.3140  -34.7350 C   0  0  0  0  0  0  0  0  0  0  0  0
   -2.7020   12.9520  -35.6010 C   0  0  0  0  0  0  0  0  0  0  0  0
   -2.5950   13.8180  -36.7190 O   0  0  0  0  0  0  0  0  0  0  0  0
   -2.3450   15.1440  -36.2790 C   0  0  0  0  0  0  0  0  0  0  0  0
   -3.3610   15.6160  -35.2150 C   0  0  0  0  0  0  0  0  0  0  0  0
   -5.3010   17.7590  -32.3610 S   0  0  0  0  0  0  0  0  0  0  0  0
   -6.3350   21.1140  -31.4660 C   0  0  0  0  0  0  0  0  0  0  0  0
   -6.1410   22.3310  -30.8030 C   0  0  0  0  0  0  0  0  0  0  0  0
    0.6898   25.6480  -25.6764 H   0  0  0  0  0  0  0  0  0  0  0  0
    1.5801   24.1946  -26.2436 H   0  0  0  0  0  0  0  0  0  0  0  0
    2.3874   25.7992  -26.2436 H   0  0  0  0  0  0  0  0  0  0  0  0
   -0.3059   23.3311  -26.1353 H   0  0  0  0  0  0  0  0  0  0  0  0
   -1.3888   21.0901  -26.0606 H   0  0  0  0  0  0  0  0  0  0  0  0
   -3.2384   20.5386  -27.6371 H   0  0  0  0  0  0  0  0  0  0  0  0
   -4.0182   22.2313  -29.2888 H   0  0  0  0  0  0  0  0  0  0  0  0
   -2.6090   25.6370  -29.7050 H   0  0  0  0  0  0  0  0  0  0  0  0
   -2.9701   23.0433  -31.8645 H   0  0  0  0  0  0  0  0  0  0  0  0
   -3.2994   20.8621  -33.0253 H   0  0  0  0  0  0  0  0  0  0  0  0
   -6.1243   20.0155  -34.9981 H   0  0  0  0  0  0  0  0  0  0  0  0
   -6.2595   17.5321  -35.7858 H   0  0  0  0  0  0  0  0  0  0  0  0
   -3.6291   13.3242  -33.6762 H   0  0  0  0  0  0  0  0  0  0  0  0
   -4.7124   12.5631  -34.9061 H   0  0  0  0  0  0  0  0  0  0  0  0
   -1.7914   13.0393  -34.9901 H   0  0  0  0  0  0  0  0  0  0  0  0
   -2.8240   11.9218  -35.9667 H   0  0  0  0  0  0  0  0  0  0  0  0
   -1.3348   15.1873  -35.8458 H   0  0  0  0  0  0  0  0  0  0  0  0
   -2.4404   15.8087  -37.1502 H   0  0  0  0  0  0  0  0  0  0  0  0
   -2.8539   15.7113  -34.2435 H   0  0  0  0  0  0  0  0  0  0  0  0
   -3.7743   16.5899  -35.5160 H   0  0  0  0  0  0  0  0  0  0  0  0
   -7.2866   20.5744  -31.3510 H   0  0  0  0  0  0  0  0  0  0  0  0
   -6.9391   22.7409  -30.1665 H   0  0  0  0  0  0  0  0  0  0  0  0
  1  2  1  0
  2  3  1  0
  3  4  2  0
  3  5  2  0
  3  6  1  0
  6  7  2  0
  7  8  1  0
  8  9  2  0
  9 10  1  0
 10 11  2  0
 11 12  1  0
 12 13  1  0
 13 14  2  0
 13 15  2  0
 13 16  1  0
 16 17  2  0
 17 18  1  0
 18 19  2  0
 19 20  1  0
 20 21  2  0
 21 22  1  0
 22 23  2  0
 23 24  1  0
 24 25  2  0
 24 26  2  0
 24 27  1  0
 27 28  1  0
 28 29  1  0
 29 30  1  0
 30 31  1  0
 31 32  1  0
 23 33  1  0
 19 34  1  0
 34 35  2  0
 11  6  1  0
 35 16  1  0
 33 20  1  0
 32 27  1  0
  1 36  1  0
  1 37  1  0
  1 38  1  0
  7 39  1  0
  8 40  1  0
  9 41  1  0
 10 42  1  0
 12 43  1  0
 17 44  1  0
 18 45  1  0
 21 46  1  0
 22 47  1  0
 28 48  1  0
 28 49  1  0
 29 50  1  0
 29 51  1  0
 31 52  1  0
 31 53  1  0
 32 54  1  0
 32 55  1  0
 34 56  1  0
 35 57  1  0
M  CHG  1   2  -1
M  END
>  <UniqueID>  (19) 
17

>  <SMILES>  (19) 
C[N-]S(=O)(=O)c1ccccc1NS(=O)(=O)c1ccc(-c2ccc(S(=O)(=O)N3CCOCC3)s2)cc1

>  <Energy>  (19) 
101.2101866575725

>  <Genealogy>  (19) 
C[N-]S(=O)(=O)c1ccccc1NS(=O)(=O)c1ccc(-c2ccc(S(=O)(=O)N3CCOCC3)s2)cc1 (protonated)
C[N-]S(=O)(=O)c1ccccc1NS(=O)(=O)c1ccc(-c2ccc(S(=O)(=O)N3CCOCC3)s2)cc1 (3D coordinates assigned)
C[N-]S(=O)(=O)c1ccccc1NS(=O)(=O)c1ccc(-c2ccc(S(=O)(=O)N3CCOCC3)s2)cc1 (nonaromatic ring conformer: 101.2101866575725 kcal/mol)

>  <smiles>  (19) 
CNS(=O)(=O)c1ccccc1NS(=O)(=O)c1ccc(-c2ccc(S(=O)(=O)N3CCOCC3)s2)cc1

>  <score_type>  (19) 
oracle

>  <origin>  (19) 
adgpu

>  <m_score__min__energy>  (19) 
-11.75

>  <m_primary>  (19) 
energy

$$$$
19:0
     RDKit          3D

 36 37  0  0  0  0  0  0  0  0999 V2000
   -0.8490   26.7530  -27.8260 C   0  0  0  0  0  0  0  0  0  0  0  0
   -1.2990   26.0060  -28.9520 O   0  0  0  0  0  0  0  0  0  0  0  0
   -1.6710   24.6530  -28.9110 C   0  0  0  0  0  0  0  0  0  0  0  0
   -0.9610   23.7070  -28.1450 C   0  0  0  0  0  0  0  0  0  0  0  0
   -1.3980   22.3820  -28.0760 C   0  0  0  0  0  0  0  0  0  0  0  0
   -2.5480   21.9870  -28.7610 C   0  0  0  0  0  0  0  0  0  0  0  0
   -3.2550   22.9140  -29.5320 C   0  0  0  0  0  0  0  0  0  0  0  0
   -2.8070   24.2360  -29.6350 C   0  0  0  0  0  0  0  0  0  0  0  0
   -3.5520   25.1590  -30.4380 N   0  0  0  0  0  0  0  0  0  0  0  0
   -4.9710   25.1100  -30.6280 C   0  0  0  0  0  0  0  0  0  0  0  0
   -5.6460   26.1540  -30.4180 O   0  0  0  0  0  0  0  0  0  0  0  0
   -5.6610   23.8390  -31.0470 C   0  0  0  0  0  0  0  0  0  0  0  0
   -7.1020   23.9250  -30.7950 N   0  0  0  0  0  0  0  0  0  0  0  0
   -8.0140   23.2450  -32.1110 S   0  0  0  0  0  0  0  0  0  0  0  0
   -9.4610   23.6310  -31.9740 O   0  0  0  0  0  0  0  0  0  0  0  0
   -7.4950   23.8010  -33.4080 O   0  0  0  0  0  0  0  0  0  0  0  0
   -7.8570   21.4900  -32.1330 C   0  0  0  0  0  0  0  0  0  0  0  0
   -6.6860   20.8990  -32.6300 C   0  0  0  0  0  0  0  0  0  0  0  0
   -6.5460   19.5070  -32.6270 C   0  0  0  0  0  0  0  0  0  0  0  0
   -7.5740   18.7010  -32.1260 C   0  0  0  0  0  0  0  0  0  0  0  0
   -8.7420   19.2870  -31.6290 C   0  0  0  0  0  0  0  0  0  0  0  0
   -8.8840   20.6780  -31.6320 C   0  0  0  0  0  0  0  0  0  0  0  0
   -1.1562   26.2430  -26.9011 H   0  0  0  0  0  0  0  0  0  0  0  0
    0.2477   26.8330  -27.8536 H   0  0  0  0  0  0  0  0  0  0  0  0
   -1.2909   27.7599  -27.8536 H   0  0  0  0  0  0  0  0  0  0  0  0
   -0.0572   24.0138  -27.5981 H   0  0  0  0  0  0  0  0  0  0  0  0
   -0.8346   21.6485  -27.4806 H   0  0  0  0  0  0  0  0  0  0  0  0
   -2.8979   20.9463  -28.6941 H   0  0  0  0  0  0  0  0  0  0  0  0
   -4.1682   22.6030  -30.0605 H   0  0  0  0  0  0  0  0  0  0  0  0
   -5.4915   23.6732  -32.1211 H   0  0  0  0  0  0  0  0  0  0  0  0
   -5.2488   23.0034  -30.4623 H   0  0  0  0  0  0  0  0  0  0  0  0
   -5.8761   21.5313  -33.0229 H   0  0  0  0  0  0  0  0  0  0  0  0
   -5.6273   19.0460  -33.0187 H   0  0  0  0  0  0  0  0  0  0  0  0
   -7.4633   17.6066  -32.1231 H   0  0  0  0  0  0  0  0  0  0  0  0
   -9.5501   18.6531  -31.2352 H   0  0  0  0  0  0  0  0  0  0  0  0
   -9.8040   21.1363  -31.2402 H   0  0  0  0  0  0  0  0  0  0  0  0
  1  2  1  0
  2  3  1  0
  3  4  2  0
  4  5  1  0
  5  6  2  0
  6  7  1  0
  7  8  2  0
  8  9  1  0
  9 10  1  0
 10 11  2  0
 10 12  1  0
 12 13  1  0
 13 14  1  0
 14 15  2  0
 14 16  2  0
 14 17  1  0
 17 18  2  0
 18 19  1  0
 19 20  2  0
 20 21  1  0
 21 22  2  0
  8  3  1  0
 22 17  1  0
  1 23  1  0
  1 24  1  0
  1 25  1  0
  4 26  1  0
  5 27  1  0
  6 28  1  0
  7 29  1  0
 12 30  1  0
 12 31  1  0
 18 32  1  0
 19 33  1  0
 20 34  1  0
 21 35  1  0
 22 36  1  0
M  CHG  2   9  -1  13  -1
M  END
>  <UniqueID>  (20) 
18

>  <SMILES>  (20) 
COc1ccccc1[N-]C(=O)C[N-]S(=O)(=O)c1ccccc1

>  <Energy>  (20) 
40.45983172705466

>  <Genealogy>  (20) 
COc1ccccc1[N-]C(=O)C[N-]S(=O)(=O)c1ccccc1 (protonated)
COc1ccccc1[N-]C(=O)C[N-]S(=O)(=O)c1ccccc1 (3D coordinates assigned)
COc1ccccc1[N-]C(=O)C[N-]S(=O)(=O)c1ccccc1 (optimized conformer: 40.45983172705466 kcal/mol)

>  <smiles>  (20) 
COc1ccccc1NC(=O)CNS(=O)(=O)c1ccccc1

>  <score_type>  (20) 
oracle

>  <origin>  (20) 
adgpu

>  <m_score__min__energy>  (20) 
-10.51

>  <m_primary>  (20) 
energy

$$$$
20:0
     RDKit          3D

 53 56  0  0  0  0  0  0  0  0999 V2000
   -3.1630   23.4840  -28.4420 C   0  0  0  0  0  0  0  0  0  0  0  0
   -2.7470   24.6170  -29.3140 C   0  0  0  0  0  0  0  0  0  0  0  0
   -1.7380   25.3040  -29.0050 O   0  0  0  0  0  0  0  0  0  0  0  0
   -3.5420   24.9510  -30.4540 N   0  0  0  0  0  0  0  0  0  0  0  0
   -4.8090   24.3820  -30.8150 C   0  0  0  0  0  0  0  0  0  0  0  0
   -5.9770   24.9670  -30.3040 C   0  0  0  0  0  0  0  0  0  0  0  0
   -7.2310   24.4400  -30.6190 C   0  0  0  0  0  0  0  0  0  0  0  0
   -7.3310   23.3120  -31.4380 C   0  0  0  0  0  0  0  0  0  0  0  0
   -8.9460   22.6390  -31.8350 S   0  0  0  0  0  0  0  0  0  0  0  0
   -8.7240   21.0900  -30.8900 C   0  0  0  0  0  0  0  0  0  0  0  0
   -8.8550   19.9250  -31.8140 C   0  0  0  0  0  0  0  0  0  0  0  0
   -9.7660   19.9230  -32.6810 O   0  0  0  0  0  0  0  0  0  0  0  0
   -7.8670   18.8840  -31.7620 N   0  0  0  0  0  0  0  0  0  0  0  0
   -6.9500   18.5910  -32.6350 C   0  0  0  0  0  0  0  0  0  0  0  0
   -6.7900   19.1790  -33.8470 N   0  0  0  0  0  0  0  0  0  0  0  0
   -5.7680   18.6810  -34.5450 N   0  0  0  0  0  0  0  0  0  0  0  0
   -5.1170   17.6940  -33.8950 C   0  0  0  0  0  0  0  0  0  0  0  0
   -3.7120   16.8690  -34.5390 S   0  0  0  0  0  0  0  0  0  0  0  0
   -3.9460   16.6030  -36.0000 O   0  0  0  0  0  0  0  0  0  0  0  0
   -2.4910   17.7380  -34.4090 O   0  0  0  0  0  0  0  0  0  0  0  0
   -3.4530   15.3680  -33.6870 N   0  0  0  0  0  0  0  0  0  0  0  0
   -2.2390   15.2830  -32.8590 C   0  0  0  0  0  0  0  0  0  0  0  0
   -1.9120   13.8360  -32.4890 C   0  0  0  0  0  0  0  0  0  0  0  0
   -3.1180   13.1760  -31.8200 C   0  0  0  0  0  0  0  0  0  0  0  0
   -4.3290   13.2640  -32.7070 C   0  0  0  0  0  0  0  0  0  0  0  0
   -5.3310   12.2910  -32.6020 C   0  0  0  0  0  0  0  0  0  0  0  0
   -6.4670   12.3590  -33.4090 C   0  0  0  0  0  0  0  0  0  0  0  0
   -6.6120   13.3980  -34.3240 C   0  0  0  0  0  0  0  0  0  0  0  0
   -5.6300   14.3850  -34.4240 C   0  0  0  0  0  0  0  0  0  0  0  0
   -4.4840   14.3470  -33.6050 C   0  0  0  0  0  0  0  0  0  0  0  0
   -5.8040   17.3860  -32.3850 S   0  0  0  0  0  0  0  0  0  0  0  0
   -6.1700   22.7050  -31.9320 C   0  0  0  0  0  0  0  0  0  0  0  0
   -4.9120   23.2340  -31.6210 C   0  0  0  0  0  0  0  0  0  0  0  0
   -3.0561   23.7751  -27.3866 H   0  0  0  0  0  0  0  0  0  0  0  0
   -4.2132   23.2295  -28.6476 H   0  0  0  0  0  0  0  0  0  0  0  0
   -2.5270   22.6104  -28.6476 H   0  0  0  0  0  0  0  0  0  0  0  0
   -5.9044   25.8482  -29.6497 H   0  0  0  0  0  0  0  0  0  0  0  0
   -8.1413   24.9132  -30.2221 H   0  0  0  0  0  0  0  0  0  0  0  0
   -7.7260   21.0816  -30.4274 H   0  0  0  0  0  0  0  0  0  0  0  0
   -9.4908   21.0249  -30.1041 H   0  0  0  0  0  0  0  0  0  0  0  0
   -7.3940   19.9280  -34.2450 H   0  0  0  0  0  0  0  0  0  0  0  0
   -1.3936   15.7081  -33.4198 H   0  0  0  0  0  0  0  0  0  0  0  0
   -2.4154   15.8449  -31.9299 H   0  0  0  0  0  0  0  0  0  0  0  0
   -1.6517   13.2779  -33.4005 H   0  0  0  0  0  0  0  0  0  0  0  0
   -1.0641   13.8278  -31.7883 H   0  0  0  0  0  0  0  0  0  0  0  0
   -2.8890   12.1180  -31.6247 H   0  0  0  0  0  0  0  0  0  0  0  0
   -3.3307   13.6997  -30.8763 H   0  0  0  0  0  0  0  0  0  0  0  0
   -5.2217   11.4689  -31.8794 H   0  0  0  0  0  0  0  0  0  0  0  0
   -7.2492   11.5905  -33.3221 H   0  0  0  0  0  0  0  0  0  0  0  0
   -7.5018   13.4413  -34.9693 H   0  0  0  0  0  0  0  0  0  0  0  0
   -5.7522   15.2019  -35.1505 H   0  0  0  0  0  0  0  0  0  0  0  0
   -6.2468   21.8097  -32.5664 H   0  0  0  0  0  0  0  0  0  0  0  0
   -4.0024   22.7511  -32.0076 H   0  0  0  0  0  0  0  0  0  0  0  0
  1  2  1  0
  2  3  2  0
  2  4  1  0
  4  5  1  0
  5  6  2  0
  6  7  1  0
  7  8  2  0
  8  9  1  0
  9 10  1  0
 10 11  1  0
 11 12  2  0
 11 13  1  0
 13 14  2  3
 14 15  1  0
 15 16  1  0
 16 17  2  0
 17 18  1  0
 18 19  2  0
 18 20  2  0
 18 21  1  0
 21 22  1  0
 22 23  1  0
 23 24  1  0
 24 25  1  0
 25 26  2  0
 26 27  1  0
 27 28  2  0
 28 29  1  0
 29 30  2  0
 17 31  1  0
  8 32  1  0
 32 33  2  0
 33  5  1  0
 31 14  1  0
 30 21  1  0
 30 25  1  0
  1 34  1  0
  1 35  1  0
  1 36  1  0
  6 37  1  0
  7 38  1  0
 10 39  1  0
 10 40  1  0
 15 41  1  0
 22 42  1  0
 22 43  1  0
 23 44  1  0
 23 45  1  0
 24 46  1  0
 24 47  1  0
 26 48  1  0
 27 49  1  0
 28 50  1  0
 29 51  1  0
 32 52  1  0
 33 53  1  0
M  CHG  1   4  -1
M  END
>  <UniqueID>  (21) 
19

>  <SMILES>  (21) 
CC(=O)[N-]c1ccc(SCC(=O)N=c2[nH]nc(S(=O)(=O)N3CCCc4ccccc43)s2)cc1

>  <Energy>  (21) 
97.24628582063684

>  <Genealogy>  (21) 
CC(=O)[N-]c1ccc(SCC(=O)N=c2[nH]nc(S(=O)(=O)N3CCCc4ccccc43)s2)cc1 (protonated)
CC(=O)[N-]c1ccc(SCC(=O)N=c2[nH]nc(S(=O)(=O)N3CCCc4ccccc43)s2)cc1 (3D coordinates assigned)
CC(=O)[N-]c1ccc(SCC(=O)N=c2[nH]nc(S(=O)(=O)N3CCCc4ccccc43)s2)cc1 (nonaromatic ring conformer: 97.24628582063684 kcal/mol)

>  <smiles>  (21) 
CC(=O)Nc1ccc(SCC(=O)N=c2[nH]nc(S(=O)(=O)N3CCCc4ccccc43)s2)cc1

>  <score_type>  (21) 
oracle

>  <origin>  (21) 
adgpu

>  <m_score__min__energy>  (21) 
-12.279999999999999

>  <m_primary>  (21) 
energy

$$$$
21:0
     RDKit          3D

 81 85  0  0  0  0  0  0  0  0999 V2000
   -1.8940   17.6140  -34.1680 C   0  0  0  0  0  0  0  0  0  0  0  0
   -1.0310   17.7890  -32.9460 C   0  0  0  0  0  0  0  0  0  0  0  0
   -0.5900   16.6360  -32.2770 C   0  0  0  0  0  0  0  0  0  0  0  0
    0.2140   16.7300  -31.1460 C   0  0  0  0  0  0  0  0  0  0  0  0
    0.6060   17.9750  -30.6580 C   0  0  0  0  0  0  0  0  0  0  0  0
    1.4750   18.0170  -29.5200 N   0  0  0  0  0  0  0  0  0  0  0  0
    1.0810   18.4860  -28.2240 C   0  0  0  0  0  0  0  0  0  0  0  0
    1.8560   18.3580  -27.2380 O   0  0  0  0  0  0  0  0  0  0  0  0
   -0.2190   19.0490  -28.0230 N   0  0  0  0  0  0  0  0  0  0  0  0
   -0.4950   20.4500  -27.9000 C   0  0  0  0  0  0  0  0  0  0  0  0
   -1.8100   20.8630  -27.6630 C   0  0  0  0  0  0  0  0  0  0  0  0
   -2.1140   22.2220  -27.5440 C   0  0  0  0  0  0  0  0  0  0  0  0
   -1.0960   23.1810  -27.6310 C   0  0  0  0  0  0  0  0  0  0  0  0
   -1.4840   24.9000  -27.5420 S   0  0  0  0  0  0  0  0  0  0  0  0
   -1.6330   25.4500  -28.9340 O   0  0  0  0  0  0  0  0  0  0  0  0
   -2.7970   25.0830  -26.8320 O   0  0  0  0  0  0  0  0  0  0  0  0
   -0.2180   25.7740  -26.7060 N   0  0  0  0  0  0  0  0  0  0  0  0
    0.0970   25.0830  -25.4380 C   0  0  0  0  0  0  0  0  0  0  0  0
   -0.8620   25.4580  -24.2970 C   0  0  0  0  0  0  0  0  0  0  0  0
   -0.4040   26.6230  -23.4030 C   0  0  0  0  0  0  0  0  0  0  0  0
   -0.3950   27.9890  -24.1050 C   0  0  0  0  0  0  0  0  0  0  0  0
    0.2240   28.0150  -25.5250 C   0  0  0  0  0  0  0  0  0  0  0  0
   -0.5490   27.2230  -26.6050 C   0  0  0  0  0  0  0  0  0  0  0  0
    0.2290   22.7660  -27.8240 C   0  0  0  0  0  0  0  0  0  0  0  0
    0.5300   21.4090  -27.9580 C   0  0  0  0  0  0  0  0  0  0  0  0
    0.1240   19.1490  -31.2730 C   0  0  0  0  0  0  0  0  0  0  0  0
    0.3760   20.4060  -30.7150 O   0  0  0  0  0  0  0  0  0  0  0  0
   -0.6590   19.0660  -32.4460 C   0  0  0  0  0  0  0  0  0  0  0  0
   -1.1970   20.6000  -33.1730 S   0  0  0  0  0  0  0  0  0  0  0  0
   -1.4750   20.4830  -34.6440 O   0  0  0  0  0  0  0  0  0  0  0  0
   -0.1020   21.6110  -32.9800 O   0  0  0  0  0  0  0  0  0  0  0  0
   -2.6400   21.1120  -32.3330 N   0  0  0  0  0  0  0  0  0  0  0  0
   -2.7560   20.4820  -31.0090 C   0  0  0  0  0  0  0  0  0  0  0  0
   -3.7260   21.2980  -30.1460 C   0  0  0  0  0  0  0  0  0  0  0  0
   -4.7310   21.9690  -30.9840 N   0  0  0  0  0  0  0  0  0  0  0  0
   -5.3050   23.2230  -30.5700 C   0  0  0  0  0  0  0  0  0  0  0  0
   -6.6640   23.2850  -30.2120 C   0  0  0  0  0  0  0  0  0  0  0  0
   -7.2400   24.4980  -29.8260 C   0  0  0  0  0  0  0  0  0  0  0  0
   -6.4660   25.6620  -29.7960 C   0  0  0  0  0  0  0  0  0  0  0  0
   -5.1160   25.6130  -30.1500 C   0  0  0  0  0  0  0  0  0  0  0  0
   -4.5320   24.4010  -30.5350 C   0  0  0  0  0  0  0  0  0  0  0  0
   -3.1810   24.3740  -30.8590 O   0  0  0  0  0  0  0  0  0  0  0  0
   -5.1330   21.3390  -32.2470 C   0  0  0  0  0  0  0  0  0  0  0  0
   -3.8930   21.0240  -33.1290 C   0  0  2  0  0  0  0  0  0  0  0  0
   -4.0890   19.6680  -33.8410 C   0  0  0  0  0  0  0  0  0  0  0  0
   -2.9287   17.4042  -33.8592 H   0  0  0  0  0  0  0  0  0  0  0  0
   -1.8703   18.5352  -34.7686 H   0  0  0  0  0  0  0  0  0  0  0  0
   -1.5133   16.7748  -34.7686 H   0  0  0  0  0  0  0  0  0  0  0  0
   -0.8844   15.6449  -32.6525 H   0  0  0  0  0  0  0  0  0  0  0  0
    0.5430   15.8144  -30.6327 H   0  0  0  0  0  0  0  0  0  0  0  0
   -2.6099   20.1137  -27.5697 H   0  0  0  0  0  0  0  0  0  0  0  0
   -3.1546   22.5394  -27.3817 H   0  0  0  0  0  0  0  0  0  0  0  0
    0.0356   23.9975  -25.6054 H   0  0  0  0  0  0  0  0  0  0  0  0
    1.1075   25.3945  -25.1351 H   0  0  0  0  0  0  0  0  0  0  0  0
   -1.8288   25.7333  -24.7436 H   0  0  0  0  0  0  0  0  0  0  0  0
   -0.9114   24.5758  -23.6418 H   0  0  0  0  0  0  0  0  0  0  0  0
   -1.0832   26.6832  -22.5398 H   0  0  0  0  0  0  0  0  0  0  0  0
    0.6354   26.4095  -23.1132 H   0  0  0  0  0  0  0  0  0  0  0  0
   -1.4365   28.3340  -24.1848 H   0  0  0  0  0  0  0  0  0  0  0  0
    0.2458   28.6367  -23.4886 H   0  0  0  0  0  0  0  0  0  0  0  0
    0.2807   29.0642  -25.8504 H   0  0  0  0  0  0  0  0  0  0  0  0
    1.2041   27.5238  -25.4352 H   0  0  0  0  0  0  0  0  0  0  0  0
   -1.6229   27.3094  -26.3833 H   0  0  0  0  0  0  0  0  0  0  0  0
   -0.2547   27.6651  -27.5683 H   0  0  0  0  0  0  0  0  0  0  0  0
    1.0354   23.5128  -27.8701 H   0  0  0  0  0  0  0  0  0  0  0  0
    1.5719   21.0903  -28.1093 H   0  0  0  0  0  0  0  0  0  0  0  0
    0.8070   20.5320  -29.8090 H   0  0  0  0  0  0  0  0  0  0  0  0
   -3.1373   19.4564  -31.1216 H   0  0  0  0  0  0  0  0  0  0  0  0
   -1.7680   20.4512  -30.5264 H   0  0  0  0  0  0  0  0  0  0  0  0
   -4.2355   20.6247  -29.4409 H   0  0  0  0  0  0  0  0  0  0  0  0
   -3.1546   22.0627  -29.5995 H   0  0  0  0  0  0  0  0  0  0  0  0
   -7.2774   22.3722  -30.2361 H   0  0  0  0  0  0  0  0  0  0  0  0
   -8.3029   24.5372  -29.5456 H   0  0  0  0  0  0  0  0  0  0  0  0
   -6.9207   26.6168  -29.4934 H   0  0  0  0  0  0  0  0  0  0  0  0
   -4.5095   26.5304  -30.1261 H   0  0  0  0  0  0  0  0  0  0  0  0
   -5.6667   20.4023  -32.0284 H   0  0  0  0  0  0  0  0  0  0  0  0
   -5.7860   22.0346  -32.7944 H   0  0  0  0  0  0  0  0  0  0  0  0
   -3.7917   21.7827  -33.9190 H   0  0  0  0  0  0  0  0  0  0  0  0
   -4.2040   18.8727  -33.0898 H   0  0  0  0  0  0  0  0  0  0  0  0
   -4.9902   19.7111  -34.4702 H   0  0  0  0  0  0  0  0  0  0  0  0
   -3.2124   19.4542  -34.4702 H   0  0  0  0  0  0  0  0  0  0  0  0
  1  2  1  0
  2  3  2  0
  3  4  1  0
  4  5  2  0
  5  6  1  0
  6  7  1  0
  7  8  2  0
  7  9  1  0
  9 10  1  0
 10 11  2  0
 11 12  1  0
 12 13  2  0
 13 14  1  0
 14 15  2  0
 14 16  2  0
 14 17  1  0
 17 18  1  0
 18 19  1  0
 19 20  1  0
 20 21  1  0
 21 22  1  0
 22 23  1  0
 13 24  1  0
 24 25  2  0
  5 26  1  0
 26 27  1  0
 26 28  2  0
 28 29  1  0
 29 30  2  0
 29 31  2  0
 29 32  1  0
 32 33  1  0
 33 34  1  0
 34 35  1  0
 35 36  1  0
 36 37  2  0
 37 38  1  0
 38 39  2  0
 39 40  1  0
 40 41  2  0
 41 42  1  0
 35 43  1  0
 43 44  1  0
 44 45  1  0
 28  2  1  0
 44 32  1  0
 25 10  1  0
 41 36  1  0
 23 17  1  0
  1 46  1  0
  1 47  1  0
  1 48  1  0
  3 49  1  0
  4 50  1  0
 11 51  1  0
 12 52  1  0
 18 53  1  0
 18 54  1  0
 19 55  1  0
 19 56  1  0
 20 57  1  0
 20 58  1  0
 21 59  1  0
 21 60  1  0
 22 61  1  0
 22 62  1  0
 23 63  1  0
 23 64  1  0
 24 65  1  0
 25 66  1  0
 27 67  1  0
 33 68  1  0
 33 69  1  0
 34 70  1  0
 34 71  1  0
 37 72  1  0
 38 73  1  0
 39 74  1  0
 40 75  1  0
 43 76  1  0
 43 77  1  0
 44 78  1  6
 45 79  1  0
 45 80  1  0
 45 81  1  0
M  CHG  3   6  -1   9  -1  42  -1
M  END
>  <UniqueID>  (22) 
20

>  <SMILES>  (22) 
Cc1ccc([N-]C(=O)[N-]c2ccc(S(=O)(=O)N3CCCCCC3)cc2)c(O)c1S(=O)(=O)N1CCN(c2ccccc2[O-])C[C@@H]1C

>  <Energy>  (22) 
124.70407941917028

>  <Genealogy>  (22) 
Cc1ccc([N-]C(=O)[N-]c2ccc(S(=O)(=O)N3CCCCCC3)cc2)c(O)c1S(=O)(=O)N1CCN(c2ccccc2[O-])CC1C (protonated)
Cc1ccc([N-]C(=O)[N-]c2ccc(S(=O)(=O)N3CCCCCC3)cc2)c(O)c1S(=O)(=O)N1CCN(c2ccccc2[O-])C[C@@H]1C (chirality)
Cc1ccc([N-]C(=O)[N-]c2ccc(S(=O)(=O)N3CCCCCC3)cc2)c(O)c1S(=O)(=O)N1CCN(c2ccccc2[O-])C[C@@H]1C (3D coordinates assigned)
Cc1ccc([N-]C(=O)[N-]c2ccc(S(=O)(=O)N3CCCCCC3)cc2)c(O)c1S(=O)(=O)N1CCN(c2ccccc2[O-])C[C@@H]1C (nonaromatic ring conformer: 124.70407941917028 kcal/mol)

>  <smiles>  (22) 
Cc1ccc(NC(=O)Nc2ccc(S(=O)(=O)N3CCCCCC3)cc2)c(O)c1S(=O)(=O)N1CCN(c2ccccc2O)CC1C

>  <score_type>  (22) 
oracle

>  <origin>  (22) 
adgpu

>  <m_score__min__energy>  (22) 
-11.73

>  <m_primary>  (22) 
energy

$$$$
22:0
     RDKit          3D

 55 58  0  0  0  0  0  0  0  0999 V2000
    1.5040   25.9160  -24.4100 C   0  0  0  0  0  0  0  0  0  0  0  0
    0.4970   25.1520  -25.2750 C   0  0  0  0  0  0  0  0  0  0  0  0
   -0.6980   26.0160  -25.7560 C   0  0  2  0  0  0  0  0  0  0  0  0
   -1.9190   25.2020  -26.1700 C   0  0  0  0  0  0  0  0  0  0  0  0
   -2.0880   24.4100  -27.2490 C   0  0  0  0  0  0  0  0  0  0  0  0
   -3.5190   23.5730  -27.5160 S   0  0  0  0  0  0  0  0  0  0  0  0
   -3.0360   22.8620  -28.9570 C   0  0  0  0  0  0  0  0  0  0  0  0
   -3.8680   22.0590  -29.6490 C   0  0  0  0  0  0  0  0  0  0  0  0
   -3.6920   21.5580  -31.0250 C   0  0  0  0  0  0  0  0  0  0  0  0
   -2.7120   20.8220  -31.3090 O   0  0  0  0  0  0  0  0  0  0  0  0
   -4.5340   22.0230  -32.0870 N   0  0  0  0  0  0  0  0  0  0  0  0
   -5.9680   21.9760  -32.0570 C   0  0  0  0  0  0  0  0  0  0  0  0
   -6.6860   23.1190  -31.6480 C   0  0  0  0  0  0  0  0  0  0  0  0
   -5.9590   24.3700  -31.2370 C   0  0  0  0  0  0  0  0  0  0  0  0
   -8.0880   23.0730  -31.5850 C   0  0  0  0  0  0  0  0  0  0  0  0
   -8.7720   21.9090  -31.9360 C   0  0  0  0  0  0  0  0  0  0  0  0
   -8.0680   20.7860  -32.3680 C   0  0  0  0  0  0  0  0  0  0  0  0
   -6.6680   20.8110  -32.4560 C   0  0  0  0  0  0  0  0  0  0  0  0
   -5.9450   19.5870  -32.9490 C   0  0  0  0  0  0  0  0  0  0  0  0
   -1.7430   23.2130  -29.2440 N   0  0  0  0  0  0  0  0  0  0  0  0
   -0.9170   22.6930  -30.3410 C   0  0  0  0  0  0  0  0  0  0  0  0
   -1.2330   24.0890  -28.3170 C   0  0  0  0  0  0  0  0  0  0  0  0
   -0.0710   24.5540  -28.4340 O   0  0  0  0  0  0  0  0  0  0  0  0
   -0.2810   26.9010  -26.8500 N   0  0  0  0  0  0  0  0  0  0  0  0
   -0.4240   28.2800  -26.5690 C   0  0  0  0  0  0  0  0  0  0  0  0
   -0.1180   29.3060  -27.4680 C   0  0  0  0  0  0  0  0  0  0  0  0
   -0.3080   30.6370  -27.0670 C   0  0  0  0  0  0  0  0  0  0  0  0
   -0.7980   30.9220  -25.7810 C   0  0  0  0  0  0  0  0  0  0  0  0
   -1.0970   29.8760  -24.8950 C   0  0  0  0  0  0  0  0  0  0  0  0
   -0.8990   28.5590  -25.3140 C   0  0  0  0  0  0  0  0  0  0  0  0
   -1.2090   27.1080  -24.3370 S   0  0  0  0  0  0  0  0  0  0  0  0
    1.2785   25.7449  -23.3471 H   0  0  0  0  0  0  0  0  0  0  0  0
    2.5212   25.5604  -24.6309 H   0  0  0  0  0  0  0  0  0  0  0  0
    1.4355   26.9914  -24.6309 H   0  0  0  0  0  0  0  0  0  0  0  0
    1.0234   24.7649  -26.1599 H   0  0  0  0  0  0  0  0  0  0  0  0
    0.0803   24.3497  -24.6483 H   0  0  0  0  0  0  0  0  0  0  0  0
   -2.7838   25.2701  -25.4937 H   0  0  0  0  0  0  0  0  0  0  0  0
   -4.7831   21.7408  -29.1281 H   0  0  0  0  0  0  0  0  0  0  0  0
   -5.9242   24.4299  -30.1392 H   0  0  0  0  0  0  0  0  0  0  0  0
   -4.9340   24.3462  -31.6356 H   0  0  0  0  0  0  0  0  0  0  0  0
   -6.4871   25.2487  -31.6356 H   0  0  0  0  0  0  0  0  0  0  0  0
   -8.6501   23.9598  -31.2570 H   0  0  0  0  0  0  0  0  0  0  0  0
   -9.8697   21.8772  -31.8717 H   0  0  0  0  0  0  0  0  0  0  0  0
   -8.6151   19.8720  -32.6424 H   0  0  0  0  0  0  0  0  0  0  0  0
   -5.5960   18.9962  -32.0893 H   0  0  0  0  0  0  0  0  0  0  0  0
   -6.6285   18.9782  -33.5591 H   0  0  0  0  0  0  0  0  0  0  0  0
   -5.0819   19.8918  -33.5591 H   0  0  0  0  0  0  0  0  0  0  0  0
   -0.0551   22.1504  -29.9256 H   0  0  0  0  0  0  0  0  0  0  0  0
   -1.5171   22.0095  -30.9596 H   0  0  0  0  0  0  0  0  0  0  0  0
   -0.5601   23.5296  -30.9596 H   0  0  0  0  0  0  0  0  0  0  0  0
    0.1130   26.5750  -27.7570 H   0  0  0  0  0  0  0  0  0  0  0  0
    0.2652   29.0737  -28.4726 H   0  0  0  0  0  0  0  0  0  0  0  0
   -0.0732   31.4584  -27.7599 H   0  0  0  0  0  0  0  0  0  0  0  0
   -0.9472   31.9661  -25.4688 H   0  0  0  0  0  0  0  0  0  0  0  0
   -1.4811   30.0901  -23.8867 H   0  0  0  0  0  0  0  0  0  0  0  0
  1  2  1  0
  3  2  1  1
  3  4  1  0
  4  5  2  3
  5  6  1  0
  6  7  1  0
  7  8  2  3
  8  9  1  0
  9 10  2  0
  9 11  1  0
 11 12  1  0
 12 13  2  0
 13 14  1  0
 13 15  1  0
 15 16  2  0
 16 17  1  0
 17 18  2  0
 18 19  1  0
  7 20  1  0
 20 21  1  0
 20 22  1  0
 22 23  2  0
  3 24  1  0
 24 25  1  0
 25 26  2  0
 26 27  1  0
 27 28  2  0
 28 29  1  0
 29 30  2  0
 30 31  1  0
 31  3  1  0
 22  5  1  0
 30 25  1  0
 18 12  1  0
  1 32  1  0
  1 33  1  0
  1 34  1  0
  2 35  1  0
  2 36  1  0
  4 37  1  0
  8 38  1  0
 14 39  1  0
 14 40  1  0
 14 41  1  0
 15 42  1  0
 16 43  1  0
 17 44  1  0
 19 45  1  0
 19 46  1  0
 19 47  1  0
 21 48  1  0
 21 49  1  0
 21 50  1  0
 24 51  1  0
 26 52  1  0
 27 53  1  0
 28 54  1  0
 29 55  1  0
M  CHG  1  11  -1
M  END
>  <UniqueID>  (23) 
21

>  <SMILES>  (23) 
CC[C@]1(C=c2sc(=CC(=O)[N-]c3c(C)cccc3C)n(C)c2=O)Nc2ccccc2S1

>  <Energy>  (23) 
123.45735388241437

>  <Genealogy>  (23) 
CCC1(C=c2sc(=CC(=O)[N-]c3c(C)cccc3C)n(C)c2=O)Nc2ccccc2S1 (protonated)
CC[C@]1(C=c2sc(=CC(=O)[N-]c3c(C)cccc3C)n(C)c2=O)Nc2ccccc2S1 (chirality)
CC[C@]1(C=c2sc(=CC(=O)[N-]c3c(C)cccc3C)n(C)c2=O)Nc2ccccc2S1 (3D coordinates assigned)
CC[C@]1(C=c2sc(=CC(=O)[N-]c3c(C)cccc3C)n(C)c2=O)Nc2ccccc2S1 (nonaromatic ring conformer: 123.45735388241437 kcal/mol)

>  <smiles>  (23) 
CCC1(C=c2sc(=CC(=O)Nc3c(C)cccc3C)n(C)c2=O)Nc2ccccc2S1

>  <score_type>  (23) 
oracle

>  <origin>  (23) 
adgpu

>  <m_score__min__energy>  (23) 
-9.5

>  <m_primary>  (23) 
energy

$$$$
23:0
     RDKit          3D

 60 63  0  0  0  0  0  0  0  0999 V2000
   -5.5390   26.4130  -30.4850 O   0  0  0  0  0  0  0  0  0  0  0  0
   -4.9830   25.3000  -30.6830 C   0  0  0  0  0  0  0  0  0  0  0  0
   -3.5840   25.1640  -30.3970 N   0  0  0  0  0  0  0  0  0  0  0  0
   -3.0340   24.3510  -29.3500 C   0  0  0  0  0  0  0  0  0  0  0  0
   -3.7140   23.2190  -28.8670 C   0  0  0  0  0  0  0  0  0  0  0  0
   -3.1530   22.4460  -27.8480 C   0  0  0  0  0  0  0  0  0  0  0  0
   -1.9130   22.7910  -27.3070 C   0  0  0  0  0  0  0  0  0  0  0  0
   -1.2220   23.9120  -27.7900 C   0  0  0  0  0  0  0  0  0  0  0  0
    0.3250   24.3720  -27.0740 S   0  0  0  0  0  0  0  0  0  0  0  0
    1.2450   24.8700  -28.1550 O   0  0  0  0  0  0  0  0  0  0  0  0
    0.9560   23.1590  -26.4490 O   0  0  0  0  0  0  0  0  0  0  0  0
    0.1240   25.6150  -25.8640 N   0  0  0  0  0  0  0  0  0  0  0  0
   -0.6540   26.7490  -26.4160 C   0  0  0  0  0  0  0  0  0  0  0  0
   -1.2200   27.6870  -25.3230 C   0  0  0  0  0  0  0  0  0  0  0  0
   -0.4710   27.5360  -23.9990 C   0  0  0  0  0  0  0  0  0  0  0  0
   -0.5120   26.0810  -23.5010 C   0  0  0  0  0  0  0  0  0  0  0  0
   -0.5150   25.0590  -24.6570 C   0  0  0  0  0  0  0  0  0  0  0  0
   -1.7790   24.6780  -28.8230 C   0  0  0  0  0  0  0  0  0  0  0  0
   -5.7890   24.1560  -31.1630 C   0  0  0  0  0  0  0  0  0  0  0  0
   -7.1900   24.1750  -31.0570 C   0  0  0  0  0  0  0  0  0  0  0  0
   -7.9440   23.0860  -31.5000 C   0  0  0  0  0  0  0  0  0  0  0  0
   -7.3100   21.9670  -32.0410 C   0  0  0  0  0  0  0  0  0  0  0  0
   -5.9130   21.9290  -32.1460 C   0  0  0  0  0  0  0  0  0  0  0  0
   -5.1060   20.4850  -32.7600 S   0  0  0  0  0  0  0  0  0  0  0  0
   -4.3540   19.8230  -31.6390 O   0  0  0  0  0  0  0  0  0  0  0  0
   -4.1130   20.8810  -33.8160 O   0  0  0  0  0  0  0  0  0  0  0  0
   -6.2540   19.3480  -33.4330 N   0  0  0  0  0  0  0  0  0  0  0  0
   -5.7440   18.7260  -34.6750 C   0  0  0  0  0  0  0  0  0  0  0  0
   -5.2810   17.2770  -34.4460 C   0  0  0  0  0  0  0  0  0  0  0  0
   -6.3100   16.4340  -33.9490 O   0  0  0  0  0  0  0  0  0  0  0  0
   -7.2250   17.0950  -33.0800 C   0  0  0  0  0  0  0  0  0  0  0  0
   -6.6560   18.3590  -32.4150 C   0  0  0  0  0  0  0  0  0  0  0  0
   -5.1580   23.0350  -31.7280 C   0  0  0  0  0  0  0  0  0  0  0  0
   -4.6897   22.9417  -29.2925 H   0  0  0  0  0  0  0  0  0  0  0  0
   -3.6896   21.5630  -27.4706 H   0  0  0  0  0  0  0  0  0  0  0  0
   -1.4773   22.1827  -26.5007 H   0  0  0  0  0  0  0  0  0  0  0  0
    1.0860   25.9480  -25.6150 H   0  0  0  0  0  0  0  0  0  0  0  0
    0.0026   27.3359  -27.0751 H   0  0  0  0  0  0  0  0  0  0  0  0
   -1.5110   26.3246  -26.9595 H   0  0  0  0  0  0  0  0  0  0  0  0
   -1.1295   28.7282  -25.6661 H   0  0  0  0  0  0  0  0  0  0  0  0
   -2.2723   27.4159  -25.1524 H   0  0  0  0  0  0  0  0  0  0  0  0
    0.5772   27.8368  -24.1431 H   0  0  0  0  0  0  0  0  0  0  0  0
   -0.9576   28.1757  -23.2480 H   0  0  0  0  0  0  0  0  0  0  0  0
    0.3717   25.8988  -22.8717 H   0  0  0  0  0  0  0  0  0  0  0  0
   -1.4463   25.9481  -22.9359 H   0  0  0  0  0  0  0  0  0  0  0  0
    0.0349   24.1599  -24.3421 H   0  0  0  0  0  0  0  0  0  0  0  0
   -1.5590   24.8111  -24.8992 H   0  0  0  0  0  0  0  0  0  0  0  0
   -1.2266   25.5415  -29.2221 H   0  0  0  0  0  0  0  0  0  0  0  0
   -7.6948   25.0509  -30.6235 H   0  0  0  0  0  0  0  0  0  0  0  0
   -9.0410   23.1106  -31.4222 H   0  0  0  0  0  0  0  0  0  0  0  0
   -7.9089   21.1114  -32.3864 H   0  0  0  0  0  0  0  0  0  0  0  0
   -6.5457   18.7278  -35.4282 H   0  0  0  0  0  0  0  0  0  0  0  0
   -4.8764   19.3100  -35.0159 H   0  0  0  0  0  0  0  0  0  0  0  0
   -4.9255   16.8679  -35.4032 H   0  0  0  0  0  0  0  0  0  0  0  0
   -4.4848   17.3037  -33.6875 H   0  0  0  0  0  0  0  0  0  0  0  0
   -8.1116   17.3814  -33.6648 H   0  0  0  0  0  0  0  0  0  0  0  0
   -7.4607   16.3887  -32.2703 H   0  0  0  0  0  0  0  0  0  0  0  0
   -7.4247   18.8021  -31.7648 H   0  0  0  0  0  0  0  0  0  0  0  0
   -5.7710   18.0799  -31.8243 H   0  0  0  0  0  0  0  0  0  0  0  0
   -4.0641   23.0245  -31.8434 H   0  0  0  0  0  0  0  0  0  0  0  0
  1  2  2  0
  2  3  1  0
  3  4  1  0
  4  5  2  0
  5  6  1  0
  6  7  2  0
  7  8  1  0
  8  9  1  0
  9 10  2  0
  9 11  2  0
  9 12  1  0
 12 13  1  0
 13 14  1  0
 14 15  1  0
 15 16  1  0
 16 17  1  0
  8 18  2  0
  2 19  1  0
 19 20  2  0
 20 21  1  0
 21 22  2  0
 22 23  1  0
 23 24  1  0
 24 25  2  0
 24 26  2  0
 24 27  1  0
 27 28  1  0
 28 29  1  0
 29 30  1  0
 30 31  1  0
 31 32  1  0
 23 33  2  0
 18  4  1  0
 33 19  1  0
 17 12  1  0
 32 27  1  0
  5 34  1  0
  6 35  1  0
  7 36  1  0
 12 37  1  0
 13 38  1  0
 13 39  1  0
 14 40  1  0
 14 41  1  0
 15 42  1  0
 15 43  1  0
 16 44  1  0
 16 45  1  0
 17 46  1  0
 17 47  1  0
 18 48  1  0
 20 49  1  0
 21 50  1  0
 22 51  1  0
 28 52  1  0
 28 53  1  0
 29 54  1  0
 29 55  1  0
 31 56  1  0
 31 57  1  0
 32 58  1  0
 32 59  1  0
 33 60  1  0
M  CHG  2   3  -1  12   1
M  END
>  <UniqueID>  (24) 
22

>  <SMILES>  (24) 
O=C([N-]c1cccc(S(=O)(=O)[NH+]2CCCCC2)c1)c1cccc(S(=O)(=O)N2CCOCC2)c1

>  <Energy>  (24) 
82.1865796441665

>  <Genealogy>  (24) 
O=C([N-]c1cccc(S(=O)(=O)[NH+]2CCCCC2)c1)c1cccc(S(=O)(=O)N2CCOCC2)c1 (protonated)
O=C([N-]c1cccc(S(=O)(=O)[NH+]2CCCCC2)c1)c1cccc(S(=O)(=O)N2CCOCC2)c1 (3D coordinates assigned)
O=C([N-]c1cccc(S(=O)(=O)[NH+]2CCCCC2)c1)c1cccc(S(=O)(=O)N2CCOCC2)c1 (nonaromatic ring conformer: 82.1865796441665 kcal/mol)

>  <smiles>  (24) 
O=C(Nc1cccc(S(=O)(=O)N2CCCCC2)c1)c1cccc(S(=O)(=O)N2CCOCC2)c1

>  <score_type>  (24) 
oracle

>  <origin>  (24) 
adgpu

>  <m_score__min__energy>  (24) 
-12.41

>  <m_primary>  (24) 
energy

$$$$
24:0
     RDKit          3D

 36 38  0  0  0  0  0  0  0  0999 V2000
    0.9520   24.9290  -28.6020 H   0  0  0  0  0  0  0  0  0  0  0  0
    0.9920   23.9170  -28.5900 O   0  0  0  0  0  0  0  0  0  0  0  0
   -0.0600   23.1470  -28.0910 C   0  0  0  0  0  0  0  0  0  0  0  0
    0.1960   21.8660  -27.5800 C   0  0  0  0  0  0  0  0  0  0  0  0
    1.2260   21.4803  -27.5623 H   0  0  0  0  0  0  0  0  0  0  0  0
   -0.8480   21.0780  -27.0940 C   0  0  0  0  0  0  0  0  0  0  0  0
   -0.6401   20.0724  -26.6996 H   0  0  0  0  0  0  0  0  0  0  0  0
   -2.1560   21.5650  -27.1080 C   0  0  0  0  0  0  0  0  0  0  0  0
   -2.9781   20.9430  -26.7243 H   0  0  0  0  0  0  0  0  0  0  0  0
   -2.4220   22.8420  -27.6090 C   0  0  0  0  0  0  0  0  0  0  0  0
   -3.4536   23.2239  -27.6088 H   0  0  0  0  0  0  0  0  0  0  0  0
   -1.3810   23.6440  -28.1140 C   0  0  0  0  0  0  0  0  0  0  0  0
   -1.6830   24.9970  -28.6450 C   0  0  0  0  0  0  0  0  0  0  0  0
   -0.9020   25.9510  -28.3910 O   0  0  0  0  0  0  0  0  0  0  0  0
   -2.8900   25.2740  -29.3710 N   0  0  0  0  0  0  0  0  0  0  0  0
   -3.5020   24.4550  -30.1750 C   0  0  0  0  0  0  0  0  0  0  0  0
   -4.6730   24.7690  -30.7680 N   0  0  0  0  0  0  0  0  0  0  0  0
   -5.1330   23.8030  -31.5610 N   0  0  0  0  0  0  0  0  0  0  0  0
   -4.3250   22.7210  -31.6080 C   0  0  0  0  0  0  0  0  0  0  0  0
   -4.6790   21.2840  -32.5570 S   0  0  0  0  0  0  0  0  0  0  0  0
   -3.8980   21.3510  -33.8390 O   0  0  0  0  0  0  0  0  0  0  0  0
   -4.2290   20.0730  -31.7900 O   0  0  0  0  0  0  0  0  0  0  0  0
   -6.3790   21.1320  -32.9300 N   0  0  0  0  0  0  0  0  0  0  0  0
   -7.2210   21.6690  -31.8620 C   0  0  0  0  0  0  0  0  0  0  0  0
   -6.7576   21.4822  -30.8820 H   0  0  0  0  0  0  0  0  0  0  0  0
   -7.3502   22.7565  -31.9649 H   0  0  0  0  0  0  0  0  0  0  0  0
   -8.5520   20.9450  -31.9600 C   0  0  0  0  0  0  0  0  0  0  0  0
   -8.9424   20.7195  -30.9566 H   0  0  0  0  0  0  0  0  0  0  0  0
   -9.3131   21.5547  -32.4690 H   0  0  0  0  0  0  0  0  0  0  0  0
   -8.2570   19.6590  -32.7180 C   0  0  0  0  0  0  0  0  0  0  0  0
   -8.4509   18.7837  -32.0806 H   0  0  0  0  0  0  0  0  0  0  0  0
   -8.8946   19.5540  -33.6082 H   0  0  0  0  0  0  0  0  0  0  0  0
   -6.7810   19.7340  -33.0850 C   0  0  0  0  0  0  0  0  0  0  0  0
   -6.1905   19.0932  -32.4136 H   0  0  0  0  0  0  0  0  0  0  0  0
   -6.6114   19.3857  -34.1145 H   0  0  0  0  0  0  0  0  0  0  0  0
   -2.9550   22.9270  -30.6530 S   0  0  0  0  0  0  0  0  0  0  0  0
  1  2  1  0
  2  3  1  0
  3  4  2  0
  4  5  1  0
  4  6  1  0
  6  7  1  0
  6  8  2  0
  8  9  1  0
  8 10  1  0
 10 11  1  0
 10 12  2  0
 12 13  1  0
 13 14  2  0
 13 15  1  0
 15 16  2  0
 16 17  1  0
 17 18  1  0
 18 19  2  0
 19 20  1  0
 20 21  2  0
 20 22  2  0
 20 23  1  0
 23 24  1  0
 24 25  1  0
 24 26  1  0
 24 27  1  0
 27 28  1  0
 27 29  1  0
 27 30  1  0
 30 31  1  0
 30 32  1  0
 30 33  1  0
 33 34  1  0
 33 35  1  0
 19 36  1  0
 12  3  1  0
 36 16  1  0
 33 23  1  0
M  CHG  1  17  -1
M  END
>  <UniqueID>  (25) 
23

>  <SMILES>  (25) 
O=C(/N=c1/[n-]nc(S(=O)(=O)N2CCCC2)s1)c1ccccc1O

>  <Energy>  (25) 
81.3392571402976

>  <Genealogy>  (25) 
O=C(N=c1[n-]nc(S(=O)(=O)N2CCCC2)s1)c1ccccc1O (protonated)
O=C(/N=c1/[n-]nc(S(=O)(=O)N2CCCC2)s1)c1ccccc1O (cis-trans isomerization)
O=C(/N=c1/[n-]nc(S(=O)(=O)N2CCCC2)s1)c1ccccc1O (3D coordinates assigned)
O=C(/N=c1/[n-]nc(S(=O)(=O)N2CCCC2)s1)c1ccccc1O (nonaromatic ring conformer: 81.3392571402976 kcal/mol)

>  <smiles>  (25) 
O=C(N=c1[nH]nc(S(=O)(=O)N2CCCC2)s1)c1ccccc1O

>  <score_type>  (25) 
oracle

>  <origin>  (25) 
adgpu

>  <m_score__min__energy>  (25) 
-10.279999999999999

>  <m_primary>  (25) 
energy

$$$$
25:0
     RDKit          3D

 69 72  0  0  0  0  0  0  0  0999 V2000
   -2.0660   23.7810  -29.6940 C   0  0  0  0  0  0  0  0  0  0  0  0
   -3.4670   24.1460  -30.0580 C   0  0  0  0  0  0  0  0  0  0  0  0
   -4.5910   23.3740  -29.8550 C   0  0  0  0  0  0  0  0  0  0  0  0
   -5.6040   24.1470  -30.3830 C   0  0  0  0  0  0  0  0  0  0  0  0
   -7.0620   23.8030  -30.3870 C   0  0  0  0  0  0  0  0  0  0  0  0
   -7.5840   23.7810  -31.7720 N   0  0  0  0  0  0  0  0  0  0  0  0
   -6.5150   23.4010  -32.7150 C   0  0  0  0  0  0  0  0  0  0  0  0
   -8.7210   22.8420  -31.8950 C   0  0  0  0  0  0  0  0  0  0  0  0
   -8.5640   21.6690  -30.9110 C   0  0  0  0  0  0  0  0  0  0  0  0
   -8.1440   20.3840  -31.6300 C   0  0  0  0  0  0  0  0  0  0  0  0
   -6.6980   20.2050  -31.5290 N   0  0  0  0  0  0  0  0  0  0  0  0
   -5.7910   20.2580  -32.6350 C   0  0  0  0  0  0  0  0  0  0  0  0
   -6.2400   20.0520  -33.7930 O   0  0  0  0  0  0  0  0  0  0  0  0
   -4.3600   20.5850  -32.4640 C   0  0  0  0  0  0  0  0  0  0  0  0
   -3.6560   21.2640  -33.4730 C   0  0  0  0  0  0  0  0  0  0  0  0
   -2.2970   21.5450  -33.3170 C   0  0  0  0  0  0  0  0  0  0  0  0
   -1.6140   21.1310  -32.1700 C   0  0  0  0  0  0  0  0  0  0  0  0
   -0.2690   21.4740  -32.0300 O   0  0  0  0  0  0  0  0  0  0  0  0
   -2.2990   20.3960  -31.1780 C   0  0  0  0  0  0  0  0  0  0  0  0
   -1.6460   19.9120  -30.0380 O   0  0  0  0  0  0  0  0  0  0  0  0
   -1.3070   20.6990  -28.9250 C   0  0  0  0  0  0  0  0  0  0  0  0
   -0.0630   21.3480  -28.8170 C   0  0  0  0  0  0  0  0  0  0  0  0
    0.2320   22.1250  -27.6920 C   0  0  0  0  0  0  0  0  0  0  0  0
   -0.7070   22.2590  -26.6610 C   0  0  0  0  0  0  0  0  0  0  0  0
   -0.3430   23.2340  -25.2390 S   0  0  0  0  0  0  0  0  0  0  0  0
    1.0770   23.7170  -25.3480 O   0  0  0  0  0  0  0  0  0  0  0  0
   -0.4690   22.3910  -23.9990 O   0  0  0  0  0  0  0  0  0  0  0  0
   -1.4420   24.6000  -25.1740 N   0  0  0  0  0  0  0  0  0  0  0  0
   -0.8420   25.7620  -24.4780 C   0  0  0  0  0  0  0  0  0  0  0  0
   -0.2900   26.8190  -25.4510 C   0  0  0  0  0  0  0  0  0  0  0  0
    0.1920   26.2000  -26.6220 O   0  0  0  0  0  0  0  0  0  0  0  0
   -0.8840   25.6690  -27.3750 C   0  0  0  0  0  0  0  0  0  0  0  0
   -1.9500   24.9500  -26.5110 C   0  0  0  0  0  0  0  0  0  0  0  0
   -1.9380   21.5980  -26.7590 C   0  0  0  0  0  0  0  0  0  0  0  0
   -2.2350   20.8220  -27.8840 C   0  0  0  0  0  0  0  0  0  0  0  0
   -3.6680   20.1460  -31.3250 C   0  0  0  0  0  0  0  0  0  0  0  0
   -5.0990   25.3000  -30.8650 N   0  0  0  0  0  0  0  0  0  0  0  0
   -3.8130   25.2610  -30.6560 O   0  0  0  0  0  0  0  0  0  0  0  0
   -1.9666   23.7551  -28.5988 H   0  0  0  0  0  0  0  0  0  0  0  0
   -1.8260   22.7903  -30.1075 H   0  0  0  0  0  0  0  0  0  0  0  0
   -1.3731   24.5286  -30.1075 H   0  0  0  0  0  0  0  0  0  0  0  0
   -4.6626   22.3818  -29.3856 H   0  0  0  0  0  0  0  0  0  0  0  0
   -7.2016   22.8116  -29.9314 H   0  0  0  0  0  0  0  0  0  0  0  0
   -7.6094   24.5642  -29.8118 H   0  0  0  0  0  0  0  0  0  0  0  0
   -5.6247   23.0845  -32.1518 H   0  0  0  0  0  0  0  0  0  0  0  0
   -6.8624   22.5713  -33.3482 H   0  0  0  0  0  0  0  0  0  0  0  0
   -6.2608   24.2638  -33.3482 H   0  0  0  0  0  0  0  0  0  0  0  0
   -9.6567   23.3764  -31.6740 H   0  0  0  0  0  0  0  0  0  0  0  0
   -8.7429   22.4442  -32.9203 H   0  0  0  0  0  0  0  0  0  0  0  0
   -7.7976   21.9281  -30.1657 H   0  0  0  0  0  0  0  0  0  0  0  0
   -9.5364   21.4917  -30.4283 H   0  0  0  0  0  0  0  0  0  0  0  0
   -8.6507   19.5248  -31.1663 H   0  0  0  0  0  0  0  0  0  0  0  0
   -8.4258   20.4552  -32.6909 H   0  0  0  0  0  0  0  0  0  0  0  0
   -4.1778   21.5756  -34.3899 H   0  0  0  0  0  0  0  0  0  0  0  0
   -1.7600   22.0964  -34.1028 H   0  0  0  0  0  0  0  0  0  0  0  0
    0.3230   21.0760  -31.3120 H   0  0  0  0  0  0  0  0  0  0  0  0
    0.6806   21.2438  -29.6208 H   0  0  0  0  0  0  0  0  0  0  0  0
    1.2049   22.6327  -27.6165 H   0  0  0  0  0  0  0  0  0  0  0  0
   -1.6127   26.2315  -23.8490 H   0  0  0  0  0  0  0  0  0  0  0  0
    0.0021   25.3900  -23.8788 H   0  0  0  0  0  0  0  0  0  0  0  0
   -1.0928   27.5227  -25.7163 H   0  0  0  0  0  0  0  0  0  0  0  0
    0.5365   27.3574  -24.9641 H   0  0  0  0  0  0  0  0  0  0  0  0
   -1.3721   26.4944  -27.9139 H   0  0  0  0  0  0  0  0  0  0  0  0
   -0.4605   24.9169  -28.0569 H   0  0  0  0  0  0  0  0  0  0  0  0
   -2.8193   25.6142  -26.3965 H   0  0  0  0  0  0  0  0  0  0  0  0
   -2.2234   24.0153  -27.0225 H   0  0  0  0  0  0  0  0  0  0  0  0
   -2.6747   21.6897  -25.9473 H   0  0  0  0  0  0  0  0  0  0  0  0
   -3.2037   20.3051  -27.9513 H   0  0  0  0  0  0  0  0  0  0  0  0
   -4.2081   19.5988  -30.5383 H   0  0  0  0  0  0  0  0  0  0  0  0
  1  2  1  0
  2  3  2  0
  3  4  1  0
  4  5  1  0
  5  6  1  0
  6  7  1  0
  6  8  1  0
  8  9  1  0
  9 10  1  0
 10 11  1  0
 11 12  1  0
 12 13  2  0
 12 14  1  0
 14 15  2  0
 15 16  1  0
 16 17  2  0
 17 18  1  0
 17 19  1  0
 19 20  1  0
 20 21  1  0
 21 22  2  0
 22 23  1  0
 23 24  2  0
 24 25  1  0
 25 26  2  0
 25 27  2  0
 25 28  1  0
 28 29  1  0
 29 30  1  0
 30 31  1  0
 31 32  1  0
 32 33  1  0
 24 34  1  0
 34 35  2  0
 19 36  2  0
  4 37  2  0
 37 38  1  0
 38  2  1  0
 36 14  1  0
 35 21  1  0
 33 28  1  0
  1 39  1  0
  1 40  1  0
  1 41  1  0
  3 42  1  0
  5 43  1  0
  5 44  1  0
  7 45  1  0
  7 46  1  0
  7 47  1  0
  8 48  1  0
  8 49  1  0
  9 50  1  0
  9 51  1  0
 10 52  1  0
 10 53  1  0
 15 54  1  0
 16 55  1  0
 18 56  1  0
 22 57  1  0
 23 58  1  0
 29 59  1  0
 29 60  1  0
 30 61  1  0
 30 62  1  0
 32 63  1  0
 32 64  1  0
 33 65  1  0
 33 66  1  0
 34 67  1  0
 35 68  1  0
 36 69  1  0
M  CHG  1  11  -1
M  END
>  <UniqueID>  (26) 
24

>  <SMILES>  (26) 
Cc1cc(CN(C)CCC[N-]C(=O)c2ccc(O)c(Oc3ccc(S(=O)(=O)N4CCOCC4)cc3)c2)no1

>  <Energy>  (26) 
122.27919565868872

>  <Genealogy>  (26) 
Cc1cc(CN(C)CCC[N-]C(=O)c2ccc(O)c(Oc3ccc(S(=O)(=O)N4CCOCC4)cc3)c2)no1 (protonated)
Cc1cc(CN(C)CCC[N-]C(=O)c2ccc(O)c(Oc3ccc(S(=O)(=O)N4CCOCC4)cc3)c2)no1 (3D coordinates assigned)
Cc1cc(CN(C)CCC[N-]C(=O)c2ccc(O)c(Oc3ccc(S(=O)(=O)N4CCOCC4)cc3)c2)no1 (nonaromatic ring conformer: 122.27919565868872 kcal/mol)

>  <smiles>  (26) 
Cc1cc(CN(C)CCCNC(=O)c2ccc(O)c(Oc3ccc(S(=O)(=O)N4CCOCC4)cc3)c2)no1

>  <score_type>  (26) 
oracle

>  <origin>  (26) 
adgpu

>  <m_score__min__energy>  (26) 
-11.300000000000001

>  <m_primary>  (26) 
energy

$$$$
26:0
     RDKit          3D

 40 42  0  0  0  0  0  0  0  0999 V2000
   -6.7580   17.5600  -33.1440 C   0  0  0  0  0  0  0  0  0  0  0  0
   -6.6730   19.0060  -33.5180 C   0  0  0  0  0  0  0  0  0  0  0  0
   -6.1080   19.3180  -34.6010 O   0  0  0  0  0  0  0  0  0  0  0  0
   -7.1770   20.0450  -32.6630 N   0  0  0  0  0  0  0  0  0  0  0  0
   -8.5940   20.1800  -32.3240 C   0  0  0  0  0  0  0  0  0  0  0  0
   -8.7400   21.5410  -31.6050 C   0  0  0  0  0  0  0  0  0  0  0  0
   -7.3390   22.0380  -31.5230 C   0  0  0  0  0  0  0  0  0  0  0  0
   -6.8840   23.1960  -30.8920 C   0  0  0  0  0  0  0  0  0  0  0  0
   -5.5000   23.4530  -30.8750 C   0  0  0  0  0  0  0  0  0  0  0  0
   -4.8810   24.9110  -30.1070 S   0  0  0  0  0  0  0  0  0  0  0  0
   -5.3790   24.9650  -28.6920 O   0  0  0  0  0  0  0  0  0  0  0  0
   -5.3480   26.1370  -30.8400 O   0  0  0  0  0  0  0  0  0  0  0  0
   -3.1470   24.8830  -30.0970 N   0  0  0  0  0  0  0  0  0  0  0  0
   -2.3230   24.7420  -28.9290 C   0  0  0  0  0  0  0  0  0  0  0  0
   -1.3530   25.7070  -28.5920 C   0  0  0  0  0  0  0  0  0  0  0  0
   -0.5580   25.5440  -27.4560 C   0  0  0  0  0  0  0  0  0  0  0  0
   -0.7200   24.4220  -26.6430 C   0  0  0  0  0  0  0  0  0  0  0  0
   -1.6790   23.4590  -26.9620 C   0  0  0  0  0  0  0  0  0  0  0  0
   -2.4870   23.6100  -28.1020 C   0  0  0  0  0  0  0  0  0  0  0  0
   -3.5110   22.5610  -28.4390 C   0  0  0  0  0  0  0  0  0  0  0  0
   -4.6090   22.5320  -31.4600 C   0  0  0  0  0  0  0  0  0  0  0  0
   -5.0940   21.3710  -32.0830 C   0  0  0  0  0  0  0  0  0  0  0  0
   -6.4770   21.1640  -32.1290 C   0  0  0  0  0  0  0  0  0  0  0  0
   -6.7636   17.4644  -32.0482 H   0  0  0  0  0  0  0  0  0  0  0  0
   -7.6830   17.1289  -33.5544 H   0  0  0  0  0  0  0  0  0  0  0  0
   -5.8898   17.0235  -33.5544 H   0  0  0  0  0  0  0  0  0  0  0  0
   -9.2073   20.1638  -33.2370 H   0  0  0  0  0  0  0  0  0  0  0  0
   -8.9330   19.3515  -31.6847 H   0  0  0  0  0  0  0  0  0  0  0  0
   -9.3687   22.2295  -32.1888 H   0  0  0  0  0  0  0  0  0  0  0  0
   -9.2252   21.4579  -30.6213 H   0  0  0  0  0  0  0  0  0  0  0  0
   -7.5910   23.8929  -30.4182 H   0  0  0  0  0  0  0  0  0  0  0  0
   -1.2213   26.5946  -29.2282 H   0  0  0  0  0  0  0  0  0  0  0  0
    0.1976   26.3018  -27.2015 H   0  0  0  0  0  0  0  0  0  0  0  0
   -0.0912   24.2959  -25.7493 H   0  0  0  0  0  0  0  0  0  0  0  0
   -1.8030   22.5765  -26.3171 H   0  0  0  0  0  0  0  0  0  0  0  0
   -3.9229   22.1390  -27.5104 H   0  0  0  0  0  0  0  0  0  0  0  0
   -4.3222   23.0158  -29.0265 H   0  0  0  0  0  0  0  0  0  0  0  0
   -3.0368   21.7610  -29.0265 H   0  0  0  0  0  0  0  0  0  0  0  0
   -3.5263   22.7236  -31.4285 H   0  0  0  0  0  0  0  0  0  0  0  0
   -4.4015   20.6398  -32.5255 H   0  0  0  0  0  0  0  0  0  0  0  0
  1  2  1  0
  2  3  2  0
  2  4  1  0
  4  5  1  0
  5  6  1  0
  6  7  1  0
  7  8  2  0
  8  9  1  0
  9 10  1  0
 10 11  2  0
 10 12  2  0
 10 13  1  0
 13 14  1  0
 14 15  2  0
 15 16  1  0
 16 17  2  0
 17 18  1  0
 18 19  2  0
 19 20  1  0
  9 21  2  0
 21 22  1  0
 22 23  2  0
 23  4  1  0
 23  7  1  0
 19 14  1  0
  1 24  1  0
  1 25  1  0
  1 26  1  0
  5 27  1  0
  5 28  1  0
  6 29  1  0
  6 30  1  0
  8 31  1  0
 15 32  1  0
 16 33  1  0
 17 34  1  0
 18 35  1  0
 20 36  1  0
 20 37  1  0
 20 38  1  0
 21 39  1  0
 22 40  1  0
M  CHG  1  13  -1
M  END
>  <UniqueID>  (27) 
25

>  <SMILES>  (27) 
CC(=O)N1CCc2cc(S(=O)(=O)[N-]c3ccccc3C)ccc21

>  <Energy>  (27) 
61.35042523121575

>  <Genealogy>  (27) 
CC(=O)N1CCc2cc(S(=O)(=O)[N-]c3ccccc3C)ccc21 (protonated)
CC(=O)N1CCc2cc(S(=O)(=O)[N-]c3ccccc3C)ccc21 (3D coordinates assigned)
CC(=O)N1CCc2cc(S(=O)(=O)[N-]c3ccccc3C)ccc21 (nonaromatic ring conformer: 61.35042523121575 kcal/mol)

>  <smiles>  (27) 
CC(=O)N1CCc2cc(S(=O)(=O)Nc3ccccc3C)ccc21

>  <score_type>  (27) 
oracle

>  <origin>  (27) 
adgpu

>  <m_score__min__energy>  (27) 
-10.15

>  <m_primary>  (27) 
energy

$$$$
27:0
     RDKit          3D

 75 79  0  0  0  0  0  0  0  0999 V2000
   -5.8830   25.6600  -30.8740 O   0  0  0  0  0  0  0  0  0  0  0  0
   -5.0340   24.7730  -31.1430 C   0  0  0  0  0  0  0  0  0  0  0  0
   -3.7690   24.7930  -30.4680 N   0  0  0  0  0  0  0  0  0  0  0  0
   -3.2670   23.7640  -29.6050 C   0  0  0  0  0  0  0  0  0  0  0  0
   -4.1280   22.9730  -28.8260 C   0  0  0  0  0  0  0  0  0  0  0  0
   -3.6150   21.9440  -28.0350 C   0  0  0  0  0  0  0  0  0  0  0  0
   -2.2340   21.7120  -27.9900 C   0  0  0  0  0  0  0  0  0  0  0  0
   -1.5880   20.3990  -27.0060 S   0  0  0  0  0  0  0  0  0  0  0  0
   -0.9340   20.9740  -25.7800 O   0  0  0  0  0  0  0  0  0  0  0  0
   -2.7200   19.5160  -26.5560 O   0  0  0  0  0  0  0  0  0  0  0  0
   -0.4330   19.4390  -27.8950 N   0  0  0  0  0  0  0  0  0  0  0  0
   -0.3350   18.0900  -27.3130 C   0  0  0  0  0  0  0  0  0  0  0  0
    0.5870   17.2190  -28.1730 C   0  0  0  0  0  0  0  0  0  0  0  0
    1.9720   17.8610  -28.3000 C   0  0  0  0  0  0  0  0  0  0  0  0
    1.8660   19.3190  -28.7650 C   0  0  0  0  0  0  0  0  0  0  0  0
    0.8850   20.0990  -27.8840 C   0  0  0  0  0  0  0  0  0  0  0  0
   -1.3700   22.5250  -28.7360 C   0  0  0  0  0  0  0  0  0  0  0  0
   -1.8850   23.5490  -29.5340 C   0  0  0  0  0  0  0  0  0  0  0  0
   -5.3630   23.7700  -32.1160 N   0  0  0  0  0  0  0  0  0  0  0  0
   -4.7790   22.4630  -32.2290 C   0  0  0  0  0  0  0  0  0  0  0  0
   -3.3850   22.3690  -32.3990 C   0  0  0  0  0  0  0  0  0  0  0  0
   -2.7470   21.1330  -32.4890 C   0  0  0  0  0  0  0  0  0  0  0  0
   -0.9890   21.0460  -32.6230 S   0  0  0  0  0  0  0  0  0  0  0  0
   -0.3670   21.6600  -31.4000 O   0  0  0  0  0  0  0  0  0  0  0  0
   -0.5450   21.8450  -33.8170 O   0  0  0  0  0  0  0  0  0  0  0  0
   -0.4340   19.3960  -32.7840 N   0  0  0  0  0  0  0  0  0  0  0  0
   -0.5040   18.7020  -31.4790 C   0  0  0  0  0  0  0  0  0  0  0  0
    0.3390   17.4220  -31.4830 C   0  0  0  0  0  0  0  0  0  0  0  0
    1.8270   17.7400  -31.7140 C   0  0  0  0  0  0  0  0  0  0  0  0
    2.0430   19.0580  -32.4780 C   0  0  0  0  0  0  0  0  0  0  0  0
    0.8890   19.3280  -33.4550 C   0  0  0  0  0  0  0  0  0  0  0  0
   -3.5090   19.9720  -32.4600 C   0  0  0  0  0  0  0  0  0  0  0  0
   -4.8920   20.0360  -32.3170 C   0  0  0  0  0  0  0  0  0  0  0  0
   -5.5770   21.2730  -32.1900 C   0  0  0  0  0  0  0  0  0  0  0  0
   -7.0360   21.2770  -31.9940 N   0  0  0  0  0  0  0  0  0  0  0  0
   -7.8400   20.2270  -32.6580 C   0  0  0  0  0  0  0  0  0  0  0  0
   -9.3190   20.2800  -32.3000 C   0  0  0  0  0  0  0  0  0  0  0  0
   -9.7700   21.6110  -32.3420 O   0  0  0  0  0  0  0  0  0  0  0  0
   -9.2470   22.2860  -31.2240 C   0  0  0  0  0  0  0  0  0  0  0  0
   -7.7090   22.3710  -31.2530 C   0  0  0  0  0  0  0  0  0  0  0  0
   -5.2109   23.1655  -28.8396 H   0  0  0  0  0  0  0  0  0  0  0  0
   -4.2967   21.3134  -27.4453 H   0  0  0  0  0  0  0  0  0  0  0  0
    0.0747   18.1606  -26.2946 H   0  0  0  0  0  0  0  0  0  0  0  0
   -1.3362   17.6356  -27.2792 H   0  0  0  0  0  0  0  0  0  0  0  0
    0.6892   16.2289  -27.7047 H   0  0  0  0  0  0  0  0  0  0  0  0
    0.1480   17.1219  -29.1769 H   0  0  0  0  0  0  0  0  0  0  0  0
    2.4723   17.8320  -27.3208 H   0  0  0  0  0  0  0  0  0  0  0  0
    2.5503   17.2978  -29.0473 H   0  0  0  0  0  0  0  0  0  0  0  0
    2.8582   19.7901  -28.7050 H   0  0  0  0  0  0  0  0  0  0  0  0
    1.4984   19.3335  -29.8017 H   0  0  0  0  0  0  0  0  0  0  0  0
    1.2676   20.1324  -26.8532 H   0  0  0  0  0  0  0  0  0  0  0  0
    0.7812   21.1218  -28.2753 H   0  0  0  0  0  0  0  0  0  0  0  0
   -0.2839   22.3563  -28.6929 H   0  0  0  0  0  0  0  0  0  0  0  0
   -1.2014   24.1901  -30.1099 H   0  0  0  0  0  0  0  0  0  0  0  0
   -2.7867   23.2899  -32.4621 H   0  0  0  0  0  0  0  0  0  0  0  0
   -0.1290   19.3756  -30.6944 H   0  0  0  0  0  0  0  0  0  0  0  0
   -1.5518   18.4270  -31.2878 H   0  0  0  0  0  0  0  0  0  0  0  0
    0.2263   16.9144  -30.5136 H   0  0  0  0  0  0  0  0  0  0  0  0
   -0.0114   16.7752  -32.3008 H   0  0  0  0  0  0  0  0  0  0  0  0
    2.3264   17.8143  -30.7367 H   0  0  0  0  0  0  0  0  0  0  0  0
    2.2479   16.9291  -32.3266 H   0  0  0  0  0  0  0  0  0  0  0  0
    2.1032   19.8857  -31.7560 H   0  0  0  0  0  0  0  0  0  0  0  0
    2.9765   18.9781  -33.0544 H   0  0  0  0  0  0  0  0  0  0  0  0
    1.0751   20.2866  -33.9614 H   0  0  0  0  0  0  0  0  0  0  0  0
    0.8555   18.4888  -34.1654 H   0  0  0  0  0  0  0  0  0  0  0  0
   -3.0151   18.9933  -32.5509 H   0  0  0  0  0  0  0  0  0  0  0  0
   -5.4711   19.1009  -32.3020 H   0  0  0  0  0  0  0  0  0  0  0  0
   -7.7404   20.3480  -33.7468 H   0  0  0  0  0  0  0  0  0  0  0  0
   -7.4566   19.2563  -32.3104 H   0  0  0  0  0  0  0  0  0  0  0  0
   -9.8913   19.6772  -33.0205 H   0  0  0  0  0  0  0  0  0  0  0  0
   -9.4626   19.8789  -31.2859 H   0  0  0  0  0  0  0  0  0  0  0  0
   -9.6565   23.3068  -31.2047 H   0  0  0  0  0  0  0  0  0  0  0  0
   -9.5337   21.7185  -30.3264 H   0  0  0  0  0  0  0  0  0  0  0  0
   -7.4285   23.3250  -31.7234 H   0  0  0  0  0  0  0  0  0  0  0  0
   -7.3761   22.2855  -30.2081 H   0  0  0  0  0  0  0  0  0  0  0  0
  1  2  2  0
  2  3  1  0
  3  4  1  0
  4  5  2  0
  5  6  1  0
  6  7  2  0
  7  8  1  0
  8  9  2  0
  8 10  2  0
  8 11  1  0
 11 12  1  0
 12 13  1  0
 13 14  1  0
 14 15  1  0
 15 16  1  0
  7 17  1  0
 17 18  2  0
  2 19  1  0
 19 20  1  0
 20 21  2  0
 21 22  1  0
 22 23  1  0
 23 24  2  0
 23 25  2  0
 23 26  1  0
 26 27  1  0
 27 28  1  0
 28 29  1  0
 29 30  1  0
 30 31  1  0
 22 32  2  0
 32 33  1  0
 33 34  2  0
 34 35  1  0
 35 36  1  0
 36 37  1  0
 37 38  1  0
 38 39  1  0
 39 40  1  0
 18  4  1  0
 34 20  1  0
 40 35  1  0
 16 11  1  0
 31 26  1  0
  5 41  1  0
  6 42  1  0
 12 43  1  0
 12 44  1  0
 13 45  1  0
 13 46  1  0
 14 47  1  0
 14 48  1  0
 15 49  1  0
 15 50  1  0
 16 51  1  0
 16 52  1  0
 17 53  1  0
 18 54  1  0
 21 55  1  0
 27 56  1  0
 27 57  1  0
 28 58  1  0
 28 59  1  0
 29 60  1  0
 29 61  1  0
 30 62  1  0
 30 63  1  0
 31 64  1  0
 31 65  1  0
 32 66  1  0
 33 67  1  0
 36 68  1  0
 36 69  1  0
 37 70  1  0
 37 71  1  0
 39 72  1  0
 39 73  1  0
 40 74  1  0
 40 75  1  0
M  CHG  2   3  -1  19  -1
M  END
>  <UniqueID>  (28) 
26

>  <SMILES>  (28) 
O=C([N-]c1ccc(S(=O)(=O)N2CCCCC2)cc1)[N-]c1cc(S(=O)(=O)N2CCCCC2)ccc1N1CCOCC1

>  <Energy>  (28) 
92.01167968103972

>  <Genealogy>  (28) 
O=C([N-]c1ccc(S(=O)(=O)N2CCCCC2)cc1)[N-]c1cc(S(=O)(=O)N2CCCCC2)ccc1N1CCOCC1 (protonated)
O=C([N-]c1ccc(S(=O)(=O)N2CCCCC2)cc1)[N-]c1cc(S(=O)(=O)N2CCCCC2)ccc1N1CCOCC1 (3D coordinates assigned)
O=C([N-]c1ccc(S(=O)(=O)N2CCCCC2)cc1)[N-]c1cc(S(=O)(=O)N2CCCCC2)ccc1N1CCOCC1 (nonaromatic ring conformer: 92.01167968103972 kcal/mol)

>  <smiles>  (28) 
O=C(Nc1ccc(S(=O)(=O)N2CCCCC2)cc1)Nc1cc(S(=O)(=O)N2CCCCC2)ccc1N1CCOCC1

>  <score_type>  (28) 
oracle

>  <origin>  (28) 
adgpu

>  <m_score__min__energy>  (28) 
-13.859999999999999

>  <m_primary>  (28) 
energy

$$$$
28:0
     RDKit          3D

 39 41  0  0  0  0  0  0  0  0999 V2000
   -3.6970   20.8290  -32.9160 H   0  0  0  0  0  0  0  0  0  0  0  0
   -4.6550   20.4360  -33.0270 N   0  0  0  0  0  0  0  0  0  0  0  0
   -5.7510   20.9440  -32.5470 C   0  0  0  0  0  0  0  0  0  0  0  0
   -6.9500   20.2750  -32.8220 C   0  0  0  0  0  0  0  0  0  0  0  0
   -6.9360   19.3445  -33.4085 H   0  0  0  0  0  0  0  0  0  0  0  0
   -8.1650   20.7850  -32.3540 C   0  0  0  0  0  0  0  0  0  0  0  0
   -9.4480   20.0820  -32.6630 C   0  0  0  0  0  0  0  0  0  0  0  0
   -9.9506   19.8066  -31.7241 H   0  0  0  0  0  0  0  0  0  0  0  0
  -10.1002   20.7488  -33.2461 H   0  0  0  0  0  0  0  0  0  0  0  0
   -9.2371   19.1734  -33.2461 H   0  0  0  0  0  0  0  0  0  0  0  0
   -8.1820   21.9390  -31.6410 N   0  0  0  0  0  0  0  0  0  0  0  0
   -7.0460   22.6250  -31.3460 C   0  0  0  0  0  0  0  0  0  0  0  0
   -7.1370   23.8080  -30.6070 C   0  0  0  0  0  0  0  0  0  0  0  0
   -8.1187   24.1626  -30.2600 H   0  0  0  0  0  0  0  0  0  0  0  0
   -5.9900   24.5400  -30.3080 C   0  0  0  0  0  0  0  0  0  0  0  0
   -6.0715   25.4694  -29.7252 H   0  0  0  0  0  0  0  0  0  0  0  0
   -4.7380   24.1020  -30.7430 C   0  0  0  0  0  0  0  0  0  0  0  0
   -3.5830   24.9050  -30.4470 N   0  0  0  0  0  0  0  0  0  0  0  0
   -2.5050   24.5590  -29.5630 C   0  0  0  0  0  0  0  0  0  0  0  0
   -1.9040   25.4840  -28.9570 O   0  0  0  0  0  0  0  0  0  0  0  0
   -2.0570   23.1580  -29.3720 C   0  0  0  0  0  0  0  0  0  0  0  0
   -1.3950   22.4830  -30.4080 C   0  0  0  0  0  0  0  0  0  0  0  0
   -1.2514   22.9715  -31.3831 H   0  0  0  0  0  0  0  0  0  0  0  0
   -0.9190   21.1870  -30.1950 C   0  0  0  0  0  0  0  0  0  0  0  0
   -0.3986   20.6531  -31.0038 H   0  0  0  0  0  0  0  0  0  0  0  0
   -1.0980   20.5850  -28.9900 N   0  0  0  0  0  0  0  0  0  0  0  0
   -1.7620   21.1970  -27.9730 C   0  0  0  0  0  0  0  0  0  0  0  0
   -1.8800   20.5140  -26.6420 C   0  0  0  0  0  0  0  0  0  0  0  0
   -0.8768   20.2310  -26.2905 H   0  0  0  0  0  0  0  0  0  0  0  0
   -2.3516   21.2058  -25.9286 H   0  0  0  0  0  0  0  0  0  0  0  0
   -2.7440   19.2600  -26.7570 C   0  0  0  0  0  0  0  0  0  0  0  0
   -2.9957   18.8946  -25.7505 H   0  0  0  0  0  0  0  0  0  0  0  0
   -3.6689   19.5006  -27.3017 H   0  0  0  0  0  0  0  0  0  0  0  0
   -2.1897   18.4815  -27.3017 H   0  0  0  0  0  0  0  0  0  0  0  0
   -2.2690   22.4910  -28.1540 C   0  0  0  0  0  0  0  0  0  0  0  0
   -2.8306   22.9822  -27.3457 H   0  0  0  0  0  0  0  0  0  0  0  0
   -4.6310   22.8850  -31.4410 C   0  0  0  0  0  0  0  0  0  0  0  0
   -3.6380   22.5061  -31.7244 H   0  0  0  0  0  0  0  0  0  0  0  0
   -5.7850   22.1440  -31.7820 C   0  0  0  0  0  0  0  0  0  0  0  0
  1  2  1  0
  2  3  2  0
  3  4  1  0
  4  5  1  0
  4  6  2  0
  6  7  1  0
  7  8  1  0
  7  9  1  0
  7 10  1  0
  6 11  1  0
 11 12  1  0
 12 13  2  0
 13 14  1  0
 13 15  1  0
 15 16  1  0
 15 17  2  0
 17 18  1  0
 18 19  1  0
 19 20  2  0
 19 21  1  0
 21 22  2  0
 22 23  1  0
 22 24  1  0
 24 25  1  0
 24 26  2  0
 26 27  1  0
 27 28  1  0
 28 29  1  0
 28 30  1  0
 28 31  1  0
 31 32  1  0
 31 33  1  0
 31 34  1  0
 27 35  2  0
 35 36  1  0
 17 37  1  0
 37 38  1  0
 37 39  2  0
 39  3  1  0
 39 12  1  0
 35 21  1  0
M  CHG  2  11  -1  18  -1
M  END
>  <UniqueID>  (29) 
27

>  <SMILES>  (29) 
[H]/N=c1/cc(C)[n-]c2ccc([N-]C(=O)c3ccnc(CC)c3)cc12

>  <Energy>  (29) 
50.168181972400326

>  <Genealogy>  (29) 
CCc1cc(C(=O)[N-]c2ccc3[n-]c(C)cc(=N)c3c2)ccn1 (protonated)
[H]/N=c1/cc(C)[n-]c2ccc([N-]C(=O)c3ccnc(CC)c3)cc12 (cis-trans isomerization)
[H]/N=c1/cc(C)[n-]c2ccc([N-]C(=O)c3ccnc(CC)c3)cc12 (3D coordinates assigned)
[H]/N=c1/cc(C)[n-]c2ccc([N-]C(=O)c3ccnc(CC)c3)cc12 (optimized conformer: 50.168181972400326 kcal/mol)

>  <smiles>  (29) 
CCc1cc(C(=O)Nc2ccc3[nH]c(C)cc(=N)c3c2)ccn1

>  <score_type>  (29) 
oracle

>  <origin>  (29) 
adgpu

>  <m_score__min__energy>  (29) 
-10.1

>  <m_primary>  (29) 
energy

$$$$
29:0
     RDKit          3D

 52 54  0  0  0  0  0  0  0  0999 V2000
   -3.0360   24.9340  -26.6730 C   0  0  0  0  0  0  0  0  0  0  0  0
   -1.6260   25.2310  -26.3940 N   0  0  0  0  0  0  0  0  0  0  0  0
   -1.4950   26.5800  -25.8300 C   0  0  0  0  0  0  0  0  0  0  0  0
   -0.6910   25.1090  -27.8650 S   0  0  0  0  0  0  0  0  0  0  0  0
    0.7460   25.4330  -27.5720 O   0  0  0  0  0  0  0  0  0  0  0  0
   -1.1980   26.1130  -28.8640 O   0  0  0  0  0  0  0  0  0  0  0  0
   -0.7910   23.4920  -28.5670 C   0  0  0  0  0  0  0  0  0  0  0  0
   -0.0170   22.4510  -28.0460 C   0  0  0  0  0  0  0  0  0  0  0  0
   -0.0890   21.1760  -28.6060 C   0  0  0  0  0  0  0  0  0  0  0  0
   -0.9360   20.9210  -29.6940 C   0  0  0  0  0  0  0  0  0  0  0  0
   -0.9820   19.6340  -30.2290 O   0  0  0  0  0  0  0  0  0  0  0  0
   -1.7260   21.9650  -30.2350 C   0  0  0  0  0  0  0  0  0  0  0  0
   -2.6390   21.7500  -31.3900 C   0  0  0  0  0  0  0  0  0  0  0  0
   -2.8130   20.5830  -31.8410 O   0  0  0  0  0  0  0  0  0  0  0  0
   -3.3650   22.8410  -31.9700 N   0  0  0  0  0  0  0  0  0  0  0  0
   -4.6020   23.3760  -31.4790 C   0  0  0  0  0  0  0  0  0  0  0  0
   -5.7730   22.6330  -31.6680 C   0  0  0  0  0  0  0  0  0  0  0  0
   -7.0070   23.1130  -31.2070 C   0  0  0  0  0  0  0  0  0  0  0  0
   -8.4820   22.1740  -31.4640 S   0  0  0  0  0  0  0  0  0  0  0  0
   -9.4380   22.9830  -32.2960 O   0  0  0  0  0  0  0  0  0  0  0  0
   -9.1330   21.9110  -30.1350 O   0  0  0  0  0  0  0  0  0  0  0  0
   -8.1860   20.6460  -32.2620 N   0  0  0  0  0  0  0  0  0  0  0  0
   -9.3160   19.7290  -32.1310 C   0  0  0  0  0  0  0  0  0  0  0  0
   -8.7470   18.3270  -32.2750 C   0  0  0  0  0  0  0  0  0  0  0  0
   -7.2610   18.4630  -31.9740 C   0  0  0  0  0  0  0  0  0  0  0  0
   -7.0410   19.9410  -31.6890 C   0  0  0  0  0  0  0  0  0  0  0  0
   -7.0580   24.3320  -30.5160 C   0  0  0  0  0  0  0  0  0  0  0  0
   -5.8880   25.0610  -30.2920 C   0  0  0  0  0  0  0  0  0  0  0  0
   -4.6590   24.5850  -30.7560 C   0  0  0  0  0  0  0  0  0  0  0  0
   -3.5040   25.2990  -30.4620 O   0  0  0  0  0  0  0  0  0  0  0  0
   -1.6390   23.2470  -29.6550 C   0  0  0  0  0  0  0  0  0  0  0  0
   -3.5812   24.8192  -25.7245 H   0  0  0  0  0  0  0  0  0  0  0  0
   -3.4769   25.7590  -27.2518 H   0  0  0  0  0  0  0  0  0  0  0  0
   -3.1067   24.0013  -27.2518 H   0  0  0  0  0  0  0  0  0  0  0  0
   -1.5008   26.5204  -24.7316 H   0  0  0  0  0  0  0  0  0  0  0  0
   -0.5491   27.0284  -26.1679 H   0  0  0  0  0  0  0  0  0  0  0  0
   -2.3370   27.2020  -26.1679 H   0  0  0  0  0  0  0  0  0  0  0  0
    0.6506   22.6381  -27.1920 H   0  0  0  0  0  0  0  0  0  0  0  0
    0.5243   20.3628  -28.1905 H   0  0  0  0  0  0  0  0  0  0  0  0
   -1.5480   19.4120  -31.0400 H   0  0  0  0  0  0  0  0  0  0  0  0
   -5.7246   21.6625  -32.1835 H   0  0  0  0  0  0  0  0  0  0  0  0
   -9.7908   19.8480  -31.1459 H   0  0  0  0  0  0  0  0  0  0  0  0
  -10.0835   19.9291  -32.8932 H   0  0  0  0  0  0  0  0  0  0  0  0
   -9.2241   17.6422  -31.5584 H   0  0  0  0  0  0  0  0  0  0  0  0
   -8.9257   17.9132  -33.2784 H   0  0  0  0  0  0  0  0  0  0  0  0
   -6.9888   17.8571  -31.0972 H   0  0  0  0  0  0  0  0  0  0  0  0
   -6.6399   18.1105  -32.8106 H   0  0  0  0  0  0  0  0  0  0  0  0
   -6.9904   20.1160  -30.6042 H   0  0  0  0  0  0  0  0  0  0  0  0
   -6.0953   20.2951  -32.1252 H   0  0  0  0  0  0  0  0  0  0  0  0
   -8.0218   24.7150  -30.1495 H   0  0  0  0  0  0  0  0  0  0  0  0
   -5.9343   26.0154  -29.7471 H   0  0  0  0  0  0  0  0  0  0  0  0
   -2.2466   24.0681  -30.0632 H   0  0  0  0  0  0  0  0  0  0  0  0
  1  2  1  0
  2  3  1  0
  2  4  1  0
  4  5  2  0
  4  6  2  0
  4  7  1  0
  7  8  2  0
  8  9  1  0
  9 10  2  0
 10 11  1  0
 10 12  1  0
 12 13  1  0
 13 14  2  0
 13 15  1  0
 15 16  1  0
 16 17  2  0
 17 18  1  0
 18 19  1  0
 19 20  2  0
 19 21  2  0
 19 22  1  0
 22 23  1  0
 23 24  1  0
 24 25  1  0
 25 26  1  0
 18 27  2  0
 27 28  1  0
 28 29  2  0
 29 30  1  0
 12 31  2  0
 31  7  1  0
 29 16  1  0
 26 22  1  0
  1 32  1  0
  1 33  1  0
  1 34  1  0
  3 35  1  0
  3 36  1  0
  3 37  1  0
  8 38  1  0
  9 39  1  0
 11 40  1  0
 17 41  1  0
 23 42  1  0
 23 43  1  0
 24 44  1  0
 24 45  1  0
 25 46  1  0
 25 47  1  0
 26 48  1  0
 26 49  1  0
 27 50  1  0
 28 51  1  0
 31 52  1  0
M  CHG  2  15  -1  30  -1
M  END
>  <UniqueID>  (30) 
28

>  <SMILES>  (30) 
CN(C)S(=O)(=O)c1ccc(O)c(C(=O)[N-]c2cc(S(=O)(=O)N3CCCC3)ccc2[O-])c1

>  <Energy>  (30) 
59.64496111953162

>  <Genealogy>  (30) 
CN(C)S(=O)(=O)c1ccc(O)c(C(=O)[N-]c2cc(S(=O)(=O)N3CCCC3)ccc2[O-])c1 (protonated)
CN(C)S(=O)(=O)c1ccc(O)c(C(=O)[N-]c2cc(S(=O)(=O)N3CCCC3)ccc2[O-])c1 (3D coordinates assigned)
CN(C)S(=O)(=O)c1ccc(O)c(C(=O)[N-]c2cc(S(=O)(=O)N3CCCC3)ccc2[O-])c1 (nonaromatic ring conformer: 59.64496111953162 kcal/mol)

>  <smiles>  (30) 
CN(C)S(=O)(=O)c1ccc(O)c(C(=O)Nc2cc(S(=O)(=O)N3CCCC3)ccc2O)c1

>  <score_type>  (30) 
oracle

>  <origin>  (30) 
adgpu

>  <m_score__min__energy>  (30) 
-13.51

>  <m_primary>  (30) 
energy

$$$$
30:0
     RDKit          3D

 53 55  0  0  0  0  0  0  0  0999 V2000
   -0.1170   19.0100  -30.4230 C   0  0  0  0  0  0  0  0  0  0  0  0
   -0.6850   20.3660  -30.1230 C   0  0  0  0  0  0  0  0  0  0  0  0
   -1.5950   20.9630  -31.0090 C   0  0  0  0  0  0  0  0  0  0  0  0
   -2.0970   22.2410  -30.7470 C   0  0  0  0  0  0  0  0  0  0  0  0
   -1.6830   22.9420  -29.6070 C   0  0  0  0  0  0  0  0  0  0  0  0
   -2.3520   24.5360  -29.2690 S   0  0  0  0  0  0  0  0  0  0  0  0
   -1.2420   25.5490  -29.2930 O   0  0  0  0  0  0  0  0  0  0  0  0
   -2.9840   24.5570  -27.9050 O   0  0  0  0  0  0  0  0  0  0  0  0
   -3.5360   24.9610  -30.4690 N   0  0  0  0  0  0  0  0  0  0  0  0
   -4.9030   24.6970  -30.0000 C   0  0  2  0  0  0  0  0  0  0  0  0
   -4.9690   23.3080  -29.3550 C   0  0  0  0  0  0  0  0  0  0  0  0
   -5.8920   24.8350  -31.1740 C   0  0  0  0  0  0  0  0  0  0  0  0
   -6.5580   23.5320  -31.5490 C   0  0  0  0  0  0  0  0  0  0  0  0
   -7.9190   23.3300  -31.2750 C   0  0  0  0  0  0  0  0  0  0  0  0
   -8.5380   22.1310  -31.6310 C   0  0  0  0  0  0  0  0  0  0  0  0
   -7.8080   21.1290  -32.2750 C   0  0  0  0  0  0  0  0  0  0  0  0
   -6.4480   21.3170  -32.5760 C   0  0  0  0  0  0  0  0  0  0  0  0
   -5.6900   20.2440  -33.2700 C   0  0  0  0  0  0  0  0  0  0  0  0
   -4.4520   20.4080  -33.4640 O   0  0  0  0  0  0  0  0  0  0  0  0
   -6.3470   19.0470  -33.7580 N   0  0  0  0  0  0  0  0  0  0  0  0
   -5.4620   18.2490  -34.6140 C   0  0  0  0  0  0  0  0  0  0  0  0
   -5.9310   16.8020  -34.5090 C   0  0  0  0  0  0  0  0  0  0  0  0
   -6.8430   16.7530  -33.2910 C   0  0  0  0  0  0  0  0  0  0  0  0
   -6.7690   18.1420  -32.6800 C   0  0  0  0  0  0  0  0  0  0  0  0
   -5.8270   22.5220  -32.1960 C   0  0  0  0  0  0  0  0  0  0  0  0
   -0.7640   22.3530  -28.7270 C   0  0  0  0  0  0  0  0  0  0  0  0
   -0.2620   21.0750  -28.9880 C   0  0  0  0  0  0  0  0  0  0  0  0
    0.1019   18.4874  -29.4802 H   0  0  0  0  0  0  0  0  0  0  0  0
   -0.8467   18.4273  -31.0044 H   0  0  0  0  0  0  0  0  0  0  0  0
    0.8102   19.1213  -31.0044 H   0  0  0  0  0  0  0  0  0  0  0  0
   -1.9143   20.4234  -31.9128 H   0  0  0  0  0  0  0  0  0  0  0  0
   -2.8200   22.6980  -31.4387 H   0  0  0  0  0  0  0  0  0  0  0  0
   -5.1876   25.4347  -29.2353 H   0  0  0  0  0  0  0  0  0  0  0  0
   -4.9641   23.4116  -28.2599 H   0  0  0  0  0  0  0  0  0  0  0  0
   -5.8923   22.8004  -29.6711 H   0  0  0  0  0  0  0  0  0  0  0  0
   -4.0980   22.7152  -29.6711 H   0  0  0  0  0  0  0  0  0  0  0  0
   -6.6719   25.5572  -30.8908 H   0  0  0  0  0  0  0  0  0  0  0  0
   -5.3154   25.1704  -32.0487 H   0  0  0  0  0  0  0  0  0  0  0  0
   -8.5007   24.1200  -30.7775 H   0  0  0  0  0  0  0  0  0  0  0  0
   -9.6029   21.9746  -31.4041 H   0  0  0  0  0  0  0  0  0  0  0  0
   -8.3017   20.1849  -32.5488 H   0  0  0  0  0  0  0  0  0  0  0  0
   -7.2070   19.3020  -34.2990 H   0  0  0  0  0  0  0  0  0  0  0  0
   -5.5313   18.5944  -35.6561 H   0  0  0  0  0  0  0  0  0  0  0  0
   -4.4135   18.3471  -34.2963 H   0  0  0  0  0  0  0  0  0  0  0  0
   -6.4840   16.5112  -35.4144 H   0  0  0  0  0  0  0  0  0  0  0  0
   -5.0844   16.1065  -34.4111 H   0  0  0  0  0  0  0  0  0  0  0  0
   -7.8749   16.5184  -33.5913 H   0  0  0  0  0  0  0  0  0  0  0  0
   -6.5345   15.9740  -32.5782 H   0  0  0  0  0  0  0  0  0  0  0  0
   -7.7552   18.4417  -32.2958 H   0  0  0  0  0  0  0  0  0  0  0  0
   -6.0634   18.1698  -31.8366 H   0  0  0  0  0  0  0  0  0  0  0  0
   -4.7584   22.6741  -32.4079 H   0  0  0  0  0  0  0  0  0  0  0  0
   -0.4373   22.8980  -27.8291 H   0  0  0  0  0  0  0  0  0  0  0  0
    0.4680   20.6227  -28.3006 H   0  0  0  0  0  0  0  0  0  0  0  0
  1  2  1  0
  2  3  2  0
  3  4  1  0
  4  5  2  0
  5  6  1  0
  6  7  2  0
  6  8  2  0
  6  9  1  0
  9 10  1  0
 10 11  1  0
 10 12  1  0
 12 13  1  0
 13 14  2  0
 14 15  1  0
 15 16  2  0
 16 17  1  0
 17 18  1  0
 18 19  2  0
 18 20  1  0
 20 21  1  0
 21 22  1  0
 22 23  1  0
 23 24  1  0
 17 25  2  0
  5 26  1  0
 26 27  2  0
 27  2  1  0
 25 13  1  0
 24 20  1  0
  1 28  1  0
  1 29  1  0
  1 30  1  0
  3 31  1  0
  4 32  1  0
 10 33  1  1
 11 34  1  0
 11 35  1  0
 11 36  1  0
 12 37  1  0
 12 38  1  0
 14 39  1  0
 15 40  1  0
 16 41  1  0
 20 42  1  0
 21 43  1  0
 21 44  1  0
 22 45  1  0
 22 46  1  0
 23 47  1  0
 23 48  1  0
 24 49  1  0
 24 50  1  0
 25 51  1  0
 26 52  1  0
 27 53  1  0
M  CHG  2   9  -1  20   1
M  END
>  <UniqueID>  (31) 
29

>  <SMILES>  (31) 
Cc1ccc(S(=O)(=O)[N-][C@H](C)Cc2cccc(C(=O)[NH+]3CCCC3)c2)cc1

>  <Energy>  (31) 
56.33034387141835

>  <Genealogy>  (31) 
Cc1ccc(S(=O)(=O)[N-]C(C)Cc2cccc(C(=O)[NH+]3CCCC3)c2)cc1 (protonated)
Cc1ccc(S(=O)(=O)[N-][C@H](C)Cc2cccc(C(=O)[NH+]3CCCC3)c2)cc1 (chirality)
Cc1ccc(S(=O)(=O)[N-][C@H](C)Cc2cccc(C(=O)[NH+]3CCCC3)c2)cc1 (3D coordinates assigned)
Cc1ccc(S(=O)(=O)[N-][C@H](C)Cc2cccc(C(=O)[NH+]3CCCC3)c2)cc1 (nonaromatic ring conformer: 56.33034387141835 kcal/mol)

>  <smiles>  (31) 
Cc1ccc(S(=O)(=O)NC(C)Cc2cccc(C(=O)N3CCCC3)c2)cc1

>  <score_type>  (31) 
oracle

>  <origin>  (31) 
adgpu

>  <m_score__min__energy>  (31) 
-11.550000000000001

>  <m_primary>  (31) 
energy

$$$$
31:0
     RDKit          3D

 48 50  0  0  0  0  0  0  0  0999 V2000
   -2.7260   24.4620  -28.7440 C   0  0  0  0  0  0  0  0  0  0  0  0
   -4.1750   24.3870  -28.5070 N   0  0  0  0  0  0  0  0  0  0  0  0
   -4.5460   23.0630  -27.9880 C   0  0  0  0  0  0  0  0  0  0  0  0
   -5.0480   24.7290  -29.9800 S   0  0  0  0  0  0  0  0  0  0  0  0
   -4.2450   25.6690  -30.8350 O   0  0  0  0  0  0  0  0  0  0  0  0
   -6.3530   25.4000  -29.6480 O   0  0  0  0  0  0  0  0  0  0  0  0
   -5.3690   23.2500  -30.8850 C   0  0  0  0  0  0  0  0  0  0  0  0
   -4.3620   22.6710  -31.6650 C   0  0  0  0  0  0  0  0  0  0  0  0
   -4.5920   21.4640  -32.3300 C   0  0  0  0  0  0  0  0  0  0  0  0
   -5.8360   20.8160  -32.2270 C   0  0  0  0  0  0  0  0  0  0  0  0
   -6.0230   19.4840  -32.8500 C   0  0  0  0  0  0  0  0  0  0  0  0
   -7.1550   18.6810  -32.6760 C   0  0  0  0  0  0  0  0  0  0  0  0
   -6.8730   17.2120  -33.4450 S   0  0  0  0  0  0  0  0  0  0  0  0
   -5.3480   17.6590  -33.9860 C   0  0  0  0  0  0  0  0  0  0  0  0
   -4.3760   16.7420  -34.6530 C   0  0  0  0  0  0  0  0  0  0  0  0
   -3.1610   17.4840  -35.0300 N   0  0  0  0  0  0  0  0  0  0  0  0
   -2.0990   17.3960  -34.0130 C   0  0  0  0  0  0  0  0  0  0  0  0
   -1.7950   18.7450  -33.4100 C   0  0  0  0  0  0  0  0  0  0  0  0
   -1.6030   18.8800  -32.0230 C   0  0  0  0  0  0  0  0  0  0  0  0
   -1.3070   20.1300  -31.4700 C   0  0  0  0  0  0  0  0  0  0  0  0
   -1.2030   21.2540  -32.2940 C   0  0  0  0  0  0  0  0  0  0  0  0
   -1.4040   21.1320  -33.6710 C   0  0  0  0  0  0  0  0  0  0  0  0
   -1.7080   19.8850  -34.2280 C   0  0  0  0  0  0  0  0  0  0  0  0
   -5.0310   18.9060  -33.5800 N   0  0  0  0  0  0  0  0  0  0  0  0
   -6.8500   21.4150  -31.4560 C   0  0  0  0  0  0  0  0  0  0  0  0
   -6.6160   22.6220  -30.7920 C   0  0  0  0  0  0  0  0  0  0  0  0
   -2.1977   24.4893  -27.7796 H   0  0  0  0  0  0  0  0  0  0  0  0
   -2.4017   23.5794  -29.3149 H   0  0  0  0  0  0  0  0  0  0  0  0
   -2.4945   25.3733  -29.3149 H   0  0  0  0  0  0  0  0  0  0  0  0
   -4.4370   25.1110  -27.7980 H   0  0  0  0  0  0  0  0  0  0  0  0
   -4.5397   23.0853  -26.8882 H   0  0  0  0  0  0  0  0  0  0  0  0
   -5.5528   22.7987  -28.3437 H   0  0  0  0  0  0  0  0  0  0  0  0
   -3.8231   22.3140  -28.3437 H   0  0  0  0  0  0  0  0  0  0  0  0
   -3.3850   23.1683  -31.7550 H   0  0  0  0  0  0  0  0  0  0  0  0
   -3.7931   21.0166  -32.9395 H   0  0  0  0  0  0  0  0  0  0  0  0
   -8.0690   18.9610  -32.1318 H   0  0  0  0  0  0  0  0  0  0  0  0
   -4.1072   15.9303  -33.9610 H   0  0  0  0  0  0  0  0  0  0  0  0
   -4.8384   16.3223  -35.5585 H   0  0  0  0  0  0  0  0  0  0  0  0
   -3.4220   18.4950  -35.1110 H   0  0  0  0  0  0  0  0  0  0  0  0
   -2.4250   16.7132  -33.2145 H   0  0  0  0  0  0  0  0  0  0  0  0
   -1.1860   17.0230  -34.5001 H   0  0  0  0  0  0  0  0  0  0  0  0
   -1.6861   17.9984  -31.3704 H   0  0  0  0  0  0  0  0  0  0  0  0
   -1.1558   20.2286  -30.3849 H   0  0  0  0  0  0  0  0  0  0  0  0
   -0.9628   22.2350  -31.8581 H   0  0  0  0  0  0  0  0  0  0  0  0
   -1.3232   22.0176  -34.3184 H   0  0  0  0  0  0  0  0  0  0  0  0
   -1.8797   19.7962  -35.3109 H   0  0  0  0  0  0  0  0  0  0  0  0
   -7.8337   20.9294  -31.3756 H   0  0  0  0  0  0  0  0  0  0  0  0
   -7.4163   23.0810  -30.1930 H   0  0  0  0  0  0  0  0  0  0  0  0
  1  2  1  0
  2  3  1  0
  2  4  1  0
  4  5  2  0
  4  6  2  0
  4  7  1  0
  7  8  2  0
  8  9  1  0
  9 10  2  0
 10 11  1  0
 11 12  2  0
 12 13  1  0
 13 14  1  0
 14 15  1  0
 15 16  1  0
 16 17  1  0
 17 18  1  0
 18 19  2  0
 19 20  1  0
 20 21  2  0
 21 22  1  0
 22 23  2  0
 14 24  2  0
 10 25  1  0
 25 26  2  0
 26  7  1  0
 24 11  1  0
 23 18  1  0
  1 27  1  0
  1 28  1  0
  1 29  1  0
  2 30  1  0
  3 31  1  0
  3 32  1  0
  3 33  1  0
  8 34  1  0
  9 35  1  0
 12 36  1  0
 15 37  1  0
 15 38  1  0
 16 39  1  0
 17 40  1  0
 17 41  1  0
 19 42  1  0
 20 43  1  0
 21 44  1  0
 22 45  1  0
 23 46  1  0
 25 47  1  0
 26 48  1  0
M  CHG  1   2   1
M  END
>  <UniqueID>  (32) 
30

>  <SMILES>  (32) 
C[NH+](C)S(=O)(=O)c1ccc(-c2csc(CNCc3ccccc3)n2)cc1

>  <Energy>  (32) 
72.90368214982816

>  <Genealogy>  (32) 
C[NH+](C)S(=O)(=O)c1ccc(-c2csc(CNCc3ccccc3)n2)cc1 (protonated)
C[NH+](C)S(=O)(=O)c1ccc(-c2csc(CNCc3ccccc3)n2)cc1 (3D coordinates assigned)
C[NH+](C)S(=O)(=O)c1ccc(-c2csc(CNCc3ccccc3)n2)cc1 (optimized conformer: 72.90368214982816 kcal/mol)

>  <smiles>  (32) 
CN(C)S(=O)(=O)c1ccc(-c2csc(CNCc3ccccc3)n2)cc1

>  <score_type>  (32) 
oracle

>  <origin>  (32) 
adgpu

>  <m_score__min__energy>  (32) 
-9.3000000000000007

>  <m_primary>  (32) 
energy

$$$$
32:0
     RDKit          3D

 59 62  0  0  0  0  0  0  0  0999 V2000
   -9.4550   21.5620  -30.9780 C   0  0  0  0  0  0  0  0  0  0  0  0
   -8.1530   21.1700  -31.6480 C   0  0  0  0  0  0  0  0  0  0  0  0
   -7.0630   22.0730  -31.6910 C   0  0  0  0  0  0  0  0  0  0  0  0
   -7.1510   23.7470  -31.0320 S   0  0  0  0  0  0  0  0  0  0  0  0
   -5.4770   24.2250  -31.5890 C   0  0  0  0  0  0  0  0  0  0  0  0
   -4.9150   25.2880  -30.7020 C   0  0  0  0  0  0  0  0  0  0  0  0
   -5.6820   26.1670  -30.2220 O   0  0  0  0  0  0  0  0  0  0  0  0
   -3.5350   25.2290  -30.3270 N   0  0  0  0  0  0  0  0  0  0  0  0
   -2.9640   24.4680  -29.2510 C   0  0  0  0  0  0  0  0  0  0  0  0
   -3.7030   23.5050  -28.5400 C   0  0  0  0  0  0  0  0  0  0  0  0
   -3.1110   22.8030  -27.4870 C   0  0  0  0  0  0  0  0  0  0  0  0
   -1.7880   23.0650  -27.1230 C   0  0  0  0  0  0  0  0  0  0  0  0
   -1.0520   24.0400  -27.8060 C   0  0  0  0  0  0  0  0  0  0  0  0
    0.6160   24.3610  -27.3380 S   0  0  0  0  0  0  0  0  0  0  0  0
    1.1550   23.1930  -26.5600 O   0  0  0  0  0  0  0  0  0  0  0  0
    1.4390   24.5260  -28.5850 O   0  0  0  0  0  0  0  0  0  0  0  0
    0.6770   25.8220  -26.3720 N   0  0  0  0  0  0  0  0  0  0  0  0
   -0.2960   26.8430  -26.8610 C   0  0  0  0  0  0  0  0  0  0  0  0
   -1.3970   27.2000  -25.8470 C   0  0  0  0  0  0  0  0  0  0  0  0
   -1.9590   25.9360  -25.2020 C   0  0  0  0  0  0  0  0  0  0  0  0
   -0.8630   25.1110  -24.5060 C   0  0  0  0  0  0  0  0  0  0  0  0
    0.5630   25.5160  -24.9280 C   0  0  0  0  0  0  0  0  0  0  0  0
   -1.6450   24.7390  -28.8680 C   0  0  0  0  0  0  0  0  0  0  0  0
   -5.8860   21.6930  -32.2470 N   0  0  0  0  0  0  0  0  0  0  0  0
   -5.6960   20.4710  -32.7930 C   0  0  0  0  0  0  0  0  0  0  0  0
   -4.4460   20.1510  -33.3360 C   0  0  0  0  0  0  0  0  0  0  0  0
   -4.2280   18.8970  -33.9060 C   0  0  0  0  0  0  0  0  0  0  0  0
   -5.2570   17.9550  -33.9350 C   0  0  0  0  0  0  0  0  0  0  0  0
   -6.5080   18.2640  -33.3970 C   0  0  0  0  0  0  0  0  0  0  0  0
   -6.7520   19.5310  -32.8190 C   0  0  0  0  0  0  0  0  0  0  0  0
   -8.0100   19.8950  -32.2650 C   0  0  0  0  0  0  0  0  0  0  0  0
   -9.1710   18.9190  -32.3340 C   0  0  0  0  0  0  0  0  0  0  0  0
   -9.3310   21.5247  -29.8856 H   0  0  0  0  0  0  0  0  0  0  0  0
   -9.7305   22.5829  -31.2811 H   0  0  0  0  0  0  0  0  0  0  0  0
  -10.2483   20.8629  -31.2811 H   0  0  0  0  0  0  0  0  0  0  0  0
   -4.8198   23.3434  -31.5589 H   0  0  0  0  0  0  0  0  0  0  0  0
   -5.5410   24.6149  -32.6156 H   0  0  0  0  0  0  0  0  0  0  0  0
   -4.7493   23.3042  -28.8137 H   0  0  0  0  0  0  0  0  0  0  0  0
   -3.6887   22.0414  -26.9427 H   0  0  0  0  0  0  0  0  0  0  0  0
   -1.3240   22.5041  -26.2983 H   0  0  0  0  0  0  0  0  0  0  0  0
    1.6400   26.2080  -26.5170 H   0  0  0  0  0  0  0  0  0  0  0  0
    0.2597   27.7606  -27.1045 H   0  0  0  0  0  0  0  0  0  0  0  0
   -0.8005   26.4062  -27.7355 H   0  0  0  0  0  0  0  0  0  0  0  0
   -0.9732   27.8477  -25.0654 H   0  0  0  0  0  0  0  0  0  0  0  0
   -2.2095   27.7228  -26.3729 H   0  0  0  0  0  0  0  0  0  0  0  0
   -2.7152   26.2232  -24.4566 H   0  0  0  0  0  0  0  0  0  0  0  0
   -2.4003   25.3155  -25.9959 H   0  0  0  0  0  0  0  0  0  0  0  0
   -0.9584   25.2497  -23.4190 H   0  0  0  0  0  0  0  0  0  0  0  0
   -1.0059   24.0616  -24.8032 H   0  0  0  0  0  0  0  0  0  0  0  0
    0.8567   26.4090  -24.3568 H   0  0  0  0  0  0  0  0  0  0  0  0
    1.2216   24.6595  -24.7214 H   0  0  0  0  0  0  0  0  0  0  0  0
   -1.0684   25.5069  -29.4046 H   0  0  0  0  0  0  0  0  0  0  0  0
   -3.6328   20.8914  -33.3130 H   0  0  0  0  0  0  0  0  0  0  0  0
   -3.2446   18.6504  -34.3328 H   0  0  0  0  0  0  0  0  0  0  0  0
   -5.0822   16.9658  -34.3831 H   0  0  0  0  0  0  0  0  0  0  0  0
   -7.3120   17.5138  -33.4232 H   0  0  0  0  0  0  0  0  0  0  0  0
   -9.4875   18.6530  -31.3146 H   0  0  0  0  0  0  0  0  0  0  0  0
  -10.0113   19.3860  -32.8687 H   0  0  0  0  0  0  0  0  0  0  0  0
   -8.8554   18.0110  -32.8687 H   0  0  0  0  0  0  0  0  0  0  0  0
  1  2  1  0
  2  3  2  0
  3  4  1  0
  4  5  1  0
  5  6  1  0
  6  7  2  0
  6  8  1  0
  8  9  1  0
  9 10  2  0
 10 11  1  0
 11 12  2  0
 12 13  1  0
 13 14  1  0
 14 15  2  0
 14 16  2  0
 14 17  1  0
 17 18  1  0
 18 19  1  0
 19 20  1  0
 20 21  1  0
 21 22  1  0
 13 23  2  0
  3 24  1  0
 24 25  2  0
 25 26  1  0
 26 27  2  0
 27 28  1  0
 28 29  2  0
 29 30  1  0
 30 31  2  0
 31 32  1  0
 31  2  1  0
 23  9  1  0
 30 25  1  0
 22 17  1  0
  1 33  1  0
  1 34  1  0
  1 35  1  0
  5 36  1  0
  5 37  1  0
 10 38  1  0
 11 39  1  0
 12 40  1  0
 17 41  1  0
 18 42  1  0
 18 43  1  0
 19 44  1  0
 19 45  1  0
 20 46  1  0
 20 47  1  0
 21 48  1  0
 21 49  1  0
 22 50  1  0
 22 51  1  0
 23 52  1  0
 26 53  1  0
 27 54  1  0
 28 55  1  0
 29 56  1  0
 32 57  1  0
 32 58  1  0
 32 59  1  0
M  CHG  2   8  -1  17   1
M  END
>  <UniqueID>  (33) 
31

>  <SMILES>  (33) 
Cc1c(SCC(=O)[N-]c2cccc(S(=O)(=O)[NH+]3CCCCC3)c2)nc2ccccc2c1C

>  <Energy>  (33) 
76.19817807113051

>  <Genealogy>  (33) 
Cc1c(SCC(=O)[N-]c2cccc(S(=O)(=O)[NH+]3CCCCC3)c2)nc2ccccc2c1C (protonated)
Cc1c(SCC(=O)[N-]c2cccc(S(=O)(=O)[NH+]3CCCCC3)c2)nc2ccccc2c1C (3D coordinates assigned)
Cc1c(SCC(=O)[N-]c2cccc(S(=O)(=O)[NH+]3CCCCC3)c2)nc2ccccc2c1C (nonaromatic ring conformer: 76.19817807113051 kcal/mol)

>  <smiles>  (33) 
Cc1c(SCC(=O)Nc2cccc(S(=O)(=O)N3CCCCC3)c2)nc2ccccc2c1C

>  <score_type>  (33) 
oracle

>  <origin>  (33) 
adgpu

>  <m_score__min__energy>  (33) 
-13.199999999999999

>  <m_primary>  (33) 
energy

$$$$
33:0
     RDKit          3D

 36 38  0  0  0  0  0  0  0  0999 V2000
   -0.1400   20.2630  -34.7530 C   0  0  0  0  0  0  0  0  0  0  0  0
   -1.5220   20.1710  -34.2000 C   0  0  0  0  0  0  0  0  0  0  0  0
   -2.1650   21.1430  -33.4640 C   0  0  0  0  0  0  0  0  0  0  0  0
   -3.4270   20.6150  -33.2590 C   0  0  0  0  0  0  0  0  0  0  0  0
   -4.5530   21.2260  -32.5180 C   0  0  0  0  0  0  0  0  0  0  0  0
   -5.7990   20.5850  -32.4210 C   0  0  0  0  0  0  0  0  0  0  0  0
   -6.8460   21.1800  -31.7170 C   0  0  0  0  0  0  0  0  0  0  0  0
   -6.6760   22.4220  -31.0980 C   0  0  0  0  0  0  0  0  0  0  0  0
   -7.7640   22.9650  -30.4090 O   0  0  0  0  0  0  0  0  0  0  0  0
   -5.4290   23.0810  -31.1860 C   0  0  0  0  0  0  0  0  0  0  0  0
   -5.1600   24.6530  -30.4220 S   0  0  0  0  0  0  0  0  0  0  0  0
   -5.7760   24.6440  -29.0500 O   0  0  0  0  0  0  0  0  0  0  0  0
   -5.7890   25.7250  -31.2680 O   0  0  0  0  0  0  0  0  0  0  0  0
   -3.4610   24.9690  -30.2780 N   0  0  0  0  0  0  0  0  0  0  0  0
   -2.5800   24.3580  -29.3250 C   0  0  0  0  0  0  0  0  0  0  0  0
   -2.7980   23.0550  -28.8380 C   0  0  0  0  0  0  0  0  0  0  0  0
   -1.9160   22.4940  -27.9090 C   0  0  0  0  0  0  0  0  0  0  0  0
   -0.8130   23.2250  -27.4580 C   0  0  0  0  0  0  0  0  0  0  0  0
   -0.5910   24.5190  -27.9360 C   0  0  0  0  0  0  0  0  0  0  0  0
   -1.4700   25.0850  -28.8660 C   0  0  0  0  0  0  0  0  0  0  0  0
   -1.2350   26.3730  -29.3330 O   0  0  0  0  0  0  0  0  0  0  0  0
   -4.3810   22.4750  -31.8970 C   0  0  0  0  0  0  0  0  0  0  0  0
   -3.4860   19.4400  -33.8480 O   0  0  0  0  0  0  0  0  0  0  0  0
   -2.3600   19.1430  -34.4310 N   0  0  0  0  0  0  0  0  0  0  0  0
    0.5835   20.3112  -33.9258 H   0  0  0  0  0  0  0  0  0  0  0  0
    0.0676   19.3767  -35.3705 H   0  0  0  0  0  0  0  0  0  0  0  0
   -0.0517   21.1690  -35.3705 H   0  0  0  0  0  0  0  0  0  0  0  0
   -1.7684   22.1099  -33.1208 H   0  0  0  0  0  0  0  0  0  0  0  0
   -5.9501   19.6079  -32.9031 H   0  0  0  0  0  0  0  0  0  0  0  0
   -7.8162   20.6663  -31.6481 H   0  0  0  0  0  0  0  0  0  0  0  0
   -7.6720   23.6680  -29.6890 H   0  0  0  0  0  0  0  0  0  0  0  0
   -3.6650   22.4764  -29.1894 H   0  0  0  0  0  0  0  0  0  0  0  0
   -2.0905   21.4753  -27.5323 H   0  0  0  0  0  0  0  0  0  0  0  0
   -0.1204   22.7818  -26.7274 H   0  0  0  0  0  0  0  0  0  0  0  0
    0.2767   25.0940  -27.5804 H   0  0  0  0  0  0  0  0  0  0  0  0
   -3.4096   22.9860  -31.9692 H   0  0  0  0  0  0  0  0  0  0  0  0
  1  2  1  0
  2  3  1  0
  3  4  2  0
  4  5  1  0
  5  6  2  0
  6  7  1  0
  7  8  2  0
  8  9  1  0
  8 10  1  0
 10 11  1  0
 11 12  2  0
 11 13  2  0
 11 14  1  0
 14 15  1  0
 15 16  2  0
 16 17  1  0
 17 18  2  0
 18 19  1  0
 19 20  2  0
 20 21  1  0
 10 22  2  0
  4 23  1  0
 23 24  1  0
 24  2  2  0
 22  5  1  0
 20 15  1  0
  1 25  1  0
  1 26  1  0
  1 27  1  0
  3 28  1  0
  6 29  1  0
  7 30  1  0
  9 31  1  0
 16 32  1  0
 17 33  1  0
 18 34  1  0
 19 35  1  0
 22 36  1  0
M  CHG  2  14  -1  21  -1
M  END
>  <UniqueID>  (34) 
32

>  <SMILES>  (34) 
Cc1cc(-c2ccc(O)c(S(=O)(=O)[N-]c3ccccc3[O-])c2)on1

>  <Energy>  (34) 
74.73013690959043

>  <Genealogy>  (34) 
Cc1cc(-c2ccc(O)c(S(=O)(=O)[N-]c3ccccc3[O-])c2)on1 (protonated)
Cc1cc(-c2ccc(O)c(S(=O)(=O)[N-]c3ccccc3[O-])c2)on1 (3D coordinates assigned)
Cc1cc(-c2ccc(O)c(S(=O)(=O)[N-]c3ccccc3[O-])c2)on1 (optimized conformer: 74.73013690959043 kcal/mol)

>  <smiles>  (34) 
Cc1cc(-c2ccc(O)c(S(=O)(=O)Nc3ccccc3O)c2)on1

>  <score_type>  (34) 
oracle

>  <origin>  (34) 
adgpu

>  <m_score__min__energy>  (34) 
-13.140000000000001

>  <m_primary>  (34) 
energy

$$$$
34:0
     RDKit          3D

 54 57  0  0  0  0  0  0  0  0999 V2000
   -3.8230   25.6710  -31.6240 H   0  0  0  0  0  0  0  0  0  0  0  0
   -3.9840   25.6000  -30.6470 O   0  0  0  0  0  0  0  0  0  0  0  0
   -5.3020   25.1520  -30.4900 C   0  0  0  0  0  0  0  0  0  0  0  0
   -5.9825   25.8271  -31.0295 H   0  0  0  0  0  0  0  0  0  0  0  0
   -5.5545   25.1436  -29.4194 H   0  0  0  0  0  0  0  0  0  0  0  0
   -5.4430   23.7600  -31.0400 C   0  0  0  0  0  0  0  0  0  0  0  0
   -6.7020   23.2270  -31.3320 C   0  0  0  0  0  0  0  0  0  0  0  0
   -7.6089   23.8167  -31.1325 H   0  0  0  0  0  0  0  0  0  0  0  0
   -6.8050   21.9810  -31.8620 N   0  0  0  0  0  0  0  0  0  0  0  0
   -5.7010   21.2290  -32.1270 C   0  0  0  0  0  0  0  0  0  0  0  0
   -5.8330   19.9100  -32.7020 N   0  0  0  0  0  0  0  0  0  0  0  0
   -6.7590   19.6670  -33.8170 C   0  0  0  0  0  0  0  0  0  0  0  0
   -7.0134   20.6260  -34.2920 H   0  0  0  0  0  0  0  0  0  0  0  0
   -7.6673   19.1847  -33.4267 H   0  0  0  0  0  0  0  0  0  0  0  0
   -6.1160   18.7450  -34.8560 C   0  0  0  0  0  0  0  0  0  0  0  0
   -5.2819   19.2753  -35.3388 H   0  0  0  0  0  0  0  0  0  0  0  0
   -6.8810   18.4685  -35.5965 H   0  0  0  0  0  0  0  0  0  0  0  0
   -5.5840   17.4630  -34.2070 C   0  0  0  0  0  0  0  0  0  0  0  0
   -5.0267   16.8918  -34.9641 H   0  0  0  0  0  0  0  0  0  0  0  0
   -6.4505   16.9026  -33.8260 H   0  0  0  0  0  0  0  0  0  0  0  0
   -4.6490   17.7370  -33.0110 C   0  0  1  0  0  0  0  0  0  0  0  0
   -4.5403   16.7878  -32.4659 H   0  0  0  0  0  0  0  0  0  0  0  0
   -3.2390   18.1190  -33.4460 C   0  0  0  0  0  0  0  0  0  0  0  0
   -2.4140   17.2450  -34.1790 C   0  0  0  0  0  0  0  0  0  0  0  0
   -2.7828   16.2439  -34.4470 H   0  0  0  0  0  0  0  0  0  0  0  0
   -1.1320   17.6370  -34.5690 C   0  0  0  0  0  0  0  0  0  0  0  0
   -0.4915   16.9384  -35.1274 H   0  0  0  0  0  0  0  0  0  0  0  0
   -0.6600   18.9120  -34.2530 C   0  0  0  0  0  0  0  0  0  0  0  0
    0.3511   19.2146  -34.5630 H   0  0  0  0  0  0  0  0  0  0  0  0
   -1.4700   19.8080  -33.5420 C   0  0  0  0  0  0  0  0  0  0  0  0
   -0.9890   21.1810  -33.2620 C   0  0  0  0  0  0  0  0  0  0  0  0
   -0.2130   21.7360  -34.0830 O   0  0  0  0  0  0  0  0  0  0  0  0
   -1.3480   21.8960  -32.0650 N   0  0  0  0  0  0  0  0  0  0  0  0
   -1.1950   21.4840  -30.8380 C   0  0  0  0  0  0  0  0  0  0  0  0
   -0.7180   20.2370  -30.5660 N   0  0  0  0  0  0  0  0  0  0  0  0
   -0.5340   19.7880  -29.2950 C   0  0  0  0  0  0  0  0  0  0  0  0
    0.0250   18.4210  -29.0630 C   0  0  0  0  0  0  0  0  0  0  0  0
    0.1012   18.2347  -27.9816 H   0  0  0  0  0  0  0  0  0  0  0  0
   -0.6388   17.6713  -29.5184 H   0  0  0  0  0  0  0  0  0  0  0  0
    1.0239   18.3512  -29.5184 H   0  0  0  0  0  0  0  0  0  0  0  0
   -0.8680   20.6150  -28.2150 C   0  0  0  0  0  0  0  0  0  0  0  0
   -0.7286   20.2642  -27.1818 H   0  0  0  0  0  0  0  0  0  0  0  0
   -1.3800   21.8900  -28.4650 C   0  0  0  0  0  0  0  0  0  0  0  0
   -1.6518   22.5477  -27.6262 H   0  0  0  0  0  0  0  0  0  0  0  0
   -1.5470   22.3300  -29.7800 C   0  0  0  0  0  0  0  0  0  0  0  0
   -1.9516   23.3327  -29.9824 H   0  0  0  0  0  0  0  0  0  0  0  0
   -2.7390   19.3900  -33.1060 C   0  0  0  0  0  0  0  0  0  0  0  0
   -3.3503   20.0660  -32.4901 H   0  0  0  0  0  0  0  0  0  0  0  0
   -5.2690   18.7390  -32.0140 C   0  0  0  0  0  0  0  0  0  0  0  0
   -4.4888   19.0768  -31.3160 H   0  0  0  0  0  0  0  0  0  0  0  0
   -6.0835   18.2304  -31.4774 H   0  0  0  0  0  0  0  0  0  0  0  0
   -4.4670   21.7440  -31.8630 N   0  0  0  0  0  0  0  0  0  0  0  0
   -4.3170   22.9850  -31.3340 C   0  0  0  0  0  0  0  0  0  0  0  0
   -3.3099   23.3809  -31.1367 H   0  0  0  0  0  0  0  0  0  0  0  0
  1  2  1  0
  2  3  1  0
  3  4  1  0
  3  5  1  0
  3  6  1  0
  6  7  2  0
  7  8  1  0
  7  9  1  0
  9 10  2  0
 10 11  1  0
 11 12  1  0
 12 13  1  0
 12 14  1  0
 12 15  1  0
 15 16  1  0
 15 17  1  0
 15 18  1  0
 18 19  1  0
 18 20  1  0
 18 21  1  0
 21 22  1  1
 21 23  1  0
 23 24  2  0
 24 25  1  0
 24 26  1  0
 26 27  1  0
 26 28  2  0
 28 29  1  0
 28 30  1  0
 30 31  1  0
 31 32  2  0
 31 33  1  0
 33 34  2  0
 34 35  1  0
 35 36  1  0
 36 37  1  0
 37 38  1  0
 37 39  1  0
 37 40  1  0
 36 41  2  0
 41 42  1  0
 41 43  1  0
 43 44  1  0
 43 45  2  0
 45 46  1  0
 30 47  2  0
 47 48  1  0
 21 49  1  0
 49 50  1  0
 49 51  1  0
 10 52  1  0
 52 53  2  0
 53 54  1  0
 53  6  1  0
 49 11  1  0
 47 23  1  0
 45 34  1  0
M  CHG  1  35  -1
M  END
>  <UniqueID>  (35) 
33

>  <SMILES>  (35) 
Cc1ccc/c(=N/C(=O)c2cccc([C@@H]3CCCN(c4ncc(CO)cn4)C3)c2)[n-]1

>  <Energy>  (35) 
64.50725588213446

>  <Genealogy>  (35) 
Cc1cccc(=NC(=O)c2cccc(C3CCCN(c4ncc(CO)cn4)C3)c2)[n-]1 (protonated)
Cc1cccc(=NC(=O)c2cccc([C@@H]3CCCN(c4ncc(CO)cn4)C3)c2)[n-]1 (chirality)
Cc1ccc/c(=N/C(=O)c2cccc([C@@H]3CCCN(c4ncc(CO)cn4)C3)c2)[n-]1 (cis-trans isomerization)
Cc1ccc/c(=N/C(=O)c2cccc([C@@H]3CCCN(c4ncc(CO)cn4)C3)c2)[n-]1 (3D coordinates assigned)
Cc1ccc/c(=N/C(=O)c2cccc([C@@H]3CCCN(c4ncc(CO)cn4)C3)c2)[n-]1 (nonaromatic ring conformer: 64.50725588213446 kcal/mol)

>  <smiles>  (35) 
Cc1cccc(=NC(=O)c2cccc(C3CCCN(c4ncc(CO)cn4)C3)c2)[nH]1

>  <score_type>  (35) 
oracle

>  <origin>  (35) 
adgpu

>  <m_score__min__energy>  (35) 
-11.359999999999999

>  <m_primary>  (35) 
energy

$$$$
35:0
     RDKit          3D

 51 53  0  0  0  0  0  0  0  0999 V2000
   -6.0410   25.2130  -29.6830 C   0  0  0  0  0  0  0  0  0  0  0  0
   -5.0600   24.9570  -30.7770 C   0  0  0  0  0  0  0  0  0  0  0  0
   -3.8640   25.3270  -30.6370 O   0  0  0  0  0  0  0  0  0  0  0  0
   -5.4660   24.1970  -31.9220 N   0  0  0  0  0  0  0  0  0  0  0  0
   -6.4080   23.1140  -31.9420 C   0  0  0  0  0  0  0  0  0  0  0  0
   -7.7350   23.3750  -31.5820 C   0  0  0  0  0  0  0  0  0  0  0  0
   -8.6940   22.3610  -31.6320 C   0  0  0  0  0  0  0  0  0  0  0  0
   -8.3380   21.0780  -32.0550 C   0  0  0  0  0  0  0  0  0  0  0  0
   -7.0170   20.8060  -32.4340 C   0  0  0  0  0  0  0  0  0  0  0  0
   -6.5560   19.1980  -32.9830 S   0  0  0  0  0  0  0  0  0  0  0  0
   -7.6300   18.2210  -32.5960 O   0  0  0  0  0  0  0  0  0  0  0  0
   -6.3930   19.1750  -34.4780 O   0  0  0  0  0  0  0  0  0  0  0  0
   -5.0630   18.7250  -32.2470 N   0  0  0  0  0  0  0  0  0  0  0  0
   -3.9040   19.5500  -32.3500 C   0  0  0  0  0  0  0  0  0  0  0  0
   -3.4780   20.2850  -31.2360 C   0  0  0  0  0  0  0  0  0  0  0  0
   -2.3480   21.1070  -31.3180 C   0  0  0  0  0  0  0  0  0  0  0  0
   -1.8320   22.0410  -29.9120 S   0  0  0  0  0  0  0  0  0  0  0  0
   -0.4900   22.6570  -30.1950 O   0  0  0  0  0  0  0  0  0  0  0  0
   -2.8130   23.1560  -29.6710 O   0  0  0  0  0  0  0  0  0  0  0  0
   -1.7190   21.0450  -28.4830 N   0  0  0  0  0  0  0  0  0  0  0  0
   -0.9490   19.8230  -28.7680 C   0  0  0  0  0  0  0  0  0  0  0  0
   -0.6510   19.0590  -27.4630 C   0  0  0  0  0  0  0  0  0  0  0  0
   -1.6180   19.4300  -26.3280 C   0  0  0  0  0  0  0  0  0  0  0  0
   -3.0360   19.6450  -26.8670 C   0  0  0  0  0  0  0  0  0  0  0  0
   -3.0700   20.7110  -27.9850 C   0  0  0  0  0  0  0  0  0  0  0  0
   -1.6350   21.1840  -32.5210 C   0  0  0  0  0  0  0  0  0  0  0  0
   -2.0500   20.4450  -33.6330 C   0  0  0  0  0  0  0  0  0  0  0  0
   -3.1810   19.6250  -33.5550 C   0  0  0  0  0  0  0  0  0  0  0  0
   -3.5640   18.8950  -34.6800 O   0  0  0  0  0  0  0  0  0  0  0  0
   -6.0540   21.8230  -32.3770 C   0  0  0  0  0  0  0  0  0  0  0  0
   -5.5461   25.0839  -28.7091 H   0  0  0  0  0  0  0  0  0  0  0  0
   -6.4234   26.2410  -29.7665 H   0  0  0  0  0  0  0  0  0  0  0  0
   -6.8770   24.5029  -29.7665 H   0  0  0  0  0  0  0  0  0  0  0  0
   -8.0245   24.3854  -31.2576 H   0  0  0  0  0  0  0  0  0  0  0  0
   -9.7324   22.5731  -31.3375 H   0  0  0  0  0  0  0  0  0  0  0  0
   -9.0953   20.2810  -32.0905 H   0  0  0  0  0  0  0  0  0  0  0  0
   -4.0354   20.2156  -30.2902 H   0  0  0  0  0  0  0  0  0  0  0  0
   -1.5310   19.1767  -29.4415 H   0  0  0  0  0  0  0  0  0  0  0  0
    0.0029   20.1036  -29.2424 H   0  0  0  0  0  0  0  0  0  0  0  0
   -0.7353   17.9799  -27.6592 H   0  0  0  0  0  0  0  0  0  0  0  0
    0.3638   19.3341  -27.1398 H   0  0  0  0  0  0  0  0  0  0  0  0
   -1.6335   18.6166  -25.5876 H   0  0  0  0  0  0  0  0  0  0  0  0
   -1.2727   20.3654  -25.8635 H   0  0  0  0  0  0  0  0  0  0  0  0
   -3.4113   18.6932  -27.2711 H   0  0  0  0  0  0  0  0  0  0  0  0
   -3.6666   19.9990  -26.0381 H   0  0  0  0  0  0  0  0  0  0  0  0
   -3.6706   20.3263  -28.8224 H   0  0  0  0  0  0  0  0  0  0  0  0
   -3.5091   21.6271  -27.5632 H   0  0  0  0  0  0  0  0  0  0  0  0
   -0.7458   21.8278  -32.5912 H   0  0  0  0  0  0  0  0  0  0  0  0
   -1.4843   20.5086  -34.5742 H   0  0  0  0  0  0  0  0  0  0  0  0
   -4.4260   18.3640  -34.7130 H   0  0  0  0  0  0  0  0  0  0  0  0
   -5.0162   21.6111  -32.6738 H   0  0  0  0  0  0  0  0  0  0  0  0
  1  2  1  0
  2  3  2  0
  2  4  1  0
  4  5  1  0
  5  6  2  0
  6  7  1  0
  7  8  2  0
  8  9  1  0
  9 10  1  0
 10 11  2  0
 10 12  2  0
 10 13  1  0
 13 14  1  0
 14 15  2  0
 15 16  1  0
 16 17  1  0
 17 18  2  0
 17 19  2  0
 17 20  1  0
 20 21  1  0
 21 22  1  0
 22 23  1  0
 23 24  1  0
 24 25  1  0
 16 26  2  0
 26 27  1  0
 27 28  2  0
 28 29  1  0
  9 30  2  0
 30  5  1  0
 28 14  1  0
 25 20  1  0
  1 31  1  0
  1 32  1  0
  1 33  1  0
  6 34  1  0
  7 35  1  0
  8 36  1  0
 15 37  1  0
 21 38  1  0
 21 39  1  0
 22 40  1  0
 22 41  1  0
 23 42  1  0
 23 43  1  0
 24 44  1  0
 24 45  1  0
 25 46  1  0
 25 47  1  0
 26 48  1  0
 27 49  1  0
 29 50  1  0
 30 51  1  0
M  CHG  2   4  -1  13  -1
M  END
>  <UniqueID>  (36) 
34

>  <SMILES>  (36) 
CC(=O)[N-]c1cccc(S(=O)(=O)[N-]c2cc(S(=O)(=O)N3CCCCC3)ccc2O)c1

>  <Energy>  (36) 
61.781243445437894

>  <Genealogy>  (36) 
CC(=O)[N-]c1cccc(S(=O)(=O)[N-]c2cc(S(=O)(=O)N3CCCCC3)ccc2O)c1 (protonated)
CC(=O)[N-]c1cccc(S(=O)(=O)[N-]c2cc(S(=O)(=O)N3CCCCC3)ccc2O)c1 (3D coordinates assigned)
CC(=O)[N-]c1cccc(S(=O)(=O)[N-]c2cc(S(=O)(=O)N3CCCCC3)ccc2O)c1 (nonaromatic ring conformer: 61.781243445437894 kcal/mol)

>  <smiles>  (36) 
CC(=O)Nc1cccc(S(=O)(=O)Nc2cc(S(=O)(=O)N3CCCCC3)ccc2O)c1

>  <score_type>  (36) 
oracle

>  <origin>  (36) 
adgpu

>  <m_score__min__energy>  (36) 
-11.970000000000001

>  <m_primary>  (36) 
energy

$$$$
36:0
     RDKit          3D

 41 43  0  0  0  0  0  0  0  0999 V2000
   -8.3320   19.2400  -32.3500 C   0  0  0  0  0  0  0  0  0  0  0  0
   -7.4480   20.2040  -32.9130 O   0  0  0  0  0  0  0  0  0  0  0  0
   -6.9590   21.3250  -32.2270 C   0  0  0  0  0  0  0  0  0  0  0  0
   -7.7980   22.1880  -31.5000 C   0  0  0  0  0  0  0  0  0  0  0  0
   -7.2640   23.2950  -30.8400 C   0  0  0  0  0  0  0  0  0  0  0  0
   -5.8910   23.5640  -30.8910 C   0  0  0  0  0  0  0  0  0  0  0  0
   -5.2990   25.0160  -30.0710 S   0  0  0  0  0  0  0  0  0  0  0  0
   -4.2690   25.6730  -30.9470 O   0  0  0  0  0  0  0  0  0  0  0  0
   -6.3970   26.0040  -29.7950 O   0  0  0  0  0  0  0  0  0  0  0  0
   -4.5590   24.5580  -28.5700 N   0  0  0  0  0  0  0  0  0  0  0  0
   -3.4350   23.6760  -28.4430 C   0  0  0  0  0  0  0  0  0  0  0  0
   -3.5770   22.3630  -27.9320 C   0  0  0  0  0  0  0  0  0  0  0  0
   -2.4440   21.5590  -27.8530 C   0  0  0  0  0  0  0  0  0  0  0  0
   -1.2080   22.0120  -28.2530 C   0  0  0  0  0  0  0  0  0  0  0  0
   -1.0290   23.2990  -28.7520 C   0  0  0  0  0  0  0  0  0  0  0  0
   -2.1560   24.1360  -28.8450 C   0  0  0  0  0  0  0  0  0  0  0  0
   -2.0080   25.4260  -29.3420 O   0  0  0  0  0  0  0  0  0  0  0  0
   -0.2550   20.9250  -28.0560 C   0  0  0  0  0  0  0  0  0  0  0  0
    0.9710   20.9640  -28.3450 O   0  0  0  0  0  0  0  0  0  0  0  0
   -0.9140   19.7870  -27.4950 N   0  0  0  0  0  0  0  0  0  0  0  0
   -0.4200   18.4160  -27.5080 C   0  0  0  0  0  0  0  0  0  0  0  0
   -2.2850   20.1810  -27.4010 C   0  0  0  0  0  0  0  0  0  0  0  0
   -3.2160   19.4250  -27.0130 O   0  0  0  0  0  0  0  0  0  0  0  0
   -5.0360   22.7040  -31.6130 C   0  0  0  0  0  0  0  0  0  0  0  0
   -3.6600   22.9810  -31.6610 O   0  0  0  0  0  0  0  0  0  0  0  0
   -2.6340   21.9970  -31.5880 C   0  0  0  0  0  0  0  0  0  0  0  0
   -5.5860   21.5880  -32.2750 C   0  0  0  0  0  0  0  0  0  0  0  0
   -8.2825   19.2940  -31.2524 H   0  0  0  0  0  0  0  0  0  0  0  0
   -9.3601   19.4477  -32.6813 H   0  0  0  0  0  0  0  0  0  0  0  0
   -8.0362   18.2336  -32.6813 H   0  0  0  0  0  0  0  0  0  0  0  0
   -8.8789   21.9896  -31.4515 H   0  0  0  0  0  0  0  0  0  0  0  0
   -7.9288   23.9636  -30.2735 H   0  0  0  0  0  0  0  0  0  0  0  0
   -4.5583   21.9880  -27.6057 H   0  0  0  0  0  0  0  0  0  0  0  0
   -0.0350   23.6515  -29.0646 H   0  0  0  0  0  0  0  0  0  0  0  0
   -0.2926   18.0624  -26.4742 H   0  0  0  0  0  0  0  0  0  0  0  0
   -1.1422   17.7709  -28.0298 H   0  0  0  0  0  0  0  0  0  0  0  0
    0.5477   18.3799  -28.0298 H   0  0  0  0  0  0  0  0  0  0  0  0
   -2.4081   21.7804  -30.5335 H   0  0  0  0  0  0  0  0  0  0  0  0
   -2.9722   21.0769  -32.0871 H   0  0  0  0  0  0  0  0  0  0  0  0
   -1.7288   22.3733  -32.0871 H   0  0  0  0  0  0  0  0  0  0  0  0
   -4.9250   20.9130  -32.8384 H   0  0  0  0  0  0  0  0  0  0  0  0
  1  2  1  0
  2  3  1  0
  3  4  2  0
  4  5  1  0
  5  6  2  0
  6  7  1  0
  7  8  2  0
  7  9  2  0
  7 10  1  0
 10 11  1  0
 11 12  2  0
 12 13  1  0
 13 14  2  0
 14 15  1  0
 15 16  2  0
 16 17  1  0
 14 18  1  0
 18 19  2  0
 18 20  1  0
 20 21  1  0
 20 22  1  0
 22 23  2  0
  6 24  1  0
 24 25  1  0
 25 26  1  0
 24 27  2  0
 27  3  1  0
 16 11  1  0
 22 13  1  0
  1 28  1  0
  1 29  1  0
  1 30  1  0
  4 31  1  0
  5 32  1  0
 12 33  1  0
 15 34  1  0
 21 35  1  0
 21 36  1  0
 21 37  1  0
 26 38  1  0
 26 39  1  0
 26 40  1  0
 27 41  1  0
M  CHG  2  10  -1  17  -1
M  END
>  <UniqueID>  (37) 
35

>  <SMILES>  (37) 
COc1ccc(S(=O)(=O)[N-]c2cc3c(cc2[O-])C(=O)N(C)C3=O)c(OC)c1

>  <Energy>  (37) 
77.49111339443638

>  <Genealogy>  (37) 
COc1ccc(S(=O)(=O)[N-]c2cc3c(cc2[O-])C(=O)N(C)C3=O)c(OC)c1 (protonated)
COc1ccc(S(=O)(=O)[N-]c2cc3c(cc2[O-])C(=O)N(C)C3=O)c(OC)c1 (3D coordinates assigned)
COc1ccc(S(=O)(=O)[N-]c2cc3c(cc2[O-])C(=O)N(C)C3=O)c(OC)c1 (nonaromatic ring conformer: 77.49111339443638 kcal/mol)

>  <smiles>  (37) 
COc1ccc(S(=O)(=O)Nc2cc3c(cc2O)C(=O)N(C)C3=O)c(OC)c1

>  <score_type>  (37) 
oracle

>  <origin>  (37) 
adgpu

>  <m_score__min__energy>  (37) 
-12.119999999999999

>  <m_primary>  (37) 
energy

$$$$
37:0
     RDKit          3D

 50 53  0  0  0  0  0  0  0  0999 V2000
    1.1190   23.4960  -27.1390 C   0  0  0  0  0  0  0  0  0  0  0  0
   -0.3690   23.3870  -28.1070 S   0  0  0  0  0  0  0  0  0  0  0  0
   -0.4110   24.5260  -29.0870 O   0  0  0  0  0  0  0  0  0  0  0  0
   -1.5680   23.4820  -27.2040 O   0  0  0  0  0  0  0  0  0  0  0  0
   -0.3960   21.8500  -28.9640 C   0  0  0  0  0  0  0  0  0  0  0  0
   -0.1080   20.6550  -28.2920 C   0  0  0  0  0  0  0  0  0  0  0  0
   -0.1530   19.4380  -28.9760 C   0  0  0  0  0  0  0  0  0  0  0  0
   -0.4900   19.4060  -30.3320 C   0  0  0  0  0  0  0  0  0  0  0  0
   -0.7790   20.5970  -31.0120 C   0  0  0  0  0  0  0  0  0  0  0  0
   -1.2400   20.5620  -32.7090 S   0  0  0  0  0  0  0  0  0  0  0  0
   -0.5260   19.4430  -33.4160 O   0  0  0  0  0  0  0  0  0  0  0  0
   -0.8520   21.8550  -33.3700 O   0  0  0  0  0  0  0  0  0  0  0  0
   -2.9800   20.3280  -32.8200 C   0  0  0  0  0  0  0  0  0  0  0  0
   -3.8250   21.4260  -33.0350 C   0  0  0  0  0  0  0  0  0  0  0  0
   -5.2090   21.2450  -33.0990 C   0  0  0  0  0  0  0  0  0  0  0  0
   -5.7660   19.9680  -32.9310 C   0  0  0  0  0  0  0  0  0  0  0  0
   -7.2490   19.7690  -33.0330 C   0  0  0  0  0  0  0  0  0  0  0  0
   -7.8420   19.8740  -31.7060 N   0  0  0  0  0  0  0  0  0  0  0  0
   -8.6730   20.9590  -31.2780 C   0  0  0  0  0  0  0  0  0  0  0  0
   -9.7930   21.1250  -31.8250 O   0  0  0  0  0  0  0  0  0  0  0  0
   -8.2340   21.8960  -30.2890 N   0  0  0  0  0  0  0  0  0  0  0  0
   -7.1480   22.8170  -30.4540 C   0  0  0  0  0  0  0  0  0  0  0  0
   -7.1330   23.7610  -31.5180 C   0  0  0  0  0  0  0  0  0  0  0  0
   -6.0480   24.6450  -31.6760 C   0  0  0  0  0  0  0  0  0  0  0  0
   -4.9980   24.5490  -30.7700 C   0  0  0  0  0  0  0  0  0  0  0  0
   -3.8710   25.2780  -30.7310 N   0  0  0  0  0  0  0  0  0  0  0  0
   -3.1520   24.8340  -29.7020 N   0  0  0  0  0  0  0  0  0  0  0  0
   -3.8200   23.8270  -29.0900 C   0  0  0  0  0  0  0  0  0  0  0  0
   -5.0020   23.6330  -29.7610 C   0  0  0  0  0  0  0  0  0  0  0  0
   -6.0530   22.7400  -29.5690 C   0  0  0  0  0  0  0  0  0  0  0  0
   -4.9170   18.8690  -32.7250 C   0  0  0  0  0  0  0  0  0  0  0  0
   -3.5320   19.0500  -32.6610 C   0  0  0  0  0  0  0  0  0  0  0  0
   -0.7390   21.8160  -30.3230 C   0  0  0  0  0  0  0  0  0  0  0  0
    0.8628   23.4772  -26.0694 H   0  0  0  0  0  0  0  0  0  0  0  0
    1.7729   22.6433  -27.3744 H   0  0  0  0  0  0  0  0  0  0  0  0
    1.6416   24.4348  -27.3744 H   0  0  0  0  0  0  0  0  0  0  0  0
    0.1540   20.6751  -27.2239 H   0  0  0  0  0  0  0  0  0  0  0  0
    0.0775   18.5021  -28.4459 H   0  0  0  0  0  0  0  0  0  0  0  0
   -0.5285   18.4451  -30.8661 H   0  0  0  0  0  0  0  0  0  0  0  0
   -3.3973   22.4325  -33.1536 H   0  0  0  0  0  0  0  0  0  0  0  0
   -5.8656   22.1083  -33.2821 H   0  0  0  0  0  0  0  0  0  0  0  0
   -7.6788   20.5399  -33.6895 H   0  0  0  0  0  0  0  0  0  0  0  0
   -7.4590   18.7741  -33.4525 H   0  0  0  0  0  0  0  0  0  0  0  0
   -7.9761   23.8009  -32.2235 H   0  0  0  0  0  0  0  0  0  0  0  0
   -6.0320   25.3862  -32.4887 H   0  0  0  0  0  0  0  0  0  0  0  0
   -3.4759   23.2637  -28.2101 H   0  0  0  0  0  0  0  0  0  0  0  0
   -6.0298   22.0002  -28.7552 H   0  0  0  0  0  0  0  0  0  0  0  0
   -5.3433   17.8611  -32.6135 H   0  0  0  0  0  0  0  0  0  0  0  0
   -2.8737   18.1864  -32.4853 H   0  0  0  0  0  0  0  0  0  0  0  0
   -0.9779   22.7511  -30.8508 H   0  0  0  0  0  0  0  0  0  0  0  0
  1  2  1  0
  2  3  2  0
  2  4  2  0
  2  5  1  0
  5  6  2  0
  6  7  1  0
  7  8  2  0
  8  9  1  0
  9 10  1  0
 10 11  2  0
 10 12  2  0
 10 13  1  0
 13 14  2  0
 14 15  1  0
 15 16  2  0
 16 17  1  0
 17 18  1  0
 18 19  1  0
 19 20  2  0
 19 21  1  0
 21 22  1  0
 22 23  2  0
 23 24  1  0
 24 25  2  0
 25 26  1  0
 26 27  1  0
 27 28  2  0
 28 29  1  0
 29 30  2  0
 16 31  1  0
 31 32  2  0
  9 33  2  0
 33  5  1  0
 32 13  1  0
 30 22  1  0
 29 25  1  0
  1 34  1  0
  1 35  1  0
  1 36  1  0
  6 37  1  0
  7 38  1  0
  8 39  1  0
 14 40  1  0
 15 41  1  0
 17 42  1  0
 17 43  1  0
 23 44  1  0
 24 45  1  0
 28 46  1  0
 30 47  1  0
 31 48  1  0
 32 49  1  0
 33 50  1  0
M  CHG  3  18  -1  21  -1  26  -1
M  END
>  <UniqueID>  (38) 
36

>  <SMILES>  (38) 
CS(=O)(=O)c1cccc(S(=O)(=O)c2ccc(C[N-]C(=O)[N-]c3ccc4[n-]ncc4c3)cc2)c1

>  <Energy>  (38) 
95.35375033805487

>  <Genealogy>  (38) 
CS(=O)(=O)c1cccc(S(=O)(=O)c2ccc(C[N-]C(=O)[N-]c3ccc4[n-]ncc4c3)cc2)c1 (protonated)
CS(=O)(=O)c1cccc(S(=O)(=O)c2ccc(C[N-]C(=O)[N-]c3ccc4[n-]ncc4c3)cc2)c1 (3D coordinates assigned)
CS(=O)(=O)c1cccc(S(=O)(=O)c2ccc(C[N-]C(=O)[N-]c3ccc4[n-]ncc4c3)cc2)c1 (optimized conformer: 95.35375033805487 kcal/mol)

>  <smiles>  (38) 
CS(=O)(=O)c1cccc(S(=O)(=O)c2ccc(CNC(=O)Nc3ccc4[nH]ncc4c3)cc2)c1

>  <score_type>  (38) 
oracle

>  <origin>  (38) 
adgpu

>  <m_score__min__energy>  (38) 
-12.970000000000001

>  <m_primary>  (38) 
energy

$$$$
38:0
     RDKit          3D

 41 43  0  0  0  0  0  0  0  0999 V2000
   -1.9840   25.4510  -28.9650 N   0  0  0  0  0  0  0  0  0  0  0  0
   -2.5820   24.5060  -29.6150 C   0  0  0  0  0  0  0  0  0  0  0  0
   -2.0610   23.2520  -29.6150 N   0  0  0  0  0  0  0  0  0  0  0  0
   -2.6680   22.2400  -30.2870 C   0  0  0  0  0  0  0  0  0  0  0  0
   -3.8520   22.4780  -31.0010 C   0  0  0  0  0  0  0  0  0  0  0  0
   -4.5350   21.3890  -31.7470 C   0  0  0  0  0  0  0  0  0  0  0  0
   -3.8240   20.5990  -32.6580 C   0  0  0  0  0  0  0  0  0  0  0  0
   -4.4620   19.5790  -33.3600 C   0  0  0  0  0  0  0  0  0  0  0  0
   -5.8350   19.3270  -33.1890 C   0  0  0  0  0  0  0  0  0  0  0  0
   -6.4850   18.2270  -34.0220 C   0  0  0  0  0  0  0  0  0  0  0  0
   -6.5590   16.8980  -33.3630 N   0  0  0  0  0  0  0  0  0  0  0  0
   -6.2680   15.7300  -34.2140 C   0  0  0  0  0  0  0  0  0  0  0  0
   -5.3600   14.8020  -33.4230 C   0  0  0  0  0  0  0  0  0  0  0  0
   -4.7270   15.6890  -32.3770 C   0  0  0  0  0  0  0  0  0  0  0  0
   -5.7590   16.7710  -32.1360 C   0  0  0  0  0  0  0  0  0  0  0  0
   -6.5570   20.1020  -32.2390 C   0  0  0  0  0  0  0  0  0  0  0  0
   -8.2620   19.7900  -31.8480 S   0  0  0  0  0  0  0  0  0  0  0  0
   -9.1870   19.7550  -33.3090 N   0  0  0  0  0  0  0  0  0  0  0  0
   -8.7950   20.8620  -30.9390 O   0  0  0  0  0  0  0  0  0  0  0  0
   -8.4060   18.4650  -31.1540 O   0  0  0  0  0  0  0  0  0  0  0  0
   -5.8980   21.1260  -31.5390 C   0  0  0  0  0  0  0  0  0  0  0  0
   -4.3680   23.7840  -30.9870 C   0  0  0  0  0  0  0  0  0  0  0  0
   -3.7280   24.7630  -30.2980 N   0  0  0  0  0  0  0  0  0  0  0  0
   -2.3620   26.4250  -28.9470 H   0  0  0  0  0  0  0  0  0  0  0  0
   -2.2302   21.2310  -30.2715 H   0  0  0  0  0  0  0  0  0  0  0  0
   -2.7522   20.7853  -32.8209 H   0  0  0  0  0  0  0  0  0  0  0  0
   -3.8819   18.9599  -34.0602 H   0  0  0  0  0  0  0  0  0  0  0  0
   -7.5098   18.5443  -34.2652 H   0  0  0  0  0  0  0  0  0  0  0  0
   -5.8455   18.0948  -34.9072 H   0  0  0  0  0  0  0  0  0  0  0  0
   -7.2030   15.2108  -34.4714 H   0  0  0  0  0  0  0  0  0  0  0  0
   -5.7807   16.0440  -35.1489 H   0  0  0  0  0  0  0  0  0  0  0  0
   -5.9434   13.9986  -32.9495 H   0  0  0  0  0  0  0  0  0  0  0  0
   -4.6113   14.3082  -34.0599 H   0  0  0  0  0  0  0  0  0  0  0  0
   -4.5302   15.1245  -31.4536 H   0  0  0  0  0  0  0  0  0  0  0  0
   -3.7569   16.0953  -32.6992 H   0  0  0  0  0  0  0  0  0  0  0  0
   -6.4069   16.4912  -31.2922 H   0  0  0  0  0  0  0  0  0  0  0  0
   -5.2704   17.7255  -31.8909 H   0  0  0  0  0  0  0  0  0  0  0  0
   -8.5570   20.0800  -34.0770 H   0  0  0  0  0  0  0  0  0  0  0  0
   -9.4120   18.7540  -33.5060 H   0  0  0  0  0  0  0  0  0  0  0  0
   -6.4605   21.7331  -30.8144 H   0  0  0  0  0  0  0  0  0  0  0  0
   -5.2931   24.0143  -31.5357 H   0  0  0  0  0  0  0  0  0  0  0  0
  1  2  2  3
  2  3  1  0
  3  4  2  0
  4  5  1  0
  5  6  1  0
  6  7  2  0
  7  8  1  0
  8  9  2  0
  9 10  1  0
 10 11  1  0
 11 12  1  0
 12 13  1  0
 13 14  1  0
 14 15  1  0
  9 16  1  0
 16 17  1  0
 17 18  1  0
 17 19  2  0
 17 20  2  0
 16 21  2  0
  5 22  2  0
 22 23  1  0
 23  2  1  0
 21  6  1  0
 15 11  1  0
  1 24  1  0
  4 25  1  0
  7 26  1  0
  8 27  1  0
 10 28  1  0
 10 29  1  0
 12 30  1  0
 12 31  1  0
 13 32  1  0
 13 33  1  0
 14 34  1  0
 14 35  1  0
 15 36  1  0
 15 37  1  0
 18 38  1  0
 18 39  1  0
 21 40  1  0
 22 41  1  0
M  CHG  1  23  -1
M  END
>  <UniqueID>  (39) 
37

>  <SMILES>  (39) 
N=c1ncc(-c2ccc(CN3CCCC3)c(S(N)(=O)=O)c2)c[n-]1

>  <Energy>  (39) 
58.39989362900551

>  <Genealogy>  (39) 
N=c1ncc(-c2ccc(CN3CCCC3)c(S(N)(=O)=O)c2)c[n-]1 (protonated)
N=c1ncc(-c2ccc(CN3CCCC3)c(S(N)(=O)=O)c2)c[n-]1 (3D coordinates assigned)
N=c1ncc(-c2ccc(CN3CCCC3)c(S(N)(=O)=O)c2)c[n-]1 (nonaromatic ring conformer: 58.39989362900551 kcal/mol)

>  <smiles>  (39) 
N=c1ncc(-c2ccc(CN3CCCC3)c(S(N)(=O)=O)c2)c[nH]1

>  <score_type>  (39) 
oracle

>  <origin>  (39) 
adgpu

>  <m_score__min__energy>  (39) 
-10

>  <m_primary>  (39) 
energy

$$$$
39:0
     RDKit          3D

 51 54  0  0  0  0  0  0  0  0999 V2000
    0.7230   20.2050  -32.5160 O   0  0  0  0  0  0  0  0  0  0  0  0
   -0.3790   20.7570  -32.7760 C   0  0  0  0  0  0  0  0  0  0  0  0
   -0.8850   21.8510  -31.8940 C   0  0  0  0  0  0  0  0  0  0  0  0
   -0.5420   21.4590  -30.1440 S   0  0  0  0  0  0  0  0  0  0  0  0
   -0.8150   23.1340  -29.5550 C   0  0  0  0  0  0  0  0  0  0  0  0
    0.1180   23.8590  -28.9120 N   0  0  0  0  0  0  0  0  0  0  0  0
   -0.5000   24.9790  -28.5590 N   0  0  0  0  0  0  0  0  0  0  0  0
   -1.7640   24.9450  -28.9530 N   0  0  0  0  0  0  0  0  0  0  0  0
   -1.9850   23.8030  -29.5820 N   0  0  0  0  0  0  0  0  0  0  0  0
   -3.2670   23.3780  -30.0760 C   0  0  0  0  0  0  0  0  0  0  0  0
   -3.6150   22.0160  -30.0860 C   0  0  0  0  0  0  0  0  0  0  0  0
   -4.8530   21.6050  -30.5870 C   0  0  0  0  0  0  0  0  0  0  0  0
   -5.7540   22.5480  -31.0870 C   0  0  0  0  0  0  0  0  0  0  0  0
   -5.4170   23.9030  -31.0890 C   0  0  0  0  0  0  0  0  0  0  0  0
   -4.1790   24.3230  -30.5890 C   0  0  0  0  0  0  0  0  0  0  0  0
   -3.8690   25.6780  -30.5900 O   0  0  0  0  0  0  0  0  0  0  0  0
   -1.1950   20.2950  -33.8590 N   0  0  0  0  0  0  0  0  0  0  0  0
   -2.0820   19.1660  -33.8380 C   0  0  0  0  0  0  0  0  0  0  0  0
   -3.4800   19.3250  -33.8470 C   0  0  0  0  0  0  0  0  0  0  0  0
   -4.3230   18.2070  -33.7770 C   0  0  0  0  0  0  0  0  0  0  0  0
   -6.0750   18.4190  -33.7540 S   0  0  0  0  0  0  0  0  0  0  0  0
   -6.4710   19.2940  -34.9110 O   0  0  0  0  0  0  0  0  0  0  0  0
   -6.7370   17.0820  -33.9430 O   0  0  0  0  0  0  0  0  0  0  0  0
   -6.6470   19.1390  -32.2620 N   0  0  0  0  0  0  0  0  0  0  0  0
   -7.3760   18.1820  -31.4040 C   0  0  0  0  0  0  0  0  0  0  0  0
   -8.9030   18.3450  -31.4860 C   0  0  0  0  0  0  0  0  0  0  0  0
   -9.2790   18.8480  -32.7480 O   0  0  0  0  0  0  0  0  0  0  0  0
   -8.8580   20.1910  -32.8690 C   0  0  0  0  0  0  0  0  0  0  0  0
   -7.3740   20.4030  -32.4870 C   0  0  0  0  0  0  0  0  0  0  0  0
   -3.7670   16.9230  -33.7030 C   0  0  0  0  0  0  0  0  0  0  0  0
   -2.3800   16.7600  -33.6760 C   0  0  0  0  0  0  0  0  0  0  0  0
   -1.5360   17.8770  -33.7340 C   0  0  0  0  0  0  0  0  0  0  0  0
   -0.1520   17.7130  -33.6930 O   0  0  0  0  0  0  0  0  0  0  0  0
   -0.3841   22.7935  -32.1602 H   0  0  0  0  0  0  0  0  0  0  0  0
   -1.9716   21.9510  -32.0333 H   0  0  0  0  0  0  0  0  0  0  0  0
   -2.9079   21.2687  -29.6968 H   0  0  0  0  0  0  0  0  0  0  0  0
   -5.1183   20.5375  -30.5876 H   0  0  0  0  0  0  0  0  0  0  0  0
   -6.7290   22.2232  -31.4792 H   0  0  0  0  0  0  0  0  0  0  0  0
   -6.1274   24.6435  -31.4852 H   0  0  0  0  0  0  0  0  0  0  0  0
   -3.9146   20.3336  -33.9094 H   0  0  0  0  0  0  0  0  0  0  0  0
   -7.1150   17.1605  -31.7177 H   0  0  0  0  0  0  0  0  0  0  0  0
   -7.0790   18.3801  -30.3635 H   0  0  0  0  0  0  0  0  0  0  0  0
   -9.3804   17.3664  -31.3295 H   0  0  0  0  0  0  0  0  0  0  0  0
   -9.2272   19.0537  -30.7097 H   0  0  0  0  0  0  0  0  0  0  0  0
   -8.9988   20.5085  -33.9127 H   0  0  0  0  0  0  0  0  0  0  0  0
   -9.4631   20.7867  -32.1697 H   0  0  0  0  0  0  0  0  0  0  0  0
   -6.8781   20.9517  -33.3012 H   0  0  0  0  0  0  0  0  0  0  0  0
   -7.3562   20.9640  -31.5410 H   0  0  0  0  0  0  0  0  0  0  0  0
   -4.4241   16.0416  -33.6661 H   0  0  0  0  0  0  0  0  0  0  0  0
   -1.9484   15.7504  -33.6089 H   0  0  0  0  0  0  0  0  0  0  0  0
    0.4740   18.5050  -33.6230 H   0  0  0  0  0  0  0  0  0  0  0  0
  1  2  2  0
  2  3  1  0
  3  4  1  0
  4  5  1  0
  5  6  2  0
  6  7  1  0
  7  8  2  0
  8  9  1  0
  9 10  1  0
 10 11  2  0
 11 12  1  0
 12 13  2  0
 13 14  1  0
 14 15  2  0
 15 16  1  0
  2 17  1  0
 17 18  1  0
 18 19  2  0
 19 20  1  0
 20 21  1  0
 21 22  2  0
 21 23  2  0
 21 24  1  0
 24 25  1  0
 25 26  1  0
 26 27  1  0
 27 28  1  0
 28 29  1  0
 20 30  2  0
 30 31  1  0
 31 32  2  0
 32 33  1  0
  9  5  1  0
 15 10  1  0
 32 18  1  0
 29 24  1  0
  3 34  1  0
  3 35  1  0
 11 36  1  0
 12 37  1  0
 13 38  1  0
 14 39  1  0
 19 40  1  0
 25 41  1  0
 25 42  1  0
 26 43  1  0
 26 44  1  0
 28 45  1  0
 28 46  1  0
 29 47  1  0
 29 48  1  0
 30 49  1  0
 31 50  1  0
 33 51  1  0
M  CHG  2  16  -1  17  -1
M  END
>  <UniqueID>  (40) 
38

>  <SMILES>  (40) 
O=C(CSc1nnnn1-c1ccccc1[O-])[N-]c1cc(S(=O)(=O)N2CCOCC2)ccc1O

>  <Energy>  (40) 
110.25321014002634

>  <Genealogy>  (40) 
O=C(CSc1nnnn1-c1ccccc1[O-])[N-]c1cc(S(=O)(=O)N2CCOCC2)ccc1O (protonated)
O=C(CSc1nnnn1-c1ccccc1[O-])[N-]c1cc(S(=O)(=O)N2CCOCC2)ccc1O (3D coordinates assigned)
O=C(CSc1nnnn1-c1ccccc1[O-])[N-]c1cc(S(=O)(=O)N2CCOCC2)ccc1O (nonaromatic ring conformer: 110.25321014002634 kcal/mol)

>  <smiles>  (40) 
O=C(CSc1nnnn1-c1ccccc1O)Nc1cc(S(=O)(=O)N2CCOCC2)ccc1O

>  <score_type>  (40) 
oracle

>  <origin>  (40) 
adgpu

>  <m_score__min__energy>  (40) 
-13.619999999999999

>  <m_primary>  (40) 
energy

$$$$
40:0
     RDKit          3D

 52 55  0  0  0  0  0  0  0  0999 V2000
   -0.7540   27.2790  -24.1950 C   0  0  0  0  0  0  0  0  0  0  0  0
   -1.3540   26.8120  -25.3990 O   0  0  0  0  0  0  0  0  0  0  0  0
   -1.1910   25.5190  -25.9170 C   0  0  0  0  0  0  0  0  0  0  0  0
   -0.6340   24.4710  -25.1650 C   0  0  0  0  0  0  0  0  0  0  0  0
   -0.4980   23.1970  -25.7210 C   0  0  0  0  0  0  0  0  0  0  0  0
   -0.9120   22.9470  -27.0440 C   0  0  0  0  0  0  0  0  0  0  0  0
   -0.8020   21.6720  -27.6260 O   0  0  0  0  0  0  0  0  0  0  0  0
   -1.8010   20.6600  -27.5500 C   0  0  0  0  0  0  0  0  0  0  0  0
   -1.4540   24.0010  -27.8070 C   0  0  0  0  0  0  0  0  0  0  0  0
   -1.9300   23.7600  -29.2140 C   0  0  0  0  0  0  0  0  0  0  0  0
   -2.6460   24.9390  -29.6880 N   0  0  0  0  0  0  0  0  0  0  0  0
   -3.8920   24.9080  -30.3950 C   0  0  0  0  0  0  0  0  0  0  0  0
   -4.5270   25.9850  -30.5510 O   0  0  0  0  0  0  0  0  0  0  0  0
   -4.4360   23.6650  -30.9750 C   0  0  0  0  0  0  0  0  0  0  0  0
   -3.5600   22.7340  -31.5880 C   0  0  0  0  0  0  0  0  0  0  0  0
   -4.0580   21.5480  -32.1590 C   0  0  0  0  0  0  0  0  0  0  0  0
   -5.4360   21.3340  -32.1140 C   0  0  0  0  0  0  0  0  0  0  0  0
   -6.2850   22.2350  -31.5390 C   0  0  0  0  0  0  0  0  0  0  0  0
   -5.8270   23.4190  -30.9660 C   0  0  0  0  0  0  0  0  0  0  0  0
   -7.5580   21.8080  -31.6220 N   0  0  0  0  0  0  0  0  0  0  0  0
   -7.4430   20.6140  -32.2590 C   0  0  0  0  0  0  0  0  0  0  0  0
   -6.1590   20.3030  -32.5870 N   0  0  0  0  0  0  0  0  0  0  0  0
   -5.6890   19.0990  -33.2750 C   0  0  0  0  0  0  0  0  0  0  0  0
   -6.1160   17.8300  -32.5240 C   0  0  0  0  0  0  0  0  0  0  0  0
   -7.5800   17.4080  -32.7730 C   0  0  0  0  0  0  0  0  0  0  0  0
   -8.6010   18.3040  -32.0490 C   0  0  0  0  0  0  0  0  0  0  0  0
   -8.6500   19.7600  -32.5690 C   0  0  0  0  0  0  0  0  0  0  0  0
   -1.6010   25.2740  -27.2310 C   0  0  0  0  0  0  0  0  0  0  0  0
   -1.2915   26.8607  -23.3312 H   0  0  0  0  0  0  0  0  0  0  0  0
    0.2981   26.9598  -24.1618 H   0  0  0  0  0  0  0  0  0  0  0  0
   -0.8052   28.3773  -24.1618 H   0  0  0  0  0  0  0  0  0  0  0  0
   -0.3031   24.6550  -24.1322 H   0  0  0  0  0  0  0  0  0  0  0  0
   -0.0645   22.3830  -25.1215 H   0  0  0  0  0  0  0  0  0  0  0  0
   -2.0193   20.4388  -26.4948 H   0  0  0  0  0  0  0  0  0  0  0  0
   -2.7168   21.0107  -28.0482 H   0  0  0  0  0  0  0  0  0  0  0  0
   -1.4385   19.7488  -28.0482 H   0  0  0  0  0  0  0  0  0  0  0  0
   -1.0657   23.5676  -29.8667 H   0  0  0  0  0  0  0  0  0  0  0  0
   -2.6011   22.8886  -29.2324 H   0  0  0  0  0  0  0  0  0  0  0  0
   -2.4800   22.9407  -31.6176 H   0  0  0  0  0  0  0  0  0  0  0  0
   -3.3836   20.8145  -32.6250 H   0  0  0  0  0  0  0  0  0  0  0  0
   -6.5272   24.1406  -30.5200 H   0  0  0  0  0  0  0  0  0  0  0  0
   -6.1139   19.0761  -34.2894 H   0  0  0  0  0  0  0  0  0  0  0  0
   -4.5901   19.1271  -33.3162 H   0  0  0  0  0  0  0  0  0  0  0  0
   -5.4609   17.0051  -32.8407 H   0  0  0  0  0  0  0  0  0  0  0  0
   -6.0307   18.0549  -31.4506 H   0  0  0  0  0  0  0  0  0  0  0  0
   -7.7783   17.4549  -33.8540 H   0  0  0  0  0  0  0  0  0  0  0  0
   -7.6988   16.3895  -32.3749 H   0  0  0  0  0  0  0  0  0  0  0  0
   -9.5994   17.8595  -32.1740 H   0  0  0  0  0  0  0  0  0  0  0  0
   -8.2853   18.3553  -30.9965 H   0  0  0  0  0  0  0  0  0  0  0  0
   -8.7647   19.7234  -33.6624 H   0  0  0  0  0  0  0  0  0  0  0  0
   -9.4922   20.2346  -32.0442 H   0  0  0  0  0  0  0  0  0  0  0  0
   -2.0447   26.0889  -27.8218 H   0  0  0  0  0  0  0  0  0  0  0  0
  1  2  1  0
  2  3  1  0
  3  4  2  0
  4  5  1  0
  5  6  2  0
  6  7  1  0
  7  8  1  0
  6  9  1  0
  9 10  1  0
 10 11  1  0
 11 12  1  0
 12 13  2  0
 12 14  1  0
 14 15  2  0
 15 16  1  0
 16 17  2  0
 17 18  1  0
 18 19  2  0
 18 20  1  0
 20 21  2  0
 21 22  1  0
 22 23  1  0
 23 24  1  0
 24 25  1  0
 25 26  1  0
 26 27  1  0
  9 28  2  0
 28  3  1  0
 19 14  1  0
 27 21  1  0
 22 17  1  0
  1 29  1  0
  1 30  1  0
  1 31  1  0
  4 32  1  0
  5 33  1  0
  8 34  1  0
  8 35  1  0
  8 36  1  0
 10 37  1  0
 10 38  1  0
 15 39  1  0
 16 40  1  0
 19 41  1  0
 23 42  1  0
 23 43  1  0
 24 44  1  0
 24 45  1  0
 25 46  1  0
 25 47  1  0
 26 48  1  0
 26 49  1  0
 27 50  1  0
 27 51  1  0
 28 52  1  0
M  CHG  1  11  -1
M  END
>  <UniqueID>  (41) 
39

>  <SMILES>  (41) 
COc1ccc(OC)c(C[N-]C(=O)c2ccc3c(c2)nc2n3CCCCC2)c1

>  <Energy>  (41) 
99.70731951701296

>  <Genealogy>  (41) 
COc1ccc(OC)c(C[N-]C(=O)c2ccc3c(c2)nc2n3CCCCC2)c1 (protonated)
COc1ccc(OC)c(C[N-]C(=O)c2ccc3c(c2)nc2n3CCCCC2)c1 (3D coordinates assigned)
COc1ccc(OC)c(C[N-]C(=O)c2ccc3c(c2)nc2n3CCCCC2)c1 (nonaromatic ring conformer: 99.70731951701296 kcal/mol)

>  <smiles>  (41) 
COc1ccc(OC)c(CNC(=O)c2ccc3c(c2)nc2n3CCCCC2)c1

>  <score_type>  (41) 
oracle

>  <origin>  (41) 
adgpu

>  <m_score__min__energy>  (41) 
-9.2400000000000002

>  <m_primary>  (41) 
energy

$$$$
41:0
     RDKit          3D

 65 68  0  0  1  0  0  0  0  0999 V2000
   -6.0020   24.7090  -30.3170 C   0  0  0  0  0  0  0  0  0  0  0  0
   -6.5910   23.3940  -30.3280 N   0  0  0  0  0  0  0  0  0  0  0  0
   -6.8150   22.7800  -31.9350 S   0  0  0  0  0  0  0  0  0  0  0  0
   -7.9480   23.5720  -32.5390 O   0  0  0  0  0  0  0  0  0  0  0  0
   -5.5530   23.0190  -32.7280 O   0  0  0  0  0  0  0  0  0  0  0  0
   -7.2400   21.0850  -31.9000 C   0  0  0  0  0  0  0  0  0  0  0  0
   -8.5090   20.6350  -31.5990 C   0  0  0  0  0  0  0  0  0  0  0  0
   -8.8450   19.2980  -31.5720 C   0  0  0  0  0  0  0  0  0  0  0  0
   -7.8680   18.3560  -31.8600 C   0  0  0  0  0  0  0  0  0  0  0  0
   -6.5830   18.7720  -32.1670 C   0  0  0  0  0  0  0  0  0  0  0  0
   -6.2800   20.1370  -32.1840 C   0  0  0  0  0  0  0  0  0  0  0  0
   -4.9330   20.4660  -32.5100 N   0  0  0  0  0  0  0  0  0  0  0  0
   -4.1340   21.1170  -31.7550 C   0  0  0  0  0  0  0  0  0  0  0  0
   -4.5750   21.5330  -30.5550 N   0  0  0  0  0  0  0  0  0  0  0  0
   -3.7280   22.2190  -29.7620 C   0  0  0  0  0  0  0  0  0  0  0  0
   -4.1930   22.5990  -28.6180 N   0  0  0  0  0  0  0  0  0  0  0  0
   -3.3300   23.3260  -27.7520 C   0  0  0  0  0  0  0  0  0  0  0  0
   -3.6510   24.5630  -27.2350 C   0  0  0  0  0  0  0  0  0  0  0  0
   -2.7980   25.2660  -26.3890 C   0  0  0  0  0  0  0  0  0  0  0  0
   -1.5790   24.7270  -26.0370 C   0  0  0  0  0  0  0  0  0  0  0  0
   -0.7190   25.4560  -25.1730 N   0  0  0  0  0  0  0  0  0  0  0  0
    0.3400   26.2340  -25.8320 C   0  0  0  0  0  0  0  0  0  0  0  0
    1.3110   26.7560  -24.7730 C   0  0  0  0  0  0  0  0  0  0  0  0
    0.4860   27.6250  -23.8560 C   0  0  0  0  0  0  0  0  0  0  0  0
    1.3440   28.4090  -22.8900 C   0  0  0  0  0  0  0  0  0  0  0  0
   -0.1880   28.5500  -24.6510 O   0  0  0  0  0  0  0  0  0  0  0  0
   -0.4580   26.7630  -23.0890 C   0  0  0  0  0  0  0  0  0  0  0  0
   -0.8240   25.4740  -23.7420 C   0  0  0  0  0  0  0  0  0  0  0  0
   -1.2700   23.4910  -26.5600 C   0  0  0  0  0  0  0  0  0  0  0  0
   -2.1160   22.7910  -27.4020 C   0  0  0  0  0  0  0  0  0  0  0  0
   -1.7580   21.5500  -27.9020 O   0  0  0  0  0  0  0  0  0  0  0  0
   -2.1440   20.3310  -27.2810 C   0  0  0  0  0  0  0  0  0  0  0  0
   -2.4860   22.4670  -30.1780 N   0  0  0  0  0  0  0  0  0  0  0  0
   -2.0050   22.0640  -31.3820 C   0  0  0  0  0  0  0  0  0  0  0  0
   -2.8540   21.3560  -32.2190 C   0  0  0  0  0  0  0  0  0  0  0  0
   -2.3340   20.7860  -33.7980 Cl  0  0  0  0  0  0  0  0  0  0  0  0
   -5.8554   25.0364  -29.2771 H   0  0  0  0  0  0  0  0  0  0  0  0
   -5.0308   24.6801  -30.8327 H   0  0  0  0  0  0  0  0  0  0  0  0
   -6.6702   25.4144  -30.8327 H   0  0  0  0  0  0  0  0  0  0  0  0
   -5.9890   22.7030  -29.8010 H   0  0  0  0  0  0  0  0  0  0  0  0
   -9.2884   21.3768  -31.3701 H   0  0  0  0  0  0  0  0  0  0  0  0
   -9.8701   18.9836  -31.3263 H   0  0  0  0  0  0  0  0  0  0  0  0
   -8.1127   17.2837  -31.8446 H   0  0  0  0  0  0  0  0  0  0  0  0
   -5.8033   18.0309  -32.3967 H   0  0  0  0  0  0  0  0  0  0  0  0
   -5.5570   21.3120  -30.2770 H   0  0  0  0  0  0  0  0  0  0  0  0
   -4.6192   25.0121  -27.5015 H   0  0  0  0  0  0  0  0  0  0  0  0
   -3.0965   26.2513  -26.0015 H   0  0  0  0  0  0  0  0  0  0  0  0
    0.8807   25.5917  -26.5427 H   0  0  0  0  0  0  0  0  0  0  0  0
   -0.1058   27.0805  -26.3749 H   0  0  0  0  0  0  0  0  0  0  0  0
    1.7538   25.9192  -24.2128 H   0  0  0  0  0  0  0  0  0  0  0  0
    2.1420   27.3171  -25.2253 H   0  0  0  0  0  0  0  0  0  0  0  0
    1.0628   28.1520  -21.8581 H   0  0  0  0  0  0  0  0  0  0  0  0
    2.4027   28.1598  -23.0544 H   0  0  0  0  0  0  0  0  0  0  0  0
    1.1910   29.4858  -23.0544 H   0  0  0  0  0  0  0  0  0  0  0  0
   -0.4870   29.3080  -24.0690 H   0  0  0  0  0  0  0  0  0  0  0  0
    0.0060   26.5318  -22.1188 H   0  0  0  0  0  0  0  0  0  0  0  0
   -1.3930   27.3367  -23.0075 H   0  0  0  0  0  0  0  0  0  0  0  0
   -0.1612   24.6918  -23.3435 H   0  0  0  0  0  0  0  0  0  0  0  0
   -1.8878   25.3111  -23.5147 H   0  0  0  0  0  0  0  0  0  0  0  0
   -0.3032   23.0380  -26.2954 H   0  0  0  0  0  0  0  0  0  0  0  0
   -2.1068   20.4485  -26.1879 H   0  0  0  0  0  0  0  0  0  0  0  0
   -3.1682   20.0717  -27.5873 H   0  0  0  0  0  0  0  0  0  0  0  0
   -1.4557   19.5295  -27.5873 H   0  0  0  0  0  0  0  0  0  0  0  0
   -1.8300   22.9910  -29.5800 H   0  0  0  0  0  0  0  0  0  0  0  0
   -0.9724   22.2924  -31.6845 H   0  0  0  0  0  0  0  0  0  0  0  0
  1  2  1  0
  2  3  1  0
  3  4  2  0
  3  5  2  0
  3  6  1  0
  6  7  2  0
  7  8  1  0
  8  9  2  0
  9 10  1  0
 10 11  2  0
 11 12  1  0
 12 13  2  0
 13 14  1  0
 14 15  1  0
 15 16  2  0
 16 17  1  0
 17 18  2  0
 18 19  1  0
 19 20  2  0
 20 21  1  0
 21 22  1  0
 22 23  1  0
 23 24  1  0
 24 25  1  0
 24 26  1  0
 24 27  1  0
 27 28  1  0
 20 29  1  0
 29 30  2  0
 30 31  1  0
 31 32  1  0
 15 33  1  0
 33 34  1  0
 34 35  2  0
 35 36  1  0
 11  6  1  0
 35 13  1  0
 30 17  1  0
 28 21  1  0
  1 37  1  0
  1 38  1  0
  1 39  1  0
  2 40  1  0
  7 41  1  0
  8 42  1  0
  9 43  1  0
 10 44  1  0
 14 45  1  0
 18 46  1  0
 19 47  1  0
 22 48  1  0
 22 49  1  0
 23 50  1  0
 23 51  1  0
 25 52  1  0
 25 53  1  0
 25 54  1  0
 26 55  1  0
 27 56  1  0
 27 57  1  0
 28 58  1  0
 28 59  1  0
 29 60  1  0
 32 61  1  0
 32 62  1  0
 32 63  1  0
 33 64  1  0
 34 65  1  0
M  END
>  <smiles>  (42) 
CNS(=O)(=O)c1ccccc1N=c1[nH]c(=Nc2ccc(N3CCC(C)(O)CC3)cc2OC)[nH]cc1Cl

>  <score_type>  (42) 
oracle

>  <origin>  (42) 
adgpu

>  <m_score__min__energy>  (42) 
-10.23

>  <m_primary>  (42) 
energy

$$$$
42:0
     RDKit          3D

 43 46  0  0  0  0  0  0  0  0999 V2000
   -2.7710   14.9680  -36.1920 O   0  0  0  0  0  0  0  0  0  0  0  0
   -3.5560   15.2650  -35.2530 C   0  0  0  0  0  0  0  0  0  0  0  0
   -4.3990   14.2830  -34.7420 O   0  0  0  0  0  0  0  0  0  0  0  0
   -3.5800   16.6340  -34.6980 C   0  0  0  0  0  0  0  0  0  0  0  0
   -2.3840   17.3940  -34.6190 C   0  0  0  0  0  0  0  0  0  0  0  0
   -2.3940   18.7010  -34.1010 C   0  0  0  0  0  0  0  0  0  0  0  0
   -3.6080   19.2270  -33.6700 C   0  0  0  0  0  0  0  0  0  0  0  0
   -4.7730   18.4970  -33.7360 C   0  0  0  0  0  0  0  0  0  0  0  0
   -4.7960   17.2010  -34.2460 C   0  0  0  0  0  0  0  0  0  0  0  0
   -5.8480   19.3280  -33.2070 C   0  0  0  0  0  0  0  0  0  0  0  0
   -7.0630   19.0020  -33.1530 O   0  0  0  0  0  0  0  0  0  0  0  0
   -5.3290   20.6010  -32.8010 N   0  0  0  0  0  0  0  0  0  0  0  0
   -6.0570   21.7100  -32.2440 C   0  0  0  0  0  0  0  0  0  0  0  0
   -7.4570   21.7620  -32.3390 C   0  0  0  0  0  0  0  0  0  0  0  0
   -8.1610   22.8350  -31.7870 C   0  0  0  0  0  0  0  0  0  0  0  0
   -7.4780   23.8600  -31.1310 C   0  0  0  0  0  0  0  0  0  0  0  0
   -6.0830   23.8170  -31.0220 C   0  0  0  0  0  0  0  0  0  0  0  0
   -5.2090   25.0660  -30.1370 S   0  0  0  0  0  0  0  0  0  0  0  0
   -5.4350   24.9240  -28.6580 O   0  0  0  0  0  0  0  0  0  0  0  0
   -5.7200   26.4070  -30.5820 O   0  0  0  0  0  0  0  0  0  0  0  0
   -3.5080   24.9690  -30.4690 N   0  0  0  0  0  0  0  0  0  0  0  0
   -2.5120   24.4780  -29.5600 C   0  0  0  0  0  0  0  0  0  0  0  0
   -1.6560   25.2820  -29.1110 O   0  0  0  0  0  0  0  0  0  0  0  0
   -2.4470   23.0620  -29.1510 C   0  0  0  0  0  0  0  0  0  0  0  0
   -2.0150   22.0700  -30.0420 C   0  0  0  0  0  0  0  0  0  0  0  0
   -1.9370   20.7400  -29.6230 C   0  0  0  0  0  0  0  0  0  0  0  0
   -2.3090   20.4120  -28.3190 C   0  0  0  0  0  0  0  0  0  0  0  0
   -2.7520   21.3790  -27.4730 N   0  0  0  0  0  0  0  0  0  0  0  0
   -2.8370   22.6810  -27.8580 C   0  0  0  0  0  0  0  0  0  0  0  0
   -5.3750   22.7480  -31.5890 C   0  0  0  0  0  0  0  0  0  0  0  0
   -3.9290   20.5290  -33.0950 C   0  0  0  0  0  0  0  0  0  0  0  0
   -3.0990   21.4430  -32.8470 O   0  0  0  0  0  0  0  0  0  0  0  0
   -1.4375   16.9550  -34.9674 H   0  0  0  0  0  0  0  0  0  0  0  0
   -1.4679   19.2913  -34.0382 H   0  0  0  0  0  0  0  0  0  0  0  0
   -5.7360   16.6319  -34.2963 H   0  0  0  0  0  0  0  0  0  0  0  0
   -8.0017   20.9545  -32.8502 H   0  0  0  0  0  0  0  0  0  0  0  0
   -9.2573   22.8720  -31.8697 H   0  0  0  0  0  0  0  0  0  0  0  0
   -8.0367   24.7032  -30.6988 H   0  0  0  0  0  0  0  0  0  0  0  0
   -1.7373   22.3391  -31.0718 H   0  0  0  0  0  0  0  0  0  0  0  0
   -1.5860   19.9593  -30.3139 H   0  0  0  0  0  0  0  0  0  0  0  0
   -2.2437   19.3692  -27.9751 H   0  0  0  0  0  0  0  0  0  0  0  0
   -3.2127   23.4376  -27.1534 H   0  0  0  0  0  0  0  0  0  0  0  0
   -4.2775   22.7222  -31.5203 H   0  0  0  0  0  0  0  0  0  0  0  0
  1  2  2  0
  2  3  1  0
  2  4  1  0
  4  5  2  0
  5  6  1  0
  6  7  2  0
  7  8  1  0
  8  9  2  0
  8 10  1  0
 10 11  2  0
 10 12  1  0
 12 13  1  0
 13 14  2  0
 14 15  1  0
 15 16  2  0
 16 17  1  0
 17 18  1  0
 18 19  2  0
 18 20  2  0
 18 21  1  0
 21 22  1  0
 22 23  2  0
 22 24  1  0
 24 25  2  0
 25 26  1  0
 26 27  2  0
 27 28  1  0
 28 29  2  0
 17 30  2  0
 12 31  1  0
 31 32  2  0
  9  4  1  0
 30 13  1  0
 31  7  1  0
 29 24  1  0
  5 33  1  0
  6 34  1  0
  9 35  1  0
 14 36  1  0
 15 37  1  0
 16 38  1  0
 25 39  1  0
 26 40  1  0
 27 41  1  0
 29 42  1  0
 30 43  1  0
M  CHG  2   3  -1  21  -1
M  END
>  <UniqueID>  (43) 
40

>  <SMILES>  (43) 
O=C([O-])c1ccc2c(c1)C(=O)N(c1cccc(S(=O)(=O)[N-]C(=O)c3cccnc3)c1)C2=O

>  <Energy>  (43) 
91.30794442165116

>  <Genealogy>  (43) 
O=C([O-])c1ccc2c(c1)C(=O)N(c1cccc(S(=O)(=O)[N-]C(=O)c3cccnc3)c1)C2=O (protonated)
O=C([O-])c1ccc2c(c1)C(=O)N(c1cccc(S(=O)(=O)[N-]C(=O)c3cccnc3)c1)C2=O (3D coordinates assigned)
O=C([O-])c1ccc2c(c1)C(=O)N(c1cccc(S(=O)(=O)[N-]C(=O)c3cccnc3)c1)C2=O (nonaromatic ring conformer: 91.30794442165116 kcal/mol)

>  <smiles>  (43) 
O=C(O)c1ccc2c(c1)C(=O)N(c1cccc(S(=O)(=O)NC(=O)c3cccnc3)c1)C2=O

>  <score_type>  (43) 
oracle

>  <origin>  (43) 
adgpu

>  <m_score__min__energy>  (43) 
-10.970000000000001

>  <m_primary>  (43) 
energy

$$$$
43:0
     RDKit          3D

 47 50  0  0  0  0  0  0  0  0999 V2000
   -0.9770   24.9205  -27.4450 H   0  0  0  0  0  0  0  0  0  0  0  0
   -1.8260   24.7410  -28.1210 C   0  0  0  0  0  0  0  0  0  0  0  0
   -1.9930   25.2900  -29.3050 O   0  0  0  0  0  0  0  0  0  0  0  0
   -3.0940   24.8830  -29.8690 N   0  0  0  0  0  0  0  0  0  0  0  0
   -3.6630   24.0280  -28.9980 C   0  0  0  0  0  0  0  0  0  0  0  0
   -4.7890   23.4150  -29.1960 N   0  0  0  0  0  0  0  0  0  0  0  0
   -5.7320   23.6020  -30.6390 S   0  0  0  0  0  0  0  0  0  0  0  0
   -5.4250   24.9260  -31.2830 O   0  0  0  0  0  0  0  0  0  0  0  0
   -7.1910   23.5790  -30.2810 O   0  0  0  0  0  0  0  0  0  0  0  0
   -5.3800   22.2820  -31.7480 C   0  0  0  0  0  0  0  0  0  0  0  0
   -4.3080   22.3770  -32.6430 C   0  0  0  0  0  0  0  0  0  0  0  0
   -3.7075   23.2978  -32.6829 H   0  0  0  0  0  0  0  0  0  0  0  0
   -3.9980   21.3080  -33.4850 C   0  0  0  0  0  0  0  0  0  0  0  0
   -3.1631   21.3954  -34.1959 H   0  0  0  0  0  0  0  0  0  0  0  0
   -4.7470   20.1210  -33.4290 C   0  0  0  0  0  0  0  0  0  0  0  0
   -4.4090   19.0170  -34.2270 O   0  0  0  0  0  0  0  0  0  0  0  0
   -3.7360   17.8800  -33.7550 C   0  0  0  0  0  0  0  0  0  0  0  0
   -4.4900   16.7370  -33.4690 C   0  0  0  0  0  0  0  0  0  0  0  0
   -5.5811   16.7544  -33.6072 H   0  0  0  0  0  0  0  0  0  0  0  0
   -3.8680   15.5730  -33.0090 C   0  0  0  0  0  0  0  0  0  0  0  0
   -4.4677   14.6744  -32.8020 H   0  0  0  0  0  0  0  0  0  0  0  0
   -2.4860   15.5500  -32.8120 C   0  0  0  0  0  0  0  0  0  0  0  0
   -1.7090   14.0910  -32.2230 Cl  0  0  0  0  0  0  0  0  0  0  0  0
   -1.7240   16.6940  -33.0640 C   0  0  0  0  0  0  0  0  0  0  0  0
   -0.6378   16.6750  -32.8914 H   0  0  0  0  0  0  0  0  0  0  0  0
   -2.3340   17.8680  -33.5360 C   0  0  0  0  0  0  0  0  0  0  0  0
   -1.5130   19.0920  -33.7060 C   0  0  0  0  0  0  0  0  0  0  0  0
   -0.8980   19.3220  -34.9510 C   0  0  0  0  0  0  0  0  0  0  0  0
   -1.0522   18.6099  -35.7751 H   0  0  0  0  0  0  0  0  0  0  0  0
   -0.0940   20.4460  -35.1490 C   0  0  0  0  0  0  0  0  0  0  0  0
    0.3926   20.6087  -36.1220 H   0  0  0  0  0  0  0  0  0  0  0  0
    0.0930   21.3620  -34.1160 C   0  0  0  0  0  0  0  0  0  0  0  0
    0.7257   22.2477  -34.2749 H   0  0  0  0  0  0  0  0  0  0  0  0
   -0.5220   21.1570  -32.8790 C   0  0  0  0  0  0  0  0  0  0  0  0
   -0.3868   21.8953  -32.0749 H   0  0  0  0  0  0  0  0  0  0  0  0
   -1.3120   20.0170  -32.6510 C   0  0  0  0  0  0  0  0  0  0  0  0
   -1.9420   19.8360  -31.2950 C   0  0  0  0  0  0  0  0  0  0  0  0
   -1.1980   20.0498  -30.5135 H   0  0  0  0  0  0  0  0  0  0  0  0
   -2.7921   20.5262  -31.1906 H   0  0  0  0  0  0  0  0  0  0  0  0
   -2.2961   18.7998  -31.1906 H   0  0  0  0  0  0  0  0  0  0  0  0
   -5.8470   20.0390  -32.5590 C   0  0  0  0  0  0  0  0  0  0  0  0
   -6.6350   18.8340  -32.4890 C   0  0  0  0  0  0  0  0  0  0  0  0
   -7.2650   17.8650  -32.4320 N   0  0  0  0  0  0  0  0  0  0  0  0
   -6.1520   21.1130  -31.7120 C   0  0  0  0  0  0  0  0  0  0  0  0
   -7.0007   21.0381  -31.0162 H   0  0  0  0  0  0  0  0  0  0  0  0
   -2.8920   23.9030  -27.8680 C   0  0  0  0  0  0  0  0  0  0  0  0
   -3.0792   23.2848  -26.9776 H   0  0  0  0  0  0  0  0  0  0  0  0
  1  2  1  0
  2  3  1  0
  3  4  1  0
  4  5  1  0
  5  6  2  0
  6  7  1  0
  7  8  2  0
  7  9  2  0
  7 10  1  0
 10 11  2  0
 11 12  1  0
 11 13  1  0
 13 14  1  0
 13 15  2  0
 15 16  1  0
 16 17  1  0
 17 18  2  0
 18 19  1  0
 18 20  1  0
 20 21  1  0
 20 22  2  0
 22 23  1  0
 22 24  1  0
 24 25  1  0
 24 26  2  0
 26 27  1  0
 27 28  2  0
 28 29  1  0
 28 30  1  0
 30 31  1  0
 30 32  2  0
 32 33  1  0
 32 34  1  0
 34 35  1  0
 34 36  2  0
 36 37  1  0
 37 38  1  0
 37 39  1  0
 37 40  1  0
 15 41  1  0
 41 42  1  0
 42 43  3  0
 41 44  2  0
 44 45  1  0
  5 46  1  0
 46 47  1  0
 46  2  2  0
 44 10  1  0
 26 17  1  0
 36 27  1  0
M  CHG  1   4  -1
M  END
>  <UniqueID>  (44) 
41

>  <SMILES>  (44) 
Cc1ccccc1-c1cc(Cl)ccc1Oc1ccc(S(=O)(=O)/N=c2/cco[n-]2)cc1C#N

>  <Energy>  (44) 
95.1578122962731

>  <Genealogy>  (44) 
Cc1ccccc1-c1cc(Cl)ccc1Oc1ccc(S(=O)(=O)N=c2cco[n-]2)cc1C#N (protonated)
Cc1ccccc1-c1cc(Cl)ccc1Oc1ccc(S(=O)(=O)/N=c2/cco[n-]2)cc1C#N (cis-trans isomerization)
Cc1ccccc1-c1cc(Cl)ccc1Oc1ccc(S(=O)(=O)/N=c2/cco[n-]2)cc1C#N (3D coordinates assigned)
Cc1ccccc1-c1cc(Cl)ccc1Oc1ccc(S(=O)(=O)/N=c2/cco[n-]2)cc1C#N (optimized conformer: 95.1578122962731 kcal/mol)

>  <smiles>  (44) 
Cc1ccccc1-c1cc(Cl)ccc1Oc1ccc(S(=O)(=O)N=c2cco[nH]2)cc1C#N

>  <score_type>  (44) 
oracle

>  <origin>  (44) 
adgpu

>  <m_score__min__energy>  (44) 
-11.31

>  <m_primary>  (44) 
energy

$$$$
44:0
     RDKit          3D

 38 40  0  0  0  0  0  0  0  0999 V2000
   -6.1940   16.7470  -33.8570 C   0  0  0  0  0  0  0  0  0  0  0  0
   -6.7130   17.8330  -32.9520 C   0  0  0  0  0  0  0  0  0  0  0  0
   -6.7960   17.5400  -31.7430 O   0  0  0  0  0  0  0  0  0  0  0  0
   -7.0770   19.0980  -33.4670 N   0  0  0  0  0  0  0  0  0  0  0  0
   -7.5700   20.1860  -32.7340 C   0  0  0  0  0  0  0  0  0  0  0  0
   -8.8900   20.4550  -32.4690 C   0  0  0  0  0  0  0  0  0  0  0  0
   -9.3040   21.5580  -31.7240 C   0  0  0  0  0  0  0  0  0  0  0  0
   -8.3830   22.4500  -31.2050 C   0  0  0  0  0  0  0  0  0  0  0  0
   -7.0520   22.1690  -31.4770 C   0  0  0  0  0  0  0  0  0  0  0  0
   -6.0310   23.0660  -30.9570 C   0  0  0  0  0  0  0  0  0  0  0  0
   -5.3990   24.0610  -31.6000 N   0  0  0  0  0  0  0  0  0  0  0  0
   -4.5400   24.6370  -30.7690 N   0  0  0  0  0  0  0  0  0  0  0  0
   -4.6480   23.9790  -29.5870 C   0  0  0  0  0  0  0  0  0  0  0  0
   -3.8410   24.3200  -28.3670 C   0  0  0  0  0  0  0  0  0  0  0  0
   -2.4450   23.8110  -28.5910 C   0  0  0  0  0  0  0  0  0  0  0  0
   -2.0490   22.4760  -28.4850 C   0  0  0  0  0  0  0  0  0  0  0  0
   -2.9070   21.3030  -28.1370 C   0  0  0  0  0  0  0  0  0  0  0  0
   -0.7410   22.4340  -28.7570 N   0  0  0  0  0  0  0  0  0  0  0  0
   -0.2810   23.6470  -29.0270 N   0  0  0  0  0  0  0  0  0  0  0  0
   -1.3150   24.4920  -28.9280 C   0  0  0  0  0  0  0  0  0  0  0  0
   -1.2320   25.7300  -29.1230 O   0  0  0  0  0  0  0  0  0  0  0  0
   -5.5520   23.0410  -29.7310 O   0  0  0  0  0  0  0  0  0  0  0  0
   -6.6480   21.0810  -32.2130 C   0  0  0  0  0  0  0  0  0  0  0  0
   -5.7989   15.9202  -33.2484 H   0  0  0  0  0  0  0  0  0  0  0  0
   -7.0124   16.3765  -34.4918 H   0  0  0  0  0  0  0  0  0  0  0  0
   -5.3916   17.1510  -34.4918 H   0  0  0  0  0  0  0  0  0  0  0  0
   -6.9520   19.2010  -34.5210 H   0  0  0  0  0  0  0  0  0  0  0  0
   -9.6551   19.7694  -32.8622 H   0  0  0  0  0  0  0  0  0  0  0  0
  -10.3772   21.7212  -31.5465 H   0  0  0  0  0  0  0  0  0  0  0  0
   -8.6867   23.3266  -30.6140 H   0  0  0  0  0  0  0  0  0  0  0  0
   -3.8242   25.4101  -28.2207 H   0  0  0  0  0  0  0  0  0  0  0  0
   -4.2816   23.8597  -27.4704 H   0  0  0  0  0  0  0  0  0  0  0  0
   -2.9749   21.2101  -27.0430 H   0  0  0  0  0  0  0  0  0  0  0  0
   -3.9137   21.4480  -28.5559 H   0  0  0  0  0  0  0  0  0  0  0  0
   -2.4639   20.3875  -28.5559 H   0  0  0  0  0  0  0  0  0  0  0  0
   -0.1840   21.5580  -28.7500 H   0  0  0  0  0  0  0  0  0  0  0  0
    0.7070   23.9160  -29.2760 H   0  0  0  0  0  0  0  0  0  0  0  0
   -5.5750   20.9174  -32.3918 H   0  0  0  0  0  0  0  0  0  0  0  0
  1  2  1  0
  2  3  2  0
  2  4  1  0
  4  5  1  0
  5  6  2  0
  6  7  1  0
  7  8  2  0
  8  9  1  0
  9 10  1  0
 10 11  2  0
 11 12  1  0
 12 13  2  0
 13 14  1  0
 14 15  1  0
 15 16  2  0
 16 17  1  0
 16 18  1  0
 18 19  1  0
 19 20  1  0
 20 21  2  0
 13 22  1  0
  9 23  2  0
 23  5  1  0
 22 10  1  0
 20 15  1  0
  1 24  1  0
  1 25  1  0
  1 26  1  0
  4 27  1  0
  6 28  1  0
  7 29  1  0
  8 30  1  0
 14 31  1  0
 14 32  1  0
 17 33  1  0
 17 34  1  0
 17 35  1  0
 18 36  1  0
 19 37  1  0
 23 38  1  0
M  END
>  <smiles>  (45) 
CC(=O)Nc1cccc(-c2nnc(Cc3c(C)[nH][nH]c3=O)o2)c1

>  <score_type>  (45) 
oracle

>  <origin>  (45) 
adgpu

>  <m_score__min__energy>  (45) 
-8.8399999999999999

>  <m_primary>  (45) 
energy

$$$$
45:0
     RDKit          3D

 59 62  0  0  0  0  0  0  0  0999 V2000
   -5.5340   26.2570  -30.4350 O   0  0  0  0  0  0  0  0  0  0  0  0
   -4.9990   25.1290  -30.6020 C   0  0  0  0  0  0  0  0  0  0  0  0
   -3.5770   25.0230  -30.4710 N   0  0  0  0  0  0  0  0  0  0  0  0
   -2.8760   24.2400  -29.4960 C   0  0  0  0  0  0  0  0  0  0  0  0
   -1.4970   24.0550  -29.6470 C   0  0  0  0  0  0  0  0  0  0  0  0
   -0.7650   23.3680  -28.6760 C   0  0  0  0  0  0  0  0  0  0  0  0
   -1.4040   22.8520  -27.5410 C   0  0  0  0  0  0  0  0  0  0  0  0
   -0.4710   22.0150  -26.2990 S   0  0  0  0  0  0  0  0  0  0  0  0
    0.9930   22.2770  -26.5220 O   0  0  0  0  0  0  0  0  0  0  0  0
   -0.8360   22.5830  -24.9540 O   0  0  0  0  0  0  0  0  0  0  0  0
   -0.7520   20.2880  -26.2900 N   0  0  0  0  0  0  0  0  0  0  0  0
   -2.0020   19.9070  -25.5900 C   0  0  0  0  0  0  0  0  0  0  0  0
   -2.9590   19.0640  -26.4410 C   0  0  0  0  0  0  0  0  0  0  0  0
   -3.0920   19.6650  -27.8360 C   0  0  0  0  0  0  0  0  0  0  0  0
   -1.7390   19.7400  -28.5540 C   0  0  0  0  0  0  0  0  0  0  0  0
   -0.5260   19.6570  -27.6050 C   0  0  0  0  0  0  0  0  0  0  0  0
   -2.7830   23.0510  -27.3780 C   0  0  0  0  0  0  0  0  0  0  0  0
   -3.5160   23.7370  -28.3490 C   0  0  0  0  0  0  0  0  0  0  0  0
   -5.8400   23.9760  -31.0020 C   0  0  0  0  0  0  0  0  0  0  0  0
   -7.2280   24.1400  -31.1420 C   0  0  0  0  0  0  0  0  0  0  0  0
   -8.0190   23.0910  -31.6110 C   0  0  0  0  0  0  0  0  0  0  0  0
   -7.4360   21.8730  -31.9670 C   0  0  0  0  0  0  0  0  0  0  0  0
   -8.2230   20.8910  -32.4720 F   0  0  0  0  0  0  0  0  0  0  0  0
   -6.0500   21.6860  -31.8260 C   0  0  0  0  0  0  0  0  0  0  0  0
   -5.2880   20.1810  -32.3570 S   0  0  0  0  0  0  0  0  0  0  0  0
   -5.8070   19.8320  -33.7260 O   0  0  0  0  0  0  0  0  0  0  0  0
   -5.6770   19.0730  -31.4140 O   0  0  0  0  0  0  0  0  0  0  0  0
   -3.5480   20.3300  -32.4300 N   0  0  0  0  0  0  0  0  0  0  0  0
   -3.1580   21.2390  -33.5190 C   0  0  0  0  0  0  0  0  0  0  0  0
   -1.6410   21.5220  -33.4830 C   0  0  0  0  0  0  0  0  0  0  0  0
   -0.9930   20.7770  -32.4700 O   0  0  0  0  0  0  0  0  0  0  0  0
   -1.5330   21.1170  -31.2090 C   0  0  0  0  0  0  0  0  0  0  0  0
   -3.0480   20.8380  -31.1410 C   0  0  0  0  0  0  0  0  0  0  0  0
   -5.2600   22.7370  -31.3280 C   0  0  0  0  0  0  0  0  0  0  0  0
   -0.9864   24.4532  -30.5362 H   0  0  0  0  0  0  0  0  0  0  0  0
    0.3191   23.2313  -28.8031 H   0  0  0  0  0  0  0  0  0  0  0  0
   -1.7343   19.3281  -24.6938 H   0  0  0  0  0  0  0  0  0  0  0  0
   -2.5294   20.8414  -25.3476 H   0  0  0  0  0  0  0  0  0  0  0  0
   -2.5662   18.0398  -26.5226 H   0  0  0  0  0  0  0  0  0  0  0  0
   -3.9485   19.0498  -25.9606 H   0  0  0  0  0  0  0  0  0  0  0  0
   -3.7760   19.0404  -28.4293 H   0  0  0  0  0  0  0  0  0  0  0  0
   -3.4817   20.6884  -27.7322 H   0  0  0  0  0  0  0  0  0  0  0  0
   -1.6785   18.9055  -29.2682 H   0  0  0  0  0  0  0  0  0  0  0  0
   -1.6925   20.7213  -29.0488 H   0  0  0  0  0  0  0  0  0  0  0  0
   -0.2846   18.5961  -27.4433 H   0  0  0  0  0  0  0  0  0  0  0  0
    0.2951   20.2079  -28.0869 H   0  0  0  0  0  0  0  0  0  0  0  0
   -3.2895   22.6649  -26.4811 H   0  0  0  0  0  0  0  0  0  0  0  0
   -4.5980   23.8844  -28.2162 H   0  0  0  0  0  0  0  0  0  0  0  0
   -7.6940   25.1014  -30.8802 H   0  0  0  0  0  0  0  0  0  0  0  0
   -9.1072   23.2239  -31.7008 H   0  0  0  0  0  0  0  0  0  0  0  0
   -3.4155   20.7770  -34.4835 H   0  0  0  0  0  0  0  0  0  0  0  0
   -3.6962   22.1900  -33.3930 H   0  0  0  0  0  0  0  0  0  0  0  0
   -1.2052   21.2537  -34.4567 H   0  0  0  0  0  0  0  0  0  0  0  0
   -1.4969   22.5910  -33.2674 H   0  0  0  0  0  0  0  0  0  0  0  0
   -1.0265   20.5241  -30.4332 H   0  0  0  0  0  0  0  0  0  0  0  0
   -1.3760   22.1939  -31.0488 H   0  0  0  0  0  0  0  0  0  0  0  0
   -3.2413   20.0886  -30.3593 H   0  0  0  0  0  0  0  0  0  0  0  0
   -3.5682   21.7790  -30.9088 H   0  0  0  0  0  0  0  0  0  0  0  0
   -4.1785   22.5888  -31.1921 H   0  0  0  0  0  0  0  0  0  0  0  0
  1  2  2  0
  2  3  1  0
  3  4  1  0
  4  5  2  0
  5  6  1  0
  6  7  2  0
  7  8  1  0
  8  9  2  0
  8 10  2  0
  8 11  1  0
 11 12  1  0
 12 13  1  0
 13 14  1  0
 14 15  1  0
 15 16  1  0
  7 17  1  0
 17 18  2  0
  2 19  1  0
 19 20  2  0
 20 21  1  0
 21 22  2  0
 22 23  1  0
 22 24  1  0
 24 25  1  0
 25 26  2  0
 25 27  2  0
 25 28  1  0
 28 29  1  0
 29 30  1  0
 30 31  1  0
 31 32  1  0
 32 33  1  0
 24 34  2  0
 18  4  1  0
 34 19  1  0
 16 11  1  0
 33 28  1  0
  5 35  1  0
  6 36  1  0
 12 37  1  0
 12 38  1  0
 13 39  1  0
 13 40  1  0
 14 41  1  0
 14 42  1  0
 15 43  1  0
 15 44  1  0
 16 45  1  0
 16 46  1  0
 17 47  1  0
 18 48  1  0
 20 49  1  0
 21 50  1  0
 29 51  1  0
 29 52  1  0
 30 53  1  0
 30 54  1  0
 32 55  1  0
 32 56  1  0
 33 57  1  0
 33 58  1  0
 34 59  1  0
M  CHG  1   3  -1
M  END
>  <UniqueID>  (46) 
42

>  <SMILES>  (46) 
O=C([N-]c1ccc(S(=O)(=O)N2CCCCC2)cc1)c1ccc(F)c(S(=O)(=O)N2CCOCC2)c1

>  <Energy>  (46) 
80.5554656608616

>  <Genealogy>  (46) 
O=C([N-]c1ccc(S(=O)(=O)N2CCCCC2)cc1)c1ccc(F)c(S(=O)(=O)N2CCOCC2)c1 (protonated)
O=C([N-]c1ccc(S(=O)(=O)N2CCCCC2)cc1)c1ccc(F)c(S(=O)(=O)N2CCOCC2)c1 (3D coordinates assigned)
O=C([N-]c1ccc(S(=O)(=O)N2CCCCC2)cc1)c1ccc(F)c(S(=O)(=O)N2CCOCC2)c1 (nonaromatic ring conformer: 80.5554656608616 kcal/mol)

>  <smiles>  (46) 
O=C(Nc1ccc(S(=O)(=O)N2CCCCC2)cc1)c1ccc(F)c(S(=O)(=O)N2CCOCC2)c1

>  <score_type>  (46) 
oracle

>  <origin>  (46) 
adgpu

>  <m_score__min__energy>  (46) 
-12.460000000000001

>  <m_primary>  (46) 
energy

$$$$
46:0
     RDKit          3D

 36 38  0  0  0  0  0  0  0  0999 V2000
  -10.0690   18.4650  -31.4880 H   0  0  0  0  0  0  0  0  0  0  0  0
   -9.1410   18.0030  -31.6050 N   0  0  0  0  0  0  0  0  0  0  0  0
   -8.0500   18.6270  -31.9370 C   0  0  0  0  0  0  0  0  0  0  0  0
   -8.0370   20.0220  -32.1680 C   0  0  0  0  0  0  0  0  0  0  0  0
   -9.4840   21.0080  -31.9380 Cl  0  0  0  0  0  0  0  0  0  0  0  0
   -6.8250   20.6380  -32.5390 C   0  0  0  0  0  0  0  0  0  0  0  0
   -6.7480   22.0120  -32.7960 O   0  0  0  0  0  0  0  0  0  0  0  0
   -6.4240   22.9840  -31.8360 C   0  0  0  0  0  0  0  0  0  0  0  0
   -7.4490   23.5000  -31.0370 C   0  0  0  0  0  0  0  0  0  0  0  0
   -8.4778   23.1315  -31.1624 H   0  0  0  0  0  0  0  0  0  0  0  0
   -7.1750   24.4800  -30.0810 C   0  0  0  0  0  0  0  0  0  0  0  0
   -7.9894   24.8899  -29.4655 H   0  0  0  0  0  0  0  0  0  0  0  0
   -5.8670   24.9410  -29.9050 C   0  0  0  0  0  0  0  0  0  0  0  0
   -5.6591   25.7259  -29.1629 H   0  0  0  0  0  0  0  0  0  0  0  0
   -4.8210   24.4100  -30.6670 C   0  0  0  0  0  0  0  0  0  0  0  0
   -3.4960   24.9230  -30.4670 N   0  0  0  0  0  0  0  0  0  0  0  0
   -2.6520   24.6950  -29.3320 C   0  0  0  0  0  0  0  0  0  0  0  0
   -1.9090   25.6160  -28.8980 O   0  0  0  0  0  0  0  0  0  0  0  0
   -2.5950   23.3660  -28.6920 C   0  0  0  0  0  0  0  0  0  0  0  0
   -3.9540   22.4590  -28.2830 S   0  0  0  0  0  0  0  0  0  0  0  0
   -3.0680   21.1790  -27.6570 C   0  0  0  0  0  0  0  0  0  0  0  0
   -3.5083   20.2670  -27.2274 H   0  0  0  0  0  0  0  0  0  0  0  0
   -1.7420   21.4180  -27.7510 N   0  0  0  0  0  0  0  0  0  0  0  0
   -1.4650   22.6220  -28.3210 C   0  0  0  0  0  0  0  0  0  0  0  0
   -0.0490   23.0660  -28.5170 C   0  0  0  0  0  0  0  0  0  0  0  0
    0.4274   23.2154  -27.5368 H   0  0  0  0  0  0  0  0  0  0  0  0
    0.5018   22.2974  -29.0791 H   0  0  0  0  0  0  0  0  0  0  0  0
   -0.0356   24.0114  -29.0791 H   0  0  0  0  0  0  0  0  0  0  0  0
   -5.1040   23.4400  -31.6470 C   0  0  0  0  0  0  0  0  0  0  0  0
   -4.2910   23.0360  -32.2682 H   0  0  0  0  0  0  0  0  0  0  0  0
   -5.6620   19.8730  -32.6300 C   0  0  0  0  0  0  0  0  0  0  0  0
   -4.7056   20.3505  -32.8894 H   0  0  0  0  0  0  0  0  0  0  0  0
   -5.7170   18.5020  -32.3910 C   0  0  0  0  0  0  0  0  0  0  0  0
   -4.8030   17.8951  -32.4705 H   0  0  0  0  0  0  0  0  0  0  0  0
   -6.8950   17.9110  -32.0600 N   0  0  0  0  0  0  0  0  0  0  0  0
   -6.9040   16.8800  -31.8900 H   0  0  0  0  0  0  0  0  0  0  0  0
  1  2  1  0
  2  3  2  0
  3  4  1  0
  4  5  1  0
  4  6  2  0
  6  7  1  0
  7  8  1  0
  8  9  2  0
  9 10  1  0
  9 11  1  0
 11 12  1  0
 11 13  2  0
 13 14  1  0
 13 15  1  0
 15 16  1  0
 16 17  1  0
 17 18  2  0
 17 19  1  0
 19 20  1  0
 20 21  1  0
 21 22  1  0
 21 23  2  0
 23 24  1  0
 24 25  1  0
 25 26  1  0
 25 27  1  0
 25 28  1  0
 15 29  2  0
 29 30  1  0
  6 31  1  0
 31 32  1  0
 31 33  2  0
 33 34  1  0
 33 35  1  0
 35 36  1  0
 35  3  1  0
 29  8  1  0
 24 19  2  0
M  CHG  1  16  -1
M  END
>  <UniqueID>  (47) 
43

>  <SMILES>  (47) 
[H]/N=c1/[nH]ccc(Oc2cccc([N-]C(=O)c3scnc3C)c2)c1Cl

>  <Energy>  (47) 
82.18110309986218

>  <Genealogy>  (47) 
Cc1ncsc1C(=O)[N-]c1cccc(Oc2cc[nH]c(=N)c2Cl)c1 (protonated)
[H]/N=c1/[nH]ccc(Oc2cccc([N-]C(=O)c3scnc3C)c2)c1Cl (cis-trans isomerization)
[H]/N=c1/[nH]ccc(Oc2cccc([N-]C(=O)c3scnc3C)c2)c1Cl (3D coordinates assigned)
[H]/N=c1/[nH]ccc(Oc2cccc([N-]C(=O)c3scnc3C)c2)c1Cl (optimized conformer: 82.18110309986218 kcal/mol)

>  <smiles>  (47) 
Cc1ncsc1C(=O)Nc1cccc(Oc2cc[nH]c(=N)c2Cl)c1

>  <score_type>  (47) 
oracle

>  <origin>  (47) 
adgpu

>  <m_score__min__energy>  (47) 
-9.6500000000000004

>  <m_primary>  (47) 
energy

$$$$
47:0
     RDKit          3D

 58 61  0  0  0  0  0  0  0  0999 V2000
    0.1150   22.9330  -25.7880 C   0  0  0  0  0  0  0  0  0  0  0  0
   -0.8660   23.4390  -26.8140 C   0  0  0  0  0  0  0  0  0  0  0  0
   -1.9150   22.5910  -27.2010 C   0  0  0  0  0  0  0  0  0  0  0  0
   -2.8610   23.0080  -28.1350 C   0  0  0  0  0  0  0  0  0  0  0  0
   -2.7930   24.2850  -28.6920 C   0  0  0  0  0  0  0  0  0  0  0  0
   -3.7750   24.6750  -29.6650 N   0  0  0  0  0  0  0  0  0  0  0  0
   -4.0730   23.8980  -30.8350 C   0  0  0  0  0  0  0  0  0  0  0  0
   -3.2650   23.0160  -31.2320 O   0  0  0  0  0  0  0  0  0  0  0  0
   -5.2410   24.1700  -31.6180 N   0  0  0  0  0  0  0  0  0  0  0  0
   -6.3650   23.2950  -31.7830 C   0  0  0  0  0  0  0  0  0  0  0  0
   -7.6820   23.7860  -31.8370 C   0  0  0  0  0  0  0  0  0  0  0  0
   -8.7550   22.9010  -31.9690 C   0  0  0  0  0  0  0  0  0  0  0  0
   -8.5280   21.5250  -32.0340 C   0  0  0  0  0  0  0  0  0  0  0  0
   -7.2210   21.0240  -31.9580 C   0  0  0  0  0  0  0  0  0  0  0  0
   -6.9160   19.2890  -32.0030 S   0  0  0  0  0  0  0  0  0  0  0  0
   -8.0850   18.5860  -31.3700 O   0  0  0  0  0  0  0  0  0  0  0  0
   -5.6740   18.9620  -31.2190 O   0  0  0  0  0  0  0  0  0  0  0  0
   -6.7400   18.7670  -33.6640 N   0  0  0  0  0  0  0  0  0  0  0  0
   -5.3960   19.0790  -34.1640 C   0  0  0  0  0  0  0  0  0  0  0  0
   -4.5130   17.8590  -33.9460 C   0  0  0  0  0  0  0  0  0  0  0  0
   -5.4660   16.7090  -33.6780 C   0  0  0  0  0  0  0  0  0  0  0  0
   -6.8630   17.3070  -33.7590 C   0  0  0  0  0  0  0  0  0  0  0  0
   -6.1460   21.9120  -31.8210 C   0  0  0  0  0  0  0  0  0  0  0  0
   -1.7350   25.1440  -28.3340 C   0  0  0  0  0  0  0  0  0  0  0  0
   -1.6210   26.3780  -28.9650 O   0  0  0  0  0  0  0  0  0  0  0  0
   -0.7800   24.7440  -27.3700 C   0  0  0  0  0  0  0  0  0  0  0  0
    0.5320   25.8620  -26.9200 S   0  0  0  0  0  0  0  0  0  0  0  0
    0.2690   27.2290  -27.4860 O   0  0  0  0  0  0  0  0  0  0  0  0
    1.8440   25.3840  -27.4770 O   0  0  0  0  0  0  0  0  0  0  0  0
    0.6370   25.9720  -25.1300 C   0  0  0  0  0  0  0  0  0  0  0  0
   -0.7080   25.7870  -24.4370 C   0  0  0  0  0  0  0  0  0  0  0  0
   -0.6360   27.2160  -23.9190 C   0  0  0  0  0  0  0  0  0  0  0  0
    0.7080   27.4050  -24.6100 C   0  0  0  0  0  0  0  0  0  0  0  0
   -0.2738   23.1336  -24.7787 H   0  0  0  0  0  0  0  0  0  0  0  0
    0.2557   21.8498  -25.9182 H   0  0  0  0  0  0  0  0  0  0  0  0
    1.0792   23.4463  -25.9182 H   0  0  0  0  0  0  0  0  0  0  0  0
   -1.9913   21.5854  -26.7618 H   0  0  0  0  0  0  0  0  0  0  0  0
   -3.6685   22.3243  -28.4358 H   0  0  0  0  0  0  0  0  0  0  0  0
   -4.1770   25.6370  -29.6010 H   0  0  0  0  0  0  0  0  0  0  0  0
   -7.8674   24.8685  -31.7752 H   0  0  0  0  0  0  0  0  0  0  0  0
   -9.7826   23.2899  -32.0219 H   0  0  0  0  0  0  0  0  0  0  0  0
   -9.3759   20.8331  -32.1450 H   0  0  0  0  0  0  0  0  0  0  0  0
   -5.4438   19.3173  -35.2368 H   0  0  0  0  0  0  0  0  0  0  0  0
   -4.9835   19.9473  -33.6292 H   0  0  0  0  0  0  0  0  0  0  0  0
   -3.9094   17.6565  -34.8430 H   0  0  0  0  0  0  0  0  0  0  0  0
   -3.8104   18.0084  -33.1129 H   0  0  0  0  0  0  0  0  0  0  0  0
   -5.3408   15.9220  -34.4363 H   0  0  0  0  0  0  0  0  0  0  0  0
   -5.2783   16.2450  -32.6985 H   0  0  0  0  0  0  0  0  0  0  0  0
   -7.3307   17.0337  -34.7164 H   0  0  0  0  0  0  0  0  0  0  0  0
   -7.4900   16.9232  -32.9408 H   0  0  0  0  0  0  0  0  0  0  0  0
   -5.1213   21.5198  -31.7426 H   0  0  0  0  0  0  0  0  0  0  0  0
    1.4648   25.2719  -24.9439 H   0  0  0  0  0  0  0  0  0  0  0  0
   -1.5459   25.6001  -25.1248 H   0  0  0  0  0  0  0  0  0  0  0  0
   -0.8660   24.9495  -23.7416 H   0  0  0  0  0  0  0  0  0  0  0  0
   -1.4324   27.8718  -24.3007 H   0  0  0  0  0  0  0  0  0  0  0  0
   -0.7408   27.4222  -22.8436 H   0  0  0  0  0  0  0  0  0  0  0  0
    0.7039   28.1707  -25.3997 H   0  0  0  0  0  0  0  0  0  0  0  0
    1.5844   27.7498  -24.0416 H   0  0  0  0  0  0  0  0  0  0  0  0
  1  2  1  0
  2  3  2  0
  3  4  1  0
  4  5  2  0
  5  6  1  0
  6  7  1  0
  7  8  2  0
  7  9  1  0
  9 10  1  0
 10 11  2  0
 11 12  1  0
 12 13  2  0
 13 14  1  0
 14 15  1  0
 15 16  2  0
 15 17  2  0
 15 18  1  0
 18 19  1  0
 19 20  1  0
 20 21  1  0
 21 22  1  0
 14 23  2  0
  5 24  1  0
 24 25  1  0
 24 26  2  0
 26 27  1  0
 27 28  2  0
 27 29  2  0
 27 30  1  0
 30 31  1  0
 31 32  1  0
 32 33  1  0
 26  2  1  0
 33 30  1  0
 23 10  1  0
 22 18  1  0
  1 34  1  0
  1 35  1  0
  1 36  1  0
  3 37  1  0
  4 38  1  0
  6 39  1  0
 11 40  1  0
 12 41  1  0
 13 42  1  0
 19 43  1  0
 19 44  1  0
 20 45  1  0
 20 46  1  0
 21 47  1  0
 21 48  1  0
 22 49  1  0
 22 50  1  0
 23 51  1  0
 30 52  1  0
 31 53  1  0
 31 54  1  0
 32 55  1  0
 32 56  1  0
 33 57  1  0
 33 58  1  0
M  CHG  2   9  -1  25  -1
M  END
>  <UniqueID>  (48) 
44

>  <SMILES>  (48) 
Cc1ccc(NC(=O)[N-]c2cccc(S(=O)(=O)N3CCCC3)c2)c([O-])c1S(=O)(=O)C1CCC1

>  <Energy>  (48) 
130.02283682263928

>  <Genealogy>  (48) 
Cc1ccc(NC(=O)[N-]c2cccc(S(=O)(=O)N3CCCC3)c2)c([O-])c1S(=O)(=O)C1CCC1 (protonated)
Cc1ccc(NC(=O)[N-]c2cccc(S(=O)(=O)N3CCCC3)c2)c([O-])c1S(=O)(=O)C1CCC1 (3D coordinates assigned)
Cc1ccc(NC(=O)[N-]c2cccc(S(=O)(=O)N3CCCC3)c2)c([O-])c1S(=O)(=O)C1CCC1 (nonaromatic ring conformer: 130.02283682263928 kcal/mol)

>  <smiles>  (48) 
Cc1ccc(NC(=O)Nc2cccc(S(=O)(=O)N3CCCC3)c2)c(O)c1S(=O)(=O)C1CCC1

>  <score_type>  (48) 
oracle

>  <origin>  (48) 
adgpu

>  <m_score__min__energy>  (48) 
-15.32

>  <m_primary>  (48) 
energy

$$$$
48:0
     RDKit          3D

 51 54  0  0  0  0  0  0  0  0999 V2000
   -2.2810   21.1260  -32.5560 C   0  0  0  0  0  0  0  0  0  0  0  0
   -3.2270   20.5930  -33.4760 O   0  0  0  0  0  0  0  0  0  0  0  0
   -3.8110   19.3200  -33.3740 C   0  0  0  0  0  0  0  0  0  0  0  0
   -3.0380   18.1670  -33.1340 C   0  0  0  0  0  0  0  0  0  0  0  0
   -3.6450   16.9140  -33.0400 C   0  0  0  0  0  0  0  0  0  0  0  0
   -5.0260   16.7930  -33.1860 C   0  0  0  0  0  0  0  0  0  0  0  0
   -5.8060   17.9250  -33.4260 C   0  0  0  0  0  0  0  0  0  0  0  0
   -5.2110   19.1950  -33.5170 C   0  0  0  0  0  0  0  0  0  0  0  0
   -6.0690   20.3990  -33.8290 C   0  0  0  0  0  0  0  0  0  0  0  0
   -6.8470   20.7890  -32.6410 N   0  0  0  0  0  0  0  0  0  0  0  0
   -8.1030   20.1240  -32.3810 C   0  0  0  0  0  0  0  0  0  0  0  0
   -8.3360   18.9820  -32.8610 O   0  0  0  0  0  0  0  0  0  0  0  0
   -9.1260   20.7700  -31.4920 C   0  0  0  0  0  0  0  0  0  0  0  0
   -9.0430   22.2950  -31.6030 C   0  0  0  0  0  0  0  0  0  0  0  0
   -7.6270   22.7670  -31.3950 C   0  0  0  0  0  0  0  0  0  0  0  0
   -7.3740   23.9780  -30.7380 C   0  0  0  0  0  0  0  0  0  0  0  0
   -6.0600   24.4250  -30.5590 C   0  0  0  0  0  0  0  0  0  0  0  0
   -5.8120   25.6340  -29.9100 O   0  0  0  0  0  0  0  0  0  0  0  0
   -4.9850   23.6570  -31.0280 C   0  0  0  0  0  0  0  0  0  0  0  0
   -3.6500   24.1410  -30.8260 N   0  0  0  0  0  0  0  0  0  0  0  0
   -2.8320   24.2180  -29.3000 S   0  0  0  0  0  0  0  0  0  0  0  0
   -1.7600   25.2690  -29.3410 O   0  0  0  0  0  0  0  0  0  0  0  0
   -3.8240   24.5460  -28.2180 O   0  0  0  0  0  0  0  0  0  0  0  0
   -2.0920   22.6580  -28.9790 C   0  0  0  0  0  0  0  0  0  0  0  0
   -2.6610   21.7620  -28.0640 C   0  0  0  0  0  0  0  0  0  0  0  0
   -2.0390   20.5330  -27.8340 C   0  0  0  0  0  0  0  0  0  0  0  0
   -0.8630   20.2110  -28.5140 C   0  0  0  0  0  0  0  0  0  0  0  0
   -0.3240   21.1290  -29.4190 C   0  0  0  0  0  0  0  0  0  0  0  0
   -0.9450   22.3210  -29.6300 N   0  0  0  0  0  0  0  0  0  0  0  0
   -5.2400   22.4410  -31.6890 C   0  0  0  0  0  0  0  0  0  0  0  0
   -6.5610   22.0110  -31.9190 C   0  0  0  0  0  0  0  0  0  0  0  0
   -2.6214   20.9342  -31.5277 H   0  0  0  0  0  0  0  0  0  0  0  0
   -1.3043   20.6454  -32.7146 H   0  0  0  0  0  0  0  0  0  0  0  0
   -2.1861   22.2104  -32.7146 H   0  0  0  0  0  0  0  0  0  0  0  0
   -1.9475   18.2551  -33.0198 H   0  0  0  0  0  0  0  0  0  0  0  0
   -3.0326   16.0201  -32.8503 H   0  0  0  0  0  0  0  0  0  0  0  0
   -5.5016   15.8039  -33.1119 H   0  0  0  0  0  0  0  0  0  0  0  0
   -6.8947   17.8225  -33.5448 H   0  0  0  0  0  0  0  0  0  0  0  0
   -5.4237   21.2367  -34.1321 H   0  0  0  0  0  0  0  0  0  0  0  0
   -6.7617   20.1451  -34.6449 H   0  0  0  0  0  0  0  0  0  0  0  0
  -10.1303   20.4387  -31.7948 H   0  0  0  0  0  0  0  0  0  0  0  0
   -8.9294   20.4769  -30.4502 H   0  0  0  0  0  0  0  0  0  0  0  0
   -9.3835   22.6035  -32.6024 H   0  0  0  0  0  0  0  0  0  0  0  0
   -9.6826   22.7418  -30.8276 H   0  0  0  0  0  0  0  0  0  0  0  0
   -8.2130   24.5811  -30.3606 H   0  0  0  0  0  0  0  0  0  0  0  0
   -4.9950   25.7650  -29.3250 H   0  0  0  0  0  0  0  0  0  0  0  0
   -3.5878   22.0240  -27.5325 H   0  0  0  0  0  0  0  0  0  0  0  0
   -2.4748   19.8201  -27.1185 H   0  0  0  0  0  0  0  0  0  0  0  0
   -0.3662   19.2452  -28.3392 H   0  0  0  0  0  0  0  0  0  0  0  0
    0.6024   20.8880  -29.9609 H   0  0  0  0  0  0  0  0  0  0  0  0
   -4.3985   21.8199  -32.0296 H   0  0  0  0  0  0  0  0  0  0  0  0
  1  2  1  0
  2  3  1  0
  3  4  2  0
  4  5  1  0
  5  6  2  0
  6  7  1  0
  7  8  2  0
  8  9  1  0
  9 10  1  0
 10 11  1  0
 11 12  2  0
 11 13  1  0
 13 14  1  0
 14 15  1  0
 15 16  2  0
 16 17  1  0
 17 18  1  0
 17 19  2  0
 19 20  1  0
 20 21  1  0
 21 22  2  0
 21 23  2  0
 21 24  1  0
 24 25  2  0
 25 26  1  0
 26 27  2  0
 27 28  1  0
 28 29  2  0
 19 30  1  0
 30 31  2  0
  8  3  1  0
 31 10  1  0
 31 15  1  0
 29 24  1  0
  1 32  1  0
  1 33  1  0
  1 34  1  0
  4 35  1  0
  5 36  1  0
  6 37  1  0
  7 38  1  0
  9 39  1  0
  9 40  1  0
 13 41  1  0
 13 42  1  0
 14 43  1  0
 14 44  1  0
 16 45  1  0
 18 46  1  0
 25 47  1  0
 26 48  1  0
 27 49  1  0
 28 50  1  0
 30 51  1  0
M  CHG  1  20  -1
M  END
>  <UniqueID>  (49) 
45

>  <SMILES>  (49) 
COc1ccccc1CN1C(=O)CCc2cc(O)c([N-]S(=O)(=O)c3ccccn3)cc21

>  <Energy>  (49) 
61.66069073733997

>  <Genealogy>  (49) 
COc1ccccc1CN1C(=O)CCc2cc(O)c([N-]S(=O)(=O)c3ccccn3)cc21 (protonated)
COc1ccccc1CN1C(=O)CCc2cc(O)c([N-]S(=O)(=O)c3ccccn3)cc21 (3D coordinates assigned)
COc1ccccc1CN1C(=O)CCc2cc(O)c([N-]S(=O)(=O)c3ccccn3)cc21 (nonaromatic ring conformer: 61.66069073733997 kcal/mol)

>  <smiles>  (49) 
COc1ccccc1CN1C(=O)CCc2cc(O)c(NS(=O)(=O)c3ccccn3)cc21

>  <score_type>  (49) 
oracle

>  <origin>  (49) 
adgpu

>  <m_score__min__energy>  (49) 
-11.140000000000001

>  <m_primary>  (49) 
energy

$$$$
