0:0
     RDKit          3D

 43 46  0  0  1  0  0  0  0  0999 V2000
   -2.4900   25.2530  -29.3260 O   0  0  0  0  0  0  0  0  0  0  0  0
   -2.4810   24.5360  -28.2680 C   0  0  0  0  0  0  0  0  0  0  0  0
   -3.6470   23.7650  -28.0370 N   0  0  0  0  0  0  0  0  0  0  0  0
   -4.7530   23.7990  -28.9370 C   0  0  0  0  0  0  0  0  0  0  0  0
   -5.5590   24.9240  -29.0710 C   0  0  0  0  0  0  0  0  0  0  0  0
   -6.6260   24.9430  -29.9470 C   0  0  0  0  0  0  0  0  0  0  0  0
   -6.9140   23.8330  -30.7130 C   0  0  0  0  0  0  0  0  0  0  0  0
   -7.9340   23.8230  -31.5630 N   0  0  0  0  0  0  0  0  0  0  0  0
   -8.2210   22.7250  -32.3220 C   0  0  0  0  0  0  0  0  0  0  0  0
   -7.4440   21.6340  -32.1960 N   0  0  0  0  0  0  0  0  0  0  0  0
   -6.3990   21.5640  -31.3640 C   0  0  0  0  0  0  0  0  0  0  0  0
   -5.6760   20.5250  -31.2580 N   0  0  0  0  0  0  0  0  0  0  0  0
   -5.9190   19.3670  -32.0100 C   0  0  0  0  0  0  0  0  0  0  0  0
   -7.0230   18.5720  -31.7140 C   0  0  0  0  0  0  0  0  0  0  0  0
   -7.2660   17.4200  -32.4590 C   0  0  0  0  0  0  0  0  0  0  0  0
   -6.4070   17.0600  -33.5030 C   0  0  0  0  0  0  0  0  0  0  0  0
   -6.6940   15.9020  -34.2150 O   0  0  0  0  0  0  0  0  0  0  0  0
   -5.3060   17.8470  -33.8030 C   0  0  0  0  0  0  0  0  0  0  0  0
   -4.2210   17.3870  -35.1240 Cl  0  0  0  0  0  0  0  0  0  0  0  0
   -5.0830   18.9830  -33.0510 C   0  0  0  0  0  0  0  0  0  0  0  0
   -6.1280   22.6920  -30.6030 C   0  0  0  0  0  0  0  0  0  0  0  0
   -5.0670   22.7180  -29.7120 C   0  0  0  0  0  0  0  0  0  0  0  0
   -1.3380   24.5200  -27.3670 C   0  0  0  0  0  0  0  0  0  0  0  0
   -0.1790   23.8250  -27.6140 C   0  0  0  0  0  0  0  0  0  0  0  0
    0.8960   23.8180  -26.7500 C   0  0  0  0  0  0  0  0  0  0  0  0
    0.7890   24.5430  -25.5940 C   0  0  0  0  0  0  0  0  0  0  0  0
    2.1310   24.5660  -24.4630 Cl  0  0  0  0  0  0  0  0  0  0  0  0
   -0.3630   25.2630  -25.2980 C   0  0  0  0  0  0  0  0  0  0  0  0
   -0.5090   26.1980  -23.8160 Cl  0  0  0  0  0  0  0  0  0  0  0  0
   -1.4250   25.2450  -26.1940 C   0  0  0  0  0  0  0  0  0  0  0  0
   -3.7250   23.1510  -27.1970 H   0  0  0  0  0  0  0  0  0  0  0  0
   -5.3421   25.8172  -28.4667 H   0  0  0  0  0  0  0  0  0  0  0  0
   -7.2481   25.8460  -30.0342 H   0  0  0  0  0  0  0  0  0  0  0  0
   -9.0697   22.7323  -33.0218 H   0  0  0  0  0  0  0  0  0  0  0  0
   -7.6680   20.7990  -32.7790 H   0  0  0  0  0  0  0  0  0  0  0  0
   -7.7012   18.8525  -30.8946 H   0  0  0  0  0  0  0  0  0  0  0  0
   -8.1373   16.7906  -32.2253 H   0  0  0  0  0  0  0  0  0  0  0  0
   -6.0630   15.6370  -34.9620 H   0  0  0  0  0  0  0  0  0  0  0  0
   -4.2091   19.6087  -33.2852 H   0  0  0  0  0  0  0  0  0  0  0  0
   -4.4419   21.8172  -29.6235 H   0  0  0  0  0  0  0  0  0  0  0  0
   -0.1048   23.2459  -28.5463 H   0  0  0  0  0  0  0  0  0  0  0  0
    1.8084   23.2491  -26.9821 H   0  0  0  0  0  0  0  0  0  0  0  0
   -2.3405   25.8114  -25.9681 H   0  0  0  0  0  0  0  0  0  0  0  0
  1  2  2  0
  2  3  1  0
  3  4  1  0
  4  5  2  0
  5  6  1  0
  6  7  2  0
  7  8  1  0
  8  9  2  0
  9 10  1  0
 10 11  1  0
 11 12  2  0
 12 13  1  0
 13 14  2  0
 14 15  1  0
 15 16  2  0
 16 17  1  0
 16 18  1  0
 18 19  1  0
 18 20  2  0
 11 21  1  0
 21 22  2  0
  2 23  1  0
 23 24  2  0
 24 25  1  0
 25 26  2  0
 26 27  1  0
 26 28  1  0
 28 29  1  0
 28 30  2  0
 22  4  1  0
 30 23  1  0
 21  7  1  0
 20 13  1  0
  3 31  1  0
  5 32  1  0
  6 33  1  0
  9 34  1  0
 10 35  1  0
 14 36  1  0
 15 37  1  0
 17 38  1  0
 20 39  1  0
 22 40  1  0
 24 41  1  0
 25 42  1  0
 30 43  1  0
M  END
>  <smiles>  (1) 
O=C(Nc1ccc2nc[nH]c(=Nc3ccc(O)c(Cl)c3)c2c1)c1ccc(Cl)c(Cl)c1

>  <score_type>  (1) 
oracle

>  <origin>  (1) 
adgpu

>  <m_score__min__energy>  (1) 
-9.1899999999999995

>  <m_primary>  (1) 
energy

$$$$
1:0
     RDKit          3D

 45 48  0  0  0  0  0  0  0  0999 V2000
   -3.3213   17.7562  -25.7737 H   0  0  0  0  0  0  0  0  0  0  0  0
   -2.7510   18.4770  -26.3780 C   0  0  0  0  0  0  0  0  0  0  0  0
   -1.4700   18.1980  -26.7370 N   0  0  0  0  0  0  0  0  0  0  0  0
   -0.7360   19.0590  -27.4930 C   0  0  0  0  0  0  0  0  0  0  0  0
    0.3021   18.8079  -27.7561 H   0  0  0  0  0  0  0  0  0  0  0  0
   -1.2960   20.2640  -27.9380 C   0  0  0  0  0  0  0  0  0  0  0  0
   -0.5120   21.1610  -28.7450 N   0  0  0  0  0  0  0  0  0  0  0  0
    0.1380   20.7420  -29.4490 H   0  0  0  0  0  0  0  0  0  0  0  0
   -0.7160   22.5830  -28.7770 C   0  0  0  0  0  0  0  0  0  0  0  0
   -1.8750   23.1040  -29.2600 N   0  0  0  0  0  0  0  0  0  0  0  0
   -2.0900   24.4440  -29.3420 C   0  0  0  0  0  0  0  0  0  0  0  0
   -3.2280   24.9140  -29.7720 N   0  0  0  0  0  0  0  0  0  0  0  0
   -4.3300   24.1310  -30.2670 C   0  0  0  0  0  0  0  0  0  0  0  0
   -5.6150   24.4090  -29.8010 C   0  0  0  0  0  0  0  0  0  0  0  0
   -5.7723   25.2353  -29.0921 H   0  0  0  0  0  0  0  0  0  0  0  0
   -6.7020   23.6460  -30.2280 C   0  0  0  0  0  0  0  0  0  0  0  0
   -7.7074   23.8694  -29.8416 H   0  0  0  0  0  0  0  0  0  0  0  0
   -6.5290   22.5950  -31.1460 C   0  0  0  0  0  0  0  0  0  0  0  0
   -7.7070   21.7770  -31.5140 C   0  0  0  0  0  0  0  0  0  0  0  0
   -8.9450   22.2170  -31.9540 C   0  0  0  0  0  0  0  0  0  0  0  0
   -9.2548   23.2694  -32.0337 H   0  0  0  0  0  0  0  0  0  0  0  0
   -9.7100   21.1530  -32.2690 N   0  0  0  0  0  0  0  0  0  0  0  0
   -8.9960   20.0640  -32.0320 N   0  0  0  0  0  0  0  0  0  0  0  0
   -9.4560   18.7130  -32.3230 C   0  0  0  0  0  0  0  0  0  0  0  0
   -9.6386   18.1768  -31.3801 H   0  0  0  0  0  0  0  0  0  0  0  0
  -10.3886   18.7605  -32.9043 H   0  0  0  0  0  0  0  0  0  0  0  0
   -8.6882   18.1815  -32.9043 H   0  0  0  0  0  0  0  0  0  0  0  0
   -7.7680   20.4000  -31.5980 C   0  0  0  0  0  0  0  0  0  0  0  0
   -6.9550   19.7007  -31.3530 H   0  0  0  0  0  0  0  0  0  0  0  0
   -5.2390   22.3620  -31.6890 C   0  0  0  0  0  0  0  0  0  0  0  0
   -4.9900   21.3160  -32.7460 C   0  0  0  0  0  0  0  0  0  0  0  0
   -4.7611   20.3544  -32.2635 H   0  0  0  0  0  0  0  0  0  0  0  0
   -5.8874   21.2073  -33.3728 H   0  0  0  0  0  0  0  0  0  0  0  0
   -4.1399   21.6233  -33.3728 H   0  0  0  0  0  0  0  0  0  0  0  0
   -4.1520   23.1290  -31.2370 C   0  0  0  0  0  0  0  0  0  0  0  0
   -3.1485   22.9431  -31.6475 H   0  0  0  0  0  0  0  0  0  0  0  0
   -1.0810   25.3150  -28.9060 C   0  0  0  0  0  0  0  0  0  0  0  0
   -1.2390   26.5640  -28.9520 O   0  0  0  0  0  0  0  0  0  0  0  0
    0.0840   24.8000  -28.4280 N   0  0  0  0  0  0  0  0  0  0  0  0
    0.2900   23.4590  -28.3560 C   0  0  0  0  0  0  0  0  0  0  0  0
    1.2414   23.0649  -27.9693 H   0  0  0  0  0  0  0  0  0  0  0  0
   -2.6100   20.5770  -27.5490 C   0  0  0  0  0  0  0  0  0  0  0  0
   -3.0604   21.5327  -27.8551 H   0  0  0  0  0  0  0  0  0  0  0  0
   -3.3440   19.6770  -26.7750 C   0  0  0  0  0  0  0  0  0  0  0  0
   -4.3780   19.9105  -26.4811 H   0  0  0  0  0  0  0  0  0  0  0  0
  1  2  1  0
  2  3  2  0
  3  4  1  0
  4  5  1  0
  4  6  2  0
  6  7  1  0
  7  8  1  0
  7  9  1  0
  9 10  1  0
 10 11  1  0
 11 12  2  0
 12 13  1  0
 13 14  2  0
 14 15  1  0
 14 16  1  0
 16 17  1  0
 16 18  2  0
 18 19  1  0
 19 20  1  0
 20 21  1  0
 20 22  2  0
 22 23  1  0
 23 24  1  0
 24 25  1  0
 24 26  1  0
 24 27  1  0
 23 28  1  0
 28 29  1  0
 18 30  1  0
 30 31  1  0
 31 32  1  0
 31 33  1  0
 31 34  1  0
 30 35  2  0
 35 36  1  0
 11 37  1  0
 37 38  2  0
 37 39  1  0
 39 40  1  0
 40 41  1  0
  6 42  1  0
 42 43  1  0
 42 44  2  0
 44 45  1  0
 44  2  1  0
 40  9  2  0
 35 13  1  0
 28 19  2  0
M  CHG  2  10  -1  39  -1
M  END
>  <UniqueID>  (2) 
1

>  <SMILES>  (2) 
Cc1cc(/N=c2\[n-]c(Nc3cccnc3)c[n-]c2=O)ccc1-c1cnn(C)c1

>  <Energy>  (2) 
94.86577696057375

>  <Genealogy>  (2) 
Cc1cc(N=c2[n-]c(Nc3cccnc3)c[n-]c2=O)ccc1-c1cnn(C)c1 (protonated)
Cc1cc(/N=c2\[n-]c(Nc3cccnc3)c[n-]c2=O)ccc1-c1cnn(C)c1 (cis-trans isomerization)
Cc1cc(/N=c2\[n-]c(Nc3cccnc3)c[n-]c2=O)ccc1-c1cnn(C)c1 (3D coordinates assigned)
Cc1cc(/N=c2\[n-]c(Nc3cccnc3)c[n-]c2=O)ccc1-c1cnn(C)c1 (optimized conformer: 94.86577696057375 kcal/mol)

>  <smiles>  (2) 
Cc1cc(N=c2[nH]c(Nc3cccnc3)c[nH]c2=O)ccc1-c1cnn(C)c1

>  <score_type>  (2) 
oracle

>  <origin>  (2) 
adgpu

>  <m_score__min__energy>  (2) 
-11.539999999999999

>  <m_primary>  (2) 
energy

$$$$
2:0
     RDKit          3D

 47 49  0  0  0  0  0  0  0  0999 V2000
   -5.8920   24.7510  -30.2400 C   0  0  0  0  0  0  0  0  0  0  0  0
   -7.1440   24.0740  -30.2870 O   0  0  0  0  0  0  0  0  0  0  0  0
   -7.3650   22.8620  -30.9550 C   0  0  0  0  0  0  0  0  0  0  0  0
   -8.2840   21.9010  -30.4930 C   0  0  0  0  0  0  0  0  0  0  0  0
   -8.4540   20.6960  -31.1850 C   0  0  0  0  0  0  0  0  0  0  0  0
   -7.7130   20.4370  -32.3510 C   0  0  0  0  0  0  0  0  0  0  0  0
   -7.8520   19.2140  -33.0870 N   0  0  0  0  0  0  0  0  0  0  0  0
   -6.8160   17.8330  -32.9290 S   0  0  0  0  0  0  0  0  0  0  0  0
   -6.9970   17.2010  -31.5770 O   0  0  0  0  0  0  0  0  0  0  0  0
   -7.1720   16.8300  -33.9910 O   0  0  0  0  0  0  0  0  0  0  0  0
   -5.1280   18.3390  -33.1110 C   0  0  0  0  0  0  0  0  0  0  0  0
   -4.6740   19.4600  -32.3960 C   0  0  0  0  0  0  0  0  0  0  0  0
   -3.3490   19.9120  -32.5200 C   0  0  0  0  0  0  0  0  0  0  0  0
   -2.8820   21.0850  -31.7400 C   0  0  0  0  0  0  0  0  0  0  0  0
   -2.4560   22.1080  -32.3460 O   0  0  0  0  0  0  0  0  0  0  0  0
   -2.8720   21.0580  -30.3040 N   0  0  0  0  0  0  0  0  0  0  0  0
   -2.9400   22.2370  -29.4820 C   0  0  0  0  0  0  0  0  0  0  0  0
   -3.7910   22.2500  -28.3650 C   0  0  0  0  0  0  0  0  0  0  0  0
   -3.8960   23.3950  -27.5710 C   0  0  0  0  0  0  0  0  0  0  0  0
   -3.1630   24.5410  -27.8900 C   0  0  0  0  0  0  0  0  0  0  0  0
   -2.3280   24.5460  -29.0110 C   0  0  0  0  0  0  0  0  0  0  0  0
   -1.6110   25.6910  -29.3370 O   0  0  0  0  0  0  0  0  0  0  0  0
   -2.2180   23.4010  -29.8080 C   0  0  0  0  0  0  0  0  0  0  0  0
   -2.4710   19.2190  -33.3670 C   0  0  0  0  0  0  0  0  0  0  0  0
   -2.9060   18.0990  -34.0750 C   0  0  0  0  0  0  0  0  0  0  0  0
   -4.2300   17.6450  -33.9570 C   0  0  0  0  0  0  0  0  0  0  0  0
   -4.6470   16.4160  -34.7220 C   0  0  0  0  0  0  0  0  0  0  0  0
   -6.8110   21.4010  -32.8160 C   0  0  0  0  0  0  0  0  0  0  0  0
   -6.6370   22.6020  -32.1210 C   0  0  0  0  0  0  0  0  0  0  0  0
   -5.5998   24.9090  -29.1914 H   0  0  0  0  0  0  0  0  0  0  0  0
   -5.1274   24.1434  -30.7462 H   0  0  0  0  0  0  0  0  0  0  0  0
   -5.9818   25.7235  -30.7462 H   0  0  0  0  0  0  0  0  0  0  0  0
   -8.8713   22.0978  -29.5840 H   0  0  0  0  0  0  0  0  0  0  0  0
   -9.1708   19.9484  -30.8145 H   0  0  0  0  0  0  0  0  0  0  0  0
   -5.3670   19.9927  -31.7282 H   0  0  0  0  0  0  0  0  0  0  0  0
   -2.7290   20.1360  -29.8330 H   0  0  0  0  0  0  0  0  0  0  0  0
   -4.3779   21.3542  -28.1138 H   0  0  0  0  0  0  0  0  0  0  0  0
   -4.5576   23.3942  -26.6922 H   0  0  0  0  0  0  0  0  0  0  0  0
   -3.2430   25.4387  -27.2594 H   0  0  0  0  0  0  0  0  0  0  0  0
   -1.5647   23.4104  -30.6929 H   0  0  0  0  0  0  0  0  0  0  0  0
   -1.4312   19.5618  -33.4735 H   0  0  0  0  0  0  0  0  0  0  0  0
   -2.2045   17.5653  -34.7331 H   0  0  0  0  0  0  0  0  0  0  0  0
   -4.9177   15.6182  -34.0148 H   0  0  0  0  0  0  0  0  0  0  0  0
   -5.5144   16.6548  -35.3549 H   0  0  0  0  0  0  0  0  0  0  0  0
   -3.8134   16.0776  -35.3549 H   0  0  0  0  0  0  0  0  0  0  0  0
   -6.2352   21.2127  -33.7342 H   0  0  0  0  0  0  0  0  0  0  0  0
   -5.9212   23.3491  -32.4945 H   0  0  0  0  0  0  0  0  0  0  0  0
  1  2  1  0
  2  3  1  0
  3  4  2  0
  4  5  1  0
  5  6  2  0
  6  7  1  0
  7  8  1  0
  8  9  2  0
  8 10  2  0
  8 11  1  0
 11 12  2  0
 12 13  1  0
 13 14  1  0
 14 15  2  0
 14 16  1  0
 16 17  1  0
 17 18  2  0
 18 19  1  0
 19 20  2  0
 20 21  1  0
 21 22  1  0
 21 23  2  0
 13 24  2  0
 24 25  1  0
 25 26  2  0
 26 27  1  0
  6 28  1  0
 28 29  2  0
 29  3  1  0
 26 11  1  0
 23 17  1  0
  1 30  1  0
  1 31  1  0
  1 32  1  0
  4 33  1  0
  5 34  1  0
 12 35  1  0
 16 36  1  0
 18 37  1  0
 19 38  1  0
 20 39  1  0
 23 40  1  0
 24 41  1  0
 25 42  1  0
 27 43  1  0
 27 44  1  0
 27 45  1  0
 28 46  1  0
 29 47  1  0
M  CHG  2   7  -1  22  -1
M  END
>  <UniqueID>  (3) 
2

>  <SMILES>  (3) 
COc1ccc([N-]S(=O)(=O)c2cc(C(=O)Nc3cccc([O-])c3)ccc2C)cc1

>  <Energy>  (3) 
60.269469551251476

>  <Genealogy>  (3) 
COc1ccc([N-]S(=O)(=O)c2cc(C(=O)Nc3cccc([O-])c3)ccc2C)cc1 (protonated)
COc1ccc([N-]S(=O)(=O)c2cc(C(=O)Nc3cccc([O-])c3)ccc2C)cc1 (3D coordinates assigned)
COc1ccc([N-]S(=O)(=O)c2cc(C(=O)Nc3cccc([O-])c3)ccc2C)cc1 (optimized conformer: 60.269469551251476 kcal/mol)

>  <smiles>  (3) 
COc1ccc(NS(=O)(=O)c2cc(C(=O)Nc3cccc(O)c3)ccc2C)cc1

>  <score_type>  (3) 
oracle

>  <origin>  (3) 
adgpu

>  <m_score__min__energy>  (3) 
-12.119999999999999

>  <m_primary>  (3) 
energy

$$$$
3:0
     RDKit          3D

 41 43  0  0  0  0  0  0  0  0999 V2000
   -1.8460   25.3830  -28.9390 O   0  0  0  0  0  0  0  0  0  0  0  0
   -2.5930   24.5370  -29.4910 C   0  0  0  0  0  0  0  0  0  0  0  0
   -3.5340   25.0120  -30.4610 N   0  0  0  0  0  0  0  0  0  0  0  0
   -4.8410   24.5010  -30.7700 C   0  0  0  0  0  0  0  0  0  0  0  0
   -4.9420   23.4260  -31.6610 C   0  0  0  0  0  0  0  0  0  0  0  0
   -6.1800   22.8370  -31.9340 C   0  0  0  0  0  0  0  0  0  0  0  0
   -7.3470   23.3280  -31.3190 C   0  0  0  0  0  0  0  0  0  0  0  0
   -8.6140   22.7610  -31.5360 O   0  0  0  0  0  0  0  0  0  0  0  0
   -8.8740   21.3740  -31.7440 C   0  0  0  0  0  0  0  0  0  0  0  0
   -8.6700   20.6700  -30.5670 F   0  0  0  0  0  0  0  0  0  0  0  0
  -10.1750   21.1930  -32.1840 F   0  0  0  0  0  0  0  0  0  0  0  0
   -8.0040   20.8920  -32.7060 F   0  0  0  0  0  0  0  0  0  0  0  0
   -7.2490   24.4130  -30.4410 C   0  0  0  0  0  0  0  0  0  0  0  0
   -6.0080   24.9870  -30.1550 C   0  0  0  0  0  0  0  0  0  0  0  0
   -2.5290   23.1200  -29.0510 C   0  0  0  0  0  0  0  0  0  0  0  0
   -2.6900   22.7980  -27.6950 C   0  0  0  0  0  0  0  0  0  0  0  0
   -2.5390   21.5170  -27.2720 N   0  0  0  0  0  0  0  0  0  0  0  0
   -2.2110   20.5290  -28.1410 C   0  0  0  0  0  0  0  0  0  0  0  0
   -2.0520   20.8080  -29.4610 N   0  0  0  0  0  0  0  0  0  0  0  0
   -2.2200   22.0670  -29.9430 C   0  0  0  0  0  0  0  0  0  0  0  0
   -2.0660   22.2800  -31.3190 O   0  0  0  0  0  0  0  0  0  0  0  0
   -2.2380   21.2830  -32.2890 C   0  0  0  0  0  0  0  0  0  0  0  0
   -1.1550   20.7710  -33.0230 C   0  0  0  0  0  0  0  0  0  0  0  0
   -1.3480   19.7170  -33.9210 C   0  0  0  0  0  0  0  0  0  0  0  0
   -2.6240   19.1800  -34.1100 C   0  0  0  0  0  0  0  0  0  0  0  0
   -3.7290   19.7270  -33.4310 C   0  0  0  0  0  0  0  0  0  0  0  0
   -5.0970   19.1080  -33.5680 C   0  0  0  0  0  0  0  0  0  0  0  0
   -5.4930   18.5090  -32.3810 F   0  0  0  0  0  0  0  0  0  0  0  0
   -6.0110   20.0940  -33.9030 F   0  0  0  0  0  0  0  0  0  0  0  0
   -5.0940   18.1440  -34.5610 F   0  0  0  0  0  0  0  0  0  0  0  0
   -3.5240   20.7810  -32.5220 C   0  0  0  0  0  0  0  0  0  0  0  0
   -4.0365   23.0402  -32.1521 H   0  0  0  0  0  0  0  0  0  0  0  0
   -6.2423   21.9881  -32.6308 H   0  0  0  0  0  0  0  0  0  0  0  0
   -8.1577   24.8178  -29.9715 H   0  0  0  0  0  0  0  0  0  0  0  0
   -5.9435   25.8242  -29.4444 H   0  0  0  0  0  0  0  0  0  0  0  0
   -2.9398   23.5875  -26.9710 H   0  0  0  0  0  0  0  0  0  0  0  0
   -2.0735   19.5003  -27.7766 H   0  0  0  0  0  0  0  0  0  0  0  0
   -0.1513   21.2011  -32.8906 H   0  0  0  0  0  0  0  0  0  0  0  0
   -0.4930   19.3094  -34.4803 H   0  0  0  0  0  0  0  0  0  0  0  0
   -2.7653   18.3278  -34.7910 H   0  0  0  0  0  0  0  0  0  0  0  0
   -4.3828   21.2151  -31.9890 H   0  0  0  0  0  0  0  0  0  0  0  0
  1  2  2  0
  2  3  1  0
  3  4  1  0
  4  5  2  0
  5  6  1  0
  6  7  2  0
  7  8  1  0
  8  9  1  0
  9 10  1  0
  9 11  1  0
  9 12  1  0
  7 13  1  0
 13 14  2  0
  2 15  1  0
 15 16  2  0
 16 17  1  0
 17 18  2  0
 18 19  1  0
 19 20  2  0
 20 21  1  0
 21 22  1  0
 22 23  2  0
 23 24  1  0
 24 25  2  0
 25 26  1  0
 26 27  1  0
 27 28  1  0
 27 29  1  0
 27 30  1  0
 26 31  2  0
 14  4  1  0
 20 15  1  0
 31 22  1  0
  5 32  1  0
  6 33  1  0
 13 34  1  0
 14 35  1  0
 16 36  1  0
 18 37  1  0
 23 38  1  0
 24 39  1  0
 25 40  1  0
 31 41  1  0
M  CHG  1   3  -1
M  END
>  <UniqueID>  (4) 
3

>  <SMILES>  (4) 
O=C([N-]c1ccc(OC(F)(F)F)cc1)c1cncnc1Oc1cccc(C(F)(F)F)c1

>  <Energy>  (4) 
63.012847569136675

>  <Genealogy>  (4) 
O=C([N-]c1ccc(OC(F)(F)F)cc1)c1cncnc1Oc1cccc(C(F)(F)F)c1 (protonated)
O=C([N-]c1ccc(OC(F)(F)F)cc1)c1cncnc1Oc1cccc(C(F)(F)F)c1 (3D coordinates assigned)
O=C([N-]c1ccc(OC(F)(F)F)cc1)c1cncnc1Oc1cccc(C(F)(F)F)c1 (optimized conformer: 63.012847569136675 kcal/mol)

>  <smiles>  (4) 
O=C(Nc1ccc(OC(F)(F)F)cc1)c1cncnc1Oc1cccc(C(F)(F)F)c1

>  <score_type>  (4) 
oracle

>  <origin>  (4) 
adgpu

>  <m_score__min__energy>  (4) 
-8.6600000000000001

>  <m_primary>  (4) 
energy

$$$$
4:0
     RDKit          3D

 40 43  0  0  0  0  0  0  0  0999 V2000
   -5.4790   26.4250  -30.5500 O   0  0  0  0  0  0  0  0  0  0  0  0
   -4.9850   25.2700  -30.6440 C   0  0  0  0  0  0  0  0  0  0  0  0
   -3.5700   25.1140  -30.4660 N   0  0  0  0  0  0  0  0  0  0  0  0
   -2.9210   24.5240  -29.3290 C   0  0  0  0  0  0  0  0  0  0  0  0
   -3.2930   23.2600  -28.8410 C   0  0  0  0  0  0  0  0  0  0  0  0
   -2.6490   22.7220  -27.7250 C   0  0  0  0  0  0  0  0  0  0  0  0
   -1.6410   23.4410  -27.0790 C   0  0  0  0  0  0  0  0  0  0  0  0
   -1.0500   22.9140  -25.9760 F   0  0  0  0  0  0  0  0  0  0  0  0
   -1.2720   24.7140  -27.5460 C   0  0  0  0  0  0  0  0  0  0  0  0
   -0.2480   25.4690  -26.8770 N   0  0  0  0  0  0  0  0  0  0  0  0
    1.1450   25.2330  -27.1440 C   0  0  0  0  0  0  0  0  0  0  0  0
    1.4860   24.5500  -28.1460 O   0  0  0  0  0  0  0  0  0  0  0  0
    2.1700   25.7590  -26.2920 N   0  0  0  0  0  0  0  0  0  0  0  0
    1.9790   26.5610  -25.1190 C   0  0  0  0  0  0  0  0  0  0  0  0
    3.0970   26.8900  -24.3420 C   0  0  0  0  0  0  0  0  0  0  0  0
    2.9550   27.6710  -23.1900 C   0  0  0  0  0  0  0  0  0  0  0  0
    1.6930   28.1300  -22.8100 C   0  0  0  0  0  0  0  0  0  0  0  0
    0.5710   27.8130  -23.5800 C   0  0  0  0  0  0  0  0  0  0  0  0
    0.7100   27.0280  -24.7330 C   0  0  0  0  0  0  0  0  0  0  0  0
   -0.6950   26.6620  -25.7070 S   0  0  0  0  0  0  0  0  0  0  0  0
   -1.7850   26.1170  -24.8270 O   0  0  0  0  0  0  0  0  0  0  0  0
   -1.1640   27.9100  -26.4000 O   0  0  0  0  0  0  0  0  0  0  0  0
   -1.9270   25.2530  -28.6650 C   0  0  0  0  0  0  0  0  0  0  0  0
   -5.8660   24.1300  -30.9880 C   0  0  0  0  0  0  0  0  0  0  0  0
   -6.7630   23.5950  -30.0490 C   0  0  0  0  0  0  0  0  0  0  0  0
   -7.5790   22.5160  -30.3950 C   0  0  0  0  0  0  0  0  0  0  0  0
   -7.4850   21.9700  -31.6740 C   0  0  0  0  0  0  0  0  0  0  0  0
   -6.6030   22.4850  -32.5710 N   0  0  0  0  0  0  0  0  0  0  0  0
   -5.7970   23.5360  -32.2600 C   0  0  0  0  0  0  0  0  0  0  0  0
   -4.0933   22.6931  -29.3392 H   0  0  0  0  0  0  0  0  0  0  0  0
   -2.9368   21.7276  -27.3531 H   0  0  0  0  0  0  0  0  0  0  0  0
    4.0936   26.5318  -24.6396 H   0  0  0  0  0  0  0  0  0  0  0  0
    3.8377   27.9232  -22.5840 H   0  0  0  0  0  0  0  0  0  0  0  0
    1.5815   28.7422  -21.9030 H   0  0  0  0  0  0  0  0  0  0  0  0
   -0.4221   28.1797  -23.2812 H   0  0  0  0  0  0  0  0  0  0  0  0
   -1.6567   26.2573  -29.0233 H   0  0  0  0  0  0  0  0  0  0  0  0
   -6.8228   24.0268  -29.0391 H   0  0  0  0  0  0  0  0  0  0  0  0
   -8.2894   22.1008  -29.6650 H   0  0  0  0  0  0  0  0  0  0  0  0
   -8.1251   21.1216  -31.9577 H   0  0  0  0  0  0  0  0  0  0  0  0
   -5.0883   23.9225  -33.0072 H   0  0  0  0  0  0  0  0  0  0  0  0
  1  2  2  0
  2  3  1  0
  3  4  1  0
  4  5  2  0
  5  6  1  0
  6  7  2  0
  7  8  1  0
  7  9  1  0
  9 10  1  0
 10 11  1  0
 11 12  2  0
 11 13  1  0
 13 14  1  0
 14 15  2  0
 15 16  1  0
 16 17  2  0
 17 18  1  0
 18 19  2  0
 19 20  1  0
 20 21  2  0
 20 22  2  0
  9 23  2  0
  2 24  1  0
 24 25  2  0
 25 26  1  0
 26 27  2  0
 27 28  1  0
 28 29  2  0
 23  4  1  0
 29 24  1  0
 20 10  1  0
 19 14  1  0
  5 30  1  0
  6 31  1  0
 15 32  1  0
 16 33  1  0
 17 34  1  0
 18 35  1  0
 23 36  1  0
 25 37  1  0
 26 38  1  0
 27 39  1  0
 29 40  1  0
M  CHG  2   3  -1  13  -1
M  END
>  <UniqueID>  (5) 
4

>  <SMILES>  (5) 
O=C([N-]c1ccc(F)c(N2C(=O)[N-]c3ccccc3S2(=O)=O)c1)c1cccnc1

>  <Energy>  (5) 
62.879259110629995

>  <Genealogy>  (5) 
O=C([N-]c1ccc(F)c(N2C(=O)[N-]c3ccccc3S2(=O)=O)c1)c1cccnc1 (protonated)
O=C([N-]c1ccc(F)c(N2C(=O)[N-]c3ccccc3S2(=O)=O)c1)c1cccnc1 (3D coordinates assigned)
O=C([N-]c1ccc(F)c(N2C(=O)[N-]c3ccccc3S2(=O)=O)c1)c1cccnc1 (nonaromatic ring conformer: 62.879259110629995 kcal/mol)

>  <smiles>  (5) 
O=C(Nc1ccc(F)c(N2C(=O)Nc3ccccc3S2(=O)=O)c1)c1cccnc1

>  <score_type>  (5) 
oracle

>  <origin>  (5) 
adgpu

>  <m_score__min__energy>  (5) 
-11.02

>  <m_primary>  (5) 
energy

$$$$
5:0
     RDKit          3D

 39 41  0  0  0  0  0  0  0  0999 V2000
   -4.0110   23.8770  -27.0720 O   0  0  0  0  0  0  0  0  0  0  0  0
   -3.2210   24.5480  -27.7920 C   0  0  0  0  0  0  0  0  0  0  0  0
   -3.3890   24.5890  -29.2170 N   0  0  0  0  0  0  0  0  0  0  0  0
   -4.4500   23.9170  -29.9160 C   0  0  0  0  0  0  0  0  0  0  0  0
   -4.2050   22.7630  -30.6860 C   0  0  0  0  0  0  0  0  0  0  0  0
   -5.2700   22.0950  -31.3050 C   0  0  0  0  0  0  0  0  0  0  0  0
   -6.5850   22.5540  -31.1460 C   0  0  0  0  0  0  0  0  0  0  0  0
   -7.9220   21.6530  -31.8560 S   0  0  0  0  0  0  0  0  0  0  0  0
   -8.9930   22.5870  -32.3490 O   0  0  0  0  0  0  0  0  0  0  0  0
   -8.5340   20.7810  -30.7930 O   0  0  0  0  0  0  0  0  0  0  0  0
   -7.3660   20.6410  -33.1510 N   0  0  0  0  0  0  0  0  0  0  0  0
   -6.8900   19.4300  -33.0640 C   0  0  0  0  0  0  0  0  0  0  0  0
   -6.7810   18.7370  -31.8410 C   0  0  0  0  0  0  0  0  0  0  0  0
   -6.2350   17.4530  -31.8240 C   0  0  0  0  0  0  0  0  0  0  0  0
   -5.8170   16.8590  -33.0160 C   0  0  0  0  0  0  0  0  0  0  0  0
   -5.9530   17.5650  -34.2120 C   0  0  0  0  0  0  0  0  0  0  0  0
   -6.4790   18.8150  -34.2080 N   0  0  0  0  0  0  0  0  0  0  0  0
   -6.8280   23.7010  -30.3740 C   0  0  0  0  0  0  0  0  0  0  0  0
   -5.7680   24.3740  -29.7610 C   0  0  0  0  0  0  0  0  0  0  0  0
   -2.0580   25.2260  -27.1730 C   0  0  0  0  0  0  0  0  0  0  0  0
   -1.9020   25.2140  -25.7760 C   0  0  0  0  0  0  0  0  0  0  0  0
   -0.7990   25.8330  -25.1840 C   0  0  0  0  0  0  0  0  0  0  0  0
    0.1510   26.4750  -25.9770 C   0  0  0  0  0  0  0  0  0  0  0  0
   -0.0140   26.5220  -27.3660 C   0  0  0  0  0  0  0  0  0  0  0  0
   -1.1230   25.9180  -27.9650 C   0  0  0  0  0  0  0  0  0  0  0  0
   -1.2960   26.0250  -29.3400 O   0  0  0  0  0  0  0  0  0  0  0  0
   -2.5790   24.9230  -29.7860 H   0  0  0  0  0  0  0  0  0  0  0  0
   -3.1779   22.3864  -30.8013 H   0  0  0  0  0  0  0  0  0  0  0  0
   -5.0728   21.2044  -31.9198 H   0  0  0  0  0  0  0  0  0  0  0  0
   -7.1240   19.2053  -30.9066 H   0  0  0  0  0  0  0  0  0  0  0  0
   -6.1341   16.9098  -30.8728 H   0  0  0  0  0  0  0  0  0  0  0  0
   -5.3858   15.8470  -33.0126 H   0  0  0  0  0  0  0  0  0  0  0  0
   -5.6331   17.1069  -35.1595 H   0  0  0  0  0  0  0  0  0  0  0  0
   -7.8565   24.0712  -30.2512 H   0  0  0  0  0  0  0  0  0  0  0  0
   -5.9679   25.2684  -29.1526 H   0  0  0  0  0  0  0  0  0  0  0  0
   -2.6526   24.7145  -25.1459 H   0  0  0  0  0  0  0  0  0  0  0  0
   -0.6796   25.8140  -24.0907 H   0  0  0  0  0  0  0  0  0  0  0  0
    1.0300   26.9445  -25.5112 H   0  0  0  0  0  0  0  0  0  0  0  0
    0.7324   27.0366  -27.9890 H   0  0  0  0  0  0  0  0  0  0  0  0
  1  2  2  0
  2  3  1  0
  3  4  1  0
  4  5  2  0
  5  6  1  0
  6  7  2  0
  7  8  1  0
  8  9  2  0
  8 10  2  0
  8 11  1  0
 11 12  2  3
 12 13  1  0
 13 14  2  0
 14 15  1  0
 15 16  2  0
 16 17  1  0
  7 18  1  0
 18 19  2  0
  2 20  1  0
 20 21  2  0
 21 22  1  0
 22 23  2  0
 23 24  1  0
 24 25  2  0
 25 26  1  0
 19  4  1  0
 25 20  1  0
 17 12  1  0
  3 27  1  0
  5 28  1  0
  6 29  1  0
 13 30  1  0
 14 31  1  0
 15 32  1  0
 16 33  1  0
 18 34  1  0
 19 35  1  0
 21 36  1  0
 22 37  1  0
 23 38  1  0
 24 39  1  0
M  CHG  2  17  -1  26  -1
M  END
>  <UniqueID>  (6) 
5

>  <SMILES>  (6) 
O=C(Nc1ccc(S(=O)(=O)N=c2cccc[n-]2)cc1)c1ccccc1[O-]

>  <Energy>  (6) 
58.354268931041105

>  <Genealogy>  (6) 
O=C(Nc1ccc(S(=O)(=O)N=c2cccc[n-]2)cc1)c1ccccc1[O-] (protonated)
O=C(Nc1ccc(S(=O)(=O)N=c2cccc[n-]2)cc1)c1ccccc1[O-] (3D coordinates assigned)
O=C(Nc1ccc(S(=O)(=O)N=c2cccc[n-]2)cc1)c1ccccc1[O-] (optimized conformer: 58.354268931041105 kcal/mol)

>  <smiles>  (6) 
O=C(Nc1ccc(S(=O)(=O)N=c2cccc[nH]2)cc1)c1ccccc1O

>  <score_type>  (6) 
oracle

>  <origin>  (6) 
adgpu

>  <m_score__min__energy>  (6) 
-12.19

>  <m_primary>  (6) 
energy

$$$$
6:0
     RDKit          3D

 56 59  0  0  0  0  0  0  0  0999 V2000
   -6.6440   17.6970  -30.9900 O   0  0  0  0  0  0  0  0  0  0  0  0
   -6.8090   18.0500  -32.4420 S   0  0  0  0  0  0  0  0  0  0  0  0
   -7.6080   16.9740  -33.1220 O   0  0  0  0  0  0  0  0  0  0  0  0
   -7.6670   19.5600  -32.5670 N   0  0  0  0  0  0  0  0  0  0  0  0
   -7.3780   20.7060  -32.0070 C   0  0  0  0  0  0  0  0  0  0  0  0
   -8.2300   21.7580  -32.3490 C   0  0  0  0  0  0  0  0  0  0  0  0
   -8.1620   23.1040  -32.0130 C   0  0  0  0  0  0  0  0  0  0  0  0
   -7.2000   23.7800  -31.2770 C   0  0  0  0  0  0  0  0  0  0  0  0
   -6.0900   23.2660  -30.6090 C   0  0  0  0  0  0  0  0  0  0  0  0
   -5.0220   24.4180  -29.7830 S   0  0  0  0  0  0  0  0  0  0  0  0
   -4.0690   25.0520  -30.7610 O   0  0  0  0  0  0  0  0  0  0  0  0
   -5.8700   25.5100  -29.1900 O   0  0  0  0  0  0  0  0  0  0  0  0
   -4.1400   23.6060  -28.5010 N   0  0  0  0  0  0  0  0  0  0  0  0
   -3.7770   24.5420  -27.4070 C   0  0  0  0  0  0  0  0  0  0  0  0
   -2.3260   25.0480  -27.5150 C   0  0  0  0  0  0  0  0  0  0  0  0
   -1.9320   25.1330  -28.8650 O   0  0  0  0  0  0  0  0  0  0  0  0
   -1.8180   23.8370  -29.4280 C   0  0  0  0  0  0  0  0  0  0  0  0
   -2.9640   22.8800  -29.0200 C   0  0  0  0  0  0  0  0  0  0  0  0
   -5.7170   21.9260  -30.5320 C   0  0  0  0  0  0  0  0  0  0  0  0
   -6.2830   20.8050  -31.1300 C   0  0  0  0  0  0  0  0  0  0  0  0
   -5.2400   18.1790  -33.2340 C   0  0  0  0  0  0  0  0  0  0  0  0
   -4.6240   17.0420  -33.7740 C   0  0  0  0  0  0  0  0  0  0  0  0
   -3.3420   17.1340  -34.3250 C   0  0  0  0  0  0  0  0  0  0  0  0
   -2.6580   18.3550  -34.3270 C   0  0  0  0  0  0  0  0  0  0  0  0
   -1.3660   18.4050  -34.8720 O   0  0  0  0  0  0  0  0  0  0  0  0
   -0.4950   19.5010  -34.7820 C   0  0  0  0  0  0  0  0  0  0  0  0
    0.0930   20.0820  -35.9210 C   0  0  0  0  0  0  0  0  0  0  0  0
    0.9410   21.1860  -35.7890 C   0  0  0  0  0  0  0  0  0  0  0  0
    1.2010   21.7230  -34.5240 C   0  0  0  0  0  0  0  0  0  0  0  0
    0.6050   21.1610  -33.3930 C   0  0  0  0  0  0  0  0  0  0  0  0
   -0.2460   20.0590  -33.5220 C   0  0  0  0  0  0  0  0  0  0  0  0
   -3.2940   19.5030  -33.8220 C   0  0  0  0  0  0  0  0  0  0  0  0
   -4.5770   19.4130  -33.2770 C   0  0  0  0  0  0  0  0  0  0  0  0
   -9.0857   21.4781  -32.9810 H   0  0  0  0  0  0  0  0  0  0  0  0
   -8.9914   23.7238  -32.3845 H   0  0  0  0  0  0  0  0  0  0  0  0
   -7.3310   24.8702  -31.2117 H   0  0  0  0  0  0  0  0  0  0  0  0
   -4.7980   22.8920  -28.1080 H   0  0  0  0  0  0  0  0  0  0  0  0
   -4.4552   25.4072  -27.4445 H   0  0  0  0  0  0  0  0  0  0  0  0
   -3.8683   23.9947  -26.4572 H   0  0  0  0  0  0  0  0  0  0  0  0
   -2.2548   26.0441  -27.0538 H   0  0  0  0  0  0  0  0  0  0  0  0
   -1.6631   24.3408  -26.9949 H   0  0  0  0  0  0  0  0  0  0  0  0
   -1.8187   23.9328  -30.5238 H   0  0  0  0  0  0  0  0  0  0  0  0
   -0.8830   23.4011  -29.0462 H   0  0  0  0  0  0  0  0  0  0  0  0
   -3.2687   22.2965  -29.9013 H   0  0  0  0  0  0  0  0  0  0  0  0
   -2.5891   22.2278  -28.2175 H   0  0  0  0  0  0  0  0  0  0  0  0
   -4.8393   21.7231  -29.9008 H   0  0  0  0  0  0  0  0  0  0  0  0
   -5.8001   19.8492  -30.8784 H   0  0  0  0  0  0  0  0  0  0  0  0
   -5.1496   16.0758  -33.7644 H   0  0  0  0  0  0  0  0  0  0  0  0
   -2.8683   16.2413  -34.7595 H   0  0  0  0  0  0  0  0  0  0  0  0
   -0.1151   19.6664  -36.9180 H   0  0  0  0  0  0  0  0  0  0  0  0
    1.4042   21.6327  -36.6812 H   0  0  0  0  0  0  0  0  0  0  0  0
    1.8740   22.5868  -34.4201 H   0  0  0  0  0  0  0  0  0  0  0  0
    0.8054   21.5862  -32.3985 H   0  0  0  0  0  0  0  0  0  0  0  0
   -0.7224   19.6281  -32.6290 H   0  0  0  0  0  0  0  0  0  0  0  0
   -2.7797   20.4747  -33.8562 H   0  0  0  0  0  0  0  0  0  0  0  0
   -5.0685   20.3136  -32.8803 H   0  0  0  0  0  0  0  0  0  0  0  0
  1  2  2  0
  2  3  2  0
  2  4  1  0
  4  5  2  3
  5  6  1  0
  6  7  2  0
  7  8  1  0
  8  9  2  0
  9 10  1  0
 10 11  2  0
 10 12  2  0
 10 13  1  0
 13 14  1  0
 14 15  1  0
 15 16  1  0
 16 17  1  0
 17 18  1  0
  9 19  1  0
 19 20  2  0
  2 21  1  0
 21 22  2  0
 22 23  1  0
 23 24  2  0
 24 25  1  0
 25 26  1  0
 26 27  2  0
 27 28  1  0
 28 29  2  0
 29 30  1  0
 30 31  2  0
 24 32  1  0
 32 33  2  0
 20  5  1  0
 33 21  1  0
 18 13  1  0
 31 26  1  0
  6 34  1  0
  7 35  1  0
  8 36  1  0
 13 37  1  0
 14 38  1  0
 14 39  1  0
 15 40  1  0
 15 41  1  0
 17 42  1  0
 17 43  1  0
 18 44  1  0
 18 45  1  0
 19 46  1  0
 20 47  1  0
 22 48  1  0
 23 49  1  0
 27 50  1  0
 28 51  1  0
 29 52  1  0
 30 53  1  0
 31 54  1  0
 32 55  1  0
 33 56  1  0
M  CHG  1  13   1
M  END
>  <UniqueID>  (7) 
6

>  <SMILES>  (7) 
O=S(=O)(N=c1cccc(S(=O)(=O)[NH+]2CCOCC2)cc1)c1ccc(Oc2ccccc2)cc1

>  <Energy>  (7) 
100.80481753680607

>  <Genealogy>  (7) 
O=S(=O)(N=c1cccc(S(=O)(=O)[NH+]2CCOCC2)cc1)c1ccc(Oc2ccccc2)cc1 (protonated)
O=S(=O)(N=c1cccc(S(=O)(=O)[NH+]2CCOCC2)cc1)c1ccc(Oc2ccccc2)cc1 (3D coordinates assigned)
O=S(=O)(N=c1cccc(S(=O)(=O)[NH+]2CCOCC2)cc1)c1ccc(Oc2ccccc2)cc1 (nonaromatic ring conformer: 100.80481753680607 kcal/mol)

>  <smiles>  (7) 
O=S(=O)(N=c1cccc(S(=O)(=O)N2CCOCC2)cc1)c1ccc(Oc2ccccc2)cc1

>  <score_type>  (7) 
oracle

>  <origin>  (7) 
adgpu

>  <m_score__min__energy>  (7) 
-10.699999999999999

>  <m_primary>  (7) 
energy

$$$$
7:0
     RDKit          3D

 46 48  0  0  0  0  0  0  0  0999 V2000
   -0.7140   25.7250  -28.9210 O   0  0  0  0  0  0  0  0  0  0  0  0
   -1.3890   24.6650  -28.8160 C   0  0  0  0  0  0  0  0  0  0  0  0
   -2.8700   24.7400  -28.6160 C   0  0  0  0  0  0  0  0  0  0  0  0
   -3.5430   24.9810  -29.8920 N   0  0  0  0  0  0  0  0  0  0  0  0
   -4.7250   24.2840  -30.3320 C   0  0  0  0  0  0  0  0  0  0  0  0
   -5.6410   24.8670  -31.2290 C   0  0  0  0  0  0  0  0  0  0  0  0
   -6.7860   24.1680  -31.6260 C   0  0  0  0  0  0  0  0  0  0  0  0
   -7.0260   22.8750  -31.1450 C   0  0  0  0  0  0  0  0  0  0  0  0
   -8.4630   21.9890  -31.6550 S   0  0  0  0  0  0  0  0  0  0  0  0
   -9.0600   21.3040  -30.4560 O   0  0  0  0  0  0  0  0  0  0  0  0
   -9.4820   22.9620  -32.1810 O   0  0  0  0  0  0  0  0  0  0  0  0
   -8.1150   20.7930  -32.8870 N   0  0  0  0  0  0  0  0  0  0  0  0
   -6.6820   20.4580  -32.9630 C   0  0  0  0  0  0  0  0  0  0  0  0
   -6.2480   19.4080  -31.9120 C   0  0  0  0  0  0  0  0  0  0  0  0
   -7.3360   18.8170  -31.2290 O   0  0  0  0  0  0  0  0  0  0  0  0
   -8.3060   18.3940  -32.1570 C   0  0  0  0  0  0  0  0  0  0  0  0
   -8.9950   19.6080  -32.8020 C   0  0  0  0  0  0  0  0  0  0  0  0
   -6.1160   22.2900  -30.2550 C   0  0  0  0  0  0  0  0  0  0  0  0
   -4.9720   22.9880  -29.8570 C   0  0  0  0  0  0  0  0  0  0  0  0
   -0.7570   23.3870  -28.9280 N   0  0  0  0  0  0  0  0  0  0  0  0
   -1.1850   22.2100  -28.2290 C   0  0  0  0  0  0  0  0  0  0  0  0
   -0.9650   22.0540  -26.8420 C   0  0  0  0  0  0  0  0  0  0  0  0
   -0.2360   23.3260  -25.8690 Cl  0  0  0  0  0  0  0  0  0  0  0  0
   -1.4000   20.8920  -26.1960 C   0  0  0  0  0  0  0  0  0  0  0  0
   -2.0640   19.8930  -26.9100 C   0  0  0  0  0  0  0  0  0  0  0  0
   -2.3130   20.0570  -28.2720 C   0  0  0  0  0  0  0  0  0  0  0  0
   -1.8850   21.2140  -28.9330 C   0  0  0  0  0  0  0  0  0  0  0  0
   -2.2130   21.3870  -30.6510 Cl  0  0  0  0  0  0  0  0  0  0  0  0
   -3.2273   23.7904  -28.1910 H   0  0  0  0  0  0  0  0  0  0  0  0
   -3.0968   25.5691  -27.9296 H   0  0  0  0  0  0  0  0  0  0  0  0
   -3.1010   25.6710  -30.5410 H   0  0  0  0  0  0  0  0  0  0  0  0
   -5.4550   25.8782  -31.6199 H   0  0  0  0  0  0  0  0  0  0  0  0
   -7.5007   24.6361  -32.3189 H   0  0  0  0  0  0  0  0  0  0  0  0
   -6.4683   20.0590  -33.9656 H   0  0  0  0  0  0  0  0  0  0  0  0
   -6.1181   21.3800  -32.7582 H   0  0  0  0  0  0  0  0  0  0  0  0
   -5.6844   18.6141  -32.4239 H   0  0  0  0  0  0  0  0  0  0  0  0
   -5.6379   19.9316  -31.1613 H   0  0  0  0  0  0  0  0  0  0  0  0
   -7.8206   17.7938  -32.9407 H   0  0  0  0  0  0  0  0  0  0  0  0
   -9.0622   17.7907  -31.6333 H   0  0  0  0  0  0  0  0  0  0  0  0
   -9.3113   19.3324  -33.8189 H   0  0  0  0  0  0  0  0  0  0  0  0
   -9.8504   19.8780  -32.1653 H   0  0  0  0  0  0  0  0  0  0  0  0
   -6.3023   21.2774  -29.8678 H   0  0  0  0  0  0  0  0  0  0  0  0
   -4.2590   22.5162  -29.1648 H   0  0  0  0  0  0  0  0  0  0  0  0
   -1.2177   20.7647  -25.1187 H   0  0  0  0  0  0  0  0  0  0  0  0
   -2.3909   18.9760  -26.3979 H   0  0  0  0  0  0  0  0  0  0  0  0
   -2.8480   19.2739  -28.8293 H   0  0  0  0  0  0  0  0  0  0  0  0
  1  2  2  0
  2  3  1  0
  3  4  1  0
  4  5  1  0
  5  6  2  0
  6  7  1  0
  7  8  2  0
  8  9  1  0
  9 10  2  0
  9 11  2  0
  9 12  1  0
 12 13  1  0
 13 14  1  0
 14 15  1  0
 15 16  1  0
 16 17  1  0
  8 18  1  0
 18 19  2  0
  2 20  1  0
 20 21  1  0
 21 22  2  0
 22 23  1  0
 22 24  1  0
 24 25  2  0
 25 26  1  0
 26 27  2  0
 27 28  1  0
 19  5  1  0
 27 21  1  0
 17 12  1  0
  3 29  1  0
  3 30  1  0
  4 31  1  0
  6 32  1  0
  7 33  1  0
 13 34  1  0
 13 35  1  0
 14 36  1  0
 14 37  1  0
 16 38  1  0
 16 39  1  0
 17 40  1  0
 17 41  1  0
 18 42  1  0
 19 43  1  0
 24 44  1  0
 25 45  1  0
 26 46  1  0
M  CHG  1  20  -1
M  END
>  <UniqueID>  (8) 
7

>  <SMILES>  (8) 
O=C(CNc1ccc(S(=O)(=O)N2CCOCC2)cc1)[N-]c1c(Cl)cccc1Cl

>  <Energy>  (8) 
62.799036407415066

>  <Genealogy>  (8) 
O=C(CNc1ccc(S(=O)(=O)N2CCOCC2)cc1)[N-]c1c(Cl)cccc1Cl (protonated)
O=C(CNc1ccc(S(=O)(=O)N2CCOCC2)cc1)[N-]c1c(Cl)cccc1Cl (3D coordinates assigned)
O=C(CNc1ccc(S(=O)(=O)N2CCOCC2)cc1)[N-]c1c(Cl)cccc1Cl (nonaromatic ring conformer: 62.799036407415066 kcal/mol)

>  <smiles>  (8) 
O=C(CNc1ccc(S(=O)(=O)N2CCOCC2)cc1)Nc1c(Cl)cccc1Cl

>  <score_type>  (8) 
oracle

>  <origin>  (8) 
adgpu

>  <m_score__min__energy>  (8) 
-10.949999999999999

>  <m_primary>  (8) 
energy

$$$$
8:0
     RDKit          3D

 53 56  0  0  0  0  0  0  0  0999 V2000
   -0.2780   21.2470  -29.5010 C   0  0  0  0  0  0  0  0  0  0  0  0
   -0.8370   22.3220  -28.7490 O   0  0  0  0  0  0  0  0  0  0  0  0
   -2.1280   22.8360  -28.9430 C   0  0  0  0  0  0  0  0  0  0  0  0
   -2.3610   24.0190  -29.6740 C   0  0  0  0  0  0  0  0  0  0  0  0
   -3.6650   24.4930  -29.8600 C   0  0  0  0  0  0  0  0  0  0  0  0
   -3.8660   25.6670  -30.5760 O   0  0  0  0  0  0  0  0  0  0  0  0
   -4.7520   23.7910  -29.3140 C   0  0  0  0  0  0  0  0  0  0  0  0
   -6.0990   24.2420  -29.5120 N   0  0  0  0  0  0  0  0  0  0  0  0
   -6.8470   23.8710  -30.7110 C   0  0  0  0  0  0  0  0  0  0  0  0
   -6.0930   22.8450  -31.5060 C   0  0  0  0  0  0  0  0  0  0  0  0
   -4.8660   23.0960  -32.0330 N   0  0  0  0  0  0  0  0  0  0  0  0
   -4.5350   21.9240  -32.6040 C   0  0  0  0  0  0  0  0  0  0  0  0
   -3.3300   21.6010  -33.2250 C   0  0  0  0  0  0  0  0  0  0  0  0
   -3.1460   20.2700  -33.6820 C   0  0  0  0  0  0  0  0  0  0  0  0
   -1.8530   19.8140  -34.2580 C   0  0  0  0  0  0  0  0  0  0  0  0
   -1.5420   18.5950  -34.1630 O   0  0  0  0  0  0  0  0  0  0  0  0
   -0.9180   20.7440  -34.8380 N   0  0  0  0  0  0  0  0  0  0  0  0
    0.4910   20.4700  -34.8780 C   0  0  0  0  0  0  0  0  0  0  0  0
    1.2080   20.6420  -36.0790 C   0  0  0  0  0  0  0  0  0  0  0  0
    2.5800   20.3830  -36.1250 C   0  0  0  0  0  0  0  0  0  0  0  0
    3.2540   19.9670  -34.9750 C   0  0  0  0  0  0  0  0  0  0  0  0
    2.5540   19.7990  -33.7750 C   0  0  0  0  0  0  0  0  0  0  0  0
    1.1730   20.0410  -33.7140 C   0  0  0  0  0  0  0  0  0  0  0  0
    0.4760   19.8060  -32.4820 N   0  0  0  0  0  0  0  0  0  0  0  0
   -4.2040   19.3340  -33.5260 C   0  0  0  0  0  0  0  0  0  0  0  0
   -5.4040   19.6970  -32.8920 C   0  0  0  0  0  0  0  0  0  0  0  0
   -5.5280   21.0080  -32.4350 C   0  0  0  0  0  0  0  0  0  0  0  0
   -6.5370   21.5830  -31.7570 N   0  0  0  0  0  0  0  0  0  0  0  0
   -7.7750   20.9600  -31.2820 C   0  0  0  0  0  0  0  0  0  0  0  0
   -4.5210   22.6260  -28.5700 C   0  0  0  0  0  0  0  0  0  0  0  0
   -3.2200   22.1450  -28.3940 C   0  0  0  0  0  0  0  0  0  0  0  0
   -2.9690   20.6650  -27.4810 Cl  0  0  0  0  0  0  0  0  0  0  0  0
    0.1180   20.4854  -28.8132 H   0  0  0  0  0  0  0  0  0  0  0  0
   -1.0573   20.7988  -30.1349 H   0  0  0  0  0  0  0  0  0  0  0  0
    0.5364   21.6276  -30.1349 H   0  0  0  0  0  0  0  0  0  0  0  0
   -1.5122   24.5733  -30.1011 H   0  0  0  0  0  0  0  0  0  0  0  0
   -6.6390   24.5540  -28.6750 H   0  0  0  0  0  0  0  0  0  0  0  0
   -7.8214   23.4550  -30.4152 H   0  0  0  0  0  0  0  0  0  0  0  0
   -6.9895   24.7674  -31.3324 H   0  0  0  0  0  0  0  0  0  0  0  0
   -2.5425   22.3575  -33.3574 H   0  0  0  0  0  0  0  0  0  0  0  0
   -1.2170   21.7220  -35.0330 H   0  0  0  0  0  0  0  0  0  0  0  0
    0.6846   20.9819  -36.9848 H   0  0  0  0  0  0  0  0  0  0  0  0
    3.1306   20.5070  -37.0692 H   0  0  0  0  0  0  0  0  0  0  0  0
    4.3358   19.7712  -35.0124 H   0  0  0  0  0  0  0  0  0  0  0  0
    3.0910   19.4744  -32.8715 H   0  0  0  0  0  0  0  0  0  0  0  0
   -0.3500   19.1670  -32.4550 H   0  0  0  0  0  0  0  0  0  0  0  0
    0.7100   20.3200  -31.6050 H   0  0  0  0  0  0  0  0  0  0  0  0
   -4.0814   18.3096  -33.9075 H   0  0  0  0  0  0  0  0  0  0  0  0
   -6.2192   18.9703  -32.7605 H   0  0  0  0  0  0  0  0  0  0  0  0
   -7.7845   20.9552  -30.1821 H   0  0  0  0  0  0  0  0  0  0  0  0
   -8.6388   21.5308  -31.6537 H   0  0  0  0  0  0  0  0  0  0  0  0
   -7.8313   19.9262  -31.6537 H   0  0  0  0  0  0  0  0  0  0  0  0
   -5.3685   22.0867  -28.1217 H   0  0  0  0  0  0  0  0  0  0  0  0
  1  2  1  0
  2  3  1  0
  3  4  2  0
  4  5  1  0
  5  6  1  0
  5  7  2  0
  7  8  1  0
  8  9  1  0
  9 10  1  0
 10 11  2  0
 11 12  1  0
 12 13  2  0
 13 14  1  0
 14 15  1  0
 15 16  2  0
 15 17  1  0
 17 18  1  0
 18 19  2  0
 19 20  1  0
 20 21  2  0
 21 22  1  0
 22 23  2  0
 23 24  1  0
 14 25  2  0
 25 26  1  0
 26 27  2  0
 27 28  1  0
 28 29  1  0
  7 30  1  0
 30 31  2  0
 31 32  1  0
 31  3  1  0
 28 10  1  0
 27 12  1  0
 23 18  1  0
  1 33  1  0
  1 34  1  0
  1 35  1  0
  4 36  1  0
  8 37  1  0
  9 38  1  0
  9 39  1  0
 13 40  1  0
 17 41  1  0
 19 42  1  0
 20 43  1  0
 21 44  1  0
 22 45  1  0
 24 46  1  0
 24 47  1  0
 25 48  1  0
 26 49  1  0
 29 50  1  0
 29 51  1  0
 29 52  1  0
 30 53  1  0
M  CHG  1   6  -1
M  END
>  <UniqueID>  (9) 
8

>  <SMILES>  (9) 
COc1cc([O-])c(NCc2nc3cc(C(=O)Nc4ccccc4N)ccc3n2C)cc1Cl

>  <Energy>  (9) 
109.65142200040727

>  <Genealogy>  (9) 
COc1cc([O-])c(NCc2nc3cc(C(=O)Nc4ccccc4N)ccc3n2C)cc1Cl (protonated)
COc1cc([O-])c(NCc2nc3cc(C(=O)Nc4ccccc4N)ccc3n2C)cc1Cl (3D coordinates assigned)
COc1cc([O-])c(NCc2nc3cc(C(=O)Nc4ccccc4N)ccc3n2C)cc1Cl (optimized conformer: 109.65142200040727 kcal/mol)

>  <smiles>  (9) 
COc1cc(O)c(NCc2nc3cc(C(=O)Nc4ccccc4N)ccc3n2C)cc1Cl

>  <score_type>  (9) 
oracle

>  <origin>  (9) 
adgpu

>  <m_score__min__energy>  (9) 
-11.859999999999999

>  <m_primary>  (9) 
energy

$$$$
9:0
     RDKit          3D

 50 53  0  0  0  0  0  0  0  0999 V2000
    0.6560   27.5980  -22.7250 N   0  0  0  0  0  0  0  0  0  0  0  0
    0.4460   27.6340  -24.1390 C   0  0  0  0  0  0  0  0  0  0  0  0
    1.1660   28.5360  -24.9350 C   0  0  0  0  0  0  0  0  0  0  0  0
    0.9460   28.5860  -26.3140 C   0  0  0  0  0  0  0  0  0  0  0  0
    0.0150   27.7290  -26.9070 C   0  0  0  0  0  0  0  0  0  0  0  0
   -0.6940   26.8030  -26.1280 C   0  0  0  0  0  0  0  0  0  0  0  0
   -1.6650   25.9500  -26.7600 N   0  0  0  0  0  0  0  0  0  0  0  0
   -1.3350   24.9570  -27.7510 C   0  0  0  0  0  0  0  0  0  0  0  0
   -0.1520   24.8660  -28.1790 O   0  0  0  0  0  0  0  0  0  0  0  0
   -2.3640   24.0360  -28.2880 C   0  0  0  0  0  0  0  0  0  0  0  0
   -2.3110   22.6520  -28.0410 C   0  0  0  0  0  0  0  0  0  0  0  0
   -3.2970   21.8040  -28.5520 C   0  0  0  0  0  0  0  0  0  0  0  0
   -4.3510   22.3250  -29.3050 C   0  0  0  0  0  0  0  0  0  0  0  0
   -4.4330   23.7030  -29.5430 C   0  0  0  0  0  0  0  0  0  0  0  0
   -5.7850   24.3660  -30.4640 S   0  0  0  0  0  0  0  0  0  0  0  0
   -5.3220   25.5790  -31.2230 O   0  0  0  0  0  0  0  0  0  0  0  0
   -6.8710   24.7970  -29.5170 O   0  0  0  0  0  0  0  0  0  0  0  0
   -6.4220   23.1880  -31.5890 N   0  0  0  0  0  0  0  0  0  0  0  0
   -5.3370   22.5350  -32.3650 C   0  0  0  0  0  0  0  0  0  0  0  0
   -5.0630   21.0860  -31.9410 C   0  0  0  0  0  0  0  0  0  0  0  0
   -6.3460   20.3180  -32.0200 C   0  0  0  0  0  0  0  0  0  0  0  0
   -6.3990   19.0130  -32.5330 C   0  0  0  0  0  0  0  0  0  0  0  0
   -7.6220   18.3370  -32.5890 C   0  0  0  0  0  0  0  0  0  0  0  0
   -8.7880   18.9560  -32.1260 C   0  0  0  0  0  0  0  0  0  0  0  0
   -8.7340   20.2520  -31.6020 C   0  0  0  0  0  0  0  0  0  0  0  0
   -7.5130   20.9420  -31.5610 C   0  0  0  0  0  0  0  0  0  0  0  0
   -7.3960   22.2950  -30.9100 C   0  0  0  0  0  0  0  0  0  0  0  0
   -3.4380   24.5520  -29.0370 C   0  0  0  0  0  0  0  0  0  0  0  0
   -0.4880   26.7750  -24.7370 C   0  0  0  0  0  0  0  0  0  0  0  0
    0.2960   28.3630  -22.1120 H   0  0  0  0  0  0  0  0  0  0  0  0
    1.1730   26.8070  -22.2810 H   0  0  0  0  0  0  0  0  0  0  0  0
    1.9059   29.2060  -24.4728 H   0  0  0  0  0  0  0  0  0  0  0  0
    1.5066   29.3012  -26.9339 H   0  0  0  0  0  0  0  0  0  0  0  0
   -0.1628   27.7810  -27.9913 H   0  0  0  0  0  0  0  0  0  0  0  0
   -2.6650   26.1110  -26.5120 H   0  0  0  0  0  0  0  0  0  0  0  0
   -1.4882   22.2348  -27.4419 H   0  0  0  0  0  0  0  0  0  0  0  0
   -3.2426   20.7222  -28.3604 H   0  0  0  0  0  0  0  0  0  0  0  0
   -5.1192   21.6514  -29.7125 H   0  0  0  0  0  0  0  0  0  0  0  0
   -5.6196   22.5385  -33.4281 H   0  0  0  0  0  0  0  0  0  0  0  0
   -4.4163   23.1059  -32.1742 H   0  0  0  0  0  0  0  0  0  0  0  0
   -4.3191   20.6363  -32.6151 H   0  0  0  0  0  0  0  0  0  0  0  0
   -4.6712   21.0613  -30.9134 H   0  0  0  0  0  0  0  0  0  0  0  0
   -5.4812   18.5231  -32.8901 H   0  0  0  0  0  0  0  0  0  0  0  0
   -7.6672   17.3168  -32.9978 H   0  0  0  0  0  0  0  0  0  0  0  0
   -9.7489   18.4228  -32.1740 H   0  0  0  0  0  0  0  0  0  0  0  0
   -9.6489   20.7301  -31.2221 H   0  0  0  0  0  0  0  0  0  0  0  0
   -8.3842   22.7780  -30.9270 H   0  0  0  0  0  0  0  0  0  0  0  0
   -7.0327   22.1343  -29.8842 H   0  0  0  0  0  0  0  0  0  0  0  0
   -3.4977   25.6337  -29.2277 H   0  0  0  0  0  0  0  0  0  0  0  0
   -1.0633   26.0746  -24.1137 H   0  0  0  0  0  0  0  0  0  0  0  0
  1  2  1  0
  2  3  2  0
  3  4  1  0
  4  5  2  0
  5  6  1  0
  6  7  1  0
  7  8  1  0
  8  9  2  0
  8 10  1  0
 10 11  2  0
 11 12  1  0
 12 13  2  0
 13 14  1  0
 14 15  1  0
 15 16  2  0
 15 17  2  0
 15 18  1  0
 18 19  1  0
 19 20  1  0
 20 21  1  0
 21 22  2  0
 22 23  1  0
 23 24  2  0
 24 25  1  0
 25 26  2  0
 26 27  1  0
 14 28  2  0
  6 29  2  0
 29  2  1  0
 28 10  1  0
 27 18  1  0
 26 21  1  0
  1 30  1  0
  1 31  1  0
  3 32  1  0
  4 33  1  0
  5 34  1  0
  7 35  1  0
 11 36  1  0
 12 37  1  0
 13 38  1  0
 19 39  1  0
 19 40  1  0
 20 41  1  0
 20 42  1  0
 22 43  1  0
 23 44  1  0
 24 45  1  0
 25 46  1  0
 27 47  1  0
 27 48  1  0
 28 49  1  0
 29 50  1  0
M  END
>  <UniqueID>  (10) 
9

>  <SMILES>  (10) 
Nc1cccc(NC(=O)c2cccc(S(=O)(=O)N3CCc4ccccc4C3)c2)c1

>  <Energy>  (10) 
68.71865927202136

>  <Genealogy>  (10) 
Nc1cccc(NC(=O)c2cccc(S(=O)(=O)N3CCc4ccccc4C3)c2)c1 (3D coordinates assigned)
Nc1cccc(NC(=O)c2cccc(S(=O)(=O)N3CCc4ccccc4C3)c2)c1 (nonaromatic ring conformer: 68.71865927202136 kcal/mol)

>  <smiles>  (10) 
Nc1cccc(NC(=O)c2cccc(S(=O)(=O)N3CCc4ccccc4C3)c2)c1

>  <score_type>  (10) 
oracle

>  <origin>  (10) 
adgpu

>  <m_score__min__energy>  (10) 
-10.77

>  <m_primary>  (10) 
energy

$$$$
10:0
     RDKit          3D

 56 58  0  0  0  0  0  0  0  0999 V2000
   -0.8430   26.3850  -27.2090 C   0  0  0  0  0  0  0  0  0  0  0  0
   -1.1280   25.6510  -28.5170 C   0  0  0  0  0  0  0  0  0  0  0  0
   -2.1380   24.6040  -28.3160 N   0  0  0  0  0  0  0  0  0  0  0  0
   -2.9600   24.5820  -27.1020 C   0  0  0  0  0  0  0  0  0  0  0  0
   -4.2340   23.7740  -27.3230 C   0  0  0  0  0  0  0  0  0  0  0  0
   -2.3720   23.6280  -29.3450 C   0  0  0  0  0  0  0  0  0  0  0  0
   -1.7540   22.3730  -29.2600 C   0  0  0  0  0  0  0  0  0  0  0  0
   -1.9680   21.4130  -30.2510 C   0  0  0  0  0  0  0  0  0  0  0  0
   -2.8200   21.6910  -31.3260 C   0  0  0  0  0  0  0  0  0  0  0  0
   -3.0960   20.4870  -32.5840 S   0  0  0  0  0  0  0  0  0  0  0  0
   -2.5320   19.1710  -32.1250 O   0  0  0  0  0  0  0  0  0  0  0  0
   -2.3940   20.8960  -33.8500 O   0  0  0  0  0  0  0  0  0  0  0  0
   -4.8100   20.3210  -32.8790 N   0  0  0  0  0  0  0  0  0  0  0  0
   -5.0470   19.2700  -33.8890 C   0  0  0  0  0  0  0  0  0  0  0  0
   -6.4850   18.7380  -33.7900 C   0  0  0  0  0  0  0  0  0  0  0  0
   -6.8080   18.1640  -32.5280 O   0  0  0  0  0  0  0  0  0  0  0  0
   -5.9820   18.6180  -31.4650 C   0  0  0  0  0  0  0  0  0  0  0  0
   -5.5470   20.0860  -31.6170 C   0  0  0  0  0  0  0  0  0  0  0  0
   -3.4400   22.9440  -31.4160 C   0  0  0  0  0  0  0  0  0  0  0  0
   -3.2090   23.9270  -30.4350 C   0  0  0  0  0  0  0  0  0  0  0  0
   -3.8700   25.2000  -30.4780 N   0  0  0  0  0  0  0  0  0  0  0  0
   -5.2830   25.4390  -30.4460 C   0  0  0  0  0  0  0  0  0  0  0  0
   -5.7320   26.5700  -30.1170 O   0  0  0  0  0  0  0  0  0  0  0  0
   -6.2250   24.3450  -30.7440 C   0  0  0  0  0  0  0  0  0  0  0  0
   -6.8260   23.5940  -29.7220 C   0  0  0  0  0  0  0  0  0  0  0  0
   -7.6880   22.5950  -30.0430 N   0  0  0  0  0  0  0  0  0  0  0  0
   -7.9780   22.2970  -31.3390 C   0  0  0  0  0  0  0  0  0  0  0  0
   -8.9550   21.2100  -31.6560 C   0  0  0  0  0  0  0  0  0  0  0  0
   -7.3890   23.0510  -32.3590 C   0  0  0  0  0  0  0  0  0  0  0  0
   -6.5270   24.0500  -32.0390 N   0  0  0  0  0  0  0  0  0  0  0  0
   -1.0962   25.7330  -26.3600 H   0  0  0  0  0  0  0  0  0  0  0  0
    0.2235   26.6503  -27.1623 H   0  0  0  0  0  0  0  0  0  0  0  0
   -1.4510   27.3005  -27.1623 H   0  0  0  0  0  0  0  0  0  0  0  0
   -1.4978   26.3711  -29.2618 H   0  0  0  0  0  0  0  0  0  0  0  0
   -0.1975   25.1815  -28.8688 H   0  0  0  0  0  0  0  0  0  0  0  0
   -2.3822   24.1271  -26.2839 H   0  0  0  0  0  0  0  0  0  0  0  0
   -3.2385   25.6152  -26.8470 H   0  0  0  0  0  0  0  0  0  0  0  0
   -4.6673   23.4992  -26.3500 H   0  0  0  0  0  0  0  0  0  0  0  0
   -4.9579   24.3784  -27.8892 H   0  0  0  0  0  0  0  0  0  0  0  0
   -3.9959   22.8615  -27.8892 H   0  0  0  0  0  0  0  0  0  0  0  0
   -1.0970   22.1431  -28.4082 H   0  0  0  0  0  0  0  0  0  0  0  0
   -1.4660   20.4363  -30.1867 H   0  0  0  0  0  0  0  0  0  0  0  0
   -4.8855   19.6903  -34.8926 H   0  0  0  0  0  0  0  0  0  0  0  0
   -4.3488   18.4397  -33.7068 H   0  0  0  0  0  0  0  0  0  0  0  0
   -7.1758   19.5736  -33.9761 H   0  0  0  0  0  0  0  0  0  0  0  0
   -6.5776   17.9350  -34.5361 H   0  0  0  0  0  0  0  0  0  0  0  0
   -6.5384   18.5145  -30.5218 H   0  0  0  0  0  0  0  0  0  0  0  0
   -5.0690   18.0046  -31.4769 H   0  0  0  0  0  0  0  0  0  0  0  0
   -6.4428   20.7243  -31.6053 H   0  0  0  0  0  0  0  0  0  0  0  0
   -4.8735   20.3277  -30.7816 H   0  0  0  0  0  0  0  0  0  0  0  0
   -4.1121   23.1614  -32.2592 H   0  0  0  0  0  0  0  0  0  0  0  0
   -6.6003   23.8132  -28.6679 H   0  0  0  0  0  0  0  0  0  0  0  0
   -9.3415   20.7800  -30.7202 H   0  0  0  0  0  0  0  0  0  0  0  0
   -9.7890   21.6256  -32.2405 H   0  0  0  0  0  0  0  0  0  0  0  0
   -8.4531   20.4249  -32.2405 H   0  0  0  0  0  0  0  0  0  0  0  0
   -7.6223   22.8364  -33.4123 H   0  0  0  0  0  0  0  0  0  0  0  0
  1  2  1  0
  2  3  1  0
  3  4  1  0
  4  5  1  0
  3  6  1  0
  6  7  2  0
  7  8  1  0
  8  9  2  0
  9 10  1  0
 10 11  2  0
 10 12  2  0
 10 13  1  0
 13 14  1  0
 14 15  1  0
 15 16  1  0
 16 17  1  0
 17 18  1  0
  9 19  1  0
 19 20  2  0
 20 21  1  0
 21 22  1  0
 22 23  2  0
 22 24  1  0
 24 25  2  0
 25 26  1  0
 26 27  2  0
 27 28  1  0
 27 29  1  0
 29 30  2  0
 20  6  1  0
 30 24  1  0
 18 13  1  0
  1 31  1  0
  1 32  1  0
  1 33  1  0
  2 34  1  0
  2 35  1  0
  4 36  1  0
  4 37  1  0
  5 38  1  0
  5 39  1  0
  5 40  1  0
  7 41  1  0
  8 42  1  0
 14 43  1  0
 14 44  1  0
 15 45  1  0
 15 46  1  0
 17 47  1  0
 17 48  1  0
 18 49  1  0
 18 50  1  0
 19 51  1  0
 25 52  1  0
 28 53  1  0
 28 54  1  0
 28 55  1  0
 29 56  1  0
M  CHG  1  21  -1
M  END
>  <UniqueID>  (11) 
10

>  <SMILES>  (11) 
CCN(CC)c1ccc(S(=O)(=O)N2CCOCC2)cc1[N-]C(=O)c1cnc(C)cn1

>  <Energy>  (11) 
70.94785504525267

>  <Genealogy>  (11) 
CCN(CC)c1ccc(S(=O)(=O)N2CCOCC2)cc1[N-]C(=O)c1cnc(C)cn1 (protonated)
CCN(CC)c1ccc(S(=O)(=O)N2CCOCC2)cc1[N-]C(=O)c1cnc(C)cn1 (3D coordinates assigned)
CCN(CC)c1ccc(S(=O)(=O)N2CCOCC2)cc1[N-]C(=O)c1cnc(C)cn1 (nonaromatic ring conformer: 70.94785504525267 kcal/mol)

>  <smiles>  (11) 
CCN(CC)c1ccc(S(=O)(=O)N2CCOCC2)cc1NC(=O)c1cnc(C)cn1

>  <score_type>  (11) 
oracle

>  <origin>  (11) 
adgpu

>  <m_score__min__energy>  (11) 
-10.1

>  <m_primary>  (11) 
energy

$$$$
11:0
     RDKit          3D

 35 37  0  0  0  0  0  0  0  0999 V2000
   -3.8770   26.4870  -30.8200 H   0  0  0  0  0  0  0  0  0  0  0  0
   -4.3610   25.6500  -31.1220 O   0  0  0  0  0  0  0  0  0  0  0  0
   -4.0080   24.3830  -30.6620 C   0  0  0  0  0  0  0  0  0  0  0  0
   -4.7480   23.2720  -31.0870 C   0  0  0  0  0  0  0  0  0  0  0  0
   -5.6034   23.4129  -31.7641 H   0  0  0  0  0  0  0  0  0  0  0  0
   -4.4070   21.9810  -30.6560 C   0  0  0  0  0  0  0  0  0  0  0  0
   -5.2330   20.8370  -31.0960 C   0  0  0  0  0  0  0  0  0  0  0  0
   -6.2217   20.7063  -30.6319 H   0  0  0  0  0  0  0  0  0  0  0  0
   -4.8520   19.9470  -32.0270 C   0  0  0  0  0  0  0  0  0  0  0  0
   -3.3390   20.0620  -32.9980 S   0  0  0  0  0  0  0  0  0  0  0  0
   -3.8560   18.5910  -33.8920 C   0  0  0  0  0  0  0  0  0  0  0  0
   -2.7560   17.7070  -34.7240 S   0  0  0  0  0  0  0  0  0  0  0  0
   -5.1260   18.0570  -33.5070 N   0  0  0  0  0  0  0  0  0  0  0  0
   -5.8530   17.0110  -34.2320 C   0  0  0  0  0  0  0  0  0  0  0  0
   -6.9344   17.1930  -34.1458 H   0  0  0  0  0  0  0  0  0  0  0  0
   -5.5532   17.0315  -35.2902 H   0  0  0  0  0  0  0  0  0  0  0  0
   -5.5280   15.6600  -33.6540 C   0  0  0  0  0  0  0  0  0  0  0  0
   -6.0890   14.4980  -34.2100 C   0  0  0  0  0  0  0  0  0  0  0  0
   -6.7446   14.5724  -35.0902 H   0  0  0  0  0  0  0  0  0  0  0  0
   -5.8160   13.2460  -33.6470 C   0  0  0  0  0  0  0  0  0  0  0  0
   -6.2513   12.3380  -34.0897 H   0  0  0  0  0  0  0  0  0  0  0  0
   -4.9910   13.1480  -32.5230 C   0  0  0  0  0  0  0  0  0  0  0  0
   -4.7767   12.1633  -32.0821 H   0  0  0  0  0  0  0  0  0  0  0  0
   -4.4380   14.3020  -31.9590 C   0  0  0  0  0  0  0  0  0  0  0  0
   -3.7898   14.2244  -31.0737 H   0  0  0  0  0  0  0  0  0  0  0  0
   -4.7080   15.5540  -32.5190 C   0  0  0  0  0  0  0  0  0  0  0  0
   -4.2763   16.4600  -32.0687 H   0  0  0  0  0  0  0  0  0  0  0  0
   -5.6950   18.8390  -32.4650 C   0  0  0  0  0  0  0  0  0  0  0  0
   -6.8260   18.5850  -31.9680 O   0  0  0  0  0  0  0  0  0  0  0  0
   -3.3430   21.8160  -29.7530 C   0  0  0  0  0  0  0  0  0  0  0  0
   -3.0922   20.8124  -29.3791 H   0  0  0  0  0  0  0  0  0  0  0  0
   -2.6020   22.9230  -29.3280 C   0  0  0  0  0  0  0  0  0  0  0  0
   -1.7597   22.7852  -28.6341 H   0  0  0  0  0  0  0  0  0  0  0  0
   -2.9280   24.2040  -29.7820 C   0  0  0  0  0  0  0  0  0  0  0  0
   -2.1800   25.2940  -29.3510 O   0  0  0  0  0  0  0  0  0  0  0  0
  1  2  1  0
  2  3  1  0
  3  4  2  0
  4  5  1  0
  4  6  1  0
  6  7  1  0
  7  8  1  0
  7  9  2  0
  9 10  1  0
 10 11  1  0
 11 12  2  0
 11 13  1  0
 13 14  1  0
 14 15  1  0
 14 16  1  0
 14 17  1  0
 17 18  2  0
 18 19  1  0
 18 20  1  0
 20 21  1  0
 20 22  2  0
 22 23  1  0
 22 24  1  0
 24 25  1  0
 24 26  2  0
 26 27  1  0
 13 28  1  0
 28 29  2  0
  6 30  2  0
 30 31  1  0
 30 32  1  0
 32 33  1  0
 32 34  2  0
 34 35  1  0
 34  3  1  0
 28  9  1  0
 26 17  1  0
M  CHG  1  35  -1
M  END
>  <UniqueID>  (12) 
11

>  <SMILES>  (12) 
O=C1/C(=C/c2ccc([O-])c(O)c2)SC(=S)N1Cc1ccccc1

>  <Energy>  (12) 
61.62076722449928

>  <Genealogy>  (12) 
O=C1C(=Cc2ccc([O-])c(O)c2)SC(=S)N1Cc1ccccc1 (protonated)
O=C1/C(=C/c2ccc([O-])c(O)c2)SC(=S)N1Cc1ccccc1 (cis-trans isomerization)
O=C1/C(=C/c2ccc([O-])c(O)c2)SC(=S)N1Cc1ccccc1 (3D coordinates assigned)
O=C1/C(=C/c2ccc([O-])c(O)c2)SC(=S)N1Cc1ccccc1 (nonaromatic ring conformer: 61.62076722449928 kcal/mol)

>  <smiles>  (12) 
O=C1C(=Cc2ccc(O)c(O)c2)SC(=S)N1Cc1ccccc1

>  <score_type>  (12) 
oracle

>  <origin>  (12) 
adgpu

>  <m_score__min__energy>  (12) 
-10.83

>  <m_primary>  (12) 
energy

$$$$
12:0
     RDKit          3D

 46 49  0  0  0  0  0  0  0  0999 V2000
    0.3421   19.6027  -30.3870 H   0  0  0  0  0  0  0  0  0  0  0  0
   -0.2840   20.2740  -30.9930 C   0  0  0  0  0  0  0  0  0  0  0  0
   -0.2210   20.2220  -32.3470 N   0  0  0  0  0  0  0  0  0  0  0  0
   -0.9880   21.0430  -33.1180 C   0  0  0  0  0  0  0  0  0  0  0  0
   -0.9240   20.9970  -34.4150 N   0  0  0  0  0  0  0  0  0  0  0  0
   -0.0730   20.0860  -35.1820 C   0  0  0  0  0  0  0  0  0  0  0  0
   -0.7072   19.4374  -35.8042 H   0  0  0  0  0  0  0  0  0  0  0  0
    0.5197   19.4808  -34.4802 H   0  0  0  0  0  0  0  0  0  0  0  0
    0.8800   20.8670  -36.0820 C   0  0  0  0  0  0  0  0  0  0  0  0
    1.5821   21.4424  -35.4608 H   0  0  0  0  0  0  0  0  0  0  0  0
    1.4417   20.1661  -36.7170 H   0  0  0  0  0  0  0  0  0  0  0  0
    0.3031   21.5555  -36.7170 H   0  0  0  0  0  0  0  0  0  0  0  0
   -1.8280   21.9300  -32.5240 N   0  0  0  0  0  0  0  0  0  0  0  0
   -1.9290   22.0170  -31.1700 C   0  0  0  0  0  0  0  0  0  0  0  0
   -2.8340   22.9690  -30.5800 N   0  0  0  0  0  0  0  0  0  0  0  0
   -2.6250   23.7790  -29.5050 C   0  0  0  0  0  0  0  0  0  0  0  0
   -1.4950   23.8120  -28.8570 N   0  0  0  0  0  0  0  0  0  0  0  0
   -1.1990   24.5860  -27.6850 C   0  0  0  0  0  0  0  0  0  0  0  0
   -0.8630   25.9370  -27.8420 C   0  0  0  0  0  0  0  0  0  0  0  0
   -0.8539   26.3843  -28.8469 H   0  0  0  0  0  0  0  0  0  0  0  0
   -0.5390   26.7210  -26.7300 C   0  0  0  0  0  0  0  0  0  0  0  0
   -0.2974   27.7860  -26.8620 H   0  0  0  0  0  0  0  0  0  0  0  0
   -0.5210   26.1550  -25.4490 C   0  0  0  0  0  0  0  0  0  0  0  0
   -0.1250   27.1480  -24.0510 S   0  0  0  0  0  0  0  0  0  0  0  0
   -1.2280   27.0560  -23.0340 O   0  0  0  0  0  0  0  0  0  0  0  0
    0.0240   28.5840  -24.4710 O   0  0  0  0  0  0  0  0  0  0  0  0
    1.3560   26.5960  -23.3540 N   0  0  0  0  0  0  0  0  0  0  0  0
    1.4940   27.1270  -22.4650 H   0  0  0  0  0  0  0  0  0  0  0  0
    1.2140   25.5950  -23.0880 H   0  0  0  0  0  0  0  0  0  0  0  0
   -0.8330   24.7990  -25.2880 C   0  0  0  0  0  0  0  0  0  0  0  0
   -0.8224   24.3498  -24.2840 H   0  0  0  0  0  0  0  0  0  0  0  0
   -1.1580   24.0140  -26.3990 C   0  0  0  0  0  0  0  0  0  0  0  0
   -1.3825   22.9452  -26.2676 H   0  0  0  0  0  0  0  0  0  0  0  0
   -3.6980   24.5490  -29.1840 N   0  0  0  0  0  0  0  0  0  0  0  0
   -4.6150   24.1800  -30.0960 C   0  0  0  0  0  0  0  0  0  0  0  0
   -5.9130   24.6670  -30.2330 C   0  0  0  0  0  0  0  0  0  0  0  0
   -6.3098   25.4297  -29.5468 H   0  0  0  0  0  0  0  0  0  0  0  0
   -6.6990   24.1500  -31.2790 C   0  0  0  0  0  0  0  0  0  0  0  0
   -7.7301   24.5080  -31.4158 H   0  0  0  0  0  0  0  0  0  0  0  0
   -6.1730   23.1740  -32.1550 C   0  0  0  0  0  0  0  0  0  0  0  0
   -6.7969   22.7789  -32.9702 H   0  0  0  0  0  0  0  0  0  0  0  0
   -4.8570   22.7040  -31.9920 C   0  0  0  0  0  0  0  0  0  0  0  0
   -4.4332   21.9508  -32.6726 H   0  0  0  0  0  0  0  0  0  0  0  0
   -4.1060   23.2280  -30.9340 C   0  0  0  0  0  0  0  0  0  0  0  0
   -1.1420   21.1780  -30.3700 C   0  0  0  0  0  0  0  0  0  0  0  0
   -1.2003   21.2319  -29.2729 H   0  0  0  0  0  0  0  0  0  0  0  0
  1  2  1  0
  2  3  1  0
  3  4  1  0
  4  5  2  3
  5  6  1  0
  6  7  1  0
  6  8  1  0
  6  9  1  0
  9 10  1  0
  9 11  1  0
  9 12  1  0
  4 13  1  0
 13 14  2  0
 14 15  1  0
 15 16  1  0
 16 17  2  0
 17 18  1  0
 18 19  2  0
 19 20  1  0
 19 21  1  0
 21 22  1  0
 21 23  2  0
 23 24  1  0
 24 25  2  0
 24 26  2  0
 24 27  1  0
 27 28  1  0
 27 29  1  0
 23 30  1  0
 30 31  1  0
 30 32  2  0
 32 33  1  0
 16 34  1  0
 34 35  1  0
 35 36  2  0
 36 37  1  0
 36 38  1  0
 38 39  1  0
 38 40  2  0
 40 41  1  0
 40 42  1  0
 42 43  1  0
 42 44  2  0
 14 45  1  0
 45 46  1  0
 45  2  2  0
 44 15  1  0
 32 18  1  0
 44 35  1  0
M  CHG  2   3  -1  34  -1
M  END
>  <UniqueID>  (13) 
12

>  <SMILES>  (13) 
CCN=c1nc(-n2/c(=N/c3ccc(S(N)(=O)=O)cc3)[n-]c3ccccc32)cc[n-]1

>  <Energy>  (13) 
96.26795512986409

>  <Genealogy>  (13) 
CCN=c1nc(-n2c(=Nc3ccc(S(N)(=O)=O)cc3)[n-]c3ccccc32)cc[n-]1 (protonated)
CCN=c1nc(-n2/c(=N/c3ccc(S(N)(=O)=O)cc3)[n-]c3ccccc32)cc[n-]1 (cis-trans isomerization)
CCN=c1nc(-n2/c(=N/c3ccc(S(N)(=O)=O)cc3)[n-]c3ccccc32)cc[n-]1 (3D coordinates assigned)
CCN=c1nc(-n2/c(=N/c3ccc(S(N)(=O)=O)cc3)[n-]c3ccccc32)cc[n-]1 (optimized conformer: 96.26795512986409 kcal/mol)

>  <smiles>  (13) 
CCN=c1nc(-n2c(=Nc3ccc(S(N)(=O)=O)cc3)[nH]c3ccccc32)cc[nH]1

>  <score_type>  (13) 
oracle

>  <origin>  (13) 
adgpu

>  <m_score__min__energy>  (13) 
-9.7400000000000002

>  <m_primary>  (13) 
energy

$$$$
13:0
     RDKit          3D

 42 44  0  0  0  0  0  0  0  0999 V2000
   -3.8620   25.3370  -29.8440 O   0  0  0  0  0  0  0  0  0  0  0  0
   -3.9230   24.1730  -29.3620 C   0  0  0  0  0  0  0  0  0  0  0  0
   -3.2810   23.8810  -28.1060 N   0  0  0  0  0  0  0  0  0  0  0  0
   -2.4880   24.8350  -27.3780 C   0  0  0  0  0  0  0  0  0  0  0  0
   -2.6080   24.9650  -25.9820 C   0  0  0  0  0  0  0  0  0  0  0  0
   -1.8520   25.9160  -25.2920 C   0  0  0  0  0  0  0  0  0  0  0  0
   -0.9810   26.7570  -25.9880 C   0  0  0  0  0  0  0  0  0  0  0  0
   -0.8700   26.6530  -27.3760 C   0  0  0  0  0  0  0  0  0  0  0  0
   -1.6240   25.7010  -28.0730 C   0  0  0  0  0  0  0  0  0  0  0  0
   -1.5010   25.6120  -29.4560 O   0  0  0  0  0  0  0  0  0  0  0  0
   -4.6660   23.1280  -30.1060 C   0  0  0  0  0  0  0  0  0  0  0  0
   -3.9700   22.0420  -30.6650 C   0  0  0  0  0  0  0  0  0  0  0  0
   -4.6520   21.0500  -31.3760 C   0  0  0  0  0  0  0  0  0  0  0  0
   -6.0380   21.1340  -31.5530 C   0  0  0  0  0  0  0  0  0  0  0  0
   -6.8960   19.8910  -32.4700 S   0  0  0  0  0  0  0  0  0  0  0  0
   -7.2270   20.4250  -33.8360 O   0  0  0  0  0  0  0  0  0  0  0  0
   -8.1870   19.5650  -31.7720 O   0  0  0  0  0  0  0  0  0  0  0  0
   -5.9420   18.4330  -32.6310 N   0  0  0  0  0  0  0  0  0  0  0  0
   -6.8190   17.2620  -32.8250 C   0  0  0  0  0  0  0  0  0  0  0  0
   -6.0370   16.1020  -33.4610 C   0  0  0  0  0  0  0  0  0  0  0  0
   -5.4810   16.4040  -34.7360 O   0  0  0  0  0  0  0  0  0  0  0  0
   -5.2810   17.7940  -34.9590 C   0  0  0  0  0  0  0  0  0  0  0  0
   -4.9100   18.5680  -33.6810 C   0  0  0  0  0  0  0  0  0  0  0  0
   -6.7370   22.2160  -31.0030 C   0  0  0  0  0  0  0  0  0  0  0  0
   -6.0580   23.2080  -30.2910 C   0  0  0  0  0  0  0  0  0  0  0  0
   -3.4190   22.9450  -27.6680 H   0  0  0  0  0  0  0  0  0  0  0  0
   -3.3017   24.3135  -25.4303 H   0  0  0  0  0  0  0  0  0  0  0  0
   -1.9430   26.0024  -24.1992 H   0  0  0  0  0  0  0  0  0  0  0  0
   -0.3823   27.5015  -25.4427 H   0  0  0  0  0  0  0  0  0  0  0  0
   -0.1884   27.3207  -27.9233 H   0  0  0  0  0  0  0  0  0  0  0  0
   -2.8791   21.9721  -30.5419 H   0  0  0  0  0  0  0  0  0  0  0  0
   -4.0968   20.1995  -31.7983 H   0  0  0  0  0  0  0  0  0  0  0  0
   -7.2141   16.9404  -31.8501 H   0  0  0  0  0  0  0  0  0  0  0  0
   -7.6446   17.5436  -33.4952 H   0  0  0  0  0  0  0  0  0  0  0  0
   -5.2159   15.8265  -32.7829 H   0  0  0  0  0  0  0  0  0  0  0  0
   -6.7550   15.2830  -33.6148 H   0  0  0  0  0  0  0  0  0  0  0  0
   -4.4684   17.9170  -35.6901 H   0  0  0  0  0  0  0  0  0  0  0  0
   -6.2332   18.2058  -35.3248 H   0  0  0  0  0  0  0  0  0  0  0  0
   -3.9569   18.1782  -33.2941 H   0  0  0  0  0  0  0  0  0  0  0  0
   -4.8284   19.6336  -33.9414 H   0  0  0  0  0  0  0  0  0  0  0  0
   -7.8272   22.2852  -31.1324 H   0  0  0  0  0  0  0  0  0  0  0  0
   -6.6163   24.0581  -29.8719 H   0  0  0  0  0  0  0  0  0  0  0  0
  1  2  2  0
  2  3  1  0
  3  4  1  0
  4  5  2  0
  5  6  1  0
  6  7  2  0
  7  8  1  0
  8  9  2  0
  9 10  1  0
  2 11  1  0
 11 12  2  0
 12 13  1  0
 13 14  2  0
 14 15  1  0
 15 16  2  0
 15 17  2  0
 15 18  1  0
 18 19  1  0
 19 20  1  0
 20 21  1  0
 21 22  1  0
 22 23  1  0
 14 24  1  0
 24 25  2  0
  9  4  1  0
 25 11  1  0
 23 18  1  0
  3 26  1  0
  5 27  1  0
  6 28  1  0
  7 29  1  0
  8 30  1  0
 12 31  1  0
 13 32  1  0
 19 33  1  0
 19 34  1  0
 20 35  1  0
 20 36  1  0
 22 37  1  0
 22 38  1  0
 23 39  1  0
 23 40  1  0
 24 41  1  0
 25 42  1  0
M  CHG  1  10  -1
M  END
>  <UniqueID>  (14) 
13

>  <SMILES>  (14) 
O=C(Nc1ccccc1[O-])c1ccc(S(=O)(=O)N2CCOCC2)cc1

>  <Energy>  (14) 
62.89062926309911

>  <Genealogy>  (14) 
O=C(Nc1ccccc1[O-])c1ccc(S(=O)(=O)N2CCOCC2)cc1 (protonated)
O=C(Nc1ccccc1[O-])c1ccc(S(=O)(=O)N2CCOCC2)cc1 (3D coordinates assigned)
O=C(Nc1ccccc1[O-])c1ccc(S(=O)(=O)N2CCOCC2)cc1 (nonaromatic ring conformer: 62.89062926309911 kcal/mol)

>  <smiles>  (14) 
O=C(Nc1ccccc1O)c1ccc(S(=O)(=O)N2CCOCC2)cc1

>  <score_type>  (14) 
oracle

>  <origin>  (14) 
adgpu

>  <m_score__min__energy>  (14) 
-11.81

>  <m_primary>  (14) 
energy

$$$$
14:0
     RDKit          3D

 59 63  0  0  0  0  0  0  0  0999 V2000
   -6.2240   19.1500  -33.8630 C   0  0  0  0  0  0  0  0  0  0  0  0
   -6.6350   18.9330  -32.4720 N   0  0  0  0  0  0  0  0  0  0  0  0
   -7.0950   17.5490  -32.2960 C   0  0  0  0  0  0  0  0  0  0  0  0
   -7.9290   20.0360  -32.0690 S   0  0  0  0  0  0  0  0  0  0  0  0
   -8.6640   19.5480  -30.8500 O   0  0  0  0  0  0  0  0  0  0  0  0
   -8.8990   20.1280  -33.2180 O   0  0  0  0  0  0  0  0  0  0  0  0
   -7.2690   21.6280  -31.7050 C   0  0  0  0  0  0  0  0  0  0  0  0
   -6.2830   22.1800  -32.5300 C   0  0  0  0  0  0  0  0  0  0  0  0
   -5.6570   23.3820  -32.1820 C   0  0  0  0  0  0  0  0  0  0  0  0
   -6.0110   24.0500  -30.9950 C   0  0  0  0  0  0  0  0  0  0  0  0
   -5.2890   25.2740  -30.5600 C   0  0  0  0  0  0  0  0  0  0  0  0
   -5.9350   26.3100  -30.2420 O   0  0  0  0  0  0  0  0  0  0  0  0
   -3.8640   25.2970  -30.4470 N   0  0  0  0  0  0  0  0  0  0  0  0
   -3.1400   24.5660  -29.4150 C   0  0  0  0  0  0  0  0  0  0  0  0
   -2.2760   23.5040  -30.0340 C   0  0  0  0  0  0  0  0  0  0  0  0
   -2.6610   22.6600  -31.0560 C   0  0  0  0  0  0  0  0  0  0  0  0
   -1.7330   21.6880  -31.1840 N   0  0  0  0  0  0  0  0  0  0  0  0
   -1.7630   20.5840  -32.1090 C   0  0  0  0  0  0  0  0  0  0  0  0
   -2.9690   19.9240  -32.4220 C   0  0  0  0  0  0  0  0  0  0  0  0
   -2.9810   18.8660  -33.3350 C   0  0  0  0  0  0  0  0  0  0  0  0
   -1.7920   18.4460  -33.9390 C   0  0  0  0  0  0  0  0  0  0  0  0
   -0.5940   19.0990  -33.6440 C   0  0  0  0  0  0  0  0  0  0  0  0
   -0.5760   20.1610  -32.7350 C   0  0  0  0  0  0  0  0  0  0  0  0
   -0.7900   21.8560  -30.2700 N   0  0  0  0  0  0  0  0  0  0  0  0
   -1.0870   22.9620  -29.5610 C   0  0  0  0  0  0  0  0  0  0  0  0
   -0.3050   23.3900  -28.3920 C   0  0  0  0  0  0  0  0  0  0  0  0
   -0.5230   23.0080  -27.0720 C   0  0  0  0  0  0  0  0  0  0  0  0
    0.4800   23.6290  -26.3690 C   0  0  0  0  0  0  0  0  0  0  0  0
    0.7880   23.6000  -25.0140 C   0  0  0  0  0  0  0  0  0  0  0  0
    1.9060   24.3340  -24.5810 C   0  0  0  0  0  0  0  0  0  0  0  0
    2.6710   25.0800  -25.5040 C   0  0  0  0  0  0  0  0  0  0  0  0
    2.3260   25.0930  -26.8680 C   0  0  0  0  0  0  0  0  0  0  0  0
    1.2190   24.3460  -27.2660 C   0  0  0  0  0  0  0  0  0  0  0  0
    0.7330   24.2040  -28.4740 O   0  0  0  0  0  0  0  0  0  0  0  0
   -7.0330   23.5090  -30.1920 C   0  0  0  0  0  0  0  0  0  0  0  0
   -7.6560   22.3080  -30.5450 C   0  0  0  0  0  0  0  0  0  0  0  0
   -5.2514   19.6635  -33.8821 H   0  0  0  0  0  0  0  0  0  0  0  0
   -6.1368   18.1804  -34.3751 H   0  0  0  0  0  0  0  0  0  0  0  0
   -6.9755   19.7689  -34.3751 H   0  0  0  0  0  0  0  0  0  0  0  0
   -7.1706   17.3215  -31.2225 H   0  0  0  0  0  0  0  0  0  0  0  0
   -8.0817   17.4279  -32.7669 H   0  0  0  0  0  0  0  0  0  0  0  0
   -6.3771   16.8613  -32.7669 H   0  0  0  0  0  0  0  0  0  0  0  0
   -5.9978   21.6651  -33.4593 H   0  0  0  0  0  0  0  0  0  0  0  0
   -4.8843   23.8070  -32.8395 H   0  0  0  0  0  0  0  0  0  0  0  0
   -2.5058   25.2665  -28.8519 H   0  0  0  0  0  0  0  0  0  0  0  0
   -3.8657   24.0876  -28.7408 H   0  0  0  0  0  0  0  0  0  0  0  0
   -3.5717   22.7623  -31.6644 H   0  0  0  0  0  0  0  0  0  0  0  0
   -3.9068   20.2440  -31.9443 H   0  0  0  0  0  0  0  0  0  0  0  0
   -3.9281   18.3625  -33.5790 H   0  0  0  0  0  0  0  0  0  0  0  0
   -1.8006   17.6027  -34.6452 H   0  0  0  0  0  0  0  0  0  0  0  0
    0.3394   18.7767  -34.1286 H   0  0  0  0  0  0  0  0  0  0  0  0
    0.3726   20.6694  -32.5076 H   0  0  0  0  0  0  0  0  0  0  0  0
   -1.3182   22.3565  -26.6805 H   0  0  0  0  0  0  0  0  0  0  0  0
    0.1776   23.0222  -24.3044 H   0  0  0  0  0  0  0  0  0  0  0  0
    2.1864   24.3271  -23.5174 H   0  0  0  0  0  0  0  0  0  0  0  0
    3.5417   25.6543  -25.1547 H   0  0  0  0  0  0  0  0  0  0  0  0
    2.9110   25.6738  -27.5963 H   0  0  0  0  0  0  0  0  0  0  0  0
   -7.3444   24.0361  -29.2781 H   0  0  0  0  0  0  0  0  0  0  0  0
   -8.4531   21.8963  -29.9085 H   0  0  0  0  0  0  0  0  0  0  0  0
  1  2  1  0
  2  3  1  0
  2  4  1  0
  4  5  2  0
  4  6  2  0
  4  7  1  0
  7  8  2  0
  8  9  1  0
  9 10  2  0
 10 11  1  0
 11 12  2  0
 11 13  1  0
 13 14  1  0
 14 15  1  0
 15 16  2  0
 16 17  1  0
 17 18  1  0
 18 19  2  0
 19 20  1  0
 20 21  2  0
 21 22  1  0
 22 23  2  0
 17 24  1  0
 24 25  2  0
 25 26  1  0
 26 27  2  0
 27 28  1  0
 28 29  2  0
 29 30  1  0
 30 31  2  0
 31 32  1  0
 32 33  2  0
 33 34  1  0
 10 35  1  0
 35 36  2  0
 36  7  1  0
 25 15  1  0
 34 26  1  0
 23 18  1  0
 33 28  1  0
  1 37  1  0
  1 38  1  0
  1 39  1  0
  3 40  1  0
  3 41  1  0
  3 42  1  0
  8 43  1  0
  9 44  1  0
 14 45  1  0
 14 46  1  0
 16 47  1  0
 19 48  1  0
 20 49  1  0
 21 50  1  0
 22 51  1  0
 23 52  1  0
 27 53  1  0
 29 54  1  0
 30 55  1  0
 31 56  1  0
 32 57  1  0
 35 58  1  0
 36 59  1  0
M  CHG  1  13  -1
M  END
>  <UniqueID>  (15) 
14

>  <SMILES>  (15) 
CN(C)S(=O)(=O)c1ccc(C(=O)[N-]Cc2cn(-c3ccccc3)nc2-c2cc3ccccc3o2)cc1

>  <Energy>  (15) 
134.11411028349062

>  <Genealogy>  (15) 
CN(C)S(=O)(=O)c1ccc(C(=O)[N-]Cc2cn(-c3ccccc3)nc2-c2cc3ccccc3o2)cc1 (protonated)
CN(C)S(=O)(=O)c1ccc(C(=O)[N-]Cc2cn(-c3ccccc3)nc2-c2cc3ccccc3o2)cc1 (3D coordinates assigned)
CN(C)S(=O)(=O)c1ccc(C(=O)[N-]Cc2cn(-c3ccccc3)nc2-c2cc3ccccc3o2)cc1 (optimized conformer: 134.11411028349062 kcal/mol)

>  <smiles>  (15) 
CN(C)S(=O)(=O)c1ccc(C(=O)NCc2cn(-c3ccccc3)nc2-c2cc3ccccc3o2)cc1

>  <score_type>  (15) 
oracle

>  <origin>  (15) 
adgpu

>  <m_score__min__energy>  (15) 
-12.25

>  <m_primary>  (15) 
energy

$$$$
15:0
     RDKit          3D

 54 57  0  0  0  0  0  0  0  0999 V2000
   -8.7822   22.5261  -32.1323 H   0  0  0  0  0  0  0  0  0  0  0  0
   -7.6980   22.5810  -31.9550 C   0  0  0  0  0  0  0  0  0  0  0  0
   -7.1450   23.7280  -31.4780 N   0  0  0  0  0  0  0  0  0  0  0  0
   -5.8100   23.8380  -31.2310 C   0  0  0  0  0  0  0  0  0  0  0  0
   -5.2700   25.1140  -30.7080 C   0  0  0  0  0  0  0  0  0  0  0  0
   -6.0670   26.0420  -30.4110 O   0  0  0  0  0  0  0  0  0  0  0  0
   -3.8660   25.3010  -30.4640 N   0  0  0  0  0  0  0  0  0  0  0  0
   -3.1910   24.8970  -29.4250 C   0  0  0  0  0  0  0  0  0  0  0  0
   -1.8770   25.2430  -29.3300 N   0  0  0  0  0  0  0  0  0  0  0  0
   -1.0960   24.8570  -28.2860 C   0  0  0  0  0  0  0  0  0  0  0  0
   -0.0396   25.1616  -28.2496 H   0  0  0  0  0  0  0  0  0  0  0  0
   -1.6320   24.0730  -27.2570 C   0  0  0  0  0  0  0  0  0  0  0  0
   -0.7750   23.5930  -26.1250 C   0  0  0  0  0  0  0  0  0  0  0  0
   -1.2488   23.8583  -25.1684 H   0  0  0  0  0  0  0  0  0  0  0  0
   -0.6625   22.5006  -26.1879 H   0  0  0  0  0  0  0  0  0  0  0  0
    0.2153   24.0678  -26.1879 H   0  0  0  0  0  0  0  0  0  0  0  0
   -2.9740   23.6830  -27.3380 C   0  0  0  0  0  0  0  0  0  0  0  0
   -3.4111   23.0536  -26.5488 H   0  0  0  0  0  0  0  0  0  0  0  0
   -3.7590   24.0910  -28.4180 C   0  0  0  0  0  0  0  0  0  0  0  0
   -4.8137   23.7854  -28.4826 H   0  0  0  0  0  0  0  0  0  0  0  0
   -4.9750   22.7350  -31.4660 C   0  0  0  0  0  0  0  0  0  0  0  0
   -3.9015   22.7961  -31.2339 H   0  0  0  0  0  0  0  0  0  0  0  0
   -5.5140   21.5540  -31.9980 C   0  0  0  0  0  0  0  0  0  0  0  0
   -4.7090   20.4400  -32.2800 O   0  0  0  0  0  0  0  0  0  0  0  0
   -3.3500   20.5140  -32.6180 C   0  0  0  0  0  0  0  0  0  0  0  0
   -2.9220   20.0140  -33.8500 C   0  0  0  0  0  0  0  0  0  0  0  0
   -3.6529   19.5876  -34.5529 H   0  0  0  0  0  0  0  0  0  0  0  0
   -1.6030   20.0530  -34.1830 N   0  0  0  0  0  0  0  0  0  0  0  0
   -0.6640   20.6010  -33.3620 C   0  0  0  0  0  0  0  0  0  0  0  0
    0.7230   20.5660  -33.7410 N   0  0  0  0  0  0  0  0  0  0  0  0
    1.1910   21.4180  -34.8390 C   0  0  0  0  0  0  0  0  0  0  0  0
    0.4286   21.4368  -35.6317 H   0  0  0  0  0  0  0  0  0  0  0  0
    1.3629   22.4328  -34.4509 H   0  0  0  0  0  0  0  0  0  0  0  0
    2.5110   20.8800  -35.4200 C   0  0  0  0  0  0  0  0  0  0  0  0
    2.6080   21.2243  -36.4602 H   0  0  0  0  0  0  0  0  0  0  0  0
    3.3359   21.2580  -34.7982 H   0  0  0  0  0  0  0  0  0  0  0  0
    2.5620   19.4000  -35.3990 N   0  0  0  0  0  0  0  0  0  0  0  0
    3.4930   19.1230  -35.7930 H   0  0  0  0  0  0  0  0  0  0  0  0
    1.5410   18.8040  -36.2860 C   0  0  0  0  0  0  0  0  0  0  0  0
    0.7502   18.3424  -35.6765 H   0  0  0  0  0  0  0  0  0  0  0  0
    1.1037   19.5887  -36.9208 H   0  0  0  0  0  0  0  0  0  0  0  0
    2.0092   18.0374  -36.9208 H   0  0  0  0  0  0  0  0  0  0  0  0
    2.4790   18.8440  -34.0180 C   0  0  0  0  0  0  0  0  0  0  0  0
    1.9762   17.8669  -34.0675 H   0  0  0  0  0  0  0  0  0  0  0  0
    3.5096   18.7694  -33.6409 H   0  0  0  0  0  0  0  0  0  0  0  0
    1.7030   19.7410  -33.0290 C   0  0  0  0  0  0  0  0  0  0  0  0
    1.1791   19.1059  -32.2995 H   0  0  0  0  0  0  0  0  0  0  0  0
    2.4163   20.4019  -32.5149 H   0  0  0  0  0  0  0  0  0  0  0  0
   -1.0600   21.1340  -32.1250 C   0  0  0  0  0  0  0  0  0  0  0  0
   -0.3144   21.5767  -31.4481 H   0  0  0  0  0  0  0  0  0  0  0  0
   -2.4050   21.0980  -31.7610 C   0  0  0  0  0  0  0  0  0  0  0  0
   -2.7259   21.5280  -30.8007 H   0  0  0  0  0  0  0  0  0  0  0  0
   -6.8910   21.4730  -32.2200 C   0  0  0  0  0  0  0  0  0  0  0  0
   -7.3364   20.5422  -32.6011 H   0  0  0  0  0  0  0  0  0  0  0  0
  1  2  1  0
  2  3  2  0
  3  4  1  0
  4  5  1  0
  5  6  2  0
  5  7  1  0
  7  8  2  0
  8  9  1  0
  9 10  1  0
 10 11  1  0
 10 12  2  0
 12 13  1  0
 13 14  1  0
 13 15  1  0
 13 16  1  0
 12 17  1  0
 17 18  1  0
 17 19  2  0
 19 20  1  0
  4 21  2  0
 21 22  1  0
 21 23  1  0
 23 24  1  0
 24 25  1  0
 25 26  2  0
 26 27  1  0
 26 28  1  0
 28 29  2  0
 29 30  1  0
 30 31  1  0
 31 32  1  0
 31 33  1  0
 31 34  1  0
 34 35  1  0
 34 36  1  0
 34 37  1  0
 37 38  1  0
 37 39  1  0
 39 40  1  0
 39 41  1  0
 39 42  1  0
 37 43  1  0
 43 44  1  0
 43 45  1  0
 43 46  1  0
 46 47  1  0
 46 48  1  0
 29 49  1  0
 49 50  1  0
 49 51  2  0
 51 52  1  0
 23 53  2  0
 53 54  1  0
 53  2  1  0
 19  8  1  0
 51 25  1  0
 46 30  1  0
M  CHG  2   9  -1  37   1
M  END
>  <UniqueID>  (16) 
15

>  <SMILES>  (16) 
Cc1cc/c(=N\C(=O)c2cc(Oc3ccc(N4CC[NH+](C)CC4)nc3)ccn2)[n-]c1

>  <Energy>  (16) 
80.68862239163124

>  <Genealogy>  (16) 
Cc1ccc(=NC(=O)c2cc(Oc3ccc(N4CC[NH+](C)CC4)nc3)ccn2)[n-]c1 (protonated)
Cc1cc/c(=N\C(=O)c2cc(Oc3ccc(N4CC[NH+](C)CC4)nc3)ccn2)[n-]c1 (cis-trans isomerization)
Cc1cc/c(=N\C(=O)c2cc(Oc3ccc(N4CC[NH+](C)CC4)nc3)ccn2)[n-]c1 (3D coordinates assigned)
Cc1cc/c(=N\C(=O)c2cc(Oc3ccc(N4CC[NH+](C)CC4)nc3)ccn2)[n-]c1 (nonaromatic ring conformer: 80.68862239163124 kcal/mol)

>  <smiles>  (16) 
Cc1ccc(=NC(=O)c2cc(Oc3ccc(N4CCN(C)CC4)nc3)ccn2)[nH]c1

>  <score_type>  (16) 
oracle

>  <origin>  (16) 
adgpu

>  <m_score__min__energy>  (16) 
-9.8200000000000003

>  <m_primary>  (16) 
energy

$$$$
16:0
     RDKit          3D

 47 49  0  0  0  0  0  0  0  0999 V2000
   -0.8650   22.4590  -25.7970 C   0  0  0  0  0  0  0  0  0  0  0  0
   -1.5050   23.1370  -26.9820 C   0  0  0  0  0  0  0  0  0  0  0  0
   -2.5730   22.4930  -27.6230 C   0  0  0  0  0  0  0  0  0  0  0  0
   -3.1950   23.0690  -28.7260 C   0  0  0  0  0  0  0  0  0  0  0  0
   -2.7730   24.3160  -29.2100 C   0  0  0  0  0  0  0  0  0  0  0  0
   -3.3760   24.9040  -30.3730 N   0  0  0  0  0  0  0  0  0  0  0  0
   -4.7780   25.0820  -30.6190 C   0  0  0  0  0  0  0  0  0  0  0  0
   -5.4780   25.7840  -29.8430 O   0  0  0  0  0  0  0  0  0  0  0  0
   -5.3770   24.5590  -31.8090 N   0  0  0  0  0  0  0  0  0  0  0  0
   -6.1420   23.3500  -31.9080 C   0  0  0  0  0  0  0  0  0  0  0  0
   -7.5140   23.3950  -31.6280 C   0  0  0  0  0  0  0  0  0  0  0  0
   -8.2900   22.2340  -31.6960 C   0  0  0  0  0  0  0  0  0  0  0  0
   -7.6960   21.0110  -32.0290 C   0  0  0  0  0  0  0  0  0  0  0  0
   -8.4940   19.8150  -32.0980 C   0  0  0  0  0  0  0  0  0  0  0  0
   -9.1360   18.8530  -32.1530 N   0  0  0  0  0  0  0  0  0  0  0  0
   -6.3200   20.9530  -32.2840 C   0  0  0  0  0  0  0  0  0  0  0  0
   -5.5430   22.1140  -32.2170 C   0  0  0  0  0  0  0  0  0  0  0  0
   -1.6930   24.9710  -28.5880 C   0  0  0  0  0  0  0  0  0  0  0  0
   -1.2300   26.1870  -29.0980 O   0  0  0  0  0  0  0  0  0  0  0  0
   -1.0710   24.4040  -27.4500 C   0  0  0  0  0  0  0  0  0  0  0  0
    0.2800   25.2510  -26.6520 S   0  0  0  0  0  0  0  0  0  0  0  0
   -0.1770   25.7540  -25.3110 O   0  0  0  0  0  0  0  0  0  0  0  0
    0.7330   26.4370  -27.4580 O   0  0  0  0  0  0  0  0  0  0  0  0
    1.6180   24.1470  -26.4370 N   0  0  0  0  0  0  0  0  0  0  0  0
    2.6300   24.3750  -27.4860 C   0  0  0  0  0  0  0  0  0  0  0  0
    3.9940   23.8130  -27.0520 C   0  0  0  0  0  0  0  0  0  0  0  0
    4.5100   24.3880  -25.8570 O   0  0  0  0  0  0  0  0  0  0  0  0
    3.5180   24.9870  -25.0360 C   0  0  0  0  0  0  0  0  0  0  0  0
    2.1730   24.2390  -25.0680 C   0  0  0  0  0  0  0  0  0  0  0  0
   -1.2689   22.8868  -24.8676 H   0  0  0  0  0  0  0  0  0  0  0  0
   -1.0827   21.3813  -25.8295 H   0  0  0  0  0  0  0  0  0  0  0  0
    0.2235   22.6143  -25.8295 H   0  0  0  0  0  0  0  0  0  0  0  0
   -2.9235   21.5198  -27.2488 H   0  0  0  0  0  0  0  0  0  0  0  0
   -4.0238   22.5427  -29.2222 H   0  0  0  0  0  0  0  0  0  0  0  0
   -7.9841   24.3506  -31.3527 H   0  0  0  0  0  0  0  0  0  0  0  0
   -9.3690   22.2817  -31.4875 H   0  0  0  0  0  0  0  0  0  0  0  0
   -5.8492   19.9918  -32.5376 H   0  0  0  0  0  0  0  0  0  0  0  0
   -4.4607   22.0612  -32.4063 H   0  0  0  0  0  0  0  0  0  0  0  0
   -0.2610   26.3460  -29.3460 H   0  0  0  0  0  0  0  0  0  0  0  0
    2.3105   23.8742  -28.4118 H   0  0  0  0  0  0  0  0  0  0  0  0
    2.7293   25.4575  -27.6543 H   0  0  0  0  0  0  0  0  0  0  0  0
    3.8861   22.7297  -26.8946 H   0  0  0  0  0  0  0  0  0  0  0  0
    4.7060   24.0593  -27.8535 H   0  0  0  0  0  0  0  0  0  0  0  0
    3.8849   25.0027  -23.9991 H   0  0  0  0  0  0  0  0  0  0  0  0
    3.3385   25.9999  -25.4257 H   0  0  0  0  0  0  0  0  0  0  0  0
    2.3238   23.2217  -24.6776 H   0  0  0  0  0  0  0  0  0  0  0  0
    1.4580   24.8024  -24.4504 H   0  0  0  0  0  0  0  0  0  0  0  0
  1  2  1  0
  2  3  2  0
  3  4  1  0
  4  5  2  0
  5  6  1  0
  6  7  1  0
  7  8  2  0
  7  9  1  0
  9 10  1  0
 10 11  2  0
 11 12  1  0
 12 13  2  0
 13 14  1  0
 14 15  3  0
 13 16  1  0
 16 17  2  0
  5 18  1  0
 18 19  1  0
 18 20  2  0
 20 21  1  0
 21 22  2  0
 21 23  2  0
 21 24  1  0
 24 25  1  0
 25 26  1  0
 26 27  1  0
 27 28  1  0
 28 29  1  0
 20  2  1  0
 29 24  1  0
 17 10  1  0
  1 30  1  0
  1 31  1  0
  1 32  1  0
  3 33  1  0
  4 34  1  0
 11 35  1  0
 12 36  1  0
 16 37  1  0
 17 38  1  0
 19 39  1  0
 25 40  1  0
 25 41  1  0
 26 42  1  0
 26 43  1  0
 28 44  1  0
 28 45  1  0
 29 46  1  0
 29 47  1  0
M  CHG  2   6  -1   9  -1
M  END
>  <UniqueID>  (17) 
16

>  <SMILES>  (17) 
Cc1ccc([N-]C(=O)[N-]c2ccc(C#N)cc2)c(O)c1S(=O)(=O)N1CCOCC1

>  <Energy>  (17) 
70.01934604847386

>  <Genealogy>  (17) 
Cc1ccc([N-]C(=O)[N-]c2ccc(C#N)cc2)c(O)c1S(=O)(=O)N1CCOCC1 (protonated)
Cc1ccc([N-]C(=O)[N-]c2ccc(C#N)cc2)c(O)c1S(=O)(=O)N1CCOCC1 (3D coordinates assigned)
Cc1ccc([N-]C(=O)[N-]c2ccc(C#N)cc2)c(O)c1S(=O)(=O)N1CCOCC1 (nonaromatic ring conformer: 70.01934604847386 kcal/mol)

>  <smiles>  (17) 
Cc1ccc(NC(=O)Nc2ccc(C#N)cc2)c(O)c1S(=O)(=O)N1CCOCC1

>  <score_type>  (17) 
oracle

>  <origin>  (17) 
adgpu

>  <m_score__min__energy>  (17) 
-12.960000000000001

>  <m_primary>  (17) 
energy

$$$$
17:0
     RDKit          3D

 43 46  0  0  0  0  0  0  0  0999 V2000
   -5.5770   17.8260  -34.7850 C   0  0  0  0  0  0  0  0  0  0  0  0
   -5.1440   18.9720  -33.9220 C   0  0  0  0  0  0  0  0  0  0  0  0
   -3.9920   19.4510  -34.0800 O   0  0  0  0  0  0  0  0  0  0  0  0
   -6.0160   19.5680  -32.9530 N   0  0  0  0  0  0  0  0  0  0  0  0
   -5.8350   20.8350  -32.3070 C   0  0  0  0  0  0  0  0  0  0  0  0
   -6.9610   21.5300  -31.8500 C   0  0  0  0  0  0  0  0  0  0  0  0
   -6.8220   22.7830  -31.2470 C   0  0  0  0  0  0  0  0  0  0  0  0
   -5.5540   23.3650  -31.1160 C   0  0  0  0  0  0  0  0  0  0  0  0
   -5.3990   24.9500  -30.3620 S   0  0  0  0  0  0  0  0  0  0  0  0
   -5.9840   26.0230  -31.2380 O   0  0  0  0  0  0  0  0  0  0  0  0
   -6.1480   24.9420  -29.0600 O   0  0  0  0  0  0  0  0  0  0  0  0
   -3.7280   25.2990  -30.0530 N   0  0  0  0  0  0  0  0  0  0  0  0
   -2.8370   24.4800  -29.2820 C   0  0  0  0  0  0  0  0  0  0  0  0
   -3.1910   23.1760  -28.8720 C   0  0  0  0  0  0  0  0  0  0  0  0
   -2.2700   22.4360  -28.1350 C   0  0  0  0  0  0  0  0  0  0  0  0
   -1.0300   22.9410  -27.8020 C   0  0  0  0  0  0  0  0  0  0  0  0
   -0.6580   24.2250  -28.1930 C   0  0  0  0  0  0  0  0  0  0  0  0
   -1.5670   24.9970  -28.9370 C   0  0  0  0  0  0  0  0  0  0  0  0
   -1.2040   26.2770  -29.3420 O   0  0  0  0  0  0  0  0  0  0  0  0
   -0.2130   21.9420  -27.0330 C   0  0  0  0  0  0  0  0  0  0  0  0
   -1.1690   20.7850  -26.9890 C   0  0  0  0  0  0  0  0  0  0  0  0
   -0.9660   19.5310  -26.4100 C   0  0  0  0  0  0  0  0  0  0  0  0
   -1.9980   18.5790  -26.4890 C   0  0  0  0  0  0  0  0  0  0  0  0
   -3.2080   18.8900  -27.1410 C   0  0  0  0  0  0  0  0  0  0  0  0
   -3.3970   20.1580  -27.7180 C   0  0  0  0  0  0  0  0  0  0  0  0
   -2.3590   21.0850  -27.6260 C   0  0  0  0  0  0  0  0  0  0  0  0
   -4.4270   22.6850  -31.6000 C   0  0  0  0  0  0  0  0  0  0  0  0
   -4.5650   21.4300  -32.1970 C   0  0  0  0  0  0  0  0  0  0  0  0
   -5.8940   16.9869  -34.1483 H   0  0  0  0  0  0  0  0  0  0  0  0
   -6.4176   18.1424  -35.4201 H   0  0  0  0  0  0  0  0  0  0  0  0
   -4.7372   17.5075  -35.4201 H   0  0  0  0  0  0  0  0  0  0  0  0
   -7.9612   21.0872  -31.9662 H   0  0  0  0  0  0  0  0  0  0  0  0
   -7.7104   23.3139  -30.8742 H   0  0  0  0  0  0  0  0  0  0  0  0
   -4.1735   22.7537  -29.1294 H   0  0  0  0  0  0  0  0  0  0  0  0
    0.3297   24.6278  -27.9243 H   0  0  0  0  0  0  0  0  0  0  0  0
    0.7153   21.6822  -27.5629 H   0  0  0  0  0  0  0  0  0  0  0  0
    0.1308   22.2910  -26.0481 H   0  0  0  0  0  0  0  0  0  0  0  0
   -0.0193   19.2928  -25.9030 H   0  0  0  0  0  0  0  0  0  0  0  0
   -1.8598   17.5849  -26.0388 H   0  0  0  0  0  0  0  0  0  0  0  0
   -4.0081   18.1373  -27.1987 H   0  0  0  0  0  0  0  0  0  0  0  0
   -4.3379   20.4121  -28.2281 H   0  0  0  0  0  0  0  0  0  0  0  0
   -3.4305   23.1419  -31.5091 H   0  0  0  0  0  0  0  0  0  0  0  0
   -3.6782   20.9054  -32.5822 H   0  0  0  0  0  0  0  0  0  0  0  0
  1  2  1  0
  2  3  2  0
  2  4  1  0
  4  5  1  0
  5  6  2  0
  6  7  1  0
  7  8  2  0
  8  9  1  0
  9 10  2  0
  9 11  2  0
  9 12  1  0
 12 13  1  0
 13 14  2  0
 14 15  1  0
 15 16  2  0
 16 17  1  0
 17 18  2  0
 18 19  1  0
 16 20  1  0
 20 21  1  0
 21 22  2  0
 22 23  1  0
 23 24  2  0
 24 25  1  0
 25 26  2  0
  8 27  1  0
 27 28  2  0
 28  5  1  0
 18 13  1  0
 26 21  1  0
 26 15  1  0
  1 29  1  0
  1 30  1  0
  1 31  1  0
  6 32  1  0
  7 33  1  0
 14 34  1  0
 17 35  1  0
 20 36  1  0
 20 37  1  0
 22 38  1  0
 23 39  1  0
 24 40  1  0
 25 41  1  0
 27 42  1  0
 28 43  1  0
M  CHG  3   4  -1  12  -1  19  -1
M  END
>  <UniqueID>  (18) 
17

>  <SMILES>  (18) 
CC(=O)[N-]c1ccc(S(=O)(=O)[N-]c2cc3c(cc2[O-])Cc2ccccc2-3)cc1

>  <Energy>  (18) 
75.91305523940463

>  <Genealogy>  (18) 
CC(=O)[N-]c1ccc(S(=O)(=O)[N-]c2cc3c(cc2[O-])Cc2ccccc2-3)cc1 (protonated)
CC(=O)[N-]c1ccc(S(=O)(=O)[N-]c2cc3c(cc2[O-])Cc2ccccc2-3)cc1 (3D coordinates assigned)
CC(=O)[N-]c1ccc(S(=O)(=O)[N-]c2cc3c(cc2[O-])Cc2ccccc2-3)cc1 (nonaromatic ring conformer: 75.91305523940463 kcal/mol)

>  <smiles>  (18) 
CC(=O)Nc1ccc(S(=O)(=O)Nc2cc3c(cc2O)Cc2ccccc2-3)cc1

>  <score_type>  (18) 
oracle

>  <origin>  (18) 
adgpu

>  <m_score__min__energy>  (18) 
-13.51

>  <m_primary>  (18) 
energy

$$$$
18:0
     RDKit          3D

 38 40  0  0  0  0  0  0  0  0999 V2000
   -4.2360   25.6780  -30.5150 O   0  0  0  0  0  0  0  0  0  0  0  0
   -3.9710   24.4480  -30.4890 C   0  0  0  0  0  0  0  0  0  0  0  0
   -4.4160   23.6340  -31.5840 N   0  0  0  0  0  0  0  0  0  0  0  0
   -5.6650   22.9340  -31.6800 C   0  0  0  0  0  0  0  0  0  0  0  0
   -6.8460   23.6840  -31.6100 C   0  0  0  0  0  0  0  0  0  0  0  0
   -8.0910   23.0550  -31.6570 C   0  0  0  0  0  0  0  0  0  0  0  0
   -8.1680   21.6690  -31.7920 C   0  0  0  0  0  0  0  0  0  0  0  0
   -7.0010   20.9110  -31.9000 C   0  0  0  0  0  0  0  0  0  0  0  0
   -5.7380   21.5280  -31.8540 C   0  0  0  0  0  0  0  0  0  0  0  0
   -4.5520   20.7390  -32.0770 N   0  0  0  0  0  0  0  0  0  0  0  0
   -3.6420   20.4390  -30.9700 C   0  0  0  0  0  0  0  0  0  0  0  0
   -2.2950   21.1170  -31.2410 C   0  0  0  0  0  0  0  0  0  0  0  0
   -1.7880   20.7450  -32.5120 O   0  0  0  0  0  0  0  0  0  0  0  0
   -2.6540   21.2000  -33.5370 C   0  0  0  0  0  0  0  0  0  0  0  0
   -4.0240   20.5240  -33.4280 C   0  0  0  0  0  0  0  0  0  0  0  0
   -3.2640   23.8780  -29.3130 C   0  0  0  0  0  0  0  0  0  0  0  0
   -3.7430   22.7090  -28.6930 C   0  0  0  0  0  0  0  0  0  0  0  0
   -3.0810   22.1680  -27.5880 C   0  0  0  0  0  0  0  0  0  0  0  0
   -1.9440   22.7960  -27.0760 C   0  0  0  0  0  0  0  0  0  0  0  0
   -1.4710   23.9690  -27.6660 C   0  0  0  0  0  0  0  0  0  0  0  0
   -2.1230   24.5140  -28.7770 C   0  0  0  0  0  0  0  0  0  0  0  0
   -1.6150   25.6750  -29.3540 O   0  0  0  0  0  0  0  0  0  0  0  0
   -6.7917   24.7787  -31.5171 H   0  0  0  0  0  0  0  0  0  0  0  0
   -9.0119   23.6526  -31.5875 H   0  0  0  0  0  0  0  0  0  0  0  0
   -9.1495   21.1727  -31.8134 H   0  0  0  0  0  0  0  0  0  0  0  0
   -7.0698   19.8200  -32.0223 H   0  0  0  0  0  0  0  0  0  0  0  0
   -4.0655   20.8208  -30.0293 H   0  0  0  0  0  0  0  0  0  0  0  0
   -3.5026   19.3512  -30.8849 H   0  0  0  0  0  0  0  0  0  0  0  0
   -2.4289   22.2084  -31.2120 H   0  0  0  0  0  0  0  0  0  0  0  0
   -1.5790   20.7972  -30.4696 H   0  0  0  0  0  0  0  0  0  0  0  0
   -2.7804   22.2889  -33.4460 H   0  0  0  0  0  0  0  0  0  0  0  0
   -2.2115   20.9473  -34.5119 H   0  0  0  0  0  0  0  0  0  0  0  0
   -4.7115   20.9609  -34.1673 H   0  0  0  0  0  0  0  0  0  0  0  0
   -3.9249   19.4459  -33.6229 H   0  0  0  0  0  0  0  0  0  0  0  0
   -4.6466   22.2168  -29.0818 H   0  0  0  0  0  0  0  0  0  0  0  0
   -3.4562   21.2457  -27.1206 H   0  0  0  0  0  0  0  0  0  0  0  0
   -1.4215   22.3667  -26.2084 H   0  0  0  0  0  0  0  0  0  0  0  0
   -0.5807   24.4676  -27.2551 H   0  0  0  0  0  0  0  0  0  0  0  0
  1  2  2  0
  2  3  1  0
  3  4  1  0
  4  5  2  0
  5  6  1  0
  6  7  2  0
  7  8  1  0
  8  9  2  0
  9 10  1  0
 10 11  1  0
 11 12  1  0
 12 13  1  0
 13 14  1  0
 14 15  1  0
  2 16  1  0
 16 17  2  0
 17 18  1  0
 18 19  2  0
 19 20  1  0
 20 21  2  0
 21 22  1  0
  9  4  1  0
 15 10  1  0
 21 16  1  0
  5 23  1  0
  6 24  1  0
  7 25  1  0
  8 26  1  0
 11 27  1  0
 11 28  1  0
 12 29  1  0
 12 30  1  0
 14 31  1  0
 14 32  1  0
 15 33  1  0
 15 34  1  0
 17 35  1  0
 18 36  1  0
 19 37  1  0
 20 38  1  0
M  CHG  2   3  -1  22  -1
M  END
>  <UniqueID>  (19) 
18

>  <SMILES>  (19) 
O=C([N-]c1ccccc1N1CCOCC1)c1ccccc1[O-]

>  <Energy>  (19) 
54.73051518734151

>  <Genealogy>  (19) 
O=C([N-]c1ccccc1N1CCOCC1)c1ccccc1[O-] (protonated)
O=C([N-]c1ccccc1N1CCOCC1)c1ccccc1[O-] (3D coordinates assigned)
O=C([N-]c1ccccc1N1CCOCC1)c1ccccc1[O-] (nonaromatic ring conformer: 54.73051518734151 kcal/mol)

>  <smiles>  (19) 
O=C(Nc1ccccc1N1CCOCC1)c1ccccc1O

>  <score_type>  (19) 
oracle

>  <origin>  (19) 
adgpu

>  <m_score__min__energy>  (19) 
-11.98

>  <m_primary>  (19) 
energy

$$$$
19:0
     RDKit          3D

 52 54  0  0  0  0  0  0  0  0999 V2000
    0.4000   19.7530  -32.9150 O   0  0  0  0  0  0  0  0  0  0  0  0
   -0.8010   20.6560  -32.9280 S   0  0  0  0  0  0  0  0  0  0  0  0
   -0.4710   21.8910  -33.7210 O   0  0  0  0  0  0  0  0  0  0  0  0
   -2.1380   19.8250  -33.6600 N   0  0  0  0  0  0  0  0  0  0  0  0
   -2.9700   19.2090  -32.6260 C   0  0  0  0  0  0  0  0  0  0  0  0
   -4.2960   18.7480  -33.2320 C   0  0  0  0  0  0  0  0  0  0  0  0
   -5.4910   19.1810  -32.3610 C   0  0  0  0  0  0  0  0  0  0  0  0
   -6.8050   18.8990  -32.9770 N   0  0  0  0  0  0  0  0  0  0  0  0
   -7.6050   17.8570  -32.2980 C   0  0  0  0  0  0  0  0  0  0  0  0
   -8.6020   18.4340  -31.2630 C   0  0  0  0  0  0  0  0  0  0  0  0
   -8.6890   19.8450  -31.2920 O   0  0  0  0  0  0  0  0  0  0  0  0
   -8.8640   20.2800  -32.6190 C   0  0  0  0  0  0  0  0  0  0  0  0
   -7.5620   20.0940  -33.4090 C   0  0  0  0  0  0  0  0  0  0  0  0
   -1.2260   21.0750  -31.2720 C   0  0  0  0  0  0  0  0  0  0  0  0
   -1.1420   20.1260  -30.2430 C   0  0  0  0  0  0  0  0  0  0  0  0
   -1.4440   20.4890  -28.9290 C   0  0  0  0  0  0  0  0  0  0  0  0
   -1.8300   21.8000  -28.6330 C   0  0  0  0  0  0  0  0  0  0  0  0
   -1.9080   22.7560  -29.6560 C   0  0  0  0  0  0  0  0  0  0  0  0
   -2.3750   24.4150  -29.2980 S   0  0  0  0  0  0  0  0  0  0  0  0
   -1.1770   25.3250  -29.3100 O   0  0  0  0  0  0  0  0  0  0  0  0
   -3.0020   24.4620  -27.9330 O   0  0  0  0  0  0  0  0  0  0  0  0
   -3.5230   24.9710  -30.4720 N   0  0  0  0  0  0  0  0  0  0  0  0
   -4.7740   24.3350  -30.7710 C   0  0  0  0  0  0  0  0  0  0  0  0
   -4.7640   23.1700  -31.5490 C   0  0  0  0  0  0  0  0  0  0  0  0
   -5.9580   22.5070  -31.8460 C   0  0  0  0  0  0  0  0  0  0  0  0
   -7.1720   23.0040  -31.3650 C   0  0  0  0  0  0  0  0  0  0  0  0
   -7.1950   24.1740  -30.6030 C   0  0  0  0  0  0  0  0  0  0  0  0
   -6.0030   24.8410  -30.3060 C   0  0  0  0  0  0  0  0  0  0  0  0
   -1.6050   22.3890  -30.9730 C   0  0  0  0  0  0  0  0  0  0  0  0
   -2.4421   18.3424  -32.2012 H   0  0  0  0  0  0  0  0  0  0  0  0
   -3.1701   19.9466  -31.8348 H   0  0  0  0  0  0  0  0  0  0  0  0
   -4.4045   19.1891  -34.2338 H   0  0  0  0  0  0  0  0  0  0  0  0
   -4.2881   17.6495  -33.2888 H   0  0  0  0  0  0  0  0  0  0  0  0
   -5.4344   18.6454  -31.4018 H   0  0  0  0  0  0  0  0  0  0  0  0
   -5.4207   20.2716  -32.2359 H   0  0  0  0  0  0  0  0  0  0  0  0
   -8.1727   17.3007  -33.0584 H   0  0  0  0  0  0  0  0  0  0  0  0
   -6.9036   17.2093  -31.7516 H   0  0  0  0  0  0  0  0  0  0  0  0
   -9.5993   18.0190  -31.4708 H   0  0  0  0  0  0  0  0  0  0  0  0
   -8.2335   18.1522  -30.2656 H   0  0  0  0  0  0  0  0  0  0  0  0
   -9.6643   19.6922  -33.0923 H   0  0  0  0  0  0  0  0  0  0  0  0
   -9.1352   21.3460  -32.6164 H   0  0  0  0  0  0  0  0  0  0  0  0
   -7.8083   19.9893  -34.4759 H   0  0  0  0  0  0  0  0  0  0  0  0
   -6.9300   20.9753  -33.2253 H   0  0  0  0  0  0  0  0  0  0  0  0
   -0.8377   19.0939  -30.4714 H   0  0  0  0  0  0  0  0  0  0  0  0
   -1.3781   19.7417  -28.1245 H   0  0  0  0  0  0  0  0  0  0  0  0
   -2.0725   22.0814  -27.5976 H   0  0  0  0  0  0  0  0  0  0  0  0
   -3.8103   22.7745  -31.9286 H   0  0  0  0  0  0  0  0  0  0  0  0
   -5.9419   21.5936  -32.4587 H   0  0  0  0  0  0  0  0  0  0  0  0
   -8.1098   22.4736  -31.5866 H   0  0  0  0  0  0  0  0  0  0  0  0
   -8.1527   24.5714  -30.2359 H   0  0  0  0  0  0  0  0  0  0  0  0
   -6.0251   25.7636  -29.7074 H   0  0  0  0  0  0  0  0  0  0  0  0
   -1.6651   23.1373  -31.7770 H   0  0  0  0  0  0  0  0  0  0  0  0
  1  2  2  0
  2  3  2  0
  2  4  1  0
  4  5  1  0
  5  6  1  0
  6  7  1  0
  7  8  1  0
  8  9  1  0
  9 10  1  0
 10 11  1  0
 11 12  1  0
 12 13  1  0
  2 14  1  0
 14 15  2  0
 15 16  1  0
 16 17  2  0
 17 18  1  0
 18 19  1  0
 19 20  2  0
 19 21  2  0
 19 22  1  0
 22 23  1  0
 23 24  2  0
 24 25  1  0
 25 26  2  0
 26 27  1  0
 27 28  2  0
 18 29  2  0
 13  8  1  0
 29 14  1  0
 28 23  1  0
  5 30  1  0
  5 31  1  0
  6 32  1  0
  6 33  1  0
  7 34  1  0
  7 35  1  0
  9 36  1  0
  9 37  1  0
 10 38  1  0
 10 39  1  0
 12 40  1  0
 12 41  1  0
 13 42  1  0
 13 43  1  0
 15 44  1  0
 16 45  1  0
 17 46  1  0
 24 47  1  0
 25 48  1  0
 26 49  1  0
 27 50  1  0
 28 51  1  0
 29 52  1  0
M  CHG  2   4  -1  22  -1
M  END
>  <UniqueID>  (20) 
19

>  <SMILES>  (20) 
O=S(=O)([N-]CCCN1CCOCC1)c1cccc(S(=O)(=O)[N-]c2ccccc2)c1

>  <Energy>  (20) 
61.705392660906

>  <Genealogy>  (20) 
O=S(=O)([N-]CCCN1CCOCC1)c1cccc(S(=O)(=O)[N-]c2ccccc2)c1 (protonated)
O=S(=O)([N-]CCCN1CCOCC1)c1cccc(S(=O)(=O)[N-]c2ccccc2)c1 (3D coordinates assigned)
O=S(=O)([N-]CCCN1CCOCC1)c1cccc(S(=O)(=O)[N-]c2ccccc2)c1 (nonaromatic ring conformer: 61.705392660906 kcal/mol)

>  <smiles>  (20) 
O=S(=O)(NCCCN1CCOCC1)c1cccc(S(=O)(=O)Nc2ccccc2)c1

>  <score_type>  (20) 
oracle

>  <origin>  (20) 
adgpu

>  <m_score__min__energy>  (20) 
-10.65

>  <m_primary>  (20) 
energy

$$$$
20:0
     RDKit          3D

 48 50  0  0  0  0  0  0  0  0999 V2000
   -4.7971   24.2122  -26.0407 H   0  0  0  0  0  0  0  0  0  0  0  0
   -4.0700   24.4020  -26.8440 C   0  0  0  0  0  0  0  0  0  0  0  0
   -4.4090   24.1230  -28.1710 C   0  0  0  0  0  0  0  0  0  0  0  0
   -5.4026   23.7160  -28.4100 H   0  0  0  0  0  0  0  0  0  0  0  0
   -3.4810   24.3620  -29.2020 C   0  0  0  0  0  0  0  0  0  0  0  0
   -3.7910   24.1150  -30.5800 N   0  0  0  0  0  0  0  0  0  0  0  0
   -5.0680   24.2580  -31.2160 C   0  0  0  0  0  0  0  0  0  0  0  0
   -5.5250   25.4030  -31.4800 O   0  0  0  0  0  0  0  0  0  0  0  0
   -5.8620   23.0560  -31.5700 C   0  0  0  0  0  0  0  0  0  0  0  0
   -7.1790   22.9900  -31.1100 C   0  0  0  0  0  0  0  0  0  0  0  0
   -7.5780   23.7795  -30.4562 H   0  0  0  0  0  0  0  0  0  0  0  0
   -7.9800   21.9210  -31.4840 C   0  0  0  0  0  0  0  0  0  0  0  0
   -9.1640   21.8660  -31.0500 O   0  0  0  0  0  0  0  0  0  0  0  0
   -7.4910   20.9510  -32.3150 N   0  0  0  0  0  0  0  0  0  0  0  0
   -8.3460   19.8170  -32.7080 C   0  0  0  0  0  0  0  0  0  0  0  0
   -8.7253   19.3140  -31.8063 H   0  0  0  0  0  0  0  0  0  0  0  0
   -9.1926   20.1860  -33.3056 H   0  0  0  0  0  0  0  0  0  0  0  0
   -7.7583   19.1045  -33.3056 H   0  0  0  0  0  0  0  0  0  0  0  0
   -6.1790   20.9930  -32.7190 C   0  0  0  0  0  0  0  0  0  0  0  0
   -5.7250   20.0700  -33.4540 O   0  0  0  0  0  0  0  0  0  0  0  0
   -5.3550   22.0240  -32.3270 N   0  0  0  0  0  0  0  0  0  0  0  0
   -3.9350   22.0090  -32.7300 C   0  0  0  0  0  0  0  0  0  0  0  0
   -3.2992   22.0023  -31.8324 H   0  0  0  0  0  0  0  0  0  0  0  0
   -3.7333   21.1087  -33.3289 H   0  0  0  0  0  0  0  0  0  0  0  0
   -3.7144   22.9049  -33.3289 H   0  0  0  0  0  0  0  0  0  0  0  0
   -2.2330   24.9120  -28.8860 C   0  0  0  0  0  0  0  0  0  0  0  0
   -1.5217   25.1465  -29.6917 H   0  0  0  0  0  0  0  0  0  0  0  0
   -1.8790   25.1680  -27.5480 C   0  0  0  0  0  0  0  0  0  0  0  0
   -0.6310   25.7050  -27.1990 O   0  0  0  0  0  0  0  0  0  0  0  0
   -0.4030   26.6350  -26.1720 C   0  0  0  0  0  0  0  0  0  0  0  0
   -0.0150   26.1780  -24.9020 C   0  0  0  0  0  0  0  0  0  0  0  0
    0.1290   24.7780  -24.6370 N   0  0  0  0  0  0  0  0  0  0  0  0
    0.3900   24.4290  -23.6870 H   0  0  0  0  0  0  0  0  0  0  0  0
   -0.0260   24.0740  -25.3910 H   0  0  0  0  0  0  0  0  0  0  0  0
    0.2200   27.1090  -23.8850 C   0  0  0  0  0  0  0  0  0  0  0  0
    0.5164   26.7609  -22.8845 H   0  0  0  0  0  0  0  0  0  0  0  0
    0.0850   28.4410  -24.1230 N   0  0  0  0  0  0  0  0  0  0  0  0
    0.2640   29.1060  -23.3360 H   0  0  0  0  0  0  0  0  0  0  0  0
   -0.2710   28.9230  -25.3460 C   0  0  0  0  0  0  0  0  0  0  0  0
   -0.3820   30.2130  -25.5060 N   0  0  0  0  0  0  0  0  0  0  0  0
   -0.7570   30.9030  -26.7370 C   0  0  0  0  0  0  0  0  0  0  0  0
   -1.2687   31.8445  -26.4883 H   0  0  0  0  0  0  0  0  0  0  0  0
    0.1467   31.1210  -27.3250 H   0  0  0  0  0  0  0  0  0  0  0  0
   -1.4315   30.2633  -27.3250 H   0  0  0  0  0  0  0  0  0  0  0  0
   -0.5090   28.0160  -26.3990 C   0  0  0  0  0  0  0  0  0  0  0  0
   -0.7776   28.3905  -27.3978 H   0  0  0  0  0  0  0  0  0  0  0  0
   -2.8110   24.9210  -26.5350 C   0  0  0  0  0  0  0  0  0  0  0  0
   -2.5507   25.1369  -25.4883 H   0  0  0  0  0  0  0  0  0  0  0  0
  1  2  1  0
  2  3  2  0
  3  4  1  0
  3  5  1  0
  5  6  1  0
  6  7  1  0
  7  8  2  0
  7  9  1  0
  9 10  2  0
 10 11  1  0
 10 12  1  0
 12 13  2  0
 12 14  1  0
 14 15  1  0
 15 16  1  0
 15 17  1  0
 15 18  1  0
 14 19  1  0
 19 20  2  0
 19 21  1  0
 21 22  1  0
 22 23  1  0
 22 24  1  0
 22 25  1  0
  5 26  2  0
 26 27  1  0
 26 28  1  0
 28 29  1  0
 29 30  1  0
 30 31  1  0
 31 32  1  0
 32 33  1  0
 32 34  1  0
 31 35  2  0
 35 36  1  0
 35 37  1  0
 37 38  1  0
 37 39  1  0
 39 40  2  0
 40 41  1  0
 41 42  1  0
 41 43  1  0
 41 44  1  0
 39 45  1  0
 45 46  1  0
 28 47  2  0
 47 48  1  0
 47  2  1  0
 21  9  1  0
 45 30  2  0
M  CHG  1   6  -1
M  END
>  <UniqueID>  (21) 
20

>  <SMILES>  (21) 
C/N=c1\cc(Oc2cccc([N-]C(=O)c3cc(=O)n(C)c(=O)n3C)c2)c(N)c[nH]1

>  <Energy>  (21) 
73.75636841256893

>  <Genealogy>  (21) 
CN=c1cc(Oc2cccc([N-]C(=O)c3cc(=O)n(C)c(=O)n3C)c2)c(N)c[nH]1 (protonated)
C/N=c1\cc(Oc2cccc([N-]C(=O)c3cc(=O)n(C)c(=O)n3C)c2)c(N)c[nH]1 (cis-trans isomerization)
C/N=c1\cc(Oc2cccc([N-]C(=O)c3cc(=O)n(C)c(=O)n3C)c2)c(N)c[nH]1 (3D coordinates assigned)
C/N=c1\cc(Oc2cccc([N-]C(=O)c3cc(=O)n(C)c(=O)n3C)c2)c(N)c[nH]1 (optimized conformer: 73.75636841256893 kcal/mol)

>  <smiles>  (21) 
CN=c1cc(Oc2cccc(NC(=O)c3cc(=O)n(C)c(=O)n3C)c2)c(N)c[nH]1

>  <score_type>  (21) 
oracle

>  <origin>  (21) 
adgpu

>  <m_score__min__energy>  (21) 
-9.4499999999999993

>  <m_primary>  (21) 
energy

$$$$
21:0
     RDKit          3D

 49 51  0  0  0  0  0  0  0  0999 V2000
   -6.5000   15.9820  -33.5280 C   0  0  0  0  0  0  0  0  0  0  0  0
   -6.6680   17.4550  -33.2960 C   0  0  0  0  0  0  0  0  0  0  0  0
   -5.9160   18.3770  -34.0400 C   0  0  0  0  0  0  0  0  0  0  0  0
   -6.1000   19.7500  -33.8520 C   0  0  0  0  0  0  0  0  0  0  0  0
   -7.0610   20.2190  -32.9380 C   0  0  0  0  0  0  0  0  0  0  0  0
   -7.2680   21.6210  -32.7140 N   0  0  0  0  0  0  0  0  0  0  0  0
   -7.2690   22.2870  -31.4440 C   0  0  0  0  0  0  0  0  0  0  0  0
   -8.3460   22.3520  -30.7960 O   0  0  0  0  0  0  0  0  0  0  0  0
   -6.0690   22.9880  -30.9340 C   0  0  0  0  0  0  0  0  0  0  0  0
   -6.2020   23.8430  -29.8270 C   0  0  0  0  0  0  0  0  0  0  0  0
   -5.0900   24.4980  -29.2950 C   0  0  0  0  0  0  0  0  0  0  0  0
   -3.8190   24.3050  -29.8570 C   0  0  0  0  0  0  0  0  0  0  0  0
   -2.6500   24.9550  -29.3440 N   0  0  0  0  0  0  0  0  0  0  0  0
   -1.3790   24.1780  -28.4570 S   0  0  0  0  0  0  0  0  0  0  0  0
   -1.7520   22.7520  -28.1580 O   0  0  0  0  0  0  0  0  0  0  0  0
   -0.1240   24.2000  -29.2840 O   0  0  0  0  0  0  0  0  0  0  0  0
   -1.1170   25.0400  -26.9330 C   0  0  0  0  0  0  0  0  0  0  0  0
    0.1860   25.4420  -26.5970 C   0  0  0  0  0  0  0  0  0  0  0  0
    0.4360   26.1310  -25.4100 C   0  0  0  0  0  0  0  0  0  0  0  0
   -0.6140   26.4440  -24.5400 C   0  0  0  0  0  0  0  0  0  0  0  0
   -0.3380   27.1560  -23.2490 C   0  0  0  0  0  0  0  0  0  0  0  0
   -1.9160   26.0290  -24.8530 C   0  0  0  0  0  0  0  0  0  0  0  0
   -2.1810   25.3230  -26.0400 C   0  0  0  0  0  0  0  0  0  0  0  0
   -3.6010   24.9210  -26.3450 C   0  0  0  0  0  0  0  0  0  0  0  0
   -3.6810   23.4540  -30.9590 C   0  0  0  0  0  0  0  0  0  0  0  0
   -4.7910   22.8040  -31.5120 C   0  0  0  0  0  0  0  0  0  0  0  0
   -4.5920   22.0130  -32.6450 O   0  0  0  0  0  0  0  0  0  0  0  0
   -7.8030   19.2960  -32.1910 C   0  0  0  0  0  0  0  0  0  0  0  0
   -7.6190   17.9230  -32.3770 C   0  0  0  0  0  0  0  0  0  0  0  0
   -6.4408   15.4628  -32.5601 H   0  0  0  0  0  0  0  0  0  0  0  0
   -7.3604   15.6000  -34.0970 H   0  0  0  0  0  0  0  0  0  0  0  0
   -5.5757   15.8035  -34.0970 H   0  0  0  0  0  0  0  0  0  0  0  0
   -5.1792   18.0182  -34.7737 H   0  0  0  0  0  0  0  0  0  0  0  0
   -5.4904   20.4670  -34.4215 H   0  0  0  0  0  0  0  0  0  0  0  0
   -7.1927   23.9978  -29.3748 H   0  0  0  0  0  0  0  0  0  0  0  0
   -5.2107   25.1684  -28.4313 H   0  0  0  0  0  0  0  0  0  0  0  0
    1.0188   25.2110  -27.2774 H   0  0  0  0  0  0  0  0  0  0  0  0
    1.4639   26.4297  -25.1568 H   0  0  0  0  0  0  0  0  0  0  0  0
   -0.5932   26.4978  -22.4054 H   0  0  0  0  0  0  0  0  0  0  0  0
    0.7282   27.4216  -23.1974 H   0  0  0  0  0  0  0  0  0  0  0  0
   -0.9466   28.0708  -23.1974 H   0  0  0  0  0  0  0  0  0  0  0  0
   -2.7403   26.2584  -24.1617 H   0  0  0  0  0  0  0  0  0  0  0  0
   -4.1485   24.7660  -25.4036 H   0  0  0  0  0  0  0  0  0  0  0  0
   -4.0902   25.7160  -26.9270 H   0  0  0  0  0  0  0  0  0  0  0  0
   -3.6009   23.9876  -26.9270 H   0  0  0  0  0  0  0  0  0  0  0  0
   -2.6852   23.2931  -31.3977 H   0  0  0  0  0  0  0  0  0  0  0  0
   -5.2520   21.9650  -33.4100 H   0  0  0  0  0  0  0  0  0  0  0  0
   -8.5357   19.6539  -31.4527 H   0  0  0  0  0  0  0  0  0  0  0  0
   -8.2224   17.2064  -31.8004 H   0  0  0  0  0  0  0  0  0  0  0  0
  1  2  1  0
  2  3  2  0
  3  4  1  0
  4  5  2  0
  5  6  1  0
  6  7  1  0
  7  8  2  0
  7  9  1  0
  9 10  2  0
 10 11  1  0
 11 12  2  0
 12 13  1  0
 13 14  1  0
 14 15  2  0
 14 16  2  0
 14 17  1  0
 17 18  2  0
 18 19  1  0
 19 20  2  0
 20 21  1  0
 20 22  1  0
 22 23  2  0
 23 24  1  0
 12 25  1  0
 25 26  2  0
 26 27  1  0
  5 28  1  0
 28 29  2  0
 29  2  1  0
 26  9  1  0
 23 17  1  0
  1 30  1  0
  1 31  1  0
  1 32  1  0
  3 33  1  0
  4 34  1  0
 10 35  1  0
 11 36  1  0
 18 37  1  0
 19 38  1  0
 21 39  1  0
 21 40  1  0
 21 41  1  0
 22 42  1  0
 24 43  1  0
 24 44  1  0
 24 45  1  0
 25 46  1  0
 27 47  1  0
 28 48  1  0
 29 49  1  0
M  CHG  2   6  -1  13  -1
M  END
>  <UniqueID>  (22) 
21

>  <SMILES>  (22) 
Cc1ccc([N-]C(=O)c2ccc([N-]S(=O)(=O)c3ccc(C)cc3C)cc2O)cc1

>  <Energy>  (22) 
64.58694245668549

>  <Genealogy>  (22) 
Cc1ccc([N-]C(=O)c2ccc([N-]S(=O)(=O)c3ccc(C)cc3C)cc2O)cc1 (protonated)
Cc1ccc([N-]C(=O)c2ccc([N-]S(=O)(=O)c3ccc(C)cc3C)cc2O)cc1 (3D coordinates assigned)
Cc1ccc([N-]C(=O)c2ccc([N-]S(=O)(=O)c3ccc(C)cc3C)cc2O)cc1 (optimized conformer: 64.58694245668549 kcal/mol)

>  <smiles>  (22) 
Cc1ccc(NC(=O)c2ccc(NS(=O)(=O)c3ccc(C)cc3C)cc2O)cc1

>  <score_type>  (22) 
oracle

>  <origin>  (22) 
adgpu

>  <m_score__min__energy>  (22) 
-11.4

>  <m_primary>  (22) 
energy

$$$$
22:0
     RDKit          3D

 43 45  0  0  0  0  0  0  0  0999 V2000
   -0.1426   26.9138  -28.5449 H   0  0  0  0  0  0  0  0  0  0  0  0
   -0.8710   26.3260  -27.9670 C   0  0  0  0  0  0  0  0  0  0  0  0
   -1.8250   25.6030  -28.6120 N   0  0  0  0  0  0  0  0  0  0  0  0
   -2.7470   24.8610  -27.9340 C   0  0  0  0  0  0  0  0  0  0  0  0
   -3.6500   24.1770  -28.5680 N   0  0  0  0  0  0  0  0  0  0  0  0
   -3.7880   24.1290  -30.2970 S   0  0  0  0  0  0  0  0  0  0  0  0
   -2.5750   23.4490  -30.8670 O   0  0  0  0  0  0  0  0  0  0  0  0
   -3.8930   25.5270  -30.8410 O   0  0  0  0  0  0  0  0  0  0  0  0
   -5.2350   23.2310  -30.7390 C   0  0  0  0  0  0  0  0  0  0  0  0
   -5.3850   22.7210  -32.0340 C   0  0  0  0  0  0  0  0  0  0  0  0
   -4.5919   22.8788  -32.7797 H   0  0  0  0  0  0  0  0  0  0  0  0
   -6.5380   22.0120  -32.3840 C   0  0  0  0  0  0  0  0  0  0  0  0
   -6.6471   21.6151  -33.4041 H   0  0  0  0  0  0  0  0  0  0  0  0
   -7.5600   21.8030  -31.4390 C   0  0  0  0  0  0  0  0  0  0  0  0
   -8.7560   21.0710  -31.7600 N   0  0  0  0  0  0  0  0  0  0  0  0
   -9.6760   21.5640  -31.7300 H   0  0  0  0  0  0  0  0  0  0  0  0
   -8.7920   19.3620  -32.0640 S   0  0  0  0  0  0  0  0  0  0  0  0
   -9.8630   19.0660  -33.0770 O   0  0  0  0  0  0  0  0  0  0  0  0
   -9.1120   18.6380  -30.7880 O   0  0  0  0  0  0  0  0  0  0  0  0
   -7.2200   18.8210  -32.6430 C   0  0  0  0  0  0  0  0  0  0  0  0
   -6.6550   19.3790  -33.7970 C   0  0  0  0  0  0  0  0  0  0  0  0
   -7.2007   20.1550  -34.3537 H   0  0  0  0  0  0  0  0  0  0  0  0
   -5.4010   18.9540  -34.2440 C   0  0  0  0  0  0  0  0  0  0  0  0
   -4.9585   19.4048  -35.1446 H   0  0  0  0  0  0  0  0  0  0  0  0
   -4.7040   17.9540  -33.5480 C   0  0  0  0  0  0  0  0  0  0  0  0
   -3.3400   17.5260  -34.0020 C   0  0  0  0  0  0  0  0  0  0  0  0
   -2.7071   17.3274  -33.1245 H   0  0  0  0  0  0  0  0  0  0  0  0
   -3.4252   16.6114  -34.6072 H   0  0  0  0  0  0  0  0  0  0  0  0
   -2.8874   18.3253  -34.6072 H   0  0  0  0  0  0  0  0  0  0  0  0
   -5.2660   17.4050  -32.3860 C   0  0  0  0  0  0  0  0  0  0  0  0
   -4.7171   16.6356  -31.8232 H   0  0  0  0  0  0  0  0  0  0  0  0
   -6.5200   17.8310  -31.9400 C   0  0  0  0  0  0  0  0  0  0  0  0
   -6.9592   17.3878  -31.0341 H   0  0  0  0  0  0  0  0  0  0  0  0
   -7.4090   22.3320  -30.1470 C   0  0  0  0  0  0  0  0  0  0  0  0
   -8.2057   22.1880  -29.4023 H   0  0  0  0  0  0  0  0  0  0  0  0
   -6.2550   23.0400  -29.7990 C   0  0  0  0  0  0  0  0  0  0  0  0
   -6.1479   23.4484  -28.7833 H   0  0  0  0  0  0  0  0  0  0  0  0
   -2.7190   24.8350  -26.5340 C   0  0  0  0  0  0  0  0  0  0  0  0
   -3.4561   24.2399  -25.9750 H   0  0  0  0  0  0  0  0  0  0  0  0
   -1.7460   25.5720  -25.8540 C   0  0  0  0  0  0  0  0  0  0  0  0
   -1.7141   25.5601  -24.7545 H   0  0  0  0  0  0  0  0  0  0  0  0
   -0.8150   26.3230  -26.5720 C   0  0  0  0  0  0  0  0  0  0  0  0
   -0.0455   26.9062  -26.0450 H   0  0  0  0  0  0  0  0  0  0  0  0
  1  2  1  0
  2  3  1  0
  3  4  1  0
  4  5  2  0
  5  6  1  0
  6  7  2  0
  6  8  2  0
  6  9  1  0
  9 10  2  0
 10 11  1  0
 10 12  1  0
 12 13  1  0
 12 14  2  0
 14 15  1  0
 15 16  1  0
 15 17  1  0
 17 18  2  0
 17 19  2  0
 17 20  1  0
 20 21  2  0
 21 22  1  0
 21 23  1  0
 23 24  1  0
 23 25  2  0
 25 26  1  0
 26 27  1  0
 26 28  1  0
 26 29  1  0
 25 30  1  0
 30 31  1  0
 30 32  2  0
 32 33  1  0
 14 34  1  0
 34 35  1  0
 34 36  2  0
 36 37  1  0
  4 38  1  0
 38 39  1  0
 38 40  2  0
 40 41  1  0
 40 42  1  0
 42 43  1  0
 42  2  2  0
 36  9  1  0
 32 20  1  0
M  CHG  1   3  -1
M  END
>  <UniqueID>  (23) 
22

>  <SMILES>  (23) 
Cc1ccc(S(=O)(=O)Nc2ccc(S(=O)(=O)/N=c3/cccc[n-]3)cc2)cc1

>  <Energy>  (23) 
51.8949220676031

>  <Genealogy>  (23) 
Cc1ccc(S(=O)(=O)Nc2ccc(S(=O)(=O)N=c3cccc[n-]3)cc2)cc1 (protonated)
Cc1ccc(S(=O)(=O)Nc2ccc(S(=O)(=O)/N=c3/cccc[n-]3)cc2)cc1 (cis-trans isomerization)
Cc1ccc(S(=O)(=O)Nc2ccc(S(=O)(=O)/N=c3/cccc[n-]3)cc2)cc1 (3D coordinates assigned)
Cc1ccc(S(=O)(=O)Nc2ccc(S(=O)(=O)/N=c3/cccc[n-]3)cc2)cc1 (optimized conformer: 51.8949220676031 kcal/mol)

>  <smiles>  (23) 
Cc1ccc(S(=O)(=O)Nc2ccc(S(=O)(=O)N=c3cccc[nH]3)cc2)cc1

>  <score_type>  (23) 
oracle

>  <origin>  (23) 
adgpu

>  <m_score__min__energy>  (23) 
-11.26

>  <m_primary>  (23) 
energy

$$$$
23:0
     RDKit          3D

 43 46  0  0  0  0  0  0  0  0999 V2000
   -5.7159   18.8825  -33.8105 H   0  0  0  0  0  0  0  0  0  0  0  0
   -6.4850   19.4280  -33.2440 C   0  0  0  0  0  0  0  0  0  0  0  0
   -7.5810   18.7430  -32.7210 C   0  0  0  0  0  0  0  0  0  0  0  0
   -7.6798   17.6595  -32.8831 H   0  0  0  0  0  0  0  0  0  0  0  0
   -8.5530   19.4300  -31.9920 C   0  0  0  0  0  0  0  0  0  0  0  0
   -9.4116   18.8831  -31.5752 H   0  0  0  0  0  0  0  0  0  0  0  0
   -8.4420   20.8160  -31.7870 C   0  0  0  0  0  0  0  0  0  0  0  0
   -9.4960   21.5440  -31.0000 C   0  0  0  0  0  0  0  0  0  0  0  0
   -9.3064   21.4130  -29.9244 H   0  0  0  0  0  0  0  0  0  0  0  0
   -9.4660   22.6148  -31.2499 H   0  0  0  0  0  0  0  0  0  0  0  0
  -10.4868   21.1368  -31.2499 H   0  0  0  0  0  0  0  0  0  0  0  0
   -7.3520   21.5180  -32.3440 C   0  0  0  0  0  0  0  0  0  0  0  0
   -7.2300   22.9340  -32.1110 N   0  0  0  0  0  0  0  0  0  0  0  0
   -6.3460   23.5280  -31.3640 C   0  0  0  0  0  0  0  0  0  0  0  0
   -6.3970   24.8740  -31.2180 N   0  0  0  0  0  0  0  0  0  0  0  0
   -5.4680   25.5150  -30.4660 C   0  0  0  0  0  0  0  0  0  0  0  0
   -5.5166   26.6076  -30.3482 H   0  0  0  0  0  0  0  0  0  0  0  0
   -4.4780   24.8120  -29.8580 N   0  0  0  0  0  0  0  0  0  0  0  0
   -3.7700   25.3370  -29.2990 H   0  0  0  0  0  0  0  0  0  0  0  0
   -4.4120   23.4570  -30.0030 C   0  0  0  0  0  0  0  0  0  0  0  0
   -3.3700   22.6820  -29.3660 N   0  0  0  0  0  0  0  0  0  0  0  0
   -3.6910   21.8700  -28.1740 C   0  0  0  0  0  0  0  0  0  0  0  0
   -4.6351   21.3365  -28.3586 H   0  0  0  0  0  0  0  0  0  0  0  0
   -3.7653   22.5593  -27.3200 H   0  0  0  0  0  0  0  0  0  0  0  0
   -2.6240   20.8550  -27.8390 C   0  0  0  0  0  0  0  0  0  0  0  0
   -2.9470   19.7290  -27.0630 C   0  0  0  0  0  0  0  0  0  0  0  0
   -3.9856   19.5668  -26.7390 H   0  0  0  0  0  0  0  0  0  0  0  0
   -1.9540   18.8140  -26.7010 C   0  0  0  0  0  0  0  0  0  0  0  0
   -2.2153   17.9266  -26.1058 H   0  0  0  0  0  0  0  0  0  0  0  0
   -0.6310   19.0250  -27.0940 C   0  0  0  0  0  0  0  0  0  0  0  0
    0.1489   18.3043  -26.8069 H   0  0  0  0  0  0  0  0  0  0  0  0
   -0.2960   20.1510  -27.8520 C   0  0  0  0  0  0  0  0  0  0  0  0
    0.7489   20.3208  -28.1510 H   0  0  0  0  0  0  0  0  0  0  0  0
   -1.2910   21.0650  -28.2320 C   0  0  0  0  0  0  0  0  0  0  0  0
   -0.9430   22.2950  -29.0130 C   0  0  0  0  0  0  0  0  0  0  0  0
    0.0022   22.1301  -29.5509 H   0  0  0  0  0  0  0  0  0  0  0  0
   -0.8347   23.1439  -28.3219 H   0  0  0  0  0  0  0  0  0  0  0  0
   -2.0510   22.6040  -30.0190 C   0  0  0  0  0  0  0  0  0  0  0  0
   -2.0752   21.8090  -30.7788 H   0  0  0  0  0  0  0  0  0  0  0  0
   -1.8362   23.5800  -30.4786 H   0  0  0  0  0  0  0  0  0  0  0  0
   -5.3470   22.8280  -30.7650 N   0  0  0  0  0  0  0  0  0  0  0  0
   -6.3620   20.8050  -33.0500 C   0  0  0  0  0  0  0  0  0  0  0  0
   -5.4867   21.3372  -33.4508 H   0  0  0  0  0  0  0  0  0  0  0  0
  1  2  1  0
  2  3  2  0
  3  4  1  0
  3  5  1  0
  5  6  1  0
  5  7  2  0
  7  8  1  0
  8  9  1  0
  8 10  1  0
  8 11  1  0
  7 12  1  0
 12 13  1  0
 13 14  2  0
 14 15  1  0
 15 16  2  0
 16 17  1  0
 16 18  1  0
 18 19  1  0
 18 20  1  0
 20 21  1  0
 21 22  1  0
 22 23  1  0
 22 24  1  0
 22 25  1  0
 25 26  2  0
 26 27  1  0
 26 28  1  0
 28 29  1  0
 28 30  2  0
 30 31  1  0
 30 32  1  0
 32 33  1  0
 32 34  2  0
 34 35  1  0
 35 36  1  0
 35 37  1  0
 35 38  1  0
 38 39  1  0
 38 40  1  0
 20 41  2  0
 12 42  2  0
 42 43  1  0
 42  2  1  0
 41 14  1  0
 38 21  1  0
 34 25  1  0
M  END
>  <UniqueID>  (24) 
23

>  <SMILES>  (24) 
Cc1ccccc1/N=c1/nc[nH]c(N2CCc3ccccc3C2)n1

>  <Energy>  (24) 
56.655302800210876

>  <Genealogy>  (24) 
Cc1ccccc1/N=c1/nc[nH]c(N2CCc3ccccc3C2)n1 (cis-trans isomerization)
Cc1ccccc1/N=c1/nc[nH]c(N2CCc3ccccc3C2)n1 (3D coordinates assigned)
Cc1ccccc1/N=c1/nc[nH]c(N2CCc3ccccc3C2)n1 (nonaromatic ring conformer: 56.655302800210876 kcal/mol)

>  <smiles>  (24) 
Cc1ccccc1N=c1nc[nH]c(N2CCc3ccccc3C2)n1

>  <score_type>  (24) 
oracle

>  <origin>  (24) 
adgpu

>  <m_score__min__energy>  (24) 
-8.6699999999999999

>  <m_primary>  (24) 
energy

$$$$
24:0
     RDKit          3D

 52 54  0  0  0  0  0  0  0  0999 V2000
   -0.5160   23.4840  -25.2130 C   0  0  0  0  0  0  0  0  0  0  0  0
   -1.1840   23.8950  -26.5000 C   0  0  0  0  0  0  0  0  0  0  0  0
   -2.0750   22.9930  -27.1010 C   0  0  0  0  0  0  0  0  0  0  0  0
   -2.7220   23.3130  -28.2920 C   0  0  0  0  0  0  0  0  0  0  0  0
   -2.5050   24.5550  -28.9040 C   0  0  0  0  0  0  0  0  0  0  0  0
   -3.1200   24.8980  -30.1560 N   0  0  0  0  0  0  0  0  0  0  0  0
   -4.4990   24.7410  -30.5060 C   0  0  0  0  0  0  0  0  0  0  0  0
   -5.1370   25.6840  -31.0470 O   0  0  0  0  0  0  0  0  0  0  0  0
   -5.1420   23.4930  -30.2270 N   0  0  0  0  0  0  0  0  0  0  0  0
   -5.3610   22.4190  -31.1560 C   0  0  0  0  0  0  0  0  0  0  0  0
   -6.6390   21.8590  -31.3430 C   0  0  0  0  0  0  0  0  0  0  0  0
   -6.8310   20.8310  -32.2690 C   0  0  0  0  0  0  0  0  0  0  0  0
   -5.7560   20.3560  -33.0270 C   0  0  0  0  0  0  0  0  0  0  0  0
   -5.9570   19.3010  -33.9850 C   0  0  0  0  0  0  0  0  0  0  0  0
   -6.1170   18.4530  -34.7550 N   0  0  0  0  0  0  0  0  0  0  0  0
   -4.4860   20.9210  -32.8610 C   0  0  0  0  0  0  0  0  0  0  0  0
   -4.2840   21.9520  -31.9370 C   0  0  0  0  0  0  0  0  0  0  0  0
   -3.0060   22.4960  -31.8070 O   0  0  0  0  0  0  0  0  0  0  0  0
   -1.6130   25.4640  -28.3200 C   0  0  0  0  0  0  0  0  0  0  0  0
   -1.3730   26.6720  -28.9680 O   0  0  0  0  0  0  0  0  0  0  0  0
   -0.9640   25.1620  -27.1010 C   0  0  0  0  0  0  0  0  0  0  0  0
    0.1500   26.3570  -26.3860 S   0  0  0  0  0  0  0  0  0  0  0  0
    0.0320   27.6720  -27.1040 O   0  0  0  0  0  0  0  0  0  0  0  0
   -0.2010   26.5960  -24.9440 O   0  0  0  0  0  0  0  0  0  0  0  0
    1.8420   25.7670  -26.5010 C   0  0  0  0  0  0  0  0  0  0  0  0
    1.9650   24.6490  -27.5610 C   0  0  0  0  0  0  0  0  0  0  0  0
    2.9910   23.5640  -27.1770 C   0  0  0  0  0  0  0  0  0  0  0  0
    4.1640   24.1130  -26.4650 N   0  0  0  0  0  0  0  0  0  0  0  0
    5.0360   24.8940  -27.3590 C   0  0  0  0  0  0  0  0  0  0  0  0
    3.8200   24.8480  -25.2210 C   0  0  0  0  0  0  0  0  0  0  0  0
    2.3470   25.2940  -25.1350 C   0  0  0  0  0  0  0  0  0  0  0  0
   -1.1078   23.8481  -24.3602 H   0  0  0  0  0  0  0  0  0  0  0  0
   -0.4470   22.3870  -25.1697 H   0  0  0  0  0  0  0  0  0  0  0  0
    0.4943   23.9169  -25.1697 H   0  0  0  0  0  0  0  0  0  0  0  0
   -2.2651   22.0198  -26.6249 H   0  0  0  0  0  0  0  0  0  0  0  0
   -3.4069   22.5872  -28.7548 H   0  0  0  0  0  0  0  0  0  0  0  0
   -7.4912   22.2331  -30.7566 H   0  0  0  0  0  0  0  0  0  0  0  0
   -7.8314   20.3935  -32.4025 H   0  0  0  0  0  0  0  0  0  0  0  0
   -3.6412   20.5519  -33.4611 H   0  0  0  0  0  0  0  0  0  0  0  0
   -2.8050   23.2700  -31.1850 H   0  0  0  0  0  0  0  0  0  0  0  0
    2.4770   26.6055  -26.8230 H   0  0  0  0  0  0  0  0  0  0  0  0
    0.9810   24.1729  -27.6840 H   0  0  0  0  0  0  0  0  0  0  0  0
    2.3146   25.1168  -28.4932 H   0  0  0  0  0  0  0  0  0  0  0  0
    2.4972   22.8278  -26.5258 H   0  0  0  0  0  0  0  0  0  0  0  0
    3.3533   23.1054  -28.1089 H   0  0  0  0  0  0  0  0  0  0  0  0
    5.7220   25.5084  -26.7573 H   0  0  0  0  0  0  0  0  0  0  0  0
    5.6178   24.2094  -27.9937 H   0  0  0  0  0  0  0  0  0  0  0  0
    4.4194   25.5475  -27.9937 H   0  0  0  0  0  0  0  0  0  0  0  0
    4.0321   24.1924  -24.3636 H   0  0  0  0  0  0  0  0  0  0  0  0
    4.4276   25.7649  -25.2184 H   0  0  0  0  0  0  0  0  0  0  0  0
    1.7326   24.4465  -24.7970 H   0  0  0  0  0  0  0  0  0  0  0  0
    2.2722   26.1289  -24.4227 H   0  0  0  0  0  0  0  0  0  0  0  0
  1  2  1  0
  2  3  2  0
  3  4  1  0
  4  5  2  0
  5  6  1  0
  6  7  1  0
  7  8  2  0
  7  9  1  0
  9 10  1  0
 10 11  2  0
 11 12  1  0
 12 13  2  0
 13 14  1  0
 14 15  3  0
 13 16  1  0
 16 17  2  0
 17 18  1  0
  5 19  1  0
 19 20  1  0
 19 21  2  0
 21 22  1  0
 22 23  2  0
 22 24  2  0
 22 25  1  0
 25 26  1  0
 26 27  1  0
 27 28  1  0
 28 29  1  0
 28 30  1  0
 30 31  1  0
 21  2  1  0
 31 25  1  0
 17 10  1  0
  1 32  1  0
  1 33  1  0
  1 34  1  0
  3 35  1  0
  4 36  1  0
 11 37  1  0
 12 38  1  0
 16 39  1  0
 18 40  1  0
 25 41  1  0
 26 42  1  0
 26 43  1  0
 27 44  1  0
 27 45  1  0
 29 46  1  0
 29 47  1  0
 29 48  1  0
 30 49  1  0
 30 50  1  0
 31 51  1  0
 31 52  1  0
M  CHG  3   6  -1   9  -1  20  -1
M  END
>  <UniqueID>  (25) 
24

>  <SMILES>  (25) 
Cc1ccc([N-]C(=O)[N-]c2ccc(C#N)cc2O)c([O-])c1S(=O)(=O)C1CCN(C)CC1

>  <Energy>  (25) 
69.30284481129249

>  <Genealogy>  (25) 
Cc1ccc([N-]C(=O)[N-]c2ccc(C#N)cc2O)c([O-])c1S(=O)(=O)C1CCN(C)CC1 (protonated)
Cc1ccc([N-]C(=O)[N-]c2ccc(C#N)cc2O)c([O-])c1S(=O)(=O)C1CCN(C)CC1 (3D coordinates assigned)
Cc1ccc([N-]C(=O)[N-]c2ccc(C#N)cc2O)c([O-])c1S(=O)(=O)C1CCN(C)CC1 (nonaromatic ring conformer: 69.30284481129249 kcal/mol)

>  <smiles>  (25) 
Cc1ccc(NC(=O)Nc2ccc(C#N)cc2O)c(O)c1S(=O)(=O)C1CCN(C)CC1

>  <score_type>  (25) 
oracle

>  <origin>  (25) 
adgpu

>  <m_score__min__energy>  (25) 
-16.02

>  <m_primary>  (25) 
energy

$$$$
25:0
     RDKit          3D

 35 36  0  0  0  0  0  0  0  0999 V2000
   -4.5930   21.1760  -32.9010 C   0  0  0  0  0  0  0  0  0  0  0  0
   -3.5440   22.2870  -31.9140 S   0  0  0  0  0  0  0  0  0  0  0  0
   -4.9420   23.1830  -31.2270 C   0  0  0  0  0  0  0  0  0  0  0  0
   -6.2330   22.6620  -31.3860 C   0  0  0  0  0  0  0  0  0  0  0  0
   -7.3350   23.3410  -30.8620 C   0  0  0  0  0  0  0  0  0  0  0  0
   -7.1530   24.5490  -30.1850 C   0  0  0  0  0  0  0  0  0  0  0  0
   -5.8700   25.0760  -30.0240 C   0  0  0  0  0  0  0  0  0  0  0  0
   -4.7510   24.3870  -30.5260 C   0  0  0  0  0  0  0  0  0  0  0  0
   -3.4290   24.9300  -30.3970 N   0  0  0  0  0  0  0  0  0  0  0  0
   -2.5880   24.8490  -29.2400 C   0  0  0  0  0  0  0  0  0  0  0  0
   -1.5980   25.6240  -29.1540 O   0  0  0  0  0  0  0  0  0  0  0  0
   -2.8210   23.8280  -28.1570 C   0  0  0  0  0  0  0  0  0  0  0  0
   -1.5200   23.4620  -27.4290 C   0  0  0  0  0  0  0  0  0  0  0  0
   -1.2930   24.3420  -26.2700 N   0  0  0  0  0  0  0  0  0  0  0  0
   -1.8590   25.5860  -26.2530 C   0  0  0  0  0  0  0  0  0  0  0  0
   -1.6550   26.4420  -25.1740 C   0  0  0  0  0  0  0  0  0  0  0  0
   -0.8620   26.0070  -24.1170 C   0  0  0  0  0  0  0  0  0  0  0  0
   -0.6600   26.7600  -23.1280 O   0  0  0  0  0  0  0  0  0  0  0  0
   -0.3000   24.7690  -24.1590 N   0  0  0  0  0  0  0  0  0  0  0  0
   -0.5030   23.9410  -25.2210 C   0  0  0  0  0  0  0  0  0  0  0  0
    0.0440   22.8030  -25.2290 O   0  0  0  0  0  0  0  0  0  0  0  0
   -5.1908   20.5429  -32.2288 H   0  0  0  0  0  0  0  0  0  0  0  0
   -5.2643   21.7732  -33.5355 H   0  0  0  0  0  0  0  0  0  0  0  0
   -3.9582   20.5400  -33.5355 H   0  0  0  0  0  0  0  0  0  0  0  0
   -6.3789   21.7146  -31.9256 H   0  0  0  0  0  0  0  0  0  0  0  0
   -8.3460   22.9246  -30.9824 H   0  0  0  0  0  0  0  0  0  0  0  0
   -8.0222   25.0863  -29.7778 H   0  0  0  0  0  0  0  0  0  0  0  0
   -5.7336   26.0346  -29.5021 H   0  0  0  0  0  0  0  0  0  0  0  0
   -3.5337   24.2395  -27.4272 H   0  0  0  0  0  0  0  0  0  0  0  0
   -3.2182   22.9160  -28.6266 H   0  0  0  0  0  0  0  0  0  0  0  0
   -1.5840   22.4203  -27.0816 H   0  0  0  0  0  0  0  0  0  0  0  0
   -0.6816   23.5860  -28.1302 H   0  0  0  0  0  0  0  0  0  0  0  0
   -2.4810   25.9137  -27.0990 H   0  0  0  0  0  0  0  0  0  0  0  0
   -2.1119   27.4425  -25.1576 H   0  0  0  0  0  0  0  0  0  0  0  0
    0.3010   24.4520  -23.3650 H   0  0  0  0  0  0  0  0  0  0  0  0
  1  2  1  0
  2  3  1  0
  3  4  2  0
  4  5  1  0
  5  6  2  0
  6  7  1  0
  7  8  2  0
  8  9  1  0
  9 10  1  0
 10 11  2  0
 10 12  1  0
 12 13  1  0
 13 14  1  0
 14 15  1  0
 15 16  2  0
 16 17  1  0
 17 18  2  0
 17 19  1  0
 19 20  1  0
 20 21  2  0
  8  3  1  0
 20 14  1  0
  1 22  1  0
  1 23  1  0
  1 24  1  0
  4 25  1  0
  5 26  1  0
  6 27  1  0
  7 28  1  0
 12 29  1  0
 12 30  1  0
 13 31  1  0
 13 32  1  0
 15 33  1  0
 16 34  1  0
 19 35  1  0
M  CHG  1   9  -1
M  END
>  <UniqueID>  (26) 
25

>  <SMILES>  (26) 
CSc1ccccc1[N-]C(=O)CCn1ccc(=O)[nH]c1=O

>  <Energy>  (26) 
33.969630067522026

>  <Genealogy>  (26) 
CSc1ccccc1[N-]C(=O)CCn1ccc(=O)[nH]c1=O (protonated)
CSc1ccccc1[N-]C(=O)CCn1ccc(=O)[nH]c1=O (3D coordinates assigned)
CSc1ccccc1[N-]C(=O)CCn1ccc(=O)[nH]c1=O (optimized conformer: 33.969630067522026 kcal/mol)

>  <smiles>  (26) 
CSc1ccccc1NC(=O)CCn1ccc(=O)[nH]c1=O

>  <score_type>  (26) 
oracle

>  <origin>  (26) 
adgpu

>  <m_score__min__energy>  (26) 
-8.9900000000000002

>  <m_primary>  (26) 
energy

$$$$
26:0
     RDKit          3D

 38 39  0  0  0  0  0  0  0  0999 V2000
   -2.1330   25.6730  -29.7990 H   0  0  0  0  0  0  0  0  0  0  0  0
   -1.5980   25.9260  -28.9750 O   0  0  0  0  0  0  0  0  0  0  0  0
   -1.3180   24.9980  -27.9710 C   0  0  0  0  0  0  0  0  0  0  0  0
   -1.3550   25.3940  -26.6240 C   0  0  0  0  0  0  0  0  0  0  0  0
   -1.6061   26.4335  -26.3661 H   0  0  0  0  0  0  0  0  0  0  0  0
   -1.0750   24.4760  -25.6110 C   0  0  0  0  0  0  0  0  0  0  0  0
   -1.1023   24.7934  -24.5581 H   0  0  0  0  0  0  0  0  0  0  0  0
   -0.7600   23.1540  -25.9340 C   0  0  0  0  0  0  0  0  0  0  0  0
   -0.5424   22.4301  -25.1349 H   0  0  0  0  0  0  0  0  0  0  0  0
   -0.7210   22.7500  -27.2720 C   0  0  0  0  0  0  0  0  0  0  0  0
   -0.4730   21.7075  -27.5204 H   0  0  0  0  0  0  0  0  0  0  0  0
   -0.9960   23.6650  -28.3010 C   0  0  0  0  0  0  0  0  0  0  0  0
   -0.9610   23.1900  -29.7320 C   0  0  0  0  0  0  0  0  0  0  0  0
   -0.1786   22.4244  -29.8404 H   0  0  0  0  0  0  0  0  0  0  0  0
   -0.7454   24.0473  -30.3866 H   0  0  0  0  0  0  0  0  0  0  0  0
   -2.2510   22.6170  -30.1120 N   0  0  0  0  0  0  0  0  0  0  0  0
   -3.3080   23.3050  -30.4230 C   0  0  0  0  0  0  0  0  0  0  0  0
   -4.4570   22.6560  -30.7390 N   0  0  0  0  0  0  0  0  0  0  0  0
   -5.5840   23.3370  -31.0760 C   0  0  0  0  0  0  0  0  0  0  0  0
   -6.7950   22.6110  -31.3930 N   0  0  0  0  0  0  0  0  0  0  0  0
   -8.0690   23.3020  -31.6550 C   0  0  0  0  0  0  0  0  0  0  0  0
   -7.9525   23.9480  -32.5377 H   0  0  0  0  0  0  0  0  0  0  0  0
   -8.3305   23.9006  -30.7699 H   0  0  0  0  0  0  0  0  0  0  0  0
   -9.1940   22.3010  -31.9140 C   0  0  0  0  0  0  0  0  0  0  0  0
   -9.5953   21.9439  -30.9541 H   0  0  0  0  0  0  0  0  0  0  0  0
   -9.9953   22.7902  -32.4872 H   0  0  0  0  0  0  0  0  0  0  0  0
   -8.8013   21.4482  -32.4872 H   0  0  0  0  0  0  0  0  0  0  0  0
   -6.7460   21.1450  -31.5110 C   0  0  0  0  0  0  0  0  0  0  0  0
   -6.0969   20.7409  -30.7202 H   0  0  0  0  0  0  0  0  0  0  0  0
   -7.7668   20.7484  -31.4079 H   0  0  0  0  0  0  0  0  0  0  0  0
   -6.1950   20.7300  -32.8710 C   0  0  0  0  0  0  0  0  0  0  0  0
   -5.3237   20.0738  -32.7289 H   0  0  0  0  0  0  0  0  0  0  0  0
   -6.9723   20.1910  -33.4326 H   0  0  0  0  0  0  0  0  0  0  0  0
   -5.8916   21.6259  -33.4326 H   0  0  0  0  0  0  0  0  0  0  0  0
   -5.5380   24.7390  -31.0780 C   0  0  0  0  0  0  0  0  0  0  0  0
   -6.4313   25.3258  -31.3380 H   0  0  0  0  0  0  0  0  0  0  0  0
   -4.3770   25.3610  -30.7550 N   0  0  0  0  0  0  0  0  0  0  0  0
   -3.2860   24.6640  -30.4380 N   0  0  0  0  0  0  0  0  0  0  0  0
  1  2  1  0
  2  3  1  0
  3  4  2  0
  4  5  1  0
  4  6  1  0
  6  7  1  0
  6  8  2  0
  8  9  1  0
  8 10  1  0
 10 11  1  0
 10 12  2  0
 12 13  1  0
 13 14  1  0
 13 15  1  0
 13 16  1  0
 16 17  2  0
 17 18  1  0
 18 19  2  0
 19 20  1  0
 20 21  1  0
 21 22  1  0
 21 23  1  0
 21 24  1  0
 24 25  1  0
 24 26  1  0
 24 27  1  0
 20 28  1  0
 28 29  1  0
 28 30  1  0
 28 31  1  0
 31 32  1  0
 31 33  1  0
 31 34  1  0
 19 35  1  0
 35 36  1  0
 35 37  2  0
 37 38  1  0
 12  3  1  0
 38 17  1  0
M  CHG  1  38  -1
M  END
>  <UniqueID>  (27) 
26

>  <SMILES>  (27) 
CCN(CC)c1cn[n-]/c(=N\Cc2ccccc2O)n1

>  <Energy>  (27) 
35.51140034603184

>  <Genealogy>  (27) 
CCN(CC)c1cn[n-]c(=NCc2ccccc2O)n1 (protonated)
CCN(CC)c1cn[n-]/c(=N\Cc2ccccc2O)n1 (cis-trans isomerization)
CCN(CC)c1cn[n-]/c(=N\Cc2ccccc2O)n1 (3D coordinates assigned)
CCN(CC)c1cn[n-]/c(=N\Cc2ccccc2O)n1 (optimized conformer: 35.51140034603184 kcal/mol)

>  <smiles>  (27) 
CCN(CC)c1cn[nH]c(=NCc2ccccc2O)n1

>  <score_type>  (27) 
oracle

>  <origin>  (27) 
adgpu

>  <m_score__min__energy>  (27) 
-8.7200000000000006

>  <m_primary>  (27) 
energy

$$$$
27:0
     RDKit          3D

 40 42  0  0  0  0  0  0  0  0999 V2000
   -1.1170   26.2720  -28.0590 C   0  0  0  0  0  0  0  0  0  0  0  0
   -1.9430   25.5430  -28.9600 O   0  0  0  0  0  0  0  0  0  0  0  0
   -2.1810   24.1600  -28.8850 C   0  0  0  0  0  0  0  0  0  0  0  0
   -1.1240   23.2270  -28.8990 C   0  0  0  0  0  0  0  0  0  0  0  0
   -1.3880   21.8580  -28.8320 C   0  0  0  0  0  0  0  0  0  0  0  0
   -2.7020   21.4040  -28.7460 C   0  0  0  0  0  0  0  0  0  0  0  0
   -3.7590   22.3150  -28.7270 C   0  0  0  0  0  0  0  0  0  0  0  0
   -3.5130   23.7000  -28.8040 C   0  0  0  0  0  0  0  0  0  0  0  0
   -4.5960   24.6480  -28.7930 N   0  0  0  0  0  0  0  0  0  0  0  0
   -5.6840   24.8730  -30.1280 S   0  0  0  0  0  0  0  0  0  0  0  0
   -4.9870   25.6450  -31.2120 O   0  0  0  0  0  0  0  0  0  0  0  0
   -6.8800   25.6560  -29.6600 O   0  0  0  0  0  0  0  0  0  0  0  0
   -6.1740   23.3100  -30.7740 C   0  0  0  0  0  0  0  0  0  0  0  0
   -7.4200   22.7640  -30.4400 C   0  0  0  0  0  0  0  0  0  0  0  0
   -7.8000   21.5140  -30.9370 C   0  0  0  0  0  0  0  0  0  0  0  0
   -6.9340   20.7960  -31.7750 C   0  0  0  0  0  0  0  0  0  0  0  0
   -7.3030   19.5380  -32.2760 C   0  0  0  0  0  0  0  0  0  0  0  0
   -6.4270   18.8200  -33.1040 C   0  0  0  0  0  0  0  0  0  0  0  0
   -6.8410   17.4930  -33.6680 C   0  0  0  0  0  0  0  0  0  0  0  0
   -5.1900   19.3800  -33.4560 C   0  0  0  0  0  0  0  0  0  0  0  0
   -4.8140   20.6320  -32.9630 C   0  0  0  0  0  0  0  0  0  0  0  0
   -5.6780   21.3470  -32.1210 C   0  0  0  0  0  0  0  0  0  0  0  0
   -5.3080   22.6050  -31.6190 C   0  0  0  0  0  0  0  0  0  0  0  0
   -1.3965   26.0254  -27.0241 H   0  0  0  0  0  0  0  0  0  0  0  0
   -0.0637   26.0037  -28.2283 H   0  0  0  0  0  0  0  0  0  0  0  0
   -1.2524   27.3504  -28.2283 H   0  0  0  0  0  0  0  0  0  0  0  0
   -0.0843   23.5803  -28.9632 H   0  0  0  0  0  0  0  0  0  0  0  0
   -0.5575   21.1369  -28.8471 H   0  0  0  0  0  0  0  0  0  0  0  0
   -2.9071   20.3246  -28.6929 H   0  0  0  0  0  0  0  0  0  0  0  0
   -4.7933   21.9484  -28.6512 H   0  0  0  0  0  0  0  0  0  0  0  0
   -4.6850   25.3240  -28.0010 H   0  0  0  0  0  0  0  0  0  0  0  0
   -8.1033   23.3220  -29.7829 H   0  0  0  0  0  0  0  0  0  0  0  0
   -8.7804   21.0924  -30.6704 H   0  0  0  0  0  0  0  0  0  0  0  0
   -8.2841   19.1127  -32.0182 H   0  0  0  0  0  0  0  0  0  0  0  0
   -7.0583   16.7964  -32.8448 H   0  0  0  0  0  0  0  0  0  0  0  0
   -7.7415   17.6222  -34.2864 H   0  0  0  0  0  0  0  0  0  0  0  0
   -6.0267   17.0873  -34.2864 H   0  0  0  0  0  0  0  0  0  0  0  0
   -4.5116   18.8298  -34.1246 H   0  0  0  0  0  0  0  0  0  0  0  0
   -3.8374   21.0582  -33.2361 H   0  0  0  0  0  0  0  0  0  0  0  0
   -4.3341   23.0384  -31.8905 H   0  0  0  0  0  0  0  0  0  0  0  0
  1  2  1  0
  2  3  1  0
  3  4  2  0
  4  5  1  0
  5  6  2  0
  6  7  1  0
  7  8  2  0
  8  9  1  0
  9 10  1  0
 10 11  2  0
 10 12  2  0
 10 13  1  0
 13 14  2  0
 14 15  1  0
 15 16  2  0
 16 17  1  0
 17 18  2  0
 18 19  1  0
 18 20  1  0
 20 21  2  0
 21 22  1  0
 22 23  2  0
  8  3  1  0
 23 13  1  0
 22 16  1  0
  1 24  1  0
  1 25  1  0
  1 26  1  0
  4 27  1  0
  5 28  1  0
  6 29  1  0
  7 30  1  0
  9 31  1  0
 14 32  1  0
 15 33  1  0
 17 34  1  0
 19 35  1  0
 19 36  1  0
 19 37  1  0
 20 38  1  0
 21 39  1  0
 23 40  1  0
M  END
>  <UniqueID>  (28) 
27

>  <SMILES>  (28) 
COc1ccccc1NS(=O)(=O)c1ccc2cc(C)ccc2c1

>  <Energy>  (28) 
47.194400775858625

>  <Genealogy>  (28) 
COc1ccccc1NS(=O)(=O)c1ccc2cc(C)ccc2c1 (3D coordinates assigned)
COc1ccccc1NS(=O)(=O)c1ccc2cc(C)ccc2c1 (optimized conformer: 47.194400775858625 kcal/mol)

>  <smiles>  (28) 
COc1ccccc1NS(=O)(=O)c1ccc2cc(C)ccc2c1

>  <score_type>  (28) 
oracle

>  <origin>  (28) 
adgpu

>  <m_score__min__energy>  (28) 
-9.8699999999999992

>  <m_primary>  (28) 
energy

$$$$
28:0
     RDKit          3D

 27 28  0  0  0  0  0  0  0  0999 V2000
   -4.6710   21.2280  -33.8160 O   0  0  0  0  0  0  0  0  0  0  0  0
   -4.7720   20.0170  -32.9310 S   0  0  0  0  0  0  0  0  0  0  0  0
   -4.2210   18.8110  -33.6400 O   0  0  0  0  0  0  0  0  0  0  0  0
   -3.8560   20.2940  -31.4850 N   0  0  0  0  0  0  0  0  0  0  0  0
   -3.5230   21.5810  -30.9490 C   0  0  0  0  0  0  0  0  0  0  0  0
   -2.2520   21.7660  -30.3910 C   0  0  0  0  0  0  0  0  0  0  0  0
   -1.8860   23.0050  -29.8570 C   0  0  0  0  0  0  0  0  0  0  0  0
   -2.7890   24.0730  -29.8770 C   0  0  0  0  0  0  0  0  0  0  0  0
   -2.4150   25.3000  -29.3420 O   0  0  0  0  0  0  0  0  0  0  0  0
   -4.0630   23.8980  -30.4330 C   0  0  0  0  0  0  0  0  0  0  0  0
   -5.2110   25.2280  -30.4650 Cl  0  0  0  0  0  0  0  0  0  0  0  0
   -4.4300   22.6580  -30.9670 C   0  0  0  0  0  0  0  0  0  0  0  0
   -6.4710   19.7290  -32.5340 C   0  0  0  0  0  0  0  0  0  0  0  0
   -7.4120   20.7490  -32.7490 C   0  0  0  0  0  0  0  0  0  0  0  0
   -8.7600   20.5450  -32.4440 C   0  0  0  0  0  0  0  0  0  0  0  0
   -9.1820   19.3220  -31.9210 C   0  0  0  0  0  0  0  0  0  0  0  0
   -8.2570   18.3000  -31.7030 C   0  0  0  0  0  0  0  0  0  0  0  0
   -6.9020   18.4920  -32.0060 C   0  0  0  0  0  0  0  0  0  0  0  0
   -5.7640   17.1360  -31.7020 S   0  0  0  0  0  0  0  0  0  0  0  0
   -1.5366   20.9306  -30.3728 H   0  0  0  0  0  0  0  0  0  0  0  0
   -0.8856   23.1403  -29.4201 H   0  0  0  0  0  0  0  0  0  0  0  0
   -5.4311   22.5239  -31.4027 H   0  0  0  0  0  0  0  0  0  0  0  0
   -7.0854   21.7154  -33.1605 H   0  0  0  0  0  0  0  0  0  0  0  0
   -9.4899   21.3497  -32.6164 H   0  0  0  0  0  0  0  0  0  0  0  0
  -10.2436   19.1635  -31.6806 H   0  0  0  0  0  0  0  0  0  0  0  0
   -8.5935   17.3373  -31.2906 H   0  0  0  0  0  0  0  0  0  0  0  0
   -4.6530   18.0000  -31.6900 H   0  0  0  0  0  0  0  0  0  0  0  0
  1  2  2  0
  2  3  2  0
  2  4  1  0
  4  5  1  0
  5  6  2  0
  6  7  1  0
  7  8  2  0
  8  9  1  0
  8 10  1  0
 10 11  1  0
 10 12  2  0
  2 13  1  0
 13 14  2  0
 14 15  1  0
 15 16  2  0
 16 17  1  0
 17 18  2  0
 18 19  1  0
 12  5  1  0
 18 13  1  0
  6 20  1  0
  7 21  1  0
 12 22  1  0
 14 23  1  0
 15 24  1  0
 16 25  1  0
 17 26  1  0
 19 27  1  0
M  CHG  2   4  -1   9  -1
M  END
>  <UniqueID>  (29) 
28

>  <SMILES>  (29) 
O=S(=O)([N-]c1ccc([O-])c(Cl)c1)c1ccccc1S

>  <Energy>  (29) 
32.916082791028934

>  <Genealogy>  (29) 
O=S(=O)([N-]c1ccc([O-])c(Cl)c1)c1ccccc1S (protonated)
O=S(=O)([N-]c1ccc([O-])c(Cl)c1)c1ccccc1S (3D coordinates assigned)
O=S(=O)([N-]c1ccc([O-])c(Cl)c1)c1ccccc1S (optimized conformer: 32.916082791028934 kcal/mol)

>  <smiles>  (29) 
O=S(=O)(Nc1ccc(O)c(Cl)c1)c1ccccc1S

>  <score_type>  (29) 
oracle

>  <origin>  (29) 
adgpu

>  <m_score__min__energy>  (29) 
-10.630000000000001

>  <m_primary>  (29) 
energy

$$$$
29:0
     RDKit          3D

 60 64  0  0  0  0  0  0  0  0999 V2000
   -0.9800   21.6930  -31.2540 H   0  0  0  0  0  0  0  0  0  0  0  0
   -1.9380   21.9720  -31.5620 N   0  0  0  0  0  0  0  0  0  0  0  0
   -2.6340   22.8400  -30.9050 C   0  0  0  0  0  0  0  0  0  0  0  0
   -2.1210   23.4210  -29.7940 N   0  0  0  0  0  0  0  0  0  0  0  0
   -2.8440   24.3320  -29.0900 C   0  0  0  0  0  0  0  0  0  0  0  0
   -2.2580   24.9770  -27.9360 N   0  0  0  0  0  0  0  0  0  0  0  0
   -2.8530   24.7230  -26.6160 C   0  0  0  0  0  0  0  0  0  0  0  0
   -3.9490   24.7509  -26.7051 H   0  0  0  0  0  0  0  0  0  0  0  0
   -2.5172   23.7354  -26.2669 H   0  0  0  0  0  0  0  0  0  0  0  0
   -2.4070   25.7770  -25.5940 C   0  0  0  0  0  0  0  0  0  0  0  0
   -2.8945   26.7348  -25.8286 H   0  0  0  0  0  0  0  0  0  0  0  0
   -2.6945   25.4350  -24.5888 H   0  0  0  0  0  0  0  0  0  0  0  0
   -1.0080   25.9510  -25.6270 O   0  0  0  0  0  0  0  0  0  0  0  0
   -0.6340   26.5130  -26.8680 C   0  0  0  0  0  0  0  0  0  0  0  0
   -1.2201   27.4275  -27.0419 H   0  0  0  0  0  0  0  0  0  0  0  0
    0.4402   26.7484  -26.8410 H   0  0  0  0  0  0  0  0  0  0  0  0
   -0.8940   25.5240  -28.0090 C   0  0  0  0  0  0  0  0  0  0  0  0
   -0.7662   26.0431  -28.9704 H   0  0  0  0  0  0  0  0  0  0  0  0
   -0.1792   24.6926  -27.9202 H   0  0  0  0  0  0  0  0  0  0  0  0
   -4.0960   24.6540  -29.5150 N   0  0  0  0  0  0  0  0  0  0  0  0
   -4.6660   25.3550  -29.0000 H   0  0  0  0  0  0  0  0  0  0  0  0
   -4.6100   24.0860  -30.6430 C   0  0  0  0  0  0  0  0  0  0  0  0
   -5.9570   24.5020  -31.1540 C   0  0  0  0  0  0  0  0  0  0  0  0
   -6.5239   24.9790  -30.3409 H   0  0  0  0  0  0  0  0  0  0  0  0
   -5.8255   25.2127  -31.9832 H   0  0  0  0  0  0  0  0  0  0  0  0
   -6.7090   23.3040  -31.6470 C   0  0  0  0  0  0  0  0  0  0  0  0
   -8.3540   23.0510  -31.4490 S   0  0  0  0  0  0  0  0  0  0  0  0
   -8.3740   21.4620  -32.0030 C   0  0  0  0  0  0  0  0  0  0  0  0
   -9.2653   20.8248  -32.1005 H   0  0  0  0  0  0  0  0  0  0  0  0
   -7.0680   21.0920  -32.3170 C   0  0  0  0  0  0  0  0  0  0  0  0
   -6.6830   19.7120  -32.6860 C   0  0  0  0  0  0  0  0  0  0  0  0
   -7.6400   18.6850  -32.7170 C   0  0  0  0  0  0  0  0  0  0  0  0
   -8.6926   18.9092  -32.4895 H   0  0  0  0  0  0  0  0  0  0  0  0
   -7.2590   17.3790  -33.0360 C   0  0  0  0  0  0  0  0  0  0  0  0
   -8.0158   16.5818  -33.0763 H   0  0  0  0  0  0  0  0  0  0  0  0
   -5.9200   17.0820  -33.3040 C   0  0  0  0  0  0  0  0  0  0  0  0
   -5.6265   16.0515  -33.5528 H   0  0  0  0  0  0  0  0  0  0  0  0
   -4.9500   18.0920  -33.2570 C   0  0  0  0  0  0  0  0  0  0  0  0
   -3.2480   17.7080  -33.5400 S   0  0  0  0  0  0  0  0  0  0  0  0
   -3.0340   17.5120  -35.0150 O   0  0  0  0  0  0  0  0  0  0  0  0
   -2.9050   16.4220  -32.8440 O   0  0  0  0  0  0  0  0  0  0  0  0
   -2.1920   18.9720  -32.9550 N   0  0  0  0  0  0  0  0  0  0  0  0
   -2.2110   20.1520  -33.8520 C   0  0  0  0  0  0  0  0  0  0  0  0
   -2.7071   19.8715  -34.7928 H   0  0  0  0  0  0  0  0  0  0  0  0
   -2.7519   20.9569  -33.3327 H   0  0  0  0  0  0  0  0  0  0  0  0
   -0.8040   20.6700  -34.1740 C   0  0  0  0  0  0  0  0  0  0  0  0
   -0.2993   19.9581  -34.8436 H   0  0  0  0  0  0  0  0  0  0  0  0
   -0.8866   21.6520  -34.6627 H   0  0  0  0  0  0  0  0  0  0  0  0
   -0.0520   20.8080  -32.9890 O   0  0  0  0  0  0  0  0  0  0  0  0
    0.1180   19.5700  -32.3040 C   0  0  0  0  0  0  0  0  0  0  0  0
    1.1487   19.2262  -32.4755 H   0  0  0  0  0  0  0  0  0  0  0  0
   -0.1102   19.7748  -31.2476 H   0  0  0  0  0  0  0  0  0  0  0  0
   -0.8380   18.4390  -32.7330 C   0  0  0  0  0  0  0  0  0  0  0  0
   -0.4690   17.9858  -33.6649 H   0  0  0  0  0  0  0  0  0  0  0  0
   -0.8775   17.6819  -31.9359 H   0  0  0  0  0  0  0  0  0  0  0  0
   -5.3380   19.4060  -32.9660 C   0  0  0  0  0  0  0  0  0  0  0  0
   -4.5840   20.2069  -32.9562 H   0  0  0  0  0  0  0  0  0  0  0  0
   -6.1420   22.1310  -32.1310 C   0  0  0  0  0  0  0  0  0  0  0  0
   -5.0687   22.0264  -32.3480 H   0  0  0  0  0  0  0  0  0  0  0  0
   -3.8730   23.1790  -31.3330 N   0  0  0  0  0  0  0  0  0  0  0  0
  1  2  1  0
  2  3  2  0
  3  4  1  0
  4  5  2  0
  5  6  1  0
  6  7  1  0
  7  8  1  0
  7  9  1  0
  7 10  1  0
 10 11  1  0
 10 12  1  0
 10 13  1  0
 13 14  1  0
 14 15  1  0
 14 16  1  0
 14 17  1  0
 17 18  1  0
 17 19  1  0
  5 20  1  0
 20 21  1  0
 20 22  1  0
 22 23  1  0
 23 24  1  0
 23 25  1  0
 23 26  1  0
 26 27  1  0
 27 28  1  0
 28 29  1  0
 28 30  2  0
 30 31  1  0
 31 32  2  0
 32 33  1  0
 32 34  1  0
 34 35  1  0
 34 36  2  0
 36 37  1  0
 36 38  1  0
 38 39  1  0
 39 40  2  0
 39 41  2  0
 39 42  1  0
 42 43  1  0
 43 44  1  0
 43 45  1  0
 43 46  1  0
 46 47  1  0
 46 48  1  0
 46 49  1  0
 49 50  1  0
 50 51  1  0
 50 52  1  0
 50 53  1  0
 53 54  1  0
 53 55  1  0
 38 56  2  0
 56 57  1  0
 30 58  1  0
 58 59  1  0
 22 60  2  0
 60  3  1  0
 17  6  1  0
 58 26  2  0
 56 31  1  0
 53 42  1  0
M  END
>  <UniqueID>  (30) 
29

>  <SMILES>  (30) 
[H]/N=c1/nc(Cc2cc(-c3cccc(S(=O)(=O)N4CCOCC4)c3)cs2)[nH]c(N2CCOCC2)n1

>  <Energy>  (30) 
103.17088673658189

>  <Genealogy>  (30) 
[H]/N=c1/nc(Cc2cc(-c3cccc(S(=O)(=O)N4CCOCC4)c3)cs2)[nH]c(N2CCOCC2)n1 (cis-trans isomerization)
[H]/N=c1/nc(Cc2cc(-c3cccc(S(=O)(=O)N4CCOCC4)c3)cs2)[nH]c(N2CCOCC2)n1 (3D coordinates assigned)
[H]/N=c1/nc(Cc2cc(-c3cccc(S(=O)(=O)N4CCOCC4)c3)cs2)[nH]c(N2CCOCC2)n1 (nonaromatic ring conformer: 103.17088673658189 kcal/mol)

>  <smiles>  (30) 
N=c1nc(Cc2cc(-c3cccc(S(=O)(=O)N4CCOCC4)c3)cs2)[nH]c(N2CCOCC2)n1

>  <score_type>  (30) 
oracle

>  <origin>  (30) 
adgpu

>  <m_score__min__energy>  (30) 
-10.31

>  <m_primary>  (30) 
energy

$$$$
30:0
     RDKit          3D

 62 64  0  0  0  0  0  0  0  0999 V2000
   -1.1610   21.3090  -25.6520 C   0  0  0  0  0  0  0  0  0  0  0  0
   -1.0790   21.1210  -27.1380 C   0  0  0  0  0  0  0  0  0  0  0  0
   -0.9620   22.0910  -28.1280 C   0  0  0  0  0  0  0  0  0  0  0  0
   -0.7630   23.5070  -28.0180 N   0  0  0  0  0  0  0  0  0  0  0  0
   -1.9020   24.7620  -28.4000 S   0  0  0  0  0  0  0  0  0  0  0  0
   -2.2990   25.4530  -27.1260 O   0  0  0  0  0  0  0  0  0  0  0  0
   -1.2370   25.7600  -29.3090 O   0  0  0  0  0  0  0  0  0  0  0  0
   -3.3670   24.1330  -29.1540 C   0  0  0  0  0  0  0  0  0  0  0  0
   -4.2020   23.2530  -28.4530 C   0  0  0  0  0  0  0  0  0  0  0  0
   -5.3410   22.7230  -29.0640 C   0  0  0  0  0  0  0  0  0  0  0  0
   -5.6640   23.0680  -30.3880 C   0  0  0  0  0  0  0  0  0  0  0  0
   -6.8500   22.4770  -31.0530 C   0  0  0  0  0  0  0  0  0  0  0  0
   -7.9930   23.2570  -31.2980 C   0  0  0  0  0  0  0  0  0  0  0  0
   -9.1080   22.6960  -31.9260 C   0  0  0  0  0  0  0  0  0  0  0  0
   -9.0980   21.3530  -32.3100 C   0  0  0  0  0  0  0  0  0  0  0  0
   -7.9690   20.5570  -32.0650 C   0  0  0  0  0  0  0  0  0  0  0  0
   -7.9500   19.1050  -32.4660 C   0  0  0  0  0  0  0  0  0  0  0  0
   -6.5640   18.6320  -32.6570 N   0  0  0  0  0  0  0  0  0  0  0  0
   -6.0890   18.9390  -34.0170 C   0  0  0  0  0  0  0  0  0  0  0  0
   -6.4890   17.1810  -32.4260 C   0  0  0  0  0  0  0  0  0  0  0  0
   -6.8480   21.1250  -31.4390 C   0  0  0  0  0  0  0  0  0  0  0  0
   -4.8370   23.9710  -31.0790 C   0  0  0  0  0  0  0  0  0  0  0  0
   -3.7030   24.5040  -30.4630 C   0  0  0  0  0  0  0  0  0  0  0  0
   -1.1390   21.4110  -29.3200 C   0  0  0  0  0  0  0  0  0  0  0  0
   -1.2130   22.0020  -30.7020 C   0  0  0  0  0  0  0  0  0  0  0  0
   -1.7180   21.0240  -31.7860 C   0  0  0  0  0  0  0  0  0  0  0  0
   -0.7740   20.9420  -32.9930 C   0  0  0  0  0  0  0  0  0  0  0  0
   -3.1470   21.3470  -32.2310 C   0  0  0  0  0  0  0  0  0  0  0  0
   -1.2980   20.0980  -29.0670 N   0  0  0  0  0  0  0  0  0  0  0  0
   -1.2420   19.9280  -27.7540 N   0  0  0  0  0  0  0  0  0  0  0  0
   -1.4450   18.6360  -27.1100 C   0  0  0  0  0  0  0  0  0  0  0  0
   -0.7703   20.4133  -25.1470 H   0  0  0  0  0  0  0  0  0  0  0  0
   -0.5632   22.1849  -25.3597 H   0  0  0  0  0  0  0  0  0  0  0  0
   -2.2097   21.4667  -25.3597 H   0  0  0  0  0  0  0  0  0  0  0  0
   -3.9594   22.9780  -27.4159 H   0  0  0  0  0  0  0  0  0  0  0  0
   -5.9891   22.0315  -28.5057 H   0  0  0  0  0  0  0  0  0  0  0  0
   -8.0100   24.3140  -30.9940 H   0  0  0  0  0  0  0  0  0  0  0  0
   -9.9971   23.3143  -32.1187 H   0  0  0  0  0  0  0  0  0  0  0  0
   -9.9782   20.9181  -32.8061 H   0  0  0  0  0  0  0  0  0  0  0  0
   -8.4298   18.5067  -31.6774 H   0  0  0  0  0  0  0  0  0  0  0  0
   -8.4945   18.9941  -33.4153 H   0  0  0  0  0  0  0  0  0  0  0  0
   -5.1665   19.5352  -33.9573 H   0  0  0  0  0  0  0  0  0  0  0  0
   -5.8853   18.0012  -34.5547 H   0  0  0  0  0  0  0  0  0  0  0  0
   -6.8604   19.5098  -34.5547 H   0  0  0  0  0  0  0  0  0  0  0  0
   -6.4787   16.9820  -31.3442 H   0  0  0  0  0  0  0  0  0  0  0  0
   -7.3631   16.6917  -32.8805 H   0  0  0  0  0  0  0  0  0  0  0  0
   -5.5692   16.7844  -32.8805 H   0  0  0  0  0  0  0  0  0  0  0  0
   -5.9589   20.5059  -31.2485 H   0  0  0  0  0  0  0  0  0  0  0  0
   -5.0849   24.2593  -32.1112 H   0  0  0  0  0  0  0  0  0  0  0  0
   -3.0697   25.2192  -31.0083 H   0  0  0  0  0  0  0  0  0  0  0  0
   -1.8950   22.8645  -30.6717 H   0  0  0  0  0  0  0  0  0  0  0  0
   -0.1857   22.2786  -30.9815 H   0  0  0  0  0  0  0  0  0  0  0  0
   -1.7290   20.0304  -31.3141 H   0  0  0  0  0  0  0  0  0  0  0  0
    0.2643   20.8518  -32.6410 H   0  0  0  0  0  0  0  0  0  0  0  0
   -1.0325   20.0629  -33.6016 H   0  0  0  0  0  0  0  0  0  0  0  0
   -0.8771   21.8525  -33.6016 H   0  0  0  0  0  0  0  0  0  0  0  0
   -3.7832   21.4908  -31.3452 H   0  0  0  0  0  0  0  0  0  0  0  0
   -3.1442   22.2672  -32.8337 H   0  0  0  0  0  0  0  0  0  0  0  0
   -3.5402   20.5151  -32.8337 H   0  0  0  0  0  0  0  0  0  0  0  0
   -1.4249   18.7636  -26.0176 H   0  0  0  0  0  0  0  0  0  0  0  0
   -2.4189   18.2241  -27.4132 H   0  0  0  0  0  0  0  0  0  0  0  0
   -0.6444   17.9453  -27.4132 H   0  0  0  0  0  0  0  0  0  0  0  0
  1  2  1  0
  2  3  2  0
  3  4  1  0
  4  5  1  0
  5  6  2  0
  5  7  2  0
  5  8  1  0
  8  9  2  0
  9 10  1  0
 10 11  2  0
 11 12  1  0
 12 13  2  0
 13 14  1  0
 14 15  2  0
 15 16  1  0
 16 17  1  0
 17 18  1  0
 18 19  1  0
 18 20  1  0
 16 21  2  0
 11 22  1  0
 22 23  2  0
  3 24  1  0
 24 25  1  0
 25 26  1  0
 26 27  1  0
 26 28  1  0
 24 29  2  0
 29 30  1  0
 30 31  1  0
 30  2  1  0
 23  8  1  0
 21 12  1  0
  1 32  1  0
  1 33  1  0
  1 34  1  0
  9 35  1  0
 10 36  1  0
 13 37  1  0
 14 38  1  0
 15 39  1  0
 17 40  1  0
 17 41  1  0
 19 42  1  0
 19 43  1  0
 19 44  1  0
 20 45  1  0
 20 46  1  0
 20 47  1  0
 21 48  1  0
 22 49  1  0
 23 50  1  0
 25 51  1  0
 25 52  1  0
 26 53  1  0
 27 54  1  0
 27 55  1  0
 27 56  1  0
 28 57  1  0
 28 58  1  0
 28 59  1  0
 31 60  1  0
 31 61  1  0
 31 62  1  0
M  CHG  1   4  -1
M  END
>  <UniqueID>  (31) 
30

>  <SMILES>  (31) 
Cc1c([N-]S(=O)(=O)c2ccc(-c3cccc(CN(C)C)c3)cc2)c(CC(C)C)nn1C

>  <Energy>  (31) 
98.6990271150893

>  <Genealogy>  (31) 
Cc1c([N-]S(=O)(=O)c2ccc(-c3cccc(CN(C)C)c3)cc2)c(CC(C)C)nn1C (protonated)
Cc1c([N-]S(=O)(=O)c2ccc(-c3cccc(CN(C)C)c3)cc2)c(CC(C)C)nn1C (3D coordinates assigned)
Cc1c([N-]S(=O)(=O)c2ccc(-c3cccc(CN(C)C)c3)cc2)c(CC(C)C)nn1C (optimized conformer: 98.6990271150893 kcal/mol)

>  <smiles>  (31) 
Cc1c(NS(=O)(=O)c2ccc(-c3cccc(CN(C)C)c3)cc2)c(CC(C)C)nn1C

>  <score_type>  (31) 
oracle

>  <origin>  (31) 
adgpu

>  <m_score__min__energy>  (31) 
-10.65

>  <m_primary>  (31) 
energy

$$$$
31:0
     RDKit          3D

 34 35  0  0  0  0  0  0  0  0999 V2000
   -5.8580   20.2110  -33.5050 C   0  0  0  0  0  0  0  0  0  0  0  0
   -6.4210   21.2340  -32.5600 C   0  0  0  0  0  0  0  0  0  0  0  0
   -5.5670   22.1360  -31.9010 C   0  0  0  0  0  0  0  0  0  0  0  0
   -6.0890   23.0940  -31.0220 C   0  0  0  0  0  0  0  0  0  0  0  0
   -5.0170   24.2120  -30.1850 S   0  0  0  0  0  0  0  0  0  0  0  0
   -4.2620   25.0640  -31.1680 O   0  0  0  0  0  0  0  0  0  0  0  0
   -5.8400   25.1020  -29.2970 O   0  0  0  0  0  0  0  0  0  0  0  0
   -3.8850   23.3320  -29.2110 N   0  0  0  0  0  0  0  0  0  0  0  0
   -2.8240   22.5020  -29.7120 C   0  0  0  0  0  0  0  0  0  0  0  0
   -3.0920   21.3620  -30.4940 C   0  0  0  0  0  0  0  0  0  0  0  0
   -2.0450   20.5620  -30.9580 C   0  0  0  0  0  0  0  0  0  0  0  0
   -0.7250   20.8880  -30.6490 C   0  0  0  0  0  0  0  0  0  0  0  0
   -0.4450   22.0160  -29.8760 C   0  0  0  0  0  0  0  0  0  0  0  0
   -1.4870   22.8330  -29.4080 C   0  0  0  0  0  0  0  0  0  0  0  0
   -1.1150   24.2510  -28.4200 S   0  0  0  0  0  0  0  0  0  0  0  0
   -1.9920   25.6350  -28.9700 N   0  0  0  0  0  0  0  0  0  0  0  0
    0.3570   24.5400  -28.5050 O   0  0  0  0  0  0  0  0  0  0  0  0
   -1.4910   23.9780  -26.9900 O   0  0  0  0  0  0  0  0  0  0  0  0
   -7.4710   23.1610  -30.8090 C   0  0  0  0  0  0  0  0  0  0  0  0
   -8.3260   22.2720  -31.4620 C   0  0  0  0  0  0  0  0  0  0  0  0
   -7.8090   21.3080  -32.3390 C   0  0  0  0  0  0  0  0  0  0  0  0
   -8.6690   20.4240  -32.9910 O   0  0  0  0  0  0  0  0  0  0  0  0
   -5.4060   19.3897  -32.9295 H   0  0  0  0  0  0  0  0  0  0  0  0
   -6.6647   19.8140  -34.1388 H   0  0  0  0  0  0  0  0  0  0  0  0
   -5.0910   20.6801  -34.1388 H   0  0  0  0  0  0  0  0  0  0  0  0
   -4.4821   22.0892  -32.0767 H   0  0  0  0  0  0  0  0  0  0  0  0
   -4.1314   21.1000  -30.7408 H   0  0  0  0  0  0  0  0  0  0  0  0
   -2.2624   19.6731  -31.5684 H   0  0  0  0  0  0  0  0  0  0  0  0
    0.0970   20.2552  -31.0150 H   0  0  0  0  0  0  0  0  0  0  0  0
    0.5979   22.2665  -29.6320 H   0  0  0  0  0  0  0  0  0  0  0  0
   -2.7920   25.2830  -29.5430 H   0  0  0  0  0  0  0  0  0  0  0  0
   -7.8843   23.9167  -30.1248 H   0  0  0  0  0  0  0  0  0  0  0  0
   -9.4107   22.3279  -31.2878 H   0  0  0  0  0  0  0  0  0  0  0  0
   -8.4460   20.0410  -33.9010 H   0  0  0  0  0  0  0  0  0  0  0  0
  1  2  1  0
  2  3  2  0
  3  4  1  0
  4  5  1  0
  5  6  2  0
  5  7  2  0
  5  8  1  0
  8  9  1  0
  9 10  2  0
 10 11  1  0
 11 12  2  0
 12 13  1  0
 13 14  2  0
 14 15  1  0
 15 16  1  0
 15 17  2  0
 15 18  2  0
  4 19  2  0
 19 20  1  0
 20 21  2  0
 21 22  1  0
 21  2  1  0
 14  9  1  0
  1 23  1  0
  1 24  1  0
  1 25  1  0
  3 26  1  0
 10 27  1  0
 11 28  1  0
 12 29  1  0
 13 30  1  0
 16 31  1  0
 19 32  1  0
 20 33  1  0
 22 34  1  0
M  CHG  2   8  -1  16  -1
M  END
>  <UniqueID>  (32) 
31

>  <SMILES>  (32) 
Cc1cc(S(=O)(=O)[N-]c2ccccc2S([NH-])(=O)=O)ccc1O

>  <Energy>  (32) 
37.65064250891177

>  <Genealogy>  (32) 
Cc1cc(S(=O)(=O)[N-]c2ccccc2S([NH-])(=O)=O)ccc1O (protonated)
Cc1cc(S(=O)(=O)[N-]c2ccccc2S([NH-])(=O)=O)ccc1O (3D coordinates assigned)
Cc1cc(S(=O)(=O)[N-]c2ccccc2S([NH-])(=O)=O)ccc1O (optimized conformer: 37.65064250891177 kcal/mol)

>  <smiles>  (32) 
Cc1cc(S(=O)(=O)Nc2ccccc2S(N)(=O)=O)ccc1O

>  <score_type>  (32) 
oracle

>  <origin>  (32) 
adgpu

>  <m_score__min__energy>  (32) 
-11.380000000000001

>  <m_primary>  (32) 
energy

$$$$
32:0
     RDKit          3D

 46 49  0  0  0  0  0  0  0  0999 V2000
   -1.3750   25.6250  -28.0030 C   0  0  0  0  0  0  0  0  0  0  0  0
   -1.9310   24.6870  -29.0250 C   0  0  0  0  0  0  0  0  0  0  0  0
   -1.2260   23.5380  -29.3900 C   0  0  0  0  0  0  0  0  0  0  0  0
   -1.7640   22.6650  -30.3390 C   0  0  0  0  0  0  0  0  0  0  0  0
   -1.1250   21.6170  -30.6240 O   0  0  0  0  0  0  0  0  0  0  0  0
   -3.0100   22.9570  -30.9440 C   0  0  0  0  0  0  0  0  0  0  0  0
   -3.7070   24.1020  -30.4990 C   0  0  0  0  0  0  0  0  0  0  0  0
   -3.1480   24.9300  -29.5770 N   0  0  0  0  0  0  0  0  0  0  0  0
   -5.0550   24.4450  -31.0610 C   0  0  0  0  0  0  0  0  0  0  0  0
   -5.7990   23.1800  -31.4790 C   0  0  0  0  0  0  0  0  0  0  0  0
   -4.9600   22.3850  -32.4780 C   0  0  0  0  0  0  0  0  0  0  0  0
   -3.6150   22.0980  -31.9520 N   0  0  0  0  0  0  0  0  0  0  0  0
   -2.8350   21.1520  -32.7010 C   0  0  0  0  0  0  0  0  0  0  0  0
   -1.6290   21.5590  -33.2920 C   0  0  0  0  0  0  0  0  0  0  0  0
   -0.8720   20.6550  -34.0410 C   0  0  0  0  0  0  0  0  0  0  0  0
   -1.3130   19.3380  -34.2010 C   0  0  0  0  0  0  0  0  0  0  0  0
   -0.5710   18.4580  -34.9170 F   0  0  0  0  0  0  0  0  0  0  0  0
   -2.5160   18.9270  -33.6180 C   0  0  0  0  0  0  0  0  0  0  0  0
   -3.2940   19.8350  -32.8820 C   0  0  0  0  0  0  0  0  0  0  0  0
   -4.5120   19.4200  -32.2440 N   0  0  0  0  0  0  0  0  0  0  0  0
   -5.7050   18.9910  -32.9120 C   0  0  0  0  0  0  0  0  0  0  0  0
   -5.6080   18.1730  -33.8630 O   0  0  0  0  0  0  0  0  0  0  0  0
   -7.0390   19.4290  -32.4650 C   0  0  0  0  0  0  0  0  0  0  0  0
   -8.0500   18.6030  -32.0060 C   0  0  0  0  0  0  0  0  0  0  0  0
   -9.1020   19.4370  -31.6920 C   0  0  0  0  0  0  0  0  0  0  0  0
   -8.6640   20.7150  -31.9780 C   0  0  0  0  0  0  0  0  0  0  0  0
   -9.4510   21.9680  -31.7880 C   0  0  0  0  0  0  0  0  0  0  0  0
   -7.4340   20.6810  -32.4300 O   0  0  0  0  0  0  0  0  0  0  0  0
   -1.6002   25.2450  -26.9956 H   0  0  0  0  0  0  0  0  0  0  0  0
   -0.2852   25.7022  -28.1306 H   0  0  0  0  0  0  0  0  0  0  0  0
   -1.8304   26.6181  -28.1306 H   0  0  0  0  0  0  0  0  0  0  0  0
   -0.2499   23.3209  -28.9316 H   0  0  0  0  0  0  0  0  0  0  0  0
   -5.6421   24.9737  -30.2957 H   0  0  0  0  0  0  0  0  0  0  0  0
   -4.9188   25.0854  -31.9450 H   0  0  0  0  0  0  0  0  0  0  0  0
   -5.9913   22.5604  -30.5907 H   0  0  0  0  0  0  0  0  0  0  0  0
   -6.7516   23.4614  -31.9516 H   0  0  0  0  0  0  0  0  0  0  0  0
   -5.4689   21.4340  -32.6939 H   0  0  0  0  0  0  0  0  0  0  0  0
   -4.8498   22.9889  -33.3908 H   0  0  0  0  0  0  0  0  0  0  0  0
   -1.2785   22.5939  -33.1649 H   0  0  0  0  0  0  0  0  0  0  0  0
    0.0712   20.9794  -34.5050 H   0  0  0  0  0  0  0  0  0  0  0  0
   -2.8544   17.8871  -33.7367 H   0  0  0  0  0  0  0  0  0  0  0  0
   -8.0204   17.5075  -31.9113 H   0  0  0  0  0  0  0  0  0  0  0  0
  -10.0858   19.1450  -31.2959 H   0  0  0  0  0  0  0  0  0  0  0  0
   -9.5742   22.1641  -30.7127 H   0  0  0  0  0  0  0  0  0  0  0  0
   -8.9190   22.8096  -32.2556 H   0  0  0  0  0  0  0  0  0  0  0  0
  -10.4401   21.8542  -32.2556 H   0  0  0  0  0  0  0  0  0  0  0  0
  1  2  1  0
  2  3  2  0
  3  4  1  0
  4  5  2  0
  4  6  1  0
  6  7  2  0
  7  8  1  0
  7  9  1  0
  9 10  1  0
 10 11  1  0
 11 12  1  0
 12 13  1  0
 13 14  2  0
 14 15  1  0
 15 16  2  0
 16 17  1  0
 16 18  1  0
 18 19  2  0
 19 20  1  0
 20 21  1  0
 21 22  2  0
 21 23  1  0
 23 24  2  0
 24 25  1  0
 25 26  2  0
 26 27  1  0
 26 28  1  0
  8  2  1  0
 19 13  1  0
 28 23  1  0
 12  6  1  0
  1 29  1  0
  1 30  1  0
  1 31  1  0
  3 32  1  0
  9 33  1  0
  9 34  1  0
 10 35  1  0
 10 36  1  0
 11 37  1  0
 11 38  1  0
 14 39  1  0
 15 40  1  0
 18 41  1  0
 24 42  1  0
 25 43  1  0
 27 44  1  0
 27 45  1  0
 27 46  1  0
M  CHG  2   8  -1  20  -1
M  END
>  <UniqueID>  (33) 
32

>  <SMILES>  (33) 
Cc1cc(=O)c2c([n-]1)CCCN2c1ccc(F)cc1[N-]C(=O)c1ccc(C)o1

>  <Energy>  (33) 
87.20977754808959

>  <Genealogy>  (33) 
Cc1cc(=O)c2c([n-]1)CCCN2c1ccc(F)cc1[N-]C(=O)c1ccc(C)o1 (protonated)
Cc1cc(=O)c2c([n-]1)CCCN2c1ccc(F)cc1[N-]C(=O)c1ccc(C)o1 (3D coordinates assigned)
Cc1cc(=O)c2c([n-]1)CCCN2c1ccc(F)cc1[N-]C(=O)c1ccc(C)o1 (nonaromatic ring conformer: 87.20977754808959 kcal/mol)

>  <smiles>  (33) 
Cc1cc(=O)c2c([nH]1)CCCN2c1ccc(F)cc1NC(=O)c1ccc(C)o1

>  <score_type>  (33) 
oracle

>  <origin>  (33) 
adgpu

>  <m_score__min__energy>  (33) 
-9.9800000000000004

>  <m_primary>  (33) 
energy

$$$$
33:0
     RDKit          3D

 41 43  0  0  0  0  0  0  0  0999 V2000
   -2.4130   17.5650  -34.8960 C   0  0  0  0  0  0  0  0  0  0  0  0
   -2.3490   18.7530  -33.9730 C   0  0  0  0  0  0  0  0  0  0  0  0
   -3.3900   18.9700  -33.0570 C   0  0  0  0  0  0  0  0  0  0  0  0
   -3.3610   20.0640  -32.1920 C   0  0  0  0  0  0  0  0  0  0  0  0
   -2.2780   20.9570  -32.2160 C   0  0  0  0  0  0  0  0  0  0  0  0
   -2.2190   22.0940  -31.3430 N   0  0  0  0  0  0  0  0  0  0  0  0
   -3.1770   22.4280  -30.3300 C   0  0  0  0  0  0  0  0  0  0  0  0
   -2.9210   22.1330  -29.1320 O   0  0  0  0  0  0  0  0  0  0  0  0
   -4.4650   23.0790  -30.6540 C   0  0  0  0  0  0  0  0  0  0  0  0
   -5.5900   22.2840  -30.9280 C   0  0  0  0  0  0  0  0  0  0  0  0
   -6.8330   22.8750  -31.1920 C   0  0  0  0  0  0  0  0  0  0  0  0
   -8.2550   21.8700  -31.4400 S   0  0  0  0  0  0  0  0  0  0  0  0
   -8.9300   21.6300  -30.1180 O   0  0  0  0  0  0  0  0  0  0  0  0
   -9.2250   22.5570  -32.3600 O   0  0  0  0  0  0  0  0  0  0  0  0
   -7.7620   20.3410  -32.1410 C   0  0  0  0  0  0  0  0  0  0  0  0
   -8.2180   19.0900  -31.7540 C   0  0  0  0  0  0  0  0  0  0  0  0
   -7.6510   18.0490  -32.4990 C   0  0  0  0  0  0  0  0  0  0  0  0
   -6.7510   18.4820  -33.4660 C   0  0  0  0  0  0  0  0  0  0  0  0
   -6.6610   20.1610  -33.3960 S   0  0  0  0  0  0  0  0  0  0  0  0
   -6.9510   24.2710  -31.1930 C   0  0  0  0  0  0  0  0  0  0  0  0
   -5.8320   25.0690  -30.9490 C   0  0  0  0  0  0  0  0  0  0  0  0
   -4.5910   24.4830  -30.6850 C   0  0  0  0  0  0  0  0  0  0  0  0
   -3.4870   25.3020  -30.4700 O   0  0  0  0  0  0  0  0  0  0  0  0
   -1.2530   20.7660  -33.1490 C   0  0  0  0  0  0  0  0  0  0  0  0
   -1.2740   19.6730  -34.0310 C   0  0  0  0  0  0  0  0  0  0  0  0
   -0.1400   19.4900  -35.0050 C   0  0  0  0  0  0  0  0  0  0  0  0
   -2.4628   16.6409  -34.3013 H   0  0  0  0  0  0  0  0  0  0  0  0
   -3.3083   17.6414  -35.5305 H   0  0  0  0  0  0  0  0  0  0  0  0
   -1.5146   17.5448  -35.5305 H   0  0  0  0  0  0  0  0  0  0  0  0
   -4.2377   18.2700  -33.0208 H   0  0  0  0  0  0  0  0  0  0  0  0
   -4.1903   20.2277  -31.4881 H   0  0  0  0  0  0  0  0  0  0  0  0
   -5.4946   21.1882  -30.9354 H   0  0  0  0  0  0  0  0  0  0  0  0
   -8.9483   18.9321  -30.9467 H   0  0  0  0  0  0  0  0  0  0  0  0
   -7.8946   16.9890  -32.3347 H   0  0  0  0  0  0  0  0  0  0  0  0
   -6.1922   17.8364  -34.1595 H   0  0  0  0  0  0  0  0  0  0  0  0
   -7.9274   24.7392  -31.3865 H   0  0  0  0  0  0  0  0  0  0  0  0
   -5.9275   26.1647  -30.9646 H   0  0  0  0  0  0  0  0  0  0  0  0
   -0.4189   21.4819  -33.1924 H   0  0  0  0  0  0  0  0  0  0  0  0
    0.7982   19.3386  -34.4511 H   0  0  0  0  0  0  0  0  0  0  0  0
   -0.3381   18.6122  -35.6376 H   0  0  0  0  0  0  0  0  0  0  0  0
   -0.0519   20.3855  -35.6376 H   0  0  0  0  0  0  0  0  0  0  0  0
  1  2  1  0
  2  3  2  0
  3  4  1  0
  4  5  2  0
  5  6  1  0
  6  7  1  0
  7  8  2  0
  7  9  1  0
  9 10  2  0
 10 11  1  0
 11 12  1  0
 12 13  2  0
 12 14  2  0
 12 15  1  0
 15 16  2  0
 16 17  1  0
 17 18  2  0
 18 19  1  0
 11 20  2  0
 20 21  1  0
 21 22  2  0
 22 23  1  0
  5 24  1  0
 24 25  2  0
 25 26  1  0
 25  2  1  0
 22  9  1  0
 19 15  1  0
  1 27  1  0
  1 28  1  0
  1 29  1  0
  3 30  1  0
  4 31  1  0
 10 32  1  0
 16 33  1  0
 17 34  1  0
 18 35  1  0
 20 36  1  0
 21 37  1  0
 24 38  1  0
 26 39  1  0
 26 40  1  0
 26 41  1  0
M  CHG  2   6  -1  23  -1
M  END
>  <UniqueID>  (34) 
33

>  <SMILES>  (34) 
Cc1ccc([N-]C(=O)c2cc(S(=O)(=O)c3cccs3)ccc2[O-])cc1C

>  <Energy>  (34) 
79.50651777026536

>  <Genealogy>  (34) 
Cc1ccc([N-]C(=O)c2cc(S(=O)(=O)c3cccs3)ccc2[O-])cc1C (protonated)
Cc1ccc([N-]C(=O)c2cc(S(=O)(=O)c3cccs3)ccc2[O-])cc1C (3D coordinates assigned)
Cc1ccc([N-]C(=O)c2cc(S(=O)(=O)c3cccs3)ccc2[O-])cc1C (optimized conformer: 79.50651777026536 kcal/mol)

>  <smiles>  (34) 
Cc1ccc(NC(=O)c2cc(S(=O)(=O)c3cccs3)ccc2O)cc1C

>  <score_type>  (34) 
oracle

>  <origin>  (34) 
adgpu

>  <m_score__min__energy>  (34) 
-13.26

>  <m_primary>  (34) 
energy

$$$$
34:0
     RDKit          3D

 59 62  0  0  0  0  0  0  0  0999 V2000
   -1.2200   16.2120  -32.7290 C   0  0  0  0  0  0  0  0  0  0  0  0
   -1.4410   17.6880  -32.8810 C   0  0  0  0  0  0  0  0  0  0  0  0
   -2.0380   18.1960  -34.0430 C   0  0  0  0  0  0  0  0  0  0  0  0
   -2.2040   19.5730  -34.2040 C   0  0  0  0  0  0  0  0  0  0  0  0
   -1.7650   20.4620  -33.2130 C   0  0  0  0  0  0  0  0  0  0  0  0
   -1.9350   21.8340  -33.3900 O   0  0  0  0  0  0  0  0  0  0  0  0
   -1.1550   19.9630  -32.0450 C   0  0  0  0  0  0  0  0  0  0  0  0
   -0.6210   20.8870  -30.9810 C   0  0  0  0  0  0  0  0  0  0  0  0
   -1.5610   21.9850  -30.7590 N   0  0  0  0  0  0  0  0  0  0  0  0
   -1.7870   22.5880  -29.4730 C   0  0  0  0  0  0  0  0  0  0  0  0
   -1.1120   22.1030  -28.3380 C   0  0  0  0  0  0  0  0  0  0  0  0
   -1.3890   22.6180  -27.0710 C   0  0  0  0  0  0  0  0  0  0  0  0
   -2.3450   23.6200  -26.9160 C   0  0  0  0  0  0  0  0  0  0  0  0
   -3.0290   24.1100  -28.0280 C   0  0  0  0  0  0  0  0  0  0  0  0
   -2.7650   23.6020  -29.3120 C   0  0  0  0  0  0  0  0  0  0  0  0
   -3.4910   24.1720  -30.4710 C   0  0  0  0  0  0  0  0  0  0  0  0
   -3.9430   25.3450  -30.4020 O   0  0  0  0  0  0  0  0  0  0  0  0
   -3.7670   23.3930  -31.6420 N   0  0  0  0  0  0  0  0  0  0  0  0
   -4.7700   22.3730  -31.7570 C   0  0  0  0  0  0  0  0  0  0  0  0
   -4.4770   21.0170  -31.5280 C   0  0  0  0  0  0  0  0  0  0  0  0
   -5.4760   20.0480  -31.6550 C   0  0  0  0  0  0  0  0  0  0  0  0
   -6.7760   20.4210  -32.0220 C   0  0  0  0  0  0  0  0  0  0  0  0
   -8.0220   19.1890  -32.1970 S   0  0  0  0  0  0  0  0  0  0  0  0
   -9.1280   19.7020  -33.0780 O   0  0  0  0  0  0  0  0  0  0  0  0
   -8.5940   18.8770  -30.8420 O   0  0  0  0  0  0  0  0  0  0  0  0
   -7.3140   17.7480  -32.8780 N   0  0  0  0  0  0  0  0  0  0  0  0
   -6.4400   17.0780  -31.9160 C   0  0  0  0  0  0  0  0  0  0  0  0
   -5.4060   16.3140  -32.7290 C   0  0  0  0  0  0  0  0  0  0  0  0
   -5.4200   16.9600  -34.1060 C   0  0  0  0  0  0  0  0  0  0  0  0
   -6.4640   18.0640  -34.0250 C   0  0  0  0  0  0  0  0  0  0  0  0
   -7.0620   21.7660  -32.2870 C   0  0  0  0  0  0  0  0  0  0  0  0
   -6.0610   22.7360  -32.1600 C   0  0  0  0  0  0  0  0  0  0  0  0
   -0.9860   18.5750  -31.8960 C   0  0  0  0  0  0  0  0  0  0  0  0
   -1.1815   15.9552  -31.6601 H   0  0  0  0  0  0  0  0  0  0  0  0
   -2.0464   15.6663  -33.2077 H   0  0  0  0  0  0  0  0  0  0  0  0
   -0.2700   15.9323  -33.2077 H   0  0  0  0  0  0  0  0  0  0  0  0
   -2.3770   17.5073  -34.8309 H   0  0  0  0  0  0  0  0  0  0  0  0
   -2.6825   19.9628  -35.1146 H   0  0  0  0  0  0  0  0  0  0  0  0
   -2.8320   22.2840  -33.2440 H   0  0  0  0  0  0  0  0  0  0  0  0
   -0.4873   20.3261  -30.0442 H   0  0  0  0  0  0  0  0  0  0  0  0
    0.3452   21.2977  -31.3092 H   0  0  0  0  0  0  0  0  0  0  0  0
   -1.9640   22.4440  -31.6080 H   0  0  0  0  0  0  0  0  0  0  0  0
   -0.3582   21.3098  -28.4504 H   0  0  0  0  0  0  0  0  0  0  0  0
   -0.8514   22.2321  -26.1924 H   0  0  0  0  0  0  0  0  0  0  0  0
   -2.5602   24.0246  -25.9160 H   0  0  0  0  0  0  0  0  0  0  0  0
   -3.7821   24.9014  -27.8993 H   0  0  0  0  0  0  0  0  0  0  0  0
   -3.4564   20.7174  -31.2475 H   0  0  0  0  0  0  0  0  0  0  0  0
   -5.2413   18.9900  -31.4664 H   0  0  0  0  0  0  0  0  0  0  0  0
   -5.9445   17.8197  -31.2723 H   0  0  0  0  0  0  0  0  0  0  0  0
   -7.0118   16.4013  -31.2640 H   0  0  0  0  0  0  0  0  0  0  0  0
   -4.4105   16.4063  -32.2703 H   0  0  0  0  0  0  0  0  0  0  0  0
   -5.6357   15.2394  -32.7781 H   0  0  0  0  0  0  0  0  0  0  0  0
   -4.4320   17.3815  -34.3432 H   0  0  0  0  0  0  0  0  0  0  0  0
   -5.6554   16.2322  -34.8965 H   0  0  0  0  0  0  0  0  0  0  0  0
   -5.9757   19.0388  -33.8791 H   0  0  0  0  0  0  0  0  0  0  0  0
   -7.0529   18.1235  -34.9522 H   0  0  0  0  0  0  0  0  0  0  0  0
   -8.0758   22.0609  -32.5957 H   0  0  0  0  0  0  0  0  0  0  0  0
   -6.2898   23.7896  -32.3780 H   0  0  0  0  0  0  0  0  0  0  0  0
   -0.4911   18.1810  -30.9961 H   0  0  0  0  0  0  0  0  0  0  0  0
  1  2  1  0
  2  3  2  0
  3  4  1  0
  4  5  2  0
  5  6  1  0
  5  7  1  0
  7  8  1  0
  8  9  1  0
  9 10  1  0
 10 11  2  0
 11 12  1  0
 12 13  2  0
 13 14  1  0
 14 15  2  0
 15 16  1  0
 16 17  2  0
 16 18  1  0
 18 19  1  0
 19 20  2  0
 20 21  1  0
 21 22  2  0
 22 23  1  0
 23 24  2  0
 23 25  2  0
 23 26  1  0
 26 27  1  0
 27 28  1  0
 28 29  1  0
 29 30  1  0
 22 31  1  0
 31 32  2  0
  7 33  2  0
 33  2  1  0
 15 10  1  0
 32 19  1  0
 30 26  1  0
  1 34  1  0
  1 35  1  0
  1 36  1  0
  3 37  1  0
  4 38  1  0
  6 39  1  0
  8 40  1  0
  8 41  1  0
  9 42  1  0
 11 43  1  0
 12 44  1  0
 13 45  1  0
 14 46  1  0
 20 47  1  0
 21 48  1  0
 27 49  1  0
 27 50  1  0
 28 51  1  0
 28 52  1  0
 29 53  1  0
 29 54  1  0
 30 55  1  0
 30 56  1  0
 31 57  1  0
 32 58  1  0
 33 59  1  0
M  CHG  1  18  -1
M  END
>  <UniqueID>  (35) 
34

>  <SMILES>  (35) 
Cc1ccc(O)c(CNc2ccccc2C(=O)[N-]c2ccc(S(=O)(=O)N3CCCC3)cc2)c1

>  <Energy>  (35) 
72.88288267651754

>  <Genealogy>  (35) 
Cc1ccc(O)c(CNc2ccccc2C(=O)[N-]c2ccc(S(=O)(=O)N3CCCC3)cc2)c1 (protonated)
Cc1ccc(O)c(CNc2ccccc2C(=O)[N-]c2ccc(S(=O)(=O)N3CCCC3)cc2)c1 (3D coordinates assigned)
Cc1ccc(O)c(CNc2ccccc2C(=O)[N-]c2ccc(S(=O)(=O)N3CCCC3)cc2)c1 (nonaromatic ring conformer: 72.88288267651754 kcal/mol)

>  <smiles>  (35) 
Cc1ccc(O)c(CNc2ccccc2C(=O)Nc2ccc(S(=O)(=O)N3CCCC3)cc2)c1

>  <score_type>  (35) 
oracle

>  <origin>  (35) 
adgpu

>  <m_score__min__energy>  (35) 
-12.25

>  <m_primary>  (35) 
energy

$$$$
35:0
     RDKit          3D

 47 49  0  0  0  0  0  0  0  0999 V2000
   -1.5660   21.7970  -31.9250 C   0  0  0  0  0  0  0  0  0  0  0  0
   -2.6990   22.6480  -31.7990 O   0  0  0  0  0  0  0  0  0  0  0  0
   -4.0300   22.2410  -31.9820 C   0  0  0  0  0  0  0  0  0  0  0  0
   -4.3690   21.2130  -32.8840 C   0  0  0  0  0  0  0  0  0  0  0  0
   -5.6990   20.8200  -33.0440 C   0  0  0  0  0  0  0  0  0  0  0  0
   -6.7190   21.4370  -32.3100 C   0  0  0  0  0  0  0  0  0  0  0  0
   -8.0810   21.0170  -32.5090 N   0  0  0  0  0  0  0  0  0  0  0  0
   -8.6490   19.4070  -32.1920 S   0  0  0  0  0  0  0  0  0  0  0  0
   -9.8190   19.1150  -33.0890 O   0  0  0  0  0  0  0  0  0  0  0  0
   -9.0920   19.3080  -30.7600 O   0  0  0  0  0  0  0  0  0  0  0  0
   -7.3490   18.2490  -32.4630 C   0  0  0  0  0  0  0  0  0  0  0  0
   -6.7700   17.5830  -31.3730 C   0  0  0  0  0  0  0  0  0  0  0  0
   -5.7180   16.6860  -31.5760 C   0  0  0  0  0  0  0  0  0  0  0  0
   -5.2410   16.4480  -32.8690 C   0  0  0  0  0  0  0  0  0  0  0  0
   -5.8180   17.1050  -33.9590 C   0  0  0  0  0  0  0  0  0  0  0  0
   -6.8700   18.0030  -33.7580 C   0  0  0  0  0  0  0  0  0  0  0  0
   -6.3820   22.4510  -31.3960 C   0  0  0  0  0  0  0  0  0  0  0  0
   -5.0520   22.8680  -31.2430 C   0  0  0  0  0  0  0  0  0  0  0  0
   -4.7080   24.1620  -30.0840 S   0  0  0  0  0  0  0  0  0  0  0  0
   -3.8730   25.2380  -30.7220 O   0  0  0  0  0  0  0  0  0  0  0  0
   -6.0170   24.7750  -29.6710 O   0  0  0  0  0  0  0  0  0  0  0  0
   -3.9060   23.5120  -28.6700 N   0  0  0  0  0  0  0  0  0  0  0  0
   -2.6200   22.8750  -29.0060 C   0  0  0  0  0  0  0  0  0  0  0  0
   -1.5040   23.9080  -29.2930 C   0  0  0  0  0  0  0  0  0  0  0  0
   -1.8150   25.2140  -28.8450 O   0  0  0  0  0  0  0  0  0  0  0  0
   -2.3730   25.1620  -27.5520 C   0  0  0  0  0  0  0  0  0  0  0  0
   -3.7710   24.5230  -27.5970 C   0  0  0  0  0  0  0  0  0  0  0  0
   -1.2005   21.5225  -30.9245 H   0  0  0  0  0  0  0  0  0  0  0  0
   -1.8501   20.8871  -32.4740 H   0  0  0  0  0  0  0  0  0  0  0  0
   -0.7713   22.3234  -32.4740 H   0  0  0  0  0  0  0  0  0  0  0  0
   -3.5794   20.7161  -33.4668 H   0  0  0  0  0  0  0  0  0  0  0  0
   -5.9480   20.0175  -33.7539 H   0  0  0  0  0  0  0  0  0  0  0  0
   -8.8000   21.7310  -32.7620 H   0  0  0  0  0  0  0  0  0  0  0  0
   -7.1451   17.7673  -30.3555 H   0  0  0  0  0  0  0  0  0  0  0  0
   -5.2649   16.1669  -30.7186 H   0  0  0  0  0  0  0  0  0  0  0  0
   -4.4114   15.7434  -33.0280 H   0  0  0  0  0  0  0  0  0  0  0  0
   -5.4440   16.9153  -34.9759 H   0  0  0  0  0  0  0  0  0  0  0  0
   -7.3234   18.5181  -34.6177 H   0  0  0  0  0  0  0  0  0  0  0  0
   -7.1718   22.9232  -30.7933 H   0  0  0  0  0  0  0  0  0  0  0  0
   -2.3076   22.2438  -28.1610 H   0  0  0  0  0  0  0  0  0  0  0  0
   -2.7696   22.2819  -29.9203 H   0  0  0  0  0  0  0  0  0  0  0  0
   -0.5845   23.5765  -28.7883 H   0  0  0  0  0  0  0  0  0  0  0  0
   -1.3846   23.9604  -30.3852 H   0  0  0  0  0  0  0  0  0  0  0  0
   -1.7212   24.5623  -26.8997 H   0  0  0  0  0  0  0  0  0  0  0  0
   -2.4611   26.1859  -27.1598 H   0  0  0  0  0  0  0  0  0  0  0  0
   -3.9665   24.0370  -26.6297 H   0  0  0  0  0  0  0  0  0  0  0  0
   -4.4948   25.3248  -27.8048 H   0  0  0  0  0  0  0  0  0  0  0  0
  1  2  1  0
  2  3  1  0
  3  4  2  0
  4  5  1  0
  5  6  2  0
  6  7  1  0
  7  8  1  0
  8  9  2  0
  8 10  2  0
  8 11  1  0
 11 12  2  0
 12 13  1  0
 13 14  2  0
 14 15  1  0
 15 16  2  0
  6 17  1  0
 17 18  2  0
 18 19  1  0
 19 20  2  0
 19 21  2  0
 19 22  1  0
 22 23  1  0
 23 24  1  0
 24 25  1  0
 25 26  1  0
 26 27  1  0
 18  3  1  0
 27 22  1  0
 16 11  1  0
  1 28  1  0
  1 29  1  0
  1 30  1  0
  4 31  1  0
  5 32  1  0
  7 33  1  0
 12 34  1  0
 13 35  1  0
 14 36  1  0
 15 37  1  0
 16 38  1  0
 17 39  1  0
 23 40  1  0
 23 41  1  0
 24 42  1  0
 24 43  1  0
 26 44  1  0
 26 45  1  0
 27 46  1  0
 27 47  1  0
M  END
>  <UniqueID>  (36) 
35

>  <SMILES>  (36) 
COc1ccc(NS(=O)(=O)c2ccccc2)cc1S(=O)(=O)N1CCOCC1

>  <Energy>  (36) 
61.23918485041845

>  <Genealogy>  (36) 
COc1ccc(NS(=O)(=O)c2ccccc2)cc1S(=O)(=O)N1CCOCC1 (3D coordinates assigned)
COc1ccc(NS(=O)(=O)c2ccccc2)cc1S(=O)(=O)N1CCOCC1 (nonaromatic ring conformer: 61.23918485041845 kcal/mol)

>  <smiles>  (36) 
COc1ccc(NS(=O)(=O)c2ccccc2)cc1S(=O)(=O)N1CCOCC1

>  <score_type>  (36) 
oracle

>  <origin>  (36) 
adgpu

>  <m_score__min__energy>  (36) 
-9.5099999999999998

>  <m_primary>  (36) 
energy

$$$$
36:0
     RDKit          3D

 37 39  0  0  0  0  0  0  0  0999 V2000
   -6.7410   25.2930  -29.7210 C   0  0  0  0  0  0  0  0  0  0  0  0
   -6.5880   23.9820  -30.4370 C   0  0  0  0  0  0  0  0  0  0  0  0
   -7.7140   23.3460  -30.8610 N   0  0  0  0  0  0  0  0  0  0  0  0
   -7.6780   22.1380  -31.4800 C   0  0  0  0  0  0  0  0  0  0  0  0
   -8.8670   21.5260  -31.8970 C   0  0  0  0  0  0  0  0  0  0  0  0
   -8.8280   20.2780  -32.5260 C   0  0  0  0  0  0  0  0  0  0  0  0
   -7.6030   19.6360  -32.7400 C   0  0  0  0  0  0  0  0  0  0  0  0
   -6.4110   20.2400  -32.3270 C   0  0  0  0  0  0  0  0  0  0  0  0
   -6.4430   21.4930  -31.6940 C   0  0  0  0  0  0  0  0  0  0  0  0
   -5.2670   22.1250  -31.2750 C   0  0  0  0  0  0  0  0  0  0  0  0
   -5.3220   23.3870  -30.6620 C   0  0  0  0  0  0  0  0  0  0  0  0
   -4.0590   24.0360  -30.2550 C   0  0  0  0  0  0  0  0  0  0  0  0
   -3.8570   25.2420  -30.5590 O   0  0  0  0  0  0  0  0  0  0  0  0
   -3.0880   23.3180  -29.4810 N   0  0  0  0  0  0  0  0  0  0  0  0
   -1.7170   23.7930  -29.3120 C   0  0  0  0  0  0  0  0  0  0  0  0
   -1.4660   24.1350  -27.8700 C   0  0  0  0  0  0  0  0  0  0  0  0
   -0.6470   23.3080  -27.0840 C   0  0  0  0  0  0  0  0  0  0  0  0
   -0.3740   23.6460  -25.7550 C   0  0  0  0  0  0  0  0  0  0  0  0
   -0.9120   24.8130  -25.2040 C   0  0  0  0  0  0  0  0  0  0  0  0
   -1.7220   25.6450  -25.9820 C   0  0  0  0  0  0  0  0  0  0  0  0
   -1.9950   25.3110  -27.3120 C   0  0  0  0  0  0  0  0  0  0  0  0
   -6.7210   25.1219  -28.6346 H   0  0  0  0  0  0  0  0  0  0  0  0
   -5.9149   25.9628  -30.0020 H   0  0  0  0  0  0  0  0  0  0  0  0
   -7.6991   25.7546  -30.0020 H   0  0  0  0  0  0  0  0  0  0  0  0
   -9.8316   22.0274  -31.7295 H   0  0  0  0  0  0  0  0  0  0  0  0
   -9.7627   19.7994  -32.8536 H   0  0  0  0  0  0  0  0  0  0  0  0
   -7.5776   18.6537  -33.2344 H   0  0  0  0  0  0  0  0  0  0  0  0
   -5.4494   19.7339  -32.4979 H   0  0  0  0  0  0  0  0  0  0  0  0
   -4.2958   21.6313  -31.4264 H   0  0  0  0  0  0  0  0  0  0  0  0
   -3.3650   22.4250  -29.0160 H   0  0  0  0  0  0  0  0  0  0  0  0
   -1.0170   23.0050  -29.6268 H   0  0  0  0  0  0  0  0  0  0  0  0
   -1.5677   24.6921  -29.9278 H   0  0  0  0  0  0  0  0  0  0  0  0
   -0.2188   22.3912  -27.5154 H   0  0  0  0  0  0  0  0  0  0  0  0
    0.2648   22.9930  -25.1422 H   0  0  0  0  0  0  0  0  0  0  0  0
   -0.6977   25.0765  -24.1577 H   0  0  0  0  0  0  0  0  0  0  0  0
   -2.1449   26.5629  -25.5478 H   0  0  0  0  0  0  0  0  0  0  0  0
   -2.6266   25.9717  -27.9241 H   0  0  0  0  0  0  0  0  0  0  0  0
  1  2  1  0
  2  3  2  0
  3  4  1  0
  4  5  2  0
  5  6  1  0
  6  7  2  0
  7  8  1  0
  8  9  2  0
  9 10  1  0
 10 11  2  0
 11 12  1  0
 12 13  2  0
 12 14  1  0
 14 15  1  0
 15 16  1  0
 16 17  2  0
 17 18  1  0
 18 19  2  0
 19 20  1  0
 20 21  2  0
 11  2  1  0
 21 16  1  0
  9  4  1  0
  1 22  1  0
  1 23  1  0
  1 24  1  0
  5 25  1  0
  6 26  1  0
  7 27  1  0
  8 28  1  0
 10 29  1  0
 14 30  1  0
 15 31  1  0
 15 32  1  0
 17 33  1  0
 18 34  1  0
 19 35  1  0
 20 36  1  0
 21 37  1  0
M  END
>  <UniqueID>  (37) 
36

>  <SMILES>  (37) 
Cc1nc2ccccc2cc1C(=O)NCc1ccccc1

>  <Energy>  (37) 
44.255768708400296

>  <Genealogy>  (37) 
Cc1nc2ccccc2cc1C(=O)NCc1ccccc1 (3D coordinates assigned)
Cc1nc2ccccc2cc1C(=O)NCc1ccccc1 (optimized conformer: 44.255768708400296 kcal/mol)

>  <smiles>  (37) 
Cc1nc2ccccc2cc1C(=O)NCc1ccccc1

>  <score_type>  (37) 
oracle

>  <origin>  (37) 
adgpu

>  <m_score__min__energy>  (37) 
-8.6600000000000001

>  <m_primary>  (37) 
energy

$$$$
37:0
     RDKit          3D

 37 39  0  0  0  0  0  0  0  0999 V2000
    0.0573   24.1983  -27.8787 H   0  0  0  0  0  0  0  0  0  0  0  0
   -1.0220   24.2520  -28.0840 C   0  0  0  0  0  0  0  0  0  0  0  0
   -1.5150   24.6150  -29.2970 N   0  0  0  0  0  0  0  0  0  0  0  0
   -2.8630   24.6090  -29.3080 C   0  0  0  0  0  0  0  0  0  0  0  0
   -3.5490   24.9200  -30.3660 N   0  0  0  0  0  0  0  0  0  0  0  0
   -5.2820   24.9220  -30.4410 S   0  0  0  0  0  0  0  0  0  0  0  0
   -5.8350   24.9600  -29.0430 O   0  0  0  0  0  0  0  0  0  0  0  0
   -5.7430   26.1470  -31.1800 O   0  0  0  0  0  0  0  0  0  0  0  0
   -5.8500   23.4920  -31.2970 C   0  0  0  0  0  0  0  0  0  0  0  0
   -4.9540   22.7440  -32.0720 C   0  0  0  0  0  0  0  0  0  0  0  0
   -3.9033   23.0593  -32.1534 H   0  0  0  0  0  0  0  0  0  0  0  0
   -5.3920   21.5980  -32.7420 C   0  0  0  0  0  0  0  0  0  0  0  0
   -4.6856   21.0217  -33.3575 H   0  0  0  0  0  0  0  0  0  0  0  0
   -6.7250   21.1780  -32.6350 C   0  0  0  0  0  0  0  0  0  0  0  0
   -7.1580   20.0060  -33.3490 N   0  0  0  0  0  0  0  0  0  0  0  0
   -8.0510   20.0660  -33.8870 H   0  0  0  0  0  0  0  0  0  0  0  0
   -6.4400   18.7610  -33.3720 C   0  0  0  0  0  0  0  0  0  0  0  0
   -6.7060   17.7940  -32.3930 C   0  0  0  0  0  0  0  0  0  0  0  0
   -7.4399   18.0054  -31.6013 H   0  0  0  0  0  0  0  0  0  0  0  0
   -6.0450   16.5630  -32.4160 C   0  0  0  0  0  0  0  0  0  0  0  0
   -6.2542   15.8130  -31.6390 H   0  0  0  0  0  0  0  0  0  0  0  0
   -5.1190   16.2830  -33.4240 C   0  0  0  0  0  0  0  0  0  0  0  0
   -4.6027   15.3118  -33.4393 H   0  0  0  0  0  0  0  0  0  0  0  0
   -4.8450   17.2360  -34.4170 C   0  0  0  0  0  0  0  0  0  0  0  0
   -3.8940   16.9150  -35.5310 C   0  0  0  0  0  0  0  0  0  0  0  0
   -2.9314   16.5901  -35.1092 H   0  0  0  0  0  0  0  0  0  0  0  0
   -4.3137   16.1087  -36.1505 H   0  0  0  0  0  0  0  0  0  0  0  0
   -3.7392   17.8107  -36.1505 H   0  0  0  0  0  0  0  0  0  0  0  0
   -5.5250   18.4640  -34.4010 C   0  0  0  0  0  0  0  0  0  0  0  0
   -5.3420   19.1998  -35.1979 H   0  0  0  0  0  0  0  0  0  0  0  0
   -7.6280   21.9490  -31.8800 C   0  0  0  0  0  0  0  0  0  0  0  0
   -8.6840   21.6478  -31.8157 H   0  0  0  0  0  0  0  0  0  0  0  0
   -7.1900   23.0960  -31.2110 C   0  0  0  0  0  0  0  0  0  0  0  0
   -7.9001   23.6887  -30.6156 H   0  0  0  0  0  0  0  0  0  0  0  0
   -3.4990   24.1520  -27.8140 S   0  0  0  0  0  0  0  0  0  0  0  0
   -1.9800   23.9530  -27.1200 C   0  0  0  0  0  0  0  0  0  0  0  0
   -1.7788   23.6409  -26.0846 H   0  0  0  0  0  0  0  0  0  0  0  0
  1  2  1  0
  2  3  1  0
  3  4  1  0
  4  5  2  0
  5  6  1  0
  6  7  2  0
  6  8  2  0
  6  9  1  0
  9 10  2  0
 10 11  1  0
 10 12  1  0
 12 13  1  0
 12 14  2  0
 14 15  1  0
 15 16  1  0
 15 17  1  0
 17 18  2  0
 18 19  1  0
 18 20  1  0
 20 21  1  0
 20 22  2  0
 22 23  1  0
 22 24  1  0
 24 25  1  0
 25 26  1  0
 25 27  1  0
 25 28  1  0
 24 29  2  0
 29 30  1  0
 14 31  1  0
 31 32  1  0
 31 33  2  0
 33 34  1  0
  4 35  1  0
 35 36  1  0
 36 37  1  0
 36  2  2  0
 33  9  1  0
 29 17  1  0
M  CHG  1   3  -1
M  END
>  <UniqueID>  (38) 
37

>  <SMILES>  (38) 
Cc1cccc(Nc2ccc(S(=O)(=O)/N=c3/[n-]ccs3)cc2)c1

>  <Energy>  (38) 
77.21189570907306

>  <Genealogy>  (38) 
Cc1cccc(Nc2ccc(S(=O)(=O)N=c3[n-]ccs3)cc2)c1 (protonated)
Cc1cccc(Nc2ccc(S(=O)(=O)/N=c3/[n-]ccs3)cc2)c1 (cis-trans isomerization)
Cc1cccc(Nc2ccc(S(=O)(=O)/N=c3/[n-]ccs3)cc2)c1 (3D coordinates assigned)
Cc1cccc(Nc2ccc(S(=O)(=O)/N=c3/[n-]ccs3)cc2)c1 (optimized conformer: 77.21189570907306 kcal/mol)

>  <smiles>  (38) 
Cc1cccc(Nc2ccc(S(=O)(=O)N=c3[nH]ccs3)cc2)c1

>  <score_type>  (38) 
oracle

>  <origin>  (38) 
adgpu

>  <m_score__min__energy>  (38) 
-10.34

>  <m_primary>  (38) 
energy

$$$$
38:0
     RDKit          3D

 40 42  0  0  0  0  0  0  0  0999 V2000
   -3.8900   25.0550  -30.6480 O   0  0  0  0  0  0  0  0  0  0  0  0
   -3.2180   24.6260  -29.6720 C   0  0  0  0  0  0  0  0  0  0  0  0
   -3.6840   23.4020  -28.9280 C   0  0  0  0  0  0  0  0  0  0  0  0
   -2.8870   22.2620  -29.2540 O   0  0  0  0  0  0  0  0  0  0  0  0
   -2.6210   21.7930  -30.5520 C   0  0  0  0  0  0  0  0  0  0  0  0
   -1.3150   21.5830  -31.0350 C   0  0  0  0  0  0  0  0  0  0  0  0
   -1.1150   21.1140  -32.3340 C   0  0  0  0  0  0  0  0  0  0  0  0
   -2.2050   20.8560  -33.1670 C   0  0  0  0  0  0  0  0  0  0  0  0
   -3.5170   21.0680  -32.7060 C   0  0  0  0  0  0  0  0  0  0  0  0
   -4.6650   20.8180  -33.5360 N   0  0  0  0  0  0  0  0  0  0  0  0
   -5.5190   19.3070  -33.5790 S   0  0  0  0  0  0  0  0  0  0  0  0
   -5.7440   18.9030  -35.0100 O   0  0  0  0  0  0  0  0  0  0  0  0
   -4.7000   18.2510  -32.8940 O   0  0  0  0  0  0  0  0  0  0  0  0
   -7.0520   19.4660  -32.7430 C   0  0  0  0  0  0  0  0  0  0  0  0
   -7.8450   18.4170  -32.3090 C   0  0  0  0  0  0  0  0  0  0  0  0
   -9.0010   18.8460  -31.6460 C   0  0  0  0  0  0  0  0  0  0  0  0
   -9.1110   20.2280  -31.5580 C   0  0  0  0  0  0  0  0  0  0  0  0
   -7.7720   20.9190  -32.3060 S   0  0  0  0  0  0  0  0  0  0  0  0
   -3.7100   21.5310  -31.3930 C   0  0  0  0  0  0  0  0  0  0  0  0
   -1.9990   25.2990  -29.3290 N   0  0  0  0  0  0  0  0  0  0  0  0
   -1.1560   25.0140  -28.2040 C   0  0  0  0  0  0  0  0  0  0  0  0
   -1.5070   25.5140  -26.9450 C   0  0  0  0  0  0  0  0  0  0  0  0
   -0.7160   25.2240  -25.8320 C   0  0  0  0  0  0  0  0  0  0  0  0
    0.4110   24.4140  -25.9870 C   0  0  0  0  0  0  0  0  0  0  0  0
    0.7200   23.9070  -27.2100 N   0  0  0  0  0  0  0  0  0  0  0  0
   -0.0320   24.1800  -28.3090 C   0  0  0  0  0  0  0  0  0  0  0  0
   -3.6133   23.5913  -27.8467 H   0  0  0  0  0  0  0  0  0  0  0  0
   -4.7240   23.1935  -29.2193 H   0  0  0  0  0  0  0  0  0  0  0  0
   -0.4505   21.7891  -30.3868 H   0  0  0  0  0  0  0  0  0  0  0  0
   -0.0926   20.9467  -32.7036 H   0  0  0  0  0  0  0  0  0  0  0  0
   -2.0372   20.4851  -34.1889 H   0  0  0  0  0  0  0  0  0  0  0  0
   -4.9700   21.5510  -34.2160 H   0  0  0  0  0  0  0  0  0  0  0  0
   -7.5931   17.3582  -32.4684 H   0  0  0  0  0  0  0  0  0  0  0  0
   -9.7508   18.1546  -31.2340 H   0  0  0  0  0  0  0  0  0  0  0  0
   -9.9349   20.7779  -31.0797 H   0  0  0  0  0  0  0  0  0  0  0  0
   -4.7325   21.6901  -31.0200 H   0  0  0  0  0  0  0  0  0  0  0  0
   -2.4071   26.1362  -26.8323 H   0  0  0  0  0  0  0  0  0  0  0  0
   -0.9776   25.6292  -24.8434 H   0  0  0  0  0  0  0  0  0  0  0  0
    1.0484   24.1863  -25.1199 H   0  0  0  0  0  0  0  0  0  0  0  0
    0.2409   23.7465  -29.2824 H   0  0  0  0  0  0  0  0  0  0  0  0
  1  2  2  0
  2  3  1  0
  3  4  1  0
  4  5  1  0
  5  6  2  0
  6  7  1  0
  7  8  2  0
  8  9  1  0
  9 10  1  0
 10 11  1  0
 11 12  2  0
 11 13  2  0
 11 14  1  0
 14 15  2  0
 15 16  1  0
 16 17  2  0
 17 18  1  0
  9 19  2  0
  2 20  1  0
 20 21  1  0
 21 22  2  0
 22 23  1  0
 23 24  2  0
 24 25  1  0
 25 26  2  0
 19  5  1  0
 26 21  1  0
 18 14  1  0
  3 27  1  0
  3 28  1  0
  6 29  1  0
  7 30  1  0
  8 31  1  0
 10 32  1  0
 15 33  1  0
 16 34  1  0
 17 35  1  0
 19 36  1  0
 22 37  1  0
 23 38  1  0
 24 39  1  0
 26 40  1  0
M  CHG  1  20  -1
M  END
>  <UniqueID>  (39) 
38

>  <SMILES>  (39) 
O=C(COc1cccc(NS(=O)(=O)c2cccs2)c1)[N-]c1cccnc1

>  <Energy>  (39) 
77.77608079761943

>  <Genealogy>  (39) 
O=C(COc1cccc(NS(=O)(=O)c2cccs2)c1)[N-]c1cccnc1 (protonated)
O=C(COc1cccc(NS(=O)(=O)c2cccs2)c1)[N-]c1cccnc1 (3D coordinates assigned)
O=C(COc1cccc(NS(=O)(=O)c2cccs2)c1)[N-]c1cccnc1 (optimized conformer: 77.77608079761943 kcal/mol)

>  <smiles>  (39) 
O=C(COc1cccc(NS(=O)(=O)c2cccs2)c1)Nc1cccnc1

>  <score_type>  (39) 
oracle

>  <origin>  (39) 
adgpu

>  <m_score__min__energy>  (39) 
-10.17

>  <m_primary>  (39) 
energy

$$$$
39:0
     RDKit          3D

 58 60  0  0  0  0  0  0  0  0999 V2000
    1.9260   19.1710  -33.2840 C   0  0  0  0  0  0  0  0  0  0  0  0
    1.3420   18.9980  -31.9060 C   0  0  0  0  0  0  0  0  0  0  0  0
    2.1320   19.3060  -30.7900 C   0  0  0  0  0  0  0  0  0  0  0  0
    1.6190   19.1820  -29.5010 C   0  0  0  0  0  0  0  0  0  0  0  0
    0.3000   18.7550  -29.2920 C   0  0  0  0  0  0  0  0  0  0  0  0
   -0.2330   18.6220  -27.9130 C   0  0  0  0  0  0  0  0  0  0  0  0
    0.1910   17.7000  -27.1660 O   0  0  0  0  0  0  0  0  0  0  0  0
   -1.2490   19.5060  -27.4160 N   0  0  0  0  0  0  0  0  0  0  0  0
   -2.4180   18.9420  -26.7470 C   0  0  0  0  0  0  0  0  0  0  0  0
   -0.9310   20.9170  -27.1880 C   0  0  0  0  0  0  0  0  0  0  0  0
   -0.4890   18.4200  -30.4060 C   0  0  0  0  0  0  0  0  0  0  0  0
    0.0230   18.5130  -31.7160 C   0  0  0  0  0  0  0  0  0  0  0  0
   -0.8330   18.1480  -32.9180 C   0  0  0  0  0  0  0  0  0  0  0  0
   -1.5570   19.2500  -33.4650 O   0  0  0  0  0  0  0  0  0  0  0  0
   -2.3910   20.2090  -32.8560 C   0  0  0  0  0  0  0  0  0  0  0  0
   -1.6850   21.2600  -32.2490 C   0  0  0  0  0  0  0  0  0  0  0  0
   -2.3410   22.3190  -31.6290 C   0  0  0  0  0  0  0  0  0  0  0  0
   -3.7310   22.3590  -31.6060 C   0  0  0  0  0  0  0  0  0  0  0  0
   -4.5850   23.6780  -30.8080 S   0  0  0  0  0  0  0  0  0  0  0  0
   -3.4860   24.9570  -30.4220 N   0  0  0  0  0  0  0  0  0  0  0  0
   -5.6490   24.2010  -31.7320 O   0  0  0  0  0  0  0  0  0  0  0  0
   -5.2410   23.1860  -29.5450 O   0  0  0  0  0  0  0  0  0  0  0  0
   -4.4610   21.3400  -32.2170 C   0  0  0  0  0  0  0  0  0  0  0  0
   -3.8270   20.2370  -32.8290 C   0  0  0  0  0  0  0  0  0  0  0  0
   -4.8910   19.0260  -33.5830 S   0  0  0  0  0  0  0  0  0  0  0  0
   -4.2390   18.5340  -34.8460 O   0  0  0  0  0  0  0  0  0  0  0  0
   -5.1360   17.8870  -32.6330 O   0  0  0  0  0  0  0  0  0  0  0  0
   -6.4450   19.7000  -33.9830 N   0  0  0  0  0  0  0  0  0  0  0  0
   -7.3340   20.2160  -32.9870 C   0  0  0  0  0  0  0  0  0  0  0  0
   -7.3780   21.5880  -32.6950 C   0  0  0  0  0  0  0  0  0  0  0  0
   -8.2580   22.0730  -31.7220 C   0  0  0  0  0  0  0  0  0  0  0  0
   -9.1030   21.1940  -31.0390 C   0  0  0  0  0  0  0  0  0  0  0  0
   -9.0780   19.8290  -31.3370 C   0  0  0  0  0  0  0  0  0  0  0  0
   -8.2050   19.3440  -32.3160 C   0  0  0  0  0  0  0  0  0  0  0  0
    2.9776   19.4825  -33.2001 H   0  0  0  0  0  0  0  0  0  0  0  0
    1.8685   18.2172  -33.8290 H   0  0  0  0  0  0  0  0  0  0  0  0
    1.3583   19.9395  -33.8290 H   0  0  0  0  0  0  0  0  0  0  0  0
    3.1673   19.6490  -30.9335 H   0  0  0  0  0  0  0  0  0  0  0  0
    2.2561   19.4219  -28.6370 H   0  0  0  0  0  0  0  0  0  0  0  0
   -2.2836   19.0068  -25.6572 H   0  0  0  0  0  0  0  0  0  0  0  0
   -3.3158   19.5061  -27.0399 H   0  0  0  0  0  0  0  0  0  0  0  0
   -2.5352   17.8882  -27.0399 H   0  0  0  0  0  0  0  0  0  0  0  0
   -0.8869   21.1128  -26.1065 H   0  0  0  0  0  0  0  0  0  0  0  0
    0.0426   21.1516  -27.6431 H   0  0  0  0  0  0  0  0  0  0  0  0
   -1.7098   21.5466  -27.6431 H   0  0  0  0  0  0  0  0  0  0  0  0
   -1.5237   18.0794  -30.2529 H   0  0  0  0  0  0  0  0  0  0  0  0
   -0.1761   17.7415  -33.7011 H   0  0  0  0  0  0  0  0  0  0  0  0
   -1.5772   17.4159  -32.5712 H   0  0  0  0  0  0  0  0  0  0  0  0
   -0.5852   21.2458  -32.2640 H   0  0  0  0  0  0  0  0  0  0  0  0
   -1.7599   23.1249  -31.1569 H   0  0  0  0  0  0  0  0  0  0  0  0
   -3.5210   25.6500  -31.2020 H   0  0  0  0  0  0  0  0  0  0  0  0
   -5.5595   21.3971  -32.2223 H   0  0  0  0  0  0  0  0  0  0  0  0
   -6.8060   19.5740  -34.9500 H   0  0  0  0  0  0  0  0  0  0  0  0
   -6.7181   22.2844  -33.2332 H   0  0  0  0  0  0  0  0  0  0  0  0
   -8.2850   23.1487  -31.4938 H   0  0  0  0  0  0  0  0  0  0  0  0
   -9.7873   21.5764  -30.2673 H   0  0  0  0  0  0  0  0  0  0  0  0
   -9.7445   19.1365  -30.8020 H   0  0  0  0  0  0  0  0  0  0  0  0
   -8.2011   18.2718  -32.5617 H   0  0  0  0  0  0  0  0  0  0  0  0
  1  2  1  0
  2  3  2  0
  3  4  1  0
  4  5  2  0
  5  6  1  0
  6  7  2  0
  6  8  1  0
  8  9  1  0
  8 10  1  0
  5 11  1  0
 11 12  2  0
 12 13  1  0
 13 14  1  0
 14 15  1  0
 15 16  2  0
 16 17  1  0
 17 18  2  0
 18 19  1  0
 19 20  1  0
 19 21  2  0
 19 22  2  0
 18 23  1  0
 23 24  2  0
 24 25  1  0
 25 26  2  0
 25 27  2  0
 25 28  1  0
 28 29  1  0
 29 30  2  0
 30 31  1  0
 31 32  2  0
 32 33  1  0
 33 34  2  0
 12  2  1  0
 24 15  1  0
 34 29  1  0
  1 35  1  0
  1 36  1  0
  1 37  1  0
  3 38  1  0
  4 39  1  0
  9 40  1  0
  9 41  1  0
  9 42  1  0
 10 43  1  0
 10 44  1  0
 10 45  1  0
 11 46  1  0
 13 47  1  0
 13 48  1  0
 16 49  1  0
 17 50  1  0
 20 51  1  0
 23 52  1  0
 28 53  1  0
 30 54  1  0
 31 55  1  0
 32 56  1  0
 33 57  1  0
 34 58  1  0
M  CHG  1  20  -1
M  END
>  <UniqueID>  (40) 
39

>  <SMILES>  (40) 
Cc1ccc(C(=O)N(C)C)cc1COc1ccc(S([NH-])(=O)=O)cc1S(=O)(=O)Nc1ccccc1

>  <Energy>  (40) 
86.66878494609593

>  <Genealogy>  (40) 
Cc1ccc(C(=O)N(C)C)cc1COc1ccc(S([NH-])(=O)=O)cc1S(=O)(=O)Nc1ccccc1 (protonated)
Cc1ccc(C(=O)N(C)C)cc1COc1ccc(S([NH-])(=O)=O)cc1S(=O)(=O)Nc1ccccc1 (3D coordinates assigned)
Cc1ccc(C(=O)N(C)C)cc1COc1ccc(S([NH-])(=O)=O)cc1S(=O)(=O)Nc1ccccc1 (optimized conformer: 86.66878494609593 kcal/mol)

>  <smiles>  (40) 
Cc1ccc(C(=O)N(C)C)cc1COc1ccc(S(N)(=O)=O)cc1S(=O)(=O)Nc1ccccc1

>  <score_type>  (40) 
oracle

>  <origin>  (40) 
adgpu

>  <m_score__min__energy>  (40) 
-12.76

>  <m_primary>  (40) 
energy

$$$$
40:0
     RDKit          3D

 45 47  0  0  0  0  0  0  0  0999 V2000
   -0.7710   20.4850  -33.5660 C   0  0  0  0  0  0  0  0  0  0  0  0
   -2.1790   20.0480  -33.2650 C   0  0  0  0  0  0  0  0  0  0  0  0
   -2.8550   19.2420  -34.1970 C   0  0  0  0  0  0  0  0  0  0  0  0
   -4.1440   18.7780  -33.9310 C   0  0  0  0  0  0  0  0  0  0  0  0
   -4.7810   19.1110  -32.7320 C   0  0  0  0  0  0  0  0  0  0  0  0
   -6.3940   18.4870  -32.3780 S   0  0  0  0  0  0  0  0  0  0  0  0
   -6.4640   18.0840  -30.9300 O   0  0  0  0  0  0  0  0  0  0  0  0
   -6.6470   17.2620  -33.2130 O   0  0  0  0  0  0  0  0  0  0  0  0
   -7.6300   19.6800  -32.7110 N   0  0  0  0  0  0  0  0  0  0  0  0
   -7.0380   20.9930  -33.0710 C   0  0  0  0  0  0  0  0  0  0  0  0
   -7.1030   22.0130  -31.9250 C   0  0  0  0  0  0  0  0  0  0  0  0
   -8.5540   22.2530  -31.4750 C   0  0  0  0  0  0  0  0  0  0  0  0
   -9.4440   21.0090  -31.6490 C   0  0  0  0  0  0  0  0  0  0  0  0
   -8.6110   19.7240  -31.6050 C   0  0  0  0  0  0  0  0  0  0  0  0
   -4.1280   19.9390  -31.8110 C   0  0  0  0  0  0  0  0  0  0  0  0
   -2.8430   20.4320  -32.0750 C   0  0  0  0  0  0  0  0  0  0  0  0
   -2.2170   21.2820  -31.1050 N   0  0  0  0  0  0  0  0  0  0  0  0
   -2.8370   22.4820  -30.6180 C   0  0  0  0  0  0  0  0  0  0  0  0
   -4.0510   22.7070  -30.8760 O   0  0  0  0  0  0  0  0  0  0  0  0
   -2.0740   23.4410  -29.7800 C   0  0  0  0  0  0  0  0  0  0  0  0
   -2.4330   24.8010  -29.7130 C   0  0  0  0  0  0  0  0  0  0  0  0
   -3.5330   25.2870  -30.4110 O   0  0  0  0  0  0  0  0  0  0  0  0
   -1.7150   25.6550  -28.9390 N   0  0  0  0  0  0  0  0  0  0  0  0
   -0.6540   25.2250  -28.2120 C   0  0  0  0  0  0  0  0  0  0  0  0
   -0.0070   26.0370  -27.5040 O   0  0  0  0  0  0  0  0  0  0  0  0
   -0.2930   23.9180  -28.2480 N   0  0  0  0  0  0  0  0  0  0  0  0
   -0.9730   23.0200  -29.0060 C   0  0  0  0  0  0  0  0  0  0  0  0
   -0.5960   21.8180  -29.0180 O   0  0  0  0  0  0  0  0  0  0  0  0
   -0.2298   20.6530  -32.6232 H   0  0  0  0  0  0  0  0  0  0  0  0
   -0.2607   19.7030  -34.1474 H   0  0  0  0  0  0  0  0  0  0  0  0
   -0.7932   21.4185  -34.1474 H   0  0  0  0  0  0  0  0  0  0  0  0
   -2.3639   18.9746  -35.1442 H   0  0  0  0  0  0  0  0  0  0  0  0
   -4.6615   18.1470  -34.6686 H   0  0  0  0  0  0  0  0  0  0  0  0
   -5.9837   20.8393  -33.3445 H   0  0  0  0  0  0  0  0  0  0  0  0
   -7.6234   21.4002  -33.9085 H   0  0  0  0  0  0  0  0  0  0  0  0
   -6.5214   21.6323  -31.0725 H   0  0  0  0  0  0  0  0  0  0  0  0
   -6.6875   22.9663  -32.2835 H   0  0  0  0  0  0  0  0  0  0  0  0
   -8.5504   22.5371  -30.4123 H   0  0  0  0  0  0  0  0  0  0  0  0
   -8.9704   23.0504  -32.1081 H   0  0  0  0  0  0  0  0  0  0  0  0
  -10.1875   20.9830  -30.8387 H   0  0  0  0  0  0  0  0  0  0  0  0
   -9.9412   21.0695  -32.6283 H   0  0  0  0  0  0  0  0  0  0  0  0
   -8.0726   19.6789  -30.6468 H   0  0  0  0  0  0  0  0  0  0  0  0
   -9.2913   18.8661  -31.7107 H   0  0  0  0  0  0  0  0  0  0  0  0
   -4.6295   20.2057  -30.8690 H   0  0  0  0  0  0  0  0  0  0  0  0
   -1.3960   20.9020  -30.5790 H   0  0  0  0  0  0  0  0  0  0  0  0
  1  2  1  0
  2  3  2  0
  3  4  1  0
  4  5  2  0
  5  6  1  0
  6  7  2  0
  6  8  2  0
  6  9  1  0
  9 10  1  0
 10 11  1  0
 11 12  1  0
 12 13  1  0
 13 14  1  0
  5 15  1  0
 15 16  2  0
 16 17  1  0
 17 18  1  0
 18 19  2  0
 18 20  1  0
 20 21  2  0
 21 22  1  0
 21 23  1  0
 23 24  1  0
 24 25  2  0
 24 26  1  0
 26 27  1  0
 27 28  2  0
 16  2  1  0
 27 20  1  0
 14  9  1  0
  1 29  1  0
  1 30  1  0
  1 31  1  0
  3 32  1  0
  4 33  1  0
 10 34  1  0
 10 35  1  0
 11 36  1  0
 11 37  1  0
 12 38  1  0
 12 39  1  0
 13 40  1  0
 13 41  1  0
 14 42  1  0
 14 43  1  0
 15 44  1  0
 17 45  1  0
M  CHG  3  22  -1  23  -1  26  -1
M  END
>  <UniqueID>  (41) 
40

>  <SMILES>  (41) 
Cc1ccc(S(=O)(=O)N2CCCCC2)cc1NC(=O)c1c([O-])[n-]c(=O)[n-]c1=O

>  <Energy>  (41) 
62.76606928881687

>  <Genealogy>  (41) 
Cc1ccc(S(=O)(=O)N2CCCCC2)cc1NC(=O)c1c([O-])[n-]c(=O)[n-]c1=O (protonated)
Cc1ccc(S(=O)(=O)N2CCCCC2)cc1NC(=O)c1c([O-])[n-]c(=O)[n-]c1=O (3D coordinates assigned)
Cc1ccc(S(=O)(=O)N2CCCCC2)cc1NC(=O)c1c([O-])[n-]c(=O)[n-]c1=O (nonaromatic ring conformer: 62.76606928881687 kcal/mol)

>  <smiles>  (41) 
Cc1ccc(S(=O)(=O)N2CCCCC2)cc1NC(=O)c1c(O)[nH]c(=O)[nH]c1=O

>  <score_type>  (41) 
oracle

>  <origin>  (41) 
adgpu

>  <m_score__min__energy>  (41) 
-14.220000000000001

>  <m_primary>  (41) 
energy

$$$$
41:0
     RDKit          3D

 55 58  0  0  0  0  0  0  0  0999 V2000
   -8.5100   22.6960  -31.3540 C   0  0  0  0  0  0  0  0  0  0  0  0
   -8.4780   21.2290  -31.6570 C   0  0  0  0  0  0  0  0  0  0  0  0
   -9.5370   20.6260  -32.3500 C   0  0  0  0  0  0  0  0  0  0  0  0
   -9.4880   19.2670  -32.6620 C   0  0  0  0  0  0  0  0  0  0  0  0
   -8.3750   18.5050  -32.3040 C   0  0  0  0  0  0  0  0  0  0  0  0
   -7.2900   19.1010  -31.6420 C   0  0  0  0  0  0  0  0  0  0  0  0
   -6.0720   18.2870  -31.2920 C   0  0  0  0  0  0  0  0  0  0  0  0
   -5.1700   18.1530  -32.4490 N   0  0  0  0  0  0  0  0  0  0  0  0
   -4.6210   19.3270  -33.0720 C   0  0  0  0  0  0  0  0  0  0  0  0
   -4.2300   19.2660  -34.2690 O   0  0  0  0  0  0  0  0  0  0  0  0
   -4.5080   20.6040  -32.3420 C   0  0  0  0  0  0  0  0  0  0  0  0
   -3.9330   20.6450  -31.0610 C   0  0  0  0  0  0  0  0  0  0  0  0
   -3.8340   21.8560  -30.3690 C   0  0  0  0  0  0  0  0  0  0  0  0
   -4.3300   23.0360  -30.9390 C   0  0  0  0  0  0  0  0  0  0  0  0
   -4.2090   24.5530  -30.0530 S   0  0  0  0  0  0  0  0  0  0  0  0
   -4.9730   24.4230  -28.7660 O   0  0  0  0  0  0  0  0  0  0  0  0
   -4.7960   25.6860  -30.8460 O   0  0  0  0  0  0  0  0  0  0  0  0
   -2.5510   24.9060  -29.6920 N   0  0  0  0  0  0  0  0  0  0  0  0
   -1.8640   24.5230  -28.4940 C   0  0  0  0  0  0  0  0  0  0  0  0
   -1.9860   25.2480  -27.2920 C   0  0  0  0  0  0  0  0  0  0  0  0
   -1.2870   24.8390  -26.1510 C   0  0  0  0  0  0  0  0  0  0  0  0
   -0.4660   23.7070  -26.1990 C   0  0  0  0  0  0  0  0  0  0  0  0
   -0.3420   22.9830  -27.3890 C   0  0  0  0  0  0  0  0  0  0  0  0
   -1.0350   23.3930  -28.5320 C   0  0  0  0  0  0  0  0  0  0  0  0
   -4.9300   22.9940  -32.2060 C   0  0  0  0  0  0  0  0  0  0  0  0
   -5.0240   21.7850  -32.9000 C   0  0  0  0  0  0  0  0  0  0  0  0
   -4.7650   16.8570  -32.9300 C   0  0  0  0  0  0  0  0  0  0  0  0
   -3.4010   16.5620  -33.0830 C   0  0  0  0  0  0  0  0  0  0  0  0
   -3.0150   15.3040  -33.5510 C   0  0  0  0  0  0  0  0  0  0  0  0
   -3.9550   14.3690  -33.8500 N   0  0  0  0  0  0  0  0  0  0  0  0
   -5.2830   14.6230  -33.7030 C   0  0  0  0  0  0  0  0  0  0  0  0
   -5.7130   15.8690  -33.2390 C   0  0  0  0  0  0  0  0  0  0  0  0
   -7.3530   20.4650  -31.3120 C   0  0  0  0  0  0  0  0  0  0  0  0
   -8.5133   22.8453  -30.2642 H   0  0  0  0  0  0  0  0  0  0  0  0
   -7.6222   23.1794  -31.7877 H   0  0  0  0  0  0  0  0  0  0  0  0
   -9.4180   23.1403  -31.7877 H   0  0  0  0  0  0  0  0  0  0  0  0
  -10.4092   21.2261  -32.6487 H   0  0  0  0  0  0  0  0  0  0  0  0
  -10.3287   18.7950  -33.1915 H   0  0  0  0  0  0  0  0  0  0  0  0
   -8.3477   17.4314  -32.5419 H   0  0  0  0  0  0  0  0  0  0  0  0
   -5.5323   18.7833  -30.4720 H   0  0  0  0  0  0  0  0  0  0  0  0
   -6.4003   17.2821  -30.9882 H   0  0  0  0  0  0  0  0  0  0  0  0
   -3.5585   19.7193  -30.5997 H   0  0  0  0  0  0  0  0  0  0  0  0
   -3.3653   21.8824  -29.3742 H   0  0  0  0  0  0  0  0  0  0  0  0
   -2.6321   26.1373  -27.2505 H   0  0  0  0  0  0  0  0  0  0  0  0
   -1.3831   25.4083  -25.2147 H   0  0  0  0  0  0  0  0  0  0  0  0
    0.0819   23.3865  -25.3006 H   0  0  0  0  0  0  0  0  0  0  0  0
    0.3007   22.0910  -27.4258 H   0  0  0  0  0  0  0  0  0  0  0  0
   -0.9290   22.8248  -29.4679 H   0  0  0  0  0  0  0  0  0  0  0  0
   -5.3279   23.9160  -32.6549 H   0  0  0  0  0  0  0  0  0  0  0  0
   -5.5049   21.7580  -33.8890 H   0  0  0  0  0  0  0  0  0  0  0  0
   -2.6406   17.3174  -32.8357 H   0  0  0  0  0  0  0  0  0  0  0  0
   -1.9478   15.0694  -33.6779 H   0  0  0  0  0  0  0  0  0  0  0  0
   -6.0207   13.8454  -33.9501 H   0  0  0  0  0  0  0  0  0  0  0  0
   -6.7868   16.0741  -33.1168 H   0  0  0  0  0  0  0  0  0  0  0  0
   -6.5144   20.9374  -30.7794 H   0  0  0  0  0  0  0  0  0  0  0  0
  1  2  1  0
  2  3  2  0
  3  4  1  0
  4  5  2  0
  5  6  1  0
  6  7  1  0
  7  8  1  0
  8  9  1  0
  9 10  2  0
  9 11  1  0
 11 12  2  0
 12 13  1  0
 13 14  2  0
 14 15  1  0
 15 16  2  0
 15 17  2  0
 15 18  1  0
 18 19  1  0
 19 20  2  0
 20 21  1  0
 21 22  2  0
 22 23  1  0
 23 24  2  0
 14 25  1  0
 25 26  2  0
  8 27  1  0
 27 28  2  0
 28 29  1  0
 29 30  2  0
 30 31  1  0
 31 32  2  0
  6 33  2  0
 33  2  1  0
 26 11  1  0
 32 27  1  0
 24 19  1  0
  1 34  1  0
  1 35  1  0
  1 36  1  0
  3 37  1  0
  4 38  1  0
  5 39  1  0
  7 40  1  0
  7 41  1  0
 12 42  1  0
 13 43  1  0
 20 44  1  0
 21 45  1  0
 22 46  1  0
 23 47  1  0
 24 48  1  0
 25 49  1  0
 26 50  1  0
 28 51  1  0
 29 52  1  0
 31 53  1  0
 32 54  1  0
 33 55  1  0
M  CHG  1  18  -1
M  END
>  <UniqueID>  (42) 
41

>  <SMILES>  (42) 
Cc1cccc(CN(C(=O)c2ccc(S(=O)(=O)[N-]c3ccccc3)cc2)c2ccncc2)c1

>  <Energy>  (42) 
69.48173903935317

>  <Genealogy>  (42) 
Cc1cccc(CN(C(=O)c2ccc(S(=O)(=O)[N-]c3ccccc3)cc2)c2ccncc2)c1 (protonated)
Cc1cccc(CN(C(=O)c2ccc(S(=O)(=O)[N-]c3ccccc3)cc2)c2ccncc2)c1 (3D coordinates assigned)
Cc1cccc(CN(C(=O)c2ccc(S(=O)(=O)[N-]c3ccccc3)cc2)c2ccncc2)c1 (optimized conformer: 69.48173903935317 kcal/mol)

>  <smiles>  (42) 
Cc1cccc(CN(C(=O)c2ccc(S(=O)(=O)Nc3ccccc3)cc2)c2ccncc2)c1

>  <score_type>  (42) 
oracle

>  <origin>  (42) 
adgpu

>  <m_score__min__energy>  (42) 
-11.59

>  <m_primary>  (42) 
energy

$$$$
42:0
     RDKit          3D

 39 40  0  0  0  0  0  0  0  0999 V2000
   -1.9220   24.9150  -28.9470 C   0  0  0  0  0  0  0  0  0  0  0  0
   -2.5010   23.9400  -29.8620 N   0  0  0  0  0  0  0  0  0  0  0  0
   -4.1690   24.3250  -30.1630 S   0  0  0  0  0  0  0  0  0  0  0  0
   -4.2370   25.6730  -30.8210 O   0  0  0  0  0  0  0  0  0  0  0  0
   -4.9130   24.4130  -28.8600 O   0  0  0  0  0  0  0  0  0  0  0  0
   -4.8810   23.1270  -31.2650 C   0  0  0  0  0  0  0  0  0  0  0  0
   -3.9950   22.2650  -31.9300 C   0  0  0  0  0  0  0  0  0  0  0  0
   -4.4660   21.2870  -32.8040 C   0  0  0  0  0  0  0  0  0  0  0  0
   -5.8420   21.1410  -33.0220 C   0  0  0  0  0  0  0  0  0  0  0  0
   -6.3520   20.1760  -33.9020 O   0  0  0  0  0  0  0  0  0  0  0  0
   -6.4870   18.8140  -33.5990 C   0  0  0  0  0  0  0  0  0  0  0  0
   -7.4050   18.2690  -32.7260 C   0  0  0  0  0  0  0  0  0  0  0  0
   -8.4810   19.0080  -32.0040 C   0  0  0  0  0  0  0  0  0  0  0  0
   -7.2510   16.9310  -32.6900 N   0  0  0  0  0  0  0  0  0  0  0  0
   -6.2440   16.6210  -33.4950 N   0  0  0  0  0  0  0  0  0  0  0  0
   -5.7530   15.2590  -33.6770 C   0  0  0  0  0  0  0  0  0  0  0  0
   -5.7340   17.7430  -34.0510 C   0  0  0  0  0  0  0  0  0  0  0  0
   -4.5450   17.7850  -34.9630 C   0  0  0  0  0  0  0  0  0  0  0  0
   -6.7340   22.0010  -32.3790 C   0  0  0  0  0  0  0  0  0  0  0  0
   -6.2770   22.9850  -31.4840 C   0  0  0  0  0  0  0  0  0  0  0  0
   -7.2930   23.8690  -30.8120 C   0  0  0  0  0  0  0  0  0  0  0  0
   -2.1088   24.6004  -27.9096 H   0  0  0  0  0  0  0  0  0  0  0  0
   -0.8378   24.9817  -29.1203 H   0  0  0  0  0  0  0  0  0  0  0  0
   -2.3823   25.8989  -29.1203 H   0  0  0  0  0  0  0  0  0  0  0  0
   -2.9128   22.3629  -31.7587 H   0  0  0  0  0  0  0  0  0  0  0  0
   -3.7553   20.6279  -33.3241 H   0  0  0  0  0  0  0  0  0  0  0  0
   -8.3317   18.9055  -30.9190 H   0  0  0  0  0  0  0  0  0  0  0  0
   -8.4439   20.0721  -32.2803 H   0  0  0  0  0  0  0  0  0  0  0  0
   -9.4608   18.5914  -32.2803 H   0  0  0  0  0  0  0  0  0  0  0  0
   -5.5858   14.7951  -32.6937 H   0  0  0  0  0  0  0  0  0  0  0  0
   -6.4965   14.6730  -34.2372 H   0  0  0  0  0  0  0  0  0  0  0  0
   -4.8066   15.2822  -34.2372 H   0  0  0  0  0  0  0  0  0  0  0  0
   -3.6236   17.8175  -34.3630 H   0  0  0  0  0  0  0  0  0  0  0  0
   -4.5377   16.8866  -35.5976 H   0  0  0  0  0  0  0  0  0  0  0  0
   -4.6012   18.6817  -35.5976 H   0  0  0  0  0  0  0  0  0  0  0  0
   -7.8122   21.9075  -32.5756 H   0  0  0  0  0  0  0  0  0  0  0  0
   -7.1912   23.7804  -29.7203 H   0  0  0  0  0  0  0  0  0  0  0  0
   -7.1256   24.9139  -31.1123 H   0  0  0  0  0  0  0  0  0  0  0  0
   -8.3047   23.5588  -31.1123 H   0  0  0  0  0  0  0  0  0  0  0  0
  1  2  1  0
  2  3  1  0
  3  4  2  0
  3  5  2  0
  3  6  1  0
  6  7  2  0
  7  8  1  0
  8  9  2  0
  9 10  1  0
 10 11  1  0
 11 12  1  0
 12 13  1  0
 12 14  2  0
 14 15  1  0
 15 16  1  0
 15 17  1  0
 17 18  1  0
  9 19  1  0
 19 20  2  0
 20 21  1  0
 20  6  1  0
 17 11  2  0
  1 22  1  0
  1 23  1  0
  1 24  1  0
  7 25  1  0
  8 26  1  0
 13 27  1  0
 13 28  1  0
 13 29  1  0
 16 30  1  0
 16 31  1  0
 16 32  1  0
 18 33  1  0
 18 34  1  0
 18 35  1  0
 19 36  1  0
 21 37  1  0
 21 38  1  0
 21 39  1  0
M  CHG  1   2  -1
M  END
>  <UniqueID>  (43) 
42

>  <SMILES>  (43) 
C[N-]S(=O)(=O)c1ccc(Oc2c(C)nn(C)c2C)cc1C

>  <Energy>  (43) 
74.41507320977797

>  <Genealogy>  (43) 
C[N-]S(=O)(=O)c1ccc(Oc2c(C)nn(C)c2C)cc1C (protonated)
C[N-]S(=O)(=O)c1ccc(Oc2c(C)nn(C)c2C)cc1C (3D coordinates assigned)
C[N-]S(=O)(=O)c1ccc(Oc2c(C)nn(C)c2C)cc1C (optimized conformer: 74.41507320977797 kcal/mol)

>  <smiles>  (43) 
CNS(=O)(=O)c1ccc(Oc2c(C)nn(C)c2C)cc1C

>  <score_type>  (43) 
oracle

>  <origin>  (43) 
adgpu

>  <m_score__min__energy>  (43) 
-9.1899999999999995

>  <m_primary>  (43) 
energy

$$$$
43:0
     RDKit          3D

 55 57  0  0  0  0  0  0  0  0999 V2000
   -7.4420   23.2590  -32.0920 N   0  0  0  0  0  0  0  0  0  0  0  0
   -8.4690   21.9280  -31.6870 S   0  0  0  0  0  0  0  0  0  0  0  0
   -8.6290   21.8480  -30.1940 O   0  0  0  0  0  0  0  0  0  0  0  0
   -9.8220   22.1340  -32.3060 O   0  0  0  0  0  0  0  0  0  0  0  0
   -7.7560   20.4350  -32.2880 C   0  0  0  0  0  0  0  0  0  0  0  0
   -6.9780   20.4410  -33.4540 C   0  0  0  0  0  0  0  0  0  0  0  0
   -6.4040   19.2560  -33.9220 C   0  0  0  0  0  0  0  0  0  0  0  0
   -6.5910   18.0530  -33.2220 C   0  0  0  0  0  0  0  0  0  0  0  0
   -6.0010   16.7670  -33.7420 C   0  0  0  0  0  0  0  0  0  0  0  0
   -4.4740   16.7780  -33.6500 C   0  0  0  0  0  0  0  0  0  0  0  0
   -3.9310   17.8620  -34.4650 N   0  0  0  0  0  0  0  0  0  0  0  0
   -2.6410   18.6520  -33.6110 S   0  0  0  0  0  0  0  0  0  0  0  0
   -2.0080   17.6890  -32.6440 O   0  0  0  0  0  0  0  0  0  0  0  0
   -1.5950   19.0930  -34.5950 O   0  0  0  0  0  0  0  0  0  0  0  0
   -3.2530   20.0620  -32.7490 C   0  0  0  0  0  0  0  0  0  0  0  0
   -3.3400   20.0580  -31.3500 C   0  0  0  0  0  0  0  0  0  0  0  0
   -3.8580   21.1680  -30.6750 C   0  0  0  0  0  0  0  0  0  0  0  0
   -4.2900   22.2910  -31.3930 C   0  0  0  0  0  0  0  0  0  0  0  0
   -4.9840   23.6770  -30.5570 S   0  0  0  0  0  0  0  0  0  0  0  0
   -6.2040   23.2260  -29.8030 O   0  0  0  0  0  0  0  0  0  0  0  0
   -5.3990   24.7230  -31.5570 O   0  0  0  0  0  0  0  0  0  0  0  0
   -3.8150   24.3400  -29.4440 N   0  0  0  0  0  0  0  0  0  0  0  0
   -4.2550   24.0990  -28.0530 C   0  0  0  0  0  0  0  0  0  0  0  0
   -3.1300   24.3460  -27.0230 C   0  0  0  0  0  0  0  0  0  0  0  0
   -1.9840   25.1620  -27.6240 C   0  0  0  0  0  0  0  0  0  0  0  0
   -1.4110   24.4680  -28.8720 C   0  0  0  0  0  0  0  0  0  0  0  0
   -2.4940   23.7400  -29.6900 C   0  0  0  0  0  0  0  0  0  0  0  0
   -4.2110   22.2900  -32.7920 C   0  0  0  0  0  0  0  0  0  0  0  0
   -3.6940   21.1800  -33.4670 C   0  0  0  0  0  0  0  0  0  0  0  0
   -7.3730   18.0500  -32.0560 C   0  0  0  0  0  0  0  0  0  0  0  0
   -7.9470   19.2360  -31.5890 C   0  0  0  0  0  0  0  0  0  0  0  0
   -7.5470   23.9680  -31.3320 H   0  0  0  0  0  0  0  0  0  0  0  0
   -6.4580   22.9100  -32.0450 H   0  0  0  0  0  0  0  0  0  0  0  0
   -6.8188   21.3813  -34.0022 H   0  0  0  0  0  0  0  0  0  0  0  0
   -5.8028   19.2655  -34.8431 H   0  0  0  0  0  0  0  0  0  0  0  0
   -6.3897   15.9279  -33.1463 H   0  0  0  0  0  0  0  0  0  0  0  0
   -6.2840   16.6581  -34.7994 H   0  0  0  0  0  0  0  0  0  0  0  0
   -4.1735   16.9247  -32.6021 H   0  0  0  0  0  0  0  0  0  0  0  0
   -4.0836   15.8184  -34.0199 H   0  0  0  0  0  0  0  0  0  0  0  0
   -3.0000   19.1797  -30.7816 H   0  0  0  0  0  0  0  0  0  0  0  0
   -3.9265   21.1594  -29.5772 H   0  0  0  0  0  0  0  0  0  0  0  0
   -5.0940   24.7735  -27.8270 H   0  0  0  0  0  0  0  0  0  0  0  0
   -4.5517   23.0426  -27.9756 H   0  0  0  0  0  0  0  0  0  0  0  0
   -3.5461   24.8937  -26.1646 H   0  0  0  0  0  0  0  0  0  0  0  0
   -2.7299   23.3702  -26.7105 H   0  0  0  0  0  0  0  0  0  0  0  0
   -2.3594   26.1569  -27.9056 H   0  0  0  0  0  0  0  0  0  0  0  0
   -1.1848   25.2511  -26.8734 H   0  0  0  0  0  0  0  0  0  0  0  0
   -0.9363   25.2269  -29.5113 H   0  0  0  0  0  0  0  0  0  0  0  0
   -0.6850   23.7146  -28.5325 H   0  0  0  0  0  0  0  0  0  0  0  0
   -2.2538   23.8195  -30.7605 H   0  0  0  0  0  0  0  0  0  0  0  0
   -2.5204   22.6834  -29.3851 H   0  0  0  0  0  0  0  0  0  0  0  0
   -4.5569   23.1655  -33.3612 H   0  0  0  0  0  0  0  0  0  0  0  0
   -3.6336   21.1852  -34.5653 H   0  0  0  0  0  0  0  0  0  0  0  0
   -7.5347   17.1103  -31.5075 H   0  0  0  0  0  0  0  0  0  0  0  0
   -8.5507   19.2278  -30.6695 H   0  0  0  0  0  0  0  0  0  0  0  0
  1  2  1  0
  2  3  2  0
  2  4  2  0
  2  5  1  0
  5  6  2  0
  6  7  1  0
  7  8  2  0
  8  9  1  0
  9 10  1  0
 10 11  1  0
 11 12  1  0
 12 13  2  0
 12 14  2  0
 12 15  1  0
 15 16  2  0
 16 17  1  0
 17 18  2  0
 18 19  1  0
 19 20  2  0
 19 21  2  0
 19 22  1  0
 22 23  1  0
 23 24  1  0
 24 25  1  0
 25 26  1  0
 26 27  1  0
 18 28  1  0
 28 29  2  0
  8 30  1  0
 30 31  2  0
 31  5  1  0
 29 15  1  0
 27 22  1  0
  1 32  1  0
  1 33  1  0
  6 34  1  0
  7 35  1  0
  9 36  1  0
  9 37  1  0
 10 38  1  0
 10 39  1  0
 16 40  1  0
 17 41  1  0
 23 42  1  0
 23 43  1  0
 24 44  1  0
 24 45  1  0
 25 46  1  0
 25 47  1  0
 26 48  1  0
 26 49  1  0
 27 50  1  0
 27 51  1  0
 28 52  1  0
 29 53  1  0
 30 54  1  0
 31 55  1  0
M  CHG  1  11  -1
M  END
>  <UniqueID>  (44) 
43

>  <SMILES>  (44) 
NS(=O)(=O)c1ccc(CC[N-]S(=O)(=O)c2ccc(S(=O)(=O)N3CCCCC3)cc2)cc1

>  <Energy>  (44) 
52.49037889875468

>  <Genealogy>  (44) 
NS(=O)(=O)c1ccc(CC[N-]S(=O)(=O)c2ccc(S(=O)(=O)N3CCCCC3)cc2)cc1 (protonated)
NS(=O)(=O)c1ccc(CC[N-]S(=O)(=O)c2ccc(S(=O)(=O)N3CCCCC3)cc2)cc1 (3D coordinates assigned)
NS(=O)(=O)c1ccc(CC[N-]S(=O)(=O)c2ccc(S(=O)(=O)N3CCCCC3)cc2)cc1 (nonaromatic ring conformer: 52.49037889875468 kcal/mol)

>  <smiles>  (44) 
NS(=O)(=O)c1ccc(CCNS(=O)(=O)c2ccc(S(=O)(=O)N3CCCCC3)cc2)cc1

>  <score_type>  (44) 
oracle

>  <origin>  (44) 
adgpu

>  <m_score__min__energy>  (44) 
-12.720000000000001

>  <m_primary>  (44) 
energy

$$$$
44:0
     RDKit          3D

 47 50  0  0  0  0  0  0  0  0999 V2000
   -6.0470   23.2940  -29.0210 O   0  0  0  0  0  0  0  0  0  0  0  0
   -5.1500   23.6450  -29.8350 C   0  0  0  0  0  0  0  0  0  0  0  0
   -5.3550   23.5200  -31.2490 N   0  0  0  0  0  0  0  0  0  0  0  0
   -5.3810   22.3020  -32.0060 C   0  0  0  0  0  0  0  0  0  0  0  0
   -6.5430   21.8510  -32.6590 C   0  0  0  0  0  0  0  0  0  0  0  0
   -6.5300   20.6450  -33.3670 C   0  0  0  0  0  0  0  0  0  0  0  0
   -5.3650   19.8700  -33.4210 C   0  0  0  0  0  0  0  0  0  0  0  0
   -5.3730   18.3500  -34.3110 S   0  0  0  0  0  0  0  0  0  0  0  0
   -6.0330   18.5820  -35.6420 O   0  0  0  0  0  0  0  0  0  0  0  0
   -3.9630   17.8770  -34.5410 O   0  0  0  0  0  0  0  0  0  0  0  0
   -6.2680   17.1460  -33.4070 N   0  0  0  0  0  0  0  0  0  0  0  0
   -7.5700   17.6790  -32.9870 C   0  0  0  0  0  0  0  0  0  0  0  0
   -7.4190   18.2500  -31.5840 C   0  0  0  0  0  0  0  0  0  0  0  0
   -6.1150   17.6880  -31.0530 C   0  0  0  0  0  0  0  0  0  0  0  0
   -5.5650   16.8080  -32.1660 C   0  0  0  0  0  0  0  0  0  0  0  0
   -4.2130   20.3050  -32.7520 C   0  0  0  0  0  0  0  0  0  0  0  0
   -4.2260   21.5100  -32.0430 C   0  0  0  0  0  0  0  0  0  0  0  0
   -3.9060   24.2350  -29.3290 C   0  0  0  0  0  0  0  0  0  0  0  0
   -3.4830   24.2410  -28.0170 C   0  0  0  0  0  0  0  0  0  0  0  0
   -2.2730   24.9070  -28.0600 C   0  0  0  0  0  0  0  0  0  0  0  0
   -1.4200   25.2430  -26.8980 C   0  0  0  0  0  0  0  0  0  0  0  0
   -2.0360   25.5310  -25.6650 C   0  0  0  0  0  0  0  0  0  0  0  0
   -1.2730   25.9220  -24.5620 C   0  0  0  0  0  0  0  0  0  0  0  0
    0.1120   26.0330  -24.6740 C   0  0  0  0  0  0  0  0  0  0  0  0
    0.7400   25.7360  -25.8840 C   0  0  0  0  0  0  0  0  0  0  0  0
   -0.0070   25.3240  -26.9940 C   0  0  0  0  0  0  0  0  0  0  0  0
    0.6880   24.9730  -28.1530 O   0  0  0  0  0  0  0  0  0  0  0  0
   -2.0140   25.2850  -29.3300 N   0  0  0  0  0  0  0  0  0  0  0  0
   -3.0050   24.8710  -30.1030 N   0  0  0  0  0  0  0  0  0  0  0  0
   -7.4650   22.4492  -32.6124 H   0  0  0  0  0  0  0  0  0  0  0  0
   -7.4391   20.3037  -33.8838 H   0  0  0  0  0  0  0  0  0  0  0  0
   -7.8889   18.4719  -33.6796 H   0  0  0  0  0  0  0  0  0  0  0  0
   -8.3275   16.8814  -32.9935 H   0  0  0  0  0  0  0  0  0  0  0  0
   -7.3776   19.3487  -31.6190 H   0  0  0  0  0  0  0  0  0  0  0  0
   -8.2700   17.9805  -30.9412 H   0  0  0  0  0  0  0  0  0  0  0  0
   -5.4113   18.5018  -30.8237 H   0  0  0  0  0  0  0  0  0  0  0  0
   -6.2652   17.1209  -30.1225 H   0  0  0  0  0  0  0  0  0  0  0  0
   -4.4871   16.9909  -32.2870 H   0  0  0  0  0  0  0  0  0  0  0  0
   -5.7162   15.7464  -31.9208 H   0  0  0  0  0  0  0  0  0  0  0  0
   -3.2967   19.6972  -32.7847 H   0  0  0  0  0  0  0  0  0  0  0  0
   -3.3218   21.8389  -31.5098 H   0  0  0  0  0  0  0  0  0  0  0  0
   -3.9909   23.8145  -27.1394 H   0  0  0  0  0  0  0  0  0  0  0  0
   -3.1286   25.4473  -25.5693 H   0  0  0  0  0  0  0  0  0  0  0  0
   -1.7659   26.1426  -23.6037 H   0  0  0  0  0  0  0  0  0  0  0  0
    0.7098   26.3547  -23.8085 H   0  0  0  0  0  0  0  0  0  0  0  0
    1.8332   25.8265  -25.9666 H   0  0  0  0  0  0  0  0  0  0  0  0
    0.2580   24.9220  -29.0670 H   0  0  0  0  0  0  0  0  0  0  0  0
  1  2  2  0
  2  3  1  0
  3  4  1  0
  4  5  2  0
  5  6  1  0
  6  7  2  0
  7  8  1  0
  8  9  2  0
  8 10  2  0
  8 11  1  0
 11 12  1  0
 12 13  1  0
 13 14  1  0
 14 15  1  0
  7 16  1  0
 16 17  2  0
  2 18  1  0
 18 19  1  0
 19 20  2  0
 20 21  1  0
 21 22  2  0
 22 23  1  0
 23 24  2  0
 24 25  1  0
 25 26  2  0
 26 27  1  0
 20 28  1  0
 28 29  1  0
 17  4  1  0
 29 18  2  0
 15 11  1  0
 26 21  1  0
  5 30  1  0
  6 31  1  0
 12 32  1  0
 12 33  1  0
 13 34  1  0
 13 35  1  0
 14 36  1  0
 14 37  1  0
 15 38  1  0
 15 39  1  0
 16 40  1  0
 17 41  1  0
 19 42  1  0
 22 43  1  0
 23 44  1  0
 24 45  1  0
 25 46  1  0
 27 47  1  0
M  CHG  2   3  -1  28  -1
M  END
>  <UniqueID>  (45) 
44

>  <SMILES>  (45) 
O=C([N-]c1ccc(S(=O)(=O)N2CCCC2)cc1)c1cc(-c2ccccc2O)[n-]n1

>  <Energy>  (45) 
89.16806785280981

>  <Genealogy>  (45) 
O=C([N-]c1ccc(S(=O)(=O)N2CCCC2)cc1)c1cc(-c2ccccc2O)[n-]n1 (protonated)
O=C([N-]c1ccc(S(=O)(=O)N2CCCC2)cc1)c1cc(-c2ccccc2O)[n-]n1 (3D coordinates assigned)
O=C([N-]c1ccc(S(=O)(=O)N2CCCC2)cc1)c1cc(-c2ccccc2O)[n-]n1 (nonaromatic ring conformer: 89.16806785280981 kcal/mol)

>  <smiles>  (45) 
O=C(Nc1ccc(S(=O)(=O)N2CCCC2)cc1)c1cc(-c2ccccc2O)[nH]n1

>  <score_type>  (45) 
oracle

>  <origin>  (45) 
adgpu

>  <m_score__min__energy>  (45) 
-12.359999999999999

>  <m_primary>  (45) 
energy

$$$$
45:0
     RDKit          3D

 43 45  0  0  0  0  0  0  0  0999 V2000
   -2.7380   24.8980  -26.8380 C   0  0  0  0  0  0  0  0  0  0  0  0
   -1.3960   25.4280  -27.9450 S   0  0  0  0  0  0  0  0  0  0  0  0
   -1.4360   23.9150  -28.9170 C   0  0  0  0  0  0  0  0  0  0  0  0
   -0.4770   22.9240  -28.6740 C   0  0  0  0  0  0  0  0  0  0  0  0
   -0.4820   21.7430  -29.4230 C   0  0  0  0  0  0  0  0  0  0  0  0
   -1.4380   21.5510  -30.4220 C   0  0  0  0  0  0  0  0  0  0  0  0
   -2.4000   22.5350  -30.6670 C   0  0  0  0  0  0  0  0  0  0  0  0
   -2.4170   23.7120  -29.9080 C   0  0  0  0  0  0  0  0  0  0  0  0
   -3.4250   24.6970  -30.1600 N   0  0  0  0  0  0  0  0  0  0  0  0
   -4.8090   24.3540  -30.3250 C   0  0  0  0  0  0  0  0  0  0  0  0
   -5.9060   25.5610  -30.5100 S   0  0  0  0  0  0  0  0  0  0  0  0
   -5.2450   22.9900  -30.1820 N   0  0  0  0  0  0  0  0  0  0  0  0
   -6.3910   22.4220  -30.8390 C   0  0  0  0  0  0  0  0  0  0  0  0
   -7.6880   22.8760  -30.5310 C   0  0  0  0  0  0  0  0  0  0  0  0
   -8.8020   22.3320  -31.1740 C   0  0  0  0  0  0  0  0  0  0  0  0
   -8.6370   21.3360  -32.1360 C   0  0  0  0  0  0  0  0  0  0  0  0
   -7.3570   20.8930  -32.4710 C   0  0  0  0  0  0  0  0  0  0  0  0
   -6.2280   21.4430  -31.8470 C   0  0  0  0  0  0  0  0  0  0  0  0
   -4.6020   20.8300  -32.3220 S   0  0  0  0  0  0  0  0  0  0  0  0
   -5.2240   19.2430  -32.8910 C   0  0  0  0  0  0  0  0  0  0  0  0
   -5.6930   18.2930  -31.9700 C   0  0  0  0  0  0  0  0  0  0  0  0
   -6.1750   17.0590  -32.4190 C   0  0  0  0  0  0  0  0  0  0  0  0
   -6.2040   16.7750  -33.7870 C   0  0  0  0  0  0  0  0  0  0  0  0
   -5.7590   17.7270  -34.7090 C   0  0  0  0  0  0  0  0  0  0  0  0
   -5.2750   18.9600  -34.2630 C   0  0  0  0  0  0  0  0  0  0  0  0
   -2.4214   25.0230  -25.7920 H   0  0  0  0  0  0  0  0  0  0  0  0
   -3.6321   25.5106  -27.0262 H   0  0  0  0  0  0  0  0  0  0  0  0
   -2.9722   23.8398  -27.0262 H   0  0  0  0  0  0  0  0  0  0  0  0
    0.2820   23.0748  -27.8922 H   0  0  0  0  0  0  0  0  0  0  0  0
    0.2688   20.9639  -29.2246 H   0  0  0  0  0  0  0  0  0  0  0  0
   -1.4342   20.6254  -31.0163 H   0  0  0  0  0  0  0  0  0  0  0  0
   -3.1474   22.3842  -31.4599 H   0  0  0  0  0  0  0  0  0  0  0  0
   -3.1120   25.6670  -30.3890 H   0  0  0  0  0  0  0  0  0  0  0  0
   -4.6780   22.3650  -29.5750 H   0  0  0  0  0  0  0  0  0  0  0  0
   -7.8248   23.6657  -29.7776 H   0  0  0  0  0  0  0  0  0  0  0  0
   -9.8111   22.6897  -30.9213 H   0  0  0  0  0  0  0  0  0  0  0  0
   -9.5168   20.8992  -32.6312 H   0  0  0  0  0  0  0  0  0  0  0  0
   -7.2326   20.1066  -33.2301 H   0  0  0  0  0  0  0  0  0  0  0  0
   -5.6814   18.5193  -30.8936 H   0  0  0  0  0  0  0  0  0  0  0  0
   -6.5314   16.3117  -31.6948 H   0  0  0  0  0  0  0  0  0  0  0  0
   -6.5772   15.8018  -34.1386 H   0  0  0  0  0  0  0  0  0  0  0  0
   -5.7898   17.5055  -35.7860 H   0  0  0  0  0  0  0  0  0  0  0  0
   -4.9331   19.7106  -34.9908 H   0  0  0  0  0  0  0  0  0  0  0  0
  1  2  1  0
  2  3  1  0
  3  4  2  0
  4  5  1  0
  5  6  2  0
  6  7  1  0
  7  8  2  0
  8  9  1  0
  9 10  1  0
 10 11  2  0
 10 12  1  0
 12 13  1  0
 13 14  2  0
 14 15  1  0
 15 16  2  0
 16 17  1  0
 17 18  2  0
 18 19  1  0
 19 20  1  0
 20 21  2  0
 21 22  1  0
 22 23  2  0
 23 24  1  0
 24 25  2  0
  8  3  1  0
 18 13  1  0
 25 20  1  0
  1 26  1  0
  1 27  1  0
  1 28  1  0
  4 29  1  0
  5 30  1  0
  6 31  1  0
  7 32  1  0
  9 33  1  0
 12 34  1  0
 14 35  1  0
 15 36  1  0
 16 37  1  0
 17 38  1  0
 21 39  1  0
 22 40  1  0
 23 41  1  0
 24 42  1  0
 25 43  1  0
M  END
>  <UniqueID>  (46) 
45

>  <SMILES>  (46) 
CSc1ccccc1NC(=S)Nc1ccccc1Sc1ccccc1

>  <Energy>  (46) 
48.16269029835201

>  <Genealogy>  (46) 
CSc1ccccc1NC(=S)Nc1ccccc1Sc1ccccc1 (3D coordinates assigned)
CSc1ccccc1NC(=S)Nc1ccccc1Sc1ccccc1 (optimized conformer: 48.16269029835201 kcal/mol)

>  <smiles>  (46) 
CSc1ccccc1NC(=S)Nc1ccccc1Sc1ccccc1

>  <score_type>  (46) 
oracle

>  <origin>  (46) 
adgpu

>  <m_score__min__energy>  (46) 
-9.3100000000000005

>  <m_primary>  (46) 
energy

$$$$
46:0
     RDKit          3D

 30 32  0  0  0  0  0  0  0  0999 V2000
   -4.8290   24.4570  -28.9020 O   0  0  0  0  0  0  0  0  0  0  0  0
   -4.5460   24.0360  -30.3180 S   0  0  0  0  0  0  0  0  0  0  0  0
   -4.4330   25.2400  -31.2090 O   0  0  0  0  0  0  0  0  0  0  0  0
   -3.0750   23.1200  -30.3880 N   0  0  0  0  0  0  0  0  0  0  0  0
   -1.9220   23.2210  -29.5340 C   0  0  0  0  0  0  0  0  0  0  0  0
   -1.1530   22.0620  -29.3560 C   0  0  0  0  0  0  0  0  0  0  0  0
   -0.0200   22.0740  -28.5400 C   0  0  0  0  0  0  0  0  0  0  0  0
    0.3630   23.2480  -27.8940 C   0  0  0  0  0  0  0  0  0  0  0  0
   -0.3850   24.4130  -28.0650 C   0  0  0  0  0  0  0  0  0  0  0  0
   -1.5260   24.4160  -28.8830 C   0  0  0  0  0  0  0  0  0  0  0  0
   -2.2400   25.6010  -29.0430 O   0  0  0  0  0  0  0  0  0  0  0  0
   -5.8630   23.0280  -30.8820 C   0  0  0  0  0  0  0  0  0  0  0  0
   -5.7460   21.6950  -31.2660 C   0  0  0  0  0  0  0  0  0  0  0  0
   -6.9730   21.1510  -31.6560 C   0  0  0  0  0  0  0  0  0  0  0  0
   -7.1940   19.8440  -32.0970 C   0  0  0  0  0  0  0  0  0  0  0  0
   -8.4990   19.4600  -32.4510 C   0  0  0  0  0  0  0  0  0  0  0  0
   -9.5630   20.3800  -32.3620 C   0  0  0  0  0  0  0  0  0  0  0  0
   -9.3310   21.6920  -31.9190 C   0  0  0  0  0  0  0  0  0  0  0  0
   -8.0290   22.0490  -31.5740 C   0  0  0  0  0  0  0  0  0  0  0  0
   -7.4710   23.5320  -31.0160 S   0  0  0  0  0  0  0  0  0  0  0  0
   -1.4459   21.1321  -29.8654 H   0  0  0  0  0  0  0  0  0  0  0  0
    0.5709   21.1558  -28.4069 H   0  0  0  0  0  0  0  0  0  0  0  0
    1.2545   23.2560  -27.2497 H   0  0  0  0  0  0  0  0  0  0  0  0
   -0.0781   25.3377  -27.5543 H   0  0  0  0  0  0  0  0  0  0  0  0
   -3.0010   25.6790  -29.7060 H   0  0  0  0  0  0  0  0  0  0  0  0
   -4.7989   21.1355  -31.2629 H   0  0  0  0  0  0  0  0  0  0  0  0
   -6.3616   19.1282  -32.1660 H   0  0  0  0  0  0  0  0  0  0  0  0
   -8.6911   18.4346  -32.7998 H   0  0  0  0  0  0  0  0  0  0  0  0
  -10.5804   20.0686  -32.6410 H   0  0  0  0  0  0  0  0  0  0  0  0
  -10.1542   22.4179  -31.8463 H   0  0  0  0  0  0  0  0  0  0  0  0
  1  2  2  0
  2  3  2  0
  2  4  1  0
  4  5  1  0
  5  6  2  0
  6  7  1  0
  7  8  2  0
  8  9  1  0
  9 10  2  0
 10 11  1  0
  2 12  1  0
 12 13  2  0
 13 14  1  0
 14 15  2  0
 15 16  1  0
 16 17  2  0
 17 18  1  0
 18 19  2  0
 19 20  1  0
 10  5  1  0
 20 12  1  0
 19 14  1  0
  6 21  1  0
  7 22  1  0
  8 23  1  0
  9 24  1  0
 11 25  1  0
 13 26  1  0
 15 27  1  0
 16 28  1  0
 17 29  1  0
 18 30  1  0
M  CHG  1   4  -1
M  END
>  <UniqueID>  (47) 
46

>  <SMILES>  (47) 
O=S(=O)([N-]c1ccccc1O)c1cc2ccccc2s1

>  <Energy>  (47) 
70.63661066889509

>  <Genealogy>  (47) 
O=S(=O)([N-]c1ccccc1O)c1cc2ccccc2s1 (protonated)
O=S(=O)([N-]c1ccccc1O)c1cc2ccccc2s1 (3D coordinates assigned)
O=S(=O)([N-]c1ccccc1O)c1cc2ccccc2s1 (optimized conformer: 70.63661066889509 kcal/mol)

>  <smiles>  (47) 
O=S(=O)(Nc1ccccc1O)c1cc2ccccc2s1

>  <score_type>  (47) 
oracle

>  <origin>  (47) 
adgpu

>  <m_score__min__energy>  (47) 
-11.09

>  <m_primary>  (47) 
energy

$$$$
47:0
     RDKit          3D

 62 65  0  0  0  0  0  0  0  0999 V2000
    2.6830   22.0100  -36.2510 C   0  0  0  0  0  0  0  0  0  0  0  0
    1.6530   20.9810  -36.2000 N   0  0  0  0  0  0  0  0  0  0  0  0
    0.6040   20.9220  -35.2230 C   0  0  0  0  0  0  0  0  0  0  0  0
    0.3130   21.9690  -34.5850 O   0  0  0  0  0  0  0  0  0  0  0  0
   -0.1170   19.6710  -34.9170 C   0  0  0  0  0  0  0  0  0  0  0  0
    0.0510   18.5300  -35.7150 C   0  0  0  0  0  0  0  0  0  0  0  0
   -0.6490   17.3550  -35.4240 C   0  0  0  0  0  0  0  0  0  0  0  0
   -1.5470   17.3090  -34.3470 C   0  0  0  0  0  0  0  0  0  0  0  0
   -2.2440   16.0860  -34.0610 N   0  0  0  0  0  0  0  0  0  0  0  0
   -3.7080   15.9680  -34.0860 C   0  0  1  0  0  0  0  0  0  0  0  0
   -4.2410   15.5050  -32.7230 C   0  0  0  0  0  0  0  0  0  0  0  0
   -5.2030   16.5850  -32.2400 C   0  0  0  0  0  0  0  0  0  0  0  0
   -5.6140   17.3820  -33.4860 C   0  0  1  0  0  0  0  0  0  0  0  0
   -6.8120   16.7090  -34.1870 C   0  0  0  0  0  0  0  0  0  0  0  0
   -5.9910   18.8080  -33.1390 C   0  0  0  0  0  0  0  0  0  0  0  0
   -7.2660   19.3310  -33.1070 C   0  0  0  0  0  0  0  0  0  0  0  0
   -7.2110   20.5920  -32.6480 N   0  0  0  0  0  0  0  0  0  0  0  0
   -5.9000   20.7950  -32.3860 C   0  0  0  0  0  0  0  0  0  0  0  0
   -5.3660   22.0890  -31.9020 C   0  0  0  0  0  0  0  0  0  0  0  0
   -4.0900   22.1080  -31.3110 C   0  0  0  0  0  0  0  0  0  0  0  0
   -3.5540   23.2870  -30.7600 C   0  0  0  0  0  0  0  0  0  0  0  0
   -2.1700   23.2430  -30.1270 C   0  0  0  0  0  0  0  0  0  0  0  0
   -1.4120   21.9620  -30.5000 C   0  0  0  0  0  0  0  0  0  0  0  0
   -2.2310   23.4380  -28.6060 C   0  0  0  0  0  0  0  0  0  0  0  0
   -4.3290   24.4660  -30.8000 C   0  0  0  0  0  0  0  0  0  0  0  0
   -3.8610   25.6560  -30.2530 O   0  0  0  0  0  0  0  0  0  0  0  0
   -5.5880   24.4580  -31.4040 C   0  0  0  0  0  0  0  0  0  0  0  0
   -6.1050   23.2930  -31.9770 C   0  0  0  0  0  0  0  0  0  0  0  0
   -7.3320   23.3860  -32.6380 O   0  0  0  0  0  0  0  0  0  0  0  0
   -5.1250   19.7280  -32.6740 N   0  0  0  0  0  0  0  0  0  0  0  0
   -4.3610   17.3220  -34.3720 C   0  0  0  0  0  0  0  0  0  0  0  0
   -1.7160   18.4540  -33.5470 C   0  0  0  0  0  0  0  0  0  0  0  0
   -1.0150   19.6280  -33.8400 C   0  0  0  0  0  0  0  0  0  0  0  0
    2.9679   22.2946  -35.2274 H   0  0  0  0  0  0  0  0  0  0  0  0
    3.5642   21.6208  -36.7821 H   0  0  0  0  0  0  0  0  0  0  0  0
    2.2946   22.8916  -36.7821 H   0  0  0  0  0  0  0  0  0  0  0  0
    0.7370   18.5596  -36.5743 H   0  0  0  0  0  0  0  0  0  0  0  0
   -0.4944   16.4598  -36.0443 H   0  0  0  0  0  0  0  0  0  0  0  0
   -1.6920   15.1970  -34.0770 H   0  0  0  0  0  0  0  0  0  0  0  0
   -3.9522   15.2401  -34.8737 H   0  0  0  0  0  0  0  0  0  0  0  0
   -4.7693   14.5460  -32.8283 H   0  0  0  0  0  0  0  0  0  0  0  0
   -3.4199   15.3566  -32.0062 H   0  0  0  0  0  0  0  0  0  0  0  0
   -6.0867   16.1267  -31.7720 H   0  0  0  0  0  0  0  0  0  0  0  0
   -4.7315   17.2337  -31.4871 H   0  0  0  0  0  0  0  0  0  0  0  0
   -7.5077   16.3182  -33.4298 H   0  0  0  0  0  0  0  0  0  0  0  0
   -7.3312   17.4475  -34.8155 H   0  0  0  0  0  0  0  0  0  0  0  0
   -6.4514   15.8814  -34.8155 H   0  0  0  0  0  0  0  0  0  0  0  0
   -8.1813   18.8008  -33.4089 H   0  0  0  0  0  0  0  0  0  0  0  0
   -3.4981   21.1814  -31.2787 H   0  0  0  0  0  0  0  0  0  0  0  0
   -1.6029   24.0896  -30.5414 H   0  0  0  0  0  0  0  0  0  0  0  0
   -1.1025   21.4390  -29.5831 H   0  0  0  0  0  0  0  0  0  0  0  0
   -2.0680   21.3070  -31.0921 H   0  0  0  0  0  0  0  0  0  0  0  0
   -0.5221   22.2218  -31.0921 H   0  0  0  0  0  0  0  0  0  0  0  0
   -1.9387   22.5036  -28.1045 H   0  0  0  0  0  0  0  0  0  0  0  0
   -1.5418   24.2432  -28.3116 H   0  0  0  0  0  0  0  0  0  0  0  0
   -3.2562   23.7069  -28.3116 H   0  0  0  0  0  0  0  0  0  0  0  0
   -6.1822   25.3834  -31.4292 H   0  0  0  0  0  0  0  0  0  0  0  0
   -7.7920   22.5990  -33.0750 H   0  0  0  0  0  0  0  0  0  0  0  0
   -4.6395   17.3956  -35.4336 H   0  0  0  0  0  0  0  0  0  0  0  0
   -3.6747   18.1543  -34.1569 H   0  0  0  0  0  0  0  0  0  0  0  0
   -2.4022   18.4256  -32.6877 H   0  0  0  0  0  0  0  0  0  0  0  0
   -1.1688   20.5245  -33.2214 H   0  0  0  0  0  0  0  0  0  0  0  0
  1  2  1  0
  2  3  1  0
  3  4  2  0
  3  5  1  0
  5  6  2  0
  6  7  1  0
  7  8  2  0
  8  9  1  0
  9 10  1  0
 10 11  1  0
 11 12  1  0
 12 13  1  0
 13 14  1  6
 13 15  1  0
 15 16  2  0
 16 17  1  0
 17 18  2  0
 18 19  1  0
 19 20  2  0
 20 21  1  0
 21 22  1  0
 22 23  1  0
 22 24  1  0
 21 25  2  0
 25 26  1  0
 25 27  1  0
 27 28  2  0
 28 29  1  0
 18 30  1  0
 13 31  1  0
  8 32  1  0
 32 33  2  0
 33  5  1  0
 31 10  1  0
 30 15  1  0
 28 19  1  0
  1 34  1  0
  1 35  1  0
  1 36  1  0
  6 37  1  0
  7 38  1  0
  9 39  1  0
 10 40  1  6
 11 41  1  0
 11 42  1  0
 12 43  1  0
 12 44  1  0
 14 45  1  0
 14 46  1  0
 14 47  1  0
 16 48  1  0
 20 49  1  0
 22 50  1  0
 23 51  1  0
 23 52  1  0
 23 53  1  0
 24 54  1  0
 24 55  1  0
 24 56  1  0
 27 57  1  0
 29 58  1  0
 31 59  1  0
 31 60  1  0
 32 61  1  0
 33 62  1  0
M  CHG  3   2  -1  26  -1  30  -1
M  END
>  <UniqueID>  (48) 
47

>  <SMILES>  (48) 
C[N-]C(=O)c1ccc(N[C@H]2CC[C@@](C)(c3cnc(-c4cc(C(C)C)c([O-])cc4O)[n-]3)C2)cc1

>  <Energy>  (48) 
103.7359830094079

>  <Genealogy>  (48) 
C[N-]C(=O)c1ccc(NC2CCC(C)(c3cnc(-c4cc(C(C)C)c([O-])cc4O)[n-]3)C2)cc1 (protonated)
C[N-]C(=O)c1ccc(N[C@H]2CC[C@@](C)(c3cnc(-c4cc(C(C)C)c([O-])cc4O)[n-]3)C2)cc1 (chirality)
C[N-]C(=O)c1ccc(N[C@H]2CC[C@@](C)(c3cnc(-c4cc(C(C)C)c([O-])cc4O)[n-]3)C2)cc1 (3D coordinates assigned)
C[N-]C(=O)c1ccc(N[C@H]2CC[C@@](C)(c3cnc(-c4cc(C(C)C)c([O-])cc4O)[n-]3)C2)cc1 (nonaromatic ring conformer: 103.7359830094079 kcal/mol)

>  <smiles>  (48) 
CNC(=O)c1ccc(NC2CCC(C)(c3cnc(-c4cc(C(C)C)c(O)cc4O)[nH]3)C2)cc1

>  <score_type>  (48) 
oracle

>  <origin>  (48) 
adgpu

>  <m_score__min__energy>  (48) 
-12.06

>  <m_primary>  (48) 
energy

$$$$
48:0
     RDKit          3D

 50 53  0  0  0  0  0  0  0  0999 V2000
   -2.8960   19.7910  -33.9390 C   0  0  0  0  0  0  0  0  0  0  0  0
   -2.2520   20.4560  -32.7590 C   0  0  0  0  0  0  0  0  0  0  0  0
   -0.8580   20.4310  -32.6000 C   0  0  0  0  0  0  0  0  0  0  0  0
   -0.2620   21.0840  -31.5180 C   0  0  0  0  0  0  0  0  0  0  0  0
   -1.0500   21.7710  -30.5920 C   0  0  0  0  0  0  0  0  0  0  0  0
   -2.4490   21.8030  -30.7390 C   0  0  0  0  0  0  0  0  0  0  0  0
   -3.2740   22.4970  -29.8420 O   0  0  0  0  0  0  0  0  0  0  0  0
   -4.4970   23.0980  -30.1710 C   0  0  0  0  0  0  0  0  0  0  0  0
   -5.6590   22.3160  -30.1310 C   0  0  0  0  0  0  0  0  0  0  0  0
   -6.9060   22.8680  -30.4470 C   0  0  0  0  0  0  0  0  0  0  0  0
   -8.0320   22.0340  -30.3960 O   0  0  0  0  0  0  0  0  0  0  0  0
   -8.7280   21.5460  -31.5390 C   0  0  0  0  0  0  0  0  0  0  0  0
   -7.9480   20.4290  -32.1460 C   0  0  0  0  0  0  0  0  0  0  0  0
   -7.6870   20.3260  -33.4630 N   0  0  0  0  0  0  0  0  0  0  0  0
   -6.9960   19.2330  -33.5770 O   0  0  0  0  0  0  0  0  0  0  0  0
   -6.8320   18.6850  -32.3980 C   0  0  0  0  0  0  0  0  0  0  0  0
   -6.1050   17.4280  -32.1390 C   0  0  0  0  0  0  0  0  0  0  0  0
   -6.1020   16.9710  -30.9640 O   0  0  0  0  0  0  0  0  0  0  0  0
   -5.4130   16.7080  -33.1820 N   0  0  0  0  0  0  0  0  0  0  0  0
   -4.9660   17.3790  -34.4080 C   0  0  0  0  0  0  0  0  0  0  0  0
   -3.7340   16.6710  -34.9800 C   0  0  0  0  0  0  0  0  0  0  0  0
   -3.9680   15.2830  -35.1120 O   0  0  0  0  0  0  0  0  0  0  0  0
   -4.1300   14.7080  -33.8320 C   0  0  0  0  0  0  0  0  0  0  0  0
   -5.3940   15.2400  -33.1490 C   0  0  0  0  0  0  0  0  0  0  0  0
   -7.4310   19.4080  -31.4310 N   0  0  0  0  0  0  0  0  0  0  0  0
   -6.9870   24.2270  -30.8010 C   0  0  0  0  0  0  0  0  0  0  0  0
   -5.8360   25.0180  -30.8180 C   0  0  0  0  0  0  0  0  0  0  0  0
   -4.5950   24.4640  -30.4920 C   0  0  0  0  0  0  0  0  0  0  0  0
   -3.4710   25.2830  -30.4650 O   0  0  0  0  0  0  0  0  0  0  0  0
   -3.0400   21.1610  -31.8340 C   0  0  0  0  0  0  0  0  0  0  0  0
   -3.6211   19.0423  -33.5874 H   0  0  0  0  0  0  0  0  0  0  0  0
   -3.4148   20.5463  -34.5476 H   0  0  0  0  0  0  0  0  0  0  0  0
   -2.1244   19.2967  -34.5476 H   0  0  0  0  0  0  0  0  0  0  0  0
   -0.2325   19.8956  -33.3295 H   0  0  0  0  0  0  0  0  0  0  0  0
    0.8308   21.0569  -31.3952 H   0  0  0  0  0  0  0  0  0  0  0  0
   -0.5756   22.2886  -29.7452 H   0  0  0  0  0  0  0  0  0  0  0  0
   -5.5905   21.2553  -29.8478 H   0  0  0  0  0  0  0  0  0  0  0  0
   -9.7207   21.1806  -31.2374 H   0  0  0  0  0  0  0  0  0  0  0  0
   -8.8477   22.3561  -32.2735 H   0  0  0  0  0  0  0  0  0  0  0  0
   -5.7765   17.3551  -35.1513 H   0  0  0  0  0  0  0  0  0  0  0  0
   -4.7035   18.4207  -34.1715 H   0  0  0  0  0  0  0  0  0  0  0  0
   -3.5023   17.0932  -35.9690 H   0  0  0  0  0  0  0  0  0  0  0  0
   -2.8895   16.8220  -34.2915 H   0  0  0  0  0  0  0  0  0  0  0  0
   -4.2092   13.6157  -33.9354 H   0  0  0  0  0  0  0  0  0  0  0  0
   -3.2590   14.9737  -33.2149 H   0  0  0  0  0  0  0  0  0  0  0  0
   -6.2800   14.8539  -33.6744 H   0  0  0  0  0  0  0  0  0  0  0  0
   -5.4014   14.9060  -32.1010 H   0  0  0  0  0  0  0  0  0  0  0  0
   -7.9595   24.6680  -31.0652 H   0  0  0  0  0  0  0  0  0  0  0  0
   -5.9066   26.0817  -31.0892 H   0  0  0  0  0  0  0  0  0  0  0  0
   -4.1304   21.2090  -31.9711 H   0  0  0  0  0  0  0  0  0  0  0  0
  1  2  1  0
  2  3  2  0
  3  4  1  0
  4  5  2  0
  5  6  1  0
  6  7  1  0
  7  8  1  0
  8  9  2  0
  9 10  1  0
 10 11  1  0
 11 12  1  0
 12 13  1  0
 13 14  2  0
 14 15  1  0
 15 16  1  0
 16 17  1  0
 17 18  2  0
 17 19  1  0
 19 20  1  0
 20 21  1  0
 21 22  1  0
 22 23  1  0
 23 24  1  0
 16 25  2  0
 10 26  2  0
 26 27  1  0
 27 28  2  0
 28 29  1  0
  6 30  2  0
 30  2  1  0
 28  8  1  0
 25 13  1  0
 24 19  1  0
  1 31  1  0
  1 32  1  0
  1 33  1  0
  3 34  1  0
  4 35  1  0
  5 36  1  0
  9 37  1  0
 12 38  1  0
 12 39  1  0
 20 40  1  0
 20 41  1  0
 21 42  1  0
 21 43  1  0
 23 44  1  0
 23 45  1  0
 24 46  1  0
 24 47  1  0
 26 48  1  0
 27 49  1  0
 30 50  1  0
M  CHG  1  29  -1
M  END
>  <UniqueID>  (49) 
48

>  <SMILES>  (49) 
Cc1cccc(Oc2cc(OCc3noc(C(=O)N4CCOCC4)n3)ccc2[O-])c1

>  <Energy>  (49) 
95.21263829087651

>  <Genealogy>  (49) 
Cc1cccc(Oc2cc(OCc3noc(C(=O)N4CCOCC4)n3)ccc2[O-])c1 (protonated)
Cc1cccc(Oc2cc(OCc3noc(C(=O)N4CCOCC4)n3)ccc2[O-])c1 (3D coordinates assigned)
Cc1cccc(Oc2cc(OCc3noc(C(=O)N4CCOCC4)n3)ccc2[O-])c1 (nonaromatic ring conformer: 95.21263829087651 kcal/mol)

>  <smiles>  (49) 
Cc1cccc(Oc2cc(OCc3noc(C(=O)N4CCOCC4)n3)ccc2O)c1

>  <score_type>  (49) 
oracle

>  <origin>  (49) 
adgpu

>  <m_score__min__energy>  (49) 
-11.949999999999999

>  <m_primary>  (49) 
energy

$$$$
49:0
     RDKit          3D

 42 44  0  0  0  0  0  0  0  0999 V2000
   -7.7187   24.4155  -31.3448 H   0  0  0  0  0  0  0  0  0  0  0  0
   -7.5270   23.3810  -31.6660 C   0  0  0  0  0  0  0  0  0  0  0  0
   -8.4670   22.4390  -31.8860 N   0  0  0  0  0  0  0  0  0  0  0  0
   -7.8520   21.3280  -32.2650 N   0  0  0  0  0  0  0  0  0  0  0  0
   -8.5490   20.0870  -32.5800 C   0  0  0  0  0  0  0  0  0  0  0  0
   -8.8341   19.5795  -31.6466 H   0  0  0  0  0  0  0  0  0  0  0  0
   -9.4525   20.3124  -33.1655 H   0  0  0  0  0  0  0  0  0  0  0  0
   -7.8864   19.4327  -33.1655 H   0  0  0  0  0  0  0  0  0  0  0  0
   -6.5180   21.5310  -32.2980 C   0  0  0  0  0  0  0  0  0  0  0  0
   -5.4950   20.5000  -32.6620 C   0  0  0  0  0  0  0  0  0  0  0  0
   -5.0669   20.0686  -31.7452 H   0  0  0  0  0  0  0  0  0  0  0  0
   -5.9708   19.7044  -33.2541 H   0  0  0  0  0  0  0  0  0  0  0  0
   -4.6957   20.9696  -33.2541 H   0  0  0  0  0  0  0  0  0  0  0  0
   -6.2830   22.8310  -31.9110 C   0  0  0  0  0  0  0  0  0  0  0  0
   -5.0070   23.4610  -31.7800 N   0  0  0  0  0  0  0  0  0  0  0  0
   -4.5630   24.3960  -30.3900 S   0  0  0  0  0  0  0  0  0  0  0  0
   -5.8030   24.7690  -29.6270 O   0  0  0  0  0  0  0  0  0  0  0  0
   -3.8690   25.6500  -30.8430 O   0  0  0  0  0  0  0  0  0  0  0  0
   -3.5140   23.4390  -29.3530 C   0  0  0  0  0  0  0  0  0  0  0  0
   -3.8600   22.1310  -28.9980 C   0  0  0  0  0  0  0  0  0  0  0  0
   -4.7884   21.6852  -29.3845 H   0  0  0  0  0  0  0  0  0  0  0  0
   -3.0310   21.3900  -28.1550 C   0  0  0  0  0  0  0  0  0  0  0  0
   -3.3093   20.3604  -27.8858 H   0  0  0  0  0  0  0  0  0  0  0  0
   -1.8440   21.9450  -27.6460 C   0  0  0  0  0  0  0  0  0  0  0  0
   -0.9950   21.1220  -26.7130 C   0  0  0  0  0  0  0  0  0  0  0  0
   -1.2496   21.3688  -25.6717 H   0  0  0  0  0  0  0  0  0  0  0  0
   -1.1828   20.0532  -26.8929 H   0  0  0  0  0  0  0  0  0  0  0  0
    0.0674   21.3430  -26.8929 H   0  0  0  0  0  0  0  0  0  0  0  0
   -1.4790   23.2630  -28.0220 C   0  0  0  0  0  0  0  0  0  0  0  0
   -0.2260   23.9030  -27.5500 C   0  0  0  0  0  0  0  0  0  0  0  0
    0.5840   24.3780  -28.3890 O   0  0  0  0  0  0  0  0  0  0  0  0
    0.0410   24.0940  -26.1520 N   0  0  0  0  0  0  0  0  0  0  0  0
   -0.2960   25.1340  -25.4450 C   0  0  0  0  0  0  0  0  0  0  0  0
   -1.2460   26.4300  -25.9630 S   0  0  0  0  0  0  0  0  0  0  0  0
   -1.2310   27.1790  -24.4540 C   0  0  0  0  0  0  0  0  0  0  0  0
   -1.7242   28.1287  -24.1994 H   0  0  0  0  0  0  0  0  0  0  0  0
   -0.4870   26.3880  -23.5870 C   0  0  0  0  0  0  0  0  0  0  0  0
   -0.3218   26.6585  -22.5337 H   0  0  0  0  0  0  0  0  0  0  0  0
    0.0210   25.2550  -24.1390 N   0  0  0  0  0  0  0  0  0  0  0  0
    0.5880   24.5580  -23.6060 H   0  0  0  0  0  0  0  0  0  0  0  0
   -2.3240   23.9950  -28.8740 C   0  0  0  0  0  0  0  0  0  0  0  0
   -2.0456   25.0179  -29.1675 H   0  0  0  0  0  0  0  0  0  0  0  0
  1  2  1  0
  2  3  2  0
  3  4  1  0
  4  5  1  0
  5  6  1  0
  5  7  1  0
  5  8  1  0
  4  9  1  0
  9 10  1  0
 10 11  1  0
 10 12  1  0
 10 13  1  0
  9 14  2  0
 14 15  1  0
 15 16  1  0
 16 17  2  0
 16 18  2  0
 16 19  1  0
 19 20  2  0
 20 21  1  0
 20 22  1  0
 22 23  1  0
 22 24  2  0
 24 25  1  0
 25 26  1  0
 25 27  1  0
 25 28  1  0
 24 29  1  0
 29 30  1  0
 30 31  2  0
 30 32  1  0
 32 33  2  0
 33 34  1  0
 34 35  1  0
 35 36  1  0
 35 37  2  0
 37 38  1  0
 37 39  1  0
 39 40  1  0
 29 41  2  0
 41 42  1  0
 14  2  1  0
 41 19  1  0
 39 33  1  0
M  CHG  1  15  -1
M  END
>  <UniqueID>  (50) 
49

>  <SMILES>  (50) 
Cc1ccc(S(=O)(=O)[N-]c2cnn(C)c2C)cc1C(=O)/N=c1/[nH]ccs1

>  <Energy>  (50) 
111.72521859195724

>  <Genealogy>  (50) 
Cc1ccc(S(=O)(=O)[N-]c2cnn(C)c2C)cc1C(=O)N=c1[nH]ccs1 (protonated)
Cc1ccc(S(=O)(=O)[N-]c2cnn(C)c2C)cc1C(=O)/N=c1/[nH]ccs1 (cis-trans isomerization)
Cc1ccc(S(=O)(=O)[N-]c2cnn(C)c2C)cc1C(=O)/N=c1/[nH]ccs1 (3D coordinates assigned)
Cc1ccc(S(=O)(=O)[N-]c2cnn(C)c2C)cc1C(=O)/N=c1/[nH]ccs1 (optimized conformer: 111.72521859195724 kcal/mol)

>  <smiles>  (50) 
Cc1ccc(S(=O)(=O)Nc2cnn(C)c2C)cc1C(=O)N=c1[nH]ccs1

>  <score_type>  (50) 
oracle

>  <origin>  (50) 
adgpu

>  <m_score__min__energy>  (50) 
-9.9600000000000009

>  <m_primary>  (50) 
energy

$$$$
