0:0
     RDKit          3D

 34 36  0  0  0  0  0  0  0  0999 V2000
   -4.5990   19.8740  -30.5040 O   0  0  0  0  0  0  0  0  0  0  0  0
   -3.6570   20.5650  -31.4510 S   0  0  0  0  0  0  0  0  0  0  0  0
   -2.4450   19.6920  -31.6110 O   0  0  0  0  0  0  0  0  0  0  0  0
   -3.1400   22.0990  -30.7340 C   0  0  0  0  0  0  0  0  0  0  0  0
   -2.0690   22.1390  -29.8280 C   0  0  0  0  0  0  0  0  0  0  0  0
   -1.6950   23.3470  -29.2340 C   0  0  0  0  0  0  0  0  0  0  0  0
   -2.3740   24.5270  -29.5540 C   0  0  0  0  0  0  0  0  0  0  0  0
   -2.0030   25.7230  -28.9520 O   0  0  0  0  0  0  0  0  0  0  0  0
   -3.4230   24.4990  -30.4800 C   0  0  0  0  0  0  0  0  0  0  0  0
   -4.0970   25.6700  -30.8080 O   0  0  0  0  0  0  0  0  0  0  0  0
   -3.7970   23.2910  -31.0770 C   0  0  0  0  0  0  0  0  0  0  0  0
   -4.4210   20.7480  -33.0220 N   0  0  0  0  0  0  0  0  0  0  0  0
   -4.4320   19.5130  -33.8250 C   0  0  0  0  0  0  0  0  0  0  0  0
   -5.3720   18.4400  -33.2600 C   0  0  0  0  0  0  0  0  0  0  0  0
   -6.6620   19.0070  -32.7270 C   0  0  0  0  0  0  0  0  0  0  0  0
   -7.6810   18.1270  -32.3280 C   0  0  0  0  0  0  0  0  0  0  0  0
   -8.8630   18.6200  -31.7730 C   0  0  0  0  0  0  0  0  0  0  0  0
   -9.0400   19.9940  -31.6100 C   0  0  0  0  0  0  0  0  0  0  0  0
   -8.0320   20.8800  -31.9960 C   0  0  0  0  0  0  0  0  0  0  0  0
   -6.8300   20.3950  -32.5350 C   0  0  0  0  0  0  0  0  0  0  0  0
   -5.7540   21.3690  -32.9470 C   0  0  0  0  0  0  0  0  0  0  0  0
   -1.5221   21.2161  -29.5847 H   0  0  0  0  0  0  0  0  0  0  0  0
   -0.8646   23.3700  -28.5130 H   0  0  0  0  0  0  0  0  0  0  0  0
   -4.6094   23.2749  -31.8184 H   0  0  0  0  0  0  0  0  0  0  0  0
   -4.7570   19.7615  -34.8461 H   0  0  0  0  0  0  0  0  0  0  0  0
   -3.4126   19.1000  -33.8081 H   0  0  0  0  0  0  0  0  0  0  0  0
   -5.6085   17.7244  -34.0613 H   0  0  0  0  0  0  0  0  0  0  0  0
   -4.8525   17.9584  -32.4185 H   0  0  0  0  0  0  0  0  0  0  0  0
   -7.5469   17.0425  -32.4536 H   0  0  0  0  0  0  0  0  0  0  0  0
   -9.6564   17.9237  -31.4636 H   0  0  0  0  0  0  0  0  0  0  0  0
   -9.9746   20.3800  -31.1769 H   0  0  0  0  0  0  0  0  0  0  0  0
   -8.1806   21.9634  -31.8771 H   0  0  0  0  0  0  0  0  0  0  0  0
   -6.0084   21.7759  -33.9368 H   0  0  0  0  0  0  0  0  0  0  0  0
   -5.7097   22.1573  -32.1811 H   0  0  0  0  0  0  0  0  0  0  0  0
  1  2  2  0
  2  3  2  0
  2  4  1  0
  4  5  2  0
  5  6  1  0
  6  7  2  0
  7  8  1  0
  7  9  1  0
  9 10  1  0
  9 11  2  0
  2 12  1  0
 12 13  1  0
 13 14  1  0
 14 15  1  0
 15 16  2  0
 16 17  1  0
 17 18  2  0
 18 19  1  0
 19 20  2  0
 20 21  1  0
 11  4  1  0
 21 12  1  0
 20 15  1  0
  5 22  1  0
  6 23  1  0
 11 24  1  0
 13 25  1  0
 13 26  1  0
 14 27  1  0
 14 28  1  0
 16 29  1  0
 17 30  1  0
 18 31  1  0
 19 32  1  0
 21 33  1  0
 21 34  1  0
M  CHG  2   8  -1  10  -1
M  END
>  <UniqueID>  (1) 
1

>  <SMILES>  (1) 
O=S(=O)(c1ccc([O-])c([O-])c1)N1CCc2ccccc2C1

>  <Energy>  (1) 
39.84168086131886

>  <Genealogy>  (1) 
O=S(=O)(c1ccc([O-])c([O-])c1)N1CCc2ccccc2C1 (protonated)
O=S(=O)(c1ccc([O-])c([O-])c1)N1CCc2ccccc2C1 (3D coordinates assigned)
O=S(=O)(c1ccc([O-])c([O-])c1)N1CCc2ccccc2C1 (nonaromatic ring conformer: 39.84168086131886 kcal/mol)

>  <smiles>  (1) 
O=S(=O)(c1ccc(O)c(O)c1)N1CCc2ccccc2C1

>  <score_type>  (1) 
oracle

>  <origin>  (1) 
adgpu

>  <m_score__min__energy>  (1) 
-12.800000000000001

>  <m_primary>  (1) 
energy

$$$$
1:0
     RDKit          3D

 56 60  0  0  0  0  0  0  0  0999 V2000
   -0.6580   19.1130  -33.2480 O   0  0  0  0  0  0  0  0  0  0  0  0
   -1.1250   20.5330  -33.0870 S   0  0  0  0  0  0  0  0  0  0  0  0
   -0.1330   21.4470  -33.7490 O   0  0  0  0  0  0  0  0  0  0  0  0
   -2.6730   20.7140  -33.8510 N   0  0  0  0  0  0  0  0  0  0  0  0
   -3.9200   20.3380  -33.2380 C   0  0  0  0  0  0  0  0  0  0  0  0
   -4.8730   19.6390  -33.9970 C   0  0  0  0  0  0  0  0  0  0  0  0
   -6.0960   19.2660  -33.4320 C   0  0  0  0  0  0  0  0  0  0  0  0
   -6.3890   19.5890  -32.1010 C   0  0  0  0  0  0  0  0  0  0  0  0
   -7.6940   19.1640  -31.4840 C   0  0  0  0  0  0  0  0  0  0  0  0
   -8.8760   19.8130  -32.2090 C   0  0  0  0  0  0  0  0  0  0  0  0
   -8.7480   21.2760  -32.1690 N   0  0  0  0  0  0  0  0  0  0  0  0
   -8.3930   21.7210  -30.8180 C   0  0  0  0  0  0  0  0  0  0  0  0
   -7.1870   22.6160  -30.8800 C   0  0  0  0  0  0  0  0  0  0  0  0
   -6.8730   23.3020  -32.0850 C   0  0  0  0  0  0  0  0  0  0  0  0
   -5.7640   24.1670  -32.1490 C   0  0  0  0  0  0  0  0  0  0  0  0
   -5.0060   24.3320  -30.9950 C   0  0  0  0  0  0  0  0  0  0  0  0
   -3.9200   25.1060  -30.8240 N   0  0  0  0  0  0  0  0  0  0  0  0
   -3.5320   24.9620  -29.5610 N   0  0  0  0  0  0  0  0  0  0  0  0
   -4.3680   24.1030  -28.9300 C   0  0  0  0  0  0  0  0  0  0  0  0
   -5.3140   23.6900  -29.8340 C   0  0  0  0  0  0  0  0  0  0  0  0
   -6.3990   22.8260  -29.7250 C   0  0  0  0  0  0  0  0  0  0  0  0
   -5.4330   20.2680  -31.3320 C   0  0  0  0  0  0  0  0  0  0  0  0
   -4.2100   20.6420  -31.8950 C   0  0  0  0  0  0  0  0  0  0  0  0
   -1.2500   20.9680  -31.3860 C   0  0  0  0  0  0  0  0  0  0  0  0
   -1.4020   22.3060  -30.9980 C   0  0  0  0  0  0  0  0  0  0  0  0
   -1.4730   22.6460  -29.6450 C   0  0  0  0  0  0  0  0  0  0  0  0
   -1.3980   21.6480  -28.6620 C   0  0  0  0  0  0  0  0  0  0  0  0
   -1.4660   21.9780  -27.3010 C   0  0  0  0  0  0  0  0  0  0  0  0
   -1.3910   20.9730  -26.3310 C   0  0  0  0  0  0  0  0  0  0  0  0
   -1.2540   19.6350  -26.7130 C   0  0  0  0  0  0  0  0  0  0  0  0
   -1.1810   19.2930  -28.0660 C   0  0  0  0  0  0  0  0  0  0  0  0
   -1.2520   20.2930  -29.0490 C   0  0  0  0  0  0  0  0  0  0  0  0
   -1.1780   19.9630  -30.4120 C   0  0  0  0  0  0  0  0  0  0  0  0
   -2.6890   21.1890  -34.7820 H   0  0  0  0  0  0  0  0  0  0  0  0
   -4.6552   19.3830  -35.0444 H   0  0  0  0  0  0  0  0  0  0  0  0
   -6.8324   18.7157  -34.0361 H   0  0  0  0  0  0  0  0  0  0  0  0
   -7.7858   18.0700  -31.5525 H   0  0  0  0  0  0  0  0  0  0  0  0
   -7.7071   19.4846  -30.4318 H   0  0  0  0  0  0  0  0  0  0  0  0
   -8.8899   19.4770  -33.2563 H   0  0  0  0  0  0  0  0  0  0  0  0
   -9.8112   19.5186  -31.7104 H   0  0  0  0  0  0  0  0  0  0  0  0
   -9.6810   21.6920  -32.4090 H   0  0  0  0  0  0  0  0  0  0  0  0
   -9.2374   22.2749  -30.3818 H   0  0  0  0  0  0  0  0  0  0  0  0
   -8.1644   20.8444  -30.1940 H   0  0  0  0  0  0  0  0  0  0  0  0
   -7.5022   23.1556  -32.9753 H   0  0  0  0  0  0  0  0  0  0  0  0
   -5.5062   24.6939  -33.0795 H   0  0  0  0  0  0  0  0  0  0  0  0
   -4.3003   23.7912  -27.8773 H   0  0  0  0  0  0  0  0  0  0  0  0
   -6.6352   22.3245  -28.7749 H   0  0  0  0  0  0  0  0  0  0  0  0
   -5.6470   20.5075  -30.2799 H   0  0  0  0  0  0  0  0  0  0  0  0
   -3.4687   21.1779  -31.2840 H   0  0  0  0  0  0  0  0  0  0  0  0
   -1.4658   23.0933  -31.7636 H   0  0  0  0  0  0  0  0  0  0  0  0
   -1.5880   23.6993  -29.3495 H   0  0  0  0  0  0  0  0  0  0  0  0
   -1.5785   23.0288  -26.9956 H   0  0  0  0  0  0  0  0  0  0  0  0
   -1.4400   21.2362  -25.2641 H   0  0  0  0  0  0  0  0  0  0  0  0
   -1.2035   18.8485  -25.9456 H   0  0  0  0  0  0  0  0  0  0  0  0
   -1.0678   18.2394  -28.3611 H   0  0  0  0  0  0  0  0  0  0  0  0
   -1.0631   18.9121  -30.7161 H   0  0  0  0  0  0  0  0  0  0  0  0
  1  2  2  0
  2  3  2  0
  2  4  1  0
  4  5  1  0
  5  6  2  0
  6  7  1  0
  7  8  2  0
  8  9  1  0
  9 10  1  0
 10 11  1  0
 11 12  1  0
 12 13  1  0
 13 14  2  0
 14 15  1  0
 15 16  2  0
 16 17  1  0
 17 18  1  0
 18 19  2  0
 19 20  1  0
 20 21  2  0
  8 22  1  0
 22 23  2  0
  2 24  1  0
 24 25  2  0
 25 26  1  0
 26 27  2  0
 27 28  1  0
 28 29  2  0
 29 30  1  0
 30 31  2  0
 31 32  1  0
 32 33  2  0
 23  5  1  0
 33 24  1  0
 21 13  1  0
 32 27  1  0
 20 16  1  0
  4 34  1  0
  6 35  1  0
  7 36  1  0
  9 37  1  0
  9 38  1  0
 10 39  1  0
 10 40  1  0
 11 41  1  0
 12 42  1  0
 12 43  1  0
 14 44  1  0
 15 45  1  0
 19 46  1  0
 21 47  1  0
 22 48  1  0
 23 49  1  0
 25 50  1  0
 26 51  1  0
 28 52  1  0
 29 53  1  0
 30 54  1  0
 31 55  1  0
 33 56  1  0
M  CHG  1  17  -1
M  END
>  <UniqueID>  (2) 
2

>  <SMILES>  (2) 
O=S(=O)(Nc1ccc(CCNCc2ccc3[n-]ncc3c2)cc1)c1ccc2ccccc2c1

>  <Energy>  (2) 
101.15857157022727

>  <Genealogy>  (2) 
O=S(=O)(Nc1ccc(CCNCc2ccc3[n-]ncc3c2)cc1)c1ccc2ccccc2c1 (protonated)
O=S(=O)(Nc1ccc(CCNCc2ccc3[n-]ncc3c2)cc1)c1ccc2ccccc2c1 (3D coordinates assigned)
O=S(=O)(Nc1ccc(CCNCc2ccc3[n-]ncc3c2)cc1)c1ccc2ccccc2c1 (optimized conformer: 101.15857157022727 kcal/mol)

>  <smiles>  (2) 
O=S(=O)(Nc1ccc(CCNCc2ccc3[nH]ncc3c2)cc1)c1ccc2ccccc2c1

>  <score_type>  (2) 
oracle

>  <origin>  (2) 
adgpu

>  <m_score__min__energy>  (2) 
-12.24

>  <m_primary>  (2) 
energy

$$$$
2:0
     RDKit          3D

 43 47  0  0  0  0  0  0  0  0999 V2000
   -6.0890   18.1810  -34.9680 O   0  0  0  0  0  0  0  0  0  0  0  0
   -5.9200   18.3420  -33.7280 C   0  0  0  0  0  0  0  0  0  0  0  0
   -4.6450   18.0660  -33.1410 N   0  0  0  0  0  0  0  0  0  0  0  0
   -3.4110   18.7030  -33.4990 C   0  0  0  0  0  0  0  0  0  0  0  0
   -2.4630   17.9770  -34.2270 C   0  0  0  0  0  0  0  0  0  0  0  0
   -1.2510   18.5680  -34.5850 C   0  0  0  0  0  0  0  0  0  0  0  0
   -0.9890   19.8790  -34.1900 C   0  0  0  0  0  0  0  0  0  0  0  0
   -1.9010   20.5610  -33.4500 N   0  0  0  0  0  0  0  0  0  0  0  0
   -3.0970   20.0150  -33.0900 C   0  0  0  0  0  0  0  0  0  0  0  0
   -3.9780   20.7200  -32.2600 O   0  0  0  0  0  0  0  0  0  0  0  0
   -3.6630   21.8850  -31.5470 C   0  0  0  0  0  0  0  0  0  0  0  0
   -4.5360   22.9880  -31.4920 C   0  0  0  0  0  0  0  0  0  0  0  0
   -4.1950   24.1270  -30.7560 C   0  0  0  0  0  0  0  0  0  0  0  0
   -2.9850   24.1720  -30.0570 C   0  0  0  0  0  0  0  0  0  0  0  0
   -2.6500   25.2780  -29.3390 N   0  0  0  0  0  0  0  0  0  0  0  0
   -1.4840   25.3540  -28.6430 C   0  0  0  0  0  0  0  0  0  0  0  0
   -1.2120   26.3960  -27.9910 O   0  0  0  0  0  0  0  0  0  0  0  0
   -0.5910   24.2770  -28.6490 C   0  0  0  0  0  0  0  0  0  0  0  0
   -0.9070   23.1270  -29.3770 C   0  0  0  0  0  0  0  0  0  0  0  0
   -2.1110   23.0630  -30.0900 C   0  0  0  0  0  0  0  0  0  0  0  0
   -2.4600   21.9230  -30.8290 C   0  0  0  0  0  0  0  0  0  0  0  0
   -7.0720   18.7450  -32.8930 C   0  0  0  0  0  0  0  0  0  0  0  0
   -7.9940   17.8720  -32.3360 C   0  0  0  0  0  0  0  0  0  0  0  0
   -8.9140   18.5610  -31.6230 N   0  0  0  0  0  0  0  0  0  0  0  0
   -8.5290   19.8450  -31.7670 C   0  0  0  0  0  0  0  0  0  0  0  0
   -9.1810   20.9460  -31.2150 C   0  0  0  0  0  0  0  0  0  0  0  0
   -8.6560   22.2180  -31.4790 C   0  0  0  0  0  0  0  0  0  0  0  0
   -7.5120   22.3590  -32.2840 C   0  0  0  0  0  0  0  0  0  0  0  0
   -6.8950   21.2170  -32.8160 C   0  0  0  0  0  0  0  0  0  0  0  0
   -7.4260   19.9960  -32.5270 N   0  0  0  0  0  0  0  0  0  0  0  0
   -2.6735   16.9373  -34.5181 H   0  0  0  0  0  0  0  0  0  0  0  0
   -0.5103   18.0057  -35.1725 H   0  0  0  0  0  0  0  0  0  0  0  0
   -0.0432   20.3613  -34.4778 H   0  0  0  0  0  0  0  0  0  0  0  0
   -5.4937   22.9536  -32.0321 H   0  0  0  0  0  0  0  0  0  0  0  0
   -4.8790   24.9880  -30.7270 H   0  0  0  0  0  0  0  0  0  0  0  0
    0.3519   24.3351  -28.0854 H   0  0  0  0  0  0  0  0  0  0  0  0
   -0.2122   22.2743  -29.3902 H   0  0  0  0  0  0  0  0  0  0  0  0
   -1.7858   21.0540  -30.8451 H   0  0  0  0  0  0  0  0  0  0  0  0
   -7.9794   16.7787  -32.4564 H   0  0  0  0  0  0  0  0  0  0  0  0
  -10.0789   20.8205  -30.5921 H   0  0  0  0  0  0  0  0  0  0  0  0
   -9.1408   23.1097  -31.0548 H   0  0  0  0  0  0  0  0  0  0  0  0
   -7.1034   23.3582  -32.4953 H   0  0  0  0  0  0  0  0  0  0  0  0
   -6.0022   21.3053  -33.4524 H   0  0  0  0  0  0  0  0  0  0  0  0
  1  2  2  0
  2  3  1  0
  3  4  1  0
  4  5  2  0
  5  6  1  0
  6  7  2  0
  7  8  1  0
  8  9  2  0
  9 10  1  0
 10 11  1  0
 11 12  2  0
 12 13  1  0
 13 14  2  0
 14 15  1  0
 15 16  1  0
 16 17  2  0
 16 18  1  0
 18 19  2  0
 19 20  1  0
 20 21  2  0
  2 22  1  0
 22 23  2  0
 23 24  1  0
 24 25  2  0
 25 26  1  0
 26 27  2  0
 27 28  1  0
 28 29  2  0
 29 30  1  0
  9  4  1  0
 21 11  1  0
 30 22  1  0
 20 14  1  0
 30 25  1  0
  5 31  1  0
  6 32  1  0
  7 33  1  0
 12 34  1  0
 13 35  1  0
 18 36  1  0
 19 37  1  0
 21 38  1  0
 23 39  1  0
 26 40  1  0
 27 41  1  0
 28 42  1  0
 29 43  1  0
M  CHG  2   3  -1  15  -1
M  END
>  <UniqueID>  (3) 
3

>  <SMILES>  (3) 
O=C([N-]c1cccnc1Oc1ccc2[n-]c(=O)ccc2c1)c1cnc2ccccn12

>  <Energy>  (3) 
100.74732781983751

>  <Genealogy>  (3) 
O=C([N-]c1cccnc1Oc1ccc2[n-]c(=O)ccc2c1)c1cnc2ccccn12 (protonated)
O=C([N-]c1cccnc1Oc1ccc2[n-]c(=O)ccc2c1)c1cnc2ccccn12 (3D coordinates assigned)
O=C([N-]c1cccnc1Oc1ccc2[n-]c(=O)ccc2c1)c1cnc2ccccn12 (optimized conformer: 100.74732781983751 kcal/mol)

>  <smiles>  (3) 
O=C(Nc1cccnc1Oc1ccc2[nH]c(=O)ccc2c1)c1cnc2ccccn12

>  <score_type>  (3) 
oracle

>  <origin>  (3) 
adgpu

>  <m_score__min__energy>  (3) 
-10.539999999999999

>  <m_primary>  (3) 
energy

$$$$
3:0
     RDKit          3D

 55 58  0  0  0  0  0  0  0  0999 V2000
   -2.6650   16.2190  -35.2830 C   0  0  0  0  0  0  0  0  0  0  0  0
   -3.7070   17.2030  -34.8470 C   0  0  0  0  0  0  0  0  0  0  0  0
   -4.6690   17.4570  -35.6190 O   0  0  0  0  0  0  0  0  0  0  0  0
   -3.6530   17.8460  -33.5680 N   0  0  0  0  0  0  0  0  0  0  0  0
   -3.7790   19.2340  -33.3850 N   0  0  0  0  0  0  0  0  0  0  0  0
   -4.9140   19.9460  -33.4500 C   0  0  0  0  0  0  0  0  0  0  0  0
   -6.5330   19.2680  -33.8250 S   0  0  0  0  0  0  0  0  0  0  0  0
   -7.2150   19.4830  -32.1450 C   0  0  0  0  0  0  0  0  0  0  0  0
   -8.5540   20.7300  -32.1260 S   0  0  0  0  0  0  0  0  0  0  0  0
   -7.4960   22.1020  -31.6640 C   0  0  0  0  0  0  0  0  0  0  0  0
   -7.3240   22.4390  -30.3230 C   0  0  0  0  0  0  0  0  0  0  0  0
   -6.5710   23.5620  -29.9970 C   0  0  0  0  0  0  0  0  0  0  0  0
   -5.9750   24.3080  -31.0200 C   0  0  0  0  0  0  0  0  0  0  0  0
   -5.2710   25.5970  -30.7260 C   0  0  0  0  0  0  0  0  0  0  0  0
   -3.8910   25.3550  -30.4590 O   0  0  0  0  0  0  0  0  0  0  0  0
   -3.4090   24.2890  -29.6860 C   0  0  0  0  0  0  0  0  0  0  0  0
   -3.8000   24.2150  -28.3430 C   0  0  0  0  0  0  0  0  0  0  0  0
   -3.3330   23.1840  -27.5250 C   0  0  0  0  0  0  0  0  0  0  0  0
   -2.4760   22.2110  -28.0440 C   0  0  0  0  0  0  0  0  0  0  0  0
   -2.0920   22.2560  -29.3930 C   0  0  0  0  0  0  0  0  0  0  0  0
   -1.1430   21.2330  -29.9440 C   0  0  0  0  0  0  0  0  0  0  0  0
   -2.5490   23.3030  -30.2080 C   0  0  0  0  0  0  0  0  0  0  0  0
   -6.1450   23.9120  -32.3110 N   0  0  0  0  0  0  0  0  0  0  0  0
   -6.8770   22.8410  -32.6220 N   0  0  0  0  0  0  0  0  0  0  0  0
   -4.6850   21.2480  -33.1970 N   0  0  0  0  0  0  0  0  0  0  0  0
   -3.3850   21.3740  -32.9620 N   0  0  0  0  0  0  0  0  0  0  0  0
   -2.8350   20.1480  -33.0780 C   0  0  0  0  0  0  0  0  0  0  0  0
   -1.3830   19.8900  -32.9530 C   0  0  0  0  0  0  0  0  0  0  0  0
   -0.9250   18.7450  -32.2780 C   0  0  0  0  0  0  0  0  0  0  0  0
    0.4440   18.5000  -32.1460 C   0  0  0  0  0  0  0  0  0  0  0  0
    1.3700   19.3900  -32.6930 C   0  0  0  0  0  0  0  0  0  0  0  0
    0.9290   20.5230  -33.3800 C   0  0  0  0  0  0  0  0  0  0  0  0
   -0.4440   20.7780  -33.5170 C   0  0  0  0  0  0  0  0  0  0  0  0
   -0.8720   21.9170  -34.1990 O   0  0  0  0  0  0  0  0  0  0  0  0
   -2.1905   15.7709  -34.3975 H   0  0  0  0  0  0  0  0  0  0  0  0
   -3.1363   15.4288  -35.8858 H   0  0  0  0  0  0  0  0  0  0  0  0
   -1.9030   16.7348  -35.8858 H   0  0  0  0  0  0  0  0  0  0  0  0
   -7.6167   18.5205  -31.7954 H   0  0  0  0  0  0  0  0  0  0  0  0
   -6.4073   19.8306  -31.4841 H   0  0  0  0  0  0  0  0  0  0  0  0
   -7.7782   21.8244  -29.5318 H   0  0  0  0  0  0  0  0  0  0  0  0
   -6.4452   23.8607  -28.9458 H   0  0  0  0  0  0  0  0  0  0  0  0
   -5.3611   26.2664  -31.5942 H   0  0  0  0  0  0  0  0  0  0  0  0
   -5.7310   26.0637  -29.8425 H   0  0  0  0  0  0  0  0  0  0  0  0
   -4.4799   24.9745  -27.9296 H   0  0  0  0  0  0  0  0  0  0  0  0
   -3.6407   23.1382  -26.4699 H   0  0  0  0  0  0  0  0  0  0  0  0
   -2.1010   21.4071  -27.3935 H   0  0  0  0  0  0  0  0  0  0  0  0
   -0.6520   20.7037  -29.1141 H   0  0  0  0  0  0  0  0  0  0  0  0
   -1.6990   20.5118  -30.5610 H   0  0  0  0  0  0  0  0  0  0  0  0
   -0.3821   21.7334  -30.5610 H   0  0  0  0  0  0  0  0  0  0  0  0
   -2.2338   23.3540  -31.2606 H   0  0  0  0  0  0  0  0  0  0  0  0
   -1.6500   18.0367  -31.8506 H   0  0  0  0  0  0  0  0  0  0  0  0
    0.7927   17.6047  -31.6104 H   0  0  0  0  0  0  0  0  0  0  0  0
    2.4476   19.1987  -32.5828 H   0  0  0  0  0  0  0  0  0  0  0  0
    1.6612   21.2187  -33.8157 H   0  0  0  0  0  0  0  0  0  0  0  0
   -1.8570   22.1110  -34.3430 H   0  0  0  0  0  0  0  0  0  0  0  0
  1  2  1  0
  2  3  2  0
  2  4  1  0
  4  5  1  0
  5  6  1  0
  6  7  1  0
  7  8  1  0
  8  9  1  0
  9 10  1  0
 10 11  2  0
 11 12  1  0
 12 13  2  0
 13 14  1  0
 14 15  1  0
 15 16  1  0
 16 17  2  0
 17 18  1  0
 18 19  2  0
 19 20  1  0
 20 21  1  0
 20 22  2  0
 13 23  1  0
 23 24  2  0
  6 25  2  0
 25 26  1  0
 26 27  2  0
 27 28  1  0
 28 29  2  0
 29 30  1  0
 30 31  2  0
 31 32  1  0
 32 33  2  0
 33 34  1  0
 27  5  1  0
 33 28  1  0
 24 10  1  0
 22 16  1  0
  1 35  1  0
  1 36  1  0
  1 37  1  0
  8 38  1  0
  8 39  1  0
 11 40  1  0
 12 41  1  0
 14 42  1  0
 14 43  1  0
 17 44  1  0
 18 45  1  0
 19 46  1  0
 21 47  1  0
 21 48  1  0
 21 49  1  0
 22 50  1  0
 29 51  1  0
 30 52  1  0
 31 53  1  0
 32 54  1  0
 34 55  1  0
M  CHG  1   4  -1
M  END
>  <UniqueID>  (4) 
4

>  <SMILES>  (4) 
CC(=O)[N-]n1c(SCSc2ccc(COc3cccc(C)c3)nn2)nnc1-c1ccccc1O

>  <Energy>  (4) 
93.68140697619776

>  <Genealogy>  (4) 
CC(=O)[N-]n1c(SCSc2ccc(COc3cccc(C)c3)nn2)nnc1-c1ccccc1O (protonated)
CC(=O)[N-]n1c(SCSc2ccc(COc3cccc(C)c3)nn2)nnc1-c1ccccc1O (3D coordinates assigned)
CC(=O)[N-]n1c(SCSc2ccc(COc3cccc(C)c3)nn2)nnc1-c1ccccc1O (optimized conformer: 93.68140697619776 kcal/mol)

>  <smiles>  (4) 
CC(=O)Nn1c(SCSc2ccc(COc3cccc(C)c3)nn2)nnc1-c1ccccc1O

>  <score_type>  (4) 
oracle

>  <origin>  (4) 
adgpu

>  <m_score__min__energy>  (4) 
-10.43

>  <m_primary>  (4) 
energy

$$$$
4:0
     RDKit          3D

 65 69  0  0  0  0  0  0  0  0999 V2000
    0.8310   20.1000  -33.1550 O   0  0  0  0  0  0  0  0  0  0  0  0
   -0.2960   19.5560  -33.0190 C   0  0  0  0  0  0  0  0  0  0  0  0
   -0.4480   18.1320  -33.1000 N   0  0  0  0  0  0  0  0  0  0  0  0
   -1.5140   17.3780  -33.7040 C   0  0  0  0  0  0  0  0  0  0  0  0
   -2.7810   17.2580  -33.1010 C   0  0  0  0  0  0  0  0  0  0  0  0
   -3.7930   16.5070  -33.7160 C   0  0  0  0  0  0  0  0  0  0  0  0
   -5.3610   16.3020  -32.9400 S   0  0  0  0  0  0  0  0  0  0  0  0
   -5.2220   15.4440  -31.7110 O   0  0  0  0  0  0  0  0  0  0  0  0
   -6.2910   15.6230  -33.9060 O   0  0  0  0  0  0  0  0  0  0  0  0
   -6.0110   17.8640  -32.5070 N   0  0  0  0  0  0  0  0  0  0  0  0
   -7.4380   17.7790  -32.1980 C   0  0  0  0  0  0  0  0  0  0  0  0
   -8.0300   19.1430  -32.5090 C   0  0  0  0  0  0  0  0  0  0  0  0
   -7.0510   19.7970  -33.4730 C   0  0  0  0  0  0  0  0  0  0  0  0
   -5.9030   18.8080  -33.6210 C   0  0  0  0  0  0  0  0  0  0  0  0
   -3.5520   15.8970  -34.9520 C   0  0  0  0  0  0  0  0  0  0  0  0
   -2.3100   16.0380  -35.5720 C   0  0  0  0  0  0  0  0  0  0  0  0
   -1.2900   16.7720  -34.9560 C   0  0  0  0  0  0  0  0  0  0  0  0
   -0.0590   16.8800  -35.6070 O   0  0  0  0  0  0  0  0  0  0  0  0
   -1.4830   20.4050  -32.7880 C   0  0  0  0  0  0  0  0  0  0  0  0
   -2.5190   20.3460  -33.7280 C   0  0  0  0  0  0  0  0  0  0  0  0
   -3.6480   21.1480  -33.5910 C   0  0  0  0  0  0  0  0  0  0  0  0
   -3.7710   22.0130  -32.5070 C   0  0  0  0  0  0  0  0  0  0  0  0
   -2.7640   22.0860  -31.5210 C   0  0  0  0  0  0  0  0  0  0  0  0
   -2.8870   22.9410  -30.3920 C   0  0  0  0  0  0  0  0  0  0  0  0
   -4.2920   23.9960  -30.1440 S   0  0  0  0  0  0  0  0  0  0  0  0
   -4.0860   25.3150  -30.8400 O   0  0  0  0  0  0  0  0  0  0  0  0
   -4.4510   24.2550  -28.6710 O   0  0  0  0  0  0  0  0  0  0  0  0
   -5.7250   23.2210  -30.7740 N   0  0  0  0  0  0  0  0  0  0  0  0
   -6.4830   24.1700  -31.6060 C   0  0  0  0  0  0  0  0  0  0  0  0
   -7.6260   23.4460  -32.3440 C   0  0  0  0  0  0  0  0  0  0  0  0
   -8.0570   22.1510  -31.6320 C   0  0  0  0  0  0  0  0  0  0  0  0
   -7.9730   22.3080  -30.1120 C   0  0  0  0  0  0  0  0  0  0  0  0
   -6.5530   22.7170  -29.6580 C   0  0  0  0  0  0  0  0  0  0  0  0
   -1.8670   22.9620  -29.4300 C   0  0  0  0  0  0  0  0  0  0  0  0
   -0.7490   22.1460  -29.5590 C   0  0  0  0  0  0  0  0  0  0  0  0
   -0.6160   21.3030  -30.6580 C   0  0  0  0  0  0  0  0  0  0  0  0
   -1.6030   21.2670  -31.6640 C   0  0  0  0  0  0  0  0  0  0  0  0
   -2.9782   17.7570  -32.1407 H   0  0  0  0  0  0  0  0  0  0  0  0
   -7.9158   17.0070  -32.8192 H   0  0  0  0  0  0  0  0  0  0  0  0
   -7.6009   17.5060  -31.1449 H   0  0  0  0  0  0  0  0  0  0  0  0
   -9.0190   19.0355  -32.9785 H   0  0  0  0  0  0  0  0  0  0  0  0
   -8.1725   19.7446  -31.5992 H   0  0  0  0  0  0  0  0  0  0  0  0
   -7.5316   19.9764  -34.4461 H   0  0  0  0  0  0  0  0  0  0  0  0
   -6.7036   20.7726  -33.1022 H   0  0  0  0  0  0  0  0  0  0  0  0
   -5.9846   18.2739  -34.5791 H   0  0  0  0  0  0  0  0  0  0  0  0
   -4.9323   19.3253  -33.6070 H   0  0  0  0  0  0  0  0  0  0  0  0
   -4.3431   15.3052  -35.4357 H   0  0  0  0  0  0  0  0  0  0  0  0
   -2.1315   15.5693  -36.5510 H   0  0  0  0  0  0  0  0  0  0  0  0
    0.7150   17.4080  -35.2220 H   0  0  0  0  0  0  0  0  0  0  0  0
   -2.4397   19.6589  -34.5833 H   0  0  0  0  0  0  0  0  0  0  0  0
   -4.4483   21.0982  -34.3440 H   0  0  0  0  0  0  0  0  0  0  0  0
   -4.6649   22.6479  -32.4179 H   0  0  0  0  0  0  0  0  0  0  0  0
   -6.9071   24.9560  -30.9639 H   0  0  0  0  0  0  0  0  0  0  0  0
   -5.8039   24.6134  -32.3491 H   0  0  0  0  0  0  0  0  0  0  0  0
   -8.4921   24.1216  -32.4031 H   0  0  0  0  0  0  0  0  0  0  0  0
   -7.2590   23.1725  -33.3443 H   0  0  0  0  0  0  0  0  0  0  0  0
   -9.0939   21.9140  -31.9126 H   0  0  0  0  0  0  0  0  0  0  0  0
   -7.3803   21.3399  -31.9389 H   0  0  0  0  0  0  0  0  0  0  0  0
   -8.6862   23.0825  -29.7935 H   0  0  0  0  0  0  0  0  0  0  0  0
   -8.2142   21.3380  -29.6528 H   0  0  0  0  0  0  0  0  0  0  0  0
   -6.6397   23.5075  -28.8980 H   0  0  0  0  0  0  0  0  0  0  0  0
   -6.0599   21.8203  -29.2545 H   0  0  0  0  0  0  0  0  0  0  0  0
   -1.9526   23.6327  -28.5623 H   0  0  0  0  0  0  0  0  0  0  0  0
    0.0351   22.1668  -28.7878 H   0  0  0  0  0  0  0  0  0  0  0  0
    0.2701   20.6568  -30.7429 H   0  0  0  0  0  0  0  0  0  0  0  0
  1  2  2  0
  2  3  1  0
  3  4  1  0
  4  5  2  0
  5  6  1  0
  6  7  1  0
  7  8  2  0
  7  9  2  0
  7 10  1  0
 10 11  1  0
 11 12  1  0
 12 13  1  0
 13 14  1  0
  6 15  2  0
 15 16  1  0
 16 17  2  0
 17 18  1  0
  2 19  1  0
 19 20  2  0
 20 21  1  0
 21 22  2  0
 22 23  1  0
 23 24  2  0
 24 25  1  0
 25 26  2  0
 25 27  2  0
 25 28  1  0
 28 29  1  0
 29 30  1  0
 30 31  1  0
 31 32  1  0
 32 33  1  0
 24 34  1  0
 34 35  2  0
 35 36  1  0
 36 37  2  0
 17  4  1  0
 37 19  1  0
 14 10  1  0
 37 23  1  0
 33 28  1  0
  5 38  1  0
 11 39  1  0
 11 40  1  0
 12 41  1  0
 12 42  1  0
 13 43  1  0
 13 44  1  0
 14 45  1  0
 14 46  1  0
 15 47  1  0
 16 48  1  0
 18 49  1  0
 20 50  1  0
 21 51  1  0
 22 52  1  0
 29 53  1  0
 29 54  1  0
 30 55  1  0
 30 56  1  0
 31 57  1  0
 31 58  1  0
 32 59  1  0
 32 60  1  0
 33 61  1  0
 33 62  1  0
 34 63  1  0
 35 64  1  0
 36 65  1  0
M  CHG  1   3  -1
M  END
>  <UniqueID>  (5) 
5

>  <SMILES>  (5) 
O=C([N-]c1cc(S(=O)(=O)N2CCCC2)ccc1O)c1cccc2c(S(=O)(=O)N3CCCCC3)cccc12

>  <Energy>  (5) 
89.73811748911402

>  <Genealogy>  (5) 
O=C([N-]c1cc(S(=O)(=O)N2CCCC2)ccc1O)c1cccc2c(S(=O)(=O)N3CCCCC3)cccc12 (protonated)
O=C([N-]c1cc(S(=O)(=O)N2CCCC2)ccc1O)c1cccc2c(S(=O)(=O)N3CCCCC3)cccc12 (3D coordinates assigned)
O=C([N-]c1cc(S(=O)(=O)N2CCCC2)ccc1O)c1cccc2c(S(=O)(=O)N3CCCCC3)cccc12 (nonaromatic ring conformer: 89.73811748911402 kcal/mol)

>  <smiles>  (5) 
O=C(Nc1cc(S(=O)(=O)N2CCCC2)ccc1O)c1cccc2c(S(=O)(=O)N3CCCCC3)cccc12

>  <score_type>  (5) 
oracle

>  <origin>  (5) 
adgpu

>  <m_score__min__energy>  (5) 
-15.01

>  <m_primary>  (5) 
energy

$$$$
5:0
     RDKit          3D

 70 76  0  0  0  0  0  0  0  0999 V2000
   -4.4840   18.1000  -35.0980 O   0  0  0  0  0  0  0  0  0  0  0  0
   -3.6590   18.3730  -34.1840 C   0  0  0  0  0  0  0  0  0  0  0  0
   -2.2510   18.2360  -34.4100 N   0  0  0  0  0  0  0  0  0  0  0  0
   -1.3530   17.3850  -33.6780 C   0  0  0  0  0  0  0  0  0  0  0  0
   -1.6140   16.0110  -33.5020 C   0  0  0  0  0  0  0  0  0  0  0  0
   -0.7490   15.2190  -32.7410 C   0  0  0  0  0  0  0  0  0  0  0  0
    0.3720   15.7870  -32.1350 C   0  0  0  0  0  0  0  0  0  0  0  0
    0.6260   17.1510  -32.2800 C   0  0  0  0  0  0  0  0  0  0  0  0
   -0.2350   17.9560  -33.0440 C   0  0  0  0  0  0  0  0  0  0  0  0
    0.0570   19.3510  -33.2060 N   0  0  0  0  0  0  0  0  0  0  0  0
   -0.9760   20.3730  -33.0490 C   0  0  0  0  0  0  0  0  0  0  0  0
   -0.5690   21.5480  -33.9680 C   0  0  0  0  0  0  0  0  0  0  0  0
    0.7340   21.1090  -34.5550 C   0  0  0  0  0  0  0  0  0  0  0  0
    1.5800   21.7890  -35.4570 C   0  0  0  0  0  0  0  0  0  0  0  0
    1.2430   23.1190  -36.0210 C   0  0  0  0  0  0  0  0  0  0  0  0
    0.0740   23.7570  -35.7410 N   0  0  0  0  0  0  0  0  0  0  0  0
    0.1950   24.9090  -36.4150 C   0  0  0  0  0  0  0  0  0  0  0  0
   -0.7180   25.9570  -36.4850 C   0  0  0  0  0  0  0  0  0  0  0  0
   -0.3700   27.0780  -37.2600 C   0  0  0  0  0  0  0  0  0  0  0  0
    0.8710   27.1190  -37.9380 C   0  0  0  0  0  0  0  0  0  0  0  0
    1.7700   26.0400  -37.8460 C   0  0  0  0  0  0  0  0  0  0  0  0
    1.3890   24.9490  -37.0660 C   0  0  0  0  0  0  0  0  0  0  0  0
    2.0770   23.8230  -36.8330 N   0  0  0  0  0  0  0  0  0  0  0  0
    2.7800   21.1460  -35.8390 C   0  0  0  0  0  0  0  0  0  0  0  0
    3.1080   19.8750  -35.3360 C   0  0  0  0  0  0  0  0  0  0  0  0
    2.2420   19.2210  -34.4510 C   0  0  0  0  0  0  0  0  0  0  0  0
    2.5820   17.9740  -33.9340 O   0  0  0  0  0  0  0  0  0  0  0  0
    1.0490   19.8570  -34.0890 C   0  0  0  0  0  0  0  0  0  0  0  0
   -4.1120   18.9070  -32.9360 N   0  0  0  0  0  0  0  0  0  0  0  0
   -5.3990   19.5040  -32.7020 C   0  0  0  0  0  0  0  0  0  0  0  0
   -6.5310   18.6820  -32.7720 C   0  0  0  0  0  0  0  0  0  0  0  0
   -7.8010   19.2040  -32.5350 C   0  0  0  0  0  0  0  0  0  0  0  0
   -7.9550   20.5560  -32.2330 C   0  0  0  0  0  0  0  0  0  0  0  0
   -6.8400   21.4050  -32.1810 C   0  0  0  0  0  0  0  0  0  0  0  0
   -7.0830   23.1140  -31.7770 S   0  0  0  0  0  0  0  0  0  0  0  0
   -6.1760   23.9610  -32.6240 O   0  0  0  0  0  0  0  0  0  0  0  0
   -8.4980   23.4890  -32.1260 O   0  0  0  0  0  0  0  0  0  0  0  0
   -6.7370   23.4620  -30.0880 N   0  0  0  0  0  0  0  0  0  0  0  0
   -5.4450   22.8840  -29.6720 C   0  0  0  0  0  0  0  0  0  0  0  0
   -4.2420   23.7770  -30.0640 C   0  0  0  0  0  0  0  0  0  0  0  0
   -4.6320   24.8650  -30.8780 O   0  0  0  0  0  0  0  0  0  0  0  0
   -5.5500   25.6780  -30.1760 C   0  0  0  0  0  0  0  0  0  0  0  0
   -6.8130   24.8970  -29.7530 C   0  0  0  0  0  0  0  0  0  0  0  0
   -5.5570   20.8820  -32.4410 C   0  0  0  0  0  0  0  0  0  0  0  0
   -4.4580   21.7320  -32.4890 O   0  0  0  0  0  0  0  0  0  0  0  0
   -2.5032   15.5594  -33.9660 H   0  0  0  0  0  0  0  0  0  0  0  0
   -0.9529   14.1449  -32.6197 H   0  0  0  0  0  0  0  0  0  0  0  0
    1.0550   15.1598  -31.5433 H   0  0  0  0  0  0  0  0  0  0  0  0
    1.5052   17.5985  -31.7935 H   0  0  0  0  0  0  0  0  0  0  0  0
   -1.9553   19.9741  -33.3522 H   0  0  0  0  0  0  0  0  0  0  0  0
   -1.0615   20.6967  -32.0012 H   0  0  0  0  0  0  0  0  0  0  0  0
   -1.3198   21.7070  -34.7561 H   0  0  0  0  0  0  0  0  0  0  0  0
   -0.4911   22.5028  -33.4274 H   0  0  0  0  0  0  0  0  0  0  0  0
   -1.6793   25.9102  -35.9523 H   0  0  0  0  0  0  0  0  0  0  0  0
   -1.0657   27.9264  -37.3393 H   0  0  0  0  0  0  0  0  0  0  0  0
    1.1351   28.0002  -38.5412 H   0  0  0  0  0  0  0  0  0  0  0  0
    2.7371   26.0568  -38.3699 H   0  0  0  0  0  0  0  0  0  0  0  0
    3.4655   21.6467  -36.5386 H   0  0  0  0  0  0  0  0  0  0  0  0
    4.0488   19.3922  -35.6388 H   0  0  0  0  0  0  0  0  0  0  0  0
   -6.4164   17.6156  -33.0161 H   0  0  0  0  0  0  0  0  0  0  0  0
   -8.6829   18.5485  -32.5863 H   0  0  0  0  0  0  0  0  0  0  0  0
   -8.9586   20.9600  -32.0340 H   0  0  0  0  0  0  0  0  0  0  0  0
   -5.4501   22.7588  -28.5792 H   0  0  0  0  0  0  0  0  0  0  0  0
   -5.3282   21.9201  -30.1890 H   0  0  0  0  0  0  0  0  0  0  0  0
   -3.7769   24.1684  -29.1472 H   0  0  0  0  0  0  0  0  0  0  0  0
   -3.5344   23.1604  -30.6378 H   0  0  0  0  0  0  0  0  0  0  0  0
   -5.0578   26.0715  -29.2744 H   0  0  0  0  0  0  0  0  0  0  0  0
   -5.8638   26.4913  -30.8469 H   0  0  0  0  0  0  0  0  0  0  0  0
   -6.9405   24.9976  -28.6651 H   0  0  0  0  0  0  0  0  0  0  0  0
   -7.6649   25.3212  -30.3047 H   0  0  0  0  0  0  0  0  0  0  0  0
  1  2  2  0
  2  3  1  0
  3  4  1  0
  4  5  2  0
  5  6  1  0
  6  7  2  0
  7  8  1  0
  8  9  2  0
  9 10  1  0
 10 11  1  0
 11 12  1  0
 12 13  1  0
 13 14  2  0
 14 15  1  0
 15 16  2  0
 16 17  1  0
 17 18  2  0
 18 19  1  0
 19 20  2  0
 20 21  1  0
 21 22  2  0
 22 23  1  0
 14 24  1  0
 24 25  2  0
 25 26  1  0
 26 27  1  0
 26 28  2  0
  2 29  1  0
 29 30  1  0
 30 31  2  0
 31 32  1  0
 32 33  2  0
 33 34  1  0
 34 35  1  0
 35 36  2  0
 35 37  2  0
 35 38  1  0
 38 39  1  0
 39 40  1  0
 40 41  1  0
 41 42  1  0
 42 43  1  0
 34 44  2  0
 44 45  1  0
  9  4  1  0
 28 10  1  0
 44 30  1  0
 28 13  1  0
 43 38  1  0
 23 15  1  0
 22 17  1  0
  5 46  1  0
  6 47  1  0
  7 48  1  0
  8 49  1  0
 11 50  1  0
 11 51  1  0
 12 52  1  0
 12 53  1  0
 18 54  1  0
 19 55  1  0
 20 56  1  0
 21 57  1  0
 24 58  1  0
 25 59  1  0
 31 60  1  0
 32 61  1  0
 33 62  1  0
 39 63  1  0
 39 64  1  0
 40 65  1  0
 40 66  1  0
 42 67  1  0
 42 68  1  0
 43 69  1  0
 43 70  1  0
M  CHG  5   3  -1  23  -1  27  -1  29  -1  45  -1
M  END
>  <UniqueID>  (6) 
6

>  <SMILES>  (6) 
O=C([N-]c1ccccc1N1CCc2c(-c3nc4ccccc4[n-]3)ccc([O-])c21)[N-]c1cccc(S(=O)(=O)N2CCOCC2)c1[O-]

>  <Energy>  (6) 
160.81626523133934

>  <Genealogy>  (6) 
O=C([N-]c1ccccc1N1CCc2c(-c3nc4ccccc4[n-]3)ccc([O-])c21)[N-]c1cccc(S(=O)(=O)N2CCOCC2)c1[O-] (protonated)
O=C([N-]c1ccccc1N1CCc2c(-c3nc4ccccc4[n-]3)ccc([O-])c21)[N-]c1cccc(S(=O)(=O)N2CCOCC2)c1[O-] (3D coordinates assigned)
O=C([N-]c1ccccc1N1CCc2c(-c3nc4ccccc4[n-]3)ccc([O-])c21)[N-]c1cccc(S(=O)(=O)N2CCOCC2)c1[O-] (nonaromatic ring conformer: 160.81626523133934 kcal/mol)

>  <smiles>  (6) 
O=C(Nc1ccccc1N1CCc2c(-c3nc4ccccc4[nH]3)ccc(O)c21)Nc1cccc(S(=O)(=O)N2CCOCC2)c1O

>  <score_type>  (6) 
oracle

>  <origin>  (6) 
adgpu

>  <m_score__min__energy>  (6) 
-17.699999999999999

>  <m_primary>  (6) 
energy

$$$$
6:0
     RDKit          3D

 45 47  0  0  0  0  0  0  0  0999 V2000
   -4.2770   25.2960  -31.2200 O   0  0  0  0  0  0  0  0  0  0  0  0
   -4.0550   24.9050  -30.0420 C   0  0  0  0  0  0  0  0  0  0  0  0
   -5.1630   24.2820  -29.2440 C   0  0  0  0  0  0  0  0  0  0  0  0
   -6.4480   24.2970  -29.9620 N   0  0  0  0  0  0  0  0  0  0  0  0
   -7.2150   23.0530  -29.7960 C   0  0  0  0  0  0  0  0  0  0  0  0
   -7.0540   22.1500  -30.9920 C   0  0  0  0  0  0  0  0  0  0  0  0
   -5.8000   21.9980  -31.6040 C   0  0  0  0  0  0  0  0  0  0  0  0
   -5.6490   21.1430  -32.7000 C   0  0  0  0  0  0  0  0  0  0  0  0
   -6.7500   20.4410  -33.1960 C   0  0  0  0  0  0  0  0  0  0  0  0
   -8.0090   20.5930  -32.5990 C   0  0  0  0  0  0  0  0  0  0  0  0
   -9.1140   19.8990  -33.0870 O   0  0  0  0  0  0  0  0  0  0  0  0
   -8.1590   21.4470  -31.5000 C   0  0  0  0  0  0  0  0  0  0  0  0
   -2.7400   24.9850  -29.4770 N   0  0  0  0  0  0  0  0  0  0  0  0
   -2.0240   23.9390  -28.8030 C   0  0  0  0  0  0  0  0  0  0  0  0
   -1.1710   23.0610  -29.5000 C   0  0  0  0  0  0  0  0  0  0  0  0
   -0.4660   22.0690  -28.8150 C   0  0  0  0  0  0  0  0  0  0  0  0
   -0.5930   21.9490  -27.4300 C   0  0  0  0  0  0  0  0  0  0  0  0
   -1.4160   22.8280  -26.7250 C   0  0  0  0  0  0  0  0  0  0  0  0
   -2.1220   23.8300  -27.4030 C   0  0  0  0  0  0  0  0  0  0  0  0
   -3.1700   24.9480  -26.4620 S   0  0  0  0  0  0  0  0  0  0  0  0
   -1.8100   26.0420  -26.0470 C   0  0  0  0  0  0  0  0  0  0  0  0
   -1.6070   26.4440  -24.7210 C   0  0  0  0  0  0  0  0  0  0  0  0
   -0.5420   27.2920  -24.4010 C   0  0  0  0  0  0  0  0  0  0  0  0
    0.3240   27.7370  -25.4050 C   0  0  0  0  0  0  0  0  0  0  0  0
    0.1260   27.3330  -26.7290 C   0  0  0  0  0  0  0  0  0  0  0  0
   -0.9380   26.4850  -27.0500 C   0  0  0  0  0  0  0  0  0  0  0  0
   -4.8947   23.2387  -29.0215 H   0  0  0  0  0  0  0  0  0  0  0  0
   -5.2860   24.8714  -28.3234 H   0  0  0  0  0  0  0  0  0  0  0  0
   -6.2640   24.4400  -30.9840 H   0  0  0  0  0  0  0  0  0  0  0  0
   -6.8565   22.5274  -28.8987 H   0  0  0  0  0  0  0  0  0  0  0  0
   -8.2796   23.3109  -29.6949 H   0  0  0  0  0  0  0  0  0  0  0  0
   -4.9322   22.5540  -31.2197 H   0  0  0  0  0  0  0  0  0  0  0  0
   -4.6626   21.0231  -33.1719 H   0  0  0  0  0  0  0  0  0  0  0  0
   -6.6287   19.7673  -34.0571 H   0  0  0  0  0  0  0  0  0  0  0  0
   -9.0090   19.0810  -33.6750 H   0  0  0  0  0  0  0  0  0  0  0  0
   -9.1470   21.5682  -31.0319 H   0  0  0  0  0  0  0  0  0  0  0  0
   -1.0596   23.1573  -30.5901 H   0  0  0  0  0  0  0  0  0  0  0  0
    0.1905   21.3810  -29.3678 H   0  0  0  0  0  0  0  0  0  0  0  0
   -0.0438   21.1609  -26.8940 H   0  0  0  0  0  0  0  0  0  0  0  0
   -1.5107   22.7338  -25.6331 H   0  0  0  0  0  0  0  0  0  0  0  0
   -2.2860   26.0924  -23.9302 H   0  0  0  0  0  0  0  0  0  0  0  0
   -0.3854   27.6091  -23.3594 H   0  0  0  0  0  0  0  0  0  0  0  0
    1.1610   28.4049  -25.1531 H   0  0  0  0  0  0  0  0  0  0  0  0
    0.8078   27.6826  -27.5183 H   0  0  0  0  0  0  0  0  0  0  0  0
   -1.0907   26.1652  -28.0913 H   0  0  0  0  0  0  0  0  0  0  0  0
  1  2  2  0
  2  3  1  0
  3  4  1  0
  4  5  1  0
  5  6  1  0
  6  7  2  0
  7  8  1  0
  8  9  2  0
  9 10  1  0
 10 11  1  0
 10 12  2  0
  2 13  1  0
 13 14  1  0
 14 15  2  0
 15 16  1  0
 16 17  2  0
 17 18  1  0
 18 19  2  0
 19 20  1  0
 20 21  1  0
 21 22  2  0
 22 23  1  0
 23 24  2  0
 24 25  1  0
 25 26  2  0
 12  6  1  0
 19 14  1  0
 26 21  1  0
  3 27  1  0
  3 28  1  0
  4 29  1  0
  5 30  1  0
  5 31  1  0
  7 32  1  0
  8 33  1  0
  9 34  1  0
 11 35  1  0
 12 36  1  0
 15 37  1  0
 16 38  1  0
 17 39  1  0
 18 40  1  0
 22 41  1  0
 23 42  1  0
 24 43  1  0
 25 44  1  0
 26 45  1  0
M  CHG  1  13  -1
M  END
>  <UniqueID>  (7) 
7

>  <SMILES>  (7) 
O=C(CNCc1cccc(O)c1)[N-]c1ccccc1Sc1ccccc1

>  <Energy>  (7) 
43.225714713332096

>  <Genealogy>  (7) 
O=C(CNCc1cccc(O)c1)[N-]c1ccccc1Sc1ccccc1 (protonated)
O=C(CNCc1cccc(O)c1)[N-]c1ccccc1Sc1ccccc1 (3D coordinates assigned)
O=C(CNCc1cccc(O)c1)[N-]c1ccccc1Sc1ccccc1 (optimized conformer: 43.225714713332096 kcal/mol)

>  <smiles>  (7) 
O=C(CNCc1cccc(O)c1)Nc1ccccc1Sc1ccccc1

>  <score_type>  (7) 
oracle

>  <origin>  (7) 
adgpu

>  <m_score__min__energy>  (7) 
-10.119999999999999

>  <m_primary>  (7) 
energy

$$$$
7:0
     RDKit          3D

 26 27  0  0  0  0  0  0  0  0999 V2000
   -2.6350   24.3920  -29.3260 C   0  0  0  0  0  0  0  0  0  0  0  0
   -3.4860   24.9920  -30.2980 O   0  0  0  0  0  0  0  0  0  0  0  0
   -4.7460   24.4950  -30.6620 C   0  0  0  0  0  0  0  0  0  0  0  0
   -4.8040   23.4290  -31.5680 C   0  0  0  0  0  0  0  0  0  0  0  0
   -6.0350   22.8980  -31.9620 C   0  0  0  0  0  0  0  0  0  0  0  0
   -7.2310   23.4270  -31.4520 C   0  0  0  0  0  0  0  0  0  0  0  0
   -8.5590   22.8780  -31.8960 C   0  0  0  0  0  0  0  0  0  0  0  0
   -9.0900   21.5010  -30.8210 S   0  0  0  0  0  0  0  0  0  0  0  0
   -8.3470   20.2260  -31.8350 C   0  0  0  0  0  0  0  0  0  0  0  0
   -8.2980   18.9250  -31.4790 N   0  0  0  0  0  0  0  0  0  0  0  0
   -7.6680   18.3710  -32.5330 C   0  0  0  0  0  0  0  0  0  0  0  0
   -7.3580   19.2900  -33.4610 N   0  0  0  0  0  0  0  0  0  0  0  0
   -7.7790   20.4650  -33.0320 N   0  0  0  0  0  0  0  0  0  0  0  0
   -7.1770   24.4970  -30.5470 C   0  0  0  0  0  0  0  0  0  0  0  0
   -5.9450   25.0280  -30.1520 C   0  0  0  0  0  0  0  0  0  0  0  0
   -2.9943   24.6453  -28.3177 H   0  0  0  0  0  0  0  0  0  0  0  0
   -2.6443   23.2996  -29.4548 H   0  0  0  0  0  0  0  0  0  0  0  0
   -1.6092   24.7677  -29.4548 H   0  0  0  0  0  0  0  0  0  0  0  0
   -3.8728   23.0061  -31.9729 H   0  0  0  0  0  0  0  0  0  0  0  0
   -6.0670   22.0613  -32.6754 H   0  0  0  0  0  0  0  0  0  0  0  0
   -9.3119   23.6788  -31.8531 H   0  0  0  0  0  0  0  0  0  0  0  0
   -8.4562   22.5005  -32.9241 H   0  0  0  0  0  0  0  0  0  0  0  0
   -7.4365   17.2993  -32.6221 H   0  0  0  0  0  0  0  0  0  0  0  0
   -6.8690   19.1260  -34.3690 H   0  0  0  0  0  0  0  0  0  0  0  0
   -8.1092   24.9211  -30.1455 H   0  0  0  0  0  0  0  0  0  0  0  0
   -5.9127   25.8657  -29.4398 H   0  0  0  0  0  0  0  0  0  0  0  0
  1  2  1  0
  2  3  1  0
  3  4  2  0
  4  5  1  0
  5  6  2  0
  6  7  1  0
  7  8  1  0
  8  9  1  0
  9 10  1  0
 10 11  2  0
 11 12  1  0
 12 13  1  0
  6 14  1  0
 14 15  2  0
 15  3  1  0
 13  9  2  0
  1 16  1  0
  1 17  1  0
  1 18  1  0
  4 19  1  0
  5 20  1  0
  7 21  1  0
  7 22  1  0
 11 23  1  0
 12 24  1  0
 14 25  1  0
 15 26  1  0
M  END
>  <UniqueID>  (8) 
8

>  <SMILES>  (8) 
COc1ccc(CSc2nc[nH]n2)cc1

>  <Energy>  (8) 
53.43859297562523

>  <Genealogy>  (8) 
COc1ccc(CSc2nc[nH]n2)cc1 (3D coordinates assigned)
COc1ccc(CSc2nc[nH]n2)cc1 (optimized conformer: 53.43859297562523 kcal/mol)

>  <smiles>  (8) 
COc1ccc(CSc2nc[nH]n2)cc1

>  <score_type>  (8) 
oracle

>  <origin>  (8) 
adgpu

>  <m_score__min__energy>  (8) 
-6.5599999999999996

>  <m_primary>  (8) 
energy

$$$$
8:0
     RDKit          3D

 42 44  0  0  0  0  0  0  0  0999 V2000
   -3.0374   23.4843  -26.9432 H   0  0  0  0  0  0  0  0  0  0  0  0
   -2.9220   23.0450  -27.9450 C   0  0  0  0  0  0  0  0  0  0  0  0
   -3.5540   23.7580  -29.0680 C   0  0  0  0  0  0  0  0  0  0  0  0
   -3.1000   24.8950  -29.7050 C   0  0  0  0  0  0  0  0  0  0  0  0
   -1.9860   25.6420  -29.3420 O   0  0  0  0  0  0  0  0  0  0  0  0
   -3.8750   25.1810  -30.7680 N   0  0  0  0  0  0  0  0  0  0  0  0
   -4.7800   24.1780  -30.7570 C   0  0  0  0  0  0  0  0  0  0  0  0
   -5.6960   24.0750  -31.6140 O   0  0  0  0  0  0  0  0  0  0  0  0
   -4.6070   23.2920  -29.7560 N   0  0  0  0  0  0  0  0  0  0  0  0
   -5.1660   22.4300  -29.5640 H   0  0  0  0  0  0  0  0  0  0  0  0
   -2.2150   21.9020  -28.0370 C   0  0  0  0  0  0  0  0  0  0  0  0
   -2.0190   21.0560  -26.9670 C   0  0  0  0  0  0  0  0  0  0  0  0
   -2.3517   21.2489  -25.9364 H   0  0  0  0  0  0  0  0  0  0  0  0
   -1.3590   19.9590  -27.3760 N   0  0  0  0  0  0  0  0  0  0  0  0
   -1.1310   20.1680  -28.6910 C   0  0  0  0  0  0  0  0  0  0  0  0
   -0.4760   19.2820  -29.4570 C   0  0  0  0  0  0  0  0  0  0  0  0
   -0.3329   19.5011  -30.5254 H   0  0  0  0  0  0  0  0  0  0  0  0
    0.0680   17.9970  -28.8940 C   0  0  0  0  0  0  0  0  0  0  0  0
   -0.1475   17.1779  -29.5959 H   0  0  0  0  0  0  0  0  0  0  0  0
   -0.4127   17.8109  -27.9222 H   0  0  0  0  0  0  0  0  0  0  0  0
    1.5820   18.0850  -28.6780 C   0  0  0  0  0  0  0  0  0  0  0  0
    2.0941   17.8072  -29.6111 H   0  0  0  0  0  0  0  0  0  0  0  0
    1.8577   17.3982  -27.8642 H   0  0  0  0  0  0  0  0  0  0  0  0
    2.0030   19.4970  -28.2810 C   0  0  0  0  0  0  0  0  0  0  0  0
    2.0271   19.5777  -27.1842 H   0  0  0  0  0  0  0  0  0  0  0  0
    3.0034   19.7089  -28.6863 H   0  0  0  0  0  0  0  0  0  0  0  0
    1.2820   20.2222  -28.6863 H   0  0  0  0  0  0  0  0  0  0  0  0
   -1.6140   21.3630  -29.1330 N   0  0  0  0  0  0  0  0  0  0  0  0
   -1.2220   22.0250  -30.3960 C   0  0  0  0  0  0  0  0  0  0  0  0
   -1.5212   23.0828  -30.3556 H   0  0  0  0  0  0  0  0  0  0  0  0
   -0.1319   21.9370  -30.5141 H   0  0  0  0  0  0  0  0  0  0  0  0
   -1.8910   21.3660  -31.5850 C   0  0  0  0  0  0  0  0  0  0  0  0
   -3.2920   21.4380  -31.6980 C   0  0  0  0  0  0  0  0  0  0  0  0
   -3.8732   21.9697  -30.9302 H   0  0  0  0  0  0  0  0  0  0  0  0
   -3.9520   20.8420  -32.7740 C   0  0  0  0  0  0  0  0  0  0  0  0
   -5.0466   20.9140  -32.8556 H   0  0  0  0  0  0  0  0  0  0  0  0
   -3.2240   20.1550  -33.7460 C   0  0  0  0  0  0  0  0  0  0  0  0
   -3.7442   19.6927  -34.5979 H   0  0  0  0  0  0  0  0  0  0  0  0
   -1.8360   20.0540  -33.6380 C   0  0  0  0  0  0  0  0  0  0  0  0
   -1.2673   19.5056  -34.4034 H   0  0  0  0  0  0  0  0  0  0  0  0
   -1.1620   20.6460  -32.5620 C   0  0  0  0  0  0  0  0  0  0  0  0
    0.5850   20.4440  -32.4800 Cl  0  0  0  0  0  0  0  0  0  0  0  0
  1  2  1  0
  2  3  1  0
  3  4  2  0
  4  5  1  0
  4  6  1  0
  6  7  1  0
  7  8  2  0
  7  9  1  0
  9 10  1  0
  2 11  2  0
 11 12  1  0
 12 13  1  0
 12 14  2  0
 14 15  1  0
 15 16  2  0
 16 17  1  0
 16 18  1  0
 18 19  1  0
 18 20  1  0
 18 21  1  0
 21 22  1  0
 21 23  1  0
 21 24  1  0
 24 25  1  0
 24 26  1  0
 24 27  1  0
 15 28  1  0
 28 29  1  0
 29 30  1  0
 29 31  1  0
 29 32  1  0
 32 33  2  0
 33 34  1  0
 33 35  1  0
 35 36  1  0
 35 37  2  0
 37 38  1  0
 37 39  1  0
 39 40  1  0
 39 41  2  0
 41 42  1  0
  9  3  1  0
 28 11  1  0
 41 32  1  0
M  CHG  2   5  -1   6  -1
M  END
>  <UniqueID>  (9) 
9

>  <SMILES>  (9) 
CCC/C=c1\nc/c(=C/c2[nH]c(=O)[n-]c2[O-])n1Cc1ccccc1Cl

>  <Energy>  (9) 
114.74566636222161

>  <Genealogy>  (9) 
CCCC=c1ncc(=Cc2[nH]c(=O)[n-]c2[O-])n1Cc1ccccc1Cl (protonated)
CCC/C=c1\nc/c(=C/c2[nH]c(=O)[n-]c2[O-])n1Cc1ccccc1Cl (cis-trans isomerization)
CCC/C=c1\nc/c(=C/c2[nH]c(=O)[n-]c2[O-])n1Cc1ccccc1Cl (3D coordinates assigned)
CCC/C=c1\nc/c(=C/c2[nH]c(=O)[n-]c2[O-])n1Cc1ccccc1Cl (optimized conformer: 114.74566636222161 kcal/mol)

>  <smiles>  (9) 
CCCC=c1ncc(=Cc2[nH]c(=O)[nH]c2O)n1Cc1ccccc1Cl

>  <score_type>  (9) 
oracle

>  <origin>  (9) 
adgpu

>  <m_score__min__energy>  (9) 
-11.390000000000001

>  <m_primary>  (9) 
energy

$$$$
9:0
     RDKit          3D

 56 60  0  0  0  0  0  0  0  0999 V2000
   -3.3120   21.5410  -33.0750 C   0  0  0  0  0  0  0  0  0  0  0  0
   -3.4510   22.3080  -31.8840 O   0  0  0  0  0  0  0  0  0  0  0  0
   -4.6360   22.9390  -31.4730 C   0  0  0  0  0  0  0  0  0  0  0  0
   -5.7130   23.1400  -32.3600 C   0  0  0  0  0  0  0  0  0  0  0  0
   -6.8760   23.7820  -31.9290 C   0  0  0  0  0  0  0  0  0  0  0  0
   -6.9840   24.2240  -30.6110 C   0  0  0  0  0  0  0  0  0  0  0  0
   -5.9280   24.0290  -29.7190 C   0  0  0  0  0  0  0  0  0  0  0  0
   -4.7460   23.3940  -30.1400 C   0  0  0  0  0  0  0  0  0  0  0  0
   -3.6410   23.1690  -29.1760 C   0  0  0  0  0  0  0  0  0  0  0  0
   -3.1680   24.2230  -28.4640 N   0  0  0  0  0  0  0  0  0  0  0  0
   -2.1550   24.0900  -27.5740 C   0  0  0  0  0  0  0  0  0  0  0  0
   -1.7010   25.2090  -26.8700 C   0  0  0  0  0  0  0  0  0  0  0  0
   -0.6430   25.0950  -25.9550 C   0  0  0  0  0  0  0  0  0  0  0  0
   -0.1870   26.2470  -25.2200 N   0  0  0  0  0  0  0  0  0  0  0  0
   -1.0860   26.9720  -24.3150 C   0  0  0  0  0  0  0  0  0  0  0  0
   -0.4300   27.1590  -22.9300 C   0  0  0  0  0  0  0  0  0  0  0  0
    1.0480   27.1530  -22.9720 N   0  0  0  0  0  0  0  0  0  0  0  0
    1.5820   27.6670  -24.2410 C   0  0  0  0  0  0  0  0  0  0  0  0
    1.1860   26.7380  -25.3970 C   0  0  0  0  0  0  0  0  0  0  0  0
   -0.0520   23.8390  -25.7480 C   0  0  0  0  0  0  0  0  0  0  0  0
   -0.5010   22.7170  -26.4500 C   0  0  0  0  0  0  0  0  0  0  0  0
   -1.5650   22.8230  -27.3710 C   0  0  0  0  0  0  0  0  0  0  0  0
   -2.0430   21.7400  -28.0760 N   0  0  0  0  0  0  0  0  0  0  0  0
   -1.4910   20.4240  -27.8820 C   0  0  0  0  0  0  0  0  0  0  0  0
   -2.0990   19.5280  -26.9880 C   0  0  0  0  0  0  0  0  0  0  0  0
   -1.5610   18.2520  -26.7990 C   0  0  0  0  0  0  0  0  0  0  0  0
   -0.4130   17.8660  -27.4970 C   0  0  0  0  0  0  0  0  0  0  0  0
    0.1990   18.7560  -28.3860 C   0  0  0  0  0  0  0  0  0  0  0  0
   -0.3360   20.0330  -28.5780 C   0  0  0  0  0  0  0  0  0  0  0  0
   -3.0730   21.8970  -28.9700 C   0  0  0  0  0  0  0  0  0  0  0  0
   -3.5320   20.8960  -29.5910 O   0  0  0  0  0  0  0  0  0  0  0  0
   -3.1215   20.4896  -32.8139 H   0  0  0  0  0  0  0  0  0  0  0  0
   -4.2373   21.6102  -33.6658 H   0  0  0  0  0  0  0  0  0  0  0  0
   -2.4698   21.9305  -33.6658 H   0  0  0  0  0  0  0  0  0  0  0  0
   -5.6368   22.7885  -33.3995 H   0  0  0  0  0  0  0  0  0  0  0  0
   -7.7084   23.9393  -32.6307 H   0  0  0  0  0  0  0  0  0  0  0  0
   -7.9023   24.7269  -30.2737 H   0  0  0  0  0  0  0  0  0  0  0  0
   -6.0212   24.3747  -28.6789 H   0  0  0  0  0  0  0  0  0  0  0  0
   -2.1769   26.1870  -27.0345 H   0  0  0  0  0  0  0  0  0  0  0  0
   -1.3114   27.9594  -24.7442 H   0  0  0  0  0  0  0  0  0  0  0  0
   -2.0109   26.3892  -24.1929 H   0  0  0  0  0  0  0  0  0  0  0  0
   -0.7626   28.1216  -22.5143 H   0  0  0  0  0  0  0  0  0  0  0  0
   -0.7395   26.3065  -22.3075 H   0  0  0  0  0  0  0  0  0  0  0  0
    1.3960   26.1760  -22.8230 H   0  0  0  0  0  0  0  0  0  0  0  0
    1.4130   27.7430  -22.1880 H   0  0  0  0  0  0  0  0  0  0  0  0
    1.1746   28.6718  -24.4263 H   0  0  0  0  0  0  0  0  0  0  0  0
    2.6792   27.7129  -24.1767 H   0  0  0  0  0  0  0  0  0  0  0  0
    1.2521   27.2923  -26.3448 H   0  0  0  0  0  0  0  0  0  0  0  0
    1.8709   25.8774  -25.4102 H   0  0  0  0  0  0  0  0  0  0  0  0
    0.7721   23.7367  -25.0267 H   0  0  0  0  0  0  0  0  0  0  0  0
   -0.0203   21.7418  -26.2830 H   0  0  0  0  0  0  0  0  0  0  0  0
   -3.0005   19.8310  -26.4353 H   0  0  0  0  0  0  0  0  0  0  0  0
   -2.0413   17.5510  -26.1005 H   0  0  0  0  0  0  0  0  0  0  0  0
    0.0095   16.8615  -27.3471 H   0  0  0  0  0  0  0  0  0  0  0  0
    1.1022   18.4506  -28.9345 H   0  0  0  0  0  0  0  0  0  0  0  0
    0.1484   20.7324  -29.2752 H   0  0  0  0  0  0  0  0  0  0  0  0
  1  2  1  0
  2  3  1  0
  3  4  2  0
  4  5  1  0
  5  6  2  0
  6  7  1  0
  7  8  2  0
  8  9  1  0
  9 10  2  0
 10 11  1  0
 11 12  2  0
 12 13  1  0
 13 14  1  0
 14 15  1  0
 15 16  1  0
 16 17  1  0
 17 18  1  0
 18 19  1  0
 13 20  2  0
 20 21  1  0
 21 22  2  0
 22 23  1  0
 23 24  1  0
 24 25  2  0
 25 26  1  0
 26 27  2  0
 27 28  1  0
 28 29  2  0
 23 30  1  0
 30 31  2  0
  8  3  1  0
 30  9  1  0
 22 11  1  0
 29 24  1  0
 19 14  1  0
  1 32  1  0
  1 33  1  0
  1 34  1  0
  4 35  1  0
  5 36  1  0
  6 37  1  0
  7 38  1  0
 12 39  1  0
 15 40  1  0
 15 41  1  0
 16 42  1  0
 16 43  1  0
 17 44  1  0
 17 45  1  0
 18 46  1  0
 18 47  1  0
 19 48  1  0
 19 49  1  0
 20 50  1  0
 21 51  1  0
 25 52  1  0
 26 53  1  0
 27 54  1  0
 28 55  1  0
 29 56  1  0
M  CHG  1  17   1
M  END
>  <UniqueID>  (10) 
10

>  <SMILES>  (10) 
COc1ccccc1-c1nc2cc(N3CC[NH2+]CC3)ccc2n(-c2ccccc2)c1=O

>  <Energy>  (10) 
91.43101695932772

>  <Genealogy>  (10) 
COc1ccccc1-c1nc2cc(N3CC[NH2+]CC3)ccc2n(-c2ccccc2)c1=O (protonated)
COc1ccccc1-c1nc2cc(N3CC[NH2+]CC3)ccc2n(-c2ccccc2)c1=O (3D coordinates assigned)
COc1ccccc1-c1nc2cc(N3CC[NH2+]CC3)ccc2n(-c2ccccc2)c1=O (nonaromatic ring conformer: 91.43101695932772 kcal/mol)

>  <smiles>  (10) 
COc1ccccc1-c1nc2cc(N3CCNCC3)ccc2n(-c2ccccc2)c1=O

>  <score_type>  (10) 
oracle

>  <origin>  (10) 
adgpu

>  <m_score__min__energy>  (10) 
-9.1300000000000008

>  <m_primary>  (10) 
energy

$$$$
10:0
     RDKit          3D

 64 67  0  0  0  0  0  0  0  0999 V2000
   -5.9870   18.4240  -34.6390 C   0  0  0  0  0  0  0  0  0  0  0  0
   -6.2970   16.9390  -33.7030 S   0  0  0  0  0  0  0  0  0  0  0  0
   -7.2050   16.0430  -34.4960 O   0  0  0  0  0  0  0  0  0  0  0  0
   -4.9840   16.2390  -33.4950 O   0  0  0  0  0  0  0  0  0  0  0  0
   -6.9980   17.3440  -32.1480 N   0  0  0  0  0  0  0  0  0  0  0  0
   -6.0640   18.0590  -31.2540 C   0  0  0  0  0  0  0  0  0  0  0  0
   -5.9050   19.5450  -31.6090 C   0  0  0  0  0  0  0  0  0  0  0  0
   -7.2230   20.1600  -31.7870 N   0  0  0  0  0  0  0  0  0  0  0  0
   -7.5650   21.3970  -31.1360 C   0  0  0  0  0  0  0  0  0  0  0  0
   -8.7090   21.5300  -30.6230 O   0  0  0  0  0  0  0  0  0  0  0  0
   -6.5950   22.5120  -31.0410 C   0  0  0  0  0  0  0  0  0  0  0  0
   -6.9920   23.8310  -31.3200 C   0  0  0  0  0  0  0  0  0  0  0  0
   -6.0800   24.8830  -31.2060 C   0  0  0  0  0  0  0  0  0  0  0  0
   -4.7660   24.6340  -30.8010 C   0  0  0  0  0  0  0  0  0  0  0  0
   -3.8660   25.6900  -30.7170 O   0  0  0  0  0  0  0  0  0  0  0  0
   -4.3620   23.3240  -30.4980 C   0  0  0  0  0  0  0  0  0  0  0  0
   -3.0350   23.0530  -30.0360 N   0  0  0  0  0  0  0  0  0  0  0  0
   -2.4070   21.4410  -30.0990 S   0  0  0  0  0  0  0  0  0  0  0  0
   -3.3560   20.4850  -29.4340 O   0  0  0  0  0  0  0  0  0  0  0  0
   -1.0980   21.3970  -29.3630 O   0  0  0  0  0  0  0  0  0  0  0  0
   -2.1620   20.9780  -31.7810 C   0  0  0  0  0  0  0  0  0  0  0  0
   -3.2430   20.5090  -32.5400 C   0  0  0  0  0  0  0  0  0  0  0  0
   -3.0630   20.1670  -33.8820 C   0  0  0  0  0  0  0  0  0  0  0  0
   -1.8030   20.2870  -34.4740 C   0  0  0  0  0  0  0  0  0  0  0  0
   -0.7160   20.7600  -33.7250 C   0  0  0  0  0  0  0  0  0  0  0  0
    0.8870   20.8800  -34.4420 S   0  0  0  0  0  0  0  0  0  0  0  0
    1.9180   20.3180  -33.5010 O   0  0  0  0  0  0  0  0  0  0  0  0
    0.9140   20.0850  -35.7170 O   0  0  0  0  0  0  0  0  0  0  0  0
    1.2290   22.5560  -34.7890 N   0  0  0  0  0  0  0  0  0  0  0  0
    2.5690   22.7210  -35.3480 C   0  0  0  0  0  0  0  0  0  0  0  0
    2.5310   23.9590  -36.2270 C   0  0  0  0  0  0  0  0  0  0  0  0
    1.0570   24.2220  -36.4910 C   0  0  0  0  0  0  0  0  0  0  0  0
    0.3170   23.0880  -35.7990 C   0  0  0  0  0  0  0  0  0  0  0  0
   -0.8990   21.1050  -32.3780 C   0  0  0  0  0  0  0  0  0  0  0  0
   -5.2750   22.2670  -30.6260 C   0  0  0  0  0  0  0  0  0  0  0  0
   -8.1810   19.4900  -32.6670 C   0  0  0  0  0  0  0  0  0  0  0  0
   -8.3070   18.0160  -32.2680 C   0  0  0  0  0  0  0  0  0  0  0  0
   -5.8120   19.2625  -33.9489 H   0  0  0  0  0  0  0  0  0  0  0  0
   -5.0997   18.2794  -35.2728 H   0  0  0  0  0  0  0  0  0  0  0  0
   -6.8581   18.6465  -35.2728 H   0  0  0  0  0  0  0  0  0  0  0  0
   -6.4403   17.9841  -30.2231 H   0  0  0  0  0  0  0  0  0  0  0  0
   -5.0766   17.5880  -31.3685 H   0  0  0  0  0  0  0  0  0  0  0  0
   -5.3698   20.0586  -30.7968 H   0  0  0  0  0  0  0  0  0  0  0  0
   -5.3348   19.6342  -32.5454 H   0  0  0  0  0  0  0  0  0  0  0  0
   -8.0273   24.0362  -31.6300 H   0  0  0  0  0  0  0  0  0  0  0  0
   -6.3973   25.9109  -31.4358 H   0  0  0  0  0  0  0  0  0  0  0  0
   -2.3370   23.8300  -30.0610 H   0  0  0  0  0  0  0  0  0  0  0  0
   -4.2360   20.4100  -32.0773 H   0  0  0  0  0  0  0  0  0  0  0  0
   -3.9151   19.8023  -34.4744 H   0  0  0  0  0  0  0  0  0  0  0  0
   -1.6636   20.0100  -35.5294 H   0  0  0  0  0  0  0  0  0  0  0  0
    3.3026   22.8538  -34.5391 H   0  0  0  0  0  0  0  0  0  0  0  0
    2.8653   21.8349  -35.9285 H   0  0  0  0  0  0  0  0  0  0  0  0
    2.9874   24.8142  -35.7071 H   0  0  0  0  0  0  0  0  0  0  0  0
    3.0944   23.8150  -37.1607 H   0  0  0  0  0  0  0  0  0  0  0  0
    0.7570   25.1923  -36.0685 H   0  0  0  0  0  0  0  0  0  0  0  0
    0.8337   24.2609  -37.5674 H   0  0  0  0  0  0  0  0  0  0  0  0
   -0.5993   23.4666  -35.3225 H   0  0  0  0  0  0  0  0  0  0  0  0
    0.0191   22.3096  -36.5169 H   0  0  0  0  0  0  0  0  0  0  0  0
   -0.0487   21.4767  -31.7873 H   0  0  0  0  0  0  0  0  0  0  0  0
   -4.9555   21.2390  -30.3999 H   0  0  0  0  0  0  0  0  0  0  0  0
   -9.1627   19.9780  -32.5775 H   0  0  0  0  0  0  0  0  0  0  0  0
   -7.8282   19.5566  -33.7068 H   0  0  0  0  0  0  0  0  0  0  0  0
   -8.8231   17.9568  -31.2984 H   0  0  0  0  0  0  0  0  0  0  0  0
   -8.8715   17.5043  -33.0614 H   0  0  0  0  0  0  0  0  0  0  0  0
  1  2  1  0
  2  3  2  0
  2  4  2  0
  2  5  1  0
  5  6  1  0
  6  7  1  0
  7  8  1  0
  8  9  1  0
  9 10  2  0
  9 11  1  0
 11 12  2  0
 12 13  1  0
 13 14  2  0
 14 15  1  0
 14 16  1  0
 16 17  1  0
 17 18  1  0
 18 19  2  0
 18 20  2  0
 18 21  1  0
 21 22  2  0
 22 23  1  0
 23 24  2  0
 24 25  1  0
 25 26  1  0
 26 27  2  0
 26 28  2  0
 26 29  1  0
 29 30  1  0
 30 31  1  0
 31 32  1  0
 32 33  1  0
 25 34  2  0
 16 35  2  0
  8 36  1  0
 36 37  1  0
 37  5  1  0
 35 11  1  0
 34 21  1  0
 33 29  1  0
  1 38  1  0
  1 39  1  0
  1 40  1  0
  6 41  1  0
  6 42  1  0
  7 43  1  0
  7 44  1  0
 12 45  1  0
 13 46  1  0
 17 47  1  0
 22 48  1  0
 23 49  1  0
 24 50  1  0
 30 51  1  0
 30 52  1  0
 31 53  1  0
 31 54  1  0
 32 55  1  0
 32 56  1  0
 33 57  1  0
 33 58  1  0
 34 59  1  0
 35 60  1  0
 36 61  1  0
 36 62  1  0
 37 63  1  0
 37 64  1  0
M  CHG  1  15  -1
M  END
>  <UniqueID>  (11) 
11

>  <SMILES>  (11) 
CS(=O)(=O)N1CCN(C(=O)c2ccc([O-])c(NS(=O)(=O)c3cccc(S(=O)(=O)N4CCCC4)c3)c2)CC1

>  <Energy>  (11) 
77.14558129056736

>  <Genealogy>  (11) 
CS(=O)(=O)N1CCN(C(=O)c2ccc([O-])c(NS(=O)(=O)c3cccc(S(=O)(=O)N4CCCC4)c3)c2)CC1 (protonated)
CS(=O)(=O)N1CCN(C(=O)c2ccc([O-])c(NS(=O)(=O)c3cccc(S(=O)(=O)N4CCCC4)c3)c2)CC1 (3D coordinates assigned)
CS(=O)(=O)N1CCN(C(=O)c2ccc([O-])c(NS(=O)(=O)c3cccc(S(=O)(=O)N4CCCC4)c3)c2)CC1 (nonaromatic ring conformer: 77.14558129056736 kcal/mol)

>  <smiles>  (11) 
CS(=O)(=O)N1CCN(C(=O)c2ccc(O)c(NS(=O)(=O)c3cccc(S(=O)(=O)N4CCCC4)c3)c2)CC1

>  <score_type>  (11) 
oracle

>  <origin>  (11) 
adgpu

>  <m_score__min__energy>  (11) 
-14.640000000000001

>  <m_primary>  (11) 
energy

$$$$
11:0
     RDKit          3D

 62 65  0  0  0  0  0  0  0  0999 V2000
   -0.1920   22.0400  -28.8710 C   0  0  0  0  0  0  0  0  0  0  0  0
   -1.4290   22.6830  -28.2420 C   0  0  2  0  0  0  0  0  0  0  0  0
   -2.3090   23.2050  -29.2860 N   0  0  0  0  0  0  0  0  0  0  0  0
   -3.3730   22.4250  -29.8530 C   0  0  0  0  0  0  0  0  0  0  0  0
   -3.2750   21.1670  -29.9000 O   0  0  0  0  0  0  0  0  0  0  0  0
   -4.5760   23.0850  -30.4070 C   0  0  0  0  0  0  0  0  0  0  0  0
   -5.7390   22.3260  -30.6400 C   0  0  0  0  0  0  0  0  0  0  0  0
   -6.8920   22.9290  -31.1590 C   0  0  0  0  0  0  0  0  0  0  0  0
   -8.3460   21.9730  -31.4280 S   0  0  0  0  0  0  0  0  0  0  0  0
   -8.9070   21.5310  -30.1050 O   0  0  0  0  0  0  0  0  0  0  0  0
   -9.3710   22.8200  -32.1250 O   0  0  0  0  0  0  0  0  0  0  0  0
   -7.9540   20.5930  -32.4200 N   0  0  0  0  0  0  0  0  0  0  0  0
   -6.6460   20.7470  -33.0570 C   0  0  0  0  0  0  0  0  0  0  0  0
   -6.0910   19.3460  -33.2700 C   0  0  0  0  0  0  0  0  0  0  0  0
   -6.9030   18.4470  -32.3540 C   0  0  0  0  0  0  0  0  0  0  0  0
   -7.8580   19.3750  -31.6200 C   0  0  0  0  0  0  0  0  0  0  0  0
   -6.8950   24.3020  -31.4260 C   0  0  0  0  0  0  0  0  0  0  0  0
   -5.7510   25.0680  -31.1810 C   0  0  0  0  0  0  0  0  0  0  0  0
   -4.5950   24.4700  -30.6720 C   0  0  0  0  0  0  0  0  0  0  0  0
   -3.4840   25.2660  -30.4040 O   0  0  0  0  0  0  0  0  0  0  0  0
   -1.1060   23.7910  -27.2600 C   0  0  0  0  0  0  0  0  0  0  0  0
   -1.9620   24.8920  -27.0620 C   0  0  0  0  0  0  0  0  0  0  0  0
   -1.6380   25.8780  -26.1260 C   0  0  0  0  0  0  0  0  0  0  0  0
   -0.4840   25.7590  -25.3410 C   0  0  0  0  0  0  0  0  0  0  0  0
   -0.0710   27.0040  -24.1630 S   0  0  0  0  0  0  0  0  0  0  0  0
    1.1610   26.5850  -23.4070 O   0  0  0  0  0  0  0  0  0  0  0  0
   -1.2030   27.1580  -23.1810 O   0  0  0  0  0  0  0  0  0  0  0  0
    0.1900   28.5260  -24.9800 N   0  0  0  0  0  0  0  0  0  0  0  0
   -1.0700   29.2290  -25.2120 C   0  0  0  0  0  0  0  0  0  0  0  0
   -0.8420   30.1280  -26.4160 C   0  0  0  0  0  0  0  0  0  0  0  0
    0.3250   29.5030  -27.1660 C   0  0  0  0  0  0  0  0  0  0  0  0
    0.7710   28.3280  -26.3080 C   0  0  0  0  0  0  0  0  0  0  0  0
    0.3400   24.6420  -25.4960 C   0  0  0  0  0  0  0  0  0  0  0  0
    0.0340   23.6670  -26.4460 C   0  0  0  0  0  0  0  0  0  0  0  0
    0.4830   21.6891  -28.0765 H   0  0  0  0  0  0  0  0  0  0  0  0
   -0.4989   21.1873  -29.4945 H   0  0  0  0  0  0  0  0  0  0  0  0
    0.3296   22.7811  -29.4945 H   0  0  0  0  0  0  0  0  0  0  0  0
   -1.9299   21.8863  -27.6725 H   0  0  0  0  0  0  0  0  0  0  0  0
   -2.2220   24.2120  -29.5480 H   0  0  0  0  0  0  0  0  0  0  0  0
   -5.7421   21.2498  -30.4124 H   0  0  0  0  0  0  0  0  0  0  0  0
   -6.7538   21.2622  -34.0229 H   0  0  0  0  0  0  0  0  0  0  0  0
   -5.9705   21.3472  -32.4297 H   0  0  0  0  0  0  0  0  0  0  0  0
   -6.2142   19.0386  -34.3190 H   0  0  0  0  0  0  0  0  0  0  0  0
   -5.0153   19.2937  -33.0461 H   0  0  0  0  0  0  0  0  0  0  0  0
   -7.4632   17.7045  -32.9413 H   0  0  0  0  0  0  0  0  0  0  0  0
   -6.2619   17.8861  -31.6580 H   0  0  0  0  0  0  0  0  0  0  0  0
   -8.8475   18.9039  -31.5257 H   0  0  0  0  0  0  0  0  0  0  0  0
   -7.4957   19.5948  -30.6049 H   0  0  0  0  0  0  0  0  0  0  0  0
   -7.7995   24.7804  -31.8297 H   0  0  0  0  0  0  0  0  0  0  0  0
   -5.7611   26.1479  -31.3902 H   0  0  0  0  0  0  0  0  0  0  0  0
   -2.8898   24.9761  -27.6468 H   0  0  0  0  0  0  0  0  0  0  0  0
   -2.2934   26.7531  -26.0050 H   0  0  0  0  0  0  0  0  0  0  0  0
   -1.8748   28.5090  -25.4214 H   0  0  0  0  0  0  0  0  0  0  0  0
   -1.3707   29.8121  -24.3291 H   0  0  0  0  0  0  0  0  0  0  0  0
   -1.7390   30.1554  -27.0522 H   0  0  0  0  0  0  0  0  0  0  0  0
   -0.6312   31.1661  -26.1196 H   0  0  0  0  0  0  0  0  0  0  0  0
    0.0030   29.1549  -28.1586 H   0  0  0  0  0  0  0  0  0  0  0  0
    1.1399   30.2234  -27.3302 H   0  0  0  0  0  0  0  0  0  0  0  0
    0.4095   27.3841  -26.7420 H   0  0  0  0  0  0  0  0  0  0  0  0
    1.8684   28.2748  -26.2534 H   0  0  0  0  0  0  0  0  0  0  0  0
    1.2347   24.5304  -24.8659 H   0  0  0  0  0  0  0  0  0  0  0  0
    0.6913   22.7923  -26.5594 H   0  0  0  0  0  0  0  0  0  0  0  0
  1  2  1  0
  2  3  1  0
  3  4  1  0
  4  5  2  0
  4  6  1  0
  6  7  2  0
  7  8  1  0
  8  9  1  0
  9 10  2  0
  9 11  2  0
  9 12  1  0
 12 13  1  0
 13 14  1  0
 14 15  1  0
 15 16  1  0
  8 17  2  0
 17 18  1  0
 18 19  2  0
 19 20  1  0
  2 21  1  0
 21 22  2  0
 22 23  1  0
 23 24  2  0
 24 25  1  0
 25 26  2  0
 25 27  2  0
 25 28  1  0
 28 29  1  0
 29 30  1  0
 30 31  1  0
 31 32  1  0
 24 33  1  0
 33 34  2  0
 19  6  1  0
 34 21  1  0
 16 12  1  0
 32 28  1  0
  1 35  1  0
  1 36  1  0
  1 37  1  0
  2 38  1  1
  3 39  1  0
  7 40  1  0
 13 41  1  0
 13 42  1  0
 14 43  1  0
 14 44  1  0
 15 45  1  0
 15 46  1  0
 16 47  1  0
 16 48  1  0
 17 49  1  0
 18 50  1  0
 22 51  1  0
 23 52  1  0
 29 53  1  0
 29 54  1  0
 30 55  1  0
 30 56  1  0
 31 57  1  0
 31 58  1  0
 32 59  1  0
 32 60  1  0
 33 61  1  0
 34 62  1  0
M  CHG  1  20  -1
M  END
>  <UniqueID>  (12) 
12

>  <SMILES>  (12) 
C[C@H](NC(=O)c1cc(S(=O)(=O)N2CCCC2)ccc1[O-])c1ccc(S(=O)(=O)N2CCCC2)cc1

>  <Energy>  (12) 
68.50787130668539

>  <Genealogy>  (12) 
CC(NC(=O)c1cc(S(=O)(=O)N2CCCC2)ccc1[O-])c1ccc(S(=O)(=O)N2CCCC2)cc1 (protonated)
C[C@H](NC(=O)c1cc(S(=O)(=O)N2CCCC2)ccc1[O-])c1ccc(S(=O)(=O)N2CCCC2)cc1 (chirality)
C[C@H](NC(=O)c1cc(S(=O)(=O)N2CCCC2)ccc1[O-])c1ccc(S(=O)(=O)N2CCCC2)cc1 (3D coordinates assigned)
C[C@H](NC(=O)c1cc(S(=O)(=O)N2CCCC2)ccc1[O-])c1ccc(S(=O)(=O)N2CCCC2)cc1 (nonaromatic ring conformer: 68.50787130668539 kcal/mol)

>  <smiles>  (12) 
CC(NC(=O)c1cc(S(=O)(=O)N2CCCC2)ccc1O)c1ccc(S(=O)(=O)N2CCCC2)cc1

>  <score_type>  (12) 
oracle

>  <origin>  (12) 
adgpu

>  <m_score__min__energy>  (12) 
-12.69

>  <m_primary>  (12) 
energy

$$$$
12:0
     RDKit          3D

 45 49  0  0  0  0  0  0  0  0999 V2000
   -7.8260   22.9910  -32.3490 O   0  0  0  0  0  0  0  0  0  0  0  0
   -6.6640   23.1740  -31.8980 C   0  0  0  0  0  0  0  0  0  0  0  0
   -6.2130   24.3590  -31.1820 C   0  0  0  0  0  0  0  0  0  0  0  0
   -6.8740   25.0400  -30.2270 N   0  0  0  0  0  0  0  0  0  0  0  0
   -5.9000   25.3160  -29.3210 C   0  0  0  0  0  0  0  0  0  0  0  0
   -4.7040   24.7620  -29.6400 N   0  0  0  0  0  0  0  0  0  0  0  0
   -3.6050   24.5070  -28.7140 C   0  0  0  0  0  0  0  0  0  0  0  0
   -3.7420   23.2020  -27.9470 C   0  0  0  0  0  0  0  0  0  0  0  0
   -4.0210   24.5260  -27.2530 C   0  0  0  0  0  0  0  0  0  0  0  0
   -4.9210   24.1680  -30.8230 C   0  0  0  0  0  0  0  0  0  0  0  0
   -4.5110   22.8430  -31.2770 C   0  0  0  0  0  0  0  0  0  0  0  0
   -3.4270   22.2720  -30.9890 O   0  0  0  0  0  0  0  0  0  0  0  0
   -5.5900   22.2270  -31.9930 N   0  0  0  0  0  0  0  0  0  0  0  0
   -5.6240   20.8960  -32.5380 C   0  0  0  0  0  0  0  0  0  0  0  0
   -4.4690   20.3360  -33.1040 C   0  0  0  0  0  0  0  0  0  0  0  0
   -4.4950   19.0430  -33.6360 C   0  0  0  0  0  0  0  0  0  0  0  0
   -5.6780   18.2870  -33.6120 C   0  0  0  0  0  0  0  0  0  0  0  0
   -5.7020   16.9490  -34.1460 N   0  0  0  0  0  0  0  0  0  0  0  0
   -6.8730   16.0890  -33.9150 C   0  0  0  0  0  0  0  0  0  0  0  0
   -6.5640   14.6160  -34.2220 C   0  0  0  0  0  0  0  0  0  0  0  0
   -5.1850   14.2350  -33.6690 C   0  0  0  0  0  0  0  0  0  0  0  0
   -4.0490   15.1160  -34.2390 C   0  0  0  0  0  0  0  0  0  0  0  0
   -4.5520   16.4130  -34.8880 C   0  0  0  0  0  0  0  0  0  0  0  0
   -6.8310   18.8430  -33.0340 C   0  0  0  0  0  0  0  0  0  0  0  0
   -6.8050   20.1370  -32.5050 C   0  0  0  0  0  0  0  0  0  0  0  0
   -6.0646   25.9264  -28.4208 H   0  0  0  0  0  0  0  0  0  0  0  0
   -2.8103   24.9847  -29.3059 H   0  0  0  0  0  0  0  0  0  0  0  0
   -4.5703   22.5147  -28.1742 H   0  0  0  0  0  0  0  0  0  0  0  0
   -3.0839   22.3431  -27.7489 H   0  0  0  0  0  0  0  0  0  0  0  0
   -5.0511   24.7964  -26.9779 H   0  0  0  0  0  0  0  0  0  0  0  0
   -3.6483   25.0217  -26.3445 H   0  0  0  0  0  0  0  0  0  0  0  0
   -3.5361   20.9182  -33.1295 H   0  0  0  0  0  0  0  0  0  0  0  0
   -3.5823   18.6152  -34.0764 H   0  0  0  0  0  0  0  0  0  0  0  0
   -7.1783   16.1774  -32.8619 H   0  0  0  0  0  0  0  0  0  0  0  0
   -7.6789   16.4182  -34.5875 H   0  0  0  0  0  0  0  0  0  0  0  0
   -7.3305   13.9796  -33.7556 H   0  0  0  0  0  0  0  0  0  0  0  0
   -6.5652   14.4698  -35.3122 H   0  0  0  0  0  0  0  0  0  0  0  0
   -5.2016   14.3466  -32.5748 H   0  0  0  0  0  0  0  0  0  0  0  0
   -4.9822   13.1963  -33.9690 H   0  0  0  0  0  0  0  0  0  0  0  0
   -3.3659   15.3789  -33.4178 H   0  0  0  0  0  0  0  0  0  0  0  0
   -3.5479   14.5321  -35.0251 H   0  0  0  0  0  0  0  0  0  0  0  0
   -3.7415   17.1567  -34.8856 H   0  0  0  0  0  0  0  0  0  0  0  0
   -4.8651   16.1957  -35.9199 H   0  0  0  0  0  0  0  0  0  0  0  0
   -7.7608   18.2564  -32.9972 H   0  0  0  0  0  0  0  0  0  0  0  0
   -7.7160   20.5635  -32.0599 H   0  0  0  0  0  0  0  0  0  0  0  0
  1  2  2  0
  2  3  1  0
  3  4  1  0
  4  5  2  0
  5  6  1  0
  6  7  1  0
  7  8  1  0
  8  9  1  0
  6 10  1  0
 10 11  1  0
 11 12  2  0
 11 13  1  0
 13 14  1  0
 14 15  2  0
 15 16  1  0
 16 17  2  0
 17 18  1  0
 18 19  1  0
 19 20  1  0
 20 21  1  0
 21 22  1  0
 22 23  1  0
 17 24  1  0
 24 25  2  0
 13  2  1  0
 25 14  1  0
 10  3  2  0
 23 18  1  0
  9  7  1  0
  5 26  1  0
  7 27  1  0
  8 28  1  0
  8 29  1  0
  9 30  1  0
  9 31  1  0
 15 32  1  0
 16 33  1  0
 19 34  1  0
 19 35  1  0
 20 36  1  0
 20 37  1  0
 21 38  1  0
 21 39  1  0
 22 40  1  0
 22 41  1  0
 23 42  1  0
 23 43  1  0
 24 44  1  0
 25 45  1  0
M  END
>  <UniqueID>  (13) 
13

>  <SMILES>  (13) 
O=C1c2ncn(C3CC3)c2C(=O)N1c1ccc(N2CCCCC2)cc1

>  <Energy>  (13) 
404.331828279146

>  <Genealogy>  (13) 
O=C1c2ncn(C3CC3)c2C(=O)N1c1ccc(N2CCCCC2)cc1 (3D coordinates assigned)
O=C1c2ncn(C3CC3)c2C(=O)N1c1ccc(N2CCCCC2)cc1 (nonaromatic ring conformer: 404.331828279146 kcal/mol)

>  <smiles>  (13) 
O=C1c2ncn(C3CC3)c2C(=O)N1c1ccc(N2CCCCC2)cc1

>  <score_type>  (13) 
oracle

>  <origin>  (13) 
adgpu

>  <m_score__min__energy>  (13) 
-8.2100000000000009

>  <m_primary>  (13) 
energy

$$$$
13:0
     RDKit          3D

 51 55  0  0  0  0  0  0  0  0999 V2000
    0.6430   20.4360  -27.5400 C   0  0  0  0  0  0  0  0  0  0  0  0
   -0.3780   19.5590  -28.1400 N   0  0  0  0  0  0  0  0  0  0  0  0
   -1.4880   19.2570  -27.2120 C   0  0  0  0  0  0  0  0  0  0  0  0
   -2.3100   20.5050  -26.8550 C   0  0  0  0  0  0  0  0  0  0  0  0
   -2.5880   21.3750  -28.0560 C   0  0  0  0  0  0  0  0  0  0  0  0
   -3.5060   22.4280  -27.9330 C   0  0  0  0  0  0  0  0  0  0  0  0
   -3.6900   23.3470  -28.9790 C   0  0  0  0  0  0  0  0  0  0  0  0
   -4.5990   24.4490  -28.8610 N   0  0  0  0  0  0  0  0  0  0  0  0
   -5.8280   24.8280  -30.0270 S   0  0  0  0  0  0  0  0  0  0  0  0
   -6.9310   25.6180  -29.3750 O   0  0  0  0  0  0  0  0  0  0  0  0
   -5.2280   25.6530  -31.1280 O   0  0  0  0  0  0  0  0  0  0  0  0
   -6.4370   23.3210  -30.7080 C   0  0  0  0  0  0  0  0  0  0  0  0
   -7.6720   22.7970  -30.3140 C   0  0  0  0  0  0  0  0  0  0  0  0
   -8.1030   21.5670  -30.8130 C   0  0  0  0  0  0  0  0  0  0  0  0
   -7.3000   20.8380  -31.7090 C   0  0  0  0  0  0  0  0  0  0  0  0
   -6.0550   21.3650  -32.1100 C   0  0  0  0  0  0  0  0  0  0  0  0
   -5.6350   22.6090  -31.6070 C   0  0  0  0  0  0  0  0  0  0  0  0
   -5.1880   20.5970  -33.0360 C   0  0  0  0  0  0  0  0  0  0  0  0
   -4.1190   21.1120  -33.4720 O   0  0  0  0  0  0  0  0  0  0  0  0
   -5.5760   19.2280  -33.4500 C   0  0  0  0  0  0  0  0  0  0  0  0
   -4.7040   18.4400  -34.2250 C   0  0  0  0  0  0  0  0  0  0  0  0
   -5.0630   17.1430  -34.5960 C   0  0  0  0  0  0  0  0  0  0  0  0
   -6.2990   16.6220  -34.2100 C   0  0  0  0  0  0  0  0  0  0  0  0
   -7.1790   17.3960  -33.4490 C   0  0  0  0  0  0  0  0  0  0  0  0
   -6.8240   18.7000  -33.0540 C   0  0  0  0  0  0  0  0  0  0  0  0
   -7.7390   19.5180  -32.2240 C   0  0  0  0  0  0  0  0  0  0  0  0
   -8.8960   19.0920  -31.9580 O   0  0  0  0  0  0  0  0  0  0  0  0
   -2.9540   23.1970  -30.1670 C   0  0  0  0  0  0  0  0  0  0  0  0
   -3.1350   24.1040  -31.2130 O   0  0  0  0  0  0  0  0  0  0  0  0
   -2.0510   22.1370  -30.3030 C   0  0  0  0  0  0  0  0  0  0  0  0
   -1.8430   21.2390  -29.2460 C   0  0  0  0  0  0  0  0  0  0  0  0
   -0.8790   20.0870  -29.4250 C   0  0  0  0  0  0  0  0  0  0  0  0
    0.5767   20.3791  -26.4435 H   0  0  0  0  0  0  0  0  0  0  0  0
    1.6424   20.1105  -27.8643 H   0  0  0  0  0  0  0  0  0  0  0  0
    0.4720   21.4731  -27.8643 H   0  0  0  0  0  0  0  0  0  0  0  0
   -2.1531   18.5196  -27.6851 H   0  0  0  0  0  0  0  0  0  0  0  0
   -1.0500   18.8668  -26.2815 H   0  0  0  0  0  0  0  0  0  0  0  0
   -3.2689   20.1842  -26.4219 H   0  0  0  0  0  0  0  0  0  0  0  0
   -1.7227   21.0994  -26.1396 H   0  0  0  0  0  0  0  0  0  0  0  0
   -4.0888   22.5355  -27.0063 H   0  0  0  0  0  0  0  0  0  0  0  0
   -8.3053   23.3555  -29.6091 H   0  0  0  0  0  0  0  0  0  0  0  0
   -9.0786   21.1642  -30.5032 H   0  0  0  0  0  0  0  0  0  0  0  0
   -4.6675   23.0262  -31.9229 H   0  0  0  0  0  0  0  0  0  0  0  0
   -3.7329   18.8492  -34.5404 H   0  0  0  0  0  0  0  0  0  0  0  0
   -4.3711   16.5309  -35.1932 H   0  0  0  0  0  0  0  0  0  0  0  0
   -6.5808   15.6005  -34.5053 H   0  0  0  0  0  0  0  0  0  0  0  0
   -8.1559   16.9837  -33.1565 H   0  0  0  0  0  0  0  0  0  0  0  0
   -3.7660   24.8920  -31.1280 H   0  0  0  0  0  0  0  0  0  0  0  0
   -1.5000   22.0070  -31.2461 H   0  0  0  0  0  0  0  0  0  0  0  0
   -1.3944   19.2768  -29.9615 H   0  0  0  0  0  0  0  0  0  0  0  0
   -0.0134   20.4625  -29.9904 H   0  0  0  0  0  0  0  0  0  0  0  0
  1  2  1  0
  2  3  1  0
  3  4  1  0
  4  5  1  0
  5  6  2  0
  6  7  1  0
  7  8  1  0
  8  9  1  0
  9 10  2  0
  9 11  2  0
  9 12  1  0
 12 13  2  0
 13 14  1  0
 14 15  2  0
 15 16  1  0
 16 17  2  0
 16 18  1  0
 18 19  2  0
 18 20  1  0
 20 21  2  0
 21 22  1  0
 22 23  2  0
 23 24  1  0
 24 25  2  0
 25 26  1  0
 26 27  2  0
  7 28  2  0
 28 29  1  0
 28 30  1  0
 30 31  2  0
 31 32  1  0
 32  2  1  0
 31  5  1  0
 17 12  1  0
 25 20  1  0
 26 15  1  0
  1 33  1  0
  1 34  1  0
  1 35  1  0
  3 36  1  0
  3 37  1  0
  4 38  1  0
  4 39  1  0
  6 40  1  0
 13 41  1  0
 14 42  1  0
 17 43  1  0
 21 44  1  0
 22 45  1  0
 23 46  1  0
 24 47  1  0
 29 48  1  0
 30 49  1  0
 32 50  1  0
 32 51  1  0
M  CHG  1   8  -1
M  END
>  <UniqueID>  (14) 
14

>  <SMILES>  (14) 
CN1CCc2cc([N-]S(=O)(=O)c3ccc4c(c3)C(=O)c3ccccc3C4=O)c(O)cc2C1

>  <Energy>  (14) 
70.49467187338554

>  <Genealogy>  (14) 
CN1CCc2cc([N-]S(=O)(=O)c3ccc4c(c3)C(=O)c3ccccc3C4=O)c(O)cc2C1 (protonated)
CN1CCc2cc([N-]S(=O)(=O)c3ccc4c(c3)C(=O)c3ccccc3C4=O)c(O)cc2C1 (3D coordinates assigned)
CN1CCc2cc([N-]S(=O)(=O)c3ccc4c(c3)C(=O)c3ccccc3C4=O)c(O)cc2C1 (nonaromatic ring conformer: 70.49467187338554 kcal/mol)

>  <smiles>  (14) 
CN1CCc2cc(NS(=O)(=O)c3ccc4c(c3)C(=O)c3ccccc3C4=O)c(O)cc2C1

>  <score_type>  (14) 
oracle

>  <origin>  (14) 
adgpu

>  <m_score__min__energy>  (14) 
-14.09

>  <m_primary>  (14) 
energy

$$$$
14:0
     RDKit          3D

 39 41  0  0  0  0  0  0  0  0999 V2000
   -3.7990   17.7370  -33.7720 O   0  0  0  0  0  0  0  0  0  0  0  0
   -4.3190   18.8660  -33.5710 C   0  0  0  0  0  0  0  0  0  0  0  0
   -5.6550   19.0980  -34.0380 N   0  0  0  0  0  0  0  0  0  0  0  0
   -6.8350   19.1870  -33.2240 C   0  0  0  0  0  0  0  0  0  0  0  0
   -7.5830   20.3770  -33.1570 C   0  0  0  0  0  0  0  0  0  0  0  0
   -8.7200   20.4510  -32.3470 C   0  0  0  0  0  0  0  0  0  0  0  0
   -9.1110   19.3470  -31.5870 C   0  0  0  0  0  0  0  0  0  0  0  0
   -8.3620   18.1690  -31.6290 C   0  0  0  0  0  0  0  0  0  0  0  0
   -7.2220   18.0830  -32.4380 C   0  0  0  0  0  0  0  0  0  0  0  0
   -6.4970   16.8910  -32.4520 O   0  0  0  0  0  0  0  0  0  0  0  0
   -3.5200   19.9260  -32.9110 C   0  0  0  0  0  0  0  0  0  0  0  0
   -2.1720   19.7080  -32.5760 C   0  0  0  0  0  0  0  0  0  0  0  0
   -1.4250   20.7170  -31.9630 C   0  0  0  0  0  0  0  0  0  0  0  0
   -0.0870   20.5000  -31.6570 O   0  0  0  0  0  0  0  0  0  0  0  0
   -2.0190   21.9440  -31.6590 C   0  0  0  0  0  0  0  0  0  0  0  0
   -3.3770   22.1630  -31.9490 C   0  0  0  0  0  0  0  0  0  0  0  0
   -4.0200   23.4120  -31.6550 N   0  0  0  0  0  0  0  0  0  0  0  0
   -3.8040   24.2250  -30.4920 C   0  0  0  0  0  0  0  0  0  0  0  0
   -4.3190   25.3730  -30.4550 O   0  0  0  0  0  0  0  0  0  0  0  0
   -3.0260   23.7430  -29.3270 C   0  0  0  0  0  0  0  0  0  0  0  0
   -3.3280   22.4900  -28.7670 C   0  0  0  0  0  0  0  0  0  0  0  0
   -2.6210   22.0200  -27.6570 C   0  0  0  0  0  0  0  0  0  0  0  0
   -1.5970   22.7920  -27.1010 C   0  0  0  0  0  0  0  0  0  0  0  0
   -0.8980   22.3250  -25.9950 O   0  0  0  0  0  0  0  0  0  0  0  0
   -1.2740   24.0300  -27.6620 C   0  0  0  0  0  0  0  0  0  0  0  0
   -1.9740   24.5060  -28.7760 C   0  0  0  0  0  0  0  0  0  0  0  0
   -1.6000   25.7210  -29.3400 O   0  0  0  0  0  0  0  0  0  0  0  0
   -4.1150   21.1580  -32.5870 C   0  0  0  0  0  0  0  0  0  0  0  0
   -7.2716   21.2531  -33.7447 H   0  0  0  0  0  0  0  0  0  0  0  0
   -9.3074   21.3803  -32.3084 H   0  0  0  0  0  0  0  0  0  0  0  0
  -10.0094   19.4051  -30.9549 H   0  0  0  0  0  0  0  0  0  0  0  0
   -8.6692   17.3038  -31.0232 H   0  0  0  0  0  0  0  0  0  0  0  0
   -5.5930   16.8130  -32.9020 H   0  0  0  0  0  0  0  0  0  0  0  0
   -1.7031   18.7380  -32.7977 H   0  0  0  0  0  0  0  0  0  0  0  0
   -1.4225   22.7412  -31.1914 H   0  0  0  0  0  0  0  0  0  0  0  0
   -4.1271   21.8744  -29.2058 H   0  0  0  0  0  0  0  0  0  0  0  0
   -2.8706   21.0417  -27.2205 H   0  0  0  0  0  0  0  0  0  0  0  0
   -0.4648   24.6339  -27.2255 H   0  0  0  0  0  0  0  0  0  0  0  0
   -5.1715   21.3345  -32.8373 H   0  0  0  0  0  0  0  0  0  0  0  0
  1  2  2  0
  2  3  1  0
  3  4  1  0
  4  5  2  0
  5  6  1  0
  6  7  2  0
  7  8  1  0
  8  9  2  0
  9 10  1  0
  2 11  1  0
 11 12  2  0
 12 13  1  0
 13 14  1  0
 13 15  2  0
 15 16  1  0
 16 17  1  0
 17 18  1  0
 18 19  2  0
 18 20  1  0
 20 21  2  0
 21 22  1  0
 22 23  2  0
 23 24  1  0
 23 25  1  0
 25 26  2  0
 26 27  1  0
 16 28  2  0
  9  4  1  0
 28 11  1  0
 26 20  1  0
  5 29  1  0
  6 30  1  0
  7 31  1  0
  8 32  1  0
 10 33  1  0
 12 34  1  0
 15 35  1  0
 21 36  1  0
 22 37  1  0
 25 38  1  0
 28 39  1  0
M  CHG  5   3  -1  14  -1  17  -1  24  -1  27  -1
M  END
>  <UniqueID>  (15) 
15

>  <SMILES>  (15) 
O=C([N-]c1ccccc1O)c1cc([O-])cc([N-]C(=O)c2ccc([O-])cc2[O-])c1

>  <Energy>  (15) 
58.11455727436997

>  <Genealogy>  (15) 
O=C([N-]c1ccccc1O)c1cc([O-])cc([N-]C(=O)c2ccc([O-])cc2[O-])c1 (protonated)
O=C([N-]c1ccccc1O)c1cc([O-])cc([N-]C(=O)c2ccc([O-])cc2[O-])c1 (3D coordinates assigned)
O=C([N-]c1ccccc1O)c1cc([O-])cc([N-]C(=O)c2ccc([O-])cc2[O-])c1 (optimized conformer: 58.11455727436997 kcal/mol)

>  <smiles>  (15) 
O=C(Nc1ccccc1O)c1cc(O)cc(NC(=O)c2ccc(O)cc2O)c1

>  <score_type>  (15) 
oracle

>  <origin>  (15) 
adgpu

>  <m_score__min__energy>  (15) 
-11.91

>  <m_primary>  (15) 
energy

$$$$
15:0
     RDKit          3D

 54 57  0  0  0  0  0  0  0  0999 V2000
    2.3260   16.3220  -26.6340 C   0  0  0  0  0  0  0  0  0  0  0  0
    1.4350   16.3230  -27.8410 C   0  0  0  0  0  0  0  0  0  0  0  0
    1.0160   15.2170  -28.2800 O   0  0  0  0  0  0  0  0  0  0  0  0
    1.0390   17.5490  -28.4950 N   0  0  0  0  0  0  0  0  0  0  0  0
    0.4730   17.4690  -29.8520 C   0  0  0  0  0  0  0  0  0  0  0  0
    0.3780   18.8480  -30.5060 C   0  0  0  0  0  0  0  0  0  0  0  0
   -0.2660   19.7890  -29.5840 N   0  0  0  0  0  0  0  0  0  0  0  0
   -1.4430   20.5050  -29.9990 C   0  0  0  0  0  0  0  0  0  0  0  0
   -2.3620   19.8830  -30.6000 O   0  0  0  0  0  0  0  0  0  0  0  0
   -1.5930   21.9550  -29.7420 C   0  0  0  0  0  0  0  0  0  0  0  0
   -0.4590   22.7810  -29.6690 C   0  0  0  0  0  0  0  0  0  0  0  0
   -0.5930   24.1430  -29.3840 C   0  0  0  0  0  0  0  0  0  0  0  0
   -1.8560   24.6920  -29.1570 C   0  0  0  0  0  0  0  0  0  0  0  0
   -1.9750   26.0480  -28.8740 O   0  0  0  0  0  0  0  0  0  0  0  0
   -2.9950   23.8750  -29.2150 C   0  0  0  0  0  0  0  0  0  0  0  0
   -4.2870   24.4050  -28.9230 N   0  0  0  0  0  0  0  0  0  0  0  0
   -5.3660   24.8390  -30.2020 S   0  0  0  0  0  0  0  0  0  0  0  0
   -6.5140   25.6420  -29.6600 O   0  0  0  0  0  0  0  0  0  0  0  0
   -4.6270   25.6730  -31.2120 O   0  0  0  0  0  0  0  0  0  0  0  0
   -5.9550   23.3710  -30.9740 C   0  0  0  0  0  0  0  0  0  0  0  0
   -5.1100   22.6360  -31.8310 C   0  0  0  0  0  0  0  0  0  0  0  0
   -5.5860   21.4940  -32.4880 C   0  0  0  0  0  0  0  0  0  0  0  0
   -6.9100   21.1040  -32.2810 C   0  0  0  0  0  0  0  0  0  0  0  0
   -7.7410   21.8230  -31.4570 C   0  0  0  0  0  0  0  0  0  0  0  0
   -7.2890   22.9650  -30.7920 C   0  0  0  0  0  0  0  0  0  0  0  0
   -9.1020   21.2460  -31.3940 C   0  0  0  0  0  0  0  0  0  0  0  0
   -9.0260   20.0120  -32.3150 C   0  0  0  0  0  0  0  0  0  0  0  0
   -7.5990   19.9460  -32.8930 C   0  0  0  0  0  0  0  0  0  0  0  0
   -2.8610   22.5140  -29.5060 C   0  0  0  0  0  0  0  0  0  0  0  0
    0.1530   19.8400  -28.1750 C   0  0  0  0  0  0  0  0  0  0  0  0
    1.3040   18.8650  -27.8870 C   0  0  0  0  0  0  0  0  0  0  0  0
    1.7094   16.3227  -25.7231 H   0  0  0  0  0  0  0  0  0  0  0  0
    2.9599   15.4231  -26.6470 H   0  0  0  0  0  0  0  0  0  0  0  0
    2.9620   17.2194  -26.6470 H   0  0  0  0  0  0  0  0  0  0  0  0
    1.1164   16.8249  -30.4695 H   0  0  0  0  0  0  0  0  0  0  0  0
   -0.5429   17.0540  -29.7765 H   0  0  0  0  0  0  0  0  0  0  0  0
    1.3887   19.2079  -30.7489 H   0  0  0  0  0  0  0  0  0  0  0  0
   -0.2190   18.7741  -31.4269 H   0  0  0  0  0  0  0  0  0  0  0  0
    0.5405   22.3534  -29.8371 H   0  0  0  0  0  0  0  0  0  0  0  0
    0.2997   24.7841  -29.3385 H   0  0  0  0  0  0  0  0  0  0  0  0
   -4.0705   22.9615  -31.9846 H   0  0  0  0  0  0  0  0  0  0  0  0
   -4.9289   20.9158  -33.1542 H   0  0  0  0  0  0  0  0  0  0  0  0
   -7.9641   23.5363  -30.1379 H   0  0  0  0  0  0  0  0  0  0  0  0
   -9.3545   20.9510  -30.3648 H   0  0  0  0  0  0  0  0  0  0  0  0
   -9.8795   21.9594  -31.7048 H   0  0  0  0  0  0  0  0  0  0  0  0
   -9.2390   19.1001  -31.7379 H   0  0  0  0  0  0  0  0  0  0  0  0
   -9.7665   20.0894  -33.1248 H   0  0  0  0  0  0  0  0  0  0  0  0
   -7.1061   19.0040  -32.6107 H   0  0  0  0  0  0  0  0  0  0  0  0
   -7.5860   19.9787  -33.9924 H   0  0  0  0  0  0  0  0  0  0  0  0
   -3.7554   21.8753  -29.5506 H   0  0  0  0  0  0  0  0  0  0  0  0
    0.4844   20.8619  -27.9388 H   0  0  0  0  0  0  0  0  0  0  0  0
   -0.7057   19.5491  -27.5520 H   0  0  0  0  0  0  0  0  0  0  0  0
    2.2361   19.2740  -28.3041 H   0  0  0  0  0  0  0  0  0  0  0  0
    1.3952   18.7386  -26.7981 H   0  0  0  0  0  0  0  0  0  0  0  0
  1  2  1  0
  2  3  2  0
  2  4  1  0
  4  5  1  0
  5  6  1  0
  6  7  1  0
  7  8  1  0
  8  9  2  0
  8 10  1  0
 10 11  2  0
 11 12  1  0
 12 13  2  0
 13 14  1  0
 13 15  1  0
 15 16  1  0
 16 17  1  0
 17 18  2  0
 17 19  2  0
 17 20  1  0
 20 21  2  0
 21 22  1  0
 22 23  2  0
 23 24  1  0
 24 25  2  0
 24 26  1  0
 26 27  1  0
 27 28  1  0
 15 29  2  0
  7 30  1  0
 30 31  1  0
 31  4  1  0
 29 10  1  0
 25 20  1  0
 28 23  1  0
  1 32  1  0
  1 33  1  0
  1 34  1  0
  5 35  1  0
  5 36  1  0
  6 37  1  0
  6 38  1  0
 11 39  1  0
 12 40  1  0
 21 41  1  0
 22 42  1  0
 25 43  1  0
 26 44  1  0
 26 45  1  0
 27 46  1  0
 27 47  1  0
 28 48  1  0
 28 49  1  0
 29 50  1  0
 30 51  1  0
 30 52  1  0
 31 53  1  0
 31 54  1  0
M  CHG  2  14  -1  16  -1
M  END
>  <UniqueID>  (16) 
16

>  <SMILES>  (16) 
CC(=O)N1CCN(C(=O)c2ccc([O-])c([N-]S(=O)(=O)c3ccc4c(c3)CCC4)c2)CC1

>  <Energy>  (16) 
77.30833886950397

>  <Genealogy>  (16) 
CC(=O)N1CCN(C(=O)c2ccc([O-])c([N-]S(=O)(=O)c3ccc4c(c3)CCC4)c2)CC1 (protonated)
CC(=O)N1CCN(C(=O)c2ccc([O-])c([N-]S(=O)(=O)c3ccc4c(c3)CCC4)c2)CC1 (3D coordinates assigned)
CC(=O)N1CCN(C(=O)c2ccc([O-])c([N-]S(=O)(=O)c3ccc4c(c3)CCC4)c2)CC1 (nonaromatic ring conformer: 77.30833886950397 kcal/mol)

>  <smiles>  (16) 
CC(=O)N1CCN(C(=O)c2ccc(O)c(NS(=O)(=O)c3ccc4c(c3)CCC4)c2)CC1

>  <score_type>  (16) 
oracle

>  <origin>  (16) 
adgpu

>  <m_score__min__energy>  (16) 
-14.720000000000001

>  <m_primary>  (16) 
energy

$$$$
16:0
     RDKit          3D

 70 74  0  0  0  0  0  0  0  0999 V2000
   -2.2650   22.4320  -31.1350 O   0  0  0  0  0  0  0  0  0  0  0  0
   -3.3240   23.1140  -31.1140 C   0  0  0  0  0  0  0  0  0  0  0  0
   -4.5360   22.5960  -31.6710 N   0  0  0  0  0  0  0  0  0  0  0  0
   -4.6520   21.3460  -32.3630 C   0  0  0  0  0  0  0  0  0  0  0  0
   -3.5060   20.6750  -32.8270 C   0  0  0  0  0  0  0  0  0  0  0  0
   -3.6260   19.4660  -33.5260 C   0  0  0  0  0  0  0  0  0  0  0  0
   -2.1820   18.6250  -34.1020 S   0  0  0  0  0  0  0  0  0  0  0  0
   -1.4730   17.9970  -32.9330 O   0  0  0  0  0  0  0  0  0  0  0  0
   -2.6030   17.5180  -35.0300 O   0  0  0  0  0  0  0  0  0  0  0  0
   -1.0730   19.6980  -34.9320 N   0  0  0  0  0  0  0  0  0  0  0  0
   -0.8410   20.9240  -34.1600 C   0  0  0  0  0  0  0  0  0  0  0  0
    0.4570   20.7600  -33.3840 C   0  0  0  0  0  0  0  0  0  0  0  0
    1.1890   19.6130  -34.0520 C   0  0  0  0  0  0  0  0  0  0  0  0
    0.2400   19.0690  -35.1130 C   0  0  0  0  0  0  0  0  0  0  0  0
   -4.8970   18.9260  -33.7620 C   0  0  0  0  0  0  0  0  0  0  0  0
   -6.0400   19.6060  -33.3360 C   0  0  0  0  0  0  0  0  0  0  0  0
   -5.9280   20.8190  -32.6410 C   0  0  0  0  0  0  0  0  0  0  0  0
   -7.1120   21.4900  -32.1860 N   0  0  0  0  0  0  0  0  0  0  0  0
   -8.3080   20.7810  -31.7710 C   0  0  0  0  0  0  0  0  0  0  0  0
   -9.3280   21.8620  -31.4350 C   0  0  0  0  0  0  0  0  0  0  0  0
   -8.7790   23.1670  -32.0170 C   0  0  0  0  0  0  0  0  0  0  0  0
   -7.3030   22.9240  -32.2990 C   0  0  0  0  0  0  0  0  0  0  0  0
   -3.3340   24.4010  -30.4960 N   0  0  0  0  0  0  0  0  0  0  0  0
   -3.2540   24.5680  -29.0800 C   0  0  0  0  0  0  0  0  0  0  0  0
   -4.2110   23.9650  -28.2500 C   0  0  0  0  0  0  0  0  0  0  0  0
   -5.2340   23.2000  -28.8090 O   0  0  0  0  0  0  0  0  0  0  0  0
   -4.1380   24.1400  -26.8650 C   0  0  0  0  0  0  0  0  0  0  0  0
   -3.1160   24.9060  -26.3040 C   0  0  0  0  0  0  0  0  0  0  0  0
   -2.1360   25.4890  -27.1220 C   0  0  0  0  0  0  0  0  0  0  0  0
   -0.8170   26.4220  -26.4060 S   0  0  0  0  0  0  0  0  0  0  0  0
   -1.3020   26.9810  -25.0940 O   0  0  0  0  0  0  0  0  0  0  0  0
   -0.4780   27.5610  -27.3270 O   0  0  0  0  0  0  0  0  0  0  0  0
    0.5860   25.3950  -26.1490 N   0  0  0  0  0  0  0  0  0  0  0  0
    0.6610   24.8740  -24.7670 C   0  0  0  0  0  0  0  0  0  0  0  0
   -0.1710   23.5930  -24.5660 C   0  0  0  0  0  0  0  0  0  0  0  0
    0.1470   22.6200  -25.5370 O   0  0  0  0  0  0  0  0  0  0  0  0
   -0.1780   23.1200  -26.8170 C   0  0  0  0  0  0  0  0  0  0  0  0
    0.7090   24.3240  -27.1560 C   0  0  0  0  0  0  0  0  0  0  0  0
   -2.2120   25.3220  -28.5160 C   0  0  0  0  0  0  0  0  0  0  0  0
   -1.2480   25.8900  -29.3440 O   0  0  0  0  0  0  0  0  0  0  0  0
   -2.5095   21.1017  -32.6401 H   0  0  0  0  0  0  0  0  0  0  0  0
   -0.7609   21.7835  -34.8418 H   0  0  0  0  0  0  0  0  0  0  0  0
   -1.6773   21.1004  -33.4676 H   0  0  0  0  0  0  0  0  0  0  0  0
    1.0558   21.6812  -33.4382 H   0  0  0  0  0  0  0  0  0  0  0  0
    0.2717   20.5591  -32.3185 H   0  0  0  0  0  0  0  0  0  0  0  0
    2.1180   19.9727  -34.5186 H   0  0  0  0  0  0  0  0  0  0  0  0
    1.4683   18.8360  -33.3252 H   0  0  0  0  0  0  0  0  0  0  0  0
    0.6292   19.3048  -36.1145 H   0  0  0  0  0  0  0  0  0  0  0  0
    0.1509   17.9771  -35.0138 H   0  0  0  0  0  0  0  0  0  0  0  0
   -4.9950   17.9631  -34.2847 H   0  0  0  0  0  0  0  0  0  0  0  0
   -7.0351   19.1873  -33.5470 H   0  0  0  0  0  0  0  0  0  0  0  0
   -8.6789   20.1430  -32.5867 H   0  0  0  0  0  0  0  0  0  0  0  0
   -8.1138   20.1227  -30.9114 H   0  0  0  0  0  0  0  0  0  0  0  0
  -10.3008   21.6220  -31.8890 H   0  0  0  0  0  0  0  0  0  0  0  0
   -9.4820   21.9424  -30.3488 H   0  0  0  0  0  0  0  0  0  0  0  0
   -9.3075   23.4205  -32.9478 H   0  0  0  0  0  0  0  0  0  0  0  0
   -8.9190   24.0053  -31.3186 H   0  0  0  0  0  0  0  0  0  0  0  0
   -7.0447   23.2666  -33.3119 H   0  0  0  0  0  0  0  0  0  0  0  0
   -6.6597   23.4756  -31.5976 H   0  0  0  0  0  0  0  0  0  0  0  0
   -5.2420   22.9660  -29.7950 H   0  0  0  0  0  0  0  0  0  0  0  0
   -4.8906   23.6711  -26.2140 H   0  0  0  0  0  0  0  0  0  0  0  0
   -3.0781   25.0538  -25.2146 H   0  0  0  0  0  0  0  0  0  0  0  0
    1.7122   24.6508  -24.5321 H   0  0  0  0  0  0  0  0  0  0  0  0
    0.2486   25.6450  -24.0995 H   0  0  0  0  0  0  0  0  0  0  0  0
    0.0367   23.1835  -23.5664 H   0  0  0  0  0  0  0  0  0  0  0  0
   -1.2358   23.8501  -24.6665 H   0  0  0  0  0  0  0  0  0  0  0  0
   -0.0206   22.3303  -27.5663 H   0  0  0  0  0  0  0  0  0  0  0  0
   -1.2312   23.4374  -26.8216 H   0  0  0  0  0  0  0  0  0  0  0  0
    1.7573   23.9935  -27.1982 H   0  0  0  0  0  0  0  0  0  0  0  0
    0.3826   24.7272  -28.1260 H   0  0  0  0  0  0  0  0  0  0  0  0
  1  2  2  0
  2  3  1  0
  3  4  1  0
  4  5  2  0
  5  6  1  0
  6  7  1  0
  7  8  2  0
  7  9  2  0
  7 10  1  0
 10 11  1  0
 11 12  1  0
 12 13  1  0
 13 14  1  0
  6 15  2  0
 15 16  1  0
 16 17  2  0
 17 18  1  0
 18 19  1  0
 19 20  1  0
 20 21  1  0
 21 22  1  0
  2 23  1  0
 23 24  1  0
 24 25  2  0
 25 26  1  0
 25 27  1  0
 27 28  2  0
 28 29  1  0
 29 30  1  0
 30 31  2  0
 30 32  2  0
 30 33  1  0
 33 34  1  0
 34 35  1  0
 35 36  1  0
 36 37  1  0
 37 38  1  0
 29 39  2  0
 39 40  1  0
 17  4  1  0
 22 18  1  0
 39 24  1  0
 14 10  1  0
 38 33  1  0
  5 41  1  0
 11 42  1  0
 11 43  1  0
 12 44  1  0
 12 45  1  0
 13 46  1  0
 13 47  1  0
 14 48  1  0
 14 49  1  0
 15 50  1  0
 16 51  1  0
 19 52  1  0
 19 53  1  0
 20 54  1  0
 20 55  1  0
 21 56  1  0
 21 57  1  0
 22 58  1  0
 22 59  1  0
 26 60  1  0
 27 61  1  0
 28 62  1  0
 34 63  1  0
 34 64  1  0
 35 65  1  0
 35 66  1  0
 37 67  1  0
 37 68  1  0
 38 69  1  0
 38 70  1  0
M  CHG  3   3  -1  23  -1  40  -1
M  END
>  <UniqueID>  (17) 
17

>  <SMILES>  (17) 
O=C([N-]c1cc(S(=O)(=O)N2CCCC2)ccc1N1CCCC1)[N-]c1c(O)ccc(S(=O)(=O)N2CCOCC2)c1[O-]

>  <Energy>  (17) 
96.85560120958019

>  <Genealogy>  (17) 
O=C([N-]c1cc(S(=O)(=O)N2CCCC2)ccc1N1CCCC1)[N-]c1c(O)ccc(S(=O)(=O)N2CCOCC2)c1[O-] (protonated)
O=C([N-]c1cc(S(=O)(=O)N2CCCC2)ccc1N1CCCC1)[N-]c1c(O)ccc(S(=O)(=O)N2CCOCC2)c1[O-] (3D coordinates assigned)
O=C([N-]c1cc(S(=O)(=O)N2CCCC2)ccc1N1CCCC1)[N-]c1c(O)ccc(S(=O)(=O)N2CCOCC2)c1[O-] (nonaromatic ring conformer: 96.85560120958019 kcal/mol)

>  <smiles>  (17) 
O=C(Nc1cc(S(=O)(=O)N2CCCC2)ccc1N1CCCC1)Nc1c(O)ccc(S(=O)(=O)N2CCOCC2)c1O

>  <score_type>  (17) 
oracle

>  <origin>  (17) 
adgpu

>  <m_score__min__energy>  (17) 
-15.94

>  <m_primary>  (17) 
energy

$$$$
17:0
     RDKit          3D

 54 57  0  0  0  0  0  0  0  0999 V2000
   -1.2020   26.9940  -23.4310 O   0  0  0  0  0  0  0  0  0  0  0  0
   -1.2080   27.2880  -24.6450 N   0  0  0  0  0  0  0  0  0  0  0  0
   -1.2430   28.6170  -25.0030 O   0  0  0  0  0  0  0  0  0  0  0  0
   -1.1910   26.2600  -25.6510 C   0  0  0  0  0  0  0  0  0  0  0  0
    0.0270   25.8090  -26.1860 C   0  0  0  0  0  0  0  0  0  0  0  0
    0.0450   24.8130  -27.1640 C   0  0  0  0  0  0  0  0  0  0  0  0
   -1.1470   24.2570  -27.6370 C   0  0  0  0  0  0  0  0  0  0  0  0
   -1.0740   23.2630  -28.6210 O   0  0  0  0  0  0  0  0  0  0  0  0
   -1.0170   21.8830  -28.3690 C   0  0  0  0  0  0  0  0  0  0  0  0
   -0.7340   21.3870  -27.0810 C   0  0  0  0  0  0  0  0  0  0  0  0
   -0.6850   20.0120  -26.8470 C   0  0  0  0  0  0  0  0  0  0  0  0
   -0.9350   19.1170  -27.8860 C   0  0  0  0  0  0  0  0  0  0  0  0
   -1.2360   19.5940  -29.1630 C   0  0  0  0  0  0  0  0  0  0  0  0
   -1.2730   20.9760  -29.4190 C   0  0  0  0  0  0  0  0  0  0  0  0
   -1.6090   21.4690  -30.8090 C   0  0  0  0  0  0  0  0  0  0  0  0
   -2.2850   22.7680  -30.7690 N   0  0  0  0  0  0  0  0  0  0  0  0
   -3.6960   22.9630  -31.0000 C   0  0  0  0  0  0  0  0  0  0  0  0
   -4.5160   21.9120  -31.4520 C   0  0  0  0  0  0  0  0  0  0  0  0
   -5.8770   22.1250  -31.7240 C   0  0  0  0  0  0  0  0  0  0  0  0
   -6.6910   21.0550  -32.2410 N   0  0  0  0  0  0  0  0  0  0  0  0
   -6.0580   19.8610  -32.8150 C   0  0  0  0  0  0  0  0  0  0  0  0
   -7.0410   18.6850  -32.8280 C   0  0  0  0  0  0  0  0  0  0  0  0
   -7.8180   18.6880  -31.5840 N   0  0  0  0  0  0  0  0  0  0  0  0
   -8.7210   19.8530  -31.4950 C   0  0  0  0  0  0  0  0  0  0  0  0
   -8.1560   21.1170  -32.1760 C   0  0  0  0  0  0  0  0  0  0  0  0
   -6.4220   23.4030  -31.5310 C   0  0  0  0  0  0  0  0  0  0  0  0
   -5.6240   24.4460  -31.0590 C   0  0  0  0  0  0  0  0  0  0  0  0
   -4.2680   24.2330  -30.7960 C   0  0  0  0  0  0  0  0  0  0  0  0
   -3.4930   25.2960  -30.3470 O   0  0  0  0  0  0  0  0  0  0  0  0
   -2.3750   24.6830  -27.0890 C   0  0  0  0  0  0  0  0  0  0  0  0
   -3.9040   23.9390  -27.5440 Cl  0  0  0  0  0  0  0  0  0  0  0  0
   -2.3900   25.6820  -26.1070 C   0  0  0  0  0  0  0  0  0  0  0  0
    0.9733   26.2437  -25.8318 H   0  0  0  0  0  0  0  0  0  0  0  0
    1.0068   24.4623  -27.5664 H   0  0  0  0  0  0  0  0  0  0  0  0
   -0.5503   22.0885  -26.2539 H   0  0  0  0  0  0  0  0  0  0  0  0
   -0.4488   19.6340  -25.8413 H   0  0  0  0  0  0  0  0  0  0  0  0
   -0.8951   18.0337  -27.6995 H   0  0  0  0  0  0  0  0  0  0  0  0
   -1.4459   18.8829  -29.9755 H   0  0  0  0  0  0  0  0  0  0  0  0
   -0.6788   21.5678  -31.3878 H   0  0  0  0  0  0  0  0  0  0  0  0
   -2.2871   20.7413  -31.2788 H   0  0  0  0  0  0  0  0  0  0  0  0
   -1.6810   23.6050  -30.6020 H   0  0  0  0  0  0  0  0  0  0  0  0
   -4.0847   20.9101  -31.5941 H   0  0  0  0  0  0  0  0  0  0  0  0
   -5.7413   20.0793  -33.8456 H   0  0  0  0  0  0  0  0  0  0  0  0
   -5.1874   19.5897  -32.1998 H   0  0  0  0  0  0  0  0  0  0  0  0
   -7.7216   18.7846  -33.6864 H   0  0  0  0  0  0  0  0  0  0  0  0
   -6.4838   17.7403  -32.9118 H   0  0  0  0  0  0  0  0  0  0  0  0
   -8.4000   17.8190  -31.5590 H   0  0  0  0  0  0  0  0  0  0  0  0
   -9.6747   19.5931  -31.9777 H   0  0  0  0  0  0  0  0  0  0  0  0
   -8.8467   20.0868  -30.4275 H   0  0  0  0  0  0  0  0  0  0  0  0
   -8.5608   21.1901  -33.1962 H   0  0  0  0  0  0  0  0  0  0  0  0
   -8.4489   21.9990  -31.5876 H   0  0  0  0  0  0  0  0  0  0  0  0
   -7.4841   23.5840  -31.7529 H   0  0  0  0  0  0  0  0  0  0  0  0
   -6.0643   25.4403  -30.8932 H   0  0  0  0  0  0  0  0  0  0  0  0
   -3.3498   26.0183  -25.6878 H   0  0  0  0  0  0  0  0  0  0  0  0
  1  2  2  0
  2  3  1  0
  2  4  1  0
  4  5  2  0
  5  6  1  0
  6  7  2  0
  7  8  1  0
  8  9  1  0
  9 10  2  0
 10 11  1  0
 11 12  2  0
 12 13  1  0
 13 14  2  0
 14 15  1  0
 15 16  1  0
 16 17  1  0
 17 18  2  0
 18 19  1  0
 19 20  1  0
 20 21  1  0
 21 22  1  0
 22 23  1  0
 23 24  1  0
 24 25  1  0
 19 26  2  0
 26 27  1  0
 27 28  2  0
 28 29  1  0
  7 30  1  0
 30 31  1  0
 30 32  2  0
 32  4  1  0
 14  9  1  0
 28 17  1  0
 25 20  1  0
  5 33  1  0
  6 34  1  0
 10 35  1  0
 11 36  1  0
 12 37  1  0
 13 38  1  0
 15 39  1  0
 15 40  1  0
 16 41  1  0
 18 42  1  0
 21 43  1  0
 21 44  1  0
 22 45  1  0
 22 46  1  0
 23 47  1  0
 24 48  1  0
 24 49  1  0
 25 50  1  0
 25 51  1  0
 26 52  1  0
 27 53  1  0
 32 54  1  0
M  CHG  3   2   1   3  -1  29  -1
M  END
>  <UniqueID>  (18) 
18

>  <SMILES>  (18) 
O=[N+]([O-])c1ccc(Oc2ccccc2CNc2cc(N3CCNCC3)ccc2[O-])c(Cl)c1

>  <Energy>  (18) 
72.96899441145217

>  <Genealogy>  (18) 
O=[N+]([O-])c1ccc(Oc2ccccc2CNc2cc(N3CCNCC3)ccc2[O-])c(Cl)c1 (protonated)
O=[N+]([O-])c1ccc(Oc2ccccc2CNc2cc(N3CCNCC3)ccc2[O-])c(Cl)c1 (3D coordinates assigned)
O=[N+]([O-])c1ccc(Oc2ccccc2CNc2cc(N3CCNCC3)ccc2[O-])c(Cl)c1 (nonaromatic ring conformer: 72.96899441145217 kcal/mol)

>  <smiles>  (18) 
O=[N+]([O-])c1ccc(Oc2ccccc2CNc2cc(N3CCNCC3)ccc2O)c(Cl)c1

>  <score_type>  (18) 
oracle

>  <origin>  (18) 
adgpu

>  <m_score__min__energy>  (18) 
-12.52

>  <m_primary>  (18) 
energy

$$$$
18:0
     RDKit          3D

 59 62  0  0  0  0  0  0  0  0999 V2000
   -1.7110   23.0940  -30.1050 O   0  0  0  0  0  0  0  0  0  0  0  0
   -2.7600   22.4360  -30.3470 C   0  0  0  0  0  0  0  0  0  0  0  0
   -2.6680   21.0210  -30.5500 N   0  0  0  0  0  0  0  0  0  0  0  0
   -2.4470   20.4000  -31.8220 C   0  0  0  0  0  0  0  0  0  0  0  0
   -3.4760   19.6290  -32.3770 C   0  0  0  0  0  0  0  0  0  0  0  0
   -3.3210   19.0280  -33.6340 C   0  0  0  0  0  0  0  0  0  0  0  0
   -4.6390   18.0840  -34.3390 S   0  0  0  0  0  0  0  0  0  0  0  0
   -4.2360   17.6340  -35.7150 O   0  0  0  0  0  0  0  0  0  0  0  0
   -5.8520   18.9610  -34.4730 O   0  0  0  0  0  0  0  0  0  0  0  0
   -5.0550   16.6800  -33.3840 N   0  0  0  0  0  0  0  0  0  0  0  0
   -3.8740   15.9180  -32.9820 C   0  0  0  0  0  0  0  0  0  0  0  0
   -4.3430   14.4890  -32.7530 C   0  0  0  0  0  0  0  0  0  0  0  0
   -5.6670   14.3750  -33.4940 C   0  0  0  0  0  0  0  0  0  0  0  0
   -5.8920   15.7400  -34.1260 C   0  0  0  0  0  0  0  0  0  0  0  0
   -2.1260   19.2070  -34.3400 C   0  0  0  0  0  0  0  0  0  0  0  0
   -1.0810   19.9470  -33.7800 C   0  0  0  0  0  0  0  0  0  0  0  0
   -1.2210   20.5260  -32.5140 C   0  0  0  0  0  0  0  0  0  0  0  0
   -0.1220   21.1850  -31.9620 O   0  0  0  0  0  0  0  0  0  0  0  0
   -4.0670   23.1390  -30.4470 C   0  0  0  0  0  0  0  0  0  0  0  0
   -5.2060   22.4200  -30.8640 C   0  0  0  0  0  0  0  0  0  0  0  0
   -6.4540   23.0480  -30.9690 C   0  0  0  0  0  0  0  0  0  0  0  0
   -7.8530   22.1220  -31.5110 S   0  0  0  0  0  0  0  0  0  0  0  0
   -8.6010   21.6420  -30.3000 O   0  0  0  0  0  0  0  0  0  0  0  0
   -8.7710   23.0040  -32.3130 O   0  0  0  0  0  0  0  0  0  0  0  0
   -7.3500   20.7420  -32.4640 N   0  0  0  0  0  0  0  0  0  0  0  0
   -8.4710   20.1480  -33.2200 C   0  0  0  0  0  0  0  0  0  0  0  0
   -9.4430   19.3550  -32.3270 C   0  0  0  0  0  0  0  0  0  0  0  0
   -8.7290   18.5360  -31.2370 C   0  0  0  0  0  0  0  0  0  0  0  0
   -7.2360   18.3870  -31.5180 C   0  0  0  0  0  0  0  0  0  0  0  0
   -6.5680   19.7680  -31.6580 C   0  0  0  0  0  0  0  0  0  0  0  0
   -6.5740   24.4080  -30.6680 C   0  0  0  0  0  0  0  0  0  0  0  0
   -5.4570   25.1340  -30.2570 C   0  0  0  0  0  0  0  0  0  0  0  0
   -4.2070   24.5130  -30.1450 C   0  0  0  0  0  0  0  0  0  0  0  0
   -3.1210   25.2820  -29.7400 O   0  0  0  0  0  0  0  0  0  0  0  0
   -4.4154   19.4936  -31.8210 H   0  0  0  0  0  0  0  0  0  0  0  0
   -3.1141   15.9464  -33.7768 H   0  0  0  0  0  0  0  0  0  0  0  0
   -3.4179   16.3386  -32.0737 H   0  0  0  0  0  0  0  0  0  0  0  0
   -3.6120   13.7743  -33.1589 H   0  0  0  0  0  0  0  0  0  0  0  0
   -4.4522   14.2607  -31.6825 H   0  0  0  0  0  0  0  0  0  0  0  0
   -5.6091   13.5964  -34.2689 H   0  0  0  0  0  0  0  0  0  0  0  0
   -6.4906   14.0938  -32.8212 H   0  0  0  0  0  0  0  0  0  0  0  0
   -5.5971   15.7221  -35.1856 H   0  0  0  0  0  0  0  0  0  0  0  0
   -6.9523   16.0298  -34.0833 H   0  0  0  0  0  0  0  0  0  0  0  0
   -2.0087   18.7635  -35.3398 H   0  0  0  0  0  0  0  0  0  0  0  0
   -0.1420   20.0751  -34.3384 H   0  0  0  0  0  0  0  0  0  0  0  0
   -0.2050   21.8490  -31.2030 H   0  0  0  0  0  0  0  0  0  0  0  0
   -5.1135   21.3519  -31.1101 H   0  0  0  0  0  0  0  0  0  0  0  0
   -9.0290   20.9572  -33.7139 H   0  0  0  0  0  0  0  0  0  0  0  0
   -8.0417   19.4433  -33.9474 H   0  0  0  0  0  0  0  0  0  0  0  0
  -10.1285   20.0640  -31.8397 H   0  0  0  0  0  0  0  0  0  0  0  0
   -9.9777   18.6442  -32.9742 H   0  0  0  0  0  0  0  0  0  0  0  0
   -8.8592   19.0431  -30.2696 H   0  0  0  0  0  0  0  0  0  0  0  0
   -9.1736   17.5300  -31.2226 H   0  0  0  0  0  0  0  0  0  0  0  0
   -6.7650   17.8405  -30.6876 H   0  0  0  0  0  0  0  0  0  0  0  0
   -7.1068   17.8344  -32.4603 H   0  0  0  0  0  0  0  0  0  0  0  0
   -6.4273   20.1873  -30.6508 H   0  0  0  0  0  0  0  0  0  0  0  0
   -5.6177   19.6082  -32.1885 H   0  0  0  0  0  0  0  0  0  0  0  0
   -7.5510   24.9059  -30.7556 H   0  0  0  0  0  0  0  0  0  0  0  0
   -5.5585   26.2031  -30.0188 H   0  0  0  0  0  0  0  0  0  0  0  0
  1  2  2  0
  2  3  1  0
  3  4  1  0
  4  5  2  0
  5  6  1  0
  6  7  1  0
  7  8  2  0
  7  9  2  0
  7 10  1  0
 10 11  1  0
 11 12  1  0
 12 13  1  0
 13 14  1  0
  6 15  2  0
 15 16  1  0
 16 17  2  0
 17 18  1  0
  2 19  1  0
 19 20  2  0
 20 21  1  0
 21 22  1  0
 22 23  2  0
 22 24  2  0
 22 25  1  0
 25 26  1  0
 26 27  1  0
 27 28  1  0
 28 29  1  0
 29 30  1  0
 21 31  2  0
 31 32  1  0
 32 33  2  0
 33 34  1  0
 17  4  1  0
 33 19  1  0
 14 10  1  0
 30 25  1  0
  5 35  1  0
 11 36  1  0
 11 37  1  0
 12 38  1  0
 12 39  1  0
 13 40  1  0
 13 41  1  0
 14 42  1  0
 14 43  1  0
 15 44  1  0
 16 45  1  0
 18 46  1  0
 20 47  1  0
 26 48  1  0
 26 49  1  0
 27 50  1  0
 27 51  1  0
 28 52  1  0
 28 53  1  0
 29 54  1  0
 29 55  1  0
 30 56  1  0
 30 57  1  0
 31 58  1  0
 32 59  1  0
M  CHG  2   3  -1  34  -1
M  END
>  <UniqueID>  (19) 
19

>  <SMILES>  (19) 
O=C([N-]c1cc(S(=O)(=O)N2CCCC2)ccc1O)c1cc(S(=O)(=O)N2CCCCC2)ccc1[O-]

>  <Energy>  (19) 
78.79752374514347

>  <Genealogy>  (19) 
O=C([N-]c1cc(S(=O)(=O)N2CCCC2)ccc1O)c1cc(S(=O)(=O)N2CCCCC2)ccc1[O-] (protonated)
O=C([N-]c1cc(S(=O)(=O)N2CCCC2)ccc1O)c1cc(S(=O)(=O)N2CCCCC2)ccc1[O-] (3D coordinates assigned)
O=C([N-]c1cc(S(=O)(=O)N2CCCC2)ccc1O)c1cc(S(=O)(=O)N2CCCCC2)ccc1[O-] (nonaromatic ring conformer: 78.79752374514347 kcal/mol)

>  <smiles>  (19) 
O=C(Nc1cc(S(=O)(=O)N2CCCC2)ccc1O)c1cc(S(=O)(=O)N2CCCCC2)ccc1O

>  <score_type>  (19) 
oracle

>  <origin>  (19) 
adgpu

>  <m_score__min__energy>  (19) 
-14.369999999999999

>  <m_primary>  (19) 
energy

$$$$
19:0
     RDKit          3D

 74 78  0  0  0  0  0  0  0  0999 V2000
    1.6790   20.0630  -31.5710 O   0  0  0  0  0  0  0  0  0  0  0  0
    0.4640   20.4330  -31.6410 C   0  0  0  0  0  0  0  0  0  0  0  0
   -0.2010   20.4740  -32.9120 N   0  0  0  0  0  0  0  0  0  0  0  0
   -1.4930   19.9400  -33.2260 C   0  0  0  0  0  0  0  0  0  0  0  0
   -2.6040   20.7890  -33.1640 C   0  0  0  0  0  0  0  0  0  0  0  0
   -3.8870   20.2860  -33.3910 C   0  0  0  0  0  0  0  0  0  0  0  0
   -4.0740   18.9290  -33.6860 C   0  0  0  0  0  0  0  0  0  0  0  0
   -5.7070   18.2980  -33.9390 S   0  0  0  0  0  0  0  0  0  0  0  0
   -6.0980   18.5450  -35.3710 O   0  0  0  0  0  0  0  0  0  0  0  0
   -5.6640   16.8110  -33.7240 O   0  0  0  0  0  0  0  0  0  0  0  0
   -6.8990   18.9800  -32.8460 N   0  0  0  0  0  0  0  0  0  0  0  0
   -8.0160   18.0360  -32.6240 C   0  0  0  0  0  0  0  0  0  0  0  0
   -9.0610   18.5970  -31.6310 C   0  0  0  0  0  0  0  0  0  0  0  0
   -8.7130   20.0110  -31.1520 C   0  0  0  0  0  0  0  0  0  0  0  0
   -8.3980   20.9240  -32.3450 C   0  0  0  0  0  0  0  0  0  0  0  0
   -7.3990   20.2770  -33.3350 C   0  0  0  0  0  0  0  0  0  0  0  0
   -2.9640   18.0770  -33.7450 C   0  0  0  0  0  0  0  0  0  0  0  0
   -1.6820   18.5770  -33.5080 C   0  0  0  0  0  0  0  0  0  0  0  0
   -0.2540   20.8490  -30.3990 C   0  0  0  0  0  0  0  0  0  0  0  0
   -1.0260   22.0300  -30.4100 C   0  0  0  0  0  0  0  0  0  0  0  0
   -1.6790   22.4820  -29.2510 C   0  0  0  0  0  0  0  0  0  0  0  0
   -2.6680   23.9480  -29.2850 S   0  0  0  0  0  0  0  0  0  0  0  0
   -3.4770   24.0260  -28.0110 O   0  0  0  0  0  0  0  0  0  0  0  0
   -1.7640   25.1560  -29.3430 O   0  0  0  0  0  0  0  0  0  0  0  0
   -3.7440   23.9850  -30.6700 N   0  0  0  0  0  0  0  0  0  0  0  0
   -4.1370   22.6220  -31.1100 C   0  0  0  0  0  0  0  0  0  0  0  0
   -5.4840   22.1590  -30.5330 C   0  0  0  0  0  0  0  0  0  0  0  0
   -6.6180   23.1720  -30.7700 C   0  0  0  0  0  0  0  0  0  0  0  0
   -6.1190   24.5480  -31.2420 C   0  0  0  0  0  0  0  0  0  0  0  0
   -4.8550   24.9470  -30.4780 C   0  0  0  0  0  0  0  0  0  0  0  0
   -1.5510   21.7560  -28.0600 C   0  0  0  0  0  0  0  0  0  0  0  0
   -0.8130   20.5780  -28.0310 C   0  0  0  0  0  0  0  0  0  0  0  0
   -0.1690   20.1070  -29.1860 C   0  0  0  0  0  0  0  0  0  0  0  0
    0.5060   18.8450  -29.1190 N   0  0  0  0  0  0  0  0  0  0  0  0
    0.1600   17.8210  -30.1150 C   0  0  0  0  0  0  0  0  0  0  0  0
    0.5820   16.3920  -29.6960 C   0  0  0  0  0  0  0  0  0  0  0  0
    0.7540   16.2620  -28.3010 O   0  0  0  0  0  0  0  0  0  0  0  0
    1.7870   17.1210  -27.8840 C   0  0  0  0  0  0  0  0  0  0  0  0
    1.2920   18.5610  -27.9040 C   0  0  0  0  0  0  0  0  0  0  0  0
   -2.4662   21.8562  -32.9357 H   0  0  0  0  0  0  0  0  0  0  0  0
   -4.7556   20.9589  -33.3379 H   0  0  0  0  0  0  0  0  0  0  0  0
   -8.5108   17.8389  -33.5864 H   0  0  0  0  0  0  0  0  0  0  0  0
   -7.6001   17.1131  -32.1937 H   0  0  0  0  0  0  0  0  0  0  0  0
  -10.0418   18.6241  -32.1284 H   0  0  0  0  0  0  0  0  0  0  0  0
   -9.0734   17.9384  -30.7500 H   0  0  0  0  0  0  0  0  0  0  0  0
   -9.5672   20.4247  -30.5960 H   0  0  0  0  0  0  0  0  0  0  0  0
   -7.8264   19.9572  -30.5032 H   0  0  0  0  0  0  0  0  0  0  0  0
   -9.3342   21.1423  -32.8798 H   0  0  0  0  0  0  0  0  0  0  0  0
   -7.9350   21.8414  -31.9525 H   0  0  0  0  0  0  0  0  0  0  0  0
   -7.9048   20.1219  -34.2994 H   0  0  0  0  0  0  0  0  0  0  0  0
   -6.5390   20.9545  -33.4412 H   0  0  0  0  0  0  0  0  0  0  0  0
   -3.1025   17.0111  -33.9787 H   0  0  0  0  0  0  0  0  0  0  0  0
   -0.8156   17.9001  -33.5423 H   0  0  0  0  0  0  0  0  0  0  0  0
   -1.1182   22.6068  -31.3421 H   0  0  0  0  0  0  0  0  0  0  0  0
   -4.2076   22.6168  -32.2077 H   0  0  0  0  0  0  0  0  0  0  0  0
   -3.3690   21.9271  -30.7395 H   0  0  0  0  0  0  0  0  0  0  0  0
   -5.7600   21.2059  -31.0078 H   0  0  0  0  0  0  0  0  0  0  0  0
   -5.3580   22.0536  -29.4453 H   0  0  0  0  0  0  0  0  0  0  0  0
   -7.2947   22.7650  -31.5358 H   0  0  0  0  0  0  0  0  0  0  0  0
   -7.1248   23.3237  -29.8055 H   0  0  0  0  0  0  0  0  0  0  0  0
   -5.8933   24.5024  -32.3176 H   0  0  0  0  0  0  0  0  0  0  0  0
   -6.9024   25.2964  -31.0519 H   0  0  0  0  0  0  0  0  0  0  0  0
   -4.5285   25.9367  -30.8300 H   0  0  0  0  0  0  0  0  0  0  0  0
   -5.1036   24.9585  -29.4065 H   0  0  0  0  0  0  0  0  0  0  0  0
   -2.0370   22.1198  -27.1427 H   0  0  0  0  0  0  0  0  0  0  0  0
   -0.7329   20.0090  -27.0930 H   0  0  0  0  0  0  0  0  0  0  0  0
   -0.9297   17.8335  -30.2645 H   0  0  0  0  0  0  0  0  0  0  0  0
    0.7078   18.0652  -31.0371 H   0  0  0  0  0  0  0  0  0  0  0  0
   -0.1956   15.6856  -30.0221 H   0  0  0  0  0  0  0  0  0  0  0  0
    1.5506   16.1786  -30.1716 H   0  0  0  0  0  0  0  0  0  0  0  0
    2.0955   16.8539  -26.8625 H   0  0  0  0  0  0  0  0  0  0  0  0
    2.6445   17.0196  -28.5655 H   0  0  0  0  0  0  0  0  0  0  0  0
    0.6598   18.7340  -27.0206 H   0  0  0  0  0  0  0  0  0  0  0  0
    2.1673   19.2272  -27.8954 H   0  0  0  0  0  0  0  0  0  0  0  0
  1  2  2  0
  2  3  1  0
  3  4  1  0
  4  5  2  0
  5  6  1  0
  6  7  2  0
  7  8  1  0
  8  9  2  0
  8 10  2  0
  8 11  1  0
 11 12  1  0
 12 13  1  0
 13 14  1  0
 14 15  1  0
 15 16  1  0
  7 17  1  0
 17 18  2  0
  2 19  1  0
 19 20  2  0
 20 21  1  0
 21 22  1  0
 22 23  2  0
 22 24  2  0
 22 25  1  0
 25 26  1  0
 26 27  1  0
 27 28  1  0
 28 29  1  0
 29 30  1  0
 21 31  2  0
 31 32  1  0
 32 33  2  0
 33 34  1  0
 34 35  1  0
 35 36  1  0
 36 37  1  0
 37 38  1  0
 38 39  1  0
 18  4  1  0
 33 19  1  0
 39 34  1  0
 16 11  1  0
 30 25  1  0
  5 40  1  0
  6 41  1  0
 12 42  1  0
 12 43  1  0
 13 44  1  0
 13 45  1  0
 14 46  1  0
 14 47  1  0
 15 48  1  0
 15 49  1  0
 16 50  1  0
 16 51  1  0
 17 52  1  0
 18 53  1  0
 20 54  1  0
 26 55  1  0
 26 56  1  0
 27 57  1  0
 27 58  1  0
 28 59  1  0
 28 60  1  0
 29 61  1  0
 29 62  1  0
 30 63  1  0
 30 64  1  0
 31 65  1  0
 32 66  1  0
 35 67  1  0
 35 68  1  0
 36 69  1  0
 36 70  1  0
 38 71  1  0
 38 72  1  0
 39 73  1  0
 39 74  1  0
M  CHG  1   3  -1
M  END
>  <UniqueID>  (20) 
20

>  <SMILES>  (20) 
O=C([N-]c1ccc(S(=O)(=O)N2CCCCC2)cc1)c1cc(S(=O)(=O)N2CCCCC2)ccc1N1CCOCC1

>  <Energy>  (20) 
105.64834876157292

>  <Genealogy>  (20) 
O=C([N-]c1ccc(S(=O)(=O)N2CCCCC2)cc1)c1cc(S(=O)(=O)N2CCCCC2)ccc1N1CCOCC1 (protonated)
O=C([N-]c1ccc(S(=O)(=O)N2CCCCC2)cc1)c1cc(S(=O)(=O)N2CCCCC2)ccc1N1CCOCC1 (3D coordinates assigned)
O=C([N-]c1ccc(S(=O)(=O)N2CCCCC2)cc1)c1cc(S(=O)(=O)N2CCCCC2)ccc1N1CCOCC1 (nonaromatic ring conformer: 105.64834876157292 kcal/mol)

>  <smiles>  (20) 
O=C(Nc1ccc(S(=O)(=O)N2CCCCC2)cc1)c1cc(S(=O)(=O)N2CCCCC2)ccc1N1CCOCC1

>  <score_type>  (20) 
oracle

>  <origin>  (20) 
adgpu

>  <m_score__min__energy>  (20) 
-12.949999999999999

>  <m_primary>  (20) 
energy

$$$$
20:0
     RDKit          3D

 39 41  0  0  0  0  0  0  0  0999 V2000
   -0.2170   23.0690  -27.5990 C   0  0  0  0  0  0  0  0  0  0  0  0
   -1.5490   23.6920  -27.2740 C   0  0  0  0  0  0  0  0  0  0  0  0
   -1.5820   24.8150  -26.4270 C   0  0  0  0  0  0  0  0  0  0  0  0
   -2.7960   25.4110  -26.0830 C   0  0  0  0  0  0  0  0  0  0  0  0
   -3.9930   24.8930  -26.5730 C   0  0  0  0  0  0  0  0  0  0  0  0
   -3.9820   23.7840  -27.4190 C   0  0  0  0  0  0  0  0  0  0  0  0
   -2.7700   23.1750  -27.7900 C   0  0  0  0  0  0  0  0  0  0  0  0
   -2.8210   22.0200  -28.7700 C   0  0  0  0  0  0  0  0  0  0  0  0
   -2.2080   22.5190  -30.4220 S   0  0  0  0  0  0  0  0  0  0  0  0
   -3.7220   23.3440  -30.8980 C   0  0  0  0  0  0  0  0  0  0  0  0
   -3.9650   24.6160  -30.4850 N   0  0  0  0  0  0  0  0  0  0  0  0
   -5.1370   25.2320  -30.7860 C   0  0  0  0  0  0  0  0  0  0  0  0
   -5.3400   26.4140  -30.4030 O   0  0  0  0  0  0  0  0  0  0  0  0
   -6.1170   24.5510  -31.5110 C   0  0  0  0  0  0  0  0  0  0  0  0
   -5.8540   23.2360  -31.9200 C   0  0  0  0  0  0  0  0  0  0  0  0
   -6.8190   22.4780  -32.6600 N   0  0  0  0  0  0  0  0  0  0  0  0
   -7.1430   21.1040  -32.3860 C   0  0  0  0  0  0  0  0  0  0  0  0
   -6.2120   20.0720  -32.6130 C   0  0  0  0  0  0  0  0  0  0  0  0
   -6.5630   18.7410  -32.3720 C   0  0  0  0  0  0  0  0  0  0  0  0
   -7.8450   18.4260  -31.9140 C   0  0  0  0  0  0  0  0  0  0  0  0
   -8.7810   19.4420  -31.7050 C   0  0  0  0  0  0  0  0  0  0  0  0
   -8.4340   20.7750  -31.9460 C   0  0  0  0  0  0  0  0  0  0  0  0
   -4.6540   22.6740  -31.6220 N   0  0  0  0  0  0  0  0  0  0  0  0
    0.3100   22.8225  -26.6655 H   0  0  0  0  0  0  0  0  0  0  0  0
   -0.3746   22.1512  -28.1845 H   0  0  0  0  0  0  0  0  0  0  0  0
    0.3865   23.7783  -28.1845 H   0  0  0  0  0  0  0  0  0  0  0  0
   -0.6417   25.2272  -26.0321 H   0  0  0  0  0  0  0  0  0  0  0  0
   -2.8079   26.2915  -25.4237 H   0  0  0  0  0  0  0  0  0  0  0  0
   -4.9487   25.3596  -26.2921 H   0  0  0  0  0  0  0  0  0  0  0  0
   -4.9320   23.3813  -27.8002 H   0  0  0  0  0  0  0  0  0  0  0  0
   -2.1956   21.1993  -28.3889 H   0  0  0  0  0  0  0  0  0  0  0  0
   -3.8678   21.6978  -28.8716 H   0  0  0  0  0  0  0  0  0  0  0  0
   -7.0738   25.0354  -31.7557 H   0  0  0  0  0  0  0  0  0  0  0  0
   -7.2520   22.9310  -33.4960 H   0  0  0  0  0  0  0  0  0  0  0  0
   -5.2044   20.3146  -32.9815 H   0  0  0  0  0  0  0  0  0  0  0  0
   -5.8288   17.9399  -32.5431 H   0  0  0  0  0  0  0  0  0  0  0  0
   -8.1172   17.3784  -31.7181 H   0  0  0  0  0  0  0  0  0  0  0  0
   -9.7921   19.1930  -31.3505 H   0  0  0  0  0  0  0  0  0  0  0  0
   -9.1776   21.5704  -31.7897 H   0  0  0  0  0  0  0  0  0  0  0  0
  1  2  1  0
  2  3  2  0
  3  4  1  0
  4  5  2  0
  5  6  1  0
  6  7  2  0
  7  8  1  0
  8  9  1  0
  9 10  1  0
 10 11  2  0
 11 12  1  0
 12 13  2  0
 12 14  1  0
 14 15  2  0
 15 16  1  0
 16 17  1  0
 17 18  2  0
 18 19  1  0
 19 20  2  0
 20 21  1  0
 21 22  2  0
 15 23  1  0
  7  2  1  0
 23 10  1  0
 22 17  1  0
  1 24  1  0
  1 25  1  0
  1 26  1  0
  3 27  1  0
  4 28  1  0
  5 29  1  0
  6 30  1  0
  8 31  1  0
  8 32  1  0
 14 33  1  0
 16 34  1  0
 18 35  1  0
 19 36  1  0
 20 37  1  0
 21 38  1  0
 22 39  1  0
M  CHG  1  23  -1
M  END
>  <UniqueID>  (21) 
21

>  <SMILES>  (21) 
Cc1ccccc1CSc1nc(=O)cc(Nc2ccccc2)[n-]1

>  <Energy>  (21) 
42.804972824022556

>  <Genealogy>  (21) 
Cc1ccccc1CSc1nc(=O)cc(Nc2ccccc2)[n-]1 (protonated)
Cc1ccccc1CSc1nc(=O)cc(Nc2ccccc2)[n-]1 (3D coordinates assigned)
Cc1ccccc1CSc1nc(=O)cc(Nc2ccccc2)[n-]1 (optimized conformer: 42.804972824022556 kcal/mol)

>  <smiles>  (21) 
Cc1ccccc1CSc1nc(=O)cc(Nc2ccccc2)[nH]1

>  <score_type>  (21) 
oracle

>  <origin>  (21) 
adgpu

>  <m_score__min__energy>  (21) 
-10.01

>  <m_primary>  (21) 
energy

$$$$
21:0
     RDKit          3D

 50 53  0  0  0  0  0  0  0  0999 V2000
   -3.9550   25.3160  -30.8490 O   0  0  0  0  0  0  0  0  0  0  0  0
   -4.0140   24.0950  -29.9750 S   0  0  0  0  0  0  0  0  0  0  0  0
   -4.1990   24.5350  -28.5490 O   0  0  0  0  0  0  0  0  0  0  0  0
   -2.5390   23.2040  -30.1300 N   0  0  0  0  0  0  0  0  0  0  0  0
   -1.5610   23.2930  -29.0930 C   0  0  0  0  0  0  0  0  0  0  0  0
   -1.0740   24.5480  -28.7010 C   0  0  0  0  0  0  0  0  0  0  0  0
   -1.4960   25.6740  -29.3320 F   0  0  0  0  0  0  0  0  0  0  0  0
   -0.1510   24.6470  -27.6570 C   0  0  0  0  0  0  0  0  0  0  0  0
    0.2820   23.4960  -26.9950 C   0  0  0  0  0  0  0  0  0  0  0  0
   -0.2070   22.2430  -27.3730 C   0  0  0  0  0  0  0  0  0  0  0  0
   -1.1340   22.1310  -28.4280 C   0  0  0  0  0  0  0  0  0  0  0  0
   -1.6760   20.8960  -28.8250 O   0  0  0  0  0  0  0  0  0  0  0  0
   -1.0430   19.9530  -29.6890 C   0  0  0  0  0  0  0  0  0  0  0  0
   -1.2180   20.3440  -31.1320 C   0  0  0  0  0  0  0  0  0  0  0  0
   -2.4580   20.1650  -31.7660 C   0  0  0  0  0  0  0  0  0  0  0  0
   -2.6190   20.5120  -33.1110 C   0  0  0  0  0  0  0  0  0  0  0  0
   -1.5400   21.0290  -33.8340 C   0  0  0  0  0  0  0  0  0  0  0  0
   -0.2990   21.1960  -33.2140 C   0  0  0  0  0  0  0  0  0  0  0  0
   -0.1340   20.8500  -31.8690 C   0  0  0  0  0  0  0  0  0  0  0  0
   -5.3460   23.0580  -30.4690 C   0  0  0  0  0  0  0  0  0  0  0  0
   -6.6260   23.2470  -29.9350 C   0  0  0  0  0  0  0  0  0  0  0  0
   -7.7050   22.5020  -30.4150 C   0  0  0  0  0  0  0  0  0  0  0  0
   -7.5190   21.5640  -31.4410 C   0  0  0  0  0  0  0  0  0  0  0  0
   -6.2360   21.3900  -32.0000 C   0  0  0  0  0  0  0  0  0  0  0  0
   -5.1530   22.1200  -31.4910 C   0  0  0  0  0  0  0  0  0  0  0  0
   -6.0050   20.3760  -33.0940 C   0  0  0  0  0  0  0  0  0  0  0  0
   -7.2470   20.0680  -33.8150 N   0  0  0  0  0  0  0  0  0  0  0  0
   -8.2920   19.6500  -32.8760 C   0  0  0  0  0  0  0  0  0  0  0  0
   -8.7130   20.8380  -32.0060 C   0  0  0  0  0  0  0  0  0  0  0  0
   -2.5550   22.3470  -30.7240 H   0  0  0  0  0  0  0  0  0  0  0  0
    0.2350   25.6322  -27.3562 H   0  0  0  0  0  0  0  0  0  0  0  0
    1.0098   23.5762  -26.1741 H   0  0  0  0  0  0  0  0  0  0  0  0
    0.1332   21.3401  -26.8447 H   0  0  0  0  0  0  0  0  0  0  0  0
    0.0309   19.9140  -29.4542 H   0  0  0  0  0  0  0  0  0  0  0  0
   -1.5066   18.9677  -29.5334 H   0  0  0  0  0  0  0  0  0  0  0  0
   -3.3065   19.7500  -31.2022 H   0  0  0  0  0  0  0  0  0  0  0  0
   -3.5950   20.3781  -33.6003 H   0  0  0  0  0  0  0  0  0  0  0  0
   -1.6680   21.3044  -34.8912 H   0  0  0  0  0  0  0  0  0  0  0  0
    0.5499   21.6004  -33.7849 H   0  0  0  0  0  0  0  0  0  0  0  0
    0.8469   20.9743  -31.3869 H   0  0  0  0  0  0  0  0  0  0  0  0
   -6.7824   23.9850  -29.1344 H   0  0  0  0  0  0  0  0  0  0  0  0
   -8.7068   22.6516  -29.9860 H   0  0  0  0  0  0  0  0  0  0  0  0
   -4.1442   21.9550  -31.8972 H   0  0  0  0  0  0  0  0  0  0  0  0
   -5.2695   20.7795  -33.8056 H   0  0  0  0  0  0  0  0  0  0  0  0
   -5.6357   19.4486  -32.6319 H   0  0  0  0  0  0  0  0  0  0  0  0
   -7.0510   19.2640  -34.4570 H   0  0  0  0  0  0  0  0  0  0  0  0
   -9.1629   19.2826  -33.4387 H   0  0  0  0  0  0  0  0  0  0  0  0
   -7.9019   18.8482  -32.2318 H   0  0  0  0  0  0  0  0  0  0  0  0
   -9.2996   21.5386  -32.6185 H   0  0  0  0  0  0  0  0  0  0  0  0
   -9.3107   20.4541  -31.1662 H   0  0  0  0  0  0  0  0  0  0  0  0
  1  2  2  0
  2  3  2  0
  2  4  1  0
  4  5  1  0
  5  6  2  0
  6  7  1  0
  6  8  1  0
  8  9  2  0
  9 10  1  0
 10 11  2  0
 11 12  1  0
 12 13  1  0
 13 14  1  0
 14 15  2  0
 15 16  1  0
 16 17  2  0
 17 18  1  0
 18 19  2  0
  2 20  1  0
 20 21  2  0
 21 22  1  0
 22 23  2  0
 23 24  1  0
 24 25  2  0
 24 26  1  0
 26 27  1  0
 27 28  1  0
 28 29  1  0
 11  5  1  0
 19 14  1  0
 25 20  1  0
 29 23  1  0
  4 30  1  0
  8 31  1  0
  9 32  1  0
 10 33  1  0
 13 34  1  0
 13 35  1  0
 15 36  1  0
 16 37  1  0
 17 38  1  0
 18 39  1  0
 19 40  1  0
 21 41  1  0
 22 42  1  0
 25 43  1  0
 26 44  1  0
 26 45  1  0
 27 46  1  0
 28 47  1  0
 28 48  1  0
 29 49  1  0
 29 50  1  0
M  END
>  <UniqueID>  (22) 
22

>  <SMILES>  (22) 
O=S(=O)(Nc1c(F)cccc1OCc1ccccc1)c1ccc2c(c1)CNCC2

>  <Energy>  (22) 
59.896979152360345

>  <Genealogy>  (22) 
O=S(=O)(Nc1c(F)cccc1OCc1ccccc1)c1ccc2c(c1)CNCC2 (3D coordinates assigned)
O=S(=O)(Nc1c(F)cccc1OCc1ccccc1)c1ccc2c(c1)CNCC2 (nonaromatic ring conformer: 59.896979152360345 kcal/mol)

>  <smiles>  (22) 
O=S(=O)(Nc1c(F)cccc1OCc1ccccc1)c1ccc2c(c1)CNCC2

>  <score_type>  (22) 
oracle

>  <origin>  (22) 
adgpu

>  <m_score__min__energy>  (22) 
-10.65

>  <m_primary>  (22) 
energy

$$$$
22:0
     RDKit          3D

 63 66  0  0  0  0  0  0  0  0999 V2000
   -0.2250   18.7690  -28.6250 C   0  0  0  0  0  0  0  0  0  0  0  0
   -0.8940   20.1100  -28.7770 C   0  0  0  0  0  0  0  0  0  0  0  0
   -0.4970   20.9630  -29.8200 C   0  0  0  0  0  0  0  0  0  0  0  0
   -1.0680   22.2290  -29.9590 C   0  0  0  0  0  0  0  0  0  0  0  0
   -2.0430   22.6660  -29.0580 C   0  0  0  0  0  0  0  0  0  0  0  0
   -2.7040   24.2920  -29.2170 S   0  0  0  0  0  0  0  0  0  0  0  0
   -3.6650   24.5880  -28.1010 O   0  0  0  0  0  0  0  0  0  0  0  0
   -1.5780   25.2860  -29.1560 O   0  0  0  0  0  0  0  0  0  0  0  0
   -3.5210   24.4490  -30.7330 N   0  0  0  0  0  0  0  0  0  0  0  0
   -4.8500   23.9580  -30.8900 C   0  0  0  0  0  0  0  0  0  0  0  0
   -5.0640   22.7470  -31.5590 C   0  0  0  0  0  0  0  0  0  0  0  0
   -6.3600   22.2220  -31.6810 C   0  0  0  0  0  0  0  0  0  0  0  0
   -6.5900   20.9200  -32.3450 C   0  0  0  0  0  0  0  0  0  0  0  0
   -7.6280   20.2660  -32.0530 O   0  0  0  0  0  0  0  0  0  0  0  0
   -5.6400   20.3720  -33.2860 N   0  0  0  0  0  0  0  0  0  0  0  0
   -4.2050   20.6800  -33.1580 C   0  0  0  0  0  0  0  0  0  0  0  0
   -3.3310   19.5700  -33.7570 C   0  0  0  0  0  0  0  0  0  0  0  0
   -3.9060   18.1840  -33.3980 C   0  0  0  0  0  0  0  0  0  0  0  0
   -2.9910   17.0400  -33.8860 C   0  0  0  0  0  0  0  0  0  0  0  0
   -3.2050   15.7660  -33.1070 C   0  0  0  0  0  0  0  0  0  0  0  0
   -4.4250   15.5330  -32.4500 C   0  0  0  0  0  0  0  0  0  0  0  0
   -4.6040   14.3780  -31.6820 C   0  0  0  0  0  0  0  0  0  0  0  0
   -3.5660   13.4500  -31.5600 C   0  0  0  0  0  0  0  0  0  0  0  0
   -2.3510   13.6720  -32.2120 C   0  0  0  0  0  0  0  0  0  0  0  0
   -2.1690   14.8240  -32.9840 C   0  0  0  0  0  0  0  0  0  0  0  0
   -5.3460   18.0090  -33.9570 C   0  0  0  0  0  0  0  0  0  0  0  0
   -6.0560   19.3430  -34.2480 C   0  0  0  0  0  0  0  0  0  0  0  0
   -7.4470   22.9540  -31.1760 C   0  0  0  0  0  0  0  0  0  0  0  0
   -7.2370   24.1730  -30.5250 C   0  0  0  0  0  0  0  0  0  0  0  0
   -5.9380   24.6770  -30.3750 C   0  0  0  0  0  0  0  0  0  0  0  0
   -5.7230   25.8880  -29.7180 O   0  0  0  0  0  0  0  0  0  0  0  0
   -2.4650   21.8170  -28.0270 C   0  0  0  0  0  0  0  0  0  0  0  0
   -1.9000   20.5370  -27.8750 C   0  0  0  0  0  0  0  0  0  0  0  0
   -2.3500   19.6610  -26.7350 C   0  0  0  0  0  0  0  0  0  0  0  0
   -0.1089   18.5362  -27.5562 H   0  0  0  0  0  0  0  0  0  0  0  0
   -0.8425   17.9948  -29.1039 H   0  0  0  0  0  0  0  0  0  0  0  0
    0.7649   18.7967  -29.1039 H   0  0  0  0  0  0  0  0  0  0  0  0
    0.2710   20.6302  -30.5338 H   0  0  0  0  0  0  0  0  0  0  0  0
   -0.7491   22.8860  -30.7816 H   0  0  0  0  0  0  0  0  0  0  0  0
   -4.2112   22.2035  -31.9918 H   0  0  0  0  0  0  0  0  0  0  0  0
   -3.9944   21.6227  -33.6842 H   0  0  0  0  0  0  0  0  0  0  0  0
   -3.9664   20.7644  -32.0875 H   0  0  0  0  0  0  0  0  0  0  0  0
   -3.3044   19.6796  -34.8512 H   0  0  0  0  0  0  0  0  0  0  0  0
   -2.3143   19.6534  -33.3454 H   0  0  0  0  0  0  0  0  0  0  0  0
   -3.9531   18.1298  -32.3003 H   0  0  0  0  0  0  0  0  0  0  0  0
   -3.2029   16.8456  -34.9478 H   0  0  0  0  0  0  0  0  0  0  0  0
   -1.9478   17.3554  -33.7366 H   0  0  0  0  0  0  0  0  0  0  0  0
   -5.2433   16.2626  -32.5402 H   0  0  0  0  0  0  0  0  0  0  0  0
   -5.5629   14.1997  -31.1733 H   0  0  0  0  0  0  0  0  0  0  0  0
   -3.7060   12.5450  -30.9506 H   0  0  0  0  0  0  0  0  0  0  0  0
   -1.5357   12.9395  -32.1182 H   0  0  0  0  0  0  0  0  0  0  0  0
   -1.2109   14.9936  -33.4972 H   0  0  0  0  0  0  0  0  0  0  0  0
   -5.2891   17.4332  -34.8925 H   0  0  0  0  0  0  0  0  0  0  0  0
   -5.9331   17.4909  -33.1844 H   0  0  0  0  0  0  0  0  0  0  0  0
   -5.7995   19.6744  -35.2650 H   0  0  0  0  0  0  0  0  0  0  0  0
   -7.1420   19.1930  -34.1586 H   0  0  0  0  0  0  0  0  0  0  0  0
   -8.4695   22.5658  -31.2934 H   0  0  0  0  0  0  0  0  0  0  0  0
   -8.0937   24.7382  -30.1293 H   0  0  0  0  0  0  0  0  0  0  0  0
   -4.9920   25.9930  -29.0250 H   0  0  0  0  0  0  0  0  0  0  0  0
   -3.2457   22.1540  -27.3292 H   0  0  0  0  0  0  0  0  0  0  0  0
   -2.1009   20.1459  -25.7796 H   0  0  0  0  0  0  0  0  0  0  0  0
   -3.4377   19.5091  -26.7965 H   0  0  0  0  0  0  0  0  0  0  0  0
   -1.8399   18.6884  -26.7965 H   0  0  0  0  0  0  0  0  0  0  0  0
  1  2  1  0
  2  3  2  0
  3  4  1  0
  4  5  2  0
  5  6  1  0
  6  7  2  0
  6  8  2  0
  6  9  1  0
  9 10  1  0
 10 11  2  0
 11 12  1  0
 12 13  1  0
 13 14  2  0
 13 15  1  0
 15 16  1  0
 16 17  1  0
 17 18  1  0
 18 19  1  0
 19 20  1  0
 20 21  2  0
 21 22  1  0
 22 23  2  0
 23 24  1  0
 24 25  2  0
 18 26  1  0
 26 27  1  0
 12 28  2  0
 28 29  1  0
 29 30  2  0
 30 31  1  0
  5 32  1  0
 32 33  2  0
 33 34  1  0
 33  2  1  0
 30 10  1  0
 27 15  1  0
 25 20  1  0
  1 35  1  0
  1 36  1  0
  1 37  1  0
  3 38  1  0
  4 39  1  0
 11 40  1  0
 16 41  1  0
 16 42  1  0
 17 43  1  0
 17 44  1  0
 18 45  1  0
 19 46  1  0
 19 47  1  0
 21 48  1  0
 22 49  1  0
 23 50  1  0
 24 51  1  0
 25 52  1  0
 26 53  1  0
 26 54  1  0
 27 55  1  0
 27 56  1  0
 28 57  1  0
 29 58  1  0
 31 59  1  0
 32 60  1  0
 34 61  1  0
 34 62  1  0
 34 63  1  0
M  CHG  1   9  -1
M  END
>  <UniqueID>  (23) 
23

>  <SMILES>  (23) 
Cc1ccc(S(=O)(=O)[N-]c2cc(C(=O)N3CCC(Cc4ccccc4)CC3)ccc2O)cc1C

>  <Energy>  (23) 
75.82193259691577

>  <Genealogy>  (23) 
Cc1ccc(S(=O)(=O)[N-]c2cc(C(=O)N3CCC(Cc4ccccc4)CC3)ccc2O)cc1C (protonated)
Cc1ccc(S(=O)(=O)[N-]c2cc(C(=O)N3CCC(Cc4ccccc4)CC3)ccc2O)cc1C (3D coordinates assigned)
Cc1ccc(S(=O)(=O)[N-]c2cc(C(=O)N3CCC(Cc4ccccc4)CC3)ccc2O)cc1C (nonaromatic ring conformer: 75.82193259691577 kcal/mol)

>  <smiles>  (23) 
Cc1ccc(S(=O)(=O)Nc2cc(C(=O)N3CCC(Cc4ccccc4)CC3)ccc2O)cc1C

>  <score_type>  (23) 
oracle

>  <origin>  (23) 
adgpu

>  <m_score__min__energy>  (23) 
-12.66

>  <m_primary>  (23) 
energy

$$$$
23:0
     RDKit          3D

 66 70  0  0  0  0  0  0  0  0999 V2000
   -3.1520   15.1930  -33.7720 C   0  0  0  0  0  0  0  0  0  0  0  0
   -2.7490   16.6830  -34.6530 S   0  0  0  0  0  0  0  0  0  0  0  0
   -3.8620   17.0010  -35.6150 O   0  0  0  0  0  0  0  0  0  0  0  0
   -1.4780   16.4870  -35.4290 O   0  0  0  0  0  0  0  0  0  0  0  0
   -2.5380   18.0020  -33.5060 C   0  0  0  0  0  0  0  0  0  0  0  0
   -1.2880   18.2550  -32.9260 C   0  0  0  0  0  0  0  0  0  0  0  0
   -1.1320   19.3120  -32.0250 C   0  0  0  0  0  0  0  0  0  0  0  0
   -2.2250   20.1360  -31.7030 C   0  0  0  0  0  0  0  0  0  0  0  0
   -2.0770   21.2170  -30.7680 N   0  0  0  0  0  0  0  0  0  0  0  0
   -2.5120   22.4420  -31.0220 N   0  0  0  0  0  0  0  0  0  0  0  0
   -2.3260   23.1790  -29.9080 C   0  0  0  0  0  0  0  0  0  0  0  0
   -2.7400   24.5850  -29.7610 C   0  0  0  0  0  0  0  0  0  0  0  0
   -2.1020   25.3350  -28.9760 O   0  0  0  0  0  0  0  0  0  0  0  0
   -3.9020   25.1060  -30.4190 N   0  0  0  0  0  0  0  0  0  0  0  0
   -5.1080   24.3920  -30.7270 C   0  0  0  0  0  0  0  0  0  0  0  0
   -5.2250   23.7840  -31.9820 C   0  0  0  0  0  0  0  0  0  0  0  0
   -6.3390   22.9990  -32.2890 C   0  0  0  0  0  0  0  0  0  0  0  0
   -7.3580   22.8170  -31.3450 C   0  0  0  0  0  0  0  0  0  0  0  0
   -8.7320   21.7710  -31.7110 S   0  0  0  0  0  0  0  0  0  0  0  0
   -9.8260   22.6080  -32.3160 O   0  0  0  0  0  0  0  0  0  0  0  0
   -9.2610   21.1850  -30.4310 O   0  0  0  0  0  0  0  0  0  0  0  0
   -8.3320   20.4780  -32.8230 N   0  0  0  0  0  0  0  0  0  0  0  0
   -9.3030   19.3650  -32.8020 C   0  0  0  0  0  0  0  0  0  0  0  0
   -9.0540   18.3390  -31.6780 C   0  0  0  0  0  0  0  0  0  0  0  0
   -7.5740   18.1700  -31.3150 C   0  0  0  0  0  0  0  0  0  0  0  0
   -6.6650   18.6120  -32.4570 C   0  0  0  0  0  0  0  0  0  0  0  0
   -6.9010   20.0940  -32.7790 C   0  0  0  0  0  0  0  0  0  0  0  0
   -7.2380   23.4130  -30.0820 C   0  0  0  0  0  0  0  0  0  0  0  0
   -6.1180   24.1910  -29.7710 C   0  0  0  0  0  0  0  0  0  0  0  0
   -1.7700   22.3980  -28.9120 C   0  0  0  0  0  0  0  0  0  0  0  0
   -1.6120   21.1560  -29.4980 C   0  0  0  0  0  0  0  0  0  0  0  0
   -0.9700   19.9880  -28.8510 C   0  0  0  0  0  0  0  0  0  0  0  0
    0.2960   19.5410  -29.2690 C   0  0  0  0  0  0  0  0  0  0  0  0
    0.8990   18.4450  -28.6460 C   0  0  0  0  0  0  0  0  0  0  0  0
    0.2490   17.7930  -27.5940 C   0  0  0  0  0  0  0  0  0  0  0  0
   -1.0020   18.2410  -27.1600 C   0  0  0  0  0  0  0  0  0  0  0  0
   -1.6070   19.3380  -27.7810 C   0  0  0  0  0  0  0  0  0  0  0  0
   -3.4760   19.8730  -32.2760 C   0  0  0  0  0  0  0  0  0  0  0  0
   -3.6300   18.8140  -33.1760 C   0  0  0  0  0  0  0  0  0  0  0  0
   -3.1009   15.3819  -32.6895 H   0  0  0  0  0  0  0  0  0  0  0  0
   -4.1692   14.8720  -34.0406 H   0  0  0  0  0  0  0  0  0  0  0  0
   -2.4353   14.4030  -34.0406 H   0  0  0  0  0  0  0  0  0  0  0  0
   -0.4268   17.6198  -33.1805 H   0  0  0  0  0  0  0  0  0  0  0  0
   -0.1502   19.5001  -31.5659 H   0  0  0  0  0  0  0  0  0  0  0  0
   -4.4335   23.9253  -32.7327 H   0  0  0  0  0  0  0  0  0  0  0  0
   -6.4165   22.5214  -33.2769 H   0  0  0  0  0  0  0  0  0  0  0  0
  -10.3102   19.7867  -32.6690 H   0  0  0  0  0  0  0  0  0  0  0  0
   -9.1925   18.8272  -33.7552 H   0  0  0  0  0  0  0  0  0  0  0  0
   -9.5964   18.6693  -30.7798 H   0  0  0  0  0  0  0  0  0  0  0  0
   -9.4078   17.3651  -32.0473 H   0  0  0  0  0  0  0  0  0  0  0  0
   -7.3523   18.7782  -30.4257 H   0  0  0  0  0  0  0  0  0  0  0  0
   -7.3865   17.1043  -31.1170 H   0  0  0  0  0  0  0  0  0  0  0  0
   -5.6151   18.4668  -32.1627 H   0  0  0  0  0  0  0  0  0  0  0  0
   -6.8915   18.0103  -33.3495 H   0  0  0  0  0  0  0  0  0  0  0  0
   -6.4033   20.6997  -32.0074 H   0  0  0  0  0  0  0  0  0  0  0  0
   -6.4914   20.2717  -33.7843 H   0  0  0  0  0  0  0  0  0  0  0  0
   -8.0289   23.2681  -29.3314 H   0  0  0  0  0  0  0  0  0  0  0  0
   -6.0275   24.6473  -28.7742 H   0  0  0  0  0  0  0  0  0  0  0  0
   -1.5118   22.6972  -27.8855 H   0  0  0  0  0  0  0  0  0  0  0  0
    0.8145   20.0567  -30.0907 H   0  0  0  0  0  0  0  0  0  0  0  0
    1.8857   18.0951  -28.9836 H   0  0  0  0  0  0  0  0  0  0  0  0
    0.7221   16.9272  -27.1076 H   0  0  0  0  0  0  0  0  0  0  0  0
   -1.5109   17.7301  -26.3293 H   0  0  0  0  0  0  0  0  0  0  0  0
   -2.5868   19.6938  -27.4298 H   0  0  0  0  0  0  0  0  0  0  0  0
   -4.3404   20.5020  -32.0169 H   0  0  0  0  0  0  0  0  0  0  0  0
   -4.6139   18.6178  -33.6270 H   0  0  0  0  0  0  0  0  0  0  0  0
  1  2  1  0
  2  3  2  0
  2  4  2  0
  2  5  1  0
  5  6  2  0
  6  7  1  0
  7  8  2  0
  8  9  1  0
  9 10  1  0
 10 11  2  0
 11 12  1  0
 12 13  2  0
 12 14  1  0
 14 15  1  0
 15 16  2  0
 16 17  1  0
 17 18  2  0
 18 19  1  0
 19 20  2  0
 19 21  2  0
 19 22  1  0
 22 23  1  0
 23 24  1  0
 24 25  1  0
 25 26  1  0
 26 27  1  0
 18 28  1  0
 28 29  2  0
 11 30  1  0
 30 31  2  0
 31 32  1  0
 32 33  2  0
 33 34  1  0
 34 35  2  0
 35 36  1  0
 36 37  2  0
  8 38  1  0
 38 39  2  0
 39  5  1  0
 31  9  1  0
 37 32  1  0
 29 15  1  0
 27 22  1  0
  1 40  1  0
  1 41  1  0
  1 42  1  0
  6 43  1  0
  7 44  1  0
 16 45  1  0
 17 46  1  0
 23 47  1  0
 23 48  1  0
 24 49  1  0
 24 50  1  0
 25 51  1  0
 25 52  1  0
 26 53  1  0
 26 54  1  0
 27 55  1  0
 27 56  1  0
 28 57  1  0
 29 58  1  0
 30 59  1  0
 33 60  1  0
 34 61  1  0
 35 62  1  0
 36 63  1  0
 37 64  1  0
 38 65  1  0
 39 66  1  0
M  CHG  1  14  -1
M  END
>  <UniqueID>  (24) 
24

>  <SMILES>  (24) 
CS(=O)(=O)c1ccc(-n2nc(C(=O)[N-]c3ccc(S(=O)(=O)N4CCCCC4)cc3)cc2-c2ccccc2)cc1

>  <Energy>  (24) 
116.93870610756822

>  <Genealogy>  (24) 
CS(=O)(=O)c1ccc(-n2nc(C(=O)[N-]c3ccc(S(=O)(=O)N4CCCCC4)cc3)cc2-c2ccccc2)cc1 (protonated)
CS(=O)(=O)c1ccc(-n2nc(C(=O)[N-]c3ccc(S(=O)(=O)N4CCCCC4)cc3)cc2-c2ccccc2)cc1 (3D coordinates assigned)
CS(=O)(=O)c1ccc(-n2nc(C(=O)[N-]c3ccc(S(=O)(=O)N4CCCCC4)cc3)cc2-c2ccccc2)cc1 (nonaromatic ring conformer: 116.93870610756822 kcal/mol)

>  <smiles>  (24) 
CS(=O)(=O)c1ccc(-n2nc(C(=O)Nc3ccc(S(=O)(=O)N4CCCCC4)cc3)cc2-c2ccccc2)cc1

>  <score_type>  (24) 
oracle

>  <origin>  (24) 
adgpu

>  <m_score__min__energy>  (24) 
-12.960000000000001

>  <m_primary>  (24) 
energy

$$$$
24:0
     RDKit          3D

 52 54  0  0  0  0  0  0  0  0999 V2000
    1.1120   26.6870  -26.8760 C   0  0  0  0  0  0  0  0  0  0  0  0
    0.7110   25.6240  -25.8410 C   0  0  0  0  0  0  0  0  0  0  0  0
    1.6340   24.3960  -25.9810 C   0  0  0  0  0  0  0  0  0  0  0  0
    0.9140   26.1920  -24.4970 N   0  0  0  0  0  0  0  0  0  0  0  0
   -0.0560   26.6280  -23.7470 C   0  0  0  0  0  0  0  0  0  0  0  0
    0.2340   27.2470  -22.4910 N   0  0  0  0  0  0  0  0  0  0  0  0
   -1.4190   26.4880  -24.1610 N   0  0  0  0  0  0  0  0  0  0  0  0
   -1.7410   25.8270  -25.2310 C   0  0  0  0  0  0  0  0  0  0  0  0
   -3.1270   25.6820  -25.5770 N   0  0  0  0  0  0  0  0  0  0  0  0
   -0.7070   25.2360  -26.0470 N   0  0  0  0  0  0  0  0  0  0  0  0
   -1.0810   24.3780  -27.1400 C   0  0  0  0  0  0  0  0  0  0  0  0
   -1.0040   22.9850  -27.0050 C   0  0  0  0  0  0  0  0  0  0  0  0
   -1.3540   22.1540  -28.0720 C   0  0  0  0  0  0  0  0  0  0  0  0
   -1.7690   22.7060  -29.2930 C   0  0  0  0  0  0  0  0  0  0  0  0
   -2.2310   21.6500  -30.6290 S   0  0  1  0  0  0  0  0  0  0  0  0
   -1.5830   22.1260  -31.8990 O   0  0  0  0  0  0  0  0  0  0  0  0
   -1.6890   20.0550  -30.3350 S   0  0  0  0  0  0  0  0  0  0  0  0
   -3.9860   21.7000  -30.8260 C   0  0  0  0  0  0  0  0  0  0  0  0
   -4.6220   20.7850  -31.6790 C   0  0  0  0  0  0  0  0  0  0  0  0
   -6.0080   20.8330  -31.8600 C   0  0  0  0  0  0  0  0  0  0  0  0
   -6.7710   21.8050  -31.2000 C   0  0  0  0  0  0  0  0  0  0  0  0
   -8.5170   21.8550  -31.4160 S   0  0  0  0  0  0  0  0  0  0  0  0
   -9.0420   20.4190  -32.3240 C   0  0  0  0  0  0  0  0  0  0  0  0
   -8.9030   23.0960  -32.1710 O   0  0  0  0  0  0  0  0  0  0  0  0
   -9.1960   21.8770  -30.0740 O   0  0  0  0  0  0  0  0  0  0  0  0
   -6.1390   22.7210  -30.3490 C   0  0  0  0  0  0  0  0  0  0  0  0
   -4.7540   22.6720  -30.1680 C   0  0  0  0  0  0  0  0  0  0  0  0
   -1.8280   24.1000  -29.4340 C   0  0  0  0  0  0  0  0  0  0  0  0
   -1.4780   24.9330  -28.3660 C   0  0  0  0  0  0  0  0  0  0  0  0
   -1.5240   26.2790  -28.5230 F   0  0  0  0  0  0  0  0  0  0  0  0
    1.4542   27.5941  -26.3563 H   0  0  0  0  0  0  0  0  0  0  0  0
    1.9248   26.2969  -27.5063 H   0  0  0  0  0  0  0  0  0  0  0  0
    0.2441   26.9309  -27.5063 H   0  0  0  0  0  0  0  0  0  0  0  0
    1.9099   24.0289  -24.9815 H   0  0  0  0  0  0  0  0  0  0  0  0
    1.1072   23.6021  -26.5307 H   0  0  0  0  0  0  0  0  0  0  0  0
    2.5431   24.6814  -26.5307 H   0  0  0  0  0  0  0  0  0  0  0  0
    1.8990   26.3310  -24.1700 H   0  0  0  0  0  0  0  0  0  0  0  0
   -0.5390   27.5950  -21.8820 H   0  0  0  0  0  0  0  0  0  0  0  0
    1.2190   27.3620  -22.1610 H   0  0  0  0  0  0  0  0  0  0  0  0
   -2.1680   26.9060  -23.5630 H   0  0  0  0  0  0  0  0  0  0  0  0
   -3.4330   25.1690  -26.4320 H   0  0  0  0  0  0  0  0  0  0  0  0
   -3.8710   26.1000  -24.9750 H   0  0  0  0  0  0  0  0  0  0  0  0
   -0.6667   22.5444  -26.0552 H   0  0  0  0  0  0  0  0  0  0  0  0
   -1.3039   21.0615  -27.9541 H   0  0  0  0  0  0  0  0  0  0  0  0
   -4.0272   20.0259  -32.2081 H   0  0  0  0  0  0  0  0  0  0  0  0
   -6.5003   20.1057  -32.5223 H   0  0  0  0  0  0  0  0  0  0  0  0
   -9.3321   19.6256  -31.6195 H   0  0  0  0  0  0  0  0  0  0  0  0
   -9.9029   20.6800  -32.9571 H   0  0  0  0  0  0  0  0  0  0  0  0
   -8.2158   20.0632  -32.9571 H   0  0  0  0  0  0  0  0  0  0  0  0
   -6.7345   23.4809  -29.8218 H   0  0  0  0  0  0  0  0  0  0  0  0
   -4.2632   23.4001  -29.5055 H   0  0  0  0  0  0  0  0  0  0  0  0
   -2.1510   24.5405  -30.3888 H   0  0  0  0  0  0  0  0  0  0  0  0
  1  2  1  0
  2  3  1  0
  2  4  1  0
  4  5  2  0
  5  6  1  0
  5  7  1  0
  7  8  2  0
  8  9  1  0
  8 10  1  0
 10 11  1  0
 11 12  2  0
 12 13  1  0
 13 14  2  0
 15 14  1  1
 15 16  2  0
 15 17  2  0
 15 18  1  0
 18 19  2  0
 19 20  1  0
 20 21  2  0
 21 22  1  0
 22 23  1  0
 22 24  2  0
 22 25  2  0
 21 26  1  0
 26 27  2  0
 14 28  1  0
 28 29  2  0
 29 30  1  0
 10  2  1  0
 29 11  1  0
 27 18  1  0
  1 31  1  0
  1 32  1  0
  1 33  1  0
  3 34  1  0
  3 35  1  0
  3 36  1  0
  4 37  1  0
  6 38  1  0
  6 39  1  0
  7 40  1  0
  9 41  1  0
  9 42  1  0
 12 43  1  0
 13 44  1  0
 19 45  1  0
 20 46  1  0
 23 47  1  0
 23 48  1  0
 23 49  1  0
 26 50  1  0
 27 51  1  0
 28 52  1  0
M  CHG  2   4   1   7   1
M  END
>  <UniqueID>  (25) 
25

>  <SMILES>  (25) 
CC1(C)[NH+]=C(N)[NH+]=C(N)N1c1ccc([S@@](=O)(=S)c2ccc(S(C)(=O)=O)cc2)cc1F

>  <Energy>  (25) 
57.41960550978665

>  <Genealogy>  (25) 
CC1(C)[NH+]=C(N)[NH+]=C(N)N1c1ccc(S(=O)(=S)c2ccc(S(C)(=O)=O)cc2)cc1F (protonated)
CC1(C)[NH+]=C(N)[NH+]=C(N)N1c1ccc([S@@](=O)(=S)c2ccc(S(C)(=O)=O)cc2)cc1F (chirality)
CC1(C)[NH+]=C(N)[NH+]=C(N)N1c1ccc([S@@](=O)(=S)c2ccc(S(C)(=O)=O)cc2)cc1F (3D coordinates assigned)
CC1(C)[NH+]=C(N)[NH+]=C(N)N1c1ccc([S@@](=O)(=S)c2ccc(S(C)(=O)=O)cc2)cc1F (nonaromatic ring conformer: 57.41960550978665 kcal/mol)

>  <smiles>  (25) 
CC1(C)N=C(N)N=C(N)N1c1ccc(S(=O)(=S)c2ccc(S(C)(=O)=O)cc2)cc1F

>  <score_type>  (25) 
oracle

>  <origin>  (25) 
adgpu

>  <m_score__min__energy>  (25) 
-9.5700000000000003

>  <m_primary>  (25) 
energy

$$$$
25:0
     RDKit          3D

 51 53  0  0  0  0  0  0  0  0999 V2000
   -5.6070   25.7300  -30.8440 C   0  0  0  0  0  0  0  0  0  0  0  0
   -5.0890   24.3630  -30.6700 N   0  0  0  0  0  0  0  0  0  0  0  0
   -5.8050   23.2740  -31.1050 C   0  0  0  0  0  0  0  0  0  0  0  0
   -7.3800   23.4360  -31.9680 S   0  0  0  0  0  0  0  0  0  0  0  0
   -8.2630   22.2030  -30.9460 C   0  0  0  0  0  0  0  0  0  0  0  0
   -8.5150   20.9000  -31.7340 C   0  0  0  0  0  0  0  0  0  0  0  0
   -7.3000   20.0960  -32.0190 N   0  0  0  0  0  0  0  0  0  0  0  0
   -7.4340   18.6760  -31.6410 C   0  0  0  0  0  0  0  0  0  0  0  0
   -6.0870   17.9370  -31.8300 C   0  0  0  0  0  0  0  0  0  0  0  0
   -5.1590   18.6740  -32.6090 O   0  0  0  0  0  0  0  0  0  0  0  0
   -5.7860   19.1650  -33.7760 C   0  0  0  0  0  0  0  0  0  0  0  0
   -6.8420   20.2340  -33.4220 C   0  0  0  0  0  0  0  0  0  0  0  0
   -5.3320   22.0230  -30.8940 N   0  0  0  0  0  0  0  0  0  0  0  0
   -4.1380   21.7970  -30.2990 C   0  0  0  0  0  0  0  0  0  0  0  0
   -3.7590   20.6080  -30.1290 O   0  0  0  0  0  0  0  0  0  0  0  0
   -3.3400   22.8810  -29.8920 C   0  0  0  0  0  0  0  0  0  0  0  0
   -1.9690   22.6460  -29.2560 C   0  0  0  0  0  0  0  0  0  0  0  0
   -1.0730   21.7180  -30.1200 C   0  0  0  0  0  0  0  0  0  0  0  0
   -0.0520   20.9170  -29.2900 C   0  0  0  0  0  0  0  0  0  0  0  0
    0.4420   21.7180  -28.0800 C   0  0  0  0  0  0  0  0  0  0  0  0
   -0.7080   22.0750  -27.1150 C   0  0  0  0  0  0  0  0  0  0  0  0
   -2.0880   22.1510  -27.8000 C   0  0  0  0  0  0  0  0  0  0  0  0
   -3.8540   24.1800  -30.1030 C   0  0  0  0  0  0  0  0  0  0  0  0
   -3.0980   25.2900  -29.7260 O   0  0  0  0  0  0  0  0  0  0  0  0
   -5.7794   26.1851  -29.8575 H   0  0  0  0  0  0  0  0  0  0  0  0
   -4.8744   26.3314  -31.4022 H   0  0  0  0  0  0  0  0  0  0  0  0
   -6.5542   25.6949  -31.4022 H   0  0  0  0  0  0  0  0  0  0  0  0
   -7.6563   21.9731  -30.0577 H   0  0  0  0  0  0  0  0  0  0  0  0
   -9.2354   22.6261  -30.6537 H   0  0  0  0  0  0  0  0  0  0  0  0
   -9.2080   20.2764  -31.1502 H   0  0  0  0  0  0  0  0  0  0  0  0
   -8.9195   21.2039  -32.7107 H   0  0  0  0  0  0  0  0  0  0  0  0
   -6.5440   20.5020  -31.4130 H   0  0  0  0  0  0  0  0  0  0  0  0
   -7.7391   18.6091  -30.5863 H   0  0  0  0  0  0  0  0  0  0  0  0
   -8.1920   18.2058  -32.2847 H   0  0  0  0  0  0  0  0  0  0  0  0
   -5.6457   17.7525  -30.8395 H   0  0  0  0  0  0  0  0  0  0  0  0
   -6.2967   16.9991  -32.3652 H   0  0  0  0  0  0  0  0  0  0  0  0
   -5.0257   19.6127  -34.4328 H   0  0  0  0  0  0  0  0  0  0  0  0
   -6.2874   18.3289  -34.2854 H   0  0  0  0  0  0  0  0  0  0  0  0
   -6.4006   21.2323  -33.5581 H   0  0  0  0  0  0  0  0  0  0  0  0
   -7.7092   20.0977  -34.0849 H   0  0  0  0  0  0  0  0  0  0  0  0
   -1.4632   23.6221  -29.2198 H   0  0  0  0  0  0  0  0  0  0  0  0
   -1.7197   21.0091  -30.6577 H   0  0  0  0  0  0  0  0  0  0  0  0
   -0.5036   22.3606  -30.8076 H   0  0  0  0  0  0  0  0  0  0  0  0
   -0.5280   19.9909  -28.9352 H   0  0  0  0  0  0  0  0  0  0  0  0
    0.8131   20.6925  -29.9312 H   0  0  0  0  0  0  0  0  0  0  0  0
    1.1877   21.1183  -27.5375 H   0  0  0  0  0  0  0  0  0  0  0  0
    0.8795   22.6571  -28.4497 H   0  0  0  0  0  0  0  0  0  0  0  0
   -0.7523   21.3079  -26.3279 H   0  0  0  0  0  0  0  0  0  0  0  0
   -0.4923   23.0757  -26.7124 H   0  0  0  0  0  0  0  0  0  0  0  0
   -2.5434   21.1497  -27.7988 H   0  0  0  0  0  0  0  0  0  0  0  0
   -2.7117   22.8651  -27.2422 H   0  0  0  0  0  0  0  0  0  0  0  0
  1  2  1  0
  2  3  1  0
  3  4  1  0
  4  5  1  0
  5  6  1  0
  6  7  1  0
  7  8  1  0
  8  9  1  0
  9 10  1  0
 10 11  1  0
 11 12  1  0
  3 13  2  0
 13 14  1  0
 14 15  2  0
 14 16  1  0
 16 17  1  0
 17 18  1  0
 18 19  1  0
 19 20  1  0
 20 21  1  0
 21 22  1  0
 16 23  2  0
 23 24  1  0
 23  2  1  0
 12  7  1  0
 22 17  1  0
  1 25  1  0
  1 26  1  0
  1 27  1  0
  5 28  1  0
  5 29  1  0
  6 30  1  0
  6 31  1  0
  7 32  1  0
  8 33  1  0
  8 34  1  0
  9 35  1  0
  9 36  1  0
 11 37  1  0
 11 38  1  0
 12 39  1  0
 12 40  1  0
 17 41  1  0
 18 42  1  0
 18 43  1  0
 19 44  1  0
 19 45  1  0
 20 46  1  0
 20 47  1  0
 21 48  1  0
 21 49  1  0
 22 50  1  0
 22 51  1  0
M  CHG  2   7   1  24  -1
M  END
>  <UniqueID>  (26) 
26

>  <SMILES>  (26) 
Cn1c(SCC[NH+]2CCOCC2)nc(=O)c(C2CCCCC2)c1[O-]

>  <Energy>  (26) 
69.89620405965576

>  <Genealogy>  (26) 
Cn1c(SCC[NH+]2CCOCC2)nc(=O)c(C2CCCCC2)c1[O-] (protonated)
Cn1c(SCC[NH+]2CCOCC2)nc(=O)c(C2CCCCC2)c1[O-] (3D coordinates assigned)
Cn1c(SCC[NH+]2CCOCC2)nc(=O)c(C2CCCCC2)c1[O-] (nonaromatic ring conformer: 69.89620405965576 kcal/mol)

>  <smiles>  (26) 
Cn1c(SCCN2CCOCC2)nc(=O)c(C2CCCCC2)c1O

>  <score_type>  (26) 
oracle

>  <origin>  (26) 
adgpu

>  <m_score__min__energy>  (26) 
-10.25

>  <m_primary>  (26) 
energy

$$$$
26:0
     RDKit          3D

 52 55  0  0  0  0  0  0  0  0999 V2000
   -4.2960   25.3360  -30.9930 O   0  0  0  0  0  0  0  0  0  0  0  0
   -3.8990   24.8060  -29.9230 C   0  0  0  0  0  0  0  0  0  0  0  0
   -4.8060   23.8510  -29.1670 C   0  0  0  0  0  0  0  0  0  0  0  0
   -5.4600   22.8140  -29.9990 N   0  0  0  0  0  0  0  0  0  0  0  0
   -4.6930   22.4430  -31.2000 C   0  0  0  0  0  0  0  0  0  0  0  0
   -5.2120   21.1090  -31.7410 C   0  0  0  0  0  0  0  0  0  0  0  0
   -6.7160   21.0920  -31.8410 C   0  0  0  0  0  0  0  0  0  0  0  0
   -7.3430   20.0910  -32.6020 C   0  0  0  0  0  0  0  0  0  0  0  0
   -8.7370   20.0220  -32.6660 C   0  0  0  0  0  0  0  0  0  0  0  0
   -9.5170   20.9450  -31.9680 C   0  0  0  0  0  0  0  0  0  0  0  0
   -8.9060   21.9370  -31.1970 C   0  0  0  0  0  0  0  0  0  0  0  0
   -7.5070   22.0080  -31.1100 C   0  0  0  0  0  0  0  0  0  0  0  0
   -6.8660   23.1260  -30.3230 C   0  0  0  0  0  0  0  0  0  0  0  0
   -2.6730   25.2820  -29.3500 N   0  0  0  0  0  0  0  0  0  0  0  0
   -1.6250   24.4840  -28.7860 C   0  0  0  0  0  0  0  0  0  0  0  0
   -0.8250   24.9650  -27.7370 C   0  0  0  0  0  0  0  0  0  0  0  0
    0.1600   24.1500  -27.1730 C   0  0  0  0  0  0  0  0  0  0  0  0
    0.3400   22.8450  -27.6390 C   0  0  0  0  0  0  0  0  0  0  0  0
   -0.4680   22.3480  -28.6690 C   0  0  0  0  0  0  0  0  0  0  0  0
   -0.2680   20.6880  -29.2220 S   0  0  0  0  0  0  0  0  0  0  0  0
   -0.3520   20.6410  -30.7240 O   0  0  0  0  0  0  0  0  0  0  0  0
    1.0860   20.1880  -28.8030 O   0  0  0  0  0  0  0  0  0  0  0  0
   -1.5060   19.6870  -28.5070 N   0  0  0  0  0  0  0  0  0  0  0  0
   -0.9640   18.8570  -27.4320 C   0  0  0  0  0  0  0  0  0  0  0  0
   -2.1150   18.5760  -26.4790 C   0  0  0  0  0  0  0  0  0  0  0  0
   -3.1500   19.6530  -26.7700 C   0  0  0  0  0  0  0  0  0  0  0  0
   -2.5520   20.4980  -27.8850 C   0  0  0  0  0  0  0  0  0  0  0  0
   -1.4620   23.1650  -29.2270 C   0  0  0  0  0  0  0  0  0  0  0  0
   -4.2024   23.3425  -28.4008 H   0  0  0  0  0  0  0  0  0  0  0  0
   -5.6173   24.4652  -28.7492 H   0  0  0  0  0  0  0  0  0  0  0  0
   -4.8127   23.2220  -31.9673 H   0  0  0  0  0  0  0  0  0  0  0  0
   -3.6283   22.3459  -30.9412 H   0  0  0  0  0  0  0  0  0  0  0  0
   -4.7868   20.9410  -32.7415 H   0  0  0  0  0  0  0  0  0  0  0  0
   -4.9070   20.3153  -31.0431 H   0  0  0  0  0  0  0  0  0  0  0  0
   -6.7332   19.3578  -33.1502 H   0  0  0  0  0  0  0  0  0  0  0  0
   -9.2207   19.2385  -33.2678 H   0  0  0  0  0  0  0  0  0  0  0  0
  -10.6142   20.8914  -32.0249 H   0  0  0  0  0  0  0  0  0  0  0  0
   -9.5252   22.6669  -30.6548 H   0  0  0  0  0  0  0  0  0  0  0  0
   -6.9002   24.0497  -30.9193 H   0  0  0  0  0  0  0  0  0  0  0  0
   -7.4206   23.2510  -29.3813 H   0  0  0  0  0  0  0  0  0  0  0  0
   -0.9742   25.9868  -27.3580 H   0  0  0  0  0  0  0  0  0  0  0  0
    0.7943   24.5361  -26.3614 H   0  0  0  0  0  0  0  0  0  0  0  0
    1.1183   22.2066  -27.1956 H   0  0  0  0  0  0  0  0  0  0  0  0
   -0.5711   17.9146  -27.8412 H   0  0  0  0  0  0  0  0  0  0  0  0
   -0.1365   19.3660  -26.9161 H   0  0  0  0  0  0  0  0  0  0  0  0
   -2.5354   17.5770  -26.6667 H   0  0  0  0  0  0  0  0  0  0  0  0
   -1.7904   18.5927  -25.4281 H   0  0  0  0  0  0  0  0  0  0  0  0
   -4.0967   19.1984  -27.0972 H   0  0  0  0  0  0  0  0  0  0  0  0
   -3.3761   20.2547  -25.8773 H   0  0  0  0  0  0  0  0  0  0  0  0
   -3.3252   20.7529  -28.6247 H   0  0  0  0  0  0  0  0  0  0  0  0
   -2.1432   21.4410  -27.4931 H   0  0  0  0  0  0  0  0  0  0  0  0
   -2.1175   22.7673  -30.0158 H   0  0  0  0  0  0  0  0  0  0  0  0
  1  2  2  0
  2  3  1  0
  3  4  1  0
  4  5  1  0
  5  6  1  0
  6  7  1  0
  7  8  2  0
  8  9  1  0
  9 10  2  0
 10 11  1  0
 11 12  2  0
 12 13  1  0
  2 14  1  0
 14 15  1  0
 15 16  2  0
 16 17  1  0
 17 18  2  0
 18 19  1  0
 19 20  1  0
 20 21  2  0
 20 22  2  0
 20 23  1  0
 23 24  1  0
 24 25  1  0
 25 26  1  0
 26 27  1  0
 19 28  2  0
 13  4  1  0
 28 15  1  0
 12  7  1  0
 27 23  1  0
  3 29  1  0
  3 30  1  0
  5 31  1  0
  5 32  1  0
  6 33  1  0
  6 34  1  0
  8 35  1  0
  9 36  1  0
 10 37  1  0
 11 38  1  0
 13 39  1  0
 13 40  1  0
 16 41  1  0
 17 42  1  0
 18 43  1  0
 24 44  1  0
 24 45  1  0
 25 46  1  0
 25 47  1  0
 26 48  1  0
 26 49  1  0
 27 50  1  0
 27 51  1  0
 28 52  1  0
M  CHG  1  14  -1
M  END
>  <UniqueID>  (27) 
27

>  <SMILES>  (27) 
O=C(CN1CCc2ccccc2C1)[N-]c1cccc(S(=O)(=O)N2CCCC2)c1

>  <Energy>  (27) 
68.42836593026584

>  <Genealogy>  (27) 
O=C(CN1CCc2ccccc2C1)[N-]c1cccc(S(=O)(=O)N2CCCC2)c1 (protonated)
O=C(CN1CCc2ccccc2C1)[N-]c1cccc(S(=O)(=O)N2CCCC2)c1 (3D coordinates assigned)
O=C(CN1CCc2ccccc2C1)[N-]c1cccc(S(=O)(=O)N2CCCC2)c1 (nonaromatic ring conformer: 68.42836593026584 kcal/mol)

>  <smiles>  (27) 
O=C(CN1CCc2ccccc2C1)Nc1cccc(S(=O)(=O)N2CCCC2)c1

>  <score_type>  (27) 
oracle

>  <origin>  (27) 
adgpu

>  <m_score__min__energy>  (27) 
-11.970000000000001

>  <m_primary>  (27) 
energy

$$$$
27:0
     RDKit          3D

 65 69  0  0  0  0  0  0  0  0999 V2000
   -4.2250   24.5130  -27.7270 C   0  0  0  0  0  0  0  0  0  0  0  0
   -4.2760   23.9310  -29.0850 N   0  0  0  0  0  0  0  0  0  0  0  0
   -5.3510   24.1910  -29.8940 C   0  0  0  0  0  0  0  0  0  0  0  0
   -6.3010   24.9200  -29.4910 O   0  0  0  0  0  0  0  0  0  0  0  0
   -5.4180   23.6530  -31.1830 C   0  0  0  0  0  0  0  0  0  0  0  0
   -6.4280   23.9130  -31.8970 O   0  0  0  0  0  0  0  0  0  0  0  0
   -4.4090   22.8590  -31.6610 N   0  0  0  0  0  0  0  0  0  0  0  0
   -4.5000   22.3070  -33.0290 C   0  0  0  0  0  0  0  0  0  0  0  0
   -3.3180   22.5860  -30.8620 C   0  0  0  0  0  0  0  0  0  0  0  0
   -2.2520   21.7720  -31.3170 C   0  0  0  0  0  0  0  0  0  0  0  0
   -1.1410   21.5140  -30.5090 C   0  0  0  0  0  0  0  0  0  0  0  0
   -0.0640   20.6950  -30.9740 N   0  0  0  0  0  0  0  0  0  0  0  0
    0.1730   20.3090  -32.6460 S   0  0  0  0  0  0  0  0  0  0  0  0
    0.0140   21.5570  -33.4670 O   0  0  0  0  0  0  0  0  0  0  0  0
    1.5720   19.7930  -32.8340 O   0  0  0  0  0  0  0  0  0  0  0  0
   -0.9600   19.0770  -33.1930 C   0  0  0  0  0  0  0  0  0  0  0  0
   -0.5430   17.7510  -33.3510 C   0  0  0  0  0  0  0  0  0  0  0  0
   -1.4290   16.7830  -33.8310 C   0  0  0  0  0  0  0  0  0  0  0  0
   -2.7550   17.1270  -34.1710 C   0  0  0  0  0  0  0  0  0  0  0  0
   -3.7230   16.1250  -34.7150 C   0  0  0  0  0  0  0  0  0  0  0  0
   -3.8600   16.0470  -35.9680 O   0  0  0  0  0  0  0  0  0  0  0  0
   -4.4620   15.2160  -33.8490 N   0  0  0  0  0  0  0  0  0  0  0  0
   -4.3750   15.5570  -32.4170 C   0  0  0  0  0  0  0  0  0  0  0  0
   -5.1790   16.8100  -32.0030 C   0  0  0  0  0  0  0  0  0  0  0  0
   -6.3110   17.1760  -32.8860 N   0  0  0  0  0  0  0  0  0  0  0  0
   -7.0770   18.3850  -32.5870 C   0  0  0  0  0  0  0  0  0  0  0  0
   -8.3500   18.3140  -31.9680 C   0  0  0  0  0  0  0  0  0  0  0  0
   -9.0800   19.4710  -31.6850 C   0  0  0  0  0  0  0  0  0  0  0  0
   -8.5650   20.7250  -32.0120 C   0  0  0  0  0  0  0  0  0  0  0  0
   -9.4860   22.1750  -31.6550 Cl  0  0  0  0  0  0  0  0  0  0  0  0
   -7.3170   20.8230  -32.6260 C   0  0  0  0  0  0  0  0  0  0  0  0
   -6.5800   19.6700  -32.9130 C   0  0  0  0  0  0  0  0  0  0  0  0
   -6.6100   16.4360  -34.1260 C   0  0  0  0  0  0  0  0  0  0  0  0
   -5.8740   15.1020  -34.2390 C   0  0  0  0  0  0  0  0  0  0  0  0
   -3.1610   18.4660  -34.0050 C   0  0  0  0  0  0  0  0  0  0  0  0
   -2.2730   19.4300  -33.5200 C   0  0  0  0  0  0  0  0  0  0  0  0
   -1.0990   22.0180  -29.2140 C   0  0  0  0  0  0  0  0  0  0  0  0
   -2.1310   22.8220  -28.7370 C   0  0  0  0  0  0  0  0  0  0  0  0
   -3.2530   23.1300  -29.5460 C   0  0  0  0  0  0  0  0  0  0  0  0
   -4.2955   23.7083  -26.9803 H   0  0  0  0  0  0  0  0  0  0  0  0
   -3.2761   25.0535  -27.5951 H   0  0  0  0  0  0  0  0  0  0  0  0
   -5.0655   25.2103  -27.5951 H   0  0  0  0  0  0  0  0  0  0  0  0
   -4.6787   21.2229  -32.9758 H   0  0  0  0  0  0  0  0  0  0  0  0
   -5.3307   22.7897  -33.5647 H   0  0  0  0  0  0  0  0  0  0  0  0
   -3.5583   22.4975  -33.5647 H   0  0  0  0  0  0  0  0  0  0  0  0
   -2.2993   21.3346  -32.3252 H   0  0  0  0  0  0  0  0  0  0  0  0
    0.4890   17.4686  -33.0957 H   0  0  0  0  0  0  0  0  0  0  0  0
   -1.0898   15.7428  -33.9450 H   0  0  0  0  0  0  0  0  0  0  0  0
   -4.0280   14.2680  -33.9300 H   0  0  0  0  0  0  0  0  0  0  0  0
   -4.7512   14.7012  -31.8373 H   0  0  0  0  0  0  0  0  0  0  0  0
   -3.3180   15.7846  -32.2149 H   0  0  0  0  0  0  0  0  0  0  0  0
   -5.5820   16.6334  -30.9948 H   0  0  0  0  0  0  0  0  0  0  0  0
   -4.4715   17.6500  -32.0640 H   0  0  0  0  0  0  0  0  0  0  0  0
   -8.7701   17.3317  -31.7061 H   0  0  0  0  0  0  0  0  0  0  0  0
  -10.0652   19.3925  -31.2022 H   0  0  0  0  0  0  0  0  0  0  0  0
   -6.9105   21.8116  -32.8857 H   0  0  0  0  0  0  0  0  0  0  0  0
   -5.5981   19.7628  -33.4000 H   0  0  0  0  0  0  0  0  0  0  0  0
   -7.6918   16.2396  -34.1607 H   0  0  0  0  0  0  0  0  0  0  0  0
   -6.2695   17.0624  -34.9637 H   0  0  0  0  0  0  0  0  0  0  0  0
   -6.3654   14.3689  -33.5825 H   0  0  0  0  0  0  0  0  0  0  0  0
   -5.9105   14.7826  -35.2910 H   0  0  0  0  0  0  0  0  0  0  0  0
   -4.1907   18.7565  -34.2606 H   0  0  0  0  0  0  0  0  0  0  0  0
   -2.6081   20.4702  -33.3950 H   0  0  0  0  0  0  0  0  0  0  0  0
   -0.2454   21.7802  -28.5622 H   0  0  0  0  0  0  0  0  0  0  0  0
   -2.0744   23.2248  -27.7150 H   0  0  0  0  0  0  0  0  0  0  0  0
  1  2  1  0
  2  3  1  0
  3  4  2  0
  3  5  1  0
  5  6  2  0
  5  7  1  0
  7  8  1  0
  7  9  1  0
  9 10  2  0
 10 11  1  0
 11 12  1  0
 12 13  1  0
 13 14  2  0
 13 15  2  0
 13 16  1  0
 16 17  2  0
 17 18  1  0
 18 19  2  0
 19 20  1  0
 20 21  2  0
 20 22  1  0
 22 23  1  0
 23 24  1  0
 24 25  1  0
 25 26  1  0
 26 27  2  0
 27 28  1  0
 28 29  2  0
 29 30  1  0
 29 31  1  0
 31 32  2  0
 25 33  1  0
 33 34  1  0
 19 35  1  0
 35 36  2  0
 11 37  2  0
 37 38  1  0
 38 39  2  0
 39  2  1  0
 39  9  1  0
 36 16  1  0
 34 22  1  0
 32 26  1  0
  1 40  1  0
  1 41  1  0
  1 42  1  0
  8 43  1  0
  8 44  1  0
  8 45  1  0
 10 46  1  0
 17 47  1  0
 18 48  1  0
 22 49  1  0
 23 50  1  0
 23 51  1  0
 24 52  1  0
 24 53  1  0
 27 54  1  0
 28 55  1  0
 31 56  1  0
 32 57  1  0
 33 58  1  0
 33 59  1  0
 34 60  1  0
 34 61  1  0
 35 62  1  0
 36 63  1  0
 37 64  1  0
 38 65  1  0
M  CHG  2  12  -1  22   1
M  END
>  <UniqueID>  (28) 
28

>  <SMILES>  (28) 
Cn1c(=O)c(=O)n(C)c2cc([N-]S(=O)(=O)c3ccc(C(=O)[NH+]4CCN(c5ccc(Cl)cc5)CC4)cc3)ccc21

>  <Energy>  (28) 
110.43119040345866

>  <Genealogy>  (28) 
Cn1c(=O)c(=O)n(C)c2cc([N-]S(=O)(=O)c3ccc(C(=O)[NH+]4CCN(c5ccc(Cl)cc5)CC4)cc3)ccc21 (protonated)
Cn1c(=O)c(=O)n(C)c2cc([N-]S(=O)(=O)c3ccc(C(=O)[NH+]4CCN(c5ccc(Cl)cc5)CC4)cc3)ccc21 (3D coordinates assigned)
Cn1c(=O)c(=O)n(C)c2cc([N-]S(=O)(=O)c3ccc(C(=O)[NH+]4CCN(c5ccc(Cl)cc5)CC4)cc3)ccc21 (nonaromatic ring conformer: 110.43119040345866 kcal/mol)

>  <smiles>  (28) 
Cn1c(=O)c(=O)n(C)c2cc(NS(=O)(=O)c3ccc(C(=O)N4CCN(c5ccc(Cl)cc5)CC4)cc3)ccc21

>  <score_type>  (28) 
oracle

>  <origin>  (28) 
adgpu

>  <m_score__min__energy>  (28) 
-11.460000000000001

>  <m_primary>  (28) 
energy

$$$$
28:0
     RDKit          3D

 53 56  0  0  0  0  0  0  0  0999 V2000
    1.1310   19.3470  -27.7730 C   0  0  0  0  0  0  0  0  0  0  0  0
   -0.0500   20.1720  -28.0830 N   0  0  0  0  0  0  0  0  0  0  0  0
   -0.6900   19.6800  -29.3180 C   0  0  0  0  0  0  0  0  0  0  0  0
   -2.0130   20.4130  -29.5560 C   0  0  0  0  0  0  0  0  0  0  0  0
   -1.8660   21.9060  -29.4050 C   0  0  0  0  0  0  0  0  0  0  0  0
   -2.8590   22.7550  -29.9170 C   0  0  0  0  0  0  0  0  0  0  0  0
   -2.7360   24.1470  -29.8100 C   0  0  0  0  0  0  0  0  0  0  0  0
   -3.6520   25.0300  -30.4780 N   0  0  0  0  0  0  0  0  0  0  0  0
   -5.3470   25.1050  -30.1080 S   0  0  0  0  0  0  0  0  0  0  0  0
   -5.5360   25.1710  -28.6150 O   0  0  0  0  0  0  0  0  0  0  0  0
   -5.9370   26.3390  -30.7380 O   0  0  0  0  0  0  0  0  0  0  0  0
   -6.1610   23.6950  -30.7860 C   0  0  0  0  0  0  0  0  0  0  0  0
   -7.2870   23.1460  -30.1540 C   0  0  0  0  0  0  0  0  0  0  0  0
   -7.8350   21.9490  -30.6190 C   0  0  0  0  0  0  0  0  0  0  0  0
   -7.2620   21.2880  -31.7140 C   0  0  0  0  0  0  0  0  0  0  0  0
   -7.9530   19.7700  -32.2750 S   0  0  0  0  0  0  0  0  0  0  0  0
   -8.7270   19.1150  -31.1630 O   0  0  0  0  0  0  0  0  0  0  0  0
   -8.8910   20.0510  -33.4130 O   0  0  0  0  0  0  0  0  0  0  0  0
   -6.6720   18.7240  -32.8270 N   0  0  0  0  0  0  0  0  0  0  0  0
   -7.1600   17.3630  -33.0540 C   0  0  0  0  0  0  0  0  0  0  0  0
   -6.2200   16.7390  -34.0690 C   0  0  0  0  0  0  0  0  0  0  0  0
   -5.5590   17.9190  -34.7780 C   0  0  0  0  0  0  0  0  0  0  0  0
   -6.1390   19.1600  -34.1190 C   0  0  0  0  0  0  0  0  0  0  0  0
   -6.1510   21.8510  -32.3610 C   0  0  0  0  0  0  0  0  0  0  0  0
   -5.6070   23.0510  -31.9020 C   0  0  0  0  0  0  0  0  0  0  0  0
   -1.6630   24.6820  -29.0930 C   0  0  0  0  0  0  0  0  0  0  0  0
   -1.5470   26.0510  -28.9450 O   0  0  0  0  0  0  0  0  0  0  0  0
   -0.6850   23.8430  -28.5500 C   0  0  0  0  0  0  0  0  0  0  0  0
   -0.7740   22.4560  -28.7070 C   0  0  0  0  0  0  0  0  0  0  0  0
    0.3670   21.5810  -28.2530 C   0  0  0  0  0  0  0  0  0  0  0  0
    1.2460   19.2667  -26.6820 H   0  0  0  0  0  0  0  0  0  0  0  0
    0.9999   18.3430  -28.2028 H   0  0  0  0  0  0  0  0  0  0  0  0
    2.0286   19.8155  -28.2028 H   0  0  0  0  0  0  0  0  0  0  0  0
   -0.0181   19.8569  -30.1708 H   0  0  0  0  0  0  0  0  0  0  0  0
   -0.8898   18.6033  -29.2144 H   0  0  0  0  0  0  0  0  0  0  0  0
   -2.3634   20.1918  -30.5750 H   0  0  0  0  0  0  0  0  0  0  0  0
   -2.7350   20.0645  -28.8029 H   0  0  0  0  0  0  0  0  0  0  0  0
   -3.7437   22.3232  -30.4078 H   0  0  0  0  0  0  0  0  0  0  0  0
   -7.7382   23.6589  -29.2918 H   0  0  0  0  0  0  0  0  0  0  0  0
   -8.7201   21.5230  -30.1239 H   0  0  0  0  0  0  0  0  0  0  0  0
   -7.1420   16.7901  -32.1152 H   0  0  0  0  0  0  0  0  0  0  0  0
   -8.1981   17.3652  -33.4179 H   0  0  0  0  0  0  0  0  0  0  0  0
   -5.4641   16.1188  -33.5650 H   0  0  0  0  0  0  0  0  0  0  0  0
   -6.7513   16.0809  -34.7723 H   0  0  0  0  0  0  0  0  0  0  0  0
   -4.4676   17.8864  -34.6444 H   0  0  0  0  0  0  0  0  0  0  0  0
   -5.7480   17.9041  -35.8615 H   0  0  0  0  0  0  0  0  0  0  0  0
   -5.3538   19.9163  -33.9722 H   0  0  0  0  0  0  0  0  0  0  0  0
   -6.9218   19.6167  -34.7425 H   0  0  0  0  0  0  0  0  0  0  0  0
   -5.7083   21.3451  -33.2317 H   0  0  0  0  0  0  0  0  0  0  0  0
   -4.7413   23.4932  -32.4168 H   0  0  0  0  0  0  0  0  0  0  0  0
    0.1602   24.2768  -27.9955 H   0  0  0  0  0  0  0  0  0  0  0  0
    1.1697   21.6259  -29.0038 H   0  0  0  0  0  0  0  0  0  0  0  0
    0.7138   21.9531  -27.2777 H   0  0  0  0  0  0  0  0  0  0  0  0
  1  2  1  0
  2  3  1  0
  3  4  1  0
  4  5  1  0
  5  6  2  0
  6  7  1  0
  7  8  1  0
  8  9  1  0
  9 10  2  0
  9 11  2  0
  9 12  1  0
 12 13  2  0
 13 14  1  0
 14 15  2  0
 15 16  1  0
 16 17  2  0
 16 18  2  0
 16 19  1  0
 19 20  1  0
 20 21  1  0
 21 22  1  0
 22 23  1  0
 15 24  1  0
 24 25  2  0
  7 26  2  0
 26 27  1  0
 26 28  1  0
 28 29  2  0
 29 30  1  0
 30  2  1  0
 29  5  1  0
 25 12  1  0
 23 19  1  0
  1 31  1  0
  1 32  1  0
  1 33  1  0
  3 34  1  0
  3 35  1  0
  4 36  1  0
  4 37  1  0
  6 38  1  0
 13 39  1  0
 14 40  1  0
 20 41  1  0
 20 42  1  0
 21 43  1  0
 21 44  1  0
 22 45  1  0
 22 46  1  0
 23 47  1  0
 23 48  1  0
 24 49  1  0
 25 50  1  0
 28 51  1  0
 30 52  1  0
 30 53  1  0
M  CHG  2   8  -1  27  -1
M  END
>  <UniqueID>  (29) 
29

>  <SMILES>  (29) 
CN1CCc2cc([N-]S(=O)(=O)c3ccc(S(=O)(=O)N4CCCC4)cc3)c([O-])cc2C1

>  <Energy>  (29) 
63.04264428030514

>  <Genealogy>  (29) 
CN1CCc2cc([N-]S(=O)(=O)c3ccc(S(=O)(=O)N4CCCC4)cc3)c([O-])cc2C1 (protonated)
CN1CCc2cc([N-]S(=O)(=O)c3ccc(S(=O)(=O)N4CCCC4)cc3)c([O-])cc2C1 (3D coordinates assigned)
CN1CCc2cc([N-]S(=O)(=O)c3ccc(S(=O)(=O)N4CCCC4)cc3)c([O-])cc2C1 (nonaromatic ring conformer: 63.04264428030514 kcal/mol)

>  <smiles>  (29) 
CN1CCc2cc(NS(=O)(=O)c3ccc(S(=O)(=O)N4CCCC4)cc3)c(O)cc2C1

>  <score_type>  (29) 
oracle

>  <origin>  (29) 
adgpu

>  <m_score__min__energy>  (29) 
-14.94

>  <m_primary>  (29) 
energy

$$$$
29:0
     RDKit          3D

 61 65  0  0  0  0  0  0  0  0999 V2000
   -0.1220   18.2370  -31.2660 C   0  0  0  0  0  0  0  0  0  0  0  0
    0.5310   17.6730  -30.0470 C   0  0  0  0  0  0  0  0  0  0  0  0
    1.3460   16.5980  -30.0740 N   0  0  0  0  0  0  0  0  0  0  0  0
    1.7280   16.3550  -28.8320 N   0  0  0  0  0  0  0  0  0  0  0  0
    2.5460   15.2140  -28.4410 C   0  0  0  0  0  0  0  0  0  0  0  0
    1.1490   17.2300  -27.9880 C   0  0  0  0  0  0  0  0  0  0  0  0
    0.3740   18.1000  -28.7310 C   0  0  0  0  0  0  0  0  0  0  0  0
   -0.4840   19.1830  -28.1980 C   0  0  0  0  0  0  0  0  0  0  0  0
   -0.4110   20.4730  -28.7530 C   0  0  0  0  0  0  0  0  0  0  0  0
   -1.2530   21.4950  -28.2930 C   0  0  0  0  0  0  0  0  0  0  0  0
   -1.2050   23.0850  -29.0410 S   0  0  0  0  0  0  0  0  0  0  0  0
    0.2280   23.5400  -29.0840 O   0  0  0  0  0  0  0  0  0  0  0  0
   -2.0270   24.0610  -28.2470 O   0  0  0  0  0  0  0  0  0  0  0  0
   -1.8480   22.9740  -30.6490 N   0  0  0  0  0  0  0  0  0  0  0  0
   -3.2390   23.0300  -30.9820 C   0  0  0  0  0  0  0  0  0  0  0  0
   -3.8300   21.8910  -31.5450 C   0  0  0  0  0  0  0  0  0  0  0  0
   -5.1810   21.8960  -31.9310 C   0  0  0  0  0  0  0  0  0  0  0  0
   -5.7790   20.7110  -32.5860 C   0  0  0  0  0  0  0  0  0  0  0  0
   -6.9540   20.7900  -33.0390 O   0  0  0  0  0  0  0  0  0  0  0  0
   -5.0490   19.4810  -32.7270 N   0  0  0  0  0  0  0  0  0  0  0  0
   -3.7570   19.5140  -33.4430 C   0  0  0  0  0  0  0  0  0  0  0  0
   -3.0350   18.1600  -33.4210 C   0  0  0  0  0  0  0  0  0  0  0  0
   -3.9930   17.0410  -33.7120 C   0  0  0  0  0  0  0  0  0  0  0  0
   -3.6120   15.9430  -34.5000 C   0  0  0  0  0  0  0  0  0  0  0  0
   -4.4980   14.8820  -34.6970 C   0  0  0  0  0  0  0  0  0  0  0  0
   -5.7570   14.9010  -34.0920 C   0  0  0  0  0  0  0  0  0  0  0  0
   -6.1340   15.9810  -33.2870 C   0  0  0  0  0  0  0  0  0  0  0  0
   -5.2610   17.0660  -33.1130 C   0  0  0  0  0  0  0  0  0  0  0  0
   -5.6270   18.2200  -32.2200 C   0  0  0  0  0  0  0  0  0  0  0  0
   -5.9420   23.0580  -31.7410 C   0  0  0  0  0  0  0  0  0  0  0  0
   -5.3730   24.1830  -31.1380 C   0  0  0  0  0  0  0  0  0  0  0  0
   -4.0290   24.1740  -30.7490 C   0  0  0  0  0  0  0  0  0  0  0  0
   -3.5030   25.2940  -30.1130 O   0  0  0  0  0  0  0  0  0  0  0  0
   -2.1780   21.2270  -27.2770 C   0  0  0  0  0  0  0  0  0  0  0  0
   -2.2540   19.9500  -26.7140 C   0  0  0  0  0  0  0  0  0  0  0  0
   -1.4160   18.9240  -27.1710 C   0  0  0  0  0  0  0  0  0  0  0  0
   -1.5020   17.6530  -26.5970 O   0  0  0  0  0  0  0  0  0  0  0  0
   -0.9229   18.9288  -30.9661 H   0  0  0  0  0  0  0  0  0  0  0  0
    0.6251   18.7785  -31.8649 H   0  0  0  0  0  0  0  0  0  0  0  0
   -0.5491   17.4191  -31.8649 H   0  0  0  0  0  0  0  0  0  0  0  0
    2.5897   15.1531  -27.3436 H   0  0  0  0  0  0  0  0  0  0  0  0
    2.1029   14.2906  -28.8422 H   0  0  0  0  0  0  0  0  0  0  0  0
    3.5628   15.3372  -28.8422 H   0  0  0  0  0  0  0  0  0  0  0  0
    1.2718   17.2490  -26.8950 H   0  0  0  0  0  0  0  0  0  0  0  0
    0.3127   20.6818  -29.5546 H   0  0  0  0  0  0  0  0  0  0  0  0
   -3.2284   20.9811  -31.6866 H   0  0  0  0  0  0  0  0  0  0  0  0
   -3.9414   19.7979  -34.4896 H   0  0  0  0  0  0  0  0  0  0  0  0
   -3.1117   20.2438  -32.9322 H   0  0  0  0  0  0  0  0  0  0  0  0
   -2.2409   18.1622  -34.1822 H   0  0  0  0  0  0  0  0  0  0  0  0
   -2.6052   18.0054  -32.4203 H   0  0  0  0  0  0  0  0  0  0  0  0
   -2.6143   15.9187  -34.9627 H   0  0  0  0  0  0  0  0  0  0  0  0
   -4.2045   14.0308  -35.3289 H   0  0  0  0  0  0  0  0  0  0  0  0
   -6.4538   14.0644  -34.2491 H   0  0  0  0  0  0  0  0  0  0  0  0
   -7.1153   15.9799  -32.7900 H   0  0  0  0  0  0  0  0  0  0  0  0
   -6.7223   18.3145  -32.1839 H   0  0  0  0  0  0  0  0  0  0  0  0
   -5.2252   18.0280  -31.2142 H   0  0  0  0  0  0  0  0  0  0  0  0
   -6.9919   23.0843  -32.0681 H   0  0  0  0  0  0  0  0  0  0  0  0
   -5.9853   25.0809  -30.9682 H   0  0  0  0  0  0  0  0  0  0  0  0
   -2.8472   22.0240  -26.9206 H   0  0  0  0  0  0  0  0  0  0  0  0
   -2.9753   19.7493  -25.9081 H   0  0  0  0  0  0  0  0  0  0  0  0
   -1.6160   17.5290  -25.5970 H   0  0  0  0  0  0  0  0  0  0  0  0
  1  2  1  0
  2  3  2  0
  3  4  1  0
  4  5  1  0
  4  6  1  0
  6  7  2  0
  7  8  1  0
  8  9  2  0
  9 10  1  0
 10 11  1  0
 11 12  2  0
 11 13  2  0
 11 14  1  0
 14 15  1  0
 15 16  2  0
 16 17  1  0
 17 18  1  0
 18 19  2  0
 18 20  1  0
 20 21  1  0
 21 22  1  0
 22 23  1  0
 23 24  2  0
 24 25  1  0
 25 26  2  0
 26 27  1  0
 27 28  2  0
 28 29  1  0
 17 30  2  0
 30 31  1  0
 31 32  2  0
 32 33  1  0
 10 34  2  0
 34 35  1  0
 35 36  2  0
 36 37  1  0
  7  2  1  0
 36  8  1  0
 32 15  1  0
 29 20  1  0
 28 23  1  0
  1 38  1  0
  1 39  1  0
  1 40  1  0
  5 41  1  0
  5 42  1  0
  5 43  1  0
  6 44  1  0
  9 45  1  0
 16 46  1  0
 21 47  1  0
 21 48  1  0
 22 49  1  0
 22 50  1  0
 24 51  1  0
 25 52  1  0
 26 53  1  0
 27 54  1  0
 29 55  1  0
 29 56  1  0
 30 57  1  0
 31 58  1  0
 34 59  1  0
 35 60  1  0
 37 61  1  0
M  CHG  2  14  -1  33  -1
M  END
>  <UniqueID>  (30) 
30

>  <SMILES>  (30) 
Cc1nn(C)cc1-c1cc(S(=O)(=O)[N-]c2cc(C(=O)N3CCc4ccccc4C3)ccc2[O-])ccc1O

>  <Energy>  (30) 
115.1531150591804

>  <Genealogy>  (30) 
Cc1nn(C)cc1-c1cc(S(=O)(=O)[N-]c2cc(C(=O)N3CCc4ccccc4C3)ccc2[O-])ccc1O (protonated)
Cc1nn(C)cc1-c1cc(S(=O)(=O)[N-]c2cc(C(=O)N3CCc4ccccc4C3)ccc2[O-])ccc1O (3D coordinates assigned)
Cc1nn(C)cc1-c1cc(S(=O)(=O)[N-]c2cc(C(=O)N3CCc4ccccc4C3)ccc2[O-])ccc1O (nonaromatic ring conformer: 115.1531150591804 kcal/mol)

>  <smiles>  (30) 
Cc1nn(C)cc1-c1cc(S(=O)(=O)Nc2cc(C(=O)N3CCc4ccccc4C3)ccc2O)ccc1O

>  <score_type>  (30) 
oracle

>  <origin>  (30) 
adgpu

>  <m_score__min__energy>  (30) 
-14.949999999999999

>  <m_primary>  (30) 
energy

$$$$
30:0
     RDKit          3D

 45 48  0  0  0  0  0  0  0  0999 V2000
   -6.5870   24.3810  -29.8110 O   0  0  0  0  0  0  0  0  0  0  0  0
   -5.5450   24.5080  -30.8880 S   0  0  0  0  0  0  0  0  0  0  0  0
   -5.3430   25.9610  -31.2100 O   0  0  0  0  0  0  0  0  0  0  0  0
   -6.0970   23.6780  -32.3060 N   0  0  0  0  0  0  0  0  0  0  0  0
   -6.7220   22.3910  -32.2450 C   0  0  0  0  0  0  0  0  0  0  0  0
   -6.1170   21.2070  -32.6580 C   0  0  0  0  0  0  0  0  0  0  0  0
   -6.9510   20.1000  -32.4700 C   0  0  0  0  0  0  0  0  0  0  0  0
   -6.6390   18.7720  -32.7760 C   0  0  0  0  0  0  0  0  0  0  0  0
   -7.5980   17.7760  -32.5200 C   0  0  0  0  0  0  0  0  0  0  0  0
   -8.8470   18.1140  -31.9640 C   0  0  0  0  0  0  0  0  0  0  0  0
   -9.1510   19.4500  -31.6590 C   0  0  0  0  0  0  0  0  0  0  0  0
   -8.1860   20.4200  -31.9220 C   0  0  0  0  0  0  0  0  0  0  0  0
   -8.2800   22.0750  -31.6560 S   0  0  0  0  0  0  0  0  0  0  0  0
   -4.0150   23.8250  -30.3450 C   0  0  0  0  0  0  0  0  0  0  0  0
   -3.6180   22.5510  -30.7770 C   0  0  0  0  0  0  0  0  0  0  0  0
   -2.3940   22.0200  -30.3610 C   0  0  0  0  0  0  0  0  0  0  0  0
   -1.5630   22.7570  -29.5130 C   0  0  0  0  0  0  0  0  0  0  0  0
   -1.9570   24.0250  -29.0680 C   0  0  0  0  0  0  0  0  0  0  0  0
   -0.9000   24.9480  -28.0030 S   0  0  0  0  0  0  0  0  0  0  0  0
    0.5150   24.4930  -28.2270 O   0  0  0  0  0  0  0  0  0  0  0  0
   -1.0020   26.4140  -28.3250 O   0  0  0  0  0  0  0  0  0  0  0  0
   -1.3540   24.6720  -26.3340 N   0  0  0  0  0  0  0  0  0  0  0  0
   -2.3610   25.6500  -25.9050 C   0  0  0  0  0  0  0  0  0  0  0  0
   -1.6390   26.8140  -25.2400 C   0  0  0  0  0  0  0  0  0  0  0  0
   -0.2340   26.3190  -24.9610 C   0  0  0  0  0  0  0  0  0  0  0  0
   -0.2040   24.8780  -25.4480 C   0  0  0  0  0  0  0  0  0  0  0  0
   -3.1850   24.5550  -29.4850 C   0  0  0  0  0  0  0  0  0  0  0  0
   -5.9290   24.1220  -33.2360 H   0  0  0  0  0  0  0  0  0  0  0  0
   -5.1036   21.1490  -33.0818 H   0  0  0  0  0  0  0  0  0  0  0  0
   -5.6619   18.5112  -33.2088 H   0  0  0  0  0  0  0  0  0  0  0  0
   -7.3711   16.7258  -32.7556 H   0  0  0  0  0  0  0  0  0  0  0  0
   -9.5890   17.3261  -31.7675 H   0  0  0  0  0  0  0  0  0  0  0  0
  -10.1238   19.7235  -31.2245 H   0  0  0  0  0  0  0  0  0  0  0  0
   -4.2709   21.9690  -31.4441 H   0  0  0  0  0  0  0  0  0  0  0  0
   -2.0844   21.0209  -30.7014 H   0  0  0  0  0  0  0  0  0  0  0  0
   -0.5964   22.3398  -29.1941 H   0  0  0  0  0  0  0  0  0  0  0  0
   -2.9251   26.0111  -26.7776 H   0  0  0  0  0  0  0  0  0  0  0  0
   -3.0655   25.1860  -25.1990 H   0  0  0  0  0  0  0  0  0  0  0  0
   -1.6127   27.6839  -25.9128 H   0  0  0  0  0  0  0  0  0  0  0  0
   -2.1473   27.1342  -24.3185 H   0  0  0  0  0  0  0  0  0  0  0  0
    0.5026   26.9250  -25.5090 H   0  0  0  0  0  0  0  0  0  0  0  0
    0.0193   26.3932  -23.8931 H   0  0  0  0  0  0  0  0  0  0  0  0
    0.7294   24.6901  -25.9989 H   0  0  0  0  0  0  0  0  0  0  0  0
   -0.2524   24.1863  -24.5941 H   0  0  0  0  0  0  0  0  0  0  0  0
   -3.4989   25.5495  -29.1352 H   0  0  0  0  0  0  0  0  0  0  0  0
  1  2  2  0
  2  3  2  0
  2  4  1  0
  4  5  1  0
  5  6  2  0
  6  7  1  0
  7  8  2  0
  8  9  1  0
  9 10  2  0
 10 11  1  0
 11 12  2  0
 12 13  1  0
  2 14  1  0
 14 15  2  0
 15 16  1  0
 16 17  2  0
 17 18  1  0
 18 19  1  0
 19 20  2  0
 19 21  2  0
 19 22  1  0
 22 23  1  0
 23 24  1  0
 24 25  1  0
 25 26  1  0
 18 27  2  0
 13  5  1  0
 27 14  1  0
 12  7  1  0
 26 22  1  0
  4 28  1  0
  6 29  1  0
  8 30  1  0
  9 31  1  0
 10 32  1  0
 11 33  1  0
 15 34  1  0
 16 35  1  0
 17 36  1  0
 23 37  1  0
 23 38  1  0
 24 39  1  0
 24 40  1  0
 25 41  1  0
 25 42  1  0
 26 43  1  0
 26 44  1  0
 27 45  1  0
M  END
>  <UniqueID>  (31) 
31

>  <SMILES>  (31) 
O=S(=O)(Nc1cc2ccccc2s1)c1cccc(S(=O)(=O)N2CCCC2)c1

>  <Energy>  (31) 
80.89038053962832

>  <Genealogy>  (31) 
O=S(=O)(Nc1cc2ccccc2s1)c1cccc(S(=O)(=O)N2CCCC2)c1 (3D coordinates assigned)
O=S(=O)(Nc1cc2ccccc2s1)c1cccc(S(=O)(=O)N2CCCC2)c1 (nonaromatic ring conformer: 80.89038053962832 kcal/mol)

>  <smiles>  (31) 
O=S(=O)(Nc1cc2ccccc2s1)c1cccc(S(=O)(=O)N2CCCC2)c1

>  <score_type>  (31) 
oracle

>  <origin>  (31) 
adgpu

>  <m_score__min__energy>  (31) 
-10.68

>  <m_primary>  (31) 
energy

$$$$
31:0
     RDKit          3D

 51 54  0  0  0  0  0  0  0  0999 V2000
   -6.1520   19.2030  -33.8910 C   0  0  0  0  0  0  0  0  0  0  0  0
   -6.4510   19.2830  -32.3880 C   0  0  2  0  0  0  0  0  0  0  0  0
   -7.9120   18.8990  -32.1000 C   0  0  0  0  0  0  0  0  0  0  0  0
   -8.8080   19.9690  -32.5510 N   0  0  0  0  0  0  0  0  0  0  0  0
   -8.6400   21.1670  -31.7160 C   0  0  0  0  0  0  0  0  0  0  0  0
   -7.1940   21.5960  -31.6300 C   0  0  0  0  0  0  0  0  0  0  0  0
   -6.8870   22.8870  -31.1770 C   0  0  0  0  0  0  0  0  0  0  0  0
   -5.5550   23.2740  -30.9770 C   0  0  0  0  0  0  0  0  0  0  0  0
   -5.1670   24.8440  -30.2780 S   0  0  0  0  0  0  0  0  0  0  0  0
   -4.1630   25.5340  -31.1580 O   0  0  0  0  0  0  0  0  0  0  0  0
   -6.3970   25.7040  -30.1760 O   0  0  0  0  0  0  0  0  0  0  0  0
   -4.4920   24.6120  -28.6960 N   0  0  0  0  0  0  0  0  0  0  0  0
   -3.2600   23.8980  -28.5030 C   0  0  0  0  0  0  0  0  0  0  0  0
   -3.2700   22.5300  -28.1900 C   0  0  0  0  0  0  0  0  0  0  0  0
   -2.0750   21.8020  -28.1110 C   0  0  0  0  0  0  0  0  0  0  0  0
   -0.8430   22.4670  -28.2740 C   0  0  0  0  0  0  0  0  0  0  0  0
   -0.8330   23.8430  -28.5480 C   0  0  0  0  0  0  0  0  0  0  0  0
   -2.0310   24.5550  -28.6620 C   0  0  0  0  0  0  0  0  0  0  0  0
   -1.9890   25.9140  -28.9580 O   0  0  0  0  0  0  0  0  0  0  0  0
    0.4570   21.7080  -28.2710 C   0  0  0  0  0  0  0  0  0  0  0  0
    0.3100   20.2930  -27.6920 C   0  0  0  0  0  0  0  0  0  0  0  0
   -0.9050   19.6070  -28.1730 N   0  0  0  0  0  0  0  0  0  0  0  0
   -0.8770   19.3450  -29.6220 C   0  0  0  0  0  0  0  0  0  0  0  0
   -2.1250   20.3310  -27.7680 C   0  0  0  0  0  0  0  0  0  0  0  0
   -4.5250   22.3620  -31.2330 C   0  0  0  0  0  0  0  0  0  0  0  0
   -4.8190   21.0750  -31.6830 C   0  0  0  0  0  0  0  0  0  0  0  0
   -6.1510   20.6750  -31.8730 C   0  0  0  0  0  0  0  0  0  0  0  0
   -5.0993   18.9213  -34.0409 H   0  0  0  0  0  0  0  0  0  0  0  0
   -6.8033   18.4475  -34.3547 H   0  0  0  0  0  0  0  0  0  0  0  0
   -6.3390   20.1828  -34.3547 H   0  0  0  0  0  0  0  0  0  0  0  0
   -5.8036   18.5654  -31.8626 H   0  0  0  0  0  0  0  0  0  0  0  0
   -8.1567   17.9691  -32.6342 H   0  0  0  0  0  0  0  0  0  0  0  0
   -8.0408   18.7512  -31.0176 H   0  0  0  0  0  0  0  0  0  0  0  0
   -9.7930   19.6350  -32.4320 H   0  0  0  0  0  0  0  0  0  0  0  0
   -9.2293   21.9883  -32.1498 H   0  0  0  0  0  0  0  0  0  0  0  0
   -8.9846   20.9251  -30.6998 H   0  0  0  0  0  0  0  0  0  0  0  0
   -7.6986   23.6021  -30.9769 H   0  0  0  0  0  0  0  0  0  0  0  0
   -4.8720   25.2030  -27.9240 H   0  0  0  0  0  0  0  0  0  0  0  0
   -4.2281   22.0226  -28.0043 H   0  0  0  0  0  0  0  0  0  0  0  0
    0.1262   24.3665  -28.6743 H   0  0  0  0  0  0  0  0  0  0  0  0
    0.8223   21.6297  -29.3056 H   0  0  0  0  0  0  0  0  0  0  0  0
    1.1642   22.2585  -27.6333 H   0  0  0  0  0  0  0  0  0  0  0  0
    1.1889   19.6996  -27.9843 H   0  0  0  0  0  0  0  0  0  0  0  0
    0.2294   20.3867  -26.5990 H   0  0  0  0  0  0  0  0  0  0  0  0
   -0.7616   18.2652  -29.7972 H   0  0  0  0  0  0  0  0  0  0  0  0
   -1.8173   19.6916  -30.0755 H   0  0  0  0  0  0  0  0  0  0  0  0
   -0.0312   19.8825  -30.0755 H   0  0  0  0  0  0  0  0  0  0  0  0
   -2.9876   19.8799  -28.2803 H   0  0  0  0  0  0  0  0  0  0  0  0
   -2.2107   20.2490  -26.6744 H   0  0  0  0  0  0  0  0  0  0  0  0
   -3.4779   22.6617  -31.0785 H   0  0  0  0  0  0  0  0  0  0  0  0
   -4.0016   20.3687  -31.8904 H   0  0  0  0  0  0  0  0  0  0  0  0
  1  2  1  0
  2  3  1  0
  3  4  1  0
  4  5  1  0
  5  6  1  0
  6  7  2  0
  7  8  1  0
  8  9  1  0
  9 10  2  0
  9 11  2  0
  9 12  1  0
 12 13  1  0
 13 14  2  0
 14 15  1  0
 15 16  2  0
 16 17  1  0
 17 18  2  0
 18 19  1  0
 16 20  1  0
 20 21  1  0
 21 22  1  0
 22 23  1  0
 22 24  1  0
  8 25  2  0
 25 26  1  0
 26 27  2  0
 27  2  1  0
 27  6  1  0
 18 13  1  0
 24 15  1  0
  1 28  1  0
  1 29  1  0
  1 30  1  0
  2 31  1  1
  3 32  1  0
  3 33  1  0
  4 34  1  0
  5 35  1  0
  5 36  1  0
  7 37  1  0
 12 38  1  0
 14 39  1  0
 17 40  1  0
 20 41  1  0
 20 42  1  0
 21 43  1  0
 21 44  1  0
 23 45  1  0
 23 46  1  0
 23 47  1  0
 24 48  1  0
 24 49  1  0
 25 50  1  0
 26 51  1  0
M  CHG  1  19  -1
M  END
>  <UniqueID>  (32) 
32

>  <SMILES>  (32) 
C[C@@H]1CNCc2cc(S(=O)(=O)Nc3cc4c(cc3[O-])CCN(C)C4)ccc21

>  <Energy>  (32) 
60.01186810713697

>  <Genealogy>  (32) 
CC1CNCc2cc(S(=O)(=O)Nc3cc4c(cc3[O-])CCN(C)C4)ccc21 (protonated)
C[C@@H]1CNCc2cc(S(=O)(=O)Nc3cc4c(cc3[O-])CCN(C)C4)ccc21 (chirality)
C[C@@H]1CNCc2cc(S(=O)(=O)Nc3cc4c(cc3[O-])CCN(C)C4)ccc21 (3D coordinates assigned)
C[C@@H]1CNCc2cc(S(=O)(=O)Nc3cc4c(cc3[O-])CCN(C)C4)ccc21 (nonaromatic ring conformer: 60.01186810713697 kcal/mol)

>  <smiles>  (32) 
CC1CNCc2cc(S(=O)(=O)Nc3cc4c(cc3O)CCN(C)C4)ccc21

>  <score_type>  (32) 
oracle

>  <origin>  (32) 
adgpu

>  <m_score__min__energy>  (32) 
-13.529999999999999

>  <m_primary>  (32) 
energy

$$$$
32:0
     RDKit          3D

 61 64  0  0  0  0  0  0  0  0999 V2000
   -0.7358   26.0298  -28.1116 H   0  0  0  0  0  0  0  0  0  0  0  0
   -1.2770   25.1410  -28.4680 C   0  0  0  0  0  0  0  0  0  0  0  0
   -2.3360   25.2820  -29.3040 N   0  0  0  0  0  0  0  0  0  0  0  0
   -3.0140   24.2000  -29.7670 C   0  0  0  0  0  0  0  0  0  0  0  0
   -4.0330   24.3800  -30.5530 N   0  0  0  0  0  0  0  0  0  0  0  0
   -4.8340   23.3610  -31.1780 C   0  0  0  0  0  0  0  0  0  0  0  0
   -4.1880   22.2880  -31.8000 C   0  0  0  0  0  0  0  0  0  0  0  0
   -3.0889   22.2568  -31.8307 H   0  0  0  0  0  0  0  0  0  0  0  0
   -4.9270   21.2550  -32.3830 C   0  0  0  0  0  0  0  0  0  0  0  0
   -4.4060   20.4299  -32.8908 H   0  0  0  0  0  0  0  0  0  0  0  0
   -6.3310   21.2630  -32.3250 C   0  0  0  0  0  0  0  0  0  0  0  0
   -7.1170   20.1670  -32.9370 C   0  0  0  0  0  0  0  0  0  0  0  0
   -8.2420   20.4150  -33.4490 O   0  0  0  0  0  0  0  0  0  0  0  0
   -6.6160   18.8220  -32.9670 N   0  0  0  0  0  0  0  0  0  0  0  0
   -6.2760   18.1380  -31.7120 C   0  0  0  0  0  0  0  0  0  0  0  0
   -5.8515   18.8663  -31.0053 H   0  0  0  0  0  0  0  0  0  0  0  0
   -7.1880   17.6907  -31.2899 H   0  0  0  0  0  0  0  0  0  0  0  0
   -5.2530   17.0310  -31.9710 C   0  0  0  0  0  0  0  0  0  0  0  0
   -4.3369   17.4780  -32.3845 H   0  0  0  0  0  0  0  0  0  0  0  0
   -5.0397   16.5228  -31.0190 H   0  0  0  0  0  0  0  0  0  0  0  0
   -5.8050   15.9830  -32.9770 C   0  0  0  0  0  0  0  0  0  0  0  0
   -6.4723   15.3448  -32.3792 H   0  0  0  0  0  0  0  0  0  0  0  0
   -4.7620   15.0660  -33.5280 N   0  0  0  0  0  0  0  0  0  0  0  0
   -5.2310   14.4450  -34.2300 H   0  0  0  0  0  0  0  0  0  0  0  0
   -4.2170   14.1690  -32.4900 C   0  0  0  0  0  0  0  0  0  0  0  0
   -4.4603   14.5694  -31.4948 H   0  0  0  0  0  0  0  0  0  0  0  0
   -4.6599   13.1682  -32.6009 H   0  0  0  0  0  0  0  0  0  0  0  0
   -3.1247   14.1009  -32.6009 H   0  0  0  0  0  0  0  0  0  0  0  0
   -3.6570   15.7530  -34.2280 C   0  0  0  0  0  0  0  0  0  0  0  0
   -2.9655   16.1829  -33.4884 H   0  0  0  0  0  0  0  0  0  0  0  0
   -3.1172   15.0310  -34.8584 H   0  0  0  0  0  0  0  0  0  0  0  0
   -4.0656   16.5565  -34.8584 H   0  0  0  0  0  0  0  0  0  0  0  0
   -6.6820   16.6220  -34.0990 C   0  0  0  0  0  0  0  0  0  0  0  0
   -6.4356   16.1345  -35.0538 H   0  0  0  0  0  0  0  0  0  0  0  0
   -7.7335   16.4716  -33.8133 H   0  0  0  0  0  0  0  0  0  0  0  0
   -6.4680   18.1350  -34.2560 C   0  0  0  0  0  0  0  0  0  0  0  0
   -5.4560   18.3169  -34.6468 H   0  0  0  0  0  0  0  0  0  0  0  0
   -7.2249   18.5265  -34.9516 H   0  0  0  0  0  0  0  0  0  0  0  0
   -6.9800   22.3340  -31.6880 C   0  0  0  0  0  0  0  0  0  0  0  0
   -8.0789   22.3605  -31.6474 H   0  0  0  0  0  0  0  0  0  0  0  0
   -6.2380   23.3670  -31.1050 C   0  0  0  0  0  0  0  0  0  0  0  0
   -6.7556   24.1878  -30.5870 H   0  0  0  0  0  0  0  0  0  0  0  0
   -2.6390   22.9530  -29.3660 N   0  0  0  0  0  0  0  0  0  0  0  0
   -1.5900   22.7540  -28.5220 C   0  0  0  0  0  0  0  0  0  0  0  0
   -1.2250   21.3690  -28.1270 C   0  0  0  0  0  0  0  0  0  0  0  0
   -2.0100   20.6300  -27.2230 C   0  0  0  0  0  0  0  0  0  0  0  0
   -2.9148   21.0827  -26.7913 H   0  0  0  0  0  0  0  0  0  0  0  0
   -1.6520   19.3270  -26.8680 C   0  0  0  0  0  0  0  0  0  0  0  0
   -2.2728   18.7635  -26.1559 H   0  0  0  0  0  0  0  0  0  0  0  0
   -0.5010   18.7320  -27.4170 C   0  0  0  0  0  0  0  0  0  0  0  0
   -0.0980   17.4280  -27.0900 O   0  0  0  0  0  0  0  0  0  0  0  0
    0.9690   16.7330  -27.7270 C   0  0  0  0  0  0  0  0  0  0  0  0
    1.6326   16.3008  -26.9635 H   0  0  0  0  0  0  0  0  0  0  0  0
    0.5592   15.9281  -28.3548 H   0  0  0  0  0  0  0  0  0  0  0  0
    1.5396   17.4332  -28.3548 H   0  0  0  0  0  0  0  0  0  0  0  0
    0.2740   19.4590  -28.3250 C   0  0  0  0  0  0  0  0  0  0  0  0
    1.1731   19.0012  -28.7632 H   0  0  0  0  0  0  0  0  0  0  0  0
   -0.0830   20.7620  -28.6810 C   0  0  0  0  0  0  0  0  0  0  0  0
    0.5346   21.3186  -29.4012 H   0  0  0  0  0  0  0  0  0  0  0  0
   -0.8740   23.8690  -28.0600 C   0  0  0  0  0  0  0  0  0  0  0  0
   -0.0115   23.7426  -27.3890 H   0  0  0  0  0  0  0  0  0  0  0  0
  1  2  1  0
  2  3  1  0
  3  4  1  0
  4  5  2  0
  5  6  1  0
  6  7  2  0
  7  8  1  0
  7  9  1  0
  9 10  1  0
  9 11  2  0
 11 12  1  0
 12 13  2  0
 12 14  1  0
 14 15  1  0
 15 16  1  0
 15 17  1  0
 15 18  1  0
 18 19  1  0
 18 20  1  0
 18 21  1  0
 21 22  1  0
 21 23  1  0
 23 24  1  0
 23 25  1  0
 25 26  1  0
 25 27  1  0
 25 28  1  0
 23 29  1  0
 29 30  1  0
 29 31  1  0
 29 32  1  0
 21 33  1  0
 33 34  1  0
 33 35  1  0
 33 36  1  0
 36 37  1  0
 36 38  1  0
 11 39  1  0
 39 40  1  0
 39 41  2  0
 41 42  1  0
  4 43  1  0
 43 44  2  0
 44 45  1  0
 45 46  2  0
 46 47  1  0
 46 48  1  0
 48 49  1  0
 48 50  2  0
 50 51  1  0
 51 52  1  0
 52 53  1  0
 52 54  1  0
 52 55  1  0
 50 56  1  0
 56 57  1  0
 56 58  2  0
 58 59  1  0
 44 60  1  0
 60 61  1  0
 60  2  2  0
 41  6  1  0
 58 45  1  0
 36 14  1  0
M  CHG  2   3  -1  23   1
M  END
>  <UniqueID>  (33) 
33

>  <SMILES>  (33) 
COc1ccc(-c2cc[n-]/c(=N/c3ccc(C(=O)N4CCC([NH+](C)C)CC4)cc3)n2)cc1

>  <Energy>  (33) 
88.27981199652717

>  <Genealogy>  (33) 
COc1ccc(-c2cc[n-]c(=Nc3ccc(C(=O)N4CCC([NH+](C)C)CC4)cc3)n2)cc1 (protonated)
COc1ccc(-c2cc[n-]/c(=N/c3ccc(C(=O)N4CCC([NH+](C)C)CC4)cc3)n2)cc1 (cis-trans isomerization)
COc1ccc(-c2cc[n-]/c(=N/c3ccc(C(=O)N4CCC([NH+](C)C)CC4)cc3)n2)cc1 (3D coordinates assigned)
COc1ccc(-c2cc[n-]/c(=N/c3ccc(C(=O)N4CCC([NH+](C)C)CC4)cc3)n2)cc1 (nonaromatic ring conformer: 88.27981199652717 kcal/mol)

>  <smiles>  (33) 
COc1ccc(-c2cc[nH]c(=Nc3ccc(C(=O)N4CCC(N(C)C)CC4)cc3)n2)cc1

>  <score_type>  (33) 
oracle

>  <origin>  (33) 
adgpu

>  <m_score__min__energy>  (33) 
-10.17

>  <m_primary>  (33) 
energy

$$$$
33:0
     RDKit          3D

 48 50  0  0  0  0  0  0  0  0999 V2000
   -6.8590   16.8640  -33.7620 C   0  0  0  0  0  0  0  0  0  0  0  0
   -6.1520   17.3610  -32.5710 N   0  0  0  0  0  0  0  0  0  0  0  0
   -5.3450   16.2750  -31.9910 C   0  0  0  0  0  0  0  0  0  0  0  0
   -7.1310   17.8820  -31.5920 C   0  0  0  0  0  0  0  0  0  0  0  0
   -8.3170   18.5830  -32.2830 C   0  0  0  0  0  0  0  0  0  0  0  0
   -7.8740   19.7110  -33.1080 N   0  0  0  0  0  0  0  0  0  0  0  0
   -6.7250   20.5330  -32.8080 C   0  0  0  0  0  0  0  0  0  0  0  0
   -5.4720   20.2680  -33.4180 C   0  0  0  0  0  0  0  0  0  0  0  0
   -4.3240   21.0080  -33.0810 C   0  0  0  0  0  0  0  0  0  0  0  0
   -4.3910   22.0270  -32.1270 C   0  0  0  0  0  0  0  0  0  0  0  0
   -5.6250   22.2920  -31.5410 C   0  0  0  0  0  0  0  0  0  0  0  0
   -5.9720   23.2560  -30.6210 C   0  0  0  0  0  0  0  0  0  0  0  0
   -4.9240   24.4740  -29.9110 S   0  0  0  0  0  0  0  0  0  0  0  0
   -4.3710   25.3660  -30.9870 O   0  0  0  0  0  0  0  0  0  0  0  0
   -5.7290   25.3070  -28.9540 O   0  0  0  0  0  0  0  0  0  0  0  0
   -3.5910   23.6790  -29.0800 C   0  0  0  0  0  0  0  0  0  0  0  0
   -2.3890   24.3720  -28.8780 C   0  0  0  0  0  0  0  0  0  0  0  0
   -1.3170   23.7460  -28.2360 C   0  0  0  0  0  0  0  0  0  0  0  0
   -1.4390   22.4270  -27.7940 C   0  0  0  0  0  0  0  0  0  0  0  0
   -2.6360   21.7300  -27.9920 C   0  0  0  0  0  0  0  0  0  0  0  0
   -2.7890   20.0720  -27.4380 Cl  0  0  0  0  0  0  0  0  0  0  0  0
   -3.7110   22.3540  -28.6330 C   0  0  0  0  0  0  0  0  0  0  0  0
   -7.3330   23.1280  -30.4250 C   0  0  0  0  0  0  0  0  0  0  0  0
   -7.8240   22.1220  -31.1890 N   0  0  0  0  0  0  0  0  0  0  0  0
   -9.2430   21.7840  -31.2620 C   0  0  0  0  0  0  0  0  0  0  0  0
   -6.7690   21.5920  -31.8640 C   0  0  0  0  0  0  0  0  0  0  0  0
   -7.7219   16.2574  -33.4497 H   0  0  0  0  0  0  0  0  0  0  0  0
   -7.2083   17.7163  -34.3633 H   0  0  0  0  0  0  0  0  0  0  0  0
   -6.1753   16.2468  -34.3633 H   0  0  0  0  0  0  0  0  0  0  0  0
   -5.3877   16.3325  -30.8933 H   0  0  0  0  0  0  0  0  0  0  0  0
   -5.7430   15.3048  -32.3231 H   0  0  0  0  0  0  0  0  0  0  0  0
   -4.3012   16.3762  -32.3231 H   0  0  0  0  0  0  0  0  0  0  0  0
   -7.5141   17.0437  -30.9916 H   0  0  0  0  0  0  0  0  0  0  0  0
   -6.6194   18.6219  -30.9589 H   0  0  0  0  0  0  0  0  0  0  0  0
   -8.8372   17.8555  -32.9235 H   0  0  0  0  0  0  0  0  0  0  0  0
   -8.9878   18.9715  -31.5026 H   0  0  0  0  0  0  0  0  0  0  0  0
   -8.5270   20.0060  -33.8630 H   0  0  0  0  0  0  0  0  0  0  0  0
   -5.3965   19.4681  -34.1693 H   0  0  0  0  0  0  0  0  0  0  0  0
   -3.3660   20.7827  -33.5723 H   0  0  0  0  0  0  0  0  0  0  0  0
   -3.4957   22.6020  -31.8479 H   0  0  0  0  0  0  0  0  0  0  0  0
   -2.2895   25.4109  -29.2257 H   0  0  0  0  0  0  0  0  0  0  0  0
   -0.3758   24.2931  -28.0786 H   0  0  0  0  0  0  0  0  0  0  0  0
   -0.5937   21.9357  -27.2899 H   0  0  0  0  0  0  0  0  0  0  0  0
   -4.6520   21.8055  -28.7871 H   0  0  0  0  0  0  0  0  0  0  0  0
   -7.9324   23.7527  -29.7464 H   0  0  0  0  0  0  0  0  0  0  0  0
   -9.6497   21.6871  -30.2445 H   0  0  0  0  0  0  0  0  0  0  0  0
   -9.7821   22.5789  -31.7982 H   0  0  0  0  0  0  0  0  0  0  0  0
   -9.3659   20.8314  -31.7982 H   0  0  0  0  0  0  0  0  0  0  0  0
  1  2  1  0
  2  3  1  0
  2  4  1  0
  4  5  1  0
  5  6  1  0
  6  7  1  0
  7  8  2  0
  8  9  1  0
  9 10  2  0
 10 11  1  0
 11 12  1  0
 12 13  1  0
 13 14  2  0
 13 15  2  0
 13 16  1  0
 16 17  2  0
 17 18  1  0
 18 19  2  0
 19 20  1  0
 20 21  1  0
 20 22  2  0
 12 23  2  0
 23 24  1  0
 24 25  1  0
 24 26  1  0
 26  7  1  0
 26 11  2  0
 22 16  1  0
  1 27  1  0
  1 28  1  0
  1 29  1  0
  3 30  1  0
  3 31  1  0
  3 32  1  0
  4 33  1  0
  4 34  1  0
  5 35  1  0
  5 36  1  0
  6 37  1  0
  8 38  1  0
  9 39  1  0
 10 40  1  0
 17 41  1  0
 18 42  1  0
 19 43  1  0
 22 44  1  0
 23 45  1  0
 25 46  1  0
 25 47  1  0
 25 48  1  0
M  END
>  <UniqueID>  (34) 
34

>  <SMILES>  (34) 
CN(C)CCNc1cccc2c(S(=O)(=O)c3cccc(Cl)c3)cn(C)c12

>  <Energy>  (34) 
89.00483679060294

>  <Genealogy>  (34) 
CN(C)CCNc1cccc2c(S(=O)(=O)c3cccc(Cl)c3)cn(C)c12 (3D coordinates assigned)
CN(C)CCNc1cccc2c(S(=O)(=O)c3cccc(Cl)c3)cn(C)c12 (optimized conformer: 89.00483679060294 kcal/mol)

>  <smiles>  (34) 
CN(C)CCNc1cccc2c(S(=O)(=O)c3cccc(Cl)c3)cn(C)c12

>  <score_type>  (34) 
oracle

>  <origin>  (34) 
adgpu

>  <m_score__min__energy>  (34) 
-9.6300000000000008

>  <m_primary>  (34) 
energy

$$$$
34:0
     RDKit          3D

 24 25  0  0  0  0  0  0  0  0999 V2000
   -3.3150   17.4620  -35.8170 H   0  0  0  0  0  0  0  0  0  0  0  0
   -4.2230   17.0670  -35.4830 N   0  0  0  0  0  0  0  0  0  0  0  0
   -4.9680   17.7090  -34.6420 C   0  0  0  0  0  0  0  0  0  0  0  0
   -6.4320   17.1420  -34.0580 S   0  0  0  0  0  0  0  0  0  0  0  0
   -6.6830   18.5010  -33.0920 C   0  0  0  0  0  0  0  0  0  0  0  0
   -7.5517   18.6747  -32.4399 H   0  0  0  0  0  0  0  0  0  0  0  0
   -5.5990   19.3710  -33.2600 C   0  0  0  0  0  0  0  0  0  0  0  0
   -5.4860   20.6760  -32.5640 C   0  0  0  0  0  0  0  0  0  0  0  0
   -6.6320   21.3160  -32.0560 C   0  0  0  0  0  0  0  0  0  0  0  0
   -7.6188   20.8449  -32.1756 H   0  0  0  0  0  0  0  0  0  0  0  0
   -6.5250   22.5470  -31.4000 C   0  0  0  0  0  0  0  0  0  0  0  0
   -7.4279   23.0400  -31.0105 H   0  0  0  0  0  0  0  0  0  0  0  0
   -5.2750   23.1540  -31.2370 C   0  0  0  0  0  0  0  0  0  0  0  0
   -5.1440   24.7100  -30.4240 S   0  0  0  0  0  0  0  0  0  0  0  0
   -5.5470   24.5680  -28.9840 O   0  0  0  0  0  0  0  0  0  0  0  0
   -6.0540   25.7090  -31.0830 O   0  0  0  0  0  0  0  0  0  0  0  0
   -3.5120   25.2730  -30.5150 N   0  0  0  0  0  0  0  0  0  0  0  0
   -3.4950   26.0460  -31.2180 H   0  0  0  0  0  0  0  0  0  0  0  0
   -4.1320   22.5270  -31.7450 C   0  0  0  0  0  0  0  0  0  0  0  0
   -3.1482   23.0050  -31.6285 H   0  0  0  0  0  0  0  0  0  0  0  0
   -4.2340   21.2960  -32.4000 C   0  0  0  0  0  0  0  0  0  0  0  0
   -3.3283   20.8086  -32.7901 H   0  0  0  0  0  0  0  0  0  0  0  0
   -4.6490   18.9160  -34.1280 N   0  0  0  0  0  0  0  0  0  0  0  0
   -3.7650   19.4230  -34.3550 H   0  0  0  0  0  0  0  0  0  0  0  0
  1  2  1  0
  2  3  2  0
  3  4  1  0
  4  5  1  0
  5  6  1  0
  5  7  2  0
  7  8  1  0
  8  9  2  0
  9 10  1  0
  9 11  1  0
 11 12  1  0
 11 13  2  0
 13 14  1  0
 14 15  2  0
 14 16  2  0
 14 17  1  0
 17 18  1  0
 13 19  1  0
 19 20  1  0
 19 21  2  0
 21 22  1  0
  7 23  1  0
 23 24  1  0
 23  3  1  0
 21  8  1  0
M  CHG  1  17  -1
M  END
>  <UniqueID>  (35) 
35

>  <SMILES>  (35) 
[H]/N=c1\[nH]c(-c2ccc(S([NH-])(=O)=O)cc2)cs1

>  <Energy>  (35) 
57.491141106518185

>  <Genealogy>  (35) 
N=c1[nH]c(-c2ccc(S([NH-])(=O)=O)cc2)cs1 (protonated)
[H]/N=c1\[nH]c(-c2ccc(S([NH-])(=O)=O)cc2)cs1 (cis-trans isomerization)
[H]/N=c1\[nH]c(-c2ccc(S([NH-])(=O)=O)cc2)cs1 (3D coordinates assigned)
[H]/N=c1\[nH]c(-c2ccc(S([NH-])(=O)=O)cc2)cs1 (optimized conformer: 57.491141106518185 kcal/mol)

>  <smiles>  (35) 
N=c1[nH]c(-c2ccc(S(N)(=O)=O)cc2)cs1

>  <score_type>  (35) 
oracle

>  <origin>  (35) 
adgpu

>  <m_score__min__energy>  (35) 
-8.8900000000000006

>  <m_primary>  (35) 
energy

$$$$
35:0
     RDKit          3D

 67 70  0  0  0  0  0  0  0  0999 V2000
   -6.8300   23.7450  -32.3560 C   0  0  0  0  0  0  0  0  0  0  0  0
   -6.9310   23.8020  -30.8370 C   0  0  0  0  0  0  0  0  0  0  0  0
   -5.5780   24.7440  -30.1410 S   0  0  0  0  0  0  0  0  0  0  0  0
   -5.0330   25.6540  -31.2070 O   0  0  0  0  0  0  0  0  0  0  0  0
   -6.1120   25.5670  -29.0020 O   0  0  0  0  0  0  0  0  0  0  0  0
   -4.2670   23.7110  -29.5400 C   0  0  0  0  0  0  0  0  0  0  0  0
   -3.5920   22.8600  -30.4340 C   0  0  0  0  0  0  0  0  0  0  0  0
   -2.5530   22.0290  -29.9940 C   0  0  0  0  0  0  0  0  0  0  0  0
   -1.8850   21.1570  -30.9250 N   0  0  0  0  0  0  0  0  0  0  0  0
   -0.7490   20.3470  -30.4820 C   0  0  0  0  0  0  0  0  0  0  0  0
    0.2750   20.2290  -31.6160 C   0  0  0  0  0  0  0  0  0  0  0  0
   -0.3410   19.7540  -32.8720 N   0  0  0  0  0  0  0  0  0  0  0  0
   -0.6990   18.3180  -32.8260 C   0  0  0  0  0  0  0  0  0  0  0  0
   -1.8100   17.9930  -33.8250 C   0  0  0  0  0  0  0  0  0  0  0  0
   -3.0340   17.7910  -33.1240 O   0  0  0  0  0  0  0  0  0  0  0  0
   -3.9180   16.7230  -33.3410 C   0  0  0  0  0  0  0  0  0  0  0  0
   -3.5500   15.3880  -33.0860 C   0  0  0  0  0  0  0  0  0  0  0  0
   -4.4530   14.3490  -33.3240 C   0  0  0  0  0  0  0  0  0  0  0  0
   -5.7280   14.6290  -33.8160 C   0  0  0  0  0  0  0  0  0  0  0  0
   -6.1070   15.9500  -34.0690 C   0  0  0  0  0  0  0  0  0  0  0  0
   -5.2090   17.0030  -33.8290 C   0  0  0  0  0  0  0  0  0  0  0  0
   -5.6900   18.6760  -34.1350 S   0  0  0  0  0  0  0  0  0  0  0  0
   -4.5140   19.5840  -33.8940 O   0  0  0  0  0  0  0  0  0  0  0  0
   -6.1170   18.8120  -35.5700 O   0  0  0  0  0  0  0  0  0  0  0  0
   -7.0100   19.1820  -33.0830 C   0  0  0  0  0  0  0  0  0  0  0  0
   -7.3330   20.5400  -32.9540 C   0  0  0  0  0  0  0  0  0  0  0  0
   -8.3850   20.9350  -32.1210 C   0  0  0  0  0  0  0  0  0  0  0  0
   -9.1230   19.9780  -31.4210 C   0  0  0  0  0  0  0  0  0  0  0  0
   -8.8100   18.6210  -31.5540 C   0  0  0  0  0  0  0  0  0  0  0  0
   -7.7570   18.2230  -32.3840 C   0  0  0  0  0  0  0  0  0  0  0  0
   -1.4550   20.6330  -33.2920 C   0  0  0  0  0  0  0  0  0  0  0  0
   -2.5210   20.8130  -32.2010 C   0  0  0  0  0  0  0  0  0  0  0  0
   -2.1860   22.0450  -28.6420 C   0  0  0  0  0  0  0  0  0  0  0  0
   -2.8400   22.8880  -27.7460 C   0  0  0  0  0  0  0  0  0  0  0  0
   -3.8800   23.7250  -28.1760 C   0  0  0  0  0  0  0  0  0  0  0  0
   -4.5210   24.5710  -27.2120 N   0  0  0  0  0  0  0  0  0  0  0  0
   -5.9051   23.2230  -32.6426 H   0  0  0  0  0  0  0  0  0  0  0  0
   -7.6974   23.2032  -32.7611 H   0  0  0  0  0  0  0  0  0  0  0  0
   -6.8146   24.7676  -32.7611 H   0  0  0  0  0  0  0  0  0  0  0  0
   -7.8824   24.2778  -30.5571 H   0  0  0  0  0  0  0  0  0  0  0  0
   -6.8836   22.7760  -30.4432 H   0  0  0  0  0  0  0  0  0  0  0  0
   -3.8842   22.8467  -31.4944 H   0  0  0  0  0  0  0  0  0  0  0  0
   -0.2767   20.8250  -29.6111 H   0  0  0  0  0  0  0  0  0  0  0  0
   -1.1034   19.3431  -30.2054 H   0  0  0  0  0  0  0  0  0  0  0  0
    0.7244   21.2173  -31.7927 H   0  0  0  0  0  0  0  0  0  0  0  0
    1.0351   19.4943  -31.3118 H   0  0  0  0  0  0  0  0  0  0  0  0
    0.1902   17.7185  -33.0707 H   0  0  0  0  0  0  0  0  0  0  0  0
   -1.0600   18.0812  -31.8143 H   0  0  0  0  0  0  0  0  0  0  0  0
   -1.9250   18.8291  -34.5305 H   0  0  0  0  0  0  0  0  0  0  0  0
   -1.5494   17.0793  -34.3792 H   0  0  0  0  0  0  0  0  0  0  0  0
   -2.5461   15.1620  -32.6973 H   0  0  0  0  0  0  0  0  0  0  0  0
   -4.1582   13.3084  -33.1231 H   0  0  0  0  0  0  0  0  0  0  0  0
   -6.4361   13.8087  -34.0051 H   0  0  0  0  0  0  0  0  0  0  0  0
   -7.1130   16.1662  -34.4578 H   0  0  0  0  0  0  0  0  0  0  0  0
   -6.7582   21.2962  -33.5088 H   0  0  0  0  0  0  0  0  0  0  0  0
   -8.6316   22.0019  -32.0170 H   0  0  0  0  0  0  0  0  0  0  0  0
   -9.9494   20.2909  -30.7659 H   0  0  0  0  0  0  0  0  0  0  0  0
   -9.3926   17.8663  -31.0053 H   0  0  0  0  0  0  0  0  0  0  0  0
   -7.5143   17.1552  -32.4887 H   0  0  0  0  0  0  0  0  0  0  0  0
   -1.0447   21.6211  -33.5477 H   0  0  0  0  0  0  0  0  0  0  0  0
   -1.9437   20.1559  -34.1543 H   0  0  0  0  0  0  0  0  0  0  0  0
   -3.2083   21.6203  -32.4939 H   0  0  0  0  0  0  0  0  0  0  0  0
   -3.0772   19.8713  -32.0831 H   0  0  0  0  0  0  0  0  0  0  0  0
   -1.3778   21.3890  -28.2863 H   0  0  0  0  0  0  0  0  0  0  0  0
   -2.5370   22.8972  -26.6886 H   0  0  0  0  0  0  0  0  0  0  0  0
   -4.8390   24.1810  -26.2970 H   0  0  0  0  0  0  0  0  0  0  0  0
   -4.6950   25.5850  -27.3760 H   0  0  0  0  0  0  0  0  0  0  0  0
  1  2  1  0
  2  3  1  0
  3  4  2  0
  3  5  2  0
  3  6  1  0
  6  7  2  0
  7  8  1  0
  8  9  1  0
  9 10  1  0
 10 11  1  0
 11 12  1  0
 12 13  1  0
 13 14  1  0
 14 15  1  0
 15 16  1  0
 16 17  2  0
 17 18  1  0
 18 19  2  0
 19 20  1  0
 20 21  2  0
 21 22  1  0
 22 23  2  0
 22 24  2  0
 22 25  1  0
 25 26  2  0
 26 27  1  0
 27 28  2  0
 28 29  1  0
 29 30  2  0
 12 31  1  0
 31 32  1  0
  8 33  2  0
 33 34  1  0
 34 35  2  0
 35 36  1  0
 35  6  1  0
 32  9  1  0
 21 16  1  0
 30 25  1  0
  1 37  1  0
  1 38  1  0
  1 39  1  0
  2 40  1  0
  2 41  1  0
  7 42  1  0
 10 43  1  0
 10 44  1  0
 11 45  1  0
 11 46  1  0
 13 47  1  0
 13 48  1  0
 14 49  1  0
 14 50  1  0
 17 51  1  0
 18 52  1  0
 19 53  1  0
 20 54  1  0
 26 55  1  0
 27 56  1  0
 28 57  1  0
 29 58  1  0
 30 59  1  0
 31 60  1  0
 31 61  1  0
 32 62  1  0
 32 63  1  0
 33 64  1  0
 34 65  1  0
 36 66  1  0
 36 67  1  0
M  END
>  <UniqueID>  (36) 
36

>  <SMILES>  (36) 
CCS(=O)(=O)c1cc(N2CCN(CCOc3ccccc3S(=O)(=O)c3ccccc3)CC2)ccc1N

>  <Energy>  (36) 
75.35877828026476

>  <Genealogy>  (36) 
CCS(=O)(=O)c1cc(N2CCN(CCOc3ccccc3S(=O)(=O)c3ccccc3)CC2)ccc1N (3D coordinates assigned)
CCS(=O)(=O)c1cc(N2CCN(CCOc3ccccc3S(=O)(=O)c3ccccc3)CC2)ccc1N (nonaromatic ring conformer: 75.35877828026476 kcal/mol)

>  <smiles>  (36) 
CCS(=O)(=O)c1cc(N2CCN(CCOc3ccccc3S(=O)(=O)c3ccccc3)CC2)ccc1N

>  <score_type>  (36) 
oracle

>  <origin>  (36) 
adgpu

>  <m_score__min__energy>  (36) 
-10.460000000000001

>  <m_primary>  (36) 
energy

$$$$
36:0
     RDKit          3D

 49 51  0  0  0  0  0  0  0  0999 V2000
   -2.0749   23.9608  -30.7602 H   0  0  0  0  0  0  0  0  0  0  0  0
   -2.3390   23.6950  -29.7260 C   0  0  0  0  0  0  0  0  0  0  0  0
   -1.4080   23.0310  -28.9210 C   0  0  0  0  0  0  0  0  0  0  0  0
   -0.4172   22.7769  -29.3257 H   0  0  0  0  0  0  0  0  0  0  0  0
   -1.7310   22.6880  -27.6020 C   0  0  0  0  0  0  0  0  0  0  0  0
   -0.5410   21.8590  -26.6040 S   0  0  0  0  0  0  0  0  0  0  0  0
    0.1400   20.8130  -27.4420 O   0  0  0  0  0  0  0  0  0  0  0  0
   -1.2240   21.1820  -25.4480 O   0  0  0  0  0  0  0  0  0  0  0  0
    0.6280   23.0240  -26.0210 N   0  0  0  0  0  0  0  0  0  0  0  0
    0.2540   23.5620  -24.6990 C   0  0  0  0  0  0  0  0  0  0  0  0
   -0.0482   22.7252  -24.0521 H   0  0  0  0  0  0  0  0  0  0  0  0
    1.1302   24.0929  -24.2986 H   0  0  0  0  0  0  0  0  0  0  0  0
   -0.9070   24.5730  -24.7700 C   0  0  0  0  0  0  0  0  0  0  0  0
   -1.8536   24.0152  -24.8228 H   0  0  0  0  0  0  0  0  0  0  0  0
   -0.8480   25.2024  -23.8698 H   0  0  0  0  0  0  0  0  0  0  0  0
   -0.8220   25.5090  -25.9890 C   0  0  0  0  0  0  0  0  0  0  0  0
   -1.5639   25.1887  -26.7354 H   0  0  0  0  0  0  0  0  0  0  0  0
   -1.0217   26.5346  -25.6452 H   0  0  0  0  0  0  0  0  0  0  0  0
    0.5640   25.4870  -26.6300 C   0  0  0  0  0  0  0  0  0  0  0  0
    0.5608   26.1318  -27.5212 H   0  0  0  0  0  0  0  0  0  0  0  0
    1.2995   25.8535  -25.8988 H   0  0  0  0  0  0  0  0  0  0  0  0
    0.9450   24.0550  -27.0430 C   0  0  0  0  0  0  0  0  0  0  0  0
    0.4009   23.8053  -27.9658 H   0  0  0  0  0  0  0  0  0  0  0  0
    2.0367   24.0435  -27.1770 H   0  0  0  0  0  0  0  0  0  0  0  0
   -2.9940   23.0150  -27.0930 C   0  0  0  0  0  0  0  0  0  0  0  0
   -3.2524   22.7500  -26.0572 H   0  0  0  0  0  0  0  0  0  0  0  0
   -3.9280   23.6770  -27.8960 C   0  0  0  0  0  0  0  0  0  0  0  0
   -4.9182   23.9273  -27.4874 H   0  0  0  0  0  0  0  0  0  0  0  0
   -3.6120   24.0260  -29.2230 C   0  0  0  0  0  0  0  0  0  0  0  0
   -4.6030   24.7210  -30.0780 C   0  0  0  0  0  0  0  0  0  0  0  0
   -4.2200   25.6380  -30.8560 O   0  0  0  0  0  0  0  0  0  0  0  0
   -5.9880   24.3390  -30.0170 N   0  0  0  0  0  0  0  0  0  0  0  0
   -6.5720   23.3530  -30.6350 C   0  0  0  0  0  0  0  0  0  0  0  0
   -7.8860   23.0900  -30.4740 N   0  0  0  0  0  0  0  0  0  0  0  0
   -8.2970   22.0260  -31.1630 N   0  0  0  0  0  0  0  0  0  0  0  0
   -7.3120   21.4430  -31.8780 C   0  0  0  0  0  0  0  0  0  0  0  0
   -7.5360   19.9950  -32.8400 S   0  0  0  0  0  0  0  0  0  0  0  0
   -6.5100   19.9680  -33.9400 O   0  0  0  0  0  0  0  0  0  0  0  0
   -8.9090   20.0390  -33.4510 O   0  0  0  0  0  0  0  0  0  0  0  0
   -7.3730   18.5760  -31.8360 N   0  0  0  0  0  0  0  0  0  0  0  0
   -6.8420   17.4650  -32.6370 C   0  0  0  0  0  0  0  0  0  0  0  0
   -6.4656   16.6775  -31.9676 H   0  0  0  0  0  0  0  0  0  0  0  0
   -7.6417   17.0555  -33.2716 H   0  0  0  0  0  0  0  0  0  0  0  0
   -6.0210   17.8301  -33.2716 H   0  0  0  0  0  0  0  0  0  0  0  0
   -8.6890   18.2160  -31.2890 C   0  0  0  0  0  0  0  0  0  0  0  0
   -8.6450   18.2280  -30.1899 H   0  0  0  0  0  0  0  0  0  0  0  0
   -9.4404   18.9416  -31.6339 H   0  0  0  0  0  0  0  0  0  0  0  0
   -8.9664   17.2090  -31.6339 H   0  0  0  0  0  0  0  0  0  0  0  0
   -5.8430   22.2390  -31.6780 S   0  0  0  0  0  0  0  0  0  0  0  0
  1  2  1  0
  2  3  2  0
  3  4  1  0
  3  5  1  0
  5  6  1  0
  6  7  2  0
  6  8  2  0
  6  9  1  0
  9 10  1  0
 10 11  1  0
 10 12  1  0
 10 13  1  0
 13 14  1  0
 13 15  1  0
 13 16  1  0
 16 17  1  0
 16 18  1  0
 16 19  1  0
 19 20  1  0
 19 21  1  0
 19 22  1  0
 22 23  1  0
 22 24  1  0
  5 25  2  0
 25 26  1  0
 25 27  1  0
 27 28  1  0
 27 29  2  0
 29 30  1  0
 30 31  2  0
 30 32  1  0
 32 33  2  0
 33 34  1  0
 34 35  1  0
 35 36  2  0
 36 37  1  0
 37 38  2  0
 37 39  2  0
 37 40  1  0
 40 41  1  0
 41 42  1  0
 41 43  1  0
 41 44  1  0
 40 45  1  0
 45 46  1  0
 45 47  1  0
 45 48  1  0
 36 49  1  0
 29  2  1  0
 49 33  1  0
 22  9  1  0
M  CHG  1  34  -1
M  END
>  <UniqueID>  (37) 
37

>  <SMILES>  (37) 
CN(C)S(=O)(=O)c1n[n-]/c(=N/C(=O)c2ccc(S(=O)(=O)N3CCCCC3)cc2)s1

>  <Energy>  (37) 
93.4048812422977

>  <Genealogy>  (37) 
CN(C)S(=O)(=O)c1n[n-]c(=NC(=O)c2ccc(S(=O)(=O)N3CCCCC3)cc2)s1 (protonated)
CN(C)S(=O)(=O)c1n[n-]/c(=N/C(=O)c2ccc(S(=O)(=O)N3CCCCC3)cc2)s1 (cis-trans isomerization)
CN(C)S(=O)(=O)c1n[n-]/c(=N/C(=O)c2ccc(S(=O)(=O)N3CCCCC3)cc2)s1 (3D coordinates assigned)
CN(C)S(=O)(=O)c1n[n-]/c(=N/C(=O)c2ccc(S(=O)(=O)N3CCCCC3)cc2)s1 (nonaromatic ring conformer: 93.4048812422977 kcal/mol)

>  <smiles>  (37) 
CN(C)S(=O)(=O)c1n[nH]c(=NC(=O)c2ccc(S(=O)(=O)N3CCCCC3)cc2)s1

>  <score_type>  (37) 
oracle

>  <origin>  (37) 
adgpu

>  <m_score__min__energy>  (37) 
-11.34

>  <m_primary>  (37) 
energy

$$$$
37:0
     RDKit          3D

 57 60  0  0  0  0  0  0  0  0999 V2000
   -0.0320   25.2990  -24.3520 C   0  0  0  0  0  0  0  0  0  0  0  0
   -0.6480   25.1000  -25.7130 C   0  0  0  0  0  0  0  0  0  0  0  0
   -1.3360   23.8980  -25.9500 C   0  0  0  0  0  0  0  0  0  0  0  0
   -1.9630   23.6600  -27.1690 C   0  0  0  0  0  0  0  0  0  0  0  0
   -1.9400   24.6290  -28.1780 C   0  0  0  0  0  0  0  0  0  0  0  0
   -2.5660   24.3840  -29.4480 N   0  0  0  0  0  0  0  0  0  0  0  0
   -3.9890   24.3730  -29.6430 C   0  0  0  0  0  0  0  0  0  0  0  0
   -4.7710   24.3750  -28.6560 O   0  0  0  0  0  0  0  0  0  0  0  0
   -4.5470   24.3290  -30.9630 N   0  0  0  0  0  0  0  0  0  0  0  0
   -5.1540   23.1840  -31.5770 C   0  0  0  0  0  0  0  0  0  0  0  0
   -4.3470   22.3100  -32.3350 C   0  0  0  0  0  0  0  0  0  0  0  0
   -4.9000   21.1620  -32.9290 C   0  0  0  0  0  0  0  0  0  0  0  0
   -6.2560   20.9040  -32.7410 C   0  0  0  0  0  0  0  0  0  0  0  0
   -7.0380   21.7340  -31.9890 C   0  0  0  0  0  0  0  0  0  0  0  0
   -6.5180   22.8780  -31.3800 C   0  0  0  0  0  0  0  0  0  0  0  0
   -8.3710   21.2630  -31.9260 N   0  0  0  0  0  0  0  0  0  0  0  0
   -9.4750   21.9100  -31.2270 C   0  0  0  0  0  0  0  0  0  0  0  0
   -8.4760   20.0260  -32.6990 C   0  0  0  0  0  0  0  0  0  0  0  0
   -7.0570   19.7570  -33.2590 C   0  0  0  0  0  0  0  0  0  0  0  0
   -1.2520   25.8330  -27.9630 C   0  0  0  0  0  0  0  0  0  0  0  0
   -1.2400   26.7850  -28.9790 O   0  0  0  0  0  0  0  0  0  0  0  0
   -0.5980   26.0880  -26.7360 C   0  0  0  0  0  0  0  0  0  0  0  0
    0.2660   27.6420  -26.5350 S   0  0  0  0  0  0  0  0  0  0  0  0
   -0.4430   28.7000  -27.3340 O   0  0  0  0  0  0  0  0  0  0  0  0
    0.2420   28.0910  -25.1010 O   0  0  0  0  0  0  0  0  0  0  0  0
    1.9300   27.5440  -27.0670 N   0  0  0  0  0  0  0  0  0  0  0  0
    2.8010   28.3580  -26.1960 C   0  0  0  0  0  0  0  0  0  0  0  0
    4.3010   28.1480  -26.5040 C   0  0  0  0  0  0  0  0  0  0  0  0
    4.5130   27.3850  -27.8160 C   0  0  0  0  0  0  0  0  0  0  0  0
    3.7590   26.0460  -27.8020 C   0  0  0  0  0  0  0  0  0  0  0  0
    2.3900   26.1460  -27.1020 C   0  0  0  0  0  0  0  0  0  0  0  0
   -0.7733   25.0595  -23.5754 H   0  0  0  0  0  0  0  0  0  0  0  0
    0.8396   24.6367  -24.2436 H   0  0  0  0  0  0  0  0  0  0  0  0
    0.2874   26.3460  -24.2436 H   0  0  0  0  0  0  0  0  0  0  0  0
   -1.3795   23.1338  -25.1600 H   0  0  0  0  0  0  0  0  0  0  0  0
   -2.4799   22.7043  -27.3405 H   0  0  0  0  0  0  0  0  0  0  0  0
   -1.9460   24.3100  -30.2850 H   0  0  0  0  0  0  0  0  0  0  0  0
   -3.2764   22.5284  -32.4624 H   0  0  0  0  0  0  0  0  0  0  0  0
   -4.2761   20.4829  -33.5286 H   0  0  0  0  0  0  0  0  0  0  0  0
   -7.1564   23.5257  -30.7611 H   0  0  0  0  0  0  0  0  0  0  0  0
   -9.3237   21.8213  -30.1411 H   0  0  0  0  0  0  0  0  0  0  0  0
   -9.5130   22.9733  -31.5063 H   0  0  0  0  0  0  0  0  0  0  0  0
  -10.4212   21.4235  -31.5063 H   0  0  0  0  0  0  0  0  0  0  0  0
   -8.7963   19.1960  -32.0521 H   0  0  0  0  0  0  0  0  0  0  0  0
   -9.2195   20.1139  -33.5049 H   0  0  0  0  0  0  0  0  0  0  0  0
   -6.6616   18.8008  -32.8858 H   0  0  0  0  0  0  0  0  0  0  0  0
   -7.0364   19.6804  -34.3561 H   0  0  0  0  0  0  0  0  0  0  0  0
    2.5551   29.4200  -26.3432 H   0  0  0  0  0  0  0  0  0  0  0  0
    2.6242   28.0446  -25.1565 H   0  0  0  0  0  0  0  0  0  0  0  0
    4.7893   29.1307  -26.5811 H   0  0  0  0  0  0  0  0  0  0  0  0
    4.7365   27.5520  -25.6885 H   0  0  0  0  0  0  0  0  0  0  0  0
    4.1436   27.9972  -28.6519 H   0  0  0  0  0  0  0  0  0  0  0  0
    5.5875   27.1811  -27.9333 H   0  0  0  0  0  0  0  0  0  0  0  0
    3.6010   25.7194  -28.8405 H   0  0  0  0  0  0  0  0  0  0  0  0
    4.3698   25.3248  -27.2392 H   0  0  0  0  0  0  0  0  0  0  0  0
    1.6570   25.5373  -27.6517 H   0  0  0  0  0  0  0  0  0  0  0  0
    2.4902   25.7784  -26.0701 H   0  0  0  0  0  0  0  0  0  0  0  0
  1  2  1  0
  2  3  2  0
  3  4  1  0
  4  5  2  0
  5  6  1  0
  6  7  1  0
  7  8  2  0
  7  9  1  0
  9 10  1  0
 10 11  2  0
 11 12  1  0
 12 13  2  0
 13 14  1  0
 14 15  2  0
 14 16  1  0
 16 17  1  0
 16 18  1  0
 18 19  1  0
  5 20  1  0
 20 21  1  0
 20 22  2  0
 22 23  1  0
 23 24  2  0
 23 25  2  0
 23 26  1  0
 26 27  1  0
 27 28  1  0
 28 29  1  0
 29 30  1  0
 30 31  1  0
 22  2  1  0
 31 26  1  0
 15 10  1  0
 19 13  1  0
  1 32  1  0
  1 33  1  0
  1 34  1  0
  3 35  1  0
  4 36  1  0
  6 37  1  0
 11 38  1  0
 12 39  1  0
 15 40  1  0
 17 41  1  0
 17 42  1  0
 17 43  1  0
 18 44  1  0
 18 45  1  0
 19 46  1  0
 19 47  1  0
 27 48  1  0
 27 49  1  0
 28 50  1  0
 28 51  1  0
 29 52  1  0
 29 53  1  0
 30 54  1  0
 30 55  1  0
 31 56  1  0
 31 57  1  0
M  CHG  2   9  -1  21  -1
M  END
>  <UniqueID>  (38) 
38

>  <SMILES>  (38) 
Cc1ccc(NC(=O)[N-]c2ccc3c(c2)N(C)CC3)c([O-])c1S(=O)(=O)N1CCCCC1

>  <Energy>  (38) 
86.73307694163185

>  <Genealogy>  (38) 
Cc1ccc(NC(=O)[N-]c2ccc3c(c2)N(C)CC3)c([O-])c1S(=O)(=O)N1CCCCC1 (protonated)
Cc1ccc(NC(=O)[N-]c2ccc3c(c2)N(C)CC3)c([O-])c1S(=O)(=O)N1CCCCC1 (3D coordinates assigned)
Cc1ccc(NC(=O)[N-]c2ccc3c(c2)N(C)CC3)c([O-])c1S(=O)(=O)N1CCCCC1 (nonaromatic ring conformer: 86.73307694163185 kcal/mol)

>  <smiles>  (38) 
Cc1ccc(NC(=O)Nc2ccc3c(c2)N(C)CC3)c(O)c1S(=O)(=O)N1CCCCC1

>  <score_type>  (38) 
oracle

>  <origin>  (38) 
adgpu

>  <m_score__min__energy>  (38) 
-13.85

>  <m_primary>  (38) 
energy

$$$$
38:0
     RDKit          3D

 42 44  0  0  0  0  0  0  0  0999 V2000
   -3.8900   25.3290  -30.1950 O   0  0  0  0  0  0  0  0  0  0  0  0
   -3.7460   24.1300  -29.8260 C   0  0  0  0  0  0  0  0  0  0  0  0
   -2.8340   23.8200  -28.7580 N   0  0  0  0  0  0  0  0  0  0  0  0
   -2.3960   24.7830  -27.7830 C   0  0  0  0  0  0  0  0  0  0  0  0
   -2.7190   24.6330  -26.4200 C   0  0  0  0  0  0  0  0  0  0  0  0
   -2.2650   25.5620  -25.4790 C   0  0  0  0  0  0  0  0  0  0  0  0
   -1.4770   26.6420  -25.8850 C   0  0  0  0  0  0  0  0  0  0  0  0
   -1.1360   26.7920  -27.2310 C   0  0  0  0  0  0  0  0  0  0  0  0
   -1.5870   25.8670  -28.1790 C   0  0  0  0  0  0  0  0  0  0  0  0
   -1.2380   26.0350  -29.5140 O   0  0  0  0  0  0  0  0  0  0  0  0
   -4.4830   23.0550  -30.5320 C   0  0  0  0  0  0  0  0  0  0  0  0
   -5.6260   23.3640  -31.2930 C   0  0  0  0  0  0  0  0  0  0  0  0
   -6.3300   22.3550  -31.9580 C   0  0  0  0  0  0  0  0  0  0  0  0
   -5.9060   21.0240  -31.8720 C   0  0  0  0  0  0  0  0  0  0  0  0
   -6.7990   19.7610  -32.7120 S   0  0  0  0  0  0  0  0  0  0  0  0
   -8.0750   20.3470  -33.2480 O   0  0  0  0  0  0  0  0  0  0  0  0
   -7.1270   18.6450  -31.7580 O   0  0  0  0  0  0  0  0  0  0  0  0
   -5.8350   19.1340  -34.0290 N   0  0  0  0  0  0  0  0  0  0  0  0
   -4.4010   19.4510  -33.8410 C   0  0  0  0  0  0  0  0  0  0  0  0
   -3.5730   18.2140  -33.4530 C   0  0  0  0  0  0  0  0  0  0  0  0
   -3.6630   17.1660  -34.4080 O   0  0  0  0  0  0  0  0  0  0  0  0
   -4.9550   17.0310  -34.9920 C   0  0  0  0  0  0  0  0  0  0  0  0
   -6.0890   17.6910  -34.1910 C   0  0  0  0  0  0  0  0  0  0  0  0
   -4.7790   20.7060  -31.1030 C   0  0  0  0  0  0  0  0  0  0  0  0
   -4.0730   21.7130  -30.4380 C   0  0  0  0  0  0  0  0  0  0  0  0
   -2.3890   22.8750  -28.7530 H   0  0  0  0  0  0  0  0  0  0  0  0
   -3.3321   23.7798  -26.0941 H   0  0  0  0  0  0  0  0  0  0  0  0
   -2.5285   25.4425  -24.4177 H   0  0  0  0  0  0  0  0  0  0  0  0
   -1.1249   27.3747  -25.1439 H   0  0  0  0  0  0  0  0  0  0  0  0
   -0.5108   27.6401  -27.5469 H   0  0  0  0  0  0  0  0  0  0  0  0
   -5.9681   24.4069  -31.3652 H   0  0  0  0  0  0  0  0  0  0  0  0
   -7.2209   22.6086  -32.5513 H   0  0  0  0  0  0  0  0  0  0  0  0
   -4.0037   19.8614  -34.7811 H   0  0  0  0  0  0  0  0  0  0  0  0
   -4.3231   20.1780  -33.0192 H   0  0  0  0  0  0  0  0  0  0  0  0
   -2.5187   18.5130  -33.3585 H   0  0  0  0  0  0  0  0  0  0  0  0
   -3.9768   17.8312  -32.5041 H   0  0  0  0  0  0  0  0  0  0  0  0
   -4.9295   17.4884  -35.9920 H   0  0  0  0  0  0  0  0  0  0  0  0
   -5.1758   15.9537  -35.0172 H   0  0  0  0  0  0  0  0  0  0  0  0
   -7.0399   17.5486  -34.7253 H   0  0  0  0  0  0  0  0  0  0  0  0
   -6.1395   17.2249  -33.1959 H   0  0  0  0  0  0  0  0  0  0  0  0
   -4.4483   19.6600  -31.0221 H   0  0  0  0  0  0  0  0  0  0  0  0
   -3.1895   21.4535  -29.8363 H   0  0  0  0  0  0  0  0  0  0  0  0
  1  2  2  0
  2  3  1  0
  3  4  1  0
  4  5  2  0
  5  6  1  0
  6  7  2  0
  7  8  1  0
  8  9  2  0
  9 10  1  0
  2 11  1  0
 11 12  2  0
 12 13  1  0
 13 14  2  0
 14 15  1  0
 15 16  2  0
 15 17  2  0
 15 18  1  0
 18 19  1  0
 19 20  1  0
 20 21  1  0
 21 22  1  0
 22 23  1  0
 14 24  1  0
 24 25  2  0
  9  4  1  0
 25 11  1  0
 23 18  1  0
  3 26  1  0
  5 27  1  0
  6 28  1  0
  7 29  1  0
  8 30  1  0
 12 31  1  0
 13 32  1  0
 19 33  1  0
 19 34  1  0
 20 35  1  0
 20 36  1  0
 22 37  1  0
 22 38  1  0
 23 39  1  0
 23 40  1  0
 24 41  1  0
 25 42  1  0
M  CHG  1  10  -1
M  END
>  <UniqueID>  (39) 
39

>  <SMILES>  (39) 
O=C(Nc1ccccc1[O-])c1ccc(S(=O)(=O)N2CCOCC2)cc1

>  <Energy>  (39) 
62.05636888080894

>  <Genealogy>  (39) 
O=C(Nc1ccccc1[O-])c1ccc(S(=O)(=O)N2CCOCC2)cc1 (protonated)
O=C(Nc1ccccc1[O-])c1ccc(S(=O)(=O)N2CCOCC2)cc1 (3D coordinates assigned)
O=C(Nc1ccccc1[O-])c1ccc(S(=O)(=O)N2CCOCC2)cc1 (nonaromatic ring conformer: 62.05636888080894 kcal/mol)

>  <smiles>  (39) 
O=C(Nc1ccccc1O)c1ccc(S(=O)(=O)N2CCOCC2)cc1

>  <score_type>  (39) 
oracle

>  <origin>  (39) 
adgpu

>  <m_score__min__energy>  (39) 
-11.25

>  <m_primary>  (39) 
energy

$$$$
39:0
     RDKit          3D

 44 47  0  0  0  0  0  0  0  0999 V2000
   -6.5900   19.3590  -33.2860 C   0  0  0  0  0  0  0  0  0  0  0  0
   -5.4050   20.0710  -32.7010 C   0  0  0  0  0  0  0  0  0  0  0  0
   -4.6090   20.9060  -33.5030 C   0  0  0  0  0  0  0  0  0  0  0  0
   -3.4880   21.5470  -32.9630 C   0  0  0  0  0  0  0  0  0  0  0  0
   -3.1530   21.3700  -31.6070 C   0  0  0  0  0  0  0  0  0  0  0  0
   -1.9370   22.0400  -31.0130 C   0  0  0  0  0  0  0  0  0  0  0  0
   -2.0660   22.2020  -29.5580 N   0  0  0  0  0  0  0  0  0  0  0  0
   -2.3300   23.3350  -28.8290 C   0  0  0  0  0  0  0  0  0  0  0  0
   -2.6190   24.6810  -29.3750 C   0  0  0  0  0  0  0  0  0  0  0  0
   -1.9950   25.6750  -28.9090 O   0  0  0  0  0  0  0  0  0  0  0  0
   -3.5680   24.8620  -30.4330 N   0  0  0  0  0  0  0  0  0  0  0  0
   -4.8010   24.1450  -30.5950 C   0  0  0  0  0  0  0  0  0  0  0  0
   -5.3960   23.4410  -29.5330 C   0  0  0  0  0  0  0  0  0  0  0  0
   -6.5860   22.7350  -29.7320 C   0  0  0  0  0  0  0  0  0  0  0  0
   -7.1970   22.7080  -30.9990 C   0  0  0  0  0  0  0  0  0  0  0  0
   -8.4490   21.9490  -31.2090 C   0  0  0  0  0  0  0  0  0  0  0  0
   -8.5170   20.7260  -30.9030 O   0  0  0  0  0  0  0  0  0  0  0  0
   -9.5720   22.5750  -31.7420 O   0  0  0  0  0  0  0  0  0  0  0  0
   -6.5870   23.3950  -32.0630 C   0  0  0  0  0  0  0  0  0  0  0  0
   -5.3970   24.1000  -31.8610 C   0  0  0  0  0  0  0  0  0  0  0  0
   -2.2620   23.0680  -27.4500 C   0  0  0  0  0  0  0  0  0  0  0  0
   -1.9500   21.7370  -27.3900 C   0  0  0  0  0  0  0  0  0  0  0  0
   -1.6040   20.5710  -26.2430 S   0  0  0  0  0  0  0  0  0  0  0  0
   -1.2940   19.3770  -27.4290 C   0  0  0  0  0  0  0  0  0  0  0  0
   -1.4580   19.9150  -28.7150 C   0  0  0  0  0  0  0  0  0  0  0  0
   -1.8360   21.2530  -28.6300 C   0  0  0  0  0  0  0  0  0  0  0  0
   -3.9190   20.4900  -30.8240 C   0  0  0  0  0  0  0  0  0  0  0  0
   -5.0390   19.8490  -31.3640 C   0  0  0  0  0  0  0  0  0  0  0  0
   -7.2259   18.9769  -32.4738 H   0  0  0  0  0  0  0  0  0  0  0  0
   -7.1688   20.0590  -33.9064 H   0  0  0  0  0  0  0  0  0  0  0  0
   -6.2437   18.5193  -33.9064 H   0  0  0  0  0  0  0  0  0  0  0  0
   -4.8683   21.0568  -34.5613 H   0  0  0  0  0  0  0  0  0  0  0  0
   -2.8659   22.1920  -33.6010 H   0  0  0  0  0  0  0  0  0  0  0  0
   -1.0503   21.4250  -31.2266 H   0  0  0  0  0  0  0  0  0  0  0  0
   -1.8397   23.0388  -31.4634 H   0  0  0  0  0  0  0  0  0  0  0  0
   -4.9224   23.4459  -28.5402 H   0  0  0  0  0  0  0  0  0  0  0  0
   -7.0482   22.1965  -28.8916 H   0  0  0  0  0  0  0  0  0  0  0  0
   -7.0492   23.3777  -33.0611 H   0  0  0  0  0  0  0  0  0  0  0  0
   -4.9244   24.6243  -32.7046 H   0  0  0  0  0  0  0  0  0  0  0  0
   -2.4221   23.7658  -26.6149 H   0  0  0  0  0  0  0  0  0  0  0  0
   -1.0073   18.3369  -27.2143 H   0  0  0  0  0  0  0  0  0  0  0  0
   -1.3096   19.3607  -29.6535 H   0  0  0  0  0  0  0  0  0  0  0  0
   -3.6356   20.3036  -29.7776 H   0  0  0  0  0  0  0  0  0  0  0  0
   -5.6353   19.1683  -30.7386 H   0  0  0  0  0  0  0  0  0  0  0  0
  1  2  1  0
  2  3  2  0
  3  4  1  0
  4  5  2  0
  5  6  1  0
  6  7  1  0
  7  8  1  0
  8  9  1  0
  9 10  2  0
  9 11  1  0
 11 12  1  0
 12 13  2  0
 13 14  1  0
 14 15  2  0
 15 16  1  0
 16 17  2  0
 16 18  1  0
 15 19  1  0
 19 20  2  0
  8 21  2  0
 21 22  1  0
 22 23  1  0
 23 24  1  0
 24 25  2  0
 25 26  1  0
  5 27  1  0
 27 28  2  0
 28  2  1  0
 26  7  1  0
 20 12  1  0
 26 22  2  0
  1 29  1  0
  1 30  1  0
  1 31  1  0
  3 32  1  0
  4 33  1  0
  6 34  1  0
  6 35  1  0
 13 36  1  0
 14 37  1  0
 19 38  1  0
 20 39  1  0
 21 40  1  0
 24 41  1  0
 25 42  1  0
 27 43  1  0
 28 44  1  0
M  CHG  2  11  -1  18  -1
M  END
>  <UniqueID>  (40) 
40

>  <SMILES>  (40) 
Cc1ccc(Cn2c(C(=O)[N-]c3ccc(C(=O)[O-])cc3)cc3sccc32)cc1

>  <Energy>  (40) 
126.05041304652578

>  <Genealogy>  (40) 
Cc1ccc(Cn2c(C(=O)[N-]c3ccc(C(=O)[O-])cc3)cc3sccc32)cc1 (protonated)
Cc1ccc(Cn2c(C(=O)[N-]c3ccc(C(=O)[O-])cc3)cc3sccc32)cc1 (3D coordinates assigned)
Cc1ccc(Cn2c(C(=O)[N-]c3ccc(C(=O)[O-])cc3)cc3sccc32)cc1 (optimized conformer: 126.05041304652578 kcal/mol)

>  <smiles>  (40) 
Cc1ccc(Cn2c(C(=O)Nc3ccc(C(=O)O)cc3)cc3sccc32)cc1

>  <score_type>  (40) 
oracle

>  <origin>  (40) 
adgpu

>  <m_score__min__energy>  (40) 
-10.65

>  <m_primary>  (40) 
energy

$$$$
40:0
     RDKit          3D

 42 45  0  0  0  0  0  0  0  0999 V2000
   -9.8480   22.0410  -32.3300 O   0  0  0  0  0  0  0  0  0  0  0  0
   -8.6730   21.2200  -31.8810 S   0  0  0  0  0  0  0  0  0  0  0  0
   -9.1180   20.3110  -30.7700 O   0  0  0  0  0  0  0  0  0  0  0  0
   -8.1050   20.2640  -33.2120 N   0  0  0  0  0  0  0  0  0  0  0  0
   -7.0860   19.2560  -33.1360 C   0  0  0  0  0  0  0  0  0  0  0  0
   -5.7990   19.4590  -33.6640 C   0  0  0  0  0  0  0  0  0  0  0  0
   -4.8180   18.4600  -33.5680 C   0  0  0  0  0  0  0  0  0  0  0  0
   -5.1360   17.2310  -32.9600 C   0  0  0  0  0  0  0  0  0  0  0  0
   -6.4130   17.0370  -32.4140 C   0  0  0  0  0  0  0  0  0  0  0  0
   -7.3860   18.0400  -32.5090 C   0  0  0  0  0  0  0  0  0  0  0  0
   -8.6600   17.8330  -31.9770 O   0  0  0  0  0  0  0  0  0  0  0  0
   -4.0840   16.1570  -32.7940 C   0  0  0  0  0  0  0  0  0  0  0  0
   -2.9800   16.3050  -33.7530 N   0  0  0  0  0  0  0  0  0  0  0  0
   -2.4340   17.6660  -33.7120 C   0  0  0  0  0  0  0  0  0  0  0  0
   -3.4690   18.6870  -34.2000 C   0  0  0  0  0  0  0  0  0  0  0  0
   -7.3940   22.3050  -31.3380 C   0  0  0  0  0  0  0  0  0  0  0  0
   -7.6670   23.6690  -31.1840 C   0  0  0  0  0  0  0  0  0  0  0  0
   -6.6650   24.5470  -30.7610 C   0  0  0  0  0  0  0  0  0  0  0  0
   -5.3750   24.0670  -30.4890 C   0  0  0  0  0  0  0  0  0  0  0  0
   -4.3640   24.9380  -30.0540 C   0  0  0  0  0  0  0  0  0  0  0  0
   -3.0840   24.4420  -29.7770 C   0  0  0  0  0  0  0  0  0  0  0  0
   -2.0900   25.3030  -29.3330 O   0  0  0  0  0  0  0  0  0  0  0  0
   -2.8060   23.0810  -29.9410 C   0  0  0  0  0  0  0  0  0  0  0  0
   -3.8040   22.2070  -30.3770 C   0  0  0  0  0  0  0  0  0  0  0  0
   -5.0940   22.6880  -30.6500 C   0  0  0  0  0  0  0  0  0  0  0  0
   -6.1090   21.8160  -31.0720 C   0  0  0  0  0  0  0  0  0  0  0  0
   -5.5581   20.4118  -34.1581 H   0  0  0  0  0  0  0  0  0  0  0  0
   -6.6523   16.0903  -31.9075 H   0  0  0  0  0  0  0  0  0  0  0  0
   -9.3390   18.5820  -31.9200 H   0  0  0  0  0  0  0  0  0  0  0  0
   -3.6767   16.2154  -31.7739 H   0  0  0  0  0  0  0  0  0  0  0  0
   -4.5634   15.1846  -32.9800 H   0  0  0  0  0  0  0  0  0  0  0  0
   -3.3400   16.1090  -34.7170 H   0  0  0  0  0  0  0  0  0  0  0  0
   -2.1491   17.9085  -32.6776 H   0  0  0  0  0  0  0  0  0  0  0  0
   -1.5565   17.7122  -34.3736 H   0  0  0  0  0  0  0  0  0  0  0  0
   -3.1207   19.6982  -33.9429 H   0  0  0  0  0  0  0  0  0  0  0  0
   -3.5770   18.5717  -35.2886 H   0  0  0  0  0  0  0  0  0  0  0  0
   -8.6758   24.0523  -31.3971 H   0  0  0  0  0  0  0  0  0  0  0  0
   -6.8885   25.6174  -30.6410 H   0  0  0  0  0  0  0  0  0  0  0  0
   -4.5771   26.0101  -29.9307 H   0  0  0  0  0  0  0  0  0  0  0  0
   -1.7976   22.6978  -29.7258 H   0  0  0  0  0  0  0  0  0  0  0  0
   -3.5785   21.1382  -30.5069 H   0  0  0  0  0  0  0  0  0  0  0  0
   -5.8945   20.7441  -31.1944 H   0  0  0  0  0  0  0  0  0  0  0  0
  1  2  2  0
  2  3  2  0
  2  4  1  0
  4  5  1  0
  5  6  2  0
  6  7  1  0
  7  8  2  0
  8  9  1  0
  9 10  2  0
 10 11  1  0
  8 12  1  0
 12 13  1  0
 13 14  1  0
 14 15  1  0
  2 16  1  0
 16 17  2  0
 17 18  1  0
 18 19  2  0
 19 20  1  0
 20 21  2  0
 21 22  1  0
 21 23  1  0
 23 24  2  0
 24 25  1  0
 25 26  2  0
 10  5  1  0
 26 16  1  0
 15  7  1  0
 25 19  1  0
  6 27  1  0
  9 28  1  0
 11 29  1  0
 12 30  1  0
 12 31  1  0
 13 32  1  0
 14 33  1  0
 14 34  1  0
 15 35  1  0
 15 36  1  0
 17 37  1  0
 18 38  1  0
 20 39  1  0
 23 40  1  0
 24 41  1  0
 26 42  1  0
M  CHG  2   4  -1  22  -1
M  END
>  <UniqueID>  (41) 
41

>  <SMILES>  (41) 
O=S(=O)([N-]c1cc2c(cc1O)CNCC2)c1ccc2cc([O-])ccc2c1

>  <Energy>  (41) 
53.56980414787302

>  <Genealogy>  (41) 
O=S(=O)([N-]c1cc2c(cc1O)CNCC2)c1ccc2cc([O-])ccc2c1 (protonated)
O=S(=O)([N-]c1cc2c(cc1O)CNCC2)c1ccc2cc([O-])ccc2c1 (3D coordinates assigned)
O=S(=O)([N-]c1cc2c(cc1O)CNCC2)c1ccc2cc([O-])ccc2c1 (nonaromatic ring conformer: 53.56980414787302 kcal/mol)

>  <smiles>  (41) 
O=S(=O)(Nc1cc2c(cc1O)CNCC2)c1ccc2cc(O)ccc2c1

>  <score_type>  (41) 
oracle

>  <origin>  (41) 
adgpu

>  <m_score__min__energy>  (41) 
-11.82

>  <m_primary>  (41) 
energy

$$$$
41:0
     RDKit          3D

 48 51  0  0  0  0  0  0  0  0999 V2000
    0.0660   20.1900  -33.4520 C   0  0  0  0  0  0  0  0  0  0  0  0
   -1.3350   19.6540  -33.5610 C   0  0  0  0  0  0  0  0  0  0  0  0
   -1.5880   18.5080  -34.3330 C   0  0  0  0  0  0  0  0  0  0  0  0
   -2.8840   18.0040  -34.4460 C   0  0  0  0  0  0  0  0  0  0  0  0
   -3.9460   18.6280  -33.7810 C   0  0  0  0  0  0  0  0  0  0  0  0
   -5.5820   17.9710  -33.9080 S   0  0  0  0  0  0  0  0  0  0  0  0
   -6.0800   18.1660  -35.3130 O   0  0  0  0  0  0  0  0  0  0  0  0
   -5.5400   16.4950  -33.6290 O   0  0  0  0  0  0  0  0  0  0  0  0
   -6.6990   18.7290  -32.7970 N   0  0  0  0  0  0  0  0  0  0  0  0
   -7.5780   17.7620  -32.1370 C   0  0  0  0  0  0  0  0  0  0  0  0
   -8.8380   18.5190  -31.7430 C   0  0  0  0  0  0  0  0  0  0  0  0
   -8.8400   19.7780  -32.6010 C   0  0  0  0  0  0  0  0  0  0  0  0
   -7.5870   19.6840  -33.4610 C   0  0  0  0  0  0  0  0  0  0  0  0
   -3.7050   19.7830  -33.0250 C   0  0  0  0  0  0  0  0  0  0  0  0
   -2.4060   20.3150  -32.9240 C   0  0  0  0  0  0  0  0  0  0  0  0
   -2.1380   21.4800  -32.1300 N   0  0  0  0  0  0  0  0  0  0  0  0
   -2.7110   21.8040  -30.8560 C   0  0  0  0  0  0  0  0  0  0  0  0
   -2.4240   21.1240  -29.8340 O   0  0  0  0  0  0  0  0  0  0  0  0
   -3.6150   22.9620  -30.7150 C   0  0  0  0  0  0  0  0  0  0  0  0
   -3.0440   24.1730  -30.4840 N   0  0  0  0  0  0  0  0  0  0  0  0
   -3.7580   25.2960  -30.4090 N   0  0  0  0  0  0  0  0  0  0  0  0
   -5.1040   25.2970  -30.5640 C   0  0  0  0  0  0  0  0  0  0  0  0
   -5.7310   26.3880  -30.4950 O   0  0  0  0  0  0  0  0  0  0  0  0
   -5.7770   24.0840  -30.7830 C   0  0  0  0  0  0  0  0  0  0  0  0
   -7.1770   24.0420  -30.9230 C   0  0  0  0  0  0  0  0  0  0  0  0
   -7.8320   22.8220  -31.0950 C   0  0  0  0  0  0  0  0  0  0  0  0
   -7.1030   21.6340  -31.1110 C   0  0  0  0  0  0  0  0  0  0  0  0
   -5.7140   21.6580  -30.9750 C   0  0  0  0  0  0  0  0  0  0  0  0
   -5.0250   22.8830  -30.8420 C   0  0  0  0  0  0  0  0  0  0  0  0
    0.3374   20.2938  -32.3911 H   0  0  0  0  0  0  0  0  0  0  0  0
    0.7636   19.4953  -33.9426 H   0  0  0  0  0  0  0  0  0  0  0  0
    0.1217   21.1730  -33.9426 H   0  0  0  0  0  0  0  0  0  0  0  0
   -0.7588   18.0047  -34.8518 H   0  0  0  0  0  0  0  0  0  0  0  0
   -3.0723   17.1116  -35.0609 H   0  0  0  0  0  0  0  0  0  0  0  0
   -6.1400   19.2340  -32.0670 H   0  0  0  0  0  0  0  0  0  0  0  0
   -7.8275   16.9428  -32.8274 H   0  0  0  0  0  0  0  0  0  0  0  0
   -7.0900   17.3182  -31.2568 H   0  0  0  0  0  0  0  0  0  0  0  0
   -9.7318   17.9118  -31.9489 H   0  0  0  0  0  0  0  0  0  0  0  0
   -8.8530   18.7564  -30.6690 H   0  0  0  0  0  0  0  0  0  0  0  0
   -9.7393   19.8110  -33.2336 H   0  0  0  0  0  0  0  0  0  0  0  0
   -8.8471   20.6909  -31.9874 H   0  0  0  0  0  0  0  0  0  0  0  0
   -7.8438   19.3268  -34.4692 H   0  0  0  0  0  0  0  0  0  0  0  0
   -7.1046   20.6665  -33.5705 H   0  0  0  0  0  0  0  0  0  0  0  0
   -4.5387   20.2783  -32.5058 H   0  0  0  0  0  0  0  0  0  0  0  0
   -7.7577   24.9758  -30.8967 H   0  0  0  0  0  0  0  0  0  0  0  0
   -8.9248   22.7977  -31.2181 H   0  0  0  0  0  0  0  0  0  0  0  0
   -7.6248   20.6731  -31.2314 H   0  0  0  0  0  0  0  0  0  0  0  0
   -5.1507   20.7132  -30.9714 H   0  0  0  0  0  0  0  0  0  0  0  0
  1  2  1  0
  2  3  2  0
  3  4  1  0
  4  5  2  0
  5  6  1  0
  6  7  2  0
  6  8  2  0
  6  9  1  0
  9 10  1  0
 10 11  1  0
 11 12  1  0
 12 13  1  0
  5 14  1  0
 14 15  2  0
 15 16  1  0
 16 17  1  0
 17 18  2  0
 17 19  1  0
 19 20  2  0
 20 21  1  0
 21 22  1  0
 22 23  2  0
 22 24  1  0
 24 25  2  0
 25 26  1  0
 26 27  2  0
 27 28  1  0
 28 29  2  0
 15  2  1  0
 29 19  1  0
 13  9  1  0
 29 24  1  0
  1 30  1  0
  1 31  1  0
  1 32  1  0
  3 33  1  0
  4 34  1  0
  9 35  1  0
 10 36  1  0
 10 37  1  0
 11 38  1  0
 11 39  1  0
 12 40  1  0
 12 41  1  0
 13 42  1  0
 13 43  1  0
 14 44  1  0
 25 45  1  0
 26 46  1  0
 27 47  1  0
 28 48  1  0
M  CHG  3   9   1  16  -1  21  -1
M  END
>  <UniqueID>  (42) 
42

>  <SMILES>  (42) 
Cc1ccc(S(=O)(=O)[NH+]2CCCC2)cc1[N-]C(=O)c1n[n-]c(=O)c2ccccc12

>  <Energy>  (42) 
67.8597236820626

>  <Genealogy>  (42) 
Cc1ccc(S(=O)(=O)[NH+]2CCCC2)cc1[N-]C(=O)c1n[n-]c(=O)c2ccccc12 (protonated)
Cc1ccc(S(=O)(=O)[NH+]2CCCC2)cc1[N-]C(=O)c1n[n-]c(=O)c2ccccc12 (3D coordinates assigned)
Cc1ccc(S(=O)(=O)[NH+]2CCCC2)cc1[N-]C(=O)c1n[n-]c(=O)c2ccccc12 (nonaromatic ring conformer: 67.8597236820626 kcal/mol)

>  <smiles>  (42) 
Cc1ccc(S(=O)(=O)N2CCCC2)cc1NC(=O)c1n[nH]c(=O)c2ccccc12

>  <score_type>  (42) 
oracle

>  <origin>  (42) 
adgpu

>  <m_score__min__energy>  (42) 
-12.07

>  <m_primary>  (42) 
energy

$$$$
42:0
     RDKit          3D

 50 52  0  0  0  0  0  0  0  0999 V2000
   -3.9710   18.2720  -34.4380 C   0  0  0  0  0  0  0  0  0  0  0  0
   -5.0620   19.0470  -33.8560 N   0  0  0  0  0  0  0  0  0  0  0  0
   -6.3400   18.5290  -33.4860 C   0  0  0  0  0  0  0  0  0  0  0  0
   -6.7740   17.4180  -33.8940 O   0  0  0  0  0  0  0  0  0  0  0  0
   -7.0940   19.4420  -32.5510 C   0  0  0  0  0  0  0  0  0  0  0  0
   -7.3930   18.7400  -31.2190 C   0  0  0  0  0  0  0  0  0  0  0  0
   -8.3690   19.9790  -33.2140 C   0  0  0  0  0  0  0  0  0  0  0  0
   -6.0660   20.5290  -32.3790 C   0  0  0  0  0  0  0  0  0  0  0  0
   -6.1470   21.6800  -31.5890 C   0  0  0  0  0  0  0  0  0  0  0  0
   -5.0510   22.5600  -31.5590 C   0  0  0  0  0  0  0  0  0  0  0  0
   -5.1480   24.0320  -30.5960 S   0  0  0  0  0  0  0  0  0  0  0  0
   -3.9040   24.8450  -30.8180 O   0  0  0  0  0  0  0  0  0  0  0  0
   -6.3350   24.8530  -31.0190 O   0  0  0  0  0  0  0  0  0  0  0  0
   -5.2820   23.6410  -28.9090 N   0  0  0  0  0  0  0  0  0  0  0  0
   -4.6890   22.3260  -28.6540 C   0  0  0  0  0  0  0  0  0  0  0  0
   -3.4550   22.4530  -27.7570 C   0  0  0  0  0  0  0  0  0  0  0  0
   -2.6550   23.6340  -28.1530 N   0  0  0  0  0  0  0  0  0  0  0  0
   -1.2860   23.2590  -28.5550 C   0  0  0  0  0  0  0  0  0  0  0  0
   -0.5160   24.5080  -29.0360 C   0  0  0  0  0  0  0  0  0  0  0  0
   -1.2150   25.7100  -28.7650 O   0  0  0  0  0  0  0  0  0  0  0  0
   -1.5860   25.7520  -27.4020 C   0  0  0  0  0  0  0  0  0  0  0  0
   -2.6000   24.6380  -27.0720 C   0  0  0  0  0  0  0  0  0  0  0  0
   -3.8980   22.2760  -32.3210 C   0  0  0  0  0  0  0  0  0  0  0  0
   -3.8320   21.1150  -33.1070 C   0  0  0  0  0  0  0  0  0  0  0  0
   -4.9340   20.2570  -33.1220 C   0  0  0  0  0  0  0  0  0  0  0  0
   -3.3597   17.8377  -33.6332 H   0  0  0  0  0  0  0  0  0  0  0  0
   -4.3856   17.4648  -35.0598 H   0  0  0  0  0  0  0  0  0  0  0  0
   -3.3453   18.9292  -35.0598 H   0  0  0  0  0  0  0  0  0  0  0  0
   -7.1118   19.4003  -30.3853 H   0  0  0  0  0  0  0  0  0  0  0  0
   -8.4671   18.5103  -31.1586 H   0  0  0  0  0  0  0  0  0  0  0  0
   -6.8144   17.8064  -31.1586 H   0  0  0  0  0  0  0  0  0  0  0  0
   -9.0868   20.2813  -32.4372 H   0  0  0  0  0  0  0  0  0  0  0  0
   -8.1186   20.8481  -33.8401 H   0  0  0  0  0  0  0  0  0  0  0  0
   -8.8158   19.1926  -33.8401 H   0  0  0  0  0  0  0  0  0  0  0  0
   -7.0522   21.8931  -31.0015 H   0  0  0  0  0  0  0  0  0  0  0  0
   -4.7250   24.3560  -28.3860 H   0  0  0  0  0  0  0  0  0  0  0  0
   -5.4321   21.6851  -28.1570 H   0  0  0  0  0  0  0  0  0  0  0  0
   -4.3841   21.8836  -29.6139 H   0  0  0  0  0  0  0  0  0  0  0  0
   -3.7761   22.5657  -26.7110 H   0  0  0  0  0  0  0  0  0  0  0  0
   -2.8380   21.5487  -27.8649 H   0  0  0  0  0  0  0  0  0  0  0  0
   -0.7620   22.8169  -27.6948 H   0  0  0  0  0  0  0  0  0  0  0  0
   -1.3380   22.5286  -29.3758 H   0  0  0  0  0  0  0  0  0  0  0  0
    0.4571   24.5420  -28.5243 H   0  0  0  0  0  0  0  0  0  0  0  0
   -0.3950   24.4285  -30.1264 H   0  0  0  0  0  0  0  0  0  0  0  0
   -0.6885   25.6175  -26.7804 H   0  0  0  0  0  0  0  0  0  0  0  0
   -2.0546   26.7256  -27.1956 H   0  0  0  0  0  0  0  0  0  0  0  0
   -2.2989   24.1433  -26.1368 H   0  0  0  0  0  0  0  0  0  0  0  0
   -3.5962   25.0920  -26.9650 H   0  0  0  0  0  0  0  0  0  0  0  0
   -3.0445   22.9696  -32.2989 H   0  0  0  0  0  0  0  0  0  0  0  0
   -2.9328   20.8860  -33.6978 H   0  0  0  0  0  0  0  0  0  0  0  0
  1  2  1  0
  2  3  1  0
  3  4  2  0
  3  5  1  0
  5  6  1  0
  5  7  1  0
  5  8  1  0
  8  9  2  0
  9 10  1  0
 10 11  1  0
 11 12  2  0
 11 13  2  0
 11 14  1  0
 14 15  1  0
 15 16  1  0
 16 17  1  0
 17 18  1  0
 18 19  1  0
 19 20  1  0
 20 21  1  0
 21 22  1  0
 10 23  2  0
 23 24  1  0
 24 25  2  0
 25  2  1  0
 25  8  1  0
 22 17  1  0
  1 26  1  0
  1 27  1  0
  1 28  1  0
  6 29  1  0
  6 30  1  0
  6 31  1  0
  7 32  1  0
  7 33  1  0
  7 34  1  0
  9 35  1  0
 14 36  1  0
 15 37  1  0
 15 38  1  0
 16 39  1  0
 16 40  1  0
 18 41  1  0
 18 42  1  0
 19 43  1  0
 19 44  1  0
 21 45  1  0
 21 46  1  0
 22 47  1  0
 22 48  1  0
 23 49  1  0
 24 50  1  0
M  END
>  <UniqueID>  (43) 
43

>  <SMILES>  (43) 
CN1C(=O)C(C)(C)c2cc(S(=O)(=O)NCCN3CCOCC3)ccc21

>  <Energy>  (43) 
72.17506128190932

>  <Genealogy>  (43) 
CN1C(=O)C(C)(C)c2cc(S(=O)(=O)NCCN3CCOCC3)ccc21 (3D coordinates assigned)
CN1C(=O)C(C)(C)c2cc(S(=O)(=O)NCCN3CCOCC3)ccc21 (nonaromatic ring conformer: 72.17506128190932 kcal/mol)

>  <smiles>  (43) 
CN1C(=O)C(C)(C)c2cc(S(=O)(=O)NCCN3CCOCC3)ccc21

>  <score_type>  (43) 
oracle

>  <origin>  (43) 
adgpu

>  <m_score__min__energy>  (43) 
-9.4900000000000002

>  <m_primary>  (43) 
energy

$$$$
43:0
     RDKit          3D

 61 65  0  0  0  0  0  0  0  0999 V2000
   -6.8320   18.5700  -33.4210 C   0  0  0  0  0  0  0  0  0  0  0  0
   -7.9910   19.4060  -32.3570 S   0  0  0  0  0  0  0  0  0  0  0  0
   -9.1380   19.9400  -33.1710 O   0  0  0  0  0  0  0  0  0  0  0  0
   -8.5270   18.4320  -31.3490 O   0  0  0  0  0  0  0  0  0  0  0  0
   -7.1750   20.7400  -31.5470 C   0  0  0  0  0  0  0  0  0  0  0  0
   -5.7750   20.8620  -31.6110 C   0  0  0  0  0  0  0  0  0  0  0  0
   -5.1350   21.9360  -30.9790 C   0  0  0  0  0  0  0  0  0  0  0  0
   -5.8950   22.8980  -30.2720 C   0  0  0  0  0  0  0  0  0  0  0  0
   -5.2980   24.0430  -29.6440 N   0  0  0  0  0  0  0  0  0  0  0  0
   -3.9930   24.5670  -29.9150 C   0  0  0  0  0  0  0  0  0  0  0  0
   -3.8700   25.4200  -30.8440 O   0  0  0  0  0  0  0  0  0  0  0  0
   -2.7900   24.1780  -29.1350 C   0  0  0  0  0  0  0  0  0  0  0  0
   -2.4580   24.9560  -28.0690 N   0  0  0  0  0  0  0  0  0  0  0  0
   -1.4020   24.7010  -27.2490 C   0  0  0  0  0  0  0  0  0  0  0  0
   -1.1000   25.6220  -26.1710 N   0  0  0  0  0  0  0  0  0  0  0  0
   -0.8460   27.0340  -26.5090 C   0  0  0  0  0  0  0  0  0  0  0  0
   -0.9890   27.9350  -25.2810 C   0  0  0  0  0  0  0  0  0  0  0  0
   -0.2410   27.4250  -24.1970 O   0  0  0  0  0  0  0  0  0  0  0  0
   -0.8130   26.2040  -23.7740 C   0  0  0  0  0  0  0  0  0  0  0  0
   -0.6670   25.1260  -24.8530 C   0  0  0  0  0  0  0  0  0  0  0  0
   -0.6120   23.5650  -27.4960 C   0  0  0  0  0  0  0  0  0  0  0  0
   -0.9180   22.7270  -28.5800 C   0  0  0  0  0  0  0  0  0  0  0  0
   -0.1610   21.5790  -28.8630 C   0  0  0  0  0  0  0  0  0  0  0  0
    0.8200   21.2460  -28.1390 O   0  0  0  0  0  0  0  0  0  0  0  0
   -0.4960   20.7930  -29.9620 C   0  0  0  0  0  0  0  0  0  0  0  0
   -1.5860   21.1660  -30.7720 C   0  0  0  0  0  0  0  0  0  0  0  0
   -1.9440   20.4000  -31.9420 N   0  0  0  0  0  0  0  0  0  0  0  0
   -1.2590   19.1320  -32.2100 C   0  0  0  0  0  0  0  0  0  0  0  0
   -2.1700   18.2040  -33.0200 C   0  0  0  0  0  0  0  0  0  0  0  0
   -2.6440   18.8550  -34.1800 O   0  0  0  0  0  0  0  0  0  0  0  0
   -3.4850   19.9340  -33.8040 C   0  0  0  0  0  0  0  0  0  0  0  0
   -2.6960   21.0070  -33.0460 C   0  0  0  0  0  0  0  0  0  0  0  0
   -2.2980   22.2490  -30.4550 O   0  0  0  0  0  0  0  0  0  0  0  0
   -2.0130   23.0350  -29.4180 C   0  0  0  0  0  0  0  0  0  0  0  0
   -7.2920   22.7750  -30.2230 C   0  0  0  0  0  0  0  0  0  0  0  0
   -7.9250   21.6990  -30.8540 C   0  0  0  0  0  0  0  0  0  0  0  0
   -6.0912   18.0356  -32.8081 H   0  0  0  0  0  0  0  0  0  0  0  0
   -7.3700   17.8507  -34.0559 H   0  0  0  0  0  0  0  0  0  0  0  0
   -6.3192   19.3075  -34.0559 H   0  0  0  0  0  0  0  0  0  0  0  0
   -5.1825   20.1136  -32.1576 H   0  0  0  0  0  0  0  0  0  0  0  0
   -4.0405   22.0317  -31.0323 H   0  0  0  0  0  0  0  0  0  0  0  0
    0.1755   27.1291  -26.9059 H   0  0  0  0  0  0  0  0  0  0  0  0
   -1.5864   27.3497  -27.2588 H   0  0  0  0  0  0  0  0  0  0  0  0
   -0.6247   28.9430  -25.5285 H   0  0  0  0  0  0  0  0  0  0  0  0
   -2.0497   27.9725  -24.9918 H   0  0  0  0  0  0  0  0  0  0  0  0
   -0.3054   25.8672  -22.8581 H   0  0  0  0  0  0  0  0  0  0  0  0
   -1.8842   26.3663  -23.5836 H   0  0  0  0  0  0  0  0  0  0  0  0
    0.3883   24.8216  -24.9142 H   0  0  0  0  0  0  0  0  0  0  0  0
   -1.3043   24.2726  -24.5780 H   0  0  0  0  0  0  0  0  0  0  0  0
    0.2423   23.3336  -26.8428 H   0  0  0  0  0  0  0  0  0  0  0  0
    0.0853   19.8889  -30.1956 H   0  0  0  0  0  0  0  0  0  0  0  0
   -0.3394   19.3285  -32.7808 H   0  0  0  0  0  0  0  0  0  0  0  0
   -1.0093   18.6480  -31.2543 H   0  0  0  0  0  0  0  0  0  0  0  0
   -1.6027   17.3089  -33.3150 H   0  0  0  0  0  0  0  0  0  0  0  0
   -3.0313   17.9227  -32.3964 H   0  0  0  0  0  0  0  0  0  0  0  0
   -3.9226   20.3812  -34.7087 H   0  0  0  0  0  0  0  0  0  0  0  0
   -4.2757   19.5484  -33.1436 H   0  0  0  0  0  0  0  0  0  0  0  0
   -1.9944   21.4975  -33.7367 H   0  0  0  0  0  0  0  0  0  0  0  0
   -3.3996   21.7466  -32.6362 H   0  0  0  0  0  0  0  0  0  0  0  0
   -7.8906   23.5264  -29.6872 H   0  0  0  0  0  0  0  0  0  0  0  0
   -9.0199   21.6052  -30.8057 H   0  0  0  0  0  0  0  0  0  0  0  0
  1  2  1  0
  2  3  2  0
  2  4  2  0
  2  5  1  0
  5  6  2  0
  6  7  1  0
  7  8  2  0
  8  9  1  0
  9 10  1  0
 10 11  2  0
 10 12  1  0
 12 13  2  0
 13 14  1  0
 14 15  1  0
 15 16  1  0
 16 17  1  0
 17 18  1  0
 18 19  1  0
 19 20  1  0
 14 21  2  0
 21 22  1  0
 22 23  1  0
 23 24  2  0
 23 25  1  0
 25 26  2  0
 26 27  1  0
 27 28  1  0
 28 29  1  0
 29 30  1  0
 30 31  1  0
 31 32  1  0
 26 33  1  0
 33 34  1  0
  8 35  1  0
 35 36  2  0
 36  5  1  0
 34 12  1  0
 20 15  1  0
 34 22  2  0
 32 27  1  0
  1 37  1  0
  1 38  1  0
  1 39  1  0
  6 40  1  0
  7 41  1  0
 16 42  1  0
 16 43  1  0
 17 44  1  0
 17 45  1  0
 19 46  1  0
 19 47  1  0
 20 48  1  0
 20 49  1  0
 21 50  1  0
 25 51  1  0
 28 52  1  0
 28 53  1  0
 29 54  1  0
 29 55  1  0
 31 56  1  0
 31 57  1  0
 32 58  1  0
 32 59  1  0
 35 60  1  0
 36 61  1  0
M  CHG  1   9  -1
M  END
>  <UniqueID>  (44) 
44

>  <SMILES>  (44) 
CS(=O)(=O)c1ccc([N-]C(=O)c2nc(N3CCOCC3)cc3c(=O)cc(N4CCOCC4)oc23)cc1

>  <Energy>  (44) 
82.07181563374684

>  <Genealogy>  (44) 
CS(=O)(=O)c1ccc([N-]C(=O)c2nc(N3CCOCC3)cc3c(=O)cc(N4CCOCC4)oc23)cc1 (protonated)
CS(=O)(=O)c1ccc([N-]C(=O)c2nc(N3CCOCC3)cc3c(=O)cc(N4CCOCC4)oc23)cc1 (3D coordinates assigned)
CS(=O)(=O)c1ccc([N-]C(=O)c2nc(N3CCOCC3)cc3c(=O)cc(N4CCOCC4)oc23)cc1 (nonaromatic ring conformer: 82.07181563374684 kcal/mol)

>  <smiles>  (44) 
CS(=O)(=O)c1ccc(NC(=O)c2nc(N3CCOCC3)cc3c(=O)cc(N4CCOCC4)oc23)cc1

>  <score_type>  (44) 
oracle

>  <origin>  (44) 
adgpu

>  <m_score__min__energy>  (44) 
-10.49

>  <m_primary>  (44) 
energy

$$$$
44:0
     RDKit          3D

 48 51  0  0  0  0  0  0  0  0999 V2000
   -5.3220   17.1140  -34.2830 O   0  0  0  0  0  0  0  0  0  0  0  0
   -5.4900   18.2410  -33.7490 C   0  0  0  0  0  0  0  0  0  0  0  0
   -6.8750   18.7530  -33.4780 C   0  0  0  0  0  0  0  0  0  0  0  0
   -6.8970   19.6380  -32.2230 C   0  0  0  0  0  0  0  0  0  0  0  0
   -5.7710   20.6470  -32.2160 C   0  0  0  0  0  0  0  0  0  0  0  0
   -5.9190   21.8690  -31.5400 C   0  0  0  0  0  0  0  0  0  0  0  0
   -4.8430   22.7610  -31.4470 C   0  0  0  0  0  0  0  0  0  0  0  0
   -5.0590   24.3020  -30.6240 S   0  0  0  0  0  0  0  0  0  0  0  0
   -5.7500   25.2590  -31.5530 O   0  0  0  0  0  0  0  0  0  0  0  0
   -5.9020   24.1370  -29.3910 O   0  0  0  0  0  0  0  0  0  0  0  0
   -3.5170   24.9550  -30.1760 N   0  0  0  0  0  0  0  0  0  0  0  0
   -2.5650   24.3150  -29.3140 C   0  0  0  0  0  0  0  0  0  0  0  0
   -2.7400   22.9930  -28.8660 C   0  0  0  0  0  0  0  0  0  0  0  0
   -1.7990   22.3980  -28.0160 C   0  0  0  0  0  0  0  0  0  0  0  0
   -2.0530   20.7510  -27.4330 S   0  0  0  0  0  0  0  0  0  0  0  0
   -1.3720   20.5870  -26.1020 O   0  0  0  0  0  0  0  0  0  0  0  0
   -3.5260   20.5200  -27.2310 O   0  0  0  0  0  0  0  0  0  0  0  0
   -1.4330   19.5590  -28.5560 N   0  0  0  0  0  0  0  0  0  0  0  0
   -0.5670   18.5870  -27.8780 C   0  0  0  0  0  0  0  0  0  0  0  0
    0.8840   18.9900  -28.1070 C   0  0  0  0  0  0  0  0  0  0  0  0
    0.8530   20.0490  -29.1910 C   0  0  0  0  0  0  0  0  0  0  0  0
   -0.6080   20.1890  -29.5910 C   0  0  0  0  0  0  0  0  0  0  0  0
   -0.6670   23.1230  -27.6220 C   0  0  0  0  0  0  0  0  0  0  0  0
   -0.4880   24.4350  -28.0610 C   0  0  0  0  0  0  0  0  0  0  0  0
   -1.4290   25.0310  -28.9070 C   0  0  0  0  0  0  0  0  0  0  0  0
   -1.2370   26.3390  -29.3360 O   0  0  0  0  0  0  0  0  0  0  0  0
   -3.6080   22.4220  -32.0170 C   0  0  0  0  0  0  0  0  0  0  0  0
   -3.4520   21.2040  -32.6840 C   0  0  0  0  0  0  0  0  0  0  0  0
   -4.5270   20.3160  -32.7870 C   0  0  0  0  0  0  0  0  0  0  0  0
   -4.3610   19.0720  -33.4740 N   0  0  0  0  0  0  0  0  0  0  0  0
   -7.2158   19.3437  -34.3411 H   0  0  0  0  0  0  0  0  0  0  0  0
   -7.5412   17.8933  -33.3132 H   0  0  0  0  0  0  0  0  0  0  0  0
   -7.8555   20.1765  -32.1860 H   0  0  0  0  0  0  0  0  0  0  0  0
   -6.7707   18.9849  -31.3469 H   0  0  0  0  0  0  0  0  0  0  0  0
   -6.8849   22.1270  -31.0812 H   0  0  0  0  0  0  0  0  0  0  0  0
   -3.6237   22.4215  -29.1861 H   0  0  0  0  0  0  0  0  0  0  0  0
   -0.7855   18.5840  -26.7999 H   0  0  0  0  0  0  0  0  0  0  0  0
   -0.7459   17.5786  -28.2794 H   0  0  0  0  0  0  0  0  0  0  0  0
    1.3179   19.4002  -27.1832 H   0  0  0  0  0  0  0  0  0  0  0  0
    1.5017   18.1285  -28.4006 H   0  0  0  0  0  0  0  0  0  0  0  0
    1.2377   21.0043  -28.8045 H   0  0  0  0  0  0  0  0  0  0  0  0
    1.4828   19.7696  -30.0485 H   0  0  0  0  0  0  0  0  0  0  0  0
   -0.8692   21.2540  -29.6772 H   0  0  0  0  0  0  0  0  0  0  0  0
   -0.7825   19.7023  -30.5619 H   0  0  0  0  0  0  0  0  0  0  0  0
    0.0822   22.6569  -26.9652 H   0  0  0  0  0  0  0  0  0  0  0  0
    0.3974   25.0035  -27.7403 H   0  0  0  0  0  0  0  0  0  0  0  0
   -2.7589   23.1170  -31.9390 H   0  0  0  0  0  0  0  0  0  0  0  0
   -2.4806   20.9431  -33.1293 H   0  0  0  0  0  0  0  0  0  0  0  0
  1  2  2  0
  2  3  1  0
  3  4  1  0
  4  5  1  0
  5  6  2  0
  6  7  1  0
  7  8  1  0
  8  9  2  0
  8 10  2  0
  8 11  1  0
 11 12  1  0
 12 13  2  0
 13 14  1  0
 14 15  1  0
 15 16  2  0
 15 17  2  0
 15 18  1  0
 18 19  1  0
 19 20  1  0
 20 21  1  0
 21 22  1  0
 14 23  2  0
 23 24  1  0
 24 25  2  0
 25 26  1  0
  7 27  2  0
 27 28  1  0
 28 29  2  0
 29 30  1  0
 30  2  1  0
 29  5  1  0
 25 12  1  0
 22 18  1  0
  3 31  1  0
  3 32  1  0
  4 33  1  0
  4 34  1  0
  6 35  1  0
 13 36  1  0
 19 37  1  0
 19 38  1  0
 20 39  1  0
 20 40  1  0
 21 41  1  0
 21 42  1  0
 22 43  1  0
 22 44  1  0
 23 45  1  0
 24 46  1  0
 27 47  1  0
 28 48  1  0
M  CHG  3  11  -1  26  -1  30  -1
M  END
>  <UniqueID>  (45) 
45

>  <SMILES>  (45) 
O=C1CCc2cc(S(=O)(=O)[N-]c3cc(S(=O)(=O)N4CCCC4)ccc3[O-])ccc2[N-]1

>  <Energy>  (45) 
53.217819701827196

>  <Genealogy>  (45) 
O=C1CCc2cc(S(=O)(=O)[N-]c3cc(S(=O)(=O)N4CCCC4)ccc3[O-])ccc2[N-]1 (protonated)
O=C1CCc2cc(S(=O)(=O)[N-]c3cc(S(=O)(=O)N4CCCC4)ccc3[O-])ccc2[N-]1 (3D coordinates assigned)
O=C1CCc2cc(S(=O)(=O)[N-]c3cc(S(=O)(=O)N4CCCC4)ccc3[O-])ccc2[N-]1 (nonaromatic ring conformer: 53.217819701827196 kcal/mol)

>  <smiles>  (45) 
O=C1CCc2cc(S(=O)(=O)Nc3cc(S(=O)(=O)N4CCCC4)ccc3O)ccc2N1

>  <score_type>  (45) 
oracle

>  <origin>  (45) 
adgpu

>  <m_score__min__energy>  (45) 
-14.630000000000001

>  <m_primary>  (45) 
energy

$$$$
45:0
     RDKit          3D

 45 47  0  0  0  0  0  0  0  0999 V2000
   -2.0730   20.2800  -27.0150 C   0  0  0  0  0  0  0  0  0  0  0  0
   -2.1010   21.6760  -27.5650 C   0  0  0  0  0  0  0  0  0  0  0  0
   -0.9080   22.3930  -27.7290 C   0  0  0  0  0  0  0  0  0  0  0  0
   -0.9370   23.7050  -28.2080 C   0  0  0  0  0  0  0  0  0  0  0  0
   -2.1590   24.3170  -28.5200 C   0  0  0  0  0  0  0  0  0  0  0  0
   -2.1850   25.6260  -29.0030 O   0  0  0  0  0  0  0  0  0  0  0  0
   -3.3610   23.6150  -28.3470 C   0  0  0  0  0  0  0  0  0  0  0  0
   -4.5960   24.2680  -28.6790 N   0  0  0  0  0  0  0  0  0  0  0  0
   -5.1350   24.6330  -30.2870 S   0  0  0  0  0  0  0  0  0  0  0  0
   -4.2240   25.6650  -30.8900 O   0  0  0  0  0  0  0  0  0  0  0  0
   -6.5310   25.1880  -30.2250 O   0  0  0  0  0  0  0  0  0  0  0  0
   -5.0790   23.1760  -31.2720 C   0  0  0  0  0  0  0  0  0  0  0  0
   -6.2520   22.6400  -31.8240 C   0  0  0  0  0  0  0  0  0  0  0  0
   -6.2000   21.4600  -32.5710 C   0  0  0  0  0  0  0  0  0  0  0  0
   -4.9760   20.8070  -32.7720 C   0  0  0  0  0  0  0  0  0  0  0  0
   -4.9080   19.3080  -33.6960 S   0  0  0  0  0  0  0  0  0  0  0  0
   -5.9780   19.3150  -34.7550 O   0  0  0  0  0  0  0  0  0  0  0  0
   -3.5610   19.2140  -34.3550 O   0  0  0  0  0  0  0  0  0  0  0  0
   -5.1430   17.9400  -32.6270 N   0  0  0  0  0  0  0  0  0  0  0  0
   -6.0830   18.2800  -31.5520 C   0  0  0  0  0  0  0  0  0  0  0  0
   -7.4730   17.8220  -31.9720 C   0  0  0  0  0  0  0  0  0  0  0  0
   -7.2620   16.9060  -33.1630 C   0  0  0  0  0  0  0  0  0  0  0  0
   -5.7560   16.8190  -33.3480 C   0  0  0  0  0  0  0  0  0  0  0  0
   -3.8030   21.3530  -32.2360 C   0  0  0  0  0  0  0  0  0  0  0  0
   -3.8550   22.5300  -31.4860 C   0  0  0  0  0  0  0  0  0  0  0  0
   -3.3250   22.2950  -27.8560 C   0  0  0  0  0  0  0  0  0  0  0  0
   -2.0738   20.3189  -25.9157 H   0  0  0  0  0  0  0  0  0  0  0  0
   -2.9603   19.7309  -27.3631 H   0  0  0  0  0  0  0  0  0  0  0  0
   -1.1644   19.7669  -27.3631 H   0  0  0  0  0  0  0  0  0  0  0  0
    0.0540   21.9213  -27.4798 H   0  0  0  0  0  0  0  0  0  0  0  0
    0.0032   24.2603  -28.3409 H   0  0  0  0  0  0  0  0  0  0  0  0
   -3.0400   26.0500  -29.3430 H   0  0  0  0  0  0  0  0  0  0  0  0
   -7.2145   23.1494  -31.6686 H   0  0  0  0  0  0  0  0  0  0  0  0
   -7.1218   21.0426  -33.0023 H   0  0  0  0  0  0  0  0  0  0  0  0
   -5.7874   17.7692  -30.6237 H   0  0  0  0  0  0  0  0  0  0  0  0
   -6.0788   19.3654  -31.3731 H   0  0  0  0  0  0  0  0  0  0  0  0
   -7.9614   17.2769  -31.1509 H   0  0  0  0  0  0  0  0  0  0  0  0
   -8.1215   18.6737  -32.2252 H   0  0  0  0  0  0  0  0  0  0  0  0
   -7.6825   15.9098  -32.9608 H   0  0  0  0  0  0  0  0  0  0  0  0
   -7.7621   17.2884  -34.0650 H   0  0  0  0  0  0  0  0  0  0  0  0
   -5.3848   15.8666  -32.9416 H   0  0  0  0  0  0  0  0  0  0  0  0
   -5.4998   16.8673  -34.4167 H   0  0  0  0  0  0  0  0  0  0  0  0
   -2.8379   20.8534  -32.4062 H   0  0  0  0  0  0  0  0  0  0  0  0
   -2.9315   22.9510  -31.0620 H   0  0  0  0  0  0  0  0  0  0  0  0
   -4.2649   21.7454  -27.6996 H   0  0  0  0  0  0  0  0  0  0  0  0
  1  2  1  0
  2  3  2  0
  3  4  1  0
  4  5  2  0
  5  6  1  0
  5  7  1  0
  7  8  1  0
  8  9  1  0
  9 10  2  0
  9 11  2  0
  9 12  1  0
 12 13  2  0
 13 14  1  0
 14 15  2  0
 15 16  1  0
 16 17  2  0
 16 18  2  0
 16 19  1  0
 19 20  1  0
 20 21  1  0
 21 22  1  0
 22 23  1  0
 15 24  1  0
 24 25  2  0
  7 26  2  0
 26  2  1  0
 25 12  1  0
 23 19  1  0
  1 27  1  0
  1 28  1  0
  1 29  1  0
  3 30  1  0
  4 31  1  0
  6 32  1  0
 13 33  1  0
 14 34  1  0
 20 35  1  0
 20 36  1  0
 21 37  1  0
 21 38  1  0
 22 39  1  0
 22 40  1  0
 23 41  1  0
 23 42  1  0
 24 43  1  0
 25 44  1  0
 26 45  1  0
M  CHG  1   8  -1
M  END
>  <UniqueID>  (46) 
46

>  <SMILES>  (46) 
Cc1ccc(O)c([N-]S(=O)(=O)c2ccc(S(=O)(=O)N3CCCC3)cc2)c1

>  <Energy>  (46) 
48.76220583261391

>  <Genealogy>  (46) 
Cc1ccc(O)c([N-]S(=O)(=O)c2ccc(S(=O)(=O)N3CCCC3)cc2)c1 (protonated)
Cc1ccc(O)c([N-]S(=O)(=O)c2ccc(S(=O)(=O)N3CCCC3)cc2)c1 (3D coordinates assigned)
Cc1ccc(O)c([N-]S(=O)(=O)c2ccc(S(=O)(=O)N3CCCC3)cc2)c1 (nonaromatic ring conformer: 48.76220583261391 kcal/mol)

>  <smiles>  (46) 
Cc1ccc(O)c(NS(=O)(=O)c2ccc(S(=O)(=O)N3CCCC3)cc2)c1

>  <score_type>  (46) 
oracle

>  <origin>  (46) 
adgpu

>  <m_score__min__energy>  (46) 
-12.35

>  <m_primary>  (46) 
energy

$$$$
46:0
     RDKit          3D

 42 44  0  0  0  0  0  0  0  0999 V2000
   -3.9354   21.6700  -27.4978 H   0  0  0  0  0  0  0  0  0  0  0  0
   -3.3060   22.4140  -28.0080 C   0  0  0  0  0  0  0  0  0  0  0  0
   -3.8550   23.2530  -28.9260 N   0  0  0  0  0  0  0  0  0  0  0  0
   -3.1140   24.1960  -29.5770 C   0  0  0  0  0  0  0  0  0  0  0  0
   -3.6530   24.9820  -30.4630 N   0  0  0  0  0  0  0  0  0  0  0  0
   -5.0450   25.0350  -30.8100 C   0  0  0  0  0  0  0  0  0  0  0  0
   -5.6470   26.1390  -30.7180 O   0  0  0  0  0  0  0  0  0  0  0  0
   -5.8060   23.8270  -31.2120 C   0  0  0  0  0  0  0  0  0  0  0  0
   -7.2080   23.7950  -31.1130 C   0  0  0  0  0  0  0  0  0  0  0  0
   -7.7487   24.6686  -30.7200 H   0  0  0  0  0  0  0  0  0  0  0  0
   -7.9180   22.6600  -31.5110 C   0  0  0  0  0  0  0  0  0  0  0  0
   -9.0145   22.6415  -31.4254 H   0  0  0  0  0  0  0  0  0  0  0  0
   -7.2410   21.5490  -32.0170 C   0  0  0  0  0  0  0  0  0  0  0  0
   -7.8045   20.6570  -32.3282 H   0  0  0  0  0  0  0  0  0  0  0  0
   -5.8430   21.5690  -32.1290 C   0  0  0  0  0  0  0  0  0  0  0  0
   -4.9780   20.1880  -32.7970 S   0  0  0  0  0  0  0  0  0  0  0  0
   -4.0170   20.6810  -33.8420 O   0  0  0  0  0  0  0  0  0  0  0  0
   -4.1970   19.4970  -31.7140 O   0  0  0  0  0  0  0  0  0  0  0  0
   -6.1090   19.0690  -33.5210 N   0  0  0  0  0  0  0  0  0  0  0  0
   -6.6250   18.1390  -32.4920 C   0  0  0  0  0  0  0  0  0  0  0  0
   -5.7961   17.8383  -31.8343 H   0  0  0  0  0  0  0  0  0  0  0  0
   -7.4100   18.6572  -31.9216 H   0  0  0  0  0  0  0  0  0  0  0  0
   -7.2390   16.8850  -33.1240 C   0  0  0  0  0  0  0  0  0  0  0  0
   -7.6465   16.2442  -32.3282 H   0  0  0  0  0  0  0  0  0  0  0  0
   -8.0360   17.1961  -33.8153 H   0  0  0  0  0  0  0  0  0  0  0  0
   -6.1850   16.0930  -33.9170 C   0  0  0  0  0  0  0  0  0  0  0  0
   -5.7679   15.3116  -33.2647 H   0  0  0  0  0  0  0  0  0  0  0  0
   -6.6854   15.6640  -34.7976 H   0  0  0  0  0  0  0  0  0  0  0  0
   -5.0330   16.9780  -34.4230 C   0  0  0  0  0  0  0  0  0  0  0  0
   -4.2441   17.0125  -33.6572 H   0  0  0  0  0  0  0  0  0  0  0  0
   -4.6473   16.5463  -35.3583 H   0  0  0  0  0  0  0  0  0  0  0  0
   -5.5150   18.4070  -34.7100 C   0  0  0  0  0  0  0  0  0  0  0  0
   -4.6568   19.0044  -35.0516 H   0  0  0  0  0  0  0  0  0  0  0  0
   -6.3009   18.3413  -35.4768 H   0  0  0  0  0  0  0  0  0  0  0  0
   -5.1320   22.7110  -31.7370 C   0  0  0  0  0  0  0  0  0  0  0  0
   -4.0372   22.7343  -31.8410 H   0  0  0  0  0  0  0  0  0  0  0  0
   -1.7430   24.2980  -29.3120 C   0  0  0  0  0  0  0  0  0  0  0  0
   -1.1300   25.0432  -29.8400 H   0  0  0  0  0  0  0  0  0  0  0  0
   -1.1600   23.4450  -28.3710 C   0  0  0  0  0  0  0  0  0  0  0  0
   -0.0852   23.5214  -28.1499 H   0  0  0  0  0  0  0  0  0  0  0  0
   -1.9430   22.4960  -27.7120 C   0  0  0  0  0  0  0  0  0  0  0  0
   -1.2250   21.4190  -26.5290 Cl  0  0  0  0  0  0  0  0  0  0  0  0
  1  2  1  0
  2  3  1  0
  3  4  1  0
  4  5  2  0
  5  6  1  0
  6  7  2  0
  6  8  1  0
  8  9  2  0
  9 10  1  0
  9 11  1  0
 11 12  1  0
 11 13  2  0
 13 14  1  0
 13 15  1  0
 15 16  1  0
 16 17  2  0
 16 18  2  0
 16 19  1  0
 19 20  1  0
 20 21  1  0
 20 22  1  0
 20 23  1  0
 23 24  1  0
 23 25  1  0
 23 26  1  0
 26 27  1  0
 26 28  1  0
 26 29  1  0
 29 30  1  0
 29 31  1  0
 29 32  1  0
 32 33  1  0
 32 34  1  0
 15 35  2  0
 35 36  1  0
  4 37  1  0
 37 38  1  0
 37 39  2  0
 39 40  1  0
 39 41  1  0
 41 42  1  0
 41  2  2  0
 35  8  1  0
 32 19  1  0
M  CHG  1   3  -1
M  END
>  <UniqueID>  (47) 
47

>  <SMILES>  (47) 
O=C(/N=c1/ccc(Cl)c[n-]1)c1cccc(S(=O)(=O)N2CCCCC2)c1

>  <Energy>  (47) 
56.977144078131

>  <Genealogy>  (47) 
O=C(N=c1ccc(Cl)c[n-]1)c1cccc(S(=O)(=O)N2CCCCC2)c1 (protonated)
O=C(/N=c1/ccc(Cl)c[n-]1)c1cccc(S(=O)(=O)N2CCCCC2)c1 (cis-trans isomerization)
O=C(/N=c1/ccc(Cl)c[n-]1)c1cccc(S(=O)(=O)N2CCCCC2)c1 (3D coordinates assigned)
O=C(/N=c1/ccc(Cl)c[n-]1)c1cccc(S(=O)(=O)N2CCCCC2)c1 (nonaromatic ring conformer: 56.977144078131 kcal/mol)

>  <smiles>  (47) 
O=C(N=c1ccc(Cl)c[nH]1)c1cccc(S(=O)(=O)N2CCCCC2)c1

>  <score_type>  (47) 
oracle

>  <origin>  (47) 
adgpu

>  <m_score__min__energy>  (47) 
-10.69

>  <m_primary>  (47) 
energy

$$$$
47:0
     RDKit          3D

 54 57  0  0  0  0  0  0  0  0999 V2000
   -9.1110   20.0470  -32.0830 C   0  0  0  0  0  0  0  0  0  0  0  0
   -8.2710   21.1300  -31.5490 N   0  0  0  0  0  0  0  0  0  0  0  0
   -8.7700   22.4350  -32.0190 C   0  0  0  0  0  0  0  0  0  0  0  0
   -8.0450   23.5600  -31.2760 C   0  0  0  0  0  0  0  0  0  0  0  0
   -6.5520   23.3540  -31.2700 C   0  0  0  0  0  0  0  0  0  0  0  0
   -5.7130   24.4120  -30.8970 C   0  0  0  0  0  0  0  0  0  0  0  0
   -4.3280   24.2320  -30.8390 C   0  0  0  0  0  0  0  0  0  0  0  0
   -3.5130   25.2980  -30.4740 O   0  0  0  0  0  0  0  0  0  0  0  0
   -3.7630   22.9910  -31.1590 C   0  0  0  0  0  0  0  0  0  0  0  0
   -2.3420   22.8370  -31.0850 N   0  0  0  0  0  0  0  0  0  0  0  0
   -1.5020   21.3420  -30.8080 S   0  0  0  0  0  0  0  0  0  0  0  0
   -2.1600   20.5190  -29.7380 O   0  0  0  0  0  0  0  0  0  0  0  0
   -0.1140   21.6690  -30.3320 O   0  0  0  0  0  0  0  0  0  0  0  0
   -1.4040   20.4440  -32.3310 C   0  0  0  0  0  0  0  0  0  0  0  0
   -2.4180   19.5170  -32.6220 C   0  0  0  0  0  0  0  0  0  0  0  0
   -2.3730   18.7430  -33.7870 C   0  0  0  0  0  0  0  0  0  0  0  0
   -3.6160   17.5280  -34.0920 S   0  0  0  0  0  0  0  0  0  0  0  0
   -3.4430   16.9820  -35.4830 O   0  0  0  0  0  0  0  0  0  0  0  0
   -3.4450   16.3900  -33.1250 O   0  0  0  0  0  0  0  0  0  0  0  0
   -5.2300   18.1890  -33.9240 N   0  0  0  0  0  0  0  0  0  0  0  0
   -5.6300   18.2660  -32.5150 C   0  0  0  0  0  0  0  0  0  0  0  0
   -6.5100   17.0650  -32.1950 C   0  0  0  0  0  0  0  0  0  0  0  0
   -6.8620   16.4420  -33.5320 C   0  0  0  0  0  0  0  0  0  0  0  0
   -6.2220   17.3340  -34.5840 C   0  0  0  0  0  0  0  0  0  0  0  0
   -1.3190   18.9140  -34.6890 C   0  0  0  0  0  0  0  0  0  0  0  0
   -0.3030   19.8300  -34.4130 C   0  0  0  0  0  0  0  0  0  0  0  0
   -0.3230   20.5860  -33.2360 C   0  0  0  0  0  0  0  0  0  0  0  0
    0.7500   21.4490  -33.0060 O   0  0  0  0  0  0  0  0  0  0  0  0
   -4.6020   21.9160  -31.4880 C   0  0  0  0  0  0  0  0  0  0  0  0
   -5.9950   22.0860  -31.5370 C   0  0  0  0  0  0  0  0  0  0  0  0
   -6.8710   20.9370  -31.9750 C   0  0  0  0  0  0  0  0  0  0  0  0
   -9.5511   19.4795  -31.2498 H   0  0  0  0  0  0  0  0  0  0  0  0
   -9.9147   20.4762  -32.6993 H   0  0  0  0  0  0  0  0  0  0  0  0
   -8.4953   19.3753  -32.6993 H   0  0  0  0  0  0  0  0  0  0  0  0
   -8.5843   22.5305  -33.0990 H   0  0  0  0  0  0  0  0  0  0  0  0
   -9.8502   22.5050  -31.8234 H   0  0  0  0  0  0  0  0  0  0  0  0
   -8.2707   24.5165  -31.7701 H   0  0  0  0  0  0  0  0  0  0  0  0
   -8.3945   23.5623  -30.2330 H   0  0  0  0  0  0  0  0  0  0  0  0
   -6.1472   25.3915  -30.6479 H   0  0  0  0  0  0  0  0  0  0  0  0
   -3.2598   19.3976  -31.9241 H   0  0  0  0  0  0  0  0  0  0  0  0
   -4.7359   18.2518  -31.8744 H   0  0  0  0  0  0  0  0  0  0  0  0
   -6.1842   19.1983  -32.3314 H   0  0  0  0  0  0  0  0  0  0  0  0
   -5.9624   16.3449  -31.5693 H   0  0  0  0  0  0  0  0  0  0  0  0
   -7.4105   17.3606  -31.6367 H   0  0  0  0  0  0  0  0  0  0  0  0
   -6.4577   15.4211  -33.5976 H   0  0  0  0  0  0  0  0  0  0  0  0
   -7.9507   16.3680  -33.6709 H   0  0  0  0  0  0  0  0  0  0  0  0
   -5.7290   16.7138  -35.3471 H   0  0  0  0  0  0  0  0  0  0  0  0
   -6.9891   17.9527  -35.0726 H   0  0  0  0  0  0  0  0  0  0  0  0
   -1.2903   18.3256  -35.6179 H   0  0  0  0  0  0  0  0  0  0  0  0
    0.5224   19.9590  -35.1286 H   0  0  0  0  0  0  0  0  0  0  0  0
    0.8790   21.9660  -32.1510 H   0  0  0  0  0  0  0  0  0  0  0  0
   -4.1648   20.9312  -31.7095 H   0  0  0  0  0  0  0  0  0  0  0  0
   -6.8386   20.8610  -33.0719 H   0  0  0  0  0  0  0  0  0  0  0  0
   -6.4920   20.0166  -31.5068 H   0  0  0  0  0  0  0  0  0  0  0  0
  1  2  1  0
  2  3  1  0
  3  4  1  0
  4  5  1  0
  5  6  2  0
  6  7  1  0
  7  8  1  0
  7  9  2  0
  9 10  1  0
 10 11  1  0
 11 12  2  0
 11 13  2  0
 11 14  1  0
 14 15  2  0
 15 16  1  0
 16 17  1  0
 17 18  2  0
 17 19  2  0
 17 20  1  0
 20 21  1  0
 21 22  1  0
 22 23  1  0
 23 24  1  0
 16 25  2  0
 25 26  1  0
 26 27  2  0
 27 28  1  0
  9 29  1  0
 29 30  2  0
 30 31  1  0
 31  2  1  0
 30  5  1  0
 27 14  1  0
 24 20  1  0
  1 32  1  0
  1 33  1  0
  1 34  1  0
  3 35  1  0
  3 36  1  0
  4 37  1  0
  4 38  1  0
  6 39  1  0
 15 40  1  0
 21 41  1  0
 21 42  1  0
 22 43  1  0
 22 44  1  0
 23 45  1  0
 23 46  1  0
 24 47  1  0
 24 48  1  0
 25 49  1  0
 26 50  1  0
 28 51  1  0
 29 52  1  0
 31 53  1  0
 31 54  1  0
M  CHG  2   8  -1  10  -1
M  END
>  <UniqueID>  (48) 
48

>  <SMILES>  (48) 
CN1CCc2cc([O-])c([N-]S(=O)(=O)c3cc(S(=O)(=O)N4CCCC4)ccc3O)cc2C1

>  <Energy>  (48) 
68.36696439344382

>  <Genealogy>  (48) 
CN1CCc2cc([O-])c([N-]S(=O)(=O)c3cc(S(=O)(=O)N4CCCC4)ccc3O)cc2C1 (protonated)
CN1CCc2cc([O-])c([N-]S(=O)(=O)c3cc(S(=O)(=O)N4CCCC4)ccc3O)cc2C1 (3D coordinates assigned)
CN1CCc2cc([O-])c([N-]S(=O)(=O)c3cc(S(=O)(=O)N4CCCC4)ccc3O)cc2C1 (nonaromatic ring conformer: 68.36696439344382 kcal/mol)

>  <smiles>  (48) 
CN1CCc2cc(O)c(NS(=O)(=O)c3cc(S(=O)(=O)N4CCCC4)ccc3O)cc2C1

>  <score_type>  (48) 
oracle

>  <origin>  (48) 
adgpu

>  <m_score__min__energy>  (48) 
-13.35

>  <m_primary>  (48) 
energy

$$$$
48:0
     RDKit          3D

 48 51  0  0  0  0  0  0  0  0999 V2000
   -1.8640   22.2530  -26.9130 H   0  0  0  0  0  0  0  0  0  0  0  0
   -2.6500   22.2650  -27.6020 N   0  0  0  0  0  0  0  0  0  0  0  0
   -2.8730   23.3020  -28.3440 C   0  0  0  0  0  0  0  0  0  0  0  0
   -3.8690   23.4310  -29.2790 C   0  0  0  0  0  0  0  0  0  0  0  0
   -4.8830   22.5820  -29.7140 C   0  0  0  0  0  0  0  0  0  0  0  0
   -5.0090   21.5762  -29.2867 H   0  0  0  0  0  0  0  0  0  0  0  0
   -5.7440   23.0630  -30.7260 C   0  0  0  0  0  0  0  0  0  0  0  0
   -7.0370   22.0470  -31.3520 S   0  0  0  0  0  0  0  0  0  0  0  0
   -7.9580   21.6090  -30.2480 O   0  0  0  0  0  0  0  0  0  0  0  0
   -7.8290   22.8640  -32.3360 O   0  0  0  0  0  0  0  0  0  0  0  0
   -6.3500   20.6130  -32.1400 C   0  0  0  0  0  0  0  0  0  0  0  0
   -4.9820   20.6240  -32.4480 C   0  0  0  0  0  0  0  0  0  0  0  0
   -4.3858   21.5234  -32.2347 H   0  0  0  0  0  0  0  0  0  0  0  0
   -4.3660   19.5110  -33.0210 C   0  0  0  0  0  0  0  0  0  0  0  0
   -2.6400   19.5420  -33.3610 S   0  0  0  0  0  0  0  0  0  0  0  0
   -2.3760   20.3600  -34.5950 O   0  0  0  0  0  0  0  0  0  0  0  0
   -2.1370   18.1470  -33.6090 O   0  0  0  0  0  0  0  0  0  0  0  0
   -1.8030   20.2470  -31.9840 C   0  0  0  0  0  0  0  0  0  0  0  0
   -1.1770   19.4210  -31.0390 C   0  0  0  0  0  0  0  0  0  0  0  0
   -1.1927   18.3288  -31.1691 H   0  0  0  0  0  0  0  0  0  0  0  0
   -0.5330   19.9820  -29.9320 C   0  0  0  0  0  0  0  0  0  0  0  0
   -0.0382   19.3317  -29.1956 H   0  0  0  0  0  0  0  0  0  0  0  0
   -0.5180   21.3700  -29.7610 C   0  0  0  0  0  0  0  0  0  0  0  0
   -0.0094   21.8112  -28.8911 H   0  0  0  0  0  0  0  0  0  0  0  0
   -1.1490   22.1970  -30.6950 C   0  0  0  0  0  0  0  0  0  0  0  0
   -1.1390   23.2884  -30.5584 H   0  0  0  0  0  0  0  0  0  0  0  0
   -1.7930   21.6370  -31.8030 C   0  0  0  0  0  0  0  0  0  0  0  0
   -2.2930   22.2890  -32.5344 H   0  0  0  0  0  0  0  0  0  0  0  0
   -5.1100   18.3560  -33.2630 C   0  0  0  0  0  0  0  0  0  0  0  0
   -4.6174   17.4723  -33.6947 H   0  0  0  0  0  0  0  0  0  0  0  0
   -6.4790   18.3090  -32.9620 C   0  0  0  0  0  0  0  0  0  0  0  0
   -7.2270   17.0260  -33.2290 C   0  0  0  0  0  0  0  0  0  0  0  0
   -7.5012   16.5557  -32.2732 H   0  0  0  0  0  0  0  0  0  0  0  0
   -8.1385   17.2459  -33.8042 H   0  0  0  0  0  0  0  0  0  0  0  0
   -6.5866   16.3411  -33.8042 H   0  0  0  0  0  0  0  0  0  0  0  0
   -7.1270   19.4590  -32.4350 C   0  0  0  0  0  0  0  0  0  0  0  0
   -8.6070   19.4170  -32.1220 C   0  0  0  0  0  0  0  0  0  0  0  0
   -8.7512   19.4129  -31.0315 H   0  0  0  0  0  0  0  0  0  0  0  0
   -9.0983   20.3016  -32.5535 H   0  0  0  0  0  0  0  0  0  0  0  0
   -9.0473   18.5060  -32.5535 H   0  0  0  0  0  0  0  0  0  0  0  0
   -5.5620   24.3670  -31.2540 C   0  0  0  0  0  0  0  0  0  0  0  0
   -6.2395   24.7361  -32.0380 H   0  0  0  0  0  0  0  0  0  0  0  0
   -4.5230   25.1940  -30.7850 C   0  0  0  0  0  0  0  0  0  0  0  0
   -4.3741   26.2057  -31.1903 H   0  0  0  0  0  0  0  0  0  0  0  0
   -3.6910   24.6870  -29.7910 C   0  0  0  0  0  0  0  0  0  0  0  0
   -2.6420   25.2990  -29.2020 N   0  0  0  0  0  0  0  0  0  0  0  0
   -2.1470   24.4400  -28.3160 N   0  0  0  0  0  0  0  0  0  0  0  0
   -1.3230   24.6380  -27.7050 H   0  0  0  0  0  0  0  0  0  0  0  0
  1  2  1  0
  2  3  2  0
  3  4  1  0
  4  5  2  0
  5  6  1  0
  5  7  1  0
  7  8  1  0
  8  9  2  0
  8 10  2  0
  8 11  1  0
 11 12  2  0
 12 13  1  0
 12 14  1  0
 14 15  1  0
 15 16  2  0
 15 17  2  0
 15 18  1  0
 18 19  2  0
 19 20  1  0
 19 21  1  0
 21 22  1  0
 21 23  2  0
 23 24  1  0
 23 25  1  0
 25 26  1  0
 25 27  2  0
 27 28  1  0
 14 29  2  0
 29 30  1  0
 29 31  1  0
 31 32  1  0
 32 33  1  0
 32 34  1  0
 32 35  1  0
 31 36  2  0
 36 37  1  0
 37 38  1  0
 37 39  1  0
 37 40  1  0
  7 41  2  0
 41 42  1  0
 41 43  1  0
 43 44  1  0
 43 45  2  0
 45 46  1  0
 46 47  1  0
 47 48  1  0
 47  3  1  0
 45  4  1  0
 36 11  1  0
 27 18  1  0
M  CHG  1  46  -1
M  END
>  <UniqueID>  (49) 
49

>  <SMILES>  (49) 
[H]/N=c1\[nH][n-]c2ccc(S(=O)(=O)c3cc(S(=O)(=O)c4ccccc4)cc(C)c3C)cc12

>  <Energy>  (49) 
99.13987542587756

>  <Genealogy>  (49) 
Cc1cc(S(=O)(=O)c2ccccc2)cc(S(=O)(=O)c2ccc3[n-][nH]c(=N)c3c2)c1C (protonated)
[H]/N=c1\[nH][n-]c2ccc(S(=O)(=O)c3cc(S(=O)(=O)c4ccccc4)cc(C)c3C)cc12 (cis-trans isomerization)
[H]/N=c1\[nH][n-]c2ccc(S(=O)(=O)c3cc(S(=O)(=O)c4ccccc4)cc(C)c3C)cc12 (3D coordinates assigned)
[H]/N=c1\[nH][n-]c2ccc(S(=O)(=O)c3cc(S(=O)(=O)c4ccccc4)cc(C)c3C)cc12 (optimized conformer: 99.13987542587756 kcal/mol)

>  <smiles>  (49) 
Cc1cc(S(=O)(=O)c2ccccc2)cc(S(=O)(=O)c2ccc3[nH][nH]c(=N)c3c2)c1C

>  <score_type>  (49) 
oracle

>  <origin>  (49) 
adgpu

>  <m_score__min__energy>  (49) 
-11.050000000000001

>  <m_primary>  (49) 
energy

$$$$
