0:0
     RDKit          3D

 40 42  0  0  0  0  0  0  0  0999 V2000
   -3.3530   22.5000  -32.3130 O   0  0  0  0  0  0  0  0  0  0  0  0
   -3.5010   22.5460  -31.0610 C   0  0  0  0  0  0  0  0  0  0  0  0
   -4.7400   22.1230  -30.4730 N   0  0  0  0  0  0  0  0  0  0  0  0
   -6.0570   22.3300  -31.0050 C   0  0  0  0  0  0  0  0  0  0  0  0
   -7.0880   21.3880  -30.8230 C   0  0  0  0  0  0  0  0  0  0  0  0
   -8.3660   21.6320  -31.3360 C   0  0  0  0  0  0  0  0  0  0  0  0
   -8.6330   22.8240  -32.0090 C   0  0  0  0  0  0  0  0  0  0  0  0
   -7.6250   23.7800  -32.1670 C   0  0  0  0  0  0  0  0  0  0  0  0
   -6.3390   23.5380  -31.6610 C   0  0  0  0  0  0  0  0  0  0  0  0
   -5.3340   24.4930  -31.8180 O   0  0  0  0  0  0  0  0  0  0  0  0
   -2.4250   23.1040  -30.1970 C   0  0  0  0  0  0  0  0  0  0  0  0
   -1.3560   22.2800  -29.8030 C   0  0  0  0  0  0  0  0  0  0  0  0
   -0.3370   22.7750  -28.9900 C   0  0  0  0  0  0  0  0  0  0  0  0
   -0.3590   24.1000  -28.5550 C   0  0  0  0  0  0  0  0  0  0  0  0
    0.7090   24.5690  -27.7990 O   0  0  0  0  0  0  0  0  0  0  0  0
   -1.4320   24.9410  -28.9140 C   0  0  0  0  0  0  0  0  0  0  0  0
   -1.5300   26.2790  -28.4910 O   0  0  0  0  0  0  0  0  0  0  0  0
   -0.4940   27.0290  -27.8540 C   0  0  0  0  0  0  0  0  0  0  0  0
   -0.6190   26.9400  -26.3560 C   0  0  0  0  0  0  0  0  0  0  0  0
   -0.3340   28.0480  -25.5420 C   0  0  0  0  0  0  0  0  0  0  0  0
   -0.4230   27.9420  -24.1500 C   0  0  0  0  0  0  0  0  0  0  0  0
   -0.8000   26.7310  -23.5610 C   0  0  0  0  0  0  0  0  0  0  0  0
   -1.0840   25.6240  -24.3660 C   0  0  0  0  0  0  0  0  0  0  0  0
   -0.9930   25.7250  -25.7590 C   0  0  0  0  0  0  0  0  0  0  0  0
   -2.4470   24.4460  -29.7490 C   0  0  0  0  0  0  0  0  0  0  0  0
   -3.4810   25.3020  -30.1180 O   0  0  0  0  0  0  0  0  0  0  0  0
   -6.8871   20.4558  -30.2747 H   0  0  0  0  0  0  0  0  0  0  0  0
   -9.1614   20.8830  -31.2085 H   0  0  0  0  0  0  0  0  0  0  0  0
   -9.6375   23.0122  -32.4159 H   0  0  0  0  0  0  0  0  0  0  0  0
   -7.8407   24.7238  -32.6891 H   0  0  0  0  0  0  0  0  0  0  0  0
   -4.3780   24.3090  -31.5420 H   0  0  0  0  0  0  0  0  0  0  0  0
   -1.3232   21.2334  -30.1398 H   0  0  0  0  0  0  0  0  0  0  0  0
    0.4905   22.1155  -28.6894 H   0  0  0  0  0  0  0  0  0  0  0  0
    0.4833   26.6272  -28.1596 H   0  0  0  0  0  0  0  0  0  0  0  0
   -0.5833   28.0832  -28.1551 H   0  0  0  0  0  0  0  0  0  0  0  0
   -0.0395   29.0034  -26.0008 H   0  0  0  0  0  0  0  0  0  0  0  0
   -0.1960   28.8129  -23.5175 H   0  0  0  0  0  0  0  0  0  0  0  0
   -0.8729   26.6497  -22.4664 H   0  0  0  0  0  0  0  0  0  0  0  0
   -1.3798   24.6709  -23.9034 H   0  0  0  0  0  0  0  0  0  0  0  0
   -1.2150   24.8503  -26.3880 H   0  0  0  0  0  0  0  0  0  0  0  0
  1  2  2  0
  2  3  1  0
  3  4  1  0
  4  5  2  0
  5  6  1  0
  6  7  2  0
  7  8  1  0
  8  9  2  0
  9 10  1  0
  2 11  1  0
 11 12  2  0
 12 13  1  0
 13 14  2  0
 14 15  1  0
 14 16  1  0
 16 17  1  0
 17 18  1  0
 18 19  1  0
 19 20  2  0
 20 21  1  0
 21 22  2  0
 22 23  1  0
 23 24  2  0
 16 25  2  0
 25 26  1  0
  9  4  1  0
 25 11  1  0
 24 19  1  0
  5 27  1  0
  6 28  1  0
  7 29  1  0
  8 30  1  0
 10 31  1  0
 12 32  1  0
 13 33  1  0
 18 34  1  0
 18 35  1  0
 20 36  1  0
 21 37  1  0
 22 38  1  0
 23 39  1  0
 24 40  1  0
M  CHG  3   3  -1  15  -1  26  -1
M  END
>  <UniqueID>  (1) 
1

>  <SMILES>  (1) 
O=C([N-]c1ccccc1O)c1ccc([O-])c(OCc2ccccc2)c1[O-]

>  <Energy>  (1) 
53.34968384834366

>  <Genealogy>  (1) 
O=C([N-]c1ccccc1O)c1ccc([O-])c(OCc2ccccc2)c1[O-] (protonated)
O=C([N-]c1ccccc1O)c1ccc([O-])c(OCc2ccccc2)c1[O-] (3D coordinates assigned)
O=C([N-]c1ccccc1O)c1ccc([O-])c(OCc2ccccc2)c1[O-] (optimized conformer: 53.34968384834366 kcal/mol)

>  <smiles>  (1) 
O=C(Nc1ccccc1O)c1ccc(O)c(OCc2ccccc2)c1O

>  <score_type>  (1) 
oracle

>  <origin>  (1) 
adgpu

>  <m_score__min__energy>  (1) 
-11.970000000000001

>  <m_primary>  (1) 
energy

$$$$
1:0
     RDKit          3D

 55 58  0  0  0  0  0  0  0  0999 V2000
   -2.5000   18.2080  -25.9480 C   0  0  0  0  0  0  0  0  0  0  0  0
   -2.1920   19.2530  -26.9780 C   0  0  0  0  0  0  0  0  0  0  0  0
   -0.9000   19.3520  -27.5200 C   0  0  0  0  0  0  0  0  0  0  0  0
   -0.6030   20.3480  -28.4550 C   0  0  0  0  0  0  0  0  0  0  0  0
   -1.5910   21.2580  -28.8500 C   0  0  0  0  0  0  0  0  0  0  0  0
   -1.2120   22.5330  -30.0540 S   0  0  0  0  0  0  0  0  0  0  0  0
   -1.0440   23.8070  -28.7960 C   0  0  0  0  0  0  0  0  0  0  0  0
    0.2370   24.1850  -28.3750 C   0  0  0  0  0  0  0  0  0  0  0  0
    0.3950   25.1700  -27.3970 C   0  0  0  0  0  0  0  0  0  0  0  0
   -0.7270   25.7790  -26.8320 C   0  0  0  0  0  0  0  0  0  0  0  0
   -2.0090   25.4130  -27.2520 C   0  0  0  0  0  0  0  0  0  0  0  0
   -2.1780   24.4380  -28.2530 C   0  0  0  0  0  0  0  0  0  0  0  0
   -3.4870   24.0420  -28.6890 N   0  0  0  0  0  0  0  0  0  0  0  0
   -4.0360   24.2300  -30.0010 C   0  0  0  0  0  0  0  0  0  0  0  0
   -3.8540   25.3350  -30.5770 O   0  0  0  0  0  0  0  0  0  0  0  0
   -4.8500   23.1870  -30.6690 C   0  0  0  0  0  0  0  0  0  0  0  0
   -6.1960   23.0060  -30.3100 C   0  0  0  0  0  0  0  0  0  0  0  0
   -6.9700   22.0240  -30.9350 C   0  0  0  0  0  0  0  0  0  0  0  0
   -6.4060   21.2010  -31.9170 C   0  0  0  0  0  0  0  0  0  0  0  0
   -7.3910   19.9700  -32.7020 S   0  0  0  0  0  0  0  0  0  0  0  0
   -8.8340   20.2420  -32.3800 O   0  0  0  0  0  0  0  0  0  0  0  0
   -7.1960   20.0400  -34.1920 O   0  0  0  0  0  0  0  0  0  0  0  0
   -6.9250   18.3890  -32.1070 N   0  0  0  0  0  0  0  0  0  0  0  0
   -5.5150   18.3630  -31.6590 C   0  0  0  0  0  0  0  0  0  0  0  0
   -4.5710   17.7420  -32.7040 C   0  0  0  0  0  0  0  0  0  0  0  0
   -5.0270   18.0290  -34.0060 O   0  0  0  0  0  0  0  0  0  0  0  0
   -6.2280   17.3250  -34.2700 C   0  0  0  0  0  0  0  0  0  0  0  0
   -7.2250   17.3300  -33.0850 C   0  0  0  0  0  0  0  0  0  0  0  0
   -5.0610   21.3680  -32.2720 C   0  0  0  0  0  0  0  0  0  0  0  0
   -4.2860   22.3490  -31.6470 C   0  0  0  0  0  0  0  0  0  0  0  0
   -2.8730   21.1790  -28.2950 C   0  0  0  0  0  0  0  0  0  0  0  0
   -3.1730   20.1830  -27.3600 C   0  0  0  0  0  0  0  0  0  0  0  0
   -2.3739   18.6359  -24.9425 H   0  0  0  0  0  0  0  0  0  0  0  0
   -3.5375   17.8646  -26.0729 H   0  0  0  0  0  0  0  0  0  0  0  0
   -1.8145   17.3568  -26.0729 H   0  0  0  0  0  0  0  0  0  0  0  0
   -0.1189   18.6432  -27.2076 H   0  0  0  0  0  0  0  0  0  0  0  0
    0.4088   20.4169  -28.8811 H   0  0  0  0  0  0  0  0  0  0  0  0
    1.1226   23.7043  -28.8162 H   0  0  0  0  0  0  0  0  0  0  0  0
    1.4035   25.4657  -27.0721 H   0  0  0  0  0  0  0  0  0  0  0  0
   -0.6020   26.5479  -26.0553 H   0  0  0  0  0  0  0  0  0  0  0  0
   -2.8904   25.8894  -26.7979 H   0  0  0  0  0  0  0  0  0  0  0  0
   -6.6440   23.6413  -29.5318 H   0  0  0  0  0  0  0  0  0  0  0  0
   -8.0260   21.8975  -30.6542 H   0  0  0  0  0  0  0  0  0  0  0  0
   -5.1899   19.3949  -31.4602 H   0  0  0  0  0  0  0  0  0  0  0  0
   -5.4653   17.7393  -30.7542 H   0  0  0  0  0  0  0  0  0  0  0  0
   -3.5610   18.1577  -32.5733 H   0  0  0  0  0  0  0  0  0  0  0  0
   -4.5502   16.6511  -32.5643 H   0  0  0  0  0  0  0  0  0  0  0  0
   -6.7185   17.7884  -35.1387 H   0  0  0  0  0  0  0  0  0  0  0  0
   -5.9523   16.2761  -34.4542 H   0  0  0  0  0  0  0  0  0  0  0  0
   -8.2403   17.4883  -33.4776 H   0  0  0  0  0  0  0  0  0  0  0  0
   -7.1400   16.3620  -32.5696 H   0  0  0  0  0  0  0  0  0  0  0  0
   -4.6137   20.7254  -33.0446 H   0  0  0  0  0  0  0  0  0  0  0  0
   -3.2275   22.4662  -31.9222 H   0  0  0  0  0  0  0  0  0  0  0  0
   -3.6464   21.9016  -28.5946 H   0  0  0  0  0  0  0  0  0  0  0  0
   -4.1806   20.1278  -26.9223 H   0  0  0  0  0  0  0  0  0  0  0  0
  1  2  1  0
  2  3  2  0
  3  4  1  0
  4  5  2  0
  5  6  1  0
  6  7  1  0
  7  8  2  0
  8  9  1  0
  9 10  2  0
 10 11  1  0
 11 12  2  0
 12 13  1  0
 13 14  1  0
 14 15  2  0
 14 16  1  0
 16 17  2  0
 17 18  1  0
 18 19  2  0
 19 20  1  0
 20 21  2  0
 20 22  2  0
 20 23  1  0
 23 24  1  0
 24 25  1  0
 25 26  1  0
 26 27  1  0
 27 28  1  0
 19 29  1  0
 29 30  2  0
  5 31  1  0
 31 32  2  0
 32  2  1  0
 12  7  1  0
 30 16  1  0
 28 23  1  0
  1 33  1  0
  1 34  1  0
  1 35  1  0
  3 36  1  0
  4 37  1  0
  8 38  1  0
  9 39  1  0
 10 40  1  0
 11 41  1  0
 17 42  1  0
 18 43  1  0
 24 44  1  0
 24 45  1  0
 25 46  1  0
 25 47  1  0
 27 48  1  0
 27 49  1  0
 28 50  1  0
 28 51  1  0
 29 52  1  0
 30 53  1  0
 31 54  1  0
 32 55  1  0
M  CHG  1  13  -1
M  END
>  <UniqueID>  (2) 
2

>  <SMILES>  (2) 
Cc1ccc(Sc2ccccc2[N-]C(=O)c2ccc(S(=O)(=O)N3CCOCC3)cc2)cc1

>  <Energy>  (2) 
70.97004555171357

>  <Genealogy>  (2) 
Cc1ccc(Sc2ccccc2[N-]C(=O)c2ccc(S(=O)(=O)N3CCOCC3)cc2)cc1 (protonated)
Cc1ccc(Sc2ccccc2[N-]C(=O)c2ccc(S(=O)(=O)N3CCOCC3)cc2)cc1 (3D coordinates assigned)
Cc1ccc(Sc2ccccc2[N-]C(=O)c2ccc(S(=O)(=O)N3CCOCC3)cc2)cc1 (nonaromatic ring conformer: 70.97004555171357 kcal/mol)

>  <smiles>  (2) 
Cc1ccc(Sc2ccccc2NC(=O)c2ccc(S(=O)(=O)N3CCOCC3)cc2)cc1

>  <score_type>  (2) 
oracle

>  <origin>  (2) 
adgpu

>  <m_score__min__energy>  (2) 
-11.699999999999999

>  <m_primary>  (2) 
energy

$$$$
2:0
     RDKit          3D

 47 49  0  0  0  0  0  0  0  0999 V2000
   -7.7820   18.5510  -31.1910 O   0  0  0  0  0  0  0  0  0  0  0  0
   -8.2430   19.3980  -32.0030 C   0  0  0  0  0  0  0  0  0  0  0  0
   -9.0540   18.9600  -33.0440 O   0  0  0  0  0  0  0  0  0  0  0  0
   -7.9300   20.8360  -31.8500 C   0  0  0  0  0  0  0  0  0  0  0  0
   -8.9340   21.8090  -32.0030 C   0  0  0  0  0  0  0  0  0  0  0  0
   -8.6320   23.1650  -31.8590 C   0  0  0  0  0  0  0  0  0  0  0  0
   -7.3280   23.5660  -31.5610 C   0  0  0  0  0  0  0  0  0  0  0  0
   -6.3180   22.6110  -31.4010 C   0  0  0  0  0  0  0  0  0  0  0  0
   -4.6790   23.1240  -31.0140 S   0  0  0  0  0  0  0  0  0  0  0  0
   -4.6150   24.6180  -30.8500 O   0  0  0  0  0  0  0  0  0  0  0  0
   -4.2570   22.4720  -29.7290 O   0  0  0  0  0  0  0  0  0  0  0  0
   -3.5910   22.6480  -32.2770 N   0  0  0  0  0  0  0  0  0  0  0  0
   -3.3420   21.2980  -32.6900 C   0  0  0  0  0  0  0  0  0  0  0  0
   -2.0940   20.6760  -32.5040 C   0  0  0  0  0  0  0  0  0  0  0  0
   -1.8940   19.3600  -32.9300 C   0  0  0  0  0  0  0  0  0  0  0  0
   -2.9340   18.6540  -33.5400 C   0  0  0  0  0  0  0  0  0  0  0  0
   -4.1800   19.2640  -33.7300 C   0  0  0  0  0  0  0  0  0  0  0  0
   -5.4950   18.3510  -34.4700 S   0  0  0  0  0  0  0  0  0  0  0  0
   -6.4730   19.2960  -35.1120 O   0  0  0  0  0  0  0  0  0  0  0  0
   -4.9140   17.4740  -35.5450 O   0  0  0  0  0  0  0  0  0  0  0  0
   -6.3010   17.3490  -33.2790 N   0  0  0  0  0  0  0  0  0  0  0  0
   -6.8110   16.0930  -33.8760 C   0  0  0  0  0  0  0  0  0  0  0  0
   -5.6910   15.0910  -34.2180 C   0  0  0  0  0  0  0  0  0  0  0  0
   -4.5850   15.0320  -33.1500 C   0  0  0  0  0  0  0  0  0  0  0  0
   -5.0220   15.6840  -31.8400 C   0  0  0  0  0  0  0  0  0  0  0  0
   -5.4480   17.1450  -32.0730 C   0  0  0  0  0  0  0  0  0  0  0  0
   -4.3800   20.5830  -33.3020 C   0  0  0  0  0  0  0  0  0  0  0  0
   -6.6190   21.2490  -31.5500 C   0  0  0  0  0  0  0  0  0  0  0  0
   -9.9634   21.5001  -32.2375 H   0  0  0  0  0  0  0  0  0  0  0  0
   -9.4235   23.9191  -31.9807 H   0  0  0  0  0  0  0  0  0  0  0  0
   -7.0943   24.6353  -31.4518 H   0  0  0  0  0  0  0  0  0  0  0  0
   -1.2731   21.2270  -32.0218 H   0  0  0  0  0  0  0  0  0  0  0  0
   -0.9155   18.8789  -32.7847 H   0  0  0  0  0  0  0  0  0  0  0  0
   -2.7737   17.6174  -33.8715 H   0  0  0  0  0  0  0  0  0  0  0  0
   -7.1420   17.8970  -32.9820 H   0  0  0  0  0  0  0  0  0  0  0  0
   -7.4991   15.6189  -33.1606 H   0  0  0  0  0  0  0  0  0  0  0  0
   -7.3153   16.3570  -34.8173 H   0  0  0  0  0  0  0  0  0  0  0  0
   -6.1356   14.0897  -34.3168 H   0  0  0  0  0  0  0  0  0  0  0  0
   -5.2239   15.4294  -35.1546 H   0  0  0  0  0  0  0  0  0  0  0  0
   -4.3336   13.9788  -32.9564 H   0  0  0  0  0  0  0  0  0  0  0  0
   -3.7135   15.5844  -33.5313 H   0  0  0  0  0  0  0  0  0  0  0  0
   -5.8712   15.1226  -31.4233 H   0  0  0  0  0  0  0  0  0  0  0  0
   -4.1742   15.6710  -31.1392 H   0  0  0  0  0  0  0  0  0  0  0  0
   -6.0108   17.4849  -31.1911 H   0  0  0  0  0  0  0  0  0  0  0  0
   -4.5252   17.7204  -32.2380 H   0  0  0  0  0  0  0  0  0  0  0  0
   -5.3599   21.0611  -33.4476 H   0  0  0  0  0  0  0  0  0  0  0  0
   -5.8239   20.4982  -31.4314 H   0  0  0  0  0  0  0  0  0  0  0  0
  1  2  2  0
  2  3  1  0
  2  4  1  0
  4  5  2  0
  5  6  1  0
  6  7  2  0
  7  8  1  0
  8  9  1  0
  9 10  2  0
  9 11  2  0
  9 12  1  0
 12 13  1  0
 13 14  2  0
 14 15  1  0
 15 16  2  0
 16 17  1  0
 17 18  1  0
 18 19  2  0
 18 20  2  0
 18 21  1  0
 21 22  1  0
 22 23  1  0
 23 24  1  0
 24 25  1  0
 25 26  1  0
 17 27  2  0
  8 28  2  0
 28  4  1  0
 27 13  1  0
 26 21  1  0
  5 29  1  0
  6 30  1  0
  7 31  1  0
 14 32  1  0
 15 33  1  0
 16 34  1  0
 21 35  1  0
 22 36  1  0
 22 37  1  0
 23 38  1  0
 23 39  1  0
 24 40  1  0
 24 41  1  0
 25 42  1  0
 25 43  1  0
 26 44  1  0
 26 45  1  0
 27 46  1  0
 28 47  1  0
M  CHG  3   3  -1  12  -1  21   1
M  END
>  <UniqueID>  (3) 
3

>  <SMILES>  (3) 
O=C([O-])c1cccc(S(=O)(=O)[N-]c2cccc(S(=O)(=O)[NH+]3CCCCC3)c2)c1

>  <Energy>  (3) 
58.72281847019608

>  <Genealogy>  (3) 
O=C([O-])c1cccc(S(=O)(=O)[N-]c2cccc(S(=O)(=O)[NH+]3CCCCC3)c2)c1 (protonated)
O=C([O-])c1cccc(S(=O)(=O)[N-]c2cccc(S(=O)(=O)[NH+]3CCCCC3)c2)c1 (3D coordinates assigned)
O=C([O-])c1cccc(S(=O)(=O)[N-]c2cccc(S(=O)(=O)[NH+]3CCCCC3)c2)c1 (nonaromatic ring conformer: 58.72281847019608 kcal/mol)

>  <smiles>  (3) 
O=C(O)c1cccc(S(=O)(=O)Nc2cccc(S(=O)(=O)N3CCCCC3)c2)c1

>  <score_type>  (3) 
oracle

>  <origin>  (3) 
adgpu

>  <m_score__min__energy>  (3) 
-11.869999999999999

>  <m_primary>  (3) 
energy

$$$$
3:0
     RDKit          3D

 61 64  0  0  0  0  0  0  0  0999 V2000
   -6.0300   24.1600  -29.4220 O   0  0  0  0  0  0  0  0  0  0  0  0
   -4.7880   24.0660  -30.2640 S   0  0  0  0  0  0  0  0  0  0  0  0
   -4.6030   25.3500  -31.0160 O   0  0  0  0  0  0  0  0  0  0  0  0
   -4.9370   22.7480  -31.3860 N   0  0  0  0  0  0  0  0  0  0  0  0
   -6.1770   22.0750  -31.6390 C   0  0  0  0  0  0  0  0  0  0  0  0
   -6.2330   20.6840  -31.7360 C   0  0  0  0  0  0  0  0  0  0  0  0
   -7.4610   20.0280  -31.8920 C   0  0  0  0  0  0  0  0  0  0  0  0
   -7.5070   18.2690  -32.0190 S   0  0  0  0  0  0  0  0  0  0  0  0
   -6.7290   17.6710  -30.8820 O   0  0  0  0  0  0  0  0  0  0  0  0
   -8.9320   17.7930  -31.9070 O   0  0  0  0  0  0  0  0  0  0  0  0
   -6.8200   17.7200  -33.5310 N   0  0  0  0  0  0  0  0  0  0  0  0
   -6.1360   18.8170  -34.2530 C   0  0  0  0  0  0  0  0  0  0  0  0
   -4.6040   18.7390  -34.1370 C   0  0  0  0  0  0  0  0  0  0  0  0
   -4.0830   17.4110  -34.7090 C   0  0  0  0  0  0  0  0  0  0  0  0
   -5.0540   16.2380  -34.4800 C   0  0  0  0  0  0  0  0  0  0  0  0
   -5.9930   16.5090  -33.3040 C   0  0  0  0  0  0  0  0  0  0  0  0
   -8.6400   20.7770  -31.9740 C   0  0  0  0  0  0  0  0  0  0  0  0
   -8.5860   22.1640  -31.9270 C   0  0  0  0  0  0  0  0  0  0  0  0
   -7.3570   22.8160  -31.7630 C   0  0  0  0  0  0  0  0  0  0  0  0
   -7.3020   24.1950  -31.7030 O   0  0  0  0  0  0  0  0  0  0  0  0
   -3.4200   23.7390  -29.2160 C   0  0  0  0  0  0  0  0  0  0  0  0
   -2.1890   23.4120  -29.7950 C   0  0  0  0  0  0  0  0  0  0  0  0
   -1.0210   23.4530  -29.0320 C   0  0  0  0  0  0  0  0  0  0  0  0
   -1.0790   23.8130  -27.6820 C   0  0  0  0  0  0  0  0  0  0  0  0
    0.4160   24.1830  -26.8420 S   0  0  0  0  0  0  0  0  0  0  0  0
    0.8910   22.9830  -26.0710 O   0  0  0  0  0  0  0  0  0  0  0  0
    1.4650   24.5610  -27.8450 O   0  0  0  0  0  0  0  0  0  0  0  0
    0.1210   25.5230  -25.7630 N   0  0  0  0  0  0  0  0  0  0  0  0
   -0.6640   26.5630  -26.4500 C   0  0  0  0  0  0  0  0  0  0  0  0
   -1.2290   27.5840  -25.4410 C   0  0  0  0  0  0  0  0  0  0  0  0
   -0.5390   27.5050  -24.2100 O   0  0  0  0  0  0  0  0  0  0  0  0
   -0.7890   26.2510  -23.5970 C   0  0  0  0  0  0  0  0  0  0  0  0
   -0.5930   25.0650  -24.5700 C   0  0  0  0  0  0  0  0  0  0  0  0
   -2.3220   24.0530  -27.0780 C   0  0  0  0  0  0  0  0  0  0  0  0
   -3.4880   24.0120  -27.8430 C   0  0  0  0  0  0  0  0  0  0  0  0
   -5.3039   20.0969  -31.6895 H   0  0  0  0  0  0  0  0  0  0  0  0
   -6.4116   18.7639  -35.3166 H   0  0  0  0  0  0  0  0  0  0  0  0
   -6.4560   19.7654  -33.7969 H   0  0  0  0  0  0  0  0  0  0  0  0
   -4.1565   19.5736  -34.6967 H   0  0  0  0  0  0  0  0  0  0  0  0
   -4.3262   18.7997  -33.0744 H   0  0  0  0  0  0  0  0  0  0  0  0
   -3.9276   17.5319  -35.7912 H   0  0  0  0  0  0  0  0  0  0  0  0
   -3.1460   17.1710  -34.1852 H   0  0  0  0  0  0  0  0  0  0  0  0
   -5.6543   16.0882  -35.3895 H   0  0  0  0  0  0  0  0  0  0  0  0
   -4.4620   15.3401  -34.2491 H   0  0  0  0  0  0  0  0  0  0  0  0
   -6.6579   15.6428  -33.1715 H   0  0  0  0  0  0  0  0  0  0  0  0
   -5.3796   16.6755  -32.4062 H   0  0  0  0  0  0  0  0  0  0  0  0
   -9.6095   20.2674  -32.0757 H   0  0  0  0  0  0  0  0  0  0  0  0
   -9.5109   22.7523  -32.0188 H   0  0  0  0  0  0  0  0  0  0  0  0
   -6.4390   24.6750  -31.4830 H   0  0  0  0  0  0  0  0  0  0  0  0
   -2.1415   23.1217  -30.8549 H   0  0  0  0  0  0  0  0  0  0  0  0
   -0.0543   23.2020  -29.4929 H   0  0  0  0  0  0  0  0  0  0  0  0
   -0.0164   27.0872  -27.1682 H   0  0  0  0  0  0  0  0  0  0  0  0
   -1.5050   26.0816  -26.9705 H   0  0  0  0  0  0  0  0  0  0  0  0
   -1.1177   28.5979  -25.8528 H   0  0  0  0  0  0  0  0  0  0  0  0
   -2.2911   27.3573  -25.2660 H   0  0  0  0  0  0  0  0  0  0  0  0
   -0.0988   26.1292  -22.7492 H   0  0  0  0  0  0  0  0  0  0  0  0
   -1.8389   26.2434  -23.2690 H   0  0  0  0  0  0  0  0  0  0  0  0
   -0.0085   24.2765  -24.0734 H   0  0  0  0  0  0  0  0  0  0  0  0
   -1.5753   24.6655  -24.8624 H   0  0  0  0  0  0  0  0  0  0  0  0
   -2.3774   24.2734  -26.0017 H   0  0  0  0  0  0  0  0  0  0  0  0
   -4.4630   24.1944  -27.3674 H   0  0  0  0  0  0  0  0  0  0  0  0
  1  2  2  0
  2  3  2  0
  2  4  1  0
  4  5  1  0
  5  6  2  0
  6  7  1  0
  7  8  1  0
  8  9  2  0
  8 10  2  0
  8 11  1  0
 11 12  1  0
 12 13  1  0
 13 14  1  0
 14 15  1  0
 15 16  1  0
  7 17  2  0
 17 18  1  0
 18 19  2  0
 19 20  1  0
  2 21  1  0
 21 22  2  0
 22 23  1  0
 23 24  2  0
 24 25  1  0
 25 26  2  0
 25 27  2  0
 25 28  1  0
 28 29  1  0
 29 30  1  0
 30 31  1  0
 31 32  1  0
 32 33  1  0
 24 34  1  0
 34 35  2  0
 19  5  1  0
 35 21  1  0
 16 11  1  0
 33 28  1  0
  6 36  1  0
 12 37  1  0
 12 38  1  0
 13 39  1  0
 13 40  1  0
 14 41  1  0
 14 42  1  0
 15 43  1  0
 15 44  1  0
 16 45  1  0
 16 46  1  0
 17 47  1  0
 18 48  1  0
 20 49  1  0
 22 50  1  0
 23 51  1  0
 29 52  1  0
 29 53  1  0
 30 54  1  0
 30 55  1  0
 32 56  1  0
 32 57  1  0
 33 58  1  0
 33 59  1  0
 34 60  1  0
 35 61  1  0
M  CHG  1   4  -1
M  END
>  <UniqueID>  (4) 
4

>  <SMILES>  (4) 
O=S(=O)([N-]c1cc(S(=O)(=O)N2CCCCC2)ccc1O)c1ccc(S(=O)(=O)N2CCOCC2)cc1

>  <Energy>  (4) 
78.50907085509142

>  <Genealogy>  (4) 
O=S(=O)([N-]c1cc(S(=O)(=O)N2CCCCC2)ccc1O)c1ccc(S(=O)(=O)N2CCOCC2)cc1 (protonated)
O=S(=O)([N-]c1cc(S(=O)(=O)N2CCCCC2)ccc1O)c1ccc(S(=O)(=O)N2CCOCC2)cc1 (3D coordinates assigned)
O=S(=O)([N-]c1cc(S(=O)(=O)N2CCCCC2)ccc1O)c1ccc(S(=O)(=O)N2CCOCC2)cc1 (nonaromatic ring conformer: 78.50907085509142 kcal/mol)

>  <smiles>  (4) 
O=S(=O)(Nc1cc(S(=O)(=O)N2CCCCC2)ccc1O)c1ccc(S(=O)(=O)N2CCOCC2)cc1

>  <score_type>  (4) 
oracle

>  <origin>  (4) 
adgpu

>  <m_score__min__energy>  (4) 
-13.119999999999999

>  <m_primary>  (4) 
energy

$$$$
4:0
     RDKit          3D

 47 50  0  0  0  0  0  0  0  0999 V2000
   -6.1036   23.7264  -29.2621 H   0  0  0  0  0  0  0  0  0  0  0  0
   -5.1640   23.2190  -29.5260 C   0  0  0  0  0  0  0  0  0  0  0  0
   -3.9220   23.6720  -28.8680 C   0  0  0  0  0  0  0  0  0  0  0  0
   -3.5100   23.0880  -27.6580 C   0  0  0  0  0  0  0  0  0  0  0  0
   -4.1093   22.2844  -27.2051 H   0  0  0  0  0  0  0  0  0  0  0  0
   -2.3410   23.5250  -27.0280 C   0  0  0  0  0  0  0  0  0  0  0  0
   -2.0173   23.0582  -26.0860 H   0  0  0  0  0  0  0  0  0  0  0  0
   -1.5810   24.5570  -27.5950 C   0  0  0  0  0  0  0  0  0  0  0  0
   -0.6583   24.8945  -27.1003 H   0  0  0  0  0  0  0  0  0  0  0  0
   -1.9940   25.1600  -28.7910 C   0  0  0  0  0  0  0  0  0  0  0  0
   -1.2300   26.1820  -29.3470 O   0  0  0  0  0  0  0  0  0  0  0  0
   -3.1670   24.7240  -29.4240 C   0  0  0  0  0  0  0  0  0  0  0  0
   -3.5710   25.3300  -30.6110 O   0  0  0  0  0  0  0  0  0  0  0  0
   -5.2150   22.2250  -30.4270 C   0  0  0  0  0  0  0  0  0  0  0  0
   -6.6350   21.6880  -31.1390 S   0  0  0  0  0  0  0  0  0  0  0  0
   -5.8940   20.5200  -32.1140 C   0  0  0  0  0  0  0  0  0  0  0  0
   -6.5880   19.6640  -32.9080 C   0  0  0  0  0  0  0  0  0  0  0  0
   -8.0020   19.8760  -33.1150 C   0  0  0  0  0  0  0  0  0  0  0  0
   -9.1360   20.0390  -33.2750 N   0  0  0  0  0  0  0  0  0  0  0  0
   -6.0350   18.4070  -33.4570 C   0  0  0  0  0  0  0  0  0  0  0  0
   -5.8360   18.3120  -34.7000 O   0  0  0  0  0  0  0  0  0  0  0  0
   -5.9020   17.2550  -32.6130 N   0  0  0  0  0  0  0  0  0  0  0  0
   -5.4500   15.9410  -32.9820 C   0  0  0  0  0  0  0  0  0  0  0  0
   -4.2420   15.4840  -32.4310 C   0  0  0  0  0  0  0  0  0  0  0  0
   -3.6880   16.1231  -31.7278 H   0  0  0  0  0  0  0  0  0  0  0  0
   -3.7370   14.2260  -32.7670 C   0  0  0  0  0  0  0  0  0  0  0  0
   -2.7980   13.8726  -32.3161 H   0  0  0  0  0  0  0  0  0  0  0  0
   -4.4230   13.4160  -33.6750 C   0  0  0  0  0  0  0  0  0  0  0  0
   -4.0300   12.4211  -33.9315 H   0  0  0  0  0  0  0  0  0  0  0  0
   -5.6090   13.8710  -34.2570 C   0  0  0  0  0  0  0  0  0  0  0  0
   -6.1437   13.2344  -34.9774 H   0  0  0  0  0  0  0  0  0  0  0  0
   -6.1210   15.1320  -33.9290 C   0  0  0  0  0  0  0  0  0  0  0  0
   -7.2700   15.5710  -34.5760 O   0  0  0  0  0  0  0  0  0  0  0  0
   -4.5330   20.5680  -31.9400 N   0  0  0  0  0  0  0  0  0  0  0  0
   -3.5520   19.9970  -32.8250 C   0  0  0  0  0  0  0  0  0  0  0  0
   -2.8380   20.8210  -33.7090 C   0  0  0  0  0  0  0  0  0  0  0  0
   -3.0900   21.8890  -33.7861 H   0  0  0  0  0  0  0  0  0  0  0  0
   -1.8080   20.2910  -34.4920 C   0  0  0  0  0  0  0  0  0  0  0  0
   -1.2511   20.9416  -35.1824 H   0  0  0  0  0  0  0  0  0  0  0  0
   -1.4860   18.9330  -34.3970 C   0  0  0  0  0  0  0  0  0  0  0  0
   -0.6776   18.5154  -35.0151 H   0  0  0  0  0  0  0  0  0  0  0  0
   -2.1900   18.1070  -33.5180 C   0  0  0  0  0  0  0  0  0  0  0  0
   -1.9409   17.0377  -33.4505 H   0  0  0  0  0  0  0  0  0  0  0  0
   -3.2120   18.6380  -32.7230 C   0  0  0  0  0  0  0  0  0  0  0  0
   -3.7505   17.9894  -32.0164 H   0  0  0  0  0  0  0  0  0  0  0  0
   -4.1650   21.5020  -31.0040 C   0  0  0  0  0  0  0  0  0  0  0  0
   -2.9530   21.7350  -30.7430 O   0  0  0  0  0  0  0  0  0  0  0  0
  1  2  1  0
  2  3  1  0
  3  4  2  0
  4  5  1  0
  4  6  1  0
  6  7  1  0
  6  8  2  0
  8  9  1  0
  8 10  1  0
 10 11  1  0
 10 12  2  0
 12 13  1  0
  2 14  2  3
 14 15  1  0
 15 16  1  0
 16 17  2  0
 17 18  1  0
 18 19  3  0
 17 20  1  0
 20 21  2  0
 20 22  1  0
 22 23  1  0
 23 24  2  0
 24 25  1  0
 24 26  1  0
 26 27  1  0
 26 28  2  0
 28 29  1  0
 28 30  1  0
 30 31  1  0
 30 32  2  0
 32 33  1  0
 16 34  1  0
 34 35  1  0
 35 36  2  0
 36 37  1  0
 36 38  1  0
 38 39  1  0
 38 40  2  0
 40 41  1  0
 40 42  1  0
 42 43  1  0
 42 44  2  0
 44 45  1  0
 34 46  1  0
 46 47  2  0
 12  3  1  0
 46 14  1  0
 32 23  1  0
 44 35  1  0
M  CHG  4  11  -1  13  -1  22  -1  33  -1
M  END
>  <UniqueID>  (5) 
5

>  <SMILES>  (5) 
N#C/C(C(=O)[N-]c1ccccc1[O-])=c1\sc(=Cc2cccc([O-])c2[O-])c(=O)n1-c1ccccc1

>  <Energy>  (5) 
115.31036098740144

>  <Genealogy>  (5) 
N#CC(C(=O)[N-]c1ccccc1[O-])=c1sc(=Cc2cccc([O-])c2[O-])c(=O)n1-c1ccccc1 (protonated)
N#C/C(C(=O)[N-]c1ccccc1[O-])=c1\sc(=Cc2cccc([O-])c2[O-])c(=O)n1-c1ccccc1 (cis-trans isomerization)
N#C/C(C(=O)[N-]c1ccccc1[O-])=c1\sc(=Cc2cccc([O-])c2[O-])c(=O)n1-c1ccccc1 (3D coordinates assigned)
N#C/C(C(=O)[N-]c1ccccc1[O-])=c1\sc(=Cc2cccc([O-])c2[O-])c(=O)n1-c1ccccc1 (optimized conformer: 115.31036098740144 kcal/mol)

>  <smiles>  (5) 
N#CC(C(=O)Nc1ccccc1O)=c1sc(=Cc2cccc(O)c2O)c(=O)n1-c1ccccc1

>  <score_type>  (5) 
oracle

>  <origin>  (5) 
adgpu

>  <m_score__min__energy>  (5) 
-15.140000000000001

>  <m_primary>  (5) 
energy

$$$$
5:0
     RDKit          3D

 58 61  0  0  0  0  0  0  0  0999 V2000
   -3.8700   25.5180  -30.4000 O   0  0  0  0  0  0  0  0  0  0  0  0
   -3.4930   24.3170  -30.3710 C   0  0  0  0  0  0  0  0  0  0  0  0
   -3.9270   23.4370  -31.4170 N   0  0  0  0  0  0  0  0  0  0  0  0
   -5.2600   22.9390  -31.5990 C   0  0  0  0  0  0  0  0  0  0  0  0
   -6.3860   23.6950  -31.2250 C   0  0  0  0  0  0  0  0  0  0  0  0
   -7.6710   23.1820  -31.4180 C   0  0  0  0  0  0  0  0  0  0  0  0
   -7.8440   21.9200  -31.9930 C   0  0  0  0  0  0  0  0  0  0  0  0
   -6.7300   21.1660  -32.3820 C   0  0  0  0  0  0  0  0  0  0  0  0
   -6.9640   19.5840  -33.1220 S   0  0  0  0  0  0  0  0  0  0  0  0
   -8.4110   19.1870  -33.0270 O   0  0  0  0  0  0  0  0  0  0  0  0
   -6.5850   19.6750  -34.5740 O   0  0  0  0  0  0  0  0  0  0  0  0
   -5.9510   18.4140  -32.3030 N   0  0  0  0  0  0  0  0  0  0  0  0
   -6.5150   17.0420  -32.3760 C   0  0  0  0  0  0  0  0  0  0  0  0
   -5.6250   16.0360  -33.1280 C   0  0  0  0  0  0  0  0  0  0  0  0
   -5.0780   16.6600  -34.4100 C   0  0  0  0  0  0  0  0  0  0  0  0
   -4.2880   17.9510  -34.1310 C   0  0  0  0  0  0  0  0  0  0  0  0
   -4.5400   18.5220  -32.7220 C   0  0  0  0  0  0  0  0  0  0  0  0
   -5.4410   21.6860  -32.1960 C   0  0  0  0  0  0  0  0  0  0  0  0
   -2.5600   23.8690  -29.3060 C   0  0  0  0  0  0  0  0  0  0  0  0
   -2.6830   22.5770  -28.7650 C   0  0  0  0  0  0  0  0  0  0  0  0
   -1.8180   22.1400  -27.7550 C   0  0  0  0  0  0  0  0  0  0  0  0
   -2.0190   20.5290  -27.0730 S   0  0  0  0  0  0  0  0  0  0  0  0
   -3.4760   20.1630  -27.1130 O   0  0  0  0  0  0  0  0  0  0  0  0
   -1.5440   20.5150  -25.6440 O   0  0  0  0  0  0  0  0  0  0  0  0
   -1.1030   19.3780  -28.0160 N   0  0  0  0  0  0  0  0  0  0  0  0
    0.1720   19.9420  -28.4570 C   0  0  0  0  0  0  0  0  0  0  0  0
    1.1350   18.7740  -28.6130 C   0  0  0  0  0  0  0  0  0  0  0  0
    0.5090   17.6250  -27.8380 C   0  0  0  0  0  0  0  0  0  0  0  0
   -0.7580   18.1990  -27.2250 C   0  0  0  0  0  0  0  0  0  0  0  0
   -0.8130   22.9920  -27.2850 C   0  0  0  0  0  0  0  0  0  0  0  0
   -0.6710   24.2720  -27.8270 C   0  0  0  0  0  0  0  0  0  0  0  0
   -1.5370   24.7150  -28.8320 C   0  0  0  0  0  0  0  0  0  0  0  0
   -1.3820   26.0010  -29.3380 O   0  0  0  0  0  0  0  0  0  0  0  0
   -6.2543   24.6922  -30.7797 H   0  0  0  0  0  0  0  0  0  0  0  0
   -8.5487   23.7727  -31.1167 H   0  0  0  0  0  0  0  0  0  0  0  0
   -8.8573   21.5182  -32.1403 H   0  0  0  0  0  0  0  0  0  0  0  0
   -6.6618   16.6738  -31.3499 H   0  0  0  0  0  0  0  0  0  0  0  0
   -7.4567   17.1157  -32.9396 H   0  0  0  0  0  0  0  0  0  0  0  0
   -4.7850   15.7419  -32.4815 H   0  0  0  0  0  0  0  0  0  0  0  0
   -6.2281   15.1543  -33.3906 H   0  0  0  0  0  0  0  0  0  0  0  0
   -4.4122   15.9354  -34.9017 H   0  0  0  0  0  0  0  0  0  0  0  0
   -5.9318   16.9166  -35.0543 H   0  0  0  0  0  0  0  0  0  0  0  0
   -3.2146   17.7336  -34.2337 H   0  0  0  0  0  0  0  0  0  0  0  0
   -4.6268   18.7057  -34.8559 H   0  0  0  0  0  0  0  0  0  0  0  0
   -3.9170   17.9700  -32.0029 H   0  0  0  0  0  0  0  0  0  0  0  0
   -4.2842   19.5915  -32.7484 H   0  0  0  0  0  0  0  0  0  0  0  0
   -4.5657   21.1049  -32.5217 H   0  0  0  0  0  0  0  0  0  0  0  0
   -3.4672   21.9026  -29.1394 H   0  0  0  0  0  0  0  0  0  0  0  0
    0.0451   20.4600  -29.4190 H   0  0  0  0  0  0  0  0  0  0  0  0
    0.5530   20.6753  -27.7310 H   0  0  0  0  0  0  0  0  0  0  0  0
    1.2462   18.5065  -29.6742 H   0  0  0  0  0  0  0  0  0  0  0  0
    2.1393   19.0202  -28.2377 H   0  0  0  0  0  0  0  0  0  0  0  0
    0.2669   16.7912  -28.5134 H   0  0  0  0  0  0  0  0  0  0  0  0
    1.1911   17.2264  -27.0726 H   0  0  0  0  0  0  0  0  0  0  0  0
   -1.5711   17.4595  -27.2703 H   0  0  0  0  0  0  0  0  0  0  0  0
   -0.6059   18.4597  -26.1672 H   0  0  0  0  0  0  0  0  0  0  0  0
   -0.1341   22.6541  -26.4882 H   0  0  0  0  0  0  0  0  0  0  0  0
    0.1266   24.9352  -27.4611 H   0  0  0  0  0  0  0  0  0  0  0  0
  1  2  2  0
  2  3  1  0
  3  4  1  0
  4  5  2  0
  5  6  1  0
  6  7  2  0
  7  8  1  0
  8  9  1  0
  9 10  2  0
  9 11  2  0
  9 12  1  0
 12 13  1  0
 13 14  1  0
 14 15  1  0
 15 16  1  0
 16 17  1  0
  8 18  2  0
  2 19  1  0
 19 20  2  0
 20 21  1  0
 21 22  1  0
 22 23  2  0
 22 24  2  0
 22 25  1  0
 25 26  1  0
 26 27  1  0
 27 28  1  0
 28 29  1  0
 21 30  2  0
 30 31  1  0
 31 32  2  0
 32 33  1  0
 18  4  1  0
 32 19  1  0
 17 12  1  0
 29 25  1  0
  5 34  1  0
  6 35  1  0
  7 36  1  0
 13 37  1  0
 13 38  1  0
 14 39  1  0
 14 40  1  0
 15 41  1  0
 15 42  1  0
 16 43  1  0
 16 44  1  0
 17 45  1  0
 17 46  1  0
 18 47  1  0
 20 48  1  0
 26 49  1  0
 26 50  1  0
 27 51  1  0
 27 52  1  0
 28 53  1  0
 28 54  1  0
 29 55  1  0
 29 56  1  0
 30 57  1  0
 31 58  1  0
M  CHG  2   3  -1  33  -1
M  END
>  <UniqueID>  (6) 
6

>  <SMILES>  (6) 
O=C([N-]c1cccc(S(=O)(=O)N2CCCCC2)c1)c1cc(S(=O)(=O)N2CCCC2)ccc1[O-]

>  <Energy>  (6) 
74.73450767660938

>  <Genealogy>  (6) 
O=C([N-]c1cccc(S(=O)(=O)N2CCCCC2)c1)c1cc(S(=O)(=O)N2CCCC2)ccc1[O-] (protonated)
O=C([N-]c1cccc(S(=O)(=O)N2CCCCC2)c1)c1cc(S(=O)(=O)N2CCCC2)ccc1[O-] (3D coordinates assigned)
O=C([N-]c1cccc(S(=O)(=O)N2CCCCC2)c1)c1cc(S(=O)(=O)N2CCCC2)ccc1[O-] (nonaromatic ring conformer: 74.73450767660938 kcal/mol)

>  <smiles>  (6) 
O=C(Nc1cccc(S(=O)(=O)N2CCCCC2)c1)c1cc(S(=O)(=O)N2CCCC2)ccc1O

>  <score_type>  (6) 
oracle

>  <origin>  (6) 
adgpu

>  <m_score__min__energy>  (6) 
-15.289999999999999

>  <m_primary>  (6) 
energy

$$$$
6:0
     RDKit          3D

 63 66  0  0  0  0  0  0  0  0999 V2000
   -7.6930   17.6280  -32.8920 N   0  0  0  0  0  0  0  0  0  0  0  0
   -8.6140   18.9180  -32.2030 S   0  0  0  0  0  0  0  0  0  0  0  0
   -9.7880   19.2050  -33.0960 O   0  0  0  0  0  0  0  0  0  0  0  0
   -9.1080   18.5150  -30.8430 O   0  0  0  0  0  0  0  0  0  0  0  0
   -7.6040   20.3520  -32.0570 C   0  0  0  0  0  0  0  0  0  0  0  0
   -6.3110   20.3730  -32.5980 C   0  0  0  0  0  0  0  0  0  0  0  0
   -5.5280   21.5300  -32.5100 C   0  0  0  0  0  0  0  0  0  0  0  0
   -6.0350   22.6800  -31.8780 C   0  0  0  0  0  0  0  0  0  0  0  0
   -5.2830   23.8990  -31.7970 N   0  0  0  0  0  0  0  0  0  0  0  0
   -4.5200   24.5060  -30.3620 S   0  0  0  0  0  0  0  0  0  0  0  0
   -4.3310   25.9930  -30.4870 O   0  0  0  0  0  0  0  0  0  0  0  0
   -5.4170   24.2450  -29.1860 O   0  0  0  0  0  0  0  0  0  0  0  0
   -2.9750   23.6960  -30.0980 C   0  0  0  0  0  0  0  0  0  0  0  0
   -2.7760   22.3880  -30.5630 C   0  0  0  0  0  0  0  0  0  0  0  0
   -1.5400   21.7560  -30.3910 C   0  0  0  0  0  0  0  0  0  0  0  0
   -1.2890   20.1060  -30.9540 S   0  0  0  0  0  0  0  0  0  0  0  0
   -0.2080   20.0830  -32.0020 O   0  0  0  0  0  0  0  0  0  0  0  0
   -2.5660   19.6120  -31.5760 O   0  0  0  0  0  0  0  0  0  0  0  0
   -0.8490   19.0770  -29.6130 N   0  0  0  0  0  0  0  0  0  0  0  0
   -1.4040   19.6310  -28.3600 C   0  0  0  0  0  0  0  0  0  0  0  0
   -0.8300   18.9430  -27.1020 C   0  0  0  0  0  0  0  0  0  0  0  0
   -0.0710   17.6600  -27.4510 C   0  0  0  0  0  0  0  0  0  0  0  0
    1.0410   17.9390  -28.4730 C   0  0  0  0  0  0  0  0  0  0  0  0
    0.6180   18.9760  -29.5330 C   0  0  0  0  0  0  0  0  0  0  0  0
   -0.4870   22.4470  -29.7790 C   0  0  0  0  0  0  0  0  0  0  0  0
   -0.6690   23.7630  -29.3210 C   0  0  0  0  0  0  0  0  0  0  0  0
    0.3920   24.4800  -28.6740 N   0  0  0  0  0  0  0  0  0  0  0  0
    0.9620   24.1410  -27.4060 C   0  0  0  0  0  0  0  0  0  0  0  0
    2.1770   23.8120  -27.3270 O   0  0  0  0  0  0  0  0  0  0  0  0
    0.1580   24.2810  -26.2280 N   0  0  0  0  0  0  0  0  0  0  0  0
   -0.1520   25.4800  -25.4970 C   0  0  0  0  0  0  0  0  0  0  0  0
   -0.3200   25.4850  -24.0960 C   0  0  0  0  0  0  0  0  0  0  0  0
   -0.5960   26.6780  -23.4210 C   0  0  0  0  0  0  0  0  0  0  0  0
   -0.7260   27.8730  -24.1310 C   0  0  0  0  0  0  0  0  0  0  0  0
   -0.5970   27.8740  -25.5220 C   0  0  0  0  0  0  0  0  0  0  0  0
   -0.3190   26.6860  -26.2090 C   0  0  0  0  0  0  0  0  0  0  0  0
   -0.1930   26.7330  -27.5980 O   0  0  0  0  0  0  0  0  0  0  0  0
   -1.9230   24.3730  -29.4580 C   0  0  0  0  0  0  0  0  0  0  0  0
   -2.1160   25.6630  -28.9700 O   0  0  0  0  0  0  0  0  0  0  0  0
   -7.3140   22.6420  -31.3120 C   0  0  0  0  0  0  0  0  0  0  0  0
   -8.0990   21.4900  -31.4080 C   0  0  0  0  0  0  0  0  0  0  0  0
   -7.9470   17.5810  -33.9060 H   0  0  0  0  0  0  0  0  0  0  0  0
   -5.9100   19.4766  -33.0937 H   0  0  0  0  0  0  0  0  0  0  0  0
   -4.5139   21.5400  -32.9360 H   0  0  0  0  0  0  0  0  0  0  0  0
   -3.5968   21.8558  -31.0660 H   0  0  0  0  0  0  0  0  0  0  0  0
   -1.1672   20.7042  -28.3138 H   0  0  0  0  0  0  0  0  0  0  0  0
   -2.4899   19.4556  -28.3700 H   0  0  0  0  0  0  0  0  0  0  0  0
   -0.1417   19.6381  -26.5990 H   0  0  0  0  0  0  0  0  0  0  0  0
   -1.6710   18.6746  -26.4457 H   0  0  0  0  0  0  0  0  0  0  0  0
    0.3773   17.2469  -26.5354 H   0  0  0  0  0  0  0  0  0  0  0  0
   -0.7793   16.9425  -27.8909 H   0  0  0  0  0  0  0  0  0  0  0  0
    1.9242   18.3196  -27.9391 H   0  0  0  0  0  0  0  0  0  0  0  0
    1.2612   16.9962  -28.9951 H   0  0  0  0  0  0  0  0  0  0  0  0
    1.0324   19.9581  -29.2615 H   0  0  0  0  0  0  0  0  0  0  0  0
    1.0021   18.6544  -30.5123 H   0  0  0  0  0  0  0  0  0  0  0  0
    0.4897   21.9561  -29.6559 H   0  0  0  0  0  0  0  0  0  0  0  0
   -0.2333   24.5448  -23.5316 H   0  0  0  0  0  0  0  0  0  0  0  0
   -0.7111   26.6750  -22.3270 H   0  0  0  0  0  0  0  0  0  0  0  0
   -0.9297   28.8123  -23.5960 H   0  0  0  0  0  0  0  0  0  0  0  0
   -0.7146   28.8140  -26.0811 H   0  0  0  0  0  0  0  0  0  0  0  0
   -0.2420   25.9020  -28.1780 H   0  0  0  0  0  0  0  0  0  0  0  0
   -7.7048   23.5262  -30.7872 H   0  0  0  0  0  0  0  0  0  0  0  0
   -9.1090   21.4769  -30.9724 H   0  0  0  0  0  0  0  0  0  0  0  0
  1  2  1  0
  2  3  2  0
  2  4  2  0
  2  5  1  0
  5  6  2  0
  6  7  1  0
  7  8  2  0
  8  9  1  0
  9 10  1  0
 10 11  2  0
 10 12  2  0
 10 13  1  0
 13 14  2  0
 14 15  1  0
 15 16  1  0
 16 17  2  0
 16 18  2  0
 16 19  1  0
 19 20  1  0
 20 21  1  0
 21 22  1  0
 22 23  1  0
 23 24  1  0
 15 25  2  0
 25 26  1  0
 26 27  1  0
 27 28  1  0
 28 29  2  0
 28 30  1  0
 30 31  1  0
 31 32  2  0
 32 33  1  0
 33 34  2  0
 34 35  1  0
 35 36  2  0
 36 37  1  0
 26 38  2  0
 38 39  1  0
  8 40  1  0
 40 41  2  0
 41  5  1  0
 38 13  1  0
 24 19  1  0
 36 31  1  0
  1 42  1  0
  6 43  1  0
  7 44  1  0
 14 45  1  0
 20 46  1  0
 20 47  1  0
 21 48  1  0
 21 49  1  0
 22 50  1  0
 22 51  1  0
 23 52  1  0
 23 53  1  0
 24 54  1  0
 24 55  1  0
 25 56  1  0
 32 57  1  0
 33 58  1  0
 34 59  1  0
 35 60  1  0
 37 61  1  0
 40 62  1  0
 41 63  1  0
M  CHG  5   1  -1   9  -1  27  -1  30  -1  39  -1
M  END
>  <UniqueID>  (7) 
7

>  <SMILES>  (7) 
[NH-]S(=O)(=O)c1ccc([N-]S(=O)(=O)c2cc(S(=O)(=O)N3CCCCC3)cc([N-]C(=O)[N-]c3ccccc3O)c2[O-])cc1

>  <Energy>  (7) 
81.21286624286617

>  <Genealogy>  (7) 
[NH-]S(=O)(=O)c1ccc([N-]S(=O)(=O)c2cc(S(=O)(=O)N3CCCCC3)cc([N-]C(=O)[N-]c3ccccc3O)c2[O-])cc1 (protonated)
[NH-]S(=O)(=O)c1ccc([N-]S(=O)(=O)c2cc(S(=O)(=O)N3CCCCC3)cc([N-]C(=O)[N-]c3ccccc3O)c2[O-])cc1 (3D coordinates assigned)
[NH-]S(=O)(=O)c1ccc([N-]S(=O)(=O)c2cc(S(=O)(=O)N3CCCCC3)cc([N-]C(=O)[N-]c3ccccc3O)c2[O-])cc1 (nonaromatic ring conformer: 81.21286624286617 kcal/mol)

>  <smiles>  (7) 
NS(=O)(=O)c1ccc(NS(=O)(=O)c2cc(S(=O)(=O)N3CCCCC3)cc(NC(=O)Nc3ccccc3O)c2O)cc1

>  <score_type>  (7) 
oracle

>  <origin>  (7) 
adgpu

>  <m_score__min__energy>  (7) 
-15.369999999999999

>  <m_primary>  (7) 
energy

$$$$
7:0
     RDKit          3D

 56 59  0  0  0  0  0  0  0  0999 V2000
   -9.8450   21.1590  -31.3830 O   0  0  0  0  0  0  0  0  0  0  0  0
   -8.6050   21.1150  -31.1530 C   0  0  0  0  0  0  0  0  0  0  0  0
   -8.0380   21.9490  -30.1350 N   0  0  0  0  0  0  0  0  0  0  0  0
   -6.9680   22.8820  -30.3290 C   0  0  0  0  0  0  0  0  0  0  0  0
   -5.9760   22.9750  -29.3470 C   0  0  0  0  0  0  0  0  0  0  0  0
   -4.9180   23.8860  -29.4780 C   0  0  0  0  0  0  0  0  0  0  0  0
   -3.6780   23.9290  -28.2190 S   0  0  0  0  0  0  0  0  0  0  0  0
   -2.4750   24.7080  -28.6760 O   0  0  0  0  0  0  0  0  0  0  0  0
   -4.2560   24.5890  -26.9990 O   0  0  0  0  0  0  0  0  0  0  0  0
   -3.2060   22.2940  -27.8280 N   0  0  0  0  0  0  0  0  0  0  0  0
   -1.9380   22.2680  -27.1030 C   0  0  0  0  0  0  0  0  0  0  0  0
   -1.3300   20.9030  -27.3670 C   0  0  0  0  0  0  0  0  0  0  0  0
   -1.9310   20.4510  -28.6880 C   0  0  0  0  0  0  0  0  0  0  0  0
   -2.9850   21.4960  -29.0340 C   0  0  0  0  0  0  0  0  0  0  0  0
   -4.8770   24.7410  -30.5950 C   0  0  0  0  0  0  0  0  0  0  0  0
   -3.8570   25.6720  -30.7480 O   0  0  0  0  0  0  0  0  0  0  0  0
   -5.8810   24.6700  -31.5650 C   0  0  0  0  0  0  0  0  0  0  0  0
   -6.9360   23.7560  -31.4340 C   0  0  0  0  0  0  0  0  0  0  0  0
   -7.9620   23.7420  -32.3780 O   0  0  0  0  0  0  0  0  0  0  0  0
   -7.7300   20.2440  -31.9720 C   0  0  0  0  0  0  0  0  0  0  0  0
   -6.9400   20.7890  -32.9990 C   0  0  0  0  0  0  0  0  0  0  0  0
   -6.1190   19.9670  -33.7770 C   0  0  0  0  0  0  0  0  0  0  0  0
   -6.0720   18.5870  -33.5390 C   0  0  0  0  0  0  0  0  0  0  0  0
   -5.0470   17.5450  -34.5360 S   0  0  0  0  0  0  0  0  0  0  0  0
   -5.3520   17.8040  -35.9850 O   0  0  0  0  0  0  0  0  0  0  0  0
   -5.3780   16.1090  -34.2400 O   0  0  0  0  0  0  0  0  0  0  0  0
   -3.3420   17.8050  -34.2580 N   0  0  0  0  0  0  0  0  0  0  0  0
   -3.0590   19.1620  -33.7920 C   0  0  0  0  0  0  0  0  0  0  0  0
   -1.7680   19.0830  -32.9890 C   0  0  0  0  0  0  0  0  0  0  0  0
   -1.5820   17.6080  -32.6640 C   0  0  0  0  0  0  0  0  0  0  0  0
   -2.8140   16.9190  -33.2240 C   0  0  0  0  0  0  0  0  0  0  0  0
   -6.8650   18.0360  -32.5250 C   0  0  0  0  0  0  0  0  0  0  0  0
   -7.6840   18.8570  -31.7440 C   0  0  0  0  0  0  0  0  0  0  0  0
   -6.0265   22.3253  -28.4608 H   0  0  0  0  0  0  0  0  0  0  0  0
   -1.2709   23.0609  -27.4722 H   0  0  0  0  0  0  0  0  0  0  0  0
   -2.0869   22.4402  -26.0268 H   0  0  0  0  0  0  0  0  0  0  0  0
   -0.2353   20.9765  -27.4458 H   0  0  0  0  0  0  0  0  0  0  0  0
   -1.5413   20.1932  -26.5536 H   0  0  0  0  0  0  0  0  0  0  0  0
   -1.1574   20.4119  -29.4690 H   0  0  0  0  0  0  0  0  0  0  0  0
   -2.3643   19.4425  -28.6156 H   0  0  0  0  0  0  0  0  0  0  0  0
   -2.6264   22.1383  -29.8518 H   0  0  0  0  0  0  0  0  0  0  0  0
   -3.9185   21.0180  -29.3657 H   0  0  0  0  0  0  0  0  0  0  0  0
   -5.8430   25.3371  -32.4388 H   0  0  0  0  0  0  0  0  0  0  0  0
   -8.7480   23.1100  -32.2970 H   0  0  0  0  0  0  0  0  0  0  0  0
   -6.9679   21.8715  -33.1923 H   0  0  0  0  0  0  0  0  0  0  0  0
   -5.5074   20.4055  -34.5793 H   0  0  0  0  0  0  0  0  0  0  0  0
   -2.9324   19.8395  -34.6493 H   0  0  0  0  0  0  0  0  0  0  0  0
   -3.8851   19.5526  -33.1796 H   0  0  0  0  0  0  0  0  0  0  0  0
   -0.9213   19.4554  -33.5844 H   0  0  0  0  0  0  0  0  0  0  0  0
   -1.8147   19.6990  -32.0789 H   0  0  0  0  0  0  0  0  0  0  0  0
   -0.6713   17.2192  -33.1430 H   0  0  0  0  0  0  0  0  0  0  0  0
   -1.4699   17.4359  -31.5834 H   0  0  0  0  0  0  0  0  0  0  0  0
   -2.5422   15.9456  -33.6583 H   0  0  0  0  0  0  0  0  0  0  0  0
   -3.5602   16.7311  -32.4379 H   0  0  0  0  0  0  0  0  0  0  0  0
   -6.8435   16.9516  -32.3419 H   0  0  0  0  0  0  0  0  0  0  0  0
   -8.2971   18.4147  -30.9450 H   0  0  0  0  0  0  0  0  0  0  0  0
  1  2  2  0
  2  3  1  0
  3  4  1  0
  4  5  2  0
  5  6  1  0
  6  7  1  0
  7  8  2  0
  7  9  2  0
  7 10  1  0
 10 11  1  0
 11 12  1  0
 12 13  1  0
 13 14  1  0
  6 15  2  0
 15 16  1  0
 15 17  1  0
 17 18  2  0
 18 19  1  0
  2 20  1  0
 20 21  2  0
 21 22  1  0
 22 23  2  0
 23 24  1  0
 24 25  2  0
 24 26  2  0
 24 27  1  0
 27 28  1  0
 28 29  1  0
 29 30  1  0
 30 31  1  0
 23 32  1  0
 32 33  2  0
 18  4  1  0
 33 20  1  0
 14 10  1  0
 31 27  1  0
  5 34  1  0
 11 35  1  0
 11 36  1  0
 12 37  1  0
 12 38  1  0
 13 39  1  0
 13 40  1  0
 14 41  1  0
 14 42  1  0
 17 43  1  0
 19 44  1  0
 21 45  1  0
 22 46  1  0
 28 47  1  0
 28 48  1  0
 29 49  1  0
 29 50  1  0
 30 51  1  0
 30 52  1  0
 31 53  1  0
 31 54  1  0
 32 55  1  0
 33 56  1  0
M  CHG  2   3  -1  16  -1
M  END
>  <UniqueID>  (8) 
8

>  <SMILES>  (8) 
O=C([N-]c1cc(S(=O)(=O)N2CCCC2)c([O-])cc1O)c1ccc(S(=O)(=O)N2CCCC2)cc1

>  <Energy>  (8) 
67.18535950273113

>  <Genealogy>  (8) 
O=C([N-]c1cc(S(=O)(=O)N2CCCC2)c([O-])cc1O)c1ccc(S(=O)(=O)N2CCCC2)cc1 (protonated)
O=C([N-]c1cc(S(=O)(=O)N2CCCC2)c([O-])cc1O)c1ccc(S(=O)(=O)N2CCCC2)cc1 (3D coordinates assigned)
O=C([N-]c1cc(S(=O)(=O)N2CCCC2)c([O-])cc1O)c1ccc(S(=O)(=O)N2CCCC2)cc1 (nonaromatic ring conformer: 67.18535950273113 kcal/mol)

>  <smiles>  (8) 
O=C(Nc1cc(S(=O)(=O)N2CCCC2)c(O)cc1O)c1ccc(S(=O)(=O)N2CCCC2)cc1

>  <score_type>  (8) 
oracle

>  <origin>  (8) 
adgpu

>  <m_score__min__energy>  (8) 
-12.82

>  <m_primary>  (8) 
energy

$$$$
8:0
     RDKit          3D

 56 58  0  0  0  0  0  0  0  0999 V2000
    0.2780   17.5620  -27.4370 C   0  0  0  0  0  0  0  0  0  0  0  0
   -0.7570   18.6360  -27.6520 C   0  0  0  0  0  0  0  0  0  0  0  0
   -1.9060   18.6430  -26.8440 C   0  0  0  0  0  0  0  0  0  0  0  0
   -2.8900   19.6140  -27.0180 C   0  0  0  0  0  0  0  0  0  0  0  0
   -2.7450   20.5880  -28.0010 C   0  0  0  0  0  0  0  0  0  0  0  0
   -1.6050   20.6130  -28.8130 C   0  0  0  0  0  0  0  0  0  0  0  0
   -1.5000   21.6150  -29.8370 N   0  0  0  0  0  0  0  0  0  0  0  0
   -1.4610   23.0260  -29.4220 C   0  0  0  0  0  0  0  0  0  0  0  0
   -2.7450   23.7300  -29.7560 C   0  0  0  0  0  0  0  0  0  0  0  0
   -2.8920   24.9510  -29.4730 O   0  0  0  0  0  0  0  0  0  0  0  0
   -3.7850   23.0200  -30.4450 N   0  0  0  0  0  0  0  0  0  0  0  0
   -5.0520   23.6550  -30.8210 C   0  0  0  0  0  0  0  0  0  0  0  0
   -5.3810   23.3440  -32.2840 C   0  0  0  0  0  0  0  0  0  0  0  0
   -6.1810   23.1720  -29.9050 C   0  0  0  0  0  0  0  0  0  0  0  0
   -1.3210   21.2000  -31.2100 C   0  0  0  0  0  0  0  0  0  0  0  0
   -0.6160   21.9010  -31.9860 O   0  0  0  0  0  0  0  0  0  0  0  0
   -1.8720   19.9020  -31.7290 C   0  0  0  0  0  0  0  0  0  0  0  0
   -3.2010   20.1250  -32.2860 N   0  0  0  0  0  0  0  0  0  0  0  0
   -3.4320   20.5110  -33.5290 N   0  0  0  0  0  0  0  0  0  0  0  0
   -4.7380   20.5040  -33.7420 N   0  0  0  0  0  0  0  0  0  0  0  0
   -5.2820   20.0850  -32.5780 C   0  0  0  0  0  0  0  0  0  0  0  0
   -6.7330   19.8870  -32.3580 C   0  0  0  0  0  0  0  0  0  0  0  0
   -7.6010   20.9950  -32.3850 C   0  0  0  0  0  0  0  0  0  0  0  0
   -8.9740   20.8240  -32.1860 C   0  0  0  0  0  0  0  0  0  0  0  0
   -9.4950   19.5480  -31.9600 C   0  0  0  0  0  0  0  0  0  0  0  0
   -8.6460   18.4400  -31.9330 C   0  0  0  0  0  0  0  0  0  0  0  0
   -7.2700   18.6020  -32.1310 C   0  0  0  0  0  0  0  0  0  0  0  0
   -6.4740   17.5010  -32.1040 F   0  0  0  0  0  0  0  0  0  0  0  0
   -4.3270   19.8370  -31.6600 N   0  0  0  0  0  0  0  0  0  0  0  0
   -0.5830   19.6510  -28.6290 C   0  0  0  0  0  0  0  0  0  0  0  0
    0.6480   19.6730  -29.5080 C   0  0  0  0  0  0  0  0  0  0  0  0
    0.4272   17.4072  -26.3582 H   0  0  0  0  0  0  0  0  0  0  0  0
   -0.0655   16.6242  -27.8979 H   0  0  0  0  0  0  0  0  0  0  0  0
    1.2279   17.8706  -27.8979 H   0  0  0  0  0  0  0  0  0  0  0  0
   -2.0301   17.8747  -26.0666 H   0  0  0  0  0  0  0  0  0  0  0  0
   -3.7837   19.6106  -26.3767 H   0  0  0  0  0  0  0  0  0  0  0  0
   -3.5318   21.3438  -28.1411 H   0  0  0  0  0  0  0  0  0  0  0  0
   -1.2978   23.0753  -28.3353 H   0  0  0  0  0  0  0  0  0  0  0  0
   -0.6421   23.5237  -29.9621 H   0  0  0  0  0  0  0  0  0  0  0  0
   -3.6370   22.0050  -30.6540 H   0  0  0  0  0  0  0  0  0  0  0  0
   -4.9516   24.7443  -30.7054 H   0  0  0  0  0  0  0  0  0  0  0  0
   -6.1797   22.5890  -32.3277 H   0  0  0  0  0  0  0  0  0  0  0  0
   -5.7168   24.2625  -32.7876 H   0  0  0  0  0  0  0  0  0  0  0  0
   -4.4828   22.9571  -32.7876 H   0  0  0  0  0  0  0  0  0  0  0  0
   -5.8811   23.3003  -28.8545 H   0  0  0  0  0  0  0  0  0  0  0  0
   -7.0895   23.7602  -30.1014 H   0  0  0  0  0  0  0  0  0  0  0  0
   -6.3830   22.1087  -30.1014 H   0  0  0  0  0  0  0  0  0  0  0  0
   -1.2075   19.5090  -32.5125 H   0  0  0  0  0  0  0  0  0  0  0  0
   -1.9374   19.1763  -30.9049 H   0  0  0  0  0  0  0  0  0  0  0  0
   -7.1961   22.0020  -32.5639 H   0  0  0  0  0  0  0  0  0  0  0  0
   -9.6449   21.6954  -32.2074 H   0  0  0  0  0  0  0  0  0  0  0  0
  -10.5757   19.4158  -31.8031 H   0  0  0  0  0  0  0  0  0  0  0  0
   -9.0599   17.4364  -31.7555 H   0  0  0  0  0  0  0  0  0  0  0  0
    1.5489   19.6891  -28.8770 H   0  0  0  0  0  0  0  0  0  0  0  0
    0.6612   18.7749  -30.1431 H   0  0  0  0  0  0  0  0  0  0  0  0
    0.6291   20.5710  -30.1431 H   0  0  0  0  0  0  0  0  0  0  0  0
  1  2  1  0
  2  3  2  0
  3  4  1  0
  4  5  2  0
  5  6  1  0
  6  7  1  0
  7  8  1  0
  8  9  1  0
  9 10  2  0
  9 11  1  0
 11 12  1  0
 12 13  1  0
 12 14  1  0
  7 15  1  0
 15 16  2  0
 15 17  1  0
 17 18  1  0
 18 19  1  0
 19 20  2  0
 20 21  1  0
 21 22  1  0
 22 23  2  0
 23 24  1  0
 24 25  2  0
 25 26  1  0
 26 27  2  0
 27 28  1  0
 21 29  2  0
  6 30  2  0
 30 31  1  0
 30  2  1  0
 29 18  1  0
 27 22  1  0
  1 32  1  0
  1 33  1  0
  1 34  1  0
  3 35  1  0
  4 36  1  0
  5 37  1  0
  8 38  1  0
  8 39  1  0
 11 40  1  0
 12 41  1  0
 13 42  1  0
 13 43  1  0
 13 44  1  0
 14 45  1  0
 14 46  1  0
 14 47  1  0
 17 48  1  0
 17 49  1  0
 23 50  1  0
 24 51  1  0
 25 52  1  0
 26 53  1  0
 31 54  1  0
 31 55  1  0
 31 56  1  0
M  END
>  <UniqueID>  (9) 
9

>  <SMILES>  (9) 
Cc1cccc(N(CC(=O)NC(C)C)C(=O)Cn2nnc(-c3ccccc3F)n2)c1C

>  <Energy>  (9) 
96.36999576316857

>  <Genealogy>  (9) 
Cc1cccc(N(CC(=O)NC(C)C)C(=O)Cn2nnc(-c3ccccc3F)n2)c1C (3D coordinates assigned)
Cc1cccc(N(CC(=O)NC(C)C)C(=O)Cn2nnc(-c3ccccc3F)n2)c1C (optimized conformer: 96.36999576316857 kcal/mol)

>  <smiles>  (9) 
Cc1cccc(N(CC(=O)NC(C)C)C(=O)Cn2nnc(-c3ccccc3F)n2)c1C

>  <score_type>  (9) 
oracle

>  <origin>  (9) 
adgpu

>  <m_score__min__energy>  (9) 
-9.5500000000000007

>  <m_primary>  (9) 
energy

$$$$
9:0
     RDKit          3D

 75 79  0  0  0  0  0  0  0  0999 V2000
   -3.5450   18.2220  -25.6150 C   0  0  0  0  0  0  0  0  0  0  0  0
   -2.1880   18.8090  -26.0230 C   0  0  2  0  0  0  0  0  0  0  0  0
   -2.3770   20.2050  -26.6320 C   0  0  0  0  0  0  0  0  0  0  0  0
   -1.2060   20.7060  -27.3850 N   0  0  0  0  0  0  0  0  0  0  0  0
   -1.2240   22.0830  -27.8860 C   0  0  0  0  0  0  0  0  0  0  0  0
   -0.0390   22.7360  -28.3020 C   0  0  0  0  0  0  0  0  0  0  0  0
   -0.0670   24.0510  -28.7710 C   0  0  0  0  0  0  0  0  0  0  0  0
   -1.2730   24.7440  -28.8630 C   0  0  0  0  0  0  0  0  0  0  0  0
   -1.2780   26.0490  -29.3430 O   0  0  0  0  0  0  0  0  0  0  0  0
   -2.4700   24.1190  -28.4910 C   0  0  0  0  0  0  0  0  0  0  0  0
   -3.7170   24.8210  -28.6100 N   0  0  0  0  0  0  0  0  0  0  0  0
   -4.7270   24.6540  -30.0110 S   0  0  0  0  0  0  0  0  0  0  0  0
   -4.6240   25.9010  -30.8440 O   0  0  0  0  0  0  0  0  0  0  0  0
   -6.1560   24.4910  -29.5750 O   0  0  0  0  0  0  0  0  0  0  0  0
   -4.2590   23.2420  -30.9550 C   0  0  0  0  0  0  0  0  0  0  0  0
   -2.9090   22.9810  -31.2210 C   0  0  0  0  0  0  0  0  0  0  0  0
   -2.5350   21.8070  -31.8770 C   0  0  0  0  0  0  0  0  0  0  0  0
   -3.5080   20.8780  -32.2920 C   0  0  0  0  0  0  0  0  0  0  0  0
   -3.1060   19.6100  -32.9580 C   0  0  0  0  0  0  0  0  0  0  0  0
   -1.7570   19.2100  -32.9840 C   0  0  0  0  0  0  0  0  0  0  0  0
   -1.3770   18.0370  -33.6390 C   0  0  0  0  0  0  0  0  0  0  0  0
   -2.3330   17.2510  -34.2840 C   0  0  0  0  0  0  0  0  0  0  0  0
   -3.6820   17.6320  -34.2720 C   0  0  0  0  0  0  0  0  0  0  0  0
   -4.7060   16.8110  -35.0170 C   0  0  0  0  0  0  0  0  0  0  0  0
   -5.3360   15.8010  -34.1360 N   0  0  0  0  0  0  0  0  0  0  0  0
   -4.6800   15.7290  -32.8020 C   0  0  0  0  0  0  0  0  0  0  0  0
   -5.5170   16.3260  -31.6500 C   0  0  0  0  0  0  0  0  0  0  0  0
   -6.3070   17.5480  -32.1150 C   0  0  0  0  0  0  0  0  0  0  0  0
   -7.2410   17.2070  -33.2890 C   0  0  0  0  0  0  0  0  0  0  0  0
   -6.8090   15.9360  -34.0430 C   0  0  0  0  0  0  0  0  0  0  0  0
   -4.0640   18.8070  -33.6040 C   0  0  0  0  0  0  0  0  0  0  0  0
   -4.8630   21.1610  -32.0430 C   0  0  0  0  0  0  0  0  0  0  0  0
   -5.2340   22.3310  -31.3730 C   0  0  0  0  0  0  0  0  0  0  0  0
   -2.4340   22.8100  -27.9870 C   0  0  0  0  0  0  0  0  0  0  0  0
   -0.1500   19.7850  -27.8640 C   0  0  0  0  0  0  0  0  0  0  0  0
   -0.1530   18.4000  -27.1890 C   0  0  2  0  0  0  0  0  0  0  0  0
    0.6270   17.3930  -28.0430 C   0  0  0  0  0  0  0  0  0  0  0  0
   -1.5250   17.9260  -26.9850 N   0  0  0  0  0  0  0  0  0  0  0  0
   -3.6162   18.1912  -24.5177 H   0  0  0  0  0  0  0  0  0  0  0  0
   -4.3526   18.8512  -26.0173 H   0  0  0  0  0  0  0  0  0  0  0  0
   -3.6394   17.2026  -26.0173 H   0  0  0  0  0  0  0  0  0  0  0  0
   -1.5563   18.8955  -25.1267 H   0  0  0  0  0  0  0  0  0  0  0  0
   -3.2368   20.1681  -27.3172 H   0  0  0  0  0  0  0  0  0  0  0  0
   -2.5292   20.8970  -25.7906 H   0  0  0  0  0  0  0  0  0  0  0  0
    0.9197   22.1987  -28.2551 H   0  0  0  0  0  0  0  0  0  0  0  0
    0.8698   24.5438  -29.0702 H   0  0  0  0  0  0  0  0  0  0  0  0
   -3.8850   25.6540  -28.0030 H   0  0  0  0  0  0  0  0  0  0  0  0
   -2.1401   23.7042  -30.9117 H   0  0  0  0  0  0  0  0  0  0  0  0
   -1.4711   21.6060  -32.0713 H   0  0  0  0  0  0  0  0  0  0  0  0
   -0.9956   19.8267  -32.4841 H   0  0  0  0  0  0  0  0  0  0  0  0
   -0.3204   17.7313  -33.6467 H   0  0  0  0  0  0  0  0  0  0  0  0
   -2.0273   16.3305  -34.8029 H   0  0  0  0  0  0  0  0  0  0  0  0
   -5.4860   17.4811  -35.4077 H   0  0  0  0  0  0  0  0  0  0  0  0
   -4.1961   16.2842  -35.8371 H   0  0  0  0  0  0  0  0  0  0  0  0
   -4.4819   14.6717  -32.5720 H   0  0  0  0  0  0  0  0  0  0  0  0
   -3.7617   16.3309  -32.8693 H   0  0  0  0  0  0  0  0  0  0  0  0
   -6.2196   15.5627  -31.2843 H   0  0  0  0  0  0  0  0  0  0  0  0
   -4.8319   16.6392  -30.8485 H   0  0  0  0  0  0  0  0  0  0  0  0
   -6.9112   17.9227  -31.2757 H   0  0  0  0  0  0  0  0  0  0  0  0
   -5.5912   18.3105  -32.4558 H   0  0  0  0  0  0  0  0  0  0  0  0
   -8.2576   17.0552  -32.8972 H   0  0  0  0  0  0  0  0  0  0  0  0
   -7.1998   18.0451  -34.0003 H   0  0  0  0  0  0  0  0  0  0  0  0
   -7.2104   15.0591  -33.5140 H   0  0  0  0  0  0  0  0  0  0  0  0
   -7.2023   16.0069  -35.0678 H   0  0  0  0  0  0  0  0  0  0  0  0
   -5.1234   19.1026  -33.5857 H   0  0  0  0  0  0  0  0  0  0  0  0
   -5.6378   20.4558  -32.3783 H   0  0  0  0  0  0  0  0  0  0  0  0
   -6.2964   22.5354  -31.1741 H   0  0  0  0  0  0  0  0  0  0  0  0
   -3.3718   22.3360  -27.6615 H   0  0  0  0  0  0  0  0  0  0  0  0
   -0.2861   19.6398  -28.9458 H   0  0  0  0  0  0  0  0  0  0  0  0
    0.8119   20.2540  -27.6095 H   0  0  0  0  0  0  0  0  0  0  0  0
    0.3349   18.4930  -26.2075 H   0  0  0  0  0  0  0  0  0  0  0  0
    1.1672   16.6956  -27.3858 H   0  0  0  0  0  0  0  0  0  0  0  0
   -0.0734   16.8305  -28.6779 H   0  0  0  0  0  0  0  0  0  0  0  0
    1.3467   17.9305  -28.6779 H   0  0  0  0  0  0  0  0  0  0  0  0
   -1.4670   16.9730  -26.5540 H   0  0  0  0  0  0  0  0  0  0  0  0
  1  2  1  0
  2  3  1  0
  3  4  1  0
  4  5  1  0
  5  6  2  0
  6  7  1  0
  7  8  2  0
  8  9  1  0
  8 10  1  0
 10 11  1  0
 11 12  1  0
 12 13  2  0
 12 14  2  0
 12 15  1  0
 15 16  2  0
 16 17  1  0
 17 18  2  0
 18 19  1  0
 19 20  2  0
 20 21  1  0
 21 22  2  0
 22 23  1  0
 23 24  1  0
 24 25  1  0
 25 26  1  0
 26 27  1  0
 27 28  1  0
 28 29  1  0
 29 30  1  0
 23 31  2  0
 18 32  1  0
 32 33  2  0
 10 34  2  0
  4 35  1  0
 35 36  1  0
 36 37  1  0
 36 38  1  0
 38  2  1  0
 34  5  1  0
 33 15  1  0
 31 19  1  0
 30 25  1  0
  1 39  1  0
  1 40  1  0
  1 41  1  0
  2 42  1  1
  3 43  1  0
  3 44  1  0
  6 45  1  0
  7 46  1  0
 11 47  1  0
 16 48  1  0
 17 49  1  0
 20 50  1  0
 21 51  1  0
 22 52  1  0
 24 53  1  0
 24 54  1  0
 26 55  1  0
 26 56  1  0
 27 57  1  0
 27 58  1  0
 28 59  1  0
 28 60  1  0
 29 61  1  0
 29 62  1  0
 30 63  1  0
 30 64  1  0
 31 65  1  0
 32 66  1  0
 33 67  1  0
 34 68  1  0
 35 69  1  0
 35 70  1  0
 36 71  1  1
 37 72  1  0
 37 73  1  0
 37 74  1  0
 38 75  1  0
M  CHG  1   9  -1
M  END
>  <UniqueID>  (10) 
10

>  <SMILES>  (10) 
C[C@@H]1CN(c2ccc([O-])c(NS(=O)(=O)c3ccc(-c4cccc(CN5CCCCC5)c4)cc3)c2)C[C@H](C)N1

>  <Energy>  (10) 
97.25272893024301

>  <Genealogy>  (10) 
CC1CN(c2ccc([O-])c(NS(=O)(=O)c3ccc(-c4cccc(CN5CCCCC5)c4)cc3)c2)CC(C)N1 (protonated)
C[C@@H]1CN(c2ccc([O-])c(NS(=O)(=O)c3ccc(-c4cccc(CN5CCCCC5)c4)cc3)c2)C[C@H](C)N1 (chirality)
C[C@@H]1CN(c2ccc([O-])c(NS(=O)(=O)c3ccc(-c4cccc(CN5CCCCC5)c4)cc3)c2)C[C@H](C)N1 (3D coordinates assigned)
C[C@@H]1CN(c2ccc([O-])c(NS(=O)(=O)c3ccc(-c4cccc(CN5CCCCC5)c4)cc3)c2)C[C@H](C)N1 (nonaromatic ring conformer: 97.25272893024301 kcal/mol)

>  <smiles>  (10) 
CC1CN(c2ccc(O)c(NS(=O)(=O)c3ccc(-c4cccc(CN5CCCCC5)c4)cc3)c2)CC(C)N1

>  <score_type>  (10) 
oracle

>  <origin>  (10) 
adgpu

>  <m_score__min__energy>  (10) 
-14.779999999999999

>  <m_primary>  (10) 
energy

$$$$
10:0
     RDKit          3D

 34 36  0  0  0  0  0  0  0  0999 V2000
    0.8360   23.9920  -27.5980 C   0  0  0  0  0  0  0  0  0  0  0  0
   -0.5760   23.8820  -28.1750 C   0  0  2  0  0  0  0  0  0  0  0  0
   -0.5370   22.8280  -29.6630 S   0  0  0  0  0  0  0  0  0  0  0  0
   -2.3140   22.8990  -29.9330 C   0  0  0  0  0  0  0  0  0  0  0  0
   -3.0040   21.7350  -30.2930 C   0  0  0  0  0  0  0  0  0  0  0  0
   -4.3620   21.7970  -30.6180 C   0  0  0  0  0  0  0  0  0  0  0  0
   -5.0380   23.0240  -30.5880 C   0  0  0  0  0  0  0  0  0  0  0  0
   -6.7420   23.1120  -31.0200 S   0  0  0  0  0  0  0  0  0  0  0  0
   -7.1100   24.5510  -31.2500 O   0  0  0  0  0  0  0  0  0  0  0  0
   -7.5990   22.5590  -29.9160 O   0  0  0  0  0  0  0  0  0  0  0  0
   -7.0360   22.2080  -32.4730 N   0  0  0  0  0  0  0  0  0  0  0  0
   -7.2630   20.7880  -32.5040 C   0  0  0  0  0  0  0  0  0  0  0  0
   -8.3870   20.1940  -31.9010 C   0  0  0  0  0  0  0  0  0  0  0  0
   -8.5590   18.8100  -31.9540 C   0  0  0  0  0  0  0  0  0  0  0  0
   -7.6110   18.0260  -32.6100 C   0  0  0  0  0  0  0  0  0  0  0  0
   -6.5320   18.6110  -33.1930 N   0  0  0  0  0  0  0  0  0  0  0  0
   -6.3400   19.9560  -33.1560 C   0  0  0  0  0  0  0  0  0  0  0  0
   -4.3550   24.1840  -30.1960 C   0  0  0  0  0  0  0  0  0  0  0  0
   -3.0000   24.1230  -29.8510 C   0  0  0  0  0  0  0  0  0  0  0  0
   -2.3540   25.2900  -29.3320 N   0  0  0  0  0  0  0  0  0  0  0  0
   -1.1540   25.2240  -28.5540 C   0  0  0  0  0  0  0  0  0  0  0  0
   -0.6280   26.2950  -28.1470 O   0  0  0  0  0  0  0  0  0  0  0  0
    0.7844   23.9880  -26.4992 H   0  0  0  0  0  0  0  0  0  0  0  0
    1.4394   23.1381  -27.9399 H   0  0  0  0  0  0  0  0  0  0  0  0
    1.2998   24.9290  -27.9399 H   0  0  0  0  0  0  0  0  0  0  0  0
   -1.2141   23.4469  -27.3917 H   0  0  0  0  0  0  0  0  0  0  0  0
   -2.4764   20.7701  -30.3201 H   0  0  0  0  0  0  0  0  0  0  0  0
   -4.9015   20.8802  -30.8981 H   0  0  0  0  0  0  0  0  0  0  0  0
   -6.9790   22.7320  -33.3750 H   0  0  0  0  0  0  0  0  0  0  0  0
   -9.1307   20.8209  -31.3874 H   0  0  0  0  0  0  0  0  0  0  0  0
   -9.4353   18.3416  -31.4821 H   0  0  0  0  0  0  0  0  0  0  0  0
   -7.7365   16.9341  -32.6556 H   0  0  0  0  0  0  0  0  0  0  0  0
   -5.4554   20.3952  -33.6403 H   0  0  0  0  0  0  0  0  0  0  0  0
   -4.8865   25.1464  -30.1594 H   0  0  0  0  0  0  0  0  0  0  0  0
  1  2  1  0
  2  3  1  0
  3  4  1  0
  4  5  2  0
  5  6  1  0
  6  7  2  0
  7  8  1  0
  8  9  2  0
  8 10  2  0
  8 11  1  0
 11 12  1  0
 12 13  2  0
 13 14  1  0
 14 15  2  0
 15 16  1  0
 16 17  2  0
  7 18  1  0
 18 19  2  0
 19 20  1  0
 20 21  1  0
 21 22  2  0
 21  2  1  0
 19  4  1  0
 17 12  1  0
  1 23  1  0
  1 24  1  0
  1 25  1  0
  2 26  1  1
  5 27  1  0
  6 28  1  0
 11 29  1  0
 13 30  1  0
 14 31  1  0
 15 32  1  0
 17 33  1  0
 18 34  1  0
M  CHG  1  20  -1
M  END
>  <UniqueID>  (11) 
11

>  <SMILES>  (11) 
C[C@@H]1Sc2ccc(S(=O)(=O)Nc3cccnc3)cc2[N-]C1=O

>  <Energy>  (11) 
42.729524506537174

>  <Genealogy>  (11) 
CC1Sc2ccc(S(=O)(=O)Nc3cccnc3)cc2[N-]C1=O (protonated)
C[C@@H]1Sc2ccc(S(=O)(=O)Nc3cccnc3)cc2[N-]C1=O (chirality)
C[C@@H]1Sc2ccc(S(=O)(=O)Nc3cccnc3)cc2[N-]C1=O (3D coordinates assigned)
C[C@@H]1Sc2ccc(S(=O)(=O)Nc3cccnc3)cc2[N-]C1=O (nonaromatic ring conformer: 42.729524506537174 kcal/mol)

>  <smiles>  (11) 
CC1Sc2ccc(S(=O)(=O)Nc3cccnc3)cc2NC1=O

>  <score_type>  (11) 
oracle

>  <origin>  (11) 
adgpu

>  <m_score__min__energy>  (11) 
-9.8300000000000001

>  <m_primary>  (11) 
energy

$$$$
11:0
     RDKit          3D

 55 58  0  0  1  0  0  0  0  0999 V2000
   -4.9910   25.3130  -30.5880 C   0  0  0  0  0  0  0  0  0  0  0  0
   -4.1470   24.1240  -30.5180 N   0  0  0  0  0  0  0  0  0  0  0  0
   -4.9220   23.0670  -29.9150 C   0  0  0  0  0  0  0  0  0  0  0  0
   -2.9850   24.4670  -29.7110 C   0  0  0  0  0  0  0  0  0  0  0  0
   -2.0930   23.3000  -29.4700 C   0  0  0  0  0  0  0  0  0  0  0  0
   -1.7780   23.0240  -28.1550 C   0  0  0  0  0  0  0  0  0  0  0  0
   -0.9590   21.9640  -27.8760 C   0  0  0  0  0  0  0  0  0  0  0  0
   -0.4700   21.1980  -28.9100 C   0  0  0  0  0  0  0  0  0  0  0  0
   -0.7490   21.4270  -30.2370 C   0  0  0  0  0  0  0  0  0  0  0  0
   -0.2370   20.6800  -31.3510 C   0  0  0  0  0  0  0  0  0  0  0  0
    1.0230   20.4310  -31.3330 O   0  0  0  0  0  0  0  0  0  0  0  0
   -0.9570   20.1700  -32.4940 C   0  0  0  0  0  0  0  0  0  0  0  0
   -1.9230   19.1660  -32.3620 C   0  0  0  0  0  0  0  0  0  0  0  0
   -2.4650   18.9360  -33.6510 C   0  0  0  0  0  0  0  0  0  0  0  0
   -3.3620   17.9860  -34.0070 N   0  0  0  0  0  0  0  0  0  0  0  0
   -4.5590   17.8390  -33.8400 C   0  0  0  0  0  0  0  0  0  0  0  0
   -5.1540   16.7180  -34.3550 N   0  0  0  0  0  0  0  0  0  0  0  0
   -6.4570   16.4490  -34.2310 C   0  0  0  0  0  0  0  0  0  0  0  0
   -7.2180   17.3310  -33.5620 N   0  0  0  0  0  0  0  0  0  0  0  0
   -6.6640   18.4470  -33.0390 C   0  0  0  0  0  0  0  0  0  0  0  0
   -7.4830   19.3020  -32.3730 C   0  0  0  0  0  0  0  0  0  0  0  0
   -8.8920   19.0060  -32.2390 C   0  0  0  0  0  0  0  0  0  0  0  0
   -9.8180   19.6700  -33.0910 N   0  0  0  0  0  0  0  0  0  0  0  0
   -9.2970   18.1760  -31.3850 O   0  0  0  0  0  0  0  0  0  0  0  0
   -6.9280   20.4380  -31.8400 C   0  0  0  0  0  0  0  0  0  0  0  0
   -5.6120   20.7840  -31.9240 C   0  0  0  0  0  0  0  0  0  0  0  0
   -4.7860   19.8790  -32.6210 C   0  0  0  0  0  0  0  0  0  0  0  0
   -5.3200   18.7450  -33.1570 C   0  0  0  0  0  0  0  0  0  0  0  0
   -1.8080   19.8010  -34.4900 N   0  0  0  0  0  0  0  0  0  0  0  0
   -0.9310   20.5140  -33.7920 N   0  0  0  0  0  0  0  0  0  0  0  0
   -0.1220   21.5430  -34.4460 C   0  0  0  0  0  0  0  0  0  0  0  0
   -1.5910   22.5210  -30.4890 C   0  0  0  0  0  0  0  0  0  0  0  0
   -5.2318   25.6522  -29.5697 H   0  0  0  0  0  0  0  0  0  0  0  0
   -4.4562   26.1113  -31.1235 H   0  0  0  0  0  0  0  0  0  0  0  0
   -5.9210   25.0715  -31.1235 H   0  0  0  0  0  0  0  0  0  0  0  0
   -4.8627   23.1479  -28.8196 H   0  0  0  0  0  0  0  0  0  0  0  0
   -5.9714   23.1547  -30.2328 H   0  0  0  0  0  0  0  0  0  0  0  0
   -4.5228   22.0925  -30.2328 H   0  0  0  0  0  0  0  0  0  0  0  0
   -2.4115   25.2475  -30.2324 H   0  0  0  0  0  0  0  0  0  0  0  0
   -3.3487   24.8168  -28.7336 H   0  0  0  0  0  0  0  0  0  0  0  0
   -2.1797   23.6474  -27.3426 H   0  0  0  0  0  0  0  0  0  0  0  0
   -0.6938   21.7262  -26.8353 H   0  0  0  0  0  0  0  0  0  0  0  0
    0.1845   20.3502  -28.6593 H   0  0  0  0  0  0  0  0  0  0  0  0
   -2.2080   18.6519  -31.4322 H   0  0  0  0  0  0  0  0  0  0  0  0
   -4.5840   16.0130  -34.8830 H   0  0  0  0  0  0  0  0  0  0  0  0
   -6.8921   15.5355  -34.6625 H   0  0  0  0  0  0  0  0  0  0  0  0
  -10.6230   20.2220  -32.7330 H   0  0  0  0  0  0  0  0  0  0  0  0
   -9.6690   19.5920  -34.1300 H   0  0  0  0  0  0  0  0  0  0  0  0
   -7.5984   21.1244  -31.3020 H   0  0  0  0  0  0  0  0  0  0  0  0
   -5.2201   21.7095  -31.4768 H   0  0  0  0  0  0  0  0  0  0  0  0
   -3.7117   20.0876  -32.7323 H   0  0  0  0  0  0  0  0  0  0  0  0
    0.3672   22.1653  -33.6821 H   0  0  0  0  0  0  0  0  0  0  0  0
    0.6435   21.0635  -35.0738 H   0  0  0  0  0  0  0  0  0  0  0  0
   -0.7686   22.1738  -35.0738 H   0  0  0  0  0  0  0  0  0  0  0  0
   -1.8573   22.7630  -31.5285 H   0  0  0  0  0  0  0  0  0  0  0  0
  1  2  1  0
  2  3  1  0
  2  4  1  0
  4  5  1  0
  5  6  2  0
  6  7  1  0
  7  8  2  0
  8  9  1  0
  9 10  1  0
 10 11  2  0
 10 12  1  0
 12 13  2  0
 13 14  1  0
 14 15  1  0
 15 16  2  0
 16 17  1  0
 17 18  1  0
 18 19  2  0
 19 20  1  0
 20 21  2  0
 21 22  1  0
 22 23  1  0
 22 24  2  0
 21 25  1  0
 25 26  2  0
 26 27  1  0
 27 28  2  0
 14 29  2  0
 29 30  1  0
 30 31  1  0
  9 32  2  0
 32  5  1  0
 30 12  1  0
 28 16  1  0
 28 20  1  0
  1 33  1  0
  1 34  1  0
  1 35  1  0
  3 36  1  0
  3 37  1  0
  3 38  1  0
  4 39  1  0
  4 40  1  0
  6 41  1  0
  7 42  1  0
  8 43  1  0
 13 44  1  0
 17 45  1  0
 18 46  1  0
 23 47  1  0
 23 48  1  0
 25 49  1  0
 26 50  1  0
 27 51  1  0
 31 52  1  0
 31 53  1  0
 31 54  1  0
 32 55  1  0
M  END
>  <smiles>  (12) 
CN(C)Cc1cccc(C(=O)c2cc(N=c3[nH]cnc4c(C(N)=O)cccc34)nn2C)c1

>  <score_type>  (12) 
oracle

>  <origin>  (12) 
adgpu

>  <m_score__min__energy>  (12) 
-10.33

>  <m_primary>  (12) 
energy

$$$$
12:0
     RDKit          3D

 52 56  0  0  0  0  0  0  0  0999 V2000
   -1.5910   20.3320  -34.7960 O   0  0  0  0  0  0  0  0  0  0  0  0
   -1.6030   20.0770  -33.3160 S   0  0  0  0  0  0  0  0  0  0  0  0
   -0.3560   20.6680  -32.7180 O   0  0  0  0  0  0  0  0  0  0  0  0
   -1.6060   18.3680  -33.0330 N   0  0  0  0  0  0  0  0  0  0  0  0
   -2.0620   17.4460  -34.0310 C   0  0  0  0  0  0  0  0  0  0  0  0
   -1.0560   16.5450  -35.0340 S   0  0  0  0  0  0  0  0  0  0  0  0
   -2.2770   15.7120  -35.8280 C   0  0  0  0  0  0  0  0  0  0  0  0
   -3.4970   16.1330  -35.3160 C   0  0  0  0  0  0  0  0  0  0  0  0
   -3.3940   17.1070  -34.3060 C   0  0  0  0  0  0  0  0  0  0  0  0
   -4.5880   17.7530  -33.7120 C   0  0  0  0  0  0  0  0  0  0  0  0
   -5.2830   17.1970  -32.6810 N   0  0  0  0  0  0  0  0  0  0  0  0
   -6.3030   18.0530  -32.5150 C   0  0  0  0  0  0  0  0  0  0  0  0
   -7.3610   17.9570  -31.6100 C   0  0  0  0  0  0  0  0  0  0  0  0
   -8.3510   18.9580  -31.6570 C   0  0  0  0  0  0  0  0  0  0  0  0
   -8.2580   20.0130  -32.5920 C   0  0  0  0  0  0  0  0  0  0  0  0
   -7.1740   20.0730  -33.4930 C   0  0  0  0  0  0  0  0  0  0  0  0
   -6.2140   19.0670  -33.4170 C   0  0  0  0  0  0  0  0  0  0  0  0
   -5.1360   18.8990  -34.1970 N   0  0  0  0  0  0  0  0  0  0  0  0
   -3.0410   20.8210  -32.6210 C   0  0  0  0  0  0  0  0  0  0  0  0
   -3.6410   21.9140  -33.2630 C   0  0  0  0  0  0  0  0  0  0  0  0
   -4.7700   22.5250  -32.7070 C   0  0  0  0  0  0  0  0  0  0  0  0
   -5.3130   22.0450  -31.5060 C   0  0  0  0  0  0  0  0  0  0  0  0
   -6.7100   22.8480  -30.7910 S   0  0  0  0  0  0  0  0  0  0  0  0
   -7.7370   21.8230  -30.3900 O   0  0  0  0  0  0  0  0  0  0  0  0
   -7.3200   23.7510  -31.8280 O   0  0  0  0  0  0  0  0  0  0  0  0
   -6.2290   23.8090  -29.4040 N   0  0  0  0  0  0  0  0  0  0  0  0
   -6.4220   25.2520  -29.6390 C   0  0  0  0  0  0  0  0  0  0  0  0
   -5.3510   25.8380  -30.5930 C   0  0  0  0  0  0  0  0  0  0  0  0
   -4.1800   25.0430  -30.6960 O   0  0  0  0  0  0  0  0  0  0  0  0
   -3.8190   24.5340  -29.4310 C   0  0  0  0  0  0  0  0  0  0  0  0
   -4.8510   23.4880  -28.9680 C   0  0  0  0  0  0  0  0  0  0  0  0
   -4.7160   20.9470  -30.8660 C   0  0  0  0  0  0  0  0  0  0  0  0
   -3.5850   20.3380  -31.4210 C   0  0  0  0  0  0  0  0  0  0  0  0
   -1.3510   18.0330  -32.0790 H   0  0  0  0  0  0  0  0  0  0  0  0
   -2.1352   14.9608  -36.6189 H   0  0  0  0  0  0  0  0  0  0  0  0
   -4.4612   15.7389  -35.6696 H   0  0  0  0  0  0  0  0  0  0  0  0
   -7.4197   17.1303  -30.8868 H   0  0  0  0  0  0  0  0  0  0  0  0
   -9.2020   18.9180  -30.9612 H   0  0  0  0  0  0  0  0  0  0  0  0
   -9.0347   20.7916  -32.6176 H   0  0  0  0  0  0  0  0  0  0  0  0
   -7.0901   20.8857  -34.2295 H   0  0  0  0  0  0  0  0  0  0  0  0
   -3.2223   22.2923  -34.2073 H   0  0  0  0  0  0  0  0  0  0  0  0
   -5.2334   23.3846  -33.2133 H   0  0  0  0  0  0  0  0  0  0  0  0
   -7.4160   25.4087  -30.0833 H   0  0  0  0  0  0  0  0  0  0  0  0
   -6.3303   25.7670  -28.6713 H   0  0  0  0  0  0  0  0  0  0  0  0
   -5.7943   25.9341  -31.5951 H   0  0  0  0  0  0  0  0  0  0  0  0
   -5.0444   26.8077  -30.1739 H   0  0  0  0  0  0  0  0  0  0  0  0
   -2.8275   24.0623  -29.4979 H   0  0  0  0  0  0  0  0  0  0  0  0
   -3.7920   25.3596  -28.7046 H   0  0  0  0  0  0  0  0  0  0  0  0
   -4.5699   22.5091  -29.3838 H   0  0  0  0  0  0  0  0  0  0  0  0
   -4.8449   23.4813  -27.8680 H   0  0  0  0  0  0  0  0  0  0  0  0
   -5.1387   20.5643  -29.9253 H   0  0  0  0  0  0  0  0  0  0  0  0
   -3.1211   19.4783  -30.9153 H   0  0  0  0  0  0  0  0  0  0  0  0
  1  2  2  0
  2  3  2  0
  2  4  1  0
  4  5  1  0
  5  6  1  0
  6  7  1  0
  7  8  2  0
  8  9  1  0
  9 10  1  0
 10 11  2  0
 11 12  1  0
 12 13  2  0
 13 14  1  0
 14 15  2  0
 15 16  1  0
 16 17  2  0
 17 18  1  0
  2 19  1  0
 19 20  2  0
 20 21  1  0
 21 22  2  0
 22 23  1  0
 23 24  2  0
 23 25  2  0
 23 26  1  0
 26 27  1  0
 27 28  1  0
 28 29  1  0
 29 30  1  0
 30 31  1  0
 22 32  1  0
 32 33  2  0
  9  5  2  0
 18 10  1  0
 33 19  1  0
 17 12  1  0
 31 26  1  0
  4 34  1  0
  7 35  1  0
  8 36  1  0
 13 37  1  0
 14 38  1  0
 15 39  1  0
 16 40  1  0
 20 41  1  0
 21 42  1  0
 27 43  1  0
 27 44  1  0
 28 45  1  0
 28 46  1  0
 30 47  1  0
 30 48  1  0
 31 49  1  0
 31 50  1  0
 32 51  1  0
 33 52  1  0
M  CHG  1  18  -1
M  END
>  <UniqueID>  (13) 
12

>  <SMILES>  (13) 
O=S(=O)(Nc1sccc1-c1nc2ccccc2[n-]1)c1ccc(S(=O)(=O)N2CCOCC2)cc1

>  <Energy>  (13) 
134.2113991604356

>  <Genealogy>  (13) 
O=S(=O)(Nc1sccc1-c1nc2ccccc2[n-]1)c1ccc(S(=O)(=O)N2CCOCC2)cc1 (protonated)
O=S(=O)(Nc1sccc1-c1nc2ccccc2[n-]1)c1ccc(S(=O)(=O)N2CCOCC2)cc1 (3D coordinates assigned)
O=S(=O)(Nc1sccc1-c1nc2ccccc2[n-]1)c1ccc(S(=O)(=O)N2CCOCC2)cc1 (nonaromatic ring conformer: 134.2113991604356 kcal/mol)

>  <smiles>  (13) 
O=S(=O)(Nc1sccc1-c1nc2ccccc2[nH]1)c1ccc(S(=O)(=O)N2CCOCC2)cc1

>  <score_type>  (13) 
oracle

>  <origin>  (13) 
adgpu

>  <m_score__min__energy>  (13) 
-11.9

>  <m_primary>  (13) 
energy

$$$$
13:0
     RDKit          3D

 46 48  0  0  0  0  0  0  0  0999 V2000
   -1.3063   22.9734  -28.5497 H   0  0  0  0  0  0  0  0  0  0  0  0
   -2.2790   22.7940  -29.0310 C   0  0  0  0  0  0  0  0  0  0  0  0
   -2.4220   21.5500  -29.8170 C   0  0  0  0  0  0  0  0  0  0  0  0
   -3.2340   20.6760  -29.4140 O   0  0  0  0  0  0  0  0  0  0  0  0
   -1.7410   21.3870  -31.0680 N   0  0  0  0  0  0  0  0  0  0  0  0
   -1.9310   20.3650  -32.0580 C   0  0  0  0  0  0  0  0  0  0  0  0
   -1.0560   19.2710  -32.1810 C   0  0  0  0  0  0  0  0  0  0  0  0
   -0.1866   19.1880  -31.5122 H   0  0  0  0  0  0  0  0  0  0  0  0
   -1.2850   18.2890  -33.1480 C   0  0  0  0  0  0  0  0  0  0  0  0
   -0.5989   17.4329  -33.2274 H   0  0  0  0  0  0  0  0  0  0  0  0
   -2.3760   18.3830  -34.0150 C   0  0  0  0  0  0  0  0  0  0  0  0
   -2.5650   17.3640  -34.9620 O   0  0  0  0  0  0  0  0  0  0  0  0
   -3.8260   16.7800  -35.2720 C   0  0  0  0  0  0  0  0  0  0  0  0
   -4.3556   16.5347  -34.3396 H   0  0  0  0  0  0  0  0  0  0  0  0
   -4.4257   17.4920  -35.8579 H   0  0  0  0  0  0  0  0  0  0  0  0
   -3.6709   15.8621  -35.8579 H   0  0  0  0  0  0  0  0  0  0  0  0
   -3.2380   19.4910  -33.9160 C   0  0  0  0  0  0  0  0  0  0  0  0
   -4.0961   19.5788  -34.5987 H   0  0  0  0  0  0  0  0  0  0  0  0
   -3.0100   20.4820  -32.9540 C   0  0  0  0  0  0  0  0  0  0  0  0
   -4.1080   21.9030  -32.8910 S   0  0  0  0  0  0  0  0  0  0  0  0
   -5.5430   20.8890  -32.5600 C   0  0  0  0  0  0  0  0  0  0  0  0
   -5.4600   19.6090  -32.1390 N   0  0  0  0  0  0  0  0  0  0  0  0
   -6.7510   19.2400  -32.0400 C   0  0  0  0  0  0  0  0  0  0  0  0
   -7.2010   17.9020  -31.5510 C   0  0  0  0  0  0  0  0  0  0  0  0
   -7.2032   17.8954  -30.4510 H   0  0  0  0  0  0  0  0  0  0  0  0
   -8.2168   17.6990  -31.9210 H   0  0  0  0  0  0  0  0  0  0  0  0
   -6.5143   17.1264  -31.9210 H   0  0  0  0  0  0  0  0  0  0  0  0
   -7.5550   20.3070  -32.3810 C   0  0  0  0  0  0  0  0  0  0  0  0
   -9.0470   20.3480  -32.3980 C   0  0  0  0  0  0  0  0  0  0  0  0
   -9.4253   20.3584  -31.3652 H   0  0  0  0  0  0  0  0  0  0  0  0
   -9.3829   21.2557  -32.9207 H   0  0  0  0  0  0  0  0  0  0  0  0
   -9.4323   19.4601  -32.9207 H   0  0  0  0  0  0  0  0  0  0  0  0
   -6.7790   21.3090  -32.7040 O   0  0  0  0  0  0  0  0  0  0  0  0
   -3.2310   23.7250  -28.8520 C   0  0  0  0  0  0  0  0  0  0  0  0
   -3.0186   24.5368  -28.1408 H   0  0  0  0  0  0  0  0  0  0  0  0
   -4.5400   23.7440  -29.5350 C   0  0  0  0  0  0  0  0  0  0  0  0
   -5.5080   22.7650  -29.2470 C   0  0  0  0  0  0  0  0  0  0  0  0
   -5.2956   21.9884  -28.4975 H   0  0  0  0  0  0  0  0  0  0  0  0
   -6.7380   22.7750  -29.9090 C   0  0  0  0  0  0  0  0  0  0  0  0
   -7.4986   22.0182  -29.6668 H   0  0  0  0  0  0  0  0  0  0  0  0
   -7.0030   23.7460  -30.8790 C   0  0  0  0  0  0  0  0  0  0  0  0
   -7.9732   23.7547  -31.3972 H   0  0  0  0  0  0  0  0  0  0  0  0
   -6.0360   24.7060  -31.1910 C   0  0  0  0  0  0  0  0  0  0  0  0
   -6.2437   25.4640  -31.9606 H   0  0  0  0  0  0  0  0  0  0  0  0
   -4.8050   24.7050  -30.5270 C   0  0  0  0  0  0  0  0  0  0  0  0
   -3.8540   25.6690  -30.8480 O   0  0  0  0  0  0  0  0  0  0  0  0
  1  2  1  0
  2  3  1  0
  3  4  2  0
  3  5  1  0
  5  6  1  0
  6  7  2  0
  7  8  1  0
  7  9  1  0
  9 10  1  0
  9 11  2  0
 11 12  1  0
 12 13  1  0
 13 14  1  0
 13 15  1  0
 13 16  1  0
 11 17  1  0
 17 18  1  0
 17 19  2  0
 19 20  1  0
 20 21  1  0
 21 22  2  0
 22 23  1  0
 23 24  1  0
 24 25  1  0
 24 26  1  0
 24 27  1  0
 23 28  2  0
 28 29  1  0
 29 30  1  0
 29 31  1  0
 29 32  1  0
 28 33  1  0
  2 34  2  0
 34 35  1  0
 34 36  1  0
 36 37  2  0
 37 38  1  0
 37 39  1  0
 39 40  1  0
 39 41  2  0
 41 42  1  0
 41 43  1  0
 43 44  1  0
 43 45  2  0
 45 46  1  0
 19  6  1  0
 33 21  1  0
 45 36  1  0
M  CHG  2   5  -1  46  -1
M  END
>  <UniqueID>  (14) 
13

>  <SMILES>  (14) 
COc1ccc([N-]C(=O)/C=C\c2ccccc2[O-])c(Sc2nc(C)c(C)o2)c1

>  <Energy>  (14) 
80.11349453486208

>  <Genealogy>  (14) 
COc1ccc([N-]C(=O)C=Cc2ccccc2[O-])c(Sc2nc(C)c(C)o2)c1 (protonated)
COc1ccc([N-]C(=O)/C=C\c2ccccc2[O-])c(Sc2nc(C)c(C)o2)c1 (cis-trans isomerization)
COc1ccc([N-]C(=O)/C=C\c2ccccc2[O-])c(Sc2nc(C)c(C)o2)c1 (3D coordinates assigned)
COc1ccc([N-]C(=O)/C=C\c2ccccc2[O-])c(Sc2nc(C)c(C)o2)c1 (optimized conformer: 80.11349453486208 kcal/mol)

>  <smiles>  (14) 
COc1ccc(NC(=O)C=Cc2ccccc2O)c(Sc2nc(C)c(C)o2)c1

>  <score_type>  (14) 
oracle

>  <origin>  (14) 
adgpu

>  <m_score__min__energy>  (14) 
-12.83

>  <m_primary>  (14) 
energy

$$$$
14:0
     RDKit          3D

 32 34  0  0  0  0  0  0  0  0999 V2000
   -9.8540   21.5110  -31.8110 C   0  0  0  0  0  0  0  0  0  0  0  0
   -8.7990   20.4690  -32.0390 C   0  0  0  0  0  0  0  0  0  0  0  0
   -9.0050   19.1510  -31.6110 C   0  0  0  0  0  0  0  0  0  0  0  0
   -8.0390   18.1740  -31.8580 C   0  0  0  0  0  0  0  0  0  0  0  0
   -6.8620   18.4970  -32.5400 C   0  0  0  0  0  0  0  0  0  0  0  0
   -5.9180   17.4920  -32.7610 O   0  0  0  0  0  0  0  0  0  0  0  0
   -6.6470   19.8130  -32.9890 C   0  0  0  0  0  0  0  0  0  0  0  0
   -5.4330   20.1270  -33.6870 N   0  0  0  0  0  0  0  0  0  0  0  0
   -3.8690   20.2970  -32.9570 S   0  0  0  0  0  0  0  0  0  0  0  0
   -2.8230   20.3320  -34.0370 O   0  0  0  0  0  0  0  0  0  0  0  0
   -3.6100   19.1170  -32.0630 O   0  0  0  0  0  0  0  0  0  0  0  0
   -3.8130   21.7670  -31.9890 C   0  0  0  0  0  0  0  0  0  0  0  0
   -4.9330   22.6340  -31.9650 C   0  0  0  0  0  0  0  0  0  0  0  0
   -4.9000   23.8230  -31.2130 C   0  0  0  0  0  0  0  0  0  0  0  0
   -3.7370   24.1070  -30.5020 C   0  0  0  0  0  0  0  0  0  0  0  0
   -3.4880   25.1740  -29.7280 N   0  0  0  0  0  0  0  0  0  0  0  0
   -2.2240   24.9250  -29.3000 C   0  0  0  0  0  0  0  0  0  0  0  0
   -1.6070   25.7070  -28.5320 O   0  0  0  0  0  0  0  0  0  0  0  0
   -1.6740   23.7720  -29.7590 N   0  0  0  0  0  0  0  0  0  0  0  0
   -2.6600   23.2740  -30.5200 C   0  0  0  0  0  0  0  0  0  0  0  0
   -2.6550   22.0890  -31.2510 C   0  0  0  0  0  0  0  0  0  0  0  0
   -7.6310   20.7920  -32.7440 C   0  0  0  0  0  0  0  0  0  0  0  0
   -9.9997   21.6549  -30.7302 H   0  0  0  0  0  0  0  0  0  0  0  0
   -9.5368   22.4601  -32.2678 H   0  0  0  0  0  0  0  0  0  0  0  0
  -10.7990   21.1820  -32.2678 H   0  0  0  0  0  0  0  0  0  0  0  0
   -9.9304   18.8853  -31.0789 H   0  0  0  0  0  0  0  0  0  0  0  0
   -8.2050   17.1426  -31.5136 H   0  0  0  0  0  0  0  0  0  0  0  0
   -4.9570   17.6930  -33.0040 H   0  0  0  0  0  0  0  0  0  0  0  0
   -5.8354   22.3759  -32.5386 H   0  0  0  0  0  0  0  0  0  0  0  0
   -5.7631   24.5045  -31.1877 H   0  0  0  0  0  0  0  0  0  0  0  0
   -1.7772   21.4261  -31.2529 H   0  0  0  0  0  0  0  0  0  0  0  0
   -7.4812   21.8187  -33.1092 H   0  0  0  0  0  0  0  0  0  0  0  0
  1  2  1  0
  2  3  2  0
  3  4  1  0
  4  5  2  0
  5  6  1  0
  5  7  1  0
  7  8  1  0
  8  9  1  0
  9 10  2  0
  9 11  2  0
  9 12  1  0
 12 13  2  0
 13 14  1  0
 14 15  2  0
 15 16  1  0
 16 17  1  0
 17 18  2  0
 17 19  1  0
 19 20  1  0
 20 21  2  0
  7 22  2  0
 22  2  1  0
 21 12  1  0
 20 15  1  0
  1 23  1  0
  1 24  1  0
  1 25  1  0
  3 26  1  0
  4 27  1  0
  6 28  1  0
 13 29  1  0
 14 30  1  0
 21 31  1  0
 22 32  1  0
M  CHG  3   8  -1  16  -1  19  -1
M  END
>  <UniqueID>  (15) 
14

>  <SMILES>  (15) 
Cc1ccc(O)c([N-]S(=O)(=O)c2ccc3[n-]c(=O)[n-]c3c2)c1

>  <Energy>  (15) 
72.2897755817957

>  <Genealogy>  (15) 
Cc1ccc(O)c([N-]S(=O)(=O)c2ccc3[n-]c(=O)[n-]c3c2)c1 (protonated)
Cc1ccc(O)c([N-]S(=O)(=O)c2ccc3[n-]c(=O)[n-]c3c2)c1 (3D coordinates assigned)
Cc1ccc(O)c([N-]S(=O)(=O)c2ccc3[n-]c(=O)[n-]c3c2)c1 (optimized conformer: 72.2897755817957 kcal/mol)

>  <smiles>  (15) 
Cc1ccc(O)c(NS(=O)(=O)c2ccc3[nH]c(=O)[nH]c3c2)c1

>  <score_type>  (15) 
oracle

>  <origin>  (15) 
adgpu

>  <m_score__min__energy>  (15) 
-9.7799999999999994

>  <m_primary>  (15) 
energy

$$$$
15:0
     RDKit          3D

 61 64  0  0  0  0  0  0  0  0999 V2000
   -9.0200   19.8140  -33.0460 C   0  0  0  0  0  0  0  0  0  0  0  0
   -7.6040   19.5390  -32.6330 C   0  0  0  0  0  0  0  0  0  0  0  0
   -7.2780   18.3410  -31.9780 C   0  0  0  0  0  0  0  0  0  0  0  0
   -5.9680   18.1040  -31.5560 C   0  0  0  0  0  0  0  0  0  0  0  0
   -4.9760   19.0650  -31.7720 C   0  0  0  0  0  0  0  0  0  0  0  0
   -5.2920   20.2700  -32.4140 C   0  0  0  0  0  0  0  0  0  0  0  0
   -4.0600   21.5080  -32.6620 S   0  0  0  0  0  0  0  0  0  0  0  0
   -3.1230   21.0700  -33.7530 O   0  0  0  0  0  0  0  0  0  0  0  0
   -4.7740   22.7540  -33.1030 O   0  0  0  0  0  0  0  0  0  0  0  0
   -3.1380   21.7820  -31.1670 C   0  0  0  0  0  0  0  0  0  0  0  0
   -1.9500   21.0520  -30.9910 C   0  0  0  0  0  0  0  0  0  0  0  0
   -1.1760   21.2070  -29.8420 C   0  0  0  0  0  0  0  0  0  0  0  0
   -1.5660   22.0990  -28.8390 C   0  0  0  0  0  0  0  0  0  0  0  0
   -0.7560   22.2670  -27.6590 N   0  0  0  0  0  0  0  0  0  0  0  0
    0.6140   22.7850  -27.7510 C   0  0  0  0  0  0  0  0  0  0  0  0
    0.8360   23.9380  -26.7490 C   0  0  0  0  0  0  0  0  0  0  0  0
   -0.1310   23.9280  -25.6200 N   0  0  0  0  0  0  0  0  0  0  0  0
    0.4150   24.6720  -24.4710 C   0  0  0  0  0  0  0  0  0  0  0  0
   -0.4900   22.5530  -25.2170 C   0  0  0  0  0  0  0  0  0  0  0  0
   -1.2700   21.8600  -26.3450 C   0  0  0  0  0  0  0  0  0  0  0  0
   -2.7340   22.8560  -29.0150 C   0  0  0  0  0  0  0  0  0  0  0  0
   -3.5240   22.7170  -30.1700 C   0  0  0  0  0  0  0  0  0  0  0  0
   -4.9610   23.7470  -30.3140 S   0  0  0  0  0  0  0  0  0  0  0  0
   -4.6550   24.9410  -31.1780 O   0  0  0  0  0  0  0  0  0  0  0  0
   -5.3550   24.2430  -28.9510 O   0  0  0  0  0  0  0  0  0  0  0  0
   -6.2740   22.8420  -31.0250 N   0  0  0  0  0  0  0  0  0  0  0  0
   -7.1160   23.6930  -31.8640 C   0  0  0  0  0  0  0  0  0  0  0  0
   -8.4900   23.0460  -31.8870 C   0  0  0  0  0  0  0  0  0  0  0  0
   -8.5350   22.1600  -30.6510 C   0  0  0  0  0  0  0  0  0  0  0  0
   -7.1650   22.2990  -30.0020 C   0  0  0  0  0  0  0  0  0  0  0  0
   -6.6080   20.5090  -32.8330 C   0  0  0  0  0  0  0  0  0  0  0  0
   -9.6463   19.9356  -32.1499 H   0  0  0  0  0  0  0  0  0  0  0  0
   -9.0547   20.7357  -33.6454 H   0  0  0  0  0  0  0  0  0  0  0  0
   -9.3972   18.9723  -33.6454 H   0  0  0  0  0  0  0  0  0  0  0  0
   -8.0572   17.5861  -31.7965 H   0  0  0  0  0  0  0  0  0  0  0  0
   -5.7162   17.1590  -31.0525 H   0  0  0  0  0  0  0  0  0  0  0  0
   -3.9455   18.8750  -31.4374 H   0  0  0  0  0  0  0  0  0  0  0  0
   -1.6261   20.3478  -31.7715 H   0  0  0  0  0  0  0  0  0  0  0  0
   -0.2514   20.6229  -29.7238 H   0  0  0  0  0  0  0  0  0  0  0  0
    1.3217   21.9729  -27.5280 H   0  0  0  0  0  0  0  0  0  0  0  0
    0.7769   23.1682  -28.7691 H   0  0  0  0  0  0  0  0  0  0  0  0
    1.8531   23.8535  -26.3387 H   0  0  0  0  0  0  0  0  0  0  0  0
    0.6882   24.8801  -27.2973 H   0  0  0  0  0  0  0  0  0  0  0  0
   -1.0030   24.4240  -25.9230 H   0  0  0  0  0  0  0  0  0  0  0  0
    0.0725   24.2052  -23.5357 H   0  0  0  0  0  0  0  0  0  0  0  0
    1.5141   24.6517  -24.5098 H   0  0  0  0  0  0  0  0  0  0  0  0
    0.0660   25.7144  -24.5098 H   0  0  0  0  0  0  0  0  0  0  0  0
    0.4276   21.9842  -25.0062 H   0  0  0  0  0  0  0  0  0  0  0  0
   -1.1196   22.5942  -24.3159 H   0  0  0  0  0  0  0  0  0  0  0  0
   -1.1663   20.7701  -26.2387 H   0  0  0  0  0  0  0  0  0  0  0  0
   -2.3281   22.1520  -26.2738 H   0  0  0  0  0  0  0  0  0  0  0  0
   -3.0371   23.5708  -28.2358 H   0  0  0  0  0  0  0  0  0  0  0  0
   -7.1790   24.7050  -31.4375 H   0  0  0  0  0  0  0  0  0  0  0  0
   -6.7023   23.7875  -32.8788 H   0  0  0  0  0  0  0  0  0  0  0  0
   -9.2779   23.8122  -31.8411 H   0  0  0  0  0  0  0  0  0  0  0  0
   -8.6586   22.4722  -32.8102 H   0  0  0  0  0  0  0  0  0  0  0  0
   -9.3229   22.4998  -29.9627 H   0  0  0  0  0  0  0  0  0  0  0  0
   -8.7620   21.1143  -30.9060 H   0  0  0  0  0  0  0  0  0  0  0  0
   -7.2193   22.9839  -29.1430 H   0  0  0  0  0  0  0  0  0  0  0  0
   -6.8005   21.3297  -29.6311 H   0  0  0  0  0  0  0  0  0  0  0  0
   -6.8622   21.4614  -33.3211 H   0  0  0  0  0  0  0  0  0  0  0  0
  1  2  1  0
  2  3  2  0
  3  4  1  0
  4  5  2  0
  5  6  1  0
  6  7  1  0
  7  8  2  0
  7  9  2  0
  7 10  1  0
 10 11  2  0
 11 12  1  0
 12 13  2  0
 13 14  1  0
 14 15  1  0
 15 16  1  0
 16 17  1  0
 17 18  1  0
 17 19  1  0
 19 20  1  0
 13 21  1  0
 21 22  2  0
 22 23  1  0
 23 24  2  0
 23 25  2  0
 23 26  1  0
 26 27  1  0
 27 28  1  0
 28 29  1  0
 29 30  1  0
  6 31  2  0
 31  2  1  0
 22 10  1  0
 30 26  1  0
 20 14  1  0
  1 32  1  0
  1 33  1  0
  1 34  1  0
  3 35  1  0
  4 36  1  0
  5 37  1  0
 11 38  1  0
 12 39  1  0
 15 40  1  0
 15 41  1  0
 16 42  1  0
 16 43  1  0
 17 44  1  0
 18 45  1  0
 18 46  1  0
 18 47  1  0
 19 48  1  0
 19 49  1  0
 20 50  1  0
 20 51  1  0
 21 52  1  0
 27 53  1  0
 27 54  1  0
 28 55  1  0
 28 56  1  0
 29 57  1  0
 29 58  1  0
 30 59  1  0
 30 60  1  0
 31 61  1  0
M  CHG  1  17   1
M  END
>  <UniqueID>  (16) 
15

>  <SMILES>  (16) 
Cc1cccc(S(=O)(=O)c2ccc(N3CC[NH+](C)CC3)cc2S(=O)(=O)N2CCCC2)c1

>  <Energy>  (16) 
77.52990617501567

>  <Genealogy>  (16) 
Cc1cccc(S(=O)(=O)c2ccc(N3CC[NH+](C)CC3)cc2S(=O)(=O)N2CCCC2)c1 (protonated)
Cc1cccc(S(=O)(=O)c2ccc(N3CC[NH+](C)CC3)cc2S(=O)(=O)N2CCCC2)c1 (3D coordinates assigned)
Cc1cccc(S(=O)(=O)c2ccc(N3CC[NH+](C)CC3)cc2S(=O)(=O)N2CCCC2)c1 (nonaromatic ring conformer: 77.52990617501567 kcal/mol)

>  <smiles>  (16) 
Cc1cccc(S(=O)(=O)c2ccc(N3CCN(C)CC3)cc2S(=O)(=O)N2CCCC2)c1

>  <score_type>  (16) 
oracle

>  <origin>  (16) 
adgpu

>  <m_score__min__energy>  (16) 
-9.6400000000000006

>  <m_primary>  (16) 
energy

$$$$
16:0
     RDKit          3D

 61 64  0  0  0  0  0  0  0  0999 V2000
    1.2970   15.9250  -27.1590 C   0  0  0  0  0  0  0  0  0  0  0  0
    0.6750   16.2770  -28.3770 O   0  0  0  0  0  0  0  0  0  0  0  0
    0.8760   17.6500  -28.6570 C   0  0  0  0  0  0  0  0  0  0  0  0
    0.0850   18.5140  -27.6600 C   0  0  0  0  0  0  0  0  0  0  0  0
   -0.2610   19.8390  -28.2230 N   0  0  0  0  0  0  0  0  0  0  0  0
   -0.4910   19.7010  -29.6780 C   0  0  0  0  0  0  0  0  0  0  0  0
   -0.6500   21.0780  -30.3240 C   0  0  0  0  0  0  0  0  0  0  0  0
   -1.6280   21.9400  -29.5710 C   0  0  0  0  0  0  0  0  0  0  0  0
   -2.1650   23.0750  -30.1930 C   0  0  0  0  0  0  0  0  0  0  0  0
   -3.0260   23.9320  -29.4910 C   0  0  0  0  0  0  0  0  0  0  0  0
   -3.6420   25.0460  -30.1420 N   0  0  0  0  0  0  0  0  0  0  0  0
   -5.3620   25.1730  -30.3160 S   0  0  0  0  0  0  0  0  0  0  0  0
   -5.9710   25.4220  -28.9660 O   0  0  0  0  0  0  0  0  0  0  0  0
   -5.7220   26.3190  -31.2200 O   0  0  0  0  0  0  0  0  0  0  0  0
   -5.9780   23.6580  -30.9730 C   0  0  0  0  0  0  0  0  0  0  0  0
   -5.2720   22.4630  -30.7630 C   0  0  0  0  0  0  0  0  0  0  0  0
   -5.7870   21.2470  -31.2250 C   0  0  0  0  0  0  0  0  0  0  0  0
   -7.0140   21.2170  -31.9010 C   0  0  0  0  0  0  0  0  0  0  0  0
   -7.6770   19.6980  -32.4990 S   0  0  0  0  0  0  0  0  0  0  0  0
   -7.7270   18.6760  -31.3940 O   0  0  0  0  0  0  0  0  0  0  0  0
   -9.0770   19.9410  -32.9960 O   0  0  0  0  0  0  0  0  0  0  0  0
   -6.6790   19.1250  -33.8100 N   0  0  0  0  0  0  0  0  0  0  0  0
   -5.3140   19.6530  -33.7240 C   0  0  0  0  0  0  0  0  0  0  0  0
   -4.3770   18.5740  -34.2640 C   0  0  0  0  0  0  0  0  0  0  0  0
   -5.2550   17.3600  -34.5090 C   0  0  0  0  0  0  0  0  0  0  0  0
   -6.5460   17.6710  -33.7800 C   0  0  0  0  0  0  0  0  0  0  0  0
   -7.7120   22.4110  -32.1210 C   0  0  0  0  0  0  0  0  0  0  0  0
   -7.2010   23.6260  -31.6540 C   0  0  0  0  0  0  0  0  0  0  0  0
   -3.3080   23.6790  -28.1420 C   0  0  0  0  0  0  0  0  0  0  0  0
   -4.1360   24.5490  -27.4320 O   0  0  0  0  0  0  0  0  0  0  0  0
   -2.7790   22.5420  -27.5160 C   0  0  0  0  0  0  0  0  0  0  0  0
   -1.9390   21.6670  -28.2240 C   0  0  0  0  0  0  0  0  0  0  0  0
   -1.4780   20.3850  -27.5720 C   0  0  0  0  0  0  0  0  0  0  0  0
    0.6800   16.2742  -26.3179 H   0  0  0  0  0  0  0  0  0  0  0  0
    1.4054   14.8317  -27.1052 H   0  0  0  0  0  0  0  0  0  0  0  0
    2.2901   16.3950  -27.1052 H   0  0  0  0  0  0  0  0  0  0  0  0
    1.9472   17.8855  -28.5726 H   0  0  0  0  0  0  0  0  0  0  0  0
    0.5249   17.8646  -29.6771 H   0  0  0  0  0  0  0  0  0  0  0  0
   -0.8438   17.9881  -27.3941 H   0  0  0  0  0  0  0  0  0  0  0  0
    0.7188   18.6768  -26.7758 H   0  0  0  0  0  0  0  0  0  0  0  0
    0.3663   19.1836  -30.1333 H   0  0  0  0  0  0  0  0  0  0  0  0
   -1.4115   19.1212  -29.8410 H   0  0  0  0  0  0  0  0  0  0  0  0
    0.3289   21.5796  -30.3384 H   0  0  0  0  0  0  0  0  0  0  0  0
   -1.0361   20.9343  -31.3440 H   0  0  0  0  0  0  0  0  0  0  0  0
   -1.9095   23.2958  -31.2399 H   0  0  0  0  0  0  0  0  0  0  0  0
   -4.3087   22.4828  -30.2323 H   0  0  0  0  0  0  0  0  0  0  0  0
   -5.2285   20.3142  -31.0575 H   0  0  0  0  0  0  0  0  0  0  0  0
   -5.2247   20.5670  -34.3294 H   0  0  0  0  0  0  0  0  0  0  0  0
   -5.0586   19.9073  -32.6847 H   0  0  0  0  0  0  0  0  0  0  0  0
   -3.9091   18.9058  -35.2026 H   0  0  0  0  0  0  0  0  0  0  0  0
   -3.5612   18.3523  -33.5602 H   0  0  0  0  0  0  0  0  0  0  0  0
   -5.4392   17.2244  -35.5849 H   0  0  0  0  0  0  0  0  0  0  0  0
   -4.7889   16.4288  -34.1546 H   0  0  0  0  0  0  0  0  0  0  0  0
   -7.3978   17.1977  -34.2904 H   0  0  0  0  0  0  0  0  0  0  0  0
   -6.5319   17.2867  -32.7494 H   0  0  0  0  0  0  0  0  0  0  0  0
   -8.6682   22.3930  -32.6645 H   0  0  0  0  0  0  0  0  0  0  0  0
   -7.7607   24.5580  -31.8219 H   0  0  0  0  0  0  0  0  0  0  0  0
   -4.5500   25.3630  -27.8720 H   0  0  0  0  0  0  0  0  0  0  0  0
   -3.0232   22.3337  -26.4639 H   0  0  0  0  0  0  0  0  0  0  0  0
   -1.2558   20.5845  -26.5133 H   0  0  0  0  0  0  0  0  0  0  0  0
   -2.2823   19.6418  -27.6754 H   0  0  0  0  0  0  0  0  0  0  0  0
  1  2  1  0
  2  3  1  0
  3  4  1  0
  4  5  1  0
  5  6  1  0
  6  7  1  0
  7  8  1  0
  8  9  2  0
  9 10  1  0
 10 11  1  0
 11 12  1  0
 12 13  2  0
 12 14  2  0
 12 15  1  0
 15 16  2  0
 16 17  1  0
 17 18  2  0
 18 19  1  0
 19 20  2  0
 19 21  2  0
 19 22  1  0
 22 23  1  0
 23 24  1  0
 24 25  1  0
 25 26  1  0
 18 27  1  0
 27 28  2  0
 10 29  2  0
 29 30  1  0
 29 31  1  0
 31 32  2  0
 32 33  1  0
 33  5  1  0
 32  8  1  0
 28 15  1  0
 26 22  1  0
  1 34  1  0
  1 35  1  0
  1 36  1  0
  3 37  1  0
  3 38  1  0
  4 39  1  0
  4 40  1  0
  6 41  1  0
  6 42  1  0
  7 43  1  0
  7 44  1  0
  9 45  1  0
 16 46  1  0
 17 47  1  0
 23 48  1  0
 23 49  1  0
 24 50  1  0
 24 51  1  0
 25 52  1  0
 25 53  1  0
 26 54  1  0
 26 55  1  0
 27 56  1  0
 28 57  1  0
 30 58  1  0
 31 59  1  0
 33 60  1  0
 33 61  1  0
M  CHG  1  11  -1
M  END
>  <UniqueID>  (17) 
16

>  <SMILES>  (17) 
COCCN1CCc2cc([N-]S(=O)(=O)c3ccc(S(=O)(=O)N4CCCC4)cc3)c(O)cc2C1

>  <Energy>  (17) 
74.98895183538265

>  <Genealogy>  (17) 
COCCN1CCc2cc([N-]S(=O)(=O)c3ccc(S(=O)(=O)N4CCCC4)cc3)c(O)cc2C1 (protonated)
COCCN1CCc2cc([N-]S(=O)(=O)c3ccc(S(=O)(=O)N4CCCC4)cc3)c(O)cc2C1 (3D coordinates assigned)
COCCN1CCc2cc([N-]S(=O)(=O)c3ccc(S(=O)(=O)N4CCCC4)cc3)c(O)cc2C1 (nonaromatic ring conformer: 74.98895183538265 kcal/mol)

>  <smiles>  (17) 
COCCN1CCc2cc(NS(=O)(=O)c3ccc(S(=O)(=O)N4CCCC4)cc3)c(O)cc2C1

>  <score_type>  (17) 
oracle

>  <origin>  (17) 
adgpu

>  <m_score__min__energy>  (17) 
-11.43

>  <m_primary>  (17) 
energy

$$$$
17:0
     RDKit          3D

 78 83  0  0  0  0  0  0  0  0999 V2000
    3.0270   21.8660  -36.7000 O   0  0  0  0  0  0  0  0  0  0  0  0
    1.9800   22.2420  -36.1040 C   0  0  0  0  0  0  0  0  0  0  0  0
    1.7690   23.6890  -35.8760 C   0  0  0  0  0  0  0  0  0  0  0  0
    2.8160   24.5040  -35.4130 C   0  0  0  0  0  0  0  0  0  0  0  0
    2.6040   25.8640  -35.1780 C   0  0  0  0  0  0  0  0  0  0  0  0
    1.3500   26.4370  -35.4300 C   0  0  0  0  0  0  0  0  0  0  0  0
    1.0740   28.1530  -35.1070 S   0  0  0  0  0  0  0  0  0  0  0  0
    2.2600   28.7090  -34.3700 O   0  0  0  0  0  0  0  0  0  0  0  0
   -0.1320   28.2950  -34.2200 O   0  0  0  0  0  0  0  0  0  0  0  0
    0.8170   29.0870  -36.5610 N   0  0  0  0  0  0  0  0  0  0  0  0
   -0.1320   28.4450  -37.4670 C   0  0  0  0  0  0  0  0  0  0  0  0
   -0.7170   29.5550  -38.3250 C   0  0  0  0  0  0  0  0  0  0  0  0
   -0.5030   30.8320  -37.5250 C   0  0  0  0  0  0  0  0  0  0  0  0
    0.2540   30.4060  -36.2750 C   0  0  0  0  0  0  0  0  0  0  0  0
    0.3090   25.6330  -35.9150 C   0  0  0  0  0  0  0  0  0  0  0  0
    0.5190   24.2700  -36.1440 C   0  0  0  0  0  0  0  0  0  0  0  0
    1.0190   21.2570  -35.6750 N   0  0  0  0  0  0  0  0  0  0  0  0
    0.5840   20.1990  -36.6050 C   0  0  0  0  0  0  0  0  0  0  0  0
    0.2930   18.8970  -35.8620 C   0  0  0  0  0  0  0  0  0  0  0  0
   -0.6920   19.1560  -34.7630 C   0  0  0  0  0  0  0  0  0  0  0  0
   -1.6990   18.2280  -34.4680 C   0  0  0  0  0  0  0  0  0  0  0  0
   -2.5890   18.4510  -33.4070 C   0  0  0  0  0  0  0  0  0  0  0  0
   -3.6350   17.4990  -33.1670 N   0  0  0  0  0  0  0  0  0  0  0  0
   -5.1590   17.5480  -33.9930 S   0  0  0  0  0  0  0  0  0  0  0  0
   -4.9490   17.8330  -35.4530 O   0  0  0  0  0  0  0  0  0  0  0  0
   -5.8500   16.2240  -33.8310 O   0  0  0  0  0  0  0  0  0  0  0  0
   -6.1420   18.8320  -33.2970 C   0  0  0  0  0  0  0  0  0  0  0  0
   -5.7210   20.1650  -33.4020 C   0  0  0  0  0  0  0  0  0  0  0  0
   -6.4690   21.1880  -32.8120 C   0  0  0  0  0  0  0  0  0  0  0  0
   -7.6540   20.8890  -32.1240 C   0  0  0  0  0  0  0  0  0  0  0  0
   -8.5790   22.1730  -31.3380 S   0  0  0  0  0  0  0  0  0  0  0  0
   -9.4480   21.5670  -30.2700 O   0  0  0  0  0  0  0  0  0  0  0  0
   -9.4770   22.8210  -32.3550 O   0  0  0  0  0  0  0  0  0  0  0  0
   -7.5650   23.3990  -30.6160 N   0  0  0  0  0  0  0  0  0  0  0  0
   -6.8230   24.1610  -31.6200 C   0  0  0  0  0  0  0  0  0  0  0  0
   -5.5910   24.7060  -30.9170 C   0  0  0  0  0  0  0  0  0  0  0  0
   -5.4070   23.8260  -29.6880 C   0  0  0  0  0  0  0  0  0  0  0  0
   -6.5530   22.8250  -29.7340 C   0  0  0  0  0  0  0  0  0  0  0  0
   -8.0810   19.5560  -32.0310 C   0  0  0  0  0  0  0  0  0  0  0  0
   -7.3320   18.5340  -32.6190 C   0  0  0  0  0  0  0  0  0  0  0  0
   -2.4680   19.6280  -32.6430 C   0  0  0  0  0  0  0  0  0  0  0  0
   -3.3580   19.9070  -31.6120 O   0  0  0  0  0  0  0  0  0  0  0  0
   -1.4560   20.5500  -32.9330 C   0  0  0  0  0  0  0  0  0  0  0  0
   -0.5750   20.3290  -34.0010 C   0  0  0  0  0  0  0  0  0  0  0  0
    0.5300   21.3190  -34.2860 C   0  0  0  0  0  0  0  0  0  0  0  0
    3.8097   24.0674  -35.2344 H   0  0  0  0  0  0  0  0  0  0  0  0
    3.4243   26.4880  -34.7936 H   0  0  0  0  0  0  0  0  0  0  0  0
    0.3836   27.7065  -38.0985 H   0  0  0  0  0  0  0  0  0  0  0  0
   -0.9176   27.9113  -36.9120 H   0  0  0  0  0  0  0  0  0  0  0  0
   -0.1937   29.6125  -39.2908 H   0  0  0  0  0  0  0  0  0  0  0  0
   -1.7800   29.3840  -38.5501 H   0  0  0  0  0  0  0  0  0  0  0  0
    0.0891   31.5548  -38.1055 H   0  0  0  0  0  0  0  0  0  0  0  0
   -1.4555   31.3235  -37.2779 H   0  0  0  0  0  0  0  0  0  0  0  0
    1.0585   31.1232  -36.0548 H   0  0  0  0  0  0  0  0  0  0  0  0
   -0.4102   30.3740  -35.3988 H   0  0  0  0  0  0  0  0  0  0  0  0
   -0.6773   26.0765  -36.1162 H   0  0  0  0  0  0  0  0  0  0  0  0
   -0.2997   23.6490  -36.5364 H   0  0  0  0  0  0  0  0  0  0  0  0
   -0.3291   20.5289  -37.1222 H   0  0  0  0  0  0  0  0  0  0  0  0
    1.3933   20.0150  -37.3269 H   0  0  0  0  0  0  0  0  0  0  0  0
   -0.1262   18.1607  -36.5636 H   0  0  0  0  0  0  0  0  0  0  0  0
    1.2264   18.5050  -35.4317 H   0  0  0  0  0  0  0  0  0  0  0  0
   -1.7928   17.3151  -35.0745 H   0  0  0  0  0  0  0  0  0  0  0  0
   -3.5870   16.9150  -32.3010 H   0  0  0  0  0  0  0  0  0  0  0  0
   -4.7988   20.4069  -33.9506 H   0  0  0  0  0  0  0  0  0  0  0  0
   -6.1271   22.2308  -32.8876 H   0  0  0  0  0  0  0  0  0  0  0  0
   -6.5277   23.5066  -32.4534 H   0  0  0  0  0  0  0  0  0  0  0  0
   -7.4358   24.9725  -32.0395 H   0  0  0  0  0  0  0  0  0  0  0  0
   -4.7113   24.6390  -31.5740 H   0  0  0  0  0  0  0  0  0  0  0  0
   -5.7077   25.7663  -30.6483 H   0  0  0  0  0  0  0  0  0  0  0  0
   -4.4389   23.3052  -29.7287 H   0  0  0  0  0  0  0  0  0  0  0  0
   -5.4138   24.4140  -28.7584 H   0  0  0  0  0  0  0  0  0  0  0  0
   -6.2017   21.8623  -30.1336 H   0  0  0  0  0  0  0  0  0  0  0  0
   -6.9594   22.6369  -28.7293 H   0  0  0  0  0  0  0  0  0  0  0  0
   -9.0095   19.3145  -31.4928 H   0  0  0  0  0  0  0  0  0  0  0  0
   -7.6772   17.4919  -32.5497 H   0  0  0  0  0  0  0  0  0  0  0  0
   -1.3508   21.4558  -32.3178 H   0  0  0  0  0  0  0  0  0  0  0  0
    0.1494   22.3330  -34.0940 H   0  0  0  0  0  0  0  0  0  0  0  0
    1.3751   21.0646  -33.6295 H   0  0  0  0  0  0  0  0  0  0  0  0
  1  2  2  0
  2  3  1  0
  3  4  2  0
  4  5  1  0
  5  6  2  0
  6  7  1  0
  7  8  2  0
  7  9  2  0
  7 10  1  0
 10 11  1  0
 11 12  1  0
 12 13  1  0
 13 14  1  0
  6 15  1  0
 15 16  2  0
  2 17  1  0
 17 18  1  0
 18 19  1  0
 19 20  1  0
 20 21  2  0
 21 22  1  0
 22 23  1  0
 23 24  1  0
 24 25  2  0
 24 26  2  0
 24 27  1  0
 27 28  2  0
 28 29  1  0
 29 30  2  0
 30 31  1  0
 31 32  2  0
 31 33  2  0
 31 34  1  0
 34 35  1  0
 35 36  1  0
 36 37  1  0
 37 38  1  0
 30 39  1  0
 39 40  2  0
 22 41  2  0
 41 42  1  0
 41 43  1  0
 43 44  2  0
 44 45  1  0
 16  3  1  0
 45 17  1  0
 14 10  1  0
 44 20  1  0
 40 27  1  0
 38 34  1  0
  4 46  1  0
  5 47  1  0
 11 48  1  0
 11 49  1  0
 12 50  1  0
 12 51  1  0
 13 52  1  0
 13 53  1  0
 14 54  1  0
 14 55  1  0
 15 56  1  0
 16 57  1  0
 18 58  1  0
 18 59  1  0
 19 60  1  0
 19 61  1  0
 21 62  1  0
 23 63  1  0
 28 64  1  0
 29 65  1  0
 35 66  1  0
 35 67  1  0
 36 68  1  0
 36 69  1  0
 37 70  1  0
 37 71  1  0
 38 72  1  0
 38 73  1  0
 39 74  1  0
 40 75  1  0
 43 76  1  0
 45 77  1  0
 45 78  1  0
M  CHG  1  42  -1
M  END
>  <UniqueID>  (18) 
17

>  <SMILES>  (18) 
O=C(c1ccc(S(=O)(=O)N2CCCC2)cc1)N1CCc2cc(NS(=O)(=O)c3ccc(S(=O)(=O)N4CCCC4)cc3)c([O-])cc2C1

>  <Energy>  (18) 
99.44028555552188

>  <Genealogy>  (18) 
O=C(c1ccc(S(=O)(=O)N2CCCC2)cc1)N1CCc2cc(NS(=O)(=O)c3ccc(S(=O)(=O)N4CCCC4)cc3)c([O-])cc2C1 (protonated)
O=C(c1ccc(S(=O)(=O)N2CCCC2)cc1)N1CCc2cc(NS(=O)(=O)c3ccc(S(=O)(=O)N4CCCC4)cc3)c([O-])cc2C1 (3D coordinates assigned)
O=C(c1ccc(S(=O)(=O)N2CCCC2)cc1)N1CCc2cc(NS(=O)(=O)c3ccc(S(=O)(=O)N4CCCC4)cc3)c([O-])cc2C1 (nonaromatic ring conformer: 99.44028555552188 kcal/mol)

>  <smiles>  (18) 
O=C(c1ccc(S(=O)(=O)N2CCCC2)cc1)N1CCc2cc(NS(=O)(=O)c3ccc(S(=O)(=O)N4CCCC4)cc3)c(O)cc2C1

>  <score_type>  (18) 
oracle

>  <origin>  (18) 
adgpu

>  <m_score__min__energy>  (18) 
-16.18

>  <m_primary>  (18) 
energy

$$$$
18:0
     RDKit          3D

 36 38  0  0  0  0  0  0  0  0999 V2000
   -9.6380   21.2250  -32.2120 C   0  0  0  0  0  0  0  0  0  0  0  0
   -8.1810   21.2770  -32.1190 N   0  0  0  0  0  0  0  0  0  0  0  0
   -7.2880   20.3260  -32.5020 C   0  0  0  0  0  0  0  0  0  0  0  0
   -7.6240   19.0570  -33.0840 N   0  0  0  0  0  0  0  0  0  0  0  0
   -7.8920   17.9670  -32.3260 O   0  0  0  0  0  0  0  0  0  0  0  0
   -6.0020   20.7670  -32.2470 C   0  0  0  0  0  0  0  0  0  0  0  0
   -4.7680   20.1560  -32.4630 C   0  0  0  0  0  0  0  0  0  0  0  0
   -3.6110   20.8600  -32.0940 C   0  0  0  0  0  0  0  0  0  0  0  0
   -3.7050   22.1450  -31.5220 C   0  0  0  0  0  0  0  0  0  0  0  0
   -4.9620   22.7510  -31.3080 C   0  0  0  0  0  0  0  0  0  0  0  0
   -5.0710   24.3590  -30.5920 S   0  0  0  0  0  0  0  0  0  0  0  0
   -5.6910   25.3000  -31.5870 O   0  0  0  0  0  0  0  0  0  0  0  0
   -5.9110   24.2880  -29.3470 O   0  0  0  0  0  0  0  0  0  0  0  0
   -3.4870   24.9320  -30.1780 N   0  0  0  0  0  0  0  0  0  0  0  0
   -2.6670   24.4120  -29.1220 C   0  0  0  0  0  0  0  0  0  0  0  0
   -2.9570   23.1890  -28.4860 C   0  0  0  0  0  0  0  0  0  0  0  0
   -2.1330   22.7160  -27.4610 C   0  0  0  0  0  0  0  0  0  0  0  0
   -1.0170   23.4540  -27.0600 C   0  0  0  0  0  0  0  0  0  0  0  0
   -0.7220   24.6670  -27.6860 C   0  0  0  0  0  0  0  0  0  0  0  0
   -1.5430   25.1470  -28.7120 C   0  0  0  0  0  0  0  0  0  0  0  0
   -1.2370   26.3560  -29.3260 O   0  0  0  0  0  0  0  0  0  0  0  0
   -6.1020   22.0230  -31.6880 C   0  0  0  0  0  0  0  0  0  0  0  0
   -7.4560   22.3090  -31.6210 C   0  0  0  0  0  0  0  0  0  0  0  0
   -8.0170   23.4780  -31.1210 O   0  0  0  0  0  0  0  0  0  0  0  0
  -10.0697   21.2096  -31.2004 H   0  0  0  0  0  0  0  0  0  0  0  0
  -10.0027   22.1107  -32.7528 H   0  0  0  0  0  0  0  0  0  0  0  0
   -9.9387   20.3156  -32.7528 H   0  0  0  0  0  0  0  0  0  0  0  0
   -7.6720   18.9610  -34.1230 H   0  0  0  0  0  0  0  0  0  0  0  0
   -7.8730   18.2980  -31.3920 H   0  0  0  0  0  0  0  0  0  0  0  0
   -4.7028   19.1526  -32.9091 H   0  0  0  0  0  0  0  0  0  0  0  0
   -2.6222   20.4049  -32.2526 H   0  0  0  0  0  0  0  0  0  0  0  0
   -2.7877   22.6821  -31.2389 H   0  0  0  0  0  0  0  0  0  0  0  0
   -3.8351   22.6042  -28.7972 H   0  0  0  0  0  0  0  0  0  0  0  0
   -2.3640   21.7598  -26.9687 H   0  0  0  0  0  0  0  0  0  0  0  0
   -0.3711   23.0801  -26.2519 H   0  0  0  0  0  0  0  0  0  0  0  0
    0.1584   25.2467  -27.3715 H   0  0  0  0  0  0  0  0  0  0  0  0
  1  2  1  0
  2  3  1  0
  3  4  1  0
  4  5  1  0
  3  6  2  0
  6  7  1  0
  7  8  2  0
  8  9  1  0
  9 10  2  0
 10 11  1  0
 11 12  2  0
 11 13  2  0
 11 14  1  0
 14 15  1  0
 15 16  2  0
 16 17  1  0
 17 18  2  0
 18 19  1  0
 19 20  2  0
 20 21  1  0
 10 22  1  0
 22 23  2  0
 23 24  1  0
 23  2  1  0
 22  6  1  0
 20 15  1  0
  1 25  1  0
  1 26  1  0
  1 27  1  0
  4 28  1  0
  5 29  1  0
  7 30  1  0
  8 31  1  0
  9 32  1  0
 16 33  1  0
 17 34  1  0
 18 35  1  0
 19 36  1  0
M  CHG  3  14  -1  21  -1  24  -1
M  END
>  <UniqueID>  (19) 
18

>  <SMILES>  (19) 
Cn1c(NO)c2cccc(S(=O)(=O)[N-]c3ccccc3[O-])c2c1[O-]

>  <Energy>  (19) 
80.219286613645

>  <Genealogy>  (19) 
Cn1c(NO)c2cccc(S(=O)(=O)[N-]c3ccccc3[O-])c2c1[O-] (protonated)
Cn1c(NO)c2cccc(S(=O)(=O)[N-]c3ccccc3[O-])c2c1[O-] (3D coordinates assigned)
Cn1c(NO)c2cccc(S(=O)(=O)[N-]c3ccccc3[O-])c2c1[O-] (optimized conformer: 80.219286613645 kcal/mol)

>  <smiles>  (19) 
Cn1c(NO)c2cccc(S(=O)(=O)Nc3ccccc3O)c2c1O

>  <score_type>  (19) 
oracle

>  <origin>  (19) 
adgpu

>  <m_score__min__energy>  (19) 
-12.66

>  <m_primary>  (19) 
energy

$$$$
19:0
     RDKit          3D

 38 40  0  0  0  0  0  0  0  0999 V2000
   -1.9820   25.6440  -27.6280 O   0  0  0  0  0  0  0  0  0  0  0  0
   -2.0440   24.7010  -28.4600 C   0  0  0  0  0  0  0  0  0  0  0  0
   -2.7200   24.9240  -29.7060 N   0  0  0  0  0  0  0  0  0  0  0  0
   -3.9050   24.2550  -30.1630 C   0  0  0  0  0  0  0  0  0  0  0  0
   -5.1810   24.8250  -30.0110 C   0  0  0  0  0  0  0  0  0  0  0  0
   -6.3130   24.1510  -30.4770 C   0  0  0  0  0  0  0  0  0  0  0  0
   -6.1810   22.9110  -31.1170 C   0  0  0  0  0  0  0  0  0  0  0  0
   -7.6030   22.0610  -31.7140 S   0  0  0  0  0  0  0  0  0  0  0  0
   -8.1440   21.1910  -30.6160 O   0  0  0  0  0  0  0  0  0  0  0  0
   -8.6690   23.0350  -32.1340 O   0  0  0  0  0  0  0  0  0  0  0  0
   -7.1790   21.0620  -33.0720 N   0  0  0  0  0  0  0  0  0  0  0  0
   -6.7720   19.8260  -33.0280 C   0  0  0  0  0  0  0  0  0  0  0  0
   -6.6120   19.1190  -31.8220 C   0  0  0  0  0  0  0  0  0  0  0  0
   -6.1780   17.7960  -31.8610 C   0  0  0  0  0  0  0  0  0  0  0  0
   -5.9090   17.2030  -33.0920 C   0  0  0  0  0  0  0  0  0  0  0  0
   -5.3610   15.5410  -33.1810 Cl  0  0  0  0  0  0  0  0  0  0  0  0
   -6.0750   17.9240  -34.2300 N   0  0  0  0  0  0  0  0  0  0  0  0
   -6.4920   19.1910  -34.1980 N   0  0  0  0  0  0  0  0  0  0  0  0
   -4.9080   22.3540  -31.2890 C   0  0  0  0  0  0  0  0  0  0  0  0
   -3.7770   23.0280  -30.8230 C   0  0  0  0  0  0  0  0  0  0  0  0
   -1.4120   23.4050  -28.1270 C   0  0  0  0  0  0  0  0  0  0  0  0
   -2.2380   22.3240  -27.7750 C   0  0  0  0  0  0  0  0  0  0  0  0
   -1.6890   21.0640  -27.5200 C   0  0  0  0  0  0  0  0  0  0  0  0
   -2.8290   19.5990  -27.0690 Br  0  0  0  0  0  0  0  0  0  0  0  0
   -0.3090   20.8730  -27.6080 C   0  0  0  0  0  0  0  0  0  0  0  0
    0.5260   21.9460  -27.9310 C   0  0  0  0  0  0  0  0  0  0  0  0
   -0.0100   23.2170  -28.1730 C   0  0  0  0  0  0  0  0  0  0  0  0
    0.8760   24.2660  -28.4240 O   0  0  0  0  0  0  0  0  0  0  0  0
   -5.2888   25.8051  -29.5235 H   0  0  0  0  0  0  0  0  0  0  0  0
   -7.3103   24.5948  -30.3412 H   0  0  0  0  0  0  0  0  0  0  0  0
   -6.8272   19.6056  -30.8592 H   0  0  0  0  0  0  0  0  0  0  0  0
   -6.0491   17.2256  -30.9293 H   0  0  0  0  0  0  0  0  0  0  0  0
   -4.7983   21.3823  -31.7928 H   0  0  0  0  0  0  0  0  0  0  0  0
   -2.7790   22.5913  -30.9759 H   0  0  0  0  0  0  0  0  0  0  0  0
   -3.3256   22.4705  -27.6995 H   0  0  0  0  0  0  0  0  0  0  0  0
    0.1213   19.8777  -27.4231 H   0  0  0  0  0  0  0  0  0  0  0  0
    1.6131   21.7910  -27.9957 H   0  0  0  0  0  0  0  0  0  0  0  0
    0.5740   25.2210  -28.5620 H   0  0  0  0  0  0  0  0  0  0  0  0
  1  2  2  0
  2  3  1  0
  3  4  1  0
  4  5  2  0
  5  6  1  0
  6  7  2  0
  7  8  1  0
  8  9  2  0
  8 10  2  0
  8 11  1  0
 11 12  2  3
 12 13  1  0
 13 14  2  0
 14 15  1  0
 15 16  1  0
 15 17  2  0
 17 18  1  0
  7 19  1  0
 19 20  2  0
  2 21  1  0
 21 22  2  0
 22 23  1  0
 23 24  1  0
 23 25  2  0
 25 26  1  0
 26 27  2  0
 27 28  1  0
 20  4  1  0
 27 21  1  0
 18 12  1  0
  5 29  1  0
  6 30  1  0
 13 31  1  0
 14 32  1  0
 19 33  1  0
 20 34  1  0
 22 35  1  0
 25 36  1  0
 26 37  1  0
 28 38  1  0
M  CHG  2   3  -1  18  -1
M  END
>  <UniqueID>  (20) 
19

>  <SMILES>  (20) 
O=C([N-]c1ccc(S(=O)(=O)N=c2ccc(Cl)n[n-]2)cc1)c1cc(Br)ccc1O

>  <Energy>  (20) 
56.70537899504494

>  <Genealogy>  (20) 
O=C([N-]c1ccc(S(=O)(=O)N=c2ccc(Cl)n[n-]2)cc1)c1cc(Br)ccc1O (protonated)
O=C([N-]c1ccc(S(=O)(=O)N=c2ccc(Cl)n[n-]2)cc1)c1cc(Br)ccc1O (3D coordinates assigned)
O=C([N-]c1ccc(S(=O)(=O)N=c2ccc(Cl)n[n-]2)cc1)c1cc(Br)ccc1O (optimized conformer: 56.70537899504494 kcal/mol)

>  <smiles>  (20) 
O=C(Nc1ccc(S(=O)(=O)N=c2ccc(Cl)n[nH]2)cc1)c1cc(Br)ccc1O

>  <score_type>  (20) 
oracle

>  <origin>  (20) 
adgpu

>  <m_score__min__energy>  (20) 
-11.130000000000001

>  <m_primary>  (20) 
energy

$$$$
20:0
     RDKit          3D

 48 51  0  0  0  0  0  0  0  0999 V2000
   -2.8120   25.2920  -30.4830 H   0  0  0  0  0  0  0  0  0  0  0  0
   -3.8550   25.2940  -30.4350 N   0  0  0  0  0  0  0  0  0  0  0  0
   -4.3610   23.6450  -30.3520 S   0  0  0  0  0  0  0  0  0  0  0  0
   -4.2500   23.1550  -28.9350 O   0  0  0  0  0  0  0  0  0  0  0  0
   -5.7960   23.5360  -30.7890 O   0  0  0  0  0  0  0  0  0  0  0  0
   -3.3430   22.6680  -31.4040 C   0  0  0  0  0  0  0  0  0  0  0  0
   -2.0340   22.3470  -31.0180 C   0  0  0  0  0  0  0  0  0  0  0  0
   -1.6449   22.7007  -30.0518 H   0  0  0  0  0  0  0  0  0  0  0  0
   -1.2220   21.5790  -31.8570 C   0  0  0  0  0  0  0  0  0  0  0  0
   -0.2024   21.3162  -31.5388 H   0  0  0  0  0  0  0  0  0  0  0  0
   -1.6970   21.1410  -33.1010 C   0  0  0  0  0  0  0  0  0  0  0  0
   -0.8420   20.3220  -33.9160 N   0  0  0  0  0  0  0  0  0  0  0  0
    0.0630   20.7310  -34.7570 C   0  0  0  0  0  0  0  0  0  0  0  0
    0.3650   22.0510  -34.8860 N   0  0  0  0  0  0  0  0  0  0  0  0
    1.3280   22.4570  -35.7510 C   0  0  0  0  0  0  0  0  0  0  0  0
    1.6160   23.8590  -35.8680 N   0  0  0  0  0  0  0  0  0  0  0  0
    0.7710   24.8030  -36.1660 C   0  0  0  0  0  0  0  0  0  0  0  0
    1.1360   26.0980  -36.2530 N   0  0  0  0  0  0  0  0  0  0  0  0
   -0.0340   26.6900  -36.5730 C   0  0  0  0  0  0  0  0  0  0  0  0
   -0.1800   28.1110  -36.7730 N   0  0  0  0  0  0  0  0  0  0  0  0
   -0.8150   28.6210  -37.9950 C   0  0  0  0  0  0  0  0  0  0  0  0
   -0.4825   28.0178  -38.8527 H   0  0  0  0  0  0  0  0  0  0  0  0
   -1.9068   28.5535  -37.8790 H   0  0  0  0  0  0  0  0  0  0  0  0
   -0.4370   30.0860  -38.2350 C   0  0  0  0  0  0  0  0  0  0  0  0
    0.6207   30.1405  -38.5321 H   0  0  0  0  0  0  0  0  0  0  0  0
   -1.0820   30.4885  -39.0300 H   0  0  0  0  0  0  0  0  0  0  0  0
   -0.6290   30.8570  -37.0660 O   0  0  0  0  0  0  0  0  0  0  0  0
    0.2790   30.4330  -36.0720 C   0  0  0  0  0  0  0  0  0  0  0  0
    1.3000   30.4610  -36.4804 H   0  0  0  0  0  0  0  0  0  0  0  0
    0.1946   31.1066  -35.2065 H   0  0  0  0  0  0  0  0  0  0  0  0
   -0.0410   29.0060  -35.6170 C   0  0  0  0  0  0  0  0  0  0  0  0
    0.7733   28.6410  -34.9737 H   0  0  0  0  0  0  0  0  0  0  0  0
   -0.9906   29.0166  -35.0620 H   0  0  0  0  0  0  0  0  0  0  0  0
   -1.0380   25.7970  -36.6690 N   0  0  0  0  0  0  0  0  0  0  0  0
   -2.0440   25.9780  -36.8810 H   0  0  0  0  0  0  0  0  0  0  0  0
   -0.5400   24.6020  -36.4130 N   0  0  0  0  0  0  0  0  0  0  0  0
    2.0000   21.5330  -36.4860 N   0  0  0  0  0  0  0  0  0  0  0  0
    1.7100   20.2150  -36.3560 C   0  0  0  0  0  0  0  0  0  0  0  0
    2.6020   19.0040  -37.3240 S   0  0  0  0  0  0  0  0  0  0  0  0
    1.1110   18.4320  -38.1950 C   0  0  0  0  0  0  0  0  0  0  0  0
    0.3468   18.1388  -37.4601 H   0  0  0  0  0  0  0  0  0  0  0  0
    0.7206   19.2442  -38.8258 H   0  0  0  0  0  0  0  0  0  0  0  0
    1.3640   17.5671  -38.8258 H   0  0  0  0  0  0  0  0  0  0  0  0
    0.7470   19.8160  -35.4880 N   0  0  0  0  0  0  0  0  0  0  0  0
   -3.0190   21.4450  -33.4750 C   0  0  0  0  0  0  0  0  0  0  0  0
   -3.4157   21.0762  -34.4324 H   0  0  0  0  0  0  0  0  0  0  0  0
   -3.8310   22.2140  -32.6350 C   0  0  0  0  0  0  0  0  0  0  0  0
   -4.8572   22.4630  -32.9429 H   0  0  0  0  0  0  0  0  0  0  0  0
  1  2  1  0
  2  3  1  0
  3  4  2  0
  3  5  2  0
  3  6  1  0
  6  7  2  0
  7  8  1  0
  7  9  1  0
  9 10  1  0
  9 11  2  0
 11 12  1  0
 12 13  2  0
 13 14  1  0
 14 15  2  0
 15 16  1  0
 16 17  2  0
 17 18  1  0
 18 19  2  0
 19 20  1  0
 20 21  1  0
 21 22  1  0
 21 23  1  0
 21 24  1  0
 24 25  1  0
 24 26  1  0
 24 27  1  0
 27 28  1  0
 28 29  1  0
 28 30  1  0
 28 31  1  0
 31 32  1  0
 31 33  1  0
 19 34  1  0
 34 35  1  0
 34 36  1  0
 15 37  1  0
 37 38  1  0
 38 39  1  0
 39 40  1  0
 40 41  1  0
 40 42  1  0
 40 43  1  0
 38 44  2  0
 11 45  1  0
 45 46  1  0
 45 47  2  0
 47 48  1  0
 47  6  1  0
 44 13  1  0
 36 17  1  0
 31 20  1  0
M  CHG  3   2  -1  36  -1  37  -1
M  END
>  <UniqueID>  (21) 
20

>  <SMILES>  (21) 
CSc1n/c(=N/c2ccc(S([NH-])(=O)=O)cc2)nc(/N=c2/nc(N3CCOCC3)[nH][n-]2)[n-]1

>  <Energy>  (21) 
91.24100073670174

>  <Genealogy>  (21) 
CSc1nc(=Nc2ccc(S([NH-])(=O)=O)cc2)nc(N=c2nc(N3CCOCC3)[nH][n-]2)[n-]1 (protonated)
CSc1n/c(=N/c2ccc(S([NH-])(=O)=O)cc2)nc(/N=c2/nc(N3CCOCC3)[nH][n-]2)[n-]1 (cis-trans isomerization)
CSc1n/c(=N/c2ccc(S([NH-])(=O)=O)cc2)nc(/N=c2/nc(N3CCOCC3)[nH][n-]2)[n-]1 (3D coordinates assigned)
CSc1n/c(=N/c2ccc(S([NH-])(=O)=O)cc2)nc(/N=c2/nc(N3CCOCC3)[nH][n-]2)[n-]1 (nonaromatic ring conformer: 91.24100073670174 kcal/mol)

>  <smiles>  (21) 
CSc1nc(=Nc2ccc(S(N)(=O)=O)cc2)nc(N=c2nc(N3CCOCC3)[nH][nH]2)[nH]1

>  <score_type>  (21) 
oracle

>  <origin>  (21) 
adgpu

>  <m_score__min__energy>  (21) 
-12.15

>  <m_primary>  (21) 
energy

$$$$
21:0
     RDKit          3D

 54 57  0  0  0  0  0  0  0  0999 V2000
   -9.0120   20.4900  -32.2910 C   0  0  0  0  0  0  0  0  0  0  0  0
   -8.1220   21.5730  -31.7560 C   0  0  0  0  0  0  0  0  0  0  0  0
   -7.1780   22.1960  -32.5870 C   0  0  0  0  0  0  0  0  0  0  0  0
   -6.3270   23.1800  -32.0740 C   0  0  0  0  0  0  0  0  0  0  0  0
   -6.4030   23.5410  -30.7220 C   0  0  0  0  0  0  0  0  0  0  0  0
   -5.3440   24.7830  -30.0610 S   0  0  0  0  0  0  0  0  0  0  0  0
   -6.0860   25.6470  -29.0810 O   0  0  0  0  0  0  0  0  0  0  0  0
   -4.8630   25.6700  -31.1730 O   0  0  0  0  0  0  0  0  0  0  0  0
   -4.0010   24.0110  -29.2620 N   0  0  0  0  0  0  0  0  0  0  0  0
   -3.6040   24.1470  -27.9660 C   0  0  0  0  0  0  0  0  0  0  0  0
   -4.1920   24.9030  -27.0930 N   0  0  0  0  0  0  0  0  0  0  0  0
   -2.5550   23.3550  -27.6430 N   0  0  0  0  0  0  0  0  0  0  0  0
   -2.3050   22.6730  -28.7720 C   0  0  0  0  0  0  0  0  0  0  0  0
   -1.3700   21.6610  -28.9670 C   0  0  0  0  0  0  0  0  0  0  0  0
   -1.3500   21.0210  -30.2190 C   0  0  0  0  0  0  0  0  0  0  0  0
   -2.2600   21.4000  -31.2360 C   0  0  0  0  0  0  0  0  0  0  0  0
   -2.2900   20.5230  -32.7680 S   0  0  0  0  0  0  0  0  0  0  0  0
   -0.8860   20.1480  -33.1530 O   0  0  0  0  0  0  0  0  0  0  0  0
   -2.8420   21.4210  -33.8410 O   0  0  0  0  0  0  0  0  0  0  0  0
   -3.2590   19.0700  -32.6560 N   0  0  0  0  0  0  0  0  0  0  0  0
   -4.6090   19.3550  -32.1130 C   0  0  0  0  0  0  0  0  0  0  0  0
   -5.6920   19.4300  -33.2020 C   0  0  0  0  0  0  0  0  0  0  0  0
   -5.7730   18.1160  -34.0190 C   0  0  0  0  0  0  0  0  0  0  0  0
   -6.8900   17.2030  -33.5000 C   0  0  0  0  0  0  0  0  0  0  0  0
   -4.4230   17.3610  -34.0430 C   0  0  0  0  0  0  0  0  0  0  0  0
   -3.2510   18.3400  -33.9440 C   0  0  0  0  0  0  0  0  0  0  0  0
   -3.1830   22.4420  -31.0060 C   0  0  0  0  0  0  0  0  0  0  0  0
   -3.1770   23.0590  -29.7530 C   0  0  0  0  0  0  0  0  0  0  0  0
   -7.3360   22.9130  -29.8880 C   0  0  0  0  0  0  0  0  0  0  0  0
   -8.1850   21.9270  -30.3990 C   0  0  0  0  0  0  0  0  0  0  0  0
   -9.4643   19.9396  -31.4528 H   0  0  0  0  0  0  0  0  0  0  0  0
   -9.8060   20.9384  -32.9062 H   0  0  0  0  0  0  0  0  0  0  0  0
   -8.4182   19.7979  -32.9062 H   0  0  0  0  0  0  0  0  0  0  0  0
   -7.1072   21.9090  -33.6465 H   0  0  0  0  0  0  0  0  0  0  0  0
   -5.5964   23.6717  -32.7331 H   0  0  0  0  0  0  0  0  0  0  0  0
   -5.0250   25.4880  -27.3110 H   0  0  0  0  0  0  0  0  0  0  0  0
   -2.0850   23.2550  -26.7150 H   0  0  0  0  0  0  0  0  0  0  0  0
   -0.6704   21.3715  -28.1690 H   0  0  0  0  0  0  0  0  0  0  0  0
   -0.6215   20.2193  -30.4101 H   0  0  0  0  0  0  0  0  0  0  0  0
   -4.8779   18.5565  -31.4058 H   0  0  0  0  0  0  0  0  0  0  0  0
   -4.5656   20.3395  -31.6243 H   0  0  0  0  0  0  0  0  0  0  0  0
   -6.6658   19.6139  -32.7246 H   0  0  0  0  0  0  0  0  0  0  0  0
   -5.4308   20.2471  -33.8906 H   0  0  0  0  0  0  0  0  0  0  0  0
   -6.0120   18.4026  -35.0538 H   0  0  0  0  0  0  0  0  0  0  0  0
   -6.8853   17.2068  -32.4000 H   0  0  0  0  0  0  0  0  0  0  0  0
   -7.8614   17.5690  -33.8638 H   0  0  0  0  0  0  0  0  0  0  0  0
   -6.7246   16.1782  -33.8638 H   0  0  0  0  0  0  0  0  0  0  0  0
   -4.3841   16.6647  -33.1924 H   0  0  0  0  0  0  0  0  0  0  0  0
   -4.3436   16.8108  -34.9922 H   0  0  0  0  0  0  0  0  0  0  0  0
   -2.3088   17.7790  -34.0307 H   0  0  0  0  0  0  0  0  0  0  0  0
   -3.3465   19.0748  -34.7570 H   0  0  0  0  0  0  0  0  0  0  0  0
   -3.8863   22.7590  -31.7901 H   0  0  0  0  0  0  0  0  0  0  0  0
   -7.4011   23.1964  -28.8271 H   0  0  0  0  0  0  0  0  0  0  0  0
   -8.9053   21.4265  -29.7352 H   0  0  0  0  0  0  0  0  0  0  0  0
  1  2  1  0
  2  3  2  0
  3  4  1  0
  4  5  2  0
  5  6  1  0
  6  7  2  0
  6  8  2  0
  6  9  1  0
  9 10  1  0
 10 11  2  3
 10 12  1  0
 12 13  1  0
 13 14  2  0
 14 15  1  0
 15 16  2  0
 16 17  1  0
 17 18  2  0
 17 19  2  0
 17 20  1  0
 20 21  1  0
 21 22  1  0
 22 23  1  0
 23 24  1  0
 23 25  1  0
 25 26  1  0
 16 27  1  0
 27 28  2  0
  5 29  1  0
 29 30  2  0
 30  2  1  0
 28  9  1  0
 28 13  1  0
 26 20  1  0
  1 31  1  0
  1 32  1  0
  1 33  1  0
  3 34  1  0
  4 35  1  0
 11 36  1  0
 12 37  1  0
 14 38  1  0
 15 39  1  0
 21 40  1  0
 21 41  1  0
 22 42  1  0
 22 43  1  0
 23 44  1  0
 24 45  1  0
 24 46  1  0
 24 47  1  0
 25 48  1  0
 25 49  1  0
 26 50  1  0
 26 51  1  0
 27 52  1  0
 29 53  1  0
 30 54  1  0
M  END
>  <UniqueID>  (22) 
21

>  <SMILES>  (22) 
Cc1ccc(S(=O)(=O)n2c(=N)[nH]c3ccc(S(=O)(=O)N4CCC(C)CC4)cc32)cc1

>  <Energy>  (22) 
101.50208242572624

>  <Genealogy>  (22) 
Cc1ccc(S(=O)(=O)n2c(=N)[nH]c3ccc(S(=O)(=O)N4CCC(C)CC4)cc32)cc1 (3D coordinates assigned)
Cc1ccc(S(=O)(=O)n2c(=N)[nH]c3ccc(S(=O)(=O)N4CCC(C)CC4)cc32)cc1 (nonaromatic ring conformer: 101.50208242572624 kcal/mol)

>  <smiles>  (22) 
Cc1ccc(S(=O)(=O)n2c(=N)[nH]c3ccc(S(=O)(=O)N4CCC(C)CC4)cc32)cc1

>  <score_type>  (22) 
oracle

>  <origin>  (22) 
adgpu

>  <m_score__min__energy>  (22) 
-10.57

>  <m_primary>  (22) 
energy

$$$$
22:0
     RDKit          3D

 46 48  0  0  0  0  0  0  0  0999 V2000
   -6.7520   16.1550  -34.1550 C   0  0  0  0  0  0  0  0  0  0  0  0
   -5.9610   17.3400  -33.6810 C   0  0  0  0  0  0  0  0  0  0  0  0
   -4.6630   17.5590  -34.1610 C   0  0  0  0  0  0  0  0  0  0  0  0
   -3.9100   18.6490  -33.7010 C   0  0  0  0  0  0  0  0  0  0  0  0
   -2.5100   18.8650  -34.1960 C   0  0  0  0  0  0  0  0  0  0  0  0
   -4.4480   19.4960  -32.7190 C   0  0  0  0  0  0  0  0  0  0  0  0
   -5.7380   19.2650  -32.2080 C   0  0  0  0  0  0  0  0  0  0  0  0
   -6.3070   20.0800  -31.2170 O   0  0  0  0  0  0  0  0  0  0  0  0
   -7.2150   21.1110  -31.4790 C   0  0  0  0  0  0  0  0  0  0  0  0
   -8.5760   20.7950  -31.5580 C   0  0  0  0  0  0  0  0  0  0  0  0
   -9.5150   21.7800  -31.8690 C   0  0  0  0  0  0  0  0  0  0  0  0
   -9.0980   23.0910  -32.1030 C   0  0  0  0  0  0  0  0  0  0  0  0
   -7.7440   23.4230  -32.0060 C   0  0  0  0  0  0  0  0  0  0  0  0
   -6.7910   22.4480  -31.6650 C   0  0  0  0  0  0  0  0  0  0  0  0
   -5.0900   22.9230  -31.4840 S   0  0  0  0  0  0  0  0  0  0  0  0
   -5.0480   24.4020  -31.2180 O   0  0  0  0  0  0  0  0  0  0  0  0
   -4.3460   22.6390  -32.7570 O   0  0  0  0  0  0  0  0  0  0  0  0
   -4.3290   22.0700  -30.1510 N   0  0  0  0  0  0  0  0  0  0  0  0
   -2.8860   21.8410  -30.3800 C   0  0  0  0  0  0  0  0  0  0  0  0
   -2.0350   23.0700  -30.0290 C   0  0  0  0  0  0  0  0  0  0  0  0
   -2.2830   23.4910  -28.7050 O   0  0  0  0  0  0  0  0  0  0  0  0
   -3.6280   23.9030  -28.5880 C   0  0  0  0  0  0  0  0  0  0  0  0
   -4.5860   22.7320  -28.8530 C   0  0  0  0  0  0  0  0  0  0  0  0
   -6.4880   18.1910  -32.6980 C   0  0  0  0  0  0  0  0  0  0  0  0
   -7.1269   15.5933  -33.2867 H   0  0  0  0  0  0  0  0  0  0  0  0
   -7.6013   16.5004  -34.7628 H   0  0  0  0  0  0  0  0  0  0  0  0
   -6.1073   15.5031  -34.7628 H   0  0  0  0  0  0  0  0  0  0  0  0
   -4.2318   16.8715  -34.9035 H   0  0  0  0  0  0  0  0  0  0  0  0
   -1.8298   18.9699  -33.3379 H   0  0  0  0  0  0  0  0  0  0  0  0
   -2.2000   18.0041  -34.8065 H   0  0  0  0  0  0  0  0  0  0  0  0
   -2.4739   19.7793  -34.8065 H   0  0  0  0  0  0  0  0  0  0  0  0
   -3.8569   20.3458  -32.3468 H   0  0  0  0  0  0  0  0  0  0  0  0
   -8.9083   19.7627  -31.3737 H   0  0  0  0  0  0  0  0  0  0  0  0
  -10.5828   21.5230  -31.9296 H   0  0  0  0  0  0  0  0  0  0  0  0
   -9.8359   23.8639  -32.3641 H   0  0  0  0  0  0  0  0  0  0  0  0
   -7.4212   24.4568  -32.1983 H   0  0  0  0  0  0  0  0  0  0  0  0
   -4.7930   21.1330  -30.1040 H   0  0  0  0  0  0  0  0  0  0  0  0
   -2.5593   20.9955  -29.7568 H   0  0  0  0  0  0  0  0  0  0  0  0
   -2.7457   21.6307  -31.4506 H   0  0  0  0  0  0  0  0  0  0  0  0
   -0.9705   22.8126  -30.1320 H   0  0  0  0  0  0  0  0  0  0  0  0
   -2.2995   23.8888  -30.7142 H   0  0  0  0  0  0  0  0  0  0  0  0
   -3.8001   24.2858  -27.5712 H   0  0  0  0  0  0  0  0  0  0  0  0
   -3.8203   24.6893  -29.3328 H   0  0  0  0  0  0  0  0  0  0  0  0
   -4.4668   21.9903  -28.0494 H   0  0  0  0  0  0  0  0  0  0  0  0
   -5.6081   23.1374  -28.8821 H   0  0  0  0  0  0  0  0  0  0  0  0
   -7.5011   18.0118  -32.3088 H   0  0  0  0  0  0  0  0  0  0  0  0
  1  2  1  0
  2  3  2  0
  3  4  1  0
  4  5  1  0
  4  6  2  0
  6  7  1  0
  7  8  1  0
  8  9  1  0
  9 10  2  0
 10 11  1  0
 11 12  2  0
 12 13  1  0
 13 14  2  0
 14 15  1  0
 15 16  2  0
 15 17  2  0
 15 18  1  0
 18 19  1  0
 19 20  1  0
 20 21  1  0
 21 22  1  0
 22 23  1  0
  7 24  2  0
 24  2  1  0
 14  9  1  0
 23 18  1  0
  1 25  1  0
  1 26  1  0
  1 27  1  0
  3 28  1  0
  5 29  1  0
  5 30  1  0
  5 31  1  0
  6 32  1  0
 10 33  1  0
 11 34  1  0
 12 35  1  0
 13 36  1  0
 18 37  1  0
 19 38  1  0
 19 39  1  0
 20 40  1  0
 20 41  1  0
 22 42  1  0
 22 43  1  0
 23 44  1  0
 23 45  1  0
 24 46  1  0
M  CHG  1  18   1
M  END
>  <UniqueID>  (23) 
22

>  <SMILES>  (23) 
Cc1cc(C)cc(Oc2ccccc2S(=O)(=O)[NH+]2CCOCC2)c1

>  <Energy>  (23) 
59.41344484080592

>  <Genealogy>  (23) 
Cc1cc(C)cc(Oc2ccccc2S(=O)(=O)[NH+]2CCOCC2)c1 (protonated)
Cc1cc(C)cc(Oc2ccccc2S(=O)(=O)[NH+]2CCOCC2)c1 (3D coordinates assigned)
Cc1cc(C)cc(Oc2ccccc2S(=O)(=O)[NH+]2CCOCC2)c1 (nonaromatic ring conformer: 59.41344484080592 kcal/mol)

>  <smiles>  (23) 
Cc1cc(C)cc(Oc2ccccc2S(=O)(=O)N2CCOCC2)c1

>  <score_type>  (23) 
oracle

>  <origin>  (23) 
adgpu

>  <m_score__min__energy>  (23) 
-7.9299999999999997

>  <m_primary>  (23) 
energy

$$$$
23:0
     RDKit          3D

 50 53  0  0  0  0  0  0  0  0999 V2000
    3.4810   19.8300  -36.0220 C   0  0  0  0  0  0  0  0  0  0  0  0
    1.7280   19.9700  -36.3290 S   0  0  0  0  0  0  0  0  0  0  0  0
    1.3750   21.4230  -36.4720 O   0  0  0  0  0  0  0  0  0  0  0  0
    1.4020   19.2660  -37.6170 O   0  0  0  0  0  0  0  0  0  0  0  0
    0.7850   19.2790  -35.0280 N   0  0  0  0  0  0  0  0  0  0  0  0
    1.6070   19.1740  -33.8020 C   0  0  0  0  0  0  0  0  0  0  0  0
    0.7430   18.9750  -32.5530 C   0  0  0  0  0  0  0  0  0  0  0  0
   -0.2150   20.0780  -32.4180 N   0  0  0  0  0  0  0  0  0  0  0  0
   -0.8510   20.3240  -31.1480 C   0  0  0  0  0  0  0  0  0  0  0  0
   -0.8680   19.4140  -30.2750 O   0  0  0  0  0  0  0  0  0  0  0  0
   -1.4550   21.6370  -30.8250 C   0  0  0  0  0  0  0  0  0  0  0  0
   -0.8180   22.4690  -29.8900 C   0  0  0  0  0  0  0  0  0  0  0  0
   -1.3830   23.6900  -29.5250 C   0  0  0  0  0  0  0  0  0  0  0  0
   -2.6050   24.0890  -30.0720 C   0  0  0  0  0  0  0  0  0  0  0  0
   -3.1730   25.2960  -29.6790 O   0  0  0  0  0  0  0  0  0  0  0  0
   -3.2640   23.2690  -30.9980 C   0  0  0  0  0  0  0  0  0  0  0  0
   -4.5220   23.6840  -31.5320 N   0  0  0  0  0  0  0  0  0  0  0  0
   -5.9330   23.7490  -30.5320 S   0  0  0  0  0  0  0  0  0  0  0  0
   -5.5730   23.3560  -29.1250 O   0  0  0  0  0  0  0  0  0  0  0  0
   -6.4920   25.1450  -30.5180 O   0  0  0  0  0  0  0  0  0  0  0  0
   -7.1230   22.6150  -31.1750 C   0  0  0  0  0  0  0  0  0  0  0  0
   -8.4260   23.0530  -31.4750 C   0  0  0  0  0  0  0  0  0  0  0  0
   -9.3640   22.1770  -32.0460 C   0  0  0  0  0  0  0  0  0  0  0  0
   -9.0170   20.8530  -32.3430 C   0  0  0  0  0  0  0  0  0  0  0  0
   -7.7220   20.4110  -32.0650 C   0  0  0  0  0  0  0  0  0  0  0  0
   -7.3040   19.1520  -32.3460 N   0  0  0  0  0  0  0  0  0  0  0  0
   -5.7370   19.2440  -31.8230 S   0  0  0  0  0  0  0  0  0  0  0  0
   -5.5300   20.7830  -31.2590 N   0  0  0  0  0  0  0  0  0  0  0  0
   -6.7700   21.2910  -31.4780 C   0  0  0  0  0  0  0  0  0  0  0  0
   -2.6830   22.0510  -31.4000 C   0  0  0  0  0  0  0  0  0  0  0  0
   -3.3210   21.2980  -32.3890 O   0  0  0  0  0  0  0  0  0  0  0  0
   -0.5540   20.8750  -33.6070 C   0  0  0  0  0  0  0  0  0  0  0  0
   -0.5060   19.9910  -34.8600 C   0  0  0  0  0  0  0  0  0  0  0  0
    3.6633   19.8154  -34.9373 H   0  0  0  0  0  0  0  0  0  0  0  0
    3.8585   18.8989  -36.4698 H   0  0  0  0  0  0  0  0  0  0  0  0
    4.0015   20.6894  -36.4698 H   0  0  0  0  0  0  0  0  0  0  0  0
    2.2893   18.3171  -33.9031 H   0  0  0  0  0  0  0  0  0  0  0  0
    2.1668   20.1135  -33.6843 H   0  0  0  0  0  0  0  0  0  0  0  0
    0.1941   18.0256  -32.6385 H   0  0  0  0  0  0  0  0  0  0  0  0
    1.3936   18.9544  -31.6663 H   0  0  0  0  0  0  0  0  0  0  0  0
    0.1358   22.1542  -29.4414 H   0  0  0  0  0  0  0  0  0  0  0  0
   -0.8655   24.3407  -28.8047 H   0  0  0  0  0  0  0  0  0  0  0  0
   -8.7133   24.0928  -31.2600 H   0  0  0  0  0  0  0  0  0  0  0  0
  -10.3816   22.5346  -32.2621 H   0  0  0  0  0  0  0  0  0  0  0  0
   -9.7550   20.1703  -32.7894 H   0  0  0  0  0  0  0  0  0  0  0  0
   -4.2290   21.5360  -32.7680 H   0  0  0  0  0  0  0  0  0  0  0  0
   -1.5664   21.2894  -33.4917 H   0  0  0  0  0  0  0  0  0  0  0  0
    0.1732   21.6934  -33.7134 H   0  0  0  0  0  0  0  0  0  0  0  0
   -1.3102   19.2437  -34.7909 H   0  0  0  0  0  0  0  0  0  0  0  0
   -0.6282   20.6529  -35.7301 H   0  0  0  0  0  0  0  0  0  0  0  0
  1  2  1  0
  2  3  2  0
  2  4  2  0
  2  5  1  0
  5  6  1  0
  6  7  1  0
  7  8  1  0
  8  9  1  0
  9 10  2  0
  9 11  1  0
 11 12  2  0
 12 13  1  0
 13 14  2  0
 14 15  1  0
 14 16  1  0
 16 17  1  0
 17 18  1  0
 18 19  2  0
 18 20  2  0
 18 21  1  0
 21 22  2  0
 22 23  1  0
 23 24  2  0
 24 25  1  0
 25 26  2  0
 26 27  1  0
 27 28  1  0
 28 29  2  0
 16 30  2  0
 30 31  1  0
  8 32  1  0
 32 33  1  0
 33  5  1  0
 30 11  1  0
 29 21  1  0
 29 25  1  0
  1 34  1  0
  1 35  1  0
  1 36  1  0
  6 37  1  0
  6 38  1  0
  7 39  1  0
  7 40  1  0
 12 41  1  0
 13 42  1  0
 22 43  1  0
 23 44  1  0
 24 45  1  0
 31 46  1  0
 32 47  1  0
 32 48  1  0
 33 49  1  0
 33 50  1  0
M  CHG  2  15  -1  17  -1
M  END
>  <UniqueID>  (24) 
23

>  <SMILES>  (24) 
CS(=O)(=O)N1CCN(C(=O)c2ccc([O-])c([N-]S(=O)(=O)c3cccc4nsnc34)c2O)CC1

>  <Energy>  (24) 
108.27702854367857

>  <Genealogy>  (24) 
CS(=O)(=O)N1CCN(C(=O)c2ccc([O-])c([N-]S(=O)(=O)c3cccc4nsnc34)c2O)CC1 (protonated)
CS(=O)(=O)N1CCN(C(=O)c2ccc([O-])c([N-]S(=O)(=O)c3cccc4nsnc34)c2O)CC1 (3D coordinates assigned)
CS(=O)(=O)N1CCN(C(=O)c2ccc([O-])c([N-]S(=O)(=O)c3cccc4nsnc34)c2O)CC1 (nonaromatic ring conformer: 108.27702854367857 kcal/mol)

>  <smiles>  (24) 
CS(=O)(=O)N1CCN(C(=O)c2ccc(O)c(NS(=O)(=O)c3cccc4nsnc34)c2O)CC1

>  <score_type>  (24) 
oracle

>  <origin>  (24) 
adgpu

>  <m_score__min__energy>  (24) 
-13.4

>  <m_primary>  (24) 
energy

$$$$
24:0
     RDKit          3D

 53 55  0  0  0  0  0  0  0  0999 V2000
   -2.8280   20.3990  -27.5360 C   0  0  0  0  0  0  0  0  0  0  0  0
   -3.2450   21.8630  -27.6360 C   0  0  0  0  0  0  0  0  0  0  0  0
   -2.0860   22.7730  -27.3090 C   0  0  0  0  0  0  0  0  0  0  0  0
   -1.0610   22.3040  -26.4740 C   0  0  0  0  0  0  0  0  0  0  0  0
    0.0170   23.1240  -26.1480 C   0  0  0  0  0  0  0  0  0  0  0  0
    0.0710   24.4340  -26.6220 C   0  0  0  0  0  0  0  0  0  0  0  0
   -0.9590   24.9420  -27.4290 C   0  0  0  0  0  0  0  0  0  0  0  0
   -0.8900   26.3810  -27.8620 C   0  0  0  0  0  0  0  0  0  0  0  0
   -2.0290   24.0950  -27.8100 C   0  0  0  0  0  0  0  0  0  0  0  0
   -3.0800   24.5620  -28.6700 N   0  0  0  0  0  0  0  0  0  0  0  0
   -3.2180   24.2610  -30.0660 C   0  0  0  0  0  0  0  0  0  0  0  0
   -3.8600   25.0630  -30.7940 O   0  0  0  0  0  0  0  0  0  0  0  0
   -2.6990   23.0010  -30.6540 C   0  0  0  0  0  0  0  0  0  0  0  0
   -1.3370   22.6950  -30.4850 C   0  0  0  0  0  0  0  0  0  0  0  0
   -0.8020   21.5110  -30.9920 C   0  0  0  0  0  0  0  0  0  0  0  0
   -1.6230   20.6040  -31.6570 C   0  0  0  0  0  0  0  0  0  0  0  0
   -2.9800   20.8790  -31.8210 C   0  0  0  0  0  0  0  0  0  0  0  0
   -3.5360   22.0760  -31.3350 C   0  0  0  0  0  0  0  0  0  0  0  0
   -5.2650   22.3680  -31.6090 S   0  0  0  0  0  0  0  0  0  0  0  0
   -5.8970   22.8250  -30.3230 O   0  0  0  0  0  0  0  0  0  0  0  0
   -5.4750   23.4270  -32.6540 O   0  0  0  0  0  0  0  0  0  0  0  0
   -6.0580   20.9000  -32.1800 C   0  0  0  0  0  0  0  0  0  0  0  0
   -5.5040   20.1870  -33.2500 C   0  0  0  0  0  0  0  0  0  0  0  0
   -6.1080   19.0060  -33.7040 C   0  0  0  0  0  0  0  0  0  0  0  0
   -5.5380   18.2730  -34.8820 C   0  0  0  0  0  0  0  0  0  0  0  0
   -7.2880   18.5540  -33.0940 C   0  0  0  0  0  0  0  0  0  0  0  0
   -7.8360   19.2490  -32.0060 C   0  0  0  0  0  0  0  0  0  0  0  0
   -9.1110   18.7750  -31.3720 C   0  0  0  0  0  0  0  0  0  0  0  0
   -7.2240   20.4300  -31.5600 C   0  0  0  0  0  0  0  0  0  0  0  0
   -2.7464   20.1125  -26.4771 H   0  0  0  0  0  0  0  0  0  0  0  0
   -3.5822   19.7684  -28.0294 H   0  0  0  0  0  0  0  0  0  0  0  0
   -1.8547   20.2605  -28.0294 H   0  0  0  0  0  0  0  0  0  0  0  0
   -3.5893   22.0710  -28.6598 H   0  0  0  0  0  0  0  0  0  0  0  0
   -4.0545   22.0495  -26.9150 H   0  0  0  0  0  0  0  0  0  0  0  0
   -1.1088   21.2806  -26.0735 H   0  0  0  0  0  0  0  0  0  0  0  0
    0.8284   22.7365  -25.5144 H   0  0  0  0  0  0  0  0  0  0  0  0
    0.9269   25.0741  -26.3617 H   0  0  0  0  0  0  0  0  0  0  0  0
   -0.8589   27.0299  -26.9743 H   0  0  0  0  0  0  0  0  0  0  0  0
    0.0168   26.5396  -28.4641 H   0  0  0  0  0  0  0  0  0  0  0  0
   -1.7774   26.6257  -28.4641 H   0  0  0  0  0  0  0  0  0  0  0  0
   -0.6852   23.3984  -29.9461 H   0  0  0  0  0  0  0  0  0  0  0  0
    0.2690   21.2936  -30.8665 H   0  0  0  0  0  0  0  0  0  0  0  0
   -1.2003   19.6691  -32.0536 H   0  0  0  0  0  0  0  0  0  0  0  0
   -3.6235   20.1510  -32.3367 H   0  0  0  0  0  0  0  0  0  0  0  0
   -4.5894   20.5556  -33.7374 H   0  0  0  0  0  0  0  0  0  0  0  0
   -4.8987   17.4509  -34.5280 H   0  0  0  0  0  0  0  0  0  0  0  0
   -6.3577   17.8640  -35.4910 H   0  0  0  0  0  0  0  0  0  0  0  0
   -4.9396   18.9666  -35.4910 H   0  0  0  0  0  0  0  0  0  0  0  0
   -7.7864   17.6489  -33.4715 H   0  0  0  0  0  0  0  0  0  0  0  0
   -9.0118   18.8119  -30.2771 H   0  0  0  0  0  0  0  0  0  0  0  0
   -9.9408   19.4247  -31.6871 H   0  0  0  0  0  0  0  0  0  0  0  0
   -9.3149   17.7410  -31.6871 H   0  0  0  0  0  0  0  0  0  0  0  0
   -7.6611   20.9897  -30.7200 H   0  0  0  0  0  0  0  0  0  0  0  0
  1  2  1  0
  2  3  1  0
  3  4  2  0
  4  5  1  0
  5  6  2  0
  6  7  1  0
  7  8  1  0
  7  9  2  0
  9 10  1  0
 10 11  1  0
 11 12  2  0
 11 13  1  0
 13 14  2  0
 14 15  1  0
 15 16  2  0
 16 17  1  0
 17 18  2  0
 18 19  1  0
 19 20  2  0
 19 21  2  0
 19 22  1  0
 22 23  2  0
 23 24  1  0
 24 25  1  0
 24 26  2  0
 26 27  1  0
 27 28  1  0
 27 29  2  0
  9  3  1  0
 18 13  1  0
 29 22  1  0
  1 30  1  0
  1 31  1  0
  1 32  1  0
  2 33  1  0
  2 34  1  0
  4 35  1  0
  5 36  1  0
  6 37  1  0
  8 38  1  0
  8 39  1  0
  8 40  1  0
 14 41  1  0
 15 42  1  0
 16 43  1  0
 17 44  1  0
 23 45  1  0
 25 46  1  0
 25 47  1  0
 25 48  1  0
 26 49  1  0
 28 50  1  0
 28 51  1  0
 28 52  1  0
 29 53  1  0
M  CHG  1  10  -1
M  END
>  <UniqueID>  (25) 
24

>  <SMILES>  (25) 
CCc1cccc(C)c1[N-]C(=O)c1ccccc1S(=O)(=O)c1cc(C)cc(C)c1

>  <Energy>  (25) 
65.32648778123378

>  <Genealogy>  (25) 
CCc1cccc(C)c1[N-]C(=O)c1ccccc1S(=O)(=O)c1cc(C)cc(C)c1 (protonated)
CCc1cccc(C)c1[N-]C(=O)c1ccccc1S(=O)(=O)c1cc(C)cc(C)c1 (3D coordinates assigned)
CCc1cccc(C)c1[N-]C(=O)c1ccccc1S(=O)(=O)c1cc(C)cc(C)c1 (optimized conformer: 65.32648778123378 kcal/mol)

>  <smiles>  (25) 
CCc1cccc(C)c1NC(=O)c1ccccc1S(=O)(=O)c1cc(C)cc(C)c1

>  <score_type>  (25) 
oracle

>  <origin>  (25) 
adgpu

>  <m_score__min__energy>  (25) 
-10.550000000000001

>  <m_primary>  (25) 
energy

$$$$
25:0
     RDKit          3D

 54 57  0  0  0  0  0  0  0  0999 V2000
   -2.9040   17.8450  -35.2840 O   0  0  0  0  0  0  0  0  0  0  0  0
   -2.5390   16.6630  -34.4350 S   0  0  0  0  0  0  0  0  0  0  0  0
   -2.3550   15.4670  -35.3260 O   0  0  0  0  0  0  0  0  0  0  0  0
   -1.0270   17.0580  -33.6080 C   0  0  0  0  0  0  0  0  0  0  0  0
   -0.9380   16.8970  -32.2160 C   0  0  0  0  0  0  0  0  0  0  0  0
    0.2440   17.2120  -31.5400 C   0  0  0  0  0  0  0  0  0  0  0  0
    1.3510   17.6850  -32.2480 C   0  0  0  0  0  0  0  0  0  0  0  0
    2.8330   18.0790  -31.3980 Cl  0  0  0  0  0  0  0  0  0  0  0  0
    1.2760   17.8430  -33.6340 C   0  0  0  0  0  0  0  0  0  0  0  0
    0.0970   17.5300  -34.3210 C   0  0  0  0  0  0  0  0  0  0  0  0
    0.0700   17.7460  -36.0670 Cl  0  0  0  0  0  0  0  0  0  0  0  0
   -3.7860   16.3010  -33.2690 N   0  0  0  0  0  0  0  0  0  0  0  0
   -3.8590   15.1660  -32.5380 C   0  0  0  0  0  0  0  0  0  0  0  0
   -2.7370   13.8180  -32.6320 Cl  0  0  0  0  0  0  0  0  0  0  0  0
   -4.9780   15.1770  -31.7340 C   0  0  0  0  0  0  0  0  0  0  0  0
   -5.6310   16.3620  -31.9910 C   0  0  0  0  0  0  0  0  0  0  0  0
   -4.8830   17.0280  -32.9430 C   0  0  0  0  0  0  0  0  0  0  0  0
   -5.3720   18.5710  -33.6470 S   0  0  0  0  0  0  0  0  0  0  0  0
   -6.5220   19.1230  -32.8500 O   0  0  0  0  0  0  0  0  0  0  0  0
   -5.8450   18.3520  -35.0570 O   0  0  0  0  0  0  0  0  0  0  0  0
   -4.0430   19.7070  -33.6100 N   0  0  2  0  0  0  0  0  0  0  0  0
   -3.0220   19.2990  -32.6040 C   0  0  0  0  0  0  0  0  0  0  0  0
   -3.0900   20.1300  -31.3160 C   0  0  0  0  0  0  0  0  0  0  0  0
   -2.8410   21.6250  -31.6210 C   0  0  2  0  0  0  0  0  0  0  0  0
   -3.3430   22.4650  -30.5230 N   0  0  0  0  0  0  0  0  0  0  0  0
   -4.6200   23.1430  -30.5340 C   0  0  0  0  0  0  0  0  0  0  0  0
   -5.8370   22.4290  -30.5650 C   0  0  0  0  0  0  0  0  0  0  0  0
   -7.0590   23.1070  -30.5760 C   0  0  0  0  0  0  0  0  0  0  0  0
   -7.0880   24.5020  -30.5550 C   0  0  0  0  0  0  0  0  0  0  0  0
   -5.8930   25.2220  -30.5250 C   0  0  0  0  0  0  0  0  0  0  0  0
   -4.6640   24.5540  -30.5140 C   0  0  0  0  0  0  0  0  0  0  0  0
   -3.4900   25.2990  -30.4820 O   0  0  0  0  0  0  0  0  0  0  0  0
   -3.4750   22.0510  -32.9710 C   0  0  0  0  0  0  0  0  0  0  0  0
   -4.5720   21.0790  -33.4170 C   0  0  0  0  0  0  0  0  0  0  0  0
   -1.8049   16.5202  -31.6534 H   0  0  0  0  0  0  0  0  0  0  0  0
    0.3025   17.0872  -30.4487 H   0  0  0  0  0  0  0  0  0  0  0  0
    2.1492   18.2159  -34.1893 H   0  0  0  0  0  0  0  0  0  0  0  0
   -5.2884   14.3939  -31.0266 H   0  0  0  0  0  0  0  0  0  0  0  0
   -6.5662   16.7105  -31.5284 H   0  0  0  0  0  0  0  0  0  0  0  0
   -3.5860   19.6750  -34.5500 H   0  0  0  0  0  0  0  0  0  0  0  0
   -3.1835   18.2413  -32.3486 H   0  0  0  0  0  0  0  0  0  0  0  0
   -2.0312   19.4642  -33.0524 H   0  0  0  0  0  0  0  0  0  0  0  0
   -4.0856   20.0142  -30.8629 H   0  0  0  0  0  0  0  0  0  0  0  0
   -2.3135   19.7748  -30.6226 H   0  0  0  0  0  0  0  0  0  0  0  0
   -1.7541   21.7697  -31.7087 H   0  0  0  0  0  0  0  0  0  0  0  0
   -2.7260   22.6030  -29.6910 H   0  0  0  0  0  0  0  0  0  0  0  0
   -5.8236   21.3292  -30.5806 H   0  0  0  0  0  0  0  0  0  0  0  0
   -8.0008   22.5393  -30.6013 H   0  0  0  0  0  0  0  0  0  0  0  0
   -8.0512   25.0332  -30.5621 H   0  0  0  0  0  0  0  0  0  0  0  0
   -5.9176   26.3216  -30.5099 H   0  0  0  0  0  0  0  0  0  0  0  0
   -3.9125   23.0539  -32.8580 H   0  0  0  0  0  0  0  0  0  0  0  0
   -2.6843   22.0480  -33.7358 H   0  0  0  0  0  0  0  0  0  0  0  0
   -5.3592   21.0529  -32.6491 H   0  0  0  0  0  0  0  0  0  0  0  0
   -4.9720   21.4311  -34.3793 H   0  0  0  0  0  0  0  0  0  0  0  0
  1  2  2  0
  2  3  2  0
  2  4  1  0
  4  5  2  0
  5  6  1  0
  6  7  2  0
  7  8  1  0
  7  9  1  0
  9 10  2  0
 10 11  1  0
  2 12  1  0
 12 13  1  0
 13 14  1  0
 13 15  2  0
 15 16  1  0
 16 17  2  0
 17 18  1  0
 18 19  2  0
 18 20  2  0
 18 21  1  0
 21 22  1  0
 22 23  1  0
 23 24  1  0
 24 25  1  0
 25 26  1  0
 26 27  2  0
 27 28  1  0
 28 29  2  0
 29 30  1  0
 30 31  2  0
 31 32  1  0
 24 33  1  0
 33 34  1  0
 10  4  1  0
 17 12  1  0
 34 21  1  0
 31 26  1  0
  5 35  1  0
  6 36  1  0
  9 37  1  0
 15 38  1  0
 16 39  1  0
 21 40  1  6
 22 41  1  0
 22 42  1  0
 23 43  1  0
 23 44  1  0
 24 45  1  6
 25 46  1  0
 27 47  1  0
 28 48  1  0
 29 49  1  0
 30 50  1  0
 33 51  1  0
 33 52  1  0
 34 53  1  0
 34 54  1  0
M  CHG  2  21   1  32  -1
M  END
>  <UniqueID>  (26) 
25

>  <SMILES>  (26) 
O=S(=O)(c1ccc(Cl)cc1Cl)n1c(Cl)ccc1S(=O)(=O)[NH+]1CCC(Nc2ccccc2[O-])CC1

>  <Energy>  (26) 
96.27376456965581

>  <Genealogy>  (26) 
O=S(=O)(c1ccc(Cl)cc1Cl)n1c(Cl)ccc1S(=O)(=O)[NH+]1CCC(Nc2ccccc2[O-])CC1 (protonated)
O=S(=O)(c1ccc(Cl)cc1Cl)n1c(Cl)ccc1S(=O)(=O)[NH+]1CCC(Nc2ccccc2[O-])CC1 (3D coordinates assigned)
O=S(=O)(c1ccc(Cl)cc1Cl)n1c(Cl)ccc1S(=O)(=O)[NH+]1CCC(Nc2ccccc2[O-])CC1 (nonaromatic ring conformer: 96.27376456965581 kcal/mol)

>  <smiles>  (26) 
O=S(=O)(c1ccc(Cl)n1S(=O)(=O)c1ccc(Cl)cc1Cl)N1CCC(Nc2ccccc2O)CC1

>  <score_type>  (26) 
oracle

>  <origin>  (26) 
adgpu

>  <m_score__min__energy>  (26) 
-12.07

>  <m_primary>  (26) 
energy

$$$$
26:0
     RDKit          3D

 54 56  0  0  0  0  0  0  0  0999 V2000
   -0.6210   22.1300  -30.2720 C   0  0  0  0  0  0  0  0  0  0  0  0
   -2.0780   22.4140  -30.5230 C   0  0  0  0  0  0  0  0  0  0  0  0
   -2.7460   21.6780  -31.5180 C   0  0  0  0  0  0  0  0  0  0  0  0
   -4.0920   21.9130  -31.7970 C   0  0  0  0  0  0  0  0  0  0  0  0
   -4.7970   22.8880  -31.0870 C   0  0  0  0  0  0  0  0  0  0  0  0
   -6.4870   23.2200  -31.4550 S   0  0  0  0  0  0  0  0  0  0  0  0
   -6.5660   24.1780  -32.6130 O   0  0  0  0  0  0  0  0  0  0  0  0
   -7.1690   23.8540  -30.2700 O   0  0  0  0  0  0  0  0  0  0  0  0
   -7.2930   21.7060  -31.8530 C   0  0  0  0  0  0  0  0  0  0  0  0
   -6.7340   20.8280  -32.7980 C   0  0  0  0  0  0  0  0  0  0  0  0
   -7.3660   19.6130  -33.0890 C   0  0  0  0  0  0  0  0  0  0  0  0
   -8.5540   19.2660  -32.4340 C   0  0  0  0  0  0  0  0  0  0  0  0
   -9.1110   20.1340  -31.4860 C   0  0  0  0  0  0  0  0  0  0  0  0
   -8.4810   21.3500  -31.1940 C   0  0  0  0  0  0  0  0  0  0  0  0
   -4.1450   23.6280  -30.0940 C   0  0  0  0  0  0  0  0  0  0  0  0
   -2.7990   23.3820  -29.7770 C   0  0  0  0  0  0  0  0  0  0  0  0
   -2.0490   24.3480  -28.4910 S   0  0  0  0  0  0  0  0  0  0  0  0
   -3.0690   24.5930  -27.4190 O   0  0  0  0  0  0  0  0  0  0  0  0
   -1.5690   25.6700  -29.0200 O   0  0  0  0  0  0  0  0  0  0  0  0
   -0.6930   23.5160  -27.7870 N   0  0  0  0  0  0  0  0  0  0  0  0
    0.5660   24.1550  -28.1730 C   0  0  0  0  0  0  0  0  0  0  0  0
    0.9390   25.2350  -27.1370 C   0  0  0  0  0  0  0  0  0  0  0  0
   -0.2590   25.8470  -26.4980 N   0  0  0  0  0  0  0  0  0  0  0  0
   -0.2650   25.5340  -25.0400 C   0  0  0  0  0  0  0  0  0  0  0  0
   -1.2320   26.4460  -24.2700 C   0  0  0  0  0  0  0  0  0  0  0  0
   -0.8060   27.9230  -24.3700 C   0  0  0  0  0  0  0  0  0  0  0  0
    0.0540   28.2060  -25.6120 C   0  0  0  0  0  0  0  0  0  0  0  0
   -0.3630   27.3140  -26.7930 C   0  0  0  0  0  0  0  0  0  0  0  0
   -0.4359   22.0939  -29.1883 H   0  0  0  0  0  0  0  0  0  0  0  0
   -0.3531   21.1627  -30.7222 H   0  0  0  0  0  0  0  0  0  0  0  0
   -0.0095   22.9258  -30.7222 H   0  0  0  0  0  0  0  0  0  0  0  0
   -2.2003   20.9078  -32.0829 H   0  0  0  0  0  0  0  0  0  0  0  0
   -4.6001   21.3289  -32.5785 H   0  0  0  0  0  0  0  0  0  0  0  0
   -5.7980   21.0962  -33.3099 H   0  0  0  0  0  0  0  0  0  0  0  0
   -6.9289   18.9305  -33.8328 H   0  0  0  0  0  0  0  0  0  0  0  0
   -9.0500   18.3115  -32.6639 H   0  0  0  0  0  0  0  0  0  0  0  0
  -10.0436   19.8603  -30.9708 H   0  0  0  0  0  0  0  0  0  0  0  0
   -8.9179   22.0283  -30.4463 H   0  0  0  0  0  0  0  0  0  0  0  0
   -4.6944   24.4133  -29.5542 H   0  0  0  0  0  0  0  0  0  0  0  0
    1.3627   23.3977  -28.2150 H   0  0  0  0  0  0  0  0  0  0  0  0
    0.4492   24.6230  -29.1616 H   0  0  0  0  0  0  0  0  0  0  0  0
    1.5601   24.7744  -26.3546 H   0  0  0  0  0  0  0  0  0  0  0  0
    1.4817   26.0329  -27.6651 H   0  0  0  0  0  0  0  0  0  0  0  0
   -1.1110   25.3880  -26.9010 H   0  0  0  0  0  0  0  0  0  0  0  0
   -0.5740   24.4875  -24.9008 H   0  0  0  0  0  0  0  0  0  0  0  0
    0.7495   25.6994  -24.6483 H   0  0  0  0  0  0  0  0  0  0  0  0
   -2.2420   26.3348  -24.6914 H   0  0  0  0  0  0  0  0  0  0  0  0
   -1.2185   26.1512  -23.2103 H   0  0  0  0  0  0  0  0  0  0  0  0
   -1.7098   28.5482  -24.4171 H   0  0  0  0  0  0  0  0  0  0  0  0
   -0.1983   28.1558  -23.4832 H   0  0  0  0  0  0  0  0  0  0  0  0
   -0.0669   29.2610  -25.8992 H   0  0  0  0  0  0  0  0  0  0  0  0
    1.1037   27.9886  -25.3653 H   0  0  0  0  0  0  0  0  0  0  0  0
   -1.4069   27.5443  -27.0522 H   0  0  0  0  0  0  0  0  0  0  0  0
    0.3283   27.5282  -27.6214 H   0  0  0  0  0  0  0  0  0  0  0  0
  1  2  1  0
  2  3  2  0
  3  4  1  0
  4  5  2  0
  5  6  1  0
  6  7  2  0
  6  8  2  0
  6  9  1  0
  9 10  2  0
 10 11  1  0
 11 12  2  0
 12 13  1  0
 13 14  2  0
  5 15  1  0
 15 16  2  0
 16 17  1  0
 17 18  2  0
 17 19  2  0
 17 20  1  0
 20 21  1  0
 21 22  1  0
 22 23  1  0
 23 24  1  0
 24 25  1  0
 25 26  1  0
 26 27  1  0
 27 28  1  0
 16  2  1  0
 28 23  1  0
 14  9  1  0
  1 29  1  0
  1 30  1  0
  1 31  1  0
  3 32  1  0
  4 33  1  0
 10 34  1  0
 11 35  1  0
 12 36  1  0
 13 37  1  0
 14 38  1  0
 15 39  1  0
 21 40  1  0
 21 41  1  0
 22 42  1  0
 22 43  1  0
 23 44  1  0
 24 45  1  0
 24 46  1  0
 25 47  1  0
 25 48  1  0
 26 49  1  0
 26 50  1  0
 27 51  1  0
 27 52  1  0
 28 53  1  0
 28 54  1  0
M  CHG  2  20  -1  23   1
M  END
>  <UniqueID>  (27) 
26

>  <SMILES>  (27) 
Cc1ccc(S(=O)(=O)c2ccccc2)cc1S(=O)(=O)[N-]CC[NH+]1CCCCC1

>  <Energy>  (27) 
65.38095496538874

>  <Genealogy>  (27) 
Cc1ccc(S(=O)(=O)c2ccccc2)cc1S(=O)(=O)[N-]CC[NH+]1CCCCC1 (protonated)
Cc1ccc(S(=O)(=O)c2ccccc2)cc1S(=O)(=O)[N-]CC[NH+]1CCCCC1 (3D coordinates assigned)
Cc1ccc(S(=O)(=O)c2ccccc2)cc1S(=O)(=O)[N-]CC[NH+]1CCCCC1 (nonaromatic ring conformer: 65.38095496538874 kcal/mol)

>  <smiles>  (27) 
Cc1ccc(S(=O)(=O)c2ccccc2)cc1S(=O)(=O)NCCN1CCCCC1

>  <score_type>  (27) 
oracle

>  <origin>  (27) 
adgpu

>  <m_score__min__energy>  (27) 
-9.7100000000000009

>  <m_primary>  (27) 
energy

$$$$
27:0
     RDKit          3D

 60 64  0  0  0  0  0  0  0  0999 V2000
   -8.7400   18.5690  -31.5700 C   0  0  0  0  0  0  0  0  0  0  0  0
   -8.8420   19.6140  -32.6770 C   0  0  0  0  0  0  0  0  0  0  0  0
   -7.5690   20.3130  -32.8380 N   0  0  0  0  0  0  0  0  0  0  0  0
   -6.3390   19.7380  -33.3060 C   0  0  0  0  0  0  0  0  0  0  0  0
   -6.2520   18.6450  -33.9280 O   0  0  0  0  0  0  0  0  0  0  0  0
   -5.2200   20.5900  -32.9120 C   0  0  0  0  0  0  0  0  0  0  0  0
   -3.8390   20.5100  -33.0760 C   0  0  0  0  0  0  0  0  0  0  0  0
   -3.0510   21.5310  -32.4990 C   0  0  0  0  0  0  0  0  0  0  0  0
   -3.6500   22.5890  -31.7640 C   0  0  0  0  0  0  0  0  0  0  0  0
   -5.0560   22.6290  -31.6000 C   0  0  0  0  0  0  0  0  0  0  0  0
   -5.7900   23.5920  -30.8580 C   0  0  0  0  0  0  0  0  0  0  0  0
   -4.9790   24.9040  -29.9940 S   0  0  0  0  0  0  0  0  0  0  0  0
   -3.8930   25.4670  -30.8670 O   0  0  0  0  0  0  0  0  0  0  0  0
   -5.9550   26.0000  -29.6680 O   0  0  0  0  0  0  0  0  0  0  0  0
   -4.2810   24.3020  -28.5210 N   0  0  0  0  0  0  0  0  0  0  0  0
   -4.5150   22.8620  -28.4070 C   0  0  0  0  0  0  0  0  0  0  0  0
   -3.1980   22.1410  -28.4400 C   0  0  0  0  0  0  0  0  0  0  0  0
   -2.0350   22.8010  -28.8680 C   0  0  0  0  0  0  0  0  0  0  0  0
   -0.8200   22.1140  -28.9290 C   0  0  0  0  0  0  0  0  0  0  0  0
   -0.7540   20.7590  -28.5790 C   0  0  0  0  0  0  0  0  0  0  0  0
    0.7900   19.9150  -28.6470 S   0  0  0  0  0  0  0  0  0  0  0  0
    0.6100   18.5480  -28.0470 O   0  0  0  0  0  0  0  0  0  0  0  0
    1.8180   20.6620  -27.8450 O   0  0  0  0  0  0  0  0  0  0  0  0
    1.2920   19.7820  -30.3200 N   0  0  0  0  0  0  0  0  0  0  0  0
    1.8760   18.4560  -30.6170 C   0  0  0  0  0  0  0  0  0  0  0  0
    0.8790   17.5070  -31.3070 C   0  0  0  0  0  0  0  0  0  0  0  0
   -0.4320   17.7650  -30.8590 O   0  0  0  0  0  0  0  0  0  0  0  0
   -0.8740   19.0230  -31.3350 C   0  0  0  0  0  0  0  0  0  0  0  0
    0.2000   20.1340  -31.2460 C   0  0  0  0  0  0  0  0  0  0  0  0
   -1.9180   20.0950  -28.1630 C   0  0  0  0  0  0  0  0  0  0  0  0
   -3.1340   20.7820  -28.1000 C   0  0  0  0  0  0  0  0  0  0  0  0
   -7.2070   23.4680  -30.7720 C   0  0  0  0  0  0  0  0  0  0  0  0
   -7.8890   22.4060  -31.4070 C   0  0  0  0  0  0  0  0  0  0  0  0
   -7.1370   21.4830  -32.1310 C   0  0  0  0  0  0  0  0  0  0  0  0
   -5.7800   21.6140  -32.2070 C   0  0  0  0  0  0  0  0  0  0  0  0
   -8.7886   19.0668  -30.5903 H   0  0  0  0  0  0  0  0  0  0  0  0
   -9.5728   17.8562  -31.6608 H   0  0  0  0  0  0  0  0  0  0  0  0
   -7.7850   18.0307  -31.6608 H   0  0  0  0  0  0  0  0  0  0  0  0
   -9.1039   19.1160  -33.6222 H   0  0  0  0  0  0  0  0  0  0  0  0
   -9.6182   20.3450  -32.4065 H   0  0  0  0  0  0  0  0  0  0  0  0
   -3.3786   19.6818  -33.6346 H   0  0  0  0  0  0  0  0  0  0  0  0
   -1.9580   21.5064  -32.6206 H   0  0  0  0  0  0  0  0  0  0  0  0
   -3.0219   23.3768  -31.3225 H   0  0  0  0  0  0  0  0  0  0  0  0
   -4.7740   24.7770  -27.7300 H   0  0  0  0  0  0  0  0  0  0  0  0
   -5.0279   22.6471  -27.4579 H   0  0  0  0  0  0  0  0  0  0  0  0
   -5.1418   22.5230  -29.2450 H   0  0  0  0  0  0  0  0  0  0  0  0
   -2.0806   23.8616  -29.1560 H   0  0  0  0  0  0  0  0  0  0  0  0
    0.0899   22.6399  -29.2537 H   0  0  0  0  0  0  0  0  0  0  0  0
    2.7446   18.5943  -31.2776 H   0  0  0  0  0  0  0  0  0  0  0  0
    2.1616   17.9973  -29.6589 H   0  0  0  0  0  0  0  0  0  0  0  0
    0.9271   17.6591  -32.3954 H   0  0  0  0  0  0  0  0  0  0  0  0
    1.1438   16.4684  -31.0596 H   0  0  0  0  0  0  0  0  0  0  0  0
   -1.1714   18.9109  -32.3881 H   0  0  0  0  0  0  0  0  0  0  0  0
   -1.7117   19.3334  -30.6932 H   0  0  0  0  0  0  0  0  0  0  0  0
    0.6242   20.2974  -32.2477 H   0  0  0  0  0  0  0  0  0  0  0  0
   -0.2865   21.0433  -30.8633 H   0  0  0  0  0  0  0  0  0  0  0  0
   -1.8737   19.0314  -27.8858 H   0  0  0  0  0  0  0  0  0  0  0  0
   -4.0451   20.2539  -27.7822 H   0  0  0  0  0  0  0  0  0  0  0  0
   -7.7804   24.2129  -30.2007 H   0  0  0  0  0  0  0  0  0  0  0  0
   -8.9823   22.3105  -31.3320 H   0  0  0  0  0  0  0  0  0  0  0  0
  1  2  1  0
  2  3  1  0
  3  4  1  0
  4  5  2  0
  4  6  1  0
  6  7  2  0
  7  8  1  0
  8  9  2  0
  9 10  1  0
 10 11  2  0
 11 12  1  0
 12 13  2  0
 12 14  2  0
 12 15  1  0
 15 16  1  0
 16 17  1  0
 17 18  2  0
 18 19  1  0
 19 20  2  0
 20 21  1  0
 21 22  2  0
 21 23  2  0
 21 24  1  0
 24 25  1  0
 25 26  1  0
 26 27  1  0
 27 28  1  0
 28 29  1  0
 20 30  1  0
 30 31  2  0
 11 32  1  0
 32 33  2  0
 33 34  1  0
 34 35  2  0
 34  3  1  0
 35  6  1  0
 35 10  1  0
 31 17  1  0
 29 24  1  0
  1 36  1  0
  1 37  1  0
  1 38  1  0
  2 39  1  0
  2 40  1  0
  7 41  1  0
  8 42  1  0
  9 43  1  0
 15 44  1  0
 16 45  1  0
 16 46  1  0
 18 47  1  0
 19 48  1  0
 25 49  1  0
 25 50  1  0
 26 51  1  0
 26 52  1  0
 28 53  1  0
 28 54  1  0
 29 55  1  0
 29 56  1  0
 30 57  1  0
 31 58  1  0
 32 59  1  0
 33 60  1  0
M  END
>  <UniqueID>  (28) 
27

>  <SMILES>  (28) 
CCN1C(=O)c2cccc3c(S(=O)(=O)NCc4ccc(S(=O)(=O)N5CCOCC5)cc4)ccc1c23

>  <Energy>  (28) 
112.3723049364461

>  <Genealogy>  (28) 
CCN1C(=O)c2cccc3c(S(=O)(=O)NCc4ccc(S(=O)(=O)N5CCOCC5)cc4)ccc1c23 (3D coordinates assigned)
CCN1C(=O)c2cccc3c(S(=O)(=O)NCc4ccc(S(=O)(=O)N5CCOCC5)cc4)ccc1c23 (nonaromatic ring conformer: 112.3723049364461 kcal/mol)

>  <smiles>  (28) 
CCN1C(=O)c2cccc3c(S(=O)(=O)NCc4ccc(S(=O)(=O)N5CCOCC5)cc4)ccc1c23

>  <score_type>  (28) 
oracle

>  <origin>  (28) 
adgpu

>  <m_score__min__energy>  (28) 
-12.16

>  <m_primary>  (28) 
energy

$$$$
28:0
     RDKit          3D

 51 55  0  0  0  0  0  0  0  0999 V2000
    1.8970   18.9900  -27.4740 O   0  0  0  0  0  0  0  0  0  0  0  0
    0.6680   18.4050  -28.1070 S   0  0  0  0  0  0  0  0  0  0  0  0
    0.3390   17.1080  -27.4190 O   0  0  0  0  0  0  0  0  0  0  0  0
    0.9900   18.1220  -29.7960 N   0  0  0  0  0  0  0  0  0  0  0  0
   -0.1070   18.5700  -30.6550 C   0  0  0  0  0  0  0  0  0  0  0  0
    0.2680   19.8630  -31.3990 C   0  0  0  0  0  0  0  0  0  0  0  0
   -0.8990   20.8040  -31.6590 C   0  0  0  0  0  0  0  0  0  0  0  0
   -0.2910   20.0120  -32.8040 C   0  0  0  0  0  0  0  0  0  0  0  0
   -0.6580   19.5470  -27.9080 C   0  0  0  0  0  0  0  0  0  0  0  0
   -1.8480   19.1420  -27.2870 C   0  0  0  0  0  0  0  0  0  0  0  0
   -2.8900   20.0530  -27.1100 C   0  0  0  0  0  0  0  0  0  0  0  0
   -2.7600   21.3670  -27.5680 C   0  0  0  0  0  0  0  0  0  0  0  0
   -1.5900   21.7690  -28.2280 C   0  0  0  0  0  0  0  0  0  0  0  0
   -1.4420   23.4070  -28.8620 S   0  0  0  0  0  0  0  0  0  0  0  0
    0.0100   23.7880  -28.9380 O   0  0  0  0  0  0  0  0  0  0  0  0
   -2.1780   24.3530  -27.9520 O   0  0  0  0  0  0  0  0  0  0  0  0
   -2.1480   23.4520  -30.4450 N   0  0  0  0  0  0  0  0  0  0  0  0
   -3.5370   23.2680  -30.7510 C   0  0  0  0  0  0  0  0  0  0  0  0
   -4.0760   21.9920  -31.0240 C   0  0  0  0  0  0  0  0  0  0  0  0
   -5.4390   21.8910  -31.3050 C   0  0  0  0  0  0  0  0  0  0  0  0
   -6.2630   23.0000  -31.3190 C   0  0  0  0  0  0  0  0  0  0  0  0
   -5.7570   24.2680  -31.0430 C   0  0  0  0  0  0  0  0  0  0  0  0
   -4.3880   24.4000  -30.7550 C   0  0  0  0  0  0  0  0  0  0  0  0
   -3.8690   25.6600  -30.4730 O   0  0  0  0  0  0  0  0  0  0  0  0
   -7.6840   22.6300  -31.6440 C   0  0  0  0  0  0  0  0  0  0  0  0
   -7.5490   21.1450  -31.8010 C   0  0  0  0  0  0  0  0  0  0  0  0
   -8.5520   20.2240  -32.1040 C   0  0  0  0  0  0  0  0  0  0  0  0
   -8.2120   18.8650  -32.2000 C   0  0  0  0  0  0  0  0  0  0  0  0
   -6.8810   18.4460  -31.9960 C   0  0  0  0  0  0  0  0  0  0  0  0
   -5.8800   19.3840  -31.6940 C   0  0  0  0  0  0  0  0  0  0  0  0
   -6.2440   20.7280  -31.6030 C   0  0  0  0  0  0  0  0  0  0  0  0
   -0.5410   20.8560  -28.3910 C   0  0  0  0  0  0  0  0  0  0  0  0
   -0.3317   17.7839  -31.3909 H   0  0  0  0  0  0  0  0  0  0  0  0
   -0.9860   18.7707  -30.0248 H   0  0  0  0  0  0  0  0  0  0  0  0
    1.2700   19.9532  -30.9543 H   0  0  0  0  0  0  0  0  0  0  0  0
   -1.9029   20.5511  -31.2873 H   0  0  0  0  0  0  0  0  0  0  0  0
   -1.0970   21.8692  -31.4686 H   0  0  0  0  0  0  0  0  0  0  0  0
   -0.8552   19.1860  -33.2616 H   0  0  0  0  0  0  0  0  0  0  0  0
    0.1333   20.2670  -33.7863 H   0  0  0  0  0  0  0  0  0  0  0  0
   -1.9603   18.1046  -26.9388 H   0  0  0  0  0  0  0  0  0  0  0  0
   -3.8164   19.7361  -26.6086 H   0  0  0  0  0  0  0  0  0  0  0  0
   -3.5767   22.0869  -27.4105 H   0  0  0  0  0  0  0  0  0  0  0  0
   -3.4358   21.0975  -31.0154 H   0  0  0  0  0  0  0  0  0  0  0  0
   -6.4161   25.1487  -31.0503 H   0  0  0  0  0  0  0  0  0  0  0  0
   -8.3696   22.8913  -30.8244 H   0  0  0  0  0  0  0  0  0  0  0  0
   -8.1045   23.1477  -32.5188 H   0  0  0  0  0  0  0  0  0  0  0  0
   -9.5884   20.5557  -32.2645 H   0  0  0  0  0  0  0  0  0  0  0  0
   -8.9887   18.1226  -32.4358 H   0  0  0  0  0  0  0  0  0  0  0  0
   -6.6253   17.3790  -32.0738 H   0  0  0  0  0  0  0  0  0  0  0  0
   -4.8386   19.0680  -31.5338 H   0  0  0  0  0  0  0  0  0  0  0  0
    0.3813   21.1693  -28.9020 H   0  0  0  0  0  0  0  0  0  0  0  0
  1  2  2  0
  2  3  2  0
  2  4  1  0
  4  5  1  0
  5  6  1  0
  6  7  1  0
  7  8  1  0
  2  9  1  0
  9 10  2  0
 10 11  1  0
 11 12  2  0
 12 13  1  0
 13 14  1  0
 14 15  2  0
 14 16  2  0
 14 17  1  0
 17 18  1  0
 18 19  2  0
 19 20  1  0
 20 21  2  0
 21 22  1  0
 22 23  2  0
 23 24  1  0
 21 25  1  0
 25 26  1  0
 26 27  2  0
 27 28  1  0
 28 29  2  0
 29 30  1  0
 30 31  2  0
 13 32  2  0
  8  6  1  0
 32  9  1  0
 23 18  1  0
 31 26  1  0
 31 20  1  0
  5 33  1  0
  5 34  1  0
  6 35  1  0
  7 36  1  0
  7 37  1  0
  8 38  1  0
  8 39  1  0
 10 40  1  0
 11 41  1  0
 12 42  1  0
 19 43  1  0
 22 44  1  0
 25 45  1  0
 25 46  1  0
 27 47  1  0
 28 48  1  0
 29 49  1  0
 30 50  1  0
 32 51  1  0
M  CHG  3   4  -1  17  -1  24  -1
M  END
>  <UniqueID>  (29) 
28

>  <SMILES>  (29) 
O=S(=O)([N-]CC1CC1)c1cccc(S(=O)(=O)[N-]c2cc3c(cc2[O-])Cc2ccccc2-3)c1

>  <Energy>  (29) 
345.4472026283323

>  <Genealogy>  (29) 
O=S(=O)([N-]CC1CC1)c1cccc(S(=O)(=O)[N-]c2cc3c(cc2[O-])Cc2ccccc2-3)c1 (protonated)
O=S(=O)([N-]CC1CC1)c1cccc(S(=O)(=O)[N-]c2cc3c(cc2[O-])Cc2ccccc2-3)c1 (3D coordinates assigned)
O=S(=O)([N-]CC1CC1)c1cccc(S(=O)(=O)[N-]c2cc3c(cc2[O-])Cc2ccccc2-3)c1 (nonaromatic ring conformer: 345.4472026283323 kcal/mol)

>  <smiles>  (29) 
O=S(=O)(NCC1CC1)c1cccc(S(=O)(=O)Nc2cc3c(cc2O)Cc2ccccc2-3)c1

>  <score_type>  (29) 
oracle

>  <origin>  (29) 
adgpu

>  <m_score__min__energy>  (29) 
-14.73

>  <m_primary>  (29) 
energy

$$$$
29:0
     RDKit          3D

 42 44  0  0  0  0  0  0  0  0999 V2000
   -4.0990   25.3170  -30.5560 O   0  0  0  0  0  0  0  0  0  0  0  0
   -3.7270   24.1130  -30.5970 C   0  0  0  0  0  0  0  0  0  0  0  0
   -4.1900   23.2700  -31.6590 N   0  0  0  0  0  0  0  0  0  0  0  0
   -5.5280   22.7660  -31.7310 C   0  0  0  0  0  0  0  0  0  0  0  0
   -6.5770   23.5850  -31.2960 C   0  0  0  0  0  0  0  0  0  0  0  0
   -7.8970   23.1390  -31.3710 C   0  0  0  0  0  0  0  0  0  0  0  0
   -8.1800   21.8660  -31.8730 C   0  0  0  0  0  0  0  0  0  0  0  0
   -9.8420   21.3130  -31.9760 Cl  0  0  0  0  0  0  0  0  0  0  0  0
   -7.1370   21.0290  -32.2810 C   0  0  0  0  0  0  0  0  0  0  0  0
   -5.8030   21.4590  -32.2010 C   0  0  0  0  0  0  0  0  0  0  0  0
   -4.5120   20.3410  -32.6550 S   0  0  0  0  0  0  0  0  0  0  0  0
   -5.0160   19.4220  -33.7320 O   0  0  0  0  0  0  0  0  0  0  0  0
   -4.0910   19.5340  -31.4580 O   0  0  0  0  0  0  0  0  0  0  0  0
   -3.1410   21.2410  -33.2240 N   0  0  0  0  0  0  0  0  0  0  0  0
   -1.8900   20.6780  -33.6410 C   0  0  0  0  0  0  0  0  0  0  0  0
   -1.5980   19.3150  -33.4920 C   0  0  0  0  0  0  0  0  0  0  0  0
   -0.3820   18.8030  -33.9480 C   0  0  0  0  0  0  0  0  0  0  0  0
    0.5670   19.6400  -34.5420 C   0  0  0  0  0  0  0  0  0  0  0  0
    1.7280   19.0490  -35.0410 O   0  0  0  0  0  0  0  0  0  0  0  0
    0.3120   21.0310  -34.6410 C   0  0  0  0  0  0  0  0  0  0  0  0
    1.3160   22.0000  -35.1380 C   0  0  0  0  0  0  0  0  0  0  0  0
    0.9910   23.1870  -35.4030 O   0  0  0  0  0  0  0  0  0  0  0  0
    2.6140   21.5840  -35.4010 O   0  0  0  0  0  0  0  0  0  0  0  0
   -0.9310   21.5260  -34.2050 C   0  0  0  0  0  0  0  0  0  0  0  0
   -2.8210   23.5650  -29.5540 C   0  0  0  0  0  0  0  0  0  0  0  0
   -2.9590   22.2230  -29.1440 C   0  0  0  0  0  0  0  0  0  0  0  0
   -2.1040   21.6800  -28.1820 C   0  0  0  0  0  0  0  0  0  0  0  0
   -1.1050   22.4660  -27.6080 C   0  0  0  0  0  0  0  0  0  0  0  0
   -0.9540   23.7990  -27.9990 C   0  0  0  0  0  0  0  0  0  0  0  0
   -1.8010   24.3520  -28.9670 C   0  0  0  0  0  0  0  0  0  0  0  0
   -1.6100   25.6830  -29.3320 O   0  0  0  0  0  0  0  0  0  0  0  0
   -6.3594   24.5851  -30.8931 H   0  0  0  0  0  0  0  0  0  0  0  0
   -8.7166   23.7909  -31.0342 H   0  0  0  0  0  0  0  0  0  0  0  0
   -7.3637   20.0246  -32.6681 H   0  0  0  0  0  0  0  0  0  0  0  0
   -2.3295   18.6467  -33.0142 H   0  0  0  0  0  0  0  0  0  0  0  0
   -0.1683   17.7295  -33.8387 H   0  0  0  0  0  0  0  0  0  0  0  0
    2.5590   19.5690  -35.2930 H   0  0  0  0  0  0  0  0  0  0  0  0
   -1.1524   22.5984  -34.3095 H   0  0  0  0  0  0  0  0  0  0  0  0
   -3.7481   21.5972  -29.5863 H   0  0  0  0  0  0  0  0  0  0  0  0
   -2.2189   20.6296  -27.8763 H   0  0  0  0  0  0  0  0  0  0  0  0
   -0.4361   22.0366  -26.8476 H   0  0  0  0  0  0  0  0  0  0  0  0
   -0.1658   24.4169  -27.5441 H   0  0  0  0  0  0  0  0  0  0  0  0
  1  2  2  0
  2  3  1  0
  3  4  1  0
  4  5  2  0
  5  6  1  0
  6  7  2  0
  7  8  1  0
  7  9  1  0
  9 10  2  0
 10 11  1  0
 11 12  2  0
 11 13  2  0
 11 14  1  0
 14 15  1  0
 15 16  2  0
 16 17  1  0
 17 18  2  0
 18 19  1  0
 18 20  1  0
 20 21  1  0
 21 22  2  0
 21 23  1  0
 20 24  2  0
  2 25  1  0
 25 26  2  0
 26 27  1  0
 27 28  2  0
 28 29  1  0
 29 30  2  0
 30 31  1  0
 10  4  1  0
 24 15  1  0
 30 25  1  0
  5 32  1  0
  6 33  1  0
  9 34  1  0
 16 35  1  0
 17 36  1  0
 19 37  1  0
 24 38  1  0
 26 39  1  0
 27 40  1  0
 28 41  1  0
 29 42  1  0
M  CHG  4   3  -1  14  -1  23  -1  31  -1
M  END
>  <UniqueID>  (30) 
29

>  <SMILES>  (30) 
O=C([N-]c1ccc(Cl)cc1S(=O)(=O)[N-]c1ccc(O)c(C(=O)[O-])c1)c1ccccc1[O-]

>  <Energy>  (30) 
62.056489040342186

>  <Genealogy>  (30) 
O=C([N-]c1ccc(Cl)cc1S(=O)(=O)[N-]c1ccc(O)c(C(=O)[O-])c1)c1ccccc1[O-] (protonated)
O=C([N-]c1ccc(Cl)cc1S(=O)(=O)[N-]c1ccc(O)c(C(=O)[O-])c1)c1ccccc1[O-] (3D coordinates assigned)
O=C([N-]c1ccc(Cl)cc1S(=O)(=O)[N-]c1ccc(O)c(C(=O)[O-])c1)c1ccccc1[O-] (optimized conformer: 62.056489040342186 kcal/mol)

>  <smiles>  (30) 
O=C(O)c1cc(NS(=O)(=O)c2cc(Cl)ccc2NC(=O)c2ccccc2O)ccc1O

>  <score_type>  (30) 
oracle

>  <origin>  (30) 
adgpu

>  <m_score__min__energy>  (30) 
-13.880000000000001

>  <m_primary>  (30) 
energy

$$$$
30:0
     RDKit          3D

 37 39  0  0  0  0  0  0  0  0999 V2000
   -1.2810   26.8560  -24.7390 C   0  0  0  0  0  0  0  0  0  0  0  0
   -1.6670   26.0790  -25.9610 C   0  0  0  0  0  0  0  0  0  0  0  0
   -0.8200   26.0500  -27.0790 C   0  0  0  0  0  0  0  0  0  0  0  0
   -1.1880   25.3390  -28.2250 C   0  0  0  0  0  0  0  0  0  0  0  0
   -2.4060   24.6410  -28.2650 C   0  0  0  0  0  0  0  0  0  0  0  0
   -2.8450   23.9450  -29.5280 C   0  0  0  0  0  0  0  0  0  0  0  0
   -3.4710   24.8810  -30.4650 N   0  0  0  0  0  0  0  0  0  0  0  0
   -5.2080   24.7260  -30.4700 S   0  0  0  0  0  0  0  0  0  0  0  0
   -5.7300   24.7200  -29.0590 O   0  0  0  0  0  0  0  0  0  0  0  0
   -5.8050   25.8960  -31.1980 O   0  0  0  0  0  0  0  0  0  0  0  0
   -5.6680   23.2440  -31.3060 C   0  0  0  0  0  0  0  0  0  0  0  0
   -7.0210   23.0000  -31.5800 C   0  0  0  0  0  0  0  0  0  0  0  0
   -7.4000   21.8880  -32.3360 C   0  0  0  0  0  0  0  0  0  0  0  0
   -6.4250   21.0100  -32.8300 C   0  0  0  0  0  0  0  0  0  0  0  0
   -6.7670   19.9420  -33.6060 N   0  0  0  0  0  0  0  0  0  0  0  0
   -5.8150   19.1030  -34.1010 C   0  0  0  0  0  0  0  0  0  0  0  0
   -6.1510   18.1230  -34.8210 O   0  0  0  0  0  0  0  0  0  0  0  0
   -4.4650   19.3370  -33.8070 C   0  0  0  0  0  0  0  0  0  0  0  0
   -3.5670   18.5750  -34.2530 O   0  0  0  0  0  0  0  0  0  0  0  0
   -4.1220   20.4000  -33.0330 N   0  0  0  0  0  0  0  0  0  0  0  0
   -5.0650   21.2420  -32.5370 C   0  0  0  0  0  0  0  0  0  0  0  0
   -4.6920   22.3490  -31.7670 C   0  0  0  0  0  0  0  0  0  0  0  0
   -3.2250   24.6220  -27.1250 C   0  0  0  0  0  0  0  0  0  0  0  0
   -2.8580   25.3370  -25.9810 C   0  0  0  0  0  0  0  0  0  0  0  0
   -1.5628   26.2888  -23.8396 H   0  0  0  0  0  0  0  0  0  0  0  0
   -0.1941   27.0252  -24.7402 H   0  0  0  0  0  0  0  0  0  0  0  0
   -1.8028   27.8244  -24.7402 H   0  0  0  0  0  0  0  0  0  0  0  0
    0.1384   26.5894  -27.0537 H   0  0  0  0  0  0  0  0  0  0  0  0
   -0.5206   25.3262  -29.0993 H   0  0  0  0  0  0  0  0  0  0  0  0
   -1.9668   23.4903  -30.0096 H   0  0  0  0  0  0  0  0  0  0  0  0
   -3.5853   23.1767  -29.2601 H   0  0  0  0  0  0  0  0  0  0  0  0
   -7.7890   23.6883  -31.1974 H   0  0  0  0  0  0  0  0  0  0  0  0
   -8.4639   21.7012  -32.5438 H   0  0  0  0  0  0  0  0  0  0  0  0
   -7.7720   19.7620  -33.8340 H   0  0  0  0  0  0  0  0  0  0  0  0
   -3.6327   22.5173  -31.5232 H   0  0  0  0  0  0  0  0  0  0  0  0
   -4.1596   24.0420  -27.1318 H   0  0  0  0  0  0  0  0  0  0  0  0
   -3.5059   25.3179  -25.0923 H   0  0  0  0  0  0  0  0  0  0  0  0
  1  2  1  0
  2  3  2  0
  3  4  1  0
  4  5  2  0
  5  6  1  0
  6  7  1  0
  7  8  1  0
  8  9  2  0
  8 10  2  0
  8 11  1  0
 11 12  2  0
 12 13  1  0
 13 14  2  0
 14 15  1  0
 15 16  1  0
 16 17  2  0
 16 18  1  0
 18 19  2  0
 18 20  1  0
 20 21  1  0
 21 22  2  0
  5 23  1  0
 23 24  2  0
 24  2  1  0
 22 11  1  0
 21 14  1  0
  1 25  1  0
  1 26  1  0
  1 27  1  0
  3 28  1  0
  4 29  1  0
  6 30  1  0
  6 31  1  0
 12 32  1  0
 13 33  1  0
 15 34  1  0
 22 35  1  0
 23 36  1  0
 24 37  1  0
M  CHG  2   7  -1  20  -1
M  END
>  <UniqueID>  (31) 
30

>  <SMILES>  (31) 
Cc1ccc(C[N-]S(=O)(=O)c2ccc3[nH]c(=O)c(=O)[n-]c3c2)cc1

>  <Energy>  (31) 
37.584529705452624

>  <Genealogy>  (31) 
Cc1ccc(C[N-]S(=O)(=O)c2ccc3[nH]c(=O)c(=O)[n-]c3c2)cc1 (protonated)
Cc1ccc(C[N-]S(=O)(=O)c2ccc3[nH]c(=O)c(=O)[n-]c3c2)cc1 (3D coordinates assigned)
Cc1ccc(C[N-]S(=O)(=O)c2ccc3[nH]c(=O)c(=O)[n-]c3c2)cc1 (optimized conformer: 37.584529705452624 kcal/mol)

>  <smiles>  (31) 
Cc1ccc(CNS(=O)(=O)c2ccc3[nH]c(=O)c(=O)[nH]c3c2)cc1

>  <score_type>  (31) 
oracle

>  <origin>  (31) 
adgpu

>  <m_score__min__energy>  (31) 
-10.380000000000001

>  <m_primary>  (31) 
energy

$$$$
31:0
     RDKit          3D

 52 55  0  0  0  0  0  0  0  0999 V2000
   -3.9240   17.1180  -35.1050 C   0  0  0  0  0  0  0  0  0  0  0  0
   -4.9700   17.5640  -34.1280 C   0  0  0  0  0  0  0  0  0  0  0  0
   -5.9610   16.6700  -33.6970 C   0  0  0  0  0  0  0  0  0  0  0  0
   -6.9150   17.0770  -32.7610 C   0  0  0  0  0  0  0  0  0  0  0  0
   -6.8810   18.3720  -32.2400 C   0  0  0  0  0  0  0  0  0  0  0  0
   -5.8830   19.2760  -32.6450 C   0  0  0  0  0  0  0  0  0  0  0  0
   -5.8390   20.6500  -32.0830 C   0  0  0  0  0  0  0  0  0  0  0  0
   -6.9620   21.1930  -31.4330 C   0  0  0  0  0  0  0  0  0  0  0  0
   -6.9130   22.4800  -30.8910 C   0  0  0  0  0  0  0  0  0  0  0  0
   -5.7450   23.2440  -30.9890 C   0  0  0  0  0  0  0  0  0  0  0  0
   -5.6790   24.8360  -30.2380 S   0  0  0  0  0  0  0  0  0  0  0  0
   -5.1760   25.8650  -31.2120 O   0  0  0  0  0  0  0  0  0  0  0  0
   -7.0620   25.2170  -29.7920 O   0  0  0  0  0  0  0  0  0  0  0  0
   -4.6220   24.7910  -28.8620 N   0  0  0  0  0  0  0  0  0  0  0  0
   -3.5130   23.8790  -28.7540 C   0  0  0  0  0  0  0  0  0  0  0  0
   -3.7120   22.5300  -28.4090 C   0  0  0  0  0  0  0  0  0  0  0  0
   -2.6260   21.6570  -28.2610 C   0  0  0  0  0  0  0  0  0  0  0  0
   -1.3200   22.1210  -28.5160 C   0  0  0  0  0  0  0  0  0  0  0  0
   -1.1210   23.4610  -28.8720 C   0  0  0  0  0  0  0  0  0  0  0  0
   -2.2050   24.3350  -28.9940 C   0  0  0  0  0  0  0  0  0  0  0  0
   -1.9720   25.6610  -29.3410 O   0  0  0  0  0  0  0  0  0  0  0  0
   -0.1210   21.2220  -28.3110 C   0  0  0  0  0  0  0  0  0  0  0  0
   -0.4600   19.7860  -28.3620 N   0  0  0  0  0  0  0  0  0  0  0  0
   -0.6460   19.3130  -29.7450 C   0  0  0  0  0  0  0  0  0  0  0  0
   -1.6110   19.4730  -27.4940 C   0  0  0  0  0  0  0  0  0  0  0  0
   -2.8880   20.2140  -27.9200 C   0  0  0  0  0  0  0  0  0  0  0  0
   -4.6250   22.7150  -31.6440 C   0  0  0  0  0  0  0  0  0  0  0  0
   -4.6710   21.4290  -32.1870 C   0  0  0  0  0  0  0  0  0  0  0  0
   -4.9270   18.8590  -33.5890 C   0  0  0  0  0  0  0  0  0  0  0  0
   -3.0465   16.7438  -34.5573 H   0  0  0  0  0  0  0  0  0  0  0  0
   -4.3313   16.3153  -35.7373 H   0  0  0  0  0  0  0  0  0  0  0  0
   -3.6268   17.9676  -35.7373 H   0  0  0  0  0  0  0  0  0  0  0  0
   -5.9872   15.6456  -34.0970 H   0  0  0  0  0  0  0  0  0  0  0  0
   -7.6957   16.3748  -32.4333 H   0  0  0  0  0  0  0  0  0  0  0  0
   -7.6395   18.6869  -31.5083 H   0  0  0  0  0  0  0  0  0  0  0  0
   -7.8851   20.6005  -31.3508 H   0  0  0  0  0  0  0  0  0  0  0  0
   -7.7972   22.8946  -30.3847 H   0  0  0  0  0  0  0  0  0  0  0  0
   -4.9050   25.3580  -28.0320 H   0  0  0  0  0  0  0  0  0  0  0  0
   -4.7344   22.1551  -28.2532 H   0  0  0  0  0  0  0  0  0  0  0  0
   -0.1012   23.8293  -29.0575 H   0  0  0  0  0  0  0  0  0  0  0  0
    0.6162   21.4361  -29.0988 H   0  0  0  0  0  0  0  0  0  0  0  0
    0.2778   21.4300  -27.3072 H   0  0  0  0  0  0  0  0  0  0  0  0
   -1.0485   18.2894  -29.7314 H   0  0  0  0  0  0  0  0  0  0  0  0
   -1.3500   19.9769  -30.2680 H   0  0  0  0  0  0  0  0  0  0  0  0
    0.3217   19.3196  -30.2680 H   0  0  0  0  0  0  0  0  0  0  0  0
   -1.8006   18.3903  -27.5364 H   0  0  0  0  0  0  0  0  0  0  0  0
   -1.3593   19.7999  -26.4743 H   0  0  0  0  0  0  0  0  0  0  0  0
   -3.3094   19.7128  -28.8039 H   0  0  0  0  0  0  0  0  0  0  0  0
   -3.5885   20.1910  -27.0722 H   0  0  0  0  0  0  0  0  0  0  0  0
   -3.7067   23.3143  -31.7308 H   0  0  0  0  0  0  0  0  0  0  0  0
   -3.7874   21.0216  -32.7001 H   0  0  0  0  0  0  0  0  0  0  0  0
   -4.1375   19.5553  -33.9080 H   0  0  0  0  0  0  0  0  0  0  0  0
  1  2  1  0
  2  3  2  0
  3  4  1  0
  4  5  2  0
  5  6  1  0
  6  7  1  0
  7  8  2  0
  8  9  1  0
  9 10  2  0
 10 11  1  0
 11 12  2  0
 11 13  2  0
 11 14  1  0
 14 15  1  0
 15 16  2  0
 16 17  1  0
 17 18  2  0
 18 19  1  0
 19 20  2  0
 20 21  1  0
 18 22  1  0
 22 23  1  0
 23 24  1  0
 23 25  1  0
 25 26  1  0
 10 27  1  0
 27 28  2  0
  6 29  2  0
 29  2  1  0
 28  7  1  0
 20 15  1  0
 26 17  1  0
  1 30  1  0
  1 31  1  0
  1 32  1  0
  3 33  1  0
  4 34  1  0
  5 35  1  0
  8 36  1  0
  9 37  1  0
 14 38  1  0
 16 39  1  0
 19 40  1  0
 22 41  1  0
 22 42  1  0
 24 43  1  0
 24 44  1  0
 24 45  1  0
 25 46  1  0
 25 47  1  0
 26 48  1  0
 26 49  1  0
 27 50  1  0
 28 51  1  0
 29 52  1  0
M  CHG  1  21  -1
M  END
>  <UniqueID>  (32) 
31

>  <SMILES>  (32) 
Cc1cccc(-c2ccc(S(=O)(=O)Nc3cc4c(cc3[O-])CN(C)CC4)cc2)c1

>  <Energy>  (32) 
68.04866936803563

>  <Genealogy>  (32) 
Cc1cccc(-c2ccc(S(=O)(=O)Nc3cc4c(cc3[O-])CN(C)CC4)cc2)c1 (protonated)
Cc1cccc(-c2ccc(S(=O)(=O)Nc3cc4c(cc3[O-])CN(C)CC4)cc2)c1 (3D coordinates assigned)
Cc1cccc(-c2ccc(S(=O)(=O)Nc3cc4c(cc3[O-])CN(C)CC4)cc2)c1 (nonaromatic ring conformer: 68.04866936803563 kcal/mol)

>  <smiles>  (32) 
Cc1cccc(-c2ccc(S(=O)(=O)Nc3cc4c(cc3O)CN(C)CC4)cc2)c1

>  <score_type>  (32) 
oracle

>  <origin>  (32) 
adgpu

>  <m_score__min__energy>  (32) 
-14.35

>  <m_primary>  (32) 
energy

$$$$
32:0
     RDKit          3D

 59 62  0  0  0  0  0  0  0  0999 V2000
   -6.3050   13.7960  -34.2790 C   0  0  0  0  0  0  0  0  0  0  0  0
   -4.9190   14.3300  -34.4460 C   0  0  0  0  0  0  0  0  0  0  0  0
   -3.8240   13.5480  -34.5470 N   0  0  0  0  0  0  0  0  0  0  0  0
   -2.8020   14.3380  -34.7090 O   0  0  0  0  0  0  0  0  0  0  0  0
   -3.1710   15.5990  -34.7240 C   0  0  0  0  0  0  0  0  0  0  0  0
   -2.2190   16.7330  -34.9220 C   0  0  0  0  0  0  0  0  0  0  0  0
   -4.5450   15.6610  -34.5470 C   0  0  0  0  0  0  0  0  0  0  0  0
   -5.4180   16.8540  -34.5260 C   0  0  0  0  0  0  0  0  0  0  0  0
   -5.2550   17.7630  -35.3850 O   0  0  0  0  0  0  0  0  0  0  0  0
   -6.4760   16.9620  -33.5650 N   0  0  0  0  0  0  0  0  0  0  0  0
   -7.0030   18.2140  -33.0940 C   0  0  0  0  0  0  0  0  0  0  0  0
   -6.4930   19.4430  -33.5550 C   0  0  0  0  0  0  0  0  0  0  0  0
   -6.9640   20.6470  -33.0230 C   0  0  0  0  0  0  0  0  0  0  0  0
   -7.9460   20.6390  -32.0200 C   0  0  0  0  0  0  0  0  0  0  0  0
   -8.4530   22.1340  -31.2460 S   0  0  0  0  0  0  0  0  0  0  0  0
   -9.2300   21.8150  -29.9990 O   0  0  0  0  0  0  0  0  0  0  0  0
   -9.3250   22.9470  -32.1650 O   0  0  0  0  0  0  0  0  0  0  0  0
   -6.9970   23.0440  -30.8640 C   0  0  0  0  0  0  0  0  0  0  0  0
   -7.0420   24.4410  -30.8380 C   0  0  0  0  0  0  0  0  0  0  0  0
   -5.8700   25.1810  -30.6630 C   0  0  0  0  0  0  0  0  0  0  0  0
   -4.6400   24.5300  -30.5290 C   0  0  0  0  0  0  0  0  0  0  0  0
   -3.4850   25.2930  -30.4020 O   0  0  0  0  0  0  0  0  0  0  0  0
   -4.5830   23.1210  -30.5400 C   0  0  0  0  0  0  0  0  0  0  0  0
   -3.0430   22.2520  -30.4260 S   0  0  0  0  0  0  0  0  0  0  0  0
   -3.1460   21.2290  -29.3260 O   0  0  0  0  0  0  0  0  0  0  0  0
   -1.9380   23.2060  -30.0620 O   0  0  0  0  0  0  0  0  0  0  0  0
   -2.6260   21.4710  -31.9390 N   0  0  0  0  0  0  0  0  0  0  0  0
   -3.3960   20.2260  -32.1180 C   0  0  0  0  0  0  0  0  0  0  0  0
   -3.2240   19.6900  -33.5540 C   0  0  0  0  0  0  0  0  0  0  0  0
   -1.9180   20.1760  -34.2080 C   0  0  0  0  0  0  0  0  0  0  0  0
   -0.7890   20.2690  -33.1740 C   0  0  0  0  0  0  0  0  0  0  0  0
   -1.1690   21.2120  -32.0070 C   0  0  0  0  0  0  0  0  0  0  0  0
   -5.7700   22.3870  -30.7020 C   0  0  0  0  0  0  0  0  0  0  0  0
   -8.4590   19.4200  -31.5630 C   0  0  0  0  0  0  0  0  0  0  0  0
   -7.9860   18.2160  -32.0920 C   0  0  0  0  0  0  0  0  0  0  0  0
   -6.5369   13.7067  -33.2074 H   0  0  0  0  0  0  0  0  0  0  0  0
   -7.0220   14.4823  -34.7533 H   0  0  0  0  0  0  0  0  0  0  0  0
   -6.3762   12.8061  -34.7533 H   0  0  0  0  0  0  0  0  0  0  0  0
   -1.8969   17.1166  -33.9427 H   0  0  0  0  0  0  0  0  0  0  0  0
   -1.3416   16.3812  -35.4846 H   0  0  0  0  0  0  0  0  0  0  0  0
   -2.7174   17.5362  -35.4846 H   0  0  0  0  0  0  0  0  0  0  0  0
   -6.9540   16.0810  -33.2690 H   0  0  0  0  0  0  0  0  0  0  0  0
   -5.7201   19.4557  -34.3376 H   0  0  0  0  0  0  0  0  0  0  0  0
   -6.5640   21.6032  -33.3914 H   0  0  0  0  0  0  0  0  0  0  0  0
   -8.0047   24.9600  -30.9559 H   0  0  0  0  0  0  0  0  0  0  0  0
   -5.9151   26.2796  -30.6305 H   0  0  0  0  0  0  0  0  0  0  0  0
   -3.0358   19.4710  -31.4036 H   0  0  0  0  0  0  0  0  0  0  0  0
   -4.4610   20.4362  -31.9404 H   0  0  0  0  0  0  0  0  0  0  0  0
   -3.2156   18.5905  -33.5223 H   0  0  0  0  0  0  0  0  0  0  0  0
   -4.0627   20.0688  -34.1566 H   0  0  0  0  0  0  0  0  0  0  0  0
   -1.6256   19.4682  -34.9976 H   0  0  0  0  0  0  0  0  0  0  0  0
   -2.0888   21.1764  -34.6324 H   0  0  0  0  0  0  0  0  0  0  0  0
   -0.5881   19.2650  -32.7721 H   0  0  0  0  0  0  0  0  0  0  0  0
    0.1037   20.6758  -33.6715 H   0  0  0  0  0  0  0  0  0  0  0  0
   -0.8482   20.7504  -31.0615 H   0  0  0  0  0  0  0  0  0  0  0  0
   -0.6657   22.1751  -32.1778 H   0  0  0  0  0  0  0  0  0  0  0  0
   -5.7358   21.2875  -30.7017 H   0  0  0  0  0  0  0  0  0  0  0  0
   -9.2368   19.4093  -30.7852 H   0  0  0  0  0  0  0  0  0  0  0  0
   -8.3874   17.2618  -31.7200 H   0  0  0  0  0  0  0  0  0  0  0  0
  1  2  1  0
  2  3  2  0
  3  4  1  0
  4  5  1  0
  5  6  1  0
  5  7  2  0
  7  8  1  0
  8  9  2  0
  8 10  1  0
 10 11  1  0
 11 12  2  0
 12 13  1  0
 13 14  2  0
 14 15  1  0
 15 16  2  0
 15 17  2  0
 15 18  1  0
 18 19  2  0
 19 20  1  0
 20 21  2  0
 21 22  1  0
 21 23  1  0
 23 24  1  0
 24 25  2  0
 24 26  2  0
 24 27  1  0
 27 28  1  0
 28 29  1  0
 29 30  1  0
 30 31  1  0
 31 32  1  0
 23 33  2  0
 14 34  1  0
 34 35  2  0
  7  2  1  0
 35 11  1  0
 33 18  1  0
 32 27  1  0
  1 36  1  0
  1 37  1  0
  1 38  1  0
  6 39  1  0
  6 40  1  0
  6 41  1  0
 10 42  1  0
 12 43  1  0
 13 44  1  0
 19 45  1  0
 20 46  1  0
 28 47  1  0
 28 48  1  0
 29 49  1  0
 29 50  1  0
 30 51  1  0
 30 52  1  0
 31 53  1  0
 31 54  1  0
 32 55  1  0
 32 56  1  0
 33 57  1  0
 34 58  1  0
 35 59  1  0
M  CHG  1  22  -1
M  END
>  <UniqueID>  (33) 
32

>  <SMILES>  (33) 
Cc1noc(C)c1C(=O)Nc1ccc(S(=O)(=O)c2ccc([O-])c(S(=O)(=O)N3CCCCC3)c2)cc1

>  <Energy>  (33) 
102.56799008423982

>  <Genealogy>  (33) 
Cc1noc(C)c1C(=O)Nc1ccc(S(=O)(=O)c2ccc([O-])c(S(=O)(=O)N3CCCCC3)c2)cc1 (protonated)
Cc1noc(C)c1C(=O)Nc1ccc(S(=O)(=O)c2ccc([O-])c(S(=O)(=O)N3CCCCC3)c2)cc1 (3D coordinates assigned)
Cc1noc(C)c1C(=O)Nc1ccc(S(=O)(=O)c2ccc([O-])c(S(=O)(=O)N3CCCCC3)c2)cc1 (nonaromatic ring conformer: 102.56799008423982 kcal/mol)

>  <smiles>  (33) 
Cc1noc(C)c1C(=O)Nc1ccc(S(=O)(=O)c2ccc(O)c(S(=O)(=O)N3CCCCC3)c2)cc1

>  <score_type>  (33) 
oracle

>  <origin>  (33) 
adgpu

>  <m_score__min__energy>  (33) 
-14

>  <m_primary>  (33) 
energy

$$$$
33:0
     RDKit          3D

 47 50  0  0  0  0  0  0  0  0999 V2000
   -9.7530   21.9060  -30.8590 C   0  0  0  0  0  0  0  0  0  0  0  0
   -8.7790   21.1000  -31.6680 C   0  0  0  0  0  0  0  0  0  0  0  0
   -7.5530   21.6550  -32.0620 C   0  0  0  0  0  0  0  0  0  0  0  0
   -6.6300   20.8900  -32.7810 C   0  0  0  0  0  0  0  0  0  0  0  0
   -6.9160   19.5530  -33.1070 C   0  0  0  0  0  0  0  0  0  0  0  0
   -5.9320   18.7320  -33.8430 C   0  0  0  0  0  0  0  0  0  0  0  0
   -6.0540   18.3910  -35.1420 N   0  0  0  0  0  0  0  0  0  0  0  0
   -4.9710   17.7270  -35.4170 O   0  0  0  0  0  0  0  0  0  0  0  0
   -4.2070   17.6630  -34.3530 C   0  0  0  0  0  0  0  0  0  0  0  0
   -2.8910   16.9810  -34.3160 C   0  0  0  0  0  0  0  0  0  0  0  0
   -2.8800   15.5750  -34.3010 C   0  0  0  0  0  0  0  0  0  0  0  0
   -1.6820   14.8710  -34.1730 C   0  0  0  0  0  0  0  0  0  0  0  0
   -0.4760   15.5600  -34.0560 C   0  0  0  0  0  0  0  0  0  0  0  0
   -0.4610   16.9540  -34.0900 C   0  0  0  0  0  0  0  0  0  0  0  0
   -1.6550   17.6830  -34.2430 C   0  0  0  0  0  0  0  0  0  0  0  0
   -1.5570   19.1530  -34.3680 C   0  0  0  0  0  0  0  0  0  0  0  0
   -0.5760   19.6590  -34.9770 O   0  0  0  0  0  0  0  0  0  0  0  0
   -2.5690   19.9880  -33.7880 N   0  0  0  0  0  0  0  0  0  0  0  0
   -2.4430   20.8100  -32.6190 C   0  0  0  0  0  0  0  0  0  0  0  0
   -1.3620   20.5820  -31.7570 C   0  0  0  0  0  0  0  0  0  0  0  0
   -1.1950   21.3630  -30.6120 C   0  0  0  0  0  0  0  0  0  0  0  0
   -2.1160   22.3680  -30.3080 C   0  0  0  0  0  0  0  0  0  0  0  0
   -3.2140   22.5930  -31.1490 C   0  0  0  0  0  0  0  0  0  0  0  0
   -4.4000   23.8320  -30.7520 S   0  0  0  0  0  0  0  0  0  0  0  0
   -3.5870   25.2910  -30.3130 N   0  0  0  0  0  0  0  0  0  0  0  0
   -5.2530   23.3660  -29.6060 O   0  0  0  0  0  0  0  0  0  0  0  0
   -5.2870   24.0930  -31.9370 O   0  0  0  0  0  0  0  0  0  0  0  0
   -3.3820   21.8050  -32.2970 C   0  0  0  0  0  0  0  0  0  0  0  0
   -4.7830   18.2790  -33.3020 N   0  0  0  0  0  0  0  0  0  0  0  0
   -8.1400   18.9960  -32.6960 C   0  0  0  0  0  0  0  0  0  0  0  0
   -9.0590   19.7610  -31.9760 C   0  0  0  0  0  0  0  0  0  0  0  0
   -9.5603   21.7465  -29.7878 H   0  0  0  0  0  0  0  0  0  0  0  0
   -9.6337   22.9730  -31.0981 H   0  0  0  0  0  0  0  0  0  0  0  0
  -10.7789   21.5891  -31.0981 H   0  0  0  0  0  0  0  0  0  0  0  0
   -7.3163   22.6978  -31.8039 H   0  0  0  0  0  0  0  0  0  0  0  0
   -5.6746   21.3368  -33.0934 H   0  0  0  0  0  0  0  0  0  0  0  0
   -3.8274   15.0233  -34.3913 H   0  0  0  0  0  0  0  0  0  0  0  0
   -1.6894   13.7711  -34.1644 H   0  0  0  0  0  0  0  0  0  0  0  0
    0.4652   15.0034  -33.9367 H   0  0  0  0  0  0  0  0  0  0  0  0
    0.4950   17.4899  -33.9962 H   0  0  0  0  0  0  0  0  0  0  0  0
   -0.6408   19.7830  -31.9839 H   0  0  0  0  0  0  0  0  0  0  0  0
   -0.3362   21.1865  -29.9478 H   0  0  0  0  0  0  0  0  0  0  0  0
   -1.9792   22.9839  -29.4069 H   0  0  0  0  0  0  0  0  0  0  0  0
   -3.9250   26.0360  -30.9630 H   0  0  0  0  0  0  0  0  0  0  0  0
   -4.2532   21.9665  -32.9488 H   0  0  0  0  0  0  0  0  0  0  0  0
   -8.3748   17.9503  -32.9436 H   0  0  0  0  0  0  0  0  0  0  0  0
  -10.0079   19.3111  -31.6485 H   0  0  0  0  0  0  0  0  0  0  0  0
  1  2  1  0
  2  3  2  0
  3  4  1  0
  4  5  2  0
  5  6  1  0
  6  7  2  0
  7  8  1  0
  8  9  1  0
  9 10  1  0
 10 11  2  0
 11 12  1  0
 12 13  2  0
 13 14  1  0
 14 15  2  0
 15 16  1  0
 16 17  2  0
 16 18  1  0
 18 19  1  0
 19 20  2  0
 20 21  1  0
 21 22  2  0
 22 23  1  0
 23 24  1  0
 24 25  1  0
 24 26  2  0
 24 27  2  0
 23 28  2  0
  9 29  2  0
  5 30  1  0
 30 31  2  0
 31  2  1  0
 29  6  1  0
 15 10  1  0
 28 19  1  0
  1 32  1  0
  1 33  1  0
  1 34  1  0
  3 35  1  0
  4 36  1  0
 11 37  1  0
 12 38  1  0
 13 39  1  0
 14 40  1  0
 20 41  1  0
 21 42  1  0
 22 43  1  0
 25 44  1  0
 28 45  1  0
 30 46  1  0
 31 47  1  0
M  CHG  2  18  -1  25  -1
M  END
>  <UniqueID>  (34) 
33

>  <SMILES>  (34) 
Cc1ccc(-c2noc(-c3ccccc3C(=O)[N-]c3cccc(S([NH-])(=O)=O)c3)n2)cc1

>  <Energy>  (34) 
94.50711154175904

>  <Genealogy>  (34) 
Cc1ccc(-c2noc(-c3ccccc3C(=O)[N-]c3cccc(S([NH-])(=O)=O)c3)n2)cc1 (protonated)
Cc1ccc(-c2noc(-c3ccccc3C(=O)[N-]c3cccc(S([NH-])(=O)=O)c3)n2)cc1 (3D coordinates assigned)
Cc1ccc(-c2noc(-c3ccccc3C(=O)[N-]c3cccc(S([NH-])(=O)=O)c3)n2)cc1 (optimized conformer: 94.50711154175904 kcal/mol)

>  <smiles>  (34) 
Cc1ccc(-c2noc(-c3ccccc3C(=O)Nc3cccc(S(N)(=O)=O)c3)n2)cc1

>  <score_type>  (34) 
oracle

>  <origin>  (34) 
adgpu

>  <m_score__min__energy>  (34) 
-11.949999999999999

>  <m_primary>  (34) 
energy

$$$$
34:0
     RDKit          3D

 60 63  0  0  0  0  0  0  0  0999 V2000
   -2.7650   21.0910  -33.5200 N   0  0  0  0  0  0  0  0  0  0  0  0
   -3.9260   21.4370  -32.7580 C   0  0  0  0  0  0  0  0  0  0  0  0
   -3.9580   22.6540  -32.0610 C   0  0  0  0  0  0  0  0  0  0  0  0
   -5.0920   23.0250  -31.3270 C   0  0  0  0  0  0  0  0  0  0  0  0
   -5.1260   24.5530  -30.4520 S   0  0  0  0  0  0  0  0  0  0  0  0
   -3.8780   25.3260  -30.7670 O   0  0  0  0  0  0  0  0  0  0  0  0
   -6.3110   25.3690  -30.8890 O   0  0  0  0  0  0  0  0  0  0  0  0
   -5.2000   24.2600  -28.7410 N   0  0  0  0  0  0  0  0  0  0  0  0
   -3.8440   24.2370  -28.1810 C   0  0  0  0  0  0  0  0  0  0  0  0
   -3.0120   23.2120  -28.9020 C   0  0  0  0  0  0  0  0  0  0  0  0
   -3.3940   21.8620  -28.9080 C   0  0  0  0  0  0  0  0  0  0  0  0
   -2.6250   20.9170  -29.5950 C   0  0  0  0  0  0  0  0  0  0  0  0
   -1.4800   21.3130  -30.3020 C   0  0  0  0  0  0  0  0  0  0  0  0
   -0.5200   20.1240  -31.1850 S   0  0  0  0  0  0  0  0  0  0  0  0
    0.0930   20.7840  -32.3900 O   0  0  0  0  0  0  0  0  0  0  0  0
   -1.4200   19.0190  -31.6730 O   0  0  0  0  0  0  0  0  0  0  0  0
    0.7450   19.4310  -30.1910 N   0  0  0  0  0  0  0  0  0  0  0  0
    0.8380   20.1120  -28.8930 C   0  0  0  0  0  0  0  0  0  0  0  0
    0.1170   19.2680  -27.8530 C   0  0  0  0  0  0  0  0  0  0  0  0
   -0.1070   17.9160  -28.4990 C   0  0  0  0  0  0  0  0  0  0  0  0
    0.4780   18.0180  -29.9010 C   0  0  0  0  0  0  0  0  0  0  0  0
   -1.1110   22.6630  -30.3160 C   0  0  0  0  0  0  0  0  0  0  0  0
   -1.8710   23.6060  -29.6220 C   0  0  0  0  0  0  0  0  0  0  0  0
   -6.2070   22.1790  -31.3000 C   0  0  0  0  0  0  0  0  0  0  0  0
   -6.1790   20.9620  -31.9810 C   0  0  0  0  0  0  0  0  0  0  0  0
   -5.0430   20.5790  -32.7050 C   0  0  0  0  0  0  0  0  0  0  0  0
   -5.0210   19.2930  -33.3390 N   0  0  0  0  0  0  0  0  0  0  0  0
   -3.8910   18.3840  -33.0950 C   0  0  0  0  0  0  0  0  0  0  0  0
   -3.6280   17.4270  -34.2890 C   0  0  0  0  0  0  0  0  0  0  0  0
   -4.5110   17.5980  -35.3830 O   0  0  0  0  0  0  0  0  0  0  0  0
   -5.8430   17.6150  -34.9300 C   0  0  0  0  0  0  0  0  0  0  0  0
   -6.1140   18.9500  -34.2510 C   0  0  0  0  0  0  0  0  0  0  0  0
   -2.6520   21.3960  -34.5110 H   0  0  0  0  0  0  0  0  0  0  0  0
   -1.9910   20.5420  -33.0940 H   0  0  0  0  0  0  0  0  0  0  0  0
   -3.0851   23.3227  -32.0911 H   0  0  0  0  0  0  0  0  0  0  0  0
   -5.6220   23.3090  -28.6160 H   0  0  0  0  0  0  0  0  0  0  0  0
   -3.3836   25.2291  -28.2984 H   0  0  0  0  0  0  0  0  0  0  0  0
   -3.8964   23.9765  -27.1136 H   0  0  0  0  0  0  0  0  0  0  0  0
   -4.3005   21.5460  -28.3711 H   0  0  0  0  0  0  0  0  0  0  0  0
   -2.9198   19.8573  -29.5808 H   0  0  0  0  0  0  0  0  0  0  0  0
    1.8945   20.2278  -28.6095 H   0  0  0  0  0  0  0  0  0  0  0  0
    0.3763   21.1084  -28.9560 H   0  0  0  0  0  0  0  0  0  0  0  0
    0.7358   19.1627  -26.9497 H   0  0  0  0  0  0  0  0  0  0  0  0
   -0.8321   19.7307  -27.5445 H   0  0  0  0  0  0  0  0  0  0  0  0
    0.4067   17.1294  -27.9269 H   0  0  0  0  0  0  0  0  0  0  0  0
   -1.1752   17.6549  -28.5264 H   0  0  0  0  0  0  0  0  0  0  0  0
    1.4151   17.4444  -29.9549 H   0  0  0  0  0  0  0  0  0  0  0  0
   -0.2307   17.6092  -30.6363 H   0  0  0  0  0  0  0  0  0  0  0  0
   -0.2193   22.9819  -30.8756 H   0  0  0  0  0  0  0  0  0  0  0  0
   -1.5748   24.6652  -29.6387 H   0  0  0  0  0  0  0  0  0  0  0  0
   -7.1069   22.4745  -30.7407 H   0  0  0  0  0  0  0  0  0  0  0  0
   -7.0556   20.2982  -31.9492 H   0  0  0  0  0  0  0  0  0  0  0  0
   -2.9867   18.9850  -32.9190 H   0  0  0  0  0  0  0  0  0  0  0  0
   -4.1427   17.7657  -32.2208 H   0  0  0  0  0  0  0  0  0  0  0  0
   -2.6015   17.5968  -34.6460 H   0  0  0  0  0  0  0  0  0  0  0  0
   -3.7888   16.4057  -33.9133 H   0  0  0  0  0  0  0  0  0  0  0  0
   -6.5253   17.4893  -35.7836 H   0  0  0  0  0  0  0  0  0  0  0  0
   -6.0053   16.7935  -34.2167 H   0  0  0  0  0  0  0  0  0  0  0  0
   -6.2055   19.7338  -35.0173 H   0  0  0  0  0  0  0  0  0  0  0  0
   -7.0474   18.8726  -33.6742 H   0  0  0  0  0  0  0  0  0  0  0  0
  1  2  1  0
  2  3  2  0
  3  4  1  0
  4  5  1  0
  5  6  2  0
  5  7  2  0
  5  8  1  0
  8  9  1  0
  9 10  1  0
 10 11  2  0
 11 12  1  0
 12 13  2  0
 13 14  1  0
 14 15  2  0
 14 16  2  0
 14 17  1  0
 17 18  1  0
 18 19  1  0
 19 20  1  0
 20 21  1  0
 13 22  1  0
 22 23  2  0
  4 24  2  0
 24 25  1  0
 25 26  2  0
 26 27  1  0
 27 28  1  0
 28 29  1  0
 29 30  1  0
 30 31  1  0
 31 32  1  0
 26  2  1  0
 32 27  1  0
 23 10  1  0
 21 17  1  0
  1 33  1  0
  1 34  1  0
  3 35  1  0
  8 36  1  0
  9 37  1  0
  9 38  1  0
 11 39  1  0
 12 40  1  0
 18 41  1  0
 18 42  1  0
 19 43  1  0
 19 44  1  0
 20 45  1  0
 20 46  1  0
 21 47  1  0
 21 48  1  0
 22 49  1  0
 23 50  1  0
 24 51  1  0
 25 52  1  0
 28 53  1  0
 28 54  1  0
 29 55  1  0
 29 56  1  0
 31 57  1  0
 31 58  1  0
 32 59  1  0
 32 60  1  0
M  END
>  <UniqueID>  (35) 
34

>  <SMILES>  (35) 
Nc1cc(S(=O)(=O)NCc2ccc(S(=O)(=O)N3CCCC3)cc2)ccc1N1CCOCC1

>  <Energy>  (35) 
70.61964421204019

>  <Genealogy>  (35) 
Nc1cc(S(=O)(=O)NCc2ccc(S(=O)(=O)N3CCCC3)cc2)ccc1N1CCOCC1 (3D coordinates assigned)
Nc1cc(S(=O)(=O)NCc2ccc(S(=O)(=O)N3CCCC3)cc2)ccc1N1CCOCC1 (nonaromatic ring conformer: 70.61964421204019 kcal/mol)

>  <smiles>  (35) 
Nc1cc(S(=O)(=O)NCc2ccc(S(=O)(=O)N3CCCC3)cc2)ccc1N1CCOCC1

>  <score_type>  (35) 
oracle

>  <origin>  (35) 
adgpu

>  <m_score__min__energy>  (35) 
-10.82

>  <m_primary>  (35) 
energy

$$$$
35:0
     RDKit          3D

 61 64  0  0  0  0  0  0  0  0999 V2000
   -1.0760   23.9670  -26.7480 C   0  0  0  0  0  0  0  0  0  0  0  0
   -1.6330   22.5980  -27.0180 C   0  0  0  0  0  0  0  0  0  0  0  0
   -1.1190   21.4820  -26.3360 C   0  0  0  0  0  0  0  0  0  0  0  0
   -1.6210   20.2040  -26.5920 C   0  0  0  0  0  0  0  0  0  0  0  0
   -2.6380   20.0290  -27.5290 C   0  0  0  0  0  0  0  0  0  0  0  0
   -3.1540   21.1300  -28.2180 C   0  0  0  0  0  0  0  0  0  0  0  0
   -2.6530   22.4240  -27.9750 C   0  0  0  0  0  0  0  0  0  0  0  0
   -3.1420   23.5540  -28.6540 O   0  0  0  0  0  0  0  0  0  0  0  0
   -4.4690   23.7100  -29.1570 C   0  0  0  0  0  0  0  0  0  0  0  0
   -4.4350   24.1970  -30.5790 C   0  0  0  0  0  0  0  0  0  0  0  0
   -3.8980   25.3080  -30.8280 O   0  0  0  0  0  0  0  0  0  0  0  0
   -4.9390   23.4130  -31.6680 N   0  0  0  0  0  0  0  0  0  0  0  0
   -4.4370   22.1350  -32.0790 C   0  0  0  0  0  0  0  0  0  0  0  0
   -3.1040   22.0510  -32.4970 C   0  0  0  0  0  0  0  0  0  0  0  0
   -2.5500   20.8200  -32.8700 C   0  0  0  0  0  0  0  0  0  0  0  0
   -0.8650   20.7160  -33.3780 S   0  0  0  0  0  0  0  0  0  0  0  0
   -0.5340   21.9240  -34.2090 O   0  0  0  0  0  0  0  0  0  0  0  0
   -0.6620   19.4850  -34.2200 O   0  0  0  0  0  0  0  0  0  0  0  0
    0.1780   20.6640  -31.9780 N   0  0  0  0  0  0  0  0  0  0  0  0
   -0.5000   21.2800  -30.8200 C   0  0  0  0  0  0  0  0  0  0  0  0
    0.1440   20.8120  -29.5050 C   0  0  0  0  0  0  0  0  0  0  0  0
    0.1010   19.4040  -29.3010 O   0  0  0  0  0  0  0  0  0  0  0  0
   -0.0740   18.6570  -30.4970 C   0  0  0  0  0  0  0  0  0  0  0  0
    0.6390   19.2830  -31.7090 C   0  0  0  0  0  0  0  0  0  0  0  0
   -3.3490   19.6720  -32.8610 C   0  0  0  0  0  0  0  0  0  0  0  0
   -4.6900   19.7510  -32.4830 C   0  0  0  0  0  0  0  0  0  0  0  0
   -5.2530   20.9800  -32.0980 C   0  0  0  0  0  0  0  0  0  0  0  0
   -6.6560   21.0540  -31.7810 N   0  0  0  0  0  0  0  0  0  0  0  0
   -7.5560   19.9670  -32.1860 C   0  0  0  0  0  0  0  0  0  0  0  0
   -8.9770   20.5020  -32.4740 C   0  0  0  0  0  0  0  0  0  0  0  0
   -9.1460   21.8690  -32.1370 O   0  0  0  0  0  0  0  0  0  0  0  0
   -8.6690   22.1080  -30.8300 C   0  0  0  0  0  0  0  0  0  0  0  0
   -7.1380   22.0550  -30.8210 C   0  0  0  0  0  0  0  0  0  0  0  0
   -1.0103   24.1285  -25.6619 H   0  0  0  0  0  0  0  0  0  0  0  0
   -0.0730   24.0489  -27.1922 H   0  0  0  0  0  0  0  0  0  0  0  0
   -1.7369   24.7259  -27.1922 H   0  0  0  0  0  0  0  0  0  0  0  0
   -0.3163   21.6158  -25.5959 H   0  0  0  0  0  0  0  0  0  0  0  0
   -1.2136   19.3353  -26.0540 H   0  0  0  0  0  0  0  0  0  0  0  0
   -3.0352   19.0224  -27.7265 H   0  0  0  0  0  0  0  0  0  0  0  0
   -3.9572   20.9851  -28.9555 H   0  0  0  0  0  0  0  0  0  0  0  0
   -4.9880   22.7409  -29.1178 H   0  0  0  0  0  0  0  0  0  0  0  0
   -5.0011   24.4482  -28.5390 H   0  0  0  0  0  0  0  0  0  0  0  0
   -2.4858   22.9601  -32.5329 H   0  0  0  0  0  0  0  0  0  0  0  0
   -0.4182   22.3745  -30.8933 H   0  0  0  0  0  0  0  0  0  0  0  0
   -1.5573   20.9766  -30.8251 H   0  0  0  0  0  0  0  0  0  0  0  0
    1.1976   21.1281  -29.5056 H   0  0  0  0  0  0  0  0  0  0  0  0
   -0.4379   21.2666  -28.6897 H   0  0  0  0  0  0  0  0  0  0  0  0
    0.3266   17.6447  -30.3394 H   0  0  0  0  0  0  0  0  0  0  0  0
   -1.1509   18.6432  -30.7208 H   0  0  0  0  0  0  0  0  0  0  0  0
    1.7210   19.3029  -31.5119 H   0  0  0  0  0  0  0  0  0  0  0  0
    0.4038   18.6708  -32.5921 H   0  0  0  0  0  0  0  0  0  0  0  0
   -2.9185   18.7028  -33.1531 H   0  0  0  0  0  0  0  0  0  0  0  0
   -5.3118   18.8436  -32.4864 H   0  0  0  0  0  0  0  0  0  0  0  0
   -7.1595   19.4918  -33.0954 H   0  0  0  0  0  0  0  0  0  0  0  0
   -7.6161   19.2378  -31.3647 H   0  0  0  0  0  0  0  0  0  0  0  0
   -9.1840   20.3799  -33.5474 H   0  0  0  0  0  0  0  0  0  0  0  0
   -9.6729   19.9258  -31.8466 H   0  0  0  0  0  0  0  0  0  0  0  0
   -9.0024   23.1013  -30.4951 H   0  0  0  0  0  0  0  0  0  0  0  0
   -9.0640   21.3374  -30.1516 H   0  0  0  0  0  0  0  0  0  0  0  0
   -6.7393   23.0426  -31.0960 H   0  0  0  0  0  0  0  0  0  0  0  0
   -6.7960   21.7772  -29.8131 H   0  0  0  0  0  0  0  0  0  0  0  0
  1  2  1  0
  2  3  2  0
  3  4  1  0
  4  5  2  0
  5  6  1  0
  6  7  2  0
  7  8  1  0
  8  9  1  0
  9 10  1  0
 10 11  2  0
 10 12  1  0
 12 13  1  0
 13 14  2  0
 14 15  1  0
 15 16  1  0
 16 17  2  0
 16 18  2  0
 16 19  1  0
 19 20  1  0
 20 21  1  0
 21 22  1  0
 22 23  1  0
 23 24  1  0
 15 25  2  0
 25 26  1  0
 26 27  2  0
 27 28  1  0
 28 29  1  0
 29 30  1  0
 30 31  1  0
 31 32  1  0
 32 33  1  0
  7  2  1  0
 27 13  1  0
 33 28  1  0
 24 19  1  0
  1 34  1  0
  1 35  1  0
  1 36  1  0
  3 37  1  0
  4 38  1  0
  5 39  1  0
  6 40  1  0
  9 41  1  0
  9 42  1  0
 14 43  1  0
 20 44  1  0
 20 45  1  0
 21 46  1  0
 21 47  1  0
 23 48  1  0
 23 49  1  0
 24 50  1  0
 24 51  1  0
 25 52  1  0
 26 53  1  0
 29 54  1  0
 29 55  1  0
 30 56  1  0
 30 57  1  0
 32 58  1  0
 32 59  1  0
 33 60  1  0
 33 61  1  0
M  CHG  1  12  -1
M  END
>  <UniqueID>  (36) 
35

>  <SMILES>  (36) 
Cc1ccccc1OCC(=O)[N-]c1cc(S(=O)(=O)N2CCOCC2)ccc1N1CCOCC1

>  <Energy>  (36) 
89.81750872450469

>  <Genealogy>  (36) 
Cc1ccccc1OCC(=O)[N-]c1cc(S(=O)(=O)N2CCOCC2)ccc1N1CCOCC1 (protonated)
Cc1ccccc1OCC(=O)[N-]c1cc(S(=O)(=O)N2CCOCC2)ccc1N1CCOCC1 (3D coordinates assigned)
Cc1ccccc1OCC(=O)[N-]c1cc(S(=O)(=O)N2CCOCC2)ccc1N1CCOCC1 (nonaromatic ring conformer: 89.81750872450469 kcal/mol)

>  <smiles>  (36) 
Cc1ccccc1OCC(=O)Nc1cc(S(=O)(=O)N2CCOCC2)ccc1N1CCOCC1

>  <score_type>  (36) 
oracle

>  <origin>  (36) 
adgpu

>  <m_score__min__energy>  (36) 
-10.5

>  <m_primary>  (36) 
energy

$$$$
36:0
     RDKit          3D

 52 55  0  0  0  0  0  0  0  0999 V2000
   -3.0048   17.9136  -25.5493 H   0  0  0  0  0  0  0  0  0  0  0  0
   -2.5340   18.4960  -26.3550 C   0  0  0  0  0  0  0  0  0  0  0  0
   -1.3160   18.1640  -26.8020 N   0  0  0  0  0  0  0  0  0  0  0  0
   -0.6910   18.8360  -27.7860 C   0  0  0  0  0  0  0  0  0  0  0  0
    0.3094   18.5244  -28.1209 H   0  0  0  0  0  0  0  0  0  0  0  0
   -1.3130   19.9170  -28.3710 C   0  0  0  0  0  0  0  0  0  0  0  0
   -0.6730   20.7130  -29.4700 C   0  0  0  0  0  0  0  0  0  0  0  0
   -1.4051   20.9109  -30.2668 H   0  0  0  0  0  0  0  0  0  0  0  0
    0.1699   20.1605  -29.9108 H   0  0  0  0  0  0  0  0  0  0  0  0
   -0.2280   21.9420  -28.9000 N   0  0  0  0  0  0  0  0  0  0  0  0
   -0.8720   23.0280  -28.9640 C   0  0  0  0  0  0  0  0  0  0  0  0
   -2.0810   23.2510  -29.5660 C   0  0  0  0  0  0  0  0  0  0  0  0
   -2.5936   22.4093  -30.0546 H   0  0  0  0  0  0  0  0  0  0  0  0
   -2.6910   24.5180  -29.5820 C   0  0  0  0  0  0  0  0  0  0  0  0
   -3.8250   24.7190  -30.1470 O   0  0  0  0  0  0  0  0  0  0  0  0
   -4.9790   24.9250  -30.7220 C   0  0  0  0  0  0  0  0  0  0  0  0
   -4.8380   25.6189  -31.5638 H   0  0  0  0  0  0  0  0  0  0  0  0
   -5.6635   25.3461  -29.9709 H   0  0  0  0  0  0  0  0  0  0  0  0
   -5.5990   23.6170  -31.2530 C   0  0  2  0  0  0  0  0  0  0  0  0
   -6.2974   24.0894  -31.9594 H   0  0  0  0  0  0  0  0  0  0  0  0
   -5.7040   22.5310  -30.1950 C   0  0  0  0  0  0  0  0  0  0  0  0
   -6.5689   21.8516  -30.1756 H   0  0  0  0  0  0  0  0  0  0  0  0
   -5.6559   22.4815  -29.0972 H   0  0  0  0  0  0  0  0  0  0  0  0
   -4.6930   22.4810  -31.3620 C   0  0  1  0  0  0  0  0  0  0  0  0
   -3.6085   22.4665  -31.5454 H   0  0  0  0  0  0  0  0  0  0  0  0
   -4.9440   21.3050  -32.2310 C   0  0  0  0  0  0  0  0  0  0  0  0
   -3.9000   20.6040  -32.7210 N   0  0  0  0  0  0  0  0  0  0  0  0
   -4.0910   19.5230  -33.5230 C   0  0  0  0  0  0  0  0  0  0  0  0
   -3.2196   18.9716  -33.9060 H   0  0  0  0  0  0  0  0  0  0  0  0
   -5.3780   19.1020  -33.8680 C   0  0  0  0  0  0  0  0  0  0  0  0
   -5.5840   17.9910  -34.6910 O   0  0  0  0  0  0  0  0  0  0  0  0
   -6.2920   16.8650  -34.2500 C   0  0  0  0  0  0  0  0  0  0  0  0
   -6.3035   16.8467  -33.1502 H   0  0  0  0  0  0  0  0  0  0  0  0
   -7.3245   16.9103  -34.6268 H   0  0  0  0  0  0  0  0  0  0  0  0
   -5.8038   15.9541  -34.6268 H   0  0  0  0  0  0  0  0  0  0  0  0
   -6.4790   19.8090  -33.3740 C   0  0  0  0  0  0  0  0  0  0  0  0
   -7.5040   19.5002  -33.6272 H   0  0  0  0  0  0  0  0  0  0  0  0
   -6.2500   20.9160  -32.5520 C   0  0  0  0  0  0  0  0  0  0  0  0
   -7.1026   21.4860  -32.1542 H   0  0  0  0  0  0  0  0  0  0  0  0
   -2.0100   25.5200  -28.9610 N   0  0  0  0  0  0  0  0  0  0  0  0
   -2.4470   26.4630  -28.9650 H   0  0  0  0  0  0  0  0  0  0  0  0
   -0.8500   25.3540  -28.3730 N   0  0  0  0  0  0  0  0  0  0  0  0
   -0.1460   26.4590  -27.7110 C   0  0  0  0  0  0  0  0  0  0  0  0
   -0.2215   26.3406  -26.6200 H   0  0  0  0  0  0  0  0  0  0  0  0
    0.9130   26.4496  -28.0085 H   0  0  0  0  0  0  0  0  0  0  0  0
   -0.6020   27.4148  -28.0085 H   0  0  0  0  0  0  0  0  0  0  0  0
   -0.2780   24.1460  -28.3630 C   0  0  0  0  0  0  0  0  0  0  0  0
    0.8330   24.0170  -27.7910 O   0  0  0  0  0  0  0  0  0  0  0  0
   -2.5770   20.2720  -27.9140 C   0  0  0  0  0  0  0  0  0  0  0  0
   -3.0925   21.1320  -28.3665 H   0  0  0  0  0  0  0  0  0  0  0  0
   -3.1940   19.5700  -26.9090 C   0  0  0  0  0  0  0  0  0  0  0  0
   -4.1941   19.8591  -26.5538 H   0  0  0  0  0  0  0  0  0  0  0  0
  1  2  1  0
  2  3  2  0
  3  4  1  0
  4  5  1  0
  4  6  2  0
  6  7  1  0
  7  8  1  0
  7  9  1  0
  7 10  1  0
 10 11  2  0
 11 12  1  0
 12 13  1  0
 12 14  2  0
 14 15  1  0
 15 16  1  0
 16 17  1  0
 16 18  1  0
 16 19  1  0
 19 20  1  6
 19 21  1  0
 21 22  1  0
 21 23  1  0
 21 24  1  0
 24 25  1  1
 24 26  1  0
 26 27  2  0
 27 28  1  0
 28 29  1  0
 28 30  2  0
 30 31  1  0
 31 32  1  0
 32 33  1  0
 32 34  1  0
 32 35  1  0
 30 36  1  0
 36 37  1  0
 36 38  2  0
 38 39  1  0
 14 40  1  0
 40 41  1  0
 40 42  1  0
 42 43  1  0
 43 44  1  0
 43 45  1  0
 43 46  1  0
 42 47  1  0
 47 48  2  0
  6 49  1  0
 49 50  1  0
 49 51  2  0
 51 52  1  0
 51  2  1  0
 47 11  1  0
 24 19  1  0
 38 26  1  0
M  END
>  <UniqueID>  (37) 
36

>  <SMILES>  (37) 
COc1ccc([C@@H]2C[C@H]2COc2c/c(=N\Cc3cccnc3)c(=O)n(C)[nH]2)nc1

>  <Energy>  (37) 
439.5637561737326

>  <Genealogy>  (37) 
COc1ccc([C@@H]2C[C@H]2COc2cc(=NCc3cccnc3)c(=O)n(C)[nH]2)nc1 (chirality)
COc1ccc([C@@H]2C[C@H]2COc2c/c(=N\Cc3cccnc3)c(=O)n(C)[nH]2)nc1 (cis-trans isomerization)
COc1ccc([C@@H]2C[C@H]2COc2c/c(=N\Cc3cccnc3)c(=O)n(C)[nH]2)nc1 (3D coordinates assigned)
COc1ccc([C@@H]2C[C@H]2COc2c/c(=N\Cc3cccnc3)c(=O)n(C)[nH]2)nc1 (nonaromatic ring conformer: 439.5637561737326 kcal/mol)

>  <smiles>  (37) 
COc1ccc(C2CC2COc2cc(=NCc3cccnc3)c(=O)n(C)[nH]2)nc1

>  <score_type>  (37) 
oracle

>  <origin>  (37) 
adgpu

>  <m_score__min__energy>  (37) 
-8.9900000000000002

>  <m_primary>  (37) 
energy

$$$$
37:0
     RDKit          3D

 51 53  0  0  0  0  0  0  0  0999 V2000
   -1.7080   25.0470  -26.6430 C   0  0  0  0  0  0  0  0  0  0  0  0
   -1.3440   25.0030  -28.3840 S   0  0  0  0  0  0  0  0  0  0  0  0
   -0.0390   24.2930  -28.6070 O   0  0  0  0  0  0  0  0  0  0  0  0
   -1.2260   26.4070  -28.9080 O   0  0  0  0  0  0  0  0  0  0  0  0
   -2.6380   24.1590  -29.2280 C   0  0  0  0  0  0  0  0  0  0  0  0
   -3.7140   24.8750  -29.7680 C   0  0  0  0  0  0  0  0  0  0  0  0
   -4.7310   24.2050  -30.4560 C   0  0  0  0  0  0  0  0  0  0  0  0
   -4.6740   22.8130  -30.6260 C   0  0  0  0  0  0  0  0  0  0  0  0
   -5.7560   22.1130  -31.3520 C   0  0  0  0  0  0  0  0  0  0  0  0
   -7.1060   22.3030  -31.1290 C   0  0  0  0  0  0  0  0  0  0  0  0
   -7.7200   21.3610  -31.9310 C   0  0  0  0  0  0  0  0  0  0  0  0
   -9.1930   21.0900  -31.9990 C   0  0  0  0  0  0  0  0  0  0  0  0
   -9.4970   19.7540  -32.6910 C   0  0  0  0  0  0  0  0  0  0  0  0
   -8.7210   18.5730  -32.0900 C   0  0  0  0  0  0  0  0  0  0  0  0
   -7.7160   18.1340  -32.9640 O   0  0  0  0  0  0  0  0  0  0  0  0
   -6.7940   20.6450  -32.5980 N   0  0  0  0  0  0  0  0  0  0  0  0
   -5.6030   21.1100  -32.2530 N   0  0  0  0  0  0  0  0  0  0  0  0
   -4.3840   20.6190  -32.8340 C   0  0  0  0  0  0  0  0  0  0  0  0
   -4.1510   19.2390  -32.9600 C   0  0  0  0  0  0  0  0  0  0  0  0
   -2.9580   18.7740  -33.5240 C   0  0  0  0  0  0  0  0  0  0  0  0
   -1.9780   19.6800  -33.9470 C   0  0  0  0  0  0  0  0  0  0  0  0
   -0.4890   19.0900  -34.6780 S   0  0  0  0  0  0  0  0  0  0  0  0
   -0.7410   17.4350  -35.2750 C   0  0  0  0  0  0  0  0  0  0  0  0
    0.6150   19.0960  -33.6590 O   0  0  0  0  0  0  0  0  0  0  0  0
   -0.0940   19.9820  -35.8230 O   0  0  0  0  0  0  0  0  0  0  0  0
   -2.2010   21.0560  -33.8080 C   0  0  0  0  0  0  0  0  0  0  0  0
   -3.3930   21.5220  -33.2460 C   0  0  0  0  0  0  0  0  0  0  0  0
   -3.6010   22.0980  -30.0710 C   0  0  0  0  0  0  0  0  0  0  0  0
   -2.5850   22.7680  -29.3840 C   0  0  0  0  0  0  0  0  0  0  0  0
   -0.7755   24.9343  -26.0705 H   0  0  0  0  0  0  0  0  0  0  0  0
   -2.1790   26.0086  -26.3911 H   0  0  0  0  0  0  0  0  0  0  0  0
   -2.3945   24.2253  -26.3911 H   0  0  0  0  0  0  0  0  0  0  0  0
   -3.7594   25.9678  -29.6506 H   0  0  0  0  0  0  0  0  0  0  0  0
   -5.5798   24.7720  -30.8659 H   0  0  0  0  0  0  0  0  0  0  0  0
   -7.5835   23.0376  -30.4639 H   0  0  0  0  0  0  0  0  0  0  0  0
   -9.5970   21.0610  -30.9763 H   0  0  0  0  0  0  0  0  0  0  0  0
   -9.6610   21.8932  -32.5871 H   0  0  0  0  0  0  0  0  0  0  0  0
  -10.5737   19.5488  -32.5981 H   0  0  0  0  0  0  0  0  0  0  0  0
   -9.1848   19.8506  -33.7413 H   0  0  0  0  0  0  0  0  0  0  0  0
   -8.2604   18.8902  -31.1428 H   0  0  0  0  0  0  0  0  0  0  0  0
   -9.4230   17.7436  -31.9190 H   0  0  0  0  0  0  0  0  0  0  0  0
   -7.5580   18.8720  -33.6090 H   0  0  0  0  0  0  0  0  0  0  0  0
   -4.9095   18.5215  -32.6139 H   0  0  0  0  0  0  0  0  0  0  0  0
   -2.7894   17.6927  -33.6355 H   0  0  0  0  0  0  0  0  0  0  0  0
   -0.8454   16.7492  -34.4213 H   0  0  0  0  0  0  0  0  0  0  0  0
   -1.6547   17.4010  -35.8866 H   0  0  0  0  0  0  0  0  0  0  0  0
    0.1211   17.1306  -35.8866 H   0  0  0  0  0  0  0  0  0  0  0  0
   -1.4357   21.7720  -34.1422 H   0  0  0  0  0  0  0  0  0  0  0  0
   -3.5548   22.6034  -33.1261 H   0  0  0  0  0  0  0  0  0  0  0  0
   -3.5596   21.0039  -30.1775 H   0  0  0  0  0  0  0  0  0  0  0  0
   -1.7409   22.2011  -28.9644 H   0  0  0  0  0  0  0  0  0  0  0  0
  1  2  1  0
  2  3  2  0
  2  4  2  0
  2  5  1  0
  5  6  2  0
  6  7  1  0
  7  8  2  0
  8  9  1  0
  9 10  2  0
 10 11  1  0
 11 12  1  0
 12 13  1  0
 13 14  1  0
 14 15  1  0
 11 16  2  0
 16 17  1  0
 17 18  1  0
 18 19  2  0
 19 20  1  0
 20 21  2  0
 21 22  1  0
 22 23  1  0
 22 24  2  0
 22 25  2  0
 21 26  1  0
 26 27  2  0
  8 28  1  0
 28 29  2  0
 29  5  1  0
 17  9  1  0
 27 18  1  0
  1 30  1  0
  1 31  1  0
  1 32  1  0
  6 33  1  0
  7 34  1  0
 10 35  1  0
 12 36  1  0
 12 37  1  0
 13 38  1  0
 13 39  1  0
 14 40  1  0
 14 41  1  0
 15 42  1  0
 19 43  1  0
 20 44  1  0
 23 45  1  0
 23 46  1  0
 23 47  1  0
 26 48  1  0
 27 49  1  0
 28 50  1  0
 29 51  1  0
M  END
>  <UniqueID>  (38) 
37

>  <SMILES>  (38) 
CS(=O)(=O)c1ccc(-c2cc(CCCO)nn2-c2ccc(S(C)(=O)=O)cc2)cc1

>  <Energy>  (38) 
80.97389024320728

>  <Genealogy>  (38) 
CS(=O)(=O)c1ccc(-c2cc(CCCO)nn2-c2ccc(S(C)(=O)=O)cc2)cc1 (3D coordinates assigned)
CS(=O)(=O)c1ccc(-c2cc(CCCO)nn2-c2ccc(S(C)(=O)=O)cc2)cc1 (optimized conformer: 80.97389024320728 kcal/mol)

>  <smiles>  (38) 
CS(=O)(=O)c1ccc(-c2cc(CCCO)nn2-c2ccc(S(C)(=O)=O)cc2)cc1

>  <score_type>  (38) 
oracle

>  <origin>  (38) 
adgpu

>  <m_score__min__energy>  (38) 
-9.1899999999999995

>  <m_primary>  (38) 
energy

$$$$
38:0
     RDKit          3D

 64 66  0  0  0  0  0  0  0  0999 V2000
   -5.6340   16.1230  -33.3490 C   0  0  0  0  0  0  0  0  0  0  0  0
   -5.8370   17.0520  -32.2880 O   0  0  0  0  0  0  0  0  0  0  0  0
   -6.7980   18.0760  -32.2950 C   0  0  0  0  0  0  0  0  0  0  0  0
   -8.1770   17.7920  -32.3470 C   0  0  0  0  0  0  0  0  0  0  0  0
   -9.1150   18.8250  -32.3700 C   0  0  0  0  0  0  0  0  0  0  0  0
   -8.6980   20.1600  -32.3460 C   0  0  0  0  0  0  0  0  0  0  0  0
   -9.7190   21.2730  -32.3250 C   0  0  0  0  0  0  0  0  0  0  0  0
   -9.4560   22.2460  -31.2540 N   0  0  0  0  0  0  0  0  0  0  0  0
   -8.3240   23.1280  -31.5770 C   0  0  0  0  0  0  0  0  0  0  0  0
   -7.3140   23.1560  -30.4210 C   0  0  0  0  0  0  0  0  0  0  0  0
   -5.9220   23.7020  -30.8160 C   0  0  0  0  0  0  0  0  0  0  0  0
   -5.7780   25.1980  -30.4980 C   0  0  0  0  0  0  0  0  0  0  0  0
   -5.6730   23.4620  -32.3110 C   0  0  0  0  0  0  0  0  0  0  0  0
   -7.3280   20.4530  -32.2890 C   0  0  0  0  0  0  0  0  0  0  0  0
   -6.3700   19.4220  -32.2640 C   0  0  0  0  0  0  0  0  0  0  0  0
   -4.9270   19.7590  -32.1720 C   0  0  0  0  0  0  0  0  0  0  0  0
   -3.9760   19.1010  -32.9680 C   0  0  0  0  0  0  0  0  0  0  0  0
   -2.6300   19.4570  -32.8690 C   0  0  0  0  0  0  0  0  0  0  0  0
   -2.2380   20.4640  -31.9810 C   0  0  0  0  0  0  0  0  0  0  0  0
   -0.5550   20.9740  -31.8690 S   0  0  0  0  0  0  0  0  0  0  0  0
    0.3160   19.7500  -31.8200 O   0  0  0  0  0  0  0  0  0  0  0  0
   -0.1680   21.8040  -33.0610 O   0  0  0  0  0  0  0  0  0  0  0  0
   -0.3260   21.9050  -30.4240 N   0  0  0  0  0  0  0  0  0  0  0  0
   -0.8530   21.4900  -29.1520 C   0  0  0  0  0  0  0  0  0  0  0  0
   -0.8170   20.1310  -28.7880 C   0  0  0  0  0  0  0  0  0  0  0  0
   -1.3420   19.7090  -27.5650 C   0  0  0  0  0  0  0  0  0  0  0  0
   -1.9180   20.6320  -26.6960 C   0  0  0  0  0  0  0  0  0  0  0  0
   -1.9650   21.9840  -27.0420 C   0  0  0  0  0  0  0  0  0  0  0  0
   -1.4300   22.4280  -28.2630 C   0  0  0  0  0  0  0  0  0  0  0  0
   -1.4620   24.1580  -28.6350 S   0  0  0  0  0  0  0  0  0  0  0  0
   -2.7800   24.5310  -29.6920 N   0  0  0  0  0  0  0  0  0  0  0  0
   -1.6300   24.9480  -27.3680 O   0  0  0  0  0  0  0  0  0  0  0  0
   -0.1750   24.5460  -29.3060 O   0  0  0  0  0  0  0  0  0  0  0  0
   -3.2110   21.0940  -31.2010 C   0  0  0  0  0  0  0  0  0  0  0  0
   -4.5160   20.7330  -31.3140 N   0  0  0  0  0  0  0  0  0  0  0  0
   -5.4169   15.1294  -32.9299 H   0  0  0  0  0  0  0  0  0  0  0  0
   -6.5416   16.0694  -33.9681 H   0  0  0  0  0  0  0  0  0  0  0  0
   -4.7868   16.4529  -33.9681 H   0  0  0  0  0  0  0  0  0  0  0  0
   -8.5175   16.7463  -32.3697 H   0  0  0  0  0  0  0  0  0  0  0  0
  -10.1885   18.5881  -32.4072 H   0  0  0  0  0  0  0  0  0  0  0  0
   -9.6939   21.7955  -33.2927 H   0  0  0  0  0  0  0  0  0  0  0  0
  -10.7056   20.8236  -32.1391 H   0  0  0  0  0  0  0  0  0  0  0  0
   -9.2440   21.7320  -30.3660 H   0  0  0  0  0  0  0  0  0  0  0  0
   -7.8246   22.7577  -32.4845 H   0  0  0  0  0  0  0  0  0  0  0  0
   -8.7040   24.1472  -31.7408 H   0  0  0  0  0  0  0  0  0  0  0  0
   -7.7210   23.7921  -29.6212 H   0  0  0  0  0  0  0  0  0  0  0  0
   -7.1682   22.1140  -30.1000 H   0  0  0  0  0  0  0  0  0  0  0  0
   -5.1721   23.1613  -30.2200 H   0  0  0  0  0  0  0  0  0  0  0  0
   -5.7642   25.3414  -29.4075 H   0  0  0  0  0  0  0  0  0  0  0  0
   -4.8393   25.5759  -30.9294 H   0  0  0  0  0  0  0  0  0  0  0  0
   -6.6274   25.7480  -30.9294 H   0  0  0  0  0  0  0  0  0  0  0  0
   -4.8860   22.7035  -32.4345 H   0  0  0  0  0  0  0  0  0  0  0  0
   -6.6005   23.1086  -32.7851 H   0  0  0  0  0  0  0  0  0  0  0  0
   -5.3540   24.4019  -32.7851 H   0  0  0  0  0  0  0  0  0  0  0  0
   -6.9977   21.5019  -32.2635 H   0  0  0  0  0  0  0  0  0  0  0  0
   -4.2896   18.3100  -33.6652 H   0  0  0  0  0  0  0  0  0  0  0  0
   -1.8783   18.9461  -33.4887 H   0  0  0  0  0  0  0  0  0  0  0  0
    0.3090   22.7300  -30.4850 H   0  0  0  0  0  0  0  0  0  0  0  0
   -0.3713   19.3948  -29.4731 H   0  0  0  0  0  0  0  0  0  0  0  0
   -1.3005   18.6454  -27.2875 H   0  0  0  0  0  0  0  0  0  0  0  0
   -2.3365   20.2957  -25.7359 H   0  0  0  0  0  0  0  0  0  0  0  0
   -2.4248   22.7076  -26.3528 H   0  0  0  0  0  0  0  0  0  0  0  0
   -2.4560   25.2950  -30.3260 H   0  0  0  0  0  0  0  0  0  0  0  0
   -2.9198   21.8844  -30.4935 H   0  0  0  0  0  0  0  0  0  0  0  0
  1  2  1  0
  2  3  1  0
  3  4  2  0
  4  5  1  0
  5  6  2  0
  6  7  1  0
  7  8  1  0
  8  9  1  0
  9 10  1  0
 10 11  1  0
 11 12  1  0
 11 13  1  0
  6 14  1  0
 14 15  2  0
 15 16  1  0
 16 17  2  0
 17 18  1  0
 18 19  2  0
 19 20  1  0
 20 21  2  0
 20 22  2  0
 20 23  1  0
 23 24  1  0
 24 25  2  0
 25 26  1  0
 26 27  2  0
 27 28  1  0
 28 29  2  0
 29 30  1  0
 30 31  1  0
 30 32  2  0
 30 33  2  0
 19 34  1  0
 34 35  2  0
 15  3  1  0
 35 16  1  0
 29 24  1  0
  1 36  1  0
  1 37  1  0
  1 38  1  0
  4 39  1  0
  5 40  1  0
  7 41  1  0
  7 42  1  0
  8 43  1  0
  9 44  1  0
  9 45  1  0
 10 46  1  0
 10 47  1  0
 11 48  1  0
 12 49  1  0
 12 50  1  0
 12 51  1  0
 13 52  1  0
 13 53  1  0
 13 54  1  0
 14 55  1  0
 17 56  1  0
 18 57  1  0
 23 58  1  0
 25 59  1  0
 26 60  1  0
 27 61  1  0
 28 62  1  0
 31 63  1  0
 34 64  1  0
M  CHG  1  31  -1
M  END
>  <UniqueID>  (39) 
38

>  <SMILES>  (39) 
COc1ccc(CNCCC(C)C)cc1-c1ccc(S(=O)(=O)Nc2ccccc2S([NH-])(=O)=O)cn1

>  <Energy>  (39) 
68.19636113879582

>  <Genealogy>  (39) 
COc1ccc(CNCCC(C)C)cc1-c1ccc(S(=O)(=O)Nc2ccccc2S([NH-])(=O)=O)cn1 (protonated)
COc1ccc(CNCCC(C)C)cc1-c1ccc(S(=O)(=O)Nc2ccccc2S([NH-])(=O)=O)cn1 (3D coordinates assigned)
COc1ccc(CNCCC(C)C)cc1-c1ccc(S(=O)(=O)Nc2ccccc2S([NH-])(=O)=O)cn1 (optimized conformer: 68.19636113879582 kcal/mol)

>  <smiles>  (39) 
COc1ccc(CNCCC(C)C)cc1-c1ccc(S(=O)(=O)Nc2ccccc2S(N)(=O)=O)cn1

>  <score_type>  (39) 
oracle

>  <origin>  (39) 
adgpu

>  <m_score__min__energy>  (39) 
-12.48

>  <m_primary>  (39) 
energy

$$$$
39:0
     RDKit          3D

 38 41  0  0  0  0  0  0  0  0999 V2000
   -0.4700   24.9850  -28.4960 O   0  0  0  0  0  0  0  0  0  0  0  0
   -1.5100   24.4540  -28.9650 C   0  0  0  0  0  0  0  0  0  0  0  0
   -1.6270   22.9590  -29.0520 C   0  0  0  0  0  0  0  0  0  0  0  0
   -2.4690   22.5480  -30.2680 C   0  0  0  0  0  0  0  0  0  0  0  0
   -3.7510   23.3420  -30.3650 C   0  0  0  0  0  0  0  0  0  0  0  0
   -4.8970   22.7740  -30.9360 C   0  0  0  0  0  0  0  0  0  0  0  0
   -6.0810   23.5180  -31.0380 C   0  0  0  0  0  0  0  0  0  0  0  0
   -7.5640   22.7220  -31.5560 S   0  0  0  0  0  0  0  0  0  0  0  0
   -8.5580   23.7480  -32.0220 O   0  0  0  0  0  0  0  0  0  0  0  0
   -8.1600   21.9590  -30.4070 O   0  0  0  0  0  0  0  0  0  0  0  0
   -7.2120   21.6210  -32.8470 N   0  0  0  0  0  0  0  0  0  0  0  0
   -7.1920   20.2130  -32.6140 C   0  0  0  0  0  0  0  0  0  0  0  0
   -8.3390   19.5780  -32.1250 C   0  0  0  0  0  0  0  0  0  0  0  0
   -8.3690   18.1890  -31.9740 C   0  0  0  0  0  0  0  0  0  0  0  0
   -7.2540   17.4190  -32.3180 C   0  0  0  0  0  0  0  0  0  0  0  0
   -6.0950   18.0410  -32.8030 C   0  0  0  0  0  0  0  0  0  0  0  0
   -4.9720   17.2930  -33.1760 C   0  0  0  0  0  0  0  0  0  0  0  0
   -3.8350   17.9410  -33.6620 C   0  0  0  0  0  0  0  0  0  0  0  0
   -3.8290   19.3340  -33.7620 C   0  0  0  0  0  0  0  0  0  0  0  0
   -4.9250   20.0490  -33.3980 N   0  0  0  0  0  0  0  0  0  0  0  0
   -6.0550   19.4480  -32.9330 C   0  0  0  0  0  0  0  0  0  0  0  0
   -6.0960   24.8570  -30.6230 C   0  0  0  0  0  0  0  0  0  0  0  0
   -4.9440   25.4430  -30.0930 C   0  0  0  0  0  0  0  0  0  0  0  0
   -3.7750   24.6870  -29.9490 C   0  0  0  0  0  0  0  0  0  0  0  0
   -2.6170   25.2720  -29.3460 N   0  0  0  0  0  0  0  0  0  0  0  0
   -0.6213   22.5234  -29.1459 H   0  0  0  0  0  0  0  0  0  0  0  0
   -2.1204   22.5903  -28.1406 H   0  0  0  0  0  0  0  0  0  0  0  0
   -1.8786   22.7144  -31.1811 H   0  0  0  0  0  0  0  0  0  0  0  0
   -2.7351   21.4869  -30.1532 H   0  0  0  0  0  0  0  0  0  0  0  0
   -4.8679   21.7386  -31.3064 H   0  0  0  0  0  0  0  0  0  0  0  0
   -9.2227   20.1760  -31.8577 H   0  0  0  0  0  0  0  0  0  0  0  0
   -9.2733   17.6997  -31.5830 H   0  0  0  0  0  0  0  0  0  0  0  0
   -7.2861   16.3250  -32.2081 H   0  0  0  0  0  0  0  0  0  0  0  0
   -4.9855   16.1967  -33.0863 H   0  0  0  0  0  0  0  0  0  0  0  0
   -2.9514   17.3594  -33.9636 H   0  0  0  0  0  0  0  0  0  0  0  0
   -2.9345   19.8534  -34.1364 H   0  0  0  0  0  0  0  0  0  0  0  0
   -7.0187   25.4487  -30.7151 H   0  0  0  0  0  0  0  0  0  0  0  0
   -4.9557   26.4999  -29.7885 H   0  0  0  0  0  0  0  0  0  0  0  0
  1  2  2  0
  2  3  1  0
  3  4  1  0
  4  5  1  0
  5  6  2  0
  6  7  1  0
  7  8  1  0
  8  9  2  0
  8 10  2  0
  8 11  1  0
 11 12  1  0
 12 13  2  0
 13 14  1  0
 14 15  2  0
 15 16  1  0
 16 17  2  0
 17 18  1  0
 18 19  2  0
 19 20  1  0
 20 21  2  0
  7 22  2  0
 22 23  1  0
 23 24  2  0
 24 25  1  0
 25  2  1  0
 24  5  1  0
 21 12  1  0
 21 16  1  0
  3 26  1  0
  3 27  1  0
  4 28  1  0
  4 29  1  0
  6 30  1  0
 13 31  1  0
 14 32  1  0
 15 33  1  0
 17 34  1  0
 18 35  1  0
 19 36  1  0
 22 37  1  0
 23 38  1  0
M  CHG  2  11  -1  25  -1
M  END
>  <UniqueID>  (40) 
39

>  <SMILES>  (40) 
O=C1CCc2cc(S(=O)(=O)[N-]c3cccc4cccnc34)ccc2[N-]1

>  <Energy>  (40) 
52.73216297584749

>  <Genealogy>  (40) 
O=C1CCc2cc(S(=O)(=O)[N-]c3cccc4cccnc34)ccc2[N-]1 (protonated)
O=C1CCc2cc(S(=O)(=O)[N-]c3cccc4cccnc34)ccc2[N-]1 (3D coordinates assigned)
O=C1CCc2cc(S(=O)(=O)[N-]c3cccc4cccnc34)ccc2[N-]1 (nonaromatic ring conformer: 52.73216297584749 kcal/mol)

>  <smiles>  (40) 
O=C1CCc2cc(S(=O)(=O)Nc3cccc4cccnc34)ccc2N1

>  <score_type>  (40) 
oracle

>  <origin>  (40) 
adgpu

>  <m_score__min__energy>  (40) 
-11.289999999999999

>  <m_primary>  (40) 
energy

$$$$
40:0
     RDKit          3D

 56 58  0  0  1  0  0  0  0  0999 V2000
   -8.8730   19.2290  -31.5210 C   0  0  0  0  0  0  0  0  0  0  0  0
   -8.3090   18.9340  -32.7560 O   0  0  0  0  0  0  0  0  0  0  0  0
   -7.4130   17.9130  -32.7270 C   0  0  0  0  0  0  0  0  0  0  0  0
   -6.1100   18.0950  -33.4390 C   0  0  0  0  0  0  0  0  0  0  0  0
   -5.4820   19.2860  -33.3690 O   0  0  0  0  0  0  0  0  0  0  0  0
   -5.7100   20.4480  -32.7650 C   0  0  0  0  0  0  0  0  0  0  0  0
   -6.8100   21.2170  -32.8040 N   0  0  0  0  0  0  0  0  0  0  0  0
   -6.9380   22.3850  -32.1470 C   0  0  0  0  0  0  0  0  0  0  0  0
   -8.2190   23.1710  -32.2610 C   0  0  0  0  0  0  0  0  0  0  0  0
   -5.9640   22.8960  -31.3790 N   0  0  0  0  0  0  0  0  0  0  0  0
   -4.8120   22.1660  -31.2910 C   0  0  0  0  0  0  0  0  0  0  0  0
   -3.8850   22.6760  -30.5750 N   0  0  0  0  0  0  0  0  0  0  0  0
   -4.1270   24.1940  -29.7910 S   0  0  0  0  0  0  0  0  0  0  0  0
   -5.5150   24.1280  -29.1670 O   0  0  0  0  0  0  0  0  0  0  0  0
   -4.2360   25.3140  -30.8160 O   0  0  0  0  0  0  0  0  0  0  0  0
   -2.9080   24.5360  -28.6100 C   0  0  0  0  0  0  0  0  0  0  0  0
   -2.9670   24.0690  -27.3120 C   0  0  0  0  0  0  0  0  0  0  0  0
   -1.9730   24.3620  -26.3940 C   0  0  0  0  0  0  0  0  0  0  0  0
   -0.8990   25.1490  -26.8110 C   0  0  0  0  0  0  0  0  0  0  0  0
    0.1930   25.4860  -25.8470 C   0  0  0  0  0  0  0  0  0  0  0  0
   -0.8620   25.6090  -28.1270 C   0  0  0  0  0  0  0  0  0  0  0  0
   -1.8560   25.2930  -28.9790 N   0  0  0  0  0  0  0  0  0  0  0  0
   -4.6670   20.9700  -31.9570 C   0  0  0  0  0  0  0  0  0  0  0  0
   -3.5190   20.2240  -31.8830 O   0  0  0  0  0  0  0  0  0  0  0  0
   -2.3560   20.3640  -32.5860 C   0  0  0  0  0  0  0  0  0  0  0  0
   -2.2480   19.6000  -33.7600 C   0  0  0  0  0  0  0  0  0  0  0  0
   -1.1220   19.6550  -34.5550 C   0  0  0  0  0  0  0  0  0  0  0  0
   -0.0520   20.4580  -34.2380 C   0  0  0  0  0  0  0  0  0  0  0  0
   -0.1470   21.2100  -33.0900 C   0  0  0  0  0  0  0  0  0  0  0  0
   -1.2860   21.1540  -32.2880 C   0  0  0  0  0  0  0  0  0  0  0  0
   -1.3020   21.9290  -31.1670 O   0  0  0  0  0  0  0  0  0  0  0  0
   -0.9690   21.5240  -29.8570 C   0  0  0  0  0  0  0  0  0  0  0  0
   -8.2050   18.8796  -30.7200 H   0  0  0  0  0  0  0  0  0  0  0  0
   -9.0140   20.3163  -31.4326 H   0  0  0  0  0  0  0  0  0  0  0  0
   -9.8466   18.7246  -31.4326 H   0  0  0  0  0  0  0  0  0  0  0  0
   -7.1820   17.7118  -31.6705 H   0  0  0  0  0  0  0  0  0  0  0  0
   -7.9106   17.0984  -33.2736 H   0  0  0  0  0  0  0  0  0  0  0  0
   -5.4163   17.3420  -33.0368 H   0  0  0  0  0  0  0  0  0  0  0  0
   -6.3781   18.0032  -34.5019 H   0  0  0  0  0  0  0  0  0  0  0  0
   -7.6300   20.9090  -33.3480 H   0  0  0  0  0  0  0  0  0  0  0  0
   -8.5975   23.4032  -31.2546 H   0  0  0  0  0  0  0  0  0  0  0  0
   -8.0275   24.1072  -32.8058 H   0  0  0  0  0  0  0  0  0  0  0  0
   -8.9669   22.5762  -32.8058 H   0  0  0  0  0  0  0  0  0  0  0  0
   -3.8220   23.4510  -27.0007 H   0  0  0  0  0  0  0  0  0  0  0  0
   -2.0285   23.9841  -25.3624 H   0  0  0  0  0  0  0  0  0  0  0  0
   -0.1781   25.3715  -24.8179 H   0  0  0  0  0  0  0  0  0  0  0  0
    1.0451   24.8090  -26.0069 H   0  0  0  0  0  0  0  0  0  0  0  0
    0.5154   26.5254  -26.0069 H   0  0  0  0  0  0  0  0  0  0  0  0
   -0.0209   26.2299  -28.4691 H   0  0  0  0  0  0  0  0  0  0  0  0
   -3.0804   18.9429  -34.0520 H   0  0  0  0  0  0  0  0  0  0  0  0
   -1.0791   19.0404  -35.4663 H   0  0  0  0  0  0  0  0  0  0  0  0
    0.8432   20.4975  -34.8760 H   0  0  0  0  0  0  0  0  0  0  0  0
    0.6879   21.8651  -32.8006 H   0  0  0  0  0  0  0  0  0  0  0  0
   -1.4940   22.1625  -29.1312 H   0  0  0  0  0  0  0  0  0  0  0  0
   -1.2705   20.4765  -29.7093 H   0  0  0  0  0  0  0  0  0  0  0  0
    0.1170   21.6173  -29.7093 H   0  0  0  0  0  0  0  0  0  0  0  0
  1  2  1  0
  2  3  1  0
  3  4  1  0
  4  5  1  0
  5  6  1  0
  6  7  1  0
  7  8  1  0
  8  9  1  0
  8 10  2  0
 10 11  1  0
 11 12  2  0
 12 13  1  0
 13 14  2  0
 13 15  2  0
 13 16  1  0
 16 17  2  0
 17 18  1  0
 18 19  2  0
 19 20  1  0
 19 21  1  0
 21 22  2  0
 11 23  1  0
 23 24  1  0
 24 25  1  0
 25 26  2  0
 26 27  1  0
 27 28  2  0
 28 29  1  0
 29 30  2  0
 30 31  1  0
 31 32  1  0
 23  6  2  0
 30 25  1  0
 22 16  1  0
  1 33  1  0
  1 34  1  0
  1 35  1  0
  3 36  1  0
  3 37  1  0
  4 38  1  0
  4 39  1  0
  7 40  1  0
  9 41  1  0
  9 42  1  0
  9 43  1  0
 17 44  1  0
 18 45  1  0
 20 46  1  0
 20 47  1  0
 20 48  1  0
 21 49  1  0
 26 50  1  0
 27 51  1  0
 28 52  1  0
 29 53  1  0
 32 54  1  0
 32 55  1  0
 32 56  1  0
M  END
>  <smiles>  (41) 
COCCOc1[nH]c(C)nc(=NS(=O)(=O)c2ccc(C)cn2)c1Oc1ccccc1OC

>  <score_type>  (41) 
oracle

>  <origin>  (41) 
adgpu

>  <m_score__min__energy>  (41) 
-8.4499999999999993

>  <m_primary>  (41) 
energy

$$$$
41:0
     RDKit          3D

 62 64  0  0  0  0  0  0  0  0999 V2000
   -2.0040   23.0500  -30.1090 C   0  0  0  0  0  0  0  0  0  0  0  0
   -3.6450   23.2460  -30.7670 S   0  0  0  0  0  0  0  0  0  0  0  0
   -4.6150   22.5130  -29.8850 O   0  0  0  0  0  0  0  0  0  0  0  0
   -3.7070   22.6680  -32.1530 O   0  0  0  0  0  0  0  0  0  0  0  0
   -4.0670   24.9310  -30.7910 N   0  0  0  0  0  0  0  0  0  0  0  0
   -5.0750   25.2140  -29.7710 C   0  0  0  0  0  0  0  0  0  0  0  0
   -6.4750   25.1100  -30.3720 C   0  0  0  0  0  0  0  0  0  0  0  0
   -6.4580   24.2310  -31.5520 N   0  0  0  0  0  0  0  0  0  0  0  0
   -7.6820   23.4270  -31.6530 C   0  0  0  0  0  0  0  0  0  0  0  0
   -7.3160   21.9930  -31.9160 C   0  0  0  0  0  0  0  0  0  0  0  0
   -6.2050   21.6740  -32.7090 C   0  0  0  0  0  0  0  0  0  0  0  0
   -5.8920   20.3400  -32.9830 C   0  0  0  0  0  0  0  0  0  0  0  0
   -6.6940   19.3000  -32.4790 C   0  0  0  0  0  0  0  0  0  0  0  0
   -6.3620   17.8820  -32.7700 C   0  0  0  0  0  0  0  0  0  0  0  0
   -5.5870   17.1300  -31.8700 C   0  0  0  0  0  0  0  0  0  0  0  0
   -5.2810   15.7930  -32.1410 C   0  0  0  0  0  0  0  0  0  0  0  0
   -5.7410   15.1890  -33.3160 C   0  0  0  0  0  0  0  0  0  0  0  0
   -5.3830   13.4930  -33.6360 S   0  0  0  0  0  0  0  0  0  0  0  0
   -5.1830   12.7560  -32.3410 O   0  0  0  0  0  0  0  0  0  0  0  0
   -6.5440   12.8700  -34.3600 O   0  0  0  0  0  0  0  0  0  0  0  0
   -3.9610   13.3530  -34.6220 N   0  0  0  0  0  0  0  0  0  0  0  0
   -2.8790   14.1570  -34.0570 C   0  0  0  0  0  0  0  0  0  0  0  0
   -2.7520   15.5150  -34.7780 C   0  0  0  0  0  0  0  0  0  0  0  0
   -3.0410   16.7200  -33.9640 N   0  0  0  0  0  0  0  0  0  0  0  0
   -1.9540   17.2340  -33.1230 C   0  0  0  0  0  0  0  0  0  0  0  0
   -2.2510   18.7040  -32.9110 C   0  0  0  0  0  0  0  0  0  0  0  0
   -2.9640   19.1210  -34.1810 C   0  0  0  0  0  0  0  0  0  0  0  0
   -3.6260   17.8500  -34.6980 C   0  0  0  0  0  0  0  0  0  0  0  0
   -6.5130   15.9310  -34.2190 C   0  0  0  0  0  0  0  0  0  0  0  0
   -6.8230   17.2660  -33.9490 C   0  0  0  0  0  0  0  0  0  0  0  0
   -7.8170   19.6260  -31.6970 C   0  0  0  0  0  0  0  0  0  0  0  0
   -8.1280   20.9610  -31.4230 C   0  0  0  0  0  0  0  0  0  0  0  0
   -2.0467   23.0551  -29.0098 H   0  0  0  0  0  0  0  0  0  0  0  0
   -1.5818   22.0950  -30.4551 H   0  0  0  0  0  0  0  0  0  0  0  0
   -1.3688   23.8787  -30.4551 H   0  0  0  0  0  0  0  0  0  0  0  0
   -4.9764   24.4875  -28.9510 H   0  0  0  0  0  0  0  0  0  0  0  0
   -4.9228   26.2340  -29.3884 H   0  0  0  0  0  0  0  0  0  0  0  0
   -7.1631   24.6958  -29.6204 H   0  0  0  0  0  0  0  0  0  0  0  0
   -6.8101   26.1125  -30.6763 H   0  0  0  0  0  0  0  0  0  0  0  0
   -5.6520   23.5680  -31.4580 H   0  0  0  0  0  0  0  0  0  0  0  0
   -8.2450   23.4953  -30.7105 H   0  0  0  0  0  0  0  0  0  0  0  0
   -8.3035   23.8052  -32.4780 H   0  0  0  0  0  0  0  0  0  0  0  0
   -5.5760   22.4784  -33.1179 H   0  0  0  0  0  0  0  0  0  0  0  0
   -5.0115   20.1012  -33.5976 H   0  0  0  0  0  0  0  0  0  0  0  0
   -5.2183   17.5973  -30.9450 H   0  0  0  0  0  0  0  0  0  0  0  0
   -4.6763   15.2138  -31.4276 H   0  0  0  0  0  0  0  0  0  0  0  0
   -3.0845   14.3354  -32.9912 H   0  0  0  0  0  0  0  0  0  0  0  0
   -1.9351   13.6069  -34.1855 H   0  0  0  0  0  0  0  0  0  0  0  0
   -1.7206   15.6016  -35.1506 H   0  0  0  0  0  0  0  0  0  0  0  0
   -3.5196   15.5020  -35.5658 H   0  0  0  0  0  0  0  0  0  0  0  0
   -1.9337   16.7050  -32.1587 H   0  0  0  0  0  0  0  0  0  0  0  0
   -0.9725   17.0851  -33.5968 H   0  0  0  0  0  0  0  0  0  0  0  0
   -2.8982   18.8495  -32.0335 H   0  0  0  0  0  0  0  0  0  0  0  0
   -1.3436   19.2961  -32.7211 H   0  0  0  0  0  0  0  0  0  0  0  0
   -3.7201   19.8902  -33.9650 H   0  0  0  0  0  0  0  0  0  0  0  0
   -2.2734   19.5561  -34.9184 H   0  0  0  0  0  0  0  0  0  0  0  0
   -4.7108   17.8923  -34.5207 H   0  0  0  0  0  0  0  0  0  0  0  0
   -3.4601   17.7381  -35.7796 H   0  0  0  0  0  0  0  0  0  0  0  0
   -6.8766   15.4605  -35.1445 H   0  0  0  0  0  0  0  0  0  0  0  0
   -7.4318   17.8402  -34.6629 H   0  0  0  0  0  0  0  0  0  0  0  0
   -8.4555   18.8240  -31.2980 H   0  0  0  0  0  0  0  0  0  0  0  0
   -9.0139   21.2034  -30.8177 H   0  0  0  0  0  0  0  0  0  0  0  0
  1  2  1  0
  2  3  2  0
  2  4  2  0
  2  5  1  0
  5  6  1  0
  6  7  1  0
  7  8  1  0
  8  9  1  0
  9 10  1  0
 10 11  2  0
 11 12  1  0
 12 13  2  0
 13 14  1  0
 14 15  2  0
 15 16  1  0
 16 17  2  0
 17 18  1  0
 18 19  2  0
 18 20  2  0
 18 21  1  0
 21 22  1  0
 22 23  1  0
 23 24  1  0
 24 25  1  0
 25 26  1  0
 26 27  1  0
 27 28  1  0
 17 29  1  0
 29 30  2  0
 13 31  1  0
 31 32  2  0
 32 10  1  0
 30 14  1  0
 28 24  1  0
  1 33  1  0
  1 34  1  0
  1 35  1  0
  6 36  1  0
  6 37  1  0
  7 38  1  0
  7 39  1  0
  8 40  1  0
  9 41  1  0
  9 42  1  0
 11 43  1  0
 12 44  1  0
 15 45  1  0
 16 46  1  0
 22 47  1  0
 22 48  1  0
 23 49  1  0
 23 50  1  0
 25 51  1  0
 25 52  1  0
 26 53  1  0
 26 54  1  0
 27 55  1  0
 27 56  1  0
 28 57  1  0
 28 58  1  0
 29 59  1  0
 30 60  1  0
 31 61  1  0
 32 62  1  0
M  CHG  2   5  -1  21  -1
M  END
>  <UniqueID>  (42) 
40

>  <SMILES>  (42) 
CS(=O)(=O)[N-]CCNCc1ccc(-c2ccc(S(=O)(=O)[N-]CCN3CCCC3)cc2)cc1

>  <Energy>  (42) 
64.57308470087501

>  <Genealogy>  (42) 
CS(=O)(=O)[N-]CCNCc1ccc(-c2ccc(S(=O)(=O)[N-]CCN3CCCC3)cc2)cc1 (protonated)
CS(=O)(=O)[N-]CCNCc1ccc(-c2ccc(S(=O)(=O)[N-]CCN3CCCC3)cc2)cc1 (3D coordinates assigned)
CS(=O)(=O)[N-]CCNCc1ccc(-c2ccc(S(=O)(=O)[N-]CCN3CCCC3)cc2)cc1 (nonaromatic ring conformer: 64.57308470087501 kcal/mol)

>  <smiles>  (42) 
CS(=O)(=O)NCCNCc1ccc(-c2ccc(S(=O)(=O)NCCN3CCCC3)cc2)cc1

>  <score_type>  (42) 
oracle

>  <origin>  (42) 
adgpu

>  <m_score__min__energy>  (42) 
-10.390000000000001

>  <m_primary>  (42) 
energy

$$$$
42:0
     RDKit          3D

 44 46  0  0  0  0  0  0  0  0999 V2000
   -1.9700   22.6750  -29.8590 O   0  0  0  0  0  0  0  0  0  0  0  0
   -2.7000   22.6280  -30.8840 C   0  0  0  0  0  0  0  0  0  0  0  0
   -2.2250   21.9230  -32.0380 N   0  0  0  0  0  0  0  0  0  0  0  0
   -2.8310   20.7270  -32.6200 C   0  0  0  0  0  0  0  0  0  0  0  0
   -1.9150   20.0320  -33.6000 C   0  0  0  0  0  0  0  0  0  0  0  0
   -1.9010   18.6320  -33.7390 C   0  0  0  0  0  0  0  0  0  0  0  0
   -1.0000   18.0180  -34.6130 C   0  0  0  0  0  0  0  0  0  0  0  0
   -0.0760   18.7850  -35.3300 C   0  0  0  0  0  0  0  0  0  0  0  0
    0.8120   18.1460  -36.1940 O   0  0  0  0  0  0  0  0  0  0  0  0
   -0.0570   20.1790  -35.1670 C   0  0  0  0  0  0  0  0  0  0  0  0
    0.8660   20.9580  -35.8560 O   0  0  0  0  0  0  0  0  0  0  0  0
   -0.9750   20.7970  -34.3100 C   0  0  0  0  0  0  0  0  0  0  0  0
   -4.0260   23.2730  -30.8440 C   0  0  0  0  0  0  0  0  0  0  0  0
   -5.1520   22.5480  -31.2650 C   0  0  0  0  0  0  0  0  0  0  0  0
   -6.4360   23.0990  -31.1580 C   0  0  0  0  0  0  0  0  0  0  0  0
   -7.8520   22.1620  -31.6460 S   0  0  0  0  0  0  0  0  0  0  0  0
   -8.5190   21.6020  -30.4210 O   0  0  0  0  0  0  0  0  0  0  0  0
   -8.8340   23.0750  -32.3270 O   0  0  0  0  0  0  0  0  0  0  0  0
   -7.4370   20.8360  -32.7130 N   0  0  0  0  0  0  0  0  0  0  0  0
   -8.6240   20.0500  -33.0620 C   0  0  0  0  0  0  0  0  0  0  0  0
   -8.6650   18.8330  -32.1550 C   0  0  0  0  0  0  0  0  0  0  0  0
   -7.2590   18.6730  -31.6200 C   0  0  0  0  0  0  0  0  0  0  0  0
   -6.4930   19.9070  -32.0790 C   0  0  0  0  0  0  0  0  0  0  0  0
   -6.5910   24.3880  -30.6310 C   0  0  0  0  0  0  0  0  0  0  0  0
   -5.4740   25.1170  -30.2150 C   0  0  0  0  0  0  0  0  0  0  0  0
   -4.1950   24.5590  -30.3020 C   0  0  0  0  0  0  0  0  0  0  0  0
   -3.1050   25.2750  -29.8170 O   0  0  0  0  0  0  0  0  0  0  0  0
   -3.0768   20.0258  -31.8088 H   0  0  0  0  0  0  0  0  0  0  0  0
   -3.7305   21.0419  -33.1693 H   0  0  0  0  0  0  0  0  0  0  0  0
   -2.6031   18.0174  -33.1565 H   0  0  0  0  0  0  0  0  0  0  0  0
   -1.0176   16.9252  -34.7378 H   0  0  0  0  0  0  0  0  0  0  0  0
    1.5030   18.6580  -36.7280 H   0  0  0  0  0  0  0  0  0  0  0  0
   -0.9602   21.8905  -34.1916 H   0  0  0  0  0  0  0  0  0  0  0  0
   -5.0253   21.5383  -31.6826 H   0  0  0  0  0  0  0  0  0  0  0  0
   -9.5298   20.6563  -32.9141 H   0  0  0  0  0  0  0  0  0  0  0  0
   -8.5798   19.7392  -34.1163 H   0  0  0  0  0  0  0  0  0  0  0  0
   -9.3735   18.9940  -31.3291 H   0  0  0  0  0  0  0  0  0  0  0  0
   -8.9980   17.9349  -32.6958 H   0  0  0  0  0  0  0  0  0  0  0  0
   -7.2719   18.6177  -30.5215 H   0  0  0  0  0  0  0  0  0  0  0  0
   -6.7907   17.7479  -31.9873 H   0  0  0  0  0  0  0  0  0  0  0  0
   -6.0202   20.3930  -31.2128 H   0  0  0  0  0  0  0  0  0  0  0  0
   -5.7110   19.6182  -32.7967 H   0  0  0  0  0  0  0  0  0  0  0  0
   -7.5956   24.8276  -30.5445 H   0  0  0  0  0  0  0  0  0  0  0  0
   -5.6015   26.1346  -29.8172 H   0  0  0  0  0  0  0  0  0  0  0  0
  1  2  2  0
  2  3  1  0
  3  4  1  0
  4  5  1  0
  5  6  2  0
  6  7  1  0
  7  8  2  0
  8  9  1  0
  8 10  1  0
 10 11  1  0
 10 12  2  0
  2 13  1  0
 13 14  2  0
 14 15  1  0
 15 16  1  0
 16 17  2  0
 16 18  2  0
 16 19  1  0
 19 20  1  0
 20 21  1  0
 21 22  1  0
 22 23  1  0
 15 24  2  0
 24 25  1  0
 25 26  2  0
 26 27  1  0
 12  5  1  0
 26 13  1  0
 23 19  1  0
  4 28  1  0
  4 29  1  0
  6 30  1  0
  7 31  1  0
  9 32  1  0
 12 33  1  0
 14 34  1  0
 20 35  1  0
 20 36  1  0
 21 37  1  0
 21 38  1  0
 22 39  1  0
 22 40  1  0
 23 41  1  0
 23 42  1  0
 24 43  1  0
 25 44  1  0
M  CHG  3   3  -1  11  -1  27  -1
M  END
>  <UniqueID>  (43) 
41

>  <SMILES>  (43) 
O=C([N-]Cc1ccc(O)c([O-])c1)c1cc(S(=O)(=O)N2CCCC2)ccc1[O-]

>  <Energy>  (43) 
48.62398815163706

>  <Genealogy>  (43) 
O=C([N-]Cc1ccc(O)c([O-])c1)c1cc(S(=O)(=O)N2CCCC2)ccc1[O-] (protonated)
O=C([N-]Cc1ccc(O)c([O-])c1)c1cc(S(=O)(=O)N2CCCC2)ccc1[O-] (3D coordinates assigned)
O=C([N-]Cc1ccc(O)c([O-])c1)c1cc(S(=O)(=O)N2CCCC2)ccc1[O-] (nonaromatic ring conformer: 48.62398815163706 kcal/mol)

>  <smiles>  (43) 
O=C(NCc1ccc(O)c(O)c1)c1cc(S(=O)(=O)N2CCCC2)ccc1O

>  <score_type>  (43) 
oracle

>  <origin>  (43) 
adgpu

>  <m_score__min__energy>  (43) 
-12.779999999999999

>  <m_primary>  (43) 
energy

$$$$
43:0
     RDKit          3D

 71 75  0  0  0  0  0  0  0  0999 V2000
    0.6980   19.8110  -29.9200 C   0  0  0  0  0  0  0  0  0  0  0  0
    0.1360   20.0910  -28.5970 N   0  0  0  0  0  0  0  0  0  0  0  0
    0.1970   21.4380  -28.0240 C   0  0  0  0  0  0  0  0  0  0  0  0
   -1.0890   22.1930  -28.2730 C   0  0  0  0  0  0  0  0  0  0  0  0
   -0.9770   23.5430  -28.6610 C   0  0  0  0  0  0  0  0  0  0  0  0
   -2.1090   24.3290  -28.8660 C   0  0  0  0  0  0  0  0  0  0  0  0
   -1.9570   25.6570  -29.2550 O   0  0  0  0  0  0  0  0  0  0  0  0
   -3.3830   23.7980  -28.6640 C   0  0  0  0  0  0  0  0  0  0  0  0
   -4.5250   24.6440  -28.8460 N   0  0  0  0  0  0  0  0  0  0  0  0
   -5.4950   24.6640  -30.2810 S   0  0  0  0  0  0  0  0  0  0  0  0
   -6.9160   24.9940  -29.9120 O   0  0  0  0  0  0  0  0  0  0  0  0
   -4.9960   25.7140  -31.2370 O   0  0  0  0  0  0  0  0  0  0  0  0
   -5.4520   23.0650  -31.0160 C   0  0  0  0  0  0  0  0  0  0  0  0
   -4.3700   22.6680  -31.8120 C   0  0  0  0  0  0  0  0  0  0  0  0
   -4.3280   21.3790  -32.3530 C   0  0  0  0  0  0  0  0  0  0  0  0
   -5.3720   20.4680  -32.1050 C   0  0  0  0  0  0  0  0  0  0  0  0
   -5.3440   19.1080  -32.6970 C   0  0  0  0  0  0  0  0  0  0  0  0
   -6.3210   18.1560  -32.3580 C   0  0  0  0  0  0  0  0  0  0  0  0
   -6.2830   16.8760  -32.9170 C   0  0  0  0  0  0  0  0  0  0  0  0
   -5.2690   16.5280  -33.8110 C   0  0  0  0  0  0  0  0  0  0  0  0
   -4.2790   17.4610  -34.1540 C   0  0  0  0  0  0  0  0  0  0  0  0
   -3.1710   17.0960  -35.1060 C   0  0  0  0  0  0  0  0  0  0  0  0
   -1.8670   17.1770  -34.4120 N   0  0  0  0  0  0  0  0  0  0  0  0
   -0.9900   18.2790  -34.8610 C   0  0  0  0  0  0  0  0  0  0  0  0
   -1.5580   19.6770  -34.5510 C   0  0  0  0  0  0  0  0  0  0  0  0
   -1.1600   20.2210  -33.1700 C   0  0  0  0  0  0  0  0  0  0  0  0
   -1.4560   19.3030  -31.9700 C   0  0  0  0  0  0  0  0  0  0  0  0
   -0.9570   17.8570  -32.1380 C   0  0  0  0  0  0  0  0  0  0  0  0
   -1.9420   16.9890  -32.9490 C   0  0  0  0  0  0  0  0  0  0  0  0
   -4.3260   18.7480  -33.5980 C   0  0  0  0  0  0  0  0  0  0  0  0
   -6.4500   20.8700  -31.2980 C   0  0  0  0  0  0  0  0  0  0  0  0
   -6.4840   22.1570  -30.7550 C   0  0  0  0  0  0  0  0  0  0  0  0
   -3.5140   22.4580  -28.2790 C   0  0  0  0  0  0  0  0  0  0  0  0
   -2.3900   21.6340  -28.0720 C   0  0  0  0  0  0  0  0  0  0  0  0
   -2.7120   20.1660  -27.7900 C   0  0  0  0  0  0  0  0  0  0  0  0
   -1.6960   19.3370  -27.0010 C   0  0  0  0  0  0  0  0  0  0  0  0
   -0.4970   19.0400  -27.8490 C   0  0  0  0  0  0  0  0  0  0  0  0
   -0.0700   17.8520  -27.9350 O   0  0  0  0  0  0  0  0  0  0  0  0
    1.6773   19.3231  -29.8066 H   0  0  0  0  0  0  0  0  0  0  0  0
    0.0189   19.1459  -30.4736 H   0  0  0  0  0  0  0  0  0  0  0  0
    0.8199   20.7537  -30.4736 H   0  0  0  0  0  0  0  0  0  0  0  0
    0.3639   21.3601  -26.9395 H   0  0  0  0  0  0  0  0  0  0  0  0
    1.0223   21.9850  -28.5033 H   0  0  0  0  0  0  0  0  0  0  0  0
    0.0207   23.9836  -28.8044 H   0  0  0  0  0  0  0  0  0  0  0  0
   -3.5498   23.3731  -32.0125 H   0  0  0  0  0  0  0  0  0  0  0  0
   -3.4739   21.0752  -32.9761 H   0  0  0  0  0  0  0  0  0  0  0  0
   -7.1195   18.4200  -31.6490 H   0  0  0  0  0  0  0  0  0  0  0  0
   -7.0555   16.1393  -32.6514 H   0  0  0  0  0  0  0  0  0  0  0  0
   -5.2461   15.5188  -34.2480 H   0  0  0  0  0  0  0  0  0  0  0  0
   -3.3269   16.0704  -35.4718 H   0  0  0  0  0  0  0  0  0  0  0  0
   -3.1752   17.7966  -35.9540 H   0  0  0  0  0  0  0  0  0  0  0  0
   -0.0174   18.1781  -34.3572 H   0  0  0  0  0  0  0  0  0  0  0  0
   -0.9017   18.1992  -35.9545 H   0  0  0  0  0  0  0  0  0  0  0  0
   -1.1922   20.3767  -35.3170 H   0  0  0  0  0  0  0  0  0  0  0  0
   -2.6540   19.5828  -34.5523 H   0  0  0  0  0  0  0  0  0  0  0  0
   -0.0776   20.4164  -33.1848 H   0  0  0  0  0  0  0  0  0  0  0  0
   -1.7783   21.1177  -33.0160 H   0  0  0  0  0  0  0  0  0  0  0  0
   -0.9723   19.7328  -31.0804 H   0  0  0  0  0  0  0  0  0  0  0  0
   -2.5509   19.2488  -31.8785 H   0  0  0  0  0  0  0  0  0  0  0  0
    0.0112   17.8751  -32.6598 H   0  0  0  0  0  0  0  0  0  0  0  0
   -0.8643   17.4140  -31.1354 H   0  0  0  0  0  0  0  0  0  0  0  0
   -1.7306   15.9324  -32.7277 H   0  0  0  0  0  0  0  0  0  0  0  0
   -2.9529   17.2996  -32.6464 H   0  0  0  0  0  0  0  0  0  0  0  0
   -3.5565   19.4853  -33.8703 H   0  0  0  0  0  0  0  0  0  0  0  0
   -7.2714   20.1677  -31.0927 H   0  0  0  0  0  0  0  0  0  0  0  0
   -7.3283   22.4585  -30.1176 H   0  0  0  0  0  0  0  0  0  0  0  0
   -4.5203   22.0379  -28.1345 H   0  0  0  0  0  0  0  0  0  0  0  0
   -3.6574   20.1425  -27.2282 H   0  0  0  0  0  0  0  0  0  0  0  0
   -2.7297   19.6969  -28.7848 H   0  0  0  0  0  0  0  0  0  0  0  0
   -1.3803   19.9010  -26.1109 H   0  0  0  0  0  0  0  0  0  0  0  0
   -2.1648   18.3887  -26.6993 H   0  0  0  0  0  0  0  0  0  0  0  0
  1  2  1  0
  2  3  1  0
  3  4  1  0
  4  5  2  0
  5  6  1  0
  6  7  1  0
  6  8  2  0
  8  9  1  0
  9 10  1  0
 10 11  2  0
 10 12  2  0
 10 13  1  0
 13 14  2  0
 14 15  1  0
 15 16  2  0
 16 17  1  0
 17 18  2  0
 18 19  1  0
 19 20  2  0
 20 21  1  0
 21 22  1  0
 22 23  1  0
 23 24  1  0
 24 25  1  0
 25 26  1  0
 26 27  1  0
 27 28  1  0
 28 29  1  0
 21 30  2  0
 16 31  1  0
 31 32  2  0
  8 33  1  0
 33 34  2  0
 34 35  1  0
 35 36  1  0
 36 37  1  0
 37 38  2  0
 37  2  1  0
 34  4  1  0
 32 13  1  0
 30 17  1  0
 29 23  1  0
  1 39  1  0
  1 40  1  0
  1 41  1  0
  3 42  1  0
  3 43  1  0
  5 44  1  0
 14 45  1  0
 15 46  1  0
 18 47  1  0
 19 48  1  0
 20 49  1  0
 22 50  1  0
 22 51  1  0
 24 52  1  0
 24 53  1  0
 25 54  1  0
 25 55  1  0
 26 56  1  0
 26 57  1  0
 27 58  1  0
 27 59  1  0
 28 60  1  0
 28 61  1  0
 29 62  1  0
 29 63  1  0
 30 64  1  0
 31 65  1  0
 32 66  1  0
 33 67  1  0
 35 68  1  0
 35 69  1  0
 36 70  1  0
 36 71  1  0
M  CHG  2   7  -1   9  -1
M  END
>  <UniqueID>  (44) 
42

>  <SMILES>  (44) 
CN1Cc2cc([O-])c([N-]S(=O)(=O)c3ccc(-c4cccc(CN5CCCCCC5)c4)cc3)cc2CCC1=O

>  <Energy>  (44) 
101.59973232295037

>  <Genealogy>  (44) 
CN1Cc2cc([O-])c([N-]S(=O)(=O)c3ccc(-c4cccc(CN5CCCCCC5)c4)cc3)cc2CCC1=O (protonated)
CN1Cc2cc([O-])c([N-]S(=O)(=O)c3ccc(-c4cccc(CN5CCCCCC5)c4)cc3)cc2CCC1=O (3D coordinates assigned)
CN1Cc2cc([O-])c([N-]S(=O)(=O)c3ccc(-c4cccc(CN5CCCCCC5)c4)cc3)cc2CCC1=O (nonaromatic ring conformer: 101.59973232295037 kcal/mol)

>  <smiles>  (44) 
CN1Cc2cc(O)c(NS(=O)(=O)c3ccc(-c4cccc(CN5CCCCCC5)c4)cc3)cc2CCC1=O

>  <score_type>  (44) 
oracle

>  <origin>  (44) 
adgpu

>  <m_score__min__energy>  (44) 
-11.92

>  <m_primary>  (44) 
energy

$$$$
44:0
     RDKit          3D

 63 66  0  0  0  0  0  0  0  0999 V2000
   -0.2780   21.9320  -26.7150 C   0  0  0  0  0  0  0  0  0  0  0  0
   -1.1210   22.7350  -27.6670 C   0  0  0  0  0  0  0  0  0  0  0  0
   -2.1050   22.0680  -28.4130 C   0  0  0  0  0  0  0  0  0  0  0  0
   -2.9010   22.7610  -29.3240 C   0  0  0  0  0  0  0  0  0  0  0  0
   -2.7140   24.1350  -29.5300 C   0  0  0  0  0  0  0  0  0  0  0  0
   -3.5450   24.8840  -30.4330 N   0  0  0  0  0  0  0  0  0  0  0  0
   -4.8840   24.5600  -30.8200 C   0  0  0  0  0  0  0  0  0  0  0  0
   -5.5230   25.3670  -31.5410 O   0  0  0  0  0  0  0  0  0  0  0  0
   -5.4810   23.3150  -30.4240 N   0  0  0  0  0  0  0  0  0  0  0  0
   -5.8540   22.2630  -31.3260 C   0  0  0  0  0  0  0  0  0  0  0  0
   -7.1490   21.7390  -31.2350 C   0  0  0  0  0  0  0  0  0  0  0  0
   -7.5860   20.7370  -32.1140 C   0  0  0  0  0  0  0  0  0  0  0  0
   -9.0060   20.2310  -32.0480 C   0  0  0  0  0  0  0  0  0  0  0  0
   -9.8720   21.2510  -31.6920 F   0  0  0  0  0  0  0  0  0  0  0  0
   -9.1250   19.2200  -31.1130 F   0  0  0  0  0  0  0  0  0  0  0  0
   -9.3730   19.7450  -33.2900 F   0  0  0  0  0  0  0  0  0  0  0  0
   -6.7110   20.2850  -33.1170 C   0  0  0  0  0  0  0  0  0  0  0  0
   -5.3990   20.7650  -33.1840 C   0  0  0  0  0  0  0  0  0  0  0  0
   -4.9530   21.7410  -32.2740 C   0  0  0  0  0  0  0  0  0  0  0  0
   -3.6110   22.1470  -32.2460 O   0  0  0  0  0  0  0  0  0  0  0  0
   -2.5130   21.3010  -32.4290 C   0  0  0  0  0  0  0  0  0  0  0  0
   -2.3140   20.1770  -31.6120 C   0  0  0  0  0  0  0  0  0  0  0  0
   -1.2300   19.3240  -31.8450 C   0  0  0  0  0  0  0  0  0  0  0  0
   -0.3380   19.5870  -32.8920 C   0  0  0  0  0  0  0  0  0  0  0  0
   -0.5240   20.7140  -33.7120 C   0  0  0  0  0  0  0  0  0  0  0  0
    0.4600   21.0440  -34.7680 C   0  0  0  0  0  0  0  0  0  0  0  0
    0.6500   22.2540  -35.0770 O   0  0  0  0  0  0  0  0  0  0  0  0
    1.2140   20.0180  -35.4330 N   0  0  0  0  0  0  0  0  0  0  0  0
    0.5070   18.8760  -36.0280 C   0  0  0  0  0  0  0  0  0  0  0  0
    2.6490   20.2160  -35.6550 C   0  0  0  0  0  0  0  0  0  0  0  0
   -1.6220   21.5610  -33.4770 C   0  0  0  0  0  0  0  0  0  0  0  0
   -1.7450   24.8180  -28.7800 C   0  0  0  0  0  0  0  0  0  0  0  0
   -1.6140   26.1930  -28.9570 O   0  0  0  0  0  0  0  0  0  0  0  0
   -0.9250   24.1280  -27.8570 C   0  0  0  0  0  0  0  0  0  0  0  0
    0.2830   25.0240  -26.8990 S   0  0  0  0  0  0  0  0  0  0  0  0
    0.7940   24.1460  -25.7960 O   0  0  0  0  0  0  0  0  0  0  0  0
    1.4640   25.4060  -27.7480 O   0  0  0  0  0  0  0  0  0  0  0  0
   -0.4490   26.4960  -26.1740 C   0  0  0  0  0  0  0  0  0  0  0  0
   -1.8600   26.3220  -25.6290 C   0  0  0  0  0  0  0  0  0  0  0  0
   -0.6830   26.4350  -24.6720 C   0  0  0  0  0  0  0  0  0  0  0  0
   -0.5478   22.1890  -25.6800 H   0  0  0  0  0  0  0  0  0  0  0  0
   -0.4543   20.8595  -26.8843 H   0  0  0  0  0  0  0  0  0  0  0  0
    0.7847   22.1601  -26.8843 H   0  0  0  0  0  0  0  0  0  0  0  0
   -2.2499   20.9860  -28.2774 H   0  0  0  0  0  0  0  0  0  0  0  0
   -3.6813   22.2259  -29.8851 H   0  0  0  0  0  0  0  0  0  0  0  0
   -7.8341   22.1187  -30.4627 H   0  0  0  0  0  0  0  0  0  0  0  0
   -7.0608   19.5481  -33.8549 H   0  0  0  0  0  0  0  0  0  0  0  0
   -4.7128   20.3777  -33.9516 H   0  0  0  0  0  0  0  0  0  0  0  0
   -3.0112   19.9667  -30.7876 H   0  0  0  0  0  0  0  0  0  0  0  0
   -1.0777   18.4435  -31.2035 H   0  0  0  0  0  0  0  0  0  0  0  0
    0.5101   18.9104  -33.0733 H   0  0  0  0  0  0  0  0  0  0  0  0
    0.1094   18.2338  -35.2283 H   0  0  0  0  0  0  0  0  0  0  0  0
   -0.3226   19.2423  -36.6506 H   0  0  0  0  0  0  0  0  0  0  0  0
    1.2047   18.2968  -36.6506 H   0  0  0  0  0  0  0  0  0  0  0  0
    3.1637   20.2870  -34.6854 H   0  0  0  0  0  0  0  0  0  0  0  0
    3.0530   19.3651  -36.2231 H   0  0  0  0  0  0  0  0  0  0  0  0
    2.8075   21.1445  -36.2231 H   0  0  0  0  0  0  0  0  0  0  0  0
   -1.7822   22.4366  -34.1232 H   0  0  0  0  0  0  0  0  0  0  0  0
    0.0405   27.2041  -26.8588 H   0  0  0  0  0  0  0  0  0  0  0  0
   -2.5856   27.1450  -25.7081 H   0  0  0  0  0  0  0  0  0  0  0  0
   -2.6695   25.5935  -25.7840 H   0  0  0  0  0  0  0  0  0  0  0  0
   -0.5578   27.3396  -24.0588 H   0  0  0  0  0  0  0  0  0  0  0  0
   -0.2892   25.8217  -23.8481 H   0  0  0  0  0  0  0  0  0  0  0  0
  1  2  1  0
  2  3  2  0
  3  4  1  0
  4  5  2  0
  5  6  1  0
  6  7  1  0
  7  8  2  0
  7  9  1  0
  9 10  1  0
 10 11  2  0
 11 12  1  0
 12 13  1  0
 13 14  1  0
 13 15  1  0
 13 16  1  0
 12 17  2  0
 17 18  1  0
 18 19  2  0
 19 20  1  0
 20 21  1  0
 21 22  2  0
 22 23  1  0
 23 24  2  0
 24 25  1  0
 25 26  1  0
 26 27  2  0
 26 28  1  0
 28 29  1  0
 28 30  1  0
 25 31  2  0
  5 32  1  0
 32 33  1  0
 32 34  2  0
 34 35  1  0
 35 36  2  0
 35 37  2  0
 35 38  1  0
 38 39  1  0
 39 40  1  0
 34  2  1  0
 40 38  1  0
 19 10  1  0
 31 21  1  0
  1 41  1  0
  1 42  1  0
  1 43  1  0
  3 44  1  0
  4 45  1  0
 11 46  1  0
 17 47  1  0
 18 48  1  0
 22 49  1  0
 23 50  1  0
 24 51  1  0
 29 52  1  0
 29 53  1  0
 29 54  1  0
 30 55  1  0
 30 56  1  0
 30 57  1  0
 31 58  1  0
 38 59  1  0
 39 60  1  0
 39 61  1  0
 40 62  1  0
 40 63  1  0
M  CHG  3   6  -1   9  -1  33  -1
M  END
>  <UniqueID>  (45) 
43

>  <SMILES>  (45) 
Cc1ccc([N-]C(=O)[N-]c2cc(C(F)(F)F)ccc2Oc2cccc(C(=O)N(C)C)c2)c([O-])c1S(=O)(=O)C1CC1

>  <Energy>  (45) 
353.52681940663024

>  <Genealogy>  (45) 
Cc1ccc([N-]C(=O)[N-]c2cc(C(F)(F)F)ccc2Oc2cccc(C(=O)N(C)C)c2)c([O-])c1S(=O)(=O)C1CC1 (protonated)
Cc1ccc([N-]C(=O)[N-]c2cc(C(F)(F)F)ccc2Oc2cccc(C(=O)N(C)C)c2)c([O-])c1S(=O)(=O)C1CC1 (3D coordinates assigned)
Cc1ccc([N-]C(=O)[N-]c2cc(C(F)(F)F)ccc2Oc2cccc(C(=O)N(C)C)c2)c([O-])c1S(=O)(=O)C1CC1 (nonaromatic ring conformer: 353.52681940663024 kcal/mol)

>  <smiles>  (45) 
Cc1ccc(NC(=O)Nc2cc(C(F)(F)F)ccc2Oc2cccc(C(=O)N(C)C)c2)c(O)c1S(=O)(=O)C1CC1

>  <score_type>  (45) 
oracle

>  <origin>  (45) 
adgpu

>  <m_score__min__energy>  (45) 
-15.99

>  <m_primary>  (45) 
energy

$$$$
45:0
     RDKit          3D

 31 33  0  0  0  0  0  0  0  0999 V2000
   -1.6510   20.5000  -34.7830 H   0  0  0  0  0  0  0  0  0  0  0  0
   -2.1640   20.8720  -33.9530 N   0  0  0  0  0  0  0  0  0  0  0  0
   -3.2500   20.3120  -33.5200 C   0  0  0  0  0  0  0  0  0  0  0  0
   -3.7440   19.2140  -34.1540 N   0  0  0  0  0  0  0  0  0  0  0  0
   -4.8800   18.6030  -33.7280 C   0  0  0  0  0  0  0  0  0  0  0  0
   -5.3770   17.4760  -34.3900 C   0  0  0  0  0  0  0  0  0  0  0  0
   -4.8480   17.0737  -35.2665 H   0  0  0  0  0  0  0  0  0  0  0  0
   -6.5490   16.8610  -33.9350 C   0  0  0  0  0  0  0  0  0  0  0  0
   -6.9403   15.9742  -34.4550 H   0  0  0  0  0  0  0  0  0  0  0  0
   -7.2250   17.3710  -32.8200 C   0  0  0  0  0  0  0  0  0  0  0  0
   -8.1461   16.8844  -32.4666 H   0  0  0  0  0  0  0  0  0  0  0  0
   -6.7310   18.4990  -32.1540 C   0  0  0  0  0  0  0  0  0  0  0  0
   -7.2620   18.8982  -31.2772 H   0  0  0  0  0  0  0  0  0  0  0  0
   -5.5610   19.1170  -32.6060 C   0  0  0  0  0  0  0  0  0  0  0  0
   -5.0670   20.2130  -31.9730 N   0  0  0  0  0  0  0  0  0  0  0  0
   -3.9260   20.8280  -32.3990 C   0  0  0  0  0  0  0  0  0  0  0  0
   -3.4690   21.8780  -31.7800 N   0  0  0  0  0  0  0  0  0  0  0  0
   -4.1030   22.4810  -30.6120 C   0  0  0  0  0  0  0  0  0  0  0  0
   -4.7960   23.2710  -30.9371 H   0  0  0  0  0  0  0  0  0  0  0  0
   -4.6606   21.7118  -30.0576 H   0  0  0  0  0  0  0  0  0  0  0  0
   -3.0460   23.0750  -29.7230 C   0  0  0  0  0  0  0  0  0  0  0  0
   -2.2770   22.2390  -28.8950 C   0  0  0  0  0  0  0  0  0  0  0  0
   -2.4679   21.1558  -28.8823 H   0  0  0  0  0  0  0  0  0  0  0  0
   -1.2700   22.7780  -28.0870 C   0  0  0  0  0  0  0  0  0  0  0  0
   -0.6771   22.1194  -27.4353 H   0  0  0  0  0  0  0  0  0  0  0  0
   -1.0170   24.1500  -28.1070 C   0  0  0  0  0  0  0  0  0  0  0  0
   -0.2281   24.5716  -27.4668 H   0  0  0  0  0  0  0  0  0  0  0  0
   -1.7630   24.9900  -28.9380 C   0  0  0  0  0  0  0  0  0  0  0  0
   -1.4990   26.3550  -28.9580 O   0  0  0  0  0  0  0  0  0  0  0  0
   -2.7730   24.4570  -29.7510 C   0  0  0  0  0  0  0  0  0  0  0  0
   -3.5000   25.3030  -30.5840 O   0  0  0  0  0  0  0  0  0  0  0  0
  1  2  1  0
  2  3  2  0
  3  4  1  0
  4  5  1  0
  5  6  2  0
  6  7  1  0
  6  8  1  0
  8  9  1  0
  8 10  2  0
 10 11  1  0
 10 12  1  0
 12 13  1  0
 12 14  2  0
 14 15  1  0
 15 16  1  0
 16 17  2  0
 17 18  1  0
 18 19  1  0
 18 20  1  0
 18 21  1  0
 21 22  2  0
 22 23  1  0
 22 24  1  0
 24 25  1  0
 24 26  2  0
 26 27  1  0
 26 28  1  0
 28 29  1  0
 28 30  2  0
 30 31  1  0
 16  3  1  0
 30 21  1  0
 14  5  1  0
M  CHG  4   4  -1  15  -1  29  -1  31  -1
M  END
>  <UniqueID>  (46) 
44

>  <SMILES>  (46) 
[H]/N=c1\[n-]c2ccccc2[n-]\c1=N/Cc1cccc([O-])c1[O-]

>  <Energy>  (46) 
38.05596769344478

>  <Genealogy>  (46) 
N=c1[n-]c2ccccc2[n-]c1=NCc1cccc([O-])c1[O-] (protonated)
[H]/N=c1\[n-]c2ccccc2[n-]\c1=N/Cc1cccc([O-])c1[O-] (cis-trans isomerization)
[H]/N=c1\[n-]c2ccccc2[n-]\c1=N/Cc1cccc([O-])c1[O-] (3D coordinates assigned)
[H]/N=c1\[n-]c2ccccc2[n-]\c1=N/Cc1cccc([O-])c1[O-] (optimized conformer: 38.05596769344478 kcal/mol)

>  <smiles>  (46) 
N=c1[nH]c2ccccc2[nH]c1=NCc1cccc(O)c1O

>  <score_type>  (46) 
oracle

>  <origin>  (46) 
adgpu

>  <m_score__min__energy>  (46) 
-14.08

>  <m_primary>  (46) 
energy

$$$$
46:0
     RDKit          3D

 46 48  0  0  0  0  0  0  0  0999 V2000
   -4.6850   19.0320  -33.8390 C   0  0  0  0  0  0  0  0  0  0  0  0
   -5.8800   19.6340  -33.1710 C   0  0  0  0  0  0  0  0  0  0  0  0
   -6.8480   18.8160  -32.5780 C   0  0  0  0  0  0  0  0  0  0  0  0
   -7.9730   19.3920  -31.9750 C   0  0  0  0  0  0  0  0  0  0  0  0
   -9.0040   18.5080  -31.3240 C   0  0  0  0  0  0  0  0  0  0  0  0
   -8.1160   20.7960  -31.9830 C   0  0  0  0  0  0  0  0  0  0  0  0
   -9.2510   21.4260  -31.3430 C   0  0  0  0  0  0  0  0  0  0  0  0
  -10.1590   21.9260  -30.8290 N   0  0  0  0  0  0  0  0  0  0  0  0
   -7.1330   21.5800  -32.6180 C   0  0  0  0  0  0  0  0  0  0  0  0
   -7.2580   23.3740  -32.6990 S   0  0  0  0  0  0  0  0  0  0  0  0
   -6.4310   23.6600  -31.0960 C   0  0  0  0  0  0  0  0  0  0  0  0
   -4.9530   23.4610  -31.2190 C   0  0  0  0  0  0  0  0  0  0  0  0
   -4.1820   24.4500  -31.0900 O   0  0  0  0  0  0  0  0  0  0  0  0
   -4.4210   22.1450  -31.4270 N   0  0  0  0  0  0  0  0  0  0  0  0
   -3.0210   21.8910  -31.6250 C   0  0  0  0  0  0  0  0  0  0  0  0
   -2.6130   21.2840  -32.8230 C   0  0  0  0  0  0  0  0  0  0  0  0
   -1.2700   20.9710  -33.0370 C   0  0  0  0  0  0  0  0  0  0  0  0
   -0.3180   21.2730  -32.0630 C   0  0  0  0  0  0  0  0  0  0  0  0
   -0.7020   21.9080  -30.8810 C   0  0  0  0  0  0  0  0  0  0  0  0
   -2.0500   22.2400  -30.6510 C   0  0  0  0  0  0  0  0  0  0  0  0
   -2.4020   22.9990  -29.4280 C   0  0  0  0  0  0  0  0  0  0  0  0
   -3.4640   22.5790  -28.6060 C   0  0  0  0  0  0  0  0  0  0  0  0
   -3.7900   23.2970  -27.4510 C   0  0  0  0  0  0  0  0  0  0  0  0
   -3.0660   24.4420  -27.1110 C   0  0  0  0  0  0  0  0  0  0  0  0
   -2.0170   24.8740  -27.9260 C   0  0  0  0  0  0  0  0  0  0  0  0
   -1.6870   24.1610  -29.0820 C   0  0  0  0  0  0  0  0  0  0  0  0
   -6.0520   20.9820  -33.1840 N   0  0  0  0  0  0  0  0  0  0  0  0
   -3.9783   18.6760  -33.0749 H   0  0  0  0  0  0  0  0  0  0  0  0
   -5.0029   18.1865  -34.4667 H   0  0  0  0  0  0  0  0  0  0  0  0
   -4.1948   19.7907  -34.4667 H   0  0  0  0  0  0  0  0  0  0  0  0
   -6.7256   17.7229  -32.5855 H   0  0  0  0  0  0  0  0  0  0  0  0
   -8.9147   18.5846  -30.2303 H   0  0  0  0  0  0  0  0  0  0  0  0
  -10.0098   18.8287  -31.6331 H   0  0  0  0  0  0  0  0  0  0  0  0
   -8.8406   17.4651  -31.6331 H   0  0  0  0  0  0  0  0  0  0  0  0
   -6.6302   24.6902  -30.7659 H   0  0  0  0  0  0  0  0  0  0  0  0
   -6.8243   22.9408  -30.3625 H   0  0  0  0  0  0  0  0  0  0  0  0
   -5.0500   21.3280  -31.2580 H   0  0  0  0  0  0  0  0  0  0  0  0
   -3.3576   21.0533  -33.5991 H   0  0  0  0  0  0  0  0  0  0  0  0
   -0.9617   20.4856  -33.9747 H   0  0  0  0  0  0  0  0  0  0  0  0
    0.7375   21.0101  -32.2270 H   0  0  0  0  0  0  0  0  0  0  0  0
    0.0562   22.1513  -30.1221 H   0  0  0  0  0  0  0  0  0  0  0  0
   -4.0408   21.6813  -28.8733 H   0  0  0  0  0  0  0  0  0  0  0  0
   -4.6175   22.9596  -26.8096 H   0  0  0  0  0  0  0  0  0  0  0  0
   -3.3221   25.0040  -26.2007 H   0  0  0  0  0  0  0  0  0  0  0  0
   -1.4495   25.7772  -27.6575 H   0  0  0  0  0  0  0  0  0  0  0  0
   -0.8648   24.5095  -29.7243 H   0  0  0  0  0  0  0  0  0  0  0  0
  1  2  1  0
  2  3  2  0
  3  4  1  0
  4  5  1  0
  4  6  2  0
  6  7  1  0
  7  8  3  0
  6  9  1  0
  9 10  1  0
 10 11  1  0
 11 12  1  0
 12 13  2  0
 12 14  1  0
 14 15  1  0
 15 16  2  0
 16 17  1  0
 17 18  2  0
 18 19  1  0
 19 20  2  0
 20 21  1  0
 21 22  2  0
 22 23  1  0
 23 24  2  0
 24 25  1  0
 25 26  2  0
  9 27  2  0
 27  2  1  0
 20 15  1  0
 26 21  1  0
  1 28  1  0
  1 29  1  0
  1 30  1  0
  3 31  1  0
  5 32  1  0
  5 33  1  0
  5 34  1  0
 11 35  1  0
 11 36  1  0
 14 37  1  0
 16 38  1  0
 17 39  1  0
 18 40  1  0
 19 41  1  0
 22 42  1  0
 23 43  1  0
 24 44  1  0
 25 45  1  0
 26 46  1  0
M  END
>  <UniqueID>  (47) 
45

>  <SMILES>  (47) 
Cc1cc(C)c(C#N)c(SCC(=O)Nc2ccccc2-c2ccccc2)n1

>  <Energy>  (47) 
53.2479389501966

>  <Genealogy>  (47) 
Cc1cc(C)c(C#N)c(SCC(=O)Nc2ccccc2-c2ccccc2)n1 (3D coordinates assigned)
Cc1cc(C)c(C#N)c(SCC(=O)Nc2ccccc2-c2ccccc2)n1 (optimized conformer: 53.2479389501966 kcal/mol)

>  <smiles>  (47) 
Cc1cc(C)c(C#N)c(SCC(=O)Nc2ccccc2-c2ccccc2)n1

>  <score_type>  (47) 
oracle

>  <origin>  (47) 
adgpu

>  <m_score__min__energy>  (47) 
-9.8399999999999999

>  <m_primary>  (47) 
energy

$$$$
47:0
     RDKit          3D

 52 55  0  0  0  0  0  0  0  0999 V2000
   -0.0880   19.5320  -32.5050 O   0  0  0  0  0  0  0  0  0  0  0  0
   -0.5880   20.6240  -33.4100 S   0  0  0  0  0  0  0  0  0  0  0  0
   -0.9380   21.8170  -32.5670 O   0  0  0  0  0  0  0  0  0  0  0  0
   -2.0100   20.0850  -34.2490 N   0  0  0  0  0  0  0  0  0  0  0  0
   -2.6790   19.0400  -33.4750 C   0  0  0  0  0  0  0  0  0  0  0  0
   -4.1910   19.2710  -33.4800 C   0  0  0  0  0  0  0  0  0  0  0  0
   -4.5440   20.7600  -33.3660 C   0  0  0  0  0  0  0  0  0  0  0  0
   -5.3970   21.0230  -32.1980 N   0  0  0  0  0  0  0  0  0  0  0  0
   -5.0410   22.0770  -31.2940 C   0  0  0  0  0  0  0  0  0  0  0  0
   -4.0490   21.8830  -30.3220 C   0  0  0  0  0  0  0  0  0  0  0  0
   -3.7050   22.9230  -29.4540 C   0  0  0  0  0  0  0  0  0  0  0  0
   -4.3580   24.1550  -29.5450 C   0  0  0  0  0  0  0  0  0  0  0  0
   -5.3630   24.3460  -30.4980 C   0  0  0  0  0  0  0  0  0  0  0  0
   -5.7030   23.3070  -31.3800 C   0  0  0  0  0  0  0  0  0  0  0  0
   -6.8360   23.4500  -32.3510 C   0  0  0  0  0  0  0  0  0  0  0  0
   -8.0360   22.6280  -31.8740 C   0  0  0  0  0  0  0  0  0  0  0  0
   -7.9070   21.1110  -31.9560 C   0  0  0  0  0  0  0  0  0  0  0  0
   -9.1120   20.3880  -31.8470 C   0  0  0  0  0  0  0  0  0  0  0  0
   -9.1260   18.9950  -31.8980 C   0  0  0  0  0  0  0  0  0  0  0  0
   -7.9370   18.2910  -32.0540 C   0  0  0  0  0  0  0  0  0  0  0  0
   -6.7280   18.9760  -32.1490 C   0  0  0  0  0  0  0  0  0  0  0  0
   -6.6840   20.3810  -32.0910 C   0  0  0  0  0  0  0  0  0  0  0  0
    0.6650   21.0810  -34.5620 C   0  0  0  0  0  0  0  0  0  0  0  0
    1.8230   20.3020  -34.6780 C   0  0  0  0  0  0  0  0  0  0  0  0
    2.8290   20.6690  -35.5760 C   0  0  0  0  0  0  0  0  0  0  0  0
    2.6880   21.8190  -36.3600 C   0  0  0  0  0  0  0  0  0  0  0  0
    3.6970   22.1700  -37.2490 O   0  0  0  0  0  0  0  0  0  0  0  0
    1.5310   22.6090  -36.2440 C   0  0  0  0  0  0  0  0  0  0  0  0
    1.3650   23.7620  -37.0100 O   0  0  0  0  0  0  0  0  0  0  0  0
    0.5250   22.2370  -35.3440 C   0  0  0  0  0  0  0  0  0  0  0  0
   -2.4591   18.0590  -33.9214 H   0  0  0  0  0  0  0  0  0  0  0  0
   -2.3131   19.0690  -32.4380 H   0  0  0  0  0  0  0  0  0  0  0  0
   -4.6075   18.8779  -34.4192 H   0  0  0  0  0  0  0  0  0  0  0  0
   -4.6174   18.7524  -32.6087 H   0  0  0  0  0  0  0  0  0  0  0  0
   -3.6152   21.3412  -33.2685 H   0  0  0  0  0  0  0  0  0  0  0  0
   -5.0966   21.0542  -34.2705 H   0  0  0  0  0  0  0  0  0  0  0  0
   -3.5408   20.9107  -30.2426 H   0  0  0  0  0  0  0  0  0  0  0  0
   -2.9197   22.7716  -28.6987 H   0  0  0  0  0  0  0  0  0  0  0  0
   -4.0811   24.9752  -28.8663 H   0  0  0  0  0  0  0  0  0  0  0  0
   -5.8880   25.3108  -30.5571 H   0  0  0  0  0  0  0  0  0  0  0  0
   -7.1242   24.5092  -32.4221 H   0  0  0  0  0  0  0  0  0  0  0  0
   -6.5159   23.0853  -33.3382 H   0  0  0  0  0  0  0  0  0  0  0  0
   -8.2214   22.8897  -30.8218 H   0  0  0  0  0  0  0  0  0  0  0  0
   -8.8532   22.8849  -32.5641 H   0  0  0  0  0  0  0  0  0  0  0  0
  -10.0589   20.9330  -31.7193 H   0  0  0  0  0  0  0  0  0  0  0  0
  -10.0790   18.4519  -31.8147 H   0  0  0  0  0  0  0  0  0  0  0  0
   -7.9513   17.1922  -32.1024 H   0  0  0  0  0  0  0  0  0  0  0  0
   -5.7930   18.4096  -32.2713 H   0  0  0  0  0  0  0  0  0  0  0  0
    1.9410   19.3991  -34.0608 H   0  0  0  0  0  0  0  0  0  0  0  0
    3.7348   20.0515  -35.6667 H   0  0  0  0  0  0  0  0  0  0  0  0
    2.1150   24.1440  -37.5740 H   0  0  0  0  0  0  0  0  0  0  0  0
   -0.3802   22.8548  -35.2497 H   0  0  0  0  0  0  0  0  0  0  0  0
  1  2  2  0
  2  3  2  0
  2  4  1  0
  4  5  1  0
  5  6  1  0
  6  7  1  0
  7  8  1  0
  8  9  1  0
  9 10  2  0
 10 11  1  0
 11 12  2  0
 12 13  1  0
 13 14  2  0
 14 15  1  0
 15 16  1  0
 16 17  1  0
 17 18  2  0
 18 19  1  0
 19 20  2  0
 20 21  1  0
 21 22  2  0
  2 23  1  0
 23 24  2  0
 24 25  1  0
 25 26  2  0
 26 27  1  0
 26 28  1  0
 28 29  1  0
 28 30  2  0
 22  8  1  0
 30 23  1  0
 14  9  1  0
 22 17  1  0
  5 31  1  0
  5 32  1  0
  6 33  1  0
  6 34  1  0
  7 35  1  0
  7 36  1  0
 10 37  1  0
 11 38  1  0
 12 39  1  0
 13 40  1  0
 15 41  1  0
 15 42  1  0
 16 43  1  0
 16 44  1  0
 18 45  1  0
 19 46  1  0
 20 47  1  0
 21 48  1  0
 24 49  1  0
 25 50  1  0
 29 51  1  0
 30 52  1  0
M  CHG  2   4  -1  27  -1
M  END
>  <UniqueID>  (48) 
46

>  <SMILES>  (48) 
O=S(=O)([N-]CCCN1c2ccccc2CCc2ccccc21)c1ccc([O-])c(O)c1

>  <Energy>  (48) 
69.27693946043591

>  <Genealogy>  (48) 
O=S(=O)([N-]CCCN1c2ccccc2CCc2ccccc21)c1ccc([O-])c(O)c1 (protonated)
O=S(=O)([N-]CCCN1c2ccccc2CCc2ccccc21)c1ccc([O-])c(O)c1 (3D coordinates assigned)
O=S(=O)([N-]CCCN1c2ccccc2CCc2ccccc21)c1ccc([O-])c(O)c1 (nonaromatic ring conformer: 69.27693946043591 kcal/mol)

>  <smiles>  (48) 
O=S(=O)(NCCCN1c2ccccc2CCc2ccccc21)c1ccc(O)c(O)c1

>  <score_type>  (48) 
oracle

>  <origin>  (48) 
adgpu

>  <m_score__min__energy>  (48) 
-11.51

>  <m_primary>  (48) 
energy

$$$$
48:0
     RDKit          3D

 63 66  0  0  0  0  0  0  0  0999 V2000
   -0.1040   23.0740  -24.6320 C   0  0  0  0  0  0  0  0  0  0  0  0
   -0.1650   23.5130  -26.0380 N   0  0  0  0  0  0  0  0  0  0  0  0
   -1.4640   23.1920  -26.6650 C   0  0  0  0  0  0  0  0  0  0  0  0
   -1.6450   21.6790  -26.9230 C   0  0  0  0  0  0  0  0  0  0  0  0
   -0.3620   20.9520  -26.8880 N   0  0  0  0  0  0  0  0  0  0  0  0
   -0.5430   19.3610  -27.5820 S   0  0  0  0  0  0  0  0  0  0  0  0
   -1.6970   18.6590  -26.9200 O   0  0  0  0  0  0  0  0  0  0  0  0
    0.7010   18.5580  -27.3200 O   0  0  0  0  0  0  0  0  0  0  0  0
   -0.8240   19.4340  -29.3240 C   0  0  0  0  0  0  0  0  0  0  0  0
   -0.1740   18.5370  -30.1840 C   0  0  0  0  0  0  0  0  0  0  0  0
   -0.3880   18.6050  -31.5630 C   0  0  0  0  0  0  0  0  0  0  0  0
   -1.2560   19.5670  -32.0950 C   0  0  0  0  0  0  0  0  0  0  0  0
   -1.4830   19.6640  -33.8380 S   0  0  0  0  0  0  0  0  0  0  0  0
   -0.5490   18.7320  -34.5590 O   0  0  0  0  0  0  0  0  0  0  0  0
   -1.2010   21.0710  -34.2830 O   0  0  0  0  0  0  0  0  0  0  0  0
   -3.1220   19.2520  -34.2360 N   0  0  0  0  0  0  0  0  0  0  0  0
   -3.8680   18.1860  -33.6050 C   0  0  0  0  0  0  0  0  0  0  0  0
   -3.2060   17.0650  -33.0620 C   0  0  0  0  0  0  0  0  0  0  0  0
   -3.9230   16.0580  -32.4110 C   0  0  0  0  0  0  0  0  0  0  0  0
   -5.3060   16.1510  -32.2890 C   0  0  0  0  0  0  0  0  0  0  0  0
   -5.9820   17.2430  -32.8310 C   0  0  0  0  0  0  0  0  0  0  0  0
   -5.2800   18.2550  -33.5050 C   0  0  0  0  0  0  0  0  0  0  0  0
   -6.2190   19.6140  -34.2310 S   0  0  0  0  0  0  0  0  0  0  0  0
   -5.7600   20.7810  -32.9320 C   0  0  0  0  0  0  0  0  0  0  0  0
   -4.5300   21.4390  -33.0670 C   0  0  0  0  0  0  0  0  0  0  0  0
   -4.1240   22.3940  -32.1390 C   0  0  0  0  0  0  0  0  0  0  0  0
   -4.9320   22.7020  -31.0370 C   0  0  0  0  0  0  0  0  0  0  0  0
   -4.5030   23.7310  -30.0570 C   0  0  0  0  0  0  0  0  0  0  0  0
   -3.8560   24.9240  -30.4950 N   0  0  0  0  0  0  0  0  0  0  0  0
   -4.7080   23.5610  -28.8240 O   0  0  0  0  0  0  0  0  0  0  0  0
   -6.1460   22.0140  -30.8700 C   0  0  0  0  0  0  0  0  0  0  0  0
   -6.5760   21.0440  -31.7970 C   0  0  0  0  0  0  0  0  0  0  0  0
   -7.8060   20.3320  -31.5310 N   0  0  0  0  0  0  0  0  0  0  0  0
   -7.8210   19.1060  -31.2960 O   0  0  0  0  0  0  0  0  0  0  0  0
   -9.0090   20.9980  -31.5660 O   0  0  0  0  0  0  0  0  0  0  0  0
   -1.9140   20.4590  -31.2350 C   0  0  0  0  0  0  0  0  0  0  0  0
   -1.6960   20.3940  -29.8560 C   0  0  0  0  0  0  0  0  0  0  0  0
    0.6830   21.7070  -27.5890 C   0  0  0  0  0  0  0  0  0  0  0  0
    0.9830   23.0180  -26.8340 C   0  0  0  0  0  0  0  0  0  0  0  0
   -0.2250   23.9445  -23.9705 H   0  0  0  0  0  0  0  0  0  0  0  0
   -0.9104   22.3513  -24.4382 H   0  0  0  0  0  0  0  0  0  0  0  0
    0.8688   22.5986  -24.4382 H   0  0  0  0  0  0  0  0  0  0  0  0
   -2.2700   23.5342  -25.9993 H   0  0  0  0  0  0  0  0  0  0  0  0
   -1.4970   23.7011  -27.6395 H   0  0  0  0  0  0  0  0  0  0  0  0
   -2.3086   21.2644  -26.1499 H   0  0  0  0  0  0  0  0  0  0  0  0
   -2.0762   21.5562  -27.9275 H   0  0  0  0  0  0  0  0  0  0  0  0
    0.5065   17.7775  -29.7716 H   0  0  0  0  0  0  0  0  0  0  0  0
    0.1268   17.9008  -32.2331 H   0  0  0  0  0  0  0  0  0  0  0  0
   -3.5880   19.8860  -34.9210 H   0  0  0  0  0  0  0  0  0  0  0  0
   -2.1128   16.9827  -33.1521 H   0  0  0  0  0  0  0  0  0  0  0  0
   -3.3928   15.1892  -31.9937 H   0  0  0  0  0  0  0  0  0  0  0  0
   -5.8660   15.3626  -31.7647 H   0  0  0  0  0  0  0  0  0  0  0  0
   -7.0751   17.3124  -32.7297 H   0  0  0  0  0  0  0  0  0  0  0  0
   -3.8763   21.1975  -33.9181 H   0  0  0  0  0  0  0  0  0  0  0  0
   -3.1619   22.9104  -32.2721 H   0  0  0  0  0  0  0  0  0  0  0  0
   -3.5140   25.6330  -29.8090 H   0  0  0  0  0  0  0  0  0  0  0  0
   -6.7748   22.2379  -29.9957 H   0  0  0  0  0  0  0  0  0  0  0  0
   -2.6029   21.2111  -31.6469 H   0  0  0  0  0  0  0  0  0  0  0  0
   -2.2104   21.0985  -29.1859 H   0  0  0  0  0  0  0  0  0  0  0  0
    1.5984   21.0993  -27.6416 H   0  0  0  0  0  0  0  0  0  0  0  0
    0.3355   21.9467  -28.6048 H   0  0  0  0  0  0  0  0  0  0  0  0
    1.8297   22.8431  -26.1539 H   0  0  0  0  0  0  0  0  0  0  0  0
    1.2094   23.7844  -27.5899 H   0  0  0  0  0  0  0  0  0  0  0  0
  1  2  1  0
  2  3  1  0
  3  4  1  0
  4  5  1  0
  5  6  1  0
  6  7  2  0
  6  8  2  0
  6  9  1  0
  9 10  2  0
 10 11  1  0
 11 12  2  0
 12 13  1  0
 13 14  2  0
 13 15  2  0
 13 16  1  0
 16 17  1  0
 17 18  2  0
 18 19  1  0
 19 20  2  0
 20 21  1  0
 21 22  2  0
 22 23  1  0
 23 24  1  0
 24 25  2  0
 25 26  1  0
 26 27  2  0
 27 28  1  0
 28 29  1  0
 28 30  2  0
 27 31  1  0
 31 32  2  0
 32 33  1  0
 33 34  2  0
 33 35  1  0
 12 36  1  0
 36 37  2  0
  5 38  1  0
 38 39  1  0
 39  2  1  0
 37  9  1  0
 22 17  1  0
 32 24  1  0
  1 40  1  0
  1 41  1  0
  1 42  1  0
  3 43  1  0
  3 44  1  0
  4 45  1  0
  4 46  1  0
 10 47  1  0
 11 48  1  0
 16 49  1  0
 18 50  1  0
 19 51  1  0
 20 52  1  0
 21 53  1  0
 25 54  1  0
 26 55  1  0
 29 56  1  0
 31 57  1  0
 36 58  1  0
 37 59  1  0
 38 60  1  0
 38 61  1  0
 39 62  1  0
 39 63  1  0
M  CHG  3  29  -1  33   1  35  -1
M  END
>  <UniqueID>  (49) 
47

>  <SMILES>  (49) 
CN1CCN(S(=O)(=O)c2ccc(S(=O)(=O)Nc3ccccc3Sc3ccc(C([NH-])=O)cc3[N+](=O)[O-])cc2)CC1

>  <Energy>  (49) 
81.77126911162593

>  <Genealogy>  (49) 
CN1CCN(S(=O)(=O)c2ccc(S(=O)(=O)Nc3ccccc3Sc3ccc(C([NH-])=O)cc3[N+](=O)[O-])cc2)CC1 (protonated)
CN1CCN(S(=O)(=O)c2ccc(S(=O)(=O)Nc3ccccc3Sc3ccc(C([NH-])=O)cc3[N+](=O)[O-])cc2)CC1 (3D coordinates assigned)
CN1CCN(S(=O)(=O)c2ccc(S(=O)(=O)Nc3ccccc3Sc3ccc(C([NH-])=O)cc3[N+](=O)[O-])cc2)CC1 (nonaromatic ring conformer: 81.77126911162593 kcal/mol)

>  <smiles>  (49) 
CN1CCN(S(=O)(=O)c2ccc(S(=O)(=O)Nc3ccccc3Sc3ccc(C(N)=O)cc3[N+](=O)[O-])cc2)CC1

>  <score_type>  (49) 
oracle

>  <origin>  (49) 
adgpu

>  <m_score__min__energy>  (49) 
-13.109999999999999

>  <m_primary>  (49) 
energy

$$$$
