0:0
     RDKit          3D

 44 46  0  0  0  0  0  0  0  0999 V2000
   -2.3890   20.4500  -26.7580 O   0  0  0  0  0  0  0  0  0  0  0  0
   -1.3590   21.0670  -27.6610 S   0  0  0  0  0  0  0  0  0  0  0  0
   -0.1990   21.5410  -26.8290 O   0  0  0  0  0  0  0  0  0  0  0  0
   -0.7970   19.8800  -28.7920 N   0  0  0  0  0  0  0  0  0  0  0  0
   -0.7930   20.0500  -30.2160 C   0  0  0  0  0  0  0  0  0  0  0  0
    0.4330   20.1920  -30.8760 C   0  0  0  0  0  0  0  0  0  0  0  0
    0.4730   20.3420  -32.2660 C   0  0  0  0  0  0  0  0  0  0  0  0
   -0.7090   20.3610  -33.0050 C   0  0  0  0  0  0  0  0  0  0  0  0
   -1.9460   20.2460  -32.3560 C   0  0  0  0  0  0  0  0  0  0  0  0
   -3.4510   20.3570  -33.2740 S   0  0  0  0  0  0  0  0  0  0  0  0
   -3.5990   21.7480  -33.8250 O   0  0  0  0  0  0  0  0  0  0  0  0
   -3.3940   19.4010  -34.4330 O   0  0  0  0  0  0  0  0  0  0  0  0
   -4.8360   19.9730  -32.2770 N   0  0  0  0  0  0  0  0  0  0  0  0
   -5.7810   19.1110  -33.0210 C   0  0  0  0  0  0  0  0  0  0  0  0
   -7.1730   19.1260  -32.3850 C   0  0  0  0  0  0  0  0  0  0  0  0
   -7.7800   20.5370  -32.4270 C   0  0  0  0  0  0  0  0  0  0  0  0
   -6.7120   21.6460  -32.4050 C   0  0  0  0  0  0  0  0  0  0  0  0
   -5.4370   21.1890  -31.6810 C   0  0  0  0  0  0  0  0  0  0  0  0
   -1.9840   20.0830  -30.9650 C   0  0  0  0  0  0  0  0  0  0  0  0
   -2.0920   22.4120  -28.5310 C   0  0  0  0  0  0  0  0  0  0  0  0
   -3.3610   22.2780  -29.1090 C   0  0  0  0  0  0  0  0  0  0  0  0
   -3.9550   23.3640  -29.7580 C   0  0  0  0  0  0  0  0  0  0  0  0
   -3.2840   24.5880  -29.8360 C   0  0  0  0  0  0  0  0  0  0  0  0
   -3.8810   25.6670  -30.4780 O   0  0  0  0  0  0  0  0  0  0  0  0
   -2.0130   24.7250  -29.2640 C   0  0  0  0  0  0  0  0  0  0  0  0
   -1.3390   25.9380  -29.3400 O   0  0  0  0  0  0  0  0  0  0  0  0
   -1.4190   23.6370  -28.6150 C   0  0  0  0  0  0  0  0  0  0  0  0
    1.3694   20.1856  -30.2989 H   0  0  0  0  0  0  0  0  0  0  0  0
    1.4410   20.4454  -32.7782 H   0  0  0  0  0  0  0  0  0  0  0  0
   -0.6708   20.4664  -34.0993 H   0  0  0  0  0  0  0  0  0  0  0  0
   -5.8571   19.4744  -34.0564 H   0  0  0  0  0  0  0  0  0  0  0  0
   -5.4007   18.0791  -32.9953 H   0  0  0  0  0  0  0  0  0  0  0  0
   -7.8283   18.4355  -32.9363 H   0  0  0  0  0  0  0  0  0  0  0  0
   -7.0826   18.8135  -31.3342 H   0  0  0  0  0  0  0  0  0  0  0  0
   -8.3724   20.6376  -33.3484 H   0  0  0  0  0  0  0  0  0  0  0  0
   -8.4016   20.6574  -31.5275 H   0  0  0  0  0  0  0  0  0  0  0  0
   -6.4571   21.9166  -33.4403 H   0  0  0  0  0  0  0  0  0  0  0  0
   -7.1243   22.5099  -31.8632 H   0  0  0  0  0  0  0  0  0  0  0  0
   -4.6982   22.0027  -31.7253 H   0  0  0  0  0  0  0  0  0  0  0  0
   -5.7169   20.9437  -30.6459 H   0  0  0  0  0  0  0  0  0  0  0  0
   -2.9527   19.9800  -30.4541 H   0  0  0  0  0  0  0  0  0  0  0  0
   -3.8912   21.3159  -29.0519 H   0  0  0  0  0  0  0  0  0  0  0  0
   -4.9527   23.2554  -30.2084 H   0  0  0  0  0  0  0  0  0  0  0  0
   -0.4192   23.7444  -28.1690 H   0  0  0  0  0  0  0  0  0  0  0  0
  1  2  2  0
  2  3  2  0
  2  4  1  0
  4  5  1  0
  5  6  2  0
  6  7  1  0
  7  8  2  0
  8  9  1  0
  9 10  1  0
 10 11  2  0
 10 12  2  0
 10 13  1  0
 13 14  1  0
 14 15  1  0
 15 16  1  0
 16 17  1  0
 17 18  1  0
  9 19  2  0
  2 20  1  0
 20 21  2  0
 21 22  1  0
 22 23  2  0
 23 24  1  0
 23 25  1  0
 25 26  1  0
 25 27  2  0
 19  5  1  0
 27 20  1  0
 18 13  1  0
  6 28  1  0
  7 29  1  0
  8 30  1  0
 14 31  1  0
 14 32  1  0
 15 33  1  0
 15 34  1  0
 16 35  1  0
 16 36  1  0
 17 37  1  0
 17 38  1  0
 18 39  1  0
 18 40  1  0
 19 41  1  0
 21 42  1  0
 22 43  1  0
 27 44  1  0
M  CHG  3   4  -1  24  -1  26  -1
M  END
>  <UniqueID>  (1) 
1

>  <SMILES>  (1) 
O=S(=O)([N-]c1cccc(S(=O)(=O)N2CCCCC2)c1)c1ccc([O-])c([O-])c1

>  <Energy>  (1) 
52.49210794057907

>  <Genealogy>  (1) 
O=S(=O)([N-]c1cccc(S(=O)(=O)N2CCCCC2)c1)c1ccc([O-])c([O-])c1 (protonated)
O=S(=O)([N-]c1cccc(S(=O)(=O)N2CCCCC2)c1)c1ccc([O-])c([O-])c1 (3D coordinates assigned)
O=S(=O)([N-]c1cccc(S(=O)(=O)N2CCCCC2)c1)c1ccc([O-])c([O-])c1 (nonaromatic ring conformer: 52.49210794057907 kcal/mol)

>  <smiles>  (1) 
O=S(=O)(Nc1cccc(S(=O)(=O)N2CCCCC2)c1)c1ccc(O)c(O)c1

>  <score_type>  (1) 
oracle

>  <origin>  (1) 
adgpu

>  <m_score__min__energy>  (1) 
-14.970000000000001

>  <m_primary>  (1) 
energy

$$$$
1:0
     RDKit          3D

 48 50  0  0  0  0  0  0  0  0999 V2000
   -8.9040   23.4440  -32.0850 C   0  0  0  0  0  0  0  0  0  0  0  0
   -7.6450   22.7070  -31.7080 C   0  0  0  0  0  0  0  0  0  0  0  0
   -6.5340   23.4620  -31.2970 C   0  0  0  0  0  0  0  0  0  0  0  0
   -5.3480   22.8340  -30.9030 C   0  0  0  0  0  0  0  0  0  0  0  0
   -3.9560   23.8070  -30.4390 S   0  0  0  0  0  0  0  0  0  0  0  0
   -4.2440   25.4580  -30.8610 N   0  0  0  0  0  0  0  0  0  0  0  0
   -2.7250   23.3190  -31.1500 O   0  0  0  0  0  0  0  0  0  0  0  0
   -3.7330   23.6960  -28.9560 O   0  0  0  0  0  0  0  0  0  0  0  0
   -5.2680   21.4380  -30.9120 C   0  0  0  0  0  0  0  0  0  0  0  0
   -6.3560   20.6740  -31.3370 C   0  0  0  0  0  0  0  0  0  0  0  0
   -7.5380   21.2940  -31.7740 C   0  0  0  0  0  0  0  0  0  0  0  0
   -8.6070   20.4400  -32.3410 C   0  0  0  0  0  0  0  0  0  0  0  0
   -9.7560   20.9260  -32.5140 O   0  0  0  0  0  0  0  0  0  0  0  0
   -8.3720   19.0710  -32.7010 N   0  0  0  0  0  0  0  0  0  0  0  0
   -7.0930   18.5170  -33.0390 C   0  0  0  0  0  0  0  0  0  0  0  0
   -6.5040   17.5060  -32.2600 C   0  0  0  0  0  0  0  0  0  0  0  0
   -5.2110   17.0630  -32.5450 C   0  0  0  0  0  0  0  0  0  0  0  0
   -4.4970   17.6150  -33.6150 C   0  0  0  0  0  0  0  0  0  0  0  0
   -2.8150   17.1560  -33.8810 S   0  0  0  0  0  0  0  0  0  0  0  0
   -2.5040   15.9270  -33.0730 O   0  0  0  0  0  0  0  0  0  0  0  0
   -2.6130   16.8230  -35.3340 O   0  0  0  0  0  0  0  0  0  0  0  0
   -1.7230   18.4410  -33.4220 N   0  0  0  0  0  0  0  0  0  0  0  0
   -0.9130   18.8650  -34.5750 C   0  0  0  0  0  0  0  0  0  0  0  0
   -0.1000   20.1310  -34.2340 C   0  0  0  0  0  0  0  0  0  0  0  0
   -0.1560   20.4150  -32.8480 O   0  0  0  0  0  0  0  0  0  0  0  0
   -1.4900   20.7100  -32.4740 C   0  0  0  0  0  0  0  0  0  0  0  0
   -2.4690   19.5860  -32.8790 C   0  0  0  0  0  0  0  0  0  0  0  0
   -5.1100   18.5710  -34.4370 C   0  0  0  0  0  0  0  0  0  0  0  0
   -6.4080   19.0100  -34.1560 C   0  0  0  0  0  0  0  0  0  0  0  0
   -9.4343   23.7544  -31.1726 H   0  0  0  0  0  0  0  0  0  0  0  0
   -8.6447   24.3329  -32.6788 H   0  0  0  0  0  0  0  0  0  0  0  0
   -9.5521   22.7827  -32.6788 H   0  0  0  0  0  0  0  0  0  0  0  0
   -6.5975   24.5601  -31.2849 H   0  0  0  0  0  0  0  0  0  0  0  0
   -3.8930   26.0420  -30.0700 H   0  0  0  0  0  0  0  0  0  0  0  0
   -4.3440   20.9400  -30.5829 H   0  0  0  0  0  0  0  0  0  0  0  0
   -6.2871   19.5762  -31.3296 H   0  0  0  0  0  0  0  0  0  0  0  0
   -7.0635   17.0625  -31.4232 H   0  0  0  0  0  0  0  0  0  0  0  0
   -4.7519   16.2776  -31.9267 H   0  0  0  0  0  0  0  0  0  0  0  0
   -0.2214   18.0544  -34.8481 H   0  0  0  0  0  0  0  0  0  0  0  0
   -1.5855   19.0922  -35.4153 H   0  0  0  0  0  0  0  0  0  0  0  0
    0.9487   19.9740  -34.5264 H   0  0  0  0  0  0  0  0  0  0  0  0
   -0.5313   20.9814  -34.7825 H   0  0  0  0  0  0  0  0  0  0  0  0
   -1.5318   20.8406  -31.3826 H   0  0  0  0  0  0  0  0  0  0  0  0
   -1.7934   21.6285  -32.9977 H   0  0  0  0  0  0  0  0  0  0  0  0
   -3.0390   19.2634  -31.9952 H   0  0  0  0  0  0  0  0  0  0  0  0
   -3.1572   19.9663  -33.6483 H   0  0  0  0  0  0  0  0  0  0  0  0
   -4.5691   18.9767  -35.3047 H   0  0  0  0  0  0  0  0  0  0  0  0
   -6.8924   19.7454  -34.8152 H   0  0  0  0  0  0  0  0  0  0  0  0
  1  2  1  0
  2  3  2  0
  3  4  1  0
  4  5  1  0
  5  6  1  0
  5  7  2  0
  5  8  2  0
  4  9  2  0
  9 10  1  0
 10 11  2  0
 11 12  1  0
 12 13  2  0
 12 14  1  0
 14 15  1  0
 15 16  2  0
 16 17  1  0
 17 18  2  0
 18 19  1  0
 19 20  2  0
 19 21  2  0
 19 22  1  0
 22 23  1  0
 23 24  1  0
 24 25  1  0
 25 26  1  0
 26 27  1  0
 18 28  1  0
 28 29  2  0
 11  2  1  0
 29 15  1  0
 27 22  1  0
  1 30  1  0
  1 31  1  0
  1 32  1  0
  3 33  1  0
  6 34  1  0
  9 35  1  0
 10 36  1  0
 16 37  1  0
 17 38  1  0
 23 39  1  0
 23 40  1  0
 24 41  1  0
 24 42  1  0
 26 43  1  0
 26 44  1  0
 27 45  1  0
 27 46  1  0
 28 47  1  0
 29 48  1  0
M  CHG  2   6  -1  14  -1
M  END
>  <UniqueID>  (2) 
2

>  <SMILES>  (2) 
Cc1cc(S([NH-])(=O)=O)ccc1C(=O)[N-]c1ccc(S(=O)(=O)N2CCOCC2)cc1

>  <Energy>  (2) 
64.25385800410224

>  <Genealogy>  (2) 
Cc1cc(S([NH-])(=O)=O)ccc1C(=O)[N-]c1ccc(S(=O)(=O)N2CCOCC2)cc1 (protonated)
Cc1cc(S([NH-])(=O)=O)ccc1C(=O)[N-]c1ccc(S(=O)(=O)N2CCOCC2)cc1 (3D coordinates assigned)
Cc1cc(S([NH-])(=O)=O)ccc1C(=O)[N-]c1ccc(S(=O)(=O)N2CCOCC2)cc1 (nonaromatic ring conformer: 64.25385800410224 kcal/mol)

>  <smiles>  (2) 
Cc1cc(S(N)(=O)=O)ccc1C(=O)Nc1ccc(S(=O)(=O)N2CCOCC2)cc1

>  <score_type>  (2) 
oracle

>  <origin>  (2) 
adgpu

>  <m_score__min__energy>  (2) 
-11.109999999999999

>  <m_primary>  (2) 
energy

$$$$
2:0
     RDKit          3D

 69 73  0  0  0  0  0  0  0  0999 V2000
   -4.0600   21.6030  -33.2640 O   0  0  0  0  0  0  0  0  0  0  0  0
   -4.3840   20.6610  -32.4920 C   0  0  0  0  0  0  0  0  0  0  0  0
   -4.3650   20.8590  -31.0680 N   0  0  0  0  0  0  0  0  0  0  0  0
   -3.5480   21.8300  -30.3920 C   0  0  0  0  0  0  0  0  0  0  0  0
   -3.9250   23.1810  -30.4200 C   0  0  0  0  0  0  0  0  0  0  0  0
   -3.1700   24.1440  -29.7460 C   0  0  0  0  0  0  0  0  0  0  0  0
   -2.0340   23.7670  -29.0190 C   0  0  0  0  0  0  0  0  0  0  0  0
   -1.0670   24.9790  -28.1830 S   0  0  0  0  0  0  0  0  0  0  0  0
   -1.2360   26.3050  -28.8700 O   0  0  0  0  0  0  0  0  0  0  0  0
    0.3860   24.5930  -28.2370 O   0  0  0  0  0  0  0  0  0  0  0  0
   -1.6050   25.1080  -26.5280 N   0  0  0  0  0  0  0  0  0  0  0  0
   -0.7740   24.3040  -25.6330 C   0  0  0  0  0  0  0  0  0  0  0  0
   -0.8380   24.9690  -24.2660 C   0  0  0  0  0  0  0  0  0  0  0  0
   -1.3150   26.3890  -24.5310 C   0  0  0  0  0  0  0  0  0  0  0  0
   -1.4910   26.4810  -26.0370 C   0  0  0  0  0  0  0  0  0  0  0  0
   -1.6580   22.4190  -28.9750 C   0  0  0  0  0  0  0  0  0  0  0  0
   -2.4130   21.4540  -29.6500 C   0  0  0  0  0  0  0  0  0  0  0  0
   -4.8720   19.3840  -33.0630 C   0  0  0  0  0  0  0  0  0  0  0  0
   -3.9380   18.4630  -33.5640 C   0  0  0  0  0  0  0  0  0  0  0  0
   -4.3610   17.2800  -34.1830 C   0  0  0  0  0  0  0  0  0  0  0  0
   -3.1830   16.1580  -34.8610 S   0  0  0  0  0  0  0  0  0  0  0  0
   -3.4600   15.9530  -36.3260 O   0  0  0  0  0  0  0  0  0  0  0  0
   -1.8080   16.7470  -34.7120 O   0  0  0  0  0  0  0  0  0  0  0  0
   -3.2600   14.6290  -34.0170 N   0  0  0  0  0  0  0  0  0  0  0  0
   -3.5780   14.8550  -32.5940 C   0  0  0  0  0  0  0  0  0  0  0  0
   -4.1560   13.5800  -31.9580 C   0  0  0  0  0  0  0  0  0  0  0  0
   -5.3530   13.1150  -32.5720 O   0  0  0  0  0  0  0  0  0  0  0  0
   -5.5280   13.5710  -33.9060 C   0  0  0  0  0  0  0  0  0  0  0  0
   -4.2040   13.7010  -34.6800 C   0  0  0  0  0  0  0  0  0  0  0  0
   -5.7280   17.0110  -34.3020 C   0  0  0  0  0  0  0  0  0  0  0  0
   -6.6660   17.9060  -33.7860 C   0  0  0  0  0  0  0  0  0  0  0  0
   -6.2540   19.0880  -33.1560 C   0  0  0  0  0  0  0  0  0  0  0  0
   -7.2410   19.9430  -32.5610 N   0  0  0  0  0  0  0  0  0  0  0  0
   -7.2210   21.3900  -32.6960 C   0  0  0  0  0  0  0  0  0  0  0  0
   -8.2610   21.9070  -31.7090 C   0  0  0  0  0  0  0  0  0  0  0  0
   -9.0910   20.6910  -31.3010 C   0  0  0  0  0  0  0  0  0  0  0  0
   -8.2210   19.4780  -31.5980 C   0  0  0  0  0  0  0  0  0  0  0  0
   -5.0390   20.3030  -30.4970 H   0  0  0  0  0  0  0  0  0  0  0  0
   -4.8232   23.4848  -30.9777 H   0  0  0  0  0  0  0  0  0  0  0  0
   -3.4688   25.2019  -29.7865 H   0  0  0  0  0  0  0  0  0  0  0  0
   -1.1634   23.2769  -25.5740 H   0  0  0  0  0  0  0  0  0  0  0  0
    0.2620   24.2468  -25.9982 H   0  0  0  0  0  0  0  0  0  0  0  0
   -1.5478   24.4398  -23.6132 H   0  0  0  0  0  0  0  0  0  0  0  0
    0.1368   24.9527  -23.7565 H   0  0  0  0  0  0  0  0  0  0  0  0
   -2.2709   26.5756  -24.0197 H   0  0  0  0  0  0  0  0  0  0  0  0
   -0.6009   27.1371  -24.1561 H   0  0  0  0  0  0  0  0  0  0  0  0
   -2.4022   27.0477  -26.2789 H   0  0  0  0  0  0  0  0  0  0  0  0
   -0.6421   27.0009  -26.5050 H   0  0  0  0  0  0  0  0  0  0  0  0
   -0.7653   22.1176  -28.4074 H   0  0  0  0  0  0  0  0  0  0  0  0
   -2.1178   20.3955  -29.6005 H   0  0  0  0  0  0  0  0  0  0  0  0
   -2.8624   18.6729  -33.4693 H   0  0  0  0  0  0  0  0  0  0  0  0
   -2.6600   15.1410  -32.0597 H   0  0  0  0  0  0  0  0  0  0  0  0
   -4.3269   15.6575  -32.5217 H   0  0  0  0  0  0  0  0  0  0  0  0
   -3.3995   12.7847  -32.0299 H   0  0  0  0  0  0  0  0  0  0  0  0
   -4.4104   13.8319  -30.9179 H   0  0  0  0  0  0  0  0  0  0  0  0
   -6.1752   12.8577  -34.4374 H   0  0  0  0  0  0  0  0  0  0  0  0
   -5.9759   14.5743  -33.8528 H   0  0  0  0  0  0  0  0  0  0  0  0
   -3.7352   12.7084  -34.7501 H   0  0  0  0  0  0  0  0  0  0  0  0
   -4.4328   14.1057  -35.6769 H   0  0  0  0  0  0  0  0  0  0  0  0
   -6.0647   16.0917  -34.8035 H   0  0  0  0  0  0  0  0  0  0  0  0
   -7.7392   17.6815  -33.8746 H   0  0  0  0  0  0  0  0  0  0  0  0
   -6.2252   21.7853  -32.4470 H   0  0  0  0  0  0  0  0  0  0  0  0
   -7.4438   21.7063  -33.7257 H   0  0  0  0  0  0  0  0  0  0  0  0
   -7.7684   22.3468  -30.8293 H   0  0  0  0  0  0  0  0  0  0  0  0
   -8.8878   22.6923  -32.1567 H   0  0  0  0  0  0  0  0  0  0  0  0
   -9.3341   20.7351  -30.2291 H   0  0  0  0  0  0  0  0  0  0  0  0
  -10.0447   20.6494  -31.8475 H   0  0  0  0  0  0  0  0  0  0  0  0
   -7.7249   19.1249  -30.6819 H   0  0  0  0  0  0  0  0  0  0  0  0
   -8.8098   18.6329  -31.9842 H   0  0  0  0  0  0  0  0  0  0  0  0
  1  2  2  0
  2  3  1  0
  3  4  1  0
  4  5  2  0
  5  6  1  0
  6  7  2  0
  7  8  1  0
  8  9  2  0
  8 10  2  0
  8 11  1  0
 11 12  1  0
 12 13  1  0
 13 14  1  0
 14 15  1  0
  7 16  1  0
 16 17  2  0
  2 18  1  0
 18 19  2  0
 19 20  1  0
 20 21  1  0
 21 22  2  0
 21 23  2  0
 21 24  1  0
 24 25  1  0
 25 26  1  0
 26 27  1  0
 27 28  1  0
 28 29  1  0
 20 30  2  0
 30 31  1  0
 31 32  2  0
 32 33  1  0
 33 34  1  0
 34 35  1  0
 35 36  1  0
 36 37  1  0
 17  4  1  0
 32 18  1  0
 37 33  1  0
 15 11  1  0
 29 24  1  0
  3 38  1  0
  5 39  1  0
  6 40  1  0
 12 41  1  0
 12 42  1  0
 13 43  1  0
 13 44  1  0
 14 45  1  0
 14 46  1  0
 15 47  1  0
 15 48  1  0
 16 49  1  0
 17 50  1  0
 19 51  1  0
 25 52  1  0
 25 53  1  0
 26 54  1  0
 26 55  1  0
 28 56  1  0
 28 57  1  0
 29 58  1  0
 29 59  1  0
 30 60  1  0
 31 61  1  0
 34 62  1  0
 34 63  1  0
 35 64  1  0
 35 65  1  0
 36 66  1  0
 36 67  1  0
 37 68  1  0
 37 69  1  0
M  END
>  <UniqueID>  (3) 
3

>  <SMILES>  (3) 
O=C(Nc1ccc(S(=O)(=O)N2CCCC2)cc1)c1cc(S(=O)(=O)N2CCOCC2)ccc1N1CCCC1

>  <Energy>  (3) 
95.24098980020564

>  <Genealogy>  (3) 
O=C(Nc1ccc(S(=O)(=O)N2CCCC2)cc1)c1cc(S(=O)(=O)N2CCOCC2)ccc1N1CCCC1 (3D coordinates assigned)
O=C(Nc1ccc(S(=O)(=O)N2CCCC2)cc1)c1cc(S(=O)(=O)N2CCOCC2)ccc1N1CCCC1 (nonaromatic ring conformer: 95.24098980020564 kcal/mol)

>  <smiles>  (3) 
O=C(Nc1ccc(S(=O)(=O)N2CCCC2)cc1)c1cc(S(=O)(=O)N2CCOCC2)ccc1N1CCCC1

>  <score_type>  (3) 
oracle

>  <origin>  (3) 
adgpu

>  <m_score__min__energy>  (3) 
-10.779999999999999

>  <m_primary>  (3) 
energy

$$$$
3:0
     RDKit          3D

 58 60  0  0  0  0  0  0  0  0999 V2000
   -1.2370   26.4810  -24.5200 C   0  0  0  0  0  0  0  0  0  0  0  0
   -1.8510   25.6050  -25.6040 C   0  0  0  0  0  0  0  0  0  0  0  0
   -0.5570   24.6330  -26.4550 S   0  0  0  0  0  0  0  0  0  0  0  0
   -1.5440   23.1130  -26.7060 C   0  0  0  0  0  0  0  0  0  0  0  0
   -2.1090   23.0870  -28.1000 C   0  0  0  0  0  0  0  0  0  0  0  0
   -2.0400   21.9210  -28.8740 C   0  0  0  0  0  0  0  0  0  0  0  0
   -2.6250   21.8680  -30.1510 C   0  0  0  0  0  0  0  0  0  0  0  0
   -2.5820   20.5670  -30.9410 C   0  0  0  0  0  0  0  0  0  0  0  0
   -3.3760   20.5670  -32.2020 N   0  0  0  0  0  0  0  0  0  0  0  0
   -4.7610   20.1010  -32.0360 C   0  0  0  0  0  0  0  0  0  0  0  0
   -4.8190   18.6440  -32.4800 C   0  0  0  0  0  0  0  0  0  0  0  0
   -3.5480   18.4060  -33.2790 C   0  0  0  0  0  0  0  0  0  0  0  0
   -2.8040   19.7360  -33.2750 C   0  0  0  0  0  0  0  0  0  0  0  0
   -3.2000   23.0390  -30.6870 C   0  0  0  0  0  0  0  0  0  0  0  0
   -3.6830   23.0580  -31.9910 O   0  0  0  0  0  0  0  0  0  0  0  0
   -3.2800   24.2090  -29.9180 C   0  0  0  0  0  0  0  0  0  0  0  0
   -3.9010   25.3350  -30.4820 O   0  0  0  0  0  0  0  0  0  0  0  0
   -5.2730   25.6750  -30.3050 C   0  0  0  0  0  0  0  0  0  0  0  0
   -6.1250   24.5050  -30.6970 C   0  0  0  0  0  0  0  0  0  0  0  0
   -6.7100   23.6930  -29.7120 C   0  0  0  0  0  0  0  0  0  0  0  0
   -7.4710   22.5800  -30.0770 C   0  0  0  0  0  0  0  0  0  0  0  0
   -7.6490   22.2590  -31.4290 C   0  0  0  0  0  0  0  0  0  0  0  0
   -8.5990   20.8460  -31.8780 S   0  0  0  0  0  0  0  0  0  0  0  0
   -7.7800   19.9760  -33.1940 C   0  0  0  0  0  0  0  0  0  0  0  0
   -8.7470   19.9400  -30.6870 O   0  0  0  0  0  0  0  0  0  0  0  0
   -9.9670   21.2690  -32.3340 O   0  0  0  0  0  0  0  0  0  0  0  0
   -7.0430   23.0500  -32.4140 C   0  0  0  0  0  0  0  0  0  0  0  0
   -6.2820   24.1660  -32.0510 C   0  0  0  0  0  0  0  0  0  0  0  0
   -2.7410   24.2230  -28.6190 C   0  0  0  0  0  0  0  0  0  0  0  0
   -1.5129   26.0874  -23.5306 H   0  0  0  0  0  0  0  0  0  0  0  0
   -0.1419   26.4786  -24.6233 H   0  0  0  0  0  0  0  0  0  0  0  0
   -1.6128   27.5096  -24.6233 H   0  0  0  0  0  0  0  0  0  0  0  0
   -2.5767   24.9174  -25.1452 H   0  0  0  0  0  0  0  0  0  0  0  0
   -2.3518   26.2506  -26.3405 H   0  0  0  0  0  0  0  0  0  0  0  0
   -0.9008   22.2331  -26.5578 H   0  0  0  0  0  0  0  0  0  0  0  0
   -2.3719   23.0980  -25.9819 H   0  0  0  0  0  0  0  0  0  0  0  0
   -1.5214   21.0358  -28.4772 H   0  0  0  0  0  0  0  0  0  0  0  0
   -1.5330   20.3593  -31.1988 H   0  0  0  0  0  0  0  0  0  0  0  0
   -3.0340   19.8006  -30.2942 H   0  0  0  0  0  0  0  0  0  0  0  0
   -3.4030   21.5610  -32.5380 H   0  0  0  0  0  0  0  0  0  0  0  0
   -5.0592   20.1826  -30.9803 H   0  0  0  0  0  0  0  0  0  0  0  0
   -5.4474   20.7139  -32.6388 H   0  0  0  0  0  0  0  0  0  0  0  0
   -4.8525   17.9777  -31.6054 H   0  0  0  0  0  0  0  0  0  0  0  0
   -5.7189   18.4376  -33.0780 H   0  0  0  0  0  0  0  0  0  0  0  0
   -2.9375   17.6235  -32.8047 H   0  0  0  0  0  0  0  0  0  0  0  0
   -3.7687   18.0670  -34.3019 H   0  0  0  0  0  0  0  0  0  0  0  0
   -1.7337   19.5658  -33.0866 H   0  0  0  0  0  0  0  0  0  0  0  0
   -2.9085   20.2384  -34.2480 H   0  0  0  0  0  0  0  0  0  0  0  0
   -5.4566   25.9268  -29.2501 H   0  0  0  0  0  0  0  0  0  0  0  0
   -5.5232   26.5419  -30.9342 H   0  0  0  0  0  0  0  0  0  0  0  0
   -6.5683   23.9345  -28.6482 H   0  0  0  0  0  0  0  0  0  0  0  0
   -7.9324   21.9531  -29.2998 H   0  0  0  0  0  0  0  0  0  0  0  0
   -7.0848   19.2375  -32.7683 H   0  0  0  0  0  0  0  0  0  0  0  0
   -8.5282   19.4604  -33.8140 H   0  0  0  0  0  0  0  0  0  0  0  0
   -7.2202   20.6917  -33.8140 H   0  0  0  0  0  0  0  0  0  0  0  0
   -7.1661   22.7925  -33.4763 H   0  0  0  0  0  0  0  0  0  0  0  0
   -5.8048   24.7804  -32.8287 H   0  0  0  0  0  0  0  0  0  0  0  0
   -2.8167   25.1335  -28.0063 H   0  0  0  0  0  0  0  0  0  0  0  0
  1  2  1  0
  2  3  1  0
  3  4  1  0
  4  5  1  0
  5  6  2  0
  6  7  1  0
  7  8  1  0
  8  9  1  0
  9 10  1  0
 10 11  1  0
 11 12  1  0
 12 13  1  0
  7 14  2  0
 14 15  1  0
 14 16  1  0
 16 17  1  0
 17 18  1  0
 18 19  1  0
 19 20  2  0
 20 21  1  0
 21 22  2  0
 22 23  1  0
 23 24  1  0
 23 25  2  0
 23 26  2  0
 22 27  1  0
 27 28  2  0
 16 29  2  0
 29  5  1  0
 13  9  1  0
 28 19  1  0
  1 30  1  0
  1 31  1  0
  1 32  1  0
  2 33  1  0
  2 34  1  0
  4 35  1  0
  4 36  1  0
  6 37  1  0
  8 38  1  0
  8 39  1  0
  9 40  1  0
 10 41  1  0
 10 42  1  0
 11 43  1  0
 11 44  1  0
 12 45  1  0
 12 46  1  0
 13 47  1  0
 13 48  1  0
 18 49  1  0
 18 50  1  0
 20 51  1  0
 21 52  1  0
 24 53  1  0
 24 54  1  0
 24 55  1  0
 27 56  1  0
 28 57  1  0
 29 58  1  0
M  CHG  2   9   1  15  -1
M  END
>  <UniqueID>  (4) 
4

>  <SMILES>  (4) 
CCSCc1cc(C[NH+]2CCCC2)c([O-])c(OCc2ccc(S(C)(=O)=O)cc2)c1

>  <Energy>  (4) 
55.75108800412567

>  <Genealogy>  (4) 
CCSCc1cc(C[NH+]2CCCC2)c([O-])c(OCc2ccc(S(C)(=O)=O)cc2)c1 (protonated)
CCSCc1cc(C[NH+]2CCCC2)c([O-])c(OCc2ccc(S(C)(=O)=O)cc2)c1 (3D coordinates assigned)
CCSCc1cc(C[NH+]2CCCC2)c([O-])c(OCc2ccc(S(C)(=O)=O)cc2)c1 (nonaromatic ring conformer: 55.75108800412567 kcal/mol)

>  <smiles>  (4) 
CCSCc1cc(CN2CCCC2)c(O)c(OCc2ccc(S(C)(=O)=O)cc2)c1

>  <score_type>  (4) 
oracle

>  <origin>  (4) 
adgpu

>  <m_score__min__energy>  (4) 
-12.789999999999999

>  <m_primary>  (4) 
energy

$$$$
4:0
     RDKit          3D

 43 45  0  0  0  0  0  0  0  0999 V2000
   -0.5590   21.1720  -34.0010 C   0  0  0  0  0  0  0  0  0  0  0  0
   -1.8520   20.5800  -34.0360 O   0  0  0  0  0  0  0  0  0  0  0  0
   -2.7400   20.5540  -32.9510 C   0  0  0  0  0  0  0  0  0  0  0  0
   -4.0530   20.1240  -33.1810 C   0  0  0  0  0  0  0  0  0  0  0  0
   -4.9780   20.0800  -32.1350 C   0  0  0  0  0  0  0  0  0  0  0  0
   -4.5990   20.4630  -30.8480 C   0  0  0  0  0  0  0  0  0  0  0  0
   -3.2870   20.8950  -30.5950 C   0  0  0  0  0  0  0  0  0  0  0  0
   -2.8670   21.2840  -29.2010 C   0  0  0  0  0  0  0  0  0  0  0  0
   -2.1470   22.5630  -29.2120 N   0  0  0  0  0  0  0  0  0  0  0  0
   -0.8280   22.7210  -29.4660 C   0  0  0  0  0  0  0  0  0  0  0  0
    0.0270   21.6820  -29.8160 O   0  0  0  0  0  0  0  0  0  0  0  0
   -0.4360   24.0340  -29.3160 C   0  0  0  0  0  0  0  0  0  0  0  0
   -1.5760   24.7020  -28.9290 C   0  0  0  0  0  0  0  0  0  0  0  0
   -1.6530   26.0560  -28.6290 O   0  0  0  0  0  0  0  0  0  0  0  0
   -2.6150   23.7890  -28.8680 C   0  0  0  0  0  0  0  0  0  0  0  0
   -4.0250   24.1120  -28.4430 C   0  0  0  0  0  0  0  0  0  0  0  0
   -5.0040   23.9550  -29.5830 C   0  0  0  0  0  0  0  0  0  0  0  0
   -6.0700   23.0430  -29.4720 C   0  0  0  0  0  0  0  0  0  0  0  0
   -6.9870   22.8840  -30.5210 C   0  0  0  0  0  0  0  0  0  0  0  0
   -8.1250   21.9150  -30.3880 C   0  0  0  0  0  0  0  0  0  0  0  0
   -6.8700   23.6800  -31.6680 C   0  0  0  0  0  0  0  0  0  0  0  0
   -5.8240   24.5970  -31.7810 C   0  0  0  0  0  0  0  0  0  0  0  0
   -4.8940   24.7400  -30.7470 C   0  0  0  0  0  0  0  0  0  0  0  0
   -3.8730   25.6740  -30.8820 O   0  0  0  0  0  0  0  0  0  0  0  0
   -2.3600   20.9390  -31.6500 C   0  0  0  0  0  0  0  0  0  0  0  0
   -0.2489   21.3140  -32.9552 H   0  0  0  0  0  0  0  0  0  0  0  0
    0.1598   20.5133  -34.5104 H   0  0  0  0  0  0  0  0  0  0  0  0
   -0.5880   22.1465  -34.5104 H   0  0  0  0  0  0  0  0  0  0  0  0
   -4.3581   19.8187  -34.1928 H   0  0  0  0  0  0  0  0  0  0  0  0
   -6.0073   19.7427  -32.3265 H   0  0  0  0  0  0  0  0  0  0  0  0
   -5.3312   20.4264  -30.0279 H   0  0  0  0  0  0  0  0  0  0  0  0
   -3.7616   21.3791  -28.5680 H   0  0  0  0  0  0  0  0  0  0  0  0
   -2.1983   20.5061  -28.8040 H   0  0  0  0  0  0  0  0  0  0  0  0
    0.5680   24.4558  -29.4715 H   0  0  0  0  0  0  0  0  0  0  0  0
   -4.3157   23.4330  -27.6279 H   0  0  0  0  0  0  0  0  0  0  0  0
   -4.0508   25.1607  -28.1119 H   0  0  0  0  0  0  0  0  0  0  0  0
   -6.1851   22.4490  -28.5533 H   0  0  0  0  0  0  0  0  0  0  0  0
   -8.3331   21.7378  -29.3225 H   0  0  0  0  0  0  0  0  0  0  0  0
   -9.0203   22.3323  -30.8720 H   0  0  0  0  0  0  0  0  0  0  0  0
   -7.8558   20.9646  -30.8720 H   0  0  0  0  0  0  0  0  0  0  0  0
   -7.6042   23.5820  -32.4813 H   0  0  0  0  0  0  0  0  0  0  0  0
   -5.7308   25.2109  -32.6890 H   0  0  0  0  0  0  0  0  0  0  0  0
   -1.3306   21.2763  -31.4589 H   0  0  0  0  0  0  0  0  0  0  0  0
  1  2  1  0
  2  3  1  0
  3  4  2  0
  4  5  1  0
  5  6  2  0
  6  7  1  0
  7  8  1  0
  8  9  1  0
  9 10  1  0
 10 11  1  0
 10 12  2  0
 12 13  1  0
 13 14  1  0
 13 15  2  0
 15 16  1  0
 16 17  1  0
 17 18  2  0
 18 19  1  0
 19 20  1  0
 19 21  2  0
 21 22  1  0
 22 23  2  0
 23 24  1  0
  7 25  2  0
 25  3  1  0
 15  9  1  0
 23 17  1  0
  1 26  1  0
  1 27  1  0
  1 28  1  0
  4 29  1  0
  5 30  1  0
  6 31  1  0
  8 32  1  0
  8 33  1  0
 12 34  1  0
 16 35  1  0
 16 36  1  0
 18 37  1  0
 20 38  1  0
 20 39  1  0
 20 40  1  0
 21 41  1  0
 22 42  1  0
 25 43  1  0
M  CHG  3  11  -1  14  -1  24  -1
M  END
>  <UniqueID>  (5) 
5

>  <SMILES>  (5) 
COc1cccc(Cn2c([O-])cc([O-])c2Cc2cc(C)ccc2[O-])c1

>  <Energy>  (5) 
69.0038684660438

>  <Genealogy>  (5) 
COc1cccc(Cn2c([O-])cc([O-])c2Cc2cc(C)ccc2[O-])c1 (protonated)
COc1cccc(Cn2c([O-])cc([O-])c2Cc2cc(C)ccc2[O-])c1 (3D coordinates assigned)
COc1cccc(Cn2c([O-])cc([O-])c2Cc2cc(C)ccc2[O-])c1 (optimized conformer: 69.0038684660438 kcal/mol)

>  <smiles>  (5) 
COc1cccc(Cn2c(O)cc(O)c2Cc2cc(C)ccc2O)c1

>  <score_type>  (5) 
oracle

>  <origin>  (5) 
adgpu

>  <m_score__min__energy>  (5) 
-12.699999999999999

>  <m_primary>  (5) 
energy

$$$$
5:0
     RDKit          3D

 62 65  0  0  0  0  0  0  0  0999 V2000
   -1.5680   21.6270  -26.7680 C   0  0  0  0  0  0  0  0  0  0  0  0
   -2.0310   22.6010  -27.8180 C   0  0  0  0  0  0  0  0  0  0  0  0
   -3.0750   22.2060  -28.6680 C   0  0  0  0  0  0  0  0  0  0  0  0
   -3.5930   23.0770  -29.6210 C   0  0  0  0  0  0  0  0  0  0  0  0
   -3.1110   24.3770  -29.7350 C   0  0  0  0  0  0  0  0  0  0  0  0
   -3.7950   25.2580  -30.6380 N   0  0  0  0  0  0  0  0  0  0  0  0
   -5.2040   25.3510  -30.8660 C   0  0  0  0  0  0  0  0  0  0  0  0
   -5.8720   26.1980  -30.2140 O   0  0  0  0  0  0  0  0  0  0  0  0
   -5.8710   24.5500  -31.8450 N   0  0  0  0  0  0  0  0  0  0  0  0
   -6.6240   23.3390  -31.6670 C   0  0  0  0  0  0  0  0  0  0  0  0
   -8.0200   23.3270  -31.4830 C   0  0  0  0  0  0  0  0  0  0  0  0
   -8.7100   22.1080  -31.4370 C   0  0  0  0  0  0  0  0  0  0  0  0
   -8.0250   20.8980  -31.6270 C   0  0  0  0  0  0  0  0  0  0  0  0
   -6.6340   20.9030  -31.7960 C   0  0  0  0  0  0  0  0  0  0  0  0
   -5.9420   22.1230  -31.7970 C   0  0  0  0  0  0  0  0  0  0  0  0
   -5.8700   19.6000  -31.9240 C   0  0  0  0  0  0  0  0  0  0  0  0
   -6.6540   18.4600  -32.4860 N   0  0  0  0  0  0  0  0  0  0  0  0
   -5.9980   17.9160  -33.6900 C   0  0  0  0  0  0  0  0  0  0  0  0
   -8.0850   18.7270  -32.7720 C   0  0  0  0  0  0  0  0  0  0  0  0
   -8.7470   19.5880  -31.6920 C   0  0  0  0  0  0  0  0  0  0  0  0
   -2.0550   24.8010  -28.8950 C   0  0  0  0  0  0  0  0  0  0  0  0
   -1.5930   26.1100  -28.9660 O   0  0  0  0  0  0  0  0  0  0  0  0
   -1.4900   23.9120  -27.9440 C   0  0  0  0  0  0  0  0  0  0  0  0
   -0.1150   24.4840  -26.9500 S   0  0  0  0  0  0  0  0  0  0  0  0
    1.0110   24.9820  -27.8130 O   0  0  0  0  0  0  0  0  0  0  0  0
    0.4300   23.3430  -26.1290 O   0  0  0  0  0  0  0  0  0  0  0  0
   -0.6200   25.7990  -25.8280 C   0  0  0  0  0  0  0  0  0  0  0  0
    0.1010   27.1220  -26.1500 C   0  0  0  0  0  0  0  0  0  0  0  0
   -0.3170   28.2210  -25.1570 C   0  0  0  0  0  0  0  0  0  0  0  0
   -0.1130   27.8240  -23.7430 N   0  0  0  0  0  0  0  0  0  0  0  0
    1.3050   27.8510  -23.3440 C   0  0  0  0  0  0  0  0  0  0  0  0
   -0.7750   26.5400  -23.4160 C   0  0  0  0  0  0  0  0  0  0  0  0
   -0.3730   25.3980  -24.3660 C   0  0  0  0  0  0  0  0  0  0  0  0
   -1.7658   22.0431  -25.7691 H   0  0  0  0  0  0  0  0  0  0  0  0
   -2.1111   20.6774  -26.8837 H   0  0  0  0  0  0  0  0  0  0  0  0
   -0.4887   21.4486  -26.8837 H   0  0  0  0  0  0  0  0  0  0  0  0
   -3.4906   21.1914  -28.5794 H   0  0  0  0  0  0  0  0  0  0  0  0
   -4.3936   22.7336  -30.2927 H   0  0  0  0  0  0  0  0  0  0  0  0
   -8.5689   24.2742  -31.3754 H   0  0  0  0  0  0  0  0  0  0  0  0
   -9.7941   22.0996  -31.2510 H   0  0  0  0  0  0  0  0  0  0  0  0
   -4.8470   22.1246  -31.9015 H   0  0  0  0  0  0  0  0  0  0  0  0
   -5.0047   19.7751  -32.5802 H   0  0  0  0  0  0  0  0  0  0  0  0
   -5.5910   19.3061  -30.9014 H   0  0  0  0  0  0  0  0  0  0  0  0
   -5.1833   17.2404  -33.3901 H   0  0  0  0  0  0  0  0  0  0  0  0
   -6.7341   17.3596  -34.2889 H   0  0  0  0  0  0  0  0  0  0  0  0
   -5.5874   18.7423  -34.2889 H   0  0  0  0  0  0  0  0  0  0  0  0
   -8.1605   19.2507  -33.7364 H   0  0  0  0  0  0  0  0  0  0  0  0
   -8.6078   17.7595  -32.7959 H   0  0  0  0  0  0  0  0  0  0  0  0
   -9.8034   19.7578  -31.9474 H   0  0  0  0  0  0  0  0  0  0  0  0
   -8.6970   19.0790  -30.7181 H   0  0  0  0  0  0  0  0  0  0  0  0
   -1.6993   25.9564  -25.9702 H   0  0  0  0  0  0  0  0  0  0  0  0
    1.1880   26.9674  -26.0820 H   0  0  0  0  0  0  0  0  0  0  0  0
   -0.1749   27.4384  -27.1667 H   0  0  0  0  0  0  0  0  0  0  0  0
    0.2798   29.1227  -25.3587 H   0  0  0  0  0  0  0  0  0  0  0  0
   -1.3924   28.4041  -25.2983 H   0  0  0  0  0  0  0  0  0  0  0  0
    1.3771   27.8524  -22.2464 H   0  0  0  0  0  0  0  0  0  0  0  0
    1.8154   26.9624  -23.7439 H   0  0  0  0  0  0  0  0  0  0  0  0
    1.7812   28.7584  -23.7439 H   0  0  0  0  0  0  0  0  0  0  0  0
   -0.5004   26.2553  -22.3896 H   0  0  0  0  0  0  0  0  0  0  0  0
   -1.8592   26.6917  -23.5236 H   0  0  0  0  0  0  0  0  0  0  0  0
    0.6948   25.1723  -24.2285 H   0  0  0  0  0  0  0  0  0  0  0  0
   -0.9822   24.5121  -24.1334 H   0  0  0  0  0  0  0  0  0  0  0  0
  1  2  1  0
  2  3  2  0
  3  4  1  0
  4  5  2  0
  5  6  1  0
  6  7  1  0
  7  8  2  0
  7  9  1  0
  9 10  1  0
 10 11  2  0
 11 12  1  0
 12 13  2  0
 13 14  1  0
 14 15  2  0
 14 16  1  0
 16 17  1  0
 17 18  1  0
 17 19  1  0
 19 20  1  0
  5 21  1  0
 21 22  1  0
 21 23  2  0
 23 24  1  0
 24 25  2  0
 24 26  2  0
 24 27  1  0
 27 28  1  0
 28 29  1  0
 29 30  1  0
 30 31  1  0
 30 32  1  0
 32 33  1  0
 23  2  1  0
 33 27  1  0
 15 10  1  0
 20 13  1  0
  1 34  1  0
  1 35  1  0
  1 36  1  0
  3 37  1  0
  4 38  1  0
 11 39  1  0
 12 40  1  0
 15 41  1  0
 16 42  1  0
 16 43  1  0
 18 44  1  0
 18 45  1  0
 18 46  1  0
 19 47  1  0
 19 48  1  0
 20 49  1  0
 20 50  1  0
 27 51  1  0
 28 52  1  0
 28 53  1  0
 29 54  1  0
 29 55  1  0
 31 56  1  0
 31 57  1  0
 31 58  1  0
 32 59  1  0
 32 60  1  0
 33 61  1  0
 33 62  1  0
M  CHG  3   6  -1   9  -1  22  -1
M  END
>  <UniqueID>  (6) 
6

>  <SMILES>  (6) 
Cc1ccc([N-]C(=O)[N-]c2ccc3c(c2)CN(C)CC3)c([O-])c1S(=O)(=O)C1CCN(C)CC1

>  <Energy>  (6) 
84.28259853529724

>  <Genealogy>  (6) 
Cc1ccc([N-]C(=O)[N-]c2ccc3c(c2)CN(C)CC3)c([O-])c1S(=O)(=O)C1CCN(C)CC1 (protonated)
Cc1ccc([N-]C(=O)[N-]c2ccc3c(c2)CN(C)CC3)c([O-])c1S(=O)(=O)C1CCN(C)CC1 (3D coordinates assigned)
Cc1ccc([N-]C(=O)[N-]c2ccc3c(c2)CN(C)CC3)c([O-])c1S(=O)(=O)C1CCN(C)CC1 (nonaromatic ring conformer: 84.28259853529724 kcal/mol)

>  <smiles>  (6) 
Cc1ccc(NC(=O)Nc2ccc3c(c2)CN(C)CC3)c(O)c1S(=O)(=O)C1CCN(C)CC1

>  <score_type>  (6) 
oracle

>  <origin>  (6) 
adgpu

>  <m_score__min__energy>  (6) 
-17.170000000000002

>  <m_primary>  (6) 
energy

$$$$
6:0
     RDKit          3D

 44 46  0  0  0  0  0  0  0  0999 V2000
   -6.2220   17.3550  -33.5200 C   0  0  0  0  0  0  0  0  0  0  0  0
   -6.4910   18.8030  -33.7910 C   0  0  0  0  0  0  0  0  0  0  0  0
   -6.1160   19.2860  -34.8930 O   0  0  0  0  0  0  0  0  0  0  0  0
   -7.1560   19.6400  -32.8200 N   0  0  0  0  0  0  0  0  0  0  0  0
   -6.6190   20.8330  -32.2590 C   0  0  0  0  0  0  0  0  0  0  0  0
   -5.2670   21.1770  -32.1210 C   0  0  0  0  0  0  0  0  0  0  0  0
   -4.9450   22.3930  -31.4970 C   0  0  0  0  0  0  0  0  0  0  0  0
   -5.9630   23.2370  -31.0090 C   0  0  0  0  0  0  0  0  0  0  0  0
   -5.5300   24.7400  -30.1960 S   0  0  0  0  0  0  0  0  0  0  0  0
   -6.7370   25.6290  -30.0740 O   0  0  0  0  0  0  0  0  0  0  0  0
   -4.4980   25.4520  -31.0230 O   0  0  0  0  0  0  0  0  0  0  0  0
   -4.8750   24.4360  -28.6110 N   0  0  0  0  0  0  0  0  0  0  0  0
   -4.4050   23.0550  -28.4720 C   0  0  0  0  0  0  0  0  0  0  0  0
   -2.8990   22.9700  -28.5400 C   0  0  0  0  0  0  0  0  0  0  0  0
   -2.2650   21.7610  -28.2000 C   0  0  0  0  0  0  0  0  0  0  0  0
   -0.8730   21.6560  -28.2250 C   0  0  0  0  0  0  0  0  0  0  0  0
   -0.0960   22.7550  -28.5960 C   0  0  0  0  0  0  0  0  0  0  0  0
   -0.7100   23.9580  -28.9460 C   0  0  0  0  0  0  0  0  0  0  0  0
   -2.1060   24.0780  -28.9250 C   0  0  0  0  0  0  0  0  0  0  0  0
   -2.6660   25.3030  -29.2940 O   0  0  0  0  0  0  0  0  0  0  0  0
   -7.3100   22.8570  -31.1440 C   0  0  0  0  0  0  0  0  0  0  0  0
   -7.6040   21.6420  -31.7630 C   0  0  0  0  0  0  0  0  0  0  0  0
   -8.9420   21.0310  -31.9700 C   0  0  0  0  0  0  0  0  0  0  0  0
   -8.6060   19.6320  -32.5630 C   0  0  2  0  0  0  0  0  0  0  0  0
   -8.9730   18.5200  -31.5750 C   0  0  0  0  0  0  0  0  0  0  0  0
   -6.1904   17.1850  -32.4337 H   0  0  0  0  0  0  0  0  0  0  0  0
   -7.0220   16.7441  -33.9636 H   0  0  0  0  0  0  0  0  0  0  0  0
   -5.2560   17.0722  -33.9636 H   0  0  0  0  0  0  0  0  0  0  0  0
   -4.4761   20.5093  -32.4932 H   0  0  0  0  0  0  0  0  0  0  0  0
   -3.8912   22.6889  -31.3883 H   0  0  0  0  0  0  0  0  0  0  0  0
   -4.7413   22.6595  -27.5022 H   0  0  0  0  0  0  0  0  0  0  0  0
   -4.8204   22.4654  -29.3025 H   0  0  0  0  0  0  0  0  0  0  0  0
   -2.8718   20.8900  -27.9117 H   0  0  0  0  0  0  0  0  0  0  0  0
   -0.3883   20.7070  -27.9523 H   0  0  0  0  0  0  0  0  0  0  0  0
    1.0008   22.6724  -28.6124 H   0  0  0  0  0  0  0  0  0  0  0  0
   -0.0930   24.8196  -29.2409 H   0  0  0  0  0  0  0  0  0  0  0  0
   -3.6110   25.5740  -29.0540 H   0  0  0  0  0  0  0  0  0  0  0  0
   -8.1159   23.5049  -30.7689 H   0  0  0  0  0  0  0  0  0  0  0  0
   -9.4839   20.9359  -31.0175 H   0  0  0  0  0  0  0  0  0  0  0  0
   -9.5939   21.6307  -32.6221 H   0  0  0  0  0  0  0  0  0  0  0  0
   -9.1777   19.4390  -33.4828 H   0  0  0  0  0  0  0  0  0  0  0  0
   -8.8512   18.8890  -30.5459 H   0  0  0  0  0  0  0  0  0  0  0  0
  -10.0185   18.2178  -31.7349 H   0  0  0  0  0  0  0  0  0  0  0  0
   -8.3127   17.6548  -31.7349 H   0  0  0  0  0  0  0  0  0  0  0  0
  1  2  1  0
  2  3  2  0
  2  4  1  0
  4  5  1  0
  5  6  2  0
  6  7  1  0
  7  8  2  0
  8  9  1  0
  9 10  2  0
  9 11  2  0
  9 12  1  0
 12 13  1  0
 13 14  1  0
 14 15  2  0
 15 16  1  0
 16 17  2  0
 17 18  1  0
 18 19  2  0
 19 20  1  0
  8 21  1  0
 21 22  2  0
 22 23  1  0
 23 24  1  0
 24 25  1  0
 24  4  1  0
 22  5  1  0
 19 14  1  0
  1 26  1  0
  1 27  1  0
  1 28  1  0
  6 29  1  0
  7 30  1  0
 13 31  1  0
 13 32  1  0
 15 33  1  0
 16 34  1  0
 17 35  1  0
 18 36  1  0
 20 37  1  0
 21 38  1  0
 23 39  1  0
 23 40  1  0
 24 41  1  6
 25 42  1  0
 25 43  1  0
 25 44  1  0
M  CHG  1  12  -1
M  END
>  <UniqueID>  (7) 
7

>  <SMILES>  (7) 
CC(=O)N1c2ccc(S(=O)(=O)[N-]Cc3ccccc3O)cc2C[C@@H]1C

>  <Energy>  (7) 
59.794535856435786

>  <Genealogy>  (7) 
CC(=O)N1c2ccc(S(=O)(=O)[N-]Cc3ccccc3O)cc2CC1C (protonated)
CC(=O)N1c2ccc(S(=O)(=O)[N-]Cc3ccccc3O)cc2C[C@@H]1C (chirality)
CC(=O)N1c2ccc(S(=O)(=O)[N-]Cc3ccccc3O)cc2C[C@@H]1C (3D coordinates assigned)
CC(=O)N1c2ccc(S(=O)(=O)[N-]Cc3ccccc3O)cc2C[C@@H]1C (nonaromatic ring conformer: 59.794535856435786 kcal/mol)

>  <smiles>  (7) 
CC(=O)N1c2ccc(S(=O)(=O)NCc3ccccc3O)cc2CC1C

>  <score_type>  (7) 
oracle

>  <origin>  (7) 
adgpu

>  <m_score__min__energy>  (7) 
-12.01

>  <m_primary>  (7) 
energy

$$$$
7:0
     RDKit          3D

 63 67  0  0  0  0  0  0  0  0999 V2000
   -5.0750   25.3840  -31.2400 O   0  0  0  0  0  0  0  0  0  0  0  0
   -4.4710   24.7110  -30.3660 C   0  0  0  0  0  0  0  0  0  0  0  0
   -3.2780   25.2470  -29.7760 N   0  0  0  0  0  0  0  0  0  0  0  0
   -2.3540   24.5270  -28.9510 C   0  0  0  0  0  0  0  0  0  0  0  0
   -2.6060   23.1980  -28.5650 C   0  0  0  0  0  0  0  0  0  0  0  0
   -1.6970   22.5110  -27.7480 C   0  0  0  0  0  0  0  0  0  0  0  0
   -2.0350   20.8520  -27.2390 S   0  0  0  0  0  0  0  0  0  0  0  0
   -3.5230   20.6390  -27.2220 O   0  0  0  0  0  0  0  0  0  0  0  0
   -1.5210   20.6560  -25.8400 O   0  0  0  0  0  0  0  0  0  0  0  0
   -1.2990   19.6590  -28.2840 N   0  0  0  0  0  0  0  0  0  0  0  0
   -0.2580   20.2400  -29.1270 C   0  0  0  0  0  0  0  0  0  0  0  0
    0.6710   19.0980  -29.5050 C   0  0  0  0  0  0  0  0  0  0  0  0
    0.4770   18.0550  -28.4150 C   0  0  0  0  0  0  0  0  0  0  0  0
   -0.6430   18.5910  -27.5310 C   0  0  0  0  0  0  0  0  0  0  0  0
   -0.5270   23.1550  -27.3230 C   0  0  0  0  0  0  0  0  0  0  0  0
   -0.2570   24.4630  -27.7300 C   0  0  0  0  0  0  0  0  0  0  0  0
   -1.1650   25.1510  -28.5470 C   0  0  0  0  0  0  0  0  0  0  0  0
   -0.8970   26.4590  -28.9480 O   0  0  0  0  0  0  0  0  0  0  0  0
   -5.0110   23.4420  -29.9720 N   0  0  0  0  0  0  0  0  0  0  0  0
   -5.6040   22.4680  -30.8440 C   0  0  0  0  0  0  0  0  0  0  0  0
   -6.8560   22.7550  -31.4020 C   0  0  0  0  0  0  0  0  0  0  0  0
   -7.4560   21.8630  -32.2950 C   0  0  0  0  0  0  0  0  0  0  0  0
   -6.8200   20.6640  -32.6180 C   0  0  0  0  0  0  0  0  0  0  0  0
   -5.5920   20.3440  -32.0330 C   0  0  0  0  0  0  0  0  0  0  0  0
   -4.9810   21.2310  -31.1350 C   0  0  0  0  0  0  0  0  0  0  0  0
   -3.4510   20.7170  -30.3400 S   0  0  0  0  0  0  0  0  0  0  0  0
   -2.6040   20.5140  -31.9000 C   0  0  0  0  0  0  0  0  0  0  0  0
   -1.8630   21.5280  -32.4110 N   0  0  0  0  0  0  0  0  0  0  0  0
   -1.2370   21.3900  -33.5790 N   0  0  0  0  0  0  0  0  0  0  0  0
   -1.3180   20.2360  -34.2890 C   0  0  0  0  0  0  0  0  0  0  0  0
   -2.0810   19.1720  -33.7790 C   0  0  0  0  0  0  0  0  0  0  0  0
   -2.2250   17.9220  -34.4910 N   0  0  0  0  0  0  0  0  0  0  0  0
   -3.5780   17.4600  -34.8370 C   0  0  0  0  0  0  0  0  0  0  0  0
   -3.5880   15.9510  -35.1070 C   0  0  0  0  0  0  0  0  0  0  0  0
   -2.5700   15.5980  -36.0190 O   0  0  0  0  0  0  0  0  0  0  0  0
   -1.3090   15.8220  -35.4200 C   0  0  0  0  0  0  0  0  0  0  0  0
   -1.0770   17.3140  -35.1790 C   0  0  0  0  0  0  0  0  0  0  0  0
   -2.7100   19.3480  -32.5860 N   0  0  0  0  0  0  0  0  0  0  0  0
   -3.5224   22.6944  -28.9064 H   0  0  0  0  0  0  0  0  0  0  0  0
   -0.7026   20.6841  -30.0298 H   0  0  0  0  0  0  0  0  0  0  0  0
    0.2841   21.0388  -28.5998 H   0  0  0  0  0  0  0  0  0  0  0  0
    0.3972   18.6859  -30.4875 H   0  0  0  0  0  0  0  0  0  0  0  0
    1.7183   19.4256  -29.5815 H   0  0  0  0  0  0  0  0  0  0  0  0
    0.1901   17.0885  -28.8549 H   0  0  0  0  0  0  0  0  0  0  0  0
    1.4016   17.8860  -27.8436 H   0  0  0  0  0  0  0  0  0  0  0  0
   -1.3624   17.7905  -27.3037 H   0  0  0  0  0  0  0  0  0  0  0  0
   -0.2474   18.9663  -26.5757 H   0  0  0  0  0  0  0  0  0  0  0  0
    0.1811   22.6281  -26.6665 H   0  0  0  0  0  0  0  0  0  0  0  0
    0.6723   24.9558  -27.4082 H   0  0  0  0  0  0  0  0  0  0  0  0
   -1.6180   27.0510  -29.3420 H   0  0  0  0  0  0  0  0  0  0  0  0
   -7.3711   23.6897  -31.1354 H   0  0  0  0  0  0  0  0  0  0  0  0
   -8.4304   22.1064  -32.7435 H   0  0  0  0  0  0  0  0  0  0  0  0
   -7.2855   19.9702  -33.3335 H   0  0  0  0  0  0  0  0  0  0  0  0
   -5.1016   19.3904  -32.2784 H   0  0  0  0  0  0  0  0  0  0  0  0
   -0.7934   20.1351  -35.2506 H   0  0  0  0  0  0  0  0  0  0  0  0
   -4.2587   17.6810  -34.0017 H   0  0  0  0  0  0  0  0  0  0  0  0
   -3.9057   17.9824  -35.7479 H   0  0  0  0  0  0  0  0  0  0  0  0
   -3.4263   15.4143  -34.1606 H   0  0  0  0  0  0  0  0  0  0  0  0
   -4.5608   15.6770  -35.5412 H   0  0  0  0  0  0  0  0  0  0  0  0
   -1.2680   15.2910  -34.4575 H   0  0  0  0  0  0  0  0  0  0  0  0
   -0.5267   15.4496  -36.0977 H   0  0  0  0  0  0  0  0  0  0  0  0
   -0.1772   17.4425  -34.5595 H   0  0  0  0  0  0  0  0  0  0  0  0
   -0.9492   17.8102  -36.1524 H   0  0  0  0  0  0  0  0  0  0  0  0
  1  2  2  0
  2  3  1  0
  3  4  1  0
  4  5  2  0
  5  6  1  0
  6  7  1  0
  7  8  2  0
  7  9  2  0
  7 10  1  0
 10 11  1  0
 11 12  1  0
 12 13  1  0
 13 14  1  0
  6 15  2  0
 15 16  1  0
 16 17  2  0
 17 18  1  0
  2 19  1  0
 19 20  1  0
 20 21  2  0
 21 22  1  0
 22 23  2  0
 23 24  1  0
 24 25  2  0
 25 26  1  0
 26 27  1  0
 27 28  2  0
 28 29  1  0
 29 30  2  0
 30 31  1  0
 31 32  1  0
 32 33  1  0
 33 34  1  0
 34 35  1  0
 35 36  1  0
 36 37  1  0
 31 38  2  0
 17  4  1  0
 25 20  1  0
 38 27  1  0
 14 10  1  0
 37 32  1  0
  5 39  1  0
 11 40  1  0
 11 41  1  0
 12 42  1  0
 12 43  1  0
 13 44  1  0
 13 45  1  0
 14 46  1  0
 14 47  1  0
 15 48  1  0
 16 49  1  0
 18 50  1  0
 21 51  1  0
 22 52  1  0
 23 53  1  0
 24 54  1  0
 30 55  1  0
 33 56  1  0
 33 57  1  0
 34 58  1  0
 34 59  1  0
 36 60  1  0
 36 61  1  0
 37 62  1  0
 37 63  1  0
M  CHG  2   3  -1  19  -1
M  END
>  <UniqueID>  (8) 
8

>  <SMILES>  (8) 
O=C([N-]c1cc(S(=O)(=O)N2CCCC2)ccc1O)[N-]c1ccccc1Sc1nncc(N2CCOCC2)n1

>  <Energy>  (8) 
78.40221894493205

>  <Genealogy>  (8) 
O=C([N-]c1cc(S(=O)(=O)N2CCCC2)ccc1O)[N-]c1ccccc1Sc1nncc(N2CCOCC2)n1 (protonated)
O=C([N-]c1cc(S(=O)(=O)N2CCCC2)ccc1O)[N-]c1ccccc1Sc1nncc(N2CCOCC2)n1 (3D coordinates assigned)
O=C([N-]c1cc(S(=O)(=O)N2CCCC2)ccc1O)[N-]c1ccccc1Sc1nncc(N2CCOCC2)n1 (nonaromatic ring conformer: 78.40221894493205 kcal/mol)

>  <smiles>  (8) 
O=C(Nc1cc(S(=O)(=O)N2CCCC2)ccc1O)Nc1ccccc1Sc1nncc(N2CCOCC2)n1

>  <score_type>  (8) 
oracle

>  <origin>  (8) 
adgpu

>  <m_score__min__energy>  (8) 
-12.4

>  <m_primary>  (8) 
energy

$$$$
8:0
     RDKit          3D

 51 53  0  0  0  0  0  0  0  0999 V2000
   -5.0430   18.2080  -34.9070 C   0  0  0  0  0  0  0  0  0  0  0  0
   -4.3890   18.6610  -33.6430 C   0  0  0  0  0  0  0  0  0  0  0  0
   -4.0710   17.8090  -32.7700 O   0  0  0  0  0  0  0  0  0  0  0  0
   -4.2080   20.0650  -33.3980 N   0  0  0  0  0  0  0  0  0  0  0  0
   -3.4390   20.6030  -32.3090 C   0  0  0  0  0  0  0  0  0  0  0  0
   -2.2140   21.2340  -32.5780 C   0  0  0  0  0  0  0  0  0  0  0  0
   -1.4360   21.7440  -31.5350 C   0  0  0  0  0  0  0  0  0  0  0  0
   -1.8680   21.6170  -30.2110 C   0  0  0  0  0  0  0  0  0  0  0  0
   -0.8680   22.2710  -28.8720 S   0  0  0  0  0  0  0  0  0  0  0  0
   -2.1500   23.4470  -28.3280 C   0  0  0  0  0  0  0  0  0  0  0  0
   -2.2680   24.5760  -29.3110 C   0  0  0  0  0  0  0  0  0  0  0  0
   -1.6300   25.6420  -29.1030 O   0  0  0  0  0  0  0  0  0  0  0  0
   -3.1160   24.4930  -30.4630 N   0  0  0  0  0  0  0  0  0  0  0  0
   -4.5470   24.4040  -30.4610 C   0  0  0  0  0  0  0  0  0  0  0  0
   -5.3390   25.3010  -29.7220 C   0  0  0  0  0  0  0  0  0  0  0  0
   -6.7300   25.1700  -29.7190 C   0  0  0  0  0  0  0  0  0  0  0  0
   -7.3400   24.1370  -30.4330 C   0  0  0  0  0  0  0  0  0  0  0  0
   -6.5580   23.2160  -31.1450 C   0  0  0  0  0  0  0  0  0  0  0  0
   -7.3250   21.8890  -32.0200 S   0  0  0  0  0  0  0  0  0  0  0  0
   -6.4860   21.5350  -33.2160 O   0  0  0  0  0  0  0  0  0  0  0  0
   -8.6700   22.3400  -32.5180 O   0  0  0  0  0  0  0  0  0  0  0  0
   -7.5300   20.4680  -31.0160 N   0  0  0  0  0  0  0  0  0  0  0  0
   -6.7670   19.3320  -31.5420 C   0  0  0  0  0  0  0  0  0  0  0  0
   -7.7120   18.4480  -32.3420 C   0  0  0  0  0  0  0  0  0  0  0  0
   -9.1120   18.9070  -31.9830 C   0  0  0  0  0  0  0  0  0  0  0  0
   -8.9330   20.0400  -30.9840 C   0  0  0  0  0  0  0  0  0  0  0  0
   -5.1630   23.3530  -31.1530 C   0  0  0  0  0  0  0  0  0  0  0  0
   -3.0740   20.9660  -29.9310 C   0  0  0  0  0  0  0  0  0  0  0  0
   -3.8550   20.4570  -30.9720 C   0  0  0  0  0  0  0  0  0  0  0  0
   -5.9251   17.5970  -34.6649 H   0  0  0  0  0  0  0  0  0  0  0  0
   -5.3542   19.0850  -35.4935 H   0  0  0  0  0  0  0  0  0  0  0  0
   -4.3314   17.6083  -35.4935 H   0  0  0  0  0  0  0  0  0  0  0  0
   -4.7340   20.7340  -34.0060 H   0  0  0  0  0  0  0  0  0  0  0  0
   -1.8642   21.3276  -33.6167 H   0  0  0  0  0  0  0  0  0  0  0  0
   -0.4825   22.2460  -31.7558 H   0  0  0  0  0  0  0  0  0  0  0  0
   -3.1155   22.9248  -28.2567 H   0  0  0  0  0  0  0  0  0  0  0  0
   -1.8701   23.8542  -27.3452 H   0  0  0  0  0  0  0  0  0  0  0  0
   -4.8624   26.1073  -29.1452 H   0  0  0  0  0  0  0  0  0  0  0  0
   -7.3466   25.8832  -29.1522 H   0  0  0  0  0  0  0  0  0  0  0  0
   -8.4362   24.0453  -30.4371 H   0  0  0  0  0  0  0  0  0  0  0  0
   -5.9589   19.6968  -32.1931 H   0  0  0  0  0  0  0  0  0  0  0  0
   -6.3232   18.7591  -30.7144 H   0  0  0  0  0  0  0  0  0  0  0  0
   -7.5327   18.5731  -33.4201 H   0  0  0  0  0  0  0  0  0  0  0  0
   -7.5635   17.3831  -32.1098 H   0  0  0  0  0  0  0  0  0  0  0  0
   -9.6390   19.2662  -32.8792 H   0  0  0  0  0  0  0  0  0  0  0  0
   -9.7116   18.0866  -31.5617 H   0  0  0  0  0  0  0  0  0  0  0  0
   -9.5849   20.8828  -31.2573 H   0  0  0  0  0  0  0  0  0  0  0  0
   -9.2012   19.6987  -29.9733 H   0  0  0  0  0  0  0  0  0  0  0  0
   -4.5469   22.6295  -31.7071 H   0  0  0  0  0  0  0  0  0  0  0  0
   -3.4084   20.8545  -28.8890 H   0  0  0  0  0  0  0  0  0  0  0  0
   -4.7991   19.9399  -30.7457 H   0  0  0  0  0  0  0  0  0  0  0  0
  1  2  1  0
  2  3  2  0
  2  4  1  0
  4  5  1  0
  5  6  2  0
  6  7  1  0
  7  8  2  0
  8  9  1  0
  9 10  1  0
 10 11  1  0
 11 12  2  0
 11 13  1  0
 13 14  1  0
 14 15  2  0
 15 16  1  0
 16 17  2  0
 17 18  1  0
 18 19  1  0
 19 20  2  0
 19 21  2  0
 19 22  1  0
 22 23  1  0
 23 24  1  0
 24 25  1  0
 25 26  1  0
 18 27  2  0
  8 28  1  0
 28 29  2  0
 29  5  1  0
 27 14  1  0
 26 22  1  0
  1 30  1  0
  1 31  1  0
  1 32  1  0
  4 33  1  0
  6 34  1  0
  7 35  1  0
 10 36  1  0
 10 37  1  0
 15 38  1  0
 16 39  1  0
 17 40  1  0
 23 41  1  0
 23 42  1  0
 24 43  1  0
 24 44  1  0
 25 45  1  0
 25 46  1  0
 26 47  1  0
 26 48  1  0
 27 49  1  0
 28 50  1  0
 29 51  1  0
M  CHG  1  13  -1
M  END
>  <UniqueID>  (9) 
9

>  <SMILES>  (9) 
CC(=O)Nc1ccc(SCC(=O)[N-]c2cccc(S(=O)(=O)N3CCCC3)c2)cc1

>  <Energy>  (9) 
53.493926195231104

>  <Genealogy>  (9) 
CC(=O)Nc1ccc(SCC(=O)[N-]c2cccc(S(=O)(=O)N3CCCC3)c2)cc1 (protonated)
CC(=O)Nc1ccc(SCC(=O)[N-]c2cccc(S(=O)(=O)N3CCCC3)c2)cc1 (3D coordinates assigned)
CC(=O)Nc1ccc(SCC(=O)[N-]c2cccc(S(=O)(=O)N3CCCC3)c2)cc1 (nonaromatic ring conformer: 53.493926195231104 kcal/mol)

>  <smiles>  (9) 
CC(=O)Nc1ccc(SCC(=O)Nc2cccc(S(=O)(=O)N3CCCC3)c2)cc1

>  <score_type>  (9) 
oracle

>  <origin>  (9) 
adgpu

>  <m_score__min__energy>  (9) 
-11.859999999999999

>  <m_primary>  (9) 
energy

$$$$
9:0
     RDKit          3D

 54 56  0  0  0  0  0  0  0  0999 V2000
   -0.3340   23.7900  -28.9510 C   0  0  0  0  0  0  0  0  0  0  0  0
   -1.1920   24.4510  -27.9210 C   0  0  0  0  0  0  0  0  0  0  0  0
   -0.7340   25.3710  -27.0510 N   0  0  0  0  0  0  0  0  0  0  0  0
   -1.7540   25.7560  -26.3000 N   0  0  0  0  0  0  0  0  0  0  0  0
   -1.6220   26.7300  -25.2210 C   0  0  0  0  0  0  0  0  0  0  0  0
   -2.8760   25.0860  -26.6560 C   0  0  0  0  0  0  0  0  0  0  0  0
   -4.2010   25.2360  -25.9640 C   0  0  0  0  0  0  0  0  0  0  0  0
   -2.5490   24.2630  -27.7290 C   0  0  0  0  0  0  0  0  0  0  0  0
   -3.3620   23.3700  -28.5050 N   0  0  0  0  0  0  0  0  0  0  0  0
   -4.0800   23.6600  -30.0560 S   0  0  0  0  0  0  0  0  0  0  0  0
   -5.5530   23.3720  -29.9730 O   0  0  0  0  0  0  0  0  0  0  0  0
   -3.8640   25.0810  -30.4930 O   0  0  0  0  0  0  0  0  0  0  0  0
   -3.3280   22.5920  -31.2460 C   0  0  0  0  0  0  0  0  0  0  0  0
   -1.9660   22.2780  -31.1240 C   0  0  0  0  0  0  0  0  0  0  0  0
   -1.3370   21.4710  -32.0760 C   0  0  0  0  0  0  0  0  0  0  0  0
   -2.0610   20.9730  -33.1630 C   0  0  0  0  0  0  0  0  0  0  0  0
   -1.4090   20.1480  -34.1480 C   0  0  0  0  0  0  0  0  0  0  0  0
   -0.8860   19.4860  -34.9380 N   0  0  0  0  0  0  0  0  0  0  0  0
   -3.4220   21.2730  -33.2900 C   0  0  0  0  0  0  0  0  0  0  0  0
   -4.0660   22.0620  -32.3280 C   0  0  0  0  0  0  0  0  0  0  0  0
   -5.4340   22.3130  -32.4750 O   0  0  0  0  0  0  0  0  0  0  0  0
   -6.4310   21.3390  -32.3230 C   0  0  0  0  0  0  0  0  0  0  0  0
   -7.6910   21.7370  -31.8710 C   0  0  0  0  0  0  0  0  0  0  0  0
   -8.7010   20.7970  -31.6710 C   0  0  0  0  0  0  0  0  0  0  0  0
   -8.4710   19.4400  -31.9340 C   0  0  0  0  0  0  0  0  0  0  0  0
   -9.4900   18.5140  -31.7110 O   0  0  0  0  0  0  0  0  0  0  0  0
   -7.2140   19.0200  -32.4200 C   0  0  0  0  0  0  0  0  0  0  0  0
   -6.9350   17.5510  -32.7070 C   0  0  0  0  0  0  0  0  0  0  0  0
   -6.3300   17.3610  -34.1040 C   0  0  0  0  0  0  0  0  0  0  0  0
   -6.0300   16.9460  -31.6280 C   0  0  0  0  0  0  0  0  0  0  0  0
   -6.2020   19.9820  -32.6140 C   0  0  0  0  0  0  0  0  0  0  0  0
    0.4426   23.1917  -28.4522 H   0  0  0  0  0  0  0  0  0  0  0  0
   -0.9547   23.1344  -29.5794 H   0  0  0  0  0  0  0  0  0  0  0  0
    0.1415   24.5574  -29.5794 H   0  0  0  0  0  0  0  0  0  0  0  0
   -1.6918   26.2149  -24.2515 H   0  0  0  0  0  0  0  0  0  0  0  0
   -0.6473   27.2339  -25.2991 H   0  0  0  0  0  0  0  0  0  0  0  0
   -2.4274   27.4752  -25.2991 H   0  0  0  0  0  0  0  0  0  0  0  0
   -4.0497   25.2189  -24.8746 H   0  0  0  0  0  0  0  0  0  0  0  0
   -4.6607   26.1919  -26.2554 H   0  0  0  0  0  0  0  0  0  0  0  0
   -4.8628   24.4070  -26.2554 H   0  0  0  0  0  0  0  0  0  0  0  0
   -1.3893   22.6697  -30.2732 H   0  0  0  0  0  0  0  0  0  0  0  0
   -0.2697   21.2272  -31.9696 H   0  0  0  0  0  0  0  0  0  0  0  0
   -3.9892   20.8872  -34.1499 H   0  0  0  0  0  0  0  0  0  0  0  0
   -7.8881   22.8006  -31.6712 H   0  0  0  0  0  0  0  0  0  0  0  0
   -9.6855   21.1229  -31.3041 H   0  0  0  0  0  0  0  0  0  0  0  0
   -9.5500   17.9880  -30.8470 H   0  0  0  0  0  0  0  0  0  0  0  0
   -7.8959   17.0160  -32.6853 H   0  0  0  0  0  0  0  0  0  0  0  0
   -5.2844   17.0326  -34.0092 H   0  0  0  0  0  0  0  0  0  0  0  0
   -6.9050   16.6002  -34.6522 H   0  0  0  0  0  0  0  0  0  0  0  0
   -6.3668   18.3139  -34.6522 H   0  0  0  0  0  0  0  0  0  0  0  0
   -6.4205   17.2070  -30.6333 H   0  0  0  0  0  0  0  0  0  0  0  0
   -6.0092   15.8517  -31.7382 H   0  0  0  0  0  0  0  0  0  0  0  0
   -5.0109   17.3451  -31.7382 H   0  0  0  0  0  0  0  0  0  0  0  0
   -5.2204   19.6673  -32.9980 H   0  0  0  0  0  0  0  0  0  0  0  0
  1  2  1  0
  2  3  2  0
  3  4  1  0
  4  5  1  0
  4  6  1  0
  6  7  1  0
  6  8  2  0
  8  9  1  0
  9 10  1  0
 10 11  2  0
 10 12  2  0
 10 13  1  0
 13 14  2  0
 14 15  1  0
 15 16  2  0
 16 17  1  0
 17 18  3  0
 16 19  1  0
 19 20  2  0
 20 21  1  0
 21 22  1  0
 22 23  2  0
 23 24  1  0
 24 25  2  0
 25 26  1  0
 25 27  1  0
 27 28  1  0
 28 29  1  0
 28 30  1  0
 27 31  2  0
  8  2  1  0
 20 13  1  0
 31 22  1  0
  1 32  1  0
  1 33  1  0
  1 34  1  0
  5 35  1  0
  5 36  1  0
  5 37  1  0
  7 38  1  0
  7 39  1  0
  7 40  1  0
 14 41  1  0
 15 42  1  0
 19 43  1  0
 23 44  1  0
 24 45  1  0
 26 46  1  0
 28 47  1  0
 29 48  1  0
 29 49  1  0
 29 50  1  0
 30 51  1  0
 30 52  1  0
 30 53  1  0
 31 54  1  0
M  CHG  1   9  -1
M  END
>  <UniqueID>  (10) 
10

>  <SMILES>  (10) 
Cc1nn(C)c(C)c1[N-]S(=O)(=O)c1ccc(C#N)cc1Oc1ccc(O)c(C(C)C)c1

>  <Energy>  (10) 
94.39095192277063

>  <Genealogy>  (10) 
Cc1nn(C)c(C)c1[N-]S(=O)(=O)c1ccc(C#N)cc1Oc1ccc(O)c(C(C)C)c1 (protonated)
Cc1nn(C)c(C)c1[N-]S(=O)(=O)c1ccc(C#N)cc1Oc1ccc(O)c(C(C)C)c1 (3D coordinates assigned)
Cc1nn(C)c(C)c1[N-]S(=O)(=O)c1ccc(C#N)cc1Oc1ccc(O)c(C(C)C)c1 (optimized conformer: 94.39095192277063 kcal/mol)

>  <smiles>  (10) 
Cc1nn(C)c(C)c1NS(=O)(=O)c1ccc(C#N)cc1Oc1ccc(O)c(C(C)C)c1

>  <score_type>  (10) 
oracle

>  <origin>  (10) 
adgpu

>  <m_score__min__energy>  (10) 
-11.16

>  <m_primary>  (10) 
energy

$$$$
10:0
     RDKit          3D

 91 96  0  0  1  0  0  0  0  0999 V2000
    0.6340   23.4660  -26.2510 C   0  0  0  0  0  0  0  0  0  0  0  0
    0.5710   24.2260  -27.3450 C   0  0  0  0  0  0  0  0  0  0  0  0
   -0.6570   24.3170  -28.1350 C   0  0  0  0  0  0  0  0  0  0  0  0
   -0.8070   25.3500  -28.8260 O   0  0  0  0  0  0  0  0  0  0  0  0
   -1.6000   23.2440  -28.0760 N   0  0  0  0  0  0  0  0  0  0  0  0
   -2.8140   23.2470  -28.8140 C   0  0  0  0  0  0  0  0  0  0  0  0
   -3.7000   24.2520  -28.5790 C   0  0  0  0  0  0  0  0  0  0  0  0
   -4.8760   24.2450  -29.2670 C   0  0  0  0  0  0  0  0  0  0  0  0
   -5.7130   25.2850  -29.0510 N   0  0  0  0  0  0  0  0  0  0  0  0
   -6.8510   25.3130  -29.7610 C   0  0  0  0  0  0  0  0  0  0  0  0
   -7.1730   24.3720  -30.6440 N   0  0  0  0  0  0  0  0  0  0  0  0
   -6.3130   23.3200  -30.8490 C   0  0  0  0  0  0  0  0  0  0  0  0
   -6.6690   22.4530  -31.6160 N   0  0  0  0  0  0  0  0  0  0  0  0
   -6.1600   21.2890  -32.0790 C   0  0  0  0  0  0  0  0  0  0  0  0
   -5.2050   21.0750  -33.0730 C   0  0  0  0  0  0  0  0  0  0  0  0
   -4.9700   19.7790  -33.5570 C   0  0  0  0  0  0  0  0  0  0  0  0
   -5.6160   18.6840  -33.1220 C   0  0  0  0  0  0  0  0  0  0  0  0
   -5.6590   17.3560  -33.5090 N   0  0  0  0  0  0  0  0  0  0  0  0
   -5.7100   16.0630  -33.8860 C   0  0  0  0  0  0  0  0  0  0  0  0
   -4.3020   15.4780  -33.9040 C   0  0  0  0  0  0  0  0  0  0  0  0
   -3.3430   16.4460  -34.2800 C   0  0  0  0  0  0  0  0  0  0  0  0
   -1.9960   16.1840  -34.1870 C   0  0  0  0  0  0  0  0  0  0  0  0
   -0.7590   17.3460  -34.5120 S   0  0  0  0  0  0  0  0  0  0  0  0
   -0.0900   17.0130  -35.8380 O   0  0  0  0  0  0  0  0  0  0  0  0
    0.3120   17.2280  -33.4570 O   0  0  0  0  0  0  0  0  0  0  0  0
   -1.3750   18.9650  -34.5490 N   0  0  0  0  0  0  0  0  0  0  0  0
   -0.3140   19.8860  -34.8230 C   0  0  0  0  0  0  0  0  0  0  0  0
   -0.5600   21.1450  -34.0770 C   0  0  0  0  0  0  0  0  0  0  0  0
   -1.7910   20.8320  -33.2360 C   0  0  0  0  0  0  0  0  0  0  0  0
   -1.7810   19.3250  -33.1700 C   0  0  0  0  0  0  0  0  0  0  0  0
   -1.6320   14.9230  -33.7150 C   0  0  0  0  0  0  0  0  0  0  0  0
   -2.5790   13.9880  -33.3550 C   0  0  0  0  0  0  0  0  0  0  0  0
   -3.9550   14.2580  -33.4480 C   0  0  0  0  0  0  0  0  0  0  0  0
   -4.8130   13.1880  -33.1320 N   0  0  0  0  0  0  0  0  0  0  0  0
   -4.9370   12.8720  -31.6960 C   0  0  0  0  0  0  0  0  0  0  0  0
   -5.5890   11.5100  -31.6080 C   0  0  0  0  0  0  0  0  0  0  0  0
   -6.8820   11.6720  -32.1100 O   0  0  0  0  0  0  0  0  0  0  0  0
   -6.9300   12.0020  -33.4520 C   0  0  0  0  0  0  0  0  0  0  0  0
   -5.5830   12.4020  -34.0340 C   0  0  0  0  0  0  0  0  0  0  0  0
   -6.5960   18.9160  -32.0910 C   0  0  0  0  0  0  0  0  0  0  0  0
   -7.3060   17.8190  -31.5820 O   0  0  0  0  0  0  0  0  0  0  0  0
   -6.8620   20.1320  -31.5910 C   0  0  0  0  0  0  0  0  0  0  0  0
   -5.1330   23.2380  -30.1610 C   0  0  0  0  0  0  0  0  0  0  0  0
   -4.2380   22.2360  -30.3860 C   0  0  0  0  0  0  0  0  0  0  0  0
   -3.0030   22.2050  -29.6980 C   0  0  0  0  0  0  0  0  0  0  0  0
   -2.1390   21.2910  -29.8910 O   0  0  0  0  0  0  0  0  0  0  0  0
   -1.2630   20.3350  -30.0420 C   0  0  0  0  0  0  0  0  0  0  0  0
   -0.8720   19.7800  -28.6530 C   0  0  0  0  0  0  0  0  0  0  0  0
   -1.4980   20.4590  -27.6350 O   0  0  0  0  0  0  0  0  0  0  0  0
   -2.2700   19.6360  -26.8330 C   0  0  0  0  0  0  0  0  0  0  0  0
    1.5676   23.4121  -25.6717 H   0  0  0  0  0  0  0  0  0  0  0  0
   -0.2476   22.8930  -25.9279 H   0  0  0  0  0  0  0  0  0  0  0  0
    1.4585   24.7948  -27.6591 H   0  0  0  0  0  0  0  0  0  0  0  0
   -1.3540   22.4490  -27.4560 H   0  0  0  0  0  0  0  0  0  0  0  0
   -3.4735   25.0478  -27.8541 H   0  0  0  0  0  0  0  0  0  0  0  0
   -5.5300   26.0480  -28.3810 H   0  0  0  0  0  0  0  0  0  0  0  0
   -7.5476   26.1501  -29.6062 H   0  0  0  0  0  0  0  0  0  0  0  0
   -4.6349   21.9240  -33.4783 H   0  0  0  0  0  0  0  0  0  0  0  0
   -4.2095   19.6515  -34.3415 H   0  0  0  0  0  0  0  0  0  0  0  0
   -7.0000   17.4410  -33.6740 H   0  0  0  0  0  0  0  0  0  0  0  0
   -6.3315   15.4989  -33.1750 H   0  0  0  0  0  0  0  0  0  0  0  0
   -6.1466   15.9938  -34.8933 H   0  0  0  0  0  0  0  0  0  0  0  0
   -3.6794   17.4246  -34.6530 H   0  0  0  0  0  0  0  0  0  0  0  0
    0.6441   19.4499  -34.5039 H   0  0  0  0  0  0  0  0  0  0  0  0
   -0.2746   20.0960  -35.9021 H   0  0  0  0  0  0  0  0  0  0  0  0
    0.2988   21.3959  -33.4370 H   0  0  0  0  0  0  0  0  0  0  0  0
   -0.7052   22.0113  -34.7391 H   0  0  0  0  0  0  0  0  0  0  0  0
   -1.7064   21.2725  -32.2316 H   0  0  0  0  0  0  0  0  0  0  0  0
   -2.7205   21.2418  -33.6579 H   0  0  0  0  0  0  0  0  0  0  0  0
   -1.0529   18.9611  -32.4300 H   0  0  0  0  0  0  0  0  0  0  0  0
   -2.7403   18.8859  -32.8586 H   0  0  0  0  0  0  0  0  0  0  0  0
   -0.5653   14.6688  -33.6280 H   0  0  0  0  0  0  0  0  0  0  0  0
   -2.2492   13.0058  -32.9856 H   0  0  0  0  0  0  0  0  0  0  0  0
   -3.9430   12.8481  -31.2254 H   0  0  0  0  0  0  0  0  0  0  0  0
   -5.5349   13.6326  -31.1726 H   0  0  0  0  0  0  0  0  0  0  0  0
   -5.0323   10.7794  -32.2132 H   0  0  0  0  0  0  0  0  0  0  0  0
   -5.6010   11.1338  -30.5744 H   0  0  0  0  0  0  0  0  0  0  0  0
   -7.3042   11.1311  -34.0102 H   0  0  0  0  0  0  0  0  0  0  0  0
   -7.5911   12.8764  -33.5436 H   0  0  0  0  0  0  0  0  0  0  0  0
   -5.0187   11.4897  -34.2776 H   0  0  0  0  0  0  0  0  0  0  0  0
   -5.7729   13.0106  -34.9304 H   0  0  0  0  0  0  0  0  0  0  0  0
   -6.8820   17.0710  -31.0440 H   0  0  0  0  0  0  0  0  0  0  0  0
   -7.6214   20.2451  -30.8032 H   0  0  0  0  0  0  0  0  0  0  0  0
   -4.4783   21.4434  -31.1099 H   0  0  0  0  0  0  0  0  0  0  0  0
   -1.6990   19.5292  -30.6508 H   0  0  0  0  0  0  0  0  0  0  0  0
   -0.3691   20.7292  -30.5476 H   0  0  0  0  0  0  0  0  0  0  0  0
   -1.1573   18.7189  -28.6008 H   0  0  0  0  0  0  0  0  0  0  0  0
    0.2138   19.9053  -28.5291 H   0  0  0  0  0  0  0  0  0  0  0  0
   -2.0634   19.8562  -25.7753 H   0  0  0  0  0  0  0  0  0  0  0  0
   -3.3350   19.8134  -27.0432 H   0  0  0  0  0  0  0  0  0  0  0  0
   -2.0249   18.5845  -27.0432 H   0  0  0  0  0  0  0  0  0  0  0  0
  1  2  2  0
  2  3  1  0
  3  4  2  0
  3  5  1  0
  5  6  1  0
  6  7  2  0
  7  8  1  0
  8  9  1  0
  9 10  1  0
 10 11  2  0
 11 12  1  0
 12 13  2  0
 13 14  1  0
 14 15  2  0
 15 16  1  0
 16 17  2  0
 17 18  1  0
 18 19  1  0
 19 20  1  0
 20 21  2  0
 21 22  1  0
 22 23  1  0
 23 24  2  0
 23 25  2  0
 23 26  1  0
 26 27  1  0
 27 28  1  0
 28 29  1  0
 29 30  1  0
 22 31  2  0
 31 32  1  0
 32 33  2  0
 33 34  1  0
 34 35  1  0
 35 36  1  0
 36 37  1  0
 37 38  1  0
 38 39  1  0
 17 40  1  0
 40 41  1  0
 40 42  2  0
 12 43  1  0
 43 44  1  0
 44 45  2  0
 45 46  1  0
 46 47  1  0
 47 48  1  0
 48 49  1  0
 49 50  1  0
 45  6  1  0
 43  8  2  0
 42 14  1  0
 33 20  1  0
 39 34  1  0
 30 26  1  0
  1 51  1  0
  1 52  1  0
  2 53  1  0
  5 54  1  0
  7 55  1  0
  9 56  1  0
 10 57  1  0
 15 58  1  0
 16 59  1  0
 18 60  1  0
 19 61  1  0
 19 62  1  0
 21 63  1  0
 27 64  1  0
 27 65  1  0
 28 66  1  0
 28 67  1  0
 29 68  1  0
 29 69  1  0
 30 70  1  0
 30 71  1  0
 31 72  1  0
 32 73  1  0
 35 74  1  0
 35 75  1  0
 36 76  1  0
 36 77  1  0
 38 78  1  0
 38 79  1  0
 39 80  1  0
 39 81  1  0
 41 82  1  0
 42 83  1  0
 44 84  1  0
 47 85  1  0
 47 86  1  0
 48 87  1  0
 48 88  1  0
 50 89  1  0
 50 90  1  0
 50 91  1  0
M  END
>  <smiles>  (11) 
C=CC(=O)Nc1cc2[nH]cnc(=Nc3ccc(NCc4cc(S(=O)(=O)N5CCCC5)ccc4N4CCOCC4)c(O)c3)c2cc1OCCOC

>  <score_type>  (11) 
oracle

>  <origin>  (11) 
adgpu

>  <m_score__min__energy>  (11) 
-11.050000000000001

>  <m_primary>  (11) 
energy

$$$$
11:0
     RDKit          3D

 58 61  0  0  0  0  0  0  0  0999 V2000
   -4.1590   25.3000  -30.2300 O   0  0  0  0  0  0  0  0  0  0  0  0
   -3.6300   24.2060  -30.5700 C   0  0  0  0  0  0  0  0  0  0  0  0
   -4.2170   23.4530  -31.6380 N   0  0  0  0  0  0  0  0  0  0  0  0
   -5.5430   22.9070  -31.6180 C   0  0  0  0  0  0  0  0  0  0  0  0
   -6.6740   23.7340  -31.5080 C   0  0  0  0  0  0  0  0  0  0  0  0
   -7.9550   23.1770  -31.5110 C   0  0  0  0  0  0  0  0  0  0  0  0
   -8.1160   21.7940  -31.6230 C   0  0  0  0  0  0  0  0  0  0  0  0
   -6.9950   20.9590  -31.7310 C   0  0  0  0  0  0  0  0  0  0  0  0
   -7.1930   19.2050  -31.8120 S   0  0  0  0  0  0  0  0  0  0  0  0
   -8.5290   18.8260  -31.2370 O   0  0  0  0  0  0  0  0  0  0  0  0
   -6.1260   18.5570  -30.9720 O   0  0  0  0  0  0  0  0  0  0  0  0
   -7.0970   18.6040  -33.4550 N   0  0  0  0  0  0  0  0  0  0  0  0
   -6.8400   17.1560  -33.4950 C   0  0  0  0  0  0  0  0  0  0  0  0
   -5.4810   16.9380  -34.1430 C   0  0  0  0  0  0  0  0  0  0  0  0
   -5.2720   18.1770  -34.9770 C   0  0  0  0  0  0  0  0  0  0  0  0
   -6.0310   19.2630  -34.2290 C   0  0  0  0  0  0  0  0  0  0  0  0
   -5.7110   21.5240  -31.7470 C   0  0  0  0  0  0  0  0  0  0  0  0
   -2.4110   23.7370  -29.8730 C   0  0  0  0  0  0  0  0  0  0  0  0
   -2.0380   22.3880  -29.9660 C   0  0  0  0  0  0  0  0  0  0  0  0
   -0.8690   21.9250  -29.3430 C   0  0  0  0  0  0  0  0  0  0  0  0
   -0.3620   20.2460  -29.5440 S   0  0  0  0  0  0  0  0  0  0  0  0
   -1.2870   19.3510  -28.7650 O   0  0  0  0  0  0  0  0  0  0  0  0
    1.0260   20.0790  -28.9880 O   0  0  0  0  0  0  0  0  0  0  0  0
   -0.3830   19.7730  -31.2300 N   0  0  0  0  0  0  0  0  0  0  0  0
   -1.7320   19.3190  -31.6550 C   0  0  0  0  0  0  0  0  0  0  0  0
   -2.4930   20.3800  -32.4660 C   0  0  0  0  0  0  0  0  0  0  0  0
   -1.7090   20.7770  -33.7330 C   0  0  0  0  0  0  0  0  0  0  0  0
   -0.1830   20.6750  -33.5450 C   0  0  0  0  0  0  0  0  0  0  0  0
    0.2020   20.8440  -32.0700 C   0  0  0  0  0  0  0  0  0  0  0  0
   -0.0900   22.8120  -28.5910 C   0  0  0  0  0  0  0  0  0  0  0  0
   -0.4620   24.1530  -28.4780 C   0  0  0  0  0  0  0  0  0  0  0  0
   -1.6160   24.6200  -29.1140 C   0  0  0  0  0  0  0  0  0  0  0  0
   -1.9760   25.9550  -28.9650 O   0  0  0  0  0  0  0  0  0  0  0  0
   -6.5501   24.8234  -31.4193 H   0  0  0  0  0  0  0  0  0  0  0  0
   -8.8376   23.8279  -31.4251 H   0  0  0  0  0  0  0  0  0  0  0  0
   -9.1261   21.3584  -31.6265 H   0  0  0  0  0  0  0  0  0  0  0  0
   -6.8359   16.7491  -32.4730 H   0  0  0  0  0  0  0  0  0  0  0  0
   -7.6249   16.6442  -34.0712 H   0  0  0  0  0  0  0  0  0  0  0  0
   -4.6945   16.8431  -33.3798 H   0  0  0  0  0  0  0  0  0  0  0  0
   -5.4392   16.0143  -34.7389 H   0  0  0  0  0  0  0  0  0  0  0  0
   -4.2026   18.4252  -35.0457 H   0  0  0  0  0  0  0  0  0  0  0  0
   -5.6246   18.0529  -36.0115 H   0  0  0  0  0  0  0  0  0  0  0  0
   -5.3501   19.7981  -33.5507 H   0  0  0  0  0  0  0  0  0  0  0  0
   -6.4574   19.9930  -34.9328 H   0  0  0  0  0  0  0  0  0  0  0  0
   -4.8302   20.8752  -31.8618 H   0  0  0  0  0  0  0  0  0  0  0  0
   -2.6678   21.6864  -30.5327 H   0  0  0  0  0  0  0  0  0  0  0  0
   -1.6196   18.4174  -32.2751 H   0  0  0  0  0  0  0  0  0  0  0  0
   -2.3151   19.1195  -30.7438 H   0  0  0  0  0  0  0  0  0  0  0  0
   -3.4713   19.9731  -32.7615 H   0  0  0  0  0  0  0  0  0  0  0  0
   -2.6203   21.2747  -31.8388 H   0  0  0  0  0  0  0  0  0  0  0  0
   -2.0076   20.1098  -34.5550 H   0  0  0  0  0  0  0  0  0  0  0  0
   -1.9467   21.8278  -33.9549 H   0  0  0  0  0  0  0  0  0  0  0  0
    0.1574   19.6892  -33.8949 H   0  0  0  0  0  0  0  0  0  0  0  0
    0.2959   21.4769  -34.1261 H   0  0  0  0  0  0  0  0  0  0  0  0
    1.2978   20.8101  -31.9805 H   0  0  0  0  0  0  0  0  0  0  0  0
   -0.1898   21.8103  -31.7196 H   0  0  0  0  0  0  0  0  0  0  0  0
    0.8188   22.4512  -28.0871 H   0  0  0  0  0  0  0  0  0  0  0  0
    0.1554   24.8448  -27.8862 H   0  0  0  0  0  0  0  0  0  0  0  0
  1  2  2  0
  2  3  1  0
  3  4  1  0
  4  5  2  0
  5  6  1  0
  6  7  2  0
  7  8  1  0
  8  9  1  0
  9 10  2  0
  9 11  2  0
  9 12  1  0
 12 13  1  0
 13 14  1  0
 14 15  1  0
 15 16  1  0
  8 17  2  0
  2 18  1  0
 18 19  2  0
 19 20  1  0
 20 21  1  0
 21 22  2  0
 21 23  2  0
 21 24  1  0
 24 25  1  0
 25 26  1  0
 26 27  1  0
 27 28  1  0
 28 29  1  0
 20 30  2  0
 30 31  1  0
 31 32  2  0
 32 33  1  0
 17  4  1  0
 32 18  1  0
 16 12  1  0
 29 24  1  0
  5 34  1  0
  6 35  1  0
  7 36  1  0
 13 37  1  0
 13 38  1  0
 14 39  1  0
 14 40  1  0
 15 41  1  0
 15 42  1  0
 16 43  1  0
 16 44  1  0
 17 45  1  0
 19 46  1  0
 25 47  1  0
 25 48  1  0
 26 49  1  0
 26 50  1  0
 27 51  1  0
 27 52  1  0
 28 53  1  0
 28 54  1  0
 29 55  1  0
 29 56  1  0
 30 57  1  0
 31 58  1  0
M  CHG  2   3  -1  33  -1
M  END
>  <UniqueID>  (12) 
11

>  <SMILES>  (12) 
O=C([N-]c1cccc(S(=O)(=O)N2CCCC2)c1)c1cc(S(=O)(=O)N2CCCCC2)ccc1[O-]

>  <Energy>  (12) 
72.7705030473277

>  <Genealogy>  (12) 
O=C([N-]c1cccc(S(=O)(=O)N2CCCC2)c1)c1cc(S(=O)(=O)N2CCCCC2)ccc1[O-] (protonated)
O=C([N-]c1cccc(S(=O)(=O)N2CCCC2)c1)c1cc(S(=O)(=O)N2CCCCC2)ccc1[O-] (3D coordinates assigned)
O=C([N-]c1cccc(S(=O)(=O)N2CCCC2)c1)c1cc(S(=O)(=O)N2CCCCC2)ccc1[O-] (nonaromatic ring conformer: 72.7705030473277 kcal/mol)

>  <smiles>  (12) 
O=C(Nc1cccc(S(=O)(=O)N2CCCC2)c1)c1cc(S(=O)(=O)N2CCCCC2)ccc1O

>  <score_type>  (12) 
oracle

>  <origin>  (12) 
adgpu

>  <m_score__min__energy>  (12) 
-15.34

>  <m_primary>  (12) 
energy

$$$$
12:0
     RDKit          3D

 55 58  0  0  0  0  0  0  0  0999 V2000
   -1.8170   24.0430  -29.7740 O   0  0  0  0  0  0  0  0  0  0  0  0
   -2.1690   22.9760  -30.3470 C   0  0  0  0  0  0  0  0  0  0  0  0
   -3.2450   22.9960  -31.2960 N   0  0  0  0  0  0  0  0  0  0  0  0
   -4.5810   23.4300  -31.0190 C   0  0  0  0  0  0  0  0  0  0  0  0
   -5.6320   22.5500  -31.2990 C   0  0  0  0  0  0  0  0  0  0  0  0
   -6.9600   22.9260  -31.0600 C   0  0  0  0  0  0  0  0  0  0  0  0
   -8.2860   21.8410  -31.4690 S   0  0  0  0  0  0  0  0  0  0  0  0
   -8.9860   21.3920  -30.2160 O   0  0  0  0  0  0  0  0  0  0  0  0
   -9.2640   22.5700  -32.3470 O   0  0  0  0  0  0  0  0  0  0  0  0
   -7.6490   20.4540  -32.3240 N   0  0  0  0  0  0  0  0  0  0  0  0
   -6.6320   19.7550  -31.5340 C   0  0  0  0  0  0  0  0  0  0  0  0
   -6.7160   18.2760  -31.9000 C   0  0  0  0  0  0  0  0  0  0  0  0
   -7.9870   18.1280  -32.7190 C   0  0  0  0  0  0  0  0  0  0  0  0
   -8.6940   19.4660  -32.5930 C   0  0  0  0  0  0  0  0  0  0  0  0
   -7.2340   24.1840  -30.5180 C   0  0  0  0  0  0  0  0  0  0  0  0
   -6.1970   25.0820  -30.2660 C   0  0  0  0  0  0  0  0  0  0  0  0
   -4.8700   24.7310  -30.5440 C   0  0  0  0  0  0  0  0  0  0  0  0
   -3.8830   25.7020  -30.3810 O   0  0  0  0  0  0  0  0  0  0  0  0
   -1.5120   21.6860  -30.0510 C   0  0  0  0  0  0  0  0  0  0  0  0
   -1.0700   20.9540  -31.1060 N   0  0  0  0  0  0  0  0  0  0  0  0
   -0.4780   19.7440  -30.9500 C   0  0  0  0  0  0  0  0  0  0  0  0
   -0.0600   18.8010  -32.3640 S   0  0  0  0  0  0  0  0  0  0  0  0
    1.4270   18.8540  -32.5670 O   0  0  0  0  0  0  0  0  0  0  0  0
   -0.4750   17.3700  -32.1590 O   0  0  0  0  0  0  0  0  0  0  0  0
   -0.8870   19.4640  -33.8020 C   0  0  0  0  0  0  0  0  0  0  0  0
   -2.0880   18.6230  -34.1600 C   0  0  0  0  0  0  0  0  0  0  0  0
   -1.8770   17.3310  -34.6780 C   0  0  0  0  0  0  0  0  0  0  0  0
   -2.9620   16.4870  -34.9280 C   0  0  0  0  0  0  0  0  0  0  0  0
   -4.2620   16.9260  -34.6900 C   0  0  0  0  0  0  0  0  0  0  0  0
   -4.4860   18.2060  -34.1840 C   0  0  0  0  0  0  0  0  0  0  0  0
   -3.4100   19.0590  -33.9130 C   0  0  0  0  0  0  0  0  0  0  0  0
   -3.7590   20.6500  -33.2530 Cl  0  0  0  0  0  0  0  0  0  0  0  0
   -0.3190   19.2260  -29.7080 N   0  0  0  0  0  0  0  0  0  0  0  0
   -0.7320   19.9120  -28.6120 C   0  0  0  0  0  0  0  0  0  0  0  0
   -1.3460   21.1620  -28.7490 C   0  0  0  0  0  0  0  0  0  0  0  0
   -1.8710   21.9940  -27.2880 Cl  0  0  0  0  0  0  0  0  0  0  0  0
   -5.4134   21.5536  -31.7106 H   0  0  0  0  0  0  0  0  0  0  0  0
   -5.6327   20.1468  -31.7744 H   0  0  0  0  0  0  0  0  0  0  0  0
   -6.8040   19.9018  -30.4575 H   0  0  0  0  0  0  0  0  0  0  0  0
   -5.8397   17.9773  -32.4941 H   0  0  0  0  0  0  0  0  0  0  0  0
   -6.7321   17.6361  -31.0054 H   0  0  0  0  0  0  0  0  0  0  0  0
   -7.7464   17.9155  -33.7711 H   0  0  0  0  0  0  0  0  0  0  0  0
   -8.6123   17.2954  -32.3644 H   0  0  0  0  0  0  0  0  0  0  0  0
   -9.2184   19.7102  -33.5286 H   0  0  0  0  0  0  0  0  0  0  0  0
   -9.4464   19.4487  -31.7908 H   0  0  0  0  0  0  0  0  0  0  0  0
   -8.2719   24.4675  -30.2890 H   0  0  0  0  0  0  0  0  0  0  0  0
   -6.4231   26.0731  -29.8458 H   0  0  0  0  0  0  0  0  0  0  0  0
   -2.9720   25.6400  -30.8180 H   0  0  0  0  0  0  0  0  0  0  0  0
   -1.2162   20.4915  -33.5878 H   0  0  0  0  0  0  0  0  0  0  0  0
   -0.1849   19.4576  -34.6488 H   0  0  0  0  0  0  0  0  0  0  0  0
   -0.8540   16.9847  -34.8867 H   0  0  0  0  0  0  0  0  0  0  0  0
   -2.7887   15.4718  -35.3143 H   0  0  0  0  0  0  0  0  0  0  0  0
   -5.1133   16.2622  -34.9014 H   0  0  0  0  0  0  0  0  0  0  0  0
   -5.5148   18.5474  -33.9967 H   0  0  0  0  0  0  0  0  0  0  0  0
   -0.5832   19.4828  -27.6102 H   0  0  0  0  0  0  0  0  0  0  0  0
  1  2  2  0
  2  3  1  0
  3  4  1  0
  4  5  2  0
  5  6  1  0
  6  7  1  0
  7  8  2  0
  7  9  2  0
  7 10  1  0
 10 11  1  0
 11 12  1  0
 12 13  1  0
 13 14  1  0
  6 15  2  0
 15 16  1  0
 16 17  2  0
 17 18  1  0
  2 19  1  0
 19 20  2  0
 20 21  1  0
 21 22  1  0
 22 23  2  0
 22 24  2  0
 22 25  1  0
 25 26  1  0
 26 27  2  0
 27 28  1  0
 28 29  2  0
 29 30  1  0
 30 31  2  0
 31 32  1  0
 21 33  2  0
 33 34  1  0
 34 35  2  0
 35 36  1  0
 17  4  1  0
 35 19  1  0
 14 10  1  0
 31 26  1  0
  5 37  1  0
 11 38  1  0
 11 39  1  0
 12 40  1  0
 12 41  1  0
 13 42  1  0
 13 43  1  0
 14 44  1  0
 14 45  1  0
 15 46  1  0
 16 47  1  0
 18 48  1  0
 25 49  1  0
 25 50  1  0
 27 51  1  0
 28 52  1  0
 29 53  1  0
 30 54  1  0
 34 55  1  0
M  CHG  1   3  -1
M  END
>  <UniqueID>  (13) 
12

>  <SMILES>  (13) 
O=C([N-]c1cc(S(=O)(=O)N2CCCC2)ccc1O)c1nc(S(=O)(=O)Cc2ccccc2Cl)ncc1Cl

>  <Energy>  (13) 
64.8500034734055

>  <Genealogy>  (13) 
O=C([N-]c1cc(S(=O)(=O)N2CCCC2)ccc1O)c1nc(S(=O)(=O)Cc2ccccc2Cl)ncc1Cl (protonated)
O=C([N-]c1cc(S(=O)(=O)N2CCCC2)ccc1O)c1nc(S(=O)(=O)Cc2ccccc2Cl)ncc1Cl (3D coordinates assigned)
O=C([N-]c1cc(S(=O)(=O)N2CCCC2)ccc1O)c1nc(S(=O)(=O)Cc2ccccc2Cl)ncc1Cl (nonaromatic ring conformer: 64.8500034734055 kcal/mol)

>  <smiles>  (13) 
O=C(Nc1cc(S(=O)(=O)N2CCCC2)ccc1O)c1nc(S(=O)(=O)Cc2ccccc2Cl)ncc1Cl

>  <score_type>  (13) 
oracle

>  <origin>  (13) 
adgpu

>  <m_score__min__energy>  (13) 
-12.09

>  <m_primary>  (13) 
energy

$$$$
13:0
     RDKit          3D

 42 44  0  0  0  0  0  0  0  0999 V2000
   -4.0060   25.3050  -30.1360 N   0  0  0  0  0  0  0  0  0  0  0  0
   -4.6390   24.1440  -30.6910 C   0  0  0  0  0  0  0  0  0  0  0  0
   -5.9710   24.2410  -31.1160 C   0  0  0  0  0  0  0  0  0  0  0  0
   -6.6320   23.1360  -31.6530 C   0  0  0  0  0  0  0  0  0  0  0  0
   -5.9700   21.9080  -31.7840 C   0  0  0  0  0  0  0  0  0  0  0  0
   -6.6590   20.7610  -32.3200 N   0  0  0  0  0  0  0  0  0  0  0  0
   -5.8870   19.6180  -32.8330 C   0  0  0  0  0  0  0  0  0  0  0  0
   -6.7670   18.3700  -32.9960 C   0  0  0  0  0  0  0  0  0  0  0  0
   -7.7000   18.2140  -31.7880 C   0  0  0  0  0  0  0  0  0  0  0  0
   -8.6110   19.4440  -31.5770 C   0  0  0  0  0  0  0  0  0  0  0  0
   -8.1270   20.6980  -32.3220 C   0  0  0  0  0  0  0  0  0  0  0  0
   -4.6380   21.8020  -31.3550 C   0  0  0  0  0  0  0  0  0  0  0  0
   -3.9600   22.9060  -30.8140 C   0  0  0  0  0  0  0  0  0  0  0  0
   -2.2840   22.7010  -30.2830 S   0  0  0  0  0  0  0  0  0  0  0  0
   -1.4040   22.3160  -31.4400 O   0  0  0  0  0  0  0  0  0  0  0  0
   -1.7890   24.0070  -29.7240 O   0  0  0  0  0  0  0  0  0  0  0  0
   -2.1940   21.4290  -29.0690 C   0  0  0  0  0  0  0  0  0  0  0  0
   -1.1280   20.5170  -29.0910 C   0  0  0  0  0  0  0  0  0  0  0  0
   -1.0520   19.5030  -28.1320 C   0  0  0  0  0  0  0  0  0  0  0  0
   -2.0360   19.3950  -27.1460 C   0  0  0  0  0  0  0  0  0  0  0  0
   -3.0980   20.3040  -27.1160 C   0  0  0  0  0  0  0  0  0  0  0  0
   -3.1770   21.3210  -28.0740 C   0  0  0  0  0  0  0  0  0  0  0  0
   -3.0940   25.6700  -30.4800 H   0  0  0  0  0  0  0  0  0  0  0  0
   -4.4560   25.8250  -29.3500 H   0  0  0  0  0  0  0  0  0  0  0  0
   -6.5018   25.2002  -31.0250 H   0  0  0  0  0  0  0  0  0  0  0  0
   -7.6795   23.2294  -31.9756 H   0  0  0  0  0  0  0  0  0  0  0  0
   -5.4612   19.8850  -33.8115 H   0  0  0  0  0  0  0  0  0  0  0  0
   -5.0919   19.3866  -32.1089 H   0  0  0  0  0  0  0  0  0  0  0  0
   -7.3707   18.4687  -33.9102 H   0  0  0  0  0  0  0  0  0  0  0  0
   -6.1202   17.4830  -33.0651 H   0  0  0  0  0  0  0  0  0  0  0  0
   -8.3341   17.3289  -31.9448 H   0  0  0  0  0  0  0  0  0  0  0  0
   -7.0701   18.1089  -30.8924 H   0  0  0  0  0  0  0  0  0  0  0  0
   -9.6212   19.1948  -31.9338 H   0  0  0  0  0  0  0  0  0  0  0  0
   -8.5953   19.6788  -30.5025 H   0  0  0  0  0  0  0  0  0  0  0  0
   -8.4868   20.6637  -33.3609 H   0  0  0  0  0  0  0  0  0  0  0  0
   -8.5229   21.5897  -31.8138 H   0  0  0  0  0  0  0  0  0  0  0  0
   -4.1163   20.8377  -31.4441 H   0  0  0  0  0  0  0  0  0  0  0  0
   -0.3504   20.6002  -29.8646 H   0  0  0  0  0  0  0  0  0  0  0  0
   -0.2158   18.7886  -28.1536 H   0  0  0  0  0  0  0  0  0  0  0  0
   -1.9752   18.5950  -26.3935 H   0  0  0  0  0  0  0  0  0  0  0  0
   -3.8719   20.2196  -26.3388 H   0  0  0  0  0  0  0  0  0  0  0  0
   -4.0115   22.0371  -28.0468 H   0  0  0  0  0  0  0  0  0  0  0  0
  1  2  1  0
  2  3  2  0
  3  4  1  0
  4  5  2  0
  5  6  1  0
  6  7  1  0
  7  8  1  0
  8  9  1  0
  9 10  1  0
 10 11  1  0
  5 12  1  0
 12 13  2  0
 13 14  1  0
 14 15  2  0
 14 16  2  0
 14 17  1  0
 17 18  2  0
 18 19  1  0
 19 20  2  0
 20 21  1  0
 21 22  2  0
 13  2  1  0
 22 17  1  0
 11  6  1  0
  1 23  1  0
  1 24  1  0
  3 25  1  0
  4 26  1  0
  7 27  1  0
  7 28  1  0
  8 29  1  0
  8 30  1  0
  9 31  1  0
  9 32  1  0
 10 33  1  0
 10 34  1  0
 11 35  1  0
 11 36  1  0
 12 37  1  0
 18 38  1  0
 19 39  1  0
 20 40  1  0
 21 41  1  0
 22 42  1  0
M  END
>  <UniqueID>  (14) 
13

>  <SMILES>  (14) 
Nc1ccc(N2CCCCC2)cc1S(=O)(=O)c1ccccc1

>  <Energy>  (14) 
51.523001483104764

>  <Genealogy>  (14) 
Nc1ccc(N2CCCCC2)cc1S(=O)(=O)c1ccccc1 (3D coordinates assigned)
Nc1ccc(N2CCCCC2)cc1S(=O)(=O)c1ccccc1 (nonaromatic ring conformer: 51.523001483104764 kcal/mol)

>  <smiles>  (14) 
Nc1ccc(N2CCCCC2)cc1S(=O)(=O)c1ccccc1

>  <score_type>  (14) 
oracle

>  <origin>  (14) 
adgpu

>  <m_score__min__energy>  (14) 
-8.9399999999999995

>  <m_primary>  (14) 
energy

$$$$
14:0
     RDKit          3D

 33 35  0  0  0  0  0  0  0  0999 V2000
   -4.9870   16.2710  -34.5080 C   0  0  0  0  0  0  0  0  0  0  0  0
   -5.7760   17.3500  -33.8260 C   0  0  0  0  0  0  0  0  0  0  0  0
   -5.8220   18.6430  -34.3690 C   0  0  0  0  0  0  0  0  0  0  0  0
   -6.5880   19.6380  -33.7550 C   0  0  0  0  0  0  0  0  0  0  0  0
   -7.3270   19.3470  -32.6020 C   0  0  0  0  0  0  0  0  0  0  0  0
   -8.3050   20.5920  -31.8320 S   0  0  0  0  0  0  0  0  0  0  0  0
   -8.8190   20.1110  -30.5040 O   0  0  0  0  0  0  0  0  0  0  0  0
   -9.4710   20.9170  -32.7210 O   0  0  0  0  0  0  0  0  0  0  0  0
   -7.3430   22.0120  -31.5790 N   0  0  0  0  0  0  0  0  0  0  0  0
   -7.7690   23.2910  -31.6810 C   0  0  0  0  0  0  0  0  0  0  0  0
   -6.7200   24.1710  -31.4380 C   0  0  0  0  0  0  0  0  0  0  0  0
   -5.6190   23.3730  -31.1830 C   0  0  0  0  0  0  0  0  0  0  0  0
   -4.2930   23.7040  -30.8850 C   0  0  0  0  0  0  0  0  0  0  0  0
   -3.8630   25.0260  -30.7880 O   0  0  0  0  0  0  0  0  0  0  0  0
   -3.3840   22.6500  -30.6800 C   0  0  0  0  0  0  0  0  0  0  0  0
   -3.8090   21.3070  -30.7780 C   0  0  0  0  0  0  0  0  0  0  0  0
   -5.1480   21.0030  -31.0790 C   0  0  0  0  0  0  0  0  0  0  0  0
   -6.0320   22.0670  -31.2760 C   0  0  0  0  0  0  0  0  0  0  0  0
   -7.2930   18.0540  -32.0640 C   0  0  0  0  0  0  0  0  0  0  0  0
   -6.5270   17.0570  -32.6780 C   0  0  0  0  0  0  0  0  0  0  0  0
   -4.5160   15.6269  -33.7508 H   0  0  0  0  0  0  0  0  0  0  0  0
   -5.6583   15.6674  -35.1365 H   0  0  0  0  0  0  0  0  0  0  0  0
   -4.2083   16.7277  -35.1365 H   0  0  0  0  0  0  0  0  0  0  0  0
   -5.2530   18.8745  -35.2815 H   0  0  0  0  0  0  0  0  0  0  0  0
   -6.6103   20.6528  -34.1790 H   0  0  0  0  0  0  0  0  0  0  0  0
   -8.7990   23.5927  -31.9220 H   0  0  0  0  0  0  0  0  0  0  0  0
   -6.7577   25.2703  -31.4467 H   0  0  0  0  0  0  0  0  0  0  0  0
   -3.8610   25.6490  -31.5870 H   0  0  0  0  0  0  0  0  0  0  0  0
   -2.3338   22.8739  -30.4415 H   0  0  0  0  0  0  0  0  0  0  0  0
   -3.0870   20.4928  -30.6176 H   0  0  0  0  0  0  0  0  0  0  0  0
   -5.4892   19.9602  -31.1570 H   0  0  0  0  0  0  0  0  0  0  0  0
   -7.8699   17.8219  -31.1566 H   0  0  0  0  0  0  0  0  0  0  0  0
   -6.5137   16.0400  -32.2591 H   0  0  0  0  0  0  0  0  0  0  0  0
  1  2  1  0
  2  3  2  0
  3  4  1  0
  4  5  2  0
  5  6  1  0
  6  7  2  0
  6  8  2  0
  6  9  1  0
  9 10  1  0
 10 11  2  0
 11 12  1  0
 12 13  2  0
 13 14  1  0
 13 15  1  0
 15 16  2  0
 16 17  1  0
 17 18  2  0
  5 19  1  0
 19 20  2  0
 20  2  1  0
 18  9  1  0
 18 12  1  0
  1 21  1  0
  1 22  1  0
  1 23  1  0
  3 24  1  0
  4 25  1  0
 10 26  1  0
 11 27  1  0
 14 28  1  0
 15 29  1  0
 16 30  1  0
 17 31  1  0
 19 32  1  0
 20 33  1  0
M  END
>  <UniqueID>  (15) 
14

>  <SMILES>  (15) 
Cc1ccc(S(=O)(=O)n2ccc3c(O)cccc32)cc1

>  <Energy>  (15) 
69.52738371700974

>  <Genealogy>  (15) 
Cc1ccc(S(=O)(=O)n2ccc3c(O)cccc32)cc1 (3D coordinates assigned)
Cc1ccc(S(=O)(=O)n2ccc3c(O)cccc32)cc1 (optimized conformer: 69.52738371700974 kcal/mol)

>  <smiles>  (15) 
Cc1ccc(S(=O)(=O)n2ccc3c(O)cccc32)cc1

>  <score_type>  (15) 
oracle

>  <origin>  (15) 
adgpu

>  <m_score__min__energy>  (15) 
-8.9299999999999997

>  <m_primary>  (15) 
energy

$$$$
15:0
     RDKit          3D

 53 56  0  0  0  0  0  0  0  0999 V2000
    0.3290   20.2410  -28.4040 C   0  0  0  0  0  0  0  0  0  0  0  0
   -0.9610   19.8590  -27.7420 C   0  0  0  0  0  0  0  0  0  0  0  0
   -0.9250   19.1490  -26.7030 O   0  0  0  0  0  0  0  0  0  0  0  0
   -2.2350   20.2420  -28.2770 N   0  0  0  0  0  0  0  0  0  0  0  0
   -2.5810   21.5180  -28.8310 C   0  0  0  0  0  0  0  0  0  0  0  0
   -1.7010   22.5920  -28.6590 C   0  0  0  0  0  0  0  0  0  0  0  0
   -1.9990   23.8440  -29.2040 C   0  0  0  0  0  0  0  0  0  0  0  0
   -3.1700   24.0280  -29.9440 C   0  0  0  0  0  0  0  0  0  0  0  0
   -3.4610   25.2850  -30.4640 O   0  0  0  0  0  0  0  0  0  0  0  0
   -4.0430   22.9470  -30.1580 C   0  0  0  0  0  0  0  0  0  0  0  0
   -5.2180   23.1010  -30.9720 N   0  0  0  0  0  0  0  0  0  0  0  0
   -5.5610   22.4490  -32.1080 C   0  0  0  0  0  0  0  0  0  0  0  0
   -4.8370   21.3050  -32.7090 C   0  0  0  0  0  0  0  0  0  0  0  0
   -5.5320   20.1330  -33.0260 C   0  0  0  0  0  0  0  0  0  0  0  0
   -4.8660   19.0470  -33.5930 C   0  0  0  0  0  0  0  0  0  0  0  0
   -3.4830   19.0980  -33.8400 C   0  0  0  0  0  0  0  0  0  0  0  0
   -2.8300   17.9030  -34.4840 C   0  0  0  0  0  0  0  0  0  0  0  0
   -2.7650   20.2790  -33.5100 C   0  0  0  0  0  0  0  0  0  0  0  0
   -1.0150   20.4750  -33.7740 S   0  0  0  0  0  0  0  0  0  0  0  0
   -0.5180   19.5460  -34.8450 O   0  0  0  0  0  0  0  0  0  0  0  0
   -0.7620   21.8780  -34.2520 O   0  0  0  0  0  0  0  0  0  0  0  0
   -0.1010   20.1890  -32.3090 N   0  0  0  0  0  0  0  0  0  0  0  0
   -0.8120   19.2960  -31.3660 C   0  0  0  0  0  0  0  0  0  0  0  0
   -0.1510   17.9100  -31.2660 C   0  0  0  0  0  0  0  0  0  0  0  0
    1.2090   17.9740  -30.8620 O   0  0  0  0  0  0  0  0  0  0  0  0
    1.9150   19.0920  -31.3880 C   0  0  0  0  0  0  0  0  0  0  0  0
    1.2620   19.7260  -32.6270 C   0  0  0  0  0  0  0  0  0  0  0  0
   -3.4540   21.3580  -32.9360 C   0  0  0  0  0  0  0  0  0  0  0  0
   -6.6940   22.9580  -32.6350 N   0  0  0  0  0  0  0  0  0  0  0  0
   -7.0930   23.9400  -31.8400 N   0  0  0  0  0  0  0  0  0  0  0  0
   -6.2000   24.0150  -30.8380 C   0  0  0  0  0  0  0  0  0  0  0  0
   -6.2760   25.1440  -29.6530 S   0  0  0  0  0  0  0  0  0  0  0  0
   -3.7410   21.6950  -29.6040 C   0  0  0  0  0  0  0  0  0  0  0  0
    1.0835   20.4644  -27.6353 H   0  0  0  0  0  0  0  0  0  0  0  0
    0.6800   19.4082  -29.0312 H   0  0  0  0  0  0  0  0  0  0  0  0
    0.1699   21.1306  -29.0312 H   0  0  0  0  0  0  0  0  0  0  0  0
   -0.7693   22.4502  -28.0916 H   0  0  0  0  0  0  0  0  0  0  0  0
   -1.3096   24.6872  -29.0499 H   0  0  0  0  0  0  0  0  0  0  0  0
   -6.6118   20.0677  -32.8265 H   0  0  0  0  0  0  0  0  0  0  0  0
   -5.4302   18.1385  -33.8504 H   0  0  0  0  0  0  0  0  0  0  0  0
   -2.4584   17.2231  -33.7032 H   0  0  0  0  0  0  0  0  0  0  0  0
   -3.5655   17.3760  -35.1095 H   0  0  0  0  0  0  0  0  0  0  0  0
   -1.9892   18.2373  -35.1095 H   0  0  0  0  0  0  0  0  0  0  0  0
   -0.8116   19.7612  -30.3692 H   0  0  0  0  0  0  0  0  0  0  0  0
   -1.8360   19.1550  -31.7421 H   0  0  0  0  0  0  0  0  0  0  0  0
   -0.7071   17.3081  -30.5322 H   0  0  0  0  0  0  0  0  0  0  0  0
   -0.1765   17.4591  -32.2690 H   0  0  0  0  0  0  0  0  0  0  0  0
    1.9803   19.8591  -30.6023 H   0  0  0  0  0  0  0  0  0  0  0  0
    2.9006   18.7212  -31.7060 H   0  0  0  0  0  0  0  0  0  0  0  0
    1.8678   20.5825  -32.9578 H   0  0  0  0  0  0  0  0  0  0  0  0
    1.2056   18.9720  -33.4260 H   0  0  0  0  0  0  0  0  0  0  0  0
   -2.8974   22.2652  -32.6580 H   0  0  0  0  0  0  0  0  0  0  0  0
   -4.4174   20.8447  -29.7758 H   0  0  0  0  0  0  0  0  0  0  0  0
  1  2  1  0
  2  3  2  0
  2  4  1  0
  4  5  1  0
  5  6  2  0
  6  7  1  0
  7  8  2  0
  8  9  1  0
  8 10  1  0
 10 11  1  0
 11 12  1  0
 12 13  1  0
 13 14  2  0
 14 15  1  0
 15 16  2  0
 16 17  1  0
 16 18  1  0
 18 19  1  0
 19 20  2  0
 19 21  2  0
 19 22  1  0
 22 23  1  0
 23 24  1  0
 24 25  1  0
 25 26  1  0
 26 27  1  0
 18 28  2  0
 12 29  2  0
 29 30  1  0
 30 31  1  0
 31 32  2  0
 10 33  2  0
 33  5  1  0
 31 11  1  0
 28 13  1  0
 27 22  1  0
  1 34  1  0
  1 35  1  0
  1 36  1  0
  6 37  1  0
  7 38  1  0
 14 39  1  0
 15 40  1  0
 17 41  1  0
 17 42  1  0
 17 43  1  0
 23 44  1  0
 23 45  1  0
 24 46  1  0
 24 47  1  0
 26 48  1  0
 26 49  1  0
 27 50  1  0
 27 51  1  0
 28 52  1  0
 33 53  1  0
M  CHG  3   4  -1   9  -1  30  -1
M  END
>  <UniqueID>  (16) 
15

>  <SMILES>  (16) 
CC(=O)[N-]c1ccc([O-])c(-n2c(-c3ccc(C)c(S(=O)(=O)N4CCOCC4)c3)n[n-]c2=S)c1

>  <Energy>  (16) 
118.69833194066798

>  <Genealogy>  (16) 
CC(=O)[N-]c1ccc([O-])c(-n2c(-c3ccc(C)c(S(=O)(=O)N4CCOCC4)c3)n[n-]c2=S)c1 (protonated)
CC(=O)[N-]c1ccc([O-])c(-n2c(-c3ccc(C)c(S(=O)(=O)N4CCOCC4)c3)n[n-]c2=S)c1 (3D coordinates assigned)
CC(=O)[N-]c1ccc([O-])c(-n2c(-c3ccc(C)c(S(=O)(=O)N4CCOCC4)c3)n[n-]c2=S)c1 (nonaromatic ring conformer: 118.69833194066798 kcal/mol)

>  <smiles>  (16) 
CC(=O)Nc1ccc(O)c(-n2c(-c3ccc(C)c(S(=O)(=O)N4CCOCC4)c3)n[nH]c2=S)c1

>  <score_type>  (16) 
oracle

>  <origin>  (16) 
adgpu

>  <m_score__min__energy>  (16) 
-12.94

>  <m_primary>  (16) 
energy

$$$$
16:0
     RDKit          3D

 45 47  0  0  0  0  0  0  0  0999 V2000
   -1.7100   19.1990  -32.2890 C   0  0  0  0  0  0  0  0  0  0  0  0
   -2.3630   20.1630  -33.2890 C   0  0  0  0  0  0  0  0  0  0  0  0
   -1.3140   20.8690  -34.1590 C   0  0  0  0  0  0  0  0  0  0  0  0
   -3.2930   21.1590  -32.5970 C   0  0  0  0  0  0  0  0  0  0  0  0
   -4.6900   21.0730  -32.7940 C   0  0  0  0  0  0  0  0  0  0  0  0
   -5.2230   20.0770  -33.6100 O   0  0  0  0  0  0  0  0  0  0  0  0
   -5.5620   21.9750  -32.1600 C   0  0  0  0  0  0  0  0  0  0  0  0
   -7.0240   21.8680  -32.3790 C   0  0  0  0  0  0  0  0  0  0  0  0
   -7.6620   22.9050  -32.7100 O   0  0  0  0  0  0  0  0  0  0  0  0
   -7.7500   20.5810  -32.2300 C   0  0  0  0  0  0  0  0  0  0  0  0
   -7.1280   19.4880  -31.5990 C   0  0  0  0  0  0  0  0  0  0  0  0
   -7.8080   18.2760  -31.4480 C   0  0  0  0  0  0  0  0  0  0  0  0
   -9.1160   18.1420  -31.9180 C   0  0  0  0  0  0  0  0  0  0  0  0
   -9.7500   19.2230  -32.5360 C   0  0  0  0  0  0  0  0  0  0  0  0
   -9.0750   20.4370  -32.6890 C   0  0  0  0  0  0  0  0  0  0  0  0
   -5.0410   22.9830  -31.3320 C   0  0  0  0  0  0  0  0  0  0  0  0
   -5.9020   23.8960  -30.7250 O   0  0  0  0  0  0  0  0  0  0  0  0
   -3.6580   23.0760  -31.1100 C   0  0  0  0  0  0  0  0  0  0  0  0
   -3.1220   24.1300  -30.2150 C   0  0  0  0  0  0  0  0  0  0  0  0
   -3.5980   25.2940  -30.2970 O   0  0  0  0  0  0  0  0  0  0  0  0
   -2.0630   23.8390  -29.2140 C   0  0  0  0  0  0  0  0  0  0  0  0
   -1.9540   22.5490  -28.6570 C   0  0  0  0  0  0  0  0  0  0  0  0
   -0.9700   22.2650  -27.7070 C   0  0  0  0  0  0  0  0  0  0  0  0
   -0.0850   23.2630  -27.2940 C   0  0  0  0  0  0  0  0  0  0  0  0
    0.8930   22.9790  -26.3480 O   0  0  0  0  0  0  0  0  0  0  0  0
   -0.1840   24.5480  -27.8320 C   0  0  0  0  0  0  0  0  0  0  0  0
   -1.1640   24.8410  -28.7870 C   0  0  0  0  0  0  0  0  0  0  0  0
   -1.2250   26.1270  -29.3150 O   0  0  0  0  0  0  0  0  0  0  0  0
   -2.7870   22.1760  -31.7540 C   0  0  0  0  0  0  0  0  0  0  0  0
   -1.4140   22.3130  -31.5650 O   0  0  0  0  0  0  0  0  0  0  0  0
   -1.9330   19.5281  -31.2634 H   0  0  0  0  0  0  0  0  0  0  0  0
   -2.1081   18.1853  -32.4435 H   0  0  0  0  0  0  0  0  0  0  0  0
   -0.6209   19.1927  -32.4435 H   0  0  0  0  0  0  0  0  0  0  0  0
   -2.9890   19.5580  -33.9614 H   0  0  0  0  0  0  0  0  0  0  0  0
   -0.5757   21.3659  -33.5124 H   0  0  0  0  0  0  0  0  0  0  0  0
   -0.8058   20.1284  -34.7940 H   0  0  0  0  0  0  0  0  0  0  0  0
   -1.8087   21.6187  -34.7940 H   0  0  0  0  0  0  0  0  0  0  0  0
   -6.0995   19.5879  -31.2219 H   0  0  0  0  0  0  0  0  0  0  0  0
   -7.3114   17.4257  -30.9577 H   0  0  0  0  0  0  0  0  0  0  0  0
   -9.6471   17.1858  -31.8018 H   0  0  0  0  0  0  0  0  0  0  0  0
  -10.7818   19.1183  -32.9026 H   0  0  0  0  0  0  0  0  0  0  0  0
   -9.5813   21.2863  -33.1711 H   0  0  0  0  0  0  0  0  0  0  0  0
   -2.6503   21.7584  -28.9733 H   0  0  0  0  0  0  0  0  0  0  0  0
   -0.8922   21.2529  -27.2833 H   0  0  0  0  0  0  0  0  0  0  0  0
    0.5120   25.3339  -27.5034 H   0  0  0  0  0  0  0  0  0  0  0  0
  1  2  1  0
  2  3  1  0
  2  4  1  0
  4  5  2  0
  5  6  1  0
  5  7  1  0
  7  8  1  0
  8  9  2  0
  8 10  1  0
 10 11  2  0
 11 12  1  0
 12 13  2  0
 13 14  1  0
 14 15  2  0
  7 16  2  0
 16 17  1  0
 16 18  1  0
 18 19  1  0
 19 20  2  0
 19 21  1  0
 21 22  2  0
 22 23  1  0
 23 24  2  0
 24 25  1  0
 24 26  1  0
 26 27  2  0
 27 28  1  0
 18 29  2  0
 29 30  1  0
 29  4  1  0
 15 10  1  0
 27 21  1  0
  1 31  1  0
  1 32  1  0
  1 33  1  0
  2 34  1  0
  3 35  1  0
  3 36  1  0
  3 37  1  0
 11 38  1  0
 12 39  1  0
 13 40  1  0
 14 41  1  0
 15 42  1  0
 22 43  1  0
 23 44  1  0
 26 45  1  0
M  CHG  5   6  -1  17  -1  25  -1  28  -1  30  -1
M  END
>  <UniqueID>  (17) 
16

>  <SMILES>  (17) 
CC(C)c1c([O-])c(C(=O)c2ccccc2)c([O-])c(C(=O)c2ccc([O-])cc2[O-])c1[O-]

>  <Energy>  (17) 
66.72771056314535

>  <Genealogy>  (17) 
CC(C)c1c([O-])c(C(=O)c2ccccc2)c([O-])c(C(=O)c2ccc([O-])cc2[O-])c1[O-] (protonated)
CC(C)c1c([O-])c(C(=O)c2ccccc2)c([O-])c(C(=O)c2ccc([O-])cc2[O-])c1[O-] (3D coordinates assigned)
CC(C)c1c([O-])c(C(=O)c2ccccc2)c([O-])c(C(=O)c2ccc([O-])cc2[O-])c1[O-] (optimized conformer: 66.72771056314535 kcal/mol)

>  <smiles>  (17) 
CC(C)c1c(O)c(C(=O)c2ccccc2)c(O)c(C(=O)c2ccc(O)cc2O)c1O

>  <score_type>  (17) 
oracle

>  <origin>  (17) 
adgpu

>  <m_score__min__energy>  (17) 
-12.98

>  <m_primary>  (17) 
energy

$$$$
17:0
     RDKit          3D

 32 33  0  0  0  0  0  0  0  0999 V2000
   -8.4670   22.2350  -31.3020 C   0  0  0  0  0  0  0  0  0  0  0  0
   -7.0040   22.4930  -31.4300 C   0  0  0  0  0  0  0  0  0  0  0  0
   -6.2860   23.4160  -30.6960 C   0  0  0  0  0  0  0  0  0  0  0  0
   -4.9790   23.2980  -31.1300 C   0  0  0  0  0  0  0  0  0  0  0  0
   -3.8130   24.0520  -30.6200 C   0  0  0  0  0  0  0  0  0  0  0  0
   -3.8640   25.3090  -30.5580 O   0  0  0  0  0  0  0  0  0  0  0  0
   -2.5930   23.3950  -30.2590 N   0  0  0  0  0  0  0  0  0  0  0  0
   -2.4060   22.5310  -29.1260 C   0  0  0  0  0  0  0  0  0  0  0  0
   -3.1060   21.3160  -29.0260 C   0  0  0  0  0  0  0  0  0  0  0  0
   -2.9360   20.4930  -27.9110 C   0  0  0  0  0  0  0  0  0  0  0  0
   -2.0770   20.8790  -26.8810 C   0  0  0  0  0  0  0  0  0  0  0  0
   -1.3910   22.0940  -26.9610 C   0  0  0  0  0  0  0  0  0  0  0  0
   -1.5540   22.9290  -28.0770 C   0  0  0  0  0  0  0  0  0  0  0  0
   -0.6650   24.4520  -28.1720 S   0  0  0  0  0  0  0  0  0  0  0  0
   -1.6390   25.6400  -28.9640 N   0  0  0  0  0  0  0  0  0  0  0  0
    0.6080   24.2700  -28.9510 O   0  0  0  0  0  0  0  0  0  0  0  0
   -0.3260   24.9210  -26.7860 O   0  0  0  0  0  0  0  0  0  0  0  0
   -4.9870   22.2980  -32.0940 C   0  0  0  0  0  0  0  0  0  0  0  0
   -3.8130   21.7830  -32.8600 C   0  0  0  0  0  0  0  0  0  0  0  0
   -6.2090   21.8400  -32.2460 O   0  0  0  0  0  0  0  0  0  0  0  0
   -8.7391   22.1870  -30.2373 H   0  0  0  0  0  0  0  0  0  0  0  0
   -9.0266   23.0483  -31.7872 H   0  0  0  0  0  0  0  0  0  0  0  0
   -8.7146   21.2793  -31.7872 H   0  0  0  0  0  0  0  0  0  0  0  0
   -6.6728   24.1013  -29.9274 H   0  0  0  0  0  0  0  0  0  0  0  0
   -3.7915   21.0120  -29.8307 H   0  0  0  0  0  0  0  0  0  0  0  0
   -3.4798   19.5392  -27.8443 H   0  0  0  0  0  0  0  0  0  0  0  0
   -1.9398   20.2267  -26.0059 H   0  0  0  0  0  0  0  0  0  0  0  0
   -0.7194   22.3975  -26.1444 H   0  0  0  0  0  0  0  0  0  0  0  0
   -1.7890   25.3080  -29.9430 H   0  0  0  0  0  0  0  0  0  0  0  0
   -3.0376   21.4429  -32.1578 H   0  0  0  0  0  0  0  0  0  0  0  0
   -4.1291   20.9409  -33.4932 H   0  0  0  0  0  0  0  0  0  0  0  0
   -3.4075   22.5859  -33.4932 H   0  0  0  0  0  0  0  0  0  0  0  0
  1  2  1  0
  2  3  2  0
  3  4  1  0
  4  5  1  0
  5  6  2  0
  5  7  1  0
  7  8  1  0
  8  9  2  0
  9 10  1  0
 10 11  2  0
 11 12  1  0
 12 13  2  0
 13 14  1  0
 14 15  1  0
 14 16  2  0
 14 17  2  0
  4 18  2  0
 18 19  1  0
 18 20  1  0
 20  2  1  0
 13  8  1  0
  1 21  1  0
  1 22  1  0
  1 23  1  0
  3 24  1  0
  9 25  1  0
 10 26  1  0
 11 27  1  0
 12 28  1  0
 15 29  1  0
 19 30  1  0
 19 31  1  0
 19 32  1  0
M  CHG  2   7  -1  15  -1
M  END
>  <UniqueID>  (18) 
17

>  <SMILES>  (18) 
Cc1cc(C(=O)[N-]c2ccccc2S([NH-])(=O)=O)c(C)o1

>  <Energy>  (18) 
61.98186655668112

>  <Genealogy>  (18) 
Cc1cc(C(=O)[N-]c2ccccc2S([NH-])(=O)=O)c(C)o1 (protonated)
Cc1cc(C(=O)[N-]c2ccccc2S([NH-])(=O)=O)c(C)o1 (3D coordinates assigned)
Cc1cc(C(=O)[N-]c2ccccc2S([NH-])(=O)=O)c(C)o1 (optimized conformer: 61.98186655668112 kcal/mol)

>  <smiles>  (18) 
Cc1cc(C(=O)Nc2ccccc2S(N)(=O)=O)c(C)o1

>  <score_type>  (18) 
oracle

>  <origin>  (18) 
adgpu

>  <m_score__min__energy>  (18) 
-10.19

>  <m_primary>  (18) 
energy

$$$$
18:0
     RDKit          3D

 70 74  0  0  0  0  0  0  0  0999 V2000
    0.8250   21.5650  -35.4970 C   0  0  0  0  0  0  0  0  0  0  0  0
    1.0880   20.5030  -34.5110 N   0  0  0  0  0  0  0  0  0  0  0  0
    0.5550   20.8570  -33.1660 C   0  0  0  0  0  0  0  0  0  0  0  0
   -0.4030   19.8100  -32.5780 C   0  0  0  0  0  0  0  0  0  0  0  0
   -1.3520   19.3800  -33.6060 N   0  0  0  0  0  0  0  0  0  0  0  0
   -2.7580   19.6040  -33.4230 C   0  0  0  0  0  0  0  0  0  0  0  0
   -3.2150   20.9220  -33.2770 C   0  0  0  0  0  0  0  0  0  0  0  0
   -4.5800   21.1940  -33.1800 C   0  0  0  0  0  0  0  0  0  0  0  0
   -5.5140   20.1550  -33.2470 C   0  0  0  0  0  0  0  0  0  0  0  0
   -6.9160   20.4610  -33.2340 N   0  0  0  0  0  0  0  0  0  0  0  0
   -7.6580   21.3140  -31.9160 S   0  0  0  0  0  0  0  0  0  0  0  0
   -9.0000   21.8440  -32.3390 O   0  0  0  0  0  0  0  0  0  0  0  0
   -7.8610   20.3680  -30.7660 O   0  0  0  0  0  0  0  0  0  0  0  0
   -6.5970   22.6260  -31.4010 C   0  0  0  0  0  0  0  0  0  0  0  0
   -6.7340   23.9080  -31.9460 C   0  0  0  0  0  0  0  0  0  0  0  0
   -5.8340   24.9170  -31.5990 C   0  0  0  0  0  0  0  0  0  0  0  0
   -4.7960   24.6600  -30.7000 C   0  0  0  0  0  0  0  0  0  0  0  0
   -3.8860   25.6750  -30.4180 O   0  0  0  0  0  0  0  0  0  0  0  0
   -4.6650   23.3840  -30.1130 C   0  0  0  0  0  0  0  0  0  0  0  0
   -3.5950   23.0910  -29.1230 C   0  0  0  0  0  0  0  0  0  0  0  0
   -3.3300   23.9830  -28.0720 C   0  0  0  0  0  0  0  0  0  0  0  0
   -2.3280   23.6870  -27.1510 C   0  0  0  0  0  0  0  0  0  0  0  0
   -1.6260   22.5280  -27.2560 N   0  0  0  0  0  0  0  0  0  0  0  0
   -1.8590   21.6210  -28.2460 C   0  0  0  0  0  0  0  0  0  0  0  0
   -1.0920   20.3940  -28.2880 N   0  0  0  0  0  0  0  0  0  0  0  0
    0.2510   20.3880  -28.8870 C   0  0  0  0  0  0  0  0  0  0  0  0
    0.5500   19.0310  -29.5540 C   0  0  0  0  0  0  0  0  0  0  0  0
    0.0730   17.8520  -28.7960 N   0  0  0  0  0  0  0  0  0  0  0  0
   -0.4160   18.1660  -27.4480 C   0  0  0  0  0  0  0  0  0  0  0  0
   -1.5210   19.2250  -27.5060 C   0  0  0  0  0  0  0  0  0  0  0  0
   -2.8520   21.8990  -29.2040 C   0  0  0  0  0  0  0  0  0  0  0  0
   -5.5680   22.3680  -30.4860 C   0  0  0  0  0  0  0  0  0  0  0  0
   -5.0610   18.8290  -33.3420 C   0  0  0  0  0  0  0  0  0  0  0  0
   -3.6860   18.5330  -33.4180 C   0  0  0  0  0  0  0  0  0  0  0  0
   -3.2580   17.0870  -33.5840 C   0  0  0  0  0  0  0  0  0  0  0  0
   -2.9520   16.7950  -34.8990 F   0  0  0  0  0  0  0  0  0  0  0  0
   -4.2810   16.2590  -33.1590 F   0  0  0  0  0  0  0  0  0  0  0  0
   -2.1300   16.8240  -32.8260 F   0  0  0  0  0  0  0  0  0  0  0  0
   -0.8580   18.9810  -34.9260 C   0  0  0  0  0  0  0  0  0  0  0  0
    0.6640   19.1750  -35.0170 C   0  0  0  0  0  0  0  0  0  0  0  0
    0.5926   22.5033  -34.9721 H   0  0  0  0  0  0  0  0  0  0  0  0
    1.7148   21.7083  -36.1277 H   0  0  0  0  0  0  0  0  0  0  0  0
   -0.0288   21.2765  -36.1277 H   0  0  0  0  0  0  0  0  0  0  0  0
    1.4046   20.9740  -32.4771 H   0  0  0  0  0  0  0  0  0  0  0  0
   -0.0232   21.7849  -33.2870 H   0  0  0  0  0  0  0  0  0  0  0  0
    0.1743   18.9420  -32.2268 H   0  0  0  0  0  0  0  0  0  0  0  0
   -0.9538   20.2519  -31.7346 H   0  0  0  0  0  0  0  0  0  0  0  0
   -2.4905   21.7488  -33.2386 H   0  0  0  0  0  0  0  0  0  0  0  0
   -4.9234   22.2309  -33.0502 H   0  0  0  0  0  0  0  0  0  0  0  0
   -7.5530   19.9450  -33.8820 H   0  0  0  0  0  0  0  0  0  0  0  0
   -7.5526   24.1208  -32.6492 H   0  0  0  0  0  0  0  0  0  0  0  0
   -5.9427   25.9206  -32.0361 H   0  0  0  0  0  0  0  0  0  0  0  0
   -3.9113   24.9119  -27.9762 H   0  0  0  0  0  0  0  0  0  0  0  0
   -2.1044   24.3925  -26.3372 H   0  0  0  0  0  0  0  0  0  0  0  0
    0.3107   21.1828  -29.6451 H   0  0  0  0  0  0  0  0  0  0  0  0
    0.9912   20.5592  -28.0915 H   0  0  0  0  0  0  0  0  0  0  0  0
    0.0677   19.0212  -30.5426 H   0  0  0  0  0  0  0  0  0  0  0  0
    1.6453   18.9448  -29.6068 H   0  0  0  0  0  0  0  0  0  0  0  0
   -0.7080   17.4000  -29.3270 H   0  0  0  0  0  0  0  0  0  0  0  0
   -0.8165   17.2511  -26.9870 H   0  0  0  0  0  0  0  0  0  0  0  0
    0.4201   18.5596  -26.8513 H   0  0  0  0  0  0  0  0  0  0  0  0
   -2.4144   18.7870  -27.9750 H   0  0  0  0  0  0  0  0  0  0  0  0
   -1.7450   19.5533  -26.4803 H   0  0  0  0  0  0  0  0  0  0  0  0
   -3.0473   21.1838  -30.0166 H   0  0  0  0  0  0  0  0  0  0  0  0
   -5.4636   21.3618  -30.0540 H   0  0  0  0  0  0  0  0  0  0  0  0
   -5.7925   18.0076  -33.3573 H   0  0  0  0  0  0  0  0  0  0  0  0
   -1.0979   17.9211  -35.0962 H   0  0  0  0  0  0  0  0  0  0  0  0
   -1.3411   19.6086  -35.6893 H   0  0  0  0  0  0  0  0  0  0  0  0
    1.1575   18.3938  -34.4201 H   0  0  0  0  0  0  0  0  0  0  0  0
    0.9513   19.1086  -36.0767 H   0  0  0  0  0  0  0  0  0  0  0  0
  1  2  1  0
  2  3  1  0
  3  4  1  0
  4  5  1  0
  5  6  1  0
  6  7  2  0
  7  8  1  0
  8  9  2  0
  9 10  1  0
 10 11  1  0
 11 12  2  0
 11 13  2  0
 11 14  1  0
 14 15  2  0
 15 16  1  0
 16 17  2  0
 17 18  1  0
 17 19  1  0
 19 20  1  0
 20 21  2  0
 21 22  1  0
 22 23  2  0
 23 24  1  0
 24 25  1  0
 25 26  1  0
 26 27  1  0
 27 28  1  0
 28 29  1  0
 29 30  1  0
 24 31  2  0
 19 32  2  0
  9 33  1  0
 33 34  2  0
 34 35  1  0
 35 36  1  0
 35 37  1  0
 35 38  1  0
  5 39  1  0
 39 40  1  0
 40  2  1  0
 34  6  1  0
 32 14  1  0
 31 20  1  0
 30 25  1  0
  1 41  1  0
  1 42  1  0
  1 43  1  0
  3 44  1  0
  3 45  1  0
  4 46  1  0
  4 47  1  0
  7 48  1  0
  8 49  1  0
 10 50  1  0
 15 51  1  0
 16 52  1  0
 21 53  1  0
 22 54  1  0
 26 55  1  0
 26 56  1  0
 27 57  1  0
 27 58  1  0
 28 59  1  0
 29 60  1  0
 29 61  1  0
 30 62  1  0
 30 63  1  0
 31 64  1  0
 32 65  1  0
 33 66  1  0
 39 67  1  0
 39 68  1  0
 40 69  1  0
 40 70  1  0
M  CHG  1  18  -1
M  END
>  <UniqueID>  (19) 
18

>  <SMILES>  (19) 
CN1CCN(c2ccc(NS(=O)(=O)c3ccc([O-])c(-c4ccnc(N5CCNCC5)c4)c3)cc2C(F)(F)F)CC1

>  <Energy>  (19) 
105.85106344506353

>  <Genealogy>  (19) 
CN1CCN(c2ccc(NS(=O)(=O)c3ccc([O-])c(-c4ccnc(N5CCNCC5)c4)c3)cc2C(F)(F)F)CC1 (protonated)
CN1CCN(c2ccc(NS(=O)(=O)c3ccc([O-])c(-c4ccnc(N5CCNCC5)c4)c3)cc2C(F)(F)F)CC1 (3D coordinates assigned)
CN1CCN(c2ccc(NS(=O)(=O)c3ccc([O-])c(-c4ccnc(N5CCNCC5)c4)c3)cc2C(F)(F)F)CC1 (nonaromatic ring conformer: 105.85106344506353 kcal/mol)

>  <smiles>  (19) 
CN1CCN(c2ccc(NS(=O)(=O)c3ccc(O)c(-c4ccnc(N5CCNCC5)c4)c3)cc2C(F)(F)F)CC1

>  <score_type>  (19) 
oracle

>  <origin>  (19) 
adgpu

>  <m_score__min__energy>  (19) 
-12.77

>  <m_primary>  (19) 
energy

$$$$
19:0
     RDKit          3D

 52 55  0  0  0  0  0  0  0  0999 V2000
   -2.6840   18.5960  -34.2270 C   0  0  0  0  0  0  0  0  0  0  0  0
   -4.0780   18.8730  -33.7490 C   0  0  0  0  0  0  0  0  0  0  0  0
   -5.1690   18.0770  -34.1590 C   0  0  0  0  0  0  0  0  0  0  0  0
   -6.4790   18.3640  -33.7150 C   0  0  0  0  0  0  0  0  0  0  0  0
   -6.7230   19.4600  -32.8600 C   0  0  0  0  0  0  0  0  0  0  0  0
   -8.3430   19.8390  -32.2700 S   0  0  0  0  0  0  0  0  0  0  0  0
   -9.0060   18.5410  -31.2460 C   0  0  0  0  0  0  0  0  0  0  0  0
   -8.2880   21.1020  -31.4560 O   0  0  0  0  0  0  0  0  0  0  0  0
   -9.2610   20.0400  -33.4430 O   0  0  0  0  0  0  0  0  0  0  0  0
   -5.6220   20.2350  -32.4880 C   0  0  0  0  0  0  0  0  0  0  0  0
   -5.5940   21.3240  -31.7060 N   0  0  0  0  0  0  0  0  0  0  0  0
   -4.2810   21.6620  -31.6670 C   0  0  0  0  0  0  0  0  0  0  0  0
   -3.7710   22.7930  -30.9450 N   0  0  0  0  0  0  0  0  0  0  0  0
   -4.1890   24.0330  -31.1470 N   0  0  0  0  0  0  0  0  0  0  0  0
   -3.5600   24.8770  -30.3390 N   0  0  0  0  0  0  0  0  0  0  0  0
   -2.7130   24.1440  -29.5920 C   0  0  0  0  0  0  0  0  0  0  0  0
   -1.5630   24.8350  -28.4550 S   0  0  0  0  0  0  0  0  0  0  0  0
   -1.9810   24.3680  -26.7890 C   0  0  0  0  0  0  0  0  0  0  0  0
   -1.5550   26.3320  -28.5830 O   0  0  0  0  0  0  0  0  0  0  0  0
   -0.1900   24.3100  -28.7710 O   0  0  0  0  0  0  0  0  0  0  0  0
   -2.8360   22.8210  -29.9710 C   0  0  0  0  0  0  0  0  0  0  0  0
   -1.9980   21.6890  -29.5370 C   0  0  0  0  0  0  0  0  0  0  0  0
   -2.3180   20.9760  -28.3720 C   0  0  0  0  0  0  0  0  0  0  0  0
   -1.5410   19.8810  -27.9840 C   0  0  0  0  0  0  0  0  0  0  0  0
   -0.4410   19.4860  -28.7580 C   0  0  0  0  0  0  0  0  0  0  0  0
    0.5360   18.1070  -28.2680 S   0  0  0  0  0  0  0  0  0  0  0  0
    2.1740   18.6610  -27.8550 C   0  0  0  0  0  0  0  0  0  0  0  0
    0.6080   17.1110  -29.3920 O   0  0  0  0  0  0  0  0  0  0  0  0
   -0.0860   17.4410  -27.0740 O   0  0  0  0  0  0  0  0  0  0  0  0
   -0.1130   20.2060  -29.9140 C   0  0  0  0  0  0  0  0  0  0  0  0
   -0.8890   21.3020  -30.3020 C   0  0  0  0  0  0  0  0  0  0  0  0
   -3.4820   20.8510  -32.4080 N   0  0  0  0  0  0  0  0  0  0  0  0
   -4.3540   19.9550  -32.9100 C   0  0  0  0  0  0  0  0  0  0  0  0
   -2.0189   18.4638  -33.3609 H   0  0  0  0  0  0  0  0  0  0  0  0
   -2.6803   17.6796  -34.8354 H   0  0  0  0  0  0  0  0  0  0  0  0
   -2.3302   19.4414  -34.8354 H   0  0  0  0  0  0  0  0  0  0  0  0
   -4.9974   17.2237  -34.8317 H   0  0  0  0  0  0  0  0  0  0  0  0
   -7.3160   17.7278  -34.0384 H   0  0  0  0  0  0  0  0  0  0  0  0
   -8.8713   18.8048  -30.1866 H   0  0  0  0  0  0  0  0  0  0  0  0
  -10.0779   18.4169  -31.4595 H   0  0  0  0  0  0  0  0  0  0  0  0
   -8.4782   17.5998  -31.4595 H   0  0  0  0  0  0  0  0  0  0  0  0
   -6.4040   21.8140  -31.2720 H   0  0  0  0  0  0  0  0  0  0  0  0
   -1.4197   24.9951  -26.0807 H   0  0  0  0  0  0  0  0  0  0  0  0
   -3.0600   24.5092  -26.6284 H   0  0  0  0  0  0  0  0  0  0  0  0
   -1.7216   23.3112  -26.6284 H   0  0  0  0  0  0  0  0  0  0  0  0
   -3.1821   21.2793  -27.7627 H   0  0  0  0  0  0  0  0  0  0  0  0
   -1.7936   19.3271  -27.0678 H   0  0  0  0  0  0  0  0  0  0  0  0
    2.2836   18.6981  -26.7611 H   0  0  0  0  0  0  0  0  0  0  0  0
    2.9137   17.9631  -28.2742 H   0  0  0  0  0  0  0  0  0  0  0  0
    2.3382   19.6647  -28.2742 H   0  0  0  0  0  0  0  0  0  0  0  0
    0.7570   19.9083  -30.5177 H   0  0  0  0  0  0  0  0  0  0  0  0
   -0.6283   21.8631  -31.2115 H   0  0  0  0  0  0  0  0  0  0  0  0
  1  2  1  0
  2  3  2  0
  3  4  1  0
  4  5  2  0
  5  6  1  0
  6  7  1  0
  6  8  2  0
  6  9  2  0
  5 10  1  0
 10 11  1  0
 11 12  1  0
 12 13  1  0
 13 14  1  0
 14 15  2  0
 15 16  1  0
 16 17  1  0
 17 18  1  0
 17 19  2  0
 17 20  2  0
 16 21  2  0
 21 22  1  0
 22 23  2  0
 23 24  1  0
 24 25  2  0
 25 26  1  0
 26 27  1  0
 26 28  2  0
 26 29  2  0
 25 30  1  0
 30 31  2  0
 12 32  2  0
 32 33  1  0
 33  2  1  0
 33 10  2  0
 21 13  1  0
 31 22  1  0
  1 34  1  0
  1 35  1  0
  1 36  1  0
  3 37  1  0
  4 38  1  0
  7 39  1  0
  7 40  1  0
  7 41  1  0
 11 42  1  0
 18 43  1  0
 18 44  1  0
 18 45  1  0
 23 46  1  0
 24 47  1  0
 27 48  1  0
 27 49  1  0
 27 50  1  0
 30 51  1  0
 31 52  1  0
M  END
>  <UniqueID>  (20) 
19

>  <SMILES>  (20) 
Cc1ccc(S(C)(=O)=O)c2[nH]c(-n3nnc(S(C)(=O)=O)c3-c3ccc(S(C)(=O)=O)cc3)nc12

>  <Energy>  (20) 
125.52697347274356

>  <Genealogy>  (20) 
Cc1ccc(S(C)(=O)=O)c2[nH]c(-n3nnc(S(C)(=O)=O)c3-c3ccc(S(C)(=O)=O)cc3)nc12 (3D coordinates assigned)
Cc1ccc(S(C)(=O)=O)c2[nH]c(-n3nnc(S(C)(=O)=O)c3-c3ccc(S(C)(=O)=O)cc3)nc12 (optimized conformer: 125.52697347274356 kcal/mol)

>  <smiles>  (20) 
Cc1ccc(S(C)(=O)=O)c2[nH]c(-n3nnc(S(C)(=O)=O)c3-c3ccc(S(C)(=O)=O)cc3)nc12

>  <score_type>  (20) 
oracle

>  <origin>  (20) 
adgpu

>  <m_score__min__energy>  (20) 
-11.050000000000001

>  <m_primary>  (20) 
energy

$$$$
20:0
     RDKit          3D

 49 53  0  0  0  0  0  0  0  0999 V2000
   -6.3970   18.3230  -34.5980 O   0  0  0  0  0  0  0  0  0  0  0  0
   -6.1540   19.1350  -33.6660 C   0  0  0  0  0  0  0  0  0  0  0  0
   -7.1140   19.9350  -32.9110 C   0  0  0  0  0  0  0  0  0  0  0  0
   -8.4000   19.9960  -33.0770 N   0  0  0  0  0  0  0  0  0  0  0  0
   -9.2210   20.8340  -32.1910 C   0  0  0  0  0  0  0  0  0  0  0  0
   -8.4530   22.0830  -31.6910 C   0  0  0  0  0  0  0  0  0  0  0  0
   -7.0920   21.6990  -31.0860 C   0  0  0  0  0  0  0  0  0  0  0  0
   -6.4280   20.7550  -31.9770 N   0  0  0  0  0  0  0  0  0  0  0  0
   -5.0430   20.4410  -32.1260 C   0  0  0  0  0  0  0  0  0  0  0  0
   -3.9700   21.0080  -31.4410 C   0  0  0  0  0  0  0  0  0  0  0  0
   -2.6650   20.6090  -31.7980 C   0  0  0  0  0  0  0  0  0  0  0  0
   -1.2650   21.3970  -31.0740 S   0  0  0  0  0  0  0  0  0  0  0  0
   -0.1390   21.4090  -32.0680 O   0  0  0  0  0  0  0  0  0  0  0  0
   -0.8130   20.6670  -29.8400 O   0  0  0  0  0  0  0  0  0  0  0  0
   -1.6830   23.0280  -30.6610 N   0  0  0  0  0  0  0  0  0  0  0  0
   -1.3900   23.6440  -29.3990 C   0  0  0  0  0  0  0  0  0  0  0  0
   -0.3900   23.1390  -28.5500 C   0  0  0  0  0  0  0  0  0  0  0  0
   -0.1850   23.7040  -27.2860 C   0  0  0  0  0  0  0  0  0  0  0  0
   -0.9500   24.8060  -26.8790 C   0  0  0  0  0  0  0  0  0  0  0  0
   -1.9080   25.3490  -27.7470 C   0  0  0  0  0  0  0  0  0  0  0  0
   -2.1320   24.7660  -28.9970 C   0  0  0  0  0  0  0  0  0  0  0  0
   -3.1060   25.2960  -29.8350 O   0  0  0  0  0  0  0  0  0  0  0  0
   -0.6910   25.3960  -25.5170 C   0  0  0  0  0  0  0  0  0  0  0  0
   -0.5480   24.2880  -24.4550 C   0  0  0  0  0  0  0  0  0  0  0  0
    0.2460   23.0350  -24.9220 C   0  0  0  0  0  0  0  0  0  0  0  0
    0.8440   23.1550  -26.3340 C   0  0  0  0  0  0  0  0  0  0  0  0
   -2.4700   19.6420  -32.8130 C   0  0  0  0  0  0  0  0  0  0  0  0
   -3.5690   19.0740  -33.4830 C   0  0  0  0  0  0  0  0  0  0  0  0
   -4.8450   19.4960  -33.1220 C   0  0  0  0  0  0  0  0  0  0  0  0
   -8.8660   19.3960  -33.7940 H   0  0  0  0  0  0  0  0  0  0  0  0
  -10.1137   21.1641  -32.7424 H   0  0  0  0  0  0  0  0  0  0  0  0
   -9.4939   20.2309  -31.3125 H   0  0  0  0  0  0  0  0  0  0  0  0
   -8.2886   22.7651  -32.5382 H   0  0  0  0  0  0  0  0  0  0  0  0
   -9.0547   22.5699  -30.9094 H   0  0  0  0  0  0  0  0  0  0  0  0
   -6.4708   22.5998  -30.9733 H   0  0  0  0  0  0  0  0  0  0  0  0
   -7.2402   21.2379  -30.0984 H   0  0  0  0  0  0  0  0  0  0  0  0
   -4.1363   21.7469  -30.6433 H   0  0  0  0  0  0  0  0  0  0  0  0
    0.2343   22.2958  -28.8806 H   0  0  0  0  0  0  0  0  0  0  0  0
   -2.4842   26.2355  -27.4434 H   0  0  0  0  0  0  0  0  0  0  0  0
    0.2376   25.9847  -25.5503 H   0  0  0  0  0  0  0  0  0  0  0  0
   -1.5427   26.0363  -25.2439 H   0  0  0  0  0  0  0  0  0  0  0  0
   -0.0314   24.7148  -23.5827 H   0  0  0  0  0  0  0  0  0  0  0  0
   -1.5675   23.9420  -24.2295 H   0  0  0  0  0  0  0  0  0  0  0  0
    1.0692   22.8646  -24.2125 H   0  0  0  0  0  0  0  0  0  0  0  0
   -0.4708   22.2012  -24.9532 H   0  0  0  0  0  0  0  0  0  0  0  0
    1.7111   23.8312  -26.3057 H   0  0  0  0  0  0  0  0  0  0  0  0
    1.1579   22.1585  -26.6782 H   0  0  0  0  0  0  0  0  0  0  0  0
   -1.4492   19.3315  -33.0806 H   0  0  0  0  0  0  0  0  0  0  0  0
   -3.4239   18.3184  -34.2692 H   0  0  0  0  0  0  0  0  0  0  0  0
  1  2  2  0
  2  3  1  0
  3  4  2  0
  4  5  1  0
  5  6  1  0
  6  7  1  0
  7  8  1  0
  8  9  1  0
  9 10  2  0
 10 11  1  0
 11 12  1  0
 12 13  2  0
 12 14  2  0
 12 15  1  0
 15 16  1  0
 16 17  2  0
 17 18  1  0
 18 19  2  0
 19 20  1  0
 20 21  2  0
 21 22  1  0
 19 23  1  0
 23 24  1  0
 24 25  1  0
 25 26  1  0
 11 27  2  0
 27 28  1  0
 28 29  2  0
 29  2  1  0
  8  3  1  0
 29  9  1  0
 21 16  1  0
 26 18  1  0
  4 30  1  0
  5 31  1  0
  5 32  1  0
  6 33  1  0
  6 34  1  0
  7 35  1  0
  7 36  1  0
 10 37  1  0
 17 38  1  0
 20 39  1  0
 23 40  1  0
 23 41  1  0
 24 42  1  0
 24 43  1  0
 25 44  1  0
 25 45  1  0
 26 46  1  0
 26 47  1  0
 27 48  1  0
 28 49  1  0
M  CHG  3   4   1  15  -1  22  -1
M  END
>  <UniqueID>  (21) 
20

>  <SMILES>  (21) 
O=C1C2=[NH+]CCCN2c2cc(S(=O)(=O)[N-]c3cc4c(cc3[O-])CCCC4)ccc21

>  <Energy>  (21) 
93.5362731949066

>  <Genealogy>  (21) 
O=C1C2=[NH+]CCCN2c2cc(S(=O)(=O)[N-]c3cc4c(cc3[O-])CCCC4)ccc21 (protonated)
O=C1C2=[NH+]CCCN2c2cc(S(=O)(=O)[N-]c3cc4c(cc3[O-])CCCC4)ccc21 (3D coordinates assigned)
O=C1C2=[NH+]CCCN2c2cc(S(=O)(=O)[N-]c3cc4c(cc3[O-])CCCC4)ccc21 (nonaromatic ring conformer: 93.5362731949066 kcal/mol)

>  <smiles>  (21) 
O=C1C2=NCCCN2c2cc(S(=O)(=O)Nc3cc4c(cc3O)CCCC4)ccc21

>  <score_type>  (21) 
oracle

>  <origin>  (21) 
adgpu

>  <m_score__min__energy>  (21) 
-15.140000000000001

>  <m_primary>  (21) 
energy

$$$$
21:0
     RDKit          3D

 40 42  0  0  0  0  0  0  0  0999 V2000
   -4.9730   22.2150  -29.7260 O   0  0  0  0  0  0  0  0  0  0  0  0
   -3.9710   22.4890  -30.4400 C   0  0  0  0  0  0  0  0  0  0  0  0
   -4.0660   22.2970  -31.8590 N   0  0  0  0  0  0  0  0  0  0  0  0
   -3.5610   21.1730  -32.5960 C   0  0  0  0  0  0  0  0  0  0  0  0
   -2.1780   21.0490  -32.7810 C   0  0  0  0  0  0  0  0  0  0  0  0
   -1.6550   19.9610  -33.4850 C   0  0  0  0  0  0  0  0  0  0  0  0
   -2.5100   18.9950  -34.0230 C   0  0  0  0  0  0  0  0  0  0  0  0
   -3.8970   19.1230  -33.8680 C   0  0  0  0  0  0  0  0  0  0  0  0
   -4.9940   17.9210  -34.5400 S   0  0  0  0  0  0  0  0  0  0  0  0
   -4.2060   17.0090  -35.4390 O   0  0  0  0  0  0  0  0  0  0  0  0
   -6.0700   18.5970  -35.3470 O   0  0  0  0  0  0  0  0  0  0  0  0
   -5.7160   16.9940  -33.2400 N   0  0  0  0  0  0  0  0  0  0  0  0
   -5.5740   17.6990  -31.9630 C   0  0  0  0  0  0  0  0  0  0  0  0
   -6.8230   18.5390  -31.7450 C   0  0  0  0  0  0  0  0  0  0  0  0
   -7.8650   17.9640  -32.6840 C   0  0  0  0  0  0  0  0  0  0  0  0
   -7.1610   16.8520  -33.4500 C   0  0  0  0  0  0  0  0  0  0  0  0
   -4.4200   20.2160  -33.1650 C   0  0  0  0  0  0  0  0  0  0  0  0
   -2.7560   23.0580  -29.8060 C   0  0  0  0  0  0  0  0  0  0  0  0
   -1.7790   22.2030  -29.2700 C   0  0  0  0  0  0  0  0  0  0  0  0
   -0.6390   22.7250  -28.6550 C   0  0  0  0  0  0  0  0  0  0  0  0
   -0.4570   24.1080  -28.5750 C   0  0  0  0  0  0  0  0  0  0  0  0
    0.6780   24.6200  -27.9570 O   0  0  0  0  0  0  0  0  0  0  0  0
   -1.4140   24.9730  -29.1180 C   0  0  0  0  0  0  0  0  0  0  0  0
   -1.2300   26.3510  -29.0420 O   0  0  0  0  0  0  0  0  0  0  0  0
   -2.5610   24.4550  -29.7340 C   0  0  0  0  0  0  0  0  0  0  0  0
   -3.5080   25.3320  -30.2530 O   0  0  0  0  0  0  0  0  0  0  0  0
   -1.5003   21.8118  -32.3701 H   0  0  0  0  0  0  0  0  0  0  0  0
   -0.5671   19.8645  -33.6162 H   0  0  0  0  0  0  0  0  0  0  0  0
   -2.0944   18.1346  -34.5679 H   0  0  0  0  0  0  0  0  0  0  0  0
   -5.4669   16.9711  -31.1453 H   0  0  0  0  0  0  0  0  0  0  0  0
   -4.6812   18.3413  -31.9798 H   0  0  0  0  0  0  0  0  0  0  0  0
   -7.1613   18.4616  -30.7012 H   0  0  0  0  0  0  0  0  0  0  0  0
   -6.6382   19.6051  -31.9431 H   0  0  0  0  0  0  0  0  0  0  0  0
   -8.7136   17.5588  -32.1133 H   0  0  0  0  0  0  0  0  0  0  0  0
   -8.2683   18.7311  -33.3614 H   0  0  0  0  0  0  0  0  0  0  0  0
   -7.4969   15.8730  -33.0776 H   0  0  0  0  0  0  0  0  0  0  0  0
   -7.3976   16.9206  -34.5221 H   0  0  0  0  0  0  0  0  0  0  0  0
   -5.5092   20.3263  -33.0574 H   0  0  0  0  0  0  0  0  0  0  0  0
   -1.9129   21.1131  -29.3352 H   0  0  0  0  0  0  0  0  0  0  0  0
    0.1168   22.0463  -28.2329 H   0  0  0  0  0  0  0  0  0  0  0  0
  1  2  2  0
  2  3  1  0
  3  4  1  0
  4  5  2  0
  5  6  1  0
  6  7  2  0
  7  8  1  0
  8  9  1  0
  9 10  2  0
  9 11  2  0
  9 12  1  0
 12 13  1  0
 13 14  1  0
 14 15  1  0
 15 16  1  0
  8 17  2  0
  2 18  1  0
 18 19  2  0
 19 20  1  0
 20 21  2  0
 21 22  1  0
 21 23  1  0
 23 24  1  0
 23 25  2  0
 25 26  1  0
 17  4  1  0
 25 18  1  0
 16 12  1  0
  5 27  1  0
  6 28  1  0
  7 29  1  0
 13 30  1  0
 13 31  1  0
 14 32  1  0
 14 33  1  0
 15 34  1  0
 15 35  1  0
 16 36  1  0
 16 37  1  0
 17 38  1  0
 19 39  1  0
 20 40  1  0
M  CHG  4   3  -1  22  -1  24  -1  26  -1
M  END
>  <UniqueID>  (22) 
21

>  <SMILES>  (22) 
O=C([N-]c1cccc(S(=O)(=O)N2CCCC2)c1)c1ccc([O-])c([O-])c1[O-]

>  <Energy>  (22) 
50.463242853845856

>  <Genealogy>  (22) 
O=C([N-]c1cccc(S(=O)(=O)N2CCCC2)c1)c1ccc([O-])c([O-])c1[O-] (protonated)
O=C([N-]c1cccc(S(=O)(=O)N2CCCC2)c1)c1ccc([O-])c([O-])c1[O-] (3D coordinates assigned)
O=C([N-]c1cccc(S(=O)(=O)N2CCCC2)c1)c1ccc([O-])c([O-])c1[O-] (nonaromatic ring conformer: 50.463242853845856 kcal/mol)

>  <smiles>  (22) 
O=C(Nc1cccc(S(=O)(=O)N2CCCC2)c1)c1ccc(O)c(O)c1O

>  <score_type>  (22) 
oracle

>  <origin>  (22) 
adgpu

>  <m_score__min__energy>  (22) 
-15.67

>  <m_primary>  (22) 
energy

$$$$
22:0
     RDKit          3D

 52 55  0  0  0  0  0  0  0  0999 V2000
   -5.6970   26.2850  -30.4730 O   0  0  0  0  0  0  0  0  0  0  0  0
   -5.0400   25.2200  -30.6170 C   0  0  0  0  0  0  0  0  0  0  0  0
   -3.6170   25.2620  -30.4400 N   0  0  0  0  0  0  0  0  0  0  0  0
   -2.8580   24.4700  -29.5140 C   0  0  0  0  0  0  0  0  0  0  0  0
   -2.2820   23.2420  -29.8910 C   0  0  0  0  0  0  0  0  0  0  0  0
   -1.5520   22.4950  -28.9640 C   0  0  0  0  0  0  0  0  0  0  0  0
   -1.4020   22.9520  -27.6490 C   0  0  0  0  0  0  0  0  0  0  0  0
   -0.4920   21.9880  -26.4910 S   0  0  0  0  0  0  0  0  0  0  0  0
    0.9760   22.2320  -26.7010 O   0  0  0  0  0  0  0  0  0  0  0  0
   -0.8490   22.3670  -25.0810 O   0  0  0  0  0  0  0  0  0  0  0  0
   -0.8330   20.3050  -26.7340 N   0  0  0  0  0  0  0  0  0  0  0  0
   -0.1200   19.5260  -27.4890 C   0  0  0  0  0  0  0  0  0  0  0  0
    0.9690   20.0030  -28.1560 N   0  0  0  0  0  0  0  0  0  0  0  0
    1.7190   19.1900  -28.9430 C   0  0  0  0  0  0  0  0  0  0  0  0
    1.3780   17.8460  -29.0780 C   0  0  0  0  0  0  0  0  0  0  0  0
    0.2610   17.3720  -28.3900 C   0  0  0  0  0  0  0  0  0  0  0  0
   -0.4640   18.2170  -27.6110 N   0  0  0  0  0  0  0  0  0  0  0  0
   -1.9990   24.1610  -27.2650 C   0  0  0  0  0  0  0  0  0  0  0  0
   -2.7300   24.9100  -28.1920 C   0  0  0  0  0  0  0  0  0  0  0  0
   -5.7460   23.9790  -31.0070 C   0  0  0  0  0  0  0  0  0  0  0  0
   -7.0430   23.7240  -30.5300 C   0  0  0  0  0  0  0  0  0  0  0  0
   -7.7040   22.5410  -30.8740 C   0  0  0  0  0  0  0  0  0  0  0  0
   -7.0860   21.6060  -31.7140 C   0  0  0  0  0  0  0  0  0  0  0  0
   -7.9000   20.0930  -32.0980 S   0  0  0  0  0  0  0  0  0  0  0  0
   -8.6130   19.5900  -30.8740 O   0  0  0  0  0  0  0  0  0  0  0  0
   -8.9160   20.3250  -33.1830 O   0  0  0  0  0  0  0  0  0  0  0  0
   -6.7140   18.9180  -32.6070 N   0  0  0  0  0  0  0  0  0  0  0  0
   -6.2150   19.2150  -33.9490 C   0  0  0  0  0  0  0  0  0  0  0  0
   -5.7660   17.8900  -34.5450 C   0  0  0  0  0  0  0  0  0  0  0  0
   -6.4840   16.8210  -33.7350 C   0  0  0  0  0  0  0  0  0  0  0  0
   -7.2950   17.5780  -32.6940 C   0  0  0  0  0  0  0  0  0  0  0  0
   -5.8010   21.8630  -32.2080 C   0  0  0  0  0  0  0  0  0  0  0  0
   -5.1380   23.0440  -31.8640 C   0  0  0  0  0  0  0  0  0  0  0  0
   -2.4073   22.8699  -30.9185 H   0  0  0  0  0  0  0  0  0  0  0  0
   -1.0926   21.5430  -29.2684 H   0  0  0  0  0  0  0  0  0  0  0  0
    2.5948   19.5919  -29.4734 H   0  0  0  0  0  0  0  0  0  0  0  0
    1.9755   17.1745  -29.7121 H   0  0  0  0  0  0  0  0  0  0  0  0
   -0.0326   16.3156  -28.4779 H   0  0  0  0  0  0  0  0  0  0  0  0
   -1.8919   24.5214  -26.2312 H   0  0  0  0  0  0  0  0  0  0  0  0
   -3.2073   25.8507  -27.8802 H   0  0  0  0  0  0  0  0  0  0  0  0
   -7.5414   24.4599  -29.8818 H   0  0  0  0  0  0  0  0  0  0  0  0
   -8.7133   22.3438  -30.4835 H   0  0  0  0  0  0  0  0  0  0  0  0
   -7.0141   19.6565  -34.5626 H   0  0  0  0  0  0  0  0  0  0  0  0
   -5.3861   19.9373  -33.9147 H   0  0  0  0  0  0  0  0  0  0  0  0
   -6.0528   17.8276  -35.6051 H   0  0  0  0  0  0  0  0  0  0  0  0
   -4.6732   17.7711  -34.5031 H   0  0  0  0  0  0  0  0  0  0  0  0
   -7.1468   16.2282  -34.3825 H   0  0  0  0  0  0  0  0  0  0  0  0
   -5.7778   16.1173  -33.2702 H   0  0  0  0  0  0  0  0  0  0  0  0
   -8.3483   17.6402  -33.0048 H   0  0  0  0  0  0  0  0  0  0  0  0
   -7.2656   17.0682  -31.7197 H   0  0  0  0  0  0  0  0  0  0  0  0
   -5.3118   21.1326  -32.8692 H   0  0  0  0  0  0  0  0  0  0  0  0
   -4.1338   23.2438  -32.2661 H   0  0  0  0  0  0  0  0  0  0  0  0
  1  2  2  0
  2  3  1  0
  3  4  1  0
  4  5  2  0
  5  6  1  0
  6  7  2  0
  7  8  1  0
  8  9  2  0
  8 10  2  0
  8 11  1  0
 11 12  2  3
 12 13  1  0
 13 14  2  0
 14 15  1  0
 15 16  2  0
 16 17  1  0
  7 18  1  0
 18 19  2  0
  2 20  1  0
 20 21  2  0
 21 22  1  0
 22 23  2  0
 23 24  1  0
 24 25  2  0
 24 26  2  0
 24 27  1  0
 27 28  1  0
 28 29  1  0
 29 30  1  0
 30 31  1  0
 23 32  1  0
 32 33  2  0
 19  4  1  0
 33 20  1  0
 17 12  1  0
 31 27  1  0
  5 34  1  0
  6 35  1  0
 14 36  1  0
 15 37  1  0
 16 38  1  0
 18 39  1  0
 19 40  1  0
 21 41  1  0
 22 42  1  0
 28 43  1  0
 28 44  1  0
 29 45  1  0
 29 46  1  0
 30 47  1  0
 30 48  1  0
 31 49  1  0
 31 50  1  0
 32 51  1  0
 33 52  1  0
M  CHG  2   3  -1  17  -1
M  END
>  <UniqueID>  (23) 
22

>  <SMILES>  (23) 
O=C([N-]c1ccc(S(=O)(=O)N=c2nccc[n-]2)cc1)c1ccc(S(=O)(=O)N2CCCC2)cc1

>  <Energy>  (23) 
66.48896479497242

>  <Genealogy>  (23) 
O=C([N-]c1ccc(S(=O)(=O)N=c2nccc[n-]2)cc1)c1ccc(S(=O)(=O)N2CCCC2)cc1 (protonated)
O=C([N-]c1ccc(S(=O)(=O)N=c2nccc[n-]2)cc1)c1ccc(S(=O)(=O)N2CCCC2)cc1 (3D coordinates assigned)
O=C([N-]c1ccc(S(=O)(=O)N=c2nccc[n-]2)cc1)c1ccc(S(=O)(=O)N2CCCC2)cc1 (nonaromatic ring conformer: 66.48896479497242 kcal/mol)

>  <smiles>  (23) 
O=C(Nc1ccc(S(=O)(=O)N=c2nccc[nH]2)cc1)c1ccc(S(=O)(=O)N2CCCC2)cc1

>  <score_type>  (23) 
oracle

>  <origin>  (23) 
adgpu

>  <m_score__min__energy>  (23) 
-12.59

>  <m_primary>  (23) 
energy

$$$$
23:0
     RDKit          3D

 35 37  0  0  0  0  0  0  0  0999 V2000
   -6.0870   16.7270  -31.5630 C   0  0  0  0  0  0  0  0  0  0  0  0
   -6.9680   17.6060  -32.2550 O   0  0  0  0  0  0  0  0  0  0  0  0
   -6.8730   19.0070  -32.2360 C   0  0  0  0  0  0  0  0  0  0  0  0
   -7.8120   19.8090  -31.5610 C   0  0  0  0  0  0  0  0  0  0  0  0
   -7.6880   21.2000  -31.5640 C   0  0  0  0  0  0  0  0  0  0  0  0
   -6.6170   21.8210  -32.2260 C   0  0  0  0  0  0  0  0  0  0  0  0
   -6.4760   23.2960  -32.2470 C   0  0  0  0  0  0  0  0  0  0  0  0
   -7.3080   23.9830  -32.9010 O   0  0  0  0  0  0  0  0  0  0  0  0
   -5.3800   23.9950  -31.5510 C   0  0  0  0  0  0  0  0  0  0  0  0
   -5.4170   25.2950  -31.2070 N   0  0  0  0  0  0  0  0  0  0  0  0
   -4.2400   25.5290  -30.6510 N   0  0  0  0  0  0  0  0  0  0  0  0
   -3.5120   24.4240  -30.6620 N   0  0  0  0  0  0  0  0  0  0  0  0
   -4.1970   23.4420  -31.2250 N   0  0  0  0  0  0  0  0  0  0  0  0
   -5.6870   21.0230  -32.9120 C   0  0  0  0  0  0  0  0  0  0  0  0
   -5.8110   19.6250  -32.9220 C   0  0  0  0  0  0  0  0  0  0  0  0
   -4.8060   18.8100  -33.6360 C   0  0  0  0  0  0  0  0  0  0  0  0
   -5.2610   17.8880  -34.5930 C   0  0  0  0  0  0  0  0  0  0  0  0
   -4.3600   17.0710  -35.2750 C   0  0  0  0  0  0  0  0  0  0  0  0
   -2.9960   17.1610  -35.0060 C   0  0  0  0  0  0  0  0  0  0  0  0
   -2.5240   18.0770  -34.0630 C   0  0  0  0  0  0  0  0  0  0  0  0
   -3.4130   18.9310  -33.3800 C   0  0  0  0  0  0  0  0  0  0  0  0
   -2.8750   19.9220  -32.3660 C   0  0  0  0  0  0  0  0  0  0  0  0
   -1.5750   19.6160  -32.0000 F   0  0  0  0  0  0  0  0  0  0  0  0
   -3.6650   19.8990  -31.2320 F   0  0  0  0  0  0  0  0  0  0  0  0
   -2.8730   21.2000  -32.8940 F   0  0  0  0  0  0  0  0  0  0  0  0
   -6.2169   16.8566  -30.4784 H   0  0  0  0  0  0  0  0  0  0  0  0
   -6.3161   15.6869  -31.8380 H   0  0  0  0  0  0  0  0  0  0  0  0
   -5.0474   16.9585  -31.8380 H   0  0  0  0  0  0  0  0  0  0  0  0
   -8.6498   19.3367  -31.0271 H   0  0  0  0  0  0  0  0  0  0  0  0
   -8.4365   21.8149  -31.0428 H   0  0  0  0  0  0  0  0  0  0  0  0
   -4.8522   21.4989  -33.4474 H   0  0  0  0  0  0  0  0  0  0  0  0
   -6.3373   17.8098  -34.8063 H   0  0  0  0  0  0  0  0  0  0  0  0
   -4.7263   16.3552  -36.0256 H   0  0  0  0  0  0  0  0  0  0  0  0
   -2.2882   16.5084  -35.5381 H   0  0  0  0  0  0  0  0  0  0  0  0
   -1.4460   18.1324  -33.8510 H   0  0  0  0  0  0  0  0  0  0  0  0
  1  2  1  0
  2  3  1  0
  3  4  2  0
  4  5  1  0
  5  6  2  0
  6  7  1  0
  7  8  2  0
  7  9  1  0
  9 10  1  0
 10 11  2  0
 11 12  1  0
 12 13  1  0
  6 14  1  0
 14 15  2  0
 15 16  1  0
 16 17  2  0
 17 18  1  0
 18 19  2  0
 19 20  1  0
 20 21  2  0
 21 22  1  0
 22 23  1  0
 22 24  1  0
 22 25  1  0
 15  3  1  0
 21 16  1  0
 13  9  2  0
  1 26  1  0
  1 27  1  0
  1 28  1  0
  4 29  1  0
  5 30  1  0
 14 31  1  0
 17 32  1  0
 18 33  1  0
 19 34  1  0
 20 35  1  0
M  CHG  1  12  -1
M  END
>  <UniqueID>  (24) 
23

>  <SMILES>  (24) 
COc1ccc(C(=O)c2nn[n-]n2)cc1-c1ccccc1C(F)(F)F

>  <Energy>  (24) 
88.53907670395395

>  <Genealogy>  (24) 
COc1ccc(C(=O)c2nn[n-]n2)cc1-c1ccccc1C(F)(F)F (protonated)
COc1ccc(C(=O)c2nn[n-]n2)cc1-c1ccccc1C(F)(F)F (3D coordinates assigned)
COc1ccc(C(=O)c2nn[n-]n2)cc1-c1ccccc1C(F)(F)F (optimized conformer: 88.53907670395395 kcal/mol)

>  <smiles>  (24) 
COc1ccc(C(=O)c2nn[nH]n2)cc1-c1ccccc1C(F)(F)F

>  <score_type>  (24) 
oracle

>  <origin>  (24) 
adgpu

>  <m_score__min__energy>  (24) 
-9.0899999999999999

>  <m_primary>  (24) 
energy

$$$$
24:0
     RDKit          3D

 41 43  0  0  0  0  0  0  0  0999 V2000
   -1.5240   22.0100  -28.3390 O   0  0  0  0  0  0  0  0  0  0  0  0
   -1.9550   23.4010  -28.7100 S   0  0  0  0  0  0  0  0  0  0  0  0
   -1.4410   23.7160  -30.0860 O   0  0  0  0  0  0  0  0  0  0  0  0
   -3.6840   23.4880  -28.7130 N   0  0  0  0  0  0  0  0  0  0  0  0
   -4.4300   23.3030  -29.9150 C   0  0  0  0  0  0  0  0  0  0  0  0
   -4.9640   22.0420  -30.2040 C   0  0  0  0  0  0  0  0  0  0  0  0
   -5.6950   21.8340  -31.3830 C   0  0  0  0  0  0  0  0  0  0  0  0
   -6.3180   20.2300  -31.7690 S   0  0  0  0  0  0  0  0  0  0  0  0
   -5.3600   19.1910  -31.2520 O   0  0  0  0  0  0  0  0  0  0  0  0
   -6.4000   20.0780  -33.2630 O   0  0  0  0  0  0  0  0  0  0  0  0
   -7.9050   19.9600  -31.0790 N   0  0  0  0  0  0  0  0  0  0  0  0
   -8.6400   18.9390  -31.8340 C   0  0  0  0  0  0  0  0  0  0  0  0
   -9.5720   19.6450  -32.8050 C   0  0  0  0  0  0  0  0  0  0  0  0
   -9.6680   21.0760  -32.3170 C   0  0  0  0  0  0  0  0  0  0  0  0
   -8.7220   21.1770  -31.1290 C   0  0  0  0  0  0  0  0  0  0  0  0
   -5.9110   22.9070  -32.2590 C   0  0  0  0  0  0  0  0  0  0  0  0
   -5.3870   24.1690  -31.9680 C   0  0  0  0  0  0  0  0  0  0  0  0
   -4.6490   24.3720  -30.7970 C   0  0  0  0  0  0  0  0  0  0  0  0
   -4.1490   25.6370  -30.5110 O   0  0  0  0  0  0  0  0  0  0  0  0
   -1.3080   24.5850  -27.5720 C   0  0  0  0  0  0  0  0  0  0  0  0
   -1.0760   24.2250  -26.2360 C   0  0  0  0  0  0  0  0  0  0  0  0
   -0.5560   25.1590  -25.3360 C   0  0  0  0  0  0  0  0  0  0  0  0
   -0.2670   26.4580  -25.7630 C   0  0  0  0  0  0  0  0  0  0  0  0
    0.2320   27.3640  -24.8860 F   0  0  0  0  0  0  0  0  0  0  0  0
   -0.5020   26.8250  -27.0900 C   0  0  0  0  0  0  0  0  0  0  0  0
   -1.0170   25.8930  -27.9970 C   0  0  0  0  0  0  0  0  0  0  0  0
   -1.2350   26.2750  -29.3160 O   0  0  0  0  0  0  0  0  0  0  0  0
   -4.8095   21.2090  -29.5024 H   0  0  0  0  0  0  0  0  0  0  0  0
   -7.9328   18.3062  -32.3902 H   0  0  0  0  0  0  0  0  0  0  0  0
   -9.2178   18.3020  -31.1482 H   0  0  0  0  0  0  0  0  0  0  0  0
   -9.1585   19.6145  -33.8239 H   0  0  0  0  0  0  0  0  0  0  0  0
  -10.5598   19.1624  -32.8421 H   0  0  0  0  0  0  0  0  0  0  0  0
   -9.3604   21.7723  -33.1111 H   0  0  0  0  0  0  0  0  0  0  0  0
  -10.6986   21.3380  -32.0355 H   0  0  0  0  0  0  0  0  0  0  0  0
   -8.0713   22.0560  -31.2467 H   0  0  0  0  0  0  0  0  0  0  0  0
   -9.2973   21.2829  -30.1974 H   0  0  0  0  0  0  0  0  0  0  0  0
   -6.4951   22.7548  -33.1786 H   0  0  0  0  0  0  0  0  0  0  0  0
   -5.5553   25.0058  -32.6619 H   0  0  0  0  0  0  0  0  0  0  0  0
   -1.3042   23.2041  -25.8958 H   0  0  0  0  0  0  0  0  0  0  0  0
   -0.3739   24.8714  -24.2900 H   0  0  0  0  0  0  0  0  0  0  0  0
   -0.2814   27.8500  -27.4228 H   0  0  0  0  0  0  0  0  0  0  0  0
  1  2  2  0
  2  3  2  0
  2  4  1  0
  4  5  1  0
  5  6  2  0
  6  7  1  0
  7  8  1  0
  8  9  2  0
  8 10  2  0
  8 11  1  0
 11 12  1  0
 12 13  1  0
 13 14  1  0
 14 15  1  0
  7 16  2  0
 16 17  1  0
 17 18  2  0
 18 19  1  0
  2 20  1  0
 20 21  2  0
 21 22  1  0
 22 23  2  0
 23 24  1  0
 23 25  1  0
 25 26  2  0
 26 27  1  0
 18  5  1  0
 26 20  1  0
 15 11  1  0
  6 28  1  0
 12 29  1  0
 12 30  1  0
 13 31  1  0
 13 32  1  0
 14 33  1  0
 14 34  1  0
 15 35  1  0
 15 36  1  0
 16 37  1  0
 17 38  1  0
 21 39  1  0
 22 40  1  0
 25 41  1  0
M  CHG  3   4  -1  19  -1  27  -1
M  END
>  <UniqueID>  (25) 
24

>  <SMILES>  (25) 
O=S(=O)([N-]c1cc(S(=O)(=O)N2CCCC2)ccc1[O-])c1ccc(F)cc1[O-]

>  <Energy>  (25) 
49.68359983797436

>  <Genealogy>  (25) 
O=S(=O)([N-]c1cc(S(=O)(=O)N2CCCC2)ccc1[O-])c1ccc(F)cc1[O-] (protonated)
O=S(=O)([N-]c1cc(S(=O)(=O)N2CCCC2)ccc1[O-])c1ccc(F)cc1[O-] (3D coordinates assigned)
O=S(=O)([N-]c1cc(S(=O)(=O)N2CCCC2)ccc1[O-])c1ccc(F)cc1[O-] (nonaromatic ring conformer: 49.68359983797436 kcal/mol)

>  <smiles>  (25) 
O=S(=O)(Nc1cc(S(=O)(=O)N2CCCC2)ccc1O)c1ccc(F)cc1O

>  <score_type>  (25) 
oracle

>  <origin>  (25) 
adgpu

>  <m_score__min__energy>  (25) 
-15.369999999999999

>  <m_primary>  (25) 
energy

$$$$
25:0
     RDKit          3D

 51 54  0  0  0  0  0  0  0  0999 V2000
   -2.7270   24.0550  -27.7350 O   0  0  0  0  0  0  0  0  0  0  0  0
   -2.7840   24.0320  -28.9910 C   0  0  0  0  0  0  0  0  0  0  0  0
   -1.6720   23.5060  -29.7260 N   0  0  0  0  0  0  0  0  0  0  0  0
   -1.7050   22.3800  -30.6150 C   0  0  0  0  0  0  0  0  0  0  0  0
   -0.6000   21.5240  -30.6660 C   0  0  0  0  0  0  0  0  0  0  0  0
   -0.6140   20.4030  -31.5030 C   0  0  0  0  0  0  0  0  0  0  0  0
   -1.7410   20.1210  -32.2860 C   0  0  0  0  0  0  0  0  0  0  0  0
   -1.7670   18.6770  -33.2910 S   0  0  0  0  0  0  0  0  0  0  0  0
   -1.1610   17.5240  -32.5400 O   0  0  0  0  0  0  0  0  0  0  0  0
   -0.9620   18.8960  -34.5420 O   0  0  0  0  0  0  0  0  0  0  0  0
   -3.4350   18.3130  -33.7120 C   0  0  0  0  0  0  0  0  0  0  0  0
   -3.7450   17.7840  -34.9720 C   0  0  0  0  0  0  0  0  0  0  0  0
   -5.0670   17.4640  -35.2940 C   0  0  0  0  0  0  0  0  0  0  0  0
   -6.0840   17.6640  -34.3580 C   0  0  0  0  0  0  0  0  0  0  0  0
   -5.7850   18.1890  -33.0930 C   0  0  0  0  0  0  0  0  0  0  0  0
   -7.0660   18.4360  -31.9050 S   0  0  0  0  0  0  0  0  0  0  0  0
   -6.6800   17.7610  -30.6180 O   0  0  0  0  0  0  0  0  0  0  0  0
   -8.3350   17.7990  -32.4000 O   0  0  0  0  0  0  0  0  0  0  0  0
   -7.3450   20.1350  -31.6020 N   0  0  0  0  0  0  0  0  0  0  0  0
   -6.6350   20.9550  -32.5970 C   0  0  0  0  0  0  0  0  0  0  0  0
   -6.6640   22.4380  -32.1820 C   0  0  0  0  0  0  0  0  0  0  0  0
   -7.8590   22.7710  -31.2730 C   0  0  0  0  0  0  0  0  0  0  0  0
   -9.0900   21.9420  -31.6520 C   0  0  0  0  0  0  0  0  0  0  0  0
   -8.7940   20.4250  -31.6120 C   0  0  0  0  0  0  0  0  0  0  0  0
   -4.4570   18.5090  -32.7720 C   0  0  0  0  0  0  0  0  0  0  0  0
   -2.8600   20.9600  -32.2160 C   0  0  0  0  0  0  0  0  0  0  0  0
   -2.8470   22.0800  -31.3790 C   0  0  0  0  0  0  0  0  0  0  0  0
   -3.9580   24.6130  -29.6670 C   0  0  0  0  0  0  0  0  0  0  0  0
   -5.2000   24.5900  -29.1460 N   0  0  0  0  0  0  0  0  0  0  0  0
   -5.9060   25.2610  -30.0760 C   0  0  0  0  0  0  0  0  0  0  0  0
   -5.1380   25.6750  -31.1000 N   0  0  0  0  0  0  0  0  0  0  0  0
   -3.9070   25.2690  -30.8400 N   0  0  0  0  0  0  0  0  0  0  0  0
    0.2838   21.7331  -30.0454 H   0  0  0  0  0  0  0  0  0  0  0  0
    0.2631   19.7406  -31.5465 H   0  0  0  0  0  0  0  0  0  0  0  0
   -2.9457   17.6201  -35.7098 H   0  0  0  0  0  0  0  0  0  0  0  0
   -5.3067   17.0540  -36.2862 H   0  0  0  0  0  0  0  0  0  0  0  0
   -7.1229   17.4088  -34.6142 H   0  0  0  0  0  0  0  0  0  0  0  0
   -5.5904   20.6176  -32.6672 H   0  0  0  0  0  0  0  0  0  0  0  0
   -7.1313   20.8454  -33.5726 H   0  0  0  0  0  0  0  0  0  0  0  0
   -5.7343   22.6718  -31.6425 H   0  0  0  0  0  0  0  0  0  0  0  0
   -6.7621   23.0398  -33.0975 H   0  0  0  0  0  0  0  0  0  0  0  0
   -7.5876   22.5540  -30.2293 H   0  0  0  0  0  0  0  0  0  0  0  0
   -8.1045   23.8362  -31.3960 H   0  0  0  0  0  0  0  0  0  0  0  0
   -9.9017   22.1654  -30.9440 H   0  0  0  0  0  0  0  0  0  0  0  0
   -9.3783   22.2075  -32.6798 H   0  0  0  0  0  0  0  0  0  0  0  0
   -9.2457   20.0006  -30.7033 H   0  0  0  0  0  0  0  0  0  0  0  0
   -9.2203   19.9755  -32.5210 H   0  0  0  0  0  0  0  0  0  0  0  0
   -4.2165   18.9154  -31.7785 H   0  0  0  0  0  0  0  0  0  0  0  0
   -3.7514   20.7374  -32.8209 H   0  0  0  0  0  0  0  0  0  0  0  0
   -3.7332   22.7288  -31.3179 H   0  0  0  0  0  0  0  0  0  0  0  0
   -6.9875   25.4492  -30.0063 H   0  0  0  0  0  0  0  0  0  0  0  0
  1  2  2  0
  2  3  1  0
  3  4  1  0
  4  5  2  0
  5  6  1  0
  6  7  2  0
  7  8  1  0
  8  9  2  0
  8 10  2  0
  8 11  1  0
 11 12  2  0
 12 13  1  0
 13 14  2  0
 14 15  1  0
 15 16  1  0
 16 17  2  0
 16 18  2  0
 16 19  1  0
 19 20  1  0
 20 21  1  0
 21 22  1  0
 22 23  1  0
 23 24  1  0
 15 25  2  0
  7 26  1  0
 26 27  2  0
  2 28  1  0
 28 29  1  0
 29 30  2  0
 30 31  1  0
 31 32  1  0
 27  4  1  0
 32 28  2  0
 25 11  1  0
 24 19  1  0
  5 33  1  0
  6 34  1  0
 12 35  1  0
 13 36  1  0
 14 37  1  0
 20 38  1  0
 20 39  1  0
 21 40  1  0
 21 41  1  0
 22 42  1  0
 22 43  1  0
 23 44  1  0
 23 45  1  0
 24 46  1  0
 24 47  1  0
 25 48  1  0
 26 49  1  0
 27 50  1  0
 30 51  1  0
M  CHG  2   3  -1  31  -1
M  END
>  <UniqueID>  (26) 
25

>  <SMILES>  (26) 
O=C([N-]c1ccc(S(=O)(=O)c2cccc(S(=O)(=O)N3CCCCC3)c2)cc1)c1nc[n-]n1

>  <Energy>  (26) 
94.65172138424404

>  <Genealogy>  (26) 
O=C([N-]c1ccc(S(=O)(=O)c2cccc(S(=O)(=O)N3CCCCC3)c2)cc1)c1nc[n-]n1 (protonated)
O=C([N-]c1ccc(S(=O)(=O)c2cccc(S(=O)(=O)N3CCCCC3)c2)cc1)c1nc[n-]n1 (3D coordinates assigned)
O=C([N-]c1ccc(S(=O)(=O)c2cccc(S(=O)(=O)N3CCCCC3)c2)cc1)c1nc[n-]n1 (nonaromatic ring conformer: 94.65172138424404 kcal/mol)

>  <smiles>  (26) 
O=C(Nc1ccc(S(=O)(=O)c2cccc(S(=O)(=O)N3CCCCC3)c2)cc1)c1nc[nH]n1

>  <score_type>  (26) 
oracle

>  <origin>  (26) 
adgpu

>  <m_score__min__energy>  (26) 
-12.44

>  <m_primary>  (26) 
energy

$$$$
26:0
     RDKit          3D

 59 62  0  0  0  0  0  0  0  0999 V2000
   -2.7430   17.2800  -34.9190 C   0  0  0  0  0  0  0  0  0  0  0  0
   -3.7450   17.9320  -34.0130 C   0  0  0  0  0  0  0  0  0  0  0  0
   -4.9890   17.3240  -33.7830 C   0  0  0  0  0  0  0  0  0  0  0  0
   -5.9380   17.9400  -32.9530 C   0  0  0  0  0  0  0  0  0  0  0  0
   -7.2740   17.2980  -32.7290 C   0  0  0  0  0  0  0  0  0  0  0  0
   -5.6540   19.1940  -32.3910 C   0  0  0  0  0  0  0  0  0  0  0  0
   -4.4230   19.8180  -32.6360 C   0  0  0  0  0  0  0  0  0  0  0  0
   -4.0520   21.3810  -31.9080 S   0  0  0  0  0  0  0  0  0  0  0  0
   -3.3910   21.1200  -30.5820 O   0  0  0  0  0  0  0  0  0  0  0  0
   -3.0970   22.1340  -32.7900 O   0  0  0  0  0  0  0  0  0  0  0  0
   -5.5240   22.3450  -31.6750 C   0  0  0  0  0  0  0  0  0  0  0  0
   -6.7340   21.8550  -32.1990 C   0  0  0  0  0  0  0  0  0  0  0  0
   -7.9340   22.5310  -31.9770 C   0  0  0  0  0  0  0  0  0  0  0  0
   -7.9460   23.7050  -31.2290 C   0  0  0  0  0  0  0  0  0  0  0  0
   -6.7550   24.2200  -30.7160 C   0  0  0  0  0  0  0  0  0  0  0  0
   -5.5300   23.5640  -30.9420 C   0  0  0  0  0  0  0  0  0  0  0  0
   -4.3000   24.1990  -30.4160 C   0  0  0  0  0  0  0  0  0  0  0  0
   -3.9220   25.3180  -30.8590 O   0  0  0  0  0  0  0  0  0  0  0  0
   -3.5410   23.5300  -29.4000 N   0  0  0  0  0  0  0  0  0  0  0  0
   -2.7700   24.1470  -28.3590 C   0  0  0  0  0  0  0  0  0  0  0  0
   -3.4300   24.5780  -27.2020 C   0  0  0  0  0  0  0  0  0  0  0  0
   -2.7220   25.2080  -26.1730 C   0  0  0  0  0  0  0  0  0  0  0  0
   -1.3430   25.4210  -26.2970 C   0  0  0  0  0  0  0  0  0  0  0  0
   -0.4460   26.2430  -25.0240 S   0  0  0  0  0  0  0  0  0  0  0  0
   -1.3240   26.4250  -23.8140 O   0  0  0  0  0  0  0  0  0  0  0  0
    0.7370   25.4020  -24.6350 O   0  0  0  0  0  0  0  0  0  0  0  0
    0.1070   27.7880  -25.6180 N   0  0  0  0  0  0  0  0  0  0  0  0
   -0.4230   28.0660  -26.9530 C   0  0  0  0  0  0  0  0  0  0  0  0
   -0.4980   29.5800  -27.0860 C   0  0  0  0  0  0  0  0  0  0  0  0
   -0.4310   30.1140  -25.6640 C   0  0  0  0  0  0  0  0  0  0  0  0
   -0.3680   28.8840  -24.7740 C   0  0  0  0  0  0  0  0  0  0  0  0
   -0.6840   25.0210  -27.4650 C   0  0  0  0  0  0  0  0  0  0  0  0
   -1.3910   24.3920  -28.4950 C   0  0  0  0  0  0  0  0  0  0  0  0
   -3.4720   19.1840  -33.4450 C   0  0  0  0  0  0  0  0  0  0  0  0
   -1.9730   16.7790  -34.3139 H   0  0  0  0  0  0  0  0  0  0  0  0
   -3.2504   16.5386  -35.5537 H   0  0  0  0  0  0  0  0  0  0  0  0
   -2.2707   18.0442  -35.5537 H   0  0  0  0  0  0  0  0  0  0  0  0
   -5.2214   16.3586  -34.2563 H   0  0  0  0  0  0  0  0  0  0  0  0
   -7.4611   17.2081  -31.6488 H   0  0  0  0  0  0  0  0  0  0  0  0
   -8.0596   17.9169  -33.1869 H   0  0  0  0  0  0  0  0  0  0  0  0
   -7.2816   16.2979  -33.1869 H   0  0  0  0  0  0  0  0  0  0  0  0
   -6.4016   19.6901  -31.7546 H   0  0  0  0  0  0  0  0  0  0  0  0
   -6.7340   20.9278  -32.7908 H   0  0  0  0  0  0  0  0  0  0  0  0
   -8.8722   22.1357  -32.3937 H   0  0  0  0  0  0  0  0  0  0  0  0
   -8.8958   24.2274  -31.0421 H   0  0  0  0  0  0  0  0  0  0  0  0
   -6.7734   25.1495  -30.1281 H   0  0  0  0  0  0  0  0  0  0  0  0
   -4.5139   24.4200  -27.1012 H   0  0  0  0  0  0  0  0  0  0  0  0
   -3.2490   25.5366  -25.2651 H   0  0  0  0  0  0  0  0  0  0  0  0
    0.2462   27.6505  -27.7208 H   0  0  0  0  0  0  0  0  0  0  0  0
   -1.4132   27.6068  -27.0896 H   0  0  0  0  0  0  0  0  0  0  0  0
    0.3486   29.9567  -27.6788 H   0  0  0  0  0  0  0  0  0  0  0  0
   -1.4159   29.9005  -27.6005 H   0  0  0  0  0  0  0  0  0  0  0  0
    0.4672   30.7342  -25.5277 H   0  0  0  0  0  0  0  0  0  0  0  0
   -1.2967   30.7488  -25.4241 H   0  0  0  0  0  0  0  0  0  0  0  0
    0.3300   29.0526  -23.9407 H   0  0  0  0  0  0  0  0  0  0  0  0
   -1.3523   28.6552  -24.3394 H   0  0  0  0  0  0  0  0  0  0  0  0
    0.3955   25.2022  -27.5736 H   0  0  0  0  0  0  0  0  0  0  0  0
   -0.8678   24.0881  -29.4136 H   0  0  0  0  0  0  0  0  0  0  0  0
   -2.5046   19.6716  -33.6359 H   0  0  0  0  0  0  0  0  0  0  0  0
  1  2  1  0
  2  3  2  0
  3  4  1  0
  4  5  1  0
  4  6  2  0
  6  7  1  0
  7  8  1  0
  8  9  2  0
  8 10  2  0
  8 11  1  0
 11 12  2  0
 12 13  1  0
 13 14  2  0
 14 15  1  0
 15 16  2  0
 16 17  1  0
 17 18  2  0
 17 19  1  0
 19 20  1  0
 20 21  2  0
 21 22  1  0
 22 23  2  0
 23 24  1  0
 24 25  2  0
 24 26  2  0
 24 27  1  0
 27 28  1  0
 28 29  1  0
 29 30  1  0
 30 31  1  0
 23 32  1  0
 32 33  2  0
  7 34  2  0
 34  2  1  0
 16 11  1  0
 33 20  1  0
 31 27  1  0
  1 35  1  0
  1 36  1  0
  1 37  1  0
  3 38  1  0
  5 39  1  0
  5 40  1  0
  5 41  1  0
  6 42  1  0
 12 43  1  0
 13 44  1  0
 14 45  1  0
 15 46  1  0
 21 47  1  0
 22 48  1  0
 28 49  1  0
 28 50  1  0
 29 51  1  0
 29 52  1  0
 30 53  1  0
 30 54  1  0
 31 55  1  0
 31 56  1  0
 32 57  1  0
 33 58  1  0
 34 59  1  0
M  CHG  1  19  -1
M  END
>  <UniqueID>  (27) 
26

>  <SMILES>  (27) 
Cc1cc(C)cc(S(=O)(=O)c2ccccc2C(=O)[N-]c2ccc(S(=O)(=O)N3CCCC3)cc2)c1

>  <Energy>  (27) 
73.34249168234008

>  <Genealogy>  (27) 
Cc1cc(C)cc(S(=O)(=O)c2ccccc2C(=O)[N-]c2ccc(S(=O)(=O)N3CCCC3)cc2)c1 (protonated)
Cc1cc(C)cc(S(=O)(=O)c2ccccc2C(=O)[N-]c2ccc(S(=O)(=O)N3CCCC3)cc2)c1 (3D coordinates assigned)
Cc1cc(C)cc(S(=O)(=O)c2ccccc2C(=O)[N-]c2ccc(S(=O)(=O)N3CCCC3)cc2)c1 (nonaromatic ring conformer: 73.34249168234008 kcal/mol)

>  <smiles>  (27) 
Cc1cc(C)cc(S(=O)(=O)c2ccccc2C(=O)Nc2ccc(S(=O)(=O)N3CCCC3)cc2)c1

>  <score_type>  (27) 
oracle

>  <origin>  (27) 
adgpu

>  <m_score__min__energy>  (27) 
-12.220000000000001

>  <m_primary>  (27) 
energy

$$$$
27:0
     RDKit          3D

 65 68  0  0  0  0  0  0  0  0999 V2000
   -4.5810   24.1920  -28.4060 C   0  0  0  0  0  0  0  0  0  0  0  0
   -5.3830   24.9120  -29.8210 S   0  0  0  0  0  0  0  0  0  0  0  0
   -6.0700   26.1860  -29.4160 O   0  0  0  0  0  0  0  0  0  0  0  0
   -4.3560   25.2320  -30.8710 O   0  0  0  0  0  0  0  0  0  0  0  0
   -6.5650   23.7770  -30.4650 C   0  0  0  0  0  0  0  0  0  0  0  0
   -7.1710   22.8330  -29.6230 C   0  0  0  0  0  0  0  0  0  0  0  0
   -8.1070   21.9320  -30.1360 C   0  0  0  0  0  0  0  0  0  0  0  0
   -8.4630   21.9750  -31.4950 C   0  0  0  0  0  0  0  0  0  0  0  0
   -9.4310   20.9720  -32.0620 C   0  0  0  0  0  0  0  0  0  0  0  0
   -8.7080   19.7280  -32.4700 C   0  0  0  0  0  0  0  0  0  0  0  0
   -9.1860   18.6010  -32.1670 O   0  0  0  0  0  0  0  0  0  0  0  0
   -7.5090   19.8260  -33.2500 N   0  0  0  0  0  0  0  0  0  0  0  0
   -6.5270   18.7890  -33.3790 C   0  0  0  0  0  0  0  0  0  0  0  0
   -6.2490   17.9730  -32.2770 C   0  0  0  0  0  0  0  0  0  0  0  0
   -5.2690   16.9780  -32.3620 C   0  0  0  0  0  0  0  0  0  0  0  0
   -4.5820   16.7680  -33.5660 C   0  0  0  0  0  0  0  0  0  0  0  0
   -3.2540   15.6170  -33.6600 S   0  0  0  0  0  0  0  0  0  0  0  0
   -3.3170   14.8660  -34.9610 O   0  0  0  0  0  0  0  0  0  0  0  0
   -3.3280   14.6250  -32.5320 O   0  0  0  0  0  0  0  0  0  0  0  0
   -1.7550   16.5330  -33.5570 C   0  0  0  0  0  0  0  0  0  0  0  0
   -0.5670   15.9130  -33.1430 C   0  0  0  0  0  0  0  0  0  0  0  0
    0.5840   16.6770  -32.9270 C   0  0  0  0  0  0  0  0  0  0  0  0
    0.5470   18.0650  -33.0960 C   0  0  0  0  0  0  0  0  0  0  0  0
   -0.6380   18.6920  -33.5040 C   0  0  0  0  0  0  0  0  0  0  0  0
   -0.7320   20.4510  -33.6210 S   0  0  0  0  0  0  0  0  0  0  0  0
    0.5330   21.0580  -33.0800 O   0  0  0  0  0  0  0  0  0  0  0  0
   -0.8550   20.8390  -35.0680 O   0  0  0  0  0  0  0  0  0  0  0  0
   -2.1040   21.0770  -32.7340 N   0  0  0  0  0  0  0  0  0  0  0  0
   -2.0980   20.5550  -31.3500 C   0  0  0  0  0  0  0  0  0  0  0  0
   -3.4410   20.7960  -30.6220 C   0  0  0  0  0  0  0  0  0  0  0  0
   -4.2760   21.8740  -31.3200 C   0  0  0  0  0  0  0  0  0  0  0  0
   -4.5380   21.5070  -32.7900 C   0  0  0  0  0  0  0  0  0  0  0  0
   -3.3620   20.7380  -33.4210 C   0  0  0  0  0  0  0  0  0  0  0  0
   -1.7780   17.9190  -33.7580 C   0  0  0  0  0  0  0  0  0  0  0  0
   -4.8990   17.5480  -34.6860 C   0  0  0  0  0  0  0  0  0  0  0  0
   -5.8640   18.5540  -34.5950 C   0  0  0  0  0  0  0  0  0  0  0  0
   -7.8570   22.9250  -32.3350 C   0  0  0  0  0  0  0  0  0  0  0  0
   -6.9170   23.8230  -31.8210 C   0  0  0  0  0  0  0  0  0  0  0  0
   -5.0296   24.5947  -27.4859 H   0  0  0  0  0  0  0  0  0  0  0  0
   -4.7087   23.0997  -28.4285 H   0  0  0  0  0  0  0  0  0  0  0  0
   -3.5087   24.4363  -28.4285 H   0  0  0  0  0  0  0  0  0  0  0  0
   -6.9083   22.8021  -28.5553 H   0  0  0  0  0  0  0  0  0  0  0  0
   -8.5679   21.1850  -29.4730 H   0  0  0  0  0  0  0  0  0  0  0  0
  -10.1827   20.7214  -31.2990 H   0  0  0  0  0  0  0  0  0  0  0  0
   -9.9218   21.4072  -32.9450 H   0  0  0  0  0  0  0  0  0  0  0  0
   -6.8043   18.1146  -31.3381 H   0  0  0  0  0  0  0  0  0  0  0  0
   -5.0371   16.3593  -31.4825 H   0  0  0  0  0  0  0  0  0  0  0  0
   -0.5407   14.8243  -32.9880 H   0  0  0  0  0  0  0  0  0  0  0  0
    1.5202   16.1856  -32.6236 H   0  0  0  0  0  0  0  0  0  0  0  0
    1.4495   18.6653  -32.9084 H   0  0  0  0  0  0  0  0  0  0  0  0
   -1.9028   19.4729  -31.3816 H   0  0  0  0  0  0  0  0  0  0  0  0
   -1.3146   21.0904  -30.7935 H   0  0  0  0  0  0  0  0  0  0  0  0
   -4.0124   19.8562  -30.6068 H   0  0  0  0  0  0  0  0  0  0  0  0
   -3.2214   21.1392  -29.6002 H   0  0  0  0  0  0  0  0  0  0  0  0
   -5.2390   21.9762  -30.7983 H   0  0  0  0  0  0  0  0  0  0  0  0
   -3.7176   22.8213  -31.2909 H   0  0  0  0  0  0  0  0  0  0  0  0
   -5.4396   20.8789  -32.8422 H   0  0  0  0  0  0  0  0  0  0  0  0
   -4.6667   22.4437  -33.3521 H   0  0  0  0  0  0  0  0  0  0  0  0
   -3.5450   19.6571  -33.3311 H   0  0  0  0  0  0  0  0  0  0  0  0
   -3.2781   21.0184  -34.4814 H   0  0  0  0  0  0  0  0  0  0  0  0
   -2.6976   18.4036  -34.1178 H   0  0  0  0  0  0  0  0  0  0  0  0
   -4.3854   17.3673  -35.6418 H   0  0  0  0  0  0  0  0  0  0  0  0
   -6.1054   19.1639  -35.4780 H   0  0  0  0  0  0  0  0  0  0  0  0
   -8.1235   22.9621  -33.4016 H   0  0  0  0  0  0  0  0  0  0  0  0
   -6.4519   24.5683  -32.4830 H   0  0  0  0  0  0  0  0  0  0  0  0
  1  2  1  0
  2  3  2  0
  2  4  2  0
  2  5  1  0
  5  6  2  0
  6  7  1  0
  7  8  2  0
  8  9  1  0
  9 10  1  0
 10 11  2  0
 10 12  1  0
 12 13  1  0
 13 14  2  0
 14 15  1  0
 15 16  2  0
 16 17  1  0
 17 18  2  0
 17 19  2  0
 17 20  1  0
 20 21  2  0
 21 22  1  0
 22 23  2  0
 23 24  1  0
 24 25  1  0
 25 26  2  0
 25 27  2  0
 25 28  1  0
 28 29  1  0
 29 30  1  0
 30 31  1  0
 31 32  1  0
 32 33  1  0
 24 34  2  0
 16 35  1  0
 35 36  2  0
  8 37  1  0
 37 38  2  0
 38  5  1  0
 36 13  1  0
 34 20  1  0
 33 28  1  0
  1 39  1  0
  1 40  1  0
  1 41  1  0
  6 42  1  0
  7 43  1  0
  9 44  1  0
  9 45  1  0
 14 46  1  0
 15 47  1  0
 21 48  1  0
 22 49  1  0
 23 50  1  0
 29 51  1  0
 29 52  1  0
 30 53  1  0
 30 54  1  0
 31 55  1  0
 31 56  1  0
 32 57  1  0
 32 58  1  0
 33 59  1  0
 33 60  1  0
 34 61  1  0
 35 62  1  0
 36 63  1  0
 37 64  1  0
 38 65  1  0
M  CHG  1  12  -1
M  END
>  <UniqueID>  (28) 
27

>  <SMILES>  (28) 
CS(=O)(=O)c1ccc(CC(=O)[N-]c2ccc(S(=O)(=O)c3cccc(S(=O)(=O)N4CCCCC4)c3)cc2)cc1

>  <Energy>  (28) 
70.04507862873477

>  <Genealogy>  (28) 
CS(=O)(=O)c1ccc(CC(=O)[N-]c2ccc(S(=O)(=O)c3cccc(S(=O)(=O)N4CCCCC4)c3)cc2)cc1 (protonated)
CS(=O)(=O)c1ccc(CC(=O)[N-]c2ccc(S(=O)(=O)c3cccc(S(=O)(=O)N4CCCCC4)c3)cc2)cc1 (3D coordinates assigned)
CS(=O)(=O)c1ccc(CC(=O)[N-]c2ccc(S(=O)(=O)c3cccc(S(=O)(=O)N4CCCCC4)c3)cc2)cc1 (nonaromatic ring conformer: 70.04507862873477 kcal/mol)

>  <smiles>  (28) 
CS(=O)(=O)c1ccc(CC(=O)Nc2ccc(S(=O)(=O)c3cccc(S(=O)(=O)N4CCCCC4)c3)cc2)cc1

>  <score_type>  (28) 
oracle

>  <origin>  (28) 
adgpu

>  <m_score__min__energy>  (28) 
-13.83

>  <m_primary>  (28) 
energy

$$$$
28:0
     RDKit          3D

 45 47  0  0  1  0  0  0  0  0999 V2000
   -2.3230   25.5040  -26.0040 C   0  0  0  0  0  0  0  0  0  0  0  0
   -1.1040   26.3390  -26.3590 C   0  0  0  0  0  0  0  0  0  0  0  0
   -0.5670   25.9390  -28.0320 S   0  0  0  0  0  0  0  0  0  0  0  0
   -1.6300   24.6370  -28.6760 C   0  0  0  0  0  0  0  0  0  0  0  0
   -2.7430   24.9390  -29.3680 N   0  0  0  0  0  0  0  0  0  0  0  0
   -3.5510   23.9780  -29.8600 C   0  0  0  0  0  0  0  0  0  0  0  0
   -4.5910   24.3820  -30.5080 N   0  0  0  0  0  0  0  0  0  0  0  0
   -5.4540   23.3820  -31.0330 C   0  0  0  0  0  0  0  0  0  0  0  0
   -5.1710   22.7460  -32.2300 C   0  0  0  0  0  0  0  0  0  0  0  0
   -6.0370   21.7810  -32.7100 C   0  0  0  0  0  0  0  0  0  0  0  0
   -7.1630   21.4780  -31.9770 C   0  0  0  0  0  0  0  0  0  0  0  0
   -8.0450   20.4800  -32.4830 C   0  0  0  0  0  0  0  0  0  0  0  0
   -8.7820   19.6780  -32.8970 N   0  0  0  0  0  0  0  0  0  0  0  0
   -7.4250   22.1160  -30.7960 C   0  0  0  0  0  0  0  0  0  0  0  0
   -6.5840   23.0850  -30.2850 C   0  0  0  0  0  0  0  0  0  0  0  0
   -3.2460   22.6480  -29.6570 C   0  0  0  0  0  0  0  0  0  0  0  0
   -3.8510   21.5260  -30.0210 N   0  0  0  0  0  0  0  0  0  0  0  0
   -3.1070   20.4820  -29.5470 C   0  0  0  0  0  0  0  0  0  0  0  0
   -2.0330   20.9760  -28.8870 N   0  0  0  0  0  0  0  0  0  0  0  0
   -0.9790   20.2730  -28.2240 C   0  0  0  0  0  0  0  0  0  0  0  0
   -1.3560   19.8910  -26.8130 C   0  0  0  0  0  0  0  0  0  0  0  0
   -1.2680   21.1860  -25.9980 C   0  0  0  0  0  0  0  0  0  0  0  0
   -2.7280   19.3120  -26.6780 C   0  0  0  0  0  0  0  0  0  0  0  0
   -2.1040   22.3340  -28.9450 C   0  0  0  0  0  0  0  0  0  0  0  0
   -1.3250   23.3320  -28.4730 N   0  0  0  0  0  0  0  0  0  0  0  0
   -2.4172   25.4394  -24.9099 H   0  0  0  0  0  0  0  0  0  0  0  0
   -3.2246   25.9750  -26.4225 H   0  0  0  0  0  0  0  0  0  0  0  0
   -2.2095   24.4931  -26.4225 H   0  0  0  0  0  0  0  0  0  0  0  0
   -1.3621   27.4068  -26.3024 H   0  0  0  0  0  0  0  0  0  0  0  0
   -0.2911   26.1197  -25.6511 H   0  0  0  0  0  0  0  0  0  0  0  0
   -4.2638   23.0066  -32.7949 H   0  0  0  0  0  0  0  0  0  0  0  0
   -5.8306   21.2650  -33.6593 H   0  0  0  0  0  0  0  0  0  0  0  0
   -8.3334   21.8492  -30.2360 H   0  0  0  0  0  0  0  0  0  0  0  0
   -6.7990   23.5948  -29.3343 H   0  0  0  0  0  0  0  0  0  0  0  0
   -3.3422   19.4157  -29.6799 H   0  0  0  0  0  0  0  0  0  0  0  0
   -0.7504   19.3584  -28.7908 H   0  0  0  0  0  0  0  0  0  0  0  0
   -0.1046   20.9385  -28.1744 H   0  0  0  0  0  0  0  0  0  0  0  0
   -0.6762   19.0994  -26.4648 H   0  0  0  0  0  0  0  0  0  0  0  0
   -1.2843   20.9456  -24.9247 H   0  0  0  0  0  0  0  0  0  0  0  0
   -0.3322   21.7100  -26.2422 H   0  0  0  0  0  0  0  0  0  0  0  0
   -2.1243   21.8318  -26.2422 H   0  0  0  0  0  0  0  0  0  0  0  0
   -2.9782   19.2064  -25.6120 H   0  0  0  0  0  0  0  0  0  0  0  0
   -3.4568   19.9793  -27.1613 H   0  0  0  0  0  0  0  0  0  0  0  0
   -2.7584   18.3243  -27.1613 H   0  0  0  0  0  0  0  0  0  0  0  0
   -0.4630   23.0670  -27.9370 H   0  0  0  0  0  0  0  0  0  0  0  0
  1  2  1  0
  2  3  1  0
  3  4  1  0
  4  5  2  0
  5  6  1  0
  6  7  2  0
  7  8  1  0
  8  9  2  0
  9 10  1  0
 10 11  2  0
 11 12  1  0
 12 13  3  0
 11 14  1  0
 14 15  2  0
  6 16  1  0
 16 17  1  0
 17 18  2  0
 18 19  1  0
 19 20  1  0
 20 21  1  0
 21 22  1  0
 21 23  1  0
 19 24  1  0
 24 25  1  0
 25  4  1  0
 15  8  1  0
 24 16  2  0
  1 26  1  0
  1 27  1  0
  1 28  1  0
  2 29  1  0
  2 30  1  0
  9 31  1  0
 10 32  1  0
 14 33  1  0
 15 34  1  0
 18 35  1  0
 20 36  1  0
 20 37  1  0
 21 38  1  0
 22 39  1  0
 22 40  1  0
 22 41  1  0
 23 42  1  0
 23 43  1  0
 23 44  1  0
 25 45  1  0
M  END
>  <smiles>  (29) 
CCSc1nc(=Nc2ccc(C#N)cc2)c2ncn(CC(C)C)c2[nH]1

>  <score_type>  (29) 
oracle

>  <origin>  (29) 
adgpu

>  <m_score__min__energy>  (29) 
-7.7300000000000004

>  <m_primary>  (29) 
energy

$$$$
29:0
     RDKit          3D

 51 53  0  0  0  0  0  0  0  0999 V2000
  -10.2240   21.1860  -32.3070 O   0  0  0  0  0  0  0  0  0  0  0  0
   -8.9000   20.6660  -31.8170 S   0  0  0  0  0  0  0  0  0  0  0  0
   -9.1320   19.8330  -30.5870 O   0  0  0  0  0  0  0  0  0  0  0  0
   -7.8370   22.0060  -31.3980 C   0  0  0  0  0  0  0  0  0  0  0  0
   -7.4060   22.1590  -30.0740 C   0  0  0  0  0  0  0  0  0  0  0  0
   -6.5390   23.2000  -29.7310 C   0  0  0  0  0  0  0  0  0  0  0  0
   -6.0780   24.0920  -30.7130 C   0  0  0  0  0  0  0  0  0  0  0  0
   -5.1410   25.2160  -30.3480 C   0  0  0  0  0  0  0  0  0  0  0  0
   -3.7690   24.9300  -30.7900 N   0  0  0  0  0  0  0  0  0  0  0  0
   -3.2740   23.5860  -30.4350 C   0  0  0  0  0  0  0  0  0  0  0  0
   -3.2750   22.5230  -31.5740 C   0  0  0  0  0  0  0  0  0  0  0  0
   -1.9340   21.8910  -31.9520 C   0  0  0  0  0  0  0  0  0  0  0  0
   -2.3140   20.5970  -32.6470 C   0  0  0  0  0  0  0  0  0  0  0  0
   -3.5690   20.1140  -31.9330 C   0  0  0  0  0  0  0  0  0  0  0  0
   -4.2420   21.3540  -31.3460 C   0  0  0  0  0  0  0  0  0  0  0  0
   -6.5290   23.9490  -32.0350 C   0  0  0  0  0  0  0  0  0  0  0  0
   -7.3970   22.9070  -32.3770 C   0  0  0  0  0  0  0  0  0  0  0  0
   -8.1490   19.6960  -33.0620 N   0  0  0  0  0  0  0  0  0  0  0  0
   -8.1410   18.2580  -32.6890 C   0  0  0  0  0  0  0  0  0  0  0  0
   -6.7750   17.7790  -32.1770 C   0  0  0  0  0  0  0  0  0  0  0  0
   -5.6760   18.0010  -33.2300 C   0  0  0  0  0  0  0  0  0  0  0  0
   -5.9470   19.2250  -34.1220 C   0  0  0  0  0  0  0  0  0  0  0  0
   -6.8190   20.2530  -33.3960 C   0  0  0  0  0  0  0  0  0  0  0  0
   -7.7514   21.4568  -29.3010 H   0  0  0  0  0  0  0  0  0  0  0  0
   -6.2160   23.3214  -28.6865 H   0  0  0  0  0  0  0  0  0  0  0  0
   -5.4872   26.1423  -30.8298 H   0  0  0  0  0  0  0  0  0  0  0  0
   -5.1383   25.3252  -29.2534 H   0  0  0  0  0  0  0  0  0  0  0  0
   -3.1100   25.6730  -30.4650 H   0  0  0  0  0  0  0  0  0  0  0  0
   -2.2387   23.6941  -30.0793 H   0  0  0  0  0  0  0  0  0  0  0  0
   -3.9783   23.2057  -29.6804 H   0  0  0  0  0  0  0  0  0  0  0  0
   -3.5986   23.1691  -32.4034 H   0  0  0  0  0  0  0  0  0  0  0  0
   -1.3711   22.5478  -32.6315 H   0  0  0  0  0  0  0  0  0  0  0  0
   -1.2858   21.7252  -31.0789 H   0  0  0  0  0  0  0  0  0  0  0  0
   -2.5215   20.7777  -33.7120 H   0  0  0  0  0  0  0  0  0  0  0  0
   -1.5043   19.8537  -32.6033 H   0  0  0  0  0  0  0  0  0  0  0  0
   -4.2438   19.6174  -32.6458 H   0  0  0  0  0  0  0  0  0  0  0  0
   -3.3223   19.3864  -31.1458 H   0  0  0  0  0  0  0  0  0  0  0  0
   -5.1972   21.5457  -31.8567 H   0  0  0  0  0  0  0  0  0  0  0  0
   -4.4592   21.2200  -30.2760 H   0  0  0  0  0  0  0  0  0  0  0  0
   -6.1978   24.6604  -32.8059 H   0  0  0  0  0  0  0  0  0  0  0  0
   -7.7353   22.7944  -33.4176 H   0  0  0  0  0  0  0  0  0  0  0  0
   -8.8881   18.0968  -31.8979 H   0  0  0  0  0  0  0  0  0  0  0  0
   -8.3732   17.6812  -33.5964 H   0  0  0  0  0  0  0  0  0  0  0  0
   -6.5171   18.3389  -31.2659 H   0  0  0  0  0  0  0  0  0  0  0  0
   -6.8412   16.7016  -31.9651 H   0  0  0  0  0  0  0  0  0  0  0  0
   -4.7169   18.1485  -32.7120 H   0  0  0  0  0  0  0  0  0  0  0  0
   -5.6549   17.1141  -33.8803 H   0  0  0  0  0  0  0  0  0  0  0  0
   -4.9885   19.6928  -34.3911 H   0  0  0  0  0  0  0  0  0  0  0  0
   -6.4797   18.8893  -35.0240 H   0  0  0  0  0  0  0  0  0  0  0  0
   -6.3149   20.5568  -32.4667 H   0  0  0  0  0  0  0  0  0  0  0  0
   -6.9634   21.1158  -34.0628 H   0  0  0  0  0  0  0  0  0  0  0  0
  1  2  2  0
  2  3  2  0
  2  4  1  0
  4  5  2  0
  5  6  1  0
  6  7  2  0
  7  8  1  0
  8  9  1  0
  9 10  1  0
 10 11  1  0
 11 12  1  0
 12 13  1  0
 13 14  1  0
 14 15  1  0
  7 16  1  0
 16 17  2  0
  2 18  1  0
 18 19  1  0
 19 20  1  0
 20 21  1  0
 21 22  1  0
 22 23  1  0
 17  4  1  0
 23 18  1  0
 15 11  1  0
  5 24  1  0
  6 25  1  0
  8 26  1  0
  8 27  1  0
  9 28  1  0
 10 29  1  0
 10 30  1  0
 11 31  1  0
 12 32  1  0
 12 33  1  0
 13 34  1  0
 13 35  1  0
 14 36  1  0
 14 37  1  0
 15 38  1  0
 15 39  1  0
 16 40  1  0
 17 41  1  0
 19 42  1  0
 19 43  1  0
 20 44  1  0
 20 45  1  0
 21 46  1  0
 21 47  1  0
 22 48  1  0
 22 49  1  0
 23 50  1  0
 23 51  1  0
M  END
>  <UniqueID>  (30) 
28

>  <SMILES>  (30) 
O=S(=O)(c1ccc(CNCC2CCCC2)cc1)N1CCCCC1

>  <Energy>  (30) 
62.135127566763025

>  <Genealogy>  (30) 
O=S(=O)(c1ccc(CNCC2CCCC2)cc1)N1CCCCC1 (3D coordinates assigned)
O=S(=O)(c1ccc(CNCC2CCCC2)cc1)N1CCCCC1 (nonaromatic ring conformer: 62.135127566763025 kcal/mol)

>  <smiles>  (30) 
O=S(=O)(c1ccc(CNCC2CCCC2)cc1)N1CCCCC1

>  <score_type>  (30) 
oracle

>  <origin>  (30) 
adgpu

>  <m_score__min__energy>  (30) 
-9.6199999999999992

>  <m_primary>  (30) 
energy

$$$$
30:0
     RDKit          3D

 60 63  0  0  0  0  0  0  0  0999 V2000
   -4.1500   22.6750  -32.8260 N   0  0  0  0  0  0  0  0  0  0  0  0
   -5.2770   22.7300  -31.9420 C   0  0  0  0  0  0  0  0  0  0  0  0
   -6.3870   21.9110  -32.2030 C   0  0  0  0  0  0  0  0  0  0  0  0
   -7.5320   21.9670  -31.3900 C   0  0  0  0  0  0  0  0  0  0  0  0
   -8.7340   21.1140  -31.7080 C   0  0  0  0  0  0  0  0  0  0  0  0
   -9.0630   20.3150  -30.6270 F   0  0  0  0  0  0  0  0  0  0  0  0
   -9.8290   21.9030  -32.0140 F   0  0  0  0  0  0  0  0  0  0  0  0
   -8.4440   20.3060  -32.7920 F   0  0  0  0  0  0  0  0  0  0  0  0
   -7.5780   22.9010  -30.3440 C   0  0  0  0  0  0  0  0  0  0  0  0
   -6.4770   23.7140  -30.0730 C   0  0  0  0  0  0  0  0  0  0  0  0
   -5.3110   23.6130  -30.8420 C   0  0  0  0  0  0  0  0  0  0  0  0
   -3.8910   24.6320  -30.4020 S   0  0  0  0  0  0  0  0  0  0  0  0
   -3.2150   23.4130  -29.2560 C   0  0  0  0  0  0  0  0  0  0  0  0
   -3.7570   22.1210  -29.2690 C   0  0  0  0  0  0  0  0  0  0  0  0
   -3.2530   21.1320  -28.4220 C   0  0  0  0  0  0  0  0  0  0  0  0
   -2.2060   21.4240  -27.5440 C   0  0  0  0  0  0  0  0  0  0  0  0
   -1.5980   20.1700  -26.4680 S   0  0  0  0  0  0  0  0  0  0  0  0
   -1.2480   20.7980  -25.1480 O   0  0  0  0  0  0  0  0  0  0  0  0
   -2.6560   19.1250  -26.2380 O   0  0  0  0  0  0  0  0  0  0  0  0
   -0.1810   19.4320  -27.1730 N   0  0  0  0  0  0  0  0  0  0  0  0
    0.3270   20.2340  -28.3150 C   0  0  0  0  0  0  0  0  0  0  0  0
   -0.0470   19.6390  -29.6800 C   0  0  0  0  0  0  0  0  0  0  0  0
    0.4920   18.2060  -29.8300 C   0  0  0  0  0  0  0  0  0  0  0  0
    0.5580   17.4530  -28.4890 C   0  0  0  0  0  0  0  0  0  0  0  0
   -0.4600   18.0140  -27.4910 C   0  0  0  0  0  0  0  0  0  0  0  0
   -1.6730   22.7180  -27.5090 C   0  0  0  0  0  0  0  0  0  0  0  0
   -2.1640   23.7180  -28.3630 C   0  0  0  0  0  0  0  0  0  0  0  0
   -1.5910   25.0730  -28.2800 C   0  0  0  0  0  0  0  0  0  0  0  0
   -1.2360   25.6510  -29.3440 O   0  0  0  0  0  0  0  0  0  0  0  0
   -1.4310   25.7410  -27.0150 N   0  0  0  0  0  0  0  0  0  0  0  0
   -0.9370   27.1020  -26.9020 C   0  0  0  0  0  0  0  0  0  0  0  0
   -0.5500   27.2790  -25.4400 C   0  0  0  0  0  0  0  0  0  0  0  0
   -1.2240   26.1380  -24.6830 C   0  0  0  0  0  0  0  0  0  0  0  0
   -1.5630   25.0800  -25.7260 C   0  0  0  0  0  0  0  0  0  0  0  0
   -4.2620   22.6400  -33.8610 H   0  0  0  0  0  0  0  0  0  0  0  0
   -3.1800   22.6210  -32.4440 H   0  0  0  0  0  0  0  0  0  0  0  0
   -6.3602   21.2161  -33.0553 H   0  0  0  0  0  0  0  0  0  0  0  0
   -8.4883   22.9929  -29.7334 H   0  0  0  0  0  0  0  0  0  0  0  0
   -6.5252   24.4404  -29.2484 H   0  0  0  0  0  0  0  0  0  0  0  0
   -4.5861   21.8840  -29.9519 H   0  0  0  0  0  0  0  0  0  0  0  0
   -3.6818   20.1193  -28.4460 H   0  0  0  0  0  0  0  0  0  0  0  0
   -0.0953   21.2474  -28.2469 H   0  0  0  0  0  0  0  0  0  0  0  0
    1.4250   20.2411  -28.2491 H   0  0  0  0  0  0  0  0  0  0  0  0
   -1.1427   19.6218  -29.7756 H   0  0  0  0  0  0  0  0  0  0  0  0
    0.4018   20.2636  -30.4665 H   0  0  0  0  0  0  0  0  0  0  0  0
   -0.1682   17.6513  -30.5130 H   0  0  0  0  0  0  0  0  0  0  0  0
    1.5171   18.2759  -30.2227 H   0  0  0  0  0  0  0  0  0  0  0  0
    0.3412   16.3888  -28.6635 H   0  0  0  0  0  0  0  0  0  0  0  0
    1.5662   17.5780  -28.0673 H   0  0  0  0  0  0  0  0  0  0  0  0
   -1.4674   17.9365  -27.9259 H   0  0  0  0  0  0  0  0  0  0  0  0
   -0.3898   17.4309  -26.5609 H   0  0  0  0  0  0  0  0  0  0  0  0
   -0.8612   22.9535  -26.8051 H   0  0  0  0  0  0  0  0  0  0  0  0
   -0.0609   27.2473  -27.5511 H   0  0  0  0  0  0  0  0  0  0  0  0
   -1.6944   27.8363  -27.2136 H   0  0  0  0  0  0  0  0  0  0  0  0
    0.5424   27.2211  -25.3245 H   0  0  0  0  0  0  0  0  0  0  0  0
   -0.8680   28.2594  -25.0558 H   0  0  0  0  0  0  0  0  0  0  0  0
   -0.5394   25.7240  -23.9280 H   0  0  0  0  0  0  0  0  0  0  0  0
   -2.1245   26.4836  -24.1542 H   0  0  0  0  0  0  0  0  0  0  0  0
   -0.8635   24.2340  -25.6555 H   0  0  0  0  0  0  0  0  0  0  0  0
   -2.5752   24.6751  -25.5793 H   0  0  0  0  0  0  0  0  0  0  0  0
  1  2  1  0
  2  3  2  0
  3  4  1  0
  4  5  1  0
  5  6  1  0
  5  7  1  0
  5  8  1  0
  4  9  2  0
  9 10  1  0
 10 11  2  0
 11 12  1  0
 12 13  1  0
 13 14  2  0
 14 15  1  0
 15 16  2  0
 16 17  1  0
 17 18  2  0
 17 19  2  0
 17 20  1  0
 20 21  1  0
 21 22  1  0
 22 23  1  0
 23 24  1  0
 24 25  1  0
 16 26  1  0
 26 27  2  0
 27 28  1  0
 28 29  2  0
 28 30  1  0
 30 31  1  0
 31 32  1  0
 32 33  1  0
 33 34  1  0
 11  2  1  0
 27 13  1  0
 34 30  1  0
 25 20  1  0
  1 35  1  0
  1 36  1  0
  3 37  1  0
  9 38  1  0
 10 39  1  0
 14 40  1  0
 15 41  1  0
 21 42  1  0
 21 43  1  0
 22 44  1  0
 22 45  1  0
 23 46  1  0
 23 47  1  0
 24 48  1  0
 24 49  1  0
 25 50  1  0
 25 51  1  0
 26 52  1  0
 31 53  1  0
 31 54  1  0
 32 55  1  0
 32 56  1  0
 33 57  1  0
 33 58  1  0
 34 59  1  0
 34 60  1  0
M  END
>  <UniqueID>  (31) 
29

>  <SMILES>  (31) 
Nc1cc(C(F)(F)F)ccc1Sc1ccc(S(=O)(=O)N2CCCCC2)cc1C(=O)N1CCCC1

>  <Energy>  (31) 
66.86348422058983

>  <Genealogy>  (31) 
Nc1cc(C(F)(F)F)ccc1Sc1ccc(S(=O)(=O)N2CCCCC2)cc1C(=O)N1CCCC1 (3D coordinates assigned)
Nc1cc(C(F)(F)F)ccc1Sc1ccc(S(=O)(=O)N2CCCCC2)cc1C(=O)N1CCCC1 (nonaromatic ring conformer: 66.86348422058983 kcal/mol)

>  <smiles>  (31) 
Nc1cc(C(F)(F)F)ccc1Sc1ccc(S(=O)(=O)N2CCCCC2)cc1C(=O)N1CCCC1

>  <score_type>  (31) 
oracle

>  <origin>  (31) 
adgpu

>  <m_score__min__energy>  (31) 
-10.01

>  <m_primary>  (31) 
energy

$$$$
31:0
     RDKit          3D

 52 55  0  0  0  0  0  0  0  0999 V2000
   -5.8790   25.6600  -31.5270 O   0  0  0  0  0  0  0  0  0  0  0  0
   -5.3050   24.5780  -30.6570 S   0  0  0  0  0  0  0  0  0  0  0  0
   -6.1250   24.4830  -29.4000 O   0  0  0  0  0  0  0  0  0  0  0  0
   -3.6650   24.9730  -30.2500 N   0  0  0  0  0  0  0  0  0  0  0  0
   -2.8970   24.2190  -29.2970 C   0  0  0  0  0  0  0  0  0  0  0  0
   -3.3340   22.9600  -28.8500 C   0  0  0  0  0  0  0  0  0  0  0  0
   -2.5600   22.2010  -27.9600 C   0  0  0  0  0  0  0  0  0  0  0  0
   -1.3560   22.7400  -27.4500 C   0  0  0  0  0  0  0  0  0  0  0  0
   -0.9310   24.0040  -27.8820 C   0  0  0  0  0  0  0  0  0  0  0  0
   -1.6930   24.7410  -28.7940 C   0  0  0  0  0  0  0  0  0  0  0  0
   -1.2370   25.9870  -29.2090 O   0  0  0  0  0  0  0  0  0  0  0  0
   -0.4580   21.9410  -26.5340 C   0  0  0  0  0  0  0  0  0  0  0  0
   -1.1930   20.7870  -25.8450 C   0  0  0  0  0  0  0  0  0  0  0  0
   -2.0040   19.9880  -26.8660 C   0  0  0  0  0  0  0  0  0  0  0  0
   -3.0920   20.8670  -27.4880 C   0  0  0  0  0  0  0  0  0  0  0  0
   -5.3410   23.0570  -31.5470 C   0  0  0  0  0  0  0  0  0  0  0  0
   -4.1980   22.6330  -32.2350 C   0  0  0  0  0  0  0  0  0  0  0  0
   -4.1930   21.4010  -32.8960 C   0  0  0  0  0  0  0  0  0  0  0  0
   -5.3270   20.5850  -32.8650 C   0  0  0  0  0  0  0  0  0  0  0  0
   -6.4790   21.0020  -32.1830 C   0  0  0  0  0  0  0  0  0  0  0  0
   -7.9000   19.9540  -32.1070 S   0  0  0  0  0  0  0  0  0  0  0  0
   -8.6680   20.2630  -30.8530 O   0  0  0  0  0  0  0  0  0  0  0  0
   -8.7900   20.2500  -33.2820 O   0  0  0  0  0  0  0  0  0  0  0  0
   -7.4900   18.2550  -32.1180 N   0  0  0  0  0  0  0  0  0  0  0  0
   -7.0480   17.8020  -33.4350 C   0  0  0  0  0  0  0  0  0  0  0  0
   -6.1580   16.5920  -33.1970 C   0  0  0  0  0  0  0  0  0  0  0  0
   -5.7360   16.6830  -31.7380 C   0  0  0  0  0  0  0  0  0  0  0  0
   -6.3860   17.9510  -31.2100 C   0  0  0  0  0  0  0  0  0  0  0  0
   -6.4800   22.2400  -31.5230 C   0  0  0  0  0  0  0  0  0  0  0  0
   -3.1880   25.6820  -30.8510 H   0  0  0  0  0  0  0  0  0  0  0  0
   -4.2975   22.5641  -29.2035 H   0  0  0  0  0  0  0  0  0  0  0  0
    0.0123   24.4208  -27.4994 H   0  0  0  0  0  0  0  0  0  0  0  0
    0.3704   21.5264  -27.1271 H   0  0  0  0  0  0  0  0  0  0  0  0
   -0.0956   22.6204  -25.7484 H   0  0  0  0  0  0  0  0  0  0  0  0
   -0.4580   20.1233  -25.3662 H   0  0  0  0  0  0  0  0  0  0  0  0
   -1.8774   21.1998  -25.0892 H   0  0  0  0  0  0  0  0  0  0  0  0
   -1.3329   19.6262  -27.6589 H   0  0  0  0  0  0  0  0  0  0  0  0
   -2.4802   19.1371  -26.3568 H   0  0  0  0  0  0  0  0  0  0  0  0
   -3.5254   20.3359  -28.3483 H   0  0  0  0  0  0  0  0  0  0  0  0
   -3.8463   21.0640  -26.7120 H   0  0  0  0  0  0  0  0  0  0  0  0
   -3.3018   23.2705  -32.2556 H   0  0  0  0  0  0  0  0  0  0  0  0
   -3.2954   21.0737  -33.4411 H   0  0  0  0  0  0  0  0  0  0  0  0
   -5.3159   19.6118  -33.3776 H   0  0  0  0  0  0  0  0  0  0  0  0
   -7.9148   17.5213  -34.0513 H   0  0  0  0  0  0  0  0  0  0  0  0
   -6.5060   18.5966  -33.9687 H   0  0  0  0  0  0  0  0  0  0  0  0
   -6.7161   15.6617  -33.3791 H   0  0  0  0  0  0  0  0  0  0  0  0
   -5.2912   16.5816  -33.8742 H   0  0  0  0  0  0  0  0  0  0  0  0
   -6.0926   15.8056  -31.1785 H   0  0  0  0  0  0  0  0  0  0  0  0
   -4.6417   16.7074  -31.6287 H   0  0  0  0  0  0  0  0  0  0  0  0
   -6.7653   17.7884  -30.1903 H   0  0  0  0  0  0  0  0  0  0  0  0
   -5.6653   18.7808  -31.1652 H   0  0  0  0  0  0  0  0  0  0  0  0
   -7.3796   22.5715  -30.9836 H   0  0  0  0  0  0  0  0  0  0  0  0
  1  2  2  0
  2  3  2  0
  2  4  1  0
  4  5  1  0
  5  6  2  0
  6  7  1  0
  7  8  2  0
  8  9  1  0
  9 10  2  0
 10 11  1  0
  8 12  1  0
 12 13  1  0
 13 14  1  0
 14 15  1  0
  2 16  1  0
 16 17  2  0
 17 18  1  0
 18 19  2  0
 19 20  1  0
 20 21  1  0
 21 22  2  0
 21 23  2  0
 21 24  1  0
 24 25  1  0
 25 26  1  0
 26 27  1  0
 27 28  1  0
 20 29  2  0
 10  5  1  0
 29 16  1  0
 15  7  1  0
 28 24  1  0
  4 30  1  0
  6 31  1  0
  9 32  1  0
 12 33  1  0
 12 34  1  0
 13 35  1  0
 13 36  1  0
 14 37  1  0
 14 38  1  0
 15 39  1  0
 15 40  1  0
 17 41  1  0
 18 42  1  0
 19 43  1  0
 25 44  1  0
 25 45  1  0
 26 46  1  0
 26 47  1  0
 27 48  1  0
 27 49  1  0
 28 50  1  0
 28 51  1  0
 29 52  1  0
M  CHG  1  11  -1
M  END
>  <UniqueID>  (32) 
30

>  <SMILES>  (32) 
O=S(=O)(Nc1cc2c(cc1[O-])CCCC2)c1cccc(S(=O)(=O)N2CCCC2)c1

>  <Energy>  (32) 
56.79237705328194

>  <Genealogy>  (32) 
O=S(=O)(Nc1cc2c(cc1[O-])CCCC2)c1cccc(S(=O)(=O)N2CCCC2)c1 (protonated)
O=S(=O)(Nc1cc2c(cc1[O-])CCCC2)c1cccc(S(=O)(=O)N2CCCC2)c1 (3D coordinates assigned)
O=S(=O)(Nc1cc2c(cc1[O-])CCCC2)c1cccc(S(=O)(=O)N2CCCC2)c1 (nonaromatic ring conformer: 56.79237705328194 kcal/mol)

>  <smiles>  (32) 
O=S(=O)(Nc1cc2c(cc1O)CCCC2)c1cccc(S(=O)(=O)N2CCCC2)c1

>  <score_type>  (32) 
oracle

>  <origin>  (32) 
adgpu

>  <m_score__min__energy>  (32) 
-14.41

>  <m_primary>  (32) 
energy

$$$$
32:0
     RDKit          3D

 70 74  0  0  0  0  0  0  0  0999 V2000
    0.2590   21.1450  -33.2390 C   0  0  0  0  0  0  0  0  0  0  0  0
   -0.5730   20.3630  -32.2060 C   0  0  1  0  0  0  0  0  0  0  0  0
   -1.9780   20.1630  -32.7250 C   0  0  0  0  0  0  0  0  0  0  0  0
   -2.7930   21.1280  -32.6720 O   0  0  0  0  0  0  0  0  0  0  0  0
   -2.3830   18.9070  -33.3010 N   0  0  0  0  0  0  0  0  0  0  0  0
   -3.7420   18.7620  -33.8320 C   0  0  0  0  0  0  0  0  0  0  0  0
   -1.5500   17.7070  -33.1680 C   0  0  0  0  0  0  0  0  0  0  0  0
   -0.0790   18.0530  -32.8920 C   0  0  0  0  0  0  0  0  0  0  0  0
    0.0770   19.0730  -31.8290 N   0  0  2  0  0  0  0  0  0  0  0  0
   -0.4160   18.5680  -30.5160 C   0  0  0  0  0  0  0  0  0  0  0  0
   -0.4830   19.6650  -29.4780 C   0  0  0  0  0  0  0  0  0  0  0  0
    0.7020   20.2470  -29.0000 C   0  0  0  0  0  0  0  0  0  0  0  0
    0.6520   21.2530  -28.0310 C   0  0  0  0  0  0  0  0  0  0  0  0
   -0.5810   21.7210  -27.5580 C   0  0  0  0  0  0  0  0  0  0  0  0
   -0.6360   22.7620  -26.5070 C   0  0  0  0  0  0  0  0  0  0  0  0
   -0.4830   22.3600  -25.1690 C   0  0  0  0  0  0  0  0  0  0  0  0
   -0.4900   23.3010  -24.1380 C   0  0  0  0  0  0  0  0  0  0  0  0
   -0.6450   24.6550  -24.4310 C   0  0  0  0  0  0  0  0  0  0  0  0
   -0.8070   25.0720  -25.7540 C   0  0  0  0  0  0  0  0  0  0  0  0
   -0.8220   24.1370  -26.8040 C   0  0  0  0  0  0  0  0  0  0  0  0
   -1.1190   24.7070  -28.4580 S   0  0  0  0  0  0  0  0  0  0  0  0
   -1.2280   26.2070  -28.4530 O   0  0  0  0  0  0  0  0  0  0  0  0
    0.0210   24.3000  -29.3510 O   0  0  0  0  0  0  0  0  0  0  0  0
   -2.6000   24.0180  -29.1270 C   0  0  0  0  0  0  0  0  0  0  0  0
   -3.7960   24.0890  -28.4120 C   0  0  0  0  0  0  0  0  0  0  0  0
   -4.9630   23.5230  -28.9330 C   0  0  0  0  0  0  0  0  0  0  0  0
   -4.9260   22.8840  -30.1910 C   0  0  0  0  0  0  0  0  0  0  0  0
   -6.0980   22.2480  -30.7680 N   0  0  0  0  0  0  0  0  0  0  0  0
   -5.9760   21.4140  -31.9800 C   0  0  0  0  0  0  0  0  0  0  0  0
   -7.2690   20.6600  -32.3130 C   0  0  0  0  0  0  0  0  0  0  0  0
   -8.3950   21.4940  -32.1500 O   0  0  0  0  0  0  0  0  0  0  0  0
   -8.5500   21.7810  -30.7790 C   0  0  0  0  0  0  0  0  0  0  0  0
   -7.4210   22.6930  -30.2950 C   0  0  0  0  0  0  0  0  0  0  0  0
   -3.7400   22.8440  -30.8660 N   0  0  0  0  0  0  0  0  0  0  0  0
   -2.5970   23.3890  -30.3740 C   0  0  0  0  0  0  0  0  0  0  0  0
   -1.7650   21.1370  -28.0300 C   0  0  0  0  0  0  0  0  0  0  0  0
   -1.7180   20.1150  -28.9840 C   0  0  0  0  0  0  0  0  0  0  0  0
    0.9641   21.8077  -32.7159 H   0  0  0  0  0  0  0  0  0  0  0  0
    0.8188   20.4385  -33.8695 H   0  0  0  0  0  0  0  0  0  0  0  0
   -0.4115   21.7474  -33.8695 H   0  0  0  0  0  0  0  0  0  0  0  0
   -0.6288   20.9561  -31.2813 H   0  0  0  0  0  0  0  0  0  0  0  0
   -4.4553   18.6859  -32.9981 H   0  0  0  0  0  0  0  0  0  0  0  0
   -3.9904   19.6387  -34.4481 H   0  0  0  0  0  0  0  0  0  0  0  0
   -3.7998   17.8526  -34.4481 H   0  0  0  0  0  0  0  0  0  0  0  0
   -1.9338   17.0992  -32.3353 H   0  0  0  0  0  0  0  0  0  0  0  0
   -1.5959   17.1555  -34.1186 H   0  0  0  0  0  0  0  0  0  0  0  0
    0.4459   17.1375  -32.5815 H   0  0  0  0  0  0  0  0  0  0  0  0
    0.3445   18.4695  -33.8178 H   0  0  0  0  0  0  0  0  0  0  0  0
    1.1110   19.2330  -31.7370 H   0  0  0  0  0  0  0  0  0  0  0  0
   -1.4226   18.1461  -30.6527 H   0  0  0  0  0  0  0  0  0  0  0  0
    0.2897   17.8037  -30.1585 H   0  0  0  0  0  0  0  0  0  0  0  0
    1.6738   19.9098  -29.3898 H   0  0  0  0  0  0  0  0  0  0  0  0
    1.5863   21.6799  -27.6374 H   0  0  0  0  0  0  0  0  0  0  0  0
   -0.3565   21.2933  -24.9319 H   0  0  0  0  0  0  0  0  0  0  0  0
   -0.3732   22.9741  -23.0942 H   0  0  0  0  0  0  0  0  0  0  0  0
   -0.6397   25.3965  -23.6185 H   0  0  0  0  0  0  0  0  0  0  0  0
   -0.9241   26.1428  -25.9768 H   0  0  0  0  0  0  0  0  0  0  0  0
   -3.8206   24.5925  -27.4343 H   0  0  0  0  0  0  0  0  0  0  0  0
   -5.9043   23.5752  -28.3662 H   0  0  0  0  0  0  0  0  0  0  0  0
   -5.7188   22.0636  -32.8296 H   0  0  0  0  0  0  0  0  0  0  0  0
   -5.1941   20.6641  -31.7896 H   0  0  0  0  0  0  0  0  0  0  0  0
   -7.2254   20.3138  -33.3562 H   0  0  0  0  0  0  0  0  0  0  0  0
   -7.3633   19.8048  -31.6276 H   0  0  0  0  0  0  0  0  0  0  0  0
   -9.5154   22.2838  -30.6207 H   0  0  0  0  0  0  0  0  0  0  0  0
   -8.5170   20.8396  -30.2110 H   0  0  0  0  0  0  0  0  0  0  0  0
   -7.6052   23.7115  -30.6675 H   0  0  0  0  0  0  0  0  0  0  0  0
   -7.4123   22.6616  -29.1955 H   0  0  0  0  0  0  0  0  0  0  0  0
   -1.6671   23.3348  -30.9591 H   0  0  0  0  0  0  0  0  0  0  0  0
   -2.7363   21.4844  -27.6480 H   0  0  0  0  0  0  0  0  0  0  0  0
   -2.6519   19.6622  -29.3485 H   0  0  0  0  0  0  0  0  0  0  0  0
  1  2  1  0
  2  3  1  0
  3  4  2  0
  3  5  1  0
  5  6  1  0
  5  7  1  0
  7  8  1  0
  8  9  1  0
  9 10  1  0
 10 11  1  0
 11 12  2  0
 12 13  1  0
 13 14  2  0
 14 15  1  0
 15 16  2  0
 16 17  1  0
 17 18  2  0
 18 19  1  0
 19 20  2  0
 20 21  1  0
 21 22  2  0
 21 23  2  0
 21 24  1  0
 24 25  2  0
 25 26  1  0
 26 27  2  0
 27 28  1  0
 28 29  1  0
 29 30  1  0
 30 31  1  0
 31 32  1  0
 32 33  1  0
 27 34  1  0
 34 35  2  0
 14 36  1  0
 36 37  2  0
  9  2  1  0
 37 11  1  0
 20 15  1  0
 35 24  1  0
 33 28  1  0
  1 38  1  0
  1 39  1  0
  1 40  1  0
  2 41  1  1
  6 42  1  0
  6 43  1  0
  6 44  1  0
  7 45  1  0
  7 46  1  0
  8 47  1  0
  8 48  1  0
  9 49  1  1
 10 50  1  0
 10 51  1  0
 12 52  1  0
 13 53  1  0
 16 54  1  0
 17 55  1  0
 18 56  1  0
 19 57  1  0
 25 58  1  0
 26 59  1  0
 29 60  1  0
 29 61  1  0
 30 62  1  0
 30 63  1  0
 32 64  1  0
 32 65  1  0
 33 66  1  0
 33 67  1  0
 35 68  1  0
 36 69  1  0
 37 70  1  0
M  CHG  1   9   1
M  END
>  <UniqueID>  (33) 
31

>  <SMILES>  (33) 
C[C@H]1C(=O)N(C)CC[N@@H+]1Cc1ccc(-c2ccccc2S(=O)(=O)c2ccc(N3CCOCC3)nc2)cc1

>  <Energy>  (33) 
94.38057269398286

>  <Genealogy>  (33) 
CC1C(=O)N(C)CC[NH+]1Cc1ccc(-c2ccccc2S(=O)(=O)c2ccc(N3CCOCC3)nc2)cc1 (protonated)
C[C@H]1C(=O)N(C)CC[N@@H+]1Cc1ccc(-c2ccccc2S(=O)(=O)c2ccc(N3CCOCC3)nc2)cc1 (chirality)
C[C@H]1C(=O)N(C)CC[N@@H+]1Cc1ccc(-c2ccccc2S(=O)(=O)c2ccc(N3CCOCC3)nc2)cc1 (3D coordinates assigned)
C[C@H]1C(=O)N(C)CC[N@@H+]1Cc1ccc(-c2ccccc2S(=O)(=O)c2ccc(N3CCOCC3)nc2)cc1 (nonaromatic ring conformer: 94.38057269398286 kcal/mol)

>  <smiles>  (33) 
CC1C(=O)N(C)CCN1Cc1ccc(-c2ccccc2S(=O)(=O)c2ccc(N3CCOCC3)nc2)cc1

>  <score_type>  (33) 
oracle

>  <origin>  (33) 
adgpu

>  <m_score__min__energy>  (33) 
-9.6199999999999992

>  <m_primary>  (33) 
energy

$$$$
33:0
     RDKit          3D

 48 50  0  0  1  0  0  0  0  0999 V2000
    0.3930   19.9250  -35.7270 C   0  0  0  0  0  0  0  0  0  0  0  0
   -0.6130   19.3410  -34.9250 O   0  0  0  0  0  0  0  0  0  0  0  0
   -1.0650   20.0580  -33.8300 C   0  0  0  0  0  0  0  0  0  0  0  0
   -2.2950   20.6640  -33.9350 C   0  0  0  0  0  0  0  0  0  0  0  0
   -2.7200   21.3690  -32.8320 C   0  0  0  0  0  0  0  0  0  0  0  0
   -3.9190   21.9650  -32.9220 N   0  0  0  0  0  0  0  0  0  0  0  0
   -4.3560   22.6580  -31.8640 C   0  0  0  0  0  0  0  0  0  0  0  0
   -5.9600   23.4500  -31.9960 S   0  0  0  0  0  0  0  0  0  0  0  0
   -6.3500   24.5160  -30.6200 C   0  0  0  0  0  0  0  0  0  0  0  0
   -5.4050   25.7240  -30.6900 C   0  0  0  0  0  0  0  0  0  0  0  0
   -4.0420   25.3090  -30.4180 N   0  0  0  0  0  0  0  0  0  0  0  0
   -3.6500   22.7720  -30.7420 N   0  0  0  0  0  0  0  0  0  0  0  0
   -2.4330   22.1650  -30.6600 C   0  0  0  0  0  0  0  0  0  0  0  0
   -1.8260   22.3160  -29.5740 N   0  0  0  0  0  0  0  0  0  0  0  0
   -0.5660   21.7920  -29.2480 C   0  0  0  0  0  0  0  0  0  0  0  0
   -0.9450   20.6220  -28.3350 C   0  0  0  0  0  0  0  0  0  0  0  0
   -2.1030   20.7170  -27.5540 C   0  0  0  0  0  0  0  0  0  0  0  0
   -2.4700   19.6710  -26.7340 C   0  0  0  0  0  0  0  0  0  0  0  0
   -1.6520   18.5660  -26.7340 C   0  0  0  0  0  0  0  0  0  0  0  0
   -0.5130   18.4320  -27.4810 C   0  0  0  0  0  0  0  0  0  0  0  0
   -0.1640   19.4880  -28.2920 C   0  0  0  0  0  0  0  0  0  0  0  0
   -1.9160   21.4370  -31.7000 C   0  0  0  0  0  0  0  0  0  0  0  0
   -0.7000   20.8370  -31.6000 C   0  0  0  0  0  0  0  0  0  0  0  0
   -0.2630   20.1090  -32.7370 C   0  0  0  0  0  0  0  0  0  0  0  0
    0.9590   19.4580  -32.7460 O   0  0  0  0  0  0  0  0  0  0  0  0
    1.6760   19.1540  -31.5640 C   0  0  0  0  0  0  0  0  0  0  0  0
    1.1632   20.3721  -35.0813 H   0  0  0  0  0  0  0  0  0  0  0  0
    0.8504   19.1520  -36.3620 H   0  0  0  0  0  0  0  0  0  0  0  0
   -0.0514   20.7055  -36.3620 H   0  0  0  0  0  0  0  0  0  0  0  0
   -2.9041   20.5896  -34.8479 H   0  0  0  0  0  0  0  0  0  0  0  0
   -4.5100   21.9020  -33.7860 H   0  0  0  0  0  0  0  0  0  0  0  0
   -7.3951   24.8521  -30.6897 H   0  0  0  0  0  0  0  0  0  0  0  0
   -6.2246   23.9806  -29.6673 H   0  0  0  0  0  0  0  0  0  0  0  0
   -5.4561   26.1678  -31.6952 H   0  0  0  0  0  0  0  0  0  0  0  0
   -5.7122   26.4646  -29.9369 H   0  0  0  0  0  0  0  0  0  0  0  0
   -3.5590   24.8990  -31.2420 H   0  0  0  0  0  0  0  0  0  0  0  0
   -4.1320   24.5700  -29.6570 H   0  0  0  0  0  0  0  0  0  0  0  0
   -0.0317   21.4446  -30.1446 H   0  0  0  0  0  0  0  0  0  0  0  0
    0.1144   22.5203  -28.7825 H   0  0  0  0  0  0  0  0  0  0  0  0
   -2.7204   21.6265  -27.5945 H   0  0  0  0  0  0  0  0  0  0  0  0
   -3.3743   19.7184  -26.1095 H   0  0  0  0  0  0  0  0  0  0  0  0
   -1.9346   17.7250  -26.0837 H   0  0  0  0  0  0  0  0  0  0  0  0
    0.0980   17.5185  -27.4352 H   0  0  0  0  0  0  0  0  0  0  0  0
    0.7441   19.4260  -28.9096 H   0  0  0  0  0  0  0  0  0  0  0  0
   -0.0889   20.9117  -30.6884 H   0  0  0  0  0  0  0  0  0  0  0  0
    1.0644   19.4133  -30.6872 H   0  0  0  0  0  0  0  0  0  0  0  0
    1.9098   18.0793  -31.5431 H   0  0  0  0  0  0  0  0  0  0  0  0
    2.6110   19.7331  -31.5431 H   0  0  0  0  0  0  0  0  0  0  0  0
  1  2  1  0
  2  3  1  0
  3  4  2  0
  4  5  1  0
  5  6  1  0
  6  7  1  0
  7  8  1  0
  8  9  1  0
  9 10  1  0
 10 11  1  0
  7 12  2  0
 12 13  1  0
 13 14  2  0
 14 15  1  0
 15 16  1  0
 16 17  2  0
 17 18  1  0
 18 19  2  0
 19 20  1  0
 20 21  2  0
 13 22  1  0
 22 23  1  0
 23 24  2  0
 24 25  1  0
 25 26  1  0
 24  3  1  0
 22  5  2  0
 21 16  1  0
  1 27  1  0
  1 28  1  0
  1 29  1  0
  4 30  1  0
  6 31  1  0
  9 32  1  0
  9 33  1  0
 10 34  1  0
 10 35  1  0
 11 36  1  0
 11 37  1  0
 15 38  1  0
 15 39  1  0
 17 40  1  0
 18 41  1  0
 19 42  1  0
 20 43  1  0
 21 44  1  0
 23 45  1  0
 26 46  1  0
 26 47  1  0
 26 48  1  0
M  END
>  <smiles>  (34) 
COc1cc2[nH]c(SCCN)nc(=NCc3ccccc3)c2cc1OC

>  <score_type>  (34) 
oracle

>  <origin>  (34) 
adgpu

>  <m_score__min__energy>  (34) 
-7.9500000000000002

>  <m_primary>  (34) 
energy

$$$$
34:0
     RDKit          3D

 59 62  0  0  0  0  0  0  0  0999 V2000
    1.5800   19.6420  -32.1590 C   0  0  0  0  0  0  0  0  0  0  0  0
    0.3650   19.9050  -31.3200 C   0  0  0  0  0  0  0  0  0  0  0  0
   -0.6310   20.7770  -31.7830 C   0  0  0  0  0  0  0  0  0  0  0  0
   -1.7500   21.0520  -30.9930 C   0  0  0  0  0  0  0  0  0  0  0  0
   -1.8840   20.4610  -29.7350 C   0  0  0  0  0  0  0  0  0  0  0  0
   -0.8980   19.5790  -29.2610 C   0  0  0  0  0  0  0  0  0  0  0  0
   -1.0410   18.9340  -27.9060 C   0  0  0  0  0  0  0  0  0  0  0  0
   -2.0270   19.6440  -27.0740 N   0  0  0  0  0  0  0  0  0  0  0  0
   -3.2100   18.9180  -26.6080 C   0  0  0  0  0  0  0  0  0  0  0  0
   -1.6610   20.8760  -26.4240 C   0  0  0  0  0  0  0  0  0  0  0  0
   -1.2630   20.8550  -25.2290 O   0  0  0  0  0  0  0  0  0  0  0  0
   -1.7450   22.1660  -27.1280 C   0  0  0  0  0  0  0  0  0  0  0  0
   -0.5780   22.8740  -27.4450 C   0  0  0  0  0  0  0  0  0  0  0  0
   -0.6610   24.1260  -28.0570 C   0  0  0  0  0  0  0  0  0  0  0  0
   -1.9080   24.6730  -28.3740 C   0  0  0  0  0  0  0  0  0  0  0  0
   -1.9770   25.9300  -28.9650 O   0  0  0  0  0  0  0  0  0  0  0  0
   -3.0810   23.9520  -28.1110 C   0  0  0  0  0  0  0  0  0  0  0  0
   -4.3460   24.5280  -28.4560 N   0  0  0  0  0  0  0  0  0  0  0  0
   -4.8590   24.8530  -30.0800 S   0  0  0  0  0  0  0  0  0  0  0  0
   -5.8590   25.9750  -30.1180 O   0  0  0  0  0  0  0  0  0  0  0  0
   -3.6590   25.2660  -30.8850 O   0  0  0  0  0  0  0  0  0  0  0  0
   -5.5530   23.3830  -30.7670 C   0  0  0  0  0  0  0  0  0  0  0  0
   -4.7260   22.4510  -31.4060 C   0  0  0  0  0  0  0  0  0  0  0  0
   -5.2730   21.3050  -31.9940 C   0  0  0  0  0  0  0  0  0  0  0  0
   -6.6600   21.0720  -31.9370 C   0  0  0  0  0  0  0  0  0  0  0  0
   -7.4880   22.0200  -31.3100 C   0  0  0  0  0  0  0  0  0  0  0  0
   -6.9370   23.1640  -30.7250 C   0  0  0  0  0  0  0  0  0  0  0  0
   -8.8730   21.8140  -31.2690 O   0  0  0  0  0  0  0  0  0  0  0  0
   -9.5030   20.7940  -32.0410 C   0  0  0  0  0  0  0  0  0  0  0  0
   -8.6320   19.5370  -32.0680 C   0  0  0  0  0  0  0  0  0  0  0  0
   -7.2680   19.8850  -32.4940 N   0  0  0  0  0  0  0  0  0  0  0  0
   -6.5620   19.0520  -33.4720 C   0  0  0  0  0  0  0  0  0  0  0  0
   -2.9940   22.6940  -27.4860 C   0  0  0  0  0  0  0  0  0  0  0  0
    0.2330   19.3180  -30.0520 C   0  0  0  0  0  0  0  0  0  0  0  0
    2.4441   19.4550  -31.5045 H   0  0  0  0  0  0  0  0  0  0  0  0
    1.4035   18.7613  -32.7939 H   0  0  0  0  0  0  0  0  0  0  0  0
    1.7835   20.5169  -32.7939 H   0  0  0  0  0  0  0  0  0  0  0  0
   -0.5307   21.2466  -32.7727 H   0  0  0  0  0  0  0  0  0  0  0  0
   -2.5278   21.7361  -31.3631 H   0  0  0  0  0  0  0  0  0  0  0  0
   -2.7633   20.6863  -29.1137 H   0  0  0  0  0  0  0  0  0  0  0  0
   -1.3684   17.8922  -28.0383 H   0  0  0  0  0  0  0  0  0  0  0  0
   -0.0660   18.9754  -27.3984 H   0  0  0  0  0  0  0  0  0  0  0  0
   -3.2249   18.9088  -25.5081 H   0  0  0  0  0  0  0  0  0  0  0  0
   -4.1167   19.4154  -26.9829 H   0  0  0  0  0  0  0  0  0  0  0  0
   -3.1771   17.8844  -26.9829 H   0  0  0  0  0  0  0  0  0  0  0  0
    0.4062   22.4421  -27.2110 H   0  0  0  0  0  0  0  0  0  0  0  0
    0.2577   24.6840  -28.2906 H   0  0  0  0  0  0  0  0  0  0  0  0
   -3.6399   22.6207  -31.4460 H   0  0  0  0  0  0  0  0  0  0  0  0
   -4.6166   20.5836  -32.5026 H   0  0  0  0  0  0  0  0  0  0  0  0
   -7.5924   23.8955  -30.2296 H   0  0  0  0  0  0  0  0  0  0  0  0
  -10.4783   20.5506  -31.5943 H   0  0  0  0  0  0  0  0  0  0  0  0
   -9.6410   21.1569  -33.0702 H   0  0  0  0  0  0  0  0  0  0  0  0
   -8.5985   19.0943  -31.0616 H   0  0  0  0  0  0  0  0  0  0  0  0
   -9.0605   18.8135  -32.7772 H   0  0  0  0  0  0  0  0  0  0  0  0
   -5.9380   18.3158  -32.9441 H   0  0  0  0  0  0  0  0  0  0  0  0
   -7.2943   18.5269  -34.1029 H   0  0  0  0  0  0  0  0  0  0  0  0
   -5.9239   19.6883  -34.1029 H   0  0  0  0  0  0  0  0  0  0  0  0
   -3.9101   22.1221  -27.2773 H   0  0  0  0  0  0  0  0  0  0  0  0
    1.0206   18.6490  -29.6751 H   0  0  0  0  0  0  0  0  0  0  0  0
  1  2  1  0
  2  3  2  0
  3  4  1  0
  4  5  2  0
  5  6  1  0
  6  7  1  0
  7  8  1  0
  8  9  1  0
  8 10  1  0
 10 11  2  0
 10 12  1  0
 12 13  2  0
 13 14  1  0
 14 15  2  0
 15 16  1  0
 15 17  1  0
 17 18  1  0
 18 19  1  0
 19 20  2  0
 19 21  2  0
 19 22  1  0
 22 23  2  0
 23 24  1  0
 24 25  2  0
 25 26  1  0
 26 27  2  0
 26 28  1  0
 28 29  1  0
 29 30  1  0
 30 31  1  0
 31 32  1  0
 17 33  2  0
  6 34  2  0
 34  2  1  0
 33 12  1  0
 27 22  1  0
 31 25  1  0
  1 35  1  0
  1 36  1  0
  1 37  1  0
  3 38  1  0
  4 39  1  0
  5 40  1  0
  7 41  1  0
  7 42  1  0
  9 43  1  0
  9 44  1  0
  9 45  1  0
 13 46  1  0
 14 47  1  0
 23 48  1  0
 24 49  1  0
 27 50  1  0
 29 51  1  0
 29 52  1  0
 30 53  1  0
 30 54  1  0
 32 55  1  0
 32 56  1  0
 32 57  1  0
 33 58  1  0
 34 59  1  0
M  CHG  2  16  -1  18  -1
M  END
>  <UniqueID>  (35) 
32

>  <SMILES>  (35) 
Cc1cccc(CN(C)C(=O)c2ccc([O-])c([N-]S(=O)(=O)c3ccc4c(c3)OCCN4C)c2)c1

>  <Energy>  (35) 
72.4584128851112

>  <Genealogy>  (35) 
Cc1cccc(CN(C)C(=O)c2ccc([O-])c([N-]S(=O)(=O)c3ccc4c(c3)OCCN4C)c2)c1 (protonated)
Cc1cccc(CN(C)C(=O)c2ccc([O-])c([N-]S(=O)(=O)c3ccc4c(c3)OCCN4C)c2)c1 (3D coordinates assigned)
Cc1cccc(CN(C)C(=O)c2ccc([O-])c([N-]S(=O)(=O)c3ccc4c(c3)OCCN4C)c2)c1 (nonaromatic ring conformer: 72.4584128851112 kcal/mol)

>  <smiles>  (35) 
Cc1cccc(CN(C)C(=O)c2ccc(O)c(NS(=O)(=O)c3ccc4c(c3)OCCN4C)c2)c1

>  <score_type>  (35) 
oracle

>  <origin>  (35) 
adgpu

>  <m_score__min__energy>  (35) 
-14.6

>  <m_primary>  (35) 
energy

$$$$
35:0
     RDKit          3D

 51 54  0  0  0  0  0  0  0  0999 V2000
   -1.5950   22.0020  -30.2100 O   0  0  0  0  0  0  0  0  0  0  0  0
   -1.6760   23.1320  -29.6570 C   0  0  0  0  0  0  0  0  0  0  0  0
   -2.9300   23.6120  -29.1680 N   0  0  0  0  0  0  0  0  0  0  0  0
   -4.1880   23.4790  -29.8470 C   0  0  0  0  0  0  0  0  0  0  0  0
   -4.9630   22.3100  -29.7370 C   0  0  0  0  0  0  0  0  0  0  0  0
   -6.1490   22.1750  -30.4630 C   0  0  0  0  0  0  0  0  0  0  0  0
   -6.5840   23.2130  -31.3040 C   0  0  0  0  0  0  0  0  0  0  0  0
   -7.7680   23.0830  -32.1040 N   0  0  0  0  0  0  0  0  0  0  0  0
   -8.6810   21.9790  -32.0850 C   0  0  0  0  0  0  0  0  0  0  0  0
   -9.8900   22.1940  -31.8030 O   0  0  0  0  0  0  0  0  0  0  0  0
   -8.2230   20.5980  -32.3050 C   0  0  0  0  0  0  0  0  0  0  0  0
   -7.1610   20.2150  -33.1040 C   0  0  0  0  0  0  0  0  0  0  0  0
   -7.1100   18.8400  -33.0210 C   0  0  0  0  0  0  0  0  0  0  0  0
   -8.1460   18.4700  -32.1870 C   0  0  0  0  0  0  0  0  0  0  0  0
   -8.7900   19.5370  -31.7770 O   0  0  0  0  0  0  0  0  0  0  0  0
   -5.8010   24.3680  -31.4330 C   0  0  0  0  0  0  0  0  0  0  0  0
   -4.6130   24.5040  -30.7080 C   0  0  0  0  0  0  0  0  0  0  0  0
   -3.8560   25.6640  -30.8460 O   0  0  0  0  0  0  0  0  0  0  0  0
   -0.5160   23.9570  -29.5270 N   0  0  0  0  0  0  0  0  0  0  0  0
   -0.0670   24.5220  -28.2900 C   0  0  0  0  0  0  0  0  0  0  0  0
    0.7300   23.7440  -27.4430 C   0  0  0  0  0  0  0  0  0  0  0  0
    1.1580   24.2520  -26.2140 C   0  0  0  0  0  0  0  0  0  0  0  0
    0.8150   25.5510  -25.8350 C   0  0  0  0  0  0  0  0  0  0  0  0
    0.0360   26.3570  -26.6830 C   0  0  0  0  0  0  0  0  0  0  0  0
   -0.3460   28.0170  -26.1930 S   0  0  0  0  0  0  0  0  0  0  0  0
   -1.6400   28.0300  -25.4240 O   0  0  0  0  0  0  0  0  0  0  0  0
   -0.5420   28.8510  -27.4280 O   0  0  0  0  0  0  0  0  0  0  0  0
    0.9060   28.7430  -25.2110 N   0  0  0  0  0  0  0  0  0  0  0  0
    0.6390   30.1470  -24.9160 C   0  0  0  0  0  0  0  0  0  0  0  0
    1.3920   30.4650  -23.6320 C   0  0  0  0  0  0  0  0  0  0  0  0
    1.6340   29.1160  -22.9670 C   0  0  0  0  0  0  0  0  0  0  0  0
    1.0220   28.0890  -23.9090 C   0  0  0  0  0  0  0  0  0  0  0  0
   -0.3980   25.8390  -27.9210 C   0  0  0  0  0  0  0  0  0  0  0  0
   -1.1460   26.6300  -28.7890 O   0  0  0  0  0  0  0  0  0  0  0  0
   -4.6327   21.4963  -29.0745 H   0  0  0  0  0  0  0  0  0  0  0  0
   -6.7437   21.2537  -30.3759 H   0  0  0  0  0  0  0  0  0  0  0  0
   -6.4957   20.8709  -33.6847 H   0  0  0  0  0  0  0  0  0  0  0  0
   -6.3902   18.1732  -33.5182 H   0  0  0  0  0  0  0  0  0  0  0  0
   -8.3944   17.4354  -31.9080 H   0  0  0  0  0  0  0  0  0  0  0  0
   -6.1232   25.1734  -32.1094 H   0  0  0  0  0  0  0  0  0  0  0  0
    1.0210   22.7275  -27.7463 H   0  0  0  0  0  0  0  0  0  0  0  0
    1.7665   23.6272  -25.5437 H   0  0  0  0  0  0  0  0  0  0  0  0
    1.1564   25.9462  -24.8669 H   0  0  0  0  0  0  0  0  0  0  0  0
    1.0001   30.7839  -25.7369 H   0  0  0  0  0  0  0  0  0  0  0  0
   -0.4392   30.3337  -24.8036 H   0  0  0  0  0  0  0  0  0  0  0  0
    2.3476   30.9608  -23.8578 H   0  0  0  0  0  0  0  0  0  0  0  0
    0.8262   31.1485  -22.9818 H   0  0  0  0  0  0  0  0  0  0  0  0
    2.7120   28.9338  -22.8460 H   0  0  0  0  0  0  0  0  0  0  0  0
    1.1887   29.0680  -21.9623 H   0  0  0  0  0  0  0  0  0  0  0  0
    1.6728   27.2053  -23.9835 H   0  0  0  0  0  0  0  0  0  0  0  0
    0.0419   27.7472  -23.5450 H   0  0  0  0  0  0  0  0  0  0  0  0
  1  2  2  0
  2  3  1  0
  3  4  1  0
  4  5  2  0
  5  6  1  0
  6  7  2  0
  7  8  1  0
  8  9  1  0
  9 10  2  0
  9 11  1  0
 11 12  2  0
 12 13  1  0
 13 14  2  0
 14 15  1  0
  7 16  1  0
 16 17  2  0
 17 18  1  0
  2 19  1  0
 19 20  1  0
 20 21  2  0
 21 22  1  0
 22 23  2  0
 23 24  1  0
 24 25  1  0
 25 26  2  0
 25 27  2  0
 25 28  1  0
 28 29  1  0
 29 30  1  0
 30 31  1  0
 31 32  1  0
 24 33  2  0
 33 34  1  0
 17  4  1  0
 33 20  1  0
 15 11  1  0
 32 28  1  0
  5 35  1  0
  6 36  1  0
 12 37  1  0
 13 38  1  0
 14 39  1  0
 16 40  1  0
 21 41  1  0
 22 42  1  0
 23 43  1  0
 29 44  1  0
 29 45  1  0
 30 46  1  0
 30 47  1  0
 31 48  1  0
 31 49  1  0
 32 50  1  0
 32 51  1  0
M  CHG  5   3  -1   8  -1  18  -1  19  -1  34  -1
M  END
>  <UniqueID>  (36) 
33

>  <SMILES>  (36) 
O=C([N-]c1ccc([N-]C(=O)c2ccco2)cc1[O-])[N-]c1cccc(S(=O)(=O)N2CCCC2)c1[O-]

>  <Energy>  (36) 
97.22284836416446

>  <Genealogy>  (36) 
O=C([N-]c1ccc([N-]C(=O)c2ccco2)cc1[O-])[N-]c1cccc(S(=O)(=O)N2CCCC2)c1[O-] (protonated)
O=C([N-]c1ccc([N-]C(=O)c2ccco2)cc1[O-])[N-]c1cccc(S(=O)(=O)N2CCCC2)c1[O-] (3D coordinates assigned)
O=C([N-]c1ccc([N-]C(=O)c2ccco2)cc1[O-])[N-]c1cccc(S(=O)(=O)N2CCCC2)c1[O-] (nonaromatic ring conformer: 97.22284836416446 kcal/mol)

>  <smiles>  (36) 
O=C(Nc1ccc(NC(=O)c2ccco2)cc1O)Nc1cccc(S(=O)(=O)N2CCCC2)c1O

>  <score_type>  (36) 
oracle

>  <origin>  (36) 
adgpu

>  <m_score__min__energy>  (36) 
-15.640000000000001

>  <m_primary>  (36) 
energy

$$$$
36:0
     RDKit          3D

 54 57  0  0  0  0  0  0  0  0999 V2000
   -9.5020   21.8550  -31.2460 C   0  0  0  0  0  0  0  0  0  0  0  0
   -8.4280   20.9780  -31.8350 C   0  0  0  0  0  0  0  0  0  0  0  0
   -8.7520   19.6490  -32.1620 C   0  0  0  0  0  0  0  0  0  0  0  0
   -7.7920   18.7960  -32.7090 C   0  0  0  0  0  0  0  0  0  0  0  0
   -6.4870   19.2490  -32.9240 C   0  0  0  0  0  0  0  0  0  0  0  0
   -5.2830   18.2020  -33.6720 S   0  0  0  0  0  0  0  0  0  0  0  0
   -5.7720   17.7380  -35.0170 O   0  0  0  0  0  0  0  0  0  0  0  0
   -5.0720   17.0000  -32.7940 O   0  0  0  0  0  0  0  0  0  0  0  0
   -3.7790   19.0710  -33.8490 N   0  0  0  0  0  0  0  0  0  0  0  0
   -2.7570   18.1850  -34.4320 C   0  0  0  0  0  0  0  0  0  0  0  0
   -1.3400   18.7520  -34.2330 C   0  0  0  0  0  0  0  0  0  0  0  0
   -1.3950   20.1360  -33.9490 O   0  0  0  0  0  0  0  0  0  0  0  0
   -2.0060   20.3420  -32.6860 C   0  0  0  0  0  0  0  0  0  0  0  0
   -3.3430   19.5820  -32.5420 C   0  0  0  0  0  0  0  0  0  0  0  0
   -6.1470   20.5620  -32.5830 C   0  0  0  0  0  0  0  0  0  0  0  0
   -7.1010   21.4360  -32.0350 C   0  0  0  0  0  0  0  0  0  0  0  0
   -6.6080   23.1030  -31.6750 S   0  0  0  0  0  0  0  0  0  0  0  0
   -7.0960   23.4740  -30.3030 O   0  0  0  0  0  0  0  0  0  0  0  0
   -7.2520   24.0330  -32.6660 O   0  0  0  0  0  0  0  0  0  0  0  0
   -4.8840   23.3300  -31.7250 N   0  0  0  0  0  0  0  0  0  0  0  0
   -3.9870   23.2400  -30.6110 C   0  0  0  0  0  0  0  0  0  0  0  0
   -3.6330   22.0040  -30.0480 C   0  0  0  0  0  0  0  0  0  0  0  0
   -2.7130   21.9360  -28.9920 C   0  0  0  0  0  0  0  0  0  0  0  0
   -2.2080   23.1270  -28.4310 C   0  0  0  0  0  0  0  0  0  0  0  0
   -2.5980   24.3630  -28.9650 C   0  0  0  0  0  0  0  0  0  0  0  0
   -3.4870   24.4190  -30.0430 C   0  0  0  0  0  0  0  0  0  0  0  0
   -3.8620   25.6550  -30.5560 O   0  0  0  0  0  0  0  0  0  0  0  0
   -1.1840   23.0790  -27.3240 C   0  0  0  0  0  0  0  0  0  0  0  0
   -1.2530   21.8120  -26.5830 N   0  0  0  0  0  0  0  0  0  0  0  0
   -1.1160   20.6800  -27.5040 C   0  0  0  0  0  0  0  0  0  0  0  0
   -2.3440   20.5930  -28.4140 C   0  0  0  0  0  0  0  0  0  0  0  0
   -9.4493   21.8120  -30.1481 H   0  0  0  0  0  0  0  0  0  0  0  0
   -9.3524   22.8924  -31.5799 H   0  0  0  0  0  0  0  0  0  0  0  0
  -10.4885   21.5010  -31.5799 H   0  0  0  0  0  0  0  0  0  0  0  0
   -9.7723   19.2780  -31.9849 H   0  0  0  0  0  0  0  0  0  0  0  0
   -8.0634   17.7630  -32.9720 H   0  0  0  0  0  0  0  0  0  0  0  0
   -2.8192   17.1997  -33.9470 H   0  0  0  0  0  0  0  0  0  0  0  0
   -2.9473   18.1021  -35.5122 H   0  0  0  0  0  0  0  0  0  0  0  0
   -0.8556   18.2296  -33.3949 H   0  0  0  0  0  0  0  0  0  0  0  0
   -0.7639   18.6016  -35.1579 H   0  0  0  0  0  0  0  0  0  0  0  0
   -1.3176   19.9958  -31.9010 H   0  0  0  0  0  0  0  0  0  0  0  0
   -2.2217   21.4165  -32.5915 H   0  0  0  0  0  0  0  0  0  0  0  0
   -3.2089   18.7388  -31.8484 H   0  0  0  0  0  0  0  0  0  0  0  0
   -4.1073   20.2705  -32.1524 H   0  0  0  0  0  0  0  0  0  0  0  0
   -5.1182   20.9155  -32.7461 H   0  0  0  0  0  0  0  0  0  0  0  0
   -4.0819   21.0791  -30.4392 H   0  0  0  0  0  0  0  0  0  0  0  0
   -2.2024   25.2943  -28.5335 H   0  0  0  0  0  0  0  0  0  0  0  0
   -0.1799   23.1837  -27.7608 H   0  0  0  0  0  0  0  0  0  0  0  0
   -1.3932   23.9010  -26.6236 H   0  0  0  0  0  0  0  0  0  0  0  0
   -0.4450   21.7870  -25.9170 H   0  0  0  0  0  0  0  0  0  0  0  0
   -0.2153   20.8187  -28.1201 H   0  0  0  0  0  0  0  0  0  0  0  0
   -1.0311   19.7501  -26.9226 H   0  0  0  0  0  0  0  0  0  0  0  0
   -2.1266   19.8986  -29.2389 H   0  0  0  0  0  0  0  0  0  0  0  0
   -3.1915   20.2381  -27.8092 H   0  0  0  0  0  0  0  0  0  0  0  0
  1  2  1  0
  2  3  2  0
  3  4  1  0
  4  5  2  0
  5  6  1  0
  6  7  2  0
  6  8  2  0
  6  9  1  0
  9 10  1  0
 10 11  1  0
 11 12  1  0
 12 13  1  0
 13 14  1  0
  5 15  1  0
 15 16  2  0
 16 17  1  0
 17 18  2  0
 17 19  2  0
 17 20  1  0
 20 21  1  0
 21 22  2  0
 22 23  1  0
 23 24  2  0
 24 25  1  0
 25 26  2  0
 26 27  1  0
 24 28  1  0
 28 29  1  0
 29 30  1  0
 30 31  1  0
 16  2  1  0
 26 21  1  0
 14  9  1  0
 31 23  1  0
  1 32  1  0
  1 33  1  0
  1 34  1  0
  3 35  1  0
  4 36  1  0
 10 37  1  0
 10 38  1  0
 11 39  1  0
 11 40  1  0
 13 41  1  0
 13 42  1  0
 14 43  1  0
 14 44  1  0
 15 45  1  0
 22 46  1  0
 25 47  1  0
 28 48  1  0
 28 49  1  0
 29 50  1  0
 30 51  1  0
 30 52  1  0
 31 53  1  0
 31 54  1  0
M  CHG  2  20  -1  27  -1
M  END
>  <UniqueID>  (37) 
34

>  <SMILES>  (37) 
Cc1ccc(S(=O)(=O)N2CCOCC2)cc1S(=O)(=O)[N-]c1cc2c(cc1[O-])CNCC2

>  <Energy>  (37) 
71.77519147985994

>  <Genealogy>  (37) 
Cc1ccc(S(=O)(=O)N2CCOCC2)cc1S(=O)(=O)[N-]c1cc2c(cc1[O-])CNCC2 (protonated)
Cc1ccc(S(=O)(=O)N2CCOCC2)cc1S(=O)(=O)[N-]c1cc2c(cc1[O-])CNCC2 (3D coordinates assigned)
Cc1ccc(S(=O)(=O)N2CCOCC2)cc1S(=O)(=O)[N-]c1cc2c(cc1[O-])CNCC2 (nonaromatic ring conformer: 71.77519147985994 kcal/mol)

>  <smiles>  (37) 
Cc1ccc(S(=O)(=O)N2CCOCC2)cc1S(=O)(=O)Nc1cc2c(cc1O)CNCC2

>  <score_type>  (37) 
oracle

>  <origin>  (37) 
adgpu

>  <m_score__min__energy>  (37) 
-13.85

>  <m_primary>  (37) 
energy

$$$$
37:0
     RDKit          3D

 52 55  0  0  0  0  0  0  0  0999 V2000
   -4.8240   25.3830  -31.2130 O   0  0  0  0  0  0  0  0  0  0  0  0
   -5.7800   24.7320  -30.2540 S   0  0  0  0  0  0  0  0  0  0  0  0
   -6.8990   25.6870  -29.9490 O   0  0  0  0  0  0  0  0  0  0  0  0
   -4.9350   24.3430  -28.7870 N   0  0  0  0  0  0  0  0  0  0  0  0
   -3.7690   23.4970  -28.7490 C   0  0  0  0  0  0  0  0  0  0  0  0
   -3.8460   22.1720  -28.2810 C   0  0  0  0  0  0  0  0  0  0  0  0
   -2.6940   21.3800  -28.1740 C   0  0  0  0  0  0  0  0  0  0  0  0
   -1.4600   21.8900  -28.6100 C   0  0  0  0  0  0  0  0  0  0  0  0
   -1.3840   23.1900  -29.1290 C   0  0  0  0  0  0  0  0  0  0  0  0
   -2.5270   23.9940  -29.1870 C   0  0  0  0  0  0  0  0  0  0  0  0
   -2.4190   25.2920  -29.6770 O   0  0  0  0  0  0  0  0  0  0  0  0
   -0.2350   21.0280  -28.5130 C   0  0  0  0  0  0  0  0  0  0  0  0
   -0.2590   20.2800  -27.1820 C   0  0  0  0  0  0  0  0  0  0  0  0
   -1.5080   19.3870  -27.0410 C   0  0  0  0  0  0  0  0  0  0  0  0
   -2.8030   19.9540  -27.6810 C   0  0  0  0  0  0  0  0  0  0  0  0
   -6.4660   23.2670  -30.9530 C   0  0  0  0  0  0  0  0  0  0  0  0
   -5.6680   22.1310  -31.1560 C   0  0  0  0  0  0  0  0  0  0  0  0
   -6.2460   20.9350  -31.5870 C   0  0  0  0  0  0  0  0  0  0  0  0
   -7.6270   20.8650  -31.8230 C   0  0  0  0  0  0  0  0  0  0  0  0
   -8.3880   19.3390  -32.2570 S   0  0  0  0  0  0  0  0  0  0  0  0
   -8.7990   18.6220  -31.0040 O   0  0  0  0  0  0  0  0  0  0  0  0
   -9.6080   19.5960  -33.0990 O   0  0  0  0  0  0  0  0  0  0  0  0
   -7.2420   18.3640  -33.1420 N   0  0  0  0  0  0  0  0  0  0  0  0
   -6.2870   17.7210  -32.2410 C   0  0  0  0  0  0  0  0  0  0  0  0
   -5.0240   17.4810  -33.0530 C   0  0  0  0  0  0  0  0  0  0  0  0
   -5.1090   18.4510  -34.2220 C   0  0  0  0  0  0  0  0  0  0  0  0
   -6.4350   19.1780  -34.0510 C   0  0  0  0  0  0  0  0  0  0  0  0
   -8.4160   22.0090  -31.6560 C   0  0  0  0  0  0  0  0  0  0  0  0
   -7.8390   23.2060  -31.2240 C   0  0  0  0  0  0  0  0  0  0  0  0
   -5.3830   24.6440  -27.8930 H   0  0  0  0  0  0  0  0  0  0  0  0
   -4.8220   21.7525  -27.9956 H   0  0  0  0  0  0  0  0  0  0  0  0
   -0.4214   23.5794  -29.4921 H   0  0  0  0  0  0  0  0  0  0  0  0
   -0.2257   20.3054  -29.3423 H   0  0  0  0  0  0  0  0  0  0  0  0
    0.6669   21.6551  -28.5712 H   0  0  0  0  0  0  0  0  0  0  0  0
    0.6386   19.6477  -27.1142 H   0  0  0  0  0  0  0  0  0  0  0  0
   -0.2833   21.0264  -26.3744 H   0  0  0  0  0  0  0  0  0  0  0  0
   -1.2895   18.4192  -27.5161 H   0  0  0  0  0  0  0  0  0  0  0  0
   -1.7089   19.3123  -25.9621 H   0  0  0  0  0  0  0  0  0  0  0  0
   -3.0702   19.3156  -28.5360 H   0  0  0  0  0  0  0  0  0  0  0  0
   -3.5651   19.9575  -26.8878 H   0  0  0  0  0  0  0  0  0  0  0  0
   -4.5842   22.1826  -30.9752 H   0  0  0  0  0  0  0  0  0  0  0  0
   -5.6170   20.0459  -31.7418 H   0  0  0  0  0  0  0  0  0  0  0  0
   -6.0700   18.3775  -31.3854 H   0  0  0  0  0  0  0  0  0  0  0  0
   -6.6889   16.7783  -31.8414 H   0  0  0  0  0  0  0  0  0  0  0  0
   -4.1303   17.6868  -32.4456 H   0  0  0  0  0  0  0  0  0  0  0  0
   -4.9453   16.4371  -33.3907 H   0  0  0  0  0  0  0  0  0  0  0  0
   -4.2725   19.1646  -34.1911 H   0  0  0  0  0  0  0  0  0  0  0  0
   -5.0505   17.9306  -35.1894 H   0  0  0  0  0  0  0  0  0  0  0  0
   -6.2681   20.1762  -33.6201 H   0  0  0  0  0  0  0  0  0  0  0  0
   -6.9412   19.3140  -35.0181 H   0  0  0  0  0  0  0  0  0  0  0  0
   -9.4949   21.9655  -31.8658 H   0  0  0  0  0  0  0  0  0  0  0  0
   -8.4641   24.1021  -31.0965 H   0  0  0  0  0  0  0  0  0  0  0  0
  1  2  2  0
  2  3  2  0
  2  4  1  0
  4  5  1  0
  5  6  2  0
  6  7  1  0
  7  8  2  0
  8  9  1  0
  9 10  2  0
 10 11  1  0
  8 12  1  0
 12 13  1  0
 13 14  1  0
 14 15  1  0
  2 16  1  0
 16 17  2  0
 17 18  1  0
 18 19  2  0
 19 20  1  0
 20 21  2  0
 20 22  2  0
 20 23  1  0
 23 24  1  0
 24 25  1  0
 25 26  1  0
 26 27  1  0
 19 28  1  0
 28 29  2  0
 10  5  1  0
 29 16  1  0
 15  7  1  0
 27 23  1  0
  4 30  1  0
  6 31  1  0
  9 32  1  0
 12 33  1  0
 12 34  1  0
 13 35  1  0
 13 36  1  0
 14 37  1  0
 14 38  1  0
 15 39  1  0
 15 40  1  0
 17 41  1  0
 18 42  1  0
 24 43  1  0
 24 44  1  0
 25 45  1  0
 25 46  1  0
 26 47  1  0
 26 48  1  0
 27 49  1  0
 27 50  1  0
 28 51  1  0
 29 52  1  0
M  CHG  1  11  -1
M  END
>  <UniqueID>  (38) 
35

>  <SMILES>  (38) 
O=S(=O)(Nc1cc2c(cc1[O-])CCCC2)c1ccc(S(=O)(=O)N2CCCC2)cc1

>  <Energy>  (38) 
59.3021662868264

>  <Genealogy>  (38) 
O=S(=O)(Nc1cc2c(cc1[O-])CCCC2)c1ccc(S(=O)(=O)N2CCCC2)cc1 (protonated)
O=S(=O)(Nc1cc2c(cc1[O-])CCCC2)c1ccc(S(=O)(=O)N2CCCC2)cc1 (3D coordinates assigned)
O=S(=O)(Nc1cc2c(cc1[O-])CCCC2)c1ccc(S(=O)(=O)N2CCCC2)cc1 (nonaromatic ring conformer: 59.3021662868264 kcal/mol)

>  <smiles>  (38) 
O=S(=O)(Nc1cc2c(cc1O)CCCC2)c1ccc(S(=O)(=O)N2CCCC2)cc1

>  <score_type>  (38) 
oracle

>  <origin>  (38) 
adgpu

>  <m_score__min__energy>  (38) 
-14.99

>  <m_primary>  (38) 
energy

$$$$
38:0
     RDKit          3D

 69 73  0  0  0  0  0  0  0  0999 V2000
   -2.5930   22.0750  -31.6670 O   0  0  0  0  0  0  0  0  0  0  0  0
   -2.5670   20.8410  -31.3950 C   0  0  0  0  0  0  0  0  0  0  0  0
   -1.8810   20.3600  -30.2330 N   0  0  0  0  0  0  0  0  0  0  0  0
   -1.5420   21.1740  -29.1010 C   0  0  0  0  0  0  0  0  0  0  0  0
   -0.4900   22.0980  -29.2140 C   0  0  0  0  0  0  0  0  0  0  0  0
   -0.0700   22.8290  -28.1010 C   0  0  0  0  0  0  0  0  0  0  0  0
   -0.6840   22.6300  -26.8570 C   0  0  0  0  0  0  0  0  0  0  0  0
   -0.0890   23.4700  -25.4290 S   0  0  0  0  0  0  0  0  0  0  0  0
    1.4100   23.5520  -25.5120 O   0  0  0  0  0  0  0  0  0  0  0  0
   -0.4510   22.6870  -24.1990 O   0  0  0  0  0  0  0  0  0  0  0  0
   -0.7650   25.0860  -25.3720 N   0  0  0  0  0  0  0  0  0  0  0  0
    0.1530   26.1060  -25.9140 C   0  0  0  0  0  0  0  0  0  0  0  0
    0.0890   26.1970  -27.4470 C   0  0  0  0  0  0  0  0  0  0  0  0
   -1.2370   26.4000  -27.8840 O   0  0  0  0  0  0  0  0  0  0  0  0
   -2.0310   25.2920  -27.5150 C   0  0  0  0  0  0  0  0  0  0  0  0
   -2.1030   25.1590  -25.9860 C   0  0  0  0  0  0  0  0  0  0  0  0
   -1.7370   21.7100  -26.7400 C   0  0  0  0  0  0  0  0  0  0  0  0
   -2.1700   20.9940  -27.8570 C   0  0  0  0  0  0  0  0  0  0  0  0
   -3.1830   19.8730  -32.3170 C   0  0  0  0  0  0  0  0  0  0  0  0
   -4.5070   19.4640  -32.1010 C   0  0  0  0  0  0  0  0  0  0  0  0
   -5.1660   18.6720  -33.0480 C   0  0  0  0  0  0  0  0  0  0  0  0
   -6.8450   18.2080  -32.7800 S   0  0  0  0  0  0  0  0  0  0  0  0
   -7.2290   17.1700  -33.7970 O   0  0  0  0  0  0  0  0  0  0  0  0
   -7.0060   17.6270  -31.4010 O   0  0  0  0  0  0  0  0  0  0  0  0
   -7.8670   19.6100  -32.9620 N   0  0  0  0  0  0  0  0  0  0  0  0
   -7.1950   20.8180  -32.4870 C   0  0  0  0  0  0  0  0  0  0  0  0
   -8.2940   21.7840  -32.0830 C   0  0  0  0  0  0  0  0  0  0  0  0
   -9.4950   20.9060  -31.7640 C   0  0  0  0  0  0  0  0  0  0  0  0
   -9.0830   19.4930  -32.1540 C   0  0  0  0  0  0  0  0  0  0  0  0
   -4.4930   18.2740  -34.2110 C   0  0  0  0  0  0  0  0  0  0  0  0
   -3.1700   18.6610  -34.4230 C   0  0  0  0  0  0  0  0  0  0  0  0
   -2.5050   19.4570  -33.4820 C   0  0  0  0  0  0  0  0  0  0  0  0
   -1.1330   19.8090  -33.6960 N   0  0  0  0  0  0  0  0  0  0  0  0
   -0.0420   19.2900  -32.8950 C   0  0  0  0  0  0  0  0  0  0  0  0
    1.2190   19.9210  -33.4720 C   0  0  0  0  0  0  0  0  0  0  0  0
    0.7450   21.1300  -34.2770 C   0  0  0  0  0  0  0  0  0  0  0  0
   -0.7260   20.8780  -34.5870 C   0  0  0  0  0  0  0  0  0  0  0  0
   -1.5740   19.3600  -30.2300 H   0  0  0  0  0  0  0  0  0  0  0  0
    0.0057   22.2465  -30.1847 H   0  0  0  0  0  0  0  0  0  0  0  0
    0.7440   23.5621  -28.2007 H   0  0  0  0  0  0  0  0  0  0  0  0
   -0.1168   27.0847  -25.4905 H   0  0  0  0  0  0  0  0  0  0  0  0
    1.1774   25.8157  -25.6379 H   0  0  0  0  0  0  0  0  0  0  0  0
    0.7122   27.0384  -27.7842 H   0  0  0  0  0  0  0  0  0  0  0  0
    0.4581   25.2515  -27.8711 H   0  0  0  0  0  0  0  0  0  0  0  0
   -3.0472   25.4275  -27.9137 H   0  0  0  0  0  0  0  0  0  0  0  0
   -1.5770   24.3791  -27.9279 H   0  0  0  0  0  0  0  0  0  0  0  0
   -2.6330   26.0326  -25.5786 H   0  0  0  0  0  0  0  0  0  0  0  0
   -2.6344   24.2248  -25.7520 H   0  0  0  0  0  0  0  0  0  0  0  0
   -2.2224   21.5527  -25.7655 H   0  0  0  0  0  0  0  0  0  0  0  0
   -3.0064   20.2858  -27.7631 H   0  0  0  0  0  0  0  0  0  0  0  0
   -5.0303   19.7674  -31.1822 H   0  0  0  0  0  0  0  0  0  0  0  0
   -6.5564   20.5840  -31.6225 H   0  0  0  0  0  0  0  0  0  0  0  0
   -6.5489   21.2494  -33.2658 H   0  0  0  0  0  0  0  0  0  0  0  0
   -7.9929   22.3633  -31.1977 H   0  0  0  0  0  0  0  0  0  0  0  0
   -8.5150   22.5126  -32.8769 H   0  0  0  0  0  0  0  0  0  0  0  0
   -9.7322   20.9546  -30.6910 H   0  0  0  0  0  0  0  0  0  0  0  0
  -10.3942   21.2327  -32.3068 H   0  0  0  0  0  0  0  0  0  0  0  0
   -8.8817   18.8956  -31.2525 H   0  0  0  0  0  0  0  0  0  0  0  0
   -9.8832   18.9921  -32.7186 H   0  0  0  0  0  0  0  0  0  0  0  0
   -5.0097   17.6546  -34.9588 H   0  0  0  0  0  0  0  0  0  0  0  0
   -2.6457   18.3391  -35.3348 H   0  0  0  0  0  0  0  0  0  0  0  0
   -0.1682   19.5770  -31.8406 H   0  0  0  0  0  0  0  0  0  0  0  0
    0.0002   18.1912  -32.9240 H   0  0  0  0  0  0  0  0  0  0  0  0
    1.8933   20.2392  -32.6632 H   0  0  0  0  0  0  0  0  0  0  0  0
    1.7787   19.2105  -34.0980 H   0  0  0  0  0  0  0  0  0  0  0  0
    0.8588   22.0509  -33.6863 H   0  0  0  0  0  0  0  0  0  0  0  0
    1.3344   21.2577  -35.1969 H   0  0  0  0  0  0  0  0  0  0  0  0
   -1.3196   21.7842  -34.3962 H   0  0  0  0  0  0  0  0  0  0  0  0
   -0.8801   20.6098  -35.6426 H   0  0  0  0  0  0  0  0  0  0  0  0
  1  2  2  0
  2  3  1  0
  3  4  1  0
  4  5  2  0
  5  6  1  0
  6  7  2  0
  7  8  1  0
  8  9  2  0
  8 10  2  0
  8 11  1  0
 11 12  1  0
 12 13  1  0
 13 14  1  0
 14 15  1  0
 15 16  1  0
  7 17  1  0
 17 18  2  0
  2 19  1  0
 19 20  2  0
 20 21  1  0
 21 22  1  0
 22 23  2  0
 22 24  2  0
 22 25  1  0
 25 26  1  0
 26 27  1  0
 27 28  1  0
 28 29  1  0
 21 30  2  0
 30 31  1  0
 31 32  2  0
 32 33  1  0
 33 34  1  0
 34 35  1  0
 35 36  1  0
 36 37  1  0
 18  4  1  0
 32 19  1  0
 37 33  1  0
 16 11  1  0
 29 25  1  0
  3 38  1  0
  5 39  1  0
  6 40  1  0
 12 41  1  0
 12 42  1  0
 13 43  1  0
 13 44  1  0
 15 45  1  0
 15 46  1  0
 16 47  1  0
 16 48  1  0
 17 49  1  0
 18 50  1  0
 20 51  1  0
 26 52  1  0
 26 53  1  0
 27 54  1  0
 27 55  1  0
 28 56  1  0
 28 57  1  0
 29 58  1  0
 29 59  1  0
 30 60  1  0
 31 61  1  0
 34 62  1  0
 34 63  1  0
 35 64  1  0
 35 65  1  0
 36 66  1  0
 36 67  1  0
 37 68  1  0
 37 69  1  0
M  END
>  <UniqueID>  (39) 
36

>  <SMILES>  (39) 
O=C(Nc1ccc(S(=O)(=O)N2CCOCC2)cc1)c1cc(S(=O)(=O)N2CCCC2)ccc1N1CCCC1

>  <Energy>  (39) 
91.29162820053264

>  <Genealogy>  (39) 
O=C(Nc1ccc(S(=O)(=O)N2CCOCC2)cc1)c1cc(S(=O)(=O)N2CCCC2)ccc1N1CCCC1 (3D coordinates assigned)
O=C(Nc1ccc(S(=O)(=O)N2CCOCC2)cc1)c1cc(S(=O)(=O)N2CCCC2)ccc1N1CCCC1 (nonaromatic ring conformer: 91.29162820053264 kcal/mol)

>  <smiles>  (39) 
O=C(Nc1ccc(S(=O)(=O)N2CCOCC2)cc1)c1cc(S(=O)(=O)N2CCCC2)ccc1N1CCCC1

>  <score_type>  (39) 
oracle

>  <origin>  (39) 
adgpu

>  <m_score__min__energy>  (39) 
-10.130000000000001

>  <m_primary>  (39) 
energy

$$$$
39:0
     RDKit          3D

 51 54  0  0  0  0  0  0  0  0999 V2000
   -5.7270   26.0450  -31.2160 O   0  0  0  0  0  0  0  0  0  0  0  0
   -5.2910   24.9230  -30.3170 S   0  0  0  0  0  0  0  0  0  0  0  0
   -5.6610   25.2770  -28.9030 O   0  0  0  0  0  0  0  0  0  0  0  0
   -3.5700   24.7470  -30.4300 N   0  0  0  0  0  0  0  0  0  0  0  0
   -2.8460   23.7410  -29.7160 C   0  0  0  0  0  0  0  0  0  0  0  0
   -2.1160   22.7660  -30.4090 C   0  0  0  0  0  0  0  0  0  0  0  0
   -1.4200   21.7690  -29.7150 C   0  0  0  0  0  0  0  0  0  0  0  0
   -1.4430   21.7510  -28.3060 C   0  0  0  0  0  0  0  0  0  0  0  0
   -2.1260   22.7610  -27.6130 C   0  0  0  0  0  0  0  0  0  0  0  0
   -2.8270   23.7520  -28.3090 C   0  0  0  0  0  0  0  0  0  0  0  0
   -3.5070   24.7300  -27.5820 O   0  0  0  0  0  0  0  0  0  0  0  0
   -0.6720   20.7020  -27.5450 C   0  0  0  0  0  0  0  0  0  0  0  0
   -0.4720   19.4290  -28.3780 C   0  0  0  0  0  0  0  0  0  0  0  0
    0.1250   19.7710  -29.7460 C   0  0  0  0  0  0  0  0  0  0  0  0
   -0.7160   20.7460  -30.4370 N   0  0  0  0  0  0  0  0  0  0  0  0
   -6.1230   23.4470  -30.7980 C   0  0  0  0  0  0  0  0  0  0  0  0
   -5.4170   22.2400  -30.8900 C   0  0  0  0  0  0  0  0  0  0  0  0
   -6.0600   21.0820  -31.3370 C   0  0  0  0  0  0  0  0  0  0  0  0
   -7.4160   21.1170  -31.6870 C   0  0  0  0  0  0  0  0  0  0  0  0
   -8.2230   19.6580  -32.2760 S   0  0  0  0  0  0  0  0  0  0  0  0
   -8.7440   18.8800  -31.1000 O   0  0  0  0  0  0  0  0  0  0  0  0
   -9.3970   20.0590  -33.1250 O   0  0  0  0  0  0  0  0  0  0  0  0
   -7.1670   18.6310  -33.2150 N   0  0  0  0  0  0  0  0  0  0  0  0
   -6.3810   17.7330  -32.3710 C   0  0  0  0  0  0  0  0  0  0  0  0
   -5.1370   17.3780  -33.1700 C   0  0  0  0  0  0  0  0  0  0  0  0
   -5.0010   18.4810  -34.2110 C   0  0  0  0  0  0  0  0  0  0  0  0
   -6.1910   19.4010  -33.9820 C   0  0  0  0  0  0  0  0  0  0  0  0
   -8.1210   22.3260  -31.5980 C   0  0  0  0  0  0  0  0  0  0  0  0
   -7.4770   23.4850  -31.1540 C   0  0  0  0  0  0  0  0  0  0  0  0
   -2.0896   22.7842  -31.5085 H   0  0  0  0  0  0  0  0  0  0  0  0
   -2.1105   22.7742  -26.5132 H   0  0  0  0  0  0  0  0  0  0  0  0
   -4.2460   25.2920  -27.9890 H   0  0  0  0  0  0  0  0  0  0  0  0
    0.3133   21.1097  -27.2748 H   0  0  0  0  0  0  0  0  0  0  0  0
   -1.2487   20.4369  -26.6466 H   0  0  0  0  0  0  0  0  0  0  0  0
    0.2104   18.7509  -27.8446 H   0  0  0  0  0  0  0  0  0  0  0  0
   -1.4483   18.9446  -28.5271 H   0  0  0  0  0  0  0  0  0  0  0  0
    1.1312   20.1933  -29.6075 H   0  0  0  0  0  0  0  0  0  0  0  0
    0.1811   18.8542  -30.3512 H   0  0  0  0  0  0  0  0  0  0  0  0
   -0.7780   20.7070  -31.4790 H   0  0  0  0  0  0  0  0  0  0  0  0
   -4.3539   22.2036  -30.6097 H   0  0  0  0  0  0  0  0  0  0  0  0
   -5.4987   20.1391  -31.4142 H   0  0  0  0  0  0  0  0  0  0  0  0
   -6.1012   18.2378  -31.4345 H   0  0  0  0  0  0  0  0  0  0  0  0
   -6.9538   16.8334  -32.1015 H   0  0  0  0  0  0  0  0  0  0  0  0
   -4.2528   17.3539  -32.5161 H   0  0  0  0  0  0  0  0  0  0  0  0
   -5.2167   16.3836  -33.6335 H   0  0  0  0  0  0  0  0  0  0  0  0
   -4.0578   19.0292  -34.0700 H   0  0  0  0  0  0  0  0  0  0  0  0
   -4.9861   18.0782  -35.2345 H   0  0  0  0  0  0  0  0  0  0  0  0
   -5.8798   20.2916  -33.4163 H   0  0  0  0  0  0  0  0  0  0  0  0
   -6.6167   19.7466  -34.9356 H   0  0  0  0  0  0  0  0  0  0  0  0
   -9.1840   22.3627  -31.8784 H   0  0  0  0  0  0  0  0  0  0  0  0
   -8.0358   24.4299  -31.0841 H   0  0  0  0  0  0  0  0  0  0  0  0
  1  2  2  0
  2  3  2  0
  2  4  1  0
  4  5  1  0
  5  6  2  0
  6  7  1  0
  7  8  2  0
  8  9  1  0
  9 10  2  0
 10 11  1  0
  8 12  1  0
 12 13  1  0
 13 14  1  0
 14 15  1  0
  2 16  1  0
 16 17  2  0
 17 18  1  0
 18 19  2  0
 19 20  1  0
 20 21  2  0
 20 22  2  0
 20 23  1  0
 23 24  1  0
 24 25  1  0
 25 26  1  0
 26 27  1  0
 19 28  1  0
 28 29  2  0
 10  5  1  0
 29 16  1  0
 15  7  1  0
 27 23  1  0
  6 30  1  0
  9 31  1  0
 11 32  1  0
 12 33  1  0
 12 34  1  0
 13 35  1  0
 13 36  1  0
 14 37  1  0
 14 38  1  0
 15 39  1  0
 17 40  1  0
 18 41  1  0
 24 42  1  0
 24 43  1  0
 25 44  1  0
 25 45  1  0
 26 46  1  0
 26 47  1  0
 27 48  1  0
 27 49  1  0
 28 50  1  0
 29 51  1  0
M  CHG  1   4  -1
M  END
>  <UniqueID>  (40) 
37

>  <SMILES>  (40) 
O=S(=O)([N-]c1cc2c(cc1O)CCCN2)c1ccc(S(=O)(=O)N2CCCC2)cc1

>  <Energy>  (40) 
61.123845793054144

>  <Genealogy>  (40) 
O=S(=O)([N-]c1cc2c(cc1O)CCCN2)c1ccc(S(=O)(=O)N2CCCC2)cc1 (protonated)
O=S(=O)([N-]c1cc2c(cc1O)CCCN2)c1ccc(S(=O)(=O)N2CCCC2)cc1 (3D coordinates assigned)
O=S(=O)([N-]c1cc2c(cc1O)CCCN2)c1ccc(S(=O)(=O)N2CCCC2)cc1 (nonaromatic ring conformer: 61.123845793054144 kcal/mol)

>  <smiles>  (40) 
O=S(=O)(Nc1cc2c(cc1O)CCCN2)c1ccc(S(=O)(=O)N2CCCC2)cc1

>  <score_type>  (40) 
oracle

>  <origin>  (40) 
adgpu

>  <m_score__min__energy>  (40) 
-13.34

>  <m_primary>  (40) 
energy

$$$$
40:0
     RDKit          3D

 48 50  0  0  0  0  0  0  0  0999 V2000
   -5.2920   24.6150  -29.0460 C   0  0  0  0  0  0  0  0  0  0  0  0
   -4.2960   24.5860  -30.0640 O   0  0  0  0  0  0  0  0  0  0  0  0
   -3.1370   23.7960  -30.0210 C   0  0  0  0  0  0  0  0  0  0  0  0
   -3.1160   22.4690  -30.4870 C   0  0  0  0  0  0  0  0  0  0  0  0
   -1.9300   21.7190  -30.4570 C   0  0  0  0  0  0  0  0  0  0  0  0
   -1.8930   20.3070  -31.0080 C   0  0  0  0  0  0  0  0  0  0  0  0
   -2.5580   20.1630  -32.3240 N   0  0  0  0  0  0  0  0  0  0  0  0
   -2.6930   21.4140  -33.1090 C   0  0  0  0  0  0  0  0  0  0  0  0
   -4.0790   22.0640  -32.9550 C   0  0  0  0  0  0  0  0  0  0  0  0
   -5.1470   21.0700  -33.0720 N   0  0  0  0  0  0  0  0  0  0  0  0
   -6.4830   21.4400  -32.7120 C   0  0  0  0  0  0  0  0  0  0  0  0
   -7.4940   20.4670  -32.7250 C   0  0  0  0  0  0  0  0  0  0  0  0
   -8.7980   20.8020  -32.3530 C   0  0  0  0  0  0  0  0  0  0  0  0
   -9.1010   22.1090  -31.9680 C   0  0  0  0  0  0  0  0  0  0  0  0
   -8.0990   23.0850  -31.9540 C   0  0  0  0  0  0  0  0  0  0  0  0
   -6.7900   22.7590  -32.3260 C   0  0  0  0  0  0  0  0  0  0  0  0
   -5.8150   23.7570  -32.3120 O   0  0  0  0  0  0  0  0  0  0  0  0
   -4.8150   19.6670  -33.3110 C   0  0  0  0  0  0  0  0  0  0  0  0
   -3.7230   19.2420  -32.3280 C   0  0  0  0  0  0  0  0  0  0  0  0
   -0.7750   22.2870  -29.8960 C   0  0  0  0  0  0  0  0  0  0  0  0
   -0.7830   23.6120  -29.4250 C   0  0  0  0  0  0  0  0  0  0  0  0
    0.3600   24.2210  -28.8840 O   0  0  0  0  0  0  0  0  0  0  0  0
    0.5250   24.5500  -27.5090 C   0  0  0  0  0  0  0  0  0  0  0  0
   -1.9650   24.3590  -29.4980 C   0  0  0  0  0  0  0  0  0  0  0  0
   -1.9780   25.6720  -29.0410 O   0  0  0  0  0  0  0  0  0  0  0  0
   -4.8075   24.6009  -28.0585 H   0  0  0  0  0  0  0  0  0  0  0  0
   -5.8927   25.5310  -29.1467 H   0  0  0  0  0  0  0  0  0  0  0  0
   -5.9449   23.7355  -29.1467 H   0  0  0  0  0  0  0  0  0  0  0  0
   -4.0380   22.0146  -30.8787 H   0  0  0  0  0  0  0  0  0  0  0  0
   -0.8411   20.0038  -31.1155 H   0  0  0  0  0  0  0  0  0  0  0  0
   -2.4431   19.6710  -30.2989 H   0  0  0  0  0  0  0  0  0  0  0  0
   -1.9293   22.1282  -32.7674 H   0  0  0  0  0  0  0  0  0  0  0  0
   -2.5625   21.1563  -34.1704 H   0  0  0  0  0  0  0  0  0  0  0  0
   -4.1423   22.5438  -31.9672 H   0  0  0  0  0  0  0  0  0  0  0  0
   -4.2058   22.8067  -33.7564 H   0  0  0  0  0  0  0  0  0  0  0  0
   -7.2587   19.4365  -33.0293 H   0  0  0  0  0  0  0  0  0  0  0  0
   -9.5867   20.0353  -32.3635 H   0  0  0  0  0  0  0  0  0  0  0  0
  -10.1283   22.3717  -31.6754 H   0  0  0  0  0  0  0  0  0  0  0  0
   -8.3412   24.1138  -31.6491 H   0  0  0  0  0  0  0  0  0  0  0  0
   -5.2920   23.9920  -31.4780 H   0  0  0  0  0  0  0  0  0  0  0  0
   -5.7097   19.0450  -33.1606 H   0  0  0  0  0  0  0  0  0  0  0  0
   -4.4575   19.5392  -34.3434 H   0  0  0  0  0  0  0  0  0  0  0  0
   -4.1529   19.2156  -31.3158 H   0  0  0  0  0  0  0  0  0  0  0  0
   -3.3605   18.2530  -32.6450 H   0  0  0  0  0  0  0  0  0  0  0  0
    0.1457   21.6894  -29.8242 H   0  0  0  0  0  0  0  0  0  0  0  0
    0.1184   23.7392  -26.8866 H   0  0  0  0  0  0  0  0  0  0  0  0
    1.5949   24.6799  -27.2889 H   0  0  0  0  0  0  0  0  0  0  0  0
   -0.0108   25.4851  -27.2889 H   0  0  0  0  0  0  0  0  0  0  0  0
  1  2  1  0
  2  3  1  0
  3  4  2  0
  4  5  1  0
  5  6  1  0
  6  7  1  0
  7  8  1  0
  8  9  1  0
  9 10  1  0
 10 11  1  0
 11 12  2  0
 12 13  1  0
 13 14  2  0
 14 15  1  0
 15 16  2  0
 16 17  1  0
 10 18  1  0
 18 19  1  0
  5 20  2  0
 20 21  1  0
 21 22  1  0
 22 23  1  0
 21 24  2  0
 24 25  1  0
 24  3  1  0
 19  7  1  0
 16 11  1  0
  1 26  1  0
  1 27  1  0
  1 28  1  0
  4 29  1  0
  6 30  1  0
  6 31  1  0
  8 32  1  0
  8 33  1  0
  9 34  1  0
  9 35  1  0
 12 36  1  0
 13 37  1  0
 14 38  1  0
 15 39  1  0
 17 40  1  0
 18 41  1  0
 18 42  1  0
 19 43  1  0
 19 44  1  0
 20 45  1  0
 23 46  1  0
 23 47  1  0
 23 48  1  0
M  CHG  1  25  -1
M  END
>  <UniqueID>  (41) 
38

>  <SMILES>  (41) 
COc1cc(CN2CCN(c3ccccc3O)CC2)cc(OC)c1[O-]

>  <Energy>  (41) 
63.00533182368363

>  <Genealogy>  (41) 
COc1cc(CN2CCN(c3ccccc3O)CC2)cc(OC)c1[O-] (protonated)
COc1cc(CN2CCN(c3ccccc3O)CC2)cc(OC)c1[O-] (3D coordinates assigned)
COc1cc(CN2CCN(c3ccccc3O)CC2)cc(OC)c1[O-] (nonaromatic ring conformer: 63.00533182368363 kcal/mol)

>  <smiles>  (41) 
COc1cc(CN2CCN(c3ccccc3O)CC2)cc(OC)c1O

>  <score_type>  (41) 
oracle

>  <origin>  (41) 
adgpu

>  <m_score__min__energy>  (41) 
-10.949999999999999

>  <m_primary>  (41) 
energy

$$$$
41:0
     RDKit          3D

 55 58  0  0  0  0  0  0  0  0999 V2000
   -4.2960   17.0690  -32.7220 C   0  0  0  0  0  0  0  0  0  0  0  0
   -5.1050   17.2250  -33.9440 N   0  0  0  0  0  0  0  0  0  0  0  0
   -6.4560   16.6450  -33.7860 C   0  0  0  0  0  0  0  0  0  0  0  0
   -7.3210   17.4580  -32.8070 C   0  0  0  0  0  0  0  0  0  0  0  0
   -7.1200   18.8990  -32.9990 N   0  0  0  0  0  0  0  0  0  0  0  0
   -7.8110   19.8250  -32.1380 C   0  0  0  0  0  0  0  0  0  0  0  0
   -8.9760   19.5450  -31.7390 O   0  0  0  0  0  0  0  0  0  0  0  0
   -7.1760   21.0880  -31.6910 C   0  0  0  0  0  0  0  0  0  0  0  0
   -7.9690   22.1780  -31.3000 C   0  0  0  0  0  0  0  0  0  0  0  0
   -7.3750   23.3680  -30.8710 C   0  0  0  0  0  0  0  0  0  0  0  0
   -5.9810   23.4840  -30.8260 C   0  0  0  0  0  0  0  0  0  0  0  0
   -5.2270   24.9810  -30.2900 S   0  0  0  0  0  0  0  0  0  0  0  0
   -5.5610   26.1160  -31.2190 O   0  0  0  0  0  0  0  0  0  0  0  0
   -5.7450   25.3060  -28.9190 O   0  0  0  0  0  0  0  0  0  0  0  0
   -3.5040   24.7950  -30.2120 N   0  0  0  0  0  0  0  0  0  0  0  0
   -2.7480   23.8770  -29.4010 C   0  0  0  0  0  0  0  0  0  0  0  0
   -2.0540   22.8610  -30.0660 C   0  0  0  0  0  0  0  0  0  0  0  0
   -1.2760   21.9320  -29.3610 C   0  0  0  0  0  0  0  0  0  0  0  0
   -1.2290   21.9920  -27.9550 C   0  0  0  0  0  0  0  0  0  0  0  0
   -1.9150   23.0100  -27.2850 C   0  0  0  0  0  0  0  0  0  0  0  0
   -2.6860   23.9440  -27.9900 C   0  0  0  0  0  0  0  0  0  0  0  0
   -3.3910   24.9100  -27.2780 O   0  0  0  0  0  0  0  0  0  0  0  0
   -0.3710   21.0230  -27.1700 C   0  0  0  0  0  0  0  0  0  0  0  0
   -0.0780   19.7950  -27.9230 N   0  0  0  0  0  0  0  0  0  0  0  0
    0.4690   20.1180  -29.2450 C   0  0  0  0  0  0  0  0  0  0  0  0
   -0.5770   20.8290  -30.1140 C   0  0  0  0  0  0  0  0  0  0  0  0
   -5.1850   22.3940  -31.1950 C   0  0  0  0  0  0  0  0  0  0  0  0
   -5.7770   21.2030  -31.6200 C   0  0  0  0  0  0  0  0  0  0  0  0
   -6.4560   19.3660  -34.2230 C   0  0  0  0  0  0  0  0  0  0  0  0
   -5.1130   18.6330  -34.4290 C   0  0  0  0  0  0  0  0  0  0  0  0
   -4.9391   17.1930  -31.8382 H   0  0  0  0  0  0  0  0  0  0  0  0
   -3.8426   16.0669  -32.7079 H   0  0  0  0  0  0  0  0  0  0  0  0
   -3.5025   17.8307  -32.7079 H   0  0  0  0  0  0  0  0  0  0  0  0
   -6.9519   16.6272  -34.7677 H   0  0  0  0  0  0  0  0  0  0  0  0
   -6.3444   15.6294  -33.3783 H   0  0  0  0  0  0  0  0  0  0  0  0
   -8.3806   17.2168  -32.9776 H   0  0  0  0  0  0  0  0  0  0  0  0
   -7.0268   17.1971  -31.7797 H   0  0  0  0  0  0  0  0  0  0  0  0
   -9.0654   22.0951  -31.3314 H   0  0  0  0  0  0  0  0  0  0  0  0
   -8.0055   24.2168  -30.5675 H   0  0  0  0  0  0  0  0  0  0  0  0
   -2.1198   22.7896  -31.1617 H   0  0  0  0  0  0  0  0  0  0  0  0
   -1.8484   23.0785  -26.1892 H   0  0  0  0  0  0  0  0  0  0  0  0
   -4.0530   25.5300  -27.7300 H   0  0  0  0  0  0  0  0  0  0  0  0
    0.5787   21.5172  -26.9173 H   0  0  0  0  0  0  0  0  0  0  0  0
   -0.9300   20.7366  -26.2669 H   0  0  0  0  0  0  0  0  0  0  0  0
   -0.9660   19.2510  -28.0410 H   0  0  0  0  0  0  0  0  0  0  0  0
    1.3420   20.7759  -29.1222 H   0  0  0  0  0  0  0  0  0  0  0  0
    0.7597   19.1810  -29.7425 H   0  0  0  0  0  0  0  0  0  0  0  0
   -0.0756   21.2605  -30.9928 H   0  0  0  0  0  0  0  0  0  0  0  0
   -1.3328   20.0879  -30.4134 H   0  0  0  0  0  0  0  0  0  0  0  0
   -4.0890   22.4757  -31.1501 H   0  0  0  0  0  0  0  0  0  0  0  0
   -5.1439   20.3486  -31.9013 H   0  0  0  0  0  0  0  0  0  0  0  0
   -7.1100   19.1706  -35.0856 H   0  0  0  0  0  0  0  0  0  0  0  0
   -6.2596   20.4443  -34.1294 H   0  0  0  0  0  0  0  0  0  0  0  0
   -4.8840   18.6285  -35.5049 H   0  0  0  0  0  0  0  0  0  0  0  0
   -4.3625   19.1758  -33.8356 H   0  0  0  0  0  0  0  0  0  0  0  0
  1  2  1  0
  2  3  1  0
  3  4  1  0
  4  5  1  0
  5  6  1  0
  6  7  2  0
  6  8  1  0
  8  9  2  0
  9 10  1  0
 10 11  2  0
 11 12  1  0
 12 13  2  0
 12 14  2  0
 12 15  1  0
 15 16  1  0
 16 17  2  0
 17 18  1  0
 18 19  2  0
 19 20  1  0
 20 21  2  0
 21 22  1  0
 19 23  1  0
 23 24  1  0
 24 25  1  0
 25 26  1  0
 11 27  1  0
 27 28  2  0
  5 29  1  0
 29 30  1  0
 30  2  1  0
 28  8  1  0
 21 16  1  0
 26 18  1  0
  1 31  1  0
  1 32  1  0
  1 33  1  0
  3 34  1  0
  3 35  1  0
  4 36  1  0
  4 37  1  0
  9 38  1  0
 10 39  1  0
 17 40  1  0
 20 41  1  0
 22 42  1  0
 23 43  1  0
 23 44  1  0
 24 45  1  0
 25 46  1  0
 25 47  1  0
 26 48  1  0
 26 49  1  0
 27 50  1  0
 28 51  1  0
 29 52  1  0
 29 53  1  0
 30 54  1  0
 30 55  1  0
M  CHG  1  15  -1
M  END
>  <UniqueID>  (42) 
39

>  <SMILES>  (42) 
CN1CCN(C(=O)c2ccc(S(=O)(=O)[N-]c3cc4c(cc3O)CNCC4)cc2)CC1

>  <Energy>  (42) 
76.72080466842453

>  <Genealogy>  (42) 
CN1CCN(C(=O)c2ccc(S(=O)(=O)[N-]c3cc4c(cc3O)CNCC4)cc2)CC1 (protonated)
CN1CCN(C(=O)c2ccc(S(=O)(=O)[N-]c3cc4c(cc3O)CNCC4)cc2)CC1 (3D coordinates assigned)
CN1CCN(C(=O)c2ccc(S(=O)(=O)[N-]c3cc4c(cc3O)CNCC4)cc2)CC1 (nonaromatic ring conformer: 76.72080466842453 kcal/mol)

>  <smiles>  (42) 
CN1CCN(C(=O)c2ccc(S(=O)(=O)Nc3cc4c(cc3O)CNCC4)cc2)CC1

>  <score_type>  (42) 
oracle

>  <origin>  (42) 
adgpu

>  <m_score__min__energy>  (42) 
-13.02

>  <m_primary>  (42) 
energy

$$$$
42:0
     RDKit          3D

 47 49  0  0  0  0  0  0  0  0999 V2000
   -3.6640   16.2290  -35.5600 C   0  0  0  0  0  0  0  0  0  0  0  0
   -3.2860   17.3750  -34.6710 C   0  0  0  0  0  0  0  0  0  0  0  0
   -2.0820   17.7560  -34.6590 O   0  0  0  0  0  0  0  0  0  0  0  0
   -4.2590   18.0510  -33.8430 N   0  0  0  0  0  0  0  0  0  0  0  0
   -3.7760   18.8480  -32.7020 C   0  0  0  0  0  0  0  0  0  0  0  0
   -4.9300   19.3560  -31.8320 C   0  0  0  0  0  0  0  0  0  0  0  0
   -5.9830   19.9270  -32.6840 N   0  0  0  0  0  0  0  0  0  0  0  0
   -6.6780   21.1250  -32.2890 C   0  0  0  0  0  0  0  0  0  0  0  0
   -7.9370   21.1710  -32.3900 O   0  0  0  0  0  0  0  0  0  0  0  0
   -5.9520   22.3100  -31.7730 C   0  0  0  0  0  0  0  0  0  0  0  0
   -6.5680   23.5710  -31.7460 C   0  0  0  0  0  0  0  0  0  0  0  0
   -5.8610   24.6890  -31.2980 C   0  0  0  0  0  0  0  0  0  0  0  0
   -4.5480   24.5540  -30.8400 C   0  0  0  0  0  0  0  0  0  0  0  0
   -3.8550   25.6780  -30.4130 O   0  0  0  0  0  0  0  0  0  0  0  0
   -3.9330   23.2950  -30.8100 C   0  0  0  0  0  0  0  0  0  0  0  0
   -2.5880   23.2010  -30.3140 N   0  0  0  0  0  0  0  0  0  0  0  0
   -1.5230   21.8340  -30.4310 S   0  0  0  0  0  0  0  0  0  0  0  0
   -1.7650   21.0710  -31.7010 O   0  0  0  0  0  0  0  0  0  0  0  0
   -0.1090   22.3430  -30.4700 O   0  0  0  0  0  0  0  0  0  0  0  0
   -1.7180   20.7900  -29.0240 C   0  0  0  0  0  0  0  0  0  0  0  0
   -0.7100   19.8700  -28.6900 C   0  0  0  0  0  0  0  0  0  0  0  0
   -0.8600   19.0410  -27.5730 C   0  0  0  0  0  0  0  0  0  0  0  0
   -2.0110   19.1290  -26.7790 C   0  0  0  0  0  0  0  0  0  0  0  0
   -3.0180   20.0410  -27.1100 C   0  0  0  0  0  0  0  0  0  0  0  0
   -2.8750   20.8690  -28.2300 C   0  0  0  0  0  0  0  0  0  0  0  0
   -4.6400   22.1780  -31.2900 C   0  0  0  0  0  0  0  0  0  0  0  0
   -6.4640   19.1780  -33.8520 C   0  0  0  0  0  0  0  0  0  0  0  0
   -5.7060   17.8550  -34.0400 C   0  0  0  0  0  0  0  0  0  0  0  0
   -3.9492   15.3645  -34.9425 H   0  0  0  0  0  0  0  0  0  0  0  0
   -4.5131   16.5221  -36.1950 H   0  0  0  0  0  0  0  0  0  0  0  0
   -2.8072   15.9594  -36.1950 H   0  0  0  0  0  0  0  0  0  0  0  0
   -3.1144   18.2219  -32.0853 H   0  0  0  0  0  0  0  0  0  0  0  0
   -3.2379   19.7213  -33.0991 H   0  0  0  0  0  0  0  0  0  0  0  0
   -5.3446   18.5193  -31.2506 H   0  0  0  0  0  0  0  0  0  0  0  0
   -4.5550   20.1325  -31.1491 H   0  0  0  0  0  0  0  0  0  0  0  0
   -7.6109   23.6790  -32.0788 H   0  0  0  0  0  0  0  0  0  0  0  0
   -6.3396   25.6794  -31.3058 H   0  0  0  0  0  0  0  0  0  0  0  0
    0.1979   19.8014  -29.3073 H   0  0  0  0  0  0  0  0  0  0  0  0
   -0.0716   18.3177  -27.3173 H   0  0  0  0  0  0  0  0  0  0  0  0
   -2.1223   18.4817  -25.8966 H   0  0  0  0  0  0  0  0  0  0  0  0
   -3.9238   20.1080  -26.4896 H   0  0  0  0  0  0  0  0  0  0  0  0
   -3.6704   21.5833  -28.4892 H   0  0  0  0  0  0  0  0  0  0  0  0
   -4.1593   21.1886  -31.2871 H   0  0  0  0  0  0  0  0  0  0  0  0
   -7.5334   18.9584  -33.7172 H   0  0  0  0  0  0  0  0  0  0  0  0
   -6.2941   19.7966  -34.7456 H   0  0  0  0  0  0  0  0  0  0  0  0
   -6.0739   17.1210  -33.3080 H   0  0  0  0  0  0  0  0  0  0  0  0
   -5.8774   17.4918  -35.0641 H   0  0  0  0  0  0  0  0  0  0  0  0
  1  2  1  0
  2  3  2  0
  2  4  1  0
  4  5  1  0
  5  6  1  0
  6  7  1  0
  7  8  1  0
  8  9  2  0
  8 10  1  0
 10 11  2  0
 11 12  1  0
 12 13  2  0
 13 14  1  0
 13 15  1  0
 15 16  1  0
 16 17  1  0
 17 18  2  0
 17 19  2  0
 17 20  1  0
 20 21  2  0
 21 22  1  0
 22 23  2  0
 23 24  1  0
 24 25  2  0
 15 26  2  0
  7 27  1  0
 27 28  1  0
 28  4  1  0
 26 10  1  0
 25 20  1  0
  1 29  1  0
  1 30  1  0
  1 31  1  0
  5 32  1  0
  5 33  1  0
  6 34  1  0
  6 35  1  0
 11 36  1  0
 12 37  1  0
 21 38  1  0
 22 39  1  0
 23 40  1  0
 24 41  1  0
 25 42  1  0
 26 43  1  0
 27 44  1  0
 27 45  1  0
 28 46  1  0
 28 47  1  0
M  CHG  2  14  -1  16  -1
M  END
>  <UniqueID>  (43) 
40

>  <SMILES>  (43) 
CC(=O)N1CCN(C(=O)c2ccc([O-])c([N-]S(=O)(=O)c3ccccc3)c2)CC1

>  <Energy>  (43) 
58.33702308491295

>  <Genealogy>  (43) 
CC(=O)N1CCN(C(=O)c2ccc([O-])c([N-]S(=O)(=O)c3ccccc3)c2)CC1 (protonated)
CC(=O)N1CCN(C(=O)c2ccc([O-])c([N-]S(=O)(=O)c3ccccc3)c2)CC1 (3D coordinates assigned)
CC(=O)N1CCN(C(=O)c2ccc([O-])c([N-]S(=O)(=O)c3ccccc3)c2)CC1 (nonaromatic ring conformer: 58.33702308491295 kcal/mol)

>  <smiles>  (43) 
CC(=O)N1CCN(C(=O)c2ccc(O)c(NS(=O)(=O)c3ccccc3)c2)CC1

>  <score_type>  (43) 
oracle

>  <origin>  (43) 
adgpu

>  <m_score__min__energy>  (43) 
-12.59

>  <m_primary>  (43) 
energy

$$$$
43:0
     RDKit          3D

 48 51  0  0  0  0  0  0  0  0999 V2000
   -1.0420   18.1950  -26.7600 N   0  0  0  0  0  0  0  0  0  0  0  0
   -2.0690   19.1890  -26.8180 C   0  0  0  0  0  0  0  0  0  0  0  0
   -3.2490   18.8640  -26.5120 O   0  0  0  0  0  0  0  0  0  0  0  0
   -1.7740   20.5870  -27.2150 C   0  0  0  0  0  0  0  0  0  0  0  0
   -1.2440   21.5080  -26.2930 C   0  0  0  0  0  0  0  0  0  0  0  0
   -0.9590   22.8180  -26.6870 C   0  0  0  0  0  0  0  0  0  0  0  0
   -1.1930   23.2250  -28.0020 C   0  0  0  0  0  0  0  0  0  0  0  0
   -1.7200   22.3220  -28.9370 C   0  0  0  0  0  0  0  0  0  0  0  0
   -1.9200   22.7450  -30.3680 C   0  0  0  0  0  0  0  0  0  0  0  0
   -3.3500   22.8890  -30.6530 N   0  0  0  0  0  0  0  0  0  0  0  0
   -4.0450   24.0510  -30.7070 C   0  0  0  0  0  0  0  0  0  0  0  0
   -3.4990   25.2940  -30.4100 O   0  0  0  0  0  0  0  0  0  0  0  0
   -5.3590   23.8460  -31.1010 C   0  0  0  0  0  0  0  0  0  0  0  0
   -5.4530   22.4860  -31.3040 C   0  0  0  0  0  0  0  0  0  0  0  0
   -6.5330   21.7150  -31.7280 C   0  0  0  0  0  0  0  0  0  0  0  0
   -6.3410   20.3270  -31.8760 C   0  0  0  0  0  0  0  0  0  0  0  0
   -7.6750   19.3030  -32.4180 S   0  0  0  0  0  0  0  0  0  0  0  0
   -8.6760   20.1510  -33.1520 O   0  0  0  0  0  0  0  0  0  0  0  0
   -8.3580   18.7130  -31.2160 O   0  0  0  0  0  0  0  0  0  0  0  0
   -7.1510   18.0080  -33.4670 N   0  0  0  0  0  0  0  0  0  0  0  0
   -6.5510   16.9030  -32.7200 C   0  0  0  0  0  0  0  0  0  0  0  0
   -5.6120   16.1940  -33.6820 C   0  0  0  0  0  0  0  0  0  0  0  0
   -5.3310   17.2030  -34.7880 C   0  0  0  0  0  0  0  0  0  0  0  0
   -6.1240   18.4450  -34.4100 C   0  0  0  0  0  0  0  0  0  0  0  0
   -5.0830   19.7530  -31.5730 C   0  0  0  0  0  0  0  0  0  0  0  0
   -4.0100   20.5550  -31.1490 C   0  0  0  0  0  0  0  0  0  0  0  0
   -4.2270   21.9310  -31.0280 C   0  0  0  0  0  0  0  0  0  0  0  0
   -1.9990   21.0030  -28.5390 C   0  0  0  0  0  0  0  0  0  0  0  0
   -0.0330   18.4420  -26.8490 H   0  0  0  0  0  0  0  0  0  0  0  0
   -1.2890   17.2060  -26.5350 H   0  0  0  0  0  0  0  0  0  0  0  0
   -1.0528   21.1951  -25.2559 H   0  0  0  0  0  0  0  0  0  0  0  0
   -0.5484   23.5319  -25.9578 H   0  0  0  0  0  0  0  0  0  0  0  0
   -0.9633   24.2570  -28.3056 H   0  0  0  0  0  0  0  0  0  0  0  0
   -1.4161   23.7081  -30.5369 H   0  0  0  0  0  0  0  0  0  0  0  0
   -1.4946   21.9795  -31.0336 H   0  0  0  0  0  0  0  0  0  0  0  0
   -6.1498   24.6006  -31.2240 H   0  0  0  0  0  0  0  0  0  0  0  0
   -7.5083   22.1768  -31.9413 H   0  0  0  0  0  0  0  0  0  0  0  0
   -5.9902   17.2884  -31.8557 H   0  0  0  0  0  0  0  0  0  0  0  0
   -7.3205   16.2172  -32.3360 H   0  0  0  0  0  0  0  0  0  0  0  0
   -4.6791   15.9119  -33.1719 H   0  0  0  0  0  0  0  0  0  0  0  0
   -6.0529   15.2664  -34.0760 H   0  0  0  0  0  0  0  0  0  0  0  0
   -4.2562   17.4321  -34.8364 H   0  0  0  0  0  0  0  0  0  0  0  0
   -5.6194   16.8178  -35.7772 H   0  0  0  0  0  0  0  0  0  0  0  0
   -5.4648   19.1879  -33.9372 H   0  0  0  0  0  0  0  0  0  0  0  0
   -6.5720   18.9171  -35.2968 H   0  0  0  0  0  0  0  0  0  0  0  0
   -4.9438   18.6662  -31.6706 H   0  0  0  0  0  0  0  0  0  0  0  0
   -3.0290   20.1137  -30.9192 H   0  0  0  0  0  0  0  0  0  0  0  0
   -2.3984   20.2873  -29.2727 H   0  0  0  0  0  0  0  0  0  0  0  0
  1  2  1  0
  2  3  2  0
  2  4  1  0
  4  5  2  0
  5  6  1  0
  6  7  2  0
  7  8  1  0
  8  9  1  0
  9 10  1  0
 10 11  1  0
 11 12  1  0
 11 13  2  0
 13 14  1  0
 14 15  2  0
 15 16  1  0
 16 17  1  0
 17 18  2  0
 17 19  2  0
 17 20  1  0
 20 21  1  0
 21 22  1  0
 22 23  1  0
 23 24  1  0
 16 25  2  0
 25 26  1  0
 26 27  2  0
  8 28  2  0
 28  4  1  0
 27 10  1  0
 27 14  1  0
 24 20  1  0
  1 29  1  0
  1 30  1  0
  5 31  1  0
  6 32  1  0
  7 33  1  0
  9 34  1  0
  9 35  1  0
 13 36  1  0
 15 37  1  0
 21 38  1  0
 21 39  1  0
 22 40  1  0
 22 41  1  0
 23 42  1  0
 23 43  1  0
 24 44  1  0
 24 45  1  0
 25 46  1  0
 26 47  1  0
 28 48  1  0
M  CHG  1  12  -1
M  END
>  <UniqueID>  (44) 
41

>  <SMILES>  (44) 
NC(=O)c1cccc(Cn2c([O-])cc3cc(S(=O)(=O)N4CCCC4)ccc32)c1

>  <Energy>  (44) 
86.24729662086365

>  <Genealogy>  (44) 
NC(=O)c1cccc(Cn2c([O-])cc3cc(S(=O)(=O)N4CCCC4)ccc32)c1 (protonated)
NC(=O)c1cccc(Cn2c([O-])cc3cc(S(=O)(=O)N4CCCC4)ccc32)c1 (3D coordinates assigned)
NC(=O)c1cccc(Cn2c([O-])cc3cc(S(=O)(=O)N4CCCC4)ccc32)c1 (nonaromatic ring conformer: 86.24729662086365 kcal/mol)

>  <smiles>  (44) 
NC(=O)c1cccc(Cn2c(O)cc3cc(S(=O)(=O)N4CCCC4)ccc32)c1

>  <score_type>  (44) 
oracle

>  <origin>  (44) 
adgpu

>  <m_score__min__energy>  (44) 
-12.699999999999999

>  <m_primary>  (44) 
energy

$$$$
44:0
     RDKit          3D

 43 45  0  0  0  0  0  0  0  0999 V2000
    0.4340   18.4150  -28.2360 C   0  0  0  0  0  0  0  0  0  0  0  0
   -0.5080   18.9520  -29.1590 O   0  0  0  0  0  0  0  0  0  0  0  0
   -0.9440   20.2860  -29.1630 C   0  0  0  0  0  0  0  0  0  0  0  0
   -0.7250   21.1410  -30.2600 C   0  0  0  0  0  0  0  0  0  0  0  0
   -1.1760   22.4610  -30.2290 C   0  0  0  0  0  0  0  0  0  0  0  0
   -1.8500   22.9490  -29.1040 C   0  0  0  0  0  0  0  0  0  0  0  0
   -2.4560   24.6030  -29.0880 S   0  0  0  0  0  0  0  0  0  0  0  0
   -3.2170   24.8290  -27.8110 O   0  0  0  0  0  0  0  0  0  0  0  0
   -1.3010   25.5640  -29.1270 O   0  0  0  0  0  0  0  0  0  0  0  0
   -3.5070   24.9200  -30.4300 N   0  0  0  0  0  0  0  0  0  0  0  0
   -4.6880   24.1620  -30.6980 C   0  0  0  0  0  0  0  0  0  0  0  0
   -5.9730   24.6870  -30.4110 C   0  0  0  0  0  0  0  0  0  0  0  0
   -7.1310   23.9380  -30.6890 C   0  0  0  0  0  0  0  0  0  0  0  0
   -6.9650   22.6790  -31.2650 C   0  0  0  0  0  0  0  0  0  0  0  0
   -5.7310   22.1850  -31.5750 C   0  0  0  0  0  0  0  0  0  0  0  0
   -4.5650   22.9000  -31.3140 C   0  0  0  0  0  0  0  0  0  0  0  0
   -5.8370   20.9780  -32.1620 N   0  0  0  0  0  0  0  0  0  0  0  0
   -7.1800   20.7700  -32.1910 C   0  0  0  0  0  0  0  0  0  0  0  0
   -7.7910   19.5400  -32.7840 C   0  0  0  0  0  0  0  0  0  0  0  0
   -7.8960   21.7850  -31.6350 N   0  0  0  0  0  0  0  0  0  0  0  0
   -9.3490   21.9360  -31.5760 C   0  0  0  0  0  0  0  0  0  0  0  0
   -2.0740   22.1040  -28.0090 C   0  0  0  0  0  0  0  0  0  0  0  0
   -1.6230   20.7700  -28.0320 C   0  0  0  0  0  0  0  0  0  0  0  0
   -1.8310   19.8940  -26.9550 O   0  0  0  0  0  0  0  0  0  0  0  0
   -3.0500   19.2040  -26.7000 C   0  0  0  0  0  0  0  0  0  0  0  0
    0.0926   18.6096  -27.2086 H   0  0  0  0  0  0  0  0  0  0  0  0
    0.5238   17.3300  -28.3932 H   0  0  0  0  0  0  0  0  0  0  0  0
    1.4134   18.8905  -28.3932 H   0  0  0  0  0  0  0  0  0  0  0  0
   -0.1947   20.7657  -31.1476 H   0  0  0  0  0  0  0  0  0  0  0  0
   -1.0011   23.1203  -31.0919 H   0  0  0  0  0  0  0  0  0  0  0  0
   -6.0656   25.6891  -29.9669 H   0  0  0  0  0  0  0  0  0  0  0  0
   -8.1323   24.3317  -30.4600 H   0  0  0  0  0  0  0  0  0  0  0  0
   -3.5785   22.4927  -31.5802 H   0  0  0  0  0  0  0  0  0  0  0  0
   -8.1237   18.8703  -31.9772 H   0  0  0  0  0  0  0  0  0  0  0  0
   -8.6537   19.8222  -33.4054 H   0  0  0  0  0  0  0  0  0  0  0  0
   -7.0449   19.0230  -33.4054 H   0  0  0  0  0  0  0  0  0  0  0  0
   -9.6718   21.9695  -30.5250 H   0  0  0  0  0  0  0  0  0  0  0  0
   -9.6414   22.8694  -32.0793 H   0  0  0  0  0  0  0  0  0  0  0  0
   -9.8271   21.0827  -32.0793 H   0  0  0  0  0  0  0  0  0  0  0  0
   -2.6060   22.4853  -27.1249 H   0  0  0  0  0  0  0  0  0  0  0  0
   -3.2023   19.1178  -25.6140 H   0  0  0  0  0  0  0  0  0  0  0  0
   -3.8872   19.7622  -27.1445 H   0  0  0  0  0  0  0  0  0  0  0  0
   -3.0023   18.1989  -27.1445 H   0  0  0  0  0  0  0  0  0  0  0  0
  1  2  1  0
  2  3  1  0
  3  4  2  0
  4  5  1  0
  5  6  2  0
  6  7  1  0
  7  8  2  0
  7  9  2  0
  7 10  1  0
 10 11  1  0
 11 12  2  0
 12 13  1  0
 13 14  2  0
 14 15  1  0
 15 16  2  0
 15 17  1  0
 17 18  2  0
 18 19  1  0
 18 20  1  0
 20 21  1  0
  6 22  1  0
 22 23  2  0
 23 24  1  0
 24 25  1  0
 23  3  1  0
 16 11  1  0
 20 14  1  0
  1 26  1  0
  1 27  1  0
  1 28  1  0
  4 29  1  0
  5 30  1  0
 12 31  1  0
 13 32  1  0
 16 33  1  0
 19 34  1  0
 19 35  1  0
 19 36  1  0
 21 37  1  0
 21 38  1  0
 21 39  1  0
 22 40  1  0
 25 41  1  0
 25 42  1  0
 25 43  1  0
M  CHG  1  10  -1
M  END
>  <UniqueID>  (45) 
42

>  <SMILES>  (45) 
COc1ccc(S(=O)(=O)[N-]c2ccc3c(c2)nc(C)n3C)cc1OC

>  <Energy>  (45) 
88.45224341307274

>  <Genealogy>  (45) 
COc1ccc(S(=O)(=O)[N-]c2ccc3c(c2)nc(C)n3C)cc1OC (protonated)
COc1ccc(S(=O)(=O)[N-]c2ccc3c(c2)nc(C)n3C)cc1OC (3D coordinates assigned)
COc1ccc(S(=O)(=O)[N-]c2ccc3c(c2)nc(C)n3C)cc1OC (optimized conformer: 88.45224341307274 kcal/mol)

>  <smiles>  (45) 
COc1ccc(S(=O)(=O)Nc2ccc3c(c2)nc(C)n3C)cc1OC

>  <score_type>  (45) 
oracle

>  <origin>  (45) 
adgpu

>  <m_score__min__energy>  (45) 
-9.3399999999999999

>  <m_primary>  (45) 
energy

$$$$
45:0
     RDKit          3D

 42 44  0  0  1  0  0  0  0  0999 V2000
   -6.0880   26.0810  -29.9070 N   0  0  0  0  0  0  0  0  0  0  0  0
   -5.2600   25.0780  -29.8210 C   0  0  0  0  0  0  0  0  0  0  0  0
   -4.7820   24.7520  -28.6060 N   0  0  0  0  0  0  0  0  0  0  0  0
   -3.9120   23.7180  -28.4320 C   0  0  0  0  0  0  0  0  0  0  0  0
   -3.5210   23.4910  -27.2450 N   0  0  0  0  0  0  0  0  0  0  0  0
   -3.5500   23.0280  -29.5590 C   0  0  0  0  0  0  0  0  0  0  0  0
   -2.6740   21.9740  -29.4420 C   0  0  0  0  0  0  0  0  0  0  0  0
   -2.3350   21.3060  -30.5950 C   0  0  0  0  0  0  0  0  0  0  0  0
   -2.8220   21.6400  -31.8410 C   0  0  0  0  0  0  0  0  0  0  0  0
   -2.3220   20.7110  -33.2830 S   0  0  0  0  0  0  0  0  0  0  0  0
   -3.4950   19.4620  -33.7050 C   0  0  0  0  0  0  0  0  0  0  0  0
   -3.0410   18.3510  -34.3980 C   0  0  0  0  0  0  0  0  0  0  0  0
   -3.9900   17.3990  -34.7090 C   0  0  0  0  0  0  0  0  0  0  0  0
   -5.3290   17.5700  -34.3320 C   0  0  0  0  0  0  0  0  0  0  0  0
   -5.7620   18.6760  -33.6450 C   0  0  0  0  0  0  0  0  0  0  0  0
   -7.0870   18.9220  -33.2320 N   0  0  0  0  0  0  0  0  0  0  0  0
   -7.6930   18.4410  -32.0510 C   0  0  0  0  0  0  0  0  0  0  0  0
   -7.1060   17.7200  -31.2130 O   0  0  0  0  0  0  0  0  0  0  0  0
   -9.1170   18.7870  -31.7450 C   0  0  0  0  0  0  0  0  0  0  0  0
   -9.4850   20.1270  -32.3460 C   0  0  0  0  0  0  0  0  0  0  0  0
   -8.3780   21.0350  -32.3860 N   0  0  0  0  0  0  0  0  0  0  0  0
   -7.9920   21.7200  -31.3860 C   0  0  0  0  0  0  0  0  0  0  0  0
   -7.4980   22.6010  -30.1210 S   0  0  0  0  0  0  0  0  0  0  0  0
   -4.8090   19.6270  -33.3370 C   0  0  0  0  0  0  0  0  0  0  0  0
   -3.6780   22.6760  -31.9180 N   0  0  0  0  0  0  0  0  0  0  0  0
   -4.0510   23.3740  -30.8130 C   0  0  0  0  0  0  0  0  0  0  0  0
   -4.9190   24.4160  -30.9440 N   0  0  0  0  0  0  0  0  0  0  0  0
   -6.3550   26.5970  -29.0400 H   0  0  0  0  0  0  0  0  0  0  0  0
   -5.0920   25.3140  -27.7710 H   0  0  0  0  0  0  0  0  0  0  0  0
   -2.8690   22.7360  -27.0190 H   0  0  0  0  0  0  0  0  0  0  0  0
   -2.2616   21.6777  -28.4662 H   0  0  0  0  0  0  0  0  0  0  0  0
   -1.6373   20.4590  -30.5193 H   0  0  0  0  0  0  0  0  0  0  0  0
   -1.9851   18.2349  -34.6836 H   0  0  0  0  0  0  0  0  0  0  0  0
   -3.6920   16.4946  -35.2597 H   0  0  0  0  0  0  0  0  0  0  0  0
   -6.0584   16.7901  -34.5961 H   0  0  0  0  0  0  0  0  0  0  0  0
   -7.7120   19.5230  -33.8480 H   0  0  0  0  0  0  0  0  0  0  0  0
   -9.7748   18.0110  -32.1636 H   0  0  0  0  0  0  0  0  0  0  0  0
   -9.2395   18.8443  -30.6533 H   0  0  0  0  0  0  0  0  0  0  0  0
   -9.8457   19.9656  -33.3726 H   0  0  0  0  0  0  0  0  0  0  0  0
  -10.2615   20.5760  -31.7092 H   0  0  0  0  0  0  0  0  0  0  0  0
   -5.1068   20.5323  -32.7876 H   0  0  0  0  0  0  0  0  0  0  0  0
   -5.3100   24.6960  -31.8790 H   0  0  0  0  0  0  0  0  0  0  0  0
  1  2  2  3
  2  3  1  0
  3  4  1  0
  4  5  2  3
  4  6  1  0
  6  7  2  0
  7  8  1  0
  8  9  2  0
  9 10  1  0
 10 11  1  0
 11 12  2  0
 12 13  1  0
 13 14  2  0
 14 15  1  0
 15 16  1  0
 16 17  1  0
 17 18  2  0
 17 19  1  0
 19 20  1  0
 20 21  1  0
 21 22  2  0
 22 23  2  0
 15 24  2  0
  9 25  1  0
 25 26  2  0
 26 27  1  0
 27  2  1  0
 26  6  1  0
 24 11  1  0
  1 28  1  0
  3 29  1  0
  5 30  1  0
  7 31  1  0
  8 32  1  0
 12 33  1  0
 13 34  1  0
 14 35  1  0
 16 36  1  0
 19 37  1  0
 19 38  1  0
 20 39  1  0
 20 40  1  0
 24 41  1  0
 27 42  1  0
M  END
>  <smiles>  (46) 
N=c1[nH]c(=N)c2ccc(Sc3cccc(NC(=O)CCN=C=S)c3)nc2[nH]1

>  <score_type>  (46) 
oracle

>  <origin>  (46) 
adgpu

>  <m_score__min__energy>  (46) 
-9.5

>  <m_primary>  (46) 
energy

$$$$
46:0
     RDKit          3D

 51 54  0  0  0  0  0  0  0  0999 V2000
   -8.7220   18.4340  -31.9340 C   0  0  0  0  0  0  0  0  0  0  0  0
   -9.0800   19.7280  -32.6570 C   0  0  0  0  0  0  0  0  0  0  0  0
   -8.1500   20.8410  -32.2510 C   0  0  0  0  0  0  0  0  0  0  0  0
   -8.6600   22.0130  -31.6810 C   0  0  0  0  0  0  0  0  0  0  0  0
   -7.7960   23.0350  -31.2800 C   0  0  0  0  0  0  0  0  0  0  0  0
   -6.4050   22.9050  -31.4320 C   0  0  0  0  0  0  0  0  0  0  0  0
   -5.5450   24.0580  -31.0630 C   0  0  0  0  0  0  0  0  0  0  0  0
   -4.2020   24.0780  -31.1470 N   0  0  0  0  0  0  0  0  0  0  0  0
   -3.8550   25.2970  -30.7680 N   0  0  0  0  0  0  0  0  0  0  0  0
   -4.9380   25.9980  -30.4740 N   0  0  0  0  0  0  0  0  0  0  0  0
   -6.0150   25.2520  -30.6540 N   0  0  0  0  0  0  0  0  0  0  0  0
   -5.8820   21.6980  -31.9680 C   0  0  0  0  0  0  0  0  0  0  0  0
   -4.4290   21.4310  -32.0540 C   0  0  0  0  0  0  0  0  0  0  0  0
   -3.7030   21.0850  -30.9040 C   0  0  0  0  0  0  0  0  0  0  0  0
   -2.3350   20.8140  -30.9890 C   0  0  0  0  0  0  0  0  0  0  0  0
   -1.6760   20.8760  -32.2270 C   0  0  0  0  0  0  0  0  0  0  0  0
   -0.2090   20.5610  -32.3320 C   0  0  0  0  0  0  0  0  0  0  0  0
    0.2440   20.7090  -33.7150 N   0  0  0  0  0  0  0  0  0  0  0  0
    0.6500   21.8650  -34.2190 N   0  0  0  0  0  0  0  0  0  0  0  0
    0.9180   21.6710  -35.5250 C   0  0  0  0  0  0  0  0  0  0  0  0
    1.3730   22.7540  -36.4470 C   0  0  0  0  0  0  0  0  0  0  0  0
    0.6580   20.3520  -35.8640 C   0  0  0  0  0  0  0  0  0  0  0  0
    0.7490   19.7130  -37.2150 C   0  0  0  0  0  0  0  0  0  0  0  0
    0.2370   19.7650  -34.6840 C   0  0  0  0  0  0  0  0  0  0  0  0
   -0.2740   18.3640  -34.5250 C   0  0  0  0  0  0  0  0  0  0  0  0
   -2.4060   21.2070  -33.3790 C   0  0  0  0  0  0  0  0  0  0  0  0
   -3.7750   21.4790  -33.2940 C   0  0  0  0  0  0  0  0  0  0  0  0
   -6.7640   20.6840  -32.3790 C   0  0  0  0  0  0  0  0  0  0  0  0
   -8.7670   18.5968  -30.8470 H   0  0  0  0  0  0  0  0  0  0  0  0
   -9.4360   17.6464  -32.2167 H   0  0  0  0  0  0  0  0  0  0  0  0
   -7.7047   18.1254  -32.2167 H   0  0  0  0  0  0  0  0  0  0  0  0
   -9.0001   19.5689  -33.7425 H   0  0  0  0  0  0  0  0  0  0  0  0
  -10.1081   20.0107  -32.3867 H   0  0  0  0  0  0  0  0  0  0  0  0
   -9.7457   22.1300  -31.5482 H   0  0  0  0  0  0  0  0  0  0  0  0
   -8.2101   23.9539  -30.8393 H   0  0  0  0  0  0  0  0  0  0  0  0
   -4.2133   21.0269  -29.9312 H   0  0  0  0  0  0  0  0  0  0  0  0
   -1.7717   20.5508  -30.0816 H   0  0  0  0  0  0  0  0  0  0  0  0
    0.3572   21.2507  -31.6888 H   0  0  0  0  0  0  0  0  0  0  0  0
   -0.0419   19.5226  -32.0098 H   0  0  0  0  0  0  0  0  0  0  0  0
    1.7327   23.6102  -35.8576 H   0  0  0  0  0  0  0  0  0  0  0  0
    2.1887   22.3769  -37.0813 H   0  0  0  0  0  0  0  0  0  0  0  0
    0.5327   23.0726  -37.0813 H   0  0  0  0  0  0  0  0  0  0  0  0
    0.9032   18.6301  -37.0988 H   0  0  0  0  0  0  0  0  0  0  0  0
   -0.1839   19.8931  -37.7694 H   0  0  0  0  0  0  0  0  0  0  0  0
    1.5945   20.1464  -37.7694 H   0  0  0  0  0  0  0  0  0  0  0  0
   -0.3613   18.1248  -33.4549 H   0  0  0  0  0  0  0  0  0  0  0  0
   -1.2615   18.2776  -35.0018 H   0  0  0  0  0  0  0  0  0  0  0  0
    0.4260   17.6621  -35.0018 H   0  0  0  0  0  0  0  0  0  0  0  0
   -1.8986   21.2527  -34.3539 H   0  0  0  0  0  0  0  0  0  0  0  0
   -4.3411   21.7315  -34.2027 H   0  0  0  0  0  0  0  0  0  0  0  0
   -6.3605   19.7545  -32.8070 H   0  0  0  0  0  0  0  0  0  0  0  0
  1  2  1  0
  2  3  1  0
  3  4  2  0
  4  5  1  0
  5  6  2  0
  6  7  1  0
  7  8  1  0
  8  9  2  0
  9 10  1  0
 10 11  1  0
  6 12  1  0
 12 13  1  0
 13 14  2  0
 14 15  1  0
 15 16  2  0
 16 17  1  0
 17 18  1  0
 18 19  1  0
 19 20  2  0
 20 21  1  0
 20 22  1  0
 22 23  1  0
 22 24  2  0
 24 25  1  0
 16 26  1  0
 26 27  2  0
 12 28  2  0
 28  3  1  0
 11  7  2  0
 27 13  1  0
 24 18  1  0
  1 29  1  0
  1 30  1  0
  1 31  1  0
  2 32  1  0
  2 33  1  0
  4 34  1  0
  5 35  1  0
 14 36  1  0
 15 37  1  0
 17 38  1  0
 17 39  1  0
 21 40  1  0
 21 41  1  0
 21 42  1  0
 23 43  1  0
 23 44  1  0
 23 45  1  0
 25 46  1  0
 25 47  1  0
 25 48  1  0
 26 49  1  0
 27 50  1  0
 28 51  1  0
M  CHG  1  10  -1
M  END
>  <UniqueID>  (47) 
43

>  <SMILES>  (47) 
CCc1ccc(-c2nn[n-]n2)c(-c2ccc(Cn3nc(C)c(C)c3C)cc2)c1

>  <Energy>  (47) 
125.68883052855382

>  <Genealogy>  (47) 
CCc1ccc(-c2nn[n-]n2)c(-c2ccc(Cn3nc(C)c(C)c3C)cc2)c1 (protonated)
CCc1ccc(-c2nn[n-]n2)c(-c2ccc(Cn3nc(C)c(C)c3C)cc2)c1 (3D coordinates assigned)
CCc1ccc(-c2nn[n-]n2)c(-c2ccc(Cn3nc(C)c(C)c3C)cc2)c1 (optimized conformer: 125.68883052855382 kcal/mol)

>  <smiles>  (47) 
CCc1ccc(-c2nn[nH]n2)c(-c2ccc(Cn3nc(C)c(C)c3C)cc2)c1

>  <score_type>  (47) 
oracle

>  <origin>  (47) 
adgpu

>  <m_score__min__energy>  (47) 
-11.75

>  <m_primary>  (47) 
energy

$$$$
47:0
     RDKit          3D

 38 40  0  0  0  0  0  0  0  0999 V2000
   -8.7400   19.8470  -32.8990 O   0  0  0  0  0  0  0  0  0  0  0  0
   -7.5350   20.1400  -33.0390 N   0  0  0  0  0  0  0  0  0  0  0  0
   -6.7450   19.3390  -33.8340 O   0  0  0  0  0  0  0  0  0  0  0  0
   -6.9930   21.3310  -32.4390 C   0  0  0  0  0  0  0  0  0  0  0  0
   -7.8380   22.2430  -31.7810 C   0  0  0  0  0  0  0  0  0  0  0  0
   -7.3120   23.3980  -31.1950 C   0  0  0  0  0  0  0  0  0  0  0  0
   -5.9360   23.6570  -31.2530 C   0  0  0  0  0  0  0  0  0  0  0  0
   -5.2630   25.0800  -30.4620 S   0  0  0  0  0  0  0  0  0  0  0  0
   -5.7370   26.3110  -31.1840 O   0  0  0  0  0  0  0  0  0  0  0  0
   -5.7100   25.1500  -29.0270 O   0  0  0  0  0  0  0  0  0  0  0  0
   -3.5310   25.0190  -30.5150 N   0  0  0  0  0  0  0  0  0  0  0  0
   -2.7080   24.1610  -29.7080 C   0  0  0  0  0  0  0  0  0  0  0  0
   -3.0250   22.8080  -29.4990 C   0  0  0  0  0  0  0  0  0  0  0  0
   -2.2050   22.0020  -28.6970 C   0  0  0  0  0  0  0  0  0  0  0  0
   -1.0320   22.5350  -28.1300 C   0  0  0  0  0  0  0  0  0  0  0  0
   -0.7150   23.8820  -28.3470 C   0  0  0  0  0  0  0  0  0  0  0  0
   -1.5550   24.6940  -29.1150 C   0  0  0  0  0  0  0  0  0  0  0  0
   -1.2360   26.0350  -29.2920 O   0  0  0  0  0  0  0  0  0  0  0  0
   -0.0780   21.6540  -27.3510 C   0  0  0  0  0  0  0  0  0  0  0  0
   -0.7210   20.3890  -26.7180 C   0  0  0  0  0  0  0  0  0  0  0  0
   -2.2280   20.2340  -26.9790 C   0  0  0  0  0  0  0  0  0  0  0  0
   -2.5660   20.5670  -28.4310 C   0  0  0  0  0  0  0  0  0  0  0  0
   -5.0920   22.7610  -31.9160 C   0  0  0  0  0  0  0  0  0  0  0  0
   -5.6140   21.6050  -32.5040 C   0  0  0  0  0  0  0  0  0  0  0  0
   -8.9189   22.0462  -31.7273 H   0  0  0  0  0  0  0  0  0  0  0  0
   -7.9814   24.1070  -30.6859 H   0  0  0  0  0  0  0  0  0  0  0  0
   -3.9226   22.3785  -29.9679 H   0  0  0  0  0  0  0  0  0  0  0  0
    0.2019   24.3042  -27.9098 H   0  0  0  0  0  0  0  0  0  0  0  0
    0.7190   21.3260  -28.0346 H   0  0  0  0  0  0  0  0  0  0  0  0
    0.2894   22.2644  -26.5129 H   0  0  0  0  0  0  0  0  0  0  0  0
   -0.2100   19.5045  -27.1261 H   0  0  0  0  0  0  0  0  0  0  0  0
   -0.6039   20.4933  -25.6292 H   0  0  0  0  0  0  0  0  0  0  0  0
   -2.5252   19.1960  -26.7688 H   0  0  0  0  0  0  0  0  0  0  0  0
   -2.7720   20.9293  -26.3228 H   0  0  0  0  0  0  0  0  0  0  0  0
   -1.9934   19.9112  -29.1034 H   0  0  0  0  0  0  0  0  0  0  0  0
   -3.6406   20.4134  -28.6087 H   0  0  0  0  0  0  0  0  0  0  0  0
   -4.0130   22.9664  -31.9752 H   0  0  0  0  0  0  0  0  0  0  0  0
   -4.9420   20.9044  -33.0213 H   0  0  0  0  0  0  0  0  0  0  0  0
  1  2  2  0
  2  3  1  0
  2  4  1  0
  4  5  2  0
  5  6  1  0
  6  7  2  0
  7  8  1  0
  8  9  2  0
  8 10  2  0
  8 11  1  0
 11 12  1  0
 12 13  2  0
 13 14  1  0
 14 15  2  0
 15 16  1  0
 16 17  2  0
 17 18  1  0
 15 19  1  0
 19 20  1  0
 20 21  1  0
 21 22  1  0
  7 23  1  0
 23 24  2  0
 24  4  1  0
 17 12  1  0
 22 14  1  0
  5 25  1  0
  6 26  1  0
 13 27  1  0
 16 28  1  0
 19 29  1  0
 19 30  1  0
 20 31  1  0
 20 32  1  0
 21 33  1  0
 21 34  1  0
 22 35  1  0
 22 36  1  0
 23 37  1  0
 24 38  1  0
M  CHG  4   2   1   3  -1  11  -1  18  -1
M  END
>  <UniqueID>  (48) 
44

>  <SMILES>  (48) 
O=[N+]([O-])c1ccc(S(=O)(=O)[N-]c2cc3c(cc2[O-])CCCC3)cc1

>  <Energy>  (48) 
47.99771799576849

>  <Genealogy>  (48) 
O=[N+]([O-])c1ccc(S(=O)(=O)[N-]c2cc3c(cc2[O-])CCCC3)cc1 (protonated)
O=[N+]([O-])c1ccc(S(=O)(=O)[N-]c2cc3c(cc2[O-])CCCC3)cc1 (3D coordinates assigned)
O=[N+]([O-])c1ccc(S(=O)(=O)[N-]c2cc3c(cc2[O-])CCCC3)cc1 (nonaromatic ring conformer: 47.99771799576849 kcal/mol)

>  <smiles>  (48) 
O=[N+]([O-])c1ccc(S(=O)(=O)Nc2cc3c(cc2O)CCCC3)cc1

>  <score_type>  (48) 
oracle

>  <origin>  (48) 
adgpu

>  <m_score__min__energy>  (48) 
-13.27

>  <m_primary>  (48) 
energy

$$$$
48:0
     RDKit          3D

 55 59  0  0  0  0  0  0  0  0999 V2000
   -0.9600   26.8310  -24.7880 C   0  0  0  0  0  0  0  0  0  0  0  0
   -1.4470   25.5130  -25.0230 O   0  0  0  0  0  0  0  0  0  0  0  0
   -2.0690   25.0990  -26.2100 C   0  0  0  0  0  0  0  0  0  0  0  0
   -3.4630   24.9790  -26.2240 C   0  0  0  0  0  0  0  0  0  0  0  0
   -4.1310   24.5780  -27.3860 C   0  0  0  0  0  0  0  0  0  0  0  0
   -3.4120   24.2810  -28.5560 C   0  0  0  0  0  0  0  0  0  0  0  0
   -4.1030   23.8950  -29.7620 N   0  0  0  0  0  0  0  0  0  0  0  0
   -5.5700   23.8260  -29.8000 C   0  0  0  0  0  0  0  0  0  0  0  0
   -6.0030   22.4150  -30.2020 C   0  0  0  0  0  0  0  0  0  0  0  0
   -5.2250   21.9370  -31.3520 N   0  0  0  0  0  0  0  0  0  0  0  0
   -5.4230   20.5950  -31.8170 C   0  0  0  0  0  0  0  0  0  0  0  0
   -4.3420   19.8250  -32.0870 N   0  0  0  0  0  0  0  0  0  0  0  0
   -4.4590   18.5610  -32.4920 N   0  0  0  0  0  0  0  0  0  0  0  0
   -5.6660   17.9630  -32.6590 C   0  0  0  0  0  0  0  0  0  0  0  0
   -5.6840   16.5380  -33.0490 C   0  0  0  0  0  0  0  0  0  0  0  0
   -6.5420   16.0850  -34.0660 C   0  0  0  0  0  0  0  0  0  0  0  0
   -6.5710   14.7300  -34.4140 C   0  0  0  0  0  0  0  0  0  0  0  0
   -5.7560   13.8140  -33.7360 C   0  0  0  0  0  0  0  0  0  0  0  0
   -5.7730   12.4630  -34.0750 O   0  0  0  0  0  0  0  0  0  0  0  0
   -4.9170   14.2570  -32.7050 C   0  0  0  0  0  0  0  0  0  0  0  0
   -4.8860   15.6110  -32.3570 C   0  0  0  0  0  0  0  0  0  0  0  0
   -6.8400   18.7180  -32.4360 C   0  0  0  0  0  0  0  0  0  0  0  0
   -8.1280   18.1940  -32.6680 C   0  0  0  0  0  0  0  0  0  0  0  0
   -9.2610   18.9770  -32.4400 C   0  0  0  0  0  0  0  0  0  0  0  0
   -9.1300   20.2910  -31.9950 C   0  0  0  0  0  0  0  0  0  0  0  0
   -7.8640   20.8370  -31.7800 C   0  0  0  0  0  0  0  0  0  0  0  0
   -6.7110   20.0620  -32.0000 C   0  0  0  0  0  0  0  0  0  0  0  0
   -4.2190   22.7900  -31.9920 C   0  0  0  0  0  0  0  0  0  0  0  0
   -3.3260   23.4410  -30.9270 C   0  0  0  0  0  0  0  0  0  0  0  0
   -2.0130   24.4060  -28.5430 C   0  0  0  0  0  0  0  0  0  0  0  0
   -1.3450   24.8070  -27.3810 C   0  0  0  0  0  0  0  0  0  0  0  0
   -0.8940   27.0098  -23.7046 H   0  0  0  0  0  0  0  0  0  0  0  0
    0.0375   26.9392  -25.2390 H   0  0  0  0  0  0  0  0  0  0  0  0
   -1.6475   27.5618  -25.2390 H   0  0  0  0  0  0  0  0  0  0  0  0
   -4.0386   25.2019  -25.3135 H   0  0  0  0  0  0  0  0  0  0  0  0
   -5.2278   24.4946  -27.3836 H   0  0  0  0  0  0  0  0  0  0  0  0
   -5.9743   24.0643  -28.8052 H   0  0  0  0  0  0  0  0  0  0  0  0
   -5.9526   24.5504  -30.5340 H   0  0  0  0  0  0  0  0  0  0  0  0
   -5.8458   21.7341  -29.3525 H   0  0  0  0  0  0  0  0  0  0  0  0
   -7.0664   22.4396  -30.4823 H   0  0  0  0  0  0  0  0  0  0  0  0
   -7.1937   16.7990  -34.5908 H   0  0  0  0  0  0  0  0  0  0  0  0
   -7.2341   14.3837  -35.2204 H   0  0  0  0  0  0  0  0  0  0  0  0
   -5.6650   12.1570  -35.0350 H   0  0  0  0  0  0  0  0  0  0  0  0
   -4.2811   13.5378  -32.1680 H   0  0  0  0  0  0  0  0  0  0  0  0
   -4.2347   15.9517  -31.5387 H   0  0  0  0  0  0  0  0  0  0  0  0
   -8.2409   17.1618  -33.0309 H   0  0  0  0  0  0  0  0  0  0  0  0
  -10.2620   18.5547  -32.6124 H   0  0  0  0  0  0  0  0  0  0  0  0
  -10.0277   20.9000  -31.8126 H   0  0  0  0  0  0  0  0  0  0  0  0
   -7.7673   21.8777  -31.4371 H   0  0  0  0  0  0  0  0  0  0  0  0
   -3.5980   22.1792  -32.6638 H   0  0  0  0  0  0  0  0  0  0  0  0
   -4.7277   23.5781  -32.5666 H   0  0  0  0  0  0  0  0  0  0  0  0
   -2.5790   22.7064  -30.5919 H   0  0  0  0  0  0  0  0  0  0  0  0
   -2.8429   24.3202  -31.3782 H   0  0  0  0  0  0  0  0  0  0  0  0
   -1.4376   24.1867  -29.4545 H   0  0  0  0  0  0  0  0  0  0  0  0
   -0.2485   24.8945  -27.3826 H   0  0  0  0  0  0  0  0  0  0  0  0
  1  2  1  0
  2  3  1  0
  3  4  2  0
  4  5  1  0
  5  6  2  0
  6  7  1  0
  7  8  1  0
  8  9  1  0
  9 10  1  0
 10 11  1  0
 11 12  2  0
 12 13  1  0
 13 14  2  0
 14 15  1  0
 15 16  2  0
 16 17  1  0
 17 18  2  0
 18 19  1  0
 18 20  1  0
 20 21  2  0
 14 22  1  0
 22 23  2  0
 23 24  1  0
 24 25  2  0
 25 26  1  0
 26 27  2  0
 10 28  1  0
 28 29  1  0
  6 30  1  0
 30 31  2  0
 31  3  1  0
 29  7  1  0
 27 11  1  0
 21 15  1  0
 27 22  1  0
  1 32  1  0
  1 33  1  0
  1 34  1  0
  4 35  1  0
  5 36  1  0
  8 37  1  0
  8 38  1  0
  9 39  1  0
  9 40  1  0
 16 41  1  0
 17 42  1  0
 19 43  1  0
 20 44  1  0
 21 45  1  0
 23 46  1  0
 24 47  1  0
 25 48  1  0
 26 49  1  0
 28 50  1  0
 28 51  1  0
 29 52  1  0
 29 53  1  0
 30 54  1  0
 31 55  1  0
M  END
>  <UniqueID>  (49) 
45

>  <SMILES>  (49) 
COc1ccc(N2CCN(c3nnc(-c4ccc(O)cc4)c4ccccc34)CC2)cc1

>  <Energy>  (49) 
83.689857078203

>  <Genealogy>  (49) 
COc1ccc(N2CCN(c3nnc(-c4ccc(O)cc4)c4ccccc34)CC2)cc1 (3D coordinates assigned)
COc1ccc(N2CCN(c3nnc(-c4ccc(O)cc4)c4ccccc34)CC2)cc1 (nonaromatic ring conformer: 83.689857078203 kcal/mol)

>  <smiles>  (49) 
COc1ccc(N2CCN(c3nnc(-c4ccc(O)cc4)c4ccccc34)CC2)cc1

>  <score_type>  (49) 
oracle

>  <origin>  (49) 
adgpu

>  <m_score__min__energy>  (49) 
-9.3599999999999994

>  <m_primary>  (49) 
energy

$$$$
49:0
     RDKit          3D

 47 49  0  0  0  0  0  0  0  0999 V2000
   -2.2430   22.9250  -30.4820 O   0  0  0  0  0  0  0  0  0  0  0  0
   -2.8840   23.7620  -29.7890 C   0  0  0  0  0  0  0  0  0  0  0  0
   -2.9540   23.5960  -28.3030 C   0  0  0  0  0  0  0  0  0  0  0  0
   -1.6440   24.0070  -27.6750 C   0  0  0  0  0  0  0  0  0  0  0  0
   -1.0500   23.1910  -26.6970 C   0  0  0  0  0  0  0  0  0  0  0  0
    0.1390   23.5840  -26.0730 C   0  0  0  0  0  0  0  0  0  0  0  0
    0.7420   24.7960  -26.4190 C   0  0  0  0  0  0  0  0  0  0  0  0
    0.1600   25.6180  -27.3880 C   0  0  0  0  0  0  0  0  0  0  0  0
   -1.0320   25.2320  -28.0150 C   0  0  0  0  0  0  0  0  0  0  0  0
   -1.6020   26.0710  -28.9660 O   0  0  0  0  0  0  0  0  0  0  0  0
   -3.5860   24.8390  -30.4160 N   0  0  0  0  0  0  0  0  0  0  0  0
   -5.3080   24.9910  -30.3450 S   0  0  0  0  0  0  0  0  0  0  0  0
   -5.7190   25.2940  -28.9330 O   0  0  0  0  0  0  0  0  0  0  0  0
   -5.7430   26.1250  -31.2300 O   0  0  0  0  0  0  0  0  0  0  0  0
   -6.0630   23.5030  -30.9110 C   0  0  0  0  0  0  0  0  0  0  0  0
   -5.5410   22.8440  -32.0320 C   0  0  0  0  0  0  0  0  0  0  0  0
   -6.1180   21.6530  -32.4790 C   0  0  0  0  0  0  0  0  0  0  0  0
   -7.2320   21.1140  -31.8150 C   0  0  0  0  0  0  0  0  0  0  0  0
   -7.9740   19.6170  -32.3890 S   0  0  0  0  0  0  0  0  0  0  0  0
   -8.3220   18.7580  -31.2040 O   0  0  0  0  0  0  0  0  0  0  0  0
   -9.2500   19.9480  -33.1140 O   0  0  0  0  0  0  0  0  0  0  0  0
   -6.9270   18.7180  -33.4620 N   0  0  0  0  0  0  0  0  0  0  0  0
   -5.5120   18.8660  -33.1160 C   0  0  0  0  0  0  0  0  0  0  0  0
   -4.8070   17.6250  -33.6460 C   0  0  0  0  0  0  0  0  0  0  0  0
   -5.9000   16.5780  -33.8120 C   0  0  0  0  0  0  0  0  0  0  0  0
   -7.1980   17.2780  -33.4320 C   0  0  0  0  0  0  0  0  0  0  0  0
   -7.7440   21.7690  -30.6860 C   0  0  0  0  0  0  0  0  0  0  0  0
   -7.1650   22.9590  -30.2380 C   0  0  0  0  0  0  0  0  0  0  0  0
   -3.7627   24.2258  -27.9038 H   0  0  0  0  0  0  0  0  0  0  0  0
   -3.1520   22.5401  -28.0667 H   0  0  0  0  0  0  0  0  0  0  0  0
   -1.5229   22.2372  -26.4203 H   0  0  0  0  0  0  0  0  0  0  0  0
    0.5991   22.9388  -25.3100 H   0  0  0  0  0  0  0  0  0  0  0  0
    1.6768   25.1039  -25.9277 H   0  0  0  0  0  0  0  0  0  0  0  0
    0.6390   26.5704  -27.6591 H   0  0  0  0  0  0  0  0  0  0  0  0
   -4.6741   23.2659  -32.5617 H   0  0  0  0  0  0  0  0  0  0  0  0
   -5.6983   21.1354  -33.3542 H   0  0  0  0  0  0  0  0  0  0  0  0
   -7.0770   19.0730  -34.4370 H   0  0  0  0  0  0  0  0  0  0  0  0
   -5.0977   19.7693  -33.5875 H   0  0  0  0  0  0  0  0  0  0  0  0
   -5.3761   18.9679  -32.0292 H   0  0  0  0  0  0  0  0  0  0  0  0
   -4.3282   17.8380  -34.6132 H   0  0  0  0  0  0  0  0  0  0  0  0
   -4.0137   17.2833  -32.9649 H   0  0  0  0  0  0  0  0  0  0  0  0
   -5.9426   16.2292  -34.8544 H   0  0  0  0  0  0  0  0  0  0  0  0
   -5.7154   15.6936  -33.1845 H   0  0  0  0  0  0  0  0  0  0  0  0
   -7.9892   17.0265  -34.1536 H   0  0  0  0  0  0  0  0  0  0  0  0
   -7.5401   16.9614  -32.4356 H   0  0  0  0  0  0  0  0  0  0  0  0
   -8.6057   21.3439  -30.1504 H   0  0  0  0  0  0  0  0  0  0  0  0
   -7.5754   23.4702  -29.3546 H   0  0  0  0  0  0  0  0  0  0  0  0
  1  2  2  0
  2  3  1  0
  3  4  1  0
  4  5  2  0
  5  6  1  0
  6  7  2  0
  7  8  1  0
  8  9  2  0
  9 10  1  0
  2 11  1  0
 11 12  1  0
 12 13  2  0
 12 14  2  0
 12 15  1  0
 15 16  2  0
 16 17  1  0
 17 18  2  0
 18 19  1  0
 19 20  2  0
 19 21  2  0
 19 22  1  0
 22 23  1  0
 23 24  1  0
 24 25  1  0
 25 26  1  0
 18 27  1  0
 27 28  2  0
  9  4  1  0
 28 15  1  0
 26 22  1  0
  3 29  1  0
  3 30  1  0
  5 31  1  0
  6 32  1  0
  7 33  1  0
  8 34  1  0
 16 35  1  0
 17 36  1  0
 22 37  1  0
 23 38  1  0
 23 39  1  0
 24 40  1  0
 24 41  1  0
 25 42  1  0
 25 43  1  0
 26 44  1  0
 26 45  1  0
 27 46  1  0
 28 47  1  0
M  CHG  3  10  -1  11  -1  22   1
M  END
>  <UniqueID>  (50) 
46

>  <SMILES>  (50) 
O=C(Cc1ccccc1[O-])[N-]S(=O)(=O)c1ccc(S(=O)(=O)[NH+]2CCCC2)cc1

>  <Energy>  (50) 
50.31913586624277

>  <Genealogy>  (50) 
O=C(Cc1ccccc1[O-])[N-]S(=O)(=O)c1ccc(S(=O)(=O)[NH+]2CCCC2)cc1 (protonated)
O=C(Cc1ccccc1[O-])[N-]S(=O)(=O)c1ccc(S(=O)(=O)[NH+]2CCCC2)cc1 (3D coordinates assigned)
O=C(Cc1ccccc1[O-])[N-]S(=O)(=O)c1ccc(S(=O)(=O)[NH+]2CCCC2)cc1 (nonaromatic ring conformer: 50.31913586624277 kcal/mol)

>  <smiles>  (50) 
O=C(Cc1ccccc1O)NS(=O)(=O)c1ccc(S(=O)(=O)N2CCCC2)cc1

>  <score_type>  (50) 
oracle

>  <origin>  (50) 
adgpu

>  <m_score__min__energy>  (50) 
-13.91

>  <m_primary>  (50) 
energy

$$$$
