0:0
     RDKit          3D

 42 45  0  0  0  0  0  0  0  0999 V2000
   -8.4910   16.8893  -32.2502 H   0  0  0  0  0  0  0  0  0  0  0  0
   -8.1790   17.9420  -32.3170 C   0  0  0  0  0  0  0  0  0  0  0  0
   -9.1130   18.9570  -32.1010 C   0  0  0  0  0  0  0  0  0  0  0  0
  -10.1583   18.7004  -31.8742 H   0  0  0  0  0  0  0  0  0  0  0  0
   -8.7240   20.3010  -32.1720 C   0  0  0  0  0  0  0  0  0  0  0  0
   -9.7350   21.3920  -31.9830 C   0  0  0  0  0  0  0  0  0  0  0  0
   -9.8934   21.5629  -30.9080 H   0  0  0  0  0  0  0  0  0  0  0  0
   -9.3679   22.3172  -32.4512 H   0  0  0  0  0  0  0  0  0  0  0  0
  -10.6854   21.0963  -32.4512 H   0  0  0  0  0  0  0  0  0  0  0  0
   -7.3950   20.6190  -32.4940 C   0  0  0  0  0  0  0  0  0  0  0  0
   -7.0939   21.6734  -32.5813 H   0  0  0  0  0  0  0  0  0  0  0  0
   -6.4450   19.6050  -32.7060 C   0  0  0  0  0  0  0  0  0  0  0  0
   -5.0550   19.9730  -33.0560 C   0  0  0  0  0  0  0  0  0  0  0  0
   -4.5430   19.5160  -34.1130 O   0  0  0  0  0  0  0  0  0  0  0  0
   -4.2580   20.8790  -32.2040 C   0  0  0  0  0  0  0  0  0  0  0  0
   -4.6990   22.1100  -31.7230 C   0  0  0  0  0  0  0  0  0  0  0  0
   -5.6829   22.5765  -31.8791 H   0  0  0  0  0  0  0  0  0  0  0  0
   -3.6340   22.6160  -31.0090 C   0  0  0  0  0  0  0  0  0  0  0  0
   -3.4970   23.8190  -30.3200 C   0  0  0  0  0  0  0  0  0  0  0  0
   -4.3226   24.5447  -30.2774 H   0  0  0  0  0  0  0  0  0  0  0  0
   -2.2610   24.0800  -29.6750 C   0  0  0  0  0  0  0  0  0  0  0  0
   -2.0160   25.3060  -28.9680 N   0  0  0  0  0  0  0  0  0  0  0  0
   -0.9510   25.6090  -28.2840 C   0  0  0  0  0  0  0  0  0  0  0  0
    0.1560   24.8430  -28.2010 N   0  0  0  0  0  0  0  0  0  0  0  0
    1.0310   25.5080  -27.4640 N   0  0  0  0  0  0  0  0  0  0  0  0
    1.9910   25.1630  -27.2410 H   0  0  0  0  0  0  0  0  0  0  0  0
    0.4930   26.6810  -27.0790 C   0  0  0  0  0  0  0  0  0  0  0  0
    1.2220   27.7300  -26.3060 C   0  0  0  0  0  0  0  0  0  0  0  0
    1.0946   27.5467  -25.2289 H   0  0  0  0  0  0  0  0  0  0  0  0
    2.2918   27.6955  -26.5598 H   0  0  0  0  0  0  0  0  0  0  0  0
    0.8167   28.7206  -26.5598 H   0  0  0  0  0  0  0  0  0  0  0  0
   -0.7790   26.7940  -27.6020 C   0  0  0  0  0  0  0  0  0  0  0  0
   -1.4864   27.6300  -27.4991 H   0  0  0  0  0  0  0  0  0  0  0  0
   -1.2040   23.1450  -29.7900 C   0  0  0  0  0  0  0  0  0  0  0  0
   -0.2338   23.3628  -29.3196 H   0  0  0  0  0  0  0  0  0  0  0  0
   -1.3770   21.9420  -30.4970 C   0  0  0  0  0  0  0  0  0  0  0  0
   -0.5609   21.2088  -30.5775 H   0  0  0  0  0  0  0  0  0  0  0  0
   -2.6140   21.7080  -31.0920 C   0  0  0  0  0  0  0  0  0  0  0  0
   -2.9780   20.6410  -31.8220 N   0  0  0  0  0  0  0  0  0  0  0  0
   -2.3820   19.8180  -32.0630 H   0  0  0  0  0  0  0  0  0  0  0  0
   -6.8480   18.2550  -32.6180 C   0  0  0  0  0  0  0  0  0  0  0  0
   -5.7110   16.9270  -32.8340 Cl  0  0  0  0  0  0  0  0  0  0  0  0
  1  2  1  0
  2  3  2  0
  3  4  1  0
  3  5  1  0
  5  6  1  0
  6  7  1  0
  6  8  1  0
  6  9  1  0
  5 10  2  0
 10 11  1  0
 10 12  1  0
 12 13  1  0
 13 14  2  0
 13 15  1  0
 15 16  2  0
 16 17  1  0
 16 18  1  0
 18 19  2  0
 19 20  1  0
 19 21  1  0
 21 22  1  0
 22 23  2  0
 23 24  1  0
 24 25  1  0
 25 26  1  0
 25 27  1  0
 27 28  1  0
 28 29  1  0
 28 30  1  0
 28 31  1  0
 27 32  2  0
 32 33  1  0
 21 34  2  0
 34 35  1  0
 34 36  1  0
 36 37  1  0
 36 38  2  0
 38 39  1  0
 39 40  1  0
 12 41  2  0
 41 42  1  0
 41  2  1  0
 39 15  1  0
 38 18  1  0
 32 23  1  0
M  CHG  1  24  -1
M  END
>  <UniqueID>  (1) 
1

>  <SMILES>  (1) 
Cc1ccc(Cl)c(C(=O)c2cc3cc(/N=c4/cc(C)[nH][n-]4)ccc3[nH]2)c1

>  <Energy>  (1) 
118.76802015393947

>  <Genealogy>  (1) 
Cc1ccc(Cl)c(C(=O)c2cc3cc(N=c4cc(C)[nH][n-]4)ccc3[nH]2)c1 (protonated)
Cc1ccc(Cl)c(C(=O)c2cc3cc(/N=c4/cc(C)[nH][n-]4)ccc3[nH]2)c1 (cis-trans isomerization)
Cc1ccc(Cl)c(C(=O)c2cc3cc(/N=c4/cc(C)[nH][n-]4)ccc3[nH]2)c1 (3D coordinates assigned)
Cc1ccc(Cl)c(C(=O)c2cc3cc(/N=c4/cc(C)[nH][n-]4)ccc3[nH]2)c1 (optimized conformer: 118.76802015393947 kcal/mol)

>  <smiles>  (1) 
Cc1ccc(Cl)c(C(=O)c2cc3cc(N=c4cc(C)[nH][nH]4)ccc3[nH]2)c1

>  <score_type>  (1) 
oracle

>  <origin>  (1) 
adgpu

>  <m_score__min__energy>  (1) 
-10.51

>  <m_primary>  (1) 
energy

$$$$
1:0
     RDKit          3D

 36 38  0  0  0  0  0  0  0  0999 V2000
   -2.4180   20.3090  -26.7670 O   0  0  0  0  0  0  0  0  0  0  0  0
   -1.4440   21.4260  -27.0270 S   0  0  0  0  0  0  0  0  0  0  0  0
   -1.0330   22.0350  -25.7170 O   0  0  0  0  0  0  0  0  0  0  0  0
   -0.0430   20.7800  -27.8190 N   0  0  0  0  0  0  0  0  0  0  0  0
    0.0500   20.4780  -29.2200 C   0  0  0  0  0  0  0  0  0  0  0  0
   -0.8570   21.0060  -30.1550 C   0  0  0  0  0  0  0  0  0  0  0  0
   -0.7370   20.7060  -31.5200 C   0  0  0  0  0  0  0  0  0  0  0  0
    0.3270   19.8870  -31.9630 C   0  0  0  0  0  0  0  0  0  0  0  0
    1.2130   19.3410  -31.0220 C   0  0  0  0  0  0  0  0  0  0  0  0
    1.0780   19.6370  -29.6630 C   0  0  0  0  0  0  0  0  0  0  0  0
    1.9770   19.0920  -28.7510 O   0  0  0  0  0  0  0  0  0  0  0  0
    0.4710   19.4920  -33.4140 C   0  0  0  0  0  0  0  0  0  0  0  0
   -0.2770   20.4380  -34.3580 C   0  0  0  0  0  0  0  0  0  0  0  0
   -1.7040   20.6680  -33.8620 C   0  0  0  0  0  0  0  0  0  0  0  0
   -1.6880   21.3610  -32.4960 C   0  0  0  0  0  0  0  0  0  0  0  0
   -2.1770   22.6730  -28.0300 C   0  0  0  0  0  0  0  0  0  0  0  0
   -3.4360   22.4700  -28.6130 C   0  0  0  0  0  0  0  0  0  0  0  0
   -3.9960   23.4520  -29.4370 C   0  0  0  0  0  0  0  0  0  0  0  0
   -3.3020   24.6420  -29.6820 C   0  0  0  0  0  0  0  0  0  0  0  0
   -3.8620   25.6130  -30.5030 O   0  0  0  0  0  0  0  0  0  0  0  0
   -2.0460   24.8510  -29.0980 C   0  0  0  0  0  0  0  0  0  0  0  0
   -1.3500   26.0290  -29.3400 O   0  0  0  0  0  0  0  0  0  0  0  0
   -1.4870   23.8700  -28.2720 C   0  0  0  0  0  0  0  0  0  0  0  0
   -1.6706   21.6622  -29.8122 H   0  0  0  0  0  0  0  0  0  0  0  0
    2.0210   18.6740  -31.3570 H   0  0  0  0  0  0  0  0  0  0  0  0
    1.5388   19.5024  -33.6778 H   0  0  0  0  0  0  0  0  0  0  0  0
    0.0343   18.4893  -33.5316 H   0  0  0  0  0  0  0  0  0  0  0  0
    0.2520   21.4016  -34.3994 H   0  0  0  0  0  0  0  0  0  0  0  0
   -0.3163   19.9848  -35.3595 H   0  0  0  0  0  0  0  0  0  0  0  0
   -2.2412   21.3011  -34.5836 H   0  0  0  0  0  0  0  0  0  0  0  0
   -2.2092   19.6958  -33.7636 H   0  0  0  0  0  0  0  0  0  0  0  0
   -1.3820   22.4082  -32.6363 H   0  0  0  0  0  0  0  0  0  0  0  0
   -2.7009   21.2860  -32.0737 H   0  0  0  0  0  0  0  0  0  0  0  0
   -3.9848   21.5360  -28.4219 H   0  0  0  0  0  0  0  0  0  0  0  0
   -4.9835   23.2884  -29.8931 H   0  0  0  0  0  0  0  0  0  0  0  0
   -0.5027   24.0380  -27.8106 H   0  0  0  0  0  0  0  0  0  0  0  0
  1  2  2  0
  2  3  2  0
  2  4  1  0
  4  5  1  0
  5  6  2  0
  6  7  1  0
  7  8  2  0
  8  9  1  0
  9 10  2  0
 10 11  1  0
  8 12  1  0
 12 13  1  0
 13 14  1  0
 14 15  1  0
  2 16  1  0
 16 17  2  0
 17 18  1  0
 18 19  2  0
 19 20  1  0
 19 21  1  0
 21 22  1  0
 21 23  2  0
 10  5  1  0
 23 16  1  0
 15  7  1  0
  6 24  1  0
  9 25  1  0
 12 26  1  0
 12 27  1  0
 13 28  1  0
 13 29  1  0
 14 30  1  0
 14 31  1  0
 15 32  1  0
 15 33  1  0
 17 34  1  0
 18 35  1  0
 23 36  1  0
M  CHG  4   4  -1  11  -1  20  -1  22  -1
M  END
>  <UniqueID>  (2) 
2

>  <SMILES>  (2) 
O=S(=O)([N-]c1cc2c(cc1[O-])CCCC2)c1ccc([O-])c([O-])c1

>  <Energy>  (2) 
40.354491507487346

>  <Genealogy>  (2) 
O=S(=O)([N-]c1cc2c(cc1[O-])CCCC2)c1ccc([O-])c([O-])c1 (protonated)
O=S(=O)([N-]c1cc2c(cc1[O-])CCCC2)c1ccc([O-])c([O-])c1 (3D coordinates assigned)
O=S(=O)([N-]c1cc2c(cc1[O-])CCCC2)c1ccc([O-])c([O-])c1 (nonaromatic ring conformer: 40.354491507487346 kcal/mol)

>  <smiles>  (2) 
O=S(=O)(Nc1cc2c(cc1O)CCCC2)c1ccc(O)c(O)c1

>  <score_type>  (2) 
oracle

>  <origin>  (2) 
adgpu

>  <m_score__min__energy>  (2) 
-12.92

>  <m_primary>  (2) 
energy

$$$$
2:0
     RDKit          3D

 50 53  0  0  0  0  0  0  0  0999 V2000
   -7.0800   22.6110  -29.9620 O   0  0  0  0  0  0  0  0  0  0  0  0
   -5.9990   22.6650  -30.6090 C   0  0  0  0  0  0  0  0  0  0  0  0
   -5.8420   21.9110  -31.8220 N   0  0  0  0  0  0  0  0  0  0  0  0
   -6.6860   20.8060  -32.1920 C   0  0  0  0  0  0  0  0  0  0  0  0
   -8.0870   20.9280  -32.2140 C   0  0  0  0  0  0  0  0  0  0  0  0
   -8.8850   19.8330  -32.5530 C   0  0  0  0  0  0  0  0  0  0  0  0
  -10.2340   19.9590  -32.5740 F   0  0  0  0  0  0  0  0  0  0  0  0
   -8.2950   18.6030  -32.8570 C   0  0  0  0  0  0  0  0  0  0  0  0
   -6.9020   18.4590  -32.8120 C   0  0  0  0  0  0  0  0  0  0  0  0
   -6.1600   16.8940  -33.1570 S   0  0  0  0  0  0  0  0  0  0  0  0
   -5.6930   16.2720  -31.8710 O   0  0  0  0  0  0  0  0  0  0  0  0
   -7.1870   15.9820  -33.7690 O   0  0  0  0  0  0  0  0  0  0  0  0
   -4.8000   17.0570  -34.2460 N   0  0  0  0  0  0  0  0  0  0  0  0
   -4.2820   15.7330  -34.6730 C   0  0  0  0  0  0  0  0  0  0  0  0
   -2.9830   15.3370  -33.9550 C   0  0  0  0  0  0  0  0  0  0  0  0
   -1.8770   16.3800  -34.1900 C   0  0  0  0  0  0  0  0  0  0  0  0
   -2.4310   17.8050  -34.3690 C   0  0  0  0  0  0  0  0  0  0  0  0
   -3.7830   17.9630  -33.6680 C   0  0  0  0  0  0  0  0  0  0  0  0
   -6.1040   19.5620  -32.4790 C   0  0  0  0  0  0  0  0  0  0  0  0
   -4.9220   23.5450  -30.1240 C   0  0  0  0  0  0  0  0  0  0  0  0
   -4.2300   23.4250  -28.9340 C   0  0  0  0  0  0  0  0  0  0  0  0
   -3.3560   24.4970  -28.9450 C   0  0  0  0  0  0  0  0  0  0  0  0
   -2.3910   24.8800  -27.8850 C   0  0  0  0  0  0  0  0  0  0  0  0
   -2.5300   24.3180  -26.6010 C   0  0  0  0  0  0  0  0  0  0  0  0
   -1.6340   24.6460  -25.5800 C   0  0  0  0  0  0  0  0  0  0  0  0
   -0.5930   25.5420  -25.8230 C   0  0  0  0  0  0  0  0  0  0  0  0
   -0.4500   26.1200  -27.0860 C   0  0  0  0  0  0  0  0  0  0  0  0
   -1.3450   25.8030  -28.1140 C   0  0  0  0  0  0  0  0  0  0  0  0
   -1.1960   26.4320  -29.3440 O   0  0  0  0  0  0  0  0  0  0  0  0
   -3.5420   25.2120  -30.0740 N   0  0  0  0  0  0  0  0  0  0  0  0
   -4.4910   24.6320  -30.7910 N   0  0  0  0  0  0  0  0  0  0  0  0
   -5.1410   22.2420  -32.5210 H   0  0  0  0  0  0  0  0  0  0  0  0
   -8.5565   21.8906  -31.9630 H   0  0  0  0  0  0  0  0  0  0  0  0
   -8.9262   17.7453  -33.1325 H   0  0  0  0  0  0  0  0  0  0  0  0
   -5.0468   14.9718  -34.4593 H   0  0  0  0  0  0  0  0  0  0  0  0
   -4.0572   15.7985  -35.7478 H   0  0  0  0  0  0  0  0  0  0  0  0
   -3.1792   15.2592  -32.8754 H   0  0  0  0  0  0  0  0  0  0  0  0
   -2.6427   14.3718  -34.3581 H   0  0  0  0  0  0  0  0  0  0  0  0
   -1.1974   16.3729  -33.3251 H   0  0  0  0  0  0  0  0  0  0  0  0
   -1.3560   16.1074  -35.1197 H   0  0  0  0  0  0  0  0  0  0  0  0
   -1.7177   18.5242  -33.9401 H   0  0  0  0  0  0  0  0  0  0  0  0
   -2.5707   17.9931  -35.4438 H   0  0  0  0  0  0  0  0  0  0  0  0
   -3.6617   17.7299  -32.5999 H   0  0  0  0  0  0  0  0  0  0  0  0
   -4.1249   18.9995  -33.8050 H   0  0  0  0  0  0  0  0  0  0  0  0
   -5.0102   19.4513  -32.4423 H   0  0  0  0  0  0  0  0  0  0  0  0
   -4.3471   22.6549  -28.1574 H   0  0  0  0  0  0  0  0  0  0  0  0
   -3.3514   23.6145  -26.4001 H   0  0  0  0  0  0  0  0  0  0  0  0
   -1.7499   24.1967  -24.5827 H   0  0  0  0  0  0  0  0  0  0  0  0
    0.1153   25.7932  -25.0197 H   0  0  0  0  0  0  0  0  0  0  0  0
    0.3704   26.8282  -27.2739 H   0  0  0  0  0  0  0  0  0  0  0  0
  1  2  2  0
  2  3  1  0
  3  4  1  0
  4  5  2  0
  5  6  1  0
  6  7  1  0
  6  8  2  0
  8  9  1  0
  9 10  1  0
 10 11  2  0
 10 12  2  0
 10 13  1  0
 13 14  1  0
 14 15  1  0
 15 16  1  0
 16 17  1  0
 17 18  1  0
  9 19  2  0
  2 20  1  0
 20 21  1  0
 21 22  2  0
 22 23  1  0
 23 24  2  0
 24 25  1  0
 25 26  2  0
 26 27  1  0
 27 28  2  0
 28 29  1  0
 22 30  1  0
 30 31  1  0
 19  4  1  0
 31 20  2  0
 18 13  1  0
 28 23  1  0
  3 32  1  0
  5 33  1  0
  8 34  1  0
 14 35  1  0
 14 36  1  0
 15 37  1  0
 15 38  1  0
 16 39  1  0
 16 40  1  0
 17 41  1  0
 17 42  1  0
 18 43  1  0
 18 44  1  0
 19 45  1  0
 21 46  1  0
 24 47  1  0
 25 48  1  0
 26 49  1  0
 27 50  1  0
M  CHG  2  29  -1  30  -1
M  END
>  <UniqueID>  (3) 
3

>  <SMILES>  (3) 
O=C(Nc1cc(F)cc(S(=O)(=O)N2CCCCC2)c1)c1cc(-c2ccccc2[O-])[n-]n1

>  <Energy>  (3) 
94.383555800513

>  <Genealogy>  (3) 
O=C(Nc1cc(F)cc(S(=O)(=O)N2CCCCC2)c1)c1cc(-c2ccccc2[O-])[n-]n1 (protonated)
O=C(Nc1cc(F)cc(S(=O)(=O)N2CCCCC2)c1)c1cc(-c2ccccc2[O-])[n-]n1 (3D coordinates assigned)
O=C(Nc1cc(F)cc(S(=O)(=O)N2CCCCC2)c1)c1cc(-c2ccccc2[O-])[n-]n1 (nonaromatic ring conformer: 94.383555800513 kcal/mol)

>  <smiles>  (3) 
O=C(Nc1cc(F)cc(S(=O)(=O)N2CCCCC2)c1)c1cc(-c2ccccc2O)[nH]n1

>  <score_type>  (3) 
oracle

>  <origin>  (3) 
adgpu

>  <m_score__min__energy>  (3) 
-14.449999999999999

>  <m_primary>  (3) 
energy

$$$$
3:0
     RDKit          3D

 43 45  0  0  0  0  0  0  0  0999 V2000
   -5.9940   17.6880  -32.8830 C   0  0  0  0  0  0  0  0  0  0  0  0
   -6.3540   19.0020  -33.5030 C   0  0  0  0  0  0  0  0  0  0  0  0
   -5.9550   19.2570  -34.6710 O   0  0  0  0  0  0  0  0  0  0  0  0
   -7.1930   19.9480  -32.8120 N   0  0  0  0  0  0  0  0  0  0  0  0
   -8.6330   19.6810  -32.7300 C   0  0  0  0  0  0  0  0  0  0  0  0
   -9.1150   19.9120  -31.2980 C   0  0  0  0  0  0  0  0  0  0  0  0
   -8.8390   21.3550  -30.8650 C   0  0  0  0  0  0  0  0  0  0  0  0
   -7.4300   21.7970  -31.1840 C   0  0  0  0  0  0  0  0  0  0  0  0
   -6.9190   22.9450  -30.5580 C   0  0  0  0  0  0  0  0  0  0  0  0
   -5.6550   23.4400  -30.9020 C   0  0  0  0  0  0  0  0  0  0  0  0
   -4.9960   24.8560  -30.0880 S   0  0  0  0  0  0  0  0  0  0  0  0
   -3.7770   25.3260  -30.8320 O   0  0  0  0  0  0  0  0  0  0  0  0
   -6.0050   25.9700  -30.0780 O   0  0  0  0  0  0  0  0  0  0  0  0
   -4.5480   24.4540  -28.4590 N   0  0  0  0  0  0  0  0  0  0  0  0
   -3.1330   24.0970  -28.4070 C   0  0  0  0  0  0  0  0  0  0  0  0
   -2.4200   25.0390  -27.4780 C   0  0  0  0  0  0  0  0  0  0  0  0
   -2.6310   24.9480  -26.0910 C   0  0  0  0  0  0  0  0  0  0  0  0
   -1.9500   25.7990  -25.2160 C   0  0  0  0  0  0  0  0  0  0  0  0
   -1.0450   26.7390  -25.7150 C   0  0  0  0  0  0  0  0  0  0  0  0
   -0.8160   26.8270  -27.0910 C   0  0  0  0  0  0  0  0  0  0  0  0
   -1.4920   25.9770  -27.9730 C   0  0  0  0  0  0  0  0  0  0  0  0
   -1.2380   26.0700  -29.3370 O   0  0  0  0  0  0  0  0  0  0  0  0
   -4.9060   22.7960  -31.8900 C   0  0  0  0  0  0  0  0  0  0  0  0
   -5.4090   21.6620  -32.5290 C   0  0  0  0  0  0  0  0  0  0  0  0
   -6.6640   21.1340  -32.1730 C   0  0  0  0  0  0  0  0  0  0  0  0
   -6.0193   17.7804  -31.7872 H   0  0  0  0  0  0  0  0  0  0  0  0
   -6.7153   16.9217  -33.2031 H   0  0  0  0  0  0  0  0  0  0  0  0
   -4.9828   17.3963  -33.2031 H   0  0  0  0  0  0  0  0  0  0  0  0
   -9.1704   20.3573  -33.4110 H   0  0  0  0  0  0  0  0  0  0  0  0
   -8.8287   18.6376  -33.0182 H   0  0  0  0  0  0  0  0  0  0  0  0
  -10.1966   19.7186  -31.2445 H   0  0  0  0  0  0  0  0  0  0  0  0
   -8.5739   19.2294  -30.6262 H   0  0  0  0  0  0  0  0  0  0  0  0
   -9.5435   22.0201  -31.3858 H   0  0  0  0  0  0  0  0  0  0  0  0
   -8.9654   21.4056  -29.7735 H   0  0  0  0  0  0  0  0  0  0  0  0
   -7.5163   23.4598  -29.7911 H   0  0  0  0  0  0  0  0  0  0  0  0
   -3.0269   23.0660  -28.0384 H   0  0  0  0  0  0  0  0  0  0  0  0
   -2.6961   24.1694  -29.4139 H   0  0  0  0  0  0  0  0  0  0  0  0
   -3.3356   24.2033  -25.6924 H   0  0  0  0  0  0  0  0  0  0  0  0
   -2.1269   25.7285  -24.1326 H   0  0  0  0  0  0  0  0  0  0  0  0
   -0.5126   27.4100  -25.0249 H   0  0  0  0  0  0  0  0  0  0  0  0
   -0.1020   27.5669  -27.4817 H   0  0  0  0  0  0  0  0  0  0  0  0
   -3.9146   23.1849  -32.1656 H   0  0  0  0  0  0  0  0  0  0  0  0
   -4.8183   21.1757  -33.3193 H   0  0  0  0  0  0  0  0  0  0  0  0
  1  2  1  0
  2  3  2  0
  2  4  1  0
  4  5  1  0
  5  6  1  0
  6  7  1  0
  7  8  1  0
  8  9  2  0
  9 10  1  0
 10 11  1  0
 11 12  2  0
 11 13  2  0
 11 14  1  0
 14 15  1  0
 15 16  1  0
 16 17  2  0
 17 18  1  0
 18 19  2  0
 19 20  1  0
 20 21  2  0
 21 22  1  0
 10 23  2  0
 23 24  1  0
 24 25  2  0
 25  4  1  0
 25  8  1  0
 21 16  1  0
  1 26  1  0
  1 27  1  0
  1 28  1  0
  5 29  1  0
  5 30  1  0
  6 31  1  0
  6 32  1  0
  7 33  1  0
  7 34  1  0
  9 35  1  0
 15 36  1  0
 15 37  1  0
 17 38  1  0
 18 39  1  0
 19 40  1  0
 20 41  1  0
 23 42  1  0
 24 43  1  0
M  CHG  2  14  -1  22  -1
M  END
>  <UniqueID>  (4) 
4

>  <SMILES>  (4) 
CC(=O)N1CCCc2cc(S(=O)(=O)[N-]Cc3ccccc3[O-])ccc21

>  <Energy>  (4) 
47.789517006841436

>  <Genealogy>  (4) 
CC(=O)N1CCCc2cc(S(=O)(=O)[N-]Cc3ccccc3[O-])ccc21 (protonated)
CC(=O)N1CCCc2cc(S(=O)(=O)[N-]Cc3ccccc3[O-])ccc21 (3D coordinates assigned)
CC(=O)N1CCCc2cc(S(=O)(=O)[N-]Cc3ccccc3[O-])ccc21 (nonaromatic ring conformer: 47.789517006841436 kcal/mol)

>  <smiles>  (4) 
CC(=O)N1CCCc2cc(S(=O)(=O)NCc3ccccc3O)ccc21

>  <score_type>  (4) 
oracle

>  <origin>  (4) 
adgpu

>  <m_score__min__energy>  (4) 
-14.039999999999999

>  <m_primary>  (4) 
energy

$$$$
4:0
     RDKit          3D

 48 51  0  0  0  0  0  0  0  0999 V2000
   -4.6930   24.7740  -30.9090 O   0  0  0  0  0  0  0  0  0  0  0  0
   -5.4020   23.9540  -30.2630 C   0  0  0  0  0  0  0  0  0  0  0  0
   -4.8010   23.1170  -29.2620 N   0  0  0  0  0  0  0  0  0  0  0  0
   -3.5380   23.3970  -28.6360 C   0  0  0  0  0  0  0  0  0  0  0  0
   -2.8810   24.6020  -28.9220 C   0  0  0  0  0  0  0  0  0  0  0  0
   -1.6400   24.8860  -28.3470 C   0  0  0  0  0  0  0  0  0  0  0  0
   -1.0330   23.9640  -27.4820 C   0  0  0  0  0  0  0  0  0  0  0  0
    0.5430   24.3190  -26.7650 S   0  0  0  0  0  0  0  0  0  0  0  0
    1.4830   24.7770  -27.8460 O   0  0  0  0  0  0  0  0  0  0  0  0
    1.1010   23.0580  -26.1670 O   0  0  0  0  0  0  0  0  0  0  0  0
    0.4630   25.5490  -25.5260 N   0  0  0  0  0  0  0  0  0  0  0  0
   -0.1300   26.7940  -26.0160 C   0  0  0  0  0  0  0  0  0  0  0  0
   -0.7760   27.4750  -24.8140 C   0  0  0  0  0  0  0  0  0  0  0  0
   -0.8320   26.4130  -23.7260 C   0  0  0  0  0  0  0  0  0  0  0  0
   -0.3680   25.1340  -24.3980 C   0  0  0  0  0  0  0  0  0  0  0  0
   -1.6740   22.7450  -27.2160 C   0  0  0  0  0  0  0  0  0  0  0  0
   -2.9160   22.4610  -27.7910 C   0  0  0  0  0  0  0  0  0  0  0  0
   -6.8630   23.7710  -30.6090 C   0  0  2  0  0  0  0  0  0  0  0  0
   -7.6030   22.6730  -29.8040 C   0  0  0  0  0  0  0  0  0  0  0  0
   -8.2190   21.7950  -30.9100 C   0  0  2  0  0  0  0  0  0  0  0  0
   -7.0960   20.9690  -31.5600 C   0  0  0  0  0  0  0  0  0  0  0  0
   -6.3300   22.0220  -32.3750 C   0  0  0  0  0  0  0  0  0  0  0  0
   -7.1040   23.3230  -32.0730 C   0  0  1  0  0  0  0  0  0  0  0  0
   -8.5230   22.8080  -31.9900 C   0  0  0  0  0  0  0  0  0  0  0  0
   -5.2850   22.2240  -29.0190 H   0  0  0  0  0  0  0  0  0  0  0  0
   -3.3460   25.3290  -29.6040 H   0  0  0  0  0  0  0  0  0  0  0  0
   -1.1365   25.8373  -28.5738 H   0  0  0  0  0  0  0  0  0  0  0  0
    0.6488   27.4415  -26.4452 H   0  0  0  0  0  0  0  0  0  0  0  0
   -0.8715   26.5956  -26.8039 H   0  0  0  0  0  0  0  0  0  0  0  0
   -0.1685   28.3309  -24.4848 H   0  0  0  0  0  0  0  0  0  0  0  0
   -1.7758   27.8652  -25.0549 H   0  0  0  0  0  0  0  0  0  0  0  0
   -0.1626   26.6769  -22.8939 H   0  0  0  0  0  0  0  0  0  0  0  0
   -1.8411   26.3121  -23.3000 H   0  0  0  0  0  0  0  0  0  0  0  0
    0.2188   24.5244  -23.6951 H   0  0  0  0  0  0  0  0  0  0  0  0
   -1.2196   24.5217  -24.7293 H   0  0  0  0  0  0  0  0  0  0  0  0
   -1.1971   22.0092  -26.5518 H   0  0  0  0  0  0  0  0  0  0  0  0
   -3.4093   21.5004  -27.5814 H   0  0  0  0  0  0  0  0  0  0  0  0
   -7.2452   24.7775  -30.3836 H   0  0  0  0  0  0  0  0  0  0  0  0
   -6.9013   22.0953  -29.1844 H   0  0  0  0  0  0  0  0  0  0  0  0
   -8.3482   23.0755  -29.1021 H   0  0  0  0  0  0  0  0  0  0  0  0
   -9.0443   21.1703  -30.5376 H   0  0  0  0  0  0  0  0  0  0  0  0
   -6.4493   20.5100  -30.7978 H   0  0  0  0  0  0  0  0  0  0  0  0
   -7.4669   20.1312  -32.1687 H   0  0  0  0  0  0  0  0  0  0  0  0
   -5.2846   22.0970  -32.0412 H   0  0  0  0  0  0  0  0  0  0  0  0
   -6.2782   21.7869  -33.4483 H   0  0  0  0  0  0  0  0  0  0  0  0
   -6.8531   24.1196  -32.7889 H   0  0  0  0  0  0  0  0  0  0  0  0
   -9.2424   23.5763  -31.6702 H   0  0  0  0  0  0  0  0  0  0  0  0
   -8.9962   22.4486  -32.9157 H   0  0  0  0  0  0  0  0  0  0  0  0
  1  2  2  0
  2  3  1  0
  3  4  1  0
  4  5  2  0
  5  6  1  0
  6  7  2  0
  7  8  1  0
  8  9  2  0
  8 10  2  0
  8 11  1  0
 11 12  1  0
 12 13  1  0
 13 14  1  0
 14 15  1  0
  7 16  1  0
 16 17  2  0
  2 18  1  0
 18 19  1  0
 19 20  1  0
 20 21  1  0
 21 22  1  0
 22 23  1  0
 23 24  1  0
 17  4  1  0
 23 18  1  0
 15 11  1  0
 24 20  1  0
  3 25  1  0
  5 26  1  0
  6 27  1  0
 12 28  1  0
 12 29  1  0
 13 30  1  0
 13 31  1  0
 14 32  1  0
 14 33  1  0
 15 34  1  0
 15 35  1  0
 16 36  1  0
 17 37  1  0
 18 38  1  6
 19 39  1  0
 19 40  1  0
 20 41  1  1
 21 42  1  0
 21 43  1  0
 22 44  1  0
 22 45  1  0
 23 46  1  6
 24 47  1  0
 24 48  1  0
M  END
>  <UniqueID>  (5) 
5

>  <SMILES>  (5) 
O=C(Nc1ccc(S(=O)(=O)N2CCCC2)cc1)[C@@H]1C[C@@H]2CCC1C2

>  <Energy>  (5) 
79.5559292050183

>  <Genealogy>  (5) 
O=C(Nc1ccc(S(=O)(=O)N2CCCC2)cc1)[C@@H]1C[C@@H]2CCC1C2 (chirality)
O=C(Nc1ccc(S(=O)(=O)N2CCCC2)cc1)[C@@H]1C[C@@H]2CCC1C2 (3D coordinates assigned)
O=C(Nc1ccc(S(=O)(=O)N2CCCC2)cc1)[C@@H]1C[C@@H]2CCC1C2 (nonaromatic ring conformer: 79.5559292050183 kcal/mol)

>  <smiles>  (5) 
O=C(Nc1ccc(S(=O)(=O)N2CCCC2)cc1)C1CC2CCC1C2

>  <score_type>  (5) 
oracle

>  <origin>  (5) 
adgpu

>  <m_score__min__energy>  (5) 
-9.2400000000000002

>  <m_primary>  (5) 
energy

$$$$
5:0
     RDKit          3D

 34 35  0  0  0  0  0  0  0  0999 V2000
   -4.2410   25.7060  -31.8760 H   0  0  0  0  0  0  0  0  0  0  0  0
   -4.7000   25.2870  -31.0380 N   0  0  0  0  0  0  0  0  0  0  0  0
   -5.5170   24.2840  -31.1300 C   0  0  0  0  0  0  0  0  0  0  0  0
   -6.1050   23.7630  -29.9720 C   0  0  0  0  0  0  0  0  0  0  0  0
   -5.8768   24.2006  -28.9889 H   0  0  0  0  0  0  0  0  0  0  0  0
   -6.9830   22.6840  -30.0750 C   0  0  0  0  0  0  0  0  0  0  0  0
   -7.4519   22.2681  -29.1710 H   0  0  0  0  0  0  0  0  0  0  0  0
   -7.2670   22.1310  -31.3280 C   0  0  0  0  0  0  0  0  0  0  0  0
   -8.3930   20.7860  -31.4890 S   0  0  0  0  0  0  0  0  0  0  0  0
   -9.0440   20.8250  -32.8440 O   0  0  0  0  0  0  0  0  0  0  0  0
   -9.4660   20.9390  -30.4450 O   0  0  0  0  0  0  0  0  0  0  0  0
   -7.5700   19.2590  -31.2490 N   0  0  0  0  0  0  0  0  0  0  0  0
   -6.1070   19.3810  -31.4040 C   0  0  0  0  0  0  0  0  0  0  0  0
   -5.7672   20.2637  -30.8424 H   0  0  0  0  0  0  0  0  0  0  0  0
   -5.6567   18.4531  -31.0215 H   0  0  0  0  0  0  0  0  0  0  0  0
   -5.6690   19.5350  -32.8730 C   0  0  0  0  0  0  0  0  0  0  0  0
   -5.7896   20.5886  -33.1653 H   0  0  0  0  0  0  0  0  0  0  0  0
   -4.6215   19.2058  -32.9383 H   0  0  0  0  0  0  0  0  0  0  0  0
   -6.4890   18.6570  -33.8480 C   0  0  0  0  0  0  0  0  0  0  0  0
   -7.2297   19.3094  -34.3336 H   0  0  0  0  0  0  0  0  0  0  0  0
   -5.5940   18.0560  -34.9400 C   0  0  0  0  0  0  0  0  0  0  0  0
   -4.7674   17.5010  -34.4723 H   0  0  0  0  0  0  0  0  0  0  0  0
   -6.1872   17.3725  -35.5652 H   0  0  0  0  0  0  0  0  0  0  0  0
   -5.1858   18.8637  -35.5652 H   0  0  0  0  0  0  0  0  0  0  0  0
   -7.2500   17.5530  -33.1020 C   0  0  0  0  0  0  0  0  0  0  0  0
   -7.8480   16.9753  -33.8222 H   0  0  0  0  0  0  0  0  0  0  0  0
   -6.5238   16.8968  -32.6000 H   0  0  0  0  0  0  0  0  0  0  0  0
   -8.1850   18.1650  -32.0420 C   0  0  0  0  0  0  0  0  0  0  0  0
   -9.0718   18.5664  -32.5543 H   0  0  0  0  0  0  0  0  0  0  0  0
   -8.4308   17.3600  -31.3338 H   0  0  0  0  0  0  0  0  0  0  0  0
   -6.6650   22.6830  -32.4650 C   0  0  0  0  0  0  0  0  0  0  0  0
   -6.8840   22.2647  -33.4585 H   0  0  0  0  0  0  0  0  0  0  0  0
   -5.8100   23.7350  -32.3460 N   0  0  0  0  0  0  0  0  0  0  0  0
   -5.3760   24.1230  -33.2150 H   0  0  0  0  0  0  0  0  0  0  0  0
  1  2  1  0
  2  3  2  0
  3  4  1  0
  4  5  1  0
  4  6  2  0
  6  7  1  0
  6  8  1  0
  8  9  1  0
  9 10  2  0
  9 11  2  0
  9 12  1  0
 12 13  1  0
 13 14  1  0
 13 15  1  0
 13 16  1  0
 16 17  1  0
 16 18  1  0
 16 19  1  0
 19 20  1  0
 19 21  1  0
 21 22  1  0
 21 23  1  0
 21 24  1  0
 19 25  1  0
 25 26  1  0
 25 27  1  0
 25 28  1  0
 28 29  1  0
 28 30  1  0
  8 31  2  0
 31 32  1  0
 31 33  1  0
 33 34  1  0
 33  3  1  0
 28 12  1  0
M  END
>  <UniqueID>  (6) 
6

>  <SMILES>  (6) 
[H]/N=c1/ccc(S(=O)(=O)N2CCC(C)CC2)c[nH]1

>  <Energy>  (6) 
39.312399257902364

>  <Genealogy>  (6) 
[H]/N=c1/ccc(S(=O)(=O)N2CCC(C)CC2)c[nH]1 (cis-trans isomerization)
[H]/N=c1/ccc(S(=O)(=O)N2CCC(C)CC2)c[nH]1 (3D coordinates assigned)
[H]/N=c1/ccc(S(=O)(=O)N2CCC(C)CC2)c[nH]1 (nonaromatic ring conformer: 39.312399257902364 kcal/mol)

>  <smiles>  (6) 
CC1CCN(S(=O)(=O)c2ccc(=N)[nH]c2)CC1

>  <score_type>  (6) 
oracle

>  <origin>  (6) 
adgpu

>  <m_score__min__energy>  (6) 
-7.9699999999999998

>  <m_primary>  (6) 
energy

$$$$
6:0
     RDKit          3D

 43 45  0  0  0  0  0  0  0  0999 V2000
   -8.8690   18.3500  -31.2610 N   0  0  0  0  0  0  0  0  0  0  0  0
   -8.3780   19.8650  -31.9330 S   0  0  0  0  0  0  0  0  0  0  0  0
   -9.2140   20.1700  -33.1440 O   0  0  0  0  0  0  0  0  0  0  0  0
   -8.5790   20.9550  -30.9180 O   0  0  0  0  0  0  0  0  0  0  0  0
   -6.6790   19.7780  -32.3830 C   0  0  0  0  0  0  0  0  0  0  0  0
   -5.8210   20.8460  -32.0900 C   0  0  0  0  0  0  0  0  0  0  0  0
   -4.4660   20.7680  -32.4220 C   0  0  0  0  0  0  0  0  0  0  0  0
   -3.9480   19.6160  -33.0270 C   0  0  0  0  0  0  0  0  0  0  0  0
   -2.5470   19.5720  -33.3340 N   0  0  0  0  0  0  0  0  0  0  0  0
   -1.5110   20.4030  -32.7920 C   0  0  0  0  0  0  0  0  0  0  0  0
   -1.5130   21.6270  -33.0890 O   0  0  0  0  0  0  0  0  0  0  0  0
   -0.4670   19.8920  -31.8690 C   0  0  0  0  0  0  0  0  0  0  0  0
    0.8200   19.6390  -32.3730 C   0  0  0  0  0  0  0  0  0  0  0  0
    1.8360   19.1820  -31.5340 C   0  0  0  0  0  0  0  0  0  0  0  0
    1.5810   18.9680  -30.1800 C   0  0  0  0  0  0  0  0  0  0  0  0
    0.3120   19.2170  -29.6520 C   0  0  0  0  0  0  0  0  0  0  0  0
    0.0870   18.9440  -28.3030 O   0  0  0  0  0  0  0  0  0  0  0  0
   -0.7130   19.7120  -30.4880 C   0  0  0  0  0  0  0  0  0  0  0  0
   -1.9710   20.0200  -29.9600 O   0  0  0  0  0  0  0  0  0  0  0  0
   -2.1570   20.8510  -28.8490 C   0  0  0  0  0  0  0  0  0  0  0  0
   -2.5110   20.3590  -27.7420 O   0  0  0  0  0  0  0  0  0  0  0  0
   -1.9200   22.3040  -28.9770 C   0  0  0  0  0  0  0  0  0  0  0  0
   -0.7420   22.8740  -28.4630 C   0  0  0  0  0  0  0  0  0  0  0  0
   -0.5130   24.2480  -28.5700 C   0  0  0  0  0  0  0  0  0  0  0  0
    0.6560   24.7960  -28.0530 O   0  0  0  0  0  0  0  0  0  0  0  0
   -1.4570   25.0690  -29.1970 C   0  0  0  0  0  0  0  0  0  0  0  0
   -1.2310   26.4370  -29.3020 O   0  0  0  0  0  0  0  0  0  0  0  0
   -2.6300   24.5100  -29.7200 C   0  0  0  0  0  0  0  0  0  0  0  0
   -3.5690   25.3210  -30.3480 O   0  0  0  0  0  0  0  0  0  0  0  0
   -2.8590   23.1340  -29.6140 C   0  0  0  0  0  0  0  0  0  0  0  0
   -4.8170   18.5580  -33.3470 C   0  0  0  0  0  0  0  0  0  0  0  0
   -6.1720   18.6350  -33.0140 C   0  0  0  0  0  0  0  0  0  0  0  0
   -9.8380   18.1650  -31.6010 H   0  0  0  0  0  0  0  0  0  0  0  0
   -6.2147   21.7475  -31.5977 H   0  0  0  0  0  0  0  0  0  0  0  0
   -3.8013   21.6176  -32.2066 H   0  0  0  0  0  0  0  0  0  0  0  0
    1.0284   19.8031  -33.4405 H   0  0  0  0  0  0  0  0  0  0  0  0
    2.8398   18.9901  -31.9410 H   0  0  0  0  0  0  0  0  0  0  0  0
    2.3839   18.6009  -29.5238 H   0  0  0  0  0  0  0  0  0  0  0  0
   -0.8080   19.1000  -27.8560 H   0  0  0  0  0  0  0  0  0  0  0  0
    0.0054   22.2329  -27.9726 H   0  0  0  0  0  0  0  0  0  0  0  0
   -3.7790   22.6990  -30.0315 H   0  0  0  0  0  0  0  0  0  0  0  0
   -4.4289   17.6665  -33.8613 H   0  0  0  0  0  0  0  0  0  0  0  0
   -6.8426   17.7951  -33.2482 H   0  0  0  0  0  0  0  0  0  0  0  0
  1  2  1  0
  2  3  2  0
  2  4  2  0
  2  5  1  0
  5  6  2  0
  6  7  1  0
  7  8  2  0
  8  9  1  0
  9 10  1  0
 10 11  2  0
 10 12  1  0
 12 13  2  0
 13 14  1  0
 14 15  2  0
 15 16  1  0
 16 17  1  0
 16 18  2  0
 18 19  1  0
 19 20  1  0
 20 21  2  0
 20 22  1  0
 22 23  2  0
 23 24  1  0
 24 25  1  0
 24 26  2  0
 26 27  1  0
 26 28  1  0
 28 29  1  0
 28 30  2  0
  8 31  1  0
 31 32  2  0
 32  5  1  0
 18 12  1  0
 30 22  1  0
  1 33  1  0
  6 34  1  0
  7 35  1  0
 13 36  1  0
 14 37  1  0
 15 38  1  0
 17 39  1  0
 23 40  1  0
 30 41  1  0
 31 42  1  0
 32 43  1  0
M  CHG  5   1  -1   9  -1  25  -1  27  -1  29  -1
M  END
>  <UniqueID>  (7) 
7

>  <SMILES>  (7) 
[NH-]S(=O)(=O)c1ccc([N-]C(=O)c2cccc(O)c2OC(=O)c2cc([O-])c([O-])c([O-])c2)cc1

>  <Energy>  (7) 
60.61944132071671

>  <Genealogy>  (7) 
[NH-]S(=O)(=O)c1ccc([N-]C(=O)c2cccc(O)c2OC(=O)c2cc([O-])c([O-])c([O-])c2)cc1 (protonated)
[NH-]S(=O)(=O)c1ccc([N-]C(=O)c2cccc(O)c2OC(=O)c2cc([O-])c([O-])c([O-])c2)cc1 (3D coordinates assigned)
[NH-]S(=O)(=O)c1ccc([N-]C(=O)c2cccc(O)c2OC(=O)c2cc([O-])c([O-])c([O-])c2)cc1 (optimized conformer: 60.61944132071671 kcal/mol)

>  <smiles>  (7) 
NS(=O)(=O)c1ccc(NC(=O)c2cccc(O)c2OC(=O)c2cc(O)c(O)c(O)c2)cc1

>  <score_type>  (7) 
oracle

>  <origin>  (7) 
adgpu

>  <m_score__min__energy>  (7) 
-14.01

>  <m_primary>  (7) 
energy

$$$$
7:0
     RDKit          3D

 33 34  0  0  0  0  0  0  0  0999 V2000
   -1.0280   22.1420  -26.5210 N   0  0  0  0  0  0  0  0  0  0  0  0
   -1.6930   22.9130  -27.5250 C   0  0  0  0  0  0  0  0  0  0  0  0
   -2.8980   22.4640  -28.0800 C   0  0  0  0  0  0  0  0  0  0  0  0
   -3.5580   23.2260  -29.0490 C   0  0  0  0  0  0  0  0  0  0  0  0
   -3.0290   24.4640  -29.4610 C   0  0  0  0  0  0  0  0  0  0  0  0
   -3.6890   25.3000  -30.4310 N   0  0  0  0  0  0  0  0  0  0  0  0
   -5.0990   25.5420  -30.5520 C   0  0  0  0  0  0  0  0  0  0  0  0
   -5.5720   26.7040  -30.4570 O   0  0  0  0  0  0  0  0  0  0  0  0
   -5.9940   24.4330  -30.8880 C   0  0  0  0  0  0  0  0  0  0  0  0
   -6.8470   24.0390  -30.0460 O   0  0  0  0  0  0  0  0  0  0  0  0
   -5.8770   23.7790  -32.1560 N   0  0  0  0  0  0  0  0  0  0  0  0
   -5.5440   22.3700  -32.3110 C   0  0  0  0  0  0  0  0  0  0  0  0
   -6.8070   21.5520  -32.3300 C   0  0  0  0  0  0  0  0  0  0  0  0
   -8.0370   22.1240  -31.9670 C   0  0  0  0  0  0  0  0  0  0  0  0
   -9.1860   21.3350  -31.9030 C   0  0  0  0  0  0  0  0  0  0  0  0
   -9.1170   19.9710  -32.2000 C   0  0  0  0  0  0  0  0  0  0  0  0
   -7.8990   19.3950  -32.5690 C   0  0  0  0  0  0  0  0  0  0  0  0
   -6.7470   20.1790  -32.6260 C   0  0  0  0  0  0  0  0  0  0  0  0
   -1.8020   24.8930  -28.9290 C   0  0  0  0  0  0  0  0  0  0  0  0
   -1.2400   26.0940  -29.3510 O   0  0  0  0  0  0  0  0  0  0  0  0
   -1.1420   24.1250  -27.9620 C   0  0  0  0  0  0  0  0  0  0  0  0
   -1.3350   22.1850  -25.5220 H   0  0  0  0  0  0  0  0  0  0  0  0
   -0.2140   21.5320  -26.7660 H   0  0  0  0  0  0  0  0  0  0  0  0
   -3.3278   21.5062  -27.7516 H   0  0  0  0  0  0  0  0  0  0  0  0
   -4.4949   22.8565  -29.4914 H   0  0  0  0  0  0  0  0  0  0  0  0
   -4.9992   22.2243  -33.2555 H   0  0  0  0  0  0  0  0  0  0  0  0
   -4.9134   22.0489  -31.4689 H   0  0  0  0  0  0  0  0  0  0  0  0
   -8.0948   23.1971  -31.7324 H   0  0  0  0  0  0  0  0  0  0  0  0
  -10.1475   21.7871  -31.6184 H   0  0  0  0  0  0  0  0  0  0  0  0
  -10.0232   19.3501  -32.1431 H   0  0  0  0  0  0  0  0  0  0  0  0
   -7.8486   18.3239  -32.8144 H   0  0  0  0  0  0  0  0  0  0  0  0
   -5.7865   19.7207  -32.9040 H   0  0  0  0  0  0  0  0  0  0  0  0
   -0.1867   24.4746  -27.5435 H   0  0  0  0  0  0  0  0  0  0  0  0
  1  2  1  0
  2  3  2  0
  3  4  1  0
  4  5  2  0
  5  6  1  0
  6  7  1  0
  7  8  2  0
  7  9  1  0
  9 10  2  0
  9 11  1  0
 11 12  1  0
 12 13  1  0
 13 14  2  0
 14 15  1  0
 15 16  2  0
 16 17  1  0
 17 18  2  0
  5 19  1  0
 19 20  1  0
 19 21  2  0
 21  2  1  0
 18 13  1  0
  1 22  1  0
  1 23  1  0
  3 24  1  0
  4 25  1  0
 12 26  1  0
 12 27  1  0
 14 28  1  0
 15 29  1  0
 16 30  1  0
 17 31  1  0
 18 32  1  0
 21 33  1  0
M  CHG  3   6  -1  11  -1  20  -1
M  END
>  <UniqueID>  (8) 
8

>  <SMILES>  (8) 
Nc1ccc([N-]C(=O)C(=O)[N-]Cc2ccccc2)c([O-])c1

>  <Energy>  (8) 
34.1306458852117

>  <Genealogy>  (8) 
Nc1ccc([N-]C(=O)C(=O)[N-]Cc2ccccc2)c([O-])c1 (protonated)
Nc1ccc([N-]C(=O)C(=O)[N-]Cc2ccccc2)c([O-])c1 (3D coordinates assigned)
Nc1ccc([N-]C(=O)C(=O)[N-]Cc2ccccc2)c([O-])c1 (optimized conformer: 34.1306458852117 kcal/mol)

>  <smiles>  (8) 
Nc1ccc(NC(=O)C(=O)NCc2ccccc2)c(O)c1

>  <score_type>  (8) 
oracle

>  <origin>  (8) 
adgpu

>  <m_score__min__energy>  (8) 
-12.24

>  <m_primary>  (8) 
energy

$$$$
8:0
     RDKit          3D

 65 68  0  0  1  0  0  0  0  0999 V2000
    1.3170   13.1410  -27.1310 C   0  0  0  0  0  0  0  0  0  0  0  0
    1.4310   14.3450  -27.0420 C   0  0  0  0  0  0  0  0  0  0  0  0
    1.5460   15.7940  -26.9480 C   0  0  0  0  0  0  0  0  0  0  0  0
    2.3910   16.3260  -26.1860 O   0  0  0  0  0  0  0  0  0  0  0  0
    0.6540   16.5430  -27.7620 N   0  0  0  0  0  0  0  0  0  0  0  0
    0.6300   17.9630  -27.7950 C   0  0  0  0  0  0  0  0  0  0  0  0
    1.7170   18.6710  -28.1950 C   0  0  0  0  0  0  0  0  0  0  0  0
    1.6710   20.0500  -28.2190 C   0  0  0  0  0  0  0  0  0  0  0  0
    0.4990   20.6920  -27.8280 C   0  0  0  0  0  0  0  0  0  0  0  0
   -0.6140   20.0070  -27.4190 C   0  0  0  0  0  0  0  0  0  0  0  0
   -1.8800   20.6820  -26.9930 C   0  0  0  0  0  0  0  0  0  0  0  0
   -2.6970   21.0570  -28.1000 N   0  0  0  0  0  0  0  0  0  0  0  0
   -2.7690   22.2470  -28.5620 C   0  0  0  0  0  0  0  0  0  0  0  0
   -3.6160   22.4410  -29.6490 C   0  0  0  0  0  0  0  0  0  0  0  0
   -3.7190   23.7210  -30.1780 C   0  0  0  0  0  0  0  0  0  0  0  0
   -4.5630   23.8850  -31.2520 O   0  0  0  0  0  0  0  0  0  0  0  0
   -5.6820   23.1530  -31.5400 C   0  0  0  0  0  0  0  0  0  0  0  0
   -6.8900   23.5790  -30.9760 C   0  0  0  0  0  0  0  0  0  0  0  0
   -6.9010   24.7960  -30.0990 C   0  0  0  0  0  0  0  0  0  0  0  0
   -8.0580   22.8810  -31.2290 C   0  0  0  0  0  0  0  0  0  0  0  0
   -7.9900   21.7680  -32.0420 C   0  0  0  0  0  0  0  0  0  0  0  0
   -9.2710   21.0440  -32.2890 C   0  0  0  0  0  0  0  0  0  0  0  0
   -6.7970   21.3560  -32.5940 C   0  0  0  0  0  0  0  0  0  0  0  0
   -5.6230   22.0400  -32.3530 C   0  0  0  0  0  0  0  0  0  0  0  0
   -4.3390   21.5880  -32.9520 C   0  0  0  0  0  0  0  0  0  0  0  0
   -3.0000   24.7120  -29.6200 N   0  0  0  0  0  0  0  0  0  0  0  0
   -2.1840   24.4650  -28.5550 C   0  0  0  0  0  0  0  0  0  0  0  0
   -1.5410   25.4610  -28.0900 N   0  0  0  0  0  0  0  0  0  0  0  0
   -0.6710   25.2750  -26.9780 C   0  0  0  0  0  0  0  0  0  0  0  0
    0.5180   24.5750  -27.0610 C   0  0  0  0  0  0  0  0  0  0  0  0
    1.3270   24.4260  -25.9430 C   0  0  0  0  0  0  0  0  0  0  0  0
    0.9560   24.9740  -24.7380 C   0  0  0  0  0  0  0  0  0  0  0  0
   -0.2260   25.6700  -24.6580 C   0  0  0  0  0  0  0  0  0  0  0  0
   -0.6360   26.2510  -23.4090 N   0  0  0  0  0  0  0  0  0  0  0  0
   -1.0330   25.8230  -25.7540 C   0  0  0  0  0  0  0  0  0  0  0  0
   -2.0560   23.2470  -28.0150 N   0  0  0  0  0  0  0  0  0  0  0  0
   -0.5030   18.6100  -27.4160 C   0  0  0  0  0  0  0  0  0  0  0  0
    1.2136   12.0489  -27.2117 H   0  0  0  0  0  0  0  0  0  0  0  0
   -0.0490   16.0640  -28.3970 H   0  0  0  0  0  0  0  0  0  0  0  0
    2.6341   18.1457  -28.4999 H   0  0  0  0  0  0  0  0  0  0  0  0
    2.5463   20.6327  -28.5419 H   0  0  0  0  0  0  0  0  0  0  0  0
    0.4659   21.7913  -27.8484 H   0  0  0  0  0  0  0  0  0  0  0  0
   -2.4490   19.9927  -26.3519 H   0  0  0  0  0  0  0  0  0  0  0  0
   -1.6046   21.6005  -26.4540 H   0  0  0  0  0  0  0  0  0  0  0  0
   -4.1877   21.6044  -30.0770 H   0  0  0  0  0  0  0  0  0  0  0  0
   -6.8982   24.4872  -29.0432 H   0  0  0  0  0  0  0  0  0  0  0  0
   -6.0083   25.4047  -30.3053 H   0  0  0  0  0  0  0  0  0  0  0  0
   -7.8045   25.3885  -30.3053 H   0  0  0  0  0  0  0  0  0  0  0  0
   -9.0149   23.2047  -30.7937 H   0  0  0  0  0  0  0  0  0  0  0  0
   -9.7353   20.7816  -31.3269 H   0  0  0  0  0  0  0  0  0  0  0  0
   -9.9530   21.6902  -32.8611 H   0  0  0  0  0  0  0  0  0  0  0  0
   -9.0692   20.1264  -32.8611 H   0  0  0  0  0  0  0  0  0  0  0  0
   -6.7799   20.4651  -33.2390 H   0  0  0  0  0  0  0  0  0  0  0  0
   -3.6284   21.3379  -32.1504 H   0  0  0  0  0  0  0  0  0  0  0  0
   -4.5177   20.6987  -33.5743 H   0  0  0  0  0  0  0  0  0  0  0  0
   -3.9212   22.3931  -33.5743 H   0  0  0  0  0  0  0  0  0  0  0  0
   -3.0750   25.6740  -30.0140 H   0  0  0  0  0  0  0  0  0  0  0  0
    0.8254   24.1328  -28.0201 H   0  0  0  0  0  0  0  0  0  0  0  0
    2.2706   23.8661  -26.0216 H   0  0  0  0  0  0  0  0  0  0  0  0
    1.5960   24.8570  -23.8510 H   0  0  0  0  0  0  0  0  0  0  0  0
   -1.4320   26.9010  -23.3600 H   0  0  0  0  0  0  0  0  0  0  0  0
   -0.1360   26.0280  -22.5190 H   0  0  0  0  0  0  0  0  0  0  0  0
   -1.9749   26.3841  -25.6643 H   0  0  0  0  0  0  0  0  0  0  0  0
   -1.4420   23.0580  -27.2120 H   0  0  0  0  0  0  0  0  0  0  0  0
   -1.3687   18.0128  -27.0936 H   0  0  0  0  0  0  0  0  0  0  0  0
  1  2  3  0
  2  3  1  0
  3  4  2  0
  3  5  1  0
  5  6  1  0
  6  7  2  0
  7  8  1  0
  8  9  2  0
  9 10  1  0
 10 11  1  0
 11 12  1  0
 12 13  2  0
 13 14  1  0
 14 15  2  0
 15 16  1  0
 16 17  1  0
 17 18  2  0
 18 19  1  0
 18 20  1  0
 20 21  2  0
 21 22  1  0
 21 23  1  0
 23 24  2  0
 24 25  1  0
 15 26  1  0
 26 27  1  0
 27 28  2  0
 28 29  1  0
 29 30  2  0
 30 31  1  0
 31 32  2  0
 32 33  1  0
 33 34  1  0
 33 35  2  0
 27 36  1  0
 10 37  2  0
 37  6  1  0
 36 13  1  0
 24 17  1  0
 35 29  1  0
  1 38  1  0
  5 39  1  0
  7 40  1  0
  8 41  1  0
  9 42  1  0
 11 43  1  0
 11 44  1  0
 14 45  1  0
 19 46  1  0
 19 47  1  0
 19 48  1  0
 20 49  1  0
 22 50  1  0
 22 51  1  0
 22 52  1  0
 23 53  1  0
 25 54  1  0
 25 55  1  0
 25 56  1  0
 26 57  1  0
 30 58  1  0
 31 59  1  0
 32 60  1  0
 34 61  1  0
 34 62  1  0
 35 63  1  0
 36 64  1  0
 37 65  1  0
M  END
>  <smiles>  (9) 
C#CC(=O)Nc1cccc(CN=c2cc(Oc3c(C)cc(C)cc3C)[nH]c(=Nc3cccc(N)c3)[nH]2)c1

>  <score_type>  (9) 
oracle

>  <origin>  (9) 
adgpu

>  <m_score__min__energy>  (9) 
-11.300000000000001

>  <m_primary>  (9) 
energy

$$$$
9:0
     RDKit          3D

 32 34  0  0  0  0  0  0  0  0999 V2000
   -9.8270   21.5370  -31.5950 C   0  0  0  0  0  0  0  0  0  0  0  0
   -8.3680   21.5100  -31.9400 C   0  0  0  0  0  0  0  0  0  0  0  0
   -7.5860   22.6840  -31.8110 C   0  0  0  0  0  0  0  0  0  0  0  0
   -6.2210   22.6940  -32.1640 C   0  0  0  0  0  0  0  0  0  0  0  0
   -5.4770   23.9110  -32.0040 N   0  0  0  0  0  0  0  0  0  0  0  0
   -4.8610   24.5690  -30.5240 S   0  0  0  0  0  0  0  0  0  0  0  0
   -3.8640   25.6500  -30.8300 O   0  0  0  0  0  0  0  0  0  0  0  0
   -5.9860   25.1170  -29.6910 O   0  0  0  0  0  0  0  0  0  0  0  0
   -4.0620   23.2920  -29.6280 C   0  0  0  0  0  0  0  0  0  0  0  0
   -4.2090   23.0390  -28.2740 C   0  0  0  0  0  0  0  0  0  0  0  0
   -3.4330   21.9600  -27.8340 C   0  0  0  0  0  0  0  0  0  0  0  0
   -2.6780   21.3690  -28.8400 C   0  0  0  0  0  0  0  0  0  0  0  0
   -2.9730   22.1900  -30.2790 S   0  0  0  0  0  0  0  0  0  0  0  0
   -5.6770   21.4960  -32.6590 C   0  0  0  0  0  0  0  0  0  0  0  0
   -4.4150   21.2480  -33.0640 N   0  0  0  0  0  0  0  0  0  0  0  0
   -4.4510   19.9460  -33.4430 C   0  0  0  0  0  0  0  0  0  0  0  0
   -5.6740   19.3840  -33.2920 N   0  0  0  0  0  0  0  0  0  0  0  0
   -6.0610   18.0120  -33.6000 C   0  0  0  0  0  0  0  0  0  0  0  0
   -6.4380   20.3680  -32.7960 C   0  0  0  0  0  0  0  0  0  0  0  0
   -7.7880   20.3320  -32.4550 C   0  0  0  0  0  0  0  0  0  0  0  0
   -9.9452   21.5392  -30.5014 H   0  0  0  0  0  0  0  0  0  0  0  0
  -10.2864   22.4438  -32.0153 H   0  0  0  0  0  0  0  0  0  0  0  0
  -10.3197   20.6478  -32.0153 H   0  0  0  0  0  0  0  0  0  0  0  0
   -8.0519   23.6042  -31.4287 H   0  0  0  0  0  0  0  0  0  0  0  0
   -4.8662   23.6242  -27.6140 H   0  0  0  0  0  0  0  0  0  0  0  0
   -3.4219   21.6127  -26.7903 H   0  0  0  0  0  0  0  0  0  0  0  0
   -2.0020   20.5100  -28.7165 H   0  0  0  0  0  0  0  0  0  0  0  0
   -3.5774   19.4029  -33.8326 H   0  0  0  0  0  0  0  0  0  0  0  0
   -6.2178   17.4563  -32.6637 H   0  0  0  0  0  0  0  0  0  0  0  0
   -6.9930   18.0163  -34.1843 H   0  0  0  0  0  0  0  0  0  0  0  0
   -5.2642   17.5286  -34.1843 H   0  0  0  0  0  0  0  0  0  0  0  0
   -8.3821   19.4152  -32.5831 H   0  0  0  0  0  0  0  0  0  0  0  0
  1  2  1  0
  2  3  2  0
  3  4  1  0
  4  5  1  0
  5  6  1  0
  6  7  2  0
  6  8  2  0
  6  9  1  0
  9 10  2  0
 10 11  1  0
 11 12  2  0
 12 13  1  0
  4 14  2  0
 14 15  1  0
 15 16  2  0
 16 17  1  0
 17 18  1  0
 17 19  1  0
 19 20  2  0
 20  2  1  0
 13  9  1  0
 19 14  1  0
  1 21  1  0
  1 22  1  0
  1 23  1  0
  3 24  1  0
 10 25  1  0
 11 26  1  0
 12 27  1  0
 16 28  1  0
 18 29  1  0
 18 30  1  0
 18 31  1  0
 20 32  1  0
M  CHG  1   5  -1
M  END
>  <UniqueID>  (10) 
9

>  <SMILES>  (10) 
Cc1cc([N-]S(=O)(=O)c2cccs2)c2ncn(C)c2c1

>  <Energy>  (10) 
101.3958486243462

>  <Genealogy>  (10) 
Cc1cc([N-]S(=O)(=O)c2cccs2)c2ncn(C)c2c1 (protonated)
Cc1cc([N-]S(=O)(=O)c2cccs2)c2ncn(C)c2c1 (3D coordinates assigned)
Cc1cc([N-]S(=O)(=O)c2cccs2)c2ncn(C)c2c1 (optimized conformer: 101.3958486243462 kcal/mol)

>  <smiles>  (10) 
Cc1cc(NS(=O)(=O)c2cccs2)c2ncn(C)c2c1

>  <score_type>  (10) 
oracle

>  <origin>  (10) 
adgpu

>  <m_score__min__energy>  (10) 
-8.3300000000000001

>  <m_primary>  (10) 
energy

$$$$
10:0
     RDKit          3D

 42 44  0  0  0  0  0  0  0  0999 V2000
   -8.6890   18.5610  -31.4560 O   0  0  0  0  0  0  0  0  0  0  0  0
   -7.7550   19.2000  -32.0170 C   0  0  0  0  0  0  0  0  0  0  0  0
   -7.7060   20.6700  -31.8950 C   0  0  0  0  0  0  0  0  0  0  0  0
   -6.4550   21.2840  -31.7350 C   0  0  0  0  0  0  0  0  0  0  0  0
   -6.3410   22.6870  -31.7090 C   0  0  0  0  0  0  0  0  0  0  0  0
   -5.0720   23.3390  -31.5630 N   0  0  0  0  0  0  0  0  0  0  0  0
   -4.6580   24.4310  -30.2710 S   0  0  0  0  0  0  0  0  0  0  0  0
   -5.9200   24.9760  -29.6610 O   0  0  0  0  0  0  0  0  0  0  0  0
   -3.8640   25.5720  -30.8330 O   0  0  0  0  0  0  0  0  0  0  0  0
   -3.6700   23.5890  -29.0780 C   0  0  0  0  0  0  0  0  0  0  0  0
   -3.8150   22.2090  -28.8710 C   0  0  0  0  0  0  0  0  0  0  0  0
   -3.0010   21.5520  -27.9410 C   0  0  0  0  0  0  0  0  0  0  0  0
   -2.0490   22.2730  -27.2110 C   0  0  0  0  0  0  0  0  0  0  0  0
   -1.9010   23.6480  -27.4130 C   0  0  0  0  0  0  0  0  0  0  0  0
   -2.7080   24.3050  -28.3500 C   0  0  0  0  0  0  0  0  0  0  0  0
   -7.4960   23.4730  -31.8290 C   0  0  0  0  0  0  0  0  0  0  0  0
   -8.7500   22.8550  -31.9700 C   0  0  0  0  0  0  0  0  0  0  0  0
   -8.8660   21.4600  -32.0090 C   0  0  0  0  0  0  0  0  0  0  0  0
  -10.1310   20.9010  -32.1900 O   0  0  0  0  0  0  0  0  0  0  0  0
   -6.7430   18.4950  -32.7640 N   0  0  0  0  0  0  0  0  0  0  0  0
   -6.5140   17.0690  -32.4730 C   0  0  0  0  0  0  0  0  0  0  0  0
   -5.3320   16.5440  -33.2700 C   0  0  0  0  0  0  0  0  0  0  0  0
   -5.5050   16.8740  -34.6290 O   0  0  0  0  0  0  0  0  0  0  0  0
   -5.2580   18.2520  -34.8040 C   0  0  0  0  0  0  0  0  0  0  0  0
   -6.1670   19.1610  -33.9490 C   0  0  0  0  0  0  0  0  0  0  0  0
   -5.5535   20.6627  -31.6287 H   0  0  0  0  0  0  0  0  0  0  0  0
   -4.5681   21.6435  -29.4394 H   0  0  0  0  0  0  0  0  0  0  0  0
   -3.1095   20.4687  -27.7838 H   0  0  0  0  0  0  0  0  0  0  0  0
   -1.4151   21.7557  -26.4758 H   0  0  0  0  0  0  0  0  0  0  0  0
   -1.1526   24.2126  -26.8375 H   0  0  0  0  0  0  0  0  0  0  0  0
   -2.5873   25.3857  -28.5157 H   0  0  0  0  0  0  0  0  0  0  0  0
   -7.4206   24.5703  -31.8128 H   0  0  0  0  0  0  0  0  0  0  0  0
   -9.6541   23.4763  -32.0510 H   0  0  0  0  0  0  0  0  0  0  0  0
  -10.3130   19.9140  -32.0800 H   0  0  0  0  0  0  0  0  0  0  0  0
   -6.3086   16.9476  -31.3992 H   0  0  0  0  0  0  0  0  0  0  0  0
   -7.4126   16.5006  -32.7551 H   0  0  0  0  0  0  0  0  0  0  0  0
   -4.4041   17.0011  -32.8958 H   0  0  0  0  0  0  0  0  0  0  0  0
   -5.2692   15.4513  -33.1606 H   0  0  0  0  0  0  0  0  0  0  0  0
   -4.2114   18.4540  -34.5325 H   0  0  0  0  0  0  0  0  0  0  0  0
   -5.4718   18.4847  -35.8576 H   0  0  0  0  0  0  0  0  0  0  0  0
   -5.5721   20.0207  -33.6069 H   0  0  0  0  0  0  0  0  0  0  0  0
   -7.0118   19.4562  -34.5886 H   0  0  0  0  0  0  0  0  0  0  0  0
  1  2  2  0
  2  3  1  0
  3  4  2  0
  4  5  1  0
  5  6  1  0
  6  7  1  0
  7  8  2  0
  7  9  2  0
  7 10  1  0
 10 11  2  0
 11 12  1  0
 12 13  2  0
 13 14  1  0
 14 15  2  0
  5 16  2  0
 16 17  1  0
 17 18  2  0
 18 19  1  0
  2 20  1  0
 20 21  1  0
 21 22  1  0
 22 23  1  0
 23 24  1  0
 24 25  1  0
 18  3  1  0
 25 20  1  0
 15 10  1  0
  4 26  1  0
 11 27  1  0
 12 28  1  0
 13 29  1  0
 14 30  1  0
 15 31  1  0
 16 32  1  0
 17 33  1  0
 19 34  1  0
 21 35  1  0
 21 36  1  0
 22 37  1  0
 22 38  1  0
 24 39  1  0
 24 40  1  0
 25 41  1  0
 25 42  1  0
M  CHG  1   6  -1
M  END
>  <UniqueID>  (11) 
10

>  <SMILES>  (11) 
O=C(c1cc([N-]S(=O)(=O)c2ccccc2)ccc1O)N1CCOCC1

>  <Energy>  (11) 
56.32389369021039

>  <Genealogy>  (11) 
O=C(c1cc([N-]S(=O)(=O)c2ccccc2)ccc1O)N1CCOCC1 (protonated)
O=C(c1cc([N-]S(=O)(=O)c2ccccc2)ccc1O)N1CCOCC1 (3D coordinates assigned)
O=C(c1cc([N-]S(=O)(=O)c2ccccc2)ccc1O)N1CCOCC1 (nonaromatic ring conformer: 56.32389369021039 kcal/mol)

>  <smiles>  (11) 
O=C(c1cc(NS(=O)(=O)c2ccccc2)ccc1O)N1CCOCC1

>  <score_type>  (11) 
oracle

>  <origin>  (11) 
adgpu

>  <m_score__min__energy>  (11) 
-9.0700000000000003

>  <m_primary>  (11) 
energy

$$$$
11:0
     RDKit          3D

 71 75  0  0  0  0  0  0  0  0999 V2000
   -0.2720   21.2510  -34.6270 C   0  0  0  0  0  0  0  0  0  0  0  0
    0.2710   20.9420  -33.2340 C   0  0  0  0  0  0  0  0  0  0  0  0
   -0.7860   20.4290  -32.3480 N   0  0  0  0  0  0  0  0  0  0  0  0
   -1.3510   21.2410  -31.2950 C   0  0  0  0  0  0  0  0  0  0  0  0
   -0.9890   21.0460  -30.1010 O   0  0  0  0  0  0  0  0  0  0  0  0
   -2.3570   22.3280  -31.5630 C   0  0  0  0  0  0  0  0  0  0  0  0
   -2.6790   23.1230  -30.3280 C   0  0  0  0  0  0  0  0  0  0  0  0
   -1.7610   23.7250  -29.4910 C   0  0  0  0  0  0  0  0  0  0  0  0
   -2.4280   24.4790  -28.5930 N   0  0  0  0  0  0  0  0  0  0  0  0
   -1.8540   25.3100  -27.5640 C   0  0  0  0  0  0  0  0  0  0  0  0
   -2.3980   25.2990  -26.2660 C   0  0  0  0  0  0  0  0  0  0  0  0
   -1.8540   26.1020  -25.2620 C   0  0  0  0  0  0  0  0  0  0  0  0
   -0.7600   26.9240  -25.5370 C   0  0  0  0  0  0  0  0  0  0  0  0
   -0.2050   26.9410  -26.8190 C   0  0  0  0  0  0  0  0  0  0  0  0
   -0.7450   26.1390  -27.8290 C   0  0  0  0  0  0  0  0  0  0  0  0
   -3.7290   24.4010  -28.8280 N   0  0  0  0  0  0  0  0  0  0  0  0
   -3.9160   23.5710  -29.8730 C   0  0  0  0  0  0  0  0  0  0  0  0
   -5.2420   23.3300  -30.4730 C   0  0  0  0  0  0  0  0  0  0  0  0
   -5.4240   23.5310  -31.8510 C   0  0  0  0  0  0  0  0  0  0  0  0
   -6.6750   23.3170  -32.4360 C   0  0  0  0  0  0  0  0  0  0  0  0
   -7.7700   22.9130  -31.6470 C   0  0  0  0  0  0  0  0  0  0  0  0
   -9.0400   22.6720  -32.1900 O   0  0  0  0  0  0  0  0  0  0  0  0
   -9.8630   21.5620  -31.8370 C   0  0  0  0  0  0  0  0  0  0  0  0
   -7.5920   22.7480  -30.2690 C   0  0  0  0  0  0  0  0  0  0  0  0
   -6.3410   22.9610  -29.6830 C   0  0  0  0  0  0  0  0  0  0  0  0
   -1.4910   19.2270  -32.7140 C   0  0  0  0  0  0  0  0  0  0  0  0
   -2.6930   19.2900  -33.4470 C   0  0  0  0  0  0  0  0  0  0  0  0
   -3.2820   20.5780  -33.7070 N   0  0  0  0  0  0  0  0  0  0  0  0
   -3.2790   18.1270  -33.9030 N   0  0  0  0  0  0  0  0  0  0  0  0
   -4.4990   18.1700  -34.7420 C   0  0  0  0  0  0  0  0  0  0  0  0
   -5.7320   18.4110  -33.9030 C   0  0  0  0  0  0  0  0  0  0  0  0
   -6.2570   17.3890  -33.0920 C   0  0  0  0  0  0  0  0  0  0  0  0
   -7.3830   17.6260  -32.2970 C   0  0  0  0  0  0  0  0  0  0  0  0
   -7.9850   18.8870  -32.2950 C   0  0  0  0  0  0  0  0  0  0  0  0
   -7.4600   19.9140  -33.0840 C   0  0  0  0  0  0  0  0  0  0  0  0
   -6.3320   19.6820  -33.8750 C   0  0  0  0  0  0  0  0  0  0  0  0
   -2.7000   16.9130  -33.6060 C   0  0  0  0  0  0  0  0  0  0  0  0
   -3.2130   15.8350  -34.0180 O   0  0  0  0  0  0  0  0  0  0  0  0
   -1.5610   16.8510  -32.8700 N   0  0  0  0  0  0  0  0  0  0  0  0
   -0.9400   17.9740  -32.4360 C   0  0  0  0  0  0  0  0  0  0  0  0
    0.1430   17.8800  -31.7990 O   0  0  0  0  0  0  0  0  0  0  0  0
   -1.2248   21.7932  -34.5371 H   0  0  0  0  0  0  0  0  0  0  0  0
    0.4530   21.8718  -35.1738 H   0  0  0  0  0  0  0  0  0  0  0  0
   -0.4354   20.3106  -35.1738 H   0  0  0  0  0  0  0  0  0  0  0  0
    1.0652   20.1857  -33.3190 H   0  0  0  0  0  0  0  0  0  0  0  0
    0.6642   21.8736  -32.8009 H   0  0  0  0  0  0  0  0  0  0  0  0
   -1.9488   23.0080  -32.3252 H   0  0  0  0  0  0  0  0  0  0  0  0
   -3.2858   21.8501  -31.9079 H   0  0  0  0  0  0  0  0  0  0  0  0
   -0.6685   23.6092  -29.5469 H   0  0  0  0  0  0  0  0  0  0  0  0
   -3.2589   24.6524  -26.0408 H   0  0  0  0  0  0  0  0  0  0  0  0
   -2.2886   26.0869  -24.2516 H   0  0  0  0  0  0  0  0  0  0  0  0
   -0.3351   27.5580  -24.7449 H   0  0  0  0  0  0  0  0  0  0  0  0
    0.6589   27.5869  -27.0343 H   0  0  0  0  0  0  0  0  0  0  0  0
   -0.3021   26.1550  -28.8358 H   0  0  0  0  0  0  0  0  0  0  0  0
   -4.5778   23.8585  -32.4728 H   0  0  0  0  0  0  0  0  0  0  0  0
   -6.8054   23.4648  -33.5182 H   0  0  0  0  0  0  0  0  0  0  0  0
   -9.9217   21.4828  -30.7414 H   0  0  0  0  0  0  0  0  0  0  0  0
  -10.8725   21.7085  -32.2487 H   0  0  0  0  0  0  0  0  0  0  0  0
   -9.4296   20.6386  -32.2487 H   0  0  0  0  0  0  0  0  0  0  0  0
   -8.4441   22.4480  -29.6413 H   0  0  0  0  0  0  0  0  0  0  0  0
   -6.2176   22.8387  -28.5968 H   0  0  0  0  0  0  0  0  0  0  0  0
   -3.0010   21.1830  -34.5060 H   0  0  0  0  0  0  0  0  0  0  0  0
   -4.0680   20.9400  -33.1290 H   0  0  0  0  0  0  0  0  0  0  0  0
   -4.4006   18.9828  -35.4766 H   0  0  0  0  0  0  0  0  0  0  0  0
   -4.6072   17.1996  -35.2487 H   0  0  0  0  0  0  0  0  0  0  0  0
   -5.7795   16.3981  -33.0829 H   0  0  0  0  0  0  0  0  0  0  0  0
   -7.7949   16.8192  -31.6729 H   0  0  0  0  0  0  0  0  0  0  0  0
   -8.8726   19.0714  -31.6720 H   0  0  0  0  0  0  0  0  0  0  0  0
   -7.9353   20.9060  -33.0823 H   0  0  0  0  0  0  0  0  0  0  0  0
   -5.9108   20.4988  -34.4795 H   0  0  0  0  0  0  0  0  0  0  0  0
   -1.1370   15.9190  -32.6560 H   0  0  0  0  0  0  0  0  0  0  0  0
  1  2  1  0
  2  3  1  0
  3  4  1  0
  4  5  2  0
  4  6  1  0
  6  7  1  0
  7  8  2  0
  8  9  1  0
  9 10  1  0
 10 11  2  0
 11 12  1  0
 12 13  2  0
 13 14  1  0
 14 15  2  0
  9 16  1  0
 16 17  2  0
 17 18  1  0
 18 19  2  0
 19 20  1  0
 20 21  2  0
 21 22  1  0
 22 23  1  0
 21 24  1  0
 24 25  2  0
  3 26  1  0
 26 27  2  0
 27 28  1  0
 27 29  1  0
 29 30  1  0
 30 31  1  0
 31 32  2  0
 32 33  1  0
 33 34  2  0
 34 35  1  0
 35 36  2  0
 29 37  1  0
 37 38  2  0
 37 39  1  0
 39 40  1  0
 40 41  2  0
 17  7  1  0
 25 18  1  0
 40 26  1  0
 15 10  1  0
 36 31  1  0
  1 42  1  0
  1 43  1  0
  1 44  1  0
  2 45  1  0
  2 46  1  0
  6 47  1  0
  6 48  1  0
  8 49  1  0
 11 50  1  0
 12 51  1  0
 13 52  1  0
 14 53  1  0
 15 54  1  0
 19 55  1  0
 20 56  1  0
 23 57  1  0
 23 58  1  0
 23 59  1  0
 24 60  1  0
 25 61  1  0
 28 62  1  0
 28 63  1  0
 30 64  1  0
 30 65  1  0
 32 66  1  0
 33 67  1  0
 34 68  1  0
 35 69  1  0
 36 70  1  0
 39 71  1  0
M  END
>  <UniqueID>  (12) 
11

>  <SMILES>  (12) 
CCN(C(=O)Cc1cn(-c2ccccc2)nc1-c1ccc(OC)cc1)c1c(N)n(Cc2ccccc2)c(=O)[nH]c1=O

>  <Energy>  (12) 
121.46753502899256

>  <Genealogy>  (12) 
CCN(C(=O)Cc1cn(-c2ccccc2)nc1-c1ccc(OC)cc1)c1c(N)n(Cc2ccccc2)c(=O)[nH]c1=O (3D coordinates assigned)
CCN(C(=O)Cc1cn(-c2ccccc2)nc1-c1ccc(OC)cc1)c1c(N)n(Cc2ccccc2)c(=O)[nH]c1=O (optimized conformer: 121.46753502899256 kcal/mol)

>  <smiles>  (12) 
CCN(C(=O)Cc1cn(-c2ccccc2)nc1-c1ccc(OC)cc1)c1c(N)n(Cc2ccccc2)c(=O)[nH]c1=O

>  <score_type>  (12) 
oracle

>  <origin>  (12) 
adgpu

>  <m_score__min__energy>  (12) 
-9.9399999999999995

>  <m_primary>  (12) 
energy

$$$$
12:0
     RDKit          3D

 66 70  0  0  0  0  0  0  0  0999 V2000
   -0.6310   21.2780  -33.5990 C   0  0  0  0  0  0  0  0  0  0  0  0
   -1.7330   20.2580  -33.3620 C   0  0  0  0  0  0  0  0  0  0  0  0
   -2.7540   20.5390  -32.4280 C   0  0  0  0  0  0  0  0  0  0  0  0
   -2.7550   21.7800  -31.6130 C   0  0  0  0  0  0  0  0  0  0  0  0
   -1.6370   22.1140  -30.8330 C   0  0  0  0  0  0  0  0  0  0  0  0
   -1.6350   23.2870  -30.0730 C   0  0  0  0  0  0  0  0  0  0  0  0
   -2.7480   24.1340  -30.0870 C   0  0  0  0  0  0  0  0  0  0  0  0
   -2.7450   25.2990  -29.3300 O   0  0  0  0  0  0  0  0  0  0  0  0
   -3.8640   23.8080  -30.8660 C   0  0  0  0  0  0  0  0  0  0  0  0
   -3.8670   22.6360  -31.6280 C   0  0  0  0  0  0  0  0  0  0  0  0
   -3.7830   19.6060  -32.2510 C   0  0  0  0  0  0  0  0  0  0  0  0
   -4.6970   19.8470  -31.4120 O   0  0  0  0  0  0  0  0  0  0  0  0
   -3.7950   18.4390  -32.9650 N   0  0  0  0  0  0  0  0  0  0  0  0
   -4.8900   17.4580  -32.7670 C   0  0  0  0  0  0  0  0  0  0  0  0
   -6.1530   17.7710  -33.6090 C   0  0  1  0  0  0  0  0  0  0  0  0
   -6.8280   16.5570  -34.0810 N   0  0  0  0  0  0  0  0  0  0  0  0
   -7.1060   18.7180  -32.8990 C   0  0  0  0  0  0  0  0  0  0  0  0
   -7.0820   20.1130  -33.1080 C   0  0  0  0  0  0  0  0  0  0  0  0
   -7.9910   20.9420  -32.4460 C   0  0  0  0  0  0  0  0  0  0  0  0
   -8.9580   20.3950  -31.6020 C   0  0  0  0  0  0  0  0  0  0  0  0
   -9.0060   19.0140  -31.4010 C   0  0  0  0  0  0  0  0  0  0  0  0
   -8.0840   18.1810  -32.0390 C   0  0  0  0  0  0  0  0  0  0  0  0
   -2.7630   18.1530  -33.8220 C   0  0  0  0  0  0  0  0  0  0  0  0
   -2.7490   17.0460  -34.4330 O   0  0  0  0  0  0  0  0  0  0  0  0
   -1.7350   19.0440  -34.0180 N   0  0  0  0  0  0  0  0  0  0  0  0
   -0.6420   18.6480  -34.9390 C   0  0  0  0  0  0  0  0  0  0  0  0
    0.7240   18.7570  -34.2750 C   0  0  0  0  0  0  0  0  0  0  0  0
    0.9590   18.0440  -33.0820 C   0  0  0  0  0  0  0  0  0  0  0  0
    2.2120   18.0570  -32.4720 C   0  0  0  0  0  0  0  0  0  0  0  0
    3.2520   18.7920  -33.0310 C   0  0  0  0  0  0  0  0  0  0  0  0
    3.0480   19.5020  -34.2120 C   0  0  0  0  0  0  0  0  0  0  0  0
    1.8000   19.4840  -34.8580 C   0  0  0  0  0  0  0  0  0  0  0  0
    1.6420   20.3590  -36.3910 S   0  0  0  0  0  0  0  0  0  0  0  0
    0.2670   20.1690  -36.9700 O   0  0  0  0  0  0  0  0  0  0  0  0
    2.6520   19.8280  -37.3700 O   0  0  0  0  0  0  0  0  0  0  0  0
    1.8920   22.0750  -36.1300 C   0  0  0  0  0  0  0  0  0  0  0  0
    0.8950   23.0360  -36.0720 C   0  0  0  0  0  0  0  0  0  0  0  0
    1.3910   24.3210  -35.8220 C   0  0  0  0  0  0  0  0  0  0  0  0
    2.7730   24.3660  -35.6840 C   0  0  0  0  0  0  0  0  0  0  0  0
    3.3800   22.8080  -35.8710 S   0  0  0  0  0  0  0  0  0  0  0  0
   -0.2465   21.6338  -32.6318 H   0  0  0  0  0  0  0  0  0  0  0  0
    0.1856   20.8100  -34.1684 H   0  0  0  0  0  0  0  0  0  0  0  0
   -1.0346   22.1282  -34.1684 H   0  0  0  0  0  0  0  0  0  0  0  0
   -0.7597   21.4506  -30.8198 H   0  0  0  0  0  0  0  0  0  0  0  0
   -0.7567   23.5445  -29.4629 H   0  0  0  0  0  0  0  0  0  0  0  0
   -4.7392   24.4743  -30.8787 H   0  0  0  0  0  0  0  0  0  0  0  0
   -4.7443   22.3838  -32.2417 H   0  0  0  0  0  0  0  0  0  0  0  0
   -4.5207   16.4609  -33.0489 H   0  0  0  0  0  0  0  0  0  0  0  0
   -5.1839   17.5070  -31.7081 H   0  0  0  0  0  0  0  0  0  0  0  0
   -5.7984   18.3000  -34.5059 H   0  0  0  0  0  0  0  0  0  0  0  0
   -6.3030   15.7070  -33.7770 H   0  0  0  0  0  0  0  0  0  0  0  0
   -6.8220   16.5600  -35.1260 H   0  0  0  0  0  0  0  0  0  0  0  0
   -6.3435   20.5504  -33.7960 H   0  0  0  0  0  0  0  0  0  0  0  0
   -7.9441   22.0314  -32.5909 H   0  0  0  0  0  0  0  0  0  0  0  0
   -9.6816   21.0507  -31.0956 H   0  0  0  0  0  0  0  0  0  0  0  0
   -9.7709   18.5815  -30.7393 H   0  0  0  0  0  0  0  0  0  0  0  0
   -8.1220   17.0950  -31.8682 H   0  0  0  0  0  0  0  0  0  0  0  0
   -0.8023   17.6066  -35.2549 H   0  0  0  0  0  0  0  0  0  0  0  0
   -0.6581   19.3298  -35.8021 H   0  0  0  0  0  0  0  0  0  0  0  0
    0.1405   17.4683  -32.6253 H   0  0  0  0  0  0  0  0  0  0  0  0
    2.3786   17.4852  -31.5472 H   0  0  0  0  0  0  0  0  0  0  0  0
    4.2362   18.8127  -32.5402 H   0  0  0  0  0  0  0  0  0  0  0  0
    3.8747   20.0845  -34.6447 H   0  0  0  0  0  0  0  0  0  0  0  0
   -0.1734   22.8126  -36.2081 H   0  0  0  0  0  0  0  0  0  0  0  0
    0.7482   25.2101  -35.7424 H   0  0  0  0  0  0  0  0  0  0  0  0
    3.3698   25.2685  -35.4858 H   0  0  0  0  0  0  0  0  0  0  0  0
  1  2  1  0
  2  3  2  0
  3  4  1  0
  4  5  2  0
  5  6  1  0
  6  7  2  0
  7  8  1  0
  7  9  1  0
  9 10  2  0
  3 11  1  0
 11 12  2  0
 11 13  1  0
 13 14  1  0
 14 15  1  0
 15 16  1  0
 15 17  1  0
 17 18  2  0
 18 19  1  0
 19 20  2  0
 20 21  1  0
 21 22  2  0
 13 23  1  0
 23 24  2  0
 23 25  1  0
 25 26  1  0
 26 27  1  0
 27 28  2  0
 28 29  1  0
 29 30  2  0
 30 31  1  0
 31 32  2  0
 32 33  1  0
 33 34  2  0
 33 35  2  0
 33 36  1  0
 36 37  2  0
 37 38  1  0
 38 39  2  0
 39 40  1  0
 25  2  1  0
 32 27  1  0
 40 36  1  0
 10  4  1  0
 22 17  1  0
  1 41  1  0
  1 42  1  0
  1 43  1  0
  5 44  1  0
  6 45  1  0
  9 46  1  0
 10 47  1  0
 14 48  1  0
 14 49  1  0
 15 50  1  6
 16 51  1  0
 16 52  1  0
 18 53  1  0
 19 54  1  0
 20 55  1  0
 21 56  1  0
 22 57  1  0
 26 58  1  0
 26 59  1  0
 28 60  1  0
 29 61  1  0
 30 62  1  0
 31 63  1  0
 37 64  1  0
 38 65  1  0
 39 66  1  0
M  CHG  1   8  -1
M  END
>  <UniqueID>  (13) 
12

>  <SMILES>  (13) 
Cc1c(-c2ccc([O-])cc2)c(=O)n(C[C@@H](N)c2ccccc2)c(=O)n1Cc1ccccc1S(=O)(=O)c1cccs1

>  <Energy>  (13) 
120.27565180539679

>  <Genealogy>  (13) 
Cc1c(-c2ccc([O-])cc2)c(=O)n(CC(N)c2ccccc2)c(=O)n1Cc1ccccc1S(=O)(=O)c1cccs1 (protonated)
Cc1c(-c2ccc([O-])cc2)c(=O)n(C[C@@H](N)c2ccccc2)c(=O)n1Cc1ccccc1S(=O)(=O)c1cccs1 (chirality)
Cc1c(-c2ccc([O-])cc2)c(=O)n(C[C@@H](N)c2ccccc2)c(=O)n1Cc1ccccc1S(=O)(=O)c1cccs1 (3D coordinates assigned)
Cc1c(-c2ccc([O-])cc2)c(=O)n(C[C@@H](N)c2ccccc2)c(=O)n1Cc1ccccc1S(=O)(=O)c1cccs1 (optimized conformer: 120.27565180539679 kcal/mol)

>  <smiles>  (13) 
Cc1c(-c2ccc(O)cc2)c(=O)n(CC(N)c2ccccc2)c(=O)n1Cc1ccccc1S(=O)(=O)c1cccs1

>  <score_type>  (13) 
oracle

>  <origin>  (13) 
adgpu

>  <m_score__min__energy>  (13) 
-11.56

>  <m_primary>  (13) 
energy

$$$$
13:0
     RDKit          3D

 64 67  0  0  0  0  0  0  0  0999 V2000
    0.3310   21.5700  -35.4110 C   0  0  0  0  0  0  0  0  0  0  0  0
   -0.5180   21.4120  -34.2790 O   0  0  0  0  0  0  0  0  0  0  0  0
   -0.1270   20.8260  -33.0640 C   0  0  0  0  0  0  0  0  0  0  0  0
    1.0460   20.0530  -32.9570 C   0  0  0  0  0  0  0  0  0  0  0  0
    1.4110   19.4870  -31.7340 C   0  0  0  0  0  0  0  0  0  0  0  0
    0.6090   19.6720  -30.6030 C   0  0  0  0  0  0  0  0  0  0  0  0
    1.0720   18.9510  -29.0600 S   0  0  0  0  0  0  0  0  0  0  0  0
    2.5030   19.3000  -28.7610 O   0  0  0  0  0  0  0  0  0  0  0  0
    0.9700   17.4540  -29.1600 O   0  0  0  0  0  0  0  0  0  0  0  0
    0.0580   19.5200  -27.7570 N   0  0  0  0  0  0  0  0  0  0  0  0
   -1.2700   18.8720  -27.8220 C   0  0  0  0  0  0  0  0  0  0  0  0
   -2.2960   19.5360  -26.8760 C   0  0  0  0  0  0  0  0  0  0  0  0
   -1.6150   20.4390  -25.8440 C   0  0  0  0  0  0  0  0  0  0  0  0
   -0.7500   21.5100  -26.5310 C   0  0  0  0  0  0  0  0  0  0  0  0
   -0.0690   20.9850  -27.8100 C   0  0  0  0  0  0  0  0  0  0  0  0
   -0.5610   20.4340  -30.7040 C   0  0  0  0  0  0  0  0  0  0  0  0
   -0.9270   21.0300  -31.9230 C   0  0  0  0  0  0  0  0  0  0  0  0
   -2.1320   21.8090  -32.0220 N   0  0  0  0  0  0  0  0  0  0  0  0
   -2.6930   22.5390  -30.9190 C   0  0  0  0  0  0  0  0  0  0  0  0
   -1.9620   22.8540  -29.9400 O   0  0  0  0  0  0  0  0  0  0  0  0
   -4.1060   22.9850  -30.9420 C   0  0  0  0  0  0  0  0  0  0  0  0
   -5.1170   22.0590  -31.2550 C   0  0  0  0  0  0  0  0  0  0  0  0
   -6.4620   22.4530  -31.2890 C   0  0  0  0  0  0  0  0  0  0  0  0
   -7.7270   21.2950  -31.6950 S   0  0  0  0  0  0  0  0  0  0  0  0
   -8.7640   21.9880  -32.5370 O   0  0  0  0  0  0  0  0  0  0  0  0
   -8.3880   20.7890  -30.4410 O   0  0  0  0  0  0  0  0  0  0  0  0
   -7.0340   19.9610  -32.5850 N   0  0  0  0  0  0  0  0  0  0  0  0
   -5.8440   19.4160  -31.8940 C   0  0  0  0  0  0  0  0  0  0  0  0
   -6.1350   18.0700  -31.2060 C   0  0  0  0  0  0  0  0  0  0  0  0
   -6.6000   17.0730  -32.1050 O   0  0  0  0  0  0  0  0  0  0  0  0
   -7.4200   17.5800  -33.1510 C   0  0  0  0  0  0  0  0  0  0  0  0
   -8.0680   18.9400  -32.8430 C   0  0  0  0  0  0  0  0  0  0  0  0
   -6.8020   23.7830  -31.0210 C   0  0  0  0  0  0  0  0  0  0  0  0
   -5.8050   24.7130  -30.7210 C   0  0  0  0  0  0  0  0  0  0  0  0
   -4.4620   24.3270  -30.6880 C   0  0  0  0  0  0  0  0  0  0  0  0
   -3.4930   25.2910  -30.4320 O   0  0  0  0  0  0  0  0  0  0  0  0
    1.3603   21.7615  -35.0735 H   0  0  0  0  0  0  0  0  0  0  0  0
    0.3087   20.6523  -36.0170 H   0  0  0  0  0  0  0  0  0  0  0  0
   -0.0200   22.4182  -36.0170 H   0  0  0  0  0  0  0  0  0  0  0  0
    1.6785   19.8943  -33.8429 H   0  0  0  0  0  0  0  0  0  0  0  0
    2.3337   18.8927  -31.6595 H   0  0  0  0  0  0  0  0  0  0  0  0
   -1.6457   18.9389  -28.8537 H   0  0  0  0  0  0  0  0  0  0  0  0
   -1.1488   17.8258  -27.5045 H   0  0  0  0  0  0  0  0  0  0  0  0
   -2.9927   20.1414  -27.4745 H   0  0  0  0  0  0  0  0  0  0  0  0
   -2.8288   18.7397  -26.3356 H   0  0  0  0  0  0  0  0  0  0  0  0
   -2.3860   20.9353  -25.2363 H   0  0  0  0  0  0  0  0  0  0  0  0
   -0.9646   19.8177  -25.2108 H   0  0  0  0  0  0  0  0  0  0  0  0
   -1.3905   22.3638  -26.7970 H   0  0  0  0  0  0  0  0  0  0  0  0
    0.0419   21.8037  -25.8263 H   0  0  0  0  0  0  0  0  0  0  0  0
   -0.6745   21.2652  -28.6846 H   0  0  0  0  0  0  0  0  0  0  0  0
    0.9346   21.4283  -27.8885 H   0  0  0  0  0  0  0  0  0  0  0  0
   -1.2010   20.5678  -29.8194 H   0  0  0  0  0  0  0  0  0  0  0  0
   -2.5750   21.9260  -32.9610 H   0  0  0  0  0  0  0  0  0  0  0  0
   -4.8498   21.0150  -31.4754 H   0  0  0  0  0  0  0  0  0  0  0  0
   -5.0418   19.2700  -32.6324 H   0  0  0  0  0  0  0  0  0  0  0  0
   -5.5471   20.1349  -31.1162 H   0  0  0  0  0  0  0  0  0  0  0  0
   -5.2087   17.7109  -30.7338 H   0  0  0  0  0  0  0  0  0  0  0  0
   -6.9327   18.2444  -30.4689 H   0  0  0  0  0  0  0  0  0  0  0  0
   -6.7997   17.6901  -34.0527 H   0  0  0  0  0  0  0  0  0  0  0  0
   -8.2423   16.8615  -33.2836 H   0  0  0  0  0  0  0  0  0  0  0  0
   -8.6784   19.2528  -33.7030 H   0  0  0  0  0  0  0  0  0  0  0  0
   -8.6976   18.8382  -31.9468 H   0  0  0  0  0  0  0  0  0  0  0  0
   -7.8561   24.0965  -31.0466 H   0  0  0  0  0  0  0  0  0  0  0  0
   -6.0783   25.7572  -30.5090 H   0  0  0  0  0  0  0  0  0  0  0  0
  1  2  1  0
  2  3  1  0
  3  4  2  0
  4  5  1  0
  5  6  2  0
  6  7  1  0
  7  8  2  0
  7  9  2  0
  7 10  1  0
 10 11  1  0
 11 12  1  0
 12 13  1  0
 13 14  1  0
 14 15  1  0
  6 16  1  0
 16 17  2  0
 17 18  1  0
 18 19  1  0
 19 20  2  0
 19 21  1  0
 21 22  2  0
 22 23  1  0
 23 24  1  0
 24 25  2  0
 24 26  2  0
 24 27  1  0
 27 28  1  0
 28 29  1  0
 29 30  1  0
 30 31  1  0
 31 32  1  0
 23 33  2  0
 33 34  1  0
 34 35  2  0
 35 36  1  0
 17  3  1  0
 35 21  1  0
 15 10  1  0
 32 27  1  0
  1 37  1  0
  1 38  1  0
  1 39  1  0
  4 40  1  0
  5 41  1  0
 11 42  1  0
 11 43  1  0
 12 44  1  0
 12 45  1  0
 13 46  1  0
 13 47  1  0
 14 48  1  0
 14 49  1  0
 15 50  1  0
 15 51  1  0
 16 52  1  0
 18 53  1  0
 22 54  1  0
 28 55  1  0
 28 56  1  0
 29 57  1  0
 29 58  1  0
 31 59  1  0
 31 60  1  0
 32 61  1  0
 32 62  1  0
 33 63  1  0
 34 64  1  0
M  CHG  1  36  -1
M  END
>  <UniqueID>  (14) 
13

>  <SMILES>  (14) 
COc1ccc(S(=O)(=O)N2CCCCC2)cc1NC(=O)c1cc(S(=O)(=O)N2CCOCC2)ccc1[O-]

>  <Energy>  (14) 
87.65315735514824

>  <Genealogy>  (14) 
COc1ccc(S(=O)(=O)N2CCCCC2)cc1NC(=O)c1cc(S(=O)(=O)N2CCOCC2)ccc1[O-] (protonated)
COc1ccc(S(=O)(=O)N2CCCCC2)cc1NC(=O)c1cc(S(=O)(=O)N2CCOCC2)ccc1[O-] (3D coordinates assigned)
COc1ccc(S(=O)(=O)N2CCCCC2)cc1NC(=O)c1cc(S(=O)(=O)N2CCOCC2)ccc1[O-] (nonaromatic ring conformer: 87.65315735514824 kcal/mol)

>  <smiles>  (14) 
COc1ccc(S(=O)(=O)N2CCCCC2)cc1NC(=O)c1cc(S(=O)(=O)N2CCOCC2)ccc1O

>  <score_type>  (14) 
oracle

>  <origin>  (14) 
adgpu

>  <m_score__min__energy>  (14) 
-13.279999999999999

>  <m_primary>  (14) 
energy

$$$$
14:0
     RDKit          3D

 49 51  0  0  0  0  0  0  0  0999 V2000
   -9.5330   20.0480  -32.7390 C   0  0  0  0  0  0  0  0  0  0  0  0
   -8.3050   20.7490  -32.2410 C   0  0  0  0  0  0  0  0  0  0  0  0
   -7.0370   20.3720  -32.7060 C   0  0  0  0  0  0  0  0  0  0  0  0
   -5.8900   21.0020  -32.2160 C   0  0  0  0  0  0  0  0  0  0  0  0
   -5.9890   21.9970  -31.2330 C   0  0  0  0  0  0  0  0  0  0  0  0
   -4.7940   22.6450  -30.7650 N   0  0  0  0  0  0  0  0  0  0  0  0
   -4.5770   24.0670  -30.8060 C   0  0  0  0  0  0  0  0  0  0  0  0
   -5.4380   24.8310  -31.3190 O   0  0  0  0  0  0  0  0  0  0  0  0
   -3.3690   24.6400  -30.2930 N   0  0  0  0  0  0  0  0  0  0  0  0
   -2.6430   24.1820  -29.1430 C   0  0  0  0  0  0  0  0  0  0  0  0
   -3.0330   23.0280  -28.4540 C   0  0  0  0  0  0  0  0  0  0  0  0
   -2.3440   22.6220  -27.3140 C   0  0  0  0  0  0  0  0  0  0  0  0
   -1.2630   23.3710  -26.8240 C   0  0  0  0  0  0  0  0  0  0  0  0
   -0.5550   22.8860  -25.5850 C   0  0  0  0  0  0  0  0  0  0  0  0
   -0.8550   24.5440  -27.5130 C   0  0  0  0  0  0  0  0  0  0  0  0
    0.5130   25.5180  -26.9170 S   0  0  0  0  0  0  0  0  0  0  0  0
    1.7870   24.9440  -27.4740 O   0  0  0  0  0  0  0  0  0  0  0  0
    0.4110   26.9400  -27.3940 O   0  0  0  0  0  0  0  0  0  0  0  0
    0.5760   25.4740  -25.1670 N   0  0  0  0  0  0  0  0  0  0  0  0
   -0.7040   25.8750  -24.5580 C   0  0  0  0  0  0  0  0  0  0  0  0
   -0.9430   27.4030  -24.6430 C   0  0  0  0  0  0  0  0  0  0  0  0
    0.2350   28.1470  -24.9060 O   0  0  0  0  0  0  0  0  0  0  0  0
    1.3070   27.6490  -24.1390 C   0  0  0  0  0  0  0  0  0  0  0  0
    1.7180   26.2520  -24.6360 C   0  0  0  0  0  0  0  0  0  0  0  0
   -1.5750   24.9510  -28.6600 C   0  0  0  0  0  0  0  0  0  0  0  0
   -1.2400   26.1220  -29.3320 O   0  0  0  0  0  0  0  0  0  0  0  0
   -7.2620   22.3800  -30.7720 C   0  0  0  0  0  0  0  0  0  0  0  0
   -8.4090   21.7500  -31.2640 C   0  0  0  0  0  0  0  0  0  0  0  0
  -10.1325   19.7058  -31.8826 H   0  0  0  0  0  0  0  0  0  0  0  0
  -10.1290   20.7419  -33.3499 H   0  0  0  0  0  0  0  0  0  0  0  0
   -9.2385   19.1819  -33.3499 H   0  0  0  0  0  0  0  0  0  0  0  0
   -6.9448   19.5765  -33.4601 H   0  0  0  0  0  0  0  0  0  0  0  0
   -4.9017   20.7151  -32.6045 H   0  0  0  0  0  0  0  0  0  0  0  0
   -4.0760   22.0430  -30.3040 H   0  0  0  0  0  0  0  0  0  0  0  0
   -3.8886   22.4384  -28.8150 H   0  0  0  0  0  0  0  0  0  0  0  0
   -2.6505   21.7038  -26.7916 H   0  0  0  0  0  0  0  0  0  0  0  0
   -1.0861   23.2498  -24.6931 H   0  0  0  0  0  0  0  0  0  0  0  0
   -0.5387   21.7861  -25.5788 H   0  0  0  0  0  0  0  0  0  0  0  0
    0.4765   23.2681  -25.5788 H   0  0  0  0  0  0  0  0  0  0  0  0
   -1.5220   25.3594  -25.0824 H   0  0  0  0  0  0  0  0  0  0  0  0
   -0.6713   25.5985  -23.4938 H   0  0  0  0  0  0  0  0  0  0  0  0
   -1.6650   27.5979  -25.4497 H   0  0  0  0  0  0  0  0  0  0  0  0
   -1.3169   27.7267  -23.6604 H   0  0  0  0  0  0  0  0  0  0  0  0
    2.1645   28.3322  -24.2279 H   0  0  0  0  0  0  0  0  0  0  0  0
    0.9902   27.5752  -23.0882 H   0  0  0  0  0  0  0  0  0  0  0  0
    2.4655   26.3687  -25.4345 H   0  0  0  0  0  0  0  0  0  0  0  0
    2.1237   25.7000  -23.7754 H   0  0  0  0  0  0  0  0  0  0  0  0
   -7.3552   23.1786  -30.0212 H   0  0  0  0  0  0  0  0  0  0  0  0
   -9.3989   22.0411  -30.8826 H   0  0  0  0  0  0  0  0  0  0  0  0
  1  2  1  0
  2  3  2  0
  3  4  1  0
  4  5  2  0
  5  6  1  0
  6  7  1  0
  7  8  2  0
  7  9  1  0
  9 10  1  0
 10 11  2  0
 11 12  1  0
 12 13  2  0
 13 14  1  0
 13 15  1  0
 15 16  1  0
 16 17  2  0
 16 18  2  0
 16 19  1  0
 19 20  1  0
 20 21  1  0
 21 22  1  0
 22 23  1  0
 23 24  1  0
 15 25  2  0
 25 26  1  0
  5 27  1  0
 27 28  2  0
 28  2  1  0
 25 10  1  0
 24 19  1  0
  1 29  1  0
  1 30  1  0
  1 31  1  0
  3 32  1  0
  4 33  1  0
  6 34  1  0
 11 35  1  0
 12 36  1  0
 14 37  1  0
 14 38  1  0
 14 39  1  0
 20 40  1  0
 20 41  1  0
 21 42  1  0
 21 43  1  0
 23 44  1  0
 23 45  1  0
 24 46  1  0
 24 47  1  0
 27 48  1  0
 28 49  1  0
M  CHG  2   9  -1  26  -1
M  END
>  <UniqueID>  (15) 
14

>  <SMILES>  (15) 
Cc1ccc(NC(=O)[N-]c2ccc(C)c(S(=O)(=O)N3CCOCC3)c2[O-])cc1

>  <Energy>  (15) 
72.04652169611253

>  <Genealogy>  (15) 
Cc1ccc(NC(=O)[N-]c2ccc(C)c(S(=O)(=O)N3CCOCC3)c2[O-])cc1 (protonated)
Cc1ccc(NC(=O)[N-]c2ccc(C)c(S(=O)(=O)N3CCOCC3)c2[O-])cc1 (3D coordinates assigned)
Cc1ccc(NC(=O)[N-]c2ccc(C)c(S(=O)(=O)N3CCOCC3)c2[O-])cc1 (nonaromatic ring conformer: 72.04652169611253 kcal/mol)

>  <smiles>  (15) 
Cc1ccc(NC(=O)Nc2ccc(C)c(S(=O)(=O)N3CCOCC3)c2O)cc1

>  <score_type>  (15) 
oracle

>  <origin>  (15) 
adgpu

>  <m_score__min__energy>  (15) 
-13.18

>  <m_primary>  (15) 
energy

$$$$
15:0
     RDKit          3D

 55 58  0  0  0  0  0  0  0  0999 V2000
   -6.6390   25.1540  -29.7360 C   0  0  0  0  0  0  0  0  0  0  0  0
   -5.1920   25.3570  -30.8190 S   0  0  0  0  0  0  0  0  0  0  0  0
   -4.9470   23.5880  -31.0100 C   0  0  0  0  0  0  0  0  0  0  0  0
   -5.5750   22.8630  -31.9550 N   0  0  0  0  0  0  0  0  0  0  0  0
   -5.1870   21.6020  -31.6530 C   0  0  0  0  0  0  0  0  0  0  0  0
   -5.6170   20.4060  -32.4090 C   0  0  0  0  0  0  0  0  0  0  0  0
   -4.7900   19.8560  -33.4050 C   0  0  0  0  0  0  0  0  0  0  0  0
   -5.1990   18.7240  -34.1180 C   0  0  0  0  0  0  0  0  0  0  0  0
   -6.4350   18.1330  -33.8440 C   0  0  0  0  0  0  0  0  0  0  0  0
   -7.2630   18.6710  -32.8570 C   0  0  0  0  0  0  0  0  0  0  0  0
   -6.8590   19.8020  -32.1410 C   0  0  0  0  0  0  0  0  0  0  0  0
   -4.3750   21.5550  -30.5760 N   0  0  0  0  0  0  0  0  0  0  0  0
   -4.2210   22.8070  -30.1860 N   0  0  0  0  0  0  0  0  0  0  0  0
   -3.4520   23.1940  -29.0400 C   0  0  0  0  0  0  0  0  0  0  0  0
   -4.2360   23.4780  -27.6250 S   0  0  0  0  0  0  0  0  0  0  0  0
   -2.0280   23.3850  -29.1600 N   0  0  0  0  0  0  0  0  0  0  0  0
   -1.1460   23.6810  -28.0670 C   0  0  0  0  0  0  0  0  0  0  0  0
   -1.0020   22.7920  -26.9890 C   0  0  0  0  0  0  0  0  0  0  0  0
   -0.1130   23.0820  -25.9510 C   0  0  0  0  0  0  0  0  0  0  0  0
    0.6570   24.2520  -25.9870 C   0  0  0  0  0  0  0  0  0  0  0  0
    1.7600   24.6110  -24.6610 S   0  0  0  0  0  0  0  0  0  0  0  0
    3.1310   24.9180  -25.1990 O   0  0  0  0  0  0  0  0  0  0  0  0
    1.8540   23.4000  -23.7740 O   0  0  0  0  0  0  0  0  0  0  0  0
    1.1630   25.9760  -23.7450 N   0  0  0  0  0  0  0  0  0  0  0  0
   -0.3270   26.0140  -23.7590 C   0  0  0  0  0  0  0  0  0  0  0  0
   -0.8890   27.0280  -24.7650 C   0  0  0  0  0  0  0  0  0  0  0  0
   -0.3910   28.4510  -24.4560 C   0  0  0  0  0  0  0  0  0  0  0  0
    1.0130   28.4640  -23.8250 C   0  0  0  0  0  0  0  0  0  0  0  0
    1.8100   27.2200  -24.2290 C   0  0  0  0  0  0  0  0  0  0  0  0
    0.5330   25.1280  -27.0750 C   0  0  0  0  0  0  0  0  0  0  0  0
   -0.3570   24.8370  -28.1130 C   0  0  0  0  0  0  0  0  0  0  0  0
   -6.3192   25.1989  -28.6845 H   0  0  0  0  0  0  0  0  0  0  0  0
   -7.3613   25.9596  -29.9343 H   0  0  0  0  0  0  0  0  0  0  0  0
   -7.1117   24.1807  -29.9343 H   0  0  0  0  0  0  0  0  0  0  0  0
   -3.8164   20.3185  -33.6245 H   0  0  0  0  0  0  0  0  0  0  0  0
   -4.5468   18.2988  -34.8951 H   0  0  0  0  0  0  0  0  0  0  0  0
   -6.7558   17.2436  -34.4061 H   0  0  0  0  0  0  0  0  0  0  0  0
   -8.2355   18.2040  -32.6421 H   0  0  0  0  0  0  0  0  0  0  0  0
   -7.5154   20.2215  -31.3644 H   0  0  0  0  0  0  0  0  0  0  0  0
   -1.5990   23.3330  -30.1100 H   0  0  0  0  0  0  0  0  0  0  0  0
   -1.5916   21.8637  -26.9620 H   0  0  0  0  0  0  0  0  0  0  0  0
   -0.0172   22.3890  -25.1021 H   0  0  0  0  0  0  0  0  0  0  0  0
    1.4680   25.8220  -22.7550 H   0  0  0  0  0  0  0  0  0  0  0  0
   -0.7012   25.0137  -24.0226 H   0  0  0  0  0  0  0  0  0  0  0  0
   -0.6588   26.3242  -22.7572 H   0  0  0  0  0  0  0  0  0  0  0  0
   -0.5651   26.7463  -25.7778 H   0  0  0  0  0  0  0  0  0  0  0  0
   -1.9866   27.0192  -24.6930 H   0  0  0  0  0  0  0  0  0  0  0  0
   -0.3608   29.0249  -25.3939 H   0  0  0  0  0  0  0  0  0  0  0  0
   -1.0864   28.8964  -23.7294 H   0  0  0  0  0  0  0  0  0  0  0  0
    1.5511   29.3614  -24.1642 H   0  0  0  0  0  0  0  0  0  0  0  0
    0.9043   28.4694  -22.7304 H   0  0  0  0  0  0  0  0  0  0  0  0
    1.8807   27.1821  -25.3261 H   0  0  0  0  0  0  0  0  0  0  0  0
    2.8087   27.2882  -23.7731 H   0  0  0  0  0  0  0  0  0  0  0  0
    1.1375   26.0463  -27.1118 H   0  0  0  0  0  0  0  0  0  0  0  0
   -0.4380   25.5203  -28.9712 H   0  0  0  0  0  0  0  0  0  0  0  0
  1  2  1  0
  2  3  1  0
  3  4  2  0
  4  5  1  0
  5  6  1  0
  6  7  2  0
  7  8  1  0
  8  9  2  0
  9 10  1  0
 10 11  2  0
  5 12  2  0
 12 13  1  0
 13 14  1  0
 14 15  2  0
 14 16  1  0
 16 17  1  0
 17 18  2  0
 18 19  1  0
 19 20  2  0
 20 21  1  0
 21 22  2  0
 21 23  2  0
 21 24  1  0
 24 25  1  0
 25 26  1  0
 26 27  1  0
 27 28  1  0
 28 29  1  0
 20 30  1  0
 30 31  2  0
 13  3  1  0
 31 17  1  0
 11  6  1  0
 29 24  1  0
  1 32  1  0
  1 33  1  0
  1 34  1  0
  7 35  1  0
  8 36  1  0
  9 37  1  0
 10 38  1  0
 11 39  1  0
 16 40  1  0
 18 41  1  0
 19 42  1  0
 24 43  1  0
 25 44  1  0
 25 45  1  0
 26 46  1  0
 26 47  1  0
 27 48  1  0
 27 49  1  0
 28 50  1  0
 28 51  1  0
 29 52  1  0
 29 53  1  0
 30 54  1  0
 31 55  1  0
M  CHG  1  24   1
M  END
>  <UniqueID>  (16) 
15

>  <SMILES>  (16) 
CSc1nc(-c2ccccc2)nn1C(=S)Nc1ccc(S(=O)(=O)[NH+]2CCCCC2)cc1

>  <Energy>  (16) 
102.72486967884599

>  <Genealogy>  (16) 
CSc1nc(-c2ccccc2)nn1C(=S)Nc1ccc(S(=O)(=O)[NH+]2CCCCC2)cc1 (protonated)
CSc1nc(-c2ccccc2)nn1C(=S)Nc1ccc(S(=O)(=O)[NH+]2CCCCC2)cc1 (3D coordinates assigned)
CSc1nc(-c2ccccc2)nn1C(=S)Nc1ccc(S(=O)(=O)[NH+]2CCCCC2)cc1 (nonaromatic ring conformer: 102.72486967884599 kcal/mol)

>  <smiles>  (16) 
CSc1nc(-c2ccccc2)nn1C(=S)Nc1ccc(S(=O)(=O)N2CCCCC2)cc1

>  <score_type>  (16) 
oracle

>  <origin>  (16) 
adgpu

>  <m_score__min__energy>  (16) 
-9.8000000000000007

>  <m_primary>  (16) 
energy

$$$$
16:0
     RDKit          3D

 47 49  0  0  0  0  0  0  0  0999 V2000
   -1.3440   23.0880  -26.8330 C   0  0  0  0  0  0  0  0  0  0  0  0
   -1.2950   21.8470  -27.7450 C   0  0  0  0  0  0  0  0  0  0  0  0
    0.1430   21.6270  -28.2520 C   0  0  0  0  0  0  0  0  0  0  0  0
   -1.7230   20.6120  -26.9210 C   0  0  0  0  0  0  0  0  0  0  0  0
   -2.2310   22.0410  -28.9290 C   0  0  0  0  0  0  0  0  0  0  0  0
   -3.0670   23.0900  -29.0720 N   0  0  0  0  0  0  0  0  0  0  0  0
   -3.7250   22.8590  -30.2290 C   0  0  0  0  0  0  0  0  0  0  0  0
   -4.7740   23.7740  -30.7090 C   0  0  0  0  0  0  0  0  0  0  0  0
   -4.4810   24.9920  -30.8520 O   0  0  0  0  0  0  0  0  0  0  0  0
   -6.1640   23.3240  -30.9670 C   0  0  0  0  0  0  0  0  0  0  0  0
   -6.8130   22.4300  -30.0940 C   0  0  0  0  0  0  0  0  0  0  0  0
   -8.1170   22.0040  -30.3570 C   0  0  0  0  0  0  0  0  0  0  0  0
   -8.7940   22.4740  -31.4850 C   0  0  0  0  0  0  0  0  0  0  0  0
   -8.1690   23.3770  -32.3470 C   0  0  0  0  0  0  0  0  0  0  0  0
   -6.8650   23.8060  -32.0890 C   0  0  0  0  0  0  0  0  0  0  0  0
   -3.3260   21.7150  -30.8400 N   0  0  0  0  0  0  0  0  0  0  0  0
   -3.7550   21.1040  -32.4190 S   0  0  0  0  0  0  0  0  0  0  0  0
   -3.9740   22.2490  -33.3670 O   0  0  0  0  0  0  0  0  0  0  0  0
   -2.6290   20.2530  -32.9350 O   0  0  0  0  0  0  0  0  0  0  0  0
   -5.2550   20.1820  -32.3840 C   0  0  0  0  0  0  0  0  0  0  0  0
   -5.3590   19.0120  -31.6150 C   0  0  0  0  0  0  0  0  0  0  0  0
   -6.5560   18.2900  -31.5930 C   0  0  0  0  0  0  0  0  0  0  0  0
   -7.6500   18.7270  -32.3450 C   0  0  0  0  0  0  0  0  0  0  0  0
   -7.5470   19.8820  -33.1250 C   0  0  0  0  0  0  0  0  0  0  0  0
   -6.3500   20.6050  -33.1510 C   0  0  0  0  0  0  0  0  0  0  0  0
   -2.4050   21.1920  -30.0070 C   0  0  0  0  0  0  0  0  0  0  0  0
   -1.7490   19.9760  -30.1900 O   0  0  0  0  0  0  0  0  0  0  0  0
   -1.3314   22.7700  -25.7801 H   0  0  0  0  0  0  0  0  0  0  0  0
   -0.4703   23.7254  -27.0339 H   0  0  0  0  0  0  0  0  0  0  0  0
   -2.2652   23.6546  -27.0339 H   0  0  0  0  0  0  0  0  0  0  0  0
    0.8226   21.5230  -27.3934 H   0  0  0  0  0  0  0  0  0  0  0  0
    0.1807   20.7126  -28.8623 H   0  0  0  0  0  0  0  0  0  0  0  0
    0.4524   22.4883  -28.8623 H   0  0  0  0  0  0  0  0  0  0  0  0
   -1.6435   20.8415  -25.8482 H   0  0  0  0  0  0  0  0  0  0  0  0
   -2.7637   20.3517  -27.1641 H   0  0  0  0  0  0  0  0  0  0  0  0
   -1.0665   19.7635  -27.1641 H   0  0  0  0  0  0  0  0  0  0  0  0
   -6.2893   22.0644  -29.1984 H   0  0  0  0  0  0  0  0  0  0  0  0
   -8.6118   21.2971  -29.6747 H   0  0  0  0  0  0  0  0  0  0  0  0
   -9.8187   22.1329  -31.6938 H   0  0  0  0  0  0  0  0  0  0  0  0
   -8.7048   23.7516  -33.2316 H   0  0  0  0  0  0  0  0  0  0  0  0
   -6.3824   24.5253  -32.7670 H   0  0  0  0  0  0  0  0  0  0  0  0
   -4.4966   18.6625  -31.0284 H   0  0  0  0  0  0  0  0  0  0  0  0
   -6.6368   17.3778  -30.9837 H   0  0  0  0  0  0  0  0  0  0  0  0
   -8.5931   18.1612  -32.3229 H   0  0  0  0  0  0  0  0  0  0  0  0
   -8.4079   20.2227  -33.7189 H   0  0  0  0  0  0  0  0  0  0  0  0
   -6.2674   21.5074  -33.7745 H   0  0  0  0  0  0  0  0  0  0  0  0
   -1.6730   19.5360  -31.0970 H   0  0  0  0  0  0  0  0  0  0  0  0
  1  2  1  0
  2  3  1  0
  2  4  1  0
  2  5  1  0
  5  6  1  0
  6  7  2  0
  7  8  1  0
  8  9  2  0
  8 10  1  0
 10 11  2  0
 11 12  1  0
 12 13  2  0
 13 14  1  0
 14 15  2  0
  7 16  1  0
 16 17  1  0
 17 18  2  0
 17 19  2  0
 17 20  1  0
 20 21  2  0
 21 22  1  0
 22 23  2  0
 23 24  1  0
 24 25  2  0
 16 26  1  0
 26 27  1  0
 26  5  2  0
 15 10  1  0
 25 20  1  0
  1 28  1  0
  1 29  1  0
  1 30  1  0
  3 31  1  0
  3 32  1  0
  3 33  1  0
  4 34  1  0
  4 35  1  0
  4 36  1  0
 11 37  1  0
 12 38  1  0
 13 39  1  0
 14 40  1  0
 15 41  1  0
 21 42  1  0
 22 43  1  0
 23 44  1  0
 24 45  1  0
 25 46  1  0
 27 47  1  0
M  END
>  <UniqueID>  (17) 
16

>  <SMILES>  (17) 
CC(C)(C)c1nc(C(=O)c2ccccc2)n(S(=O)(=O)c2ccccc2)c1O

>  <Energy>  (17) 
83.97212524482357

>  <Genealogy>  (17) 
CC(C)(C)c1nc(C(=O)c2ccccc2)n(S(=O)(=O)c2ccccc2)c1O (3D coordinates assigned)
CC(C)(C)c1nc(C(=O)c2ccccc2)n(S(=O)(=O)c2ccccc2)c1O (optimized conformer: 83.97212524482357 kcal/mol)

>  <smiles>  (17) 
CC(C)(C)c1nc(C(=O)c2ccccc2)n(S(=O)(=O)c2ccccc2)c1O

>  <score_type>  (17) 
oracle

>  <origin>  (17) 
adgpu

>  <m_score__min__energy>  (17) 
-9.3499999999999996

>  <m_primary>  (17) 
energy

$$$$
17:0
     RDKit          3D

 56 59  0  0  0  0  0  0  0  0999 V2000
   -8.7480   22.0360  -31.9450 C   0  0  0  0  0  0  0  0  0  0  0  0
   -8.2570   20.6220  -32.0630 C   0  0  0  0  0  0  0  0  0  0  0  0
   -9.1360   19.5470  -31.8680 C   0  0  0  0  0  0  0  0  0  0  0  0
   -8.6700   18.2340  -31.9460 C   0  0  0  0  0  0  0  0  0  0  0  0
   -7.3220   17.9810  -32.2140 C   0  0  0  0  0  0  0  0  0  0  0  0
   -6.4280   19.0470  -32.4080 C   0  0  0  0  0  0  0  0  0  0  0  0
   -4.9700   18.7730  -32.6810 C   0  0  0  0  0  0  0  0  0  0  0  0
   -4.3410   19.9140  -33.3760 N   0  0  0  0  0  0  0  0  0  0  0  0
   -3.0970   19.4930  -34.0440 C   0  0  0  0  0  0  0  0  0  0  0  0
   -1.9250   19.5290  -33.0430 C   0  0  0  0  0  0  0  0  0  0  0  0
   -2.0710   20.7160  -32.1870 N   0  0  0  0  0  0  0  0  0  0  0  0
   -1.4830   20.6500  -30.8260 C   0  0  0  0  0  0  0  0  0  0  0  0
   -1.9940   21.6770  -29.8290 C   0  0  0  0  0  0  0  0  0  0  0  0
   -2.2500   21.3010  -28.4990 C   0  0  0  0  0  0  0  0  0  0  0  0
   -2.7180   22.2360  -27.5720 C   0  0  0  0  0  0  0  0  0  0  0  0
   -2.9170   23.5750  -27.9530 C   0  0  0  0  0  0  0  0  0  0  0  0
   -3.3820   24.5420  -27.0500 O   0  0  0  0  0  0  0  0  0  0  0  0
   -2.6020   25.1710  -26.0690 C   0  0  0  0  0  0  0  0  0  0  0  0
   -3.1260   25.9960  -25.2710 O   0  0  0  0  0  0  0  0  0  0  0  0
   -1.1480   24.9030  -26.0060 C   0  0  0  0  0  0  0  0  0  0  0  0
   -0.5520   24.5070  -24.7950 C   0  0  0  0  0  0  0  0  0  0  0  0
    0.8220   24.2650  -24.7290 C   0  0  0  0  0  0  0  0  0  0  0  0
    1.6240   24.4130  -25.8660 C   0  0  0  0  0  0  0  0  0  0  0  0
    2.9930   24.1700  -25.7700 O   0  0  0  0  0  0  0  0  0  0  0  0
    1.0390   24.8040  -27.0800 C   0  0  0  0  0  0  0  0  0  0  0  0
    1.8160   24.9560  -28.2220 O   0  0  0  0  0  0  0  0  0  0  0  0
   -0.3390   25.0470  -27.1480 C   0  0  0  0  0  0  0  0  0  0  0  0
   -2.5950   23.9680  -29.2590 C   0  0  0  0  0  0  0  0  0  0  0  0
   -2.7380   25.2970  -29.6390 O   0  0  0  0  0  0  0  0  0  0  0  0
   -2.1280   23.0310  -30.1850 C   0  0  0  0  0  0  0  0  0  0  0  0
   -3.7560   21.0830  -32.2400 S   0  0  0  0  0  0  0  0  0  0  0  0
   -4.4310   20.9790  -30.9020 O   0  0  0  0  0  0  0  0  0  0  0  0
   -3.9540   22.4660  -32.7940 O   0  0  0  0  0  0  0  0  0  0  0  0
   -6.8990   20.3680  -32.3120 C   0  0  0  0  0  0  0  0  0  0  0  0
   -8.8412   22.3043  -30.8823 H   0  0  0  0  0  0  0  0  0  0  0  0
   -8.0328   22.7144  -32.4331 H   0  0  0  0  0  0  0  0  0  0  0  0
   -9.7297   22.1252  -32.4331 H   0  0  0  0  0  0  0  0  0  0  0  0
  -10.1974   19.7396  -31.6526 H   0  0  0  0  0  0  0  0  0  0  0  0
   -9.3659   17.3954  -31.7961 H   0  0  0  0  0  0  0  0  0  0  0  0
   -6.9599   16.9440  -32.2732 H   0  0  0  0  0  0  0  0  0  0  0  0
   -4.4507   18.6019  -31.7265 H   0  0  0  0  0  0  0  0  0  0  0  0
   -4.8937   17.8840  -33.3243 H   0  0  0  0  0  0  0  0  0  0  0  0
   -3.2176   18.4691  -34.4275 H   0  0  0  0  0  0  0  0  0  0  0  0
   -2.8831   20.1795  -34.8765 H   0  0  0  0  0  0  0  0  0  0  0  0
   -1.9406   18.6210  -32.4222 H   0  0  0  0  0  0  0  0  0  0  0  0
   -0.9697   19.5746  -33.5865 H   0  0  0  0  0  0  0  0  0  0  0  0
   -1.6925   19.6506  -30.4170 H   0  0  0  0  0  0  0  0  0  0  0  0
   -0.4126   20.8684  -30.9545 H   0  0  0  0  0  0  0  0  0  0  0  0
   -2.0803   20.2606  -28.1849 H   0  0  0  0  0  0  0  0  0  0  0  0
   -2.9318   21.9232  -26.5393 H   0  0  0  0  0  0  0  0  0  0  0  0
   -1.1719   24.3872  -23.8943 H   0  0  0  0  0  0  0  0  0  0  0  0
    1.2769   23.9558  -23.7764 H   0  0  0  0  0  0  0  0  0  0  0  0
    3.6260   24.3400  -26.5440 H   0  0  0  0  0  0  0  0  0  0  0  0
   -0.7923   25.3530  -28.1024 H   0  0  0  0  0  0  0  0  0  0  0  0
   -1.8627   23.3557  -31.2020 H   0  0  0  0  0  0  0  0  0  0  0  0
   -6.1991   21.2079  -32.4328 H   0  0  0  0  0  0  0  0  0  0  0  0
  1  2  1  0
  2  3  2  0
  3  4  1  0
  4  5  2  0
  5  6  1  0
  6  7  1  0
  7  8  1  0
  8  9  1  0
  9 10  1  0
 10 11  1  0
 11 12  1  0
 12 13  1  0
 13 14  2  0
 14 15  1  0
 15 16  2  0
 16 17  1  0
 17 18  1  0
 18 19  2  0
 18 20  1  0
 20 21  2  0
 21 22  1  0
 22 23  2  0
 23 24  1  0
 23 25  1  0
 25 26  1  0
 25 27  2  0
 16 28  1  0
 28 29  1  0
 28 30  2  0
 11 31  1  0
 31 32  2  0
 31 33  2  0
  6 34  2  0
 34  2  1  0
 31  8  1  0
 30 13  1  0
 27 20  1  0
  1 35  1  0
  1 36  1  0
  1 37  1  0
  3 38  1  0
  4 39  1  0
  5 40  1  0
  7 41  1  0
  7 42  1  0
  9 43  1  0
  9 44  1  0
 10 45  1  0
 10 46  1  0
 12 47  1  0
 12 48  1  0
 14 49  1  0
 15 50  1  0
 21 51  1  0
 22 52  1  0
 24 53  1  0
 27 54  1  0
 30 55  1  0
 34 56  1  0
M  CHG  2  26  -1  29  -1
M  END
>  <UniqueID>  (18) 
17

>  <SMILES>  (18) 
Cc1cccc(CN2CCN(Cc3ccc(OC(=O)c4ccc(O)c([O-])c4)c([O-])c3)S2(=O)=O)c1

>  <Energy>  (18) 
74.12183214907405

>  <Genealogy>  (18) 
Cc1cccc(CN2CCN(Cc3ccc(OC(=O)c4ccc(O)c([O-])c4)c([O-])c3)S2(=O)=O)c1 (protonated)
Cc1cccc(CN2CCN(Cc3ccc(OC(=O)c4ccc(O)c([O-])c4)c([O-])c3)S2(=O)=O)c1 (3D coordinates assigned)
Cc1cccc(CN2CCN(Cc3ccc(OC(=O)c4ccc(O)c([O-])c4)c([O-])c3)S2(=O)=O)c1 (nonaromatic ring conformer: 74.12183214907405 kcal/mol)

>  <smiles>  (18) 
Cc1cccc(CN2CCN(Cc3ccc(OC(=O)c4ccc(O)c(O)c4)c(O)c3)S2(=O)=O)c1

>  <score_type>  (18) 
oracle

>  <origin>  (18) 
adgpu

>  <m_score__min__energy>  (18) 
-13.18

>  <m_primary>  (18) 
energy

$$$$
18:0
     RDKit          3D

 55 59  0  0  0  0  0  0  0  0999 V2000
   -9.0930   20.0050  -33.4600 N   0  0  0  0  0  0  0  0  0  0  0  0
   -8.1510   19.3350  -32.1710 S   0  0  0  0  0  0  0  0  0  0  0  0
   -8.4730   20.0940  -30.9150 O   0  0  0  0  0  0  0  0  0  0  0  0
   -8.5260   17.8900  -31.9910 O   0  0  0  0  0  0  0  0  0  0  0  0
   -6.4180   19.4480  -32.5180 C   0  0  0  0  0  0  0  0  0  0  0  0
   -5.7420   18.3340  -33.0360 C   0  0  0  0  0  0  0  0  0  0  0  0
   -4.4110   18.3970  -33.2980 N   0  0  0  0  0  0  0  0  0  0  0  0
   -3.6900   19.5270  -33.0800 C   0  0  0  0  0  0  0  0  0  0  0  0
   -1.9280   19.5280  -33.3930 S   0  0  0  0  0  0  0  0  0  0  0  0
   -1.5930   20.5210  -31.9380 C   0  0  0  0  0  0  0  0  0  0  0  0
   -1.8330   21.8990  -31.9690 C   0  0  0  0  0  0  0  0  0  0  0  0
   -1.6070   22.6770  -30.8290 C   0  0  0  0  0  0  0  0  0  0  0  0
   -1.1420   22.0840  -29.6440 C   0  0  0  0  0  0  0  0  0  0  0  0
   -0.9310   22.8830  -28.4680 N   0  0  0  0  0  0  0  0  0  0  0  0
   -0.4850   22.4510  -27.1770 C   0  0  0  0  0  0  0  0  0  0  0  0
   -0.1010   21.2830  -26.9090 O   0  0  0  0  0  0  0  0  0  0  0  0
   -0.4910   23.5740  -26.2470 C   0  0  0  0  0  0  0  0  0  0  0  0
   -0.1410   23.6400  -24.8990 C   0  0  0  0  0  0  0  0  0  0  0  0
   -0.2520   24.8810  -24.2470 C   0  0  0  0  0  0  0  0  0  0  0  0
   -0.7030   26.0220  -24.9500 C   0  0  0  0  0  0  0  0  0  0  0  0
   -0.8260   27.5630  -24.1210 Cl  0  0  0  0  0  0  0  0  0  0  0  0
   -1.0470   25.9280  -26.3120 C   0  0  0  0  0  0  0  0  0  0  0  0
   -0.9270   24.6870  -26.9330 C   0  0  0  0  0  0  0  0  0  0  0  0
   -1.2080   24.2780  -28.3040 C   0  0  0  0  0  0  0  0  0  0  0  0
   -1.6760   25.0250  -29.2040 O   0  0  0  0  0  0  0  0  0  0  0  0
   -0.8920   20.7010  -29.6240 C   0  0  0  0  0  0  0  0  0  0  0  0
   -1.1120   19.9240  -30.7650 C   0  0  0  0  0  0  0  0  0  0  0  0
   -0.8780   18.5890  -30.7210 F   0  0  0  0  0  0  0  0  0  0  0  0
   -4.3170   20.6650  -32.5720 C   0  0  0  0  0  0  0  0  0  0  0  0
   -5.6840   20.6310  -32.2740 C   0  0  0  0  0  0  0  0  0  0  0  0
   -6.2910   21.7810  -31.6700 N   0  0  0  0  0  0  0  0  0  0  0  0
   -5.7900   22.2920  -30.3930 C   0  0  0  0  0  0  0  0  0  0  0  0
   -5.6120   23.8200  -30.4540 C   0  0  0  0  0  0  0  0  0  0  0  0
   -6.6350   24.5260  -31.2580 N   0  0  0  0  0  0  0  0  0  0  0  0
   -7.8110   23.7090  -31.5740 C   0  0  0  0  0  0  0  0  0  0  0  0
   -7.3850   22.4680  -32.3590 C   0  0  0  0  0  0  0  0  0  0  0  0
   -9.7020   19.2430  -33.8340 H   0  0  0  0  0  0  0  0  0  0  0  0
   -8.4330   20.2880  -34.2180 H   0  0  0  0  0  0  0  0  0  0  0  0
   -6.2937   17.4026  -33.2315 H   0  0  0  0  0  0  0  0  0  0  0  0
   -2.2002   22.3715  -32.8920 H   0  0  0  0  0  0  0  0  0  0  0  0
   -1.7947   23.7604  -30.8608 H   0  0  0  0  0  0  0  0  0  0  0  0
    0.2116   22.7475  -24.3613 H   0  0  0  0  0  0  0  0  0  0  0  0
    0.0138   24.9647  -23.1829 H   0  0  0  0  0  0  0  0  0  0  0  0
   -1.4000   26.8084  -26.8691 H   0  0  0  0  0  0  0  0  0  0  0  0
   -0.5205   20.2266  -28.7037 H   0  0  0  0  0  0  0  0  0  0  0  0
   -3.7388   21.5860  -32.4062 H   0  0  0  0  0  0  0  0  0  0  0  0
   -6.5075   22.0430  -29.5973 H   0  0  0  0  0  0  0  0  0  0  0  0
   -4.8144   21.8291  -30.1836 H   0  0  0  0  0  0  0  0  0  0  0  0
   -5.6518   24.2117  -29.4269 H   0  0  0  0  0  0  0  0  0  0  0  0
   -4.6459   24.0028  -30.9471 H   0  0  0  0  0  0  0  0  0  0  0  0
   -6.9570   25.3690  -30.7300 H   0  0  0  0  0  0  0  0  0  0  0  0
   -8.3019   23.3992  -30.6397 H   0  0  0  0  0  0  0  0  0  0  0  0
   -8.5108   24.3006  -32.1825 H   0  0  0  0  0  0  0  0  0  0  0  0
   -8.2421   21.7846  -32.4503 H   0  0  0  0  0  0  0  0  0  0  0  0
   -7.0409   22.7769  -33.3571 H   0  0  0  0  0  0  0  0  0  0  0  0
  1  2  1  0
  2  3  2  0
  2  4  2  0
  2  5  1  0
  5  6  2  0
  6  7  1  0
  7  8  2  0
  8  9  1  0
  9 10  1  0
 10 11  2  0
 11 12  1  0
 12 13  2  0
 13 14  1  0
 14 15  1  0
 15 16  2  0
 15 17  1  0
 17 18  2  0
 18 19  1  0
 19 20  2  0
 20 21  1  0
 20 22  1  0
 22 23  2  0
 23 24  1  0
 24 25  2  0
 13 26  1  0
 26 27  2  0
 27 28  1  0
  8 29  1  0
 29 30  2  0
 30 31  1  0
 31 32  1  0
 32 33  1  0
 33 34  1  0
 34 35  1  0
 35 36  1  0
 30  5  1  0
 36 31  1  0
 27 10  1  0
 24 14  1  0
 23 17  1  0
  1 37  1  0
  1 38  1  0
  6 39  1  0
 11 40  1  0
 12 41  1  0
 18 42  1  0
 19 43  1  0
 22 44  1  0
 26 45  1  0
 29 46  1  0
 32 47  1  0
 32 48  1  0
 33 49  1  0
 33 50  1  0
 34 51  1  0
 35 52  1  0
 35 53  1  0
 36 54  1  0
 36 55  1  0
M  END
>  <UniqueID>  (19) 
18

>  <SMILES>  (19) 
NS(=O)(=O)c1cnc(Sc2ccc(N3C(=O)c4ccc(Cl)cc4C3=O)cc2F)cc1N1CCNCC1

>  <Energy>  (19) 
102.72038547347958

>  <Genealogy>  (19) 
NS(=O)(=O)c1cnc(Sc2ccc(N3C(=O)c4ccc(Cl)cc4C3=O)cc2F)cc1N1CCNCC1 (3D coordinates assigned)
NS(=O)(=O)c1cnc(Sc2ccc(N3C(=O)c4ccc(Cl)cc4C3=O)cc2F)cc1N1CCNCC1 (nonaromatic ring conformer: 102.72038547347958 kcal/mol)

>  <smiles>  (19) 
NS(=O)(=O)c1cnc(Sc2ccc(N3C(=O)c4ccc(Cl)cc4C3=O)cc2F)cc1N1CCNCC1

>  <score_type>  (19) 
oracle

>  <origin>  (19) 
adgpu

>  <m_score__min__energy>  (19) 
-10.619999999999999

>  <m_primary>  (19) 
energy

$$$$
19:0
     RDKit          3D

 56 58  0  0  0  0  0  0  0  0999 V2000
   -0.4630   26.5340  -25.0820 C   0  0  0  0  0  0  0  0  0  0  0  0
   -1.2450   25.4540  -25.7520 C   0  0  0  0  0  0  0  0  0  0  0  0
   -0.7800   24.1850  -26.0420 C   0  0  0  0  0  0  0  0  0  0  0  0
   -1.8250   23.5520  -26.6840 C   0  0  0  0  0  0  0  0  0  0  0  0
   -1.8420   22.1260  -27.1430 C   0  0  0  0  0  0  0  0  0  0  0  0
   -0.8520   21.9360  -28.6150 S   0  0  0  0  0  0  0  0  0  0  0  0
   -0.7860   23.2460  -29.3510 O   0  0  0  0  0  0  0  0  0  0  0  0
    0.5380   21.5060  -28.2390 O   0  0  0  0  0  0  0  0  0  0  0  0
   -1.5960   20.7010  -29.6630 C   0  0  0  0  0  0  0  0  0  0  0  0
   -2.9260   21.1790  -30.1560 C   0  0  0  0  0  0  0  0  0  0  0  0
   -3.6290   20.4180  -30.8760 O   0  0  0  0  0  0  0  0  0  0  0  0
   -3.3850   22.4970  -29.8210 N   0  0  0  0  0  0  0  0  0  0  0  0
   -4.5440   23.1030  -30.4150 C   0  0  0  0  0  0  0  0  0  0  0  0
   -5.6890   22.3210  -30.6280 C   0  0  0  0  0  0  0  0  0  0  0  0
   -6.8370   22.8840  -31.2050 C   0  0  0  0  0  0  0  0  0  0  0  0
   -8.2800   21.9080  -31.4710 S   0  0  0  0  0  0  0  0  0  0  0  0
   -9.3790   22.7580  -32.0470 O   0  0  0  0  0  0  0  0  0  0  0  0
   -8.7390   21.3610  -30.1480 O   0  0  0  0  0  0  0  0  0  0  0  0
   -7.9170   20.5890  -32.5590 N   0  0  0  0  0  0  0  0  0  0  0  0
   -8.5690   19.3490  -32.0820 C   0  0  0  0  0  0  0  0  0  0  0  0
   -7.9340   18.1040  -32.7090 C   0  0  0  0  0  0  0  0  0  0  0  0
   -6.4530   17.9790  -32.3120 C   0  0  0  0  0  0  0  0  0  0  0  0
   -5.8130   19.3360  -31.9690 C   0  0  0  0  0  0  0  0  0  0  0  0
   -6.4540   20.4720  -32.7810 C   0  0  0  0  0  0  0  0  0  0  0  0
   -6.8480   24.2420  -31.5450 C   0  0  0  0  0  0  0  0  0  0  0  0
   -5.7220   25.0340  -31.3060 C   0  0  0  0  0  0  0  0  0  0  0  0
   -4.5750   24.4760  -30.7320 C   0  0  0  0  0  0  0  0  0  0  0  0
   -3.4890   25.2970  -30.4520 O   0  0  0  0  0  0  0  0  0  0  0  0
   -2.8600   24.4710  -26.7370 C   0  0  0  0  0  0  0  0  0  0  0  0
   -4.2080   24.2600  -27.3440 C   0  0  0  0  0  0  0  0  0  0  0  0
   -2.4780   25.5990  -26.1820 O   0  0  0  0  0  0  0  0  0  0  0  0
   -0.5439   26.4222  -23.9907 H   0  0  0  0  0  0  0  0  0  0  0  0
    0.5932   26.4612  -25.3807 H   0  0  0  0  0  0  0  0  0  0  0  0
   -0.8618   27.5147  -25.3807 H   0  0  0  0  0  0  0  0  0  0  0  0
    0.2114   23.7685  -25.8105 H   0  0  0  0  0  0  0  0  0  0  0  0
   -1.4358   21.4841  -26.3474 H   0  0  0  0  0  0  0  0  0  0  0  0
   -2.8786   21.8359  -27.3697 H   0  0  0  0  0  0  0  0  0  0  0  0
   -0.9371   20.5082  -30.5225 H   0  0  0  0  0  0  0  0  0  0  0  0
   -1.7373   19.7758  -29.0851 H   0  0  0  0  0  0  0  0  0  0  0  0
   -2.9280   22.9900  -29.0220 H   0  0  0  0  0  0  0  0  0  0  0  0
   -5.6866   21.2592  -30.3406 H   0  0  0  0  0  0  0  0  0  0  0  0
   -8.4675   19.2897  -30.9883 H   0  0  0  0  0  0  0  0  0  0  0  0
   -9.6286   19.3812  -32.3758 H   0  0  0  0  0  0  0  0  0  0  0  0
   -8.4755   17.2113  -32.3628 H   0  0  0  0  0  0  0  0  0  0  0  0
   -7.9963   18.1932  -33.8036 H   0  0  0  0  0  0  0  0  0  0  0  0
   -6.3787   17.3226  -31.4324 H   0  0  0  0  0  0  0  0  0  0  0  0
   -5.9115   17.5653  -33.1755 H   0  0  0  0  0  0  0  0  0  0  0  0
   -5.9525   19.5380  -30.8968 H   0  0  0  0  0  0  0  0  0  0  0  0
   -4.7426   19.2899  -32.2182 H   0  0  0  0  0  0  0  0  0  0  0  0
   -5.9785   21.4210  -32.4922 H   0  0  0  0  0  0  0  0  0  0  0  0
   -6.2998   20.2432  -33.8458 H   0  0  0  0  0  0  0  0  0  0  0  0
   -7.7449   24.6864  -32.0012 H   0  0  0  0  0  0  0  0  0  0  0  0
   -5.7376   26.1016  -31.5706 H   0  0  0  0  0  0  0  0  0  0  0  0
   -4.9555   24.1430  -26.5455 H   0  0  0  0  0  0  0  0  0  0  0  0
   -4.4696   25.1281  -27.9668 H   0  0  0  0  0  0  0  0  0  0  0  0
   -4.1918   23.3534  -27.9668 H   0  0  0  0  0  0  0  0  0  0  0  0
  1  2  1  0
  2  3  2  0
  3  4  1  0
  4  5  1  0
  5  6  1  0
  6  7  2  0
  6  8  2  0
  6  9  1  0
  9 10  1  0
 10 11  2  0
 10 12  1  0
 12 13  1  0
 13 14  2  0
 14 15  1  0
 15 16  1  0
 16 17  2  0
 16 18  2  0
 16 19  1  0
 19 20  1  0
 20 21  1  0
 21 22  1  0
 22 23  1  0
 23 24  1  0
 15 25  2  0
 25 26  1  0
 26 27  2  0
 27 28  1  0
  4 29  2  0
 29 30  1  0
 29 31  1  0
 31  2  1  0
 27 13  1  0
 24 19  1  0
  1 32  1  0
  1 33  1  0
  1 34  1  0
  3 35  1  0
  5 36  1  0
  5 37  1  0
  9 38  1  0
  9 39  1  0
 12 40  1  0
 14 41  1  0
 20 42  1  0
 20 43  1  0
 21 44  1  0
 21 45  1  0
 22 46  1  0
 22 47  1  0
 23 48  1  0
 23 49  1  0
 24 50  1  0
 24 51  1  0
 25 52  1  0
 26 53  1  0
 30 54  1  0
 30 55  1  0
 30 56  1  0
M  CHG  1  28  -1
M  END
>  <UniqueID>  (20) 
19

>  <SMILES>  (20) 
Cc1cc(CS(=O)(=O)CC(=O)Nc2cc(S(=O)(=O)N3CCCCC3)ccc2[O-])c(C)o1

>  <Energy>  (20) 
80.13920451361066

>  <Genealogy>  (20) 
Cc1cc(CS(=O)(=O)CC(=O)Nc2cc(S(=O)(=O)N3CCCCC3)ccc2[O-])c(C)o1 (protonated)
Cc1cc(CS(=O)(=O)CC(=O)Nc2cc(S(=O)(=O)N3CCCCC3)ccc2[O-])c(C)o1 (3D coordinates assigned)
Cc1cc(CS(=O)(=O)CC(=O)Nc2cc(S(=O)(=O)N3CCCCC3)ccc2[O-])c(C)o1 (nonaromatic ring conformer: 80.13920451361066 kcal/mol)

>  <smiles>  (20) 
Cc1cc(CS(=O)(=O)CC(=O)Nc2cc(S(=O)(=O)N3CCCCC3)ccc2O)c(C)o1

>  <score_type>  (20) 
oracle

>  <origin>  (20) 
adgpu

>  <m_score__min__energy>  (20) 
-13.41

>  <m_primary>  (20) 
energy

$$$$
20:0
     RDKit          3D

 52 55  0  0  0  0  0  0  0  0999 V2000
   -1.6290   21.1020  -27.2630 C   0  0  0  0  0  0  0  0  0  0  0  0
   -2.1780   22.2660  -28.0430 C   0  0  0  0  0  0  0  0  0  0  0  0
   -3.4930   22.1770  -28.5250 C   0  0  0  0  0  0  0  0  0  0  0  0
   -4.0400   23.2000  -29.2940 C   0  0  0  0  0  0  0  0  0  0  0  0
   -3.2810   24.3250  -29.6160 C   0  0  0  0  0  0  0  0  0  0  0  0
   -3.8540   25.3080  -30.4860 N   0  0  0  0  0  0  0  0  0  0  0  0
   -5.2360   25.3210  -30.8540 C   0  0  0  0  0  0  0  0  0  0  0  0
   -6.0660   25.9990  -30.1870 O   0  0  0  0  0  0  0  0  0  0  0  0
   -5.6690   24.5370  -31.9700 N   0  0  0  0  0  0  0  0  0  0  0  0
   -6.3650   23.2850  -31.8920 C   0  0  0  0  0  0  0  0  0  0  0  0
   -7.6420   23.2620  -31.3170 C   0  0  0  0  0  0  0  0  0  0  0  0
   -8.3470   22.0590  -31.2040 C   0  0  0  0  0  0  0  0  0  0  0  0
   -7.7700   20.8670  -31.6460 C   0  0  0  0  0  0  0  0  0  0  0  0
   -6.4850   20.8730  -32.1920 C   0  0  0  0  0  0  0  0  0  0  0  0
   -5.7760   22.0730  -32.3090 C   0  0  0  0  0  0  0  0  0  0  0  0
   -4.5020   22.0380  -32.7740 F   0  0  0  0  0  0  0  0  0  0  0  0
   -1.9800   24.4700  -29.0860 C   0  0  0  0  0  0  0  0  0  0  0  0
   -1.2390   25.6240  -29.3400 O   0  0  0  0  0  0  0  0  0  0  0  0
   -1.4260   23.4490  -28.2790 C   0  0  0  0  0  0  0  0  0  0  0  0
    0.2040   23.6700  -27.5900 S   0  0  0  0  0  0  0  0  0  0  0  0
    1.0340   24.4500  -28.5700 O   0  0  0  0  0  0  0  0  0  0  0  0
    0.8700   22.3490  -27.3360 O   0  0  0  0  0  0  0  0  0  0  0  0
    0.1410   24.5150  -26.0740 N   0  0  0  0  0  0  0  0  0  0  0  0
   -0.0370   25.9170  -25.9650 C   0  0  0  0  0  0  0  0  0  0  0  0
    0.2090   26.8770  -26.9530 C   0  0  0  0  0  0  0  0  0  0  0  0
   -0.0620   28.2230  -26.6600 C   0  0  0  0  0  0  0  0  0  0  0  0
   -0.5730   28.5830  -25.3980 C   0  0  0  0  0  0  0  0  0  0  0  0
   -0.8220   27.5970  -24.4280 C   0  0  0  0  0  0  0  0  0  0  0  0
   -0.5400   26.2670  -24.7430 C   0  0  0  0  0  0  0  0  0  0  0  0
   -0.7710   25.0600  -23.9050 C   0  0  0  0  0  0  0  0  0  0  0  0
   -0.3030   23.8940  -24.8210 C   0  0  2  0  0  0  0  0  0  0  0  0
    0.8340   23.0950  -24.1840 C   0  0  0  0  0  0  0  0  0  0  0  0
   -1.7245   21.3046  -26.1860 H   0  0  0  0  0  0  0  0  0  0  0  0
   -2.1929   20.1922  -27.5164 H   0  0  0  0  0  0  0  0  0  0  0  0
   -0.5683   20.9584  -27.5164 H   0  0  0  0  0  0  0  0  0  0  0  0
   -4.0984   21.2885  -28.2924 H   0  0  0  0  0  0  0  0  0  0  0  0
   -5.0777   23.1208  -29.6502 H   0  0  0  0  0  0  0  0  0  0  0  0
   -8.0936   24.1962  -30.9518 H   0  0  0  0  0  0  0  0  0  0  0  0
   -9.3563   22.0522  -30.7667 H   0  0  0  0  0  0  0  0  0  0  0  0
   -8.3281   19.9226  -31.5640 H   0  0  0  0  0  0  0  0  0  0  0  0
   -6.0289   19.9312  -32.5312 H   0  0  0  0  0  0  0  0  0  0  0  0
   -0.2450   25.6150  -29.5290 H   0  0  0  0  0  0  0  0  0  0  0  0
    0.6055   26.5838  -27.9363 H   0  0  0  0  0  0  0  0  0  0  0  0
    0.1252   28.9981  -27.4178 H   0  0  0  0  0  0  0  0  0  0  0  0
   -0.7779   29.6396  -25.1707 H   0  0  0  0  0  0  0  0  0  0  0  0
   -1.2299   27.8674  -23.4429 H   0  0  0  0  0  0  0  0  0  0  0  0
   -0.1734   25.1006  -22.9824 H   0  0  0  0  0  0  0  0  0  0  0  0
   -1.8159   24.9571  -23.5770 H   0  0  0  0  0  0  0  0  0  0  0  0
   -1.1222   23.1791  -24.9879 H   0  0  0  0  0  0  0  0  0  0  0  0
    0.7531   23.1518  -23.0884 H   0  0  0  0  0  0  0  0  0  0  0  0
    0.7671   22.0443  -24.5026 H   0  0  0  0  0  0  0  0  0  0  0  0
    1.7999   23.5140  -24.5026 H   0  0  0  0  0  0  0  0  0  0  0  0
  1  2  1  0
  2  3  2  0
  3  4  1  0
  4  5  2  0
  5  6  1  0
  6  7  1  0
  7  8  2  0
  7  9  1  0
  9 10  1  0
 10 11  2  0
 11 12  1  0
 12 13  2  0
 13 14  1  0
 14 15  2  0
 15 16  1  0
  5 17  1  0
 17 18  1  0
 17 19  2  0
 19 20  1  0
 20 21  2  0
 20 22  2  0
 20 23  1  0
 23 24  1  0
 24 25  2  0
 25 26  1  0
 26 27  2  0
 27 28  1  0
 28 29  2  0
 29 30  1  0
 30 31  1  0
 31 32  1  0
 19  2  1  0
 31 23  1  0
 15 10  1  0
 29 24  1  0
  1 33  1  0
  1 34  1  0
  1 35  1  0
  3 36  1  0
  4 37  1  0
 11 38  1  0
 12 39  1  0
 13 40  1  0
 14 41  1  0
 18 42  1  0
 25 43  1  0
 26 44  1  0
 27 45  1  0
 28 46  1  0
 30 47  1  0
 30 48  1  0
 31 49  1  6
 32 50  1  0
 32 51  1  0
 32 52  1  0
M  CHG  2   6  -1   9  -1
M  END
>  <UniqueID>  (21) 
20

>  <SMILES>  (21) 
Cc1ccc([N-]C(=O)[N-]c2ccccc2F)c(O)c1S(=O)(=O)N1c2ccccc2C[C@@H]1C

>  <Energy>  (21) 
85.74833717506789

>  <Genealogy>  (21) 
Cc1ccc([N-]C(=O)[N-]c2ccccc2F)c(O)c1S(=O)(=O)N1c2ccccc2CC1C (protonated)
Cc1ccc([N-]C(=O)[N-]c2ccccc2F)c(O)c1S(=O)(=O)N1c2ccccc2C[C@@H]1C (chirality)
Cc1ccc([N-]C(=O)[N-]c2ccccc2F)c(O)c1S(=O)(=O)N1c2ccccc2C[C@@H]1C (3D coordinates assigned)
Cc1ccc([N-]C(=O)[N-]c2ccccc2F)c(O)c1S(=O)(=O)N1c2ccccc2C[C@@H]1C (nonaromatic ring conformer: 85.74833717506789 kcal/mol)

>  <smiles>  (21) 
Cc1ccc(NC(=O)Nc2ccccc2F)c(O)c1S(=O)(=O)N1c2ccccc2CC1C

>  <score_type>  (21) 
oracle

>  <origin>  (21) 
adgpu

>  <m_score__min__energy>  (21) 
-13.01

>  <m_primary>  (21) 
energy

$$$$
21:0
     RDKit          3D

 55 58  0  0  0  0  0  0  0  0999 V2000
   -4.1310   20.1790  -31.8150 O   0  0  0  0  0  0  0  0  0  0  0  0
   -4.6160   21.1440  -32.4640 C   0  0  0  0  0  0  0  0  0  0  0  0
   -3.8110   21.8350  -33.3600 O   0  0  0  0  0  0  0  0  0  0  0  0
   -6.0460   21.4890  -32.3200 C   0  0  0  0  0  0  0  0  0  0  0  0
   -6.4110   22.8370  -32.1040 C   0  0  0  0  0  0  0  0  0  0  0  0
   -5.4180   23.8550  -31.9620 N   0  0  0  0  0  0  0  0  0  0  0  0
   -4.9310   24.4060  -30.3940 S   0  0  0  0  0  0  0  0  0  0  0  0
   -6.1580   24.7040  -29.5800 O   0  0  0  0  0  0  0  0  0  0  0  0
   -4.1160   25.6610  -30.5220 O   0  0  0  0  0  0  0  0  0  0  0  0
   -3.9760   23.1550  -29.5980 C   0  0  0  0  0  0  0  0  0  0  0  0
   -4.2640   22.7530  -28.2880 C   0  0  0  0  0  0  0  0  0  0  0  0
   -3.5320   21.7230  -27.6940 C   0  0  0  0  0  0  0  0  0  0  0  0
   -2.5100   21.0830  -28.4050 C   0  0  0  0  0  0  0  0  0  0  0  0
   -1.8410   20.0610  -27.8180 F   0  0  0  0  0  0  0  0  0  0  0  0
   -2.2040   21.4870  -29.7170 C   0  0  0  0  0  0  0  0  0  0  0  0
   -0.9640   20.6450  -30.6560 S   0  0  0  0  0  0  0  0  0  0  0  0
    0.2130   21.5570  -30.8670 O   0  0  0  0  0  0  0  0  0  0  0  0
   -0.5180   19.4440  -29.8700 O   0  0  0  0  0  0  0  0  0  0  0  0
   -1.5720   20.1270  -32.2110 N   0  0  0  0  0  0  0  0  0  0  0  0
   -1.5160   18.6590  -32.3090 C   0  0  0  0  0  0  0  0  0  0  0  0
   -2.0150   18.1830  -33.6930 C   0  0  0  0  0  0  0  0  0  0  0  0
   -2.2590   19.2620  -34.5770 O   0  0  0  0  0  0  0  0  0  0  0  0
   -1.1060   20.0770  -34.6620 C   0  0  0  0  0  0  0  0  0  0  0  0
   -0.7950   20.7450  -33.3060 C   0  0  0  0  0  0  0  0  0  0  0  0
   -2.9460   22.5220  -30.3040 C   0  0  0  0  0  0  0  0  0  0  0  0
   -7.7550   23.1860  -31.9390 C   0  0  0  0  0  0  0  0  0  0  0  0
   -8.7470   22.2090  -31.9690 C   0  0  0  0  0  0  0  0  0  0  0  0
   -8.4070   20.8680  -32.1750 C   0  0  0  0  0  0  0  0  0  0  0  0
   -7.0620   20.4980  -32.3680 C   0  0  0  0  0  0  0  0  0  0  0  0
   -6.8020   19.0490  -32.7190 C   0  0  0  0  0  0  0  0  0  0  0  0
   -7.5730   18.1310  -31.7610 C   0  0  0  0  0  0  0  0  0  0  0  0
   -9.0690   18.5010  -31.6050 C   0  0  0  0  0  0  0  0  0  0  0  0
   -9.4820   19.8180  -32.2900 C   0  0  0  0  0  0  0  0  0  0  0  0
   -5.0685   23.2496  -27.7257 H   0  0  0  0  0  0  0  0  0  0  0  0
   -3.7593   21.4132  -26.6633 H   0  0  0  0  0  0  0  0  0  0  0  0
   -2.5720   20.4280  -32.2800 H   0  0  0  0  0  0  0  0  0  0  0  0
   -0.4770   18.3272  -32.1663 H   0  0  0  0  0  0  0  0  0  0  0  0
   -2.1649   18.2282  -31.5323 H   0  0  0  0  0  0  0  0  0  0  0  0
   -1.2520   17.5271  -34.1376 H   0  0  0  0  0  0  0  0  0  0  0  0
   -2.9653   17.6498  -33.5427 H   0  0  0  0  0  0  0  0  0  0  0  0
   -0.2487   19.4561  -34.9613 H   0  0  0  0  0  0  0  0  0  0  0  0
   -1.2908   20.8664  -35.4055 H   0  0  0  0  0  0  0  0  0  0  0  0
    0.2780   20.6348  -33.0902 H   0  0  0  0  0  0  0  0  0  0  0  0
   -1.0723   21.8075  -33.3712 H   0  0  0  0  0  0  0  0  0  0  0  0
   -2.7160   22.8404  -31.3315 H   0  0  0  0  0  0  0  0  0  0  0  0
   -8.0306   24.2396  -31.7844 H   0  0  0  0  0  0  0  0  0  0  0  0
   -9.8007   22.4927  -31.8303 H   0  0  0  0  0  0  0  0  0  0  0  0
   -7.1326   18.8590  -33.7508 H   0  0  0  0  0  0  0  0  0  0  0  0
   -5.7253   18.8429  -32.6287 H   0  0  0  0  0  0  0  0  0  0  0  0
   -7.5089   17.1010  -32.1416 H   0  0  0  0  0  0  0  0  0  0  0  0
   -7.1110   18.2443  -30.7692 H   0  0  0  0  0  0  0  0  0  0  0  0
   -9.6700   17.6872  -32.0369 H   0  0  0  0  0  0  0  0  0  0  0  0
   -9.2429   18.6434  -30.5282 H   0  0  0  0  0  0  0  0  0  0  0  0
   -9.6748   19.6206  -33.3548 H   0  0  0  0  0  0  0  0  0  0  0  0
  -10.3853   20.1962  -31.7889 H   0  0  0  0  0  0  0  0  0  0  0  0
  1  2  2  0
  2  3  1  0
  2  4  1  0
  4  5  2  0
  5  6  1  0
  6  7  1  0
  7  8  2  0
  7  9  2  0
  7 10  1  0
 10 11  2  0
 11 12  1  0
 12 13  2  0
 13 14  1  0
 13 15  1  0
 15 16  1  0
 16 17  2  0
 16 18  2  0
 16 19  1  0
 19 20  1  0
 20 21  1  0
 21 22  1  0
 22 23  1  0
 23 24  1  0
 15 25  2  0
  5 26  1  0
 26 27  2  0
 27 28  1  0
 28 29  2  0
 29 30  1  0
 30 31  1  0
 31 32  1  0
 32 33  1  0
 29  4  1  0
 25 10  1  0
 33 28  1  0
 24 19  1  0
 11 34  1  0
 12 35  1  0
 19 36  1  0
 20 37  1  0
 20 38  1  0
 21 39  1  0
 21 40  1  0
 23 41  1  0
 23 42  1  0
 24 43  1  0
 24 44  1  0
 25 45  1  0
 26 46  1  0
 27 47  1  0
 30 48  1  0
 30 49  1  0
 31 50  1  0
 31 51  1  0
 32 52  1  0
 32 53  1  0
 33 54  1  0
 33 55  1  0
M  CHG  3   3  -1   6  -1  19   1
M  END
>  <UniqueID>  (22) 
21

>  <SMILES>  (22) 
O=C([O-])c1c([N-]S(=O)(=O)c2ccc(F)c(S(=O)(=O)[NH+]3CCOCC3)c2)ccc2c1CCCC2

>  <Energy>  (22) 
83.53431701504316

>  <Genealogy>  (22) 
O=C([O-])c1c([N-]S(=O)(=O)c2ccc(F)c(S(=O)(=O)[NH+]3CCOCC3)c2)ccc2c1CCCC2 (protonated)
O=C([O-])c1c([N-]S(=O)(=O)c2ccc(F)c(S(=O)(=O)[NH+]3CCOCC3)c2)ccc2c1CCCC2 (3D coordinates assigned)
O=C([O-])c1c([N-]S(=O)(=O)c2ccc(F)c(S(=O)(=O)[NH+]3CCOCC3)c2)ccc2c1CCCC2 (nonaromatic ring conformer: 83.53431701504316 kcal/mol)

>  <smiles>  (22) 
O=C(O)c1c(NS(=O)(=O)c2ccc(F)c(S(=O)(=O)N3CCOCC3)c2)ccc2c1CCCC2

>  <score_type>  (22) 
oracle

>  <origin>  (22) 
adgpu

>  <m_score__min__energy>  (22) 
-10.109999999999999

>  <m_primary>  (22) 
energy

$$$$
22:0
     RDKit          3D

 54 56  0  0  1  0  0  0  0  0999 V2000
   -4.1190   24.0390  -28.6810 C   0  0  0  0  0  0  0  0  0  0  0  0
   -3.2060   24.0580  -29.8660 C   0  0  0  0  0  0  0  0  0  0  0  0
   -3.8170   23.9440  -31.1060 O   0  0  0  0  0  0  0  0  0  0  0  0
   -4.9000   23.1260  -31.3720 C   0  0  0  0  0  0  0  0  0  0  0  0
   -6.1390   23.7120  -31.4250 C   0  0  0  0  0  0  0  0  0  0  0  0
   -7.2070   22.8890  -31.6900 C   0  0  0  0  0  0  0  0  0  0  0  0
   -8.4220   23.4530  -31.7410 N   0  0  0  0  0  0  0  0  0  0  0  0
   -9.4930   22.6890  -31.9950 C   0  0  0  0  0  0  0  0  0  0  0  0
   -9.3050   21.3860  -32.1900 N   0  0  0  0  0  0  0  0  0  0  0  0
   -8.0990   20.7820  -32.1470 C   0  0  0  0  0  0  0  0  0  0  0  0
   -8.0300   19.5790  -32.3460 N   0  0  0  0  0  0  0  0  0  0  0  0
   -7.0070   18.6920  -32.3750 C   0  0  0  0  0  0  0  0  0  0  0  0
   -6.7240   17.8280  -31.2850 C   0  0  0  0  0  0  0  0  0  0  0  0
   -5.7390   16.8740  -31.4490 C   0  0  0  0  0  0  0  0  0  0  0  0
   -5.0190   16.7210  -32.6170 C   0  0  0  0  0  0  0  0  0  0  0  0
   -5.2950   17.5620  -33.6750 C   0  0  0  0  0  0  0  0  0  0  0  0
   -4.3430   17.4260  -35.3430 Br  0  0  0  0  0  0  0  0  0  0  0  0
   -6.2700   18.5350  -33.5690 C   0  0  0  0  0  0  0  0  0  0  0  0
   -6.9830   21.5330  -31.8890 C   0  0  0  0  0  0  0  0  0  0  0  0
   -5.7380   20.9820  -31.8300 C   0  0  0  0  0  0  0  0  0  0  0  0
   -4.6320   21.8060  -31.5600 C   0  0  0  0  0  0  0  0  0  0  0  0
   -3.3060   21.2590  -31.4840 N   0  0  0  0  0  0  0  0  0  0  0  0
   -2.7990   20.6550  -32.6470 C   0  0  0  0  0  0  0  0  0  0  0  0
   -3.5450   20.6360  -33.6660 O   0  0  0  0  0  0  0  0  0  0  0  0
   -1.4740   20.0580  -32.7330 C   0  0  0  0  0  0  0  0  0  0  0  0
   -0.4090   20.7200  -33.1470 C   0  0  0  0  0  0  0  0  0  0  0  0
    0.9150   20.0290  -33.2050 C   0  0  0  0  0  0  0  0  0  0  0  0
    1.3920   20.1030  -34.5580 N   0  0  0  0  0  0  0  0  0  0  0  0
    2.7770   20.5600  -34.5950 C   0  0  0  0  0  0  0  0  0  0  0  0
    0.6130   21.1580  -35.2050 C   0  0  0  0  0  0  0  0  0  0  0  0
   -3.5215   24.0514  -27.7575 H   0  0  0  0  0  0  0  0  0  0  0  0
   -4.7721   24.9237  -28.7071 H   0  0  0  0  0  0  0  0  0  0  0  0
   -4.7347   23.1278  -28.7071 H   0  0  0  0  0  0  0  0  0  0  0  0
   -2.6528   25.0086  -29.8495 H   0  0  0  0  0  0  0  0  0  0  0  0
   -2.5706   23.1658  -29.7652 H   0  0  0  0  0  0  0  0  0  0  0  0
   -6.2717   24.7918  -31.2627 H   0  0  0  0  0  0  0  0  0  0  0  0
   -8.6000   24.4720  -31.5920 H   0  0  0  0  0  0  0  0  0  0  0  0
  -10.5009   23.1271  -32.0411 H   0  0  0  0  0  0  0  0  0  0  0  0
   -7.2738   17.9158  -30.3363 H   0  0  0  0  0  0  0  0  0  0  0  0
   -5.5169   16.2023  -30.6067 H   0  0  0  0  0  0  0  0  0  0  0  0
   -4.2429   15.9461  -32.7020 H   0  0  0  0  0  0  0  0  0  0  0  0
   -6.4745   19.1951  -34.4248 H   0  0  0  0  0  0  0  0  0  0  0  0
   -5.6001   19.9028  -31.9921 H   0  0  0  0  0  0  0  0  0  0  0  0
   -2.7350   21.3000  -30.6110 H   0  0  0  0  0  0  0  0  0  0  0  0
   -1.3542   19.0048  -32.4390 H   0  0  0  0  0  0  0  0  0  0  0  0
   -0.4959   21.7746  -33.4476 H   0  0  0  0  0  0  0  0  0  0  0  0
    1.6265   20.5270  -32.5300 H   0  0  0  0  0  0  0  0  0  0  0  0
    0.8140   18.9797  -32.8909 H   0  0  0  0  0  0  0  0  0  0  0  0
    3.1501   20.6831  -33.5675 H   0  0  0  0  0  0  0  0  0  0  0  0
    3.3940   19.8178  -35.1227 H   0  0  0  0  0  0  0  0  0  0  0  0
    2.8312   21.5236  -35.1227 H   0  0  0  0  0  0  0  0  0  0  0  0
    0.1451   21.7917  -34.4372 H   0  0  0  0  0  0  0  0  0  0  0  0
    1.2765   21.7715  -35.8323 H   0  0  0  0  0  0  0  0  0  0  0  0
   -0.1686   20.7045  -35.8323 H   0  0  0  0  0  0  0  0  0  0  0  0
  1  2  1  0
  2  3  1  0
  3  4  1  0
  4  5  2  0
  5  6  1  0
  6  7  1  0
  7  8  1  0
  8  9  2  0
  9 10  1  0
 10 11  2  0
 11 12  1  0
 12 13  2  0
 13 14  1  0
 14 15  2  0
 15 16  1  0
 16 17  1  0
 16 18  2  0
 10 19  1  0
 19 20  1  0
 20 21  2  0
 21 22  1  0
 22 23  1  0
 23 24  2  0
 23 25  1  0
 25 26  2  0
 26 27  1  0
 27 28  1  0
 28 29  1  0
 28 30  1  0
 21  4  1  0
 19  6  2  0
 18 12  1  0
  1 31  1  0
  1 32  1  0
  1 33  1  0
  2 34  1  0
  2 35  1  0
  5 36  1  0
  7 37  1  0
  8 38  1  0
 13 39  1  0
 14 40  1  0
 15 41  1  0
 18 42  1  0
 20 43  1  0
 22 44  1  0
 25 45  1  0
 26 46  1  0
 27 47  1  0
 27 48  1  0
 29 49  1  0
 29 50  1  0
 29 51  1  0
 30 52  1  0
 30 53  1  0
 30 54  1  0
M  END
>  <smiles>  (23) 
CCOc1cc2[nH]cnc(=Nc3cccc(Br)c3)c2cc1NC(=O)C=CCN(C)C

>  <score_type>  (23) 
oracle

>  <origin>  (23) 
adgpu

>  <m_score__min__energy>  (23) 
-9.0299999999999994

>  <m_primary>  (23) 
energy

$$$$
23:0
     RDKit          3D

 52 54  0  0  0  0  0  0  0  0999 V2000
   -0.2640   21.0430  -31.7900 C   0  0  0  0  0  0  0  0  0  0  0  0
   -1.5630   21.5440  -32.0910 O   0  0  0  0  0  0  0  0  0  0  0  0
   -2.7150   20.7490  -32.2090 C   0  0  0  0  0  0  0  0  0  0  0  0
   -3.5600   20.4930  -31.1100 C   0  0  0  0  0  0  0  0  0  0  0  0
   -4.6940   19.6910  -31.2620 C   0  0  0  0  0  0  0  0  0  0  0  0
   -4.9990   19.1230  -32.5060 C   0  0  0  0  0  0  0  0  0  0  0  0
   -6.2340   18.2880  -32.6760 C   0  0  0  0  0  0  0  0  0  0  0  0
   -7.2240   19.0430  -33.4390 N   0  0  0  0  0  0  0  0  0  0  0  0
   -8.2590   19.9220  -32.3570 S   0  0  0  0  0  0  0  0  0  0  0  0
   -9.4960   20.3720  -33.0850 O   0  0  0  0  0  0  0  0  0  0  0  0
   -8.6740   19.0200  -31.2290 O   0  0  0  0  0  0  0  0  0  0  0  0
   -7.4040   21.3130  -31.6960 C   0  0  0  0  0  0  0  0  0  0  0  0
   -6.3870   21.9400  -32.4310 C   0  0  0  0  0  0  0  0  0  0  0  0
   -5.6960   23.0280  -31.8890 C   0  0  0  0  0  0  0  0  0  0  0  0
   -6.0150   23.4980  -30.6070 C   0  0  0  0  0  0  0  0  0  0  0  0
   -5.1630   24.8730  -29.9110 S   0  0  0  0  0  0  0  0  0  0  0  0
   -4.4020   25.5690  -31.0060 O   0  0  0  0  0  0  0  0  0  0  0  0
   -6.1420   25.8400  -29.3050 O   0  0  0  0  0  0  0  0  0  0  0  0
   -4.0570   24.3080  -28.6820 N   0  0  0  0  0  0  0  0  0  0  0  0
   -2.6480   24.5820  -29.0640 C   0  0  0  0  0  0  0  0  0  0  0  0
   -1.9130   23.3380  -29.5830 C   0  0  0  0  0  0  0  0  0  0  0  0
   -1.9110   22.2140  -28.5330 C   0  0  0  0  0  0  0  0  0  0  0  0
   -3.1670   22.2310  -27.6430 C   0  0  0  0  0  0  0  0  0  0  0  0
   -4.3450   22.8920  -28.3650 C   0  0  0  0  0  0  0  0  0  0  0  0
   -7.0280   22.8690  -29.8720 C   0  0  0  0  0  0  0  0  0  0  0  0
   -7.7170   21.7800  -30.4120 C   0  0  0  0  0  0  0  0  0  0  0  0
   -4.1720   19.3920  -33.6070 C   0  0  0  0  0  0  0  0  0  0  0  0
   -3.0330   20.1940  -33.4620 C   0  0  0  0  0  0  0  0  0  0  0  0
   -2.2310   20.4280  -34.5780 O   0  0  0  0  0  0  0  0  0  0  0  0
   -0.1341   20.9929  -30.6988 H   0  0  0  0  0  0  0  0  0  0  0  0
   -0.1506   20.0366  -32.2194 H   0  0  0  0  0  0  0  0  0  0  0  0
    0.4958   21.7126  -32.2194 H   0  0  0  0  0  0  0  0  0  0  0  0
   -3.3252   20.9272  -30.1270 H   0  0  0  0  0  0  0  0  0  0  0  0
   -5.3512   19.5044  -30.3999 H   0  0  0  0  0  0  0  0  0  0  0  0
   -5.9812   17.3632  -33.2153 H   0  0  0  0  0  0  0  0  0  0  0  0
   -6.6456   18.0324  -31.6884 H   0  0  0  0  0  0  0  0  0  0  0  0
   -6.1323   21.5746  -33.4368 H   0  0  0  0  0  0  0  0  0  0  0  0
   -4.8999   23.5166  -32.4699 H   0  0  0  0  0  0  0  0  0  0  0  0
   -2.6418   25.3475  -29.8539 H   0  0  0  0  0  0  0  0  0  0  0  0
   -2.1222   24.9205  -28.1590 H   0  0  0  0  0  0  0  0  0  0  0  0
   -2.4155   22.9780  -30.4929 H   0  0  0  0  0  0  0  0  0  0  0  0
   -0.8704   23.6145  -29.7990 H   0  0  0  0  0  0  0  0  0  0  0  0
   -1.8614   21.2462  -29.0534 H   0  0  0  0  0  0  0  0  0  0  0  0
   -1.0391   22.3699  -27.8807 H   0  0  0  0  0  0  0  0  0  0  0  0
   -3.4384   21.1968  -27.3847 H   0  0  0  0  0  0  0  0  0  0  0  0
   -2.9441   22.8103  -26.7348 H   0  0  0  0  0  0  0  0  0  0  0  0
   -4.5419   22.3485  -29.3009 H   0  0  0  0  0  0  0  0  0  0  0  0
   -5.2218   22.8568  -27.7017 H   0  0  0  0  0  0  0  0  0  0  0  0
   -7.2821   23.2338  -28.8658 H   0  0  0  0  0  0  0  0  0  0  0  0
   -8.5079   21.2874  -29.8274 H   0  0  0  0  0  0  0  0  0  0  0  0
   -4.4202   18.9697  -34.5919 H   0  0  0  0  0  0  0  0  0  0  0  0
   -1.7430   21.3050  -34.7190 H   0  0  0  0  0  0  0  0  0  0  0  0
  1  2  1  0
  2  3  1  0
  3  4  2  0
  4  5  1  0
  5  6  2  0
  6  7  1  0
  7  8  1  0
  8  9  1  0
  9 10  2  0
  9 11  2  0
  9 12  1  0
 12 13  2  0
 13 14  1  0
 14 15  2  0
 15 16  1  0
 16 17  2  0
 16 18  2  0
 16 19  1  0
 19 20  1  0
 20 21  1  0
 21 22  1  0
 22 23  1  0
 23 24  1  0
 15 25  1  0
 25 26  2  0
  6 27  1  0
 27 28  2  0
 28 29  1  0
 28  3  1  0
 26 12  1  0
 24 19  1  0
  1 30  1  0
  1 31  1  0
  1 32  1  0
  4 33  1  0
  5 34  1  0
  7 35  1  0
  7 36  1  0
 13 37  1  0
 14 38  1  0
 20 39  1  0
 20 40  1  0
 21 41  1  0
 21 42  1  0
 22 43  1  0
 22 44  1  0
 23 45  1  0
 23 46  1  0
 24 47  1  0
 24 48  1  0
 25 49  1  0
 26 50  1  0
 27 51  1  0
 29 52  1  0
M  CHG  1   8  -1
M  END
>  <UniqueID>  (24) 
22

>  <SMILES>  (24) 
COc1ccc(C[N-]S(=O)(=O)c2ccc(S(=O)(=O)N3CCCCC3)cc2)cc1O

>  <Energy>  (24) 
55.343536654817584

>  <Genealogy>  (24) 
COc1ccc(C[N-]S(=O)(=O)c2ccc(S(=O)(=O)N3CCCCC3)cc2)cc1O (protonated)
COc1ccc(C[N-]S(=O)(=O)c2ccc(S(=O)(=O)N3CCCCC3)cc2)cc1O (3D coordinates assigned)
COc1ccc(C[N-]S(=O)(=O)c2ccc(S(=O)(=O)N3CCCCC3)cc2)cc1O (nonaromatic ring conformer: 55.343536654817584 kcal/mol)

>  <smiles>  (24) 
COc1ccc(CNS(=O)(=O)c2ccc(S(=O)(=O)N3CCCCC3)cc2)cc1O

>  <score_type>  (24) 
oracle

>  <origin>  (24) 
adgpu

>  <m_score__min__energy>  (24) 
-10.85

>  <m_primary>  (24) 
energy

$$$$
24:0
     RDKit          3D

 61 64  0  0  0  0  0  0  0  0999 V2000
   -0.8800   21.5640  -31.5120 C   0  0  0  0  0  0  0  0  0  0  0  0
   -1.7140   20.3540  -31.9010 C   0  0  0  0  0  0  0  0  0  0  0  0
   -2.7550   20.7610  -32.7850 O   0  0  0  0  0  0  0  0  0  0  0  0
   -4.1230   20.6870  -32.4890 C   0  0  0  0  0  0  0  0  0  0  0  0
   -4.8610   19.4880  -32.6560 C   0  0  0  0  0  0  0  0  0  0  0  0
   -6.2200   19.5080  -32.3440 C   0  0  0  0  0  0  0  0  0  0  0  0
   -6.8400   20.6350  -31.8780 C   0  0  0  0  0  0  0  0  0  0  0  0
   -6.1510   21.8320  -31.6990 C   0  0  0  0  0  0  0  0  0  0  0  0
   -4.7770   21.8530  -32.0110 C   0  0  0  0  0  0  0  0  0  0  0  0
   -4.0490   23.0720  -31.8680 N   0  0  0  0  0  0  0  0  0  0  0  0
   -4.1680   23.9990  -30.4130 S   0  0  0  0  0  0  0  0  0  0  0  0
   -5.5290   23.8260  -29.8000 O   0  0  0  0  0  0  0  0  0  0  0  0
   -3.9770   25.4530  -30.7420 O   0  0  0  0  0  0  0  0  0  0  0  0
   -2.9110   23.4720  -29.2910 C   0  0  0  0  0  0  0  0  0  0  0  0
   -2.9480   22.1690  -28.7740 C   0  0  0  0  0  0  0  0  0  0  0  0
   -1.9990   21.7490  -27.8330 C   0  0  0  0  0  0  0  0  0  0  0  0
   -2.0820   20.1230  -27.1520 S   0  0  0  0  0  0  0  0  0  0  0  0
   -3.5100   19.6530  -27.1620 O   0  0  0  0  0  0  0  0  0  0  0  0
   -1.6150   20.1600  -25.7220 O   0  0  0  0  0  0  0  0  0  0  0  0
   -1.1000   18.9950  -28.0600 N   0  0  0  0  0  0  0  0  0  0  0  0
   -0.5440   17.9540  -27.1680 C   0  0  0  0  0  0  0  0  0  0  0  0
    0.6610   17.2530  -27.8020 C   0  0  0  0  0  0  0  0  0  0  0  0
    1.8080   18.2460  -28.0480 C   0  0  0  0  0  0  0  0  0  0  0  0
    1.3110   19.6820  -28.2930 C   0  0  0  0  0  0  0  0  0  0  0  0
   -0.1000   19.6960  -28.9010 C   0  0  0  0  0  0  0  0  0  0  0  0
   -0.9970   22.6370  -27.4180 C   0  0  0  0  0  0  0  0  0  0  0  0
   -0.9560   23.9370  -27.9280 C   0  0  0  0  0  0  0  0  0  0  0  0
   -1.9110   24.3600  -28.8570 C   0  0  0  0  0  0  0  0  0  0  0  0
   -1.8620   25.6650  -29.3350 O   0  0  0  0  0  0  0  0  0  0  0  0
   -8.1450   20.3700  -31.6650 N   0  0  0  0  0  0  0  0  0  0  0  0
   -9.1940   21.3030  -31.2610 C   0  0  0  0  0  0  0  0  0  0  0  0
   -8.2840   19.0720  -32.0310 C   0  0  0  0  0  0  0  0  0  0  0  0
   -9.3830   18.4510  -31.9920 O   0  0  0  0  0  0  0  0  0  0  0  0
   -7.1230   18.5120  -32.4520 N   0  0  0  0  0  0  0  0  0  0  0  0
   -6.8910   17.1330  -32.8740 C   0  0  0  0  0  0  0  0  0  0  0  0
   -0.8294   21.6373  -30.4156 H   0  0  0  0  0  0  0  0  0  0  0  0
    0.1360   21.4554  -31.9195 H   0  0  0  0  0  0  0  0  0  0  0  0
   -1.3430   22.4748  -31.9195 H   0  0  0  0  0  0  0  0  0  0  0  0
   -1.0743   19.6136  -32.4036 H   0  0  0  0  0  0  0  0  0  0  0  0
   -2.1534   19.9050  -30.9981 H   0  0  0  0  0  0  0  0  0  0  0  0
   -4.3765   18.5702  -33.0205 H   0  0  0  0  0  0  0  0  0  0  0  0
   -6.6626   22.7316  -31.3263 H   0  0  0  0  0  0  0  0  0  0  0  0
   -3.7287   21.4708  -29.1102 H   0  0  0  0  0  0  0  0  0  0  0  0
   -0.2282   18.4237  -26.2248 H   0  0  0  0  0  0  0  0  0  0  0  0
   -1.3255   17.2007  -26.9895 H   0  0  0  0  0  0  0  0  0  0  0  0
    1.0114   16.4585  -27.1268 H   0  0  0  0  0  0  0  0  0  0  0  0
    0.3514   16.8282  -28.7683 H   0  0  0  0  0  0  0  0  0  0  0  0
    2.4667   18.2475  -27.1670 H   0  0  0  0  0  0  0  0  0  0  0  0
    2.3397   17.9202  -28.9542 H   0  0  0  0  0  0  0  0  0  0  0  0
    1.2922   20.2216  -27.3347 H   0  0  0  0  0  0  0  0  0  0  0  0
    1.9967   20.1670  -29.0034 H   0  0  0  0  0  0  0  0  0  0  0  0
   -0.4178   20.7417  -29.0253 H   0  0  0  0  0  0  0  0  0  0  0  0
   -0.0491   19.1653  -29.8631 H   0  0  0  0  0  0  0  0  0  0  0  0
   -0.2411   22.3095  -26.6890 H   0  0  0  0  0  0  0  0  0  0  0  0
   -0.1689   24.6306  -27.5971 H   0  0  0  0  0  0  0  0  0  0  0  0
   -9.2430   21.3466  -30.1630 H   0  0  0  0  0  0  0  0  0  0  0  0
   -8.9676   22.3036  -31.6579 H   0  0  0  0  0  0  0  0  0  0  0  0
  -10.1613   20.9614  -31.6579 H   0  0  0  0  0  0  0  0  0  0  0  0
   -6.7831   16.4914  -31.9871 H   0  0  0  0  0  0  0  0  0  0  0  0
   -7.7433   16.7856  -33.4764 H   0  0  0  0  0  0  0  0  0  0  0  0
   -5.9719   17.0836  -33.4764 H   0  0  0  0  0  0  0  0  0  0  0  0
  1  2  1  0
  2  3  1  0
  3  4  1  0
  4  5  2  0
  5  6  1  0
  6  7  2  0
  7  8  1  0
  8  9  2  0
  9 10  1  0
 10 11  1  0
 11 12  2  0
 11 13  2  0
 11 14  1  0
 14 15  2  0
 15 16  1  0
 16 17  1  0
 17 18  2  0
 17 19  2  0
 17 20  1  0
 20 21  1  0
 21 22  1  0
 22 23  1  0
 23 24  1  0
 24 25  1  0
 16 26  2  0
 26 27  1  0
 27 28  2  0
 28 29  1  0
  7 30  1  0
 30 31  1  0
 30 32  1  0
 32 33  2  0
 32 34  1  0
 34 35  1  0
  9  4  1  0
 28 14  1  0
 34  6  1  0
 25 20  1  0
  1 36  1  0
  1 37  1  0
  1 38  1  0
  2 39  1  0
  2 40  1  0
  5 41  1  0
  8 42  1  0
 15 43  1  0
 21 44  1  0
 21 45  1  0
 22 46  1  0
 22 47  1  0
 23 48  1  0
 23 49  1  0
 24 50  1  0
 24 51  1  0
 25 52  1  0
 25 53  1  0
 26 54  1  0
 27 55  1  0
 31 56  1  0
 31 57  1  0
 31 58  1  0
 35 59  1  0
 35 60  1  0
 35 61  1  0
M  CHG  2  10  -1  29  -1
M  END
>  <UniqueID>  (25) 
23

>  <SMILES>  (25) 
CCOc1cc2c(cc1[N-]S(=O)(=O)c1cc(S(=O)(=O)N3CCCCC3)ccc1[O-])n(C)c(=O)n2C

>  <Energy>  (25) 
111.84691267412555

>  <Genealogy>  (25) 
CCOc1cc2c(cc1[N-]S(=O)(=O)c1cc(S(=O)(=O)N3CCCCC3)ccc1[O-])n(C)c(=O)n2C (protonated)
CCOc1cc2c(cc1[N-]S(=O)(=O)c1cc(S(=O)(=O)N3CCCCC3)ccc1[O-])n(C)c(=O)n2C (3D coordinates assigned)
CCOc1cc2c(cc1[N-]S(=O)(=O)c1cc(S(=O)(=O)N3CCCCC3)ccc1[O-])n(C)c(=O)n2C (nonaromatic ring conformer: 111.84691267412555 kcal/mol)

>  <smiles>  (25) 
CCOc1cc2c(cc1NS(=O)(=O)c1cc(S(=O)(=O)N3CCCCC3)ccc1O)n(C)c(=O)n2C

>  <score_type>  (25) 
oracle

>  <origin>  (25) 
adgpu

>  <m_score__min__energy>  (25) 
-14.449999999999999

>  <m_primary>  (25) 
energy

$$$$
25:0
     RDKit          3D

 47 50  0  0  0  0  0  0  0  0999 V2000
   -4.8274   25.0732  -31.4060 H   0  0  0  0  0  0  0  0  0  0  0  0
   -4.4840   24.6250  -30.4620 C   0  0  0  0  0  0  0  0  0  0  0  0
   -3.2490   24.9230  -29.9790 N   0  0  0  0  0  0  0  0  0  0  0  0
   -2.7670   24.3900  -28.8210 C   0  0  0  0  0  0  0  0  0  0  0  0
   -1.4450   24.7560  -28.3630 N   0  0  0  0  0  0  0  0  0  0  0  0
   -1.2160   26.1110  -27.8400 C   0  0  0  0  0  0  0  0  0  0  0  0
   -1.0070   26.7919  -28.6782 H   0  0  0  0  0  0  0  0  0  0  0  0
   -2.1155   26.4401  -27.2991 H   0  0  0  0  0  0  0  0  0  0  0  0
   -0.0270   26.1200  -26.8750 C   0  0  0  0  0  0  0  0  0  0  0  0
    0.2190   27.1602  -26.6151 H   0  0  0  0  0  0  0  0  0  0  0  0
   -0.3008   25.5550  -25.9718 H   0  0  0  0  0  0  0  0  0  0  0  0
    1.1030   25.5100  -27.4670 O   0  0  0  0  0  0  0  0  0  0  0  0
    0.8420   24.1360  -27.6750 C   0  0  0  0  0  0  0  0  0  0  0  0
    1.7582   23.6460  -28.0363 H   0  0  0  0  0  0  0  0  0  0  0  0
    0.5188   23.6913  -26.7222 H   0  0  0  0  0  0  0  0  0  0  0  0
   -0.2710   23.9420  -28.7080 C   0  0  0  0  0  0  0  0  0  0  0  0
    0.0992   24.2433  -29.6991 H   0  0  0  0  0  0  0  0  0  0  0  0
   -0.5650   22.8821  -28.7175 H   0  0  0  0  0  0  0  0  0  0  0  0
   -3.5650   23.4740  -28.1110 C   0  0  0  0  0  0  0  0  0  0  0  0
   -3.1899   23.0149  -27.1844 H   0  0  0  0  0  0  0  0  0  0  0  0
   -4.8350   23.1520  -28.5900 C   0  0  0  0  0  0  0  0  0  0  0  0
   -5.4565   22.4262  -28.0451 H   0  0  0  0  0  0  0  0  0  0  0  0
   -5.3230   23.7450  -29.7570 C   0  0  0  0  0  0  0  0  0  0  0  0
   -6.6230   23.3630  -30.2400 N   0  0  0  0  0  0  0  0  0  0  0  0
   -6.9580   22.2330  -30.7960 C   0  0  0  0  0  0  0  0  0  0  0  0
   -6.0270   21.2770  -31.0660 N   0  0  0  0  0  0  0  0  0  0  0  0
   -6.3670   20.1080  -31.6650 C   0  0  0  0  0  0  0  0  0  0  0  0
   -5.5961   19.3505  -31.8698 H   0  0  0  0  0  0  0  0  0  0  0  0
   -7.6970   19.8660  -32.0220 C   0  0  0  0  0  0  0  0  0  0  0  0
   -8.0920   18.5970  -32.7250 C   0  0  0  0  0  0  0  0  0  0  0  0
   -8.8151   18.8320  -33.5199 H   0  0  0  0  0  0  0  0  0  0  0  0
   -8.5454   17.9092  -31.9961 H   0  0  0  0  0  0  0  0  0  0  0  0
   -6.8820   17.9410  -33.3320 C   0  0  0  0  0  0  0  0  0  0  0  0
   -6.5450   16.6220  -32.9860 C   0  0  0  0  0  0  0  0  0  0  0  0
   -7.1485   16.0783  -32.2443 H   0  0  0  0  0  0  0  0  0  0  0  0
   -5.4440   15.9980  -33.5820 C   0  0  0  0  0  0  0  0  0  0  0  0
   -5.1808   14.9666  -33.3048 H   0  0  0  0  0  0  0  0  0  0  0  0
   -4.6780   16.6830  -34.5290 C   0  0  0  0  0  0  0  0  0  0  0  0
   -3.8109   16.1915  -34.9944 H   0  0  0  0  0  0  0  0  0  0  0  0
   -5.0130   17.9920  -34.8850 C   0  0  0  0  0  0  0  0  0  0  0  0
   -4.4097   18.5298  -35.6312 H   0  0  0  0  0  0  0  0  0  0  0  0
   -6.1140   18.6190  -34.2940 C   0  0  0  0  0  0  0  0  0  0  0  0
   -6.3800   19.6465  -34.5830 H   0  0  0  0  0  0  0  0  0  0  0  0
   -8.6380   20.8690  -31.7610 C   0  0  0  0  0  0  0  0  0  0  0  0
   -9.6901   20.7216  -32.0461 H   0  0  0  0  0  0  0  0  0  0  0  0
   -8.2550   22.0250  -31.1560 N   0  0  0  0  0  0  0  0  0  0  0  0
   -8.9740   22.7620  -30.9690 H   0  0  0  0  0  0  0  0  0  0  0  0
  1  2  1  0
  2  3  2  0
  3  4  1  0
  4  5  1  0
  5  6  1  0
  6  7  1  0
  6  8  1  0
  6  9  1  0
  9 10  1  0
  9 11  1  0
  9 12  1  0
 12 13  1  0
 13 14  1  0
 13 15  1  0
 13 16  1  0
 16 17  1  0
 16 18  1  0
  4 19  2  0
 19 20  1  0
 19 21  1  0
 21 22  1  0
 21 23  2  0
 23 24  1  0
 24 25  2  0
 25 26  1  0
 26 27  2  0
 27 28  1  0
 27 29  1  0
 29 30  1  0
 30 31  1  0
 30 32  1  0
 30 33  1  0
 33 34  2  0
 34 35  1  0
 34 36  1  0
 36 37  1  0
 36 38  2  0
 38 39  1  0
 38 40  1  0
 40 41  1  0
 40 42  2  0
 42 43  1  0
 29 44  2  0
 44 45  1  0
 44 46  1  0
 46 47  1  0
 23  2  1  0
 46 25  1  0
 16  5  1  0
 42 33  1  0
M  END
>  <UniqueID>  (26) 
24

>  <SMILES>  (26) 
c1ccc(Cc2cn/c(=N\c3ccc(N4CCOCC4)nc3)[nH]c2)cc1

>  <Energy>  (26) 
60.89423896739606

>  <Genealogy>  (26) 
c1ccc(Cc2cn/c(=N\c3ccc(N4CCOCC4)nc3)[nH]c2)cc1 (cis-trans isomerization)
c1ccc(Cc2cn/c(=N\c3ccc(N4CCOCC4)nc3)[nH]c2)cc1 (3D coordinates assigned)
c1ccc(Cc2cn/c(=N\c3ccc(N4CCOCC4)nc3)[nH]c2)cc1 (nonaromatic ring conformer: 60.89423896739606 kcal/mol)

>  <smiles>  (26) 
c1ccc(Cc2cnc(=Nc3ccc(N4CCOCC4)nc3)[nH]c2)cc1

>  <score_type>  (26) 
oracle

>  <origin>  (26) 
adgpu

>  <m_score__min__energy>  (26) 
-8.25

>  <m_primary>  (26) 
energy

$$$$
26:0
     RDKit          3D

 48 50  0  0  0  0  0  0  0  0999 V2000
   -1.0310   25.4290  -27.0010 C   0  0  0  0  0  0  0  0  0  0  0  0
   -1.0260   24.5930  -28.2760 C   0  0  0  0  0  0  0  0  0  0  0  0
   -1.9360   25.1590  -29.2720 N   0  0  0  0  0  0  0  0  0  0  0  0
   -3.1130   24.6880  -29.5590 C   0  0  0  0  0  0  0  0  0  0  0  0
   -3.8600   25.2990  -30.5150 N   0  0  0  0  0  0  0  0  0  0  0  0
   -5.0960   24.8410  -30.8420 C   0  0  0  0  0  0  0  0  0  0  0  0
   -5.6230   23.7270  -30.1840 C   0  0  0  0  0  0  0  0  0  0  0  0
   -7.2110   23.0990  -30.6050 S   0  0  0  0  0  0  0  0  0  0  0  0
   -8.0100   24.1600  -31.3090 O   0  0  0  0  0  0  0  0  0  0  0  0
   -7.9530   22.7040  -29.3600 O   0  0  0  0  0  0  0  0  0  0  0  0
   -7.0160   21.6990  -31.6540 C   0  0  0  0  0  0  0  0  0  0  0  0
   -8.0800   20.8080  -31.8430 C   0  0  0  0  0  0  0  0  0  0  0  0
   -7.9200   19.6840  -32.6580 C   0  0  0  0  0  0  0  0  0  0  0  0
   -6.6940   19.4400  -33.3010 C   0  0  0  0  0  0  0  0  0  0  0  0
   -6.4940   18.2780  -34.1250 N   0  0  0  0  0  0  0  0  0  0  0  0
   -6.4190   16.9370  -33.6230 C   0  0  0  0  0  0  0  0  0  0  0  0
   -6.6930   16.6860  -32.4190 O   0  0  0  0  0  0  0  0  0  0  0  0
   -6.0150   15.8850  -34.5100 N   0  0  0  0  0  0  0  0  0  0  0  0
   -6.0220   14.4750  -34.2280 C   0  0  0  0  0  0  0  0  0  0  0  0
   -6.9880   13.6220  -34.7940 C   0  0  0  0  0  0  0  0  0  0  0  0
   -6.9670   12.2520  -34.5230 C   0  0  0  0  0  0  0  0  0  0  0  0
   -5.9790   11.7170  -33.6970 C   0  0  0  0  0  0  0  0  0  0  0  0
   -4.9990   12.5470  -33.1480 C   0  0  0  0  0  0  0  0  0  0  0  0
   -5.0050   13.9270  -33.4180 C   0  0  0  0  0  0  0  0  0  0  0  0
   -3.9470   14.8120  -32.8180 C   0  0  0  0  0  0  0  0  0  0  0  0
   -5.6220   20.3180  -33.0800 C   0  0  0  0  0  0  0  0  0  0  0  0
   -5.7820   21.4430  -32.2650 C   0  0  0  0  0  0  0  0  0  0  0  0
   -4.8420   23.1050  -29.2080 C   0  0  0  0  0  0  0  0  0  0  0  0
   -3.6100   23.5970  -28.9120 N   0  0  0  0  0  0  0  0  0  0  0  0
   -1.0270   24.7628  -26.1257 H   0  0  0  0  0  0  0  0  0  0  0  0
   -0.1367   26.0691  -26.9787 H   0  0  0  0  0  0  0  0  0  0  0  0
   -1.9329   26.0583  -26.9787 H   0  0  0  0  0  0  0  0  0  0  0  0
   -0.0069   24.5719  -28.6894 H   0  0  0  0  0  0  0  0  0  0  0  0
   -1.3610   23.5743  -28.0310 H   0  0  0  0  0  0  0  0  0  0  0  0
   -5.6815   25.3466  -31.6240 H   0  0  0  0  0  0  0  0  0  0  0  0
   -9.0448   20.9935  -31.3483 H   0  0  0  0  0  0  0  0  0  0  0  0
   -8.7586   18.9859  -32.7972 H   0  0  0  0  0  0  0  0  0  0  0  0
   -6.4980   18.4030  -35.1620 H   0  0  0  0  0  0  0  0  0  0  0  0
   -7.7642   14.0369  -35.4538 H   0  0  0  0  0  0  0  0  0  0  0  0
   -7.7313   11.5938  -34.9620 H   0  0  0  0  0  0  0  0  0  0  0  0
   -5.9715   10.6392  -33.4774 H   0  0  0  0  0  0  0  0  0  0  0  0
   -4.2188   12.1191  -32.5013 H   0  0  0  0  0  0  0  0  0  0  0  0
   -4.0064   14.7623  -31.7207 H   0  0  0  0  0  0  0  0  0  0  0  0
   -2.9542   14.4715  -33.1472 H   0  0  0  0  0  0  0  0  0  0  0  0
   -4.1067   15.8493  -33.1472 H   0  0  0  0  0  0  0  0  0  0  0  0
   -4.6482   20.1198  -33.5515 H   0  0  0  0  0  0  0  0  0  0  0  0
   -4.9369   22.1283  -32.1034 H   0  0  0  0  0  0  0  0  0  0  0  0
   -5.2230   22.2186  -28.6797 H   0  0  0  0  0  0  0  0  0  0  0  0
  1  2  1  0
  2  3  1  0
  3  4  2  3
  4  5  1  0
  5  6  2  0
  6  7  1  0
  7  8  1  0
  8  9  2  0
  8 10  2  0
  8 11  1  0
 11 12  2  0
 12 13  1  0
 13 14  2  0
 14 15  1  0
 15 16  1  0
 16 17  2  0
 16 18  1  0
 18 19  1  0
 19 20  2  0
 20 21  1  0
 21 22  2  0
 22 23  1  0
 23 24  2  0
 24 25  1  0
 14 26  1  0
 26 27  2  0
  7 28  2  0
 28 29  1  0
 29  4  1  0
 27 11  1  0
 24 19  1  0
  1 30  1  0
  1 31  1  0
  1 32  1  0
  2 33  1  0
  2 34  1  0
  6 35  1  0
 12 36  1  0
 13 37  1  0
 15 38  1  0
 20 39  1  0
 21 40  1  0
 22 41  1  0
 23 42  1  0
 25 43  1  0
 25 44  1  0
 25 45  1  0
 26 46  1  0
 27 47  1  0
 28 48  1  0
M  CHG  2  18  -1  29  -1
M  END
>  <UniqueID>  (27) 
25

>  <SMILES>  (27) 
CCN=c1ncc(S(=O)(=O)c2ccc(NC(=O)[N-]c3ccccc3C)cc2)c[n-]1

>  <Energy>  (27) 
57.41333090056168

>  <Genealogy>  (27) 
CCN=c1ncc(S(=O)(=O)c2ccc(NC(=O)[N-]c3ccccc3C)cc2)c[n-]1 (protonated)
CCN=c1ncc(S(=O)(=O)c2ccc(NC(=O)[N-]c3ccccc3C)cc2)c[n-]1 (3D coordinates assigned)
CCN=c1ncc(S(=O)(=O)c2ccc(NC(=O)[N-]c3ccccc3C)cc2)c[n-]1 (optimized conformer: 57.41333090056168 kcal/mol)

>  <smiles>  (27) 
CCN=c1ncc(S(=O)(=O)c2ccc(NC(=O)Nc3ccccc3C)cc2)c[nH]1

>  <score_type>  (27) 
oracle

>  <origin>  (27) 
adgpu

>  <m_score__min__energy>  (27) 
-11.26

>  <m_primary>  (27) 
energy

$$$$
27:0
     RDKit          3D

 60 63  0  0  0  0  0  0  0  0999 V2000
   -2.8410   23.0120  -27.5770 C   0  0  0  0  0  0  0  0  0  0  0  0
   -3.7480   23.2030  -28.7560 C   0  0  0  0  0  0  0  0  0  0  0  0
   -4.2730   24.4720  -29.0440 C   0  0  0  0  0  0  0  0  0  0  0  0
   -5.0850   24.6660  -30.1710 C   0  0  0  0  0  0  0  0  0  0  0  0
   -5.6890   26.0130  -30.4460 C   0  0  0  0  0  0  0  0  0  0  0  0
   -5.3830   23.5770  -31.0050 C   0  0  0  0  0  0  0  0  0  0  0  0
   -4.8410   22.3130  -30.7390 C   0  0  0  0  0  0  0  0  0  0  0  0
   -5.1890   20.9490  -31.7990 S   0  0  0  0  0  0  0  0  0  0  0  0
   -4.5550   21.2030  -33.1390 O   0  0  0  0  0  0  0  0  0  0  0  0
   -4.6080   19.6800  -31.2380 O   0  0  0  0  0  0  0  0  0  0  0  0
   -6.9420   20.7590  -31.9800 C   0  0  0  0  0  0  0  0  0  0  0  0
   -7.7580   21.8870  -31.8000 C   0  0  0  0  0  0  0  0  0  0  0  0
   -9.1410   21.8000  -31.9690 C   0  0  0  0  0  0  0  0  0  0  0  0
   -9.7260   20.5860  -32.3200 C   0  0  0  0  0  0  0  0  0  0  0  0
   -8.9330   19.4520  -32.4950 C   0  0  0  0  0  0  0  0  0  0  0  0
   -7.5390   19.5180  -32.3210 C   0  0  0  0  0  0  0  0  0  0  0  0
   -6.7510   18.2760  -32.4910 C   0  0  0  0  0  0  0  0  0  0  0  0
   -6.5410   17.5350  -31.4950 O   0  0  0  0  0  0  0  0  0  0  0  0
   -6.3100   17.8350  -33.7820 N   0  0  0  0  0  0  0  0  0  0  0  0
   -4.9550   17.5500  -34.1660 C   0  0  0  0  0  0  0  0  0  0  0  0
   -4.6200   16.3930  -34.8910 C   0  0  0  0  0  0  0  0  0  0  0  0
   -3.2940   16.1550  -35.2600 C   0  0  0  0  0  0  0  0  0  0  0  0
   -2.2970   17.0730  -34.9230 C   0  0  0  0  0  0  0  0  0  0  0  0
   -2.6230   18.2400  -34.2200 C   0  0  0  0  0  0  0  0  0  0  0  0
   -1.3600   19.4060  -33.8330 S   0  0  0  0  0  0  0  0  0  0  0  0
   -0.0340   18.7060  -33.7040 O   0  0  0  0  0  0  0  0  0  0  0  0
   -1.2660   20.4110  -34.9480 O   0  0  0  0  0  0  0  0  0  0  0  0
   -1.7630   20.2190  -32.3420 N   0  0  0  0  0  0  0  0  0  0  0  0
   -1.2190   21.5790  -32.2960 C   0  0  0  0  0  0  0  0  0  0  0  0
   -0.9930   21.9120  -30.8260 C   0  0  0  0  0  0  0  0  0  0  0  0
   -1.0410   20.5800  -30.0910 C   0  0  0  0  0  0  0  0  0  0  0  0
   -1.2060   19.5280  -31.1770 C   0  0  0  0  0  0  0  0  0  0  0  0
   -3.9560   18.4810  -33.8570 C   0  0  0  0  0  0  0  0  0  0  0  0
   -4.0240   22.1300  -29.6150 C   0  0  0  0  0  0  0  0  0  0  0  0
   -3.4171   23.1333  -26.6478 H   0  0  0  0  0  0  0  0  0  0  0  0
   -2.4054   22.0024  -27.6092 H   0  0  0  0  0  0  0  0  0  0  0  0
   -2.0353   23.7602  -27.6092 H   0  0  0  0  0  0  0  0  0  0  0  0
   -4.0462   25.3203  -28.3815 H   0  0  0  0  0  0  0  0  0  0  0  0
   -5.9142   26.5152  -29.4936 H   0  0  0  0  0  0  0  0  0  0  0  0
   -4.9781   26.6227  -31.0229 H   0  0  0  0  0  0  0  0  0  0  0  0
   -6.6172   25.8878  -31.0229 H   0  0  0  0  0  0  0  0  0  0  0  0
   -6.0455   23.7169  -31.8719 H   0  0  0  0  0  0  0  0  0  0  0  0
   -7.3030   22.8494  -31.5229 H   0  0  0  0  0  0  0  0  0  0  0  0
   -9.7693   22.6913  -31.8248 H   0  0  0  0  0  0  0  0  0  0  0  0
  -10.8152   20.5213  -32.4595 H   0  0  0  0  0  0  0  0  0  0  0  0
   -9.4026   18.4966  -32.7719 H   0  0  0  0  0  0  0  0  0  0  0  0
   -5.4042   15.6732  -35.1684 H   0  0  0  0  0  0  0  0  0  0  0  0
   -3.0346   15.2427  -35.8171 H   0  0  0  0  0  0  0  0  0  0  0  0
   -1.2530   16.8792  -35.2103 H   0  0  0  0  0  0  0  0  0  0  0  0
   -2.8070   20.2590  -32.2550 H   0  0  0  0  0  0  0  0  0  0  0  0
   -0.2673   21.6252  -32.8456 H   0  0  0  0  0  0  0  0  0  0  0  0
   -1.9098   22.2970  -32.7622 H   0  0  0  0  0  0  0  0  0  0  0  0
   -0.0128   22.3916  -30.6875 H   0  0  0  0  0  0  0  0  0  0  0  0
   -1.7512   22.6130  -30.4468 H   0  0  0  0  0  0  0  0  0  0  0  0
   -0.1079   20.4142  -29.5326 H   0  0  0  0  0  0  0  0  0  0  0  0
   -1.8608   20.5452  -29.3584 H   0  0  0  0  0  0  0  0  0  0  0  0
   -0.2312   19.0845  -31.4281 H   0  0  0  0  0  0  0  0  0  0  0  0
   -1.8651   18.7124  -30.8448 H   0  0  0  0  0  0  0  0  0  0  0  0
   -4.2185   19.4078  -33.3259 H   0  0  0  0  0  0  0  0  0  0  0  0
   -3.5967   21.1383  -29.4055 H   0  0  0  0  0  0  0  0  0  0  0  0
  1  2  1  0
  2  3  2  0
  3  4  1  0
  4  5  1  0
  4  6  2  0
  6  7  1  0
  7  8  1  0
  8  9  2  0
  8 10  2  0
  8 11  1  0
 11 12  2  0
 12 13  1  0
 13 14  2  0
 14 15  1  0
 15 16  2  0
 16 17  1  0
 17 18  2  0
 17 19  1  0
 19 20  1  0
 20 21  2  0
 21 22  1  0
 22 23  2  0
 23 24  1  0
 24 25  1  0
 25 26  2  0
 25 27  2  0
 25 28  1  0
 28 29  1  0
 29 30  1  0
 30 31  1  0
 31 32  1  0
 24 33  2  0
  7 34  2  0
 34  2  1  0
 16 11  1  0
 33 20  1  0
 32 28  1  0
  1 35  1  0
  1 36  1  0
  1 37  1  0
  3 38  1  0
  5 39  1  0
  5 40  1  0
  5 41  1  0
  6 42  1  0
 12 43  1  0
 13 44  1  0
 14 45  1  0
 15 46  1  0
 21 47  1  0
 22 48  1  0
 23 49  1  0
 28 50  1  0
 29 51  1  0
 29 52  1  0
 30 53  1  0
 30 54  1  0
 31 55  1  0
 31 56  1  0
 32 57  1  0
 32 58  1  0
 33 59  1  0
 34 60  1  0
M  CHG  2  19  -1  28   1
M  END
>  <UniqueID>  (28) 
26

>  <SMILES>  (28) 
Cc1cc(C)cc(S(=O)(=O)c2ccccc2C(=O)[N-]c2cccc(S(=O)(=O)[NH+]3CCCC3)c2)c1

>  <Energy>  (28) 
73.56870564987449

>  <Genealogy>  (28) 
Cc1cc(C)cc(S(=O)(=O)c2ccccc2C(=O)[N-]c2cccc(S(=O)(=O)[NH+]3CCCC3)c2)c1 (protonated)
Cc1cc(C)cc(S(=O)(=O)c2ccccc2C(=O)[N-]c2cccc(S(=O)(=O)[NH+]3CCCC3)c2)c1 (3D coordinates assigned)
Cc1cc(C)cc(S(=O)(=O)c2ccccc2C(=O)[N-]c2cccc(S(=O)(=O)[NH+]3CCCC3)c2)c1 (nonaromatic ring conformer: 73.56870564987449 kcal/mol)

>  <smiles>  (28) 
Cc1cc(C)cc(S(=O)(=O)c2ccccc2C(=O)Nc2cccc(S(=O)(=O)N3CCCC3)c2)c1

>  <score_type>  (28) 
oracle

>  <origin>  (28) 
adgpu

>  <m_score__min__energy>  (28) 
-11.83

>  <m_primary>  (28) 
energy

$$$$
28:0
     RDKit          3D

 56 59  0  0  0  0  0  0  0  0999 V2000
   -9.4090   21.4600  -31.0660 C   0  0  0  0  0  0  0  0  0  0  0  0
   -8.0360   21.2310  -31.5480 N   0  0  0  0  0  0  0  0  0  0  0  0
   -7.8270   20.6200  -32.7560 C   0  0  0  0  0  0  0  0  0  0  0  0
   -8.7980   20.2250  -33.4590 O   0  0  0  0  0  0  0  0  0  0  0  0
   -6.5340   20.4240  -33.2270 C   0  0  0  0  0  0  0  0  0  0  0  0
   -5.4560   20.8690  -32.4660 C   0  0  0  0  0  0  0  0  0  0  0  0
   -4.1220   20.6140  -32.9370 N   0  0  0  0  0  0  0  0  0  0  0  0
   -3.3090   21.7120  -33.4720 C   0  0  0  0  0  0  0  0  0  0  0  0
   -1.8150   21.4300  -33.2580 C   0  0  0  0  0  0  0  0  0  0  0  0
   -1.6080   20.7400  -31.9640 N   0  0  0  0  0  0  0  0  0  0  0  0
   -0.1670   20.6690  -31.6130 C   0  0  0  0  0  0  0  0  0  0  0  0
    0.3600   19.2220  -31.5790 C   0  0  0  0  0  0  0  0  0  0  0  0
    0.3260   18.6830  -30.1710 C   0  0  0  0  0  0  0  0  0  0  0  0
   -0.4110   19.3570  -29.1810 C   0  0  0  0  0  0  0  0  0  0  0  0
   -0.4220   18.8830  -27.8660 C   0  0  0  0  0  0  0  0  0  0  0  0
    0.3070   17.7400  -27.5270 C   0  0  0  0  0  0  0  0  0  0  0  0
    1.0540   17.0730  -28.5010 C   0  0  0  0  0  0  0  0  0  0  0  0
    1.0700   17.5410  -29.8180 C   0  0  0  0  0  0  0  0  0  0  0  0
    1.8140   16.8870  -30.7460 F   0  0  0  0  0  0  0  0  0  0  0  0
   -2.1880   19.3700  -32.0030 C   0  0  0  0  0  0  0  0  0  0  0  0
   -3.5220   19.2880  -32.7760 C   0  0  0  0  0  0  0  0  0  0  0  0
   -5.6820   21.5150  -31.2780 N   0  0  0  0  0  0  0  0  0  0  0  0
   -4.5760   22.0390  -30.5180 C   0  0  0  0  0  0  0  0  0  0  0  0
   -3.7450   21.1730  -29.7890 C   0  0  0  0  0  0  0  0  0  0  0  0
   -2.6590   21.6790  -29.0690 C   0  0  0  0  0  0  0  0  0  0  0  0
   -2.3960   23.0530  -29.0680 C   0  0  0  0  0  0  0  0  0  0  0  0
   -1.0240   23.6710  -28.1610 Cl  0  0  0  0  0  0  0  0  0  0  0  0
   -3.2240   23.9240  -29.7900 C   0  0  0  0  0  0  0  0  0  0  0  0
   -2.9730   25.2910  -29.7960 O   0  0  0  0  0  0  0  0  0  0  0  0
   -4.3120   23.4180  -30.5090 C   0  0  0  0  0  0  0  0  0  0  0  0
   -6.9660   21.7040  -30.8280 C   0  0  0  0  0  0  0  0  0  0  0  0
   -7.1650   22.3320  -29.7490 O   0  0  0  0  0  0  0  0  0  0  0  0
   -9.4160   21.4612  -29.9660 H   0  0  0  0  0  0  0  0  0  0  0  0
   -9.7704   22.4308  -31.4360 H   0  0  0  0  0  0  0  0  0  0  0  0
  -10.0659   20.6590  -31.4360 H   0  0  0  0  0  0  0  0  0  0  0  0
   -6.3640   19.9224  -34.1911 H   0  0  0  0  0  0  0  0  0  0  0  0
   -3.5067   21.8171  -34.5490 H   0  0  0  0  0  0  0  0  0  0  0  0
   -3.5745   22.6402  -32.9448 H   0  0  0  0  0  0  0  0  0  0  0  0
   -1.4446   20.7920  -34.0739 H   0  0  0  0  0  0  0  0  0  0  0  0
   -1.2661   22.3832  -33.2498 H   0  0  0  0  0  0  0  0  0  0  0  0
   -2.1080   21.2740  -31.2110 H   0  0  0  0  0  0  0  0  0  0  0  0
    0.4068   21.2362  -32.3607 H   0  0  0  0  0  0  0  0  0  0  0  0
   -0.0467   21.0928  -30.6051 H   0  0  0  0  0  0  0  0  0  0  0  0
   -0.2700   18.5916  -32.2237 H   0  0  0  0  0  0  0  0  0  0  0  0
    1.3991   19.2122  -31.9398 H   0  0  0  0  0  0  0  0  0  0  0  0
   -0.9811   20.2607  -29.4424 H   0  0  0  0  0  0  0  0  0  0  0  0
   -1.0053   19.4105  -27.0969 H   0  0  0  0  0  0  0  0  0  0  0  0
    0.2926   17.3654  -26.4929 H   0  0  0  0  0  0  0  0  0  0  0  0
    1.6314   16.1766  -28.2306 H   0  0  0  0  0  0  0  0  0  0  0  0
   -1.4633   18.6987  -32.4869 H   0  0  0  0  0  0  0  0  0  0  0  0
   -2.3978   19.0776  -30.9635 H   0  0  0  0  0  0  0  0  0  0  0  0
   -3.3349   18.8555  -33.7700 H   0  0  0  0  0  0  0  0  0  0  0  0
   -4.2183   18.6573  -32.2039 H   0  0  0  0  0  0  0  0  0  0  0  0
   -3.9495   20.0922  -29.7845 H   0  0  0  0  0  0  0  0  0  0  0  0
   -2.0099   20.9955  -28.5021 H   0  0  0  0  0  0  0  0  0  0  0  0
   -4.9639   24.1038  -31.0701 H   0  0  0  0  0  0  0  0  0  0  0  0
  1  2  1  0
  2  3  1  0
  3  4  2  0
  3  5  1  0
  5  6  2  0
  6  7  1  0
  7  8  1  0
  8  9  1  0
  9 10  1  0
 10 11  1  0
 11 12  1  0
 12 13  1  0
 13 14  2  0
 14 15  1  0
 15 16  2  0
 16 17  1  0
 17 18  2  0
 18 19  1  0
 10 20  1  0
 20 21  1  0
  6 22  1  0
 22 23  1  0
 23 24  2  0
 24 25  1  0
 25 26  2  0
 26 27  1  0
 26 28  1  0
 28 29  1  0
 28 30  2  0
 22 31  1  0
 31 32  2  0
 31  2  1  0
 21  7  1  0
 30 23  1  0
 18 13  1  0
  1 33  1  0
  1 34  1  0
  1 35  1  0
  5 36  1  0
  8 37  1  0
  8 38  1  0
  9 39  1  0
  9 40  1  0
 10 41  1  0
 11 42  1  0
 11 43  1  0
 12 44  1  0
 12 45  1  0
 14 46  1  0
 15 47  1  0
 16 48  1  0
 17 49  1  0
 20 50  1  0
 20 51  1  0
 21 52  1  0
 21 53  1  0
 24 54  1  0
 25 55  1  0
 30 56  1  0
M  CHG  2  10   1  29  -1
M  END
>  <UniqueID>  (29) 
27

>  <SMILES>  (29) 
Cn1c(=O)cc(N2CC[NH+](CCc3ccccc3F)CC2)n(-c2ccc(Cl)c([O-])c2)c1=O

>  <Energy>  (29) 
83.73239707950951

>  <Genealogy>  (29) 
Cn1c(=O)cc(N2CC[NH+](CCc3ccccc3F)CC2)n(-c2ccc(Cl)c([O-])c2)c1=O (protonated)
Cn1c(=O)cc(N2CC[NH+](CCc3ccccc3F)CC2)n(-c2ccc(Cl)c([O-])c2)c1=O (3D coordinates assigned)
Cn1c(=O)cc(N2CC[NH+](CCc3ccccc3F)CC2)n(-c2ccc(Cl)c([O-])c2)c1=O (nonaromatic ring conformer: 83.73239707950951 kcal/mol)

>  <smiles>  (29) 
Cn1c(=O)cc(N2CCN(CCc3ccccc3F)CC2)n(-c2ccc(Cl)c(O)c2)c1=O

>  <score_type>  (29) 
oracle

>  <origin>  (29) 
adgpu

>  <m_score__min__energy>  (29) 
-10.449999999999999

>  <m_primary>  (29) 
energy

$$$$
29:0
     RDKit          3D

 36 37  0  0  0  0  0  0  0  0999 V2000
   -3.4700   18.5660  -25.7560 C   0  0  0  0  0  0  0  0  0  0  0  0
   -3.1120   19.6460  -26.6670 N   0  0  0  0  0  0  0  0  0  0  0  0
   -1.9050   19.6070  -27.4430 C   0  0  0  0  0  0  0  0  0  0  0  0
   -1.0630   18.6890  -27.2380 O   0  0  0  0  0  0  0  0  0  0  0  0
   -1.6180   20.6400  -28.4670 C   0  0  0  0  0  0  0  0  0  0  0  0
   -0.8270   20.3220  -29.5850 C   0  0  0  0  0  0  0  0  0  0  0  0
   -0.5410   21.2940  -30.5480 C   0  0  0  0  0  0  0  0  0  0  0  0
   -1.0420   22.5900  -30.4090 C   0  0  0  0  0  0  0  0  0  0  0  0
   -1.8400   22.9190  -29.3070 C   0  0  0  0  0  0  0  0  0  0  0  0
   -2.4630   24.5580  -29.1280 S   0  0  0  0  0  0  0  0  0  0  0  0
   -3.2500   24.6810  -27.8530 O   0  0  0  0  0  0  0  0  0  0  0  0
   -1.3060   25.5140  -29.0880 O   0  0  0  0  0  0  0  0  0  0  0  0
   -3.4880   24.9680  -30.4670 N   0  0  0  0  0  0  0  0  0  0  0  0
   -4.7360   24.3340  -30.7760 C   0  0  0  0  0  0  0  0  0  0  0  0
   -5.9710   24.8750  -30.3790 C   0  0  0  0  0  0  0  0  0  0  0  0
   -7.1630   24.2110  -30.6840 C   0  0  0  0  0  0  0  0  0  0  0  0
   -7.1370   22.9950  -31.3820 C   0  0  0  0  0  0  0  0  0  0  0  0
   -8.4180   22.3020  -31.7400 C   0  0  0  0  0  0  0  0  0  0  0  0
   -5.9070   22.4680  -31.8010 C   0  0  0  0  0  0  0  0  0  0  0  0
   -4.7160   23.1310  -31.4950 C   0  0  0  0  0  0  0  0  0  0  0  0
   -2.1390   21.9410  -28.3480 C   0  0  0  0  0  0  0  0  0  0  0  0
   -3.3561   18.9096  -24.7173 H   0  0  0  0  0  0  0  0  0  0  0  0
   -4.5146   18.2693  -25.9316 H   0  0  0  0  0  0  0  0  0  0  0  0
   -2.8095   17.7041  -25.9316 H   0  0  0  0  0  0  0  0  0  0  0  0
   -3.7360   20.4830  -26.7070 H   0  0  0  0  0  0  0  0  0  0  0  0
   -0.4310   19.3025  -29.7026 H   0  0  0  0  0  0  0  0  0  0  0  0
    0.0808   21.0371  -31.4183 H   0  0  0  0  0  0  0  0  0  0  0  0
   -0.8093   23.3532  -31.1663 H   0  0  0  0  0  0  0  0  0  0  0  0
   -5.9999   25.8253  -29.8257 H   0  0  0  0  0  0  0  0  0  0  0  0
   -8.1256   24.6444  -30.3750 H   0  0  0  0  0  0  0  0  0  0  0  0
   -8.9489   22.0148  -30.8204 H   0  0  0  0  0  0  0  0  0  0  0  0
   -9.0497   22.9814  -32.3311 H   0  0  0  0  0  0  0  0  0  0  0  0
   -8.1950   21.4015  -32.3311 H   0  0  0  0  0  0  0  0  0  0  0  0
   -5.8798   21.5288  -32.3729 H   0  0  0  0  0  0  0  0  0  0  0  0
   -3.7553   22.7057  -31.8208 H   0  0  0  0  0  0  0  0  0  0  0  0
   -2.7865   22.1933  -27.4953 H   0  0  0  0  0  0  0  0  0  0  0  0
  1  2  1  0
  2  3  1  0
  3  4  2  0
  3  5  1  0
  5  6  2  0
  6  7  1  0
  7  8  2  0
  8  9  1  0
  9 10  1  0
 10 11  2  0
 10 12  2  0
 10 13  1  0
 13 14  1  0
 14 15  2  0
 15 16  1  0
 16 17  2  0
 17 18  1  0
 17 19  1  0
 19 20  2  0
  9 21  2  0
 21  5  1  0
 20 14  1  0
  1 22  1  0
  1 23  1  0
  1 24  1  0
  2 25  1  0
  6 26  1  0
  7 27  1  0
  8 28  1  0
 15 29  1  0
 16 30  1  0
 18 31  1  0
 18 32  1  0
 18 33  1  0
 19 34  1  0
 20 35  1  0
 21 36  1  0
M  CHG  1  13  -1
M  END
>  <UniqueID>  (30) 
28

>  <SMILES>  (30) 
CNC(=O)c1cccc(S(=O)(=O)[N-]c2ccc(C)cc2)c1

>  <Energy>  (30) 
37.56460963823505

>  <Genealogy>  (30) 
CNC(=O)c1cccc(S(=O)(=O)[N-]c2ccc(C)cc2)c1 (protonated)
CNC(=O)c1cccc(S(=O)(=O)[N-]c2ccc(C)cc2)c1 (3D coordinates assigned)
CNC(=O)c1cccc(S(=O)(=O)[N-]c2ccc(C)cc2)c1 (optimized conformer: 37.56460963823505 kcal/mol)

>  <smiles>  (30) 
CNC(=O)c1cccc(S(=O)(=O)Nc2ccc(C)cc2)c1

>  <score_type>  (30) 
oracle

>  <origin>  (30) 
adgpu

>  <m_score__min__energy>  (30) 
-9.1999999999999993

>  <m_primary>  (30) 
energy

$$$$
30:0
     RDKit          3D

 44 46  0  0  0  0  0  0  0  0999 V2000
   -6.4730   25.4720  -29.3500 C   0  0  0  0  0  0  0  0  0  0  0  0
   -6.6910   24.3150  -30.2810 C   0  0  0  0  0  0  0  0  0  0  0  0
   -7.1880   23.1030  -29.7840 C   0  0  0  0  0  0  0  0  0  0  0  0
   -7.3920   22.0180  -30.6400 C   0  0  0  0  0  0  0  0  0  0  0  0
   -7.1030   22.1350  -32.0110 C   0  0  0  0  0  0  0  0  0  0  0  0
   -7.3190   21.0600  -32.9300 N   0  0  0  0  0  0  0  0  0  0  0  0
   -7.1890   19.3720  -32.5550 S   0  0  0  0  0  0  0  0  0  0  0  0
   -6.9130   19.2220  -31.0860 O   0  0  0  0  0  0  0  0  0  0  0  0
   -8.4680   18.6630  -32.9020 O   0  0  0  0  0  0  0  0  0  0  0  0
   -5.8640   18.6700  -33.4980 C   0  0  0  0  0  0  0  0  0  0  0  0
   -6.1070   17.4980  -34.2310 C   0  0  0  0  0  0  0  0  0  0  0  0
   -5.0740   16.8710  -34.9310 C   0  0  0  0  0  0  0  0  0  0  0  0
   -3.7870   17.4060  -34.9080 C   0  0  0  0  0  0  0  0  0  0  0  0
   -3.5300   18.5760  -34.1940 C   0  0  0  0  0  0  0  0  0  0  0  0
   -4.5600   19.2260  -33.4890 C   0  0  0  0  0  0  0  0  0  0  0  0
   -4.2420   20.4810  -32.7690 C   0  0  0  0  0  0  0  0  0  0  0  0
   -4.4560   21.5860  -33.3330 O   0  0  0  0  0  0  0  0  0  0  0  0
   -3.6130   20.4770  -31.4800 N   0  0  0  0  0  0  0  0  0  0  0  0
   -3.1720   21.6190  -30.7310 C   0  0  0  0  0  0  0  0  0  0  0  0
   -2.2600   21.4260  -29.6900 C   0  0  0  0  0  0  0  0  0  0  0  0
   -1.7920   22.5100  -28.9450 C   0  0  0  0  0  0  0  0  0  0  0  0
   -2.2210   23.8200  -29.2340 C   0  0  0  0  0  0  0  0  0  0  0  0
   -1.7150   24.9550  -28.4200 C   0  0  0  0  0  0  0  0  0  0  0  0
   -1.3070   26.0080  -28.9810 O   0  0  0  0  0  0  0  0  0  0  0  0
   -1.6750   24.8830  -27.0340 O   0  0  0  0  0  0  0  0  0  0  0  0
   -3.1210   24.0170  -30.3060 C   0  0  0  0  0  0  0  0  0  0  0  0
   -3.5680   25.2900  -30.6460 O   0  0  0  0  0  0  0  0  0  0  0  0
   -3.5780   22.9250  -31.0510 C   0  0  0  0  0  0  0  0  0  0  0  0
   -6.5880   23.3400  -32.5020 C   0  0  0  0  0  0  0  0  0  0  0  0
   -6.3790   24.4230  -31.6450 C   0  0  0  0  0  0  0  0  0  0  0  0
   -6.5389   25.1225  -28.3091 H   0  0  0  0  0  0  0  0  0  0  0  0
   -5.4776   25.9044  -29.5293 H   0  0  0  0  0  0  0  0  0  0  0  0
   -7.2428   26.2370  -29.5293 H   0  0  0  0  0  0  0  0  0  0  0  0
   -7.4190   23.0052  -28.7130 H   0  0  0  0  0  0  0  0  0  0  0  0
   -7.7798   21.0694  -30.2403 H   0  0  0  0  0  0  0  0  0  0  0  0
   -7.1199   17.0696  -34.2543 H   0  0  0  0  0  0  0  0  0  0  0  0
   -5.2764   15.9528  -35.5019 H   0  0  0  0  0  0  0  0  0  0  0  0
   -2.9736   16.9050  -35.4534 H   0  0  0  0  0  0  0  0  0  0  0  0
   -2.5129   18.9946  -34.1818 H   0  0  0  0  0  0  0  0  0  0  0  0
   -1.9076   20.4107  -29.4554 H   0  0  0  0  0  0  0  0  0  0  0  0
   -1.0806   22.3391  -28.1236 H   0  0  0  0  0  0  0  0  0  0  0  0
   -4.2623   23.0907  -31.8961 H   0  0  0  0  0  0  0  0  0  0  0  0
   -6.3460   23.4350  -33.5708 H   0  0  0  0  0  0  0  0  0  0  0  0
   -5.9685   25.3637  -32.0406 H   0  0  0  0  0  0  0  0  0  0  0  0
  1  2  1  0
  2  3  2  0
  3  4  1  0
  4  5  2  0
  5  6  1  0
  6  7  1  0
  7  8  2  0
  7  9  2  0
  7 10  1  0
 10 11  2  0
 11 12  1  0
 12 13  2  0
 13 14  1  0
 14 15  2  0
 15 16  1  0
 16 17  2  0
 16 18  1  0
 18 19  1  0
 19 20  2  0
 20 21  1  0
 21 22  2  0
 22 23  1  0
 23 24  2  0
 23 25  1  0
 22 26  1  0
 26 27  1  0
 26 28  2  0
  5 29  1  0
 29 30  2  0
 30  2  1  0
 15 10  1  0
 28 19  1  0
  1 31  1  0
  1 32  1  0
  1 33  1  0
  3 34  1  0
  4 35  1  0
 11 36  1  0
 12 37  1  0
 13 38  1  0
 14 39  1  0
 20 40  1  0
 21 41  1  0
 28 42  1  0
 29 43  1  0
 30 44  1  0
M  CHG  4   6  -1  18  -1  25  -1  27  -1
M  END
>  <UniqueID>  (31) 
29

>  <SMILES>  (31) 
Cc1ccc([N-]S(=O)(=O)c2ccccc2C(=O)[N-]c2ccc(C(=O)[O-])c([O-])c2)cc1

>  <Energy>  (31) 
62.00971682633199

>  <Genealogy>  (31) 
Cc1ccc([N-]S(=O)(=O)c2ccccc2C(=O)[N-]c2ccc(C(=O)[O-])c([O-])c2)cc1 (protonated)
Cc1ccc([N-]S(=O)(=O)c2ccccc2C(=O)[N-]c2ccc(C(=O)[O-])c([O-])c2)cc1 (3D coordinates assigned)
Cc1ccc([N-]S(=O)(=O)c2ccccc2C(=O)[N-]c2ccc(C(=O)[O-])c([O-])c2)cc1 (optimized conformer: 62.00971682633199 kcal/mol)

>  <smiles>  (31) 
Cc1ccc(NS(=O)(=O)c2ccccc2C(=O)Nc2ccc(C(=O)O)c(O)c2)cc1

>  <score_type>  (31) 
oracle

>  <origin>  (31) 
adgpu

>  <m_score__min__energy>  (31) 
-14.68

>  <m_primary>  (31) 
energy

$$$$
31:0
     RDKit          3D

 51 54  0  0  0  0  0  0  0  0999 V2000
    0.6690   20.4120  -29.2930 O   0  0  0  0  0  0  0  0  0  0  0  0
   -0.0340   21.2950  -29.8560 C   0  0  0  0  0  0  0  0  0  0  0  0
   -0.3080   21.2070  -31.2610 N   0  0  0  0  0  0  0  0  0  0  0  0
   -1.4950   20.6770  -31.8670 C   0  0  0  0  0  0  0  0  0  0  0  0
   -2.4910   20.1450  -31.0410 C   0  0  0  0  0  0  0  0  0  0  0  0
   -3.6880   19.6710  -31.5870 C   0  0  0  0  0  0  0  0  0  0  0  0
   -3.9060   19.7310  -32.9700 C   0  0  0  0  0  0  0  0  0  0  0  0
   -5.4350   19.1910  -33.6630 S   0  0  0  0  0  0  0  0  0  0  0  0
   -5.2070   18.5470  -35.0000 O   0  0  0  0  0  0  0  0  0  0  0  0
   -6.0600   18.1680  -32.7560 O   0  0  0  0  0  0  0  0  0  0  0  0
   -6.5260   20.5350  -33.7870 N   0  0  0  0  0  0  0  0  0  0  0  0
   -7.5130   20.9190  -32.8180 C   0  0  0  0  0  0  0  0  0  0  0  0
   -8.5490   20.0470  -32.4320 C   0  0  0  0  0  0  0  0  0  0  0  0
   -9.4870   20.4460  -31.4760 C   0  0  0  0  0  0  0  0  0  0  0  0
   -9.3970   21.7080  -30.8890 C   0  0  0  0  0  0  0  0  0  0  0  0
   -8.3700   22.5780  -31.2590 C   0  0  0  0  0  0  0  0  0  0  0  0
   -7.4280   22.1900  -32.2200 C   0  0  0  0  0  0  0  0  0  0  0  0
   -6.1440   23.3560  -32.6970 S   0  0  0  0  0  0  0  0  0  0  0  0
   -5.5650   23.5600  -31.0110 C   0  0  0  0  0  0  0  0  0  0  0  0
   -4.8260   22.5410  -30.3960 C   0  0  0  0  0  0  0  0  0  0  0  0
   -4.3750   22.6970  -29.0810 C   0  0  0  0  0  0  0  0  0  0  0  0
   -4.6530   23.8740  -28.3810 C   0  0  0  0  0  0  0  0  0  0  0  0
   -5.3950   24.8900  -28.9900 C   0  0  0  0  0  0  0  0  0  0  0  0
   -5.8590   24.7310  -30.3000 C   0  0  0  0  0  0  0  0  0  0  0  0
   -2.9120   20.2690  -33.8000 C   0  0  0  0  0  0  0  0  0  0  0  0
   -1.7190   20.7500  -33.2530 C   0  0  0  0  0  0  0  0  0  0  0  0
   -0.6190   22.3960  -29.0530 C   0  0  0  0  0  0  0  0  0  0  0  0
   -1.1200   22.1500  -27.7610 C   0  0  0  0  0  0  0  0  0  0  0  0
   -1.6690   23.1880  -27.0050 C   0  0  0  0  0  0  0  0  0  0  0  0
   -1.7280   24.4860  -27.5220 C   0  0  0  0  0  0  0  0  0  0  0  0
   -2.2820   25.5030  -26.7470 O   0  0  0  0  0  0  0  0  0  0  0  0
   -1.2290   24.7430  -28.8090 C   0  0  0  0  0  0  0  0  0  0  0  0
   -1.2770   26.0270  -29.3410 O   0  0  0  0  0  0  0  0  0  0  0  0
   -0.6780   23.7040  -29.5680 C   0  0  0  0  0  0  0  0  0  0  0  0
   -2.3313   20.0992  -29.9536 H   0  0  0  0  0  0  0  0  0  0  0  0
   -4.4615   19.2494  -30.9283 H   0  0  0  0  0  0  0  0  0  0  0  0
   -8.6203   19.0472  -32.8850 H   0  0  0  0  0  0  0  0  0  0  0  0
  -10.2987   19.7627  -31.1856 H   0  0  0  0  0  0  0  0  0  0  0  0
  -10.1352   22.0177  -30.1346 H   0  0  0  0  0  0  0  0  0  0  0  0
   -8.3003   23.5724  -30.7939 H   0  0  0  0  0  0  0  0  0  0  0  0
   -4.6000   21.6168  -30.9480 H   0  0  0  0  0  0  0  0  0  0  0  0
   -3.8011   21.8926  -28.5977 H   0  0  0  0  0  0  0  0  0  0  0  0
   -4.2880   24.0009  -27.3511 H   0  0  0  0  0  0  0  0  0  0  0  0
   -5.6144   25.8160  -28.4383 H   0  0  0  0  0  0  0  0  0  0  0  0
   -6.4551   25.5258  -30.7723 H   0  0  0  0  0  0  0  0  0  0  0  0
   -3.0720   20.3127  -34.8874 H   0  0  0  0  0  0  0  0  0  0  0  0
   -0.9524   21.1874  -33.9096 H   0  0  0  0  0  0  0  0  0  0  0  0
   -1.0789   21.1330  -27.3437 H   0  0  0  0  0  0  0  0  0  0  0  0
   -2.0575   22.9833  -25.9965 H   0  0  0  0  0  0  0  0  0  0  0  0
   -2.4610   26.4280  -27.1190 H   0  0  0  0  0  0  0  0  0  0  0  0
   -0.2879   23.9118  -30.5753 H   0  0  0  0  0  0  0  0  0  0  0  0
  1  2  2  0
  2  3  1  0
  3  4  1  0
  4  5  2  0
  5  6  1  0
  6  7  2  0
  7  8  1  0
  8  9  2  0
  8 10  2  0
  8 11  1  0
 11 12  1  0
 12 13  2  0
 13 14  1  0
 14 15  2  0
 15 16  1  0
 16 17  2  0
 17 18  1  0
 18 19  1  0
 19 20  2  0
 20 21  1  0
 21 22  2  0
 22 23  1  0
 23 24  2  0
  7 25  1  0
 25 26  2  0
  2 27  1  0
 27 28  2  0
 28 29  1  0
 29 30  2  0
 30 31  1  0
 30 32  1  0
 32 33  1  0
 32 34  2  0
 26  4  1  0
 34 27  1  0
 17 12  1  0
 24 19  1  0
  5 35  1  0
  6 36  1  0
 13 37  1  0
 14 38  1  0
 15 39  1  0
 16 40  1  0
 20 41  1  0
 21 42  1  0
 22 43  1  0
 23 44  1  0
 24 45  1  0
 25 46  1  0
 26 47  1  0
 28 48  1  0
 29 49  1  0
 31 50  1  0
 34 51  1  0
M  CHG  3   3  -1  11  -1  33  -1
M  END
>  <UniqueID>  (32) 
30

>  <SMILES>  (32) 
O=C([N-]c1ccc(S(=O)(=O)[N-]c2ccccc2Sc2ccccc2)cc1)c1ccc(O)c([O-])c1

>  <Energy>  (32) 
58.92583638951702

>  <Genealogy>  (32) 
O=C([N-]c1ccc(S(=O)(=O)[N-]c2ccccc2Sc2ccccc2)cc1)c1ccc(O)c([O-])c1 (protonated)
O=C([N-]c1ccc(S(=O)(=O)[N-]c2ccccc2Sc2ccccc2)cc1)c1ccc(O)c([O-])c1 (3D coordinates assigned)
O=C([N-]c1ccc(S(=O)(=O)[N-]c2ccccc2Sc2ccccc2)cc1)c1ccc(O)c([O-])c1 (optimized conformer: 58.92583638951702 kcal/mol)

>  <smiles>  (32) 
O=C(Nc1ccc(S(=O)(=O)Nc2ccccc2Sc2ccccc2)cc1)c1ccc(O)c(O)c1

>  <score_type>  (32) 
oracle

>  <origin>  (32) 
adgpu

>  <m_score__min__energy>  (32) 
-13.35

>  <m_primary>  (32) 
energy

$$$$
32:0
     RDKit          3D

 33 35  0  0  0  0  0  0  0  0999 V2000
   -2.5440   26.4530  -28.9690 H   0  0  0  0  0  0  0  0  0  0  0  0
   -2.3370   25.4660  -28.8640 O   0  0  0  0  0  0  0  0  0  0  0  0
   -2.9210   24.5090  -29.6900 C   0  0  0  0  0  0  0  0  0  0  0  0
   -2.2290   23.3180  -29.9670 C   0  0  0  0  0  0  0  0  0  0  0  0
   -1.2325   23.1507  -29.5322 H   0  0  0  0  0  0  0  0  0  0  0  0
   -2.8010   22.3420  -30.7940 C   0  0  0  0  0  0  0  0  0  0  0  0
   -2.2608   21.4077  -31.0066 H   0  0  0  0  0  0  0  0  0  0  0  0
   -4.0700   22.5690  -31.3480 C   0  0  0  0  0  0  0  0  0  0  0  0
   -4.7470   23.7470  -31.0740 C   0  0  0  0  0  0  0  0  0  0  0  0
   -4.1910   24.7250  -30.2490 C   0  0  0  0  0  0  0  0  0  0  0  0
   -4.7409   25.6543  -30.0389 H   0  0  0  0  0  0  0  0  0  0  0  0
   -6.3230   23.9000  -31.8960 S   0  0  0  0  0  0  0  0  0  0  0  0
   -6.1170   22.1730  -32.3560 C   0  0  0  0  0  0  0  0  0  0  0  0
   -7.1930   21.4420  -32.6890 C   0  0  0  0  0  0  0  0  0  0  0  0
   -8.1264   21.9834  -32.9027 H   0  0  0  0  0  0  0  0  0  0  0  0
   -7.2230   19.9710  -32.7910 C   0  0  0  0  0  0  0  0  0  0  0  0
   -6.5230   19.3300  -33.7680 N   0  0  0  0  0  0  0  0  0  0  0  0
   -6.4920   17.9730  -33.8590 C   0  0  0  0  0  0  0  0  0  0  0  0
   -5.9267   17.4887  -34.6689 H   0  0  0  0  0  0  0  0  0  0  0  0
   -7.1780   17.1950  -32.9240 C   0  0  0  0  0  0  0  0  0  0  0  0
   -7.1627   16.0974  -32.9956 H   0  0  0  0  0  0  0  0  0  0  0  0
   -7.8830   17.8250  -31.8980 C   0  0  0  0  0  0  0  0  0  0  0  0
   -8.4232   17.2250  -31.1509 H   0  0  0  0  0  0  0  0  0  0  0  0
   -7.9010   19.2190  -31.8220 C   0  0  0  0  0  0  0  0  0  0  0  0
   -8.4429   19.7230  -31.0082 H   0  0  0  0  0  0  0  0  0  0  0  0
   -4.7890   21.6490  -32.1710 N   0  0  0  0  0  0  0  0  0  0  0  0
   -4.1170   20.8440  -33.2050 C   0  0  0  0  0  0  0  0  0  0  0  0
   -3.2496   21.4047  -33.5835 H   0  0  0  0  0  0  0  0  0  0  0  0
   -4.8436   20.6460  -34.0068 H   0  0  0  0  0  0  0  0  0  0  0  0
   -3.6350   19.4960  -32.6600 C   0  0  0  0  0  0  0  0  0  0  0  0
   -3.6439   19.5208  -31.5603 H   0  0  0  0  0  0  0  0  0  0  0  0
   -4.3032   18.6972  -33.0142 H   0  0  0  0  0  0  0  0  0  0  0  0
   -2.6118   19.3020  -33.0142 H   0  0  0  0  0  0  0  0  0  0  0  0
  1  2  1  0
  2  3  1  0
  3  4  2  0
  4  5  1  0
  4  6  1  0
  6  7  1  0
  6  8  2  0
  8  9  1  0
  9 10  2  0
 10 11  1  0
  9 12  1  0
 12 13  1  0
 13 14  2  0
 14 15  1  0
 14 16  1  0
 16 17  2  0
 17 18  1  0
 18 19  1  0
 18 20  2  0
 20 21  1  0
 20 22  1  0
 22 23  1  0
 22 24  2  0
 24 25  1  0
 13 26  1  0
 26 27  1  0
 27 28  1  0
 27 29  1  0
 27 30  1  0
 30 31  1  0
 30 32  1  0
 30 33  1  0
 10  3  1  0
 24 16  1  0
 26  8  1  0
M  END
>  <UniqueID>  (33) 
31

>  <SMILES>  (33) 
CCN1/C(=C\c2ccccn2)Sc2cc(O)ccc21

>  <Energy>  (33) 
65.92807605467492

>  <Genealogy>  (33) 
CCN1/C(=C\c2ccccn2)Sc2cc(O)ccc21 (cis-trans isomerization)
CCN1/C(=C\c2ccccn2)Sc2cc(O)ccc21 (3D coordinates assigned)
CCN1/C(=C\c2ccccn2)Sc2cc(O)ccc21 (nonaromatic ring conformer: 65.92807605467492 kcal/mol)

>  <smiles>  (33) 
CCN1C(=Cc2ccccn2)Sc2cc(O)ccc21

>  <score_type>  (33) 
oracle

>  <origin>  (33) 
adgpu

>  <m_score__min__energy>  (33) 
-7.5099999999999998

>  <m_primary>  (33) 
energy

$$$$
33:0
     RDKit          3D

 70 75  0  0  0  0  0  0  0  0999 V2000
    1.5140   20.8250  -34.2030 C   0  0  0  0  0  0  0  0  0  0  0  0
    0.7000   20.3950  -33.0160 C   0  0  0  0  0  0  0  0  0  0  0  0
    1.2920   19.7500  -31.9130 C   0  0  0  0  0  0  0  0  0  0  0  0
    0.5010   19.2910  -30.8280 C   0  0  0  0  0  0  0  0  0  0  0  0
    1.1080   18.5120  -29.7200 C   0  0  0  0  0  0  0  0  0  0  0  0
    2.3360   18.7180  -29.1070 C   0  0  0  0  0  0  0  0  0  0  0  0
    2.5140   17.7950  -28.1420 N   0  0  0  0  0  0  0  0  0  0  0  0
    1.4500   17.0090  -28.1400 N   0  0  0  0  0  0  0  0  0  0  0  0
    1.2440   15.9170  -27.1990 C   0  0  0  0  0  0  0  0  0  0  0  0
    0.5730   17.4130  -29.0750 C   0  0  0  0  0  0  0  0  0  0  0  0
   -0.8800   19.5680  -30.8390 C   0  0  0  0  0  0  0  0  0  0  0  0
   -1.4080   20.2090  -31.9130 N   0  0  0  0  0  0  0  0  0  0  0  0
   -2.6820   20.5090  -32.2190 C   0  0  0  0  0  0  0  0  0  0  0  0
   -4.1380   20.2150  -31.2020 S   0  0  0  0  0  0  0  0  0  0  0  0
   -4.4590   21.9500  -30.8340 C   0  0  0  0  0  0  0  0  0  0  0  0
   -3.4400   22.7490  -30.2940 C   0  0  0  0  0  0  0  0  0  0  0  0
   -3.6070   24.1320  -30.1830 C   0  0  0  0  0  0  0  0  0  0  0  0
   -2.5180   24.9250  -29.7010 N   0  0  0  0  0  0  0  0  0  0  0  0
   -1.7590   24.6680  -28.1660 S   0  0  0  0  0  0  0  0  0  0  0  0
   -0.4570   25.4120  -28.0740 O   0  0  0  0  0  0  0  0  0  0  0  0
   -2.6700   25.1780  -27.0840 O   0  0  0  0  0  0  0  0  0  0  0  0
   -1.5050   22.9400  -27.9380 C   0  0  0  0  0  0  0  0  0  0  0  0
   -0.2340   22.3900  -28.1690 C   0  0  0  0  0  0  0  0  0  0  0  0
   -0.0140   21.0230  -27.9750 C   0  0  0  0  0  0  0  0  0  0  0  0
   -1.0600   20.1990  -27.5470 C   0  0  0  0  0  0  0  0  0  0  0  0
   -2.3260   20.7430  -27.3070 C   0  0  0  0  0  0  0  0  0  0  0  0
   -2.5490   22.1130  -27.4940 C   0  0  0  0  0  0  0  0  0  0  0  0
   -4.8330   24.7130  -30.5320 C   0  0  0  0  0  0  0  0  0  0  0  0
   -5.8850   23.9150  -30.9830 C   0  0  0  0  0  0  0  0  0  0  0  0
   -5.7130   22.5290  -31.1380 C   0  0  0  0  0  0  0  0  0  0  0  0
   -6.8390   21.7100  -31.5120 N   0  0  0  0  0  0  0  0  0  0  0  0
   -8.1840   22.0540  -31.0380 C   0  0  0  0  0  0  0  0  0  0  0  0
   -8.9810   20.7640  -30.8480 C   0  0  0  0  0  0  0  0  0  0  0  0
   -9.0840   19.9670  -32.0970 N   0  0  0  0  0  0  0  0  0  0  0  0
   -9.1250   18.5260  -31.8010 C   0  0  0  0  0  0  0  0  0  0  0  0
   -8.0590   20.2780  -33.1250 C   0  0  0  0  0  0  0  0  0  0  0  0
   -6.6960   20.6560  -32.5230 C   0  0  0  0  0  0  0  0  0  0  0  0
   -2.6920   21.0750  -33.4790 C   0  0  0  0  0  0  0  0  0  0  0  0
   -1.4300   21.1350  -33.9640 N   0  0  0  0  0  0  0  0  0  0  0  0
   -0.6820   20.5950  -32.9780 C   0  0  0  0  0  0  0  0  0  0  0  0
    2.4373   21.3127  -33.8572 H   0  0  0  0  0  0  0  0  0  0  0  0
    1.7699   19.9444  -34.8105 H   0  0  0  0  0  0  0  0  0  0  0  0
    0.9309   21.5327  -34.8105 H   0  0  0  0  0  0  0  0  0  0  0  0
    2.3815   19.6001  -31.8922 H   0  0  0  0  0  0  0  0  0  0  0  0
    3.0521   19.5111  -29.3683 H   0  0  0  0  0  0  0  0  0  0  0  0
    1.3164   16.3006  -26.1706 H   0  0  0  0  0  0  0  0  0  0  0  0
    0.2474   15.4792  -27.3578 H   0  0  0  0  0  0  0  0  0  0  0  0
    2.0126   15.1462  -27.3578 H   0  0  0  0  0  0  0  0  0  0  0  0
   -0.4012   16.9495  -29.2895 H   0  0  0  0  0  0  0  0  0  0  0  0
   -1.5183   19.2707  -29.9939 H   0  0  0  0  0  0  0  0  0  0  0  0
   -2.5027   22.2834  -29.9555 H   0  0  0  0  0  0  0  0  0  0  0  0
    0.5909   23.0363  -28.5035 H   0  0  0  0  0  0  0  0  0  0  0  0
    0.9825   20.5952  -28.1591 H   0  0  0  0  0  0  0  0  0  0  0  0
   -0.8869   19.1228  -27.3991 H   0  0  0  0  0  0  0  0  0  0  0  0
   -3.1479   20.0938  -26.9708 H   0  0  0  0  0  0  0  0  0  0  0  0
   -3.5422   22.5410  -27.2930 H   0  0  0  0  0  0  0  0  0  0  0  0
   -4.9668   25.8018  -30.4502 H   0  0  0  0  0  0  0  0  0  0  0  0
   -6.8563   24.3743  -31.2190 H   0  0  0  0  0  0  0  0  0  0  0  0
   -8.1131   22.5899  -30.0800 H   0  0  0  0  0  0  0  0  0  0  0  0
   -8.6865   22.7004  -31.7726 H   0  0  0  0  0  0  0  0  0  0  0  0
   -8.4842   20.1528  -30.0801 H   0  0  0  0  0  0  0  0  0  0  0  0
  -10.0011   21.0440  -30.5464 H   0  0  0  0  0  0  0  0  0  0  0  0
   -9.1293   18.3755  -30.7114 H   0  0  0  0  0  0  0  0  0  0  0  0
  -10.0360   18.0883  -32.2352 H   0  0  0  0  0  0  0  0  0  0  0  0
   -8.2404   18.0372  -32.2352 H   0  0  0  0  0  0  0  0  0  0  0  0
   -7.9257   19.3935  -33.7652 H   0  0  0  0  0  0  0  0  0  0  0  0
   -8.4187   21.1480  -33.6940 H   0  0  0  0  0  0  0  0  0  0  0  0
   -6.2513   19.7660  -32.0538 H   0  0  0  0  0  0  0  0  0  0  0  0
   -6.0496   21.0314  -33.3300 H   0  0  0  0  0  0  0  0  0  0  0  0
   -3.5906   21.4244  -34.0085 H   0  0  0  0  0  0  0  0  0  0  0  0
  1  2  1  0
  2  3  2  0
  3  4  1  0
  4  5  1  0
  5  6  1  0
  6  7  2  0
  7  8  1  0
  8  9  1  0
  8 10  1  0
  4 11  2  0
 11 12  1  0
 12 13  1  0
 13 14  1  0
 14 15  1  0
 15 16  2  0
 16 17  1  0
 17 18  1  0
 18 19  1  0
 19 20  2  0
 19 21  2  0
 19 22  1  0
 22 23  2  0
 23 24  1  0
 24 25  2  0
 25 26  1  0
 26 27  2  0
 17 28  2  0
 28 29  1  0
 29 30  2  0
 30 31  1  0
 31 32  1  0
 32 33  1  0
 33 34  1  0
 34 35  1  0
 34 36  1  0
 36 37  1  0
 13 38  2  0
 38 39  1  0
 39 40  2  0
 40  2  1  0
 10  5  2  0
 40 12  1  0
 30 15  1  0
 37 31  1  0
 27 22  1  0
  1 41  1  0
  1 42  1  0
  1 43  1  0
  3 44  1  0
  6 45  1  0
  9 46  1  0
  9 47  1  0
  9 48  1  0
 10 49  1  0
 11 50  1  0
 16 51  1  0
 23 52  1  0
 24 53  1  0
 25 54  1  0
 26 55  1  0
 27 56  1  0
 28 57  1  0
 29 58  1  0
 32 59  1  0
 32 60  1  0
 33 61  1  0
 33 62  1  0
 35 63  1  0
 35 64  1  0
 35 65  1  0
 36 66  1  0
 36 67  1  0
 37 68  1  0
 37 69  1  0
 38 70  1  0
M  CHG  1  18  -1
M  END
>  <UniqueID>  (34) 
32

>  <SMILES>  (34) 
Cc1cc(-c2cnn(C)c2)cn2c(Sc3cc([N-]S(=O)(=O)c4ccccc4)ccc3N3CCN(C)CC3)cnc12

>  <Energy>  (34) 
156.440723480571

>  <Genealogy>  (34) 
Cc1cc(-c2cnn(C)c2)cn2c(Sc3cc([N-]S(=O)(=O)c4ccccc4)ccc3N3CCN(C)CC3)cnc12 (protonated)
Cc1cc(-c2cnn(C)c2)cn2c(Sc3cc([N-]S(=O)(=O)c4ccccc4)ccc3N3CCN(C)CC3)cnc12 (3D coordinates assigned)
Cc1cc(-c2cnn(C)c2)cn2c(Sc3cc([N-]S(=O)(=O)c4ccccc4)ccc3N3CCN(C)CC3)cnc12 (nonaromatic ring conformer: 156.440723480571 kcal/mol)

>  <smiles>  (34) 
Cc1cc(-c2cnn(C)c2)cn2c(Sc3cc(NS(=O)(=O)c4ccccc4)ccc3N3CCN(C)CC3)cnc12

>  <score_type>  (34) 
oracle

>  <origin>  (34) 
adgpu

>  <m_score__min__energy>  (34) 
-12.539999999999999

>  <m_primary>  (34) 
energy

$$$$
34:0
     RDKit          3D

 38 39  0  0  0  0  0  0  0  0999 V2000
   -6.4840   17.4370  -33.8310 C   0  0  0  0  0  0  0  0  0  0  0  0
   -6.8480   18.6600  -33.0390 C   0  0  0  0  0  0  0  0  0  0  0  0
   -8.0710   18.7210  -32.3550 C   0  0  0  0  0  0  0  0  0  0  0  0
   -8.4140   19.8580  -31.6220 C   0  0  0  0  0  0  0  0  0  0  0  0
   -7.5400   20.9460  -31.5650 C   0  0  0  0  0  0  0  0  0  0  0  0
   -6.3120   20.9060  -32.2440 C   0  0  0  0  0  0  0  0  0  0  0  0
   -5.3890   22.1000  -32.2060 C   0  0  0  0  0  0  0  0  0  0  0  0
   -6.1330   23.3240  -31.8580 N   0  0  0  0  0  0  0  0  0  0  0  0
   -7.2130   23.7980  -32.7290 C   0  0  0  0  0  0  0  0  0  0  0  0
   -5.9100   24.0120  -30.6090 C   0  0  0  0  0  0  0  0  0  0  0  0
   -6.4750   23.5930  -29.5630 O   0  0  0  0  0  0  0  0  0  0  0  0
   -5.0470   25.2020  -30.5110 C   0  0  0  0  0  0  0  0  0  0  0  0
   -5.5530   26.3500  -30.3990 O   0  0  0  0  0  0  0  0  0  0  0  0
   -3.6240   25.0430  -30.5600 N   0  0  0  0  0  0  0  0  0  0  0  0
   -2.8400   24.2920  -29.6240 C   0  0  0  0  0  0  0  0  0  0  0  0
   -3.2980   23.0290  -29.2260 C   0  0  0  0  0  0  0  0  0  0  0  0
   -2.5660   22.2660  -28.3120 C   0  0  0  0  0  0  0  0  0  0  0  0
   -1.3800   22.7690  -27.7730 C   0  0  0  0  0  0  0  0  0  0  0  0
   -0.9320   24.0410  -28.1360 C   0  0  0  0  0  0  0  0  0  0  0  0
   -1.6620   24.8120  -29.0470 C   0  0  0  0  0  0  0  0  0  0  0  0
   -1.2300   26.1010  -29.3430 O   0  0  0  0  0  0  0  0  0  0  0  0
   -5.9670   19.7570  -32.9840 C   0  0  0  0  0  0  0  0  0  0  0  0
   -4.7540   19.7050  -33.6640 O   0  0  0  0  0  0  0  0  0  0  0  0
   -6.2391   16.6142  -33.1432 H   0  0  0  0  0  0  0  0  0  0  0  0
   -7.3340   17.1443  -34.4649 H   0  0  0  0  0  0  0  0  0  0  0  0
   -5.6123   17.6567  -34.4649 H   0  0  0  0  0  0  0  0  0  0  0  0
   -8.7639   17.8677  -32.3966 H   0  0  0  0  0  0  0  0  0  0  0  0
   -9.3748   19.8974  -31.0879 H   0  0  0  0  0  0  0  0  0  0  0  0
   -7.8154   21.8391  -30.9849 H   0  0  0  0  0  0  0  0  0  0  0  0
   -4.6061   21.9271  -31.4529 H   0  0  0  0  0  0  0  0  0  0  0  0
   -4.9395   22.2308  -33.2014 H   0  0  0  0  0  0  0  0  0  0  0  0
   -8.0472   24.1641  -32.1126 H   0  0  0  0  0  0  0  0  0  0  0  0
   -6.8401   24.6152  -33.3640 H   0  0  0  0  0  0  0  0  0  0  0  0
   -7.5620   22.9703  -33.3640 H   0  0  0  0  0  0  0  0  0  0  0  0
   -4.2399   22.6354  -29.6356 H   0  0  0  0  0  0  0  0  0  0  0  0
   -2.9243   21.2687  -28.0170 H   0  0  0  0  0  0  0  0  0  0  0  0
   -0.7985   22.1632  -27.0624 H   0  0  0  0  0  0  0  0  0  0  0  0
   -0.0016   24.4382  -27.7040 H   0  0  0  0  0  0  0  0  0  0  0  0
  1  2  1  0
  2  3  2  0
  3  4  1  0
  4  5  2  0
  5  6  1  0
  6  7  1  0
  7  8  1  0
  8  9  1  0
  8 10  1  0
 10 11  2  0
 10 12  1  0
 12 13  2  0
 12 14  1  0
 14 15  1  0
 15 16  2  0
 16 17  1  0
 17 18  2  0
 18 19  1  0
 19 20  2  0
 20 21  1  0
  6 22  2  0
 22 23  1  0
 22  2  1  0
 20 15  1  0
  1 24  1  0
  1 25  1  0
  1 26  1  0
  3 27  1  0
  4 28  1  0
  5 29  1  0
  7 30  1  0
  7 31  1  0
  9 32  1  0
  9 33  1  0
  9 34  1  0
 16 35  1  0
 17 36  1  0
 18 37  1  0
 19 38  1  0
M  CHG  3  14  -1  21  -1  23  -1
M  END
>  <UniqueID>  (35) 
33

>  <SMILES>  (35) 
Cc1cccc(CN(C)C(=O)C(=O)[N-]c2ccccc2[O-])c1[O-]

>  <Energy>  (35) 
44.673915693191155

>  <Genealogy>  (35) 
Cc1cccc(CN(C)C(=O)C(=O)[N-]c2ccccc2[O-])c1[O-] (protonated)
Cc1cccc(CN(C)C(=O)C(=O)[N-]c2ccccc2[O-])c1[O-] (3D coordinates assigned)
Cc1cccc(CN(C)C(=O)C(=O)[N-]c2ccccc2[O-])c1[O-] (optimized conformer: 44.673915693191155 kcal/mol)

>  <smiles>  (35) 
Cc1cccc(CN(C)C(=O)C(=O)Nc2ccccc2O)c1O

>  <score_type>  (35) 
oracle

>  <origin>  (35) 
adgpu

>  <m_score__min__energy>  (35) 
-12.92

>  <m_primary>  (35) 
energy

$$$$
35:0
     RDKit          3D

 66 69  0  0  0  0  0  0  0  0999 V2000
   -8.3470   21.1510  -31.0400 C   0  0  0  0  0  0  0  0  0  0  0  0
   -7.6470   20.9110  -32.3090 N   0  0  0  0  0  0  0  0  0  0  0  0
   -7.8650   19.5260  -32.7470 C   0  0  0  0  0  0  0  0  0  0  0  0
   -5.9330   21.1840  -32.1000 S   0  0  0  0  0  0  0  0  0  0  0  0
   -5.2590   21.1790  -33.4430 O   0  0  0  0  0  0  0  0  0  0  0  0
   -5.3270   20.0900  -31.2630 O   0  0  0  0  0  0  0  0  0  0  0  0
   -5.6430   22.7400  -31.3220 C   0  0  0  0  0  0  0  0  0  0  0  0
   -6.6160   23.7480  -31.3790 C   0  0  0  0  0  0  0  0  0  0  0  0
   -6.3980   24.9720  -30.7430 C   0  0  0  0  0  0  0  0  0  0  0  0
   -5.2070   25.1990  -30.0500 C   0  0  0  0  0  0  0  0  0  0  0  0
   -4.2170   24.2030  -30.0000 C   0  0  0  0  0  0  0  0  0  0  0  0
   -3.0050   24.3770  -29.2580 N   0  0  0  0  0  0  0  0  0  0  0  0
   -1.8570   23.5180  -29.2840 C   0  0  0  0  0  0  0  0  0  0  0  0
   -0.9180   23.7480  -30.0930 O   0  0  0  0  0  0  0  0  0  0  0  0
   -1.8070   22.3380  -28.3850 C   0  0  0  0  0  0  0  0  0  0  0  0
   -1.3540   22.5080  -27.0610 C   0  0  0  0  0  0  0  0  0  0  0  0
   -1.3080   21.4260  -26.1770 C   0  0  0  0  0  0  0  0  0  0  0  0
   -1.7240   20.1620  -26.5940 C   0  0  0  0  0  0  0  0  0  0  0  0
   -2.1860   19.9760  -27.8970 C   0  0  0  0  0  0  0  0  0  0  0  0
   -2.2310   21.0500  -28.8000 C   0  0  0  0  0  0  0  0  0  0  0  0
   -2.7260   20.8170  -30.1250 N   0  0  0  0  0  0  0  0  0  0  0  0
   -1.9090   20.9580  -31.3000 C   0  0  0  0  0  0  0  0  0  0  0  0
   -2.5200   21.0480  -32.5600 C   0  0  0  0  0  0  0  0  0  0  0  0
   -1.7440   21.1670  -33.7170 C   0  0  0  0  0  0  0  0  0  0  0  0
   -0.3450   21.1850  -33.6310 C   0  0  0  0  0  0  0  0  0  0  0  0
    0.6310   21.3340  -35.0940 S   0  0  0  0  0  0  0  0  0  0  0  0
    1.7710   20.3560  -35.0300 O   0  0  0  0  0  0  0  0  0  0  0  0
   -0.2130   20.9880  -36.2880 O   0  0  0  0  0  0  0  0  0  0  0  0
    1.2600   22.9520  -35.2880 N   0  0  0  0  0  0  0  0  0  0  0  0
    0.3280   23.7700  -36.0910 C   0  0  0  0  0  0  0  0  0  0  0  0
    0.9490   25.1210  -36.5150 C   0  0  0  0  0  0  0  0  0  0  0  0
    2.2230   25.4370  -35.7260 C   0  0  0  0  0  0  0  0  0  0  0  0
    3.2530   24.3030  -35.8620 C   0  0  0  0  0  0  0  0  0  0  0  0
    2.5940   22.9110  -35.9100 C   0  0  0  0  0  0  0  0  0  0  0  0
    0.2690   21.0830  -32.3780 C   0  0  0  0  0  0  0  0  0  0  0  0
   -0.5040   20.9700  -31.2190 C   0  0  0  0  0  0  0  0  0  0  0  0
   -4.4490   22.9720  -30.6260 C   0  0  0  0  0  0  0  0  0  0  0  0
   -7.6743   20.9203  -30.2008 H   0  0  0  0  0  0  0  0  0  0  0  0
   -8.6542   22.2058  -30.9845 H   0  0  0  0  0  0  0  0  0  0  0  0
   -9.2367   20.5066  -30.9845 H   0  0  0  0  0  0  0  0  0  0  0  0
   -7.9675   18.8748  -31.8664 H   0  0  0  0  0  0  0  0  0  0  0  0
   -8.7826   19.4727  -33.3513 H   0  0  0  0  0  0  0  0  0  0  0  0
   -7.0082   19.1934  -33.3513 H   0  0  0  0  0  0  0  0  0  0  0  0
   -7.5541   23.5741  -31.9265 H   0  0  0  0  0  0  0  0  0  0  0  0
   -7.1656   25.7586  -30.7880 H   0  0  0  0  0  0  0  0  0  0  0  0
   -5.0433   26.1606  -29.5416 H   0  0  0  0  0  0  0  0  0  0  0  0
   -1.0331   23.5032  -26.7196 H   0  0  0  0  0  0  0  0  0  0  0  0
   -0.9427   21.5721  -25.1498 H   0  0  0  0  0  0  0  0  0  0  0  0
   -1.6879   19.3125  -25.8961 H   0  0  0  0  0  0  0  0  0  0  0  0
   -2.5182   18.9784  -28.2200 H   0  0  0  0  0  0  0  0  0  0  0  0
   -3.7440   20.6060  -30.2350 H   0  0  0  0  0  0  0  0  0  0  0  0
   -3.6170   21.0248  -32.6380 H   0  0  0  0  0  0  0  0  0  0  0  0
   -2.2334   21.2468  -34.6989 H   0  0  0  0  0  0  0  0  0  0  0  0
    0.0530   23.2077  -36.9955 H   0  0  0  0  0  0  0  0  0  0  0  0
   -0.5530   23.9852  -35.4684 H   0  0  0  0  0  0  0  0  0  0  0  0
    1.1955   25.0784  -37.5862 H   0  0  0  0  0  0  0  0  0  0  0  0
    0.2147   25.9134  -36.3081 H   0  0  0  0  0  0  0  0  0  0  0  0
    2.6620   26.3694  -36.1107 H   0  0  0  0  0  0  0  0  0  0  0  0
    1.9589   25.5441  -34.6636 H   0  0  0  0  0  0  0  0  0  0  0  0
    3.8248   24.4549  -36.7894 H   0  0  0  0  0  0  0  0  0  0  0  0
    3.9042   24.3345  -34.9761 H   0  0  0  0  0  0  0  0  0  0  0  0
    2.4953   22.5928  -36.9583 H   0  0  0  0  0  0  0  0  0  0  0  0
    3.2238   22.1992  -35.3562 H   0  0  0  0  0  0  0  0  0  0  0  0
    1.3665   21.0918  -32.3046 H   0  0  0  0  0  0  0  0  0  0  0  0
   -0.0117   20.8900  -30.2386 H   0  0  0  0  0  0  0  0  0  0  0  0
   -3.6874   22.1802  -30.5709 H   0  0  0  0  0  0  0  0  0  0  0  0
  1  2  1  0
  2  3  1  0
  2  4  1  0
  4  5  2  0
  4  6  2  0
  4  7  1  0
  7  8  2  0
  8  9  1  0
  9 10  2  0
 10 11  1  0
 11 12  1  0
 12 13  1  0
 13 14  2  0
 13 15  1  0
 15 16  2  0
 16 17  1  0
 17 18  2  0
 18 19  1  0
 19 20  2  0
 20 21  1  0
 21 22  1  0
 22 23  2  0
 23 24  1  0
 24 25  2  0
 25 26  1  0
 26 27  2  0
 26 28  2  0
 26 29  1  0
 29 30  1  0
 30 31  1  0
 31 32  1  0
 32 33  1  0
 33 34  1  0
 25 35  1  0
 35 36  2  0
 11 37  2  0
 37  7  1  0
 20 15  1  0
 36 22  1  0
 34 29  1  0
  1 38  1  0
  1 39  1  0
  1 40  1  0
  3 41  1  0
  3 42  1  0
  3 43  1  0
  8 44  1  0
  9 45  1  0
 10 46  1  0
 16 47  1  0
 17 48  1  0
 18 49  1  0
 19 50  1  0
 21 51  1  0
 23 52  1  0
 24 53  1  0
 30 54  1  0
 30 55  1  0
 31 56  1  0
 31 57  1  0
 32 58  1  0
 32 59  1  0
 33 60  1  0
 33 61  1  0
 34 62  1  0
 34 63  1  0
 35 64  1  0
 36 65  1  0
 37 66  1  0
M  CHG  1  12  -1
M  END
>  <UniqueID>  (36) 
34

>  <SMILES>  (36) 
CN(C)S(=O)(=O)c1cccc([N-]C(=O)c2ccccc2Nc2ccc(S(=O)(=O)N3CCCCC3)cc2)c1

>  <Energy>  (36) 
83.7776853602094

>  <Genealogy>  (36) 
CN(C)S(=O)(=O)c1cccc([N-]C(=O)c2ccccc2Nc2ccc(S(=O)(=O)N3CCCCC3)cc2)c1 (protonated)
CN(C)S(=O)(=O)c1cccc([N-]C(=O)c2ccccc2Nc2ccc(S(=O)(=O)N3CCCCC3)cc2)c1 (3D coordinates assigned)
CN(C)S(=O)(=O)c1cccc([N-]C(=O)c2ccccc2Nc2ccc(S(=O)(=O)N3CCCCC3)cc2)c1 (nonaromatic ring conformer: 83.7776853602094 kcal/mol)

>  <smiles>  (36) 
CN(C)S(=O)(=O)c1cccc(NC(=O)c2ccccc2Nc2ccc(S(=O)(=O)N3CCCCC3)cc2)c1

>  <score_type>  (36) 
oracle

>  <origin>  (36) 
adgpu

>  <m_score__min__energy>  (36) 
-11.880000000000001

>  <m_primary>  (36) 
energy

$$$$
36:0
     RDKit          3D

 57 61  0  0  0  0  0  0  0  0999 V2000
   -1.9620   21.1130  -29.9540 O   0  0  0  0  0  0  0  0  0  0  0  0
   -2.1830   21.5670  -31.1080 C   0  0  0  0  0  0  0  0  0  0  0  0
   -2.7190   22.8870  -31.2410 N   0  0  0  0  0  0  0  0  0  0  0  0
   -4.1070   23.2300  -31.1190 C   0  0  0  0  0  0  0  0  0  0  0  0
   -5.0320   22.7360  -32.0550 C   0  0  0  0  0  0  0  0  0  0  0  0
   -6.3840   23.0590  -31.9530 C   0  0  0  0  0  0  0  0  0  0  0  0
   -6.8300   23.8780  -30.9180 C   0  0  0  0  0  0  0  0  0  0  0  0
   -5.9260   24.3760  -29.9790 C   0  0  0  0  0  0  0  0  0  0  0  0
   -4.5540   24.0670  -30.0670 C   0  0  0  0  0  0  0  0  0  0  0  0
   -3.6340   24.5520  -29.0060 C   0  0  0  0  0  0  0  0  0  0  0  0
   -3.8790   24.2870  -27.7960 O   0  0  0  0  0  0  0  0  0  0  0  0
   -2.4600   25.3000  -29.3410 N   0  0  0  0  0  0  0  0  0  0  0  0
   -1.3200   25.4390  -28.4430 C   0  0  0  0  0  0  0  0  0  0  0  0
   -0.9110   24.0840  -27.9320 C   0  0  0  0  0  0  0  0  0  0  0  0
   -1.1990   23.7190  -26.6040 C   0  0  0  0  0  0  0  0  0  0  0  0
   -0.7620   22.4900  -26.1000 C   0  0  0  0  0  0  0  0  0  0  0  0
   -0.0390   21.6150  -26.9150 C   0  0  0  0  0  0  0  0  0  0  0  0
    0.2560   21.9720  -28.2350 C   0  0  0  0  0  0  0  0  0  0  0  0
   -0.1740   23.2040  -28.7410 C   0  0  0  0  0  0  0  0  0  0  0  0
   -1.9540   20.7050  -32.2870 C   0  0  0  0  0  0  0  0  0  0  0  0
   -0.8570   20.9330  -33.1360 C   0  0  0  0  0  0  0  0  0  0  0  0
   -0.6640   20.1370  -34.2670 C   0  0  0  0  0  0  0  0  0  0  0  0
   -1.5610   19.1090  -34.5640 C   0  0  0  0  0  0  0  0  0  0  0  0
   -2.6570   18.8690  -33.7260 C   0  0  0  0  0  0  0  0  0  0  0  0
   -3.7980   17.5880  -34.1200 S   0  0  0  0  0  0  0  0  0  0  0  0
   -3.1190   16.2470  -34.0840 O   0  0  0  0  0  0  0  0  0  0  0  0
   -4.3310   17.8060  -35.5090 O   0  0  0  0  0  0  0  0  0  0  0  0
   -5.1070   17.6120  -32.9840 N   0  0  0  0  0  0  0  0  0  0  0  0
   -5.3620   16.6930  -32.0220 C   0  0  0  0  0  0  0  0  0  0  0  0
   -6.4940   16.9580  -31.3180 N   0  0  0  0  0  0  0  0  0  0  0  0
   -6.9460   18.0930  -31.8870 C   0  0  0  0  0  0  0  0  0  0  0  0
   -8.0950   18.8080  -31.5570 C   0  0  0  0  0  0  0  0  0  0  0  0
   -8.3790   19.9690  -32.3030 C   0  0  0  0  0  0  0  0  0  0  0  0
   -7.5170   20.3810  -33.3440 C   0  0  0  0  0  0  0  0  0  0  0  0
   -6.3640   19.6360  -33.6510 C   0  0  0  0  0  0  0  0  0  0  0  0
   -6.1150   18.4910  -32.8940 C   0  0  0  0  0  0  0  0  0  0  0  0
   -2.8560   19.6730  -32.5930 C   0  0  0  0  0  0  0  0  0  0  0  0
   -4.6860   22.0892  -32.8747 H   0  0  0  0  0  0  0  0  0  0  0  0
   -7.0997   22.6668  -32.6905 H   0  0  0  0  0  0  0  0  0  0  0  0
   -7.8973   24.1327  -30.8409 H   0  0  0  0  0  0  0  0  0  0  0  0
   -6.2882   25.0166  -29.1614 H   0  0  0  0  0  0  0  0  0  0  0  0
   -0.4791   25.8942  -28.9868 H   0  0  0  0  0  0  0  0  0  0  0  0
   -1.6000   26.0800  -27.5941 H   0  0  0  0  0  0  0  0  0  0  0  0
   -1.7703   24.4033  -25.9595 H   0  0  0  0  0  0  0  0  0  0  0  0
   -0.9878   22.2115  -25.0601 H   0  0  0  0  0  0  0  0  0  0  0  0
    0.2981   20.6458  -26.5187 H   0  0  0  0  0  0  0  0  0  0  0  0
    0.8265   21.2837  -28.8759 H   0  0  0  0  0  0  0  0  0  0  0  0
    0.0664   23.4843  -29.7772 H   0  0  0  0  0  0  0  0  0  0  0  0
   -0.1474   21.7421  -32.9084 H   0  0  0  0  0  0  0  0  0  0  0  0
    0.1974   20.3204  -34.9260 H   0  0  0  0  0  0  0  0  0  0  0  0
   -1.4065   18.4866  -35.4577 H   0  0  0  0  0  0  0  0  0  0  0  0
   -4.7188   15.8215  -31.8302 H   0  0  0  0  0  0  0  0  0  0  0  0
   -8.7571   18.4779  -30.7429 H   0  0  0  0  0  0  0  0  0  0  0  0
   -9.2785   20.5591  -32.0733 H   0  0  0  0  0  0  0  0  0  0  0  0
   -7.7491   21.2902  -33.9180 H   0  0  0  0  0  0  0  0  0  0  0  0
   -5.6837   19.9449  -34.4583 H   0  0  0  0  0  0  0  0  0  0  0  0
   -3.7235   19.4938  -31.9409 H   0  0  0  0  0  0  0  0  0  0  0  0
  1  2  2  0
  2  3  1  0
  3  4  1  0
  4  5  2  0
  5  6  1  0
  6  7  2  0
  7  8  1  0
  8  9  2  0
  9 10  1  0
 10 11  2  0
 10 12  1  0
 12 13  1  0
 13 14  1  0
 14 15  2  0
 15 16  1  0
 16 17  2  0
 17 18  1  0
 18 19  2  0
  2 20  1  0
 20 21  2  0
 21 22  1  0
 22 23  2  0
 23 24  1  0
 24 25  1  0
 25 26  2  0
 25 27  2  0
 25 28  1  0
 28 29  1  0
 29 30  2  0
 30 31  1  0
 31 32  2  0
 32 33  1  0
 33 34  2  0
 34 35  1  0
 35 36  2  0
 24 37  2  0
  9  4  1  0
 19 14  1  0
 37 20  1  0
 36 28  1  0
 36 31  1  0
  5 38  1  0
  6 39  1  0
  7 40  1  0
  8 41  1  0
 13 42  1  0
 13 43  1  0
 15 44  1  0
 16 45  1  0
 17 46  1  0
 18 47  1  0
 19 48  1  0
 21 49  1  0
 22 50  1  0
 23 51  1  0
 29 52  1  0
 32 53  1  0
 33 54  1  0
 34 55  1  0
 35 56  1  0
 37 57  1  0
M  CHG  2   3  -1  12  -1
M  END
>  <UniqueID>  (37) 
35

>  <SMILES>  (37) 
O=C([N-]c1ccccc1C(=O)[N-]Cc1ccccc1)c1cccc(S(=O)(=O)n2cnc3ccccc32)c1

>  <Energy>  (37) 
110.24479549007837

>  <Genealogy>  (37) 
O=C([N-]c1ccccc1C(=O)[N-]Cc1ccccc1)c1cccc(S(=O)(=O)n2cnc3ccccc32)c1 (protonated)
O=C([N-]c1ccccc1C(=O)[N-]Cc1ccccc1)c1cccc(S(=O)(=O)n2cnc3ccccc32)c1 (3D coordinates assigned)
O=C([N-]c1ccccc1C(=O)[N-]Cc1ccccc1)c1cccc(S(=O)(=O)n2cnc3ccccc32)c1 (optimized conformer: 110.24479549007837 kcal/mol)

>  <smiles>  (37) 
O=C(Nc1ccccc1C(=O)NCc1ccccc1)c1cccc(S(=O)(=O)n2cnc3ccccc32)c1

>  <score_type>  (37) 
oracle

>  <origin>  (37) 
adgpu

>  <m_score__min__energy>  (37) 
-13.550000000000001

>  <m_primary>  (37) 
energy

$$$$
37:0
     RDKit          3D

 46 49  0  0  0  0  0  0  0  0999 V2000
   -1.8930   25.6600  -29.3220 O   0  0  0  0  0  0  0  0  0  0  0  0
   -1.7240   24.2800  -29.3150 C   0  0  0  0  0  0  0  0  0  0  0  0
   -0.7590   23.7000  -28.4870 C   0  0  0  0  0  0  0  0  0  0  0  0
   -0.5810   22.3140  -28.4870 C   0  0  0  0  0  0  0  0  0  0  0  0
   -1.3720   21.5050  -29.3090 C   0  0  0  0  0  0  0  0  0  0  0  0
   -2.3600   22.0780  -30.1280 C   0  0  0  0  0  0  0  0  0  0  0  0
   -3.1930   21.2400  -31.0180 C   0  0  0  0  0  0  0  0  0  0  0  0
   -4.4810   20.9500  -30.7480 N   0  0  0  0  0  0  0  0  0  0  0  0
   -4.9600   20.2570  -31.7700 N   0  0  0  0  0  0  0  0  0  0  0  0
   -6.3200   19.7260  -31.8260 C   0  0  0  0  0  0  0  0  0  0  0  0
   -7.3220   20.8570  -31.8720 C   0  0  0  0  0  0  0  0  0  0  0  0
   -6.8950   22.1460  -31.5060 C   0  0  0  0  0  0  0  0  0  0  0  0
   -7.7760   23.2280  -31.5510 C   0  0  0  0  0  0  0  0  0  0  0  0
   -9.0920   23.0410  -31.9640 C   0  0  0  0  0  0  0  0  0  0  0  0
   -9.5320   21.7720  -32.3460 C   0  0  0  0  0  0  0  0  0  0  0  0
   -8.6550   20.6720  -32.3260 C   0  0  0  0  0  0  0  0  0  0  0  0
   -9.1870   19.3220  -32.7360 C   0  0  0  0  0  0  0  0  0  0  0  0
   -9.0950   18.1910  -31.3630 Cl  0  0  0  0  0  0  0  0  0  0  0  0
   -4.0010   20.0770  -32.6960 C   0  0  0  0  0  0  0  0  0  0  0  0
   -2.8470   20.6900  -32.2520 C   0  0  0  0  0  0  0  0  0  0  0  0
   -1.5300   20.6420  -32.9210 C   0  0  0  0  0  0  0  0  0  0  0  0
   -0.5880   19.6540  -32.5840 C   0  0  0  0  0  0  0  0  0  0  0  0
    0.6490   19.6100  -33.2330 C   0  0  0  0  0  0  0  0  0  0  0  0
    0.9530   20.5400  -34.2300 C   0  0  0  0  0  0  0  0  0  0  0  0
    0.0140   21.5180  -34.5860 C   0  0  0  0  0  0  0  0  0  0  0  0
    0.3040   22.4480  -35.5830 O   0  0  0  0  0  0  0  0  0  0  0  0
   -1.2240   21.5630  -33.9370 C   0  0  0  0  0  0  0  0  0  0  0  0
   -2.5160   23.4740  -30.1390 C   0  0  0  0  0  0  0  0  0  0  0  0
   -0.1398   24.3343  -27.8356 H   0  0  0  0  0  0  0  0  0  0  0  0
    0.1826   21.8585  -27.8393 H   0  0  0  0  0  0  0  0  0  0  0  0
   -1.2202   20.4155  -29.3146 H   0  0  0  0  0  0  0  0  0  0  0  0
   -6.4308   19.1058  -32.7277 H   0  0  0  0  0  0  0  0  0  0  0  0
   -6.5052   19.1195  -30.9272 H   0  0  0  0  0  0  0  0  0  0  0  0
   -5.8560   22.3033  -31.1809 H   0  0  0  0  0  0  0  0  0  0  0  0
   -7.4294   24.2304  -31.2595 H   0  0  0  0  0  0  0  0  0  0  0  0
   -9.7862   23.8939  -31.9895 H   0  0  0  0  0  0  0  0  0  0  0  0
  -10.5750   21.6309  -32.6658 H   0  0  0  0  0  0  0  0  0  0  0  0
  -10.2349   19.4244  -33.0545 H   0  0  0  0  0  0  0  0  0  0  0  0
   -8.5818   18.9318  -33.5675 H   0  0  0  0  0  0  0  0  0  0  0  0
   -4.1169   19.5337  -33.6454 H   0  0  0  0  0  0  0  0  0  0  0  0
   -0.8256   18.9129  -31.8066 H   0  0  0  0  0  0  0  0  0  0  0  0
    1.3855   18.8407  -32.9579 H   0  0  0  0  0  0  0  0  0  0  0  0
    1.9292   20.5049  -34.7357 H   0  0  0  0  0  0  0  0  0  0  0  0
   -0.4310   22.9220  -36.0940 H   0  0  0  0  0  0  0  0  0  0  0  0
   -1.9636   22.3250  -34.2241 H   0  0  0  0  0  0  0  0  0  0  0  0
   -3.2650   23.9356  -30.7992 H   0  0  0  0  0  0  0  0  0  0  0  0
  1  2  1  0
  2  3  2  0
  3  4  1  0
  4  5  2  0
  5  6  1  0
  6  7  1  0
  7  8  2  0
  8  9  1  0
  9 10  1  0
 10 11  1  0
 11 12  2  0
 12 13  1  0
 13 14  2  0
 14 15  1  0
 15 16  2  0
 16 17  1  0
 17 18  1  0
  9 19  1  0
 19 20  2  0
 20 21  1  0
 21 22  2  0
 22 23  1  0
 23 24  2  0
 24 25  1  0
 25 26  1  0
 25 27  2  0
  6 28  2  0
 28  2  1  0
 20  7  1  0
 27 21  1  0
 16 11  1  0
  3 29  1  0
  4 30  1  0
  5 31  1  0
 10 32  1  0
 10 33  1  0
 12 34  1  0
 13 35  1  0
 14 36  1  0
 15 37  1  0
 17 38  1  0
 17 39  1  0
 19 40  1  0
 22 41  1  0
 23 42  1  0
 24 43  1  0
 26 44  1  0
 27 45  1  0
 28 46  1  0
M  CHG  1   1  -1
M  END
>  <UniqueID>  (38) 
36

>  <SMILES>  (38) 
[O-]c1cccc(-c2nn(Cc3ccccc3CCl)cc2-c2cccc(O)c2)c1

>  <Energy>  (38) 
87.42570931584275

>  <Genealogy>  (38) 
[O-]c1cccc(-c2nn(Cc3ccccc3CCl)cc2-c2cccc(O)c2)c1 (protonated)
[O-]c1cccc(-c2nn(Cc3ccccc3CCl)cc2-c2cccc(O)c2)c1 (3D coordinates assigned)
[O-]c1cccc(-c2nn(Cc3ccccc3CCl)cc2-c2cccc(O)c2)c1 (optimized conformer: 87.42570931584275 kcal/mol)

>  <smiles>  (38) 
Oc1cccc(-c2cn(Cc3ccccc3CCl)nc2-c2cccc(O)c2)c1

>  <score_type>  (38) 
oracle

>  <origin>  (38) 
adgpu

>  <m_score__min__energy>  (38) 
-11.51

>  <m_primary>  (38) 
energy

$$$$
38:0
     RDKit          3D

 57 61  0  0  0  0  0  0  0  0999 V2000
   -2.7570   23.3290  -29.9810 O   0  0  0  0  0  0  0  0  0  0  0  0
   -3.4520   23.8800  -29.0850 C   0  0  0  0  0  0  0  0  0  0  0  0
   -4.8840   23.7550  -29.1170 N   0  0  0  0  0  0  0  0  0  0  0  0
   -5.6300   23.4320  -30.3030 C   0  0  0  0  0  0  0  0  0  0  0  0
   -6.1380   24.4380  -31.1430 C   0  0  0  0  0  0  0  0  0  0  0  0
   -6.8830   24.1020  -32.2760 C   0  0  0  0  0  0  0  0  0  0  0  0
   -7.1400   22.7620  -32.5750 C   0  0  0  0  0  0  0  0  0  0  0  0
   -6.6640   21.7470  -31.7300 C   0  0  0  0  0  0  0  0  0  0  0  0
   -6.9240   20.3260  -32.0500 C   0  0  0  0  0  0  0  0  0  0  0  0
   -8.1560   19.7710  -31.6690 C   0  0  0  0  0  0  0  0  0  0  0  0
   -8.4210   18.4240  -31.9200 C   0  0  0  0  0  0  0  0  0  0  0  0
   -9.5210   17.9220  -31.5700 O   0  0  0  0  0  0  0  0  0  0  0  0
   -7.4930   17.6480  -32.5360 N   0  0  0  0  0  0  0  0  0  0  0  0
   -6.2920   18.1450  -32.9340 C   0  0  0  0  0  0  0  0  0  0  0  0
   -5.3780   17.3050  -33.5790 C   0  0  0  0  0  0  0  0  0  0  0  0
   -4.1490   17.8080  -34.0150 C   0  0  0  0  0  0  0  0  0  0  0  0
   -3.8310   19.1520  -33.8130 C   0  0  0  0  0  0  0  0  0  0  0  0
   -4.7340   20.0010  -33.1680 C   0  0  0  0  0  0  0  0  0  0  0  0
   -5.9730   19.5070  -32.7070 C   0  0  0  0  0  0  0  0  0  0  0  0
   -5.9090   22.0880  -30.5980 C   0  0  0  0  0  0  0  0  0  0  0  0
   -2.7780   24.6140  -27.9870 C   0  0  0  0  0  0  0  0  0  0  0  0
   -1.5360   25.2340  -28.2080 C   0  0  0  0  0  0  0  0  0  0  0  0
   -0.8990   25.9360  -27.1800 C   0  0  0  0  0  0  0  0  0  0  0  0
   -1.4980   26.0340  -25.9170 C   0  0  0  0  0  0  0  0  0  0  0  0
   -0.7130   26.9450  -24.6290 S   0  0  0  0  0  0  0  0  0  0  0  0
   -0.8620   28.4150  -24.9120 O   0  0  0  0  0  0  0  0  0  0  0  0
   -1.3820   26.6440  -23.3160 O   0  0  0  0  0  0  0  0  0  0  0  0
    0.9810   26.5310  -24.5570 N   0  0  0  0  0  0  0  0  0  0  0  0
    1.1400   25.0670  -24.4800 C   0  0  0  0  0  0  0  0  0  0  0  0
    2.5830   24.6870  -24.0930 C   0  0  0  0  0  0  0  0  0  0  0  0
    3.4540   25.7910  -24.2420 O   0  0  0  0  0  0  0  0  0  0  0  0
    3.1010   26.8070  -23.3190 C   0  0  0  0  0  0  0  0  0  0  0  0
    1.6030   27.1740  -23.3890 C   0  0  0  0  0  0  0  0  0  0  0  0
   -2.7430   25.4340  -25.6940 C   0  0  0  0  0  0  0  0  0  0  0  0
   -3.3790   24.7280  -26.7190 C   0  0  0  0  0  0  0  0  0  0  0  0
   -5.4030   23.8010  -28.2100 H   0  0  0  0  0  0  0  0  0  0  0  0
   -5.9479   25.4954  -30.9070 H   0  0  0  0  0  0  0  0  0  0  0  0
   -7.2682   24.8947  -32.9343 H   0  0  0  0  0  0  0  0  0  0  0  0
   -7.7167   22.5014  -33.4747 H   0  0  0  0  0  0  0  0  0  0  0  0
   -8.9120   20.3975  -31.1729 H   0  0  0  0  0  0  0  0  0  0  0  0
   -5.6271   16.2463  -33.7434 H   0  0  0  0  0  0  0  0  0  0  0  0
   -3.4311   17.1436  -34.5182 H   0  0  0  0  0  0  0  0  0  0  0  0
   -2.8650   19.5446  -34.1632 H   0  0  0  0  0  0  0  0  0  0  0  0
   -4.4778   21.0603  -33.0187 H   0  0  0  0  0  0  0  0  0  0  0  0
   -5.5321   21.2951  -29.9353 H   0  0  0  0  0  0  0  0  0  0  0  0
   -1.0612   25.1664  -29.1979 H   0  0  0  0  0  0  0  0  0  0  0  0
    0.0752   26.4127  -27.3633 H   0  0  0  0  0  0  0  0  0  0  0  0
    0.4481   24.6695  -23.7229 H   0  0  0  0  0  0  0  0  0  0  0  0
    0.9180   24.6382  -25.4684 H   0  0  0  0  0  0  0  0  0  0  0  0
    2.5989   24.3550  -23.0444 H   0  0  0  0  0  0  0  0  0  0  0  0
    2.9234   23.8793  -24.7576 H   0  0  0  0  0  0  0  0  0  0  0  0
    3.3311   26.4556  -22.3023 H   0  0  0  0  0  0  0  0  0  0  0  0
    3.6783   27.7074  -23.5757 H   0  0  0  0  0  0  0  0  0  0  0  0
    1.1005   26.8296  -22.4731 H   0  0  0  0  0  0  0  0  0  0  0  0
    1.5028   28.2655  -23.4819 H   0  0  0  0  0  0  0  0  0  0  0  0
   -3.2228   25.5185  -24.7078 H   0  0  0  0  0  0  0  0  0  0  0  0
   -4.3561   24.2581  -26.5336 H   0  0  0  0  0  0  0  0  0  0  0  0
  1  2  2  0
  2  3  1  0
  3  4  1  0
  4  5  2  0
  5  6  1  0
  6  7  2  0
  7  8  1  0
  8  9  1  0
  9 10  2  0
 10 11  1  0
 11 12  2  0
 11 13  1  0
 13 14  1  0
 14 15  2  0
 15 16  1  0
 16 17  2  0
 17 18  1  0
 18 19  2  0
  8 20  2  0
  2 21  1  0
 21 22  2  0
 22 23  1  0
 23 24  2  0
 24 25  1  0
 25 26  2  0
 25 27  2  0
 25 28  1  0
 28 29  1  0
 29 30  1  0
 30 31  1  0
 31 32  1  0
 32 33  1  0
 24 34  1  0
 34 35  2  0
 20  4  1  0
 35 21  1  0
 19  9  1  0
 33 28  1  0
 19 14  1  0
  3 36  1  0
  5 37  1  0
  6 38  1  0
  7 39  1  0
 10 40  1  0
 15 41  1  0
 16 42  1  0
 17 43  1  0
 18 44  1  0
 20 45  1  0
 22 46  1  0
 23 47  1  0
 29 48  1  0
 29 49  1  0
 30 50  1  0
 30 51  1  0
 32 52  1  0
 32 53  1  0
 33 54  1  0
 33 55  1  0
 34 56  1  0
 35 57  1  0
M  CHG  1  13  -1
M  END
>  <UniqueID>  (39) 
37

>  <SMILES>  (39) 
O=C(Nc1cccc(-c2cc(=O)[n-]c3ccccc23)c1)c1ccc(S(=O)(=O)N2CCOCC2)cc1

>  <Energy>  (39) 
87.59042650450422

>  <Genealogy>  (39) 
O=C(Nc1cccc(-c2cc(=O)[n-]c3ccccc23)c1)c1ccc(S(=O)(=O)N2CCOCC2)cc1 (protonated)
O=C(Nc1cccc(-c2cc(=O)[n-]c3ccccc23)c1)c1ccc(S(=O)(=O)N2CCOCC2)cc1 (3D coordinates assigned)
O=C(Nc1cccc(-c2cc(=O)[n-]c3ccccc23)c1)c1ccc(S(=O)(=O)N2CCOCC2)cc1 (nonaromatic ring conformer: 87.59042650450422 kcal/mol)

>  <smiles>  (39) 
O=C(Nc1cccc(-c2cc(=O)[nH]c3ccccc23)c1)c1ccc(S(=O)(=O)N2CCOCC2)cc1

>  <score_type>  (39) 
oracle

>  <origin>  (39) 
adgpu

>  <m_score__min__energy>  (39) 
-11.6

>  <m_primary>  (39) 
energy

$$$$
39:0
     RDKit          3D

 37 38  0  0  0  0  0  0  0  0999 V2000
   -4.2320   24.9100  -26.5280 C   0  0  0  0  0  0  0  0  0  0  0  0
   -3.5660   23.8750  -27.4350 C   0  0  0  0  0  0  0  0  0  0  0  0
   -2.0610   24.1430  -27.6390 C   0  0  2  0  0  0  0  0  0  0  0  0
   -1.6940   25.5650  -27.2030 C   0  0  0  0  0  0  0  0  0  0  0  0
   -1.4750   23.8080  -29.3550 S   0  0  0  0  0  0  0  0  0  0  0  0
   -3.0750   23.8040  -30.1630 C   0  0  0  0  0  0  0  0  0  0  0  0
   -3.8080   24.9430  -30.2270 N   0  0  0  0  0  0  0  0  0  0  0  0
   -5.0220   24.9620  -30.8330 C   0  0  0  0  0  0  0  0  0  0  0  0
   -5.6830   26.0360  -30.8580 O   0  0  0  0  0  0  0  0  0  0  0  0
   -5.5340   23.7910  -31.4160 C   0  0  0  0  0  0  0  0  0  0  0  0
   -6.8630   23.7910  -31.9880 C   0  0  0  0  0  0  0  0  0  0  0  0
   -7.9260   23.7910  -32.4440 N   0  0  0  0  0  0  0  0  0  0  0  0
   -4.7430   22.6220  -31.3670 C   0  0  0  0  0  0  0  0  0  0  0  0
   -5.1800   21.3300  -31.9450 C   0  0  0  0  0  0  0  0  0  0  0  0
   -4.3840   20.7000  -32.9150 C   0  0  0  0  0  0  0  0  0  0  0  0
   -4.7930   19.4940  -33.4910 C   0  0  0  0  0  0  0  0  0  0  0  0
   -6.0050   18.9010  -33.1070 C   0  0  0  0  0  0  0  0  0  0  0  0
   -6.4620   17.6280  -33.7550 C   0  0  0  0  0  0  0  0  0  0  0  0
   -6.8210   19.5490  -32.1680 C   0  0  0  0  0  0  0  0  0  0  0  0
   -6.4130   20.7550  -31.5920 C   0  0  0  0  0  0  0  0  0  0  0  0
   -3.5380   22.6670  -30.7380 N   0  0  0  0  0  0  0  0  0  0  0  0
   -4.0588   24.6408  -25.4756 H   0  0  0  0  0  0  0  0  0  0  0  0
   -3.8029   25.9029  -26.7279 H   0  0  0  0  0  0  0  0  0  0  0  0
   -5.3135   24.9309  -26.7279 H   0  0  0  0  0  0  0  0  0  0  0  0
   -3.6881   22.8799  -26.9823 H   0  0  0  0  0  0  0  0  0  0  0  0
   -4.0509   23.9358  -28.4205 H   0  0  0  0  0  0  0  0  0  0  0  0
   -1.5354   23.4236  -26.9938 H   0  0  0  0  0  0  0  0  0  0  0  0
   -1.6799   25.6196  -26.1044 H   0  0  0  0  0  0  0  0  0  0  0  0
   -0.6996   25.8238  -27.5957 H   0  0  0  0  0  0  0  0  0  0  0  0
   -2.4389   26.2727  -27.5957 H   0  0  0  0  0  0  0  0  0  0  0  0
   -3.4328   21.1583  -33.2235 H   0  0  0  0  0  0  0  0  0  0  0  0
   -4.1616   19.0075  -34.2490 H   0  0  0  0  0  0  0  0  0  0  0  0
   -6.7251   16.8950  -32.9781 H   0  0  0  0  0  0  0  0  0  0  0  0
   -7.3434   17.8311  -34.3811 H   0  0  0  0  0  0  0  0  0  0  0  0
   -5.6527   17.2242  -34.3811 H   0  0  0  0  0  0  0  0  0  0  0  0
   -7.7867   19.1057  -31.8837 H   0  0  0  0  0  0  0  0  0  0  0  0
   -7.0605   21.2572  -30.8581 H   0  0  0  0  0  0  0  0  0  0  0  0
  1  2  1  0
  2  3  1  0
  3  4  1  0
  3  5  1  0
  5  6  1  0
  6  7  2  0
  7  8  1  0
  8  9  2  0
  8 10  1  0
 10 11  1  0
 11 12  3  0
 10 13  2  0
 13 14  1  0
 14 15  2  0
 15 16  1  0
 16 17  2  0
 17 18  1  0
 17 19  1  0
 19 20  2  0
 13 21  1  0
 21  6  1  0
 20 14  1  0
  1 22  1  0
  1 23  1  0
  1 24  1  0
  2 25  1  0
  2 26  1  0
  3 27  1  1
  4 28  1  0
  4 29  1  0
  4 30  1  0
 15 31  1  0
 16 32  1  0
 18 33  1  0
 18 34  1  0
 18 35  1  0
 19 36  1  0
 20 37  1  0
M  CHG  1  21  -1
M  END
>  <UniqueID>  (40) 
38

>  <SMILES>  (40) 
CC[C@H](C)Sc1nc(=O)c(C#N)c(-c2ccc(C)cc2)[n-]1

>  <Energy>  (40) 
35.83426759974409

>  <Genealogy>  (40) 
CCC(C)Sc1nc(=O)c(C#N)c(-c2ccc(C)cc2)[n-]1 (protonated)
CC[C@H](C)Sc1nc(=O)c(C#N)c(-c2ccc(C)cc2)[n-]1 (chirality)
CC[C@H](C)Sc1nc(=O)c(C#N)c(-c2ccc(C)cc2)[n-]1 (3D coordinates assigned)
CC[C@H](C)Sc1nc(=O)c(C#N)c(-c2ccc(C)cc2)[n-]1 (optimized conformer: 35.83426759974409 kcal/mol)

>  <smiles>  (40) 
CCC(C)Sc1nc(=O)c(C#N)c(-c2ccc(C)cc2)[nH]1

>  <score_type>  (40) 
oracle

>  <origin>  (40) 
adgpu

>  <m_score__min__energy>  (40) 
-8.6400000000000006

>  <m_primary>  (40) 
energy

$$$$
40:0
     RDKit          3D

 43 45  0  0  0  0  0  0  0  0999 V2000
   -4.5830   24.6130  -27.7330 N   0  0  0  0  0  0  0  0  0  0  0  0
   -3.3310   24.0300  -28.1180 C   0  0  0  0  0  0  0  0  0  0  0  0
   -2.6040   23.2930  -27.1690 C   0  0  0  0  0  0  0  0  0  0  0  0
   -1.4310   22.6280  -27.5360 C   0  0  0  0  0  0  0  0  0  0  0  0
   -0.9760   22.6870  -28.8530 C   0  0  0  0  0  0  0  0  0  0  0  0
   -1.6810   23.4290  -29.8040 C   0  0  0  0  0  0  0  0  0  0  0  0
   -2.8390   24.1310  -29.4430 C   0  0  0  0  0  0  0  0  0  0  0  0
   -3.4840   24.9320  -30.4440 N   0  0  0  0  0  0  0  0  0  0  0  0
   -4.8980   24.9980  -30.6840 C   0  0  0  0  0  0  0  0  0  0  0  0
   -5.4930   26.0890  -30.4820 O   0  0  0  0  0  0  0  0  0  0  0  0
   -5.6740   23.8240  -31.1490 C   0  0  0  0  0  0  0  0  0  0  0  0
   -7.0760   23.8030  -31.0580 C   0  0  0  0  0  0  0  0  0  0  0  0
   -7.7950   22.6890  -31.4990 C   0  0  0  0  0  0  0  0  0  0  0  0
   -7.1250   21.5910  -32.0430 C   0  0  0  0  0  0  0  0  0  0  0  0
   -5.7270   21.6030  -32.1490 C   0  0  0  0  0  0  0  0  0  0  0  0
   -4.8680   20.2370  -32.8560 S   0  0  0  0  0  0  0  0  0  0  0  0
   -4.8760   19.1020  -31.8710 O   0  0  0  0  0  0  0  0  0  0  0  0
   -5.5620   19.7860  -34.1130 O   0  0  0  0  0  0  0  0  0  0  0  0
   -3.2240   20.7020  -33.2090 N   0  0  0  0  0  0  0  0  0  0  0  0
   -2.5770   19.6730  -34.0380 C   0  0  0  0  0  0  0  0  0  0  0  0
   -1.1040   20.0510  -34.3060 C   0  0  0  0  0  0  0  0  0  0  0  0
   -0.7240   21.2300  -33.6200 O   0  0  0  0  0  0  0  0  0  0  0  0
   -0.9720   21.0760  -32.2360 C   0  0  0  0  0  0  0  0  0  0  0  0
   -2.4760   20.8870  -31.9540 C   0  0  0  0  0  0  0  0  0  0  0  0
   -5.0080   22.7230  -31.7130 C   0  0  0  0  0  0  0  0  0  0  0  0
   -5.0370   25.3360  -28.3340 H   0  0  0  0  0  0  0  0  0  0  0  0
   -5.0190   24.4130  -26.8080 H   0  0  0  0  0  0  0  0  0  0  0  0
   -2.9603   23.2388  -26.1297 H   0  0  0  0  0  0  0  0  0  0  0  0
   -0.8656   22.0570  -26.7848 H   0  0  0  0  0  0  0  0  0  0  0  0
   -0.0615   22.1490  -29.1432 H   0  0  0  0  0  0  0  0  0  0  0  0
   -1.3244   23.4625  -30.8441 H   0  0  0  0  0  0  0  0  0  0  0  0
   -7.6102   24.6678  -30.6375 H   0  0  0  0  0  0  0  0  0  0  0  0
   -8.8919   22.6768  -31.4175 H   0  0  0  0  0  0  0  0  0  0  0  0
   -7.6947   20.7158  -32.3887 H   0  0  0  0  0  0  0  0  0  0  0  0
   -2.6143   18.7072  -33.5128 H   0  0  0  0  0  0  0  0  0  0  0  0
   -3.1087   19.5997  -34.9982 H   0  0  0  0  0  0  0  0  0  0  0  0
   -0.4594   19.2239  -33.9739 H   0  0  0  0  0  0  0  0  0  0  0  0
   -0.9922   20.2354  -35.3847 H   0  0  0  0  0  0  0  0  0  0  0  0
   -0.4252   20.1945  -31.8699 H   0  0  0  0  0  0  0  0  0  0  0  0
   -0.6336   21.9862  -31.7192 H   0  0  0  0  0  0  0  0  0  0  0  0
   -2.6150   20.0008  -31.3173 H   0  0  0  0  0  0  0  0  0  0  0  0
   -2.8554   21.7862  -31.4466 H   0  0  0  0  0  0  0  0  0  0  0  0
   -3.9127   22.7408  -31.8130 H   0  0  0  0  0  0  0  0  0  0  0  0
  1  2  1  0
  2  3  2  0
  3  4  1  0
  4  5  2  0
  5  6  1  0
  6  7  2  0
  7  8  1  0
  8  9  1  0
  9 10  2  0
  9 11  1  0
 11 12  2  0
 12 13  1  0
 13 14  2  0
 14 15  1  0
 15 16  1  0
 16 17  2  0
 16 18  2  0
 16 19  1  0
 19 20  1  0
 20 21  1  0
 21 22  1  0
 22 23  1  0
 23 24  1  0
 15 25  2  0
  7  2  1  0
 25 11  1  0
 24 19  1  0
  1 26  1  0
  1 27  1  0
  3 28  1  0
  4 29  1  0
  5 30  1  0
  6 31  1  0
 12 32  1  0
 13 33  1  0
 14 34  1  0
 20 35  1  0
 20 36  1  0
 21 37  1  0
 21 38  1  0
 23 39  1  0
 23 40  1  0
 24 41  1  0
 24 42  1  0
 25 43  1  0
M  CHG  1   8  -1
M  END
>  <UniqueID>  (41) 
39

>  <SMILES>  (41) 
Nc1ccccc1[N-]C(=O)c1cccc(S(=O)(=O)N2CCOCC2)c1

>  <Energy>  (41) 
61.045577310558635

>  <Genealogy>  (41) 
Nc1ccccc1[N-]C(=O)c1cccc(S(=O)(=O)N2CCOCC2)c1 (protonated)
Nc1ccccc1[N-]C(=O)c1cccc(S(=O)(=O)N2CCOCC2)c1 (3D coordinates assigned)
Nc1ccccc1[N-]C(=O)c1cccc(S(=O)(=O)N2CCOCC2)c1 (nonaromatic ring conformer: 61.045577310558635 kcal/mol)

>  <smiles>  (41) 
Nc1ccccc1NC(=O)c1cccc(S(=O)(=O)N2CCOCC2)c1

>  <score_type>  (41) 
oracle

>  <origin>  (41) 
adgpu

>  <m_score__min__energy>  (41) 
-11.130000000000001

>  <m_primary>  (41) 
energy

$$$$
41:0
     RDKit          3D

 62 66  0  0  0  0  0  0  0  0999 V2000
   -5.3660   26.0140  -30.4620 C   0  0  0  0  0  0  0  0  0  0  0  0
   -6.8650   25.2200  -29.7980 S   0  0  0  0  0  0  0  0  0  0  0  0
   -6.5610   23.6710  -30.6470 C   0  0  0  0  0  0  0  0  0  0  0  0
   -7.5840   22.7260  -30.7620 C   0  0  0  0  0  0  0  0  0  0  0  0
   -7.3530   21.5140  -31.4170 C   0  0  0  0  0  0  0  0  0  0  0  0
   -6.0920   21.2340  -31.9860 C   0  0  0  0  0  0  0  0  0  0  0  0
   -5.8200   19.9640  -32.7170 C   0  0  0  0  0  0  0  0  0  0  0  0
   -6.8420   19.0780  -33.1150 C   0  0  0  0  0  0  0  0  0  0  0  0
   -6.5160   17.8990  -33.7900 C   0  0  0  0  0  0  0  0  0  0  0  0
   -5.1810   17.6100  -34.0920 C   0  0  0  0  0  0  0  0  0  0  0  0
   -4.8370   16.4600  -34.7370 N   0  0  0  0  0  0  0  0  0  0  0  0
   -3.5360   16.1910  -35.0420 C   0  0  0  0  0  0  0  0  0  0  0  0
   -3.2490   15.0930  -35.6840 N   0  0  0  0  0  0  0  0  0  0  0  0
   -1.9710   14.6090  -36.1340 C   0  0  0  0  0  0  0  0  0  0  0  0
   -0.7870   14.4470  -35.2320 C   0  0  0  0  0  0  0  0  0  0  0  0
   -1.8490   14.2950  -37.3450 O   0  0  0  0  0  0  0  0  0  0  0  0
   -2.5690   17.0880  -34.7010 N   0  0  0  0  0  0  0  0  0  0  0  0
   -2.8530   18.2550  -34.0600 C   0  0  0  0  0  0  0  0  0  0  0  0
   -1.7460   19.2060  -33.7960 C   0  0  0  0  0  0  0  0  0  0  0  0
   -0.7130   19.3410  -34.7360 C   0  0  0  0  0  0  0  0  0  0  0  0
    0.2920   20.2920  -34.5410 C   0  0  0  0  0  0  0  0  0  0  0  0
    0.2410   21.1480  -33.4400 C   0  0  0  0  0  0  0  0  0  0  0  0
   -0.7920   21.0440  -32.4950 C   0  0  0  0  0  0  0  0  0  0  0  0
   -0.7510   21.9260  -31.3640 N   0  0  0  0  0  0  0  0  0  0  0  0
   -1.5900   22.0500  -30.2020 C   0  0  0  0  0  0  0  0  0  0  0  0
   -2.3120   23.1140  -30.0900 O   0  0  0  0  0  0  0  0  0  0  0  0
   -1.6440   21.0410  -29.1270 C   0  0  0  0  0  0  0  0  0  0  0  0
   -2.6970   21.0390  -28.1920 C   0  0  0  0  0  0  0  0  0  0  0  0
   -2.7820   20.0240  -27.2290 C   0  0  0  0  0  0  0  0  0  0  0  0
   -1.8100   19.0190  -27.1810 C   0  0  0  0  0  0  0  0  0  0  0  0
   -0.7210   19.0330  -28.0770 C   0  0  0  0  0  0  0  0  0  0  0  0
    0.3370   17.9610  -27.9790 C   0  0  0  0  0  0  0  0  0  0  0  0
   -0.0600   16.9880  -27.0770 F   0  0  0  0  0  0  0  0  0  0  0  0
    0.5750   17.3510  -29.2020 F   0  0  0  0  0  0  0  0  0  0  0  0
    1.5150   18.5320  -27.5390 F   0  0  0  0  0  0  0  0  0  0  0  0
   -0.6410   20.0550  -29.0480 C   0  0  0  0  0  0  0  0  0  0  0  0
   -1.7540   20.0310  -32.6550 C   0  0  0  0  0  0  0  0  0  0  0  0
   -4.1890   18.5340  -33.7240 C   0  0  0  0  0  0  0  0  0  0  0  0
   -4.5330   19.6600  -33.0410 N   0  0  0  0  0  0  0  0  0  0  0  0
   -5.0640   22.1920  -31.8450 C   0  0  0  0  0  0  0  0  0  0  0  0
   -5.3010   23.4020  -31.1880 C   0  0  0  0  0  0  0  0  0  0  0  0
   -4.7302   26.3508  -29.6299 H   0  0  0  0  0  0  0  0  0  0  0  0
   -4.8109   25.2917  -31.0785 H   0  0  0  0  0  0  0  0  0  0  0  0
   -5.6517   26.8790  -31.0785 H   0  0  0  0  0  0  0  0  0  0  0  0
   -8.5754   22.9374  -30.3349 H   0  0  0  0  0  0  0  0  0  0  0  0
   -8.1610   20.7712  -31.4900 H   0  0  0  0  0  0  0  0  0  0  0  0
   -7.8934   19.3144  -32.8946 H   0  0  0  0  0  0  0  0  0  0  0  0
   -7.3101   17.1971  -34.0844 H   0  0  0  0  0  0  0  0  0  0  0  0
   -5.5780   15.7770  -35.0190 H   0  0  0  0  0  0  0  0  0  0  0  0
   -1.1161   14.4920  -34.1833 H   0  0  0  0  0  0  0  0  0  0  0  0
   -0.3093   13.4751  -35.4250 H   0  0  0  0  0  0  0  0  0  0  0  0
   -0.0658   15.2548  -35.4250 H   0  0  0  0  0  0  0  0  0  0  0  0
   -0.6943   18.6972  -35.6277 H   0  0  0  0  0  0  0  0  0  0  0  0
    1.1244   20.3660  -35.2562 H   0  0  0  0  0  0  0  0  0  0  0  0
    1.0200   21.9138  -33.3110 H   0  0  0  0  0  0  0  0  0  0  0  0
   -3.4547   21.8360  -28.2174 H   0  0  0  0  0  0  0  0  0  0  0  0
   -3.6143   20.0177  -26.5099 H   0  0  0  0  0  0  0  0  0  0  0  0
   -1.8958   18.2117  -26.4388 H   0  0  0  0  0  0  0  0  0  0  0  0
    0.2086   20.0814  -29.7461 H   0  0  0  0  0  0  0  0  0  0  0  0
   -2.5208   19.8815  -31.8807 H   0  0  0  0  0  0  0  0  0  0  0  0
   -4.0657   21.9832  -32.2570 H   0  0  0  0  0  0  0  0  0  0  0  0
   -4.4943   24.1442  -31.0964 H   0  0  0  0  0  0  0  0  0  0  0  0
  1  2  1  0
  2  3  1  0
  3  4  2  0
  4  5  1  0
  5  6  2  0
  6  7  1  0
  7  8  2  0
  8  9  1  0
  9 10  2  0
 10 11  1  0
 11 12  1  0
 12 13  2  3
 13 14  1  0
 14 15  1  0
 14 16  2  0
 12 17  1  0
 17 18  2  0
 18 19  1  0
 19 20  2  0
 20 21  1  0
 21 22  2  0
 22 23  1  0
 23 24  1  0
 24 25  1  0
 25 26  2  0
 25 27  1  0
 27 28  2  0
 28 29  1  0
 29 30  2  0
 30 31  1  0
 31 32  1  0
 32 33  1  0
 32 34  1  0
 32 35  1  0
 31 36  2  0
 23 37  2  0
 18 38  1  0
 38 39  2  0
  6 40  1  0
 40 41  2  0
 41  3  1  0
 39  7  1  0
 38 10  1  0
 37 19  1  0
 36 27  1  0
  1 42  1  0
  1 43  1  0
  1 44  1  0
  4 45  1  0
  5 46  1  0
  8 47  1  0
  9 48  1  0
 11 49  1  0
 15 50  1  0
 15 51  1  0
 15 52  1  0
 20 53  1  0
 21 54  1  0
 22 55  1  0
 28 56  1  0
 29 57  1  0
 30 58  1  0
 36 59  1  0
 37 60  1  0
 40 61  1  0
 41 62  1  0
M  CHG  1  24  -1
M  END
>  <UniqueID>  (42) 
40

>  <SMILES>  (42) 
CSc1ccc(-c2ccc3[nH]c(=NC(C)=O)nc(-c4cccc([N-]C(=O)c5cccc(C(F)(F)F)c5)c4)c3n2)cc1

>  <Energy>  (42) 
87.73153597677094

>  <Genealogy>  (42) 
CSc1ccc(-c2ccc3[nH]c(=NC(C)=O)nc(-c4cccc([N-]C(=O)c5cccc(C(F)(F)F)c5)c4)c3n2)cc1 (protonated)
CSc1ccc(-c2ccc3[nH]c(=NC(C)=O)nc(-c4cccc([N-]C(=O)c5cccc(C(F)(F)F)c5)c4)c3n2)cc1 (3D coordinates assigned)
CSc1ccc(-c2ccc3[nH]c(=NC(C)=O)nc(-c4cccc([N-]C(=O)c5cccc(C(F)(F)F)c5)c4)c3n2)cc1 (optimized conformer: 87.73153597677094 kcal/mol)

>  <smiles>  (42) 
CSc1ccc(-c2ccc3[nH]c(=NC(C)=O)nc(-c4cccc(NC(=O)c5cccc(C(F)(F)F)c5)c4)c3n2)cc1

>  <score_type>  (42) 
oracle

>  <origin>  (42) 
adgpu

>  <m_score__min__energy>  (42) 
-10.779999999999999

>  <m_primary>  (42) 
energy

$$$$
42:0
     RDKit          3D

 49 51  0  0  0  0  0  0  0  0999 V2000
   -1.9200   21.5940  -31.5750 C   0  0  0  0  0  0  0  0  0  0  0  0
   -2.9130   21.3860  -32.7160 C   0  0  0  0  0  0  0  0  0  0  0  0
   -4.3930   21.4890  -32.2970 C   0  0  1  0  0  0  0  0  0  0  0  0
   -4.9530   22.7970  -32.6410 N   0  0  0  0  0  0  0  0  0  0  0  0
   -5.4610   23.6880  -31.6440 C   0  0  0  0  0  0  0  0  0  0  0  0
   -4.9140   24.5460  -30.7000 C   0  0  0  0  0  0  0  0  0  0  0  0
   -3.6000   24.9060  -30.2580 N   0  0  0  0  0  0  0  0  0  0  0  0
   -2.9280   24.3150  -29.1280 C   0  0  0  0  0  0  0  0  0  0  0  0
   -3.5140   23.1950  -28.5160 C   0  0  0  0  0  0  0  0  0  0  0  0
   -2.8650   22.5240  -27.4790 C   0  0  0  0  0  0  0  0  0  0  0  0
   -1.6240   22.9680  -27.0290 C   0  0  0  0  0  0  0  0  0  0  0  0
   -0.9970   24.0670  -27.6350 C   0  0  0  0  0  0  0  0  0  0  0  0
    0.3540   24.4530  -27.1640 C   0  0  0  0  0  0  0  0  0  0  0  0
    1.2060   24.8360  -28.0090 O   0  0  0  0  0  0  0  0  0  0  0  0
    0.6980   24.4440  -25.7660 N   0  0  0  0  0  0  0  0  0  0  0  0
    2.1040   24.3160  -25.3800 C   0  0  0  0  0  0  0  0  0  0  0  0
   -0.3200   24.7100  -24.7500 C   0  0  0  0  0  0  0  0  0  0  0  0
   -1.6670   24.7730  -28.6690 C   0  0  0  0  0  0  0  0  0  0  0  0
   -1.1150   25.9270  -29.2240 O   0  0  0  0  0  0  0  0  0  0  0  0
   -6.1830   24.9540  -30.3420 C   0  0  0  0  0  0  0  0  0  0  0  0
   -6.6460   25.7830  -29.5170 O   0  0  0  0  0  0  0  0  0  0  0  0
   -6.7290   24.0570  -31.2370 C   0  0  0  0  0  0  0  0  0  0  0  0
   -7.9000   23.7310  -31.5640 O   0  0  0  0  0  0  0  0  0  0  0  0
   -5.2090   20.3690  -32.8790 C   0  0  0  0  0  0  0  0  0  0  0  0
   -6.5180   20.0320  -32.5740 C   0  0  0  0  0  0  0  0  0  0  0  0
   -6.8280   18.9700  -33.3910 C   0  0  0  0  0  0  0  0  0  0  0  0
   -5.6980   18.7140  -34.1370 C   0  0  0  0  0  0  0  0  0  0  0  0
   -4.7530   19.5680  -33.8130 O   0  0  0  0  0  0  0  0  0  0  0  0
   -2.4401   21.4851  -30.6119 H   0  0  0  0  0  0  0  0  0  0  0  0
   -1.1181   20.8443  -31.6456 H   0  0  0  0  0  0  0  0  0  0  0  0
   -1.4864   22.6025  -31.6456 H   0  0  0  0  0  0  0  0  0  0  0  0
   -2.7189   22.1485  -33.4847 H   0  0  0  0  0  0  0  0  0  0  0  0
   -2.7605   20.3602  -33.0826 H   0  0  0  0  0  0  0  0  0  0  0  0
   -4.4353   21.3891  -31.2024 H   0  0  0  0  0  0  0  0  0  0  0  0
   -4.9150   23.1360  -33.6250 H   0  0  0  0  0  0  0  0  0  0  0  0
   -3.1090   25.6650  -30.7910 H   0  0  0  0  0  0  0  0  0  0  0  0
   -4.4978   22.8420  -28.8588 H   0  0  0  0  0  0  0  0  0  0  0  0
   -3.3341   21.6432  -27.0163 H   0  0  0  0  0  0  0  0  0  0  0  0
   -1.1313   22.4526  -26.1914 H   0  0  0  0  0  0  0  0  0  0  0  0
    2.1838   24.3087  -24.2829 H   0  0  0  0  0  0  0  0  0  0  0  0
    2.5110   23.3771  -25.7835 H   0  0  0  0  0  0  0  0  0  0  0  0
    2.6739   25.1660  -25.7835 H   0  0  0  0  0  0  0  0  0  0  0  0
    0.1218   24.5946  -23.7493 H   0  0  0  0  0  0  0  0  0  0  0  0
   -0.6966   25.7367  -24.8683 H   0  0  0  0  0  0  0  0  0  0  0  0
   -1.1508   23.9988  -24.8683 H   0  0  0  0  0  0  0  0  0  0  0  0
   -0.1270   26.1420  -29.1930 H   0  0  0  0  0  0  0  0  0  0  0  0
   -7.1728   20.5136  -31.8328 H   0  0  0  0  0  0  0  0  0  0  0  0
   -7.7864   18.4324  -33.4393 H   0  0  0  0  0  0  0  0  0  0  0  0
   -5.6016   17.9168  -34.8887 H   0  0  0  0  0  0  0  0  0  0  0  0
  1  2  1  0
  2  3  1  0
  3  4  1  0
  4  5  1  0
  5  6  2  0
  6  7  1  0
  7  8  1  0
  8  9  2  0
  9 10  1  0
 10 11  2  0
 11 12  1  0
 12 13  1  0
 13 14  2  0
 13 15  1  0
 15 16  1  0
 15 17  1  0
 12 18  2  0
 18 19  1  0
  6 20  1  0
 20 21  2  0
 20 22  1  0
 22 23  2  0
  3 24  1  0
 24 25  2  0
 25 26  1  0
 26 27  2  0
 27 28  1  0
 22  5  1  0
 28 24  1  0
 18  8  1  0
  1 29  1  0
  1 30  1  0
  1 31  1  0
  2 32  1  0
  2 33  1  0
  3 34  1  1
  4 35  1  0
  7 36  1  0
  9 37  1  0
 10 38  1  0
 11 39  1  0
 16 40  1  0
 16 41  1  0
 16 42  1  0
 17 43  1  0
 17 44  1  0
 17 45  1  0
 19 46  1  0
 25 47  1  0
 26 48  1  0
 27 49  1  0
M  END
>  <UniqueID>  (43) 
41

>  <SMILES>  (43) 
CC[C@@H](Nc1c(Nc2cccc(C(=O)N(C)C)c2O)c(=O)c1=O)c1ccco1

>  <Energy>  (43) 
71.97811725960081

>  <Genealogy>  (43) 
CC[C@@H](Nc1c(Nc2cccc(C(=O)N(C)C)c2O)c(=O)c1=O)c1ccco1 (chirality)
CC[C@@H](Nc1c(Nc2cccc(C(=O)N(C)C)c2O)c(=O)c1=O)c1ccco1 (3D coordinates assigned)
CC[C@@H](Nc1c(Nc2cccc(C(=O)N(C)C)c2O)c(=O)c1=O)c1ccco1 (optimized conformer: 71.97811725960081 kcal/mol)

>  <smiles>  (43) 
CCC(Nc1c(Nc2cccc(C(=O)N(C)C)c2O)c(=O)c1=O)c1ccco1

>  <score_type>  (43) 
oracle

>  <origin>  (43) 
adgpu

>  <m_score__min__energy>  (43) 
-9.3599999999999994

>  <m_primary>  (43) 
energy

$$$$
43:0
     RDKit          3D

 43 45  0  0  0  0  0  0  0  0999 V2000
   -0.4600   20.1420  -29.1440 C   0  0  0  0  0  0  0  0  0  0  0  0
   -1.2660   21.3600  -29.4860 C   0  0  0  0  0  0  0  0  0  0  0  0
   -0.9380   22.6120  -28.9450 C   0  0  0  0  0  0  0  0  0  0  0  0
   -1.7040   23.7390  -29.2580 C   0  0  0  0  0  0  0  0  0  0  0  0
   -2.8230   23.6240  -30.1020 C   0  0  0  0  0  0  0  0  0  0  0  0
   -3.6520   24.7460  -30.4340 N   0  0  0  0  0  0  0  0  0  0  0  0
   -5.2880   24.9990  -29.9140 S   0  0  0  0  0  0  0  0  0  0  0  0
   -5.3320   24.9280  -28.4140 O   0  0  0  0  0  0  0  0  0  0  0  0
   -5.7550   26.3670  -30.3280 O   0  0  0  0  0  0  0  0  0  0  0  0
   -6.3260   23.7260  -30.5570 C   0  0  0  0  0  0  0  0  0  0  0  0
   -7.2510   23.1630  -29.7380 N   0  0  0  0  0  0  0  0  0  0  0  0
   -8.0750   22.2080  -30.1700 N   0  0  0  0  0  0  0  0  0  0  0  0
   -8.0060   21.7620  -31.4520 C   0  0  0  0  0  0  0  0  0  0  0  0
   -9.1130   20.4760  -32.0340 S   0  0  0  0  0  0  0  0  0  0  0  0
   -8.0540   19.0910  -31.4850 C   0  0  0  0  0  0  0  0  0  0  0  0
   -6.9150   18.8510  -32.4400 C   0  0  0  0  0  0  0  0  0  0  0  0
   -6.9510   17.7550  -33.3150 C   0  0  0  0  0  0  0  0  0  0  0  0
   -5.8990   17.5340  -34.2060 C   0  0  0  0  0  0  0  0  0  0  0  0
   -4.8000   18.3960  -34.2250 C   0  0  0  0  0  0  0  0  0  0  0  0
   -4.7430   19.4970  -33.3500 C   0  0  0  0  0  0  0  0  0  0  0  0
   -3.6010   20.3720  -33.3470 N   0  0  0  0  0  0  0  0  0  0  0  0
   -3.7430   21.6050  -33.4850 O   0  0  0  0  0  0  0  0  0  0  0  0
   -2.3280   19.8610  -33.2350 O   0  0  0  0  0  0  0  0  0  0  0  0
   -5.8140   19.7220  -32.4670 C   0  0  0  0  0  0  0  0  0  0  0  0
   -7.0960   22.3010  -32.3000 N   0  0  0  0  0  0  0  0  0  0  0  0
   -6.2530   23.2790  -31.8850 C   0  0  0  0  0  0  0  0  0  0  0  0
   -5.4300   23.7720  -32.6980 O   0  0  0  0  0  0  0  0  0  0  0  0
   -3.1530   22.3700  -30.6310 C   0  0  0  0  0  0  0  0  0  0  0  0
   -2.3830   21.2450  -30.3260 C   0  0  0  0  0  0  0  0  0  0  0  0
   -0.3935   20.0415  -28.0506 H   0  0  0  0  0  0  0  0  0  0  0  0
   -0.9467   19.2500  -29.5653 H   0  0  0  0  0  0  0  0  0  0  0  0
    0.5513   20.2413  -29.5653 H   0  0  0  0  0  0  0  0  0  0  0  0
   -0.0738   22.7076  -28.2711 H   0  0  0  0  0  0  0  0  0  0  0  0
   -1.4302   24.7199  -28.8423 H   0  0  0  0  0  0  0  0  0  0  0  0
   -8.7740   21.7990  -29.5110 H   0  0  0  0  0  0  0  0  0  0  0  0
   -7.6435   19.3274  -30.4922 H   0  0  0  0  0  0  0  0  0  0  0  0
   -8.6701   18.1805  -31.4490 H   0  0  0  0  0  0  0  0  0  0  0  0
   -7.8101   17.0681  -33.2991 H   0  0  0  0  0  0  0  0  0  0  0  0
   -5.9358   16.6778  -34.8956 H   0  0  0  0  0  0  0  0  0  0  0  0
   -3.9740   18.2132  -34.9281 H   0  0  0  0  0  0  0  0  0  0  0  0
   -5.7890   20.5891  -31.7906 H   0  0  0  0  0  0  0  0  0  0  0  0
   -4.0262   22.2700  -31.2925 H   0  0  0  0  0  0  0  0  0  0  0  0
   -2.6539   20.2652  -30.7463 H   0  0  0  0  0  0  0  0  0  0  0  0
  1  2  1  0
  2  3  2  0
  3  4  1  0
  4  5  2  0
  5  6  1  0
  6  7  1  0
  7  8  2  0
  7  9  2  0
  7 10  1  0
 10 11  2  0
 11 12  1  0
 12 13  1  0
 13 14  1  0
 14 15  1  0
 15 16  1  0
 16 17  2  0
 17 18  1  0
 18 19  2  0
 19 20  1  0
 20 21  1  0
 21 22  2  0
 21 23  1  0
 20 24  2  0
 13 25  2  0
 25 26  1  0
 26 27  2  0
  5 28  1  0
 28 29  2  0
 29  2  1  0
 26 10  1  0
 24 16  1  0
  1 30  1  0
  1 31  1  0
  1 32  1  0
  3 33  1  0
  4 34  1  0
 12 35  1  0
 15 36  1  0
 15 37  1  0
 17 38  1  0
 18 39  1  0
 19 40  1  0
 24 41  1  0
 28 42  1  0
 29 43  1  0
M  CHG  3   6  -1  21   1  23  -1
M  END
>  <UniqueID>  (44) 
42

>  <SMILES>  (44) 
Cc1ccc([N-]S(=O)(=O)c2n[nH]c(SCc3cccc([N+](=O)[O-])c3)nc2=O)cc1

>  <Energy>  (44) 
45.3504846233145

>  <Genealogy>  (44) 
Cc1ccc([N-]S(=O)(=O)c2n[nH]c(SCc3cccc([N+](=O)[O-])c3)nc2=O)cc1 (protonated)
Cc1ccc([N-]S(=O)(=O)c2n[nH]c(SCc3cccc([N+](=O)[O-])c3)nc2=O)cc1 (3D coordinates assigned)
Cc1ccc([N-]S(=O)(=O)c2n[nH]c(SCc3cccc([N+](=O)[O-])c3)nc2=O)cc1 (optimized conformer: 45.3504846233145 kcal/mol)

>  <smiles>  (44) 
Cc1ccc(NS(=O)(=O)c2n[nH]c(SCc3cccc([N+](=O)[O-])c3)nc2=O)cc1

>  <score_type>  (44) 
oracle

>  <origin>  (44) 
adgpu

>  <m_score__min__energy>  (44) 
-11.34

>  <m_primary>  (44) 
energy

$$$$
44:0
     RDKit          3D

 37 39  0  0  0  0  0  0  0  0999 V2000
  -10.0590   22.1935  -31.2890 H   0  0  0  0  0  0  0  0  0  0  0  0
   -9.1000   21.6990  -31.5030 C   0  0  0  0  0  0  0  0  0  0  0  0
   -9.0440   20.3460  -31.6080 N   0  0  0  0  0  0  0  0  0  0  0  0
   -7.8780   19.7010  -31.8720 C   0  0  0  0  0  0  0  0  0  0  0  0
   -7.8640   18.6041  -31.9529 H   0  0  0  0  0  0  0  0  0  0  0  0
   -6.6970   20.4270  -32.0410 C   0  0  0  0  0  0  0  0  0  0  0  0
   -5.7538   19.9047  -32.2592 H   0  0  0  0  0  0  0  0  0  0  0  0
   -6.7190   21.8280  -31.9310 C   0  0  0  0  0  0  0  0  0  0  0  0
   -5.4830   22.6300  -32.1080 C   0  0  0  0  0  0  0  0  0  0  0  0
   -5.5450   23.8890  -32.0870 O   0  0  0  0  0  0  0  0  0  0  0  0
   -4.1700   21.9940  -32.3390 C   0  0  0  0  0  0  0  0  0  0  0  0
   -4.0270   21.1560  -33.4550 C   0  0  0  0  0  0  0  0  0  0  0  0
   -4.8754   21.0105  -34.1398 H   0  0  0  0  0  0  0  0  0  0  0  0
   -2.8170   20.5050  -33.7040 C   0  0  0  0  0  0  0  0  0  0  0  0
   -2.7157   19.8483  -34.5806 H   0  0  0  0  0  0  0  0  0  0  0  0
   -1.7360   20.6880  -32.8400 C   0  0  0  0  0  0  0  0  0  0  0  0
   -0.2190   19.8650  -33.1510 Cl  0  0  0  0  0  0  0  0  0  0  0  0
   -1.8590   21.5330  -31.7350 C   0  0  0  0  0  0  0  0  0  0  0  0
   -1.0035   21.6713  -31.0575 H   0  0  0  0  0  0  0  0  0  0  0  0
   -3.0640   22.2080  -31.4800 C   0  0  0  0  0  0  0  0  0  0  0  0
   -3.1230   23.3400  -30.1170 S   0  0  0  0  0  0  0  0  0  0  0  0
   -3.8690   24.5980  -30.4670 O   0  0  0  0  0  0  0  0  0  0  0  0
   -3.8210   22.6690  -28.9690 O   0  0  0  0  0  0  0  0  0  0  0  0
   -1.5200   23.7640  -29.6040 N   0  0  0  0  0  0  0  0  0  0  0  0
   -1.1560   24.3130  -28.4810 C   0  0  0  0  0  0  0  0  0  0  0  0
    0.1000   24.5960  -28.2220 O   0  0  0  0  0  0  0  0  0  0  0  0
    0.2130   25.1390  -27.0470 N   0  0  0  0  0  0  0  0  0  0  0  0
    1.1130   25.4420  -26.6150 H   0  0  0  0  0  0  0  0  0  0  0  0
   -1.0150   25.2290  -26.5070 C   0  0  0  0  0  0  0  0  0  0  0  0
   -1.2970   25.7520  -25.1360 C   0  0  0  0  0  0  0  0  0  0  0  0
   -0.9146   25.0428  -24.3872 H   0  0  0  0  0  0  0  0  0  0  0  0
   -0.8015   26.7254  -25.0058 H   0  0  0  0  0  0  0  0  0  0  0  0
   -2.3826   25.8729  -25.0058 H   0  0  0  0  0  0  0  0  0  0  0  0
   -1.9380   24.6990  -27.3900 C   0  0  0  0  0  0  0  0  0  0  0  0
   -3.6640   24.5570  -27.0840 Cl  0  0  0  0  0  0  0  0  0  0  0  0
   -7.9430   22.4640  -31.6660 C   0  0  0  0  0  0  0  0  0  0  0  0
   -7.9901   23.5602  -31.5872 H   0  0  0  0  0  0  0  0  0  0  0  0
  1  2  1  0
  2  3  2  0
  3  4  1  0
  4  5  1  0
  4  6  2  0
  6  7  1  0
  6  8  1  0
  8  9  1  0
  9 10  2  0
  9 11  1  0
 11 12  2  0
 12 13  1  0
 12 14  1  0
 14 15  1  0
 14 16  2  0
 16 17  1  0
 16 18  1  0
 18 19  1  0
 18 20  2  0
 20 21  1  0
 21 22  2  0
 21 23  2  0
 21 24  1  0
 24 25  2  0
 25 26  1  0
 26 27  1  0
 27 28  1  0
 27 29  1  0
 29 30  1  0
 30 31  1  0
 30 32  1  0
 30 33  1  0
 29 34  2  0
 34 35  1  0
  8 36  2  0
 36 37  1  0
 36  2  1  0
 20 11  1  0
 34 25  1  0
M  END
>  <UniqueID>  (45) 
43

>  <SMILES>  (45) 
Cc1[nH]o/c(=N/S(=O)(=O)c2cc(Cl)ccc2C(=O)c2ccncc2)c1Cl

>  <Energy>  (45) 
88.46490615409012

>  <Genealogy>  (45) 
Cc1[nH]o/c(=N/S(=O)(=O)c2cc(Cl)ccc2C(=O)c2ccncc2)c1Cl (cis-trans isomerization)
Cc1[nH]o/c(=N/S(=O)(=O)c2cc(Cl)ccc2C(=O)c2ccncc2)c1Cl (3D coordinates assigned)
Cc1[nH]o/c(=N/S(=O)(=O)c2cc(Cl)ccc2C(=O)c2ccncc2)c1Cl (optimized conformer: 88.46490615409012 kcal/mol)

>  <smiles>  (45) 
Cc1[nH]oc(=NS(=O)(=O)c2cc(Cl)ccc2C(=O)c2ccncc2)c1Cl

>  <score_type>  (45) 
oracle

>  <origin>  (45) 
adgpu

>  <m_score__min__energy>  (45) 
-9.3800000000000008

>  <m_primary>  (45) 
energy

$$$$
45:0
     RDKit          3D

 40 42  0  0  0  0  0  0  0  0999 V2000
   -2.3670   20.8960  -31.8800 O   0  0  0  0  0  0  0  0  0  0  0  0
   -2.5790   21.8450  -31.0790 C   0  0  0  0  0  0  0  0  0  0  0  0
   -3.2050   23.0350  -31.5760 N   0  0  0  0  0  0  0  0  0  0  0  0
   -4.5550   23.4490  -31.3230 C   0  0  0  0  0  0  0  0  0  0  0  0
   -5.5920   22.5410  -31.5720 C   0  0  0  0  0  0  0  0  0  0  0  0
   -6.9270   22.9030  -31.3470 C   0  0  0  0  0  0  0  0  0  0  0  0
   -8.2240   21.7660  -31.6980 S   0  0  0  0  0  0  0  0  0  0  0  0
   -9.4570   22.5240  -32.1070 O   0  0  0  0  0  0  0  0  0  0  0  0
   -8.4980   20.9540  -30.4630 O   0  0  0  0  0  0  0  0  0  0  0  0
   -7.7330   20.7270  -32.9980 N   0  0  0  0  0  0  0  0  0  0  0  0
   -6.9210   19.5440  -32.9250 C   0  0  0  0  0  0  0  0  0  0  0  0
   -5.7620   19.5100  -33.7140 C   0  0  0  0  0  0  0  0  0  0  0  0
   -4.9160   18.4000  -33.6970 C   0  0  0  0  0  0  0  0  0  0  0  0
   -5.2230   17.3010  -32.8940 C   0  0  0  0  0  0  0  0  0  0  0  0
   -6.3790   17.3100  -32.1120 C   0  0  0  0  0  0  0  0  0  0  0  0
   -7.2390   18.4210  -32.1230 C   0  0  0  0  0  0  0  0  0  0  0  0
   -8.3980   18.3850  -31.3540 O   0  0  0  0  0  0  0  0  0  0  0  0
   -7.2260   24.1830  -30.8660 C   0  0  0  0  0  0  0  0  0  0  0  0
   -6.1960   25.0840  -30.5840 C   0  0  0  0  0  0  0  0  0  0  0  0
   -4.8620   24.7200  -30.7950 C   0  0  0  0  0  0  0  0  0  0  0  0
   -3.8550   25.6160  -30.4520 O   0  0  0  0  0  0  0  0  0  0  0  0
   -2.1320   21.7190  -29.6700 C   0  0  0  0  0  0  0  0  0  0  0  0
   -1.3140   22.7000  -29.0810 C   0  0  0  0  0  0  0  0  0  0  0  0
   -0.9010   22.5720  -27.7530 C   0  0  0  0  0  0  0  0  0  0  0  0
   -1.2870   21.4590  -27.0000 C   0  0  0  0  0  0  0  0  0  0  0  0
   -0.8710   21.3440  -25.6790 O   0  0  0  0  0  0  0  0  0  0  0  0
   -2.0890   20.4670  -27.5810 C   0  0  0  0  0  0  0  0  0  0  0  0
   -2.5810   19.0610  -26.6500 Cl  0  0  0  0  0  0  0  0  0  0  0  0
   -2.5040   20.5950  -28.9110 C   0  0  0  0  0  0  0  0  0  0  0  0
   -5.3563   21.5344  -31.9477 H   0  0  0  0  0  0  0  0  0  0  0  0
   -5.5164   20.3697  -34.3548 H   0  0  0  0  0  0  0  0  0  0  0  0
   -4.0072   18.3916  -34.3167 H   0  0  0  0  0  0  0  0  0  0  0  0
   -4.5542   16.4278  -32.8773 H   0  0  0  0  0  0  0  0  0  0  0  0
   -6.6186   16.4406  -31.4822 H   0  0  0  0  0  0  0  0  0  0  0  0
   -8.9500   19.2170  -31.1790 H   0  0  0  0  0  0  0  0  0  0  0  0
   -8.2735   24.4801  -30.7098 H   0  0  0  0  0  0  0  0  0  0  0  0
   -6.4353   26.0844  -30.1942 H   0  0  0  0  0  0  0  0  0  0  0  0
   -0.9976   23.5735  -29.6700 H   0  0  0  0  0  0  0  0  0  0  0  0
   -0.2699   23.3495  -27.2979 H   0  0  0  0  0  0  0  0  0  0  0  0
   -3.1260   19.8104  -29.3665 H   0  0  0  0  0  0  0  0  0  0  0  0
  1  2  2  0
  2  3  1  0
  3  4  1  0
  4  5  2  0
  5  6  1  0
  6  7  1  0
  7  8  2  0
  7  9  2  0
  7 10  1  0
 10 11  1  0
 11 12  2  0
 12 13  1  0
 13 14  2  0
 14 15  1  0
 15 16  2  0
 16 17  1  0
  6 18  2  0
 18 19  1  0
 19 20  2  0
 20 21  1  0
  2 22  1  0
 22 23  2  0
 23 24  1  0
 24 25  2  0
 25 26  1  0
 25 27  1  0
 27 28  1  0
 27 29  2  0
 20  4  1  0
 29 22  1  0
 16 11  1  0
  5 30  1  0
 12 31  1  0
 13 32  1  0
 14 33  1  0
 15 34  1  0
 17 35  1  0
 18 36  1  0
 19 37  1  0
 23 38  1  0
 24 39  1  0
 29 40  1  0
M  CHG  4   3  -1  10  -1  21  -1  26  -1
M  END
>  <UniqueID>  (46) 
44

>  <SMILES>  (46) 
O=C([N-]c1cc(S(=O)(=O)[N-]c2ccccc2O)ccc1[O-])c1ccc([O-])c(Cl)c1

>  <Energy>  (46) 
59.41854878595696

>  <Genealogy>  (46) 
O=C([N-]c1cc(S(=O)(=O)[N-]c2ccccc2O)ccc1[O-])c1ccc([O-])c(Cl)c1 (protonated)
O=C([N-]c1cc(S(=O)(=O)[N-]c2ccccc2O)ccc1[O-])c1ccc([O-])c(Cl)c1 (3D coordinates assigned)
O=C([N-]c1cc(S(=O)(=O)[N-]c2ccccc2O)ccc1[O-])c1ccc([O-])c(Cl)c1 (optimized conformer: 59.41854878595696 kcal/mol)

>  <smiles>  (46) 
O=C(Nc1cc(S(=O)(=O)Nc2ccccc2O)ccc1O)c1ccc(O)c(Cl)c1

>  <score_type>  (46) 
oracle

>  <origin>  (46) 
adgpu

>  <m_score__min__energy>  (46) 
-12.44

>  <m_primary>  (46) 
energy

$$$$
46:0
     RDKit          3D

 49 51  0  0  0  0  0  0  0  0999 V2000
   -0.1579   26.2798  -29.0125 H   0  0  0  0  0  0  0  0  0  0  0  0
   -0.9420   25.7040  -28.4990 C   0  0  0  0  0  0  0  0  0  0  0  0
   -2.0680   25.2780  -29.1320 N   0  0  0  0  0  0  0  0  0  0  0  0
   -2.8750   24.5930  -28.2920 C   0  0  0  0  0  0  0  0  0  0  0  0
   -4.0090   24.0720  -28.6420 N   0  0  0  0  0  0  0  0  0  0  0  0
   -4.6460   24.1800  -30.2500 S   0  0  0  0  0  0  0  0  0  0  0  0
   -6.1460   24.1030  -30.1960 O   0  0  0  0  0  0  0  0  0  0  0  0
   -4.2530   25.5000  -30.8560 O   0  0  0  0  0  0  0  0  0  0  0  0
   -4.0380   22.8400  -31.2180 C   0  0  0  0  0  0  0  0  0  0  0  0
   -4.5170   22.6200  -32.5180 C   0  0  0  0  0  0  0  0  0  0  0  0
   -5.2939   23.2772  -32.9356 H   0  0  0  0  0  0  0  0  0  0  0  0
   -4.0080   21.5660  -33.2840 C   0  0  0  0  0  0  0  0  0  0  0  0
   -4.3778   21.4058  -34.3075 H   0  0  0  0  0  0  0  0  0  0  0  0
   -3.0310   20.7140  -32.7560 C   0  0  0  0  0  0  0  0  0  0  0  0
   -2.5070   19.6630  -33.5780 N   0  0  0  0  0  0  0  0  0  0  0  0
   -3.0250   18.3300  -33.6780 C   0  0  0  0  0  0  0  0  0  0  0  0
   -2.4270   17.3990  -33.0770 O   0  0  0  0  0  0  0  0  0  0  0  0
   -4.2070   17.9980  -34.5480 C   0  0  0  0  0  0  0  0  0  0  0  0
   -4.1702   16.9327  -34.8197 H   0  0  0  0  0  0  0  0  0  0  0  0
   -4.1701   18.6189  -35.4553 H   0  0  0  0  0  0  0  0  0  0  0  0
   -5.4840   18.2780  -33.8160 C   0  0  0  0  0  0  0  0  0  0  0  0
   -6.4780   19.6080  -34.0900 S   0  0  0  0  0  0  0  0  0  0  0  0
   -7.5520   19.1870  -32.8660 C   0  0  0  0  0  0  0  0  0  0  0  0
   -8.8060   19.9360  -32.5330 C   0  0  0  0  0  0  0  0  0  0  0  0
   -9.1814   20.4244  -33.4443 H   0  0  0  0  0  0  0  0  0  0  0  0
   -9.5389   19.2166  -32.1387 H   0  0  0  0  0  0  0  0  0  0  0  0
   -8.5630   21.0110  -31.4550 C   0  0  0  0  0  0  0  0  0  0  0  0
   -9.0328   20.6626  -30.5234 H   0  0  0  0  0  0  0  0  0  0  0  0
   -7.0640   21.2100  -31.1830 C   0  0  0  0  0  0  0  0  0  0  0  0
   -6.8883   21.2333  -30.0974 H   0  0  0  0  0  0  0  0  0  0  0  0
   -6.4971   20.3792  -31.6284 H   0  0  0  0  0  0  0  0  0  0  0  0
   -6.7335   22.1599  -31.6284 H   0  0  0  0  0  0  0  0  0  0  0  0
   -9.2000   22.3410  -31.8800 C   0  0  0  0  0  0  0  0  0  0  0  0
   -9.4762   22.9178  -30.9850 H   0  0  0  0  0  0  0  0  0  0  0  0
   -8.4801   22.9172  -32.4798 H   0  0  0  0  0  0  0  0  0  0  0  0
  -10.1002   22.1413  -32.4798 H   0  0  0  0  0  0  0  0  0  0  0  0
   -7.1770   18.0480  -32.2430 N   0  0  0  0  0  0  0  0  0  0  0  0
   -6.0240   17.5410  -32.7580 C   0  0  0  0  0  0  0  0  0  0  0  0
   -5.4020   16.2970  -32.2050 C   0  0  0  0  0  0  0  0  0  0  0  0
   -5.4210   16.3350  -31.1058 H   0  0  0  0  0  0  0  0  0  0  0  0
   -5.9673   15.4192  -32.5514 H   0  0  0  0  0  0  0  0  0  0  0  0
   -4.3606   16.2226  -32.5514 H   0  0  0  0  0  0  0  0  0  0  0  0
   -2.5290   20.9560  -31.4660 C   0  0  0  0  0  0  0  0  0  0  0  0
   -1.7339   20.3148  -31.0578 H   0  0  0  0  0  0  0  0  0  0  0  0
   -3.0370   22.0090  -30.7000 C   0  0  0  0  0  0  0  0  0  0  0  0
   -2.6489   22.1857  -29.6860 H   0  0  0  0  0  0  0  0  0  0  0  0
   -2.2370   24.4870  -26.7440 S   0  0  0  0  0  0  0  0  0  0  0  0
   -0.8550   25.3580  -27.1550 C   0  0  0  0  0  0  0  0  0  0  0  0
   -0.0263   25.6098  -26.4769 H   0  0  0  0  0  0  0  0  0  0  0  0
  1  2  1  0
  2  3  1  0
  3  4  1  0
  4  5  2  0
  5  6  1  0
  6  7  2  0
  6  8  2  0
  6  9  1  0
  9 10  2  0
 10 11  1  0
 10 12  1  0
 12 13  1  0
 12 14  2  0
 14 15  1  0
 15 16  1  0
 16 17  2  0
 16 18  1  0
 18 19  1  0
 18 20  1  0
 18 21  1  0
 21 22  1  0
 22 23  1  0
 23 24  1  0
 24 25  1  0
 24 26  1  0
 24 27  1  0
 27 28  1  0
 27 29  1  0
 29 30  1  0
 29 31  1  0
 29 32  1  0
 27 33  1  0
 33 34  1  0
 33 35  1  0
 33 36  1  0
 23 37  2  0
 37 38  1  0
 38 39  1  0
 39 40  1  0
 39 41  1  0
 39 42  1  0
 14 43  1  0
 43 44  1  0
 43 45  2  0
 45 46  1  0
  4 47  1  0
 47 48  1  0
 48 49  1  0
 48  2  2  0
 45  9  1  0
 38 21  2  0
M  CHG  2   3  -1  15  -1
M  END
>  <UniqueID>  (47) 
45

>  <SMILES>  (47) 
Cc1nc(CC(C)C)sc1CC(=O)[N-]c1ccc(S(=O)(=O)/N=c2\[n-]ccs2)cc1

>  <Energy>  (47) 
107.37790782595134

>  <Genealogy>  (47) 
Cc1nc(CC(C)C)sc1CC(=O)[N-]c1ccc(S(=O)(=O)N=c2[n-]ccs2)cc1 (protonated)
Cc1nc(CC(C)C)sc1CC(=O)[N-]c1ccc(S(=O)(=O)/N=c2\[n-]ccs2)cc1 (cis-trans isomerization)
Cc1nc(CC(C)C)sc1CC(=O)[N-]c1ccc(S(=O)(=O)/N=c2\[n-]ccs2)cc1 (3D coordinates assigned)
Cc1nc(CC(C)C)sc1CC(=O)[N-]c1ccc(S(=O)(=O)/N=c2\[n-]ccs2)cc1 (optimized conformer: 107.37790782595134 kcal/mol)

>  <smiles>  (47) 
Cc1nc(CC(C)C)sc1CC(=O)Nc1ccc(S(=O)(=O)N=c2[nH]ccs2)cc1

>  <score_type>  (47) 
oracle

>  <origin>  (47) 
adgpu

>  <m_score__min__energy>  (47) 
-10.800000000000001

>  <m_primary>  (47) 
energy

$$$$
47:0
     RDKit          3D

 50 53  0  0  0  0  0  0  0  0999 V2000
   -3.2150   21.3660  -28.7790 O   0  0  0  0  0  0  0  0  0  0  0  0
   -3.1280   22.3690  -29.5340 C   0  0  0  0  0  0  0  0  0  0  0  0
   -3.6280   22.2770  -30.8740 N   0  0  0  0  0  0  0  0  0  0  0  0
   -4.9760   22.5860  -31.2440 C   0  0  0  0  0  0  0  0  0  0  0  0
   -5.8680   21.5360  -31.4950 C   0  0  0  0  0  0  0  0  0  0  0  0
   -7.2010   21.8000  -31.8450 C   0  0  0  0  0  0  0  0  0  0  0  0
   -8.3490   20.4740  -32.0620 S   0  0  0  0  0  0  0  0  0  0  0  0
   -8.6930   19.9050  -30.7120 O   0  0  0  0  0  0  0  0  0  0  0  0
   -9.6110   21.0070  -32.6780 O   0  0  0  0  0  0  0  0  0  0  0  0
   -7.7130   19.2170  -33.1050 N   0  0  0  0  0  0  0  0  0  0  0  0
   -7.5290   17.9550  -32.3570 C   0  0  0  0  0  0  0  0  0  0  0  0
   -6.6380   16.9740  -33.1260 C   0  0  0  0  0  0  0  0  0  0  0  0
   -5.2280   17.5540  -33.3380 C   0  0  0  0  0  0  0  0  0  0  0  0
   -5.2060   19.0910  -33.3130 C   0  0  0  0  0  0  0  0  0  0  0  0
   -6.5190   19.6720  -33.8620 C   0  0  0  0  0  0  0  0  0  0  0  0
   -7.6220   23.1260  -31.9970 C   0  0  0  0  0  0  0  0  0  0  0  0
   -6.7360   24.1790  -31.7600 C   0  0  0  0  0  0  0  0  0  0  0  0
   -5.4130   23.9200  -31.3870 C   0  0  0  0  0  0  0  0  0  0  0  0
   -4.5540   25.0040  -31.1950 O   0  0  0  0  0  0  0  0  0  0  0  0
   -2.5510   23.6170  -29.0100 C   0  0  0  0  0  0  0  0  0  0  0  0
   -1.8990   23.7710  -27.8040 C   0  0  0  0  0  0  0  0  0  0  0  0
   -1.4770   25.0860  -27.8170 C   0  0  0  0  0  0  0  0  0  0  0  0
   -0.6830   25.7630  -26.7630 C   0  0  0  0  0  0  0  0  0  0  0  0
   -1.3360   26.4240  -25.7050 C   0  0  0  0  0  0  0  0  0  0  0  0
   -0.6000   27.0840  -24.7170 C   0  0  0  0  0  0  0  0  0  0  0  0
    0.7940   27.0840  -24.7670 C   0  0  0  0  0  0  0  0  0  0  0  0
    1.4560   26.4230  -25.8040 C   0  0  0  0  0  0  0  0  0  0  0  0
    0.7270   25.7640  -26.8010 C   0  0  0  0  0  0  0  0  0  0  0  0
    1.4170   25.1310  -27.8300 O   0  0  0  0  0  0  0  0  0  0  0  0
   -1.8590   25.6690  -28.9710 N   0  0  0  0  0  0  0  0  0  0  0  0
   -2.5060   24.7710  -29.7010 N   0  0  0  0  0  0  0  0  0  0  0  0
   -5.5207   20.4952  -31.4171 H   0  0  0  0  0  0  0  0  0  0  0  0
   -7.0608   18.1789  -31.3871 H   0  0  0  0  0  0  0  0  0  0  0  0
   -8.5155   17.4892  -32.2161 H   0  0  0  0  0  0  0  0  0  0  0  0
   -6.5588   16.0373  -32.5548 H   0  0  0  0  0  0  0  0  0  0  0  0
   -7.0912   16.7895  -34.1111 H   0  0  0  0  0  0  0  0  0  0  0  0
   -4.5704   17.1801  -32.5394 H   0  0  0  0  0  0  0  0  0  0  0  0
   -4.8844   17.2340  -34.3328 H   0  0  0  0  0  0  0  0  0  0  0  0
   -5.0682   19.4315  -32.2762 H   0  0  0  0  0  0  0  0  0  0  0  0
   -4.3776   19.4390  -33.9475 H   0  0  0  0  0  0  0  0  0  0  0  0
   -6.4667   20.7695  -33.8086 H   0  0  0  0  0  0  0  0  0  0  0  0
   -6.6296   19.3175  -34.8974 H   0  0  0  0  0  0  0  0  0  0  0  0
   -8.6562   23.3398  -32.3048 H   0  0  0  0  0  0  0  0  0  0  0  0
   -7.0805   25.2182  -31.8673 H   0  0  0  0  0  0  0  0  0  0  0  0
   -3.5470   24.9190  -31.2420 H   0  0  0  0  0  0  0  0  0  0  0  0
   -1.7497   23.0199  -27.0144 H   0  0  0  0  0  0  0  0  0  0  0  0
   -2.4349   26.4209  -25.6556 H   0  0  0  0  0  0  0  0  0  0  0  0
   -1.1205   27.6039  -23.8992 H   0  0  0  0  0  0  0  0  0  0  0  0
    1.3721   27.6048  -23.9894 H   0  0  0  0  0  0  0  0  0  0  0  0
    2.5555   26.4202  -25.8375 H   0  0  0  0  0  0  0  0  0  0  0  0
  1  2  2  0
  2  3  1  0
  3  4  1  0
  4  5  2  0
  5  6  1  0
  6  7  1  0
  7  8  2  0
  7  9  2  0
  7 10  1  0
 10 11  1  0
 11 12  1  0
 12 13  1  0
 13 14  1  0
 14 15  1  0
  6 16  2  0
 16 17  1  0
 17 18  2  0
 18 19  1  0
  2 20  1  0
 20 21  1  0
 21 22  2  0
 22 23  1  0
 23 24  2  0
 24 25  1  0
 25 26  2  0
 26 27  1  0
 27 28  2  0
 28 29  1  0
 22 30  1  0
 30 31  1  0
 18  4  1  0
 31 20  2  0
 15 10  1  0
 28 23  1  0
  5 32  1  0
 11 33  1  0
 11 34  1  0
 12 35  1  0
 12 36  1  0
 13 37  1  0
 13 38  1  0
 14 39  1  0
 14 40  1  0
 15 41  1  0
 15 42  1  0
 16 43  1  0
 17 44  1  0
 19 45  1  0
 21 46  1  0
 24 47  1  0
 25 48  1  0
 26 49  1  0
 27 50  1  0
M  CHG  3   3  -1  29  -1  30  -1
M  END
>  <UniqueID>  (48) 
46

>  <SMILES>  (48) 
O=C([N-]c1cc(S(=O)(=O)N2CCCCC2)ccc1O)c1cc(-c2ccccc2[O-])[n-]n1

>  <Energy>  (48) 
98.04312904345667

>  <Genealogy>  (48) 
O=C([N-]c1cc(S(=O)(=O)N2CCCCC2)ccc1O)c1cc(-c2ccccc2[O-])[n-]n1 (protonated)
O=C([N-]c1cc(S(=O)(=O)N2CCCCC2)ccc1O)c1cc(-c2ccccc2[O-])[n-]n1 (3D coordinates assigned)
O=C([N-]c1cc(S(=O)(=O)N2CCCCC2)ccc1O)c1cc(-c2ccccc2[O-])[n-]n1 (nonaromatic ring conformer: 98.04312904345667 kcal/mol)

>  <smiles>  (48) 
O=C(Nc1cc(S(=O)(=O)N2CCCCC2)ccc1O)c1cc(-c2ccccc2O)[nH]n1

>  <score_type>  (48) 
oracle

>  <origin>  (48) 
adgpu

>  <m_score__min__energy>  (48) 
-15.27

>  <m_primary>  (48) 
energy

$$$$
48:0
     RDKit          3D

 55 58  0  0  0  0  0  0  0  0999 V2000
   -0.4610   20.7250  -30.6210 C   0  0  0  0  0  0  0  0  0  0  0  0
   -1.6650   21.1580  -31.4050 C   0  0  0  0  0  0  0  0  0  0  0  0
   -1.8520   20.7100  -32.7210 C   0  0  0  0  0  0  0  0  0  0  0  0
   -2.9880   21.0910  -33.4400 C   0  0  0  0  0  0  0  0  0  0  0  0
   -3.9520   21.9080  -32.8450 C   0  0  0  0  0  0  0  0  0  0  0  0
   -3.7910   22.3390  -31.5220 C   0  0  0  0  0  0  0  0  0  0  0  0
   -4.9960   23.3800  -30.7750 S   0  0  0  0  0  0  0  0  0  0  0  0
   -4.7590   24.8060  -31.1860 O   0  0  0  0  0  0  0  0  0  0  0  0
   -4.8940   23.3010  -29.2770 O   0  0  0  0  0  0  0  0  0  0  0  0
   -6.5960   22.8550  -31.2860 C   0  0  0  0  0  0  0  0  0  0  0  0
   -7.6040   23.7950  -31.5400 C   0  0  0  0  0  0  0  0  0  0  0  0
   -8.8650   23.3710  -31.9680 C   0  0  0  0  0  0  0  0  0  0  0  0
   -9.1230   22.0100  -32.1500 C   0  0  0  0  0  0  0  0  0  0  0  0
   -8.1180   21.0640  -31.9070 C   0  0  0  0  0  0  0  0  0  0  0  0
   -8.4590   19.3530  -32.1420 S   0  0  0  0  0  0  0  0  0  0  0  0
   -8.8820   18.7480  -30.8320 O   0  0  0  0  0  0  0  0  0  0  0  0
   -9.5730   19.1650  -33.1330 O   0  0  0  0  0  0  0  0  0  0  0  0
   -7.0100   18.5570  -32.7480 C   0  0  0  0  0  0  0  0  0  0  0  0
   -6.5200   17.4000  -32.1270 C   0  0  0  0  0  0  0  0  0  0  0  0
   -5.3600   16.7850  -32.6020 C   0  0  0  0  0  0  0  0  0  0  0  0
   -4.6630   17.3280  -33.6900 C   0  0  0  0  0  0  0  0  0  0  0  0
   -3.4870   16.6520  -34.1580 N   0  0  0  0  0  0  0  0  0  0  0  0
   -2.2680   16.4530  -33.4300 C   0  0  0  0  0  0  0  0  0  0  0  0
   -2.1240   15.4370  -32.6970 O   0  0  0  0  0  0  0  0  0  0  0  0
   -1.1280   17.3720  -33.6320 C   0  0  0  0  0  0  0  0  0  0  0  0
   -1.0610   18.1120  -34.8270 C   0  0  0  0  0  0  0  0  0  0  0  0
   -0.0430   19.0480  -35.0270 C   0  0  0  0  0  0  0  0  0  0  0  0
    0.9190   19.2570  -34.0380 C   0  0  0  0  0  0  0  0  0  0  0  0
    0.8780   18.5160  -32.8570 C   0  0  0  0  0  0  0  0  0  0  0  0
   -0.1230   17.5580  -32.6490 C   0  0  0  0  0  0  0  0  0  0  0  0
   -0.0630   16.7940  -31.4830 O   0  0  0  0  0  0  0  0  0  0  0  0
   -5.1660   18.4790  -34.3240 C   0  0  0  0  0  0  0  0  0  0  0  0
   -6.3290   19.0930  -33.8470 C   0  0  0  0  0  0  0  0  0  0  0  0
   -6.8530   21.4910  -31.4750 C   0  0  0  0  0  0  0  0  0  0  0  0
   -2.6460   21.9630  -30.8040 C   0  0  0  0  0  0  0  0  0  0  0  0
   -0.6767   20.8026  -29.5451 H   0  0  0  0  0  0  0  0  0  0  0  0
   -0.2158   19.6824  -30.8716 H   0  0  0  0  0  0  0  0  0  0  0  0
    0.3921   21.3727  -30.8716 H   0  0  0  0  0  0  0  0  0  0  0  0
   -1.1014   20.0561  -33.1889 H   0  0  0  0  0  0  0  0  0  0  0  0
   -3.1232   20.7470  -34.4760 H   0  0  0  0  0  0  0  0  0  0  0  0
   -4.8403   22.2139  -33.4171 H   0  0  0  0  0  0  0  0  0  0  0  0
   -7.4024   24.8676  -31.4023 H   0  0  0  0  0  0  0  0  0  0  0  0
   -9.6560   24.1103  -32.1620 H   0  0  0  0  0  0  0  0  0  0  0  0
  -10.1175   21.6801  -32.4849 H   0  0  0  0  0  0  0  0  0  0  0  0
   -7.0511   16.9750  -31.2625 H   0  0  0  0  0  0  0  0  0  0  0  0
   -4.9907   15.8682  -32.1191 H   0  0  0  0  0  0  0  0  0  0  0  0
   -1.8165   17.9522  -35.6104 H   0  0  0  0  0  0  0  0  0  0  0  0
    0.0001   19.6208  -35.9651 H   0  0  0  0  0  0  0  0  0  0  0  0
    1.7099   20.0063  -34.1898 H   0  0  0  0  0  0  0  0  0  0  0  0
    1.6392   18.6855  -32.0812 H   0  0  0  0  0  0  0  0  0  0  0  0
   -0.6580   15.9930  -31.3130 H   0  0  0  0  0  0  0  0  0  0  0  0
   -4.6434   18.8971  -35.1970 H   0  0  0  0  0  0  0  0  0  0  0  0
   -6.7098   20.0008  -34.3377 H   0  0  0  0  0  0  0  0  0  0  0  0
   -6.0606   20.7522  -31.2842 H   0  0  0  0  0  0  0  0  0  0  0  0
   -2.5161   22.3004  -29.7651 H   0  0  0  0  0  0  0  0  0  0  0  0
  1  2  1  0
  2  3  2  0
  3  4  1  0
  4  5  2  0
  5  6  1  0
  6  7  1  0
  7  8  2  0
  7  9  2  0
  7 10  1  0
 10 11  2  0
 11 12  1  0
 12 13  2  0
 13 14  1  0
 14 15  1  0
 15 16  2  0
 15 17  2  0
 15 18  1  0
 18 19  2  0
 19 20  1  0
 20 21  2  0
 21 22  1  0
 22 23  1  0
 23 24  2  0
 23 25  1  0
 25 26  2  0
 26 27  1  0
 27 28  2  0
 28 29  1  0
 29 30  2  0
 30 31  1  0
 21 32  1  0
 32 33  2  0
 14 34  2  0
  6 35  2  0
 35  2  1  0
 34 10  1  0
 33 18  1  0
 30 25  1  0
  1 36  1  0
  1 37  1  0
  1 38  1  0
  3 39  1  0
  4 40  1  0
  5 41  1  0
 11 42  1  0
 12 43  1  0
 13 44  1  0
 19 45  1  0
 20 46  1  0
 26 47  1  0
 27 48  1  0
 28 49  1  0
 29 50  1  0
 31 51  1  0
 32 52  1  0
 33 53  1  0
 34 54  1  0
 35 55  1  0
M  CHG  1  22  -1
M  END
>  <UniqueID>  (49) 
47

>  <SMILES>  (49) 
Cc1cccc(S(=O)(=O)c2cccc(S(=O)(=O)c3ccc([N-]C(=O)c4ccccc4O)cc3)c2)c1

>  <Energy>  (49) 
71.94341597785767

>  <Genealogy>  (49) 
Cc1cccc(S(=O)(=O)c2cccc(S(=O)(=O)c3ccc([N-]C(=O)c4ccccc4O)cc3)c2)c1 (protonated)
Cc1cccc(S(=O)(=O)c2cccc(S(=O)(=O)c3ccc([N-]C(=O)c4ccccc4O)cc3)c2)c1 (3D coordinates assigned)
Cc1cccc(S(=O)(=O)c2cccc(S(=O)(=O)c3ccc([N-]C(=O)c4ccccc4O)cc3)c2)c1 (optimized conformer: 71.94341597785767 kcal/mol)

>  <smiles>  (49) 
Cc1cccc(S(=O)(=O)c2cccc(S(=O)(=O)c3ccc(NC(=O)c4ccccc4O)cc3)c2)c1

>  <score_type>  (49) 
oracle

>  <origin>  (49) 
adgpu

>  <m_score__min__energy>  (49) 
-13.140000000000001

>  <m_primary>  (49) 
energy

$$$$
49:0
     RDKit          3D

 64 67  0  0  0  0  0  0  0  0999 V2000
    0.0070   20.6440  -35.4020 C   0  0  0  0  0  0  0  0  0  0  0  0
   -0.3270   19.3360  -34.6770 C   0  0  0  0  0  0  0  0  0  0  0  0
    0.6700   19.0630  -33.5440 C   0  0  0  0  0  0  0  0  0  0  0  0
   -1.7520   19.3430  -34.1570 C   0  0  0  0  0  0  0  0  0  0  0  0
   -2.6770   18.3610  -34.5560 C   0  0  0  0  0  0  0  0  0  0  0  0
   -3.9860   18.3800  -34.0690 C   0  0  0  0  0  0  0  0  0  0  0  0
   -4.3980   19.3790  -33.1750 C   0  0  0  0  0  0  0  0  0  0  0  0
   -5.7870   19.3990  -32.6630 C   0  0  0  0  0  0  0  0  0  0  0  0
   -6.3490   20.6250  -32.2660 C   0  0  0  0  0  0  0  0  0  0  0  0
   -7.6320   20.6780  -31.7090 C   0  0  0  0  0  0  0  0  0  0  0  0
   -8.2970   22.2160  -31.1540 S   0  0  0  0  0  0  0  0  0  0  0  0
   -9.5010   21.9530  -30.2910 O   0  0  0  0  0  0  0  0  0  0  0  0
   -8.7430   23.0230  -32.3420 O   0  0  0  0  0  0  0  0  0  0  0  0
   -7.1190   23.1310  -30.2390 N   0  0  0  0  0  0  0  0  0  0  0  0
   -5.7870   22.4870  -30.2660 C   0  0  0  0  0  0  0  0  0  0  0  0
   -4.8200   23.2060  -31.2210 C   0  0  0  0  0  0  0  0  0  0  0  0
   -4.6160   24.5730  -30.8910 O   0  0  0  0  0  0  0  0  0  0  0  0
   -5.7560   25.2000  -30.3160 C   0  0  0  0  0  0  0  0  0  0  0  0
   -7.0910   24.5360  -30.6900 C   0  0  0  0  0  0  0  0  0  0  0  0
   -8.3730   19.4990  -31.5700 C   0  0  0  0  0  0  0  0  0  0  0  0
   -7.8320   18.2770  -31.9680 C   0  0  0  0  0  0  0  0  0  0  0  0
   -6.5440   18.2120  -32.5200 C   0  0  0  0  0  0  0  0  0  0  0  0
   -6.0370   16.9440  -32.9710 N   0  0  0  0  0  0  0  0  0  0  0  0
   -6.4850   16.3880  -34.2520 C   0  0  0  0  0  0  0  0  0  0  0  0
   -6.4610   14.8580  -34.1960 C   0  0  0  0  0  0  0  0  0  0  0  0
   -5.1190   14.3300  -33.8440 N   0  0  0  0  0  0  0  0  0  0  0  0
   -5.2280   12.9420  -33.3660 C   0  0  0  0  0  0  0  0  0  0  0  0
   -4.3490   15.1710  -32.8880 C   0  0  0  0  0  0  0  0  0  0  0  0
   -5.2330   16.1180  -32.0670 C   0  0  0  0  0  0  0  0  0  0  0  0
   -3.4830   20.3720  -32.7910 C   0  0  0  0  0  0  0  0  0  0  0  0
   -2.1730   20.3510  -33.2720 C   0  0  0  0  0  0  0  0  0  0  0  0
    0.2083   21.4324  -34.6618 H   0  0  0  0  0  0  0  0  0  0  0  0
    0.8964   20.4971  -36.0323 H   0  0  0  0  0  0  0  0  0  0  0  0
   -0.8440   20.9415  -36.0323 H   0  0  0  0  0  0  0  0  0  0  0  0
   -0.2412   18.5186  -35.4081 H   0  0  0  0  0  0  0  0  0  0  0  0
    0.1694   19.2001  -32.5741 H   0  0  0  0  0  0  0  0  0  0  0  0
    1.0406   18.0303  -33.6226 H   0  0  0  0  0  0  0  0  0  0  0  0
    1.5150   19.7628  -33.6226 H   0  0  0  0  0  0  0  0  0  0  0  0
   -2.3670   17.5720  -35.2570 H   0  0  0  0  0  0  0  0  0  0  0  0
   -4.6989   17.6058  -34.3890 H   0  0  0  0  0  0  0  0  0  0  0  0
   -5.7736   21.5536  -32.3946 H   0  0  0  0  0  0  0  0  0  0  0  0
   -5.3630   22.5049  -29.2511 H   0  0  0  0  0  0  0  0  0  0  0  0
   -5.9152   21.4551  -30.6249 H   0  0  0  0  0  0  0  0  0  0  0  0
   -3.8489   22.6903  -31.1880 H   0  0  0  0  0  0  0  0  0  0  0  0
   -5.2711   23.1770  -32.2238 H   0  0  0  0  0  0  0  0  0  0  0  0
   -5.6507   25.1721  -29.2214 H   0  0  0  0  0  0  0  0  0  0  0  0
   -5.7888   26.2254  -30.7128 H   0  0  0  0  0  0  0  0  0  0  0  0
   -7.9145   25.0856  -30.2106 H   0  0  0  0  0  0  0  0  0  0  0  0
   -7.2031   24.5586  -31.7840 H   0  0  0  0  0  0  0  0  0  0  0  0
   -9.3868   19.5364  -31.1448 H   0  0  0  0  0  0  0  0  0  0  0  0
   -8.4206   17.3555  -31.8480 H   0  0  0  0  0  0  0  0  0  0  0  0
   -7.5103   16.7289  -34.4584 H   0  0  0  0  0  0  0  0  0  0  0  0
   -5.8100   16.7307  -35.0501 H   0  0  0  0  0  0  0  0  0  0  0  0
   -7.1842   14.5200  -33.4392 H   0  0  0  0  0  0  0  0  0  0  0  0
   -6.7208   14.4797  -35.1957 H   0  0  0  0  0  0  0  0  0  0  0  0
   -5.2288   12.9320  -32.2660 H   0  0  0  0  0  0  0  0  0  0  0  0
   -6.1637   12.4987  -33.7374 H   0  0  0  0  0  0  0  0  0  0  0  0
   -4.3729   12.3581  -33.7374 H   0  0  0  0  0  0  0  0  0  0  0  0
   -3.8097   14.5081  -32.1954 H   0  0  0  0  0  0  0  0  0  0  0  0
   -3.6643   15.7954  -33.4807 H   0  0  0  0  0  0  0  0  0  0  0  0
   -5.8989   15.5286  -31.4195 H   0  0  0  0  0  0  0  0  0  0  0  0
   -4.5971   16.7666  -31.4465 H   0  0  0  0  0  0  0  0  0  0  0  0
   -3.8007   21.1722  -32.1063 H   0  0  0  0  0  0  0  0  0  0  0  0
   -1.4636   21.1300  -32.9559 H   0  0  0  0  0  0  0  0  0  0  0  0
  1  2  1  0
  2  3  1  0
  2  4  1  0
  4  5  2  0
  5  6  1  0
  6  7  2  0
  7  8  1  0
  8  9  2  0
  9 10  1  0
 10 11  1  0
 11 12  2  0
 11 13  2  0
 11 14  1  0
 14 15  1  0
 15 16  1  0
 16 17  1  0
 17 18  1  0
 18 19  1  0
 10 20  2  0
 20 21  1  0
 21 22  2  0
 22 23  1  0
 23 24  1  0
 24 25  1  0
 25 26  1  0
 26 27  1  0
 26 28  1  0
 28 29  1  0
  7 30  1  0
 30 31  2  0
 31  4  1  0
 22  8  1  0
 29 23  1  0
 19 14  1  0
  1 32  1  0
  1 33  1  0
  1 34  1  0
  2 35  1  0
  3 36  1  0
  3 37  1  0
  3 38  1  0
  5 39  1  0
  6 40  1  0
  9 41  1  0
 15 42  1  0
 15 43  1  0
 16 44  1  0
 16 45  1  0
 18 46  1  0
 18 47  1  0
 19 48  1  0
 19 49  1  0
 20 50  1  0
 21 51  1  0
 24 52  1  0
 24 53  1  0
 25 54  1  0
 25 55  1  0
 27 56  1  0
 27 57  1  0
 27 58  1  0
 28 59  1  0
 28 60  1  0
 29 61  1  0
 29 62  1  0
 30 63  1  0
 31 64  1  0
M  END
>  <UniqueID>  (50) 
48

>  <SMILES>  (50) 
CC(C)c1ccc(-c2cc(S(=O)(=O)N3CCOCC3)ccc2N2CCN(C)CC2)cc1

>  <Energy>  (50) 
89.5646184803348

>  <Genealogy>  (50) 
CC(C)c1ccc(-c2cc(S(=O)(=O)N3CCOCC3)ccc2N2CCN(C)CC2)cc1 (3D coordinates assigned)
CC(C)c1ccc(-c2cc(S(=O)(=O)N3CCOCC3)ccc2N2CCN(C)CC2)cc1 (nonaromatic ring conformer: 89.5646184803348 kcal/mol)

>  <smiles>  (50) 
CC(C)c1ccc(-c2cc(S(=O)(=O)N3CCOCC3)ccc2N2CCN(C)CC2)cc1

>  <score_type>  (50) 
oracle

>  <origin>  (50) 
adgpu

>  <m_score__min__energy>  (50) 
-10.07

>  <m_primary>  (50) 
energy

$$$$
