0:0
     RDKit          3D

 68 71  0  0  0  0  0  0  0  0999 V2000
   -0.7860   28.9050  -25.3010 C   0  0  0  0  0  0  0  0  0  0  0  0
   -0.8370   27.4580  -25.5300 N   0  0  0  0  0  0  0  0  0  0  0  0
   -1.5600   26.5890  -24.5930 C   0  0  0  0  0  0  0  0  0  0  0  0
   -0.0580   26.8850  -26.6000 C   0  0  0  0  0  0  0  0  0  0  0  0
    0.8860   27.5460  -27.1150 O   0  0  0  0  0  0  0  0  0  0  0  0
   -0.3220   25.5220  -27.1020 C   0  0  0  0  0  0  0  0  0  0  0  0
    0.2700   24.4240  -26.4630 C   0  0  0  0  0  0  0  0  0  0  0  0
    0.0500   23.1300  -26.9400 C   0  0  0  0  0  0  0  0  0  0  0  0
   -0.7670   22.9200  -28.0520 C   0  0  0  0  0  0  0  0  0  0  0  0
   -1.3760   24.0040  -28.7000 C   0  0  0  0  0  0  0  0  0  0  0  0
   -2.2080   23.7530  -29.8450 N   0  0  0  0  0  0  0  0  0  0  0  0
   -3.6010   24.0890  -29.9040 C   0  0  0  0  0  0  0  0  0  0  0  0
   -4.2040   24.4910  -28.8740 O   0  0  0  0  0  0  0  0  0  0  0  0
   -4.3120   23.8940  -31.1320 N   0  0  0  0  0  0  0  0  0  0  0  0
   -5.2430   22.8410  -31.4280 C   0  0  0  0  0  0  0  0  0  0  0  0
   -6.6280   23.0760  -31.4870 C   0  0  0  0  0  0  0  0  0  0  0  0
   -7.5090   22.0350  -31.7850 C   0  0  0  0  0  0  0  0  0  0  0  0
   -7.0220   20.7470  -32.0380 C   0  0  0  0  0  0  0  0  0  0  0  0
   -8.1510   19.4550  -32.4310 S   0  0  0  0  0  0  0  0  0  0  0  0
   -9.3610   20.0180  -33.1260 O   0  0  0  0  0  0  0  0  0  0  0  0
   -8.5860   18.7960  -31.1510 O   0  0  0  0  0  0  0  0  0  0  0  0
   -7.3670   18.2870  -33.4670 N   0  0  0  0  0  0  0  0  0  0  0  0
   -6.8270   17.1500  -32.6790 C   0  0  0  0  0  0  0  0  0  0  0  0
   -5.3170   17.2640  -32.4210 C   0  0  0  0  0  0  0  0  0  0  0  0
   -4.5260   17.3440  -33.7390 C   0  0  0  0  0  0  0  0  0  0  0  0
   -5.3380   17.9800  -34.8800 C   0  0  0  0  0  0  0  0  0  0  0  0
   -6.3740   18.9650  -34.3300 C   0  0  0  0  0  0  0  0  0  0  0  0
   -5.6420   20.5110  -32.0110 C   0  0  0  0  0  0  0  0  0  0  0  0
   -4.7520   21.5530  -31.7210 C   0  0  0  0  0  0  0  0  0  0  0  0
   -3.3440   21.2830  -31.7020 N   0  0  0  0  0  0  0  0  0  0  0  0
   -2.6150   21.2560  -32.9710 C   0  0  0  0  0  0  0  0  0  0  0  0
   -1.1140   21.4500  -32.7200 C   0  0  0  0  0  0  0  0  0  0  0  0
   -0.6470   20.5670  -31.7170 O   0  0  0  0  0  0  0  0  0  0  0  0
   -1.2640   20.8770  -30.4820 C   0  0  0  0  0  0  0  0  0  0  0  0
   -2.7650   20.5950  -30.5460 C   0  0  0  0  0  0  0  0  0  0  0  0
   -1.1160   25.3170  -28.2460 C   0  0  0  0  0  0  0  0  0  0  0  0
   -1.6000   26.4110  -28.9560 O   0  0  0  0  0  0  0  0  0  0  0  0
   -0.7790   29.1050  -24.2194 H   0  0  0  0  0  0  0  0  0  0  0  0
    0.1272   29.3163  -25.7559 H   0  0  0  0  0  0  0  0  0  0  0  0
   -1.6680   29.3795  -25.7559 H   0  0  0  0  0  0  0  0  0  0  0  0
   -1.3173   26.8808  -23.5606 H   0  0  0  0  0  0  0  0  0  0  0  0
   -2.6426   26.6920  -24.7582 H   0  0  0  0  0  0  0  0  0  0  0  0
   -1.2618   25.5432  -24.7582 H   0  0  0  0  0  0  0  0  0  0  0  0
    0.9102   24.5820  -25.5826 H   0  0  0  0  0  0  0  0  0  0  0  0
    0.5224   22.2731  -26.4375 H   0  0  0  0  0  0  0  0  0  0  0  0
   -0.9341   21.8978  -28.4223 H   0  0  0  0  0  0  0  0  0  0  0  0
   -1.8300   23.1480  -30.6080 H   0  0  0  0  0  0  0  0  0  0  0  0
   -7.0197   24.0862  -31.2972 H   0  0  0  0  0  0  0  0  0  0  0  0
   -8.5914   22.2276  -31.8212 H   0  0  0  0  0  0  0  0  0  0  0  0
   -7.3469   17.1163  -31.7102 H   0  0  0  0  0  0  0  0  0  0  0  0
   -6.9931   16.2342  -33.2653 H   0  0  0  0  0  0  0  0  0  0  0  0
   -5.1223   18.1719  -31.8312 H   0  0  0  0  0  0  0  0  0  0  0  0
   -4.9905   16.3663  -31.8755 H   0  0  0  0  0  0  0  0  0  0  0  0
   -3.6221   17.9480  -33.5710 H   0  0  0  0  0  0  0  0  0  0  0  0
   -4.2775   16.3158  -34.0407 H   0  0  0  0  0  0  0  0  0  0  0  0
   -4.6535   18.5161  -35.5539 H   0  0  0  0  0  0  0  0  0  0  0  0
   -5.8653   17.1821  -35.4234 H   0  0  0  0  0  0  0  0  0  0  0  0
   -5.8559   19.7356  -33.7404 H   0  0  0  0  0  0  0  0  0  0  0  0
   -6.9075   19.4136  -35.1810 H   0  0  0  0  0  0  0  0  0  0  0  0
   -5.2550   19.5025  -32.2185 H   0  0  0  0  0  0  0  0  0  0  0  0
   -2.7792   20.2867  -33.4645 H   0  0  0  0  0  0  0  0  0  0  0  0
   -2.9810   22.0698  -33.6142 H   0  0  0  0  0  0  0  0  0  0  0  0
   -0.5655   21.2557  -33.6535 H   0  0  0  0  0  0  0  0  0  0  0  0
   -0.9469   22.4832  -32.3815 H   0  0  0  0  0  0  0  0  0  0  0  0
   -0.8140   20.2623  -29.6885 H   0  0  0  0  0  0  0  0  0  0  0  0
   -1.1122   21.9451  -30.2674 H   0  0  0  0  0  0  0  0  0  0  0  0
   -2.9304   19.5119  -30.6437 H   0  0  0  0  0  0  0  0  0  0  0  0
   -3.2452   20.9586  -29.6256 H   0  0  0  0  0  0  0  0  0  0  0  0
  1  2  1  0
  2  3  1  0
  2  4  1  0
  4  5  2  0
  4  6  1  0
  6  7  2  0
  7  8  1  0
  8  9  2  0
  9 10  1  0
 10 11  1  0
 11 12  1  0
 12 13  2  0
 12 14  1  0
 14 15  1  0
 15 16  2  0
 16 17  1  0
 17 18  2  0
 18 19  1  0
 19 20  2  0
 19 21  2  0
 19 22  1  0
 22 23  1  0
 23 24  1  0
 24 25  1  0
 25 26  1  0
 26 27  1  0
 18 28  1  0
 28 29  2  0
 29 30  1  0
 30 31  1  0
 31 32  1  0
 32 33  1  0
 33 34  1  0
 34 35  1  0
 10 36  2  0
 36 37  1  0
 36  6  1  0
 29 15  1  0
 35 30  1  0
 27 22  1  0
  1 38  1  0
  1 39  1  0
  1 40  1  0
  3 41  1  0
  3 42  1  0
  3 43  1  0
  7 44  1  0
  8 45  1  0
  9 46  1  0
 11 47  1  0
 16 48  1  0
 17 49  1  0
 23 50  1  0
 23 51  1  0
 24 52  1  0
 24 53  1  0
 25 54  1  0
 25 55  1  0
 26 56  1  0
 26 57  1  0
 27 58  1  0
 27 59  1  0
 28 60  1  0
 31 61  1  0
 31 62  1  0
 32 63  1  0
 32 64  1  0
 34 65  1  0
 34 66  1  0
 35 67  1  0
 35 68  1  0
M  CHG  2  14  -1  37  -1
M  END
>  <UniqueID>  (1) 
1

>  <SMILES>  (1) 
CN(C)C(=O)c1cccc(NC(=O)[N-]c2ccc(S(=O)(=O)N3CCCCC3)cc2N2CCOCC2)c1[O-]

>  <Energy>  (1) 
93.83379827136287

>  <Genealogy>  (1) 
CN(C)C(=O)c1cccc(NC(=O)[N-]c2ccc(S(=O)(=O)N3CCCCC3)cc2N2CCOCC2)c1[O-] (protonated)
CN(C)C(=O)c1cccc(NC(=O)[N-]c2ccc(S(=O)(=O)N3CCCCC3)cc2N2CCOCC2)c1[O-] (3D coordinates assigned)
CN(C)C(=O)c1cccc(NC(=O)[N-]c2ccc(S(=O)(=O)N3CCCCC3)cc2N2CCOCC2)c1[O-] (nonaromatic ring conformer: 93.83379827136287 kcal/mol)

>  <smiles>  (1) 
CN(C)C(=O)c1cccc(NC(=O)Nc2ccc(S(=O)(=O)N3CCCCC3)cc2N2CCOCC2)c1O

>  <score_type>  (1) 
oracle

>  <origin>  (1) 
adgpu

>  <m_score__min__energy>  (1) 
-14.56

>  <m_primary>  (1) 
energy

$$$$
1:0
     RDKit          3D

 34 36  0  0  0  0  0  0  0  0999 V2000
   -8.6340   19.2110  -32.3280 C   0  0  0  0  0  0  0  0  0  0  0  0
   -7.4790   20.0300  -32.6760 N   0  0  0  0  0  0  0  0  0  0  0  0
   -6.2730   19.5520  -33.2750 C   0  0  0  0  0  0  0  0  0  0  0  0
   -6.1610   18.4400  -33.8560 O   0  0  0  0  0  0  0  0  0  0  0  0
   -5.2010   20.5180  -33.0850 C   0  0  0  0  0  0  0  0  0  0  0  0
   -4.0130   20.4260  -33.4890 O   0  0  0  0  0  0  0  0  0  0  0  0
   -5.7850   21.5970  -32.3080 C   0  0  0  0  0  0  0  0  0  0  0  0
   -5.2080   22.7610  -31.8060 C   0  0  0  0  0  0  0  0  0  0  0  0
   -6.0120   23.6240  -31.0370 C   0  0  0  0  0  0  0  0  0  0  0  0
   -5.3350   25.1080  -30.3720 S   0  0  0  0  0  0  0  0  0  0  0  0
   -5.7170   26.2960  -31.2110 O   0  0  0  0  0  0  0  0  0  0  0  0
   -5.8780   25.2960  -28.9850 O   0  0  0  0  0  0  0  0  0  0  0  0
   -3.6060   24.9960  -30.2890 N   0  0  0  0  0  0  0  0  0  0  0  0
   -2.8190   24.5640  -29.1670 C   0  0  0  0  0  0  0  0  0  0  0  0
   -3.2400   23.4160  -28.4810 C   0  0  0  0  0  0  0  0  0  0  0  0
   -2.5150   22.9260  -27.3940 C   0  0  0  0  0  0  0  0  0  0  0  0
   -1.3570   23.5860  -26.9690 C   0  0  0  0  0  0  0  0  0  0  0  0
   -0.6060   23.0780  -25.8520 C   0  0  0  0  0  0  0  0  0  0  0  0
   -0.0010   22.6700  -24.9540 N   0  0  0  0  0  0  0  0  0  0  0  0
   -0.9360   24.7430  -27.6320 C   0  0  0  0  0  0  0  0  0  0  0  0
   -1.6630   25.2440  -28.7190 C   0  0  0  0  0  0  0  0  0  0  0  0
   -1.2340   26.4240  -29.3120 O   0  0  0  0  0  0  0  0  0  0  0  0
   -7.3670   23.3000  -30.7930 C   0  0  0  0  0  0  0  0  0  0  0  0
   -7.9240   22.1160  -31.3060 C   0  0  0  0  0  0  0  0  0  0  0  0
   -7.1100   21.2750  -32.0690 C   0  0  0  0  0  0  0  0  0  0  0  0
   -8.7225   19.1482  -31.2334 H   0  0  0  0  0  0  0  0  0  0  0  0
   -9.5449   19.6661  -32.7440 H   0  0  0  0  0  0  0  0  0  0  0  0
   -8.5059   18.2008  -32.7440 H   0  0  0  0  0  0  0  0  0  0  0  0
   -4.1528   22.9996  -32.0049 H   0  0  0  0  0  0  0  0  0  0  0  0
   -4.1534   22.8949  -28.8037 H   0  0  0  0  0  0  0  0  0  0  0  0
   -2.8544   22.0199  -26.8708 H   0  0  0  0  0  0  0  0  0  0  0  0
   -0.0267   25.2636  -27.2971 H   0  0  0  0  0  0  0  0  0  0  0  0
   -7.9909   23.9813  -30.1959 H   0  0  0  0  0  0  0  0  0  0  0  0
   -8.9754   21.8577  -31.1115 H   0  0  0  0  0  0  0  0  0  0  0  0
  1  2  1  0
  2  3  1  0
  3  4  2  0
  3  5  1  0
  5  6  2  0
  5  7  1  0
  7  8  2  0
  8  9  1  0
  9 10  1  0
 10 11  2  0
 10 12  2  0
 10 13  1  0
 13 14  1  0
 14 15  2  0
 15 16  1  0
 16 17  2  0
 17 18  1  0
 18 19  3  0
 17 20  1  0
 20 21  2  0
 21 22  1  0
  9 23  2  0
 23 24  1  0
 24 25  2  0
 25  2  1  0
 25  7  1  0
 21 14  1  0
  1 26  1  0
  1 27  1  0
  1 28  1  0
  8 29  1  0
 15 30  1  0
 16 31  1  0
 20 32  1  0
 23 33  1  0
 24 34  1  0
M  CHG  2  13  -1  22  -1
M  END
>  <UniqueID>  (2) 
2

>  <SMILES>  (2) 
CN1C(=O)C(=O)c2cc(S(=O)(=O)[N-]c3ccc(C#N)cc3[O-])ccc21

>  <Energy>  (2) 
73.66335356571072

>  <Genealogy>  (2) 
CN1C(=O)C(=O)c2cc(S(=O)(=O)[N-]c3ccc(C#N)cc3[O-])ccc21 (protonated)
CN1C(=O)C(=O)c2cc(S(=O)(=O)[N-]c3ccc(C#N)cc3[O-])ccc21 (3D coordinates assigned)
CN1C(=O)C(=O)c2cc(S(=O)(=O)[N-]c3ccc(C#N)cc3[O-])ccc21 (nonaromatic ring conformer: 73.66335356571072 kcal/mol)

>  <smiles>  (2) 
CN1C(=O)C(=O)c2cc(S(=O)(=O)Nc3ccc(C#N)cc3O)ccc21

>  <score_type>  (2) 
oracle

>  <origin>  (2) 
adgpu

>  <m_score__min__energy>  (2) 
-14.140000000000001

>  <m_primary>  (2) 
energy

$$$$
2:0
     RDKit          3D

 82 87  0  0  0  0  0  0  0  0999 V2000
    1.2310   27.1230  -24.2990 C   0  0  0  0  0  0  0  0  0  0  0  0
    0.1630   26.5470  -25.1130 N   0  0  0  0  0  0  0  0  0  0  0  0
   -1.1980   26.5000  -24.5740 C   0  0  0  0  0  0  0  0  0  0  0  0
    0.3790   26.3520  -26.5230 C   0  0  0  0  0  0  0  0  0  0  0  0
    1.1800   27.1070  -27.1410 O   0  0  0  0  0  0  0  0  0  0  0  0
   -0.3230   25.2860  -27.2700 C   0  0  0  0  0  0  0  0  0  0  0  0
    0.3570   24.1260  -27.6650 C   0  0  0  0  0  0  0  0  0  0  0  0
   -0.3030   23.1300  -28.3870 C   0  0  0  0  0  0  0  0  0  0  0  0
   -1.6610   23.2710  -28.7250 C   0  0  0  0  0  0  0  0  0  0  0  0
   -2.3340   22.2780  -29.5260 N   0  0  0  0  0  0  0  0  0  0  0  0
   -1.8580   21.7950  -30.7950 C   0  0  0  0  0  0  0  0  0  0  0  0
   -0.6880   22.0620  -31.1820 O   0  0  0  0  0  0  0  0  0  0  0  0
   -2.7340   20.9760  -31.6600 C   0  0  0  0  0  0  0  0  0  0  0  0
   -2.4840   20.8600  -33.0390 C   0  0  0  0  0  0  0  0  0  0  0  0
   -3.2970   20.0520  -33.8400 C   0  0  0  0  0  0  0  0  0  0  0  0
   -4.3520   19.3260  -33.2700 C   0  0  0  0  0  0  0  0  0  0  0  0
   -5.1990   18.4590  -34.1060 C   0  0  0  0  0  0  0  0  0  0  0  0
   -6.0820   18.9990  -34.8220 O   0  0  0  0  0  0  0  0  0  0  0  0
   -5.0660   17.0200  -34.0770 N   0  0  0  0  0  0  0  0  0  0  0  0
   -6.1190   16.1300  -34.5590 C   0  0  0  0  0  0  0  0  0  0  0  0
   -5.9330   14.8130  -33.8120 C   0  0  0  0  0  0  0  0  0  0  0  0
   -4.9680   15.1330  -32.6770 C   0  0  0  0  0  0  0  0  0  0  0  0
   -4.1400   16.3170  -33.1900 C   0  0  1  0  0  0  0  0  0  0  0  0
   -2.8920   15.7740  -33.9540 C   0  0  0  0  0  0  0  0  0  0  0  0
   -1.8330   16.7500  -34.2940 N   0  0  0  0  0  0  0  0  0  0  0  0
   -1.0030   16.4180  -35.4630 C   0  0  0  0  0  0  0  0  0  0  0  0
    0.0620   17.5080  -35.6900 C   0  0  0  0  0  0  0  0  0  0  0  0
   -0.2730   18.6940  -34.9970 O   0  0  0  0  0  0  0  0  0  0  0  0
   -0.2100   18.4720  -33.5980 C   0  0  0  0  0  0  0  0  0  0  0  0
   -1.0510   17.2540  -33.1560 C   0  0  0  0  0  0  0  0  0  0  0  0
   -4.6340   19.4760  -31.9060 C   0  0  0  0  0  0  0  0  0  0  0  0
   -3.8310   20.2960  -31.1070 C   0  0  0  0  0  0  0  0  0  0  0  0
   -2.3360   24.4550  -28.3710 C   0  0  0  0  0  0  0  0  0  0  0  0
   -3.7160   24.6170  -28.7290 N   0  0  0  0  0  0  0  0  0  0  0  0
   -4.2320   24.6680  -30.0640 C   0  0  0  0  0  0  0  0  0  0  0  0
   -3.8620   25.6020  -30.8230 O   0  0  0  0  0  0  0  0  0  0  0  0
   -5.2330   23.6990  -30.5540 C   0  0  0  0  0  0  0  0  0  0  0  0
   -6.4210   23.3340  -29.9120 C   0  0  0  0  0  0  0  0  0  0  0  0
   -7.1840   22.4390  -30.6670 C   0  0  0  0  0  0  0  0  0  0  0  0
   -8.4210   21.9030  -30.3030 C   0  0  0  0  0  0  0  0  0  0  0  0
   -9.0750   21.0390  -31.2000 C   0  0  0  0  0  0  0  0  0  0  0  0
   -8.4910   20.7240  -32.4420 C   0  0  0  0  0  0  0  0  0  0  0  0
   -7.2440   21.2630  -32.7960 C   0  0  0  0  0  0  0  0  0  0  0  0
   -6.6150   22.1130  -31.8890 C   0  0  0  0  0  0  0  0  0  0  0  0
   -5.1570   22.9240  -32.0600 S   0  0  0  0  0  0  0  0  0  0  0  0
   -1.6670   25.4480  -27.6350 C   0  0  0  0  0  0  0  0  0  0  0  0
    0.9905   26.9933  -23.2335 H   0  0  0  0  0  0  0  0  0  0  0  0
    2.1796   26.6142  -24.5254 H   0  0  0  0  0  0  0  0  0  0  0  0
    1.3269   28.1952  -24.5254 H   0  0  0  0  0  0  0  0  0  0  0  0
   -1.1573   26.5014  -23.4748 H   0  0  0  0  0  0  0  0  0  0  0  0
   -1.7605   27.3793  -24.9212 H   0  0  0  0  0  0  0  0  0  0  0  0
   -1.6985   25.5840  -24.9212 H   0  0  0  0  0  0  0  0  0  0  0  0
    1.4181   23.9994  -27.4043 H   0  0  0  0  0  0  0  0  0  0  0  0
    0.2441   22.2266  -28.6944 H   0  0  0  0  0  0  0  0  0  0  0  0
   -3.2390   21.9060  -29.1640 H   0  0  0  0  0  0  0  0  0  0  0  0
   -1.6439   21.4082  -33.4903 H   0  0  0  0  0  0  0  0  0  0  0  0
   -3.1079   19.9858  -34.9216 H   0  0  0  0  0  0  0  0  0  0  0  0
   -7.1092   16.5564  -34.3406 H   0  0  0  0  0  0  0  0  0  0  0  0
   -6.0577   15.9870  -35.6479 H   0  0  0  0  0  0  0  0  0  0  0  0
   -6.8940   14.4564  -33.4128 H   0  0  0  0  0  0  0  0  0  0  0  0
   -5.5486   14.0180  -34.4679 H   0  0  0  0  0  0  0  0  0  0  0  0
   -5.5191   15.4110  -31.7665 H   0  0  0  0  0  0  0  0  0  0  0  0
   -4.3392   14.2706  -32.4106 H   0  0  0  0  0  0  0  0  0  0  0  0
   -3.7530   16.9792  -32.4015 H   0  0  0  0  0  0  0  0  0  0  0  0
   -2.4346   14.9930  -33.3289 H   0  0  0  0  0  0  0  0  0  0  0  0
   -3.2802   15.4261  -34.9226 H   0  0  0  0  0  0  0  0  0  0  0  0
   -0.5037   15.4531  -35.2911 H   0  0  0  0  0  0  0  0  0  0  0  0
   -1.6468   16.3561  -36.3528 H   0  0  0  0  0  0  0  0  0  0  0  0
    1.0343   17.1422  -35.3283 H   0  0  0  0  0  0  0  0  0  0  0  0
    0.1113   17.7320  -36.7658 H   0  0  0  0  0  0  0  0  0  0  0  0
    0.8387   18.2986  -33.3148 H   0  0  0  0  0  0  0  0  0  0  0  0
   -0.6208   19.3619  -33.0986 H   0  0  0  0  0  0  0  0  0  0  0  0
   -0.3815   16.4603  -32.7928 H   0  0  0  0  0  0  0  0  0  0  0  0
   -1.7359   17.5583  -32.3508 H   0  0  0  0  0  0  0  0  0  0  0  0
   -5.4901   18.9469  -31.4619 H   0  0  0  0  0  0  0  0  0  0  0  0
   -4.0605   20.4092  -30.0372 H   0  0  0  0  0  0  0  0  0  0  0  0
   -6.7213   23.7097  -28.9227 H   0  0  0  0  0  0  0  0  0  0  0  0
   -8.8756   22.1518  -29.3327 H   0  0  0  0  0  0  0  0  0  0  0  0
  -10.0495   20.6064  -30.9293 H   0  0  0  0  0  0  0  0  0  0  0  0
   -9.0145   20.0523  -33.1383 H   0  0  0  0  0  0  0  0  0  0  0  0
   -6.7769   21.0211  -33.7620 H   0  0  0  0  0  0  0  0  0  0  0  0
   -2.2038   26.3624  -27.3421 H   0  0  0  0  0  0  0  0  0  0  0  0
  1  2  1  0
  2  3  1  0
  2  4  1  0
  4  5  2  0
  4  6  1  0
  6  7  2  0
  7  8  1  0
  8  9  2  0
  9 10  1  0
 10 11  1  0
 11 12  2  0
 11 13  1  0
 13 14  2  0
 14 15  1  0
 15 16  2  0
 16 17  1  0
 17 18  2  0
 17 19  1  0
 19 20  1  0
 20 21  1  0
 21 22  1  0
 22 23  1  0
 23 24  1  0
 24 25  1  0
 25 26  1  0
 26 27  1  0
 27 28  1  0
 28 29  1  0
 29 30  1  0
 16 31  1  0
 31 32  2  0
  9 33  1  0
 33 34  1  0
 34 35  1  0
 35 36  2  0
 35 37  1  0
 37 38  2  0
 38 39  1  0
 39 40  2  0
 40 41  1  0
 41 42  2  0
 42 43  1  0
 43 44  2  0
 44 45  1  0
 33 46  2  0
 46  6  1  0
 32 13  1  0
 45 37  1  0
 23 19  1  0
 30 25  1  0
 44 39  1  0
  1 47  1  0
  1 48  1  0
  1 49  1  0
  3 50  1  0
  3 51  1  0
  3 52  1  0
  7 53  1  0
  8 54  1  0
 10 55  1  0
 14 56  1  0
 15 57  1  0
 20 58  1  0
 20 59  1  0
 21 60  1  0
 21 61  1  0
 22 62  1  0
 22 63  1  0
 23 64  1  1
 24 65  1  0
 24 66  1  0
 26 67  1  0
 26 68  1  0
 27 69  1  0
 27 70  1  0
 29 71  1  0
 29 72  1  0
 30 73  1  0
 30 74  1  0
 31 75  1  0
 32 76  1  0
 38 77  1  0
 40 78  1  0
 41 79  1  0
 42 80  1  0
 43 81  1  0
 46 82  1  0
M  CHG  1  34  -1
M  END
>  <UniqueID>  (3) 
3

>  <SMILES>  (3) 
CN(C)C(=O)c1ccc(NC(=O)c2ccc(C(=O)N3CCC[C@H]3CN3CCOCC3)cc2)c([N-]C(=O)c2cc3ccccc3s2)c1

>  <Energy>  (3) 
160.85314113485765

>  <Genealogy>  (3) 
CN(C)C(=O)c1ccc(NC(=O)c2ccc(C(=O)N3CCCC3CN3CCOCC3)cc2)c([N-]C(=O)c2cc3ccccc3s2)c1 (protonated)
CN(C)C(=O)c1ccc(NC(=O)c2ccc(C(=O)N3CCC[C@H]3CN3CCOCC3)cc2)c([N-]C(=O)c2cc3ccccc3s2)c1 (chirality)
CN(C)C(=O)c1ccc(NC(=O)c2ccc(C(=O)N3CCC[C@H]3CN3CCOCC3)cc2)c([N-]C(=O)c2cc3ccccc3s2)c1 (3D coordinates assigned)
CN(C)C(=O)c1ccc(NC(=O)c2ccc(C(=O)N3CCC[C@H]3CN3CCOCC3)cc2)c([N-]C(=O)c2cc3ccccc3s2)c1 (nonaromatic ring conformer: 160.85314113485765 kcal/mol)

>  <smiles>  (3) 
CN(C)C(=O)c1ccc(NC(=O)c2ccc(C(=O)N3CCCC3CN3CCOCC3)cc2)c(NC(=O)c2cc3ccccc3s2)c1

>  <score_type>  (3) 
oracle

>  <origin>  (3) 
adgpu

>  <m_score__min__energy>  (3) 
-12.42

>  <m_primary>  (3) 
energy

$$$$
3:0
     RDKit          3D

 57 60  0  0  0  0  0  0  0  0999 V2000
   -4.0090   18.1340  -33.9970 O   0  0  0  0  0  0  0  0  0  0  0  0
   -4.3180   19.1990  -33.3940 C   0  0  0  0  0  0  0  0  0  0  0  0
   -3.3330   20.2320  -33.2260 N   0  0  0  0  0  0  0  0  0  0  0  0
   -1.9150   20.0020  -33.2900 C   0  0  0  0  0  0  0  0  0  0  0  0
   -1.2670   19.1570  -32.3700 C   0  0  0  0  0  0  0  0  0  0  0  0
    0.1140   18.9660  -32.4410 C   0  0  0  0  0  0  0  0  0  0  0  0
    0.8650   19.6200  -33.4210 C   0  0  0  0  0  0  0  0  0  0  0  0
    0.2360   20.4730  -34.3370 C   0  0  0  0  0  0  0  0  0  0  0  0
    1.1880   21.3150  -35.5660 S   0  0  0  0  0  0  0  0  0  0  0  0
    2.5810   20.7510  -35.5760 O   0  0  0  0  0  0  0  0  0  0  0  0
    0.5760   21.0640  -36.9150 O   0  0  0  0  0  0  0  0  0  0  0  0
    1.2730   23.0400  -35.2950 N   0  0  0  0  0  0  0  0  0  0  0  0
    2.5730   23.5920  -35.6700 C   0  0  0  0  0  0  0  0  0  0  0  0
    2.3390   25.0600  -35.9900 C   0  0  0  0  0  0  0  0  0  0  0  0
    0.8480   25.1760  -36.2750 C   0  0  0  0  0  0  0  0  0  0  0  0
    0.2920   23.7710  -36.0950 C   0  0  0  0  0  0  0  0  0  0  0  0
   -1.1500   20.6730  -34.2570 C   0  0  0  0  0  0  0  0  0  0  0  0
   -5.7100   19.3880  -32.9150 C   0  0  0  0  0  0  0  0  0  0  0  0
   -6.6110   18.3080  -32.8700 C   0  0  0  0  0  0  0  0  0  0  0  0
   -7.9190   18.4960  -32.4170 C   0  0  0  0  0  0  0  0  0  0  0  0
   -8.3450   19.7610  -32.0090 C   0  0  0  0  0  0  0  0  0  0  0  0
   -7.4680   20.8500  -32.0620 C   0  0  0  0  0  0  0  0  0  0  0  0
   -8.0190   22.4370  -31.5310 S   0  0  0  0  0  0  0  0  0  0  0  0
   -9.3710   22.2890  -30.8900 O   0  0  0  0  0  0  0  0  0  0  0  0
   -8.1450   23.3640  -32.7110 O   0  0  0  0  0  0  0  0  0  0  0  0
   -6.8820   23.0920  -30.3780 N   0  0  0  0  0  0  0  0  0  0  0  0
   -5.5440   22.4750  -30.5340 C   0  0  0  0  0  0  0  0  0  0  0  0
   -4.5390   23.4290  -31.2030 C   0  0  0  0  0  0  0  0  0  0  0  0
   -4.3680   24.6480  -30.4950 O   0  0  0  0  0  0  0  0  0  0  0  0
   -5.5580   25.1230  -29.8750 C   0  0  0  0  0  0  0  0  0  0  0  0
   -6.8540   24.5630  -30.4830 C   0  0  0  0  0  0  0  0  0  0  0  0
   -6.1520   20.6620  -32.5130 C   0  0  0  0  0  0  0  0  0  0  0  0
   -3.6650   21.2220  -33.1710 H   0  0  0  0  0  0  0  0  0  0  0  0
   -1.8513   18.6447  -31.5914 H   0  0  0  0  0  0  0  0  0  0  0  0
    0.6126   18.2983  -31.7230 H   0  0  0  0  0  0  0  0  0  0  0  0
    1.9527   19.4647  -33.4734 H   0  0  0  0  0  0  0  0  0  0  0  0
    3.2835   23.4928  -34.8361 H   0  0  0  0  0  0  0  0  0  0  0  0
    2.9994   23.0586  -36.5324 H   0  0  0  0  0  0  0  0  0  0  0  0
    2.6177   25.6904  -35.1327 H   0  0  0  0  0  0  0  0  0  0  0  0
    2.9470   25.3959  -36.8429 H   0  0  0  0  0  0  0  0  0  0  0  0
    0.3737   25.8713  -35.5668 H   0  0  0  0  0  0  0  0  0  0  0  0
    0.6536   25.5668  -37.2847 H   0  0  0  0  0  0  0  0  0  0  0  0
   -0.6746   23.8083  -35.5713 H   0  0  0  0  0  0  0  0  0  0  0  0
    0.1229   23.2810  -37.0652 H   0  0  0  0  0  0  0  0  0  0  0  0
   -1.6423   21.3623  -34.9588 H   0  0  0  0  0  0  0  0  0  0  0  0
   -6.2832   17.3091  -33.1937 H   0  0  0  0  0  0  0  0  0  0  0  0
   -8.6150   17.6449  -32.3817 H   0  0  0  0  0  0  0  0  0  0  0  0
   -9.3733   19.9023  -31.6447 H   0  0  0  0  0  0  0  0  0  0  0  0
   -5.1629   22.1992  -29.5397 H   0  0  0  0  0  0  0  0  0  0  0  0
   -5.6526   21.5914  -31.1800 H   0  0  0  0  0  0  0  0  0  0  0  0
   -3.5649   22.9220  -31.2665 H   0  0  0  0  0  0  0  0  0  0  0  0
   -4.9392   23.6813  -32.1961 H   0  0  0  0  0  0  0  0  0  0  0  0
   -5.5276   24.8439  -28.8114 H   0  0  0  0  0  0  0  0  0  0  0  0
   -5.5815   26.2117  -30.0303 H   0  0  0  0  0  0  0  0  0  0  0  0
   -7.7167   24.9807  -29.9433 H   0  0  0  0  0  0  0  0  0  0  0  0
   -6.8982   24.8441  -31.5456 H   0  0  0  0  0  0  0  0  0  0  0  0
   -5.4611   21.5170  -32.5524 H   0  0  0  0  0  0  0  0  0  0  0  0
  1  2  2  0
  2  3  1  0
  3  4  1  0
  4  5  2  0
  5  6  1  0
  6  7  2  0
  7  8  1  0
  8  9  1  0
  9 10  2  0
  9 11  2  0
  9 12  1  0
 12 13  1  0
 13 14  1  0
 14 15  1  0
 15 16  1  0
  8 17  2  0
  2 18  1  0
 18 19  2  0
 19 20  1  0
 20 21  2  0
 21 22  1  0
 22 23  1  0
 23 24  2  0
 23 25  2  0
 23 26  1  0
 26 27  1  0
 27 28  1  0
 28 29  1  0
 29 30  1  0
 30 31  1  0
 22 32  2  0
 17  4  1  0
 32 18  1  0
 16 12  1  0
 31 26  1  0
  3 33  1  0
  5 34  1  0
  6 35  1  0
  7 36  1  0
 13 37  1  0
 13 38  1  0
 14 39  1  0
 14 40  1  0
 15 41  1  0
 15 42  1  0
 16 43  1  0
 16 44  1  0
 17 45  1  0
 19 46  1  0
 20 47  1  0
 21 48  1  0
 27 49  1  0
 27 50  1  0
 28 51  1  0
 28 52  1  0
 30 53  1  0
 30 54  1  0
 31 55  1  0
 31 56  1  0
 32 57  1  0
M  END
>  <UniqueID>  (4) 
4

>  <SMILES>  (4) 
O=C(Nc1cccc(S(=O)(=O)N2CCCC2)c1)c1cccc(S(=O)(=O)N2CCOCC2)c1

>  <Energy>  (4) 
77.90716870399253

>  <Genealogy>  (4) 
O=C(Nc1cccc(S(=O)(=O)N2CCCC2)c1)c1cccc(S(=O)(=O)N2CCOCC2)c1 (3D coordinates assigned)
O=C(Nc1cccc(S(=O)(=O)N2CCCC2)c1)c1cccc(S(=O)(=O)N2CCOCC2)c1 (nonaromatic ring conformer: 77.90716870399253 kcal/mol)

>  <smiles>  (4) 
O=C(Nc1cccc(S(=O)(=O)N2CCCC2)c1)c1cccc(S(=O)(=O)N2CCOCC2)c1

>  <score_type>  (4) 
oracle

>  <origin>  (4) 
adgpu

>  <m_score__min__energy>  (4) 
-11.66

>  <m_primary>  (4) 
energy

$$$$
4:0
     RDKit          3D

 47 49  0  0  0  0  0  0  0  0999 V2000
    4.0460   22.1520  -37.8100 H   0  0  0  0  0  0  0  0  0  0  0  0
    4.0850   21.1360  -38.0510 N   0  0  0  0  0  0  0  0  0  0  0  0
    3.9290   20.2610  -36.5700 S   0  0  0  0  0  0  0  0  0  0  0  0
    3.9300   18.7880  -36.8690 O   0  0  0  0  0  0  0  0  0  0  0  0
    5.0910   20.5740  -35.6710 O   0  0  0  0  0  0  0  0  0  0  0  0
    2.4280   20.7190  -35.7700 C   0  0  0  0  0  0  0  0  0  0  0  0
    1.4270   21.4100  -36.4660 C   0  0  0  0  0  0  0  0  0  0  0  0
    1.5739   21.6672  -37.5254 H   0  0  0  0  0  0  0  0  0  0  0  0
    0.2410   21.7740  -35.8180 C   0  0  0  0  0  0  0  0  0  0  0  0
   -0.5497   22.2973  -36.3757 H   0  0  0  0  0  0  0  0  0  0  0  0
    0.0560   21.4730  -34.4550 C   0  0  0  0  0  0  0  0  0  0  0  0
   -1.1560   21.8010  -33.7550 N   0  0  0  0  0  0  0  0  0  0  0  0
   -2.1950   21.0390  -33.5750 C   0  0  0  0  0  0  0  0  0  0  0  0
   -2.2730   19.8020  -34.1360 N   0  0  0  0  0  0  0  0  0  0  0  0
   -3.3720   19.0240  -33.9730 C   0  0  0  0  0  0  0  0  0  0  0  0
   -3.4109   18.0258  -34.4336 H   0  0  0  0  0  0  0  0  0  0  0  0
   -4.4540   19.4870  -33.2220 C   0  0  0  0  0  0  0  0  0  0  0  0
   -5.8980   18.4850  -33.1330 Cl  0  0  0  0  0  0  0  0  0  0  0  0
   -4.3620   20.7680  -32.6400 C   0  0  0  0  0  0  0  0  0  0  0  0
   -5.3890   21.3350  -31.8690 O   0  0  0  0  0  0  0  0  0  0  0  0
   -5.3000   22.5410  -31.1590 C   0  0  0  0  0  0  0  0  0  0  0  0
   -6.1120   23.6000  -31.5780 C   0  0  0  0  0  0  0  0  0  0  0  0
   -6.7466   23.4812  -32.4686 H   0  0  0  0  0  0  0  0  0  0  0  0
   -6.1240   24.8040  -30.8770 C   0  0  0  0  0  0  0  0  0  0  0  0
   -6.7702   25.6287  -31.2122 H   0  0  0  0  0  0  0  0  0  0  0  0
   -5.3190   24.9640  -29.7530 C   0  0  0  0  0  0  0  0  0  0  0  0
   -5.3511   25.9091  -29.1912 H   0  0  0  0  0  0  0  0  0  0  0  0
   -4.4660   23.9320  -29.3280 C   0  0  0  0  0  0  0  0  0  0  0  0
   -3.6350   24.1400  -28.1750 N   0  0  0  0  0  0  0  0  0  0  0  0
   -3.9710   23.8110  -27.2420 H   0  0  0  0  0  0  0  0  0  0  0  0
   -2.3390   24.7510  -28.2560 C   0  0  0  0  0  0  0  0  0  0  0  0
   -1.9550   25.2810  -29.3360 O   0  0  0  0  0  0  0  0  0  0  0  0
   -1.4680   24.7750  -27.0660 C   0  0  0  0  0  0  0  0  0  0  0  0
   -0.5031   24.2484  -27.1065 H   0  0  0  0  0  0  0  0  0  0  0  0
   -1.8040   25.4090  -25.9450 C   0  0  0  0  0  0  0  0  0  0  0  0
   -1.1218   25.3996  -25.0822 H   0  0  0  0  0  0  0  0  0  0  0  0
   -2.7639   25.9424  -25.8814 H   0  0  0  0  0  0  0  0  0  0  0  0
   -4.4160   22.7190  -30.0620 C   0  0  0  0  0  0  0  0  0  0  0  0
   -3.4790   21.6100  -29.6470 C   0  0  0  0  0  0  0  0  0  0  0  0
   -3.4354   21.5584  -28.5491 H   0  0  0  0  0  0  0  0  0  0  0  0
   -3.8455   20.6522  -30.0448 H   0  0  0  0  0  0  0  0  0  0  0  0
   -2.4734   21.8115  -30.0448 H   0  0  0  0  0  0  0  0  0  0  0  0
   -3.2420   21.5100  -32.8500 N   0  0  0  0  0  0  0  0  0  0  0  0
    1.0490   20.7580  -33.7750 C   0  0  0  0  0  0  0  0  0  0  0  0
    0.8967   20.4811  -32.7214 H   0  0  0  0  0  0  0  0  0  0  0  0
    2.2320   20.3930  -34.4230 C   0  0  0  0  0  0  0  0  0  0  0  0
    3.0123   19.8473  -33.8723 H   0  0  0  0  0  0  0  0  0  0  0  0
  1  2  1  0
  2  3  1  0
  3  4  2  0
  3  5  2  0
  3  6  1  0
  6  7  2  0
  7  8  1  0
  7  9  1  0
  9 10  1  0
  9 11  2  0
 11 12  1  0
 12 13  2  0
 13 14  1  0
 14 15  2  0
 15 16  1  0
 15 17  1  0
 17 18  1  0
 17 19  2  0
 19 20  1  0
 20 21  1  0
 21 22  2  0
 22 23  1  0
 22 24  1  0
 24 25  1  0
 24 26  2  0
 26 27  1  0
 26 28  1  0
 28 29  1  0
 29 30  1  0
 29 31  1  0
 31 32  2  0
 31 33  1  0
 33 34  1  0
 33 35  2  0
 35 36  1  0
 35 37  1  0
 28 38  2  0
 38 39  1  0
 39 40  1  0
 39 41  1  0
 39 42  1  0
 19 43  1  0
 11 44  1  0
 44 45  1  0
 44 46  2  0
 46 47  1  0
 46  6  1  0
 43 13  1  0
 38 21  1  0
M  CHG  2   2  -1  43  -1
M  END
>  <UniqueID>  (5) 
5

>  <SMILES>  (5) 
C=CC(=O)Nc1cccc(Oc2[n-]/c(=N/c3ccc(S([NH-])(=O)=O)cc3)ncc2Cl)c1C

>  <Energy>  (5) 
72.5850404221608

>  <Genealogy>  (5) 
C=CC(=O)Nc1cccc(Oc2[n-]c(=Nc3ccc(S([NH-])(=O)=O)cc3)ncc2Cl)c1C (protonated)
C=CC(=O)Nc1cccc(Oc2[n-]/c(=N/c3ccc(S([NH-])(=O)=O)cc3)ncc2Cl)c1C (cis-trans isomerization)
C=CC(=O)Nc1cccc(Oc2[n-]/c(=N/c3ccc(S([NH-])(=O)=O)cc3)ncc2Cl)c1C (3D coordinates assigned)
C=CC(=O)Nc1cccc(Oc2[n-]/c(=N/c3ccc(S([NH-])(=O)=O)cc3)ncc2Cl)c1C (optimized conformer: 72.5850404221608 kcal/mol)

>  <smiles>  (5) 
C=CC(=O)Nc1cccc(Oc2[nH]c(=Nc3ccc(S(N)(=O)=O)cc3)ncc2Cl)c1C

>  <score_type>  (5) 
oracle

>  <origin>  (5) 
adgpu

>  <m_score__min__energy>  (5) 
-10.109999999999999

>  <m_primary>  (5) 
energy

$$$$
5:0
     RDKit          3D

 39 41  0  0  0  0  0  0  0  0999 V2000
   -5.4880   18.7370  -31.6230 H   0  0  0  0  0  0  0  0  0  0  0  0
   -5.8410   17.9700  -32.2380 N   0  0  0  0  0  0  0  0  0  0  0  0
   -5.2210   18.2610  -33.8250 S   0  0  0  0  0  0  0  0  0  0  0  0
   -5.3110   17.0040  -34.6440 O   0  0  0  0  0  0  0  0  0  0  0  0
   -6.0540   19.3240  -34.4850 O   0  0  0  0  0  0  0  0  0  0  0  0
   -3.5350   18.7830  -33.7180 C   0  0  0  0  0  0  0  0  0  0  0  0
   -2.5720   18.1950  -34.5550 C   0  0  0  0  0  0  0  0  0  0  0  0
   -2.8705   17.4076  -35.2628 H   0  0  0  0  0  0  0  0  0  0  0  0
   -1.2380   18.6040  -34.4940 C   0  0  0  0  0  0  0  0  0  0  0  0
   -0.4888   18.1351  -35.1488 H   0  0  0  0  0  0  0  0  0  0  0  0
   -0.8550   19.6070  -33.6030 C   0  0  0  0  0  0  0  0  0  0  0  0
    0.1948   19.9327  -33.5617 H   0  0  0  0  0  0  0  0  0  0  0  0
   -1.8010   20.1980  -32.7640 C   0  0  0  0  0  0  0  0  0  0  0  0
   -1.4944   20.9942  -32.0697 H   0  0  0  0  0  0  0  0  0  0  0  0
   -3.1460   19.7810  -32.8010 C   0  0  0  0  0  0  0  0  0  0  0  0
   -4.1370   20.3990  -31.9640 N   0  0  0  0  0  0  0  0  0  0  0  0
   -4.5500   21.7690  -32.0140 C   0  0  0  0  0  0  0  0  0  0  0  0
   -3.6940   22.6840  -32.1450 O   0  0  0  0  0  0  0  0  0  0  0  0
   -5.9740   22.1010  -31.8430 C   0  0  0  0  0  0  0  0  0  0  0  0
   -7.2330   21.2510  -32.5660 S   0  0  0  0  0  0  0  0  0  0  0  0
   -8.4860   22.1750  -31.9350 C   0  0  0  0  0  0  0  0  0  0  0  0
   -9.5594   22.0127  -32.1123 H   0  0  0  0  0  0  0  0  0  0  0  0
   -7.9330   23.1790  -31.1510 C   0  0  0  0  0  0  0  0  0  0  0  0
   -8.5378   23.9298  -30.6214 H   0  0  0  0  0  0  0  0  0  0  0  0
   -6.5310   23.1470  -31.0970 C   0  0  0  0  0  0  0  0  0  0  0  0
   -5.5980   24.3720  -30.2420 S   0  0  0  0  0  0  0  0  0  0  0  0
   -6.5190   25.1310  -29.3270 O   0  0  0  0  0  0  0  0  0  0  0  0
   -4.9700   25.3230  -31.2210 O   0  0  0  0  0  0  0  0  0  0  0  0
   -4.3470   23.5850  -29.3360 N   0  0  0  0  0  0  0  0  0  0  0  0
   -3.1870   24.1180  -29.1150 C   0  0  0  0  0  0  0  0  0  0  0  0
   -2.8050   25.2950  -29.5510 O   0  0  0  0  0  0  0  0  0  0  0  0
   -1.5940   25.5600  -29.1510 N   0  0  0  0  0  0  0  0  0  0  0  0
   -1.1760   24.4970  -28.4320 C   0  0  0  0  0  0  0  0  0  0  0  0
    0.1520   24.4160  -27.7540 C   0  0  0  0  0  0  0  0  0  0  0  0
    0.0081   24.4248  -26.6635 H   0  0  0  0  0  0  0  0  0  0  0  0
    0.6584   23.4853  -28.0495 H   0  0  0  0  0  0  0  0  0  0  0  0
    0.7678   25.2783  -28.0495 H   0  0  0  0  0  0  0  0  0  0  0  0
   -2.1760   23.5470  -28.3820 C   0  0  0  0  0  0  0  0  0  0  0  0
   -2.1800   21.8680  -27.4700 Br  0  0  0  0  0  0  0  0  0  0  0  0
  1  2  1  0
  2  3  1  0
  3  4  2  0
  3  5  2  0
  3  6  1  0
  6  7  2  0
  7  8  1  0
  7  9  1  0
  9 10  1  0
  9 11  2  0
 11 12  1  0
 11 13  1  0
 13 14  1  0
 13 15  2  0
 15 16  1  0
 16 17  1  0
 17 18  2  0
 17 19  1  0
 19 20  1  0
 20 21  1  0
 21 22  1  0
 21 23  2  0
 23 24  1  0
 23 25  1  0
 25 26  1  0
 26 27  2  0
 26 28  2  0
 26 29  1  0
 29 30  2  0
 30 31  1  0
 31 32  1  0
 32 33  1  0
 33 34  1  0
 34 35  1  0
 34 36  1  0
 34 37  1  0
 33 38  2  0
 38 39  1  0
 15  6  1  0
 25 19  2  0
 38 30  1  0
M  CHG  3   2  -1  16  -1  32  -1
M  END
>  <UniqueID>  (6) 
6

>  <SMILES>  (6) 
Cc1[n-]o/c(=N\S(=O)(=O)c2ccsc2C(=O)[N-]c2ccccc2S([NH-])(=O)=O)c1Br

>  <Energy>  (6) 
105.33315573893432

>  <Genealogy>  (6) 
Cc1[n-]oc(=NS(=O)(=O)c2ccsc2C(=O)[N-]c2ccccc2S([NH-])(=O)=O)c1Br (protonated)
Cc1[n-]o/c(=N\S(=O)(=O)c2ccsc2C(=O)[N-]c2ccccc2S([NH-])(=O)=O)c1Br (cis-trans isomerization)
Cc1[n-]o/c(=N\S(=O)(=O)c2ccsc2C(=O)[N-]c2ccccc2S([NH-])(=O)=O)c1Br (3D coordinates assigned)
Cc1[n-]o/c(=N\S(=O)(=O)c2ccsc2C(=O)[N-]c2ccccc2S([NH-])(=O)=O)c1Br (optimized conformer: 105.33315573893432 kcal/mol)

>  <smiles>  (6) 
Cc1[nH]oc(=NS(=O)(=O)c2ccsc2C(=O)Nc2ccccc2S(N)(=O)=O)c1Br

>  <score_type>  (6) 
oracle

>  <origin>  (6) 
adgpu

>  <m_score__min__energy>  (6) 
-12.289999999999999

>  <m_primary>  (6) 
energy

$$$$
6:0
     RDKit          3D

 51 52  0  0  0  0  0  0  0  0999 V2000
   -3.5280   18.6560  -25.9900 C   0  0  0  0  0  0  0  0  0  0  0  0
   -2.2110   19.1470  -26.5240 C   0  0  0  0  0  0  0  0  0  0  0  0
   -1.6060   18.4490  -27.3240 O   0  0  0  0  0  0  0  0  0  0  0  0
   -1.5950   20.4660  -26.1150 C   0  0  0  0  0  0  0  0  0  0  0  0
   -0.6330   21.0670  -27.1500 C   0  0  0  0  0  0  0  0  0  0  0  0
   -1.3140   22.1750  -27.9260 C   0  0  0  0  0  0  0  0  0  0  0  0
   -2.1510   21.8670  -29.0170 C   0  0  0  0  0  0  0  0  0  0  0  0
   -2.3180   20.5240  -29.3700 O   0  0  0  0  0  0  0  0  0  0  0  0
   -2.7960   22.9080  -29.7330 C   0  0  0  0  0  0  0  0  0  0  0  0
   -3.7740   22.5990  -30.8530 C   0  0  0  0  0  0  0  0  0  0  0  0
   -3.1010   21.9300  -32.0300 C   0  0  0  0  0  0  0  0  0  0  0  0
   -3.5780   20.8430  -32.6770 C   0  0  0  0  0  0  0  0  0  0  0  0
   -4.8610   20.1630  -32.2680 C   0  0  0  0  0  0  0  0  0  0  0  0
   -2.7990   20.3080  -33.8510 C   0  0  0  0  0  0  0  0  0  0  0  0
   -2.5140   24.2490  -29.3980 C   0  0  0  0  0  0  0  0  0  0  0  0
   -3.1120   25.2890  -30.1080 O   0  0  0  0  0  0  0  0  0  0  0  0
   -1.6330   24.5550  -28.3480 C   0  0  0  0  0  0  0  0  0  0  0  0
   -1.0550   23.5170  -27.5970 C   0  0  0  0  0  0  0  0  0  0  0  0
   -0.1910   23.8120  -26.5330 O   0  0  0  0  0  0  0  0  0  0  0  0
   -0.0080   25.1280  -26.0060 C   0  0  0  0  0  0  0  0  0  0  0  0
    1.3770   25.1910  -25.3470 C   0  0  0  0  0  0  0  0  0  0  0  0
   -1.0880   25.3970  -24.9410 C   0  0  0  0  0  0  0  0  0  0  0  0
   -0.0810   26.1590  -27.1550 C   0  0  0  0  0  0  0  0  0  0  0  0
   -1.3610   25.9970  -27.9860 C   0  0  0  0  0  0  0  0  0  0  0  0
   -3.5040   18.6649  -24.8903 H   0  0  0  0  0  0  0  0  0  0  0  0
   -4.3355   19.3135  -26.3445 H   0  0  0  0  0  0  0  0  0  0  0  0
   -3.7080   17.6304  -26.3445 H   0  0  0  0  0  0  0  0  0  0  0  0
   -2.4082   21.1864  -25.9427 H   0  0  0  0  0  0  0  0  0  0  0  0
   -0.9989   20.2666  -25.2122 H   0  0  0  0  0  0  0  0  0  0  0  0
    0.2470   21.4759  -26.6318 H   0  0  0  0  0  0  0  0  0  0  0  0
   -0.3266   20.2773  -27.8518 H   0  0  0  0  0  0  0  0  0  0  0  0
   -1.9830   19.7490  -28.8160 H   0  0  0  0  0  0  0  0  0  0  0  0
   -4.5568   21.9304  -30.4654 H   0  0  0  0  0  0  0  0  0  0  0  0
   -4.1986   23.5514  -31.2031 H   0  0  0  0  0  0  0  0  0  0  0  0
   -2.1531   22.3595  -32.3863 H   0  0  0  0  0  0  0  0  0  0  0  0
   -4.9244   20.1294  -31.1703 H   0  0  0  0  0  0  0  0  0  0  0  0
   -5.7177   20.7255  -32.6677 H   0  0  0  0  0  0  0  0  0  0  0  0
   -4.8765   19.1383  -32.6677 H   0  0  0  0  0  0  0  0  0  0  0  0
   -1.9435   19.7205  -33.4863 H   0  0  0  0  0  0  0  0  0  0  0  0
   -3.4509   19.6662  -34.4618 H   0  0  0  0  0  0  0  0  0  0  0  0
   -2.4340   21.1469  -34.4618 H   0  0  0  0  0  0  0  0  0  0  0  0
    1.2631   25.1858  -24.2529 H   0  0  0  0  0  0  0  0  0  0  0  0
    1.9710   24.3189  -25.6579 H   0  0  0  0  0  0  0  0  0  0  0  0
    1.8894   26.1134  -25.6579 H   0  0  0  0  0  0  0  0  0  0  0  0
   -0.6493   25.2877  -23.9382 H   0  0  0  0  0  0  0  0  0  0  0  0
   -1.4759   26.4192  -25.0622 H   0  0  0  0  0  0  0  0  0  0  0  0
   -1.9100   24.6762  -25.0622 H   0  0  0  0  0  0  0  0  0  0  0  0
   -0.0607   27.1718  -26.7263 H   0  0  0  0  0  0  0  0  0  0  0  0
    0.7805   25.9930  -27.8185 H   0  0  0  0  0  0  0  0  0  0  0  0
   -2.2114   26.3818  -27.4039 H   0  0  0  0  0  0  0  0  0  0  0  0
   -1.2270   26.5588  -28.9222 H   0  0  0  0  0  0  0  0  0  0  0  0
  1  2  1  0
  2  3  2  0
  2  4  1  0
  4  5  1  0
  5  6  1  0
  6  7  2  0
  7  8  1  0
  7  9  1  0
  9 10  1  0
 10 11  1  0
 11 12  2  3
 12 13  1  0
 12 14  1  0
  9 15  2  0
 15 16  1  0
 15 17  1  0
 17 18  2  0
 18 19  1  0
 19 20  1  0
 20 21  1  0
 20 22  1  0
 20 23  1  0
 23 24  1  0
 18  6  1  0
 24 17  1  0
  1 25  1  0
  1 26  1  0
  1 27  1  0
  4 28  1  0
  4 29  1  0
  5 30  1  0
  5 31  1  0
  8 32  1  0
 10 33  1  0
 10 34  1  0
 11 35  1  0
 13 36  1  0
 13 37  1  0
 13 38  1  0
 14 39  1  0
 14 40  1  0
 14 41  1  0
 21 42  1  0
 21 43  1  0
 21 44  1  0
 22 45  1  0
 22 46  1  0
 22 47  1  0
 23 48  1  0
 23 49  1  0
 24 50  1  0
 24 51  1  0
M  CHG  1  16  -1
M  END
>  <UniqueID>  (7) 
7

>  <SMILES>  (7) 
CC(=O)CCc1c(O)c(CC=C(C)C)c([O-])c2c1OC(C)(C)CC2

>  <Energy>  (7) 
42.740986592162926

>  <Genealogy>  (7) 
CC(=O)CCc1c(O)c(CC=C(C)C)c([O-])c2c1OC(C)(C)CC2 (protonated)
CC(=O)CCc1c(O)c(CC=C(C)C)c([O-])c2c1OC(C)(C)CC2 (3D coordinates assigned)
CC(=O)CCc1c(O)c(CC=C(C)C)c([O-])c2c1OC(C)(C)CC2 (nonaromatic ring conformer: 42.740986592162926 kcal/mol)

>  <smiles>  (7) 
CC(=O)CCc1c(O)c(CC=C(C)C)c(O)c2c1OC(C)(C)CC2

>  <score_type>  (7) 
oracle

>  <origin>  (7) 
adgpu

>  <m_score__min__energy>  (7) 
-9.6799999999999997

>  <m_primary>  (7) 
energy

$$$$
7:0
     RDKit          3D

 55 58  0  0  0  0  0  0  0  0999 V2000
   -6.8500   21.4210  -33.0920 O   0  0  0  0  0  0  0  0  0  0  0  0
   -6.0880   21.5620  -32.0950 C   0  0  0  0  0  0  0  0  0  0  0  0
   -5.2960   20.4510  -31.6450 N   0  0  0  0  0  0  0  0  0  0  0  0
   -4.8640   19.3760  -32.4980 C   0  0  0  0  0  0  0  0  0  0  0  0
   -5.8230   18.5230  -33.0620 C   0  0  0  0  0  0  0  0  0  0  0  0
   -5.4330   17.4790  -33.8970 C   0  0  0  0  0  0  0  0  0  0  0  0
   -4.0810   17.2720  -34.1790 C   0  0  0  0  0  0  0  0  0  0  0  0
   -3.1070   18.0940  -33.6020 C   0  0  0  0  0  0  0  0  0  0  0  0
   -1.3980   17.8360  -33.9720 S   0  0  0  0  0  0  0  0  0  0  0  0
   -0.8550   16.7580  -33.0730 O   0  0  0  0  0  0  0  0  0  0  0  0
   -1.2790   17.3530  -35.3920 O   0  0  0  0  0  0  0  0  0  0  0  0
   -0.4300   19.2750  -33.7770 N   0  0  0  0  0  0  0  0  0  0  0  0
   -1.1170   20.4820  -34.2330 C   0  0  0  0  0  0  0  0  0  0  0  0
   -0.0280   21.4820  -34.5970 C   0  0  0  0  0  0  0  0  0  0  0  0
    1.2330   20.6530  -34.7840 C   0  0  0  0  0  0  0  0  0  0  0  0
    0.8030   19.2140  -34.5590 C   0  0  0  0  0  0  0  0  0  0  0  0
   -3.4990   19.1340  -32.7510 C   0  0  0  0  0  0  0  0  0  0  0  0
   -6.0550   22.8630  -31.3800 C   0  0  0  0  0  0  0  0  0  0  0  0
   -7.2270   23.4220  -30.8360 C   0  0  0  0  0  0  0  0  0  0  0  0
   -7.1760   24.6410  -30.1530 C   0  0  0  0  0  0  0  0  0  0  0  0
   -5.9600   25.3010  -29.9770 C   0  0  0  0  0  0  0  0  0  0  0  0
   -4.7740   24.7280  -30.4590 C   0  0  0  0  0  0  0  0  0  0  0  0
   -3.5000   25.2970  -30.1770 N   0  0  0  0  0  0  0  0  0  0  0  0
   -2.3590   24.6530  -29.0400 S   0  0  0  0  0  0  0  0  0  0  0  0
   -1.0540   25.3850  -29.1960 O   0  0  0  0  0  0  0  0  0  0  0  0
   -2.8800   24.8610  -27.6410 O   0  0  0  0  0  0  0  0  0  0  0  0
   -2.0630   22.9510  -29.3750 C   0  0  0  0  0  0  0  0  0  0  0  0
   -2.6290   21.9530  -28.5720 C   0  0  0  0  0  0  0  0  0  0  0  0
   -2.4000   20.6080  -28.8610 C   0  0  0  0  0  0  0  0  0  0  0  0
   -1.6080   20.2540  -29.9550 C   0  0  0  0  0  0  0  0  0  0  0  0
   -1.0410   21.2450  -30.7590 C   0  0  0  0  0  0  0  0  0  0  0  0
   -1.2600   22.5910  -30.4660 C   0  0  0  0  0  0  0  0  0  0  0  0
   -4.8310   23.5350  -31.1900 C   0  0  0  0  0  0  0  0  0  0  0  0
   -5.1600   20.3430  -30.6180 H   0  0  0  0  0  0  0  0  0  0  0  0
   -6.8897   18.6793  -32.8437 H   0  0  0  0  0  0  0  0  0  0  0  0
   -6.1924   16.8152  -34.3359 H   0  0  0  0  0  0  0  0  0  0  0  0
   -3.7808   16.4597  -34.8573 H   0  0  0  0  0  0  0  0  0  0  0  0
   -1.7376   20.2575  -35.1131 H   0  0  0  0  0  0  0  0  0  0  0  0
   -1.7825   20.8817  -33.4537 H   0  0  0  0  0  0  0  0  0  0  0  0
   -0.2843   22.0086  -35.5281 H   0  0  0  0  0  0  0  0  0  0  0  0
    0.0985   22.2508  -33.8205 H   0  0  0  0  0  0  0  0  0  0  0  0
    1.6314   20.7816  -35.8012 H   0  0  0  0  0  0  0  0  0  0  0  0
    2.0302   20.9564  -34.0894 H   0  0  0  0  0  0  0  0  0  0  0  0
    0.6194   18.7157  -35.5223 H   0  0  0  0  0  0  0  0  0  0  0  0
    1.5818   18.6399  -34.0357 H   0  0  0  0  0  0  0  0  0  0  0  0
   -2.7354   19.7674  -32.2759 H   0  0  0  0  0  0  0  0  0  0  0  0
   -8.1872   22.8974  -30.9488 H   0  0  0  0  0  0  0  0  0  0  0  0
   -8.1005   25.0821  -29.7521 H   0  0  0  0  0  0  0  0  0  0  0  0
   -5.9311   26.2714  -29.4599 H   0  0  0  0  0  0  0  0  0  0  0  0
   -3.2555   22.2305  -27.7115 H   0  0  0  0  0  0  0  0  0  0  0  0
   -2.8434   19.8260  -28.2270 H   0  0  0  0  0  0  0  0  0  0  0  0
   -1.4304   19.1928  -30.1839 H   0  0  0  0  0  0  0  0  0  0  0  0
   -0.4216   20.9641  -31.6235 H   0  0  0  0  0  0  0  0  0  0  0  0
   -0.8019   23.3710  -31.0919 H   0  0  0  0  0  0  0  0  0  0  0  0
   -3.9092   23.1174  -31.6211 H   0  0  0  0  0  0  0  0  0  0  0  0
  1  2  2  0
  2  3  1  0
  3  4  1  0
  4  5  2  0
  5  6  1  0
  6  7  2  0
  7  8  1  0
  8  9  1  0
  9 10  2  0
  9 11  2  0
  9 12  1  0
 12 13  1  0
 13 14  1  0
 14 15  1  0
 15 16  1  0
  8 17  2  0
  2 18  1  0
 18 19  2  0
 19 20  1  0
 20 21  2  0
 21 22  1  0
 22 23  1  0
 23 24  1  0
 24 25  2  0
 24 26  2  0
 24 27  1  0
 27 28  2  0
 28 29  1  0
 29 30  2  0
 30 31  1  0
 31 32  2  0
 22 33  2  0
 17  4  1  0
 33 18  1  0
 16 12  1  0
 32 27  1  0
  3 34  1  0
  5 35  1  0
  6 36  1  0
  7 37  1  0
 13 38  1  0
 13 39  1  0
 14 40  1  0
 14 41  1  0
 15 42  1  0
 15 43  1  0
 16 44  1  0
 16 45  1  0
 17 46  1  0
 19 47  1  0
 20 48  1  0
 21 49  1  0
 28 50  1  0
 29 51  1  0
 30 52  1  0
 31 53  1  0
 32 54  1  0
 33 55  1  0
M  CHG  1  23  -1
M  END
>  <UniqueID>  (8) 
8

>  <SMILES>  (8) 
O=C(Nc1cccc(S(=O)(=O)N2CCCC2)c1)c1cccc([N-]S(=O)(=O)c2ccccc2)c1

>  <Energy>  (8) 
70.30627540771712

>  <Genealogy>  (8) 
O=C(Nc1cccc(S(=O)(=O)N2CCCC2)c1)c1cccc([N-]S(=O)(=O)c2ccccc2)c1 (protonated)
O=C(Nc1cccc(S(=O)(=O)N2CCCC2)c1)c1cccc([N-]S(=O)(=O)c2ccccc2)c1 (3D coordinates assigned)
O=C(Nc1cccc(S(=O)(=O)N2CCCC2)c1)c1cccc([N-]S(=O)(=O)c2ccccc2)c1 (nonaromatic ring conformer: 70.30627540771712 kcal/mol)

>  <smiles>  (8) 
O=C(Nc1cccc(S(=O)(=O)N2CCCC2)c1)c1cccc(NS(=O)(=O)c2ccccc2)c1

>  <score_type>  (8) 
oracle

>  <origin>  (8) 
adgpu

>  <m_score__min__energy>  (8) 
-11.41

>  <m_primary>  (8) 
energy

$$$$
8:0
     RDKit          3D

 43 44  0  0  0  0  0  0  0  0999 V2000
   -4.6060   14.5460  -31.9600 C   0  0  0  0  0  0  0  0  0  0  0  0
   -4.1430   15.2250  -32.8430 C   0  0  0  0  0  0  0  0  0  0  0  0
   -3.5790   16.0500  -33.9170 C   0  0  0  0  0  0  0  0  0  0  0  0
   -4.6960   16.5990  -34.8100 C   0  0  0  0  0  0  0  0  0  0  0  0
   -6.1110   16.3390  -34.2510 C   0  0  0  0  0  0  0  0  0  0  0  0
   -6.7730   17.5700  -33.7310 N   0  0  0  0  0  0  0  0  0  0  0  0
   -7.0410   17.4380  -32.2750 C   0  0  0  0  0  0  0  0  0  0  0  0
   -7.2440   18.8090  -31.6220 C   0  0  0  0  0  0  0  0  0  0  0  0
   -6.0020   19.6070  -31.6780 N   0  0  0  0  0  0  0  0  0  0  0  0
   -6.3750   21.3100  -31.5490 S   0  0  0  0  0  0  0  0  0  0  0  0
   -6.6780   21.8660  -32.9120 O   0  0  0  0  0  0  0  0  0  0  0  0
   -7.5800   21.5090  -30.6700 O   0  0  0  0  0  0  0  0  0  0  0  0
   -4.9940   22.1750  -30.8790 C   0  0  0  0  0  0  0  0  0  0  0  0
   -3.9140   21.4760  -30.3270 C   0  0  0  0  0  0  0  0  0  0  0  0
   -2.8140   22.1690  -29.8180 C   0  0  0  0  0  0  0  0  0  0  0  0
   -2.7690   23.5760  -29.8550 C   0  0  0  0  0  0  0  0  0  0  0  0
   -1.5860   24.2870  -29.3060 C   0  0  0  0  0  0  0  0  0  0  0  0
   -0.6150   23.6380  -28.8340 O   0  0  0  0  0  0  0  0  0  0  0  0
   -1.5230   25.6760  -29.3000 O   0  0  0  0  0  0  0  0  0  0  0  0
   -3.8590   24.2750  -30.4200 C   0  0  0  0  0  0  0  0  0  0  0  0
   -3.8690   25.6630  -30.4890 O   0  0  0  0  0  0  0  0  0  0  0  0
   -4.9580   23.5720  -30.9280 C   0  0  0  0  0  0  0  0  0  0  0  0
   -5.1720   19.3290  -32.8730 C   0  0  0  0  0  0  0  0  0  0  0  0
   -5.9990   18.8050  -34.0610 C   0  0  0  0  0  0  0  0  0  0  0  0
   -5.0282   13.9268  -31.1548 H   0  0  0  0  0  0  0  0  0  0  0  0
   -3.0224   16.8896  -33.4751 H   0  0  0  0  0  0  0  0  0  0  0  0
   -2.9057   15.4303  -34.5274 H   0  0  0  0  0  0  0  0  0  0  0  0
   -4.5566   17.6851  -34.9149 H   0  0  0  0  0  0  0  0  0  0  0  0
   -4.6269   16.0760  -35.7752 H   0  0  0  0  0  0  0  0  0  0  0  0
   -6.7334   15.9208  -35.0558 H   0  0  0  0  0  0  0  0  0  0  0  0
   -6.0056   15.6429  -33.4058 H   0  0  0  0  0  0  0  0  0  0  0  0
   -7.7110   17.6650  -34.1890 H   0  0  0  0  0  0  0  0  0  0  0  0
   -7.9489   16.8340  -32.1307 H   0  0  0  0  0  0  0  0  0  0  0  0
   -6.1733   16.9531  -31.8039 H   0  0  0  0  0  0  0  0  0  0  0  0
   -8.0424   19.3470  -32.1541 H   0  0  0  0  0  0  0  0  0  0  0  0
   -7.5192   18.6595  -30.5675 H   0  0  0  0  0  0  0  0  0  0  0  0
   -3.9321   20.3766  -30.2942 H   0  0  0  0  0  0  0  0  0  0  0  0
   -1.9727   21.6094  -29.3830 H   0  0  0  0  0  0  0  0  0  0  0  0
   -5.8009   24.1237  -31.3697 H   0  0  0  0  0  0  0  0  0  0  0  0
   -4.6696   20.2592  -33.1768 H   0  0  0  0  0  0  0  0  0  0  0  0
   -4.4484   18.5465  -32.6006 H   0  0  0  0  0  0  0  0  0  0  0  0
   -6.7052   19.5896  -34.3703 H   0  0  0  0  0  0  0  0  0  0  0  0
   -5.2945   18.5479  -34.8658 H   0  0  0  0  0  0  0  0  0  0  0  0
  1  2  3  0
  2  3  1  0
  3  4  1  0
  4  5  1  0
  5  6  1  0
  6  7  1  0
  7  8  1  0
  8  9  1  0
  9 10  1  0
 10 11  2  0
 10 12  2  0
 10 13  1  0
 13 14  2  0
 14 15  1  0
 15 16  2  0
 16 17  1  0
 17 18  2  0
 17 19  1  0
 16 20  1  0
 20 21  1  0
 20 22  2  0
  9 23  1  0
 23 24  1  0
 24  6  1  0
 22 13  1  0
  1 25  1  0
  3 26  1  0
  3 27  1  0
  4 28  1  0
  4 29  1  0
  5 30  1  0
  5 31  1  0
  6 32  1  0
  7 33  1  0
  7 34  1  0
  8 35  1  0
  8 36  1  0
 14 37  1  0
 15 38  1  0
 22 39  1  0
 23 40  1  0
 23 41  1  0
 24 42  1  0
 24 43  1  0
M  CHG  3   6   1  19  -1  21  -1
M  END
>  <UniqueID>  (9) 
9

>  <SMILES>  (9) 
C#CCCC[NH+]1CCN(S(=O)(=O)c2ccc(C(=O)[O-])c([O-])c2)CC1

>  <Energy>  (9) 
53.811565819571

>  <Genealogy>  (9) 
C#CCCC[NH+]1CCN(S(=O)(=O)c2ccc(C(=O)[O-])c([O-])c2)CC1 (protonated)
C#CCCC[NH+]1CCN(S(=O)(=O)c2ccc(C(=O)[O-])c([O-])c2)CC1 (3D coordinates assigned)
C#CCCC[NH+]1CCN(S(=O)(=O)c2ccc(C(=O)[O-])c([O-])c2)CC1 (nonaromatic ring conformer: 53.811565819571 kcal/mol)

>  <smiles>  (9) 
C#CCCCN1CCN(S(=O)(=O)c2ccc(C(=O)O)c(O)c2)CC1

>  <score_type>  (9) 
oracle

>  <origin>  (9) 
adgpu

>  <m_score__min__energy>  (9) 
-11.949999999999999

>  <m_primary>  (9) 
energy

$$$$
9:0
     RDKit          3D

 42 44  0  0  0  0  0  0  0  0999 V2000
   -5.8330   24.2490  -31.9340 O   0  0  0  0  0  0  0  0  0  0  0  0
   -5.1570   23.2160  -31.6820 C   0  0  0  0  0  0  0  0  0  0  0  0
   -5.2670   22.0920  -32.5650 N   0  0  0  0  0  0  0  0  0  0  0  0
   -4.2220   21.1590  -32.8810 C   0  0  0  0  0  0  0  0  0  0  0  0
   -2.8700   21.5480  -32.8390 C   0  0  0  0  0  0  0  0  0  0  0  0
   -1.8600   20.6280  -33.1310 C   0  0  0  0  0  0  0  0  0  0  0  0
   -0.1800   21.1280  -33.0900 Cl  0  0  0  0  0  0  0  0  0  0  0  0
   -2.1880   19.3080  -33.4470 C   0  0  0  0  0  0  0  0  0  0  0  0
   -3.5250   18.9050  -33.4690 C   0  0  0  0  0  0  0  0  0  0  0  0
   -4.5470   19.8220  -33.1850 C   0  0  0  0  0  0  0  0  0  0  0  0
   -6.2360   19.2960  -33.2130 S   0  0  0  0  0  0  0  0  0  0  0  0
   -6.9700   20.1260  -34.2290 O   0  0  0  0  0  0  0  0  0  0  0  0
   -6.3190   17.8530  -33.6290 O   0  0  0  0  0  0  0  0  0  0  0  0
   -6.9710   19.5200  -31.6390 N   0  0  0  0  0  0  0  0  0  0  0  0
   -7.9300   18.4460  -31.3220 C   0  0  0  0  0  0  0  0  0  0  0  0
   -9.2490   18.5830  -32.1190 C   0  0  0  0  0  0  0  0  0  0  0  0
   -9.4570   19.8770  -32.6570 O   0  0  0  0  0  0  0  0  0  0  0  0
   -9.0970   20.8620  -31.7140 C   0  0  0  0  0  0  0  0  0  0  0  0
   -7.5720   20.8650  -31.5000 C   0  0  0  0  0  0  0  0  0  0  0  0
   -4.2240   23.2170  -30.5290 C   0  0  0  0  0  0  0  0  0  0  0  0
   -3.9440   22.0150  -29.8540 C   0  0  0  0  0  0  0  0  0  0  0  0
   -3.0720   22.0000  -28.7630 C   0  0  0  0  0  0  0  0  0  0  0  0
   -2.7150   20.3610  -27.8480 Br  0  0  0  0  0  0  0  0  0  0  0  0
   -2.4590   23.1820  -28.3410 C   0  0  0  0  0  0  0  0  0  0  0  0
   -2.7170   24.3790  -29.0100 C   0  0  0  0  0  0  0  0  0  0  0  0
   -3.5960   24.4070  -30.1030 C   0  0  0  0  0  0  0  0  0  0  0  0
   -3.8590   25.6140  -30.7500 O   0  0  0  0  0  0  0  0  0  0  0  0
   -2.6070   22.5828  -32.5746 H   0  0  0  0  0  0  0  0  0  0  0  0
   -1.3924   18.5847  -33.6789 H   0  0  0  0  0  0  0  0  0  0  0  0
   -3.7778   17.8620  -33.7106 H   0  0  0  0  0  0  0  0  0  0  0  0
   -7.4691   17.4771  -31.5646 H   0  0  0  0  0  0  0  0  0  0  0  0
   -8.1743   18.5178  -30.2519 H   0  0  0  0  0  0  0  0  0  0  0  0
   -9.2302   17.8608  -32.9485 H   0  0  0  0  0  0  0  0  0  0  0  0
  -10.0719   18.3914  -31.4146 H   0  0  0  0  0  0  0  0  0  0  0  0
   -9.4138   21.8492  -32.0815 H   0  0  0  0  0  0  0  0  0  0  0  0
   -9.5921   20.6394  -30.7573 H   0  0  0  0  0  0  0  0  0  0  0  0
   -7.1140   21.5333  -32.2441 H   0  0  0  0  0  0  0  0  0  0  0  0
   -7.3824   21.2079  -30.4722 H   0  0  0  0  0  0  0  0  0  0  0  0
   -4.4157   21.0791  -30.1882 H   0  0  0  0  0  0  0  0  0  0  0  0
   -1.7729   23.1692  -27.4813 H   0  0  0  0  0  0  0  0  0  0  0  0
   -2.2280   25.3068  -28.6782 H   0  0  0  0  0  0  0  0  0  0  0  0
   -4.2840   25.6430  -31.6700 H   0  0  0  0  0  0  0  0  0  0  0  0
  1  2  2  0
  2  3  1  0
  3  4  1  0
  4  5  2  0
  5  6  1  0
  6  7  1  0
  6  8  2  0
  8  9  1  0
  9 10  2  0
 10 11  1  0
 11 12  2  0
 11 13  2  0
 11 14  1  0
 14 15  1  0
 15 16  1  0
 16 17  1  0
 17 18  1  0
 18 19  1  0
  2 20  1  0
 20 21  2  0
 21 22  1  0
 22 23  1  0
 22 24  2  0
 24 25  1  0
 25 26  2  0
 26 27  1  0
 10  4  1  0
 19 14  1  0
 26 20  1  0
  5 28  1  0
  8 29  1  0
  9 30  1  0
 15 31  1  0
 15 32  1  0
 16 33  1  0
 16 34  1  0
 18 35  1  0
 18 36  1  0
 19 37  1  0
 19 38  1  0
 21 39  1  0
 24 40  1  0
 25 41  1  0
 27 42  1  0
M  CHG  1   3  -1
M  END
>  <UniqueID>  (10) 
10

>  <SMILES>  (10) 
O=C([N-]c1cc(Cl)ccc1S(=O)(=O)N1CCOCC1)c1cc(Br)ccc1O

>  <Energy>  (10) 
61.66881865404114

>  <Genealogy>  (10) 
O=C([N-]c1cc(Cl)ccc1S(=O)(=O)N1CCOCC1)c1cc(Br)ccc1O (protonated)
O=C([N-]c1cc(Cl)ccc1S(=O)(=O)N1CCOCC1)c1cc(Br)ccc1O (3D coordinates assigned)
O=C([N-]c1cc(Cl)ccc1S(=O)(=O)N1CCOCC1)c1cc(Br)ccc1O (nonaromatic ring conformer: 61.66881865404114 kcal/mol)

>  <smiles>  (10) 
O=C(Nc1cc(Cl)ccc1S(=O)(=O)N1CCOCC1)c1cc(Br)ccc1O

>  <score_type>  (10) 
oracle

>  <origin>  (10) 
adgpu

>  <m_score__min__energy>  (10) 
-11.08

>  <m_primary>  (10) 
energy

$$$$
10:0
     RDKit          3D

 45 48  0  0  0  0  0  0  0  0999 V2000
   -9.6750   21.5720  -30.4820 C   0  0  0  0  0  0  0  0  0  0  0  0
   -8.7980   21.1630  -31.5840 N   0  0  0  0  0  0  0  0  0  0  0  0
   -9.2230   20.1200  -32.5280 C   0  0  0  0  0  0  0  0  0  0  0  0
   -8.1030   19.0910  -32.7010 C   0  0  0  0  0  0  0  0  0  0  0  0
   -6.8810   19.7450  -33.0390 O   0  0  0  0  0  0  0  0  0  0  0  0
   -6.5180   20.9680  -32.4650 C   0  0  0  0  0  0  0  0  0  0  0  0
   -5.2200   21.4590  -32.6320 C   0  0  0  0  0  0  0  0  0  0  0  0
   -4.8390   22.6630  -32.0260 C   0  0  0  0  0  0  0  0  0  0  0  0
   -5.7640   23.3960  -31.2720 C   0  0  0  0  0  0  0  0  0  0  0  0
   -5.2510   24.8840  -30.4780 S   0  0  0  0  0  0  0  0  0  0  0  0
   -5.7860   26.0570  -31.2470 O   0  0  0  0  0  0  0  0  0  0  0  0
   -5.7770   24.9600  -29.0720 O   0  0  0  0  0  0  0  0  0  0  0  0
   -3.5190   24.9580  -30.4590 N   0  0  0  0  0  0  0  0  0  0  0  0
   -2.6640   24.1670  -29.6210 C   0  0  0  0  0  0  0  0  0  0  0  0
   -2.9410   22.8200  -29.3320 C   0  0  0  0  0  0  0  0  0  0  0  0
   -2.0910   22.0770  -28.5020 C   0  0  0  0  0  0  0  0  0  0  0  0
   -0.9320   22.6770  -27.9720 C   0  0  0  0  0  0  0  0  0  0  0  0
   -0.6580   24.0240  -28.2560 C   0  0  0  0  0  0  0  0  0  0  0  0
   -1.5200   24.7630  -29.0710 C   0  0  0  0  0  0  0  0  0  0  0  0
   -1.2320   26.1010  -29.3290 O   0  0  0  0  0  0  0  0  0  0  0  0
   -0.0260   21.9200  -27.0250 C   0  0  0  0  0  0  0  0  0  0  0  0
   -0.2130   20.4610  -27.1020 N   0  0  0  0  0  0  0  0  0  0  0  0
   -1.6340   20.1030  -27.0240 C   0  0  0  0  0  0  0  0  0  0  0  0
   -2.3980   20.6240  -28.2450 C   0  0  0  0  0  0  0  0  0  0  0  0
   -7.0790   22.9210  -31.1300 C   0  0  0  0  0  0  0  0  0  0  0  0
   -7.4620   21.6970  -31.7180 C   0  0  0  0  0  0  0  0  0  0  0  0
   -9.1880   21.3449  -29.5222 H   0  0  0  0  0  0  0  0  0  0  0  0
   -9.8678   22.6529  -30.5486 H   0  0  0  0  0  0  0  0  0  0  0  0
  -10.6270   21.0250  -30.5486 H   0  0  0  0  0  0  0  0  0  0  0  0
  -10.1221   19.6196  -32.1391 H   0  0  0  0  0  0  0  0  0  0  0  0
   -9.4474   20.5803  -33.5015 H   0  0  0  0  0  0  0  0  0  0  0  0
   -7.9703   18.5367  -31.7602 H   0  0  0  0  0  0  0  0  0  0  0  0
   -8.3747   18.3974  -33.5104 H   0  0  0  0  0  0  0  0  0  0  0  0
   -4.4957   20.8983  -33.2411 H   0  0  0  0  0  0  0  0  0  0  0  0
   -3.8100   23.0340  -32.1427 H   0  0  0  0  0  0  0  0  0  0  0  0
   -3.8346   22.3438  -29.7619 H   0  0  0  0  0  0  0  0  0  0  0  0
    0.2397   24.5004  -27.8350 H   0  0  0  0  0  0  0  0  0  0  0  0
    1.0191   22.1543  -27.2755 H   0  0  0  0  0  0  0  0  0  0  0  0
   -0.2797   22.2334  -26.0016 H   0  0  0  0  0  0  0  0  0  0  0  0
    0.1750   20.1190  -28.0150 H   0  0  0  0  0  0  0  0  0  0  0  0
   -1.7274   19.0078  -26.9814 H   0  0  0  0  0  0  0  0  0  0  0  0
   -2.0622   20.5612  -26.1203 H   0  0  0  0  0  0  0  0  0  0  0  0
   -2.1084   20.0347  -29.1275 H   0  0  0  0  0  0  0  0  0  0  0  0
   -3.4759   20.5256  -28.0490 H   0  0  0  0  0  0  0  0  0  0  0  0
   -7.8134   23.5065  -30.5575 H   0  0  0  0  0  0  0  0  0  0  0  0
  1  2  1  0
  2  3  1  0
  3  4  1  0
  4  5  1  0
  5  6  1  0
  6  7  2  0
  7  8  1  0
  8  9  2  0
  9 10  1  0
 10 11  2  0
 10 12  2  0
 10 13  1  0
 13 14  1  0
 14 15  2  0
 15 16  1  0
 16 17  2  0
 17 18  1  0
 18 19  2  0
 19 20  1  0
 17 21  1  0
 21 22  1  0
 22 23  1  0
 23 24  1  0
  9 25  1  0
 25 26  2  0
 26  2  1  0
 26  6  1  0
 19 14  1  0
 24 16  1  0
  1 27  1  0
  1 28  1  0
  1 29  1  0
  3 30  1  0
  3 31  1  0
  4 32  1  0
  4 33  1  0
  7 34  1  0
  8 35  1  0
 15 36  1  0
 18 37  1  0
 21 38  1  0
 21 39  1  0
 22 40  1  0
 23 41  1  0
 23 42  1  0
 24 43  1  0
 24 44  1  0
 25 45  1  0
M  CHG  2  13  -1  20  -1
M  END
>  <UniqueID>  (11) 
11

>  <SMILES>  (11) 
CN1CCOc2ccc(S(=O)(=O)[N-]c3cc4c(cc3[O-])CNCC4)cc21

>  <Energy>  (11) 
53.533177027072014

>  <Genealogy>  (11) 
CN1CCOc2ccc(S(=O)(=O)[N-]c3cc4c(cc3[O-])CNCC4)cc21 (protonated)
CN1CCOc2ccc(S(=O)(=O)[N-]c3cc4c(cc3[O-])CNCC4)cc21 (3D coordinates assigned)
CN1CCOc2ccc(S(=O)(=O)[N-]c3cc4c(cc3[O-])CNCC4)cc21 (nonaromatic ring conformer: 53.533177027072014 kcal/mol)

>  <smiles>  (11) 
CN1CCOc2ccc(S(=O)(=O)Nc3cc4c(cc3O)CNCC4)cc21

>  <score_type>  (11) 
oracle

>  <origin>  (11) 
adgpu

>  <m_score__min__energy>  (11) 
-13.82

>  <m_primary>  (11) 
energy

$$$$
11:0
     RDKit          3D

 48 52  0  0  0  0  0  0  0  0999 V2000
   -8.7260   18.7770  -31.8280 O   0  0  0  0  0  0  0  0  0  0  0  0
   -7.5920   19.2210  -32.1610 C   0  0  0  0  0  0  0  0  0  0  0  0
   -6.6920   18.3960  -33.0000 C   0  0  0  0  0  0  0  0  0  0  0  0
   -7.0860   17.1140  -33.4270 C   0  0  0  0  0  0  0  0  0  0  0  0
   -6.2330   16.3390  -34.2160 C   0  0  0  0  0  0  0  0  0  0  0  0
   -4.9820   16.8320  -34.5870 C   0  0  0  0  0  0  0  0  0  0  0  0
   -4.5780   18.1030  -34.1710 C   0  0  0  0  0  0  0  0  0  0  0  0
   -5.4260   18.8950  -33.3760 C   0  0  0  0  0  0  0  0  0  0  0  0
   -5.0010   20.2430  -32.9320 C   0  0  0  0  0  0  0  0  0  0  0  0
   -3.8690   20.6890  -33.2680 O   0  0  0  0  0  0  0  0  0  0  0  0
   -5.9000   21.0680  -32.0920 C   0  0  0  0  0  0  0  0  0  0  0  0
   -5.5030   22.3450  -31.6570 C   0  0  0  0  0  0  0  0  0  0  0  0
   -6.3450   23.1160  -30.8470 C   0  0  0  0  0  0  0  0  0  0  0  0
   -5.8200   24.6800  -30.2290 S   0  0  0  0  0  0  0  0  0  0  0  0
   -7.0310   25.5380  -29.9960 O   0  0  0  0  0  0  0  0  0  0  0  0
   -4.9170   25.3710  -31.2110 O   0  0  0  0  0  0  0  0  0  0  0  0
   -4.9730   24.4570  -28.7310 N   0  0  0  0  0  0  0  0  0  0  0  0
   -3.8230   23.6020  -28.6050 C   0  0  0  0  0  0  0  0  0  0  0  0
   -3.9290   22.3230  -28.0340 C   0  0  0  0  0  0  0  0  0  0  0  0
   -2.7990   21.5070  -27.8810 C   0  0  0  0  0  0  0  0  0  0  0  0
   -1.5380   21.9780  -28.2970 C   0  0  0  0  0  0  0  0  0  0  0  0
   -1.4370   23.2360  -28.9080 C   0  0  0  0  0  0  0  0  0  0  0  0
   -2.5670   24.0450  -29.0580 C   0  0  0  0  0  0  0  0  0  0  0  0
   -2.4300   25.2970  -29.6470 O   0  0  0  0  0  0  0  0  0  0  0  0
   -0.3120   21.1020  -28.1870 C   0  0  0  0  0  0  0  0  0  0  0  0
   -0.4680   20.0490  -27.1730 N   0  0  0  0  0  0  0  0  0  0  0  0
   -1.7050   19.2910  -27.3970 C   0  0  0  0  0  0  0  0  0  0  0  0
   -2.9380   20.1780  -27.1850 C   0  0  0  0  0  0  0  0  0  0  0  0
   -7.5970   22.6150  -30.4750 C   0  0  0  0  0  0  0  0  0  0  0  0
   -8.0070   21.3530  -30.9070 C   0  0  0  0  0  0  0  0  0  0  0  0
   -7.1650   20.5670  -31.7140 C   0  0  0  0  0  0  0  0  0  0  0  0
   -8.0715   16.7202  -33.1376 H   0  0  0  0  0  0  0  0  0  0  0  0
   -6.5483   15.3380  -34.5454 H   0  0  0  0  0  0  0  0  0  0  0  0
   -4.3124   16.2190  -35.2082 H   0  0  0  0  0  0  0  0  0  0  0  0
   -3.5905   18.4868  -34.4670 H   0  0  0  0  0  0  0  0  0  0  0  0
   -4.5216   22.7418  -31.9560 H   0  0  0  0  0  0  0  0  0  0  0  0
   -5.4260   24.8420  -27.8710 H   0  0  0  0  0  0  0  0  0  0  0  0
   -4.9117   21.9566  -27.7024 H   0  0  0  0  0  0  0  0  0  0  0  0
   -0.4609   23.5890  -29.2721 H   0  0  0  0  0  0  0  0  0  0  0  0
   -0.1265   20.6290  -29.1626 H   0  0  0  0  0  0  0  0  0  0  0  0
    0.5312   21.7397  -27.8830 H   0  0  0  0  0  0  0  0  0  0  0  0
   -0.5040   20.4930  -26.2250 H   0  0  0  0  0  0  0  0  0  0  0  0
   -1.7104   18.9076  -28.4280 H   0  0  0  0  0  0  0  0  0  0  0  0
   -1.7426   18.4601  -26.6771 H   0  0  0  0  0  0  0  0  0  0  0  0
   -3.8225   19.6588  -27.5827 H   0  0  0  0  0  0  0  0  0  0  0  0
   -3.0414   20.3667  -26.1063 H   0  0  0  0  0  0  0  0  0  0  0  0
   -8.2613   23.2186  -29.8391 H   0  0  0  0  0  0  0  0  0  0  0  0
   -8.9958   20.9702  -30.6142 H   0  0  0  0  0  0  0  0  0  0  0  0
  1  2  2  0
  2  3  1  0
  3  4  2  0
  4  5  1  0
  5  6  2  0
  6  7  1  0
  7  8  2  0
  8  9  1  0
  9 10  2  0
  9 11  1  0
 11 12  2  0
 12 13  1  0
 13 14  1  0
 14 15  2  0
 14 16  2  0
 14 17  1  0
 17 18  1  0
 18 19  2  0
 19 20  1  0
 20 21  2  0
 21 22  1  0
 22 23  2  0
 23 24  1  0
 21 25  1  0
 25 26  1  0
 26 27  1  0
 27 28  1  0
 13 29  2  0
 29 30  1  0
 30 31  2  0
 31  2  1  0
  8  3  1  0
 31 11  1  0
 23 18  1  0
 28 20  1  0
  4 32  1  0
  5 33  1  0
  6 34  1  0
  7 35  1  0
 12 36  1  0
 17 37  1  0
 19 38  1  0
 22 39  1  0
 25 40  1  0
 25 41  1  0
 26 42  1  0
 27 43  1  0
 27 44  1  0
 28 45  1  0
 28 46  1  0
 29 47  1  0
 30 48  1  0
M  CHG  1  24  -1
M  END
>  <UniqueID>  (12) 
12

>  <SMILES>  (12) 
O=C1c2ccccc2C(=O)c2cc(S(=O)(=O)Nc3cc4c(cc3[O-])CNCC4)ccc21

>  <Energy>  (12) 
63.43850001800129

>  <Genealogy>  (12) 
O=C1c2ccccc2C(=O)c2cc(S(=O)(=O)Nc3cc4c(cc3[O-])CNCC4)ccc21 (protonated)
O=C1c2ccccc2C(=O)c2cc(S(=O)(=O)Nc3cc4c(cc3[O-])CNCC4)ccc21 (3D coordinates assigned)
O=C1c2ccccc2C(=O)c2cc(S(=O)(=O)Nc3cc4c(cc3[O-])CNCC4)ccc21 (nonaromatic ring conformer: 63.43850001800129 kcal/mol)

>  <smiles>  (12) 
O=C1c2ccccc2C(=O)c2cc(S(=O)(=O)Nc3cc4c(cc3O)CNCC4)ccc21

>  <score_type>  (12) 
oracle

>  <origin>  (12) 
adgpu

>  <m_score__min__energy>  (12) 
-15.539999999999999

>  <m_primary>  (12) 
energy

$$$$
12:0
     RDKit          3D

 49 51  0  0  0  0  0  0  0  0999 V2000
    0.8650   20.0560  -28.4500 C   0  0  0  0  0  0  0  0  0  0  0  0
    0.1540   20.5250  -27.2480 N   0  0  0  0  0  0  0  0  0  0  0  0
   -1.2350   20.0340  -27.1800 C   0  0  0  0  0  0  0  0  0  0  0  0
   -2.1110   20.5920  -28.3120 C   0  0  0  0  0  0  0  0  0  0  0  0
   -1.8870   22.0640  -28.5380 C   0  0  0  0  0  0  0  0  0  0  0  0
   -2.7880   22.7760  -29.3460 C   0  0  0  0  0  0  0  0  0  0  0  0
   -2.5800   24.1390  -29.6210 C   0  0  0  0  0  0  0  0  0  0  0  0
   -3.4880   24.8960  -30.4340 N   0  0  0  0  0  0  0  0  0  0  0  0
   -5.2000   24.6360  -30.5390 S   0  0  0  0  0  0  0  0  0  0  0  0
   -5.8310   25.8140  -31.2280 O   0  0  0  0  0  0  0  0  0  0  0  0
   -5.7720   24.4750  -29.1590 O   0  0  0  0  0  0  0  0  0  0  0  0
   -5.5250   23.1740  -31.4710 C   0  0  0  0  0  0  0  0  0  0  0  0
   -4.4880   22.2680  -31.7360 C   0  0  0  0  0  0  0  0  0  0  0  0
   -4.7300   21.1080  -32.4860 C   0  0  0  0  0  0  0  0  0  0  0  0
   -3.4120   19.9860  -32.8320 S   0  0  0  0  0  0  0  0  0  0  0  0
   -3.8390   18.5940  -32.4590 O   0  0  0  0  0  0  0  0  0  0  0  0
   -3.1220   20.0020  -34.3080 O   0  0  0  0  0  0  0  0  0  0  0  0
   -1.9630   20.4080  -31.9530 N   0  0  0  0  0  0  0  0  0  0  0  0
   -1.1390   21.3190  -32.7560 C   0  0  0  0  0  0  0  0  0  0  0  0
   -1.2070   19.1920  -31.6290 C   0  0  0  0  0  0  0  0  0  0  0  0
   -6.0210   20.8510  -32.9640 C   0  0  0  0  0  0  0  0  0  0  0  0
   -7.0620   21.7420  -32.6900 C   0  0  0  0  0  0  0  0  0  0  0  0
   -6.8200   22.9000  -31.9440 C   0  0  0  0  0  0  0  0  0  0  0  0
   -7.8730   23.7680  -31.6750 O   0  0  0  0  0  0  0  0  0  0  0  0
   -1.4570   24.7830  -29.0860 C   0  0  0  0  0  0  0  0  0  0  0  0
   -1.2380   26.1320  -29.3410 O   0  0  0  0  0  0  0  0  0  0  0  0
   -0.5500   24.0760  -28.2920 C   0  0  0  0  0  0  0  0  0  0  0  0
   -0.7470   22.7150  -28.0260 C   0  0  0  0  0  0  0  0  0  0  0  0
    0.2140   21.9930  -27.1070 C   0  0  0  0  0  0  0  0  0  0  0  0
    1.7483   19.4733  -28.1496 H   0  0  0  0  0  0  0  0  0  0  0  0
    0.1942   19.4225  -29.0490 H   0  0  0  0  0  0  0  0  0  0  0  0
    1.1833   20.9220  -29.0490 H   0  0  0  0  0  0  0  0  0  0  0  0
   -1.2252   18.9363  -27.2497 H   0  0  0  0  0  0  0  0  0  0  0  0
   -1.6640   20.3742  -26.2260 H   0  0  0  0  0  0  0  0  0  0  0  0
   -1.8747   20.0519  -29.2407 H   0  0  0  0  0  0  0  0  0  0  0  0
   -3.1629   20.4532  -28.0219 H   0  0  0  0  0  0  0  0  0  0  0  0
   -3.6647   22.2626  -29.7677 H   0  0  0  0  0  0  0  0  0  0  0  0
   -3.4767   22.4688  -31.3526 H   0  0  0  0  0  0  0  0  0  0  0  0
   -0.5525   21.9675  -32.0886 H   0  0  0  0  0  0  0  0  0  0  0  0
   -0.4574   20.7337  -33.3907 H   0  0  0  0  0  0  0  0  0  0  0  0
   -1.7895   21.9387  -33.3907 H   0  0  0  0  0  0  0  0  0  0  0  0
   -1.1390   19.0827  -30.5366 H   0  0  0  0  0  0  0  0  0  0  0  0
   -1.7205   18.3169  -32.0538 H   0  0  0  0  0  0  0  0  0  0  0  0
   -0.1950   19.2653  -32.0538 H   0  0  0  0  0  0  0  0  0  0  0  0
   -6.2161   19.9452  -33.5568 H   0  0  0  0  0  0  0  0  0  0  0  0
   -8.0755   21.5318  -33.0624 H   0  0  0  0  0  0  0  0  0  0  0  0
    0.3259   24.5926  -27.8725 H   0  0  0  0  0  0  0  0  0  0  0  0
    1.2367   22.3258  -27.3379 H   0  0  0  0  0  0  0  0  0  0  0  0
   -0.0735   22.2363  -26.0735 H   0  0  0  0  0  0  0  0  0  0  0  0
  1  2  1  0
  2  3  1  0
  3  4  1  0
  4  5  1  0
  5  6  2  0
  6  7  1  0
  7  8  1  0
  8  9  1  0
  9 10  2  0
  9 11  2  0
  9 12  1  0
 12 13  2  0
 13 14  1  0
 14 15  1  0
 15 16  2  0
 15 17  2  0
 15 18  1  0
 18 19  1  0
 18 20  1  0
 14 21  2  0
 21 22  1  0
 22 23  2  0
 23 24  1  0
  7 25  2  0
 25 26  1  0
 25 27  1  0
 27 28  2  0
 28 29  1  0
 29  2  1  0
 28  5  1  0
 23 12  1  0
  1 30  1  0
  1 31  1  0
  1 32  1  0
  3 33  1  0
  3 34  1  0
  4 35  1  0
  4 36  1  0
  6 37  1  0
 13 38  1  0
 19 39  1  0
 19 40  1  0
 19 41  1  0
 20 42  1  0
 20 43  1  0
 20 44  1  0
 21 45  1  0
 22 46  1  0
 27 47  1  0
 29 48  1  0
 29 49  1  0
M  CHG  3   8  -1  24  -1  26  -1
M  END
>  <UniqueID>  (13) 
13

>  <SMILES>  (13) 
CN1CCc2cc([N-]S(=O)(=O)c3cc(S(=O)(=O)N(C)C)ccc3[O-])c([O-])cc2C1

>  <Energy>  (13) 
57.92132247194893

>  <Genealogy>  (13) 
CN1CCc2cc([N-]S(=O)(=O)c3cc(S(=O)(=O)N(C)C)ccc3[O-])c([O-])cc2C1 (protonated)
CN1CCc2cc([N-]S(=O)(=O)c3cc(S(=O)(=O)N(C)C)ccc3[O-])c([O-])cc2C1 (3D coordinates assigned)
CN1CCc2cc([N-]S(=O)(=O)c3cc(S(=O)(=O)N(C)C)ccc3[O-])c([O-])cc2C1 (nonaromatic ring conformer: 57.92132247194893 kcal/mol)

>  <smiles>  (13) 
CN1CCc2cc(NS(=O)(=O)c3cc(S(=O)(=O)N(C)C)ccc3O)c(O)cc2C1

>  <score_type>  (13) 
oracle

>  <origin>  (13) 
adgpu

>  <m_score__min__energy>  (13) 
-14.94

>  <m_primary>  (13) 
energy

$$$$
13:0
     RDKit          3D

 43 44  0  0  0  0  0  0  0  0999 V2000
   -5.3270   25.6820  -30.4840 C   0  0  0  0  0  0  0  0  0  0  0  0
   -3.9910   25.1910  -30.4980 O   0  0  0  0  0  0  0  0  0  0  0  0
   -3.6260   23.8600  -30.2390 C   0  0  0  0  0  0  0  0  0  0  0  0
   -3.5500   22.9000  -31.2700 C   0  0  0  0  0  0  0  0  0  0  0  0
   -3.1780   21.5850  -30.9840 C   0  0  0  0  0  0  0  0  0  0  0  0
   -2.8740   21.2100  -29.6760 C   0  0  0  0  0  0  0  0  0  0  0  0
   -2.9450   22.1490  -28.6470 C   0  0  0  0  0  0  0  0  0  0  0  0
   -3.3290   23.4740  -28.9140 C   0  0  0  0  0  0  0  0  0  0  0  0
   -3.3600   24.4750  -27.7850 C   0  0  0  0  0  0  0  0  0  0  0  0
   -1.9790   24.6650  -27.2190 C   0  0  0  0  0  0  0  0  0  0  0  0
   -1.6560   24.0510  -26.0500 N   0  0  0  0  0  0  0  0  0  0  0  0
   -0.4210   24.1520  -25.4950 C   0  0  0  0  0  0  0  0  0  0  0  0
   -0.1770   23.4970  -24.2870 O   0  0  0  0  0  0  0  0  0  0  0  0
    0.5660   24.9130  -26.1580 C   0  0  0  0  0  0  0  0  0  0  0  0
    1.9590   25.1050  -25.6080 C   0  0  0  0  0  0  0  0  0  0  0  0
    1.9560   25.3130  -24.1510 N   0  0  0  0  0  0  0  0  0  0  0  0
    1.9770   26.7410  -23.8030 C   0  0  0  0  0  0  0  0  0  0  0  0
    0.6670   27.4180  -24.2300 C   0  0  0  0  0  0  0  0  0  0  0  0
   -0.4850   27.1430  -23.2560 C   0  0  0  0  0  0  0  0  0  0  0  0
   -0.7960   25.7750  -23.2200 O   0  0  0  0  0  0  0  0  0  0  0  0
    0.2410   25.5250  -27.3290 N   0  0  0  0  0  0  0  0  0  0  0  0
   -0.9950   25.4200  -27.8780 C   0  0  0  0  0  0  0  0  0  0  0  0
   -1.2420   26.0050  -28.9660 O   0  0  0  0  0  0  0  0  0  0  0  0
   -5.6616   25.8050  -29.4434 H   0  0  0  0  0  0  0  0  0  0  0  0
   -5.3661   26.6533  -30.9989 H   0  0  0  0  0  0  0  0  0  0  0  0
   -5.9858   24.9672  -30.9989 H   0  0  0  0  0  0  0  0  0  0  0  0
   -3.7851   23.1891  -32.3050 H   0  0  0  0  0  0  0  0  0  0  0  0
   -3.1246   20.8422  -31.7935 H   0  0  0  0  0  0  0  0  0  0  0  0
   -2.5782   20.1737  -29.4555 H   0  0  0  0  0  0  0  0  0  0  0  0
   -2.6983   21.8497  -27.6177 H   0  0  0  0  0  0  0  0  0  0  0  0
   -3.7328   25.4381  -28.1638 H   0  0  0  0  0  0  0  0  0  0  0  0
   -4.0238   24.1002  -26.9920 H   0  0  0  0  0  0  0  0  0  0  0  0
    0.3140   23.9230  -23.5120 H   0  0  0  0  0  0  0  0  0  0  0  0
    2.5571   24.2107  -25.8372 H   0  0  0  0  0  0  0  0  0  0  0  0
    2.3872   26.0031  -26.0771 H   0  0  0  0  0  0  0  0  0  0  0  0
    1.0980   24.8790  -23.7390 H   0  0  0  0  0  0  0  0  0  0  0  0
    2.1012   26.8467  -22.7151 H   0  0  0  0  0  0  0  0  0  0  0  0
    2.8143   27.2230  -24.3289 H   0  0  0  0  0  0  0  0  0  0  0  0
    0.8326   28.5042  -24.2817 H   0  0  0  0  0  0  0  0  0  0  0  0
    0.3818   27.0034  -25.2081 H   0  0  0  0  0  0  0  0  0  0  0  0
   -0.1907   27.4718  -22.2484 H   0  0  0  0  0  0  0  0  0  0  0  0
   -1.3726   27.6958  -23.5972 H   0  0  0  0  0  0  0  0  0  0  0  0
    0.0590   25.2930  -23.0680 H   0  0  0  0  0  0  0  0  0  0  0  0
  1  2  1  0
  2  3  1  0
  3  4  2  0
  4  5  1  0
  5  6  2  0
  6  7  1  0
  7  8  2  0
  8  9  1  0
  9 10  1  0
 10 11  2  0
 11 12  1  0
 12 13  1  0
 12 14  2  0
 14 15  1  0
 15 16  1  0
 16 17  1  0
 17 18  1  0
 18 19  1  0
 19 20  1  0
 14 21  1  0
 21 22  1  0
 22 23  2  0
  8  3  1  0
 22 10  1  0
  1 24  1  0
  1 25  1  0
  1 26  1  0
  4 27  1  0
  5 28  1  0
  6 29  1  0
  7 30  1  0
  9 31  1  0
  9 32  1  0
 13 33  1  0
 15 34  1  0
 15 35  1  0
 16 36  1  0
 17 37  1  0
 17 38  1  0
 18 39  1  0
 18 40  1  0
 19 41  1  0
 19 42  1  0
 20 43  1  0
M  CHG  1  21  -1
M  END
>  <UniqueID>  (14) 
14

>  <SMILES>  (14) 
COc1ccccc1Cc1nc(O)c(CNCCCO)[n-]c1=O

>  <Energy>  (14) 
40.81548553142173

>  <Genealogy>  (14) 
COc1ccccc1Cc1nc(O)c(CNCCCO)[n-]c1=O (protonated)
COc1ccccc1Cc1nc(O)c(CNCCCO)[n-]c1=O (3D coordinates assigned)
COc1ccccc1Cc1nc(O)c(CNCCCO)[n-]c1=O (optimized conformer: 40.81548553142173 kcal/mol)

>  <smiles>  (14) 
COc1ccccc1Cc1nc(O)c(CNCCCO)[nH]c1=O

>  <score_type>  (14) 
oracle

>  <origin>  (14) 
adgpu

>  <m_score__min__energy>  (14) 
-8.6500000000000004

>  <m_primary>  (14) 
energy

$$$$
14:0
     RDKit          3D

 48 50  0  0  0  0  0  0  0  0999 V2000
   -9.1120   19.7590  -32.0260 C   0  0  0  0  0  0  0  0  0  0  0  0
   -8.1180   20.8810  -31.9740 C   0  0  0  0  0  0  0  0  0  0  0  0
   -6.7870   20.6650  -32.3600 C   0  0  0  0  0  0  0  0  0  0  0  0
   -5.8700   21.7200  -32.3480 C   0  0  0  0  0  0  0  0  0  0  0  0
   -6.2670   23.0020  -31.9480 C   0  0  0  0  0  0  0  0  0  0  0  0
   -5.3000   24.0620  -31.9770 N   0  0  0  0  0  0  0  0  0  0  0  0
   -5.1170   25.0780  -30.9820 C   0  0  0  0  0  0  0  0  0  0  0  0
   -6.1030   25.7220  -30.5360 O   0  0  0  0  0  0  0  0  0  0  0  0
   -3.8250   25.3020  -30.4100 N   0  0  0  0  0  0  0  0  0  0  0  0
   -3.2130   24.4720  -29.4140 C   0  0  0  0  0  0  0  0  0  0  0  0
   -3.8880   23.3250  -29.0000 C   0  0  0  0  0  0  0  0  0  0  0  0
   -3.3260   22.4820  -28.0460 C   0  0  0  0  0  0  0  0  0  0  0  0
   -2.0870   22.7820  -27.4560 C   0  0  0  0  0  0  0  0  0  0  0  0
   -1.5130   21.7830  -26.4850 C   0  0  0  0  0  0  0  0  0  0  0  0
   -1.4050   23.9730  -27.8340 C   0  0  0  0  0  0  0  0  0  0  0  0
    0.1590   24.4540  -27.1140 S   0  0  0  0  0  0  0  0  0  0  0  0
    0.8210   23.2860  -26.4400 O   0  0  0  0  0  0  0  0  0  0  0  0
    1.0830   24.9020  -28.2120 O   0  0  0  0  0  0  0  0  0  0  0  0
   -0.0090   25.7540  -25.9540 N   0  0  0  0  0  0  0  0  0  0  0  0
   -0.5590   25.2570  -24.6830 C   0  0  0  0  0  0  0  0  0  0  0  0
   -0.8770   26.4310  -23.7330 C   0  0  0  0  0  0  0  0  0  0  0  0
   -0.3410   27.6450  -24.2220 O   0  0  0  0  0  0  0  0  0  0  0  0
   -0.9530   27.9770  -25.4570 C   0  0  0  0  0  0  0  0  0  0  0  0
   -0.8610   26.8270  -26.4830 C   0  0  0  0  0  0  0  0  0  0  0  0
   -1.9880   24.8140  -28.8110 C   0  0  0  0  0  0  0  0  0  0  0  0
   -1.3670   26.0080  -29.1640 O   0  0  0  0  0  0  0  0  0  0  0  0
   -7.6110   23.2280  -31.6000 C   0  0  0  0  0  0  0  0  0  0  0  0
   -8.5280   22.1730  -31.6130 C   0  0  0  0  0  0  0  0  0  0  0  0
   -9.3788   19.4578  -31.0022 H   0  0  0  0  0  0  0  0  0  0  0  0
  -10.0154   20.0937  -32.5569 H   0  0  0  0  0  0  0  0  0  0  0  0
   -8.6708   18.9026  -32.5569 H   0  0  0  0  0  0  0  0  0  0  0  0
   -6.4635   19.6615  -32.6734 H   0  0  0  0  0  0  0  0  0  0  0  0
   -4.8288   21.5419  -32.6550 H   0  0  0  0  0  0  0  0  0  0  0  0
   -4.8714   23.0845  -29.4302 H   0  0  0  0  0  0  0  0  0  0  0  0
   -3.8599   21.5671  -27.7495 H   0  0  0  0  0  0  0  0  0  0  0  0
   -1.7063   22.1194  -25.4557 H   0  0  0  0  0  0  0  0  0  0  0  0
   -1.9856   20.8027  -26.6452 H   0  0  0  0  0  0  0  0  0  0  0  0
   -0.4281   21.6976  -26.6452 H   0  0  0  0  0  0  0  0  0  0  0  0
   -1.4825   24.6943  -24.8841 H   0  0  0  0  0  0  0  0  0  0  0  0
    0.1869   24.6054  -24.2044 H   0  0  0  0  0  0  0  0  0  0  0  0
   -1.9684   26.5322  -23.6407 H   0  0  0  0  0  0  0  0  0  0  0  0
   -0.4226   26.2193  -22.7539 H   0  0  0  0  0  0  0  0  0  0  0  0
   -2.0136   28.2060  -25.2762 H   0  0  0  0  0  0  0  0  0  0  0  0
   -0.4208   28.8445  -25.8744 H   0  0  0  0  0  0  0  0  0  0  0  0
   -1.8683   26.4305  -26.6782 H   0  0  0  0  0  0  0  0  0  0  0  0
   -0.4249   27.2089  -27.4179 H   0  0  0  0  0  0  0  0  0  0  0  0
   -7.9415   24.2382  -31.3167 H   0  0  0  0  0  0  0  0  0  0  0  0
   -9.5772   22.3570  -31.3385 H   0  0  0  0  0  0  0  0  0  0  0  0
  1  2  1  0
  2  3  2  0
  3  4  1  0
  4  5  2  0
  5  6  1  0
  6  7  1  0
  7  8  2  0
  7  9  1  0
  9 10  1  0
 10 11  2  0
 11 12  1  0
 12 13  2  0
 13 14  1  0
 13 15  1  0
 15 16  1  0
 16 17  2  0
 16 18  2  0
 16 19  1  0
 19 20  1  0
 20 21  1  0
 21 22  1  0
 22 23  1  0
 23 24  1  0
 15 25  2  0
 25 26  1  0
  5 27  1  0
 27 28  2  0
 28  2  1  0
 25 10  1  0
 24 19  1  0
  1 29  1  0
  1 30  1  0
  1 31  1  0
  3 32  1  0
  4 33  1  0
 11 34  1  0
 12 35  1  0
 14 36  1  0
 14 37  1  0
 14 38  1  0
 20 39  1  0
 20 40  1  0
 21 41  1  0
 21 42  1  0
 23 43  1  0
 23 44  1  0
 24 45  1  0
 24 46  1  0
 27 47  1  0
 28 48  1  0
M  CHG  3   6  -1   9  -1  26  -1
M  END
>  <UniqueID>  (15) 
15

>  <SMILES>  (15) 
Cc1ccc([N-]C(=O)[N-]c2ccc(C)c(S(=O)(=O)N3CCOCC3)c2[O-])cc1

>  <Energy>  (15) 
68.92266249567295

>  <Genealogy>  (15) 
Cc1ccc([N-]C(=O)[N-]c2ccc(C)c(S(=O)(=O)N3CCOCC3)c2[O-])cc1 (protonated)
Cc1ccc([N-]C(=O)[N-]c2ccc(C)c(S(=O)(=O)N3CCOCC3)c2[O-])cc1 (3D coordinates assigned)
Cc1ccc([N-]C(=O)[N-]c2ccc(C)c(S(=O)(=O)N3CCOCC3)c2[O-])cc1 (nonaromatic ring conformer: 68.92266249567295 kcal/mol)

>  <smiles>  (15) 
Cc1ccc(NC(=O)Nc2ccc(C)c(S(=O)(=O)N3CCOCC3)c2O)cc1

>  <score_type>  (15) 
oracle

>  <origin>  (15) 
adgpu

>  <m_score__min__energy>  (15) 
-15.18

>  <m_primary>  (15) 
energy

$$$$
15:0
     RDKit          3D

 43 43  0  0  0  0  0  0  0  0999 V2000
   -7.2880   17.7870  -32.9960 C   0  0  0  0  0  0  0  0  0  0  0  0
   -6.4260   18.6110  -33.8440 N   0  0  0  0  0  0  0  0  0  0  0  0
   -5.0810   18.0270  -33.9250 C   0  0  0  0  0  0  0  0  0  0  0  0
   -4.0200   19.1270  -34.0310 C   0  0  0  0  0  0  0  0  0  0  0  0
   -4.2500   20.2440  -33.0020 C   0  0  0  0  0  0  0  0  0  0  0  0
   -3.6530   19.9190  -31.6280 C   0  0  0  0  0  0  0  0  0  0  0  0
   -4.1310   20.8220  -30.6290 O   0  0  0  0  0  0  0  0  0  0  0  0
   -3.5280   22.0250  -30.2160 C   0  0  0  0  0  0  0  0  0  0  0  0
   -2.4820   22.0610  -29.2710 C   0  0  0  0  0  0  0  0  0  0  0  0
   -1.9290   23.2790  -28.8740 C   0  0  0  0  0  0  0  0  0  0  0  0
   -2.4150   24.4760  -29.3980 C   0  0  0  0  0  0  0  0  0  0  0  0
   -1.8630   25.6830  -28.9840 O   0  0  0  0  0  0  0  0  0  0  0  0
   -3.4520   24.4620  -30.3360 C   0  0  0  0  0  0  0  0  0  0  0  0
   -3.9330   25.6690  -30.8350 O   0  0  0  0  0  0  0  0  0  0  0  0
   -4.0050   23.2370  -30.7640 C   0  0  0  0  0  0  0  0  0  0  0  0
   -5.1350   23.2160  -31.7660 C   0  0  0  0  0  0  0  0  0  0  0  0
   -6.4430   22.9610  -31.0580 C   0  0  0  0  0  0  0  0  0  0  0  0
   -7.3880   22.0870  -31.4710 C   0  0  0  0  0  0  0  0  0  0  0  0
   -8.6520   21.9630  -30.6590 C   0  0  0  0  0  0  0  0  0  0  0  0
   -7.2160   21.2430  -32.7100 C   0  0  0  0  0  0  0  0  0  0  0  0
   -7.0695   17.9958  -31.9383 H   0  0  0  0  0  0  0  0  0  0  0  0
   -8.3418   18.0221  -33.2061 H   0  0  0  0  0  0  0  0  0  0  0  0
   -7.1006   16.7236  -33.2061 H   0  0  0  0  0  0  0  0  0  0  0  0
   -6.8400   18.6100  -34.8060 H   0  0  0  0  0  0  0  0  0  0  0  0
   -4.8920   17.4285  -33.0217 H   0  0  0  0  0  0  0  0  0  0  0  0
   -5.0239   17.3922  -34.8215 H   0  0  0  0  0  0  0  0  0  0  0  0
   -3.0285   18.6829  -33.8585 H   0  0  0  0  0  0  0  0  0  0  0  0
   -4.0862   19.5696  -35.0359 H   0  0  0  0  0  0  0  0  0  0  0  0
   -3.7859   21.1681  -33.3770 H   0  0  0  0  0  0  0  0  0  0  0  0
   -5.3366   20.3560  -32.8725 H   0  0  0  0  0  0  0  0  0  0  0  0
   -3.9345   18.8931  -31.3483 H   0  0  0  0  0  0  0  0  0  0  0  0
   -2.5593   20.0180  -31.6917 H   0  0  0  0  0  0  0  0  0  0  0  0
   -2.0993   21.1223  -28.8438 H   0  0  0  0  0  0  0  0  0  0  0  0
   -1.1060   23.2948  -28.1444 H   0  0  0  0  0  0  0  0  0  0  0  0
   -5.1827   24.1860  -32.2826 H   0  0  0  0  0  0  0  0  0  0  0  0
   -4.9562   22.4141  -32.4975 H   0  0  0  0  0  0  0  0  0  0  0  0
   -6.6424   23.5287  -30.1371 H   0  0  0  0  0  0  0  0  0  0  0  0
   -8.4035   21.9874  -29.5877 H   0  0  0  0  0  0  0  0  0  0  0  0
   -9.3251   22.7994  -30.8984 H   0  0  0  0  0  0  0  0  0  0  0  0
   -9.1497   21.0117  -30.8984 H   0  0  0  0  0  0  0  0  0  0  0  0
   -7.0042   20.2035  -32.4191 H   0  0  0  0  0  0  0  0  0  0  0  0
   -8.1393   21.2758  -33.3071 H   0  0  0  0  0  0  0  0  0  0  0  0
   -6.3792   21.6345  -33.3071 H   0  0  0  0  0  0  0  0  0  0  0  0
  1  2  1  0
  2  3  1  0
  3  4  1  0
  4  5  1  0
  5  6  1  0
  6  7  1  0
  7  8  1  0
  8  9  2  0
  9 10  1  0
 10 11  2  0
 11 12  1  0
 11 13  1  0
 13 14  1  0
 13 15  2  0
 15 16  1  0
 16 17  1  0
 17 18  2  3
 18 19  1  0
 18 20  1  0
 15  8  1  0
  1 21  1  0
  1 22  1  0
  1 23  1  0
  2 24  1  0
  3 25  1  0
  3 26  1  0
  4 27  1  0
  4 28  1  0
  5 29  1  0
  5 30  1  0
  6 31  1  0
  6 32  1  0
  9 33  1  0
 10 34  1  0
 16 35  1  0
 16 36  1  0
 17 37  1  0
 19 38  1  0
 19 39  1  0
 19 40  1  0
 20 41  1  0
 20 42  1  0
 20 43  1  0
M  CHG  2  12  -1  14  -1
M  END
>  <UniqueID>  (16) 
16

>  <SMILES>  (16) 
CNCCCCOc1ccc([O-])c([O-])c1CC=C(C)C

>  <Energy>  (16) 
32.00661396534654

>  <Genealogy>  (16) 
CNCCCCOc1ccc([O-])c([O-])c1CC=C(C)C (protonated)
CNCCCCOc1ccc([O-])c([O-])c1CC=C(C)C (3D coordinates assigned)
CNCCCCOc1ccc([O-])c([O-])c1CC=C(C)C (optimized conformer: 32.00661396534654 kcal/mol)

>  <smiles>  (16) 
CNCCCCOc1ccc(O)c(O)c1CC=C(C)C

>  <score_type>  (16) 
oracle

>  <origin>  (16) 
adgpu

>  <m_score__min__energy>  (16) 
-12.039999999999999

>  <m_primary>  (16) 
energy

$$$$
16:0
     RDKit          3D

 53 56  0  0  0  0  0  0  0  0999 V2000
   -1.6430   20.2380  -26.0320 C   0  0  0  0  0  0  0  0  0  0  0  0
   -0.5620   20.3170  -27.0310 N   0  0  0  0  0  0  0  0  0  0  0  0
   -0.9210   19.6710  -28.3080 C   0  0  0  0  0  0  0  0  0  0  0  0
   -2.0840   20.3820  -29.0140 C   0  0  0  0  0  0  0  0  0  0  0  0
   -1.9280   21.8800  -28.9990 C   0  0  0  0  0  0  0  0  0  0  0  0
   -2.7600   22.6570  -29.8160 C   0  0  0  0  0  0  0  0  0  0  0  0
   -2.6890   24.0560  -29.7910 C   0  0  0  0  0  0  0  0  0  0  0  0
   -3.5720   24.8690  -30.5750 N   0  0  0  0  0  0  0  0  0  0  0  0
   -5.2710   25.0530  -30.2780 S   0  0  0  0  0  0  0  0  0  0  0  0
   -5.5180   24.9680  -28.8000 O   0  0  0  0  0  0  0  0  0  0  0  0
   -5.7410   26.3990  -30.7610 O   0  0  0  0  0  0  0  0  0  0  0  0
   -6.1490   23.7530  -31.0800 C   0  0  0  0  0  0  0  0  0  0  0  0
   -7.5480   23.7930  -31.1390 C   0  0  0  0  0  0  0  0  0  0  0  0
   -8.2580   22.7390  -31.7200 C   0  0  0  0  0  0  0  0  0  0  0  0
   -7.5770   21.6340  -32.2350 C   0  0  0  0  0  0  0  0  0  0  0  0
   -6.1800   21.5830  -32.1780 C   0  0  0  0  0  0  0  0  0  0  0  0
   -5.3380   20.1720  -32.8130 S   0  0  0  0  0  0  0  0  0  0  0  0
   -4.1050   20.5930  -33.5670 O   0  0  0  0  0  0  0  0  0  0  0  0
   -4.9230   19.3060  -31.6530 O   0  0  0  0  0  0  0  0  0  0  0  0
   -6.4110   19.2760  -33.8660 N   0  0  0  0  0  0  0  0  0  0  0  0
   -5.6560   18.3270  -34.6910 C   0  0  0  0  0  0  0  0  0  0  0  0
   -5.6590   16.9790  -33.9870 C   0  0  0  0  0  0  0  0  0  0  0  0
   -6.7410   17.0710  -32.9290 C   0  0  0  0  0  0  0  0  0  0  0  0
   -7.3420   18.4610  -33.0790 C   0  0  0  0  0  0  0  0  0  0  0  0
   -5.4680   22.6500  -31.6130 C   0  0  0  0  0  0  0  0  0  0  0  0
   -1.7290   24.6770  -28.9780 C   0  0  0  0  0  0  0  0  0  0  0  0
   -1.6100   26.0620  -28.9680 O   0  0  0  0  0  0  0  0  0  0  0  0
   -0.8980   23.9110  -28.1540 C   0  0  0  0  0  0  0  0  0  0  0  0
   -1.0220   22.5120  -28.1250 C   0  0  0  0  0  0  0  0  0  0  0  0
   -0.0990   21.7050  -27.2390 C   0  0  0  0  0  0  0  0  0  0  0  0
   -1.2109   20.2696  -25.0209 H   0  0  0  0  0  0  0  0  0  0  0  0
   -2.3279   21.0885  -26.1648 H   0  0  0  0  0  0  0  0  0  0  0  0
   -2.1969   19.2970  -26.1648 H   0  0  0  0  0  0  0  0  0  0  0  0
   -0.0431   19.6852  -28.9707 H   0  0  0  0  0  0  0  0  0  0  0  0
   -1.2405   18.6420  -28.0864 H   0  0  0  0  0  0  0  0  0  0  0  0
   -2.1261   20.0406  -30.0588 H   0  0  0  0  0  0  0  0  0  0  0  0
   -3.0096   20.1334  -28.4741 H   0  0  0  0  0  0  0  0  0  0  0  0
   -3.4784   22.1620  -30.4859 H   0  0  0  0  0  0  0  0  0  0  0  0
   -8.0895   24.6571  -30.7265 H   0  0  0  0  0  0  0  0  0  0  0  0
   -9.3560   22.7798  -31.7718 H   0  0  0  0  0  0  0  0  0  0  0  0
   -8.1393   20.8030  -32.6858 H   0  0  0  0  0  0  0  0  0  0  0  0
   -6.1307   18.2324  -35.6788 H   0  0  0  0  0  0  0  0  0  0  0  0
   -4.6239   18.6812  -34.8297 H   0  0  0  0  0  0  0  0  0  0  0  0
   -5.8881   16.1740  -34.7008 H   0  0  0  0  0  0  0  0  0  0  0  0
   -4.6780   16.7494  -33.5455 H   0  0  0  0  0  0  0  0  0  0  0  0
   -7.5083   16.3007  -33.0963 H   0  0  0  0  0  0  0  0  0  0  0  0
   -6.3375   16.9086  -31.9186 H   0  0  0  0  0  0  0  0  0  0  0  0
   -8.3100   18.3950  -33.5973 H   0  0  0  0  0  0  0  0  0  0  0  0
   -7.5049   18.9151  -32.0904 H   0  0  0  0  0  0  0  0  0  0  0  0
   -4.3687   22.6215  -31.5878 H   0  0  0  0  0  0  0  0  0  0  0  0
   -0.1435   24.4066  -27.5254 H   0  0  0  0  0  0  0  0  0  0  0  0
    0.8968   21.6757  -27.7054 H   0  0  0  0  0  0  0  0  0  0  0  0
   -0.0784   22.1949  -26.2543 H   0  0  0  0  0  0  0  0  0  0  0  0
  1  2  1  0
  2  3  1  0
  3  4  1  0
  4  5  1  0
  5  6  2  0
  6  7  1  0
  7  8  1  0
  8  9  1  0
  9 10  2  0
  9 11  2  0
  9 12  1  0
 12 13  2  0
 13 14  1  0
 14 15  2  0
 15 16  1  0
 16 17  1  0
 17 18  2  0
 17 19  2  0
 17 20  1  0
 20 21  1  0
 21 22  1  0
 22 23  1  0
 23 24  1  0
 16 25  2  0
  7 26  2  0
 26 27  1  0
 26 28  1  0
 28 29  2  0
 29 30  1  0
 30  2  1  0
 29  5  1  0
 25 12  1  0
 24 20  1  0
  1 31  1  0
  1 32  1  0
  1 33  1  0
  3 34  1  0
  3 35  1  0
  4 36  1  0
  4 37  1  0
  6 38  1  0
 13 39  1  0
 14 40  1  0
 15 41  1  0
 21 42  1  0
 21 43  1  0
 22 44  1  0
 22 45  1  0
 23 46  1  0
 23 47  1  0
 24 48  1  0
 24 49  1  0
 25 50  1  0
 28 51  1  0
 30 52  1  0
 30 53  1  0
M  CHG  2   8  -1  27  -1
M  END
>  <UniqueID>  (17) 
17

>  <SMILES>  (17) 
CN1CCc2cc([N-]S(=O)(=O)c3cccc(S(=O)(=O)N4CCCC4)c3)c([O-])cc2C1

>  <Energy>  (17) 
64.99093317749465

>  <Genealogy>  (17) 
CN1CCc2cc([N-]S(=O)(=O)c3cccc(S(=O)(=O)N4CCCC4)c3)c([O-])cc2C1 (protonated)
CN1CCc2cc([N-]S(=O)(=O)c3cccc(S(=O)(=O)N4CCCC4)c3)c([O-])cc2C1 (3D coordinates assigned)
CN1CCc2cc([N-]S(=O)(=O)c3cccc(S(=O)(=O)N4CCCC4)c3)c([O-])cc2C1 (nonaromatic ring conformer: 64.99093317749465 kcal/mol)

>  <smiles>  (17) 
CN1CCc2cc(NS(=O)(=O)c3cccc(S(=O)(=O)N4CCCC4)c3)c(O)cc2C1

>  <score_type>  (17) 
oracle

>  <origin>  (17) 
adgpu

>  <m_score__min__energy>  (17) 
-15.210000000000001

>  <m_primary>  (17) 
energy

$$$$
17:0
     RDKit          3D

 78 82  0  0  0  0  0  0  0  0999 V2000
   -0.7210   23.5730  -27.7530 C   0  0  0  0  0  0  0  0  0  0  0  0
   -1.9270   23.0570  -28.5040 C   0  0  0  0  0  0  0  0  0  0  0  0
   -2.3390   21.7070  -28.3900 C   0  0  0  0  0  0  0  0  0  0  0  0
   -1.4800   20.5360  -27.3730 S   0  0  0  0  0  0  0  0  0  0  0  0
   -2.3900   19.3990  -27.0040 O   0  0  0  0  0  0  0  0  0  0  0  0
   -1.0080   21.1830  -26.1000 O   0  0  0  0  0  0  0  0  0  0  0  0
   -0.1230   19.9350  -28.2610 N   0  0  0  0  0  0  0  0  0  0  0  0
   -0.2680   19.6320  -29.6470 C   0  0  0  0  0  0  0  0  0  0  0  0
   -0.1190   18.3120  -30.0870 C   0  0  0  0  0  0  0  0  0  0  0  0
   -0.1210   18.0250  -31.4550 C   0  0  0  0  0  0  0  0  0  0  0  0
   -0.2860   19.0570  -32.3930 C   0  0  0  0  0  0  0  0  0  0  0  0
   -0.1830   18.7850  -33.8380 C   0  0  0  0  0  0  0  0  0  0  0  0
   -1.2250   18.4590  -34.4670 O   0  0  0  0  0  0  0  0  0  0  0  0
    1.0650   18.9560  -34.5470 N   0  0  0  0  0  0  0  0  0  0  0  0
    2.1190   19.8360  -34.0060 C   0  0  0  0  0  0  0  0  0  0  0  0
    2.8510   20.5890  -35.1310 C   0  0  0  0  0  0  0  0  0  0  0  0
    1.8800   20.9690  -36.2720 C   0  0  0  0  0  0  0  0  0  0  0  0
    0.8080   21.9730  -35.7750 C   0  0  0  0  0  0  0  0  0  0  0  0
    1.2710   23.4040  -35.8820 C   0  0  0  0  0  0  0  0  0  0  0  0
    2.6300   23.7310  -35.7370 C   0  0  0  0  0  0  0  0  0  0  0  0
    3.0500   25.0600  -35.8400 C   0  0  0  0  0  0  0  0  0  0  0  0
    2.1200   26.0720  -36.0940 C   0  0  0  0  0  0  0  0  0  0  0  0
    0.7660   25.7550  -36.2410 C   0  0  0  0  0  0  0  0  0  0  0  0
    0.3410   24.4280  -36.1340 C   0  0  0  0  0  0  0  0  0  0  0  0
    1.2390   19.6950  -36.8970 C   0  0  0  0  0  0  0  0  0  0  0  0
    1.2020   18.4950  -35.9340 C   0  0  0  0  0  0  0  0  0  0  0  0
   -0.4930   20.3710  -31.9450 C   0  0  0  0  0  0  0  0  0  0  0  0
   -0.4720   20.6570  -30.5790 C   0  0  0  0  0  0  0  0  0  0  0  0
   -3.4150   21.2480  -29.1580 C   0  0  0  0  0  0  0  0  0  0  0  0
   -4.1460   22.1170  -29.9800 C   0  0  0  0  0  0  0  0  0  0  0  0
   -5.1830   21.6060  -30.8390 N   0  0  0  0  0  0  0  0  0  0  0  0
   -5.0380   20.4990  -31.7490 C   0  0  0  0  0  0  0  0  0  0  0  0
   -5.8990   19.3990  -31.6260 C   0  0  0  0  0  0  0  0  0  0  0  0
   -5.7920   18.3120  -32.4950 C   0  0  0  0  0  0  0  0  0  0  0  0
   -4.8110   18.2980  -33.4910 C   0  0  0  0  0  0  0  0  0  0  0  0
   -4.7180   16.9320  -34.5970 S   0  0  0  0  0  0  0  0  0  0  0  0
   -3.2870   16.0210  -34.2620 N   0  0  0  0  0  0  0  0  0  0  0  0
   -5.9170   16.0410  -34.4310 O   0  0  0  0  0  0  0  0  0  0  0  0
   -4.6740   17.4370  -36.0120 O   0  0  0  0  0  0  0  0  0  0  0  0
   -3.9200   19.3750  -33.5960 C   0  0  0  0  0  0  0  0  0  0  0  0
   -4.0220   20.4620  -32.7230 C   0  0  0  0  0  0  0  0  0  0  0  0
   -3.7750   23.4760  -30.0550 C   0  0  0  0  0  0  0  0  0  0  0  0
   -4.5000   24.3720  -30.9120 N   0  0  0  0  0  0  0  0  0  0  0  0
   -4.3630   25.6060  -30.7920 O   0  0  0  0  0  0  0  0  0  0  0  0
   -5.4570   23.8800  -31.7690 O   0  0  0  0  0  0  0  0  0  0  0  0
   -2.6790   23.9470  -29.3010 C   0  0  0  0  0  0  0  0  0  0  0  0
   -2.3360   25.3040  -29.3140 O   0  0  0  0  0  0  0  0  0  0  0  0
   -0.9022   23.4955  -26.6708 H   0  0  0  0  0  0  0  0  0  0  0  0
    0.1617   22.9738  -28.0208 H   0  0  0  0  0  0  0  0  0  0  0  0
   -0.5449   24.6253  -28.0208 H   0  0  0  0  0  0  0  0  0  0  0  0
   -0.0002   17.4992  -29.3554 H   0  0  0  0  0  0  0  0  0  0  0  0
    0.0071   16.9877  -31.7979 H   0  0  0  0  0  0  0  0  0  0  0  0
    1.6601   20.5676  -33.3247 H   0  0  0  0  0  0  0  0  0  0  0  0
    2.8513   19.2127  -33.4719 H   0  0  0  0  0  0  0  0  0  0  0  0
    3.2964   21.5062  -34.7183 H   0  0  0  0  0  0  0  0  0  0  0  0
    3.6306   19.9304  -35.5415 H   0  0  0  0  0  0  0  0  0  0  0  0
    2.4530   21.4716  -37.0652 H   0  0  0  0  0  0  0  0  0  0  0  0
   -0.1011   21.8490  -36.3818 H   0  0  0  0  0  0  0  0  0  0  0  0
    0.6144   21.7604  -34.7132 H   0  0  0  0  0  0  0  0  0  0  0  0
    3.3664   22.9375  -35.5416 H   0  0  0  0  0  0  0  0  0  0  0  0
    4.1146   25.3101  -35.7209 H   0  0  0  0  0  0  0  0  0  0  0  0
    2.4529   27.1170  -36.1782 H   0  0  0  0  0  0  0  0  0  0  0  0
    0.0342   26.5515  -36.4412 H   0  0  0  0  0  0  0  0  0  0  0  0
   -0.7255   24.1836  -36.2474 H   0  0  0  0  0  0  0  0  0  0  0  0
    0.2078   19.9342  -37.1960 H   0  0  0  0  0  0  0  0  0  0  0  0
    1.8634   19.4043  -37.7547 H   0  0  0  0  0  0  0  0  0  0  0  0
    0.3464   17.8523  -36.1885 H   0  0  0  0  0  0  0  0  0  0  0  0
    2.1410   17.9303  -36.0312 H   0  0  0  0  0  0  0  0  0  0  0  0
   -0.6721   21.1770  -32.6719 H   0  0  0  0  0  0  0  0  0  0  0  0
   -0.6162   21.6913  -30.2334 H   0  0  0  0  0  0  0  0  0  0  0  0
   -3.6926   20.1845  -29.1159 H   0  0  0  0  0  0  0  0  0  0  0  0
   -6.1100   22.0870  -30.8070 H   0  0  0  0  0  0  0  0  0  0  0  0
   -6.6658   19.3927  -30.8374 H   0  0  0  0  0  0  0  0  0  0  0  0
   -6.4831   17.4620  -32.3957 H   0  0  0  0  0  0  0  0  0  0  0  0
   -2.4940   16.7000  -34.2270 H   0  0  0  0  0  0  0  0  0  0  0  0
   -3.1372   19.3648  -34.3687 H   0  0  0  0  0  0  0  0  0  0  0  0
   -3.3048   21.2927  -32.7974 H   0  0  0  0  0  0  0  0  0  0  0  0
   -3.0190   26.0480  -29.3390 H   0  0  0  0  0  0  0  0  0  0  0  0
  1  2  1  0
  2  3  2  0
  3  4  1  0
  4  5  2  0
  4  6  2  0
  4  7  1  0
  7  8  1  0
  8  9  2  0
  9 10  1  0
 10 11  2  0
 11 12  1  0
 12 13  2  0
 12 14  1  0
 14 15  1  0
 15 16  1  0
 16 17  1  0
 17 18  1  0
 18 19  1  0
 19 20  2  0
 20 21  1  0
 21 22  2  0
 22 23  1  0
 23 24  2  0
 17 25  1  0
 25 26  1  0
 11 27  1  0
 27 28  2  0
  3 29  1  0
 29 30  2  0
 30 31  1  0
 31 32  1  0
 32 33  2  0
 33 34  1  0
 34 35  2  0
 35 36  1  0
 36 37  1  0
 36 38  2  0
 36 39  2  0
 35 40  1  0
 40 41  2  0
 30 42  1  0
 42 43  1  0
 43 44  2  0
 43 45  1  0
 42 46  2  0
 46 47  1  0
 46  2  1  0
 28  8  1  0
 41 32  1  0
 26 14  1  0
 24 19  1  0
  1 48  1  0
  1 49  1  0
  1 50  1  0
  9 51  1  0
 10 52  1  0
 15 53  1  0
 15 54  1  0
 16 55  1  0
 16 56  1  0
 17 57  1  0
 18 58  1  0
 18 59  1  0
 20 60  1  0
 21 61  1  0
 22 62  1  0
 23 63  1  0
 24 64  1  0
 25 65  1  0
 25 66  1  0
 26 67  1  0
 26 68  1  0
 27 69  1  0
 28 70  1  0
 29 71  1  0
 31 72  1  0
 33 73  1  0
 34 74  1  0
 37 75  1  0
 40 76  1  0
 41 77  1  0
 47 78  1  0
M  CHG  4   7  -1  37  -1  43   1  45  -1
M  END
>  <UniqueID>  (18) 
18

>  <SMILES>  (18) 
Cc1c(S(=O)(=O)[N-]c2ccc(C(=O)N3CCC(Cc4ccccc4)CC3)cc2)cc(Nc2ccc(S([NH-])(=O)=O)cc2)c([N+](=O)[O-])c1O

>  <Energy>  (18) 
110.79849061411637

>  <Genealogy>  (18) 
Cc1c(S(=O)(=O)[N-]c2ccc(C(=O)N3CCC(Cc4ccccc4)CC3)cc2)cc(Nc2ccc(S([NH-])(=O)=O)cc2)c([N+](=O)[O-])c1O (protonated)
Cc1c(S(=O)(=O)[N-]c2ccc(C(=O)N3CCC(Cc4ccccc4)CC3)cc2)cc(Nc2ccc(S([NH-])(=O)=O)cc2)c([N+](=O)[O-])c1O (3D coordinates assigned)
Cc1c(S(=O)(=O)[N-]c2ccc(C(=O)N3CCC(Cc4ccccc4)CC3)cc2)cc(Nc2ccc(S([NH-])(=O)=O)cc2)c([N+](=O)[O-])c1O (nonaromatic ring conformer: 110.79849061411637 kcal/mol)

>  <smiles>  (18) 
Cc1c(S(=O)(=O)Nc2ccc(C(=O)N3CCC(Cc4ccccc4)CC3)cc2)cc(Nc2ccc(S(N)(=O)=O)cc2)c([N+](=O)[O-])c1O

>  <score_type>  (18) 
oracle

>  <origin>  (18) 
adgpu

>  <m_score__min__energy>  (18) 
-13.01

>  <m_primary>  (18) 
energy

$$$$
18:0
     RDKit          3D

 69 73  0  0  0  0  0  0  0  0999 V2000
   -6.3090   24.9600  -31.2040 O   0  0  0  0  0  0  0  0  0  0  0  0
   -5.3070   24.2180  -31.0160 C   0  0  0  0  0  0  0  0  0  0  0  0
   -4.1340   24.7260  -30.3680 N   0  0  0  0  0  0  0  0  0  0  0  0
   -3.4170   24.0510  -29.3240 C   0  0  0  0  0  0  0  0  0  0  0  0
   -3.9450   22.8560  -28.8210 C   0  0  0  0  0  0  0  0  0  0  0  0
   -3.3450   22.2230  -27.7310 C   0  0  0  0  0  0  0  0  0  0  0  0
   -2.2160   22.7800  -27.1330 C   0  0  0  0  0  0  0  0  0  0  0  0
   -1.6470   23.9540  -27.6470 C   0  0  0  0  0  0  0  0  0  0  0  0
   -0.2790   24.7030  -26.8060 S   0  0  0  0  0  0  0  0  0  0  0  0
    0.8460   24.9090  -27.7850 O   0  0  0  0  0  0  0  0  0  0  0  0
    0.2110   23.7640  -25.7390 O   0  0  0  0  0  0  0  0  0  0  0  0
   -0.7210   26.2170  -26.0390 N   0  0  0  0  0  0  0  0  0  0  0  0
   -0.4970   26.1610  -24.5840 C   0  0  0  0  0  0  0  0  0  0  0  0
   -0.6220   27.5620  -23.9510 C   0  0  0  0  0  0  0  0  0  0  0  0
   -1.2600   28.4630  -24.8340 O   0  0  0  0  0  0  0  0  0  0  0  0
   -0.4490   28.6730  -25.9790 C   0  0  0  0  0  0  0  0  0  0  0  0
    0.0120   27.3500  -26.6270 C   0  0  0  0  0  0  0  0  0  0  0  0
   -2.2250   24.5680  -28.7760 C   0  0  0  0  0  0  0  0  0  0  0  0
   -1.6110   25.6710  -29.3580 O   0  0  0  0  0  0  0  0  0  0  0  0
   -5.3490   22.8400  -31.4090 N   0  0  0  0  0  0  0  0  0  0  0  0
   -6.5650   22.0970  -31.6120 C   0  0  0  0  0  0  0  0  0  0  0  0
   -7.6750   22.3830  -30.8010 C   0  0  0  0  0  0  0  0  0  0  0  0
   -8.8780   21.6990  -30.9760 C   0  0  0  0  0  0  0  0  0  0  0  0
   -8.9880   20.7230  -31.9660 C   0  0  0  0  0  0  0  0  0  0  0  0
   -7.9030   20.4450  -32.8000 C   0  0  0  0  0  0  0  0  0  0  0  0
   -6.6940   21.1470  -32.6540 C   0  0  0  0  0  0  0  0  0  0  0  0
   -5.6020   20.8980  -33.5020 O   0  0  0  0  0  0  0  0  0  0  0  0
   -4.2610   20.7650  -33.1160 C   0  0  0  0  0  0  0  0  0  0  0  0
   -3.8880   19.6350  -32.3810 C   0  0  0  0  0  0  0  0  0  0  0  0
   -2.5740   19.4880  -31.9270 C   0  0  0  0  0  0  0  0  0  0  0  0
   -1.6260   20.4930  -32.1700 C   0  0  0  0  0  0  0  0  0  0  0  0
   -0.2490   20.3370  -31.6640 C   0  0  0  0  0  0  0  0  0  0  0  0
    0.6790   20.1400  -32.4930 O   0  0  0  0  0  0  0  0  0  0  0  0
    0.0520   20.3800  -30.2560 N   0  0  0  0  0  0  0  0  0  0  0  0
    0.6240   19.2460  -29.5460 C   0  0  0  0  0  0  0  0  0  0  0  0
    0.4450   19.5490  -28.0620 C   0  0  0  0  0  0  0  0  0  0  0  0
    0.1410   21.0490  -27.9730 C   0  0  1  0  0  0  0  0  0  0  0  0
    1.2940   21.7770  -27.6220 O   0  0  0  0  0  0  0  0  0  0  0  0
   -0.3620   21.4520  -29.3610 C   0  0  0  0  0  0  0  0  0  0  0  0
   -1.9920   21.6140  -32.9310 C   0  0  0  0  0  0  0  0  0  0  0  0
   -3.3050   21.7590  -33.3890 C   0  0  0  0  0  0  0  0  0  0  0  0
   -4.8376   22.4134  -29.2872 H   0  0  0  0  0  0  0  0  0  0  0  0
   -3.7641   21.2828  -27.3433 H   0  0  0  0  0  0  0  0  0  0  0  0
   -1.7686   22.2957  -26.2525 H   0  0  0  0  0  0  0  0  0  0  0  0
   -1.2444   25.4934  -24.1304 H   0  0  0  0  0  0  0  0  0  0  0  0
    0.5195   25.7829  -24.4003 H   0  0  0  0  0  0  0  0  0  0  0  0
   -1.2120   27.4871  -23.0256 H   0  0  0  0  0  0  0  0  0  0  0  0
    0.3883   27.9399  -23.7351 H   0  0  0  0  0  0  0  0  0  0  0  0
   -1.0258   29.2464  -26.7196 H   0  0  0  0  0  0  0  0  0  0  0  0
    0.4501   29.2185  -25.6565 H   0  0  0  0  0  0  0  0  0  0  0  0
   -0.1829   27.3874  -27.7089 H   0  0  0  0  0  0  0  0  0  0  0  0
    1.0886   27.2158  -26.4453 H   0  0  0  0  0  0  0  0  0  0  0  0
   -4.4360   22.3640  -31.5910 H   0  0  0  0  0  0  0  0  0  0  0  0
   -7.5951   23.1538  -30.0203 H   0  0  0  0  0  0  0  0  0  0  0  0
   -9.7402   21.9295  -30.3329 H   0  0  0  0  0  0  0  0  0  0  0  0
   -9.9313   20.1710  -32.0902 H   0  0  0  0  0  0  0  0  0  0  0  0
   -7.9951   19.6714  -33.5765 H   0  0  0  0  0  0  0  0  0  0  0  0
   -4.6333   18.8571  -32.1588 H   0  0  0  0  0  0  0  0  0  0  0  0
   -2.2824   18.5810  -31.3772 H   0  0  0  0  0  0  0  0  0  0  0  0
    0.0943   18.3199  -29.8141 H   0  0  0  0  0  0  0  0  0  0  0  0
    1.6834   19.1006  -29.8037 H   0  0  0  0  0  0  0  0  0  0  0  0
   -0.3907   18.9642  -27.6502 H   0  0  0  0  0  0  0  0  0  0  0  0
    1.3430   19.2840  -27.4846 H   0  0  0  0  0  0  0  0  0  0  0  0
   -0.6068   21.2641  -27.1955 H   0  0  0  0  0  0  0  0  0  0  0  0
    1.0250   22.7250  -27.4850 H   0  0  0  0  0  0  0  0  0  0  0  0
   -1.4578   21.5484  -29.3589 H   0  0  0  0  0  0  0  0  0  0  0  0
    0.0466   22.4239  -29.6749 H   0  0  0  0  0  0  0  0  0  0  0  0
   -1.2418   22.3827  -33.1684 H   0  0  0  0  0  0  0  0  0  0  0  0
   -3.5905   22.6523  -33.9639 H   0  0  0  0  0  0  0  0  0  0  0  0
  1  2  2  0
  2  3  1  0
  3  4  1  0
  4  5  2  0
  5  6  1  0
  6  7  2  0
  7  8  1  0
  8  9  1  0
  9 10  2  0
  9 11  2  0
  9 12  1  0
 12 13  1  0
 13 14  1  0
 14 15  1  0
 15 16  1  0
 16 17  1  0
  8 18  2  0
 18 19  1  0
  2 20  1  0
 20 21  1  0
 21 22  2  0
 22 23  1  0
 23 24  2  0
 24 25  1  0
 25 26  2  0
 26 27  1  0
 27 28  1  0
 28 29  2  0
 29 30  1  0
 30 31  2  0
 31 32  1  0
 32 33  2  0
 32 34  1  0
 34 35  1  0
 35 36  1  0
 36 37  1  0
 37 38  1  0
 37 39  1  0
 31 40  1  0
 40 41  2  0
 18  4  1  0
 26 21  1  0
 41 28  1  0
 17 12  1  0
 39 34  1  0
  5 42  1  0
  6 43  1  0
  7 44  1  0
 13 45  1  0
 13 46  1  0
 14 47  1  0
 14 48  1  0
 16 49  1  0
 16 50  1  0
 17 51  1  0
 17 52  1  0
 20 53  1  0
 22 54  1  0
 23 55  1  0
 24 56  1  0
 25 57  1  0
 29 58  1  0
 30 59  1  0
 35 60  1  0
 35 61  1  0
 36 62  1  0
 36 63  1  0
 37 64  1  1
 38 65  1  0
 39 66  1  0
 39 67  1  0
 40 68  1  0
 41 69  1  0
M  CHG  2   3  -1  19  -1
M  END
>  <UniqueID>  (19) 
19

>  <SMILES>  (19) 
O=C([N-]c1cccc(S(=O)(=O)N2CCOCC2)c1[O-])Nc1ccccc1Oc1ccc(C(=O)N2CC[C@@H](O)C2)cc1

>  <Energy>  (19) 
107.68575099935579

>  <Genealogy>  (19) 
O=C([N-]c1cccc(S(=O)(=O)N2CCOCC2)c1[O-])Nc1ccccc1Oc1ccc(C(=O)N2CCC(O)C2)cc1 (protonated)
O=C([N-]c1cccc(S(=O)(=O)N2CCOCC2)c1[O-])Nc1ccccc1Oc1ccc(C(=O)N2CC[C@@H](O)C2)cc1 (chirality)
O=C([N-]c1cccc(S(=O)(=O)N2CCOCC2)c1[O-])Nc1ccccc1Oc1ccc(C(=O)N2CC[C@@H](O)C2)cc1 (3D coordinates assigned)
O=C([N-]c1cccc(S(=O)(=O)N2CCOCC2)c1[O-])Nc1ccccc1Oc1ccc(C(=O)N2CC[C@@H](O)C2)cc1 (nonaromatic ring conformer: 107.68575099935579 kcal/mol)

>  <smiles>  (19) 
O=C(Nc1ccccc1Oc1ccc(C(=O)N2CCC(O)C2)cc1)Nc1cccc(S(=O)(=O)N2CCOCC2)c1O

>  <score_type>  (19) 
oracle

>  <origin>  (19) 
adgpu

>  <m_score__min__energy>  (19) 
-15.15

>  <m_primary>  (19) 
energy

$$$$
19:0
     RDKit          3D

 90 95  0  0  0  0  0  0  0  0999 V2000
   -4.5560   14.2470  -31.7870 C   0  0  0  0  0  0  0  0  0  0  0  0
   -4.5200   14.3200  -33.3080 C   0  0  0  0  0  0  0  0  0  0  0  0
   -3.8720   15.5670  -33.7420 N   0  0  0  0  0  0  0  0  0  0  0  0
   -2.6140   15.7330  -34.2440 C   0  0  0  0  0  0  0  0  0  0  0  0
   -1.3940   14.4640  -34.4260 S   0  0  0  0  0  0  0  0  0  0  0  0
   -1.0650   13.6990  -32.8540 C   0  0  0  0  0  0  0  0  0  0  0  0
   -1.8400   13.3890  -35.3770 O   0  0  0  0  0  0  0  0  0  0  0  0
   -0.1330   15.0770  -34.9610 O   0  0  0  0  0  0  0  0  0  0  0  0
   -2.3840   17.0800  -34.5370 C   0  0  0  0  0  0  0  0  0  0  0  0
   -0.8290   17.8890  -34.9370 S   0  0  0  0  0  0  0  0  0  0  0  0
   -0.2760   18.0880  -33.2450 C   0  0  0  0  0  0  0  0  0  0  0  0
    0.1410   19.3380  -32.7670 C   0  0  0  0  0  0  0  0  0  0  0  0
    0.4560   19.5090  -31.4130 C   0  0  0  0  0  0  0  0  0  0  0  0
    0.3390   18.4280  -30.5250 C   0  0  0  0  0  0  0  0  0  0  0  0
    0.6810   18.6300  -28.8090 S   0  0  0  0  0  0  0  0  0  0  0  0
    0.9080   17.2820  -28.1870 O   0  0  0  0  0  0  0  0  0  0  0  0
    1.9430   19.4370  -28.6670 O   0  0  0  0  0  0  0  0  0  0  0  0
   -0.6550   19.4130  -27.9960 N   0  0  0  0  0  0  0  0  0  0  0  0
   -1.3610   18.4970  -27.0890 C   0  0  0  0  0  0  0  0  0  0  0  0
   -2.0270   19.3670  -26.0350 C   0  0  0  0  0  0  0  0  0  0  0  0
   -1.2350   20.6650  -26.0300 C   0  0  0  0  0  0  0  0  0  0  0  0
   -0.2170   20.5270  -27.1560 C   0  0  0  0  0  0  0  0  0  0  0  0
   -0.0860   17.1830  -31.0080 C   0  0  0  0  0  0  0  0  0  0  0  0
   -0.3890   17.0120  -32.3600 C   0  0  0  0  0  0  0  0  0  0  0  0
   -3.5430   17.7390  -34.2010 C   0  0  0  0  0  0  0  0  0  0  0  0
   -3.8190   19.1070  -34.1820 C   0  0  0  0  0  0  0  0  0  0  0  0
   -5.0410   19.5270  -33.6320 C   0  0  0  0  0  0  0  0  0  0  0  0
   -5.9490   18.5820  -33.1040 C   0  0  0  0  0  0  0  0  0  0  0  0
   -7.3820   19.1270  -32.2320 S   0  0  0  0  0  0  0  0  0  0  0  0
   -8.6090   18.7140  -32.9990 O   0  0  0  0  0  0  0  0  0  0  0  0
   -7.4460   18.4780  -30.8770 O   0  0  0  0  0  0  0  0  0  0  0  0
   -7.3740   20.8750  -32.0450 C   0  0  0  0  0  0  0  0  0  0  0  0
   -8.5450   21.6100  -32.2540 C   0  0  0  0  0  0  0  0  0  0  0  0
   -8.5300   23.0080  -32.1800 C   0  0  0  0  0  0  0  0  0  0  0  0
   -9.7950   23.7910  -32.3700 C   0  0  0  0  0  0  0  0  0  0  0  0
   -7.3310   23.6670  -31.8690 C   0  0  0  0  0  0  0  0  0  0  0  0
   -6.1480   22.9430  -31.6460 C   0  0  0  0  0  0  0  0  0  0  0  0
   -4.8890   23.6570  -31.3040 C   0  0  0  0  0  0  0  0  0  0  0  0
   -4.9110   24.9200  -31.2000 O   0  0  0  0  0  0  0  0  0  0  0  0
   -3.6610   22.9570  -31.0290 N   0  0  0  0  0  0  0  0  0  0  0  0
   -3.1500   21.9180  -31.9290 C   0  0  0  0  0  0  0  0  0  0  0  0
   -2.5950   20.7230  -31.1190 C   0  0  0  0  0  0  0  0  0  0  0  0
   -2.1280   21.0740  -29.7530 N   0  0  0  0  0  0  0  0  0  0  0  0
   -3.1370   20.7710  -28.7240 C   0  0  0  0  0  0  0  0  0  0  0  0
   -1.6490   22.4700  -29.6650 C   0  0  0  0  0  0  0  0  0  0  0  0
   -2.7530   23.4840  -30.0050 C   0  0  0  0  0  0  0  0  0  0  0  0
   -6.1910   21.5410  -31.7100 C   0  0  0  0  0  0  0  0  0  0  0  0
   -5.6550   17.2020  -33.1660 C   0  0  0  0  0  0  0  0  0  0  0  0
   -4.4270   16.8060  -33.7190 C   0  0  0  0  0  0  0  0  0  0  0  0
   -4.1066   15.1582  -31.3654 H   0  0  0  0  0  0  0  0  0  0  0  0
   -5.5992   14.1623  -31.4486 H   0  0  0  0  0  0  0  0  0  0  0  0
   -3.9882   13.3678  -31.4486 H   0  0  0  0  0  0  0  0  0  0  0  0
   -3.9547   13.4615  -33.6996 H   0  0  0  0  0  0  0  0  0  0  0  0
   -5.5503   14.2985  -33.6926 H   0  0  0  0  0  0  0  0  0  0  0  0
   -1.3593   14.3832  -32.0445 H   0  0  0  0  0  0  0  0  0  0  0  0
   -1.6412   12.7655  -32.7727 H   0  0  0  0  0  0  0  0  0  0  0  0
    0.0089   13.4752  -32.7727 H   0  0  0  0  0  0  0  0  0  0  0  0
    0.2213   20.1893  -33.4590 H   0  0  0  0  0  0  0  0  0  0  0  0
    0.7946   20.4891  -31.0459 H   0  0  0  0  0  0  0  0  0  0  0  0
   -1.3310   19.7700  -28.7110 H   0  0  0  0  0  0  0  0  0  0  0  0
   -2.1184   17.9223  -27.6422 H   0  0  0  0  0  0  0  0  0  0  0  0
   -0.6681   17.7755  -26.6315 H   0  0  0  0  0  0  0  0  0  0  0  0
   -3.0776   19.5573  -26.2997 H   0  0  0  0  0  0  0  0  0  0  0  0
   -2.0311   18.8844  -25.0465 H   0  0  0  0  0  0  0  0  0  0  0  0
   -1.8998   21.5214  -26.2160 H   0  0  0  0  0  0  0  0  0  0  0  0
   -0.7479   20.8414  -25.0596 H   0  0  0  0  0  0  0  0  0  0  0  0
   -0.1801   21.4539  -27.7472 H   0  0  0  0  0  0  0  0  0  0  0  0
    0.7899   20.3422  -26.7536 H   0  0  0  0  0  0  0  0  0  0  0  0
   -0.1817   16.3333  -30.3160 H   0  0  0  0  0  0  0  0  0  0  0  0
   -0.7171   16.0292  -32.7293 H   0  0  0  0  0  0  0  0  0  0  0  0
   -3.1002   19.8351  -34.5861 H   0  0  0  0  0  0  0  0  0  0  0  0
   -5.2927   20.5976  -33.6122 H   0  0  0  0  0  0  0  0  0  0  0  0
   -9.4856   21.0856  -32.4784 H   0  0  0  0  0  0  0  0  0  0  0  0
  -10.2160   24.0516  -31.3877 H   0  0  0  0  0  0  0  0  0  0  0  0
   -9.5757   24.7115  -32.9308 H   0  0  0  0  0  0  0  0  0  0  0  0
  -10.5211   23.1842  -32.9308 H   0  0  0  0  0  0  0  0  0  0  0  0
   -7.3172   24.7647  -31.7989 H   0  0  0  0  0  0  0  0  0  0  0  0
   -3.9665   21.5675  -32.5774 H   0  0  0  0  0  0  0  0  0  0  0  0
   -2.3378   22.3428  -32.5371 H   0  0  0  0  0  0  0  0  0  0  0  0
   -3.3910   19.9693  -31.0278 H   0  0  0  0  0  0  0  0  0  0  0  0
   -1.7159   20.3525  -31.6667 H   0  0  0  0  0  0  0  0  0  0  0  0
   -2.6942   20.9040  -27.7259 H   0  0  0  0  0  0  0  0  0  0  0  0
   -3.9936   21.4515  -28.8388 H   0  0  0  0  0  0  0  0  0  0  0  0
   -3.4769   19.7312  -28.8388 H   0  0  0  0  0  0  0  0  0  0  0  0
   -1.2966   22.6599  -28.6404 H   0  0  0  0  0  0  0  0  0  0  0  0
   -0.8373   22.5958  -30.3967 H   0  0  0  0  0  0  0  0  0  0  0  0
   -3.3291   23.7057  -29.0945 H   0  0  0  0  0  0  0  0  0  0  0  0
   -2.2791   24.3963  -30.3963 H   0  0  0  0  0  0  0  0  0  0  0  0
   -5.2827   20.9593  -31.4939 H   0  0  0  0  0  0  0  0  0  0  0  0
   -6.3706   16.4559  -32.7902 H   0  0  0  0  0  0  0  0  0  0  0  0
  1  2  1  0
  2  3  1  0
  3  4  1  0
  4  5  1  0
  5  6  1  0
  5  7  2  0
  5  8  2  0
  4  9  2  0
  9 10  1  0
 10 11  1  0
 11 12  2  0
 12 13  1  0
 13 14  2  0
 14 15  1  0
 15 16  2  0
 15 17  2  0
 15 18  1  0
 18 19  1  0
 19 20  1  0
 20 21  1  0
 21 22  1  0
 14 23  1  0
 23 24  2  0
  9 25  1  0
 25 26  2  0
 26 27  1  0
 27 28  2  0
 28 29  1  0
 29 30  2  0
 29 31  2  0
 29 32  1  0
 32 33  2  0
 33 34  1  0
 34 35  1  0
 34 36  2  0
 36 37  1  0
 37 38  1  0
 38 39  2  0
 38 40  1  0
 40 41  1  0
 41 42  1  0
 42 43  1  0
 43 44  1  0
 43 45  1  0
 45 46  1  0
 37 47  2  0
 28 48  1  0
 48 49  2  0
 49  3  1  0
 24 11  1  0
 49 25  1  0
 22 18  1  0
 47 32  1  0
 46 40  1  0
  1 50  1  0
  1 51  1  0
  1 52  1  0
  2 53  1  0
  2 54  1  0
  6 55  1  0
  6 56  1  0
  6 57  1  0
 12 58  1  0
 13 59  1  0
 18 60  1  0
 19 61  1  0
 19 62  1  0
 20 63  1  0
 20 64  1  0
 21 65  1  0
 21 66  1  0
 22 67  1  0
 22 68  1  0
 23 69  1  0
 24 70  1  0
 26 71  1  0
 27 72  1  0
 33 73  1  0
 35 74  1  0
 35 75  1  0
 35 76  1  0
 36 77  1  0
 41 78  1  0
 41 79  1  0
 42 80  1  0
 42 81  1  0
 44 82  1  0
 44 83  1  0
 44 84  1  0
 45 85  1  0
 45 86  1  0
 46 87  1  0
 46 88  1  0
 47 89  1  0
 48 90  1  0
M  CHG  1  18   1
M  END
>  <UniqueID>  (20) 
20

>  <SMILES>  (20) 
CCn1c(S(C)(=O)=O)c(Sc2ccc(S(=O)(=O)[NH+]3CCCC3)cc2)c2ccc(S(=O)(=O)c3cc(C)cc(C(=O)N4CCN(C)CC4)c3)cc21

>  <Energy>  (20) 
138.57081391579257

>  <Genealogy>  (20) 
CCn1c(S(C)(=O)=O)c(Sc2ccc(S(=O)(=O)[NH+]3CCCC3)cc2)c2ccc(S(=O)(=O)c3cc(C)cc(C(=O)N4CCN(C)CC4)c3)cc21 (protonated)
CCn1c(S(C)(=O)=O)c(Sc2ccc(S(=O)(=O)[NH+]3CCCC3)cc2)c2ccc(S(=O)(=O)c3cc(C)cc(C(=O)N4CCN(C)CC4)c3)cc21 (3D coordinates assigned)
CCn1c(S(C)(=O)=O)c(Sc2ccc(S(=O)(=O)[NH+]3CCCC3)cc2)c2ccc(S(=O)(=O)c3cc(C)cc(C(=O)N4CCN(C)CC4)c3)cc21 (nonaromatic ring conformer: 138.57081391579257 kcal/mol)

>  <smiles>  (20) 
CCn1c(S(C)(=O)=O)c(Sc2ccc(S(=O)(=O)N3CCCC3)cc2)c2ccc(S(=O)(=O)c3cc(C)cc(C(=O)N4CCN(C)CC4)c3)cc21

>  <score_type>  (20) 
oracle

>  <origin>  (20) 
adgpu

>  <m_score__min__energy>  (20) 
-13.24

>  <m_primary>  (20) 
energy

$$$$
20:0
     RDKit          3D

 43 45  0  0  0  0  0  0  0  0999 V2000
   -6.5150   25.7880  -29.9550 O   0  0  0  0  0  0  0  0  0  0  0  0
   -5.3290   24.8930  -30.1750 S   0  0  0  0  0  0  0  0  0  0  0  0
   -4.2680   25.6660  -30.9080 O   0  0  0  0  0  0  0  0  0  0  0  0
   -4.7100   24.3810  -28.6380 N   0  0  0  0  0  0  0  0  0  0  0  0
   -3.5390   23.5730  -28.4420 C   0  0  0  0  0  0  0  0  0  0  0  0
   -3.6260   22.2600  -27.9410 C   0  0  0  0  0  0  0  0  0  0  0  0
   -2.4700   21.4980  -27.7470 C   0  0  0  0  0  0  0  0  0  0  0  0
   -2.5910   19.8650  -27.1180 Cl  0  0  0  0  0  0  0  0  0  0  0  0
   -1.2190   22.0360  -28.0560 C   0  0  0  0  0  0  0  0  0  0  0  0
   -1.1220   23.3350  -28.5590 C   0  0  0  0  0  0  0  0  0  0  0  0
   -2.2730   24.1060  -28.7570 C   0  0  0  0  0  0  0  0  0  0  0  0
   -2.1360   25.3990  -29.2630 O   0  0  0  0  0  0  0  0  0  0  0  0
   -5.8440   23.4870  -31.1010 C   0  0  0  0  0  0  0  0  0  0  0  0
   -7.1890   23.3550  -31.4660 C   0  0  0  0  0  0  0  0  0  0  0  0
   -7.6150   22.2360  -32.1880 C   0  0  0  0  0  0  0  0  0  0  0  0
   -6.6990   21.2440  -32.5450 C   0  0  0  0  0  0  0  0  0  0  0  0
   -5.3500   21.3660  -32.1850 C   0  0  0  0  0  0  0  0  0  0  0  0
   -4.1910   20.1140  -32.6360 S   0  0  0  0  0  0  0  0  0  0  0  0
   -3.4460   20.5530  -33.8660 O   0  0  0  0  0  0  0  0  0  0  0  0
   -3.1910   19.9410  -31.5260 O   0  0  0  0  0  0  0  0  0  0  0  0
   -4.9760   18.5850  -32.9500 N   0  0  0  0  0  0  0  0  0  0  0  0
   -6.0520   18.3480  -31.9750 C   0  0  0  0  0  0  0  0  0  0  0  0
   -6.8420   17.0750  -32.3410 C   0  0  0  0  0  0  0  0  0  0  0  0
   -6.2420   16.3870  -33.4230 O   0  0  0  0  0  0  0  0  0  0  0  0
   -6.2380   17.2140  -34.5730 C   0  0  0  0  0  0  0  0  0  0  0  0
   -5.5140   18.5540  -34.3180 C   0  0  0  0  0  0  0  0  0  0  0  0
   -4.9260   22.4910  -31.4610 C   0  0  0  0  0  0  0  0  0  0  0  0
   -4.6100   21.8310  -27.7007 H   0  0  0  0  0  0  0  0  0  0  0  0
   -0.3096   21.4363  -27.9031 H   0  0  0  0  0  0  0  0  0  0  0  0
   -0.1346   23.7550  -28.8012 H   0  0  0  0  0  0  0  0  0  0  0  0
   -2.9180   26.0370  -29.3420 H   0  0  0  0  0  0  0  0  0  0  0  0
   -7.9128   24.1338  -31.1840 H   0  0  0  0  0  0  0  0  0  0  0  0
   -8.6723   22.1369  -32.4750 H   0  0  0  0  0  0  0  0  0  0  0  0
   -7.0376   20.3636  -33.1109 H   0  0  0  0  0  0  0  0  0  0  0  0
   -5.6129   18.2262  -30.9738 H   0  0  0  0  0  0  0  0  0  0  0  0
   -6.7379   19.2079  -31.9863 H   0  0  0  0  0  0  0  0  0  0  0  0
   -6.8723   16.4089  -31.4662 H   0  0  0  0  0  0  0  0  0  0  0  0
   -7.8576   17.3725  -32.6409 H   0  0  0  0  0  0  0  0  0  0  0  0
   -5.7269   16.6839  -35.3902 H   0  0  0  0  0  0  0  0  0  0  0  0
   -7.2827   17.4364  -34.8358 H   0  0  0  0  0  0  0  0  0  0  0  0
   -4.6882   18.6639  -35.0363 H   0  0  0  0  0  0  0  0  0  0  0  0
   -6.2302   19.3796  -34.4421 H   0  0  0  0  0  0  0  0  0  0  0  0
   -3.8686   22.5915  -31.1748 H   0  0  0  0  0  0  0  0  0  0  0  0
  1  2  2  0
  2  3  2  0
  2  4  1  0
  4  5  1  0
  5  6  2  0
  6  7  1  0
  7  8  1  0
  7  9  2  0
  9 10  1  0
 10 11  2  0
 11 12  1  0
  2 13  1  0
 13 14  2  0
 14 15  1  0
 15 16  2  0
 16 17  1  0
 17 18  1  0
 18 19  2  0
 18 20  2  0
 18 21  1  0
 21 22  1  0
 22 23  1  0
 23 24  1  0
 24 25  1  0
 25 26  1  0
 17 27  2  0
 11  5  1  0
 27 13  1  0
 26 21  1  0
  6 28  1  0
  9 29  1  0
 10 30  1  0
 12 31  1  0
 14 32  1  0
 15 33  1  0
 16 34  1  0
 22 35  1  0
 22 36  1  0
 23 37  1  0
 23 38  1  0
 25 39  1  0
 25 40  1  0
 26 41  1  0
 26 42  1  0
 27 43  1  0
M  CHG  1   4  -1
M  END
>  <UniqueID>  (21) 
21

>  <SMILES>  (21) 
O=S(=O)([N-]c1cc(Cl)ccc1O)c1cccc(S(=O)(=O)N2CCOCC2)c1

>  <Energy>  (21) 
54.48939273582841

>  <Genealogy>  (21) 
O=S(=O)([N-]c1cc(Cl)ccc1O)c1cccc(S(=O)(=O)N2CCOCC2)c1 (protonated)
O=S(=O)([N-]c1cc(Cl)ccc1O)c1cccc(S(=O)(=O)N2CCOCC2)c1 (3D coordinates assigned)
O=S(=O)([N-]c1cc(Cl)ccc1O)c1cccc(S(=O)(=O)N2CCOCC2)c1 (nonaromatic ring conformer: 54.48939273582841 kcal/mol)

>  <smiles>  (21) 
O=S(=O)(Nc1cc(Cl)ccc1O)c1cccc(S(=O)(=O)N2CCOCC2)c1

>  <score_type>  (21) 
oracle

>  <origin>  (21) 
adgpu

>  <m_score__min__energy>  (21) 
-11.699999999999999

>  <m_primary>  (21) 
energy

$$$$
21:0
     RDKit          3D

 51 54  0  0  0  0  0  0  0  0999 V2000
   -0.2940   18.4170  -35.2610 C   0  0  0  0  0  0  0  0  0  0  0  0
   -0.0880   19.8010  -34.8510 N   0  0  0  0  0  0  0  0  0  0  0  0
    0.3030   20.8280  -35.6260 C   0  0  0  0  0  0  0  0  0  0  0  0
    0.4920   21.9430  -34.8930 N   0  0  0  0  0  0  0  0  0  0  0  0
    0.2360   21.6290  -33.6310 N   0  0  0  0  0  0  0  0  0  0  0  0
   -0.1040   20.3280  -33.6130 C   0  0  0  0  0  0  0  0  0  0  0  0
   -0.4830   19.4250  -32.1080 S   0  0  0  0  0  0  0  0  0  0  0  0
   -1.2250   20.8660  -31.3350 C   0  0  0  0  0  0  0  0  0  0  0  0
   -0.5400   21.5080  -30.2970 C   0  0  0  0  0  0  0  0  0  0  0  0
   -1.0480   22.6840  -29.7370 C   0  0  0  0  0  0  0  0  0  0  0  0
   -2.2440   23.2350  -30.2170 C   0  0  0  0  0  0  0  0  0  0  0  0
   -2.7130   24.5480  -29.7190 C   0  0  0  0  0  0  0  0  0  0  0  0
   -2.0690   25.1340  -28.8110 O   0  0  0  0  0  0  0  0  0  0  0  0
   -3.9020   25.1640  -30.2380 N   0  0  0  0  0  0  0  0  0  0  0  0
   -5.1210   24.4670  -30.5340 C   0  0  0  0  0  0  0  0  0  0  0  0
   -5.7270   24.5610  -31.8000 C   0  0  0  0  0  0  0  0  0  0  0  0
   -6.8590   23.7990  -32.0960 C   0  0  0  0  0  0  0  0  0  0  0  0
   -7.4090   22.9490  -31.1290 C   0  0  0  0  0  0  0  0  0  0  0  0
   -8.7660   21.9140  -31.5610 S   0  0  0  0  0  0  0  0  0  0  0  0
   -9.7790   22.7340  -32.3120 O   0  0  0  0  0  0  0  0  0  0  0  0
   -9.4110   21.3620  -30.3190 O   0  0  0  0  0  0  0  0  0  0  0  0
   -8.2050   20.6020  -32.5690 N   0  0  0  0  0  0  0  0  0  0  0  0
   -6.8360   20.2110  -32.1760 C   0  0  0  0  0  0  0  0  0  0  0  0
   -6.5350   18.7670  -32.6090 C   0  0  0  0  0  0  0  0  0  0  0  0
   -7.4000   17.8000  -32.0280 O   0  0  0  0  0  0  0  0  0  0  0  0
   -8.6670   18.3190  -31.6470 C   0  0  0  0  0  0  0  0  0  0  0  0
   -9.1570   19.4690  -32.5470 C   0  0  0  0  0  0  0  0  0  0  0  0
   -6.8390   22.8970  -29.8480 C   0  0  0  0  0  0  0  0  0  0  0  0
   -5.7060   23.6610  -29.5510 C   0  0  0  0  0  0  0  0  0  0  0  0
   -2.9650   22.5520  -31.2120 C   0  0  0  0  0  0  0  0  0  0  0  0
   -2.4610   21.3750  -31.7730 C   0  0  0  0  0  0  0  0  0  0  0  0
   -3.3850   20.5840  -33.0440 Cl  0  0  0  0  0  0  0  0  0  0  0  0
   -0.3887   17.7805  -34.3689 H   0  0  0  0  0  0  0  0  0  0  0  0
   -1.2127   18.3454  -35.8617 H   0  0  0  0  0  0  0  0  0  0  0  0
    0.5640   18.0810  -35.8617 H   0  0  0  0  0  0  0  0  0  0  0  0
    0.4493   20.7662  -36.7145 H   0  0  0  0  0  0  0  0  0  0  0  0
    0.4029   21.0852  -29.9199 H   0  0  0  0  0  0  0  0  0  0  0  0
   -0.5071   23.1786  -28.9167 H   0  0  0  0  0  0  0  0  0  0  0  0
   -5.3076   25.2372  -32.5595 H   0  0  0  0  0  0  0  0  0  0  0  0
   -7.3202   23.8668  -33.0923 H   0  0  0  0  0  0  0  0  0  0  0  0
   -6.1154   20.8892  -32.6564 H   0  0  0  0  0  0  0  0  0  0  0  0
   -6.7515   20.2756  -31.0812 H   0  0  0  0  0  0  0  0  0  0  0  0
   -6.6321   18.7059  -33.7030 H   0  0  0  0  0  0  0  0  0  0  0  0
   -5.5172   18.5349  -32.2622 H   0  0  0  0  0  0  0  0  0  0  0  0
   -9.4045   17.5040  -31.6913 H   0  0  0  0  0  0  0  0  0  0  0  0
   -8.5566   18.7278  -30.6318 H   0  0  0  0  0  0  0  0  0  0  0  0
   -9.2806   19.0894  -33.5720 H   0  0  0  0  0  0  0  0  0  0  0  0
  -10.1109   19.8354  -32.1398 H   0  0  0  0  0  0  0  0  0  0  0  0
   -7.2846   22.2535  -29.0751 H   0  0  0  0  0  0  0  0  0  0  0  0
   -5.2728   23.6282  -28.5404 H   0  0  0  0  0  0  0  0  0  0  0  0
   -3.9337   22.9470  -31.5519 H   0  0  0  0  0  0  0  0  0  0  0  0
  1  2  1  0
  2  3  1  0
  3  4  2  0
  4  5  1  0
  5  6  2  0
  6  7  1  0
  7  8  1  0
  8  9  2  0
  9 10  1  0
 10 11  2  0
 11 12  1  0
 12 13  2  0
 12 14  1  0
 14 15  1  0
 15 16  2  0
 16 17  1  0
 17 18  2  0
 18 19  1  0
 19 20  2  0
 19 21  2  0
 19 22  1  0
 22 23  1  0
 23 24  1  0
 24 25  1  0
 25 26  1  0
 26 27  1  0
 18 28  1  0
 28 29  2  0
 11 30  1  0
 30 31  2  0
 31 32  1  0
  6  2  1  0
 31  8  1  0
 29 15  1  0
 27 22  1  0
  1 33  1  0
  1 34  1  0
  1 35  1  0
  3 36  1  0
  9 37  1  0
 10 38  1  0
 16 39  1  0
 17 40  1  0
 23 41  1  0
 23 42  1  0
 24 43  1  0
 24 44  1  0
 26 45  1  0
 26 46  1  0
 27 47  1  0
 27 48  1  0
 28 49  1  0
 29 50  1  0
 30 51  1  0
M  CHG  1  14  -1
M  END
>  <UniqueID>  (22) 
22

>  <SMILES>  (22) 
Cn1cnnc1Sc1ccc(C(=O)[N-]c2ccc(S(=O)(=O)N3CCOCC3)cc2)cc1Cl

>  <Energy>  (22) 
101.18119795822643

>  <Genealogy>  (22) 
Cn1cnnc1Sc1ccc(C(=O)[N-]c2ccc(S(=O)(=O)N3CCOCC3)cc2)cc1Cl (protonated)
Cn1cnnc1Sc1ccc(C(=O)[N-]c2ccc(S(=O)(=O)N3CCOCC3)cc2)cc1Cl (3D coordinates assigned)
Cn1cnnc1Sc1ccc(C(=O)[N-]c2ccc(S(=O)(=O)N3CCOCC3)cc2)cc1Cl (nonaromatic ring conformer: 101.18119795822643 kcal/mol)

>  <smiles>  (22) 
Cn1cnnc1Sc1ccc(C(=O)Nc2ccc(S(=O)(=O)N3CCOCC3)cc2)cc1Cl

>  <score_type>  (22) 
oracle

>  <origin>  (22) 
adgpu

>  <m_score__min__energy>  (22) 
-11.94

>  <m_primary>  (22) 
energy

$$$$
22:0
     RDKit          3D

 45 48  0  0  0  0  0  0  0  0999 V2000
   -9.3430   18.6150  -31.9910 C   0  0  0  0  0  0  0  0  0  0  0  0
   -8.3000   19.6800  -31.9650 C   0  0  0  0  0  0  0  0  0  0  0  0
   -8.4160   20.7360  -31.2160 N   0  0  0  0  0  0  0  0  0  0  0  0
   -7.2570   21.5160  -31.4490 C   0  0  0  0  0  0  0  0  0  0  0  0
   -6.9440   22.7410  -30.8620 C   0  0  0  0  0  0  0  0  0  0  0  0
   -5.7330   23.3630  -31.2250 C   0  0  0  0  0  0  0  0  0  0  0  0
   -5.3030   24.9070  -30.5000 S   0  0  0  0  0  0  0  0  0  0  0  0
   -5.8770   26.0510  -31.2890 O   0  0  0  0  0  0  0  0  0  0  0  0
   -5.8610   24.9570  -29.1050 O   0  0  0  0  0  0  0  0  0  0  0  0
   -3.5780   25.0650  -30.4280 N   0  0  0  0  0  0  0  0  0  0  0  0
   -2.6920   24.2070  -29.6930 C   0  0  0  0  0  0  0  0  0  0  0  0
   -2.9650   22.8390  -29.5060 C   0  0  0  0  0  0  0  0  0  0  0  0
   -2.0850   22.0280  -28.7740 C   0  0  0  0  0  0  0  0  0  0  0  0
   -0.9260   22.5940  -28.2030 C   0  0  0  0  0  0  0  0  0  0  0  0
   -0.6490   23.9530  -28.4060 C   0  0  0  0  0  0  0  0  0  0  0  0
   -1.5260   24.7550  -29.1420 C   0  0  0  0  0  0  0  0  0  0  0  0
   -1.2270   26.1000  -29.3350 O   0  0  0  0  0  0  0  0  0  0  0  0
    0.0760   21.7370  -27.4610 C   0  0  0  0  0  0  0  0  0  0  0  0
   -0.5050   20.4780  -26.9520 N   0  0  0  0  0  0  0  0  0  0  0  0
   -1.2940   20.6910  -25.7260 C   0  0  0  0  0  0  0  0  0  0  0  0
   -1.2640   19.7690  -28.0000 C   0  0  0  0  0  0  0  0  0  0  0  0
   -2.4520   20.5890  -28.5230 C   0  0  0  0  0  0  0  0  0  0  0  0
   -4.8700   22.7390  -32.1580 C   0  0  0  0  0  0  0  0  0  0  0  0
   -5.2150   21.5050  -32.7300 C   0  0  0  0  0  0  0  0  0  0  0  0
   -6.4230   20.9200  -32.3550 C   0  0  0  0  0  0  0  0  0  0  0  0
   -7.0340   19.6380  -32.7870 C   0  0  0  0  0  0  0  0  0  0  0  0
   -9.6122   18.3402  -30.9605 H   0  0  0  0  0  0  0  0  0  0  0  0
  -10.2349   18.9880  -32.5159 H   0  0  0  0  0  0  0  0  0  0  0  0
   -8.9515   17.7311  -32.5159 H   0  0  0  0  0  0  0  0  0  0  0  0
   -7.6240   23.2093  -30.1351 H   0  0  0  0  0  0  0  0  0  0  0  0
   -3.8772   22.4016  -29.9380 H   0  0  0  0  0  0  0  0  0  0  0  0
    0.2663   24.3921  -27.9825 H   0  0  0  0  0  0  0  0  0  0  0  0
    0.9011   21.4906  -28.1455 H   0  0  0  0  0  0  0  0  0  0  0  0
    0.4220   22.3146  -26.5911 H   0  0  0  0  0  0  0  0  0  0  0  0
   -0.6572   20.5191  -24.8457 H   0  0  0  0  0  0  0  0  0  0  0  0
   -1.6728   21.7236  -25.7085 H   0  0  0  0  0  0  0  0  0  0  0  0
   -2.1410   19.9894  -25.7085 H   0  0  0  0  0  0  0  0  0  0  0  0
   -0.5876   19.5528  -28.8401 H   0  0  0  0  0  0  0  0  0  0  0  0
   -1.6650   18.8462  -27.5555 H   0  0  0  0  0  0  0  0  0  0  0  0
   -2.8021   20.1433  -29.4657 H   0  0  0  0  0  0  0  0  0  0  0  0
   -3.2387   20.5708  -27.7544 H   0  0  0  0  0  0  0  0  0  0  0  0
   -3.9230   23.2247  -32.4362 H   0  0  0  0  0  0  0  0  0  0  0  0
   -4.5499   21.0127  -33.4548 H   0  0  0  0  0  0  0  0  0  0  0  0
   -7.2451   19.6266  -33.8665 H   0  0  0  0  0  0  0  0  0  0  0  0
   -6.4076   18.7460  -32.6392 H   0  0  0  0  0  0  0  0  0  0  0  0
  1  2  1  0
  2  3  2  0
  3  4  1  0
  4  5  2  0
  5  6  1  0
  6  7  1  0
  7  8  2  0
  7  9  2  0
  7 10  1  0
 10 11  1  0
 11 12  2  0
 12 13  1  0
 13 14  2  0
 14 15  1  0
 15 16  2  0
 16 17  1  0
 14 18  1  0
 18 19  1  0
 19 20  1  0
 19 21  1  0
 21 22  1  0
  6 23  2  0
 23 24  1  0
 24 25  2  0
 25 26  1  0
 26  2  1  0
 25  4  1  0
 16 11  1  0
 22 13  1  0
  1 27  1  0
  1 28  1  0
  1 29  1  0
  5 30  1  0
 12 31  1  0
 15 32  1  0
 18 33  1  0
 18 34  1  0
 20 35  1  0
 20 36  1  0
 20 37  1  0
 21 38  1  0
 21 39  1  0
 22 40  1  0
 22 41  1  0
 23 42  1  0
 24 43  1  0
 26 44  1  0
 26 45  1  0
M  CHG  2  10  -1  17  -1
M  END
>  <UniqueID>  (23) 
23

>  <SMILES>  (23) 
CC1=Nc2cc(S(=O)(=O)[N-]c3cc4c(cc3[O-])CN(C)CC4)ccc2C1

>  <Energy>  (23) 
73.9723128309525

>  <Genealogy>  (23) 
CC1=Nc2cc(S(=O)(=O)[N-]c3cc4c(cc3[O-])CN(C)CC4)ccc2C1 (protonated)
CC1=Nc2cc(S(=O)(=O)[N-]c3cc4c(cc3[O-])CN(C)CC4)ccc2C1 (3D coordinates assigned)
CC1=Nc2cc(S(=O)(=O)[N-]c3cc4c(cc3[O-])CN(C)CC4)ccc2C1 (nonaromatic ring conformer: 73.9723128309525 kcal/mol)

>  <smiles>  (23) 
CC1=Nc2cc(S(=O)(=O)Nc3cc4c(cc3O)CN(C)CC4)ccc2C1

>  <score_type>  (23) 
oracle

>  <origin>  (23) 
adgpu

>  <m_score__min__energy>  (23) 
-14.31

>  <m_primary>  (23) 
energy

$$$$
23:0
     RDKit          3D

 33 35  0  0  0  0  0  0  0  0999 V2000
   -4.6730   25.3010  -30.9970 O   0  0  0  0  0  0  0  0  0  0  0  0
   -4.1050   24.6630  -30.0690 C   0  0  0  0  0  0  0  0  0  0  0  0
   -4.8740   23.6360  -29.2990 C   0  0  0  0  0  0  0  0  0  0  0  0
   -5.5170   22.6780  -30.2260 N   0  0  0  0  0  0  0  0  0  0  0  0
   -4.7650   21.8510  -31.0350 C   0  0  0  0  0  0  0  0  0  0  0  0
   -3.1210   21.8620  -31.0220 S   0  0  0  0  0  0  0  0  0  0  0  0
   -5.3740   20.9930  -31.8930 N   0  0  0  0  0  0  0  0  0  0  0  0
   -6.7210   20.9230  -31.9960 C   0  0  0  0  0  0  0  0  0  0  0  0
   -7.3100   20.0230  -32.8930 C   0  0  0  0  0  0  0  0  0  0  0  0
   -8.7010   19.9560  -33.0060 C   0  0  0  0  0  0  0  0  0  0  0  0
   -9.5070   20.7890  -32.2240 C   0  0  0  0  0  0  0  0  0  0  0  0
   -8.9270   21.6910  -31.3280 C   0  0  0  0  0  0  0  0  0  0  0  0
   -7.5250   21.7630  -31.2070 C   0  0  0  0  0  0  0  0  0  0  0  0
   -6.8900   22.6510  -30.3210 C   0  0  0  0  0  0  0  0  0  0  0  0
   -7.5930   23.4290  -29.6160 O   0  0  0  0  0  0  0  0  0  0  0  0
   -2.7390   24.9300  -29.7310 N   0  0  0  0  0  0  0  0  0  0  0  0
   -2.1020   24.5650  -28.4990 C   0  0  0  0  0  0  0  0  0  0  0  0
   -2.1540   23.2270  -28.0880 C   0  0  0  0  0  0  0  0  0  0  0  0
   -1.5320   22.8260  -26.9020 C   0  0  0  0  0  0  0  0  0  0  0  0
   -0.8340   23.7570  -26.1280 C   0  0  0  0  0  0  0  0  0  0  0  0
    0.0220   23.2090  -24.5110 Br  0  0  0  0  0  0  0  0  0  0  0  0
   -0.7490   25.0890  -26.5480 C   0  0  0  0  0  0  0  0  0  0  0  0
   -1.3720   25.4950  -27.7330 C   0  0  0  0  0  0  0  0  0  0  0  0
   -1.2090   26.7740  -28.1540 F   0  0  0  0  0  0  0  0  0  0  0  0
   -4.1880   23.0923  -28.6328 H   0  0  0  0  0  0  0  0  0  0  0  0
   -5.6521   24.1397  -28.7066 H   0  0  0  0  0  0  0  0  0  0  0  0
   -6.6767   19.3680  -33.5094 H   0  0  0  0  0  0  0  0  0  0  0  0
   -9.1621   19.2479  -33.7102 H   0  0  0  0  0  0  0  0  0  0  0  0
  -10.6019   20.7341  -32.3144 H   0  0  0  0  0  0  0  0  0  0  0  0
   -9.5656   22.3455  -30.7165 H   0  0  0  0  0  0  0  0  0  0  0  0
   -2.6877   22.4870  -28.7024 H   0  0  0  0  0  0  0  0  0  0  0  0
   -1.5920   21.7766  -26.5777 H   0  0  0  0  0  0  0  0  0  0  0  0
   -0.1904   25.8195  -25.9443 H   0  0  0  0  0  0  0  0  0  0  0  0
  1  2  2  0
  2  3  1  0
  3  4  1  0
  4  5  1  0
  5  6  2  0
  5  7  1  0
  7  8  1  0
  8  9  2  0
  9 10  1  0
 10 11  2  0
 11 12  1  0
 12 13  2  0
 13 14  1  0
 14 15  2  0
  2 16  1  0
 16 17  1  0
 17 18  2  0
 18 19  1  0
 19 20  2  0
 20 21  1  0
 20 22  1  0
 22 23  2  0
 23 24  1  0
 14  4  1  0
 23 17  1  0
 13  8  1  0
  3 25  1  0
  3 26  1  0
  9 27  1  0
 10 28  1  0
 11 29  1  0
 12 30  1  0
 18 31  1  0
 19 32  1  0
 22 33  1  0
M  CHG  2   7  -1  16  -1
M  END
>  <UniqueID>  (24) 
24

>  <SMILES>  (24) 
O=C(Cn1c(=S)[n-]c2ccccc2c1=O)[N-]c1ccc(Br)cc1F

>  <Energy>  (24) 
49.68286851446495

>  <Genealogy>  (24) 
O=C(Cn1c(=S)[n-]c2ccccc2c1=O)[N-]c1ccc(Br)cc1F (protonated)
O=C(Cn1c(=S)[n-]c2ccccc2c1=O)[N-]c1ccc(Br)cc1F (3D coordinates assigned)
O=C(Cn1c(=S)[n-]c2ccccc2c1=O)[N-]c1ccc(Br)cc1F (optimized conformer: 49.68286851446495 kcal/mol)

>  <smiles>  (24) 
O=C(Cn1c(=S)[nH]c2ccccc2c1=O)Nc1ccc(Br)cc1F

>  <score_type>  (24) 
oracle

>  <origin>  (24) 
adgpu

>  <m_score__min__energy>  (24) 
-10.460000000000001

>  <m_primary>  (24) 
energy

$$$$
24:0
     RDKit          3D

 50 52  0  0  0  0  0  0  0  0999 V2000
   -4.4088   25.8189  -31.4063 H   0  0  0  0  0  0  0  0  0  0  0  0
   -4.4960   24.9480  -30.7400 C   0  0  0  0  0  0  0  0  0  0  0  0
   -3.7060   24.7760  -29.6480 N   0  0  0  0  0  0  0  0  0  0  0  0
   -4.0180   23.6380  -28.9860 C   0  0  0  0  0  0  0  0  0  0  0  0
   -3.3930   23.2120  -27.9280 N   0  0  0  0  0  0  0  0  0  0  0  0
   -2.3400   23.9010  -27.2320 C   0  0  0  0  0  0  0  0  0  0  0  0
   -2.3640   25.2970  -27.0610 C   0  0  0  0  0  0  0  0  0  0  0  0
   -3.1910   25.8854  -27.4850 H   0  0  0  0  0  0  0  0  0  0  0  0
   -1.3440   25.9410  -26.3560 C   0  0  0  0  0  0  0  0  0  0  0  0
   -1.3744   27.0334  -26.2308 H   0  0  0  0  0  0  0  0  0  0  0  0
   -0.2810   25.2080  -25.8060 C   0  0  0  0  0  0  0  0  0  0  0  0
    0.7960   25.9130  -25.0630 C   0  0  0  0  0  0  0  0  0  0  0  0
    1.8500   26.2340  -25.6810 O   0  0  0  0  0  0  0  0  0  0  0  0
    0.6550   26.2580  -23.6630 N   0  0  0  0  0  0  0  0  0  0  0  0
    1.0070   25.4760  -23.0620 H   0  0  0  0  0  0  0  0  0  0  0  0
    1.4630   27.4440  -23.3370 C   0  0  0  0  0  0  0  0  0  0  0  0
    1.5350   27.5496  -22.2445 H   0  0  0  0  0  0  0  0  0  0  0  0
    2.4713   27.3287  -23.7614 H   0  0  0  0  0  0  0  0  0  0  0  0
    0.9867   28.3401  -23.7614 H   0  0  0  0  0  0  0  0  0  0  0  0
   -0.7610   26.4950  -23.3450 C   0  0  0  0  0  0  0  0  0  0  0  0
   -0.8929   26.5171  -22.2532 H   0  0  0  0  0  0  0  0  0  0  0  0
   -1.0764   27.4584  -23.7720 H   0  0  0  0  0  0  0  0  0  0  0  0
   -1.3729   25.6868  -23.7720 H   0  0  0  0  0  0  0  0  0  0  0  0
   -0.2780   23.8070  -25.9470 C   0  0  0  0  0  0  0  0  0  0  0  0
    0.5378   23.2164  -25.5047 H   0  0  0  0  0  0  0  0  0  0  0  0
   -1.3040   23.1590  -26.6450 C   0  0  0  0  0  0  0  0  0  0  0  0
   -1.2610   21.4060  -26.7910 Cl  0  0  0  0  0  0  0  0  0  0  0  0
   -5.2640   22.7860  -29.7280 S   0  0  0  0  0  0  0  0  0  0  0  0
   -5.4220   23.9350  -30.9460 C   0  0  0  0  0  0  0  0  0  0  0  0
   -6.5750   23.8360  -32.3130 S   0  0  0  0  0  0  0  0  0  0  0  0
   -6.6320   22.0420  -32.2450 C   0  0  0  0  0  0  0  0  0  0  0  0
   -7.7980   21.4120  -31.7920 C   0  0  0  0  0  0  0  0  0  0  0  0
   -8.6707   22.0173  -31.5055 H   0  0  0  0  0  0  0  0  0  0  0  0
   -7.8590   20.0200  -31.7020 C   0  0  0  0  0  0  0  0  0  0  0  0
   -8.7791   19.5335  -31.3460 H   0  0  0  0  0  0  0  0  0  0  0  0
   -6.7510   19.2400  -32.0640 C   0  0  0  0  0  0  0  0  0  0  0  0
   -6.8320   17.7430  -32.0180 C   0  0  0  0  0  0  0  0  0  0  0  0
   -6.8501   17.4088  -30.9702 H   0  0  0  0  0  0  0  0  0  0  0  0
   -7.7495   17.4097  -32.5251 H   0  0  0  0  0  0  0  0  0  0  0  0
   -5.9558   17.3126  -32.5251 H   0  0  0  0  0  0  0  0  0  0  0  0
   -5.5900   19.8690  -32.5380 C   0  0  0  0  0  0  0  0  0  0  0  0
   -4.7307   19.2602  -32.8558 H   0  0  0  0  0  0  0  0  0  0  0  0
   -5.5160   21.2700  -32.6100 C   0  0  0  0  0  0  0  0  0  0  0  0
   -4.3290   21.9170  -33.0920 N   0  0  0  0  0  0  0  0  0  0  0  0
   -2.9850   21.5350  -32.7720 C   0  0  0  0  0  0  0  0  0  0  0  0
   -2.2110   21.1880  -33.7020 O   0  0  0  0  0  0  0  0  0  0  0  0
   -2.4650   21.5730  -31.3690 C   0  0  0  0  0  0  0  0  0  0  0  0
   -3.3072   21.5115  -30.6640 H   0  0  0  0  0  0  0  0  0  0  0  0
   -1.7874   20.7220  -31.2059 H   0  0  0  0  0  0  0  0  0  0  0  0
   -1.9183   22.5135  -31.2059 H   0  0  0  0  0  0  0  0  0  0  0  0
  1  2  1  0
  2  3  1  0
  3  4  1  0
  4  5  2  0
  5  6  1  0
  6  7  2  0
  7  8  1  0
  7  9  1  0
  9 10  1  0
  9 11  2  0
 11 12  1  0
 12 13  2  0
 12 14  1  0
 14 15  1  0
 14 16  1  0
 16 17  1  0
 16 18  1  0
 16 19  1  0
 14 20  1  0
 20 21  1  0
 20 22  1  0
 20 23  1  0
 11 24  1  0
 24 25  1  0
 24 26  2  0
 26 27  1  0
  4 28  1  0
 28 29  1  0
 29 30  1  0
 30 31  1  0
 31 32  2  0
 32 33  1  0
 32 34  1  0
 34 35  1  0
 34 36  2  0
 36 37  1  0
 37 38  1  0
 37 39  1  0
 37 40  1  0
 36 41  1  0
 41 42  1  0
 41 43  2  0
 43 44  1  0
 44 45  1  0
 45 46  2  0
 45 47  1  0
 47 48  1  0
 47 49  1  0
 47 50  1  0
 29  2  2  0
 43 31  1  0
 26  6  1  0
M  CHG  3   3  -1  14   1  44  -1
M  END
>  <UniqueID>  (25) 
25

>  <SMILES>  (25) 
CC(=O)[N-]c1cc(C)ccc1Sc1c[n-]/c(=N\c2ccc(C(=O)[NH+](C)C)cc2Cl)s1

>  <Energy>  (25) 
90.20214315201403

>  <Genealogy>  (25) 
CC(=O)[N-]c1cc(C)ccc1Sc1c[n-]c(=Nc2ccc(C(=O)[NH+](C)C)cc2Cl)s1 (protonated)
CC(=O)[N-]c1cc(C)ccc1Sc1c[n-]/c(=N\c2ccc(C(=O)[NH+](C)C)cc2Cl)s1 (cis-trans isomerization)
CC(=O)[N-]c1cc(C)ccc1Sc1c[n-]/c(=N\c2ccc(C(=O)[NH+](C)C)cc2Cl)s1 (3D coordinates assigned)
CC(=O)[N-]c1cc(C)ccc1Sc1c[n-]/c(=N\c2ccc(C(=O)[NH+](C)C)cc2Cl)s1 (optimized conformer: 90.20214315201403 kcal/mol)

>  <smiles>  (25) 
CC(=O)Nc1cc(C)ccc1Sc1c[nH]c(=Nc2ccc(C(=O)N(C)C)cc2Cl)s1

>  <score_type>  (25) 
oracle

>  <origin>  (25) 
adgpu

>  <m_score__min__energy>  (25) 
-11.359999999999999

>  <m_primary>  (25) 
energy

$$$$
25:0
     RDKit          3D

 38 39  0  0  0  0  0  0  0  0999 V2000
   -7.3150   18.2830  -33.0810 C   0  0  0  0  0  0  0  0  0  0  0  0
   -5.9190   18.8330  -33.1120 C   0  0  0  0  0  0  0  0  0  0  0  0
   -4.8220   17.9680  -33.1260 C   0  0  0  0  0  0  0  0  0  0  0  0
   -3.5250   18.4780  -33.1450 C   0  0  0  0  0  0  0  0  0  0  0  0
   -3.2930   19.8620  -33.1250 C   0  0  0  0  0  0  0  0  0  0  0  0
   -1.5990   20.3840  -33.2050 S   0  0  0  0  0  0  0  0  0  0  0  0
   -0.6670   19.2970  -33.6650 O   0  0  0  0  0  0  0  0  0  0  0  0
   -1.4980   21.5270  -34.1750 O   0  0  0  0  0  0  0  0  0  0  0  0
   -1.1160   20.9390  -31.6310 N   0  0  0  0  0  0  0  0  0  0  0  0
   -1.6400   20.0590  -30.5850 C   0  0  0  0  0  0  0  0  0  0  0  0
   -2.8000   20.7420  -29.8620 C   0  0  0  0  0  0  0  0  0  0  0  0
   -2.4990   22.1980  -29.6060 C   0  0  0  0  0  0  0  0  0  0  0  0
   -1.3680   22.5700  -28.8600 C   0  0  0  0  0  0  0  0  0  0  0  0
   -1.0810   23.9210  -28.6450 C   0  0  0  0  0  0  0  0  0  0  0  0
   -1.9100   24.9110  -29.1820 C   0  0  0  0  0  0  0  0  0  0  0  0
   -1.6160   26.2510  -28.9660 O   0  0  0  0  0  0  0  0  0  0  0  0
   -3.0280   24.5470  -29.9420 C   0  0  0  0  0  0  0  0  0  0  0  0
   -3.8470   25.5260  -30.4920 O   0  0  0  0  0  0  0  0  0  0  0  0
   -3.3200   23.1960  -30.1550 C   0  0  0  0  0  0  0  0  0  0  0  0
   -4.4020   20.7490  -33.0770 C   0  0  0  0  0  0  0  0  0  0  0  0
   -4.2410   22.2430  -33.0150 C   0  0  0  0  0  0  0  0  0  0  0  0
   -5.7050   20.2160  -33.0690 C   0  0  0  0  0  0  0  0  0  0  0  0
   -7.6361   18.1565  -32.0366 H   0  0  0  0  0  0  0  0  0  0  0  0
   -7.9953   18.9803  -33.5919 H   0  0  0  0  0  0  0  0  0  0  0  0
   -7.3368   17.3091  -33.5919 H   0  0  0  0  0  0  0  0  0  0  0  0
   -4.9826   16.8798  -33.1220 H   0  0  0  0  0  0  0  0  0  0  0  0
   -2.6708   17.7857  -33.1761 H   0  0  0  0  0  0  0  0  0  0  0  0
   -1.9949   19.1227  -31.0404 H   0  0  0  0  0  0  0  0  0  0  0  0
   -0.8406   19.8415  -29.8613 H   0  0  0  0  0  0  0  0  0  0  0  0
   -3.7049   20.6660  -30.4829 H   0  0  0  0  0  0  0  0  0  0  0  0
   -2.9517   20.2414  -28.8944 H   0  0  0  0  0  0  0  0  0  0  0  0
   -0.7065   21.7958  -28.4440 H   0  0  0  0  0  0  0  0  0  0  0  0
   -0.2000   24.2065  -28.0514 H   0  0  0  0  0  0  0  0  0  0  0  0
   -4.1973   22.9138  -30.7557 H   0  0  0  0  0  0  0  0  0  0  0  0
   -4.2063   22.5647  -31.9637 H   0  0  0  0  0  0  0  0  0  0  0  0
   -3.3065   22.5323  -33.5180 H   0  0  0  0  0  0  0  0  0  0  0  0
   -5.0924   22.7247  -33.5180 H   0  0  0  0  0  0  0  0  0  0  0  0
   -6.5682   20.8966  -33.0283 H   0  0  0  0  0  0  0  0  0  0  0  0
  1  2  1  0
  2  3  2  0
  3  4  1  0
  4  5  2  0
  5  6  1  0
  6  7  2  0
  6  8  2  0
  6  9  1  0
  9 10  1  0
 10 11  1  0
 11 12  1  0
 12 13  2  0
 13 14  1  0
 14 15  2  0
 15 16  1  0
 15 17  1  0
 17 18  1  0
 17 19  2  0
  5 20  1  0
 20 21  1  0
 20 22  2  0
 22  2  1  0
 19 12  1  0
  1 23  1  0
  1 24  1  0
  1 25  1  0
  3 26  1  0
  4 27  1  0
 10 28  1  0
 10 29  1  0
 11 30  1  0
 11 31  1  0
 13 32  1  0
 14 33  1  0
 19 34  1  0
 21 35  1  0
 21 36  1  0
 21 37  1  0
 22 38  1  0
M  CHG  3   9  -1  16  -1  18  -1
M  END
>  <UniqueID>  (26) 
26

>  <SMILES>  (26) 
Cc1ccc(S(=O)(=O)[N-]CCc2ccc([O-])c([O-])c2)c(C)c1

>  <Energy>  (26) 
33.17414736188152

>  <Genealogy>  (26) 
Cc1ccc(S(=O)(=O)[N-]CCc2ccc([O-])c([O-])c2)c(C)c1 (protonated)
Cc1ccc(S(=O)(=O)[N-]CCc2ccc([O-])c([O-])c2)c(C)c1 (3D coordinates assigned)
Cc1ccc(S(=O)(=O)[N-]CCc2ccc([O-])c([O-])c2)c(C)c1 (optimized conformer: 33.17414736188152 kcal/mol)

>  <smiles>  (26) 
Cc1ccc(S(=O)(=O)NCCc2ccc(O)c(O)c2)c(C)c1

>  <score_type>  (26) 
oracle

>  <origin>  (26) 
adgpu

>  <m_score__min__energy>  (26) 
-13.58

>  <m_primary>  (26) 
energy

$$$$
26:0
     RDKit          3D

 52 53  0  0  0  0  0  0  0  0999 V2000
   -1.9140   21.9950  -30.1320 C   0  0  0  0  0  0  0  0  0  0  0  0
   -2.1450   22.2370  -28.6350 C   0  0  0  0  0  0  0  0  0  0  0  0
   -2.7950   21.0110  -27.9780 C   0  0  0  0  0  0  0  0  0  0  0  0
   -2.9390   23.5350  -28.3560 C   0  0  0  0  0  0  0  0  0  0  0  0
   -2.6630   24.6470  -29.3440 C   0  0  0  0  0  0  0  0  0  0  0  0
   -1.6300   25.3500  -29.1930 O   0  0  0  0  0  0  0  0  0  0  0  0
   -3.5280   24.9390  -30.4500 N   0  0  0  0  0  0  0  0  0  0  0  0
   -5.2600   25.0290  -30.3940 S   0  0  0  0  0  0  0  0  0  0  0  0
   -5.6940   25.2280  -28.9700 O   0  0  0  0  0  0  0  0  0  0  0  0
   -5.7280   26.1990  -31.2120 O   0  0  0  0  0  0  0  0  0  0  0  0
   -5.9570   23.5250  -30.9880 C   0  0  0  0  0  0  0  0  0  0  0  0
   -5.1440   22.4100  -31.2350 C   0  0  0  0  0  0  0  0  0  0  0  0
   -5.7160   21.2020  -31.6450 C   0  0  0  0  0  0  0  0  0  0  0  0
   -7.1040   21.0990  -31.8110 C   0  0  0  0  0  0  0  0  0  0  0  0
   -7.8380   19.5580  -32.2580 S   0  0  0  0  0  0  0  0  0  0  0  0
   -8.4730   18.9430  -31.0420 O   0  0  0  0  0  0  0  0  0  0  0  0
   -8.9190   19.7960  -33.2780 O   0  0  0  0  0  0  0  0  0  0  0  0
   -6.6510   18.4560  -32.9190 N   0  0  2  0  0  0  0  0  0  0  0  0
   -6.1100   18.9890  -34.1820 C   0  0  0  0  0  0  0  0  0  0  0  0
   -4.9090   18.1520  -34.6590 C   0  0  0  0  0  0  0  0  0  0  0  0
   -5.1080   16.6270  -34.4480 C   0  0  1  0  0  0  0  0  0  0  0  0
   -4.2220   16.0820  -33.3170 C   0  0  0  0  0  0  0  0  0  0  0  0
   -6.5900   16.2750  -34.2160 C   0  0  0  0  0  0  0  0  0  0  0  0
   -7.2330   17.0980  -33.0770 C   0  0  0  0  0  0  0  0  0  0  0  0
   -7.9120   22.2230  -31.5900 C   0  0  0  0  0  0  0  0  0  0  0  0
   -7.3400   23.4310  -31.1780 C   0  0  0  0  0  0  0  0  0  0  0  0
   -1.1599   21.2050  -30.2636 H   0  0  0  0  0  0  0  0  0  0  0  0
   -2.8579   21.6831  -30.6029 H   0  0  0  0  0  0  0  0  0  0  0  0
   -1.5585   22.9234  -30.6029 H   0  0  0  0  0  0  0  0  0  0  0  0
   -1.1576   22.3843  -28.1732 H   0  0  0  0  0  0  0  0  0  0  0  0
   -2.7424   21.1103  -26.8838 H   0  0  0  0  0  0  0  0  0  0  0  0
   -3.8477   20.9429  -28.2898 H   0  0  0  0  0  0  0  0  0  0  0  0
   -2.2607   20.1015  -28.2898 H   0  0  0  0  0  0  0  0  0  0  0  0
   -4.0127   23.2986  -28.3917 H   0  0  0  0  0  0  0  0  0  0  0  0
   -2.6192   23.8988  -27.3684 H   0  0  0  0  0  0  0  0  0  0  0  0
   -4.0542   22.4857  -31.1060 H   0  0  0  0  0  0  0  0  0  0  0  0
   -5.0746   20.3294  -31.8380 H   0  0  0  0  0  0  0  0  0  0  0  0
   -5.8730   18.4140  -32.2190 H   0  0  0  0  0  0  0  0  0  0  0  0
   -6.8963   18.9623  -34.9508 H   0  0  0  0  0  0  0  0  0  0  0  0
   -5.7743   20.0229  -34.0132 H   0  0  0  0  0  0  0  0  0  0  0  0
   -4.7552   18.3399  -35.7319 H   0  0  0  0  0  0  0  0  0  0  0  0
   -4.0384   18.4555  -34.0590 H   0  0  0  0  0  0  0  0  0  0  0  0
   -4.7897   16.1326  -35.3776 H   0  0  0  0  0  0  0  0  0  0  0  0
   -4.6608   16.3519  -32.3451 H   0  0  0  0  0  0  0  0  0  0  0  0
   -4.1561   14.9870  -33.3981 H   0  0  0  0  0  0  0  0  0  0  0  0
   -3.2149   16.5170  -33.3981 H   0  0  0  0  0  0  0  0  0  0  0  0
   -7.1461   16.4678  -35.1453 H   0  0  0  0  0  0  0  0  0  0  0  0
   -6.6355   15.2155  -33.9237 H   0  0  0  0  0  0  0  0  0  0  0  0
   -8.3074   17.2031  -33.2883 H   0  0  0  0  0  0  0  0  0  0  0  0
   -7.0406   16.5549  -32.1400 H   0  0  0  0  0  0  0  0  0  0  0  0
   -8.9994   22.1547  -31.7411 H   0  0  0  0  0  0  0  0  0  0  0  0
   -7.9789   24.3092  -31.0029 H   0  0  0  0  0  0  0  0  0  0  0  0
  1  2  1  0
  2  3  1  0
  2  4  1  0
  4  5  1  0
  5  6  2  0
  5  7  1  0
  7  8  1  0
  8  9  2  0
  8 10  2  0
  8 11  1  0
 11 12  2  0
 12 13  1  0
 13 14  2  0
 14 15  1  0
 15 16  2  0
 15 17  2  0
 15 18  1  0
 18 19  1  0
 19 20  1  0
 20 21  1  0
 21 22  1  0
 21 23  1  0
 23 24  1  0
 14 25  1  0
 25 26  2  0
 26 11  1  0
 24 18  1  0
  1 27  1  0
  1 28  1  0
  1 29  1  0
  2 30  1  0
  3 31  1  0
  3 32  1  0
  3 33  1  0
  4 34  1  0
  4 35  1  0
 12 36  1  0
 13 37  1  0
 18 38  1  1
 19 39  1  0
 19 40  1  0
 20 41  1  0
 20 42  1  0
 21 43  1  6
 22 44  1  0
 22 45  1  0
 22 46  1  0
 23 47  1  0
 23 48  1  0
 24 49  1  0
 24 50  1  0
 25 51  1  0
 26 52  1  0
M  CHG  2   7  -1  18   1
M  END
>  <UniqueID>  (27) 
27

>  <SMILES>  (27) 
CC(C)CC(=O)[N-]S(=O)(=O)c1ccc(S(=O)(=O)[NH+]2CCC(C)CC2)cc1

>  <Energy>  (27) 
51.83226200941732

>  <Genealogy>  (27) 
CC(C)CC(=O)[N-]S(=O)(=O)c1ccc(S(=O)(=O)[NH+]2CCC(C)CC2)cc1 (protonated)
CC(C)CC(=O)[N-]S(=O)(=O)c1ccc(S(=O)(=O)[NH+]2CCC(C)CC2)cc1 (3D coordinates assigned)
CC(C)CC(=O)[N-]S(=O)(=O)c1ccc(S(=O)(=O)[NH+]2CCC(C)CC2)cc1 (nonaromatic ring conformer: 51.83226200941732 kcal/mol)

>  <smiles>  (27) 
CC(C)CC(=O)NS(=O)(=O)c1ccc(S(=O)(=O)N2CCC(C)CC2)cc1

>  <score_type>  (27) 
oracle

>  <origin>  (27) 
adgpu

>  <m_score__min__energy>  (27) 
-11.09

>  <m_primary>  (27) 
energy

$$$$
27:0
     RDKit          3D

 67 71  0  0  0  0  0  0  0  0999 V2000
    0.5650   18.7690  -28.0720 C   0  0  0  0  0  0  0  0  0  0  0  0
   -0.6360   19.5960  -28.2660 N   0  0  0  0  0  0  0  0  0  0  0  0
   -1.5440   19.4320  -27.1150 C   0  0  0  0  0  0  0  0  0  0  0  0
   -2.8900   20.0840  -27.4340 C   0  0  0  0  0  0  0  0  0  0  0  0
   -2.7190   21.4730  -28.0020 C   0  0  0  0  0  0  0  0  0  0  0  0
   -3.8320   22.3190  -28.0980 C   0  0  0  0  0  0  0  0  0  0  0  0
   -3.7110   23.6070  -28.6460 C   0  0  0  0  0  0  0  0  0  0  0  0
   -4.8210   24.5160  -28.6710 N   0  0  0  0  0  0  0  0  0  0  0  0
   -5.6780   24.9420  -30.1180 S   0  0  0  0  0  0  0  0  0  0  0  0
   -4.7530   25.6590  -31.0630 O   0  0  0  0  0  0  0  0  0  0  0  0
   -6.8210   25.8520  -29.7720 O   0  0  0  0  0  0  0  0  0  0  0  0
   -6.3220   23.4710  -30.8450 C   0  0  0  0  0  0  0  0  0  0  0  0
   -5.5740   22.2850  -30.8440 C   0  0  0  0  0  0  0  0  0  0  0  0
   -6.1550   21.0890  -31.2690 C   0  0  0  0  0  0  0  0  0  0  0  0
   -7.4830   21.0720  -31.7250 C   0  0  0  0  0  0  0  0  0  0  0  0
   -8.2540   19.5590  -32.1970 S   0  0  0  0  0  0  0  0  0  0  0  0
   -9.4010   19.8470  -33.1250 O   0  0  0  0  0  0  0  0  0  0  0  0
   -8.7830   18.8840  -30.9620 O   0  0  0  0  0  0  0  0  0  0  0  0
   -7.1080   18.5030  -32.9910 N   0  0  0  0  0  0  0  0  0  0  0  0
   -6.1850   17.8960  -32.0050 C   0  0  0  0  0  0  0  0  0  0  0  0
   -4.9090   17.3870  -32.6860 C   0  0  0  0  0  0  0  0  0  0  0  0
   -4.0720   18.5600  -33.2820 C   0  0  0  0  0  0  0  0  0  0  0  0
   -3.2570   18.0230  -34.5100 C   0  0  0  0  0  0  0  0  0  0  0  0
   -1.7860   18.4280  -34.4560 C   0  0  0  0  0  0  0  0  0  0  0  0
   -1.6580   19.8740  -33.9970 C   0  0  0  0  0  0  0  0  0  0  0  0
   -2.3480   20.0770  -32.6360 C   0  0  0  0  0  0  0  0  0  0  0  0
   -3.1890   18.9960  -32.2470 O   0  0  0  0  0  0  0  0  0  0  0  0
   -5.0350   19.7250  -33.7070 C   0  0  0  0  0  0  0  0  0  0  0  0
   -6.4260   19.2030  -34.1060 C   0  0  0  0  0  0  0  0  0  0  0  0
   -8.2160   22.2660  -31.7660 C   0  0  0  0  0  0  0  0  0  0  0  0
   -7.6390   23.4580  -31.3180 C   0  0  0  0  0  0  0  0  0  0  0  0
   -2.4720   24.0260  -29.1480 C   0  0  0  0  0  0  0  0  0  0  0  0
   -2.3370   25.2980  -29.7020 O   0  0  0  0  0  0  0  0  0  0  0  0
   -1.3640   23.1740  -29.0910 C   0  0  0  0  0  0  0  0  0  0  0  0
   -1.4760   21.8970  -28.5190 C   0  0  0  0  0  0  0  0  0  0  0  0
   -0.2550   21.0190  -28.3980 C   0  0  0  0  0  0  0  0  0  0  0  0
    0.7517   18.6404  -26.9956 H   0  0  0  0  0  0  0  0  0  0  0  0
    0.4113   17.7843  -28.5377 H   0  0  0  0  0  0  0  0  0  0  0  0
    1.4301   19.2638  -28.5377 H   0  0  0  0  0  0  0  0  0  0  0  0
   -1.6932   18.3607  -26.9148 H   0  0  0  0  0  0  0  0  0  0  0  0
   -1.1040   19.9116  -26.2282 H   0  0  0  0  0  0  0  0  0  0  0  0
   -3.4220   19.4617  -28.1687 H   0  0  0  0  0  0  0  0  0  0  0  0
   -3.4614   20.1652  -26.4976 H   0  0  0  0  0  0  0  0  0  0  0  0
   -4.8120   21.9705  -27.7401 H   0  0  0  0  0  0  0  0  0  0  0  0
   -4.5268   22.2971  -30.5075 H   0  0  0  0  0  0  0  0  0  0  0  0
   -5.5709   20.1572  -31.2466 H   0  0  0  0  0  0  0  0  0  0  0  0
   -5.9142   18.6519  -31.2532 H   0  0  0  0  0  0  0  0  0  0  0  0
   -6.6920   17.0433  -31.5297 H   0  0  0  0  0  0  0  0  0  0  0  0
   -4.2973   16.8521  -31.9446 H   0  0  0  0  0  0  0  0  0  0  0  0
   -5.2006   16.7182  -33.5092 H   0  0  0  0  0  0  0  0  0  0  0  0
   -3.3206   16.9249  -34.5229 H   0  0  0  0  0  0  0  0  0  0  0  0
   -3.6923   18.4634  -35.4191 H   0  0  0  0  0  0  0  0  0  0  0  0
   -1.2542   17.7736  -33.7496 H   0  0  0  0  0  0  0  0  0  0  0  0
   -1.3482   18.3289  -35.4602 H   0  0  0  0  0  0  0  0  0  0  0  0
   -0.5923   20.1299  -33.9031 H   0  0  0  0  0  0  0  0  0  0  0  0
   -2.1432   20.5246  -34.7395 H   0  0  0  0  0  0  0  0  0  0  0  0
   -1.5698   20.2034  -31.8689 H   0  0  0  0  0  0  0  0  0  0  0  0
   -2.9928   20.9628  -32.7346 H   0  0  0  0  0  0  0  0  0  0  0  0
   -5.1452   20.4212  -32.8625 H   0  0  0  0  0  0  0  0  0  0  0  0
   -4.5961   20.2282  -34.5812 H   0  0  0  0  0  0  0  0  0  0  0  0
   -7.0464   20.0553  -34.4202 H   0  0  0  0  0  0  0  0  0  0  0  0
   -6.2910   18.4797  -34.9237 H   0  0  0  0  0  0  0  0  0  0  0  0
   -9.2464   22.2652  -32.1511 H   0  0  0  0  0  0  0  0  0  0  0  0
   -8.2229   24.3900  -31.3374 H   0  0  0  0  0  0  0  0  0  0  0  0
   -0.3977   23.5072  -29.4975 H   0  0  0  0  0  0  0  0  0  0  0  0
    0.3675   21.1428  -29.2964 H   0  0  0  0  0  0  0  0  0  0  0  0
    0.3031   21.3171  -27.4982 H   0  0  0  0  0  0  0  0  0  0  0  0
  1  2  1  0
  2  3  1  0
  3  4  1  0
  4  5  1  0
  5  6  2  0
  6  7  1  0
  7  8  1  0
  8  9  1  0
  9 10  2  0
  9 11  2  0
  9 12  1  0
 12 13  2  0
 13 14  1  0
 14 15  2  0
 15 16  1  0
 16 17  2  0
 16 18  2  0
 16 19  1  0
 19 20  1  0
 20 21  1  0
 21 22  1  0
 22 23  1  0
 23 24  1  0
 24 25  1  0
 25 26  1  0
 26 27  1  0
 22 28  1  0
 28 29  1  0
 15 30  1  0
 30 31  2  0
  7 32  2  0
 32 33  1  0
 32 34  1  0
 34 35  2  0
 35 36  1  0
 36  2  1  0
 35  5  1  0
 31 12  1  0
 29 19  1  0
 27 22  1  0
  1 37  1  0
  1 38  1  0
  1 39  1  0
  3 40  1  0
  3 41  1  0
  4 42  1  0
  4 43  1  0
  6 44  1  0
 13 45  1  0
 14 46  1  0
 20 47  1  0
 20 48  1  0
 21 49  1  0
 21 50  1  0
 23 51  1  0
 23 52  1  0
 24 53  1  0
 24 54  1  0
 25 55  1  0
 25 56  1  0
 26 57  1  0
 26 58  1  0
 28 59  1  0
 28 60  1  0
 29 61  1  0
 29 62  1  0
 30 63  1  0
 31 64  1  0
 34 65  1  0
 36 66  1  0
 36 67  1  0
M  CHG  2   8  -1  33  -1
M  END
>  <UniqueID>  (28) 
28

>  <SMILES>  (28) 
CN1CCc2cc([N-]S(=O)(=O)c3ccc(S(=O)(=O)N4CCC5(CCCCO5)CC4)cc3)c([O-])cc2C1

>  <Energy>  (28) 
94.4851540087564

>  <Genealogy>  (28) 
CN1CCc2cc([N-]S(=O)(=O)c3ccc(S(=O)(=O)N4CCC5(CCCCO5)CC4)cc3)c([O-])cc2C1 (protonated)
CN1CCc2cc([N-]S(=O)(=O)c3ccc(S(=O)(=O)N4CCC5(CCCCO5)CC4)cc3)c([O-])cc2C1 (3D coordinates assigned)
CN1CCc2cc([N-]S(=O)(=O)c3ccc(S(=O)(=O)N4CCC5(CCCCO5)CC4)cc3)c([O-])cc2C1 (nonaromatic ring conformer: 94.4851540087564 kcal/mol)

>  <smiles>  (28) 
CN1CCc2cc(NS(=O)(=O)c3ccc(S(=O)(=O)N4CCC5(CCCCO5)CC4)cc3)c(O)cc2C1

>  <score_type>  (28) 
oracle

>  <origin>  (28) 
adgpu

>  <m_score__min__energy>  (28) 
-15.92

>  <m_primary>  (28) 
energy

$$$$
28:0
     RDKit          3D

 42 43  0  0  0  0  0  0  0  0999 V2000
   -3.5290   16.1040  -34.3060 C   0  0  0  0  0  0  0  0  0  0  0  0
   -3.8610   17.5340  -34.4650 N   0  0  2  0  0  0  0  0  0  0  0  0
   -3.6660   18.2360  -33.1670 C   0  0  0  0  0  0  0  0  0  0  0  0
   -2.9770   19.5700  -33.3460 C   0  0  0  0  0  0  0  0  0  0  0  0
   -2.1650   19.6720  -34.3090 O   0  0  0  0  0  0  0  0  0  0  0  0
   -3.2180   20.7610  -32.4820 C   0  0  0  0  0  0  0  0  0  0  0  0
   -4.4030   21.5210  -32.5500 C   0  0  0  0  0  0  0  0  0  0  0  0
   -4.5540   22.6720  -31.7740 C   0  0  0  0  0  0  0  0  0  0  0  0
   -3.5410   23.0800  -30.9090 C   0  0  0  0  0  0  0  0  0  0  0  0
   -3.7460   24.5420  -29.9550 S   0  0  0  0  0  0  0  0  0  0  0  0
   -4.9200   24.2440  -28.6570 C   0  0  0  0  0  0  0  0  0  0  0  0
   -2.4240   24.9590  -29.3570 O   0  0  0  0  0  0  0  0  0  0  0  0
   -4.2450   25.6480  -30.8370 O   0  0  0  0  0  0  0  0  0  0  0  0
   -2.3800   22.3090  -30.7920 C   0  0  0  0  0  0  0  0  0  0  0  0
   -2.2170   21.1640  -31.5720 C   0  0  0  0  0  0  0  0  0  0  0  0
   -5.2580   17.6410  -34.9630 C   0  0  0  0  0  0  0  0  0  0  0  0
   -6.2280   18.1880  -33.9390 C   0  0  0  0  0  0  0  0  0  0  0  0
   -6.7820   17.3530  -32.9510 C   0  0  0  0  0  0  0  0  0  0  0  0
   -7.6450   17.8800  -31.9840 C   0  0  0  0  0  0  0  0  0  0  0  0
   -7.9430   19.2460  -31.9800 C   0  0  0  0  0  0  0  0  0  0  0  0
   -7.3670   20.0890  -32.9310 C   0  0  0  0  0  0  0  0  0  0  0  0
   -6.5060   19.5680  -33.9010 C   0  0  0  0  0  0  0  0  0  0  0  0
   -3.4718   15.8577  -33.2355 H   0  0  0  0  0  0  0  0  0  0  0  0
   -4.3088   15.4914  -34.7820 H   0  0  0  0  0  0  0  0  0  0  0  0
   -2.5591   15.8976  -34.7820 H   0  0  0  0  0  0  0  0  0  0  0  0
   -3.1910   17.9110  -35.1760 H   0  0  0  0  0  0  0  0  0  0  0  0
   -4.6487   18.4028  -32.7016 H   0  0  0  0  0  0  0  0  0  0  0  0
   -3.0280   17.6052  -32.5305 H   0  0  0  0  0  0  0  0  0  0  0  0
   -5.2159   21.2047  -33.2202 H   0  0  0  0  0  0  0  0  0  0  0  0
   -5.4801   23.2612  -31.8462 H   0  0  0  0  0  0  0  0  0  0  0  0
   -4.4275   24.3690  -27.6814 H   0  0  0  0  0  0  0  0  0  0  0  0
   -5.7509   24.9597  -28.7427 H   0  0  0  0  0  0  0  0  0  0  0  0
   -5.3090   23.2186  -28.7427 H   0  0  0  0  0  0  0  0  0  0  0  0
   -1.5933   22.6063  -30.0830 H   0  0  0  0  0  0  0  0  0  0  0  0
   -1.2974   20.5680  -31.4768 H   0  0  0  0  0  0  0  0  0  0  0  0
   -5.2647   18.3071  -35.8383 H   0  0  0  0  0  0  0  0  0  0  0  0
   -5.5907   16.6218  -35.2090 H   0  0  0  0  0  0  0  0  0  0  0  0
   -6.5354   16.2811  -32.9389 H   0  0  0  0  0  0  0  0  0  0  0  0
   -8.0897   17.2186  -31.2258 H   0  0  0  0  0  0  0  0  0  0  0  0
   -8.6318   19.6563  -31.2268 H   0  0  0  0  0  0  0  0  0  0  0  0
   -7.5910   21.1659  -32.9173 H   0  0  0  0  0  0  0  0  0  0  0  0
   -6.0430   20.2397  -34.6388 H   0  0  0  0  0  0  0  0  0  0  0  0
  1  2  1  0
  2  3  1  0
  3  4  1  0
  4  5  2  0
  4  6  1  0
  6  7  2  0
  7  8  1  0
  8  9  2  0
  9 10  1  0
 10 11  1  0
 10 12  2  0
 10 13  2  0
  9 14  1  0
 14 15  2  0
  2 16  1  0
 16 17  1  0
 17 18  2  0
 18 19  1  0
 19 20  2  0
 20 21  1  0
 21 22  2  0
 15  6  1  0
 22 17  1  0
  1 23  1  0
  1 24  1  0
  1 25  1  0
  2 26  1  6
  3 27  1  0
  3 28  1  0
  7 29  1  0
  8 30  1  0
 11 31  1  0
 11 32  1  0
 11 33  1  0
 14 34  1  0
 15 35  1  0
 16 36  1  0
 16 37  1  0
 18 38  1  0
 19 39  1  0
 20 40  1  0
 21 41  1  0
 22 42  1  0
M  CHG  1   2   1
M  END
>  <UniqueID>  (29) 
29

>  <SMILES>  (29) 
C[N@H+](CC(=O)c1ccc(S(C)(=O)=O)cc1)Cc1ccccc1

>  <Energy>  (29) 
43.57950808942634

>  <Genealogy>  (29) 
C[NH+](CC(=O)c1ccc(S(C)(=O)=O)cc1)Cc1ccccc1 (protonated)
C[N@H+](CC(=O)c1ccc(S(C)(=O)=O)cc1)Cc1ccccc1 (chirality)
C[N@H+](CC(=O)c1ccc(S(C)(=O)=O)cc1)Cc1ccccc1 (3D coordinates assigned)
C[N@H+](CC(=O)c1ccc(S(C)(=O)=O)cc1)Cc1ccccc1 (optimized conformer: 43.57950808942634 kcal/mol)

>  <smiles>  (29) 
CN(CC(=O)c1ccc(S(C)(=O)=O)cc1)Cc1ccccc1

>  <score_type>  (29) 
oracle

>  <origin>  (29) 
adgpu

>  <m_score__min__energy>  (29) 
-7.6200000000000001

>  <m_primary>  (29) 
energy

$$$$
29:0
     RDKit          3D

 56 59  0  0  0  0  0  0  0  0999 V2000
   -1.6890   18.2220  -26.7270 C   0  0  0  0  0  0  0  0  0  0  0  0
   -1.4570   19.6560  -26.9770 N   0  0  0  0  0  0  0  0  0  0  0  0
   -0.3610   19.8270  -27.9530 C   0  0  0  0  0  0  0  0  0  0  0  0
    0.0280   21.3050  -28.0300 C   0  0  0  0  0  0  0  0  0  0  0  0
   -1.1770   22.1810  -28.2460 C   0  0  0  0  0  0  0  0  0  0  0  0
   -1.0060   23.4940  -28.7150 C   0  0  0  0  0  0  0  0  0  0  0  0
   -2.1060   24.3470  -28.8540 C   0  0  0  0  0  0  0  0  0  0  0  0
   -1.9200   25.6430  -29.3260 O   0  0  0  0  0  0  0  0  0  0  0  0
   -3.3870   23.9010  -28.5010 C   0  0  0  0  0  0  0  0  0  0  0  0
   -4.5020   24.7830  -28.6070 N   0  0  0  0  0  0  0  0  0  0  0  0
   -5.3000   24.9890  -30.1260 S   0  0  0  0  0  0  0  0  0  0  0  0
   -4.3340   25.5070  -31.1550 O   0  0  0  0  0  0  0  0  0  0  0  0
   -6.4150   25.9810  -29.9690 O   0  0  0  0  0  0  0  0  0  0  0  0
   -5.9630   23.4330  -30.6220 C   0  0  0  0  0  0  0  0  0  0  0  0
   -5.1270   22.4700  -31.2030 C   0  0  0  0  0  0  0  0  0  0  0  0
   -5.6590   21.2600  -31.6600 C   0  0  0  0  0  0  0  0  0  0  0  0
   -7.0310   21.0020  -31.5410 C   0  0  0  0  0  0  0  0  0  0  0  0
   -7.6960   19.4700  -32.1160 S   0  0  0  0  0  0  0  0  0  0  0  0
   -8.7850   19.7520  -33.1150 O   0  0  0  0  0  0  0  0  0  0  0  0
   -8.3070   18.7260  -30.9590 O   0  0  0  0  0  0  0  0  0  0  0  0
   -6.4720   18.4770  -32.8690 N   0  0  0  0  0  0  0  0  0  0  0  0
   -6.9250   17.0770  -32.9400 C   0  0  0  0  0  0  0  0  0  0  0  0
   -5.7710   16.1580  -33.3850 C   0  0  0  0  0  0  0  0  0  0  0  0
   -4.6920   16.9100  -34.1800 C   0  0  0  0  0  0  0  0  0  0  0  0
   -5.3130   18.0070  -35.0520 C   0  0  0  0  0  0  0  0  0  0  0  0
   -6.1490   19.0020  -34.2150 C   0  0  0  0  0  0  0  0  0  0  0  0
   -7.8710   21.9710  -30.9690 C   0  0  0  0  0  0  0  0  0  0  0  0
   -7.3410   23.1850  -30.5180 C   0  0  0  0  0  0  0  0  0  0  0  0
   -3.5650   22.5940  -28.0240 C   0  0  0  0  0  0  0  0  0  0  0  0
   -2.4660   21.7290  -27.8870 C   0  0  0  0  0  0  0  0  0  0  0  0
   -2.6960   20.2890  -27.4790 C   0  0  0  0  0  0  0  0  0  0  0  0
   -1.7186   18.0389  -25.6427 H   0  0  0  0  0  0  0  0  0  0  0  0
   -2.6474   17.9219  -27.1758 H   0  0  0  0  0  0  0  0  0  0  0  0
   -0.8741   17.6350  -27.1758 H   0  0  0  0  0  0  0  0  0  0  0  0
    0.5095   19.2349  -27.6342 H   0  0  0  0  0  0  0  0  0  0  0  0
   -0.6952   19.4839  -28.9432 H   0  0  0  0  0  0  0  0  0  0  0  0
    0.5173   21.5956  -27.0886 H   0  0  0  0  0  0  0  0  0  0  0  0
    0.7099   21.4389  -28.8827 H   0  0  0  0  0  0  0  0  0  0  0  0
    0.0004   23.8541  -28.9749 H   0  0  0  0  0  0  0  0  0  0  0  0
   -4.0490   22.6664  -31.2999 H   0  0  0  0  0  0  0  0  0  0  0  0
   -4.9976   20.5078  -32.1147 H   0  0  0  0  0  0  0  0  0  0  0  0
   -7.2780   16.7600  -31.9476 H   0  0  0  0  0  0  0  0  0  0  0  0
   -7.7410   17.0040  -33.6740 H   0  0  0  0  0  0  0  0  0  0  0  0
   -5.3068   15.7167  -32.4907 H   0  0  0  0  0  0  0  0  0  0  0  0
   -6.1942   15.3859  -34.0443 H   0  0  0  0  0  0  0  0  0  0  0  0
   -3.9820   17.3692  -33.4764 H   0  0  0  0  0  0  0  0  0  0  0  0
   -4.1772   16.1922  -34.8355 H   0  0  0  0  0  0  0  0  0  0  0  0
   -4.5069   18.5577  -35.5589 H   0  0  0  0  0  0  0  0  0  0  0  0
   -5.9826   17.5263  -35.7804 H   0  0  0  0  0  0  0  0  0  0  0  0
   -5.5779   19.9354  -34.1022 H   0  0  0  0  0  0  0  0  0  0  0  0
   -7.0979   19.1709  -34.7451 H   0  0  0  0  0  0  0  0  0  0  0  0
   -8.9493   21.7751  -30.8751 H   0  0  0  0  0  0  0  0  0  0  0  0
   -8.0047   23.9459  -30.0815 H   0  0  0  0  0  0  0  0  0  0  0  0
   -4.5724   22.2435  -27.7552 H   0  0  0  0  0  0  0  0  0  0  0  0
   -3.4570   20.2610  -26.6853 H   0  0  0  0  0  0  0  0  0  0  0  0
   -3.0297   19.7312  -28.3664 H   0  0  0  0  0  0  0  0  0  0  0  0
  1  2  1  0
  2  3  1  0
  3  4  1  0
  4  5  1  0
  5  6  2  0
  6  7  1  0
  7  8  1  0
  7  9  2  0
  9 10  1  0
 10 11  1  0
 11 12  2  0
 11 13  2  0
 11 14  1  0
 14 15  2  0
 15 16  1  0
 16 17  2  0
 17 18  1  0
 18 19  2  0
 18 20  2  0
 18 21  1  0
 21 22  1  0
 22 23  1  0
 23 24  1  0
 24 25  1  0
 25 26  1  0
 17 27  1  0
 27 28  2  0
  9 29  1  0
 29 30  2  0
 30 31  1  0
 31  2  1  0
 30  5  1  0
 28 14  1  0
 26 21  1  0
  1 32  1  0
  1 33  1  0
  1 34  1  0
  3 35  1  0
  3 36  1  0
  4 37  1  0
  4 38  1  0
  6 39  1  0
 15 40  1  0
 16 41  1  0
 22 42  1  0
 22 43  1  0
 23 44  1  0
 23 45  1  0
 24 46  1  0
 24 47  1  0
 25 48  1  0
 25 49  1  0
 26 50  1  0
 26 51  1  0
 27 52  1  0
 28 53  1  0
 29 54  1  0
 31 55  1  0
 31 56  1  0
M  CHG  2   8  -1  10  -1
M  END
>  <UniqueID>  (30) 
30

>  <SMILES>  (30) 
CN1CCc2cc([O-])c([N-]S(=O)(=O)c3ccc(S(=O)(=O)N4CCCCC4)cc3)cc2C1

>  <Energy>  (30) 
71.59570246568325

>  <Genealogy>  (30) 
CN1CCc2cc([O-])c([N-]S(=O)(=O)c3ccc(S(=O)(=O)N4CCCCC4)cc3)cc2C1 (protonated)
CN1CCc2cc([O-])c([N-]S(=O)(=O)c3ccc(S(=O)(=O)N4CCCCC4)cc3)cc2C1 (3D coordinates assigned)
CN1CCc2cc([O-])c([N-]S(=O)(=O)c3ccc(S(=O)(=O)N4CCCCC4)cc3)cc2C1 (nonaromatic ring conformer: 71.59570246568325 kcal/mol)

>  <smiles>  (30) 
CN1CCc2cc(O)c(NS(=O)(=O)c3ccc(S(=O)(=O)N4CCCCC4)cc3)cc2C1

>  <score_type>  (30) 
oracle

>  <origin>  (30) 
adgpu

>  <m_score__min__energy>  (30) 
-16.460000000000001

>  <m_primary>  (30) 
energy

$$$$
30:0
     RDKit          3D

 51 54  0  0  0  0  0  0  0  0999 V2000
   -9.4870   19.4020  -32.5480 C   0  0  0  0  0  0  0  0  0  0  0  0
   -8.2140   20.1630  -32.3840 C   0  0  0  0  0  0  0  0  0  0  0  0
   -6.9550   19.7200  -32.7760 C   0  0  0  0  0  0  0  0  0  0  0  0
   -6.1330   20.7350  -32.3510 C   0  0  0  0  0  0  0  0  0  0  0  0
   -4.7900   20.8180  -32.4690 N   0  0  0  0  0  0  0  0  0  0  0  0
   -4.1360   21.9030  -31.9620 C   0  0  0  0  0  0  0  0  0  0  0  0
   -2.6410   21.9450  -32.0920 C   0  0  0  0  0  0  0  0  0  0  0  0
   -4.8720   22.9480  -31.3220 C   0  0  0  0  0  0  0  0  0  0  0  0
   -4.1780   24.1300  -30.7580 C   0  0  0  0  0  0  0  0  0  0  0  0
   -4.7020   25.2720  -30.8570 O   0  0  0  0  0  0  0  0  0  0  0  0
   -2.8870   23.9760  -30.1560 N   0  0  0  0  0  0  0  0  0  0  0  0
   -2.4430   24.5670  -28.9260 C   0  0  0  0  0  0  0  0  0  0  0  0
   -1.1940   25.1980  -28.8980 C   0  0  0  0  0  0  0  0  0  0  0  0
   -0.7110   25.7630  -27.7130 C   0  0  0  0  0  0  0  0  0  0  0  0
   -1.4660   25.6820  -26.5360 C   0  0  0  0  0  0  0  0  0  0  0  0
   -0.8450   26.3710  -25.0340 S   0  0  0  0  0  0  0  0  0  0  0  0
   -0.0340   27.5960  -25.3510 O   0  0  0  0  0  0  0  0  0  0  0  0
   -2.0010   26.7940  -24.1700 O   0  0  0  0  0  0  0  0  0  0  0  0
    0.1500   25.2330  -24.1490 N   0  0  0  0  0  0  0  0  0  0  0  0
   -0.4800   23.9100  -24.0900 C   0  0  0  0  0  0  0  0  0  0  0  0
    0.1330   23.0370  -25.1750 C   0  0  0  0  0  0  0  0  0  0  0  0
    1.3810   23.7640  -25.6360 C   0  0  0  0  0  0  0  0  0  0  0  0
    1.4470   25.0400  -24.8070 C   0  0  0  0  0  0  0  0  0  0  0  0
   -2.7090   25.0380  -26.5560 C   0  0  0  0  0  0  0  0  0  0  0  0
   -3.1930   24.4730  -27.7410 C   0  0  0  0  0  0  0  0  0  0  0  0
   -6.2860   22.8150  -31.2310 C   0  0  0  0  0  0  0  0  0  0  0  0
   -7.1510   23.8660  -30.5820 C   0  0  0  0  0  0  0  0  0  0  0  0
   -6.8470   21.6900  -31.7500 N   0  0  0  0  0  0  0  0  0  0  0  0
   -8.1280   21.3570  -31.7520 N   0  0  0  0  0  0  0  0  0  0  0  0
   -9.8976   19.1565  -31.5575 H   0  0  0  0  0  0  0  0  0  0  0  0
  -10.2117   20.0151  -33.1037 H   0  0  0  0  0  0  0  0  0  0  0  0
   -9.2901   18.4733  -33.1037 H   0  0  0  0  0  0  0  0  0  0  0  0
   -6.6851   18.7892  -33.2964 H   0  0  0  0  0  0  0  0  0  0  0  0
   -2.1861   21.9578  -31.0906 H   0  0  0  0  0  0  0  0  0  0  0  0
   -2.2955   21.0562  -32.6403 H   0  0  0  0  0  0  0  0  0  0  0  0
   -2.3460   22.8518  -32.6403 H   0  0  0  0  0  0  0  0  0  0  0  0
   -0.5878   25.2500  -29.8144 H   0  0  0  0  0  0  0  0  0  0  0  0
    0.2641   26.2721  -27.7055 H   0  0  0  0  0  0  0  0  0  0  0  0
   -0.3012   23.4571  -23.1036 H   0  0  0  0  0  0  0  0  0  0  0  0
   -1.5650   24.0009  -24.2463 H   0  0  0  0  0  0  0  0  0  0  0  0
    0.3938   22.0484  -24.7691 H   0  0  0  0  0  0  0  0  0  0  0  0
   -0.5689   22.8719  -26.0057 H   0  0  0  0  0  0  0  0  0  0  0  0
    2.2728   23.1450  -25.4582 H   0  0  0  0  0  0  0  0  0  0  0  0
    1.3481   23.9822  -26.7136 H   0  0  0  0  0  0  0  0  0  0  0  0
    2.2385   24.9496  -24.0485 H   0  0  0  0  0  0  0  0  0  0  0  0
    1.6737   25.8998  -25.4545 H   0  0  0  0  0  0  0  0  0  0  0  0
   -3.3081   24.9759  -25.6355 H   0  0  0  0  0  0  0  0  0  0  0  0
   -4.1628   23.9540  -27.7452 H   0  0  0  0  0  0  0  0  0  0  0  0
   -7.0777   23.7769  -29.4881 H   0  0  0  0  0  0  0  0  0  0  0  0
   -6.8097   24.8646  -30.8923 H   0  0  0  0  0  0  0  0  0  0  0  0
   -8.1966   23.7231  -30.8923 H   0  0  0  0  0  0  0  0  0  0  0  0
  1  2  1  0
  2  3  1  0
  3  4  2  0
  4  5  1  0
  5  6  2  0
  6  7  1  0
  6  8  1  0
  8  9  1  0
  9 10  2  0
  9 11  1  0
 11 12  1  0
 12 13  2  0
 13 14  1  0
 14 15  2  0
 15 16  1  0
 16 17  2  0
 16 18  2  0
 16 19  1  0
 19 20  1  0
 20 21  1  0
 21 22  1  0
 22 23  1  0
 15 24  1  0
 24 25  2  0
  8 26  2  0
 26 27  1  0
 26 28  1  0
 28 29  1  0
 29  2  2  0
 28  4  1  0
 25 12  1  0
 23 19  1  0
  1 30  1  0
  1 31  1  0
  1 32  1  0
  3 33  1  0
  7 34  1  0
  7 35  1  0
  7 36  1  0
 13 37  1  0
 14 38  1  0
 20 39  1  0
 20 40  1  0
 21 41  1  0
 21 42  1  0
 22 43  1  0
 22 44  1  0
 23 45  1  0
 23 46  1  0
 24 47  1  0
 25 48  1  0
 27 49  1  0
 27 50  1  0
 27 51  1  0
M  CHG  1  11  -1
M  END
>  <UniqueID>  (31) 
31

>  <SMILES>  (31) 
Cc1cc2nc(C)c(C(=O)[N-]c3ccc(S(=O)(=O)N4CCCC4)cc3)c(C)n2n1

>  <Energy>  (31) 
98.52048256294367

>  <Genealogy>  (31) 
Cc1cc2nc(C)c(C(=O)[N-]c3ccc(S(=O)(=O)N4CCCC4)cc3)c(C)n2n1 (protonated)
Cc1cc2nc(C)c(C(=O)[N-]c3ccc(S(=O)(=O)N4CCCC4)cc3)c(C)n2n1 (3D coordinates assigned)
Cc1cc2nc(C)c(C(=O)[N-]c3ccc(S(=O)(=O)N4CCCC4)cc3)c(C)n2n1 (nonaromatic ring conformer: 98.52048256294367 kcal/mol)

>  <smiles>  (31) 
Cc1cc2nc(C)c(C(=O)Nc3ccc(S(=O)(=O)N4CCCC4)cc3)c(C)n2n1

>  <score_type>  (31) 
oracle

>  <origin>  (31) 
adgpu

>  <m_score__min__energy>  (31) 
-11.27

>  <m_primary>  (31) 
energy

$$$$
31:0
     RDKit          3D

 57 60  0  0  0  0  0  0  0  0999 V2000
   -6.1060   25.7350  -29.9550 O   0  0  0  0  0  0  0  0  0  0  0  0
   -5.2180   25.2310  -30.6920 C   0  0  0  0  0  0  0  0  0  0  0  0
   -5.6020   24.5920  -31.9150 N   0  0  0  0  0  0  0  0  0  0  0  0
   -6.1290   23.2610  -32.0060 C   0  0  0  0  0  0  0  0  0  0  0  0
   -5.2840   22.1530  -32.1940 C   0  0  0  0  0  0  0  0  0  0  0  0
   -5.8210   20.8680  -32.3070 C   0  0  0  0  0  0  0  0  0  0  0  0
   -7.2120   20.6650  -32.2380 C   0  0  0  0  0  0  0  0  0  0  0  0
   -7.7740   19.2980  -32.3690 C   0  0  0  0  0  0  0  0  0  0  0  0
   -9.0270   19.1240  -32.3460 O   0  0  0  0  0  0  0  0  0  0  0  0
   -6.9200   18.1560  -32.5220 N   0  0  0  0  0  0  0  0  0  0  0  0
   -6.1030   17.7170  -31.3810 C   0  0  0  0  0  0  0  0  0  0  0  0
   -5.5540   16.3050  -31.5900 C   0  0  0  0  0  0  0  0  0  0  0  0
   -5.0600   16.1460  -32.9040 O   0  0  0  0  0  0  0  0  0  0  0  0
   -6.1420   16.1800  -33.8140 C   0  0  0  0  0  0  0  0  0  0  0  0
   -6.7690   17.5790  -33.8660 C   0  0  0  0  0  0  0  0  0  0  0  0
   -8.0510   21.7780  -32.0300 C   0  0  0  0  0  0  0  0  0  0  0  0
   -7.5140   23.0660  -31.9350 C   0  0  0  0  0  0  0  0  0  0  0  0
   -3.8450   25.3040  -30.2900 N   0  0  0  0  0  0  0  0  0  0  0  0
   -3.2320   24.4330  -29.3290 C   0  0  0  0  0  0  0  0  0  0  0  0
   -3.9090   23.3030  -28.8400 C   0  0  0  0  0  0  0  0  0  0  0  0
   -3.2940   22.4610  -27.9130 C   0  0  0  0  0  0  0  0  0  0  0  0
   -2.0060   22.7430  -27.4550 C   0  0  0  0  0  0  0  0  0  0  0  0
   -1.3280   23.8830  -27.9130 C   0  0  0  0  0  0  0  0  0  0  0  0
    0.3130   24.2180  -27.3560 S   0  0  0  0  0  0  0  0  0  0  0  0
    0.8500   22.9950  -26.6630 O   0  0  0  0  0  0  0  0  0  0  0  0
    1.2050   24.5340  -28.5290 O   0  0  0  0  0  0  0  0  0  0  0  0
    0.2890   25.5680  -26.2470 N   0  0  0  0  0  0  0  0  0  0  0  0
    0.2480   25.0770  -24.8520 C   0  0  0  0  0  0  0  0  0  0  0  0
   -0.3130   26.1510  -23.9060 C   0  0  0  0  0  0  0  0  0  0  0  0
   -1.6310   26.5810  -24.2310 O   0  0  0  0  0  0  0  0  0  0  0  0
   -1.9940   26.3500  -25.5840 C   0  0  0  0  0  0  0  0  0  0  0  0
   -0.8180   26.4960  -26.5640 C   0  0  0  0  0  0  0  0  0  0  0  0
   -1.9440   24.7280  -28.8530 C   0  0  0  0  0  0  0  0  0  0  0  0
   -1.2720   25.8480  -29.3340 O   0  0  0  0  0  0  0  0  0  0  0  0
   -4.1952   22.2985  -32.2524 H   0  0  0  0  0  0  0  0  0  0  0  0
   -5.1509   20.0077  -32.4511 H   0  0  0  0  0  0  0  0  0  0  0  0
   -5.2600   18.4128  -31.2572 H   0  0  0  0  0  0  0  0  0  0  0  0
   -6.7410   17.7083  -30.4850 H   0  0  0  0  0  0  0  0  0  0  0  0
   -4.7380   16.1262  -30.8743 H   0  0  0  0  0  0  0  0  0  0  0  0
   -6.3691   15.5837  -31.4311 H   0  0  0  0  0  0  0  0  0  0  0  0
   -5.7781   15.9108  -34.8166 H   0  0  0  0  0  0  0  0  0  0  0  0
   -6.9067   15.4642  -33.4781 H   0  0  0  0  0  0  0  0  0  0  0  0
   -6.1236   18.2371  -34.4663 H   0  0  0  0  0  0  0  0  0  0  0  0
   -7.7687   17.4909  -34.3164 H   0  0  0  0  0  0  0  0  0  0  0  0
   -9.1377   21.6325  -31.9416 H   0  0  0  0  0  0  0  0  0  0  0  0
   -8.1825   23.9297  -31.8039 H   0  0  0  0  0  0  0  0  0  0  0  0
   -4.9282   23.0813  -29.1895 H   0  0  0  0  0  0  0  0  0  0  0  0
   -3.8257   21.5724  -27.5420 H   0  0  0  0  0  0  0  0  0  0  0  0
   -1.5210   22.0696  -26.7329 H   0  0  0  0  0  0  0  0  0  0  0  0
   -0.3932   24.1845  -24.8035 H   0  0  0  0  0  0  0  0  0  0  0  0
    1.2730   24.8328  -24.5362 H   0  0  0  0  0  0  0  0  0  0  0  0
   -0.3254   25.7402  -22.8857 H   0  0  0  0  0  0  0  0  0  0  0  0
    0.3403   27.0307  -24.0019 H   0  0  0  0  0  0  0  0  0  0  0  0
   -2.3939   25.3287  -25.6685 H   0  0  0  0  0  0  0  0  0  0  0  0
   -2.7399   27.1116  -25.8552 H   0  0  0  0  0  0  0  0  0  0  0  0
   -1.1767   26.2855  -27.5823 H   0  0  0  0  0  0  0  0  0  0  0  0
   -0.4332   27.5231  -26.4807 H   0  0  0  0  0  0  0  0  0  0  0  0
  1  2  2  0
  2  3  1  0
  3  4  1  0
  4  5  2  0
  5  6  1  0
  6  7  2  0
  7  8  1  0
  8  9  2  0
  8 10  1  0
 10 11  1  0
 11 12  1  0
 12 13  1  0
 13 14  1  0
 14 15  1  0
  7 16  1  0
 16 17  2  0
  2 18  1  0
 18 19  1  0
 19 20  2  0
 20 21  1  0
 21 22  2  0
 22 23  1  0
 23 24  1  0
 24 25  2  0
 24 26  2  0
 24 27  1  0
 27 28  1  0
 28 29  1  0
 29 30  1  0
 30 31  1  0
 31 32  1  0
 23 33  2  0
 33 34  1  0
 17  4  1  0
 33 19  1  0
 15 10  1  0
 32 27  1  0
  5 35  1  0
  6 36  1  0
 11 37  1  0
 11 38  1  0
 12 39  1  0
 12 40  1  0
 14 41  1  0
 14 42  1  0
 15 43  1  0
 15 44  1  0
 16 45  1  0
 17 46  1  0
 20 47  1  0
 21 48  1  0
 22 49  1  0
 28 50  1  0
 28 51  1  0
 29 52  1  0
 29 53  1  0
 31 54  1  0
 31 55  1  0
 32 56  1  0
 32 57  1  0
M  CHG  3   3  -1  18  -1  34  -1
M  END
>  <UniqueID>  (32) 
32

>  <SMILES>  (32) 
O=C([N-]c1ccc(C(=O)N2CCOCC2)cc1)[N-]c1cccc(S(=O)(=O)N2CCOCC2)c1[O-]

>  <Energy>  (32) 
86.00594804393428

>  <Genealogy>  (32) 
O=C([N-]c1ccc(C(=O)N2CCOCC2)cc1)[N-]c1cccc(S(=O)(=O)N2CCOCC2)c1[O-] (protonated)
O=C([N-]c1ccc(C(=O)N2CCOCC2)cc1)[N-]c1cccc(S(=O)(=O)N2CCOCC2)c1[O-] (3D coordinates assigned)
O=C([N-]c1ccc(C(=O)N2CCOCC2)cc1)[N-]c1cccc(S(=O)(=O)N2CCOCC2)c1[O-] (nonaromatic ring conformer: 86.00594804393428 kcal/mol)

>  <smiles>  (32) 
O=C(Nc1ccc(C(=O)N2CCOCC2)cc1)Nc1cccc(S(=O)(=O)N2CCOCC2)c1O

>  <score_type>  (32) 
oracle

>  <origin>  (32) 
adgpu

>  <m_score__min__energy>  (32) 
-16.219999999999999

>  <m_primary>  (32) 
energy

$$$$
32:0
     RDKit          3D

 51 54  0  0  1  0  0  0  0  0999 V2000
   -0.1290   18.6150  -28.4060 C   0  0  0  0  0  0  0  0  0  0  0  0
   -0.4980   19.7020  -27.5460 N   0  0  0  0  0  0  0  0  0  0  0  0
   -1.6340   19.4690  -26.7270 C   0  0  0  0  0  0  0  0  0  0  0  0
   -2.9340   19.9830  -27.2270 C   0  0  0  0  0  0  0  0  0  0  0  0
   -2.7710   21.3620  -27.7810 C   0  0  0  0  0  0  0  0  0  0  0  0
   -3.8760   22.2040  -27.9200 C   0  0  0  0  0  0  0  0  0  0  0  0
   -3.7790   23.4800  -28.4230 C   0  0  0  0  0  0  0  0  0  0  0  0
   -4.8720   24.3660  -28.5730 N   0  0  0  0  0  0  0  0  0  0  0  0
   -5.5810   24.7780  -30.0890 S   0  0  0  0  0  0  0  0  0  0  0  0
   -6.7500   25.6910  -29.8380 O   0  0  0  0  0  0  0  0  0  0  0  0
   -4.6100   25.5350  -30.9550 O   0  0  0  0  0  0  0  0  0  0  0  0
   -6.0730   23.2940  -30.8710 C   0  0  0  0  0  0  0  0  0  0  0  0
   -7.4410   23.0180  -30.8610 C   0  0  0  0  0  0  0  0  0  0  0  0
   -7.9650   21.8870  -31.4340 C   0  0  0  0  0  0  0  0  0  0  0  0
   -7.1100   20.9960  -32.0420 C   0  0  0  0  0  0  0  0  0  0  0  0
   -7.6590   19.7650  -32.6700 C   0  0  0  0  0  0  0  0  0  0  0  0
   -6.6900   18.7050  -32.3620 N   0  0  0  0  0  0  0  0  0  0  0  0
   -6.0340   18.1940  -33.3320 C   0  0  0  0  0  0  0  0  0  0  0  0
   -5.1020   17.2190  -33.2870 N   0  0  0  0  0  0  0  0  0  0  0  0
   -4.6550   16.9660  -34.5130 C   0  0  0  0  0  0  0  0  0  0  0  0
   -5.3100   17.7900  -35.3570 N   0  0  0  0  0  0  0  0  0  0  0  0
   -6.1520   18.5370  -34.6250 N   0  0  0  0  0  0  0  0  0  0  0  0
   -5.7590   21.2580  -32.0580 C   0  0  0  0  0  0  0  0  0  0  0  0
   -5.2360   22.4150  -31.4690 C   0  0  0  0  0  0  0  0  0  0  0  0
   -2.5050   23.9240  -28.8030 C   0  0  0  0  0  0  0  0  0  0  0  0
   -2.3540   25.1990  -29.3150 O   0  0  0  0  0  0  0  0  0  0  0  0
   -1.3940   23.1030  -28.6730 C   0  0  0  0  0  0  0  0  0  0  0  0
   -1.5240   21.8360  -28.1670 C   0  0  0  0  0  0  0  0  0  0  0  0
   -0.3040   21.0060  -28.0520 C   0  0  0  0  0  0  0  0  0  0  0  0
    0.1652   17.7483  -27.7958 H   0  0  0  0  0  0  0  0  0  0  0  0
   -0.9851   18.3428  -29.0408 H   0  0  0  0  0  0  0  0  0  0  0  0
    0.7159   18.9202  -29.0408 H   0  0  0  0  0  0  0  0  0  0  0  0
   -1.7336   18.3813  -26.5970 H   0  0  0  0  0  0  0  0  0  0  0  0
   -1.4404   20.0272  -25.7991 H   0  0  0  0  0  0  0  0  0  0  0  0
   -3.3072   19.3163  -28.0183 H   0  0  0  0  0  0  0  0  0  0  0  0
   -3.6494   20.0162  -26.3921 H   0  0  0  0  0  0  0  0  0  0  0  0
   -4.8648   21.8313  -27.6146 H   0  0  0  0  0  0  0  0  0  0  0  0
   -5.2900   24.8070  -27.7130 H   0  0  0  0  0  0  0  0  0  0  0  0
   -8.1230   23.7324  -30.3767 H   0  0  0  0  0  0  0  0  0  0  0  0
   -9.0479   21.6958  -31.4080 H   0  0  0  0  0  0  0  0  0  0  0  0
   -8.6437   19.5220  -32.2442 H   0  0  0  0  0  0  0  0  0  0  0  0
   -7.8012   19.8871  -33.7539 H   0  0  0  0  0  0  0  0  0  0  0  0
   -3.8924   16.2226  -34.7884 H   0  0  0  0  0  0  0  0  0  0  0  0
   -5.1920   17.8480  -36.4090 H   0  0  0  0  0  0  0  0  0  0  0  0
   -6.7930   19.2720  -35.0400 H   0  0  0  0  0  0  0  0  0  0  0  0
   -5.0769   20.5442  -32.5431 H   0  0  0  0  0  0  0  0  0  0  0  0
   -4.1533   22.6081  -31.4921 H   0  0  0  0  0  0  0  0  0  0  0  0
   -3.0850   25.6750  -29.8360 H   0  0  0  0  0  0  0  0  0  0  0  0
   -0.4033   23.4712  -28.9778 H   0  0  0  0  0  0  0  0  0  0  0  0
    0.1406   20.9173  -29.0542 H   0  0  0  0  0  0  0  0  0  0  0  0
    0.3407   21.5186  -27.3229 H   0  0  0  0  0  0  0  0  0  0  0  0
  1  2  1  0
  2  3  1  0
  3  4  1  0
  4  5  1  0
  5  6  2  0
  6  7  1  0
  7  8  1  0
  8  9  1  0
  9 10  2  0
  9 11  2  0
  9 12  1  0
 12 13  2  0
 13 14  1  0
 14 15  2  0
 15 16  1  0
 16 17  1  0
 17 18  2  0
 18 19  1  0
 19 20  2  0
 20 21  1  0
 21 22  1  0
 15 23  1  0
 23 24  2  0
  7 25  2  0
 25 26  1  0
 25 27  1  0
 27 28  2  0
 28 29  1  0
 29  2  1  0
 28  5  1  0
 24 12  1  0
 22 18  1  0
  1 30  1  0
  1 31  1  0
  1 32  1  0
  3 33  1  0
  3 34  1  0
  4 35  1  0
  4 36  1  0
  6 37  1  0
  8 38  1  0
 13 39  1  0
 14 40  1  0
 16 41  1  0
 16 42  1  0
 20 43  1  0
 21 44  1  0
 22 45  1  0
 23 46  1  0
 24 47  1  0
 26 48  1  0
 27 49  1  0
 29 50  1  0
 29 51  1  0
M  END
>  <smiles>  (33) 
CN1CCc2cc(NS(=O)(=O)c3ccc(CN=c4nc[nH][nH]4)cc3)c(O)cc2C1

>  <score_type>  (33) 
oracle

>  <origin>  (33) 
adgpu

>  <m_score__min__energy>  (33) 
-12.07

>  <m_primary>  (33) 
energy

$$$$
33:0
     RDKit          3D

 73 77  0  0  0  0  0  0  0  0999 V2000
   -1.1510   23.6210  -29.8260 O   0  0  0  0  0  0  0  0  0  0  0  0
   -1.6610   22.6530  -30.4480 C   0  0  0  0  0  0  0  0  0  0  0  0
   -2.7770   22.9070  -31.3170 N   0  0  0  0  0  0  0  0  0  0  0  0
   -4.0630   23.3510  -30.8630 C   0  0  0  0  0  0  0  0  0  0  0  0
   -5.1910   22.5890  -31.1880 C   0  0  0  0  0  0  0  0  0  0  0  0
   -6.4750   23.0470  -30.8640 C   0  0  0  0  0  0  0  0  0  0  0  0
   -7.8910   22.0800  -31.2820 S   0  0  0  0  0  0  0  0  0  0  0  0
   -8.7840   21.9630  -30.0790 O   0  0  0  0  0  0  0  0  0  0  0  0
   -8.6600   22.7790  -32.3680 O   0  0  0  0  0  0  0  0  0  0  0  0
   -7.4360   20.4840  -31.8250 N   0  0  0  0  0  0  0  0  0  0  0  0
   -6.6490   20.5810  -33.0740 C   0  0  0  0  0  0  0  0  0  0  0  0
   -6.4970   19.2180  -33.7870 C   0  0  0  0  0  0  0  0  0  0  0  0
   -6.8300   18.0480  -32.8570 C   0  0  0  0  0  0  0  0  0  0  0  0
   -8.2440   18.1870  -32.2710 C   0  0  0  0  0  0  0  0  0  0  0  0
   -8.6370   19.6560  -32.0160 C   0  0  0  0  0  0  0  0  0  0  0  0
   -6.6260   24.2700  -30.2000 C   0  0  0  0  0  0  0  0  0  0  0  0
   -5.5020   25.0140  -29.8370 C   0  0  0  0  0  0  0  0  0  0  0  0
   -4.2180   24.5560  -30.1480 C   0  0  0  0  0  0  0  0  0  0  0  0
   -3.1220   25.2970  -29.7160 O   0  0  0  0  0  0  0  0  0  0  0  0
   -1.1440   21.2800  -30.2250 C   0  0  0  0  0  0  0  0  0  0  0  0
   -0.7190   20.5140  -31.3230 C   0  0  0  0  0  0  0  0  0  0  0  0
   -0.1640   19.2410  -31.1440 C   0  0  0  0  0  0  0  0  0  0  0  0
    0.3940   18.3110  -32.5390 S   0  0  0  0  0  0  0  0  0  0  0  0
    1.6360   18.9520  -33.0970 O   0  0  0  0  0  0  0  0  0  0  0  0
    0.7480   16.9180  -32.0940 O   0  0  0  0  0  0  0  0  0  0  0  0
   -0.8250   18.2340  -33.7910 N   0  0  0  0  0  0  0  0  0  0  0  0
   -2.0490   17.5870  -33.2800 C   0  0  0  0  0  0  0  0  0  0  0  0
   -3.2660   17.9690  -34.1400 C   0  0  0  0  0  0  0  0  0  0  0  0
   -3.5320   19.3680  -34.1790 O   0  0  0  0  0  0  0  0  0  0  0  0
   -2.3990   20.1770  -33.9000 C   0  0  0  0  0  0  0  0  0  0  0  0
   -1.0760   19.5640  -34.3920 C   0  0  0  0  0  0  0  0  0  0  0  0
   -0.0520   18.7140  -29.8540 C   0  0  0  0  0  0  0  0  0  0  0  0
   -0.5180   19.4400  -28.7580 C   0  0  0  0  0  0  0  0  0  0  0  0
   -1.0710   20.7160  -28.9300 C   0  0  0  0  0  0  0  0  0  0  0  0
   -1.5160   21.4350  -27.7730 N   0  0  0  0  0  0  0  0  0  0  0  0
   -2.9500   21.5300  -27.4820 C   0  0  0  0  0  0  0  0  0  0  0  0
   -3.4130   23.0050  -27.5410 C   0  0  0  0  0  0  0  0  0  0  0  0
   -2.3470   23.9470  -27.5130 O   0  0  0  0  0  0  0  0  0  0  0  0
   -1.3670   23.5670  -26.5670 C   0  0  0  0  0  0  0  0  0  0  0  0
   -0.5950   22.3510  -27.0890 C   0  0  0  0  0  0  0  0  0  0  0  0
   -5.0688   21.6238  -31.7014 H   0  0  0  0  0  0  0  0  0  0  0  0
   -7.1544   21.2809  -33.7556 H   0  0  0  0  0  0  0  0  0  0  0  0
   -5.6413   20.9320  -32.8069 H   0  0  0  0  0  0  0  0  0  0  0  0
   -7.1773   19.1906  -34.6510 H   0  0  0  0  0  0  0  0  0  0  0  0
   -5.4490   19.1139  -34.1047 H   0  0  0  0  0  0  0  0  0  0  0  0
   -6.7685   17.1088  -33.4263 H   0  0  0  0  0  0  0  0  0  0  0  0
   -6.1082   18.0472  -32.0270 H   0  0  0  0  0  0  0  0  0  0  0  0
   -8.9632   17.7472  -32.9776 H   0  0  0  0  0  0  0  0  0  0  0  0
   -8.2567   17.6652  -31.3027 H   0  0  0  0  0  0  0  0  0  0  0  0
   -9.2041   20.0343  -32.8793 H   0  0  0  0  0  0  0  0  0  0  0  0
   -9.2532   19.7071  -31.1062 H   0  0  0  0  0  0  0  0  0  0  0  0
   -7.6325   24.6456  -29.9637 H   0  0  0  0  0  0  0  0  0  0  0  0
   -5.6273   25.9672  -29.3026 H   0  0  0  0  0  0  0  0  0  0  0  0
   -2.2370   24.8690  -29.4780 H   0  0  0  0  0  0  0  0  0  0  0  0
   -0.8238   20.9207  -32.3397 H   0  0  0  0  0  0  0  0  0  0  0  0
   -1.9176   16.4952  -33.3051 H   0  0  0  0  0  0  0  0  0  0  0  0
   -2.2243   17.9269  -32.2486 H   0  0  0  0  0  0  0  0  0  0  0  0
   -3.0853   17.6225  -35.1682 H   0  0  0  0  0  0  0  0  0  0  0  0
   -4.1434   17.4910  -33.6798 H   0  0  0  0  0  0  0  0  0  0  0  0
   -2.5363   21.1513  -34.3918 H   0  0  0  0  0  0  0  0  0  0  0  0
   -2.3274   20.2705  -32.8063 H   0  0  0  0  0  0  0  0  0  0  0  0
   -1.1189   19.4573  -35.4860 H   0  0  0  0  0  0  0  0  0  0  0  0
   -0.2574   20.2339  -34.0901 H   0  0  0  0  0  0  0  0  0  0  0  0
    0.4046   17.7247  -29.7030 H   0  0  0  0  0  0  0  0  0  0  0  0
   -0.4508   19.0068  -27.7491 H   0  0  0  0  0  0  0  0  0  0  0  0
   -3.5107   20.9436  -28.2248 H   0  0  0  0  0  0  0  0  0  0  0  0
   -3.1371   21.1362  -26.4721 H   0  0  0  0  0  0  0  0  0  0  0  0
   -3.9808   23.1525  -28.4715 H   0  0  0  0  0  0  0  0  0  0  0  0
   -4.0204   23.1845  -26.6417 H   0  0  0  0  0  0  0  0  0  0  0  0
   -0.6696   24.4023  -26.4063 H   0  0  0  0  0  0  0  0  0  0  0  0
   -1.8567   23.3090  -25.6164 H   0  0  0  0  0  0  0  0  0  0  0  0
    0.1794   22.6853  -27.7951 H   0  0  0  0  0  0  0  0  0  0  0  0
   -0.1239   21.8287  -26.2432 H   0  0  0  0  0  0  0  0  0  0  0  0
  1  2  2  0
  2  3  1  0
  3  4  1  0
  4  5  2  0
  5  6  1  0
  6  7  1  0
  7  8  2  0
  7  9  2  0
  7 10  1  0
 10 11  1  0
 11 12  1  0
 12 13  1  0
 13 14  1  0
 14 15  1  0
  6 16  2  0
 16 17  1  0
 17 18  2  0
 18 19  1  0
  2 20  1  0
 20 21  2  0
 21 22  1  0
 22 23  1  0
 23 24  2  0
 23 25  2  0
 23 26  1  0
 26 27  1  0
 27 28  1  0
 28 29  1  0
 29 30  1  0
 30 31  1  0
 22 32  2  0
 32 33  1  0
 33 34  2  0
 34 35  1  0
 35 36  1  0
 36 37  1  0
 37 38  1  0
 38 39  1  0
 39 40  1  0
 18  4  1  0
 34 20  1  0
 40 35  1  0
 15 10  1  0
 31 26  1  0
  5 41  1  0
 11 42  1  0
 11 43  1  0
 12 44  1  0
 12 45  1  0
 13 46  1  0
 13 47  1  0
 14 48  1  0
 14 49  1  0
 15 50  1  0
 15 51  1  0
 16 52  1  0
 17 53  1  0
 19 54  1  0
 21 55  1  0
 27 56  1  0
 27 57  1  0
 28 58  1  0
 28 59  1  0
 30 60  1  0
 30 61  1  0
 31 62  1  0
 31 63  1  0
 32 64  1  0
 33 65  1  0
 36 66  1  0
 36 67  1  0
 37 68  1  0
 37 69  1  0
 39 70  1  0
 39 71  1  0
 40 72  1  0
 40 73  1  0
M  CHG  1   3  -1
M  END
>  <UniqueID>  (34) 
33

>  <SMILES>  (34) 
O=C([N-]c1cc(S(=O)(=O)N2CCCCC2)ccc1O)c1cc(S(=O)(=O)N2CCOCC2)ccc1N1CCOCC1

>  <Energy>  (34) 
113.01963343952472

>  <Genealogy>  (34) 
O=C([N-]c1cc(S(=O)(=O)N2CCCCC2)ccc1O)c1cc(S(=O)(=O)N2CCOCC2)ccc1N1CCOCC1 (protonated)
O=C([N-]c1cc(S(=O)(=O)N2CCCCC2)ccc1O)c1cc(S(=O)(=O)N2CCOCC2)ccc1N1CCOCC1 (3D coordinates assigned)
O=C([N-]c1cc(S(=O)(=O)N2CCCCC2)ccc1O)c1cc(S(=O)(=O)N2CCOCC2)ccc1N1CCOCC1 (nonaromatic ring conformer: 113.01963343952472 kcal/mol)

>  <smiles>  (34) 
O=C(Nc1cc(S(=O)(=O)N2CCCCC2)ccc1O)c1cc(S(=O)(=O)N2CCOCC2)ccc1N1CCOCC1

>  <score_type>  (34) 
oracle

>  <origin>  (34) 
adgpu

>  <m_score__min__energy>  (34) 
-12.73

>  <m_primary>  (34) 
energy

$$$$
34:0
     RDKit          3D

 51 53  0  0  0  0  0  0  0  0999 V2000
   -0.5600   26.7310  -26.6350 C   0  0  0  0  0  0  0  0  0  0  0  0
   -0.6740   25.4180  -27.3450 C   0  0  0  0  0  0  0  0  0  0  0  0
    0.3260   24.9180  -28.1050 N   0  0  0  0  0  0  0  0  0  0  0  0
   -0.1460   23.7400  -28.5550 C   0  0  0  0  0  0  0  0  0  0  0  0
   -1.4160   23.5420  -28.0580 C   0  0  0  0  0  0  0  0  0  0  0  0
   -2.2270   22.3840  -28.3240 N   0  0  0  0  0  0  0  0  0  0  0  0
   -2.9940   21.9500  -27.4400 O   0  0  0  0  0  0  0  0  0  0  0  0
   -2.2300   21.7710  -29.5560 O   0  0  0  0  0  0  0  0  0  0  0  0
   -1.7560   24.6020  -27.2870 N   0  0  0  0  0  0  0  0  0  0  0  0
   -3.0230   24.8690  -26.5930 C   0  0  0  0  0  0  0  0  0  0  0  0
   -4.2260   24.5390  -27.4810 C   0  0  0  0  0  0  0  0  0  0  0  0
   -3.8140   24.4090  -28.8820 N   0  0  0  0  0  0  0  0  0  0  0  0
   -5.1390   24.8240  -29.9260 S   0  0  0  0  0  0  0  0  0  0  0  0
   -6.1380   25.6500  -29.1640 O   0  0  0  0  0  0  0  0  0  0  0  0
   -4.6270   25.6410  -31.0770 O   0  0  0  0  0  0  0  0  0  0  0  0
   -5.9100   23.3660  -30.5480 C   0  0  0  0  0  0  0  0  0  0  0  0
   -7.3040   23.2380  -30.5010 C   0  0  0  0  0  0  0  0  0  0  0  0
   -7.9240   22.1020  -31.0290 C   0  0  0  0  0  0  0  0  0  0  0  0
   -7.1540   21.0880  -31.6180 C   0  0  0  0  0  0  0  0  0  0  0  0
   -7.9160   19.6430  -32.2740 S   0  0  0  0  0  0  0  0  0  0  0  0
   -8.6890   18.9320  -31.1960 O   0  0  0  0  0  0  0  0  0  0  0  0
   -8.8730   20.0550  -33.3590 O   0  0  0  0  0  0  0  0  0  0  0  0
   -6.6910   18.5890  -32.9350 N   0  0  0  0  0  0  0  0  0  0  0  0
   -7.2390   17.2360  -33.1180 C   0  0  0  0  0  0  0  0  0  0  0  0
   -6.1940   16.3180  -33.7870 C   0  0  0  0  0  0  0  0  0  0  0  0
   -4.9910   17.0080  -34.0690 O   0  0  0  0  0  0  0  0  0  0  0  0
   -5.2640   18.1160  -34.9070 C   0  0  0  0  0  0  0  0  0  0  0  0
   -6.2090   19.1220  -34.2180 C   0  0  0  0  0  0  0  0  0  0  0  0
   -5.7600   21.2170  -31.6630 C   0  0  0  0  0  0  0  0  0  0  0  0
   -5.1400   22.3510  -31.1340 C   0  0  0  0  0  0  0  0  0  0  0  0
   -0.5746   26.5626  -25.5481 H   0  0  0  0  0  0  0  0  0  0  0  0
    0.3840   27.2199  -26.9176 H   0  0  0  0  0  0  0  0  0  0  0  0
   -1.4056   27.3753  -26.9176 H   0  0  0  0  0  0  0  0  0  0  0  0
    0.3959   23.0461  -29.2144 H   0  0  0  0  0  0  0  0  0  0  0  0
   -3.0697   24.2524  -25.6832 H   0  0  0  0  0  0  0  0  0  0  0  0
   -3.0613   25.9391  -26.3413 H   0  0  0  0  0  0  0  0  0  0  0  0
   -4.6730   23.5913  -27.1464 H   0  0  0  0  0  0  0  0  0  0  0  0
   -4.9594   25.3550  -27.4016 H   0  0  0  0  0  0  0  0  0  0  0  0
   -3.5980   23.4020  -29.0660 H   0  0  0  0  0  0  0  0  0  0  0  0
   -7.9127   24.0339  -30.0472 H   0  0  0  0  0  0  0  0  0  0  0  0
   -9.0185   22.0028  -30.9826 H   0  0  0  0  0  0  0  0  0  0  0  0
   -7.5119   16.8198  -32.1370 H   0  0  0  0  0  0  0  0  0  0  0  0
   -8.1274   17.2953  -33.7640 H   0  0  0  0  0  0  0  0  0  0  0  0
   -5.9729   15.4788  -33.1111 H   0  0  0  0  0  0  0  0  0  0  0  0
   -6.6135   15.9598  -34.7387 H   0  0  0  0  0  0  0  0  0  0  0  0
   -4.3183   18.6222  -35.1508 H   0  0  0  0  0  0  0  0  0  0  0  0
   -5.7555   17.7477  -35.8196 H   0  0  0  0  0  0  0  0  0  0  0  0
   -5.6663   20.0616  -34.0374 H   0  0  0  0  0  0  0  0  0  0  0  0
   -7.0740   19.3003  -34.8738 H   0  0  0  0  0  0  0  0  0  0  0  0
   -5.1509   20.4215  -32.1171 H   0  0  0  0  0  0  0  0  0  0  0  0
   -4.0452   22.4483  -31.1771 H   0  0  0  0  0  0  0  0  0  0  0  0
  1  2  1  0
  2  3  2  0
  3  4  1  0
  4  5  2  0
  5  6  1  0
  6  7  2  0
  6  8  1  0
  5  9  1  0
  9 10  1  0
 10 11  1  0
 11 12  1  0
 12 13  1  0
 13 14  2  0
 13 15  2  0
 13 16  1  0
 16 17  2  0
 17 18  1  0
 18 19  2  0
 19 20  1  0
 20 21  2  0
 20 22  2  0
 20 23  1  0
 23 24  1  0
 24 25  1  0
 25 26  1  0
 26 27  1  0
 27 28  1  0
 19 29  1  0
 29 30  2  0
  9  2  1  0
 30 16  1  0
 28 23  1  0
  1 31  1  0
  1 32  1  0
  1 33  1  0
  4 34  1  0
 10 35  1  0
 10 36  1  0
 11 37  1  0
 11 38  1  0
 12 39  1  0
 17 40  1  0
 18 41  1  0
 24 42  1  0
 24 43  1  0
 25 44  1  0
 25 45  1  0
 27 46  1  0
 27 47  1  0
 28 48  1  0
 28 49  1  0
 29 50  1  0
 30 51  1  0
M  CHG  2   6   1   8  -1
M  END
>  <UniqueID>  (35) 
34

>  <SMILES>  (35) 
Cc1ncc([N+](=O)[O-])n1CCNS(=O)(=O)c1ccc(S(=O)(=O)N2CCOCC2)cc1

>  <Energy>  (35) 
84.9467941895637

>  <Genealogy>  (35) 
Cc1ncc([N+](=O)[O-])n1CCNS(=O)(=O)c1ccc(S(=O)(=O)N2CCOCC2)cc1 (3D coordinates assigned)
Cc1ncc([N+](=O)[O-])n1CCNS(=O)(=O)c1ccc(S(=O)(=O)N2CCOCC2)cc1 (nonaromatic ring conformer: 84.9467941895637 kcal/mol)

>  <smiles>  (35) 
Cc1ncc([N+](=O)[O-])n1CCNS(=O)(=O)c1ccc(S(=O)(=O)N2CCOCC2)cc1

>  <score_type>  (35) 
oracle

>  <origin>  (35) 
adgpu

>  <m_score__min__energy>  (35) 
-11.4

>  <m_primary>  (35) 
energy

$$$$
35:0
     RDKit          3D

 39 40  0  0  0  0  0  0  0  0999 V2000
   -3.8150   21.9580  -31.7630 C   0  0  0  0  0  0  0  0  0  0  0  0
   -4.1340   23.3020  -31.1840 C   0  0  0  0  0  0  0  0  0  0  0  0
   -3.1950   24.2000  -30.8250 N   0  0  0  0  0  0  0  0  0  0  0  0
   -3.8020   25.2650  -30.3160 N   0  0  0  0  0  0  0  0  0  0  0  0
   -5.1320   25.0520  -30.3430 C   0  0  0  0  0  0  0  0  0  0  0  0
   -6.1390   26.0300  -29.8350 C   0  0  0  0  0  0  0  0  0  0  0  0
   -5.3840   23.8000  -30.8750 C   0  0  0  0  0  0  0  0  0  0  0  0
   -6.9500   23.0230  -31.1070 S   0  0  0  0  0  0  0  0  0  0  0  0
   -7.2810   22.1730  -29.9140 O   0  0  0  0  0  0  0  0  0  0  0  0
   -8.0070   24.0810  -31.2370 O   0  0  0  0  0  0  0  0  0  0  0  0
   -6.9620   22.0430  -32.5330 N   0  0  0  0  0  0  0  0  0  0  0  0
   -7.3510   20.6680  -32.5080 C   0  0  0  0  0  0  0  0  0  0  0  0
   -6.5720   19.7020  -33.1600 C   0  0  0  0  0  0  0  0  0  0  0  0
   -6.9290   18.3470  -33.1160 C   0  0  0  0  0  0  0  0  0  0  0  0
   -6.0650   17.3330  -33.7620 C   0  0  0  0  0  0  0  0  0  0  0  0
   -6.5620   16.2150  -34.0650 O   0  0  0  0  0  0  0  0  0  0  0  0
   -4.6770   17.5930  -34.0460 N   0  0  0  0  0  0  0  0  0  0  0  0
   -4.0490   16.9280  -35.1900 C   0  0  0  0  0  0  0  0  0  0  0  0
   -3.8610   18.3700  -33.1080 C   0  0  0  0  0  0  0  0  0  0  0  0
   -8.0780   17.9650  -32.4090 C   0  0  0  0  0  0  0  0  0  0  0  0
   -8.8770   18.9290  -31.7890 C   0  0  0  0  0  0  0  0  0  0  0  0
   -8.5240   20.2800  -31.8390 C   0  0  0  0  0  0  0  0  0  0  0  0
   -9.3410   21.2150  -31.2050 O   0  0  0  0  0  0  0  0  0  0  0  0
   -3.6443   21.2389  -30.9483 H   0  0  0  0  0  0  0  0  0  0  0  0
   -4.6571   21.6166  -32.3830 H   0  0  0  0  0  0  0  0  0  0  0  0
   -2.9093   22.0314  -32.3830 H   0  0  0  0  0  0  0  0  0  0  0  0
   -6.1332   26.0243  -28.7350 H   0  0  0  0  0  0  0  0  0  0  0  0
   -5.8872   27.0374  -30.1978 H   0  0  0  0  0  0  0  0  0  0  0  0
   -7.1387   25.7489  -30.1978 H   0  0  0  0  0  0  0  0  0  0  0  0
   -5.6716   20.0102  -33.7116 H   0  0  0  0  0  0  0  0  0  0  0  0
   -3.3356   16.1726  -34.8287 H   0  0  0  0  0  0  0  0  0  0  0  0
   -4.8229   16.4393  -35.8002 H   0  0  0  0  0  0  0  0  0  0  0  0
   -3.5169   17.6726  -35.8002 H   0  0  0  0  0  0  0  0  0  0  0  0
   -4.1374   18.1068  -32.0764 H   0  0  0  0  0  0  0  0  0  0  0  0
   -2.7973   18.1427  -33.2719 H   0  0  0  0  0  0  0  0  0  0  0  0
   -4.0360   19.4435  -33.2719 H   0  0  0  0  0  0  0  0  0  0  0  0
   -8.3516   16.9017  -32.3422 H   0  0  0  0  0  0  0  0  0  0  0  0
   -9.7902   18.6223  -31.2579 H   0  0  0  0  0  0  0  0  0  0  0  0
   -9.0740   22.1860  -31.1010 H   0  0  0  0  0  0  0  0  0  0  0  0
  1  2  1  0
  2  3  2  0
  3  4  1  0
  4  5  1  0
  5  6  1  0
  5  7  2  0
  7  8  1  0
  8  9  2  0
  8 10  2  0
  8 11  1  0
 11 12  1  0
 12 13  2  0
 13 14  1  0
 14 15  1  0
 15 16  2  0
 15 17  1  0
 17 18  1  0
 17 19  1  0
 14 20  2  0
 20 21  1  0
 21 22  2  0
 22 23  1  0
  7  2  1  0
 22 12  1  0
  1 24  1  0
  1 25  1  0
  1 26  1  0
  6 27  1  0
  6 28  1  0
  6 29  1  0
 13 30  1  0
 18 31  1  0
 18 32  1  0
 18 33  1  0
 19 34  1  0
 19 35  1  0
 19 36  1  0
 20 37  1  0
 21 38  1  0
 23 39  1  0
M  CHG  2   4  -1  11  -1
M  END
>  <UniqueID>  (36) 
35

>  <SMILES>  (36) 
Cc1n[n-]c(C)c1S(=O)(=O)[N-]c1cc(C(=O)N(C)C)ccc1O

>  <Energy>  (36) 
77.92131047902697

>  <Genealogy>  (36) 
Cc1n[n-]c(C)c1S(=O)(=O)[N-]c1cc(C(=O)N(C)C)ccc1O (protonated)
Cc1n[n-]c(C)c1S(=O)(=O)[N-]c1cc(C(=O)N(C)C)ccc1O (3D coordinates assigned)
Cc1n[n-]c(C)c1S(=O)(=O)[N-]c1cc(C(=O)N(C)C)ccc1O (optimized conformer: 77.92131047902697 kcal/mol)

>  <smiles>  (36) 
Cc1n[nH]c(C)c1S(=O)(=O)Nc1cc(C(=O)N(C)C)ccc1O

>  <score_type>  (36) 
oracle

>  <origin>  (36) 
adgpu

>  <m_score__min__energy>  (36) 
-9.2300000000000004

>  <m_primary>  (36) 
energy

$$$$
36:0
     RDKit          3D

 44 46  0  0  0  0  0  0  0  0999 V2000
   -7.9263   24.2586  -31.0408 H   0  0  0  0  0  0  0  0  0  0  0  0
   -6.8990   23.8950  -30.8910 C   0  0  0  0  0  0  0  0  0  0  0  0
   -6.6520   22.5260  -30.7860 C   0  0  0  0  0  0  0  0  0  0  0  0
   -7.4852   21.8111  -30.8545 H   0  0  0  0  0  0  0  0  0  0  0  0
   -5.3480   22.0610  -30.5940 C   0  0  0  0  0  0  0  0  0  0  0  0
   -5.1600   20.9799  -30.5180 H   0  0  0  0  0  0  0  0  0  0  0  0
   -4.2720   22.9660  -30.4970 C   0  0  0  0  0  0  0  0  0  0  0  0
   -2.8850   22.4570  -30.3240 C   0  0  0  0  0  0  0  0  0  0  0  0
   -1.8790   23.3640  -29.8380 N   0  0  0  0  0  0  0  0  0  0  0  0
   -1.8680   24.3330  -30.2310 H   0  0  0  0  0  0  0  0  0  0  0  0
   -1.0170   23.0580  -28.6950 C   0  0  0  0  0  0  0  0  0  0  0  0
   -1.3282   22.0998  -28.2535 H   0  0  0  0  0  0  0  0  0  0  0  0
    0.0248   22.9956  -29.0424 H   0  0  0  0  0  0  0  0  0  0  0  0
   -1.1180   24.1410  -27.6510 C   0  0  0  0  0  0  0  0  0  0  0  0
   -1.0960   23.7890  -26.2900 C   0  0  0  0  0  0  0  0  0  0  0  0
   -1.0169   22.7307  -26.0006 H   0  0  0  0  0  0  0  0  0  0  0  0
   -1.1740   24.7750  -25.3020 C   0  0  0  0  0  0  0  0  0  0  0  0
   -1.1582   24.4904  -24.2396 H   0  0  0  0  0  0  0  0  0  0  0  0
   -1.2720   26.1210  -25.6620 C   0  0  0  0  0  0  0  0  0  0  0  0
   -1.3327   26.8955  -24.8832 H   0  0  0  0  0  0  0  0  0  0  0  0
   -1.2930   26.4840  -27.0110 C   0  0  0  0  0  0  0  0  0  0  0  0
   -1.3711   27.5447  -27.2917 H   0  0  0  0  0  0  0  0  0  0  0  0
   -1.2150   25.5030  -28.0070 C   0  0  0  0  0  0  0  0  0  0  0  0
   -1.2350   25.8920  -29.3420 O   0  0  0  0  0  0  0  0  0  0  0  0
   -2.5800   21.2480  -30.7270 N   0  0  0  0  0  0  0  0  0  0  0  0
   -3.3470   20.6070  -31.0330 H   0  0  0  0  0  0  0  0  0  0  0  0
   -1.2170   20.7280  -30.8900 C   0  0  0  0  0  0  0  0  0  0  0  0
   -1.1425   19.7540  -30.3843 H   0  0  0  0  0  0  0  0  0  0  0  0
   -0.5152   21.4511  -30.4489 H   0  0  0  0  0  0  0  0  0  0  0  0
   -0.8660   20.5530  -32.3470 C   0  0  0  0  0  0  0  0  0  0  0  0
   -1.3710   19.4630  -33.0740 C   0  0  0  0  0  0  0  0  0  0  0  0
   -2.0216   18.7282  -32.5773 H   0  0  0  0  0  0  0  0  0  0  0  0
   -1.0510   19.3070  -34.4260 C   0  0  0  0  0  0  0  0  0  0  0  0
   -1.4378   18.4422  -34.9851 H   0  0  0  0  0  0  0  0  0  0  0  0
   -0.2410   20.2470  -35.0690 C   0  0  0  0  0  0  0  0  0  0  0  0
    0.0750   20.0850  -36.4130 O   0  0  0  0  0  0  0  0  0  0  0  0
    0.2460   21.3510  -34.3600 C   0  0  0  0  0  0  0  0  0  0  0  0
    1.0460   22.2950  -34.9950 O   0  0  0  0  0  0  0  0  0  0  0  0
   -0.0710   21.5090  -33.0060 C   0  0  0  0  0  0  0  0  0  0  0  0
    0.3029   22.3843  -32.4546 H   0  0  0  0  0  0  0  0  0  0  0  0
   -4.5330   24.3480  -30.6100 C   0  0  0  0  0  0  0  0  0  0  0  0
   -3.5070   25.2790  -30.5160 O   0  0  0  0  0  0  0  0  0  0  0  0
   -5.8430   24.8030  -30.8060 C   0  0  0  0  0  0  0  0  0  0  0  0
   -6.0404   25.8816  -30.8934 H   0  0  0  0  0  0  0  0  0  0  0  0
  1  2  1  0
  2  3  2  0
  3  4  1  0
  3  5  1  0
  5  6  1  0
  5  7  2  0
  7  8  1  0
  8  9  1  0
  9 10  1  0
  9 11  1  0
 11 12  1  0
 11 13  1  0
 11 14  1  0
 14 15  2  0
 15 16  1  0
 15 17  1  0
 17 18  1  0
 17 19  2  0
 19 20  1  0
 19 21  1  0
 21 22  1  0
 21 23  2  0
 23 24  1  0
  8 25  2  0
 25 26  1  0
 25 27  1  0
 27 28  1  0
 27 29  1  0
 27 30  1  0
 30 31  2  0
 31 32  1  0
 31 33  1  0
 33 34  1  0
 33 35  2  0
 35 36  1  0
 35 37  1  0
 37 38  1  0
 37 39  2  0
 39 40  1  0
  7 41  1  0
 41 42  1  0
 41 43  2  0
 43 44  1  0
 43  2  1  0
 23 14  1  0
 39 30  1  0
M  CHG  5  24  -1  25   1  36  -1  38  -1  42  -1
M  END
>  <UniqueID>  (37) 
36

>  <SMILES>  (37) 
[O-]c1ccc(C/[NH+]=C(\NCc2ccccc2[O-])c2ccccc2[O-])cc1[O-]

>  <Energy>  (37) 
56.839537782182816

>  <Genealogy>  (37) 
[O-]c1ccc(C[NH+]=C(NCc2ccccc2[O-])c2ccccc2[O-])cc1[O-] (protonated)
[O-]c1ccc(C/[NH+]=C(\NCc2ccccc2[O-])c2ccccc2[O-])cc1[O-] (cis-trans isomerization)
[O-]c1ccc(C/[NH+]=C(\NCc2ccccc2[O-])c2ccccc2[O-])cc1[O-] (3D coordinates assigned)
[O-]c1ccc(C/[NH+]=C(\NCc2ccccc2[O-])c2ccccc2[O-])cc1[O-] (optimized conformer: 56.839537782182816 kcal/mol)

>  <smiles>  (37) 
Oc1ccc(CN=C(NCc2ccccc2O)c2ccccc2O)cc1O

>  <score_type>  (37) 
oracle

>  <origin>  (37) 
adgpu

>  <m_score__min__energy>  (37) 
-13.869999999999999

>  <m_primary>  (37) 
energy

$$$$
37:0
     RDKit          3D

 60 63  0  0  0  0  0  0  0  0999 V2000
   -2.6780   25.1760  -27.6200 O   0  0  0  0  0  0  0  0  0  0  0  0
   -2.2660   24.6820  -28.9800 S   0  0  0  0  0  0  0  0  0  0  0  0
   -0.9370   25.3040  -29.3160 O   0  0  0  0  0  0  0  0  0  0  0  0
   -3.4940   25.1260  -30.1190 N   0  0  0  0  0  0  0  0  0  0  0  0
   -4.5250   24.2720  -30.6310 C   0  0  0  0  0  0  0  0  0  0  0  0
   -5.8590   24.7060  -30.5370 C   0  0  0  0  0  0  0  0  0  0  0  0
   -6.8960   23.9070  -31.0310 C   0  0  0  0  0  0  0  0  0  0  0  0
   -6.6100   22.6840  -31.6520 C   0  0  0  0  0  0  0  0  0  0  0  0
   -5.2830   22.2560  -31.7770 C   0  0  0  0  0  0  0  0  0  0  0  0
   -4.8860   20.7760  -32.6460 S   0  0  0  0  0  0  0  0  0  0  0  0
   -4.1380   19.8730  -31.7010 O   0  0  0  0  0  0  0  0  0  0  0  0
   -3.9960   21.0830  -33.8150 O   0  0  0  0  0  0  0  0  0  0  0  0
   -6.3620   19.9970  -33.1840 N   0  0  0  0  0  0  0  0  0  0  0  0
   -7.1400   19.4810  -32.0340 C   0  0  0  0  0  0  0  0  0  0  0  0
   -6.5230   18.2110  -31.4110 C   0  0  0  0  0  0  0  0  0  0  0  0
   -5.9870   17.2230  -32.4620 C   0  0  0  0  0  0  0  0  0  0  0  0
   -6.4920   17.5540  -33.8620 C   0  0  0  0  0  0  0  0  0  0  0  0
   -6.0880   18.9880  -34.2470 C   0  0  0  0  0  0  0  0  0  0  0  0
   -4.2450   23.0410  -31.2560 C   0  0  0  0  0  0  0  0  0  0  0  0
   -2.1220   22.9270  -28.9660 C   0  0  0  0  0  0  0  0  0  0  0  0
   -2.5820   22.1930  -27.8630 C   0  0  0  0  0  0  0  0  0  0  0  0
   -2.4490   20.7990  -27.8430 C   0  0  0  0  0  0  0  0  0  0  0  0
   -1.8600   20.1340  -28.9230 C   0  0  0  0  0  0  0  0  0  0  0  0
   -1.3880   20.8620  -30.0260 C   0  0  0  0  0  0  0  0  0  0  0  0
   -0.6540   20.0180  -31.3930 S   0  0  0  0  0  0  0  0  0  0  0  0
   -0.6520   18.5420  -31.1070 O   0  0  0  0  0  0  0  0  0  0  0  0
    0.7730   20.4590  -31.5500 O   0  0  0  0  0  0  0  0  0  0  0  0
   -1.5200   20.3020  -32.8910 N   0  0  0  0  0  0  0  0  0  0  0  0
   -1.0810   21.5490  -33.5230 C   0  0  0  0  0  0  0  0  0  0  0  0
   -0.0580   21.2050  -34.5920 C   0  0  0  0  0  0  0  0  0  0  0  0
   -0.2130   19.7180  -34.8530 C   0  0  0  0  0  0  0  0  0  0  0  0
   -1.2700   19.2350  -33.8690 C   0  0  0  0  0  0  0  0  0  0  0  0
   -1.5060   22.2610  -30.0360 C   0  0  0  0  0  0  0  0  0  0  0  0
   -6.0882   25.6769  -30.0736 H   0  0  0  0  0  0  0  0  0  0  0  0
   -7.9396   24.2402  -30.9315 H   0  0  0  0  0  0  0  0  0  0  0  0
   -7.4281   22.0602  -32.0413 H   0  0  0  0  0  0  0  0  0  0  0  0
   -6.9440   20.7550  -33.6120 H   0  0  0  0  0  0  0  0  0  0  0  0
   -7.1859   20.2635  -31.2622 H   0  0  0  0  0  0  0  0  0  0  0  0
   -8.1398   19.2130  -32.4063 H   0  0  0  0  0  0  0  0  0  0  0  0
   -5.6916   18.5107  -30.7560 H   0  0  0  0  0  0  0  0  0  0  0  0
   -7.3209   17.6975  -30.8545 H   0  0  0  0  0  0  0  0  0  0  0  0
   -4.8878   17.2644  -32.4613 H   0  0  0  0  0  0  0  0  0  0  0  0
   -6.3457   16.2170  -32.1988 H   0  0  0  0  0  0  0  0  0  0  0  0
   -6.0546   16.8473  -34.5826 H   0  0  0  0  0  0  0  0  0  0  0  0
   -7.5890   17.4739  -33.8763 H   0  0  0  0  0  0  0  0  0  0  0  0
   -5.0098   18.9978  -34.4647 H   0  0  0  0  0  0  0  0  0  0  0  0
   -6.6965   19.2687  -35.1193 H   0  0  0  0  0  0  0  0  0  0  0  0
   -3.2045   22.6933  -31.3358 H   0  0  0  0  0  0  0  0  0  0  0  0
   -3.0477   22.7128  -27.0127 H   0  0  0  0  0  0  0  0  0  0  0  0
   -2.8087   20.2259  -26.9757 H   0  0  0  0  0  0  0  0  0  0  0  0
   -1.7665   19.0381  -28.9079 H   0  0  0  0  0  0  0  0  0  0  0  0
   -1.9421   22.0573  -33.9815 H   0  0  0  0  0  0  0  0  0  0  0  0
   -0.6358   22.2189  -32.7727 H   0  0  0  0  0  0  0  0  0  0  0  0
   -0.2568   21.7774  -35.5101 H   0  0  0  0  0  0  0  0  0  0  0  0
    0.9635   21.4539  -34.2685 H   0  0  0  0  0  0  0  0  0  0  0  0
   -0.5433   19.5425  -35.8875 H   0  0  0  0  0  0  0  0  0  0  0  0
    0.7384   19.1815  -34.7226 H   0  0  0  0  0  0  0  0  0  0  0  0
   -2.1997   19.0011  -34.4085 H   0  0  0  0  0  0  0  0  0  0  0  0
   -0.9194   18.3279  -33.3551 H   0  0  0  0  0  0  0  0  0  0  0  0
   -1.1136   22.8375  -30.8867 H   0  0  0  0  0  0  0  0  0  0  0  0
  1  2  2  0
  2  3  2  0
  2  4  1  0
  4  5  1  0
  5  6  2  0
  6  7  1  0
  7  8  2  0
  8  9  1  0
  9 10  1  0
 10 11  2  0
 10 12  2  0
 10 13  1  0
 13 14  1  0
 14 15  1  0
 15 16  1  0
 16 17  1  0
 17 18  1  0
  9 19  2  0
  2 20  1  0
 20 21  2  0
 21 22  1  0
 22 23  2  0
 23 24  1  0
 24 25  1  0
 25 26  2  0
 25 27  2  0
 25 28  1  0
 28 29  1  0
 29 30  1  0
 30 31  1  0
 31 32  1  0
 24 33  2  0
 19  5  1  0
 33 20  1  0
 18 13  1  0
 32 28  1  0
  6 34  1  0
  7 35  1  0
  8 36  1  0
 13 37  1  0
 14 38  1  0
 14 39  1  0
 15 40  1  0
 15 41  1  0
 16 42  1  0
 16 43  1  0
 17 44  1  0
 17 45  1  0
 18 46  1  0
 18 47  1  0
 19 48  1  0
 21 49  1  0
 22 50  1  0
 23 51  1  0
 29 52  1  0
 29 53  1  0
 30 54  1  0
 30 55  1  0
 31 56  1  0
 31 57  1  0
 32 58  1  0
 32 59  1  0
 33 60  1  0
M  CHG  2   4  -1  13   1
M  END
>  <UniqueID>  (38) 
37

>  <SMILES>  (38) 
O=S(=O)([N-]c1cccc(S(=O)(=O)[NH+]2CCCCC2)c1)c1cccc(S(=O)(=O)N2CCCC2)c1

>  <Energy>  (38) 
74.73468828284199

>  <Genealogy>  (38) 
O=S(=O)([N-]c1cccc(S(=O)(=O)[NH+]2CCCCC2)c1)c1cccc(S(=O)(=O)N2CCCC2)c1 (protonated)
O=S(=O)([N-]c1cccc(S(=O)(=O)[NH+]2CCCCC2)c1)c1cccc(S(=O)(=O)N2CCCC2)c1 (3D coordinates assigned)
O=S(=O)([N-]c1cccc(S(=O)(=O)[NH+]2CCCCC2)c1)c1cccc(S(=O)(=O)N2CCCC2)c1 (nonaromatic ring conformer: 74.73468828284199 kcal/mol)

>  <smiles>  (38) 
O=S(=O)(Nc1cccc(S(=O)(=O)N2CCCCC2)c1)c1cccc(S(=O)(=O)N2CCCC2)c1

>  <score_type>  (38) 
oracle

>  <origin>  (38) 
adgpu

>  <m_score__min__energy>  (38) 
-12.6

>  <m_primary>  (38) 
energy

$$$$
38:0
     RDKit          3D

 63 66  0  0  0  0  0  0  0  0999 V2000
   -9.3070   18.1810  -31.5710 C   0  0  0  0  0  0  0  0  0  0  0  0
   -8.5650   18.7060  -32.6700 O   0  0  0  0  0  0  0  0  0  0  0  0
   -7.3500   19.4040  -32.5670 C   0  0  0  0  0  0  0  0  0  0  0  0
   -7.3400   20.7900  -32.3000 C   0  0  0  0  0  0  0  0  0  0  0  0
   -6.1370   21.4950  -32.2260 C   0  0  0  0  0  0  0  0  0  0  0  0
   -4.9220   20.8290  -32.3770 C   0  0  0  0  0  0  0  0  0  0  0  0
   -3.3950   21.7190  -32.3960 S   0  0  0  0  0  0  0  0  0  0  0  0
   -2.2570   20.8050  -32.0330 O   0  0  0  0  0  0  0  0  0  0  0  0
   -3.1410   22.2800  -33.7740 O   0  0  0  0  0  0  0  0  0  0  0  0
   -3.4920   22.9920  -31.2170 N   0  0  0  0  0  0  0  0  0  0  0  0
   -2.8420   22.8800  -29.9470 C   0  0  0  0  0  0  0  0  0  0  0  0
   -2.4800   21.6230  -29.4400 C   0  0  0  0  0  0  0  0  0  0  0  0
   -1.7760   21.5190  -28.2310 C   0  0  0  0  0  0  0  0  0  0  0  0
   -1.3990   20.1920  -27.7100 C   0  0  0  0  0  0  0  0  0  0  0  0
   -2.0020   19.7380  -26.6990 O   0  0  0  0  0  0  0  0  0  0  0  0
   -0.3620   19.4130  -28.3430 N   0  0  0  0  0  0  0  0  0  0  0  0
   -0.2350   19.4340  -29.8080 C   0  0  0  0  0  0  0  0  0  0  0  0
    0.8860   18.5130  -30.3050 C   0  0  0  0  0  0  0  0  0  0  0  0
    0.8200   17.2070  -29.6310 N   0  0  0  0  0  0  0  0  0  0  0  0
    1.1260   15.9800  -30.3310 C   0  0  0  0  0  0  0  0  0  0  0  0
    1.7150   15.9750  -31.7130 C   0  0  0  0  0  0  0  0  0  0  0  0
    0.8780   14.8700  -29.7850 O   0  0  0  0  0  0  0  0  0  0  0  0
    0.5550   17.1410  -28.1840 C   0  0  0  0  0  0  0  0  0  0  0  0
    0.5000   18.5330  -27.5490 C   0  0  0  0  0  0  0  0  0  0  0  0
   -1.4240   22.6840  -27.5360 C   0  0  0  0  0  0  0  0  0  0  0  0
   -1.8120   23.9380  -28.0230 C   0  0  0  0  0  0  0  0  0  0  0  0
   -2.5230   24.0370  -29.2230 C   0  0  0  0  0  0  0  0  0  0  0  0
   -2.8870   25.2880  -29.7070 O   0  0  0  0  0  0  0  0  0  0  0  0
   -4.9160   19.4510  -32.6150 C   0  0  0  0  0  0  0  0  0  0  0  0
   -6.1150   18.7170  -32.7400 C   0  0  0  0  0  0  0  0  0  0  0  0
   -6.0490   17.3010  -33.0700 N   0  0  0  0  0  0  0  0  0  0  0  0
   -5.2610   16.3010  -32.3540 C   0  0  0  0  0  0  0  0  0  0  0  0
   -5.3610   15.0180  -33.1660 C   0  0  0  0  0  0  0  0  0  0  0  0
   -6.5640   15.2060  -34.0840 C   0  0  0  0  0  0  0  0  0  0  0  0
   -6.7390   16.7120  -34.2130 C   0  0  0  0  0  0  0  0  0  0  0  0
   -8.8454   18.5076  -30.6275 H   0  0  0  0  0  0  0  0  0  0  0  0
  -10.3427   18.5484  -31.6189 H   0  0  0  0  0  0  0  0  0  0  0  0
   -9.3052   17.0820  -31.6189 H   0  0  0  0  0  0  0  0  0  0  0  0
   -8.2913   21.3211  -32.1484 H   0  0  0  0  0  0  0  0  0  0  0  0
   -6.1483   22.5804  -32.0478 H   0  0  0  0  0  0  0  0  0  0  0  0
   -2.7502   20.7122  -29.9945 H   0  0  0  0  0  0  0  0  0  0  0  0
   -1.1866   19.1048  -30.2509 H   0  0  0  0  0  0  0  0  0  0  0  0
    0.0129   20.4620  -30.1110 H   0  0  0  0  0  0  0  0  0  0  0  0
    0.7787   18.3658  -31.3898 H   0  0  0  0  0  0  0  0  0  0  0  0
    1.8557   18.9804  -30.0785 H   0  0  0  0  0  0  0  0  0  0  0  0
    2.8128   15.9657  -31.6437 H   0  0  0  0  0  0  0  0  0  0  0  0
    1.3741   15.0797  -32.2536 H   0  0  0  0  0  0  0  0  0  0  0  0
    1.3894   16.8759  -32.2536 H   0  0  0  0  0  0  0  0  0  0  0  0
   -0.4097   16.6379  -28.0218 H   0  0  0  0  0  0  0  0  0  0  0  0
    1.3776   16.5836  -27.7121 H   0  0  0  0  0  0  0  0  0  0  0  0
    0.0969   18.4522  -26.5287 H   0  0  0  0  0  0  0  0  0  0  0  0
    1.5152   18.9554  -27.5169 H   0  0  0  0  0  0  0  0  0  0  0  0
   -0.8415   22.6130  -26.6056 H   0  0  0  0  0  0  0  0  0  0  0  0
   -1.5568   24.8479  -27.4600 H   0  0  0  0  0  0  0  0  0  0  0  0
   -3.9535   18.9264  -32.7070 H   0  0  0  0  0  0  0  0  0  0  0  0
   -4.2122   16.6241  -32.2798 H   0  0  0  0  0  0  0  0  0  0  0  0
   -5.6342   16.1561  -31.3294 H   0  0  0  0  0  0  0  0  0  0  0  0
   -4.4464   14.8660  -33.7580 H   0  0  0  0  0  0  0  0  0  0  0  0
   -5.4764   14.1354  -32.5197 H   0  0  0  0  0  0  0  0  0  0  0  0
   -6.3716   14.7547  -35.0685 H   0  0  0  0  0  0  0  0  0  0  0  0
   -7.4661   14.7212  -33.6825 H   0  0  0  0  0  0  0  0  0  0  0  0
   -6.2928   17.0687  -35.1531 H   0  0  0  0  0  0  0  0  0  0  0  0
   -7.8026   16.9924  -34.2274 H   0  0  0  0  0  0  0  0  0  0  0  0
  1  2  1  0
  2  3  1  0
  3  4  2  0
  4  5  1  0
  5  6  2  0
  6  7  1  0
  7  8  2  0
  7  9  2  0
  7 10  1  0
 10 11  1  0
 11 12  2  0
 12 13  1  0
 13 14  1  0
 14 15  2  0
 14 16  1  0
 16 17  1  0
 17 18  1  0
 18 19  1  0
 19 20  1  0
 20 21  1  0
 20 22  2  0
 19 23  1  0
 23 24  1  0
 13 25  2  0
 25 26  1  0
 26 27  2  0
 27 28  1  0
  6 29  1  0
 29 30  2  0
 30 31  1  0
 31 32  1  0
 32 33  1  0
 33 34  1  0
 34 35  1  0
 30  3  1  0
 35 31  1  0
 27 11  1  0
 24 16  1  0
  1 36  1  0
  1 37  1  0
  1 38  1  0
  4 39  1  0
  5 40  1  0
 12 41  1  0
 17 42  1  0
 17 43  1  0
 18 44  1  0
 18 45  1  0
 21 46  1  0
 21 47  1  0
 21 48  1  0
 23 49  1  0
 23 50  1  0
 24 51  1  0
 24 52  1  0
 25 53  1  0
 26 54  1  0
 29 55  1  0
 32 56  1  0
 32 57  1  0
 33 58  1  0
 33 59  1  0
 34 60  1  0
 34 61  1  0
 35 62  1  0
 35 63  1  0
M  CHG  2  10  -1  28  -1
M  END
>  <UniqueID>  (39) 
38

>  <SMILES>  (39) 
COc1ccc(S(=O)(=O)[N-]c2cc(C(=O)N3CCN(C(C)=O)CC3)ccc2[O-])cc1N1CCCC1

>  <Energy>  (39) 
81.0991017357342

>  <Genealogy>  (39) 
COc1ccc(S(=O)(=O)[N-]c2cc(C(=O)N3CCN(C(C)=O)CC3)ccc2[O-])cc1N1CCCC1 (protonated)
COc1ccc(S(=O)(=O)[N-]c2cc(C(=O)N3CCN(C(C)=O)CC3)ccc2[O-])cc1N1CCCC1 (3D coordinates assigned)
COc1ccc(S(=O)(=O)[N-]c2cc(C(=O)N3CCN(C(C)=O)CC3)ccc2[O-])cc1N1CCCC1 (nonaromatic ring conformer: 81.0991017357342 kcal/mol)

>  <smiles>  (39) 
COc1ccc(S(=O)(=O)Nc2cc(C(=O)N3CCN(C(C)=O)CC3)ccc2O)cc1N1CCCC1

>  <score_type>  (39) 
oracle

>  <origin>  (39) 
adgpu

>  <m_score__min__energy>  (39) 
-14.390000000000001

>  <m_primary>  (39) 
energy

$$$$
39:0
     RDKit          3D

 50 53  0  0  0  0  0  0  0  0999 V2000
   -0.7920   19.4550  -29.3330 C   0  0  0  0  0  0  0  0  0  0  0  0
   -1.4620   19.8100  -28.0690 N   0  0  0  0  0  0  0  0  0  0  0  0
   -0.5350   20.3860  -27.0740 C   0  0  0  0  0  0  0  0  0  0  0  0
    0.0430   21.7390  -27.5190 C   0  0  0  0  0  0  0  0  0  0  0  0
   -0.9920   22.6320  -28.1510 C   0  0  0  0  0  0  0  0  0  0  0  0
   -0.6770   23.9750  -28.4030 C   0  0  0  0  0  0  0  0  0  0  0  0
   -1.5780   24.8030  -29.0790 C   0  0  0  0  0  0  0  0  0  0  0  0
   -1.2340   26.1250  -29.3350 O   0  0  0  0  0  0  0  0  0  0  0  0
   -2.8110   24.2990  -29.5120 C   0  0  0  0  0  0  0  0  0  0  0  0
   -3.6860   25.1500  -30.2660 N   0  0  0  0  0  0  0  0  0  0  0  0
   -5.3890   24.8780  -30.4610 S   0  0  0  0  0  0  0  0  0  0  0  0
   -5.9630   25.9340  -31.3640 O   0  0  0  0  0  0  0  0  0  0  0  0
   -6.0560   24.9610  -29.1170 O   0  0  0  0  0  0  0  0  0  0  0  0
   -5.6480   23.2970  -31.1940 C   0  0  0  0  0  0  0  0  0  0  0  0
   -4.7460   22.8240  -32.1540 C   0  0  0  0  0  0  0  0  0  0  0  0
   -4.8650   21.5240  -32.6520 C   0  0  0  0  0  0  0  0  0  0  0  0
   -5.8970   20.6850  -32.2010 C   0  0  0  0  0  0  0  0  0  0  0  0
   -5.9810   19.2840  -32.6740 C   0  0  0  0  0  0  0  0  0  0  0  0
   -4.7900   18.6260  -33.0270 C   0  0  0  0  0  0  0  0  0  0  0  0
   -4.8220   17.3400  -33.5660 C   0  0  0  0  0  0  0  0  0  0  0  0
   -6.0410   16.6940  -33.7610 C   0  0  0  0  0  0  0  0  0  0  0  0
   -7.2340   17.3270  -33.4070 C   0  0  0  0  0  0  0  0  0  0  0  0
   -7.2230   18.6170  -32.8470 C   0  0  0  0  0  0  0  0  0  0  0  0
   -8.4700   19.2100  -32.4350 N   0  0  0  0  0  0  0  0  0  0  0  0
   -8.9830   20.1350  -33.0980 O   0  0  0  0  0  0  0  0  0  0  0  0
   -9.0180   18.8860  -31.2160 O   0  0  0  0  0  0  0  0  0  0  0  0
   -6.8090   21.1670  -31.2500 C   0  0  0  0  0  0  0  0  0  0  0  0
   -6.6890   22.4680  -30.7530 C   0  0  0  0  0  0  0  0  0  0  0  0
   -3.1460   22.9650  -29.2240 C   0  0  0  0  0  0  0  0  0  0  0  0
   -2.2320   22.1200  -28.5820 C   0  0  0  0  0  0  0  0  0  0  0  0
   -2.6260   20.6900  -28.2890 C   0  0  0  0  0  0  0  0  0  0  0  0
    0.1605   18.9503  -29.1139 H   0  0  0  0  0  0  0  0  0  0  0  0
   -1.4388   18.7813  -29.9142 H   0  0  0  0  0  0  0  0  0  0  0  0
   -0.5978   20.3685  -29.9142 H   0  0  0  0  0  0  0  0  0  0  0  0
   -1.0777   20.5287  -26.1279 H   0  0  0  0  0  0  0  0  0  0  0  0
    0.3058   19.6864  -26.9576 H   0  0  0  0  0  0  0  0  0  0  0  0
    0.4595   22.2507  -26.6388 H   0  0  0  0  0  0  0  0  0  0  0  0
    0.8160   21.5382  -28.2754 H   0  0  0  0  0  0  0  0  0  0  0  0
    0.2881   24.3808  -28.0656 H   0  0  0  0  0  0  0  0  0  0  0  0
   -3.9402   23.4784  -32.5179 H   0  0  0  0  0  0  0  0  0  0  0  0
   -4.1475   21.1562  -33.4003 H   0  0  0  0  0  0  0  0  0  0  0  0
   -3.8239   19.1300  -32.8767 H   0  0  0  0  0  0  0  0  0  0  0  0
   -3.8833   16.8349  -33.8376 H   0  0  0  0  0  0  0  0  0  0  0  0
   -6.0635   15.6833  -34.1947 H   0  0  0  0  0  0  0  0  0  0  0  0
   -8.1923   16.8115  -33.5677 H   0  0  0  0  0  0  0  0  0  0  0  0
   -7.6225   20.5179  -30.8937 H   0  0  0  0  0  0  0  0  0  0  0  0
   -7.4130   22.8422  -30.0142 H   0  0  0  0  0  0  0  0  0  0  0  0
   -4.1372   22.5801  -29.5059 H   0  0  0  0  0  0  0  0  0  0  0  0
   -3.2528   20.6763  -27.3852 H   0  0  0  0  0  0  0  0  0  0  0  0
   -3.1680   20.3091  -29.1672 H   0  0  0  0  0  0  0  0  0  0  0  0
  1  2  1  0
  2  3  1  0
  3  4  1  0
  4  5  1  0
  5  6  2  0
  6  7  1  0
  7  8  1  0
  7  9  2  0
  9 10  1  0
 10 11  1  0
 11 12  2  0
 11 13  2  0
 11 14  1  0
 14 15  2  0
 15 16  1  0
 16 17  2  0
 17 18  1  0
 18 19  2  0
 19 20  1  0
 20 21  2  0
 21 22  1  0
 22 23  2  0
 23 24  1  0
 24 25  2  0
 24 26  1  0
 17 27  1  0
 27 28  2  0
  9 29  1  0
 29 30  2  0
 30 31  1  0
 31  2  1  0
 30  5  1  0
 28 14  1  0
 23 18  1  0
  1 32  1  0
  1 33  1  0
  1 34  1  0
  3 35  1  0
  3 36  1  0
  4 37  1  0
  4 38  1  0
  6 39  1  0
 15 40  1  0
 16 41  1  0
 19 42  1  0
 20 43  1  0
 21 44  1  0
 22 45  1  0
 27 46  1  0
 28 47  1  0
 29 48  1  0
 31 49  1  0
 31 50  1  0
M  CHG  4   8  -1  10  -1  24   1  26  -1
M  END
>  <UniqueID>  (40) 
39

>  <SMILES>  (40) 
CN1CCc2cc([O-])c([N-]S(=O)(=O)c3ccc(-c4ccccc4[N+](=O)[O-])cc3)cc2C1

>  <Energy>  (40) 
72.61114867102009

>  <Genealogy>  (40) 
CN1CCc2cc([O-])c([N-]S(=O)(=O)c3ccc(-c4ccccc4[N+](=O)[O-])cc3)cc2C1 (protonated)
CN1CCc2cc([O-])c([N-]S(=O)(=O)c3ccc(-c4ccccc4[N+](=O)[O-])cc3)cc2C1 (3D coordinates assigned)
CN1CCc2cc([O-])c([N-]S(=O)(=O)c3ccc(-c4ccccc4[N+](=O)[O-])cc3)cc2C1 (nonaromatic ring conformer: 72.61114867102009 kcal/mol)

>  <smiles>  (40) 
CN1CCc2cc(O)c(NS(=O)(=O)c3ccc(-c4ccccc4[N+](=O)[O-])cc3)cc2C1

>  <score_type>  (40) 
oracle

>  <origin>  (40) 
adgpu

>  <m_score__min__energy>  (40) 
-15.130000000000001

>  <m_primary>  (40) 
energy

$$$$
40:0
     RDKit          3D

 50 52  0  0  0  0  0  0  0  0999 V2000
   -4.7330   18.3050  -33.7140 C   0  0  0  0  0  0  0  0  0  0  0  0
   -6.0250   17.4310  -32.8510 S   0  0  0  0  0  0  0  0  0  0  0  0
   -6.8850   16.7050  -33.8500 O   0  0  0  0  0  0  0  0  0  0  0  0
   -5.3850   16.4270  -31.9340 O   0  0  0  0  0  0  0  0  0  0  0  0
   -6.9960   18.5480  -31.9240 N   0  0  1  0  0  0  0  0  0  0  0  0
   -6.2780   19.7960  -31.7590 C   0  0  0  0  0  0  0  0  0  0  0  0
   -6.8980   20.9890  -31.6330 C   0  0  0  0  0  0  0  0  0  0  0  0
   -6.1110   22.2100  -31.3080 C   0  0  0  0  0  0  0  0  0  0  0  0
   -6.5650   23.4800  -31.7050 C   0  0  0  0  0  0  0  0  0  0  0  0
   -5.8130   24.6200  -31.4200 C   0  0  0  0  0  0  0  0  0  0  0  0
   -4.5930   24.5140  -30.7490 C   0  0  0  0  0  0  0  0  0  0  0  0
   -3.8700   25.6700  -30.4800 O   0  0  0  0  0  0  0  0  0  0  0  0
   -4.1120   23.2490  -30.3590 C   0  0  0  0  0  0  0  0  0  0  0  0
   -2.5460   23.0610  -29.5490 S   0  0  0  0  0  0  0  0  0  0  0  0
   -1.9620   24.4240  -29.2960 O   0  0  0  0  0  0  0  0  0  0  0  0
   -1.5940   22.3150  -30.4400 O   0  0  0  0  0  0  0  0  0  0  0  0
   -2.7020   22.2000  -28.0330 N   0  0  0  0  0  0  0  0  0  0  0  0
   -1.5500   22.4560  -27.1340 C   0  0  0  0  0  0  0  0  0  0  0  0
   -0.5330   21.3060  -27.1280 C   0  0  0  0  0  0  0  0  0  0  0  0
   -1.1880   19.9880  -26.6800 C   0  0  0  0  0  0  0  0  0  0  0  0
   -2.6840   19.9160  -27.0390 C   0  0  0  0  0  0  0  0  0  0  0  0
   -2.9950   20.7690  -28.2730 C   0  0  0  0  0  0  0  0  0  0  0  0
   -4.8820   22.1080  -30.6320 C   0  0  0  0  0  0  0  0  0  0  0  0
   -8.3760   21.1280  -31.9320 C   0  0  0  0  0  0  0  0  0  0  0  0
   -9.1150   19.7950  -31.8480 C   0  0  0  0  0  0  0  0  0  0  0  0
   -8.3070   18.7230  -32.5760 C   0  0  0  0  0  0  0  0  0  0  0  0
   -4.0514   18.7661  -32.9840 H   0  0  0  0  0  0  0  0  0  0  0  0
   -4.1719   17.6002  -34.3452 H   0  0  0  0  0  0  0  0  0  0  0  0
   -5.1784   19.0880  -34.3452 H   0  0  0  0  0  0  0  0  0  0  0  0
   -7.1390   18.1300  -30.9750 H   0  0  0  0  0  0  0  0  0  0  0  0
   -5.1786   19.7703  -31.7353 H   0  0  0  0  0  0  0  0  0  0  0  0
   -7.5193   23.5754  -32.2438 H   0  0  0  0  0  0  0  0  0  0  0  0
   -6.1838   25.6094  -31.7260 H   0  0  0  0  0  0  0  0  0  0  0  0
   -1.0416   23.3730  -27.4666 H   0  0  0  0  0  0  0  0  0  0  0  0
   -1.9435   22.5555  -26.1116 H   0  0  0  0  0  0  0  0  0  0  0  0
   -0.1286   21.1791  -28.1431 H   0  0  0  0  0  0  0  0  0  0  0  0
    0.2706   21.5547  -26.4193 H   0  0  0  0  0  0  0  0  0  0  0  0
   -0.6678   19.1520  -27.1703 H   0  0  0  0  0  0  0  0  0  0  0  0
   -1.1060   19.9316  -25.5845 H   0  0  0  0  0  0  0  0  0  0  0  0
   -2.9538   18.8702  -27.2475 H   0  0  0  0  0  0  0  0  0  0  0  0
   -3.2668   20.3029  -26.1901 H   0  0  0  0  0  0  0  0  0  0  0  0
   -2.3822   20.4153  -29.1153 H   0  0  0  0  0  0  0  0  0  0  0  0
   -4.0670   20.6700  -28.4989 H   0  0  0  0  0  0  0  0  0  0  0  0
   -4.5192   21.1199  -30.3127 H   0  0  0  0  0  0  0  0  0  0  0  0
   -8.8195   21.8241  -31.2049 H   0  0  0  0  0  0  0  0  0  0  0  0
   -8.4760   21.5024  -32.9615 H   0  0  0  0  0  0  0  0  0  0  0  0
   -9.2382   19.5091  -30.7930 H   0  0  0  0  0  0  0  0  0  0  0  0
  -10.1050   19.8924  -32.3175 H   0  0  0  0  0  0  0  0  0  0  0  0
   -8.8573   17.7709  -32.5484 H   0  0  0  0  0  0  0  0  0  0  0  0
   -8.1519   19.0349  -33.6194 H   0  0  0  0  0  0  0  0  0  0  0  0
  1  2  1  0
  2  3  2  0
  2  4  2  0
  2  5  1  0
  5  6  1  0
  6  7  2  0
  7  8  1  0
  8  9  2  0
  9 10  1  0
 10 11  2  0
 11 12  1  0
 11 13  1  0
 13 14  1  0
 14 15  2  0
 14 16  2  0
 14 17  1  0
 17 18  1  0
 18 19  1  0
 19 20  1  0
 20 21  1  0
 21 22  1  0
 13 23  2  0
  7 24  1  0
 24 25  1  0
 25 26  1  0
 26  5  1  0
 23  8  1  0
 22 17  1  0
  1 27  1  0
  1 28  1  0
  1 29  1  0
  5 30  1  1
  6 31  1  0
  9 32  1  0
 10 33  1  0
 18 34  1  0
 18 35  1  0
 19 36  1  0
 19 37  1  0
 20 38  1  0
 20 39  1  0
 21 40  1  0
 21 41  1  0
 22 42  1  0
 22 43  1  0
 23 44  1  0
 24 45  1  0
 24 46  1  0
 25 47  1  0
 25 48  1  0
 26 49  1  0
 26 50  1  0
M  CHG  2   5   1  12  -1
M  END
>  <UniqueID>  (41) 
40

>  <SMILES>  (41) 
CS(=O)(=O)[N@H+]1C=C(c2ccc([O-])c(S(=O)(=O)N3CCCCC3)c2)CCC1

>  <Energy>  (41) 
56.85604952710769

>  <Genealogy>  (41) 
CS(=O)(=O)[NH+]1C=C(c2ccc([O-])c(S(=O)(=O)N3CCCCC3)c2)CCC1 (protonated)
CS(=O)(=O)[N@H+]1C=C(c2ccc([O-])c(S(=O)(=O)N3CCCCC3)c2)CCC1 (chirality)
CS(=O)(=O)[N@H+]1C=C(c2ccc([O-])c(S(=O)(=O)N3CCCCC3)c2)CCC1 (3D coordinates assigned)
CS(=O)(=O)[N@H+]1C=C(c2ccc([O-])c(S(=O)(=O)N3CCCCC3)c2)CCC1 (nonaromatic ring conformer: 56.85604952710769 kcal/mol)

>  <smiles>  (41) 
CS(=O)(=O)N1C=C(c2ccc(O)c(S(=O)(=O)N3CCCCC3)c2)CCC1

>  <score_type>  (41) 
oracle

>  <origin>  (41) 
adgpu

>  <m_score__min__energy>  (41) 
-12.81

>  <m_primary>  (41) 
energy

$$$$
41:0
     RDKit          3D

 52 55  0  0  0  0  0  0  0  0999 V2000
   -8.0480   23.2110  -31.9540 C   0  0  0  0  0  0  0  0  0  0  0  0
   -8.6270   21.8010  -31.9280 C   0  0  0  0  0  0  0  0  0  0  0  0
   -7.5730   20.7890  -32.2650 C   0  0  0  0  0  0  0  0  0  0  0  0
   -6.7180   20.2870  -31.2750 C   0  0  0  0  0  0  0  0  0  0  0  0
   -5.7240   19.3720  -31.6250 C   0  0  0  0  0  0  0  0  0  0  0  0
   -5.5760   18.9700  -32.9610 C   0  0  0  0  0  0  0  0  0  0  0  0
   -4.5230   17.9970  -33.3440 C   0  0  0  0  0  0  0  0  0  0  0  0
   -4.7740   16.6200  -33.2130 C   0  0  0  0  0  0  0  0  0  0  0  0
   -3.8040   15.6730  -33.5810 C   0  0  0  0  0  0  0  0  0  0  0  0
   -4.0690   14.1990  -33.3970 C   0  0  0  0  0  0  0  0  0  0  0  0
   -5.2940   13.8530  -33.9410 F   0  0  0  0  0  0  0  0  0  0  0  0
   -4.0770   13.9040  -32.0460 F   0  0  0  0  0  0  0  0  0  0  0  0
   -3.0910   13.4420  -34.0180 F   0  0  0  0  0  0  0  0  0  0  0  0
   -2.5560   16.1190  -34.0410 C   0  0  0  0  0  0  0  0  0  0  0  0
   -2.2940   17.4840  -34.1650 C   0  0  0  0  0  0  0  0  0  0  0  0
   -3.2660   18.4340  -33.8080 C   0  0  0  0  0  0  0  0  0  0  0  0
   -3.0070   19.8110  -33.9070 O   0  0  0  0  0  0  0  0  0  0  0  0
   -2.6310   20.6370  -32.8380 C   0  0  0  0  0  0  0  0  0  0  0  0
   -3.5660   21.5490  -32.3370 C   0  0  0  0  0  0  0  0  0  0  0  0
   -3.2360   22.3910  -31.2730 C   0  0  0  0  0  0  0  0  0  0  0  0
   -1.9670   22.3170  -30.6860 C   0  0  0  0  0  0  0  0  0  0  0  0
   -1.5510   23.3650  -29.3320 S   0  0  0  0  0  0  0  0  0  0  0  0
   -0.0820   23.6820  -29.3410 O   0  0  0  0  0  0  0  0  0  0  0  0
   -1.8960   22.6660  -28.0490 O   0  0  0  0  0  0  0  0  0  0  0  0
   -2.4470   24.8460  -29.4320 N   0  0  0  0  0  0  0  0  0  0  0  0
   -3.8430   24.9170  -29.7380 C   0  0  0  0  0  0  0  0  0  0  0  0
   -4.8380   24.2870  -28.9920 C   0  0  0  0  0  0  0  0  0  0  0  0
   -6.3110   24.6510  -29.7120 S   0  0  0  0  0  0  0  0  0  0  0  0
   -5.6300   25.5840  -30.9310 C   0  0  0  0  0  0  0  0  0  0  0  0
   -4.2860   25.6290  -30.8080 N   0  0  0  0  0  0  0  0  0  0  0  0
   -1.0310   21.3940  -31.1690 C   0  0  0  0  0  0  0  0  0  0  0  0
   -1.3570   20.5460  -32.2350 C   0  0  0  0  0  0  0  0  0  0  0  0
   -0.4000   19.5520  -32.6570 C   0  0  0  0  0  0  0  0  0  0  0  0
    0.3670   18.7550  -32.9950 N   0  0  0  0  0  0  0  0  0  0  0  0
   -6.4520   19.5000  -33.9220 C   0  0  0  0  0  0  0  0  0  0  0  0
   -7.4130   20.3900  -33.5560 N   0  0  0  0  0  0  0  0  0  0  0  0
   -7.9020   23.5665  -30.9233 H   0  0  0  0  0  0  0  0  0  0  0  0
   -7.0813   23.2008  -32.4787 H   0  0  0  0  0  0  0  0  0  0  0  0
   -8.7429   23.8831  -32.4787 H   0  0  0  0  0  0  0  0  0  0  0  0
   -9.0210   21.5909  -30.9227 H   0  0  0  0  0  0  0  0  0  0  0  0
   -9.4320   21.7354  -32.6748 H   0  0  0  0  0  0  0  0  0  0  0  0
   -6.8293   20.6116  -30.2299 H   0  0  0  0  0  0  0  0  0  0  0  0
   -5.0554   18.9653  -30.8520 H   0  0  0  0  0  0  0  0  0  0  0  0
   -5.7423   16.2798  -32.8173 H   0  0  0  0  0  0  0  0  0  0  0  0
   -1.7784   15.3875  -34.3058 H   0  0  0  0  0  0  0  0  0  0  0  0
   -1.3179   17.8193  -34.5456 H   0  0  0  0  0  0  0  0  0  0  0  0
   -4.5693   21.6033  -32.7848 H   0  0  0  0  0  0  0  0  0  0  0  0
   -3.9743   23.1137  -30.8954 H   0  0  0  0  0  0  0  0  0  0  0  0
   -4.6863   23.6660  -28.0968 H   0  0  0  0  0  0  0  0  0  0  0  0
   -6.2016   26.0902  -31.7228 H   0  0  0  0  0  0  0  0  0  0  0  0
   -0.0338   21.3347  -30.7084 H   0  0  0  0  0  0  0  0  0  0  0  0
   -6.3606   19.1942  -34.9747 H   0  0  0  0  0  0  0  0  0  0  0  0
  1  2  1  0
  2  3  1  0
  3  4  2  0
  4  5  1  0
  5  6  2  0
  6  7  1  0
  7  8  2  0
  8  9  1  0
  9 10  1  0
 10 11  1  0
 10 12  1  0
 10 13  1  0
  9 14  2  0
 14 15  1  0
 15 16  2  0
 16 17  1  0
 17 18  1  0
 18 19  2  0
 19 20  1  0
 20 21  2  0
 21 22  1  0
 22 23  2  0
 22 24  2  0
 22 25  1  0
 25 26  1  0
 26 27  2  0
 27 28  1  0
 28 29  1  0
 29 30  2  0
 21 31  1  0
 31 32  2  0
 32 33  1  0
 33 34  3  0
  6 35  1  0
 35 36  2  0
 36  3  1  0
 16  7  1  0
 32 18  1  0
 30 26  1  0
  1 37  1  0
  1 38  1  0
  1 39  1  0
  2 40  1  0
  2 41  1  0
  4 42  1  0
  5 43  1  0
  8 44  1  0
 14 45  1  0
 15 46  1  0
 19 47  1  0
 20 48  1  0
 27 49  1  0
 29 50  1  0
 31 51  1  0
 35 52  1  0
M  CHG  1  25  -1
M  END
>  <UniqueID>  (42) 
41

>  <SMILES>  (42) 
CCc1ccc(-c2cc(C(F)(F)F)ccc2Oc2ccc(S(=O)(=O)[N-]c3cscn3)cc2C#N)cn1

>  <Energy>  (42) 
99.22974830193455

>  <Genealogy>  (42) 
CCc1ccc(-c2cc(C(F)(F)F)ccc2Oc2ccc(S(=O)(=O)[N-]c3cscn3)cc2C#N)cn1 (protonated)
CCc1ccc(-c2cc(C(F)(F)F)ccc2Oc2ccc(S(=O)(=O)[N-]c3cscn3)cc2C#N)cn1 (3D coordinates assigned)
CCc1ccc(-c2cc(C(F)(F)F)ccc2Oc2ccc(S(=O)(=O)[N-]c3cscn3)cc2C#N)cn1 (optimized conformer: 99.22974830193455 kcal/mol)

>  <smiles>  (42) 
CCc1ccc(-c2cc(C(F)(F)F)ccc2Oc2ccc(S(=O)(=O)Nc3cscn3)cc2C#N)cn1

>  <score_type>  (42) 
oracle

>  <origin>  (42) 
adgpu

>  <m_score__min__energy>  (42) 
-11.460000000000001

>  <m_primary>  (42) 
energy

$$$$
42:0
     RDKit          3D

 39 41  0  0  0  0  0  0  0  0999 V2000
   -4.0150   23.6330  -27.4880 O   0  0  0  0  0  0  0  0  0  0  0  0
   -3.2240   24.4060  -28.0980 C   0  0  0  0  0  0  0  0  0  0  0  0
   -3.4830   24.7400  -29.4700 N   0  0  0  0  0  0  0  0  0  0  0  0
   -4.3780   23.9850  -30.3030 C   0  0  0  0  0  0  0  0  0  0  0  0
   -5.4910   24.6360  -30.8580 C   0  0  0  0  0  0  0  0  0  0  0  0
   -6.3990   23.9370  -31.6550 C   0  0  0  0  0  0  0  0  0  0  0  0
   -6.1980   22.5830  -31.9210 C   0  0  0  0  0  0  0  0  0  0  0  0
   -5.0830   21.9260  -31.4000 C   0  0  0  0  0  0  0  0  0  0  0  0
   -4.1570   22.6150  -30.5970 C   0  0  0  0  0  0  0  0  0  0  0  0
   -2.9760   21.9340  -30.1370 N   0  0  0  0  0  0  0  0  0  0  0  0
   -3.1030   20.8590  -29.1450 C   0  0  0  0  0  0  0  0  0  0  0  0
   -1.7270   20.4400  -28.6230 C   0  0  0  0  0  0  0  0  0  0  0  0
   -0.8620   21.5560  -28.6000 O   0  0  0  0  0  0  0  0  0  0  0  0
   -0.4930   21.8970  -29.9240 C   0  0  0  0  0  0  0  0  0  0  0  0
   -1.7080   22.1210  -30.8540 C   0  0  0  0  0  0  0  0  0  0  0  0
   -2.0810   25.0020  -27.3600 C   0  0  0  0  0  0  0  0  0  0  0  0
   -1.9060   24.6930  -25.9970 C   0  0  0  0  0  0  0  0  0  0  0  0
   -0.8410   25.2350  -25.2730 C   0  0  0  0  0  0  0  0  0  0  0  0
    0.0700   26.0860  -25.8990 C   0  0  0  0  0  0  0  0  0  0  0  0
   -0.0790   26.3940  -27.2520 C   0  0  0  0  0  0  0  0  0  0  0  0
   -1.1410   25.8540  -27.9890 C   0  0  0  0  0  0  0  0  0  0  0  0
   -1.2280   26.1530  -29.3430 O   0  0  0  0  0  0  0  0  0  0  0  0
   -3.1930   25.6870  -29.8030 H   0  0  0  0  0  0  0  0  0  0  0  0
   -5.6490   25.7070  -30.6630 H   0  0  0  0  0  0  0  0  0  0  0  0
   -7.2744   24.4550  -32.0739 H   0  0  0  0  0  0  0  0  0  0  0  0
   -6.9195   22.0322  -32.5424 H   0  0  0  0  0  0  0  0  0  0  0  0
   -4.9269   20.8595  -31.6194 H   0  0  0  0  0  0  0  0  0  0  0  0
   -3.7156   21.2147  -28.3034 H   0  0  0  0  0  0  0  0  0  0  0  0
   -3.5794   19.9906  -29.6234 H   0  0  0  0  0  0  0  0  0  0  0  0
   -1.8302   20.0374  -27.6046 H   0  0  0  0  0  0  0  0  0  0  0  0
   -1.3070   19.6695  -29.2863 H   0  0  0  0  0  0  0  0  0  0  0  0
    0.1006   22.8226  -29.8946 H   0  0  0  0  0  0  0  0  0  0  0  0
    0.0811   21.0522  -30.3323 H   0  0  0  0  0  0  0  0  0  0  0  0
   -1.6698   23.1460  -31.2514 H   0  0  0  0  0  0  0  0  0  0  0  0
   -1.6599   21.3833  -31.6685 H   0  0  0  0  0  0  0  0  0  0  0  0
   -2.6157   24.0175  -25.4970 H   0  0  0  0  0  0  0  0  0  0  0  0
   -0.7207   24.9902  -24.2074 H   0  0  0  0  0  0  0  0  0  0  0  0
    0.9058   26.5143  -25.3262 H   0  0  0  0  0  0  0  0  0  0  0  0
    0.6417   27.0647  -27.7426 H   0  0  0  0  0  0  0  0  0  0  0  0
  1  2  2  0
  2  3  1  0
  3  4  1  0
  4  5  2  0
  5  6  1  0
  6  7  2  0
  7  8  1  0
  8  9  2  0
  9 10  1  0
 10 11  1  0
 11 12  1  0
 12 13  1  0
 13 14  1  0
 14 15  1  0
  2 16  1  0
 16 17  2  0
 17 18  1  0
 18 19  2  0
 19 20  1  0
 20 21  2  0
 21 22  1  0
  9  4  1  0
 15 10  1  0
 21 16  1  0
  3 23  1  0
  5 24  1  0
  6 25  1  0
  7 26  1  0
  8 27  1  0
 11 28  1  0
 11 29  1  0
 12 30  1  0
 12 31  1  0
 14 32  1  0
 14 33  1  0
 15 34  1  0
 15 35  1  0
 17 36  1  0
 18 37  1  0
 19 38  1  0
 20 39  1  0
M  CHG  1  22  -1
M  END
>  <UniqueID>  (43) 
42

>  <SMILES>  (43) 
O=C(Nc1ccccc1N1CCOCC1)c1ccccc1[O-]

>  <Energy>  (43) 
58.937022717324645

>  <Genealogy>  (43) 
O=C(Nc1ccccc1N1CCOCC1)c1ccccc1[O-] (protonated)
O=C(Nc1ccccc1N1CCOCC1)c1ccccc1[O-] (3D coordinates assigned)
O=C(Nc1ccccc1N1CCOCC1)c1ccccc1[O-] (nonaromatic ring conformer: 58.937022717324645 kcal/mol)

>  <smiles>  (43) 
O=C(Nc1ccccc1N1CCOCC1)c1ccccc1O

>  <score_type>  (43) 
oracle

>  <origin>  (43) 
adgpu

>  <m_score__min__energy>  (43) 
-10.92

>  <m_primary>  (43) 
energy

$$$$
43:0
     RDKit          3D

 64 67  0  0  0  0  0  0  0  0999 V2000
   -3.9870   16.9830  -33.2690 C   0  0  0  0  0  0  0  0  0  0  0  0
   -5.6950   16.6970  -32.8460 S   0  0  0  0  0  0  0  0  0  0  0  0
   -5.8150   16.5920  -31.3520 O   0  0  0  0  0  0  0  0  0  0  0  0
   -6.1360   15.3960  -33.4570 O   0  0  0  0  0  0  0  0  0  0  0  0
   -6.7260   17.9890  -33.4150 N   0  0  0  0  0  0  0  0  0  0  0  0
   -7.9890   18.0680  -32.6380 C   0  0  0  0  0  0  0  0  0  0  0  0
   -8.0060   19.1930  -31.5900 C   0  0  0  0  0  0  0  0  0  0  0  0
   -7.5830   20.4690  -32.1760 N   0  0  0  0  0  0  0  0  0  0  0  0
   -7.9340   21.7010  -31.5240 C   0  0  0  0  0  0  0  0  0  0  0  0
   -9.1360   21.9040  -31.2010 O   0  0  0  0  0  0  0  0  0  0  0  0
   -6.9060   22.7170  -31.1960 C   0  0  0  0  0  0  0  0  0  0  0  0
   -7.2780   23.9610  -30.6620 C   0  0  0  0  0  0  0  0  0  0  0  0
   -6.3100   24.9260  -30.3740 C   0  0  0  0  0  0  0  0  0  0  0  0
   -4.9580   24.6680  -30.6320 C   0  0  0  0  0  0  0  0  0  0  0  0
   -3.9940   25.6360  -30.3500 O   0  0  0  0  0  0  0  0  0  0  0  0
   -4.5690   23.4380  -31.1790 C   0  0  0  0  0  0  0  0  0  0  0  0
   -3.1780   23.2160  -31.4480 N   0  0  0  0  0  0  0  0  0  0  0  0
   -2.3240   21.7270  -31.1880 S   0  0  0  0  0  0  0  0  0  0  0  0
   -3.1600   20.5850  -31.6950 O   0  0  0  0  0  0  0  0  0  0  0  0
   -1.0030   21.7550  -31.9060 O   0  0  0  0  0  0  0  0  0  0  0  0
   -2.0280   21.5400  -29.4640 C   0  0  0  0  0  0  0  0  0  0  0  0
   -2.5960   20.4610  -28.7740 C   0  0  0  0  0  0  0  0  0  0  0  0
   -2.3720   20.3040  -27.4050 C   0  0  0  0  0  0  0  0  0  0  0  0
   -1.5850   21.2290  -26.7140 C   0  0  0  0  0  0  0  0  0  0  0  0
   -1.0190   22.3160  -27.3910 C   0  0  0  0  0  0  0  0  0  0  0  0
   -0.0410   23.4760  -26.4950 S   0  0  0  0  0  0  0  0  0  0  0  0
   -0.2840   23.2660  -25.0280 O   0  0  0  0  0  0  0  0  0  0  0  0
    1.4190   23.2580  -26.7840 O   0  0  0  0  0  0  0  0  0  0  0  0
   -0.5050   25.1030  -26.9480 N   0  0  0  0  0  0  0  0  0  0  0  0
   -0.2990   26.0270  -25.8270 C   0  0  0  0  0  0  0  0  0  0  0  0
   -1.6090   26.1420  -25.0600 C   0  0  0  0  0  0  0  0  0  0  0  0
   -2.6730   25.5750  -25.9830 C   0  0  0  0  0  0  0  0  0  0  0  0
   -1.9390   25.1640  -27.2500 C   0  0  0  0  0  0  0  0  0  0  0  0
   -1.2430   22.4720  -28.7670 C   0  0  0  0  0  0  0  0  0  0  0  0
   -5.5470   22.4640  -31.4550 C   0  0  0  0  0  0  0  0  0  0  0  0
   -6.8770   20.4790  -33.4580 C   0  0  0  0  0  0  0  0  0  0  0  0
   -5.9660   19.2530  -33.5330 C   0  0  0  0  0  0  0  0  0  0  0  0
   -3.3930   17.0825  -32.3485 H   0  0  0  0  0  0  0  0  0  0  0  0
   -3.6087   16.1357  -33.8597 H   0  0  0  0  0  0  0  0  0  0  0  0
   -3.9054   17.9073  -33.8597 H   0  0  0  0  0  0  0  0  0  0  0  0
   -8.8181   18.2368  -33.3409 H   0  0  0  0  0  0  0  0  0  0  0  0
   -8.0867   17.1193  -32.0899 H   0  0  0  0  0  0  0  0  0  0  0  0
   -9.0270   19.3003  -31.1951 H   0  0  0  0  0  0  0  0  0  0  0  0
   -7.3047   18.9297  -30.7845 H   0  0  0  0  0  0  0  0  0  0  0  0
   -8.3391   24.1773  -30.4691 H   0  0  0  0  0  0  0  0  0  0  0  0
   -6.6109   25.8923  -29.9429 H   0  0  0  0  0  0  0  0  0  0  0  0
   -3.1090   25.6640  -30.8420 H   0  0  0  0  0  0  0  0  0  0  0  0
   -3.2213   19.7343  -29.3134 H   0  0  0  0  0  0  0  0  0  0  0  0
   -2.8154   19.4514  -26.8698 H   0  0  0  0  0  0  0  0  0  0  0  0
   -1.4097   21.1029  -25.6354 H   0  0  0  0  0  0  0  0  0  0  0  0
    0.4881   25.6387  -25.1639 H   0  0  0  0  0  0  0  0  0  0  0  0
    0.0115   27.0142  -26.1998 H   0  0  0  0  0  0  0  0  0  0  0  0
   -1.5603   25.5608  -24.1273 H   0  0  0  0  0  0  0  0  0  0  0  0
   -1.8264   27.1830  -24.7790 H   0  0  0  0  0  0  0  0  0  0  0  0
   -3.1577   24.7028  -25.5200 H   0  0  0  0  0  0  0  0  0  0  0  0
   -3.4644   26.3100  -26.1915 H   0  0  0  0  0  0  0  0  0  0  0  0
   -2.2923   24.1765  -27.5816 H   0  0  0  0  0  0  0  0  0  0  0  0
   -2.1282   25.8921  -28.0526 H   0  0  0  0  0  0  0  0  0  0  0  0
   -0.8024   23.3268  -29.3011 H   0  0  0  0  0  0  0  0  0  0  0  0
   -5.2451   21.4944  -31.8778 H   0  0  0  0  0  0  0  0  0  0  0  0
   -7.6061   20.4478  -34.2810 H   0  0  0  0  0  0  0  0  0  0  0  0
   -6.2751   21.3957  -33.5442 H   0  0  0  0  0  0  0  0  0  0  0  0
   -5.4384   19.2612  -34.4982 H   0  0  0  0  0  0  0  0  0  0  0  0
   -5.2587   19.3036  -32.6921 H   0  0  0  0  0  0  0  0  0  0  0  0
  1  2  1  0
  2  3  2  0
  2  4  2  0
  2  5  1  0
  5  6  1  0
  6  7  1  0
  7  8  1  0
  8  9  1  0
  9 10  2  0
  9 11  1  0
 11 12  2  0
 12 13  1  0
 13 14  2  0
 14 15  1  0
 14 16  1  0
 16 17  1  0
 17 18  1  0
 18 19  2  0
 18 20  2  0
 18 21  1  0
 21 22  2  0
 22 23  1  0
 23 24  2  0
 24 25  1  0
 25 26  1  0
 26 27  2  0
 26 28  2  0
 26 29  1  0
 29 30  1  0
 30 31  1  0
 31 32  1  0
 32 33  1  0
 25 34  2  0
 16 35  2  0
  8 36  1  0
 36 37  1  0
 37  5  1  0
 35 11  1  0
 34 21  1  0
 33 29  1  0
  1 38  1  0
  1 39  1  0
  1 40  1  0
  6 41  1  0
  6 42  1  0
  7 43  1  0
  7 44  1  0
 12 45  1  0
 13 46  1  0
 15 47  1  0
 22 48  1  0
 23 49  1  0
 24 50  1  0
 30 51  1  0
 30 52  1  0
 31 53  1  0
 31 54  1  0
 32 55  1  0
 32 56  1  0
 33 57  1  0
 33 58  1  0
 34 59  1  0
 35 60  1  0
 36 61  1  0
 36 62  1  0
 37 63  1  0
 37 64  1  0
M  CHG  1  17  -1
M  END
>  <UniqueID>  (44) 
43

>  <SMILES>  (44) 
CS(=O)(=O)N1CCN(C(=O)c2ccc(O)c([N-]S(=O)(=O)c3cccc(S(=O)(=O)N4CCCC4)c3)c2)CC1

>  <Energy>  (44) 
77.56295578752547

>  <Genealogy>  (44) 
CS(=O)(=O)N1CCN(C(=O)c2ccc(O)c([N-]S(=O)(=O)c3cccc(S(=O)(=O)N4CCCC4)c3)c2)CC1 (protonated)
CS(=O)(=O)N1CCN(C(=O)c2ccc(O)c([N-]S(=O)(=O)c3cccc(S(=O)(=O)N4CCCC4)c3)c2)CC1 (3D coordinates assigned)
CS(=O)(=O)N1CCN(C(=O)c2ccc(O)c([N-]S(=O)(=O)c3cccc(S(=O)(=O)N4CCCC4)c3)c2)CC1 (nonaromatic ring conformer: 77.56295578752547 kcal/mol)

>  <smiles>  (44) 
CS(=O)(=O)N1CCN(C(=O)c2ccc(O)c(NS(=O)(=O)c3cccc(S(=O)(=O)N4CCCC4)c3)c2)CC1

>  <score_type>  (44) 
oracle

>  <origin>  (44) 
adgpu

>  <m_score__min__energy>  (44) 
-13.109999999999999

>  <m_primary>  (44) 
energy

$$$$
44:0
     RDKit          3D

 41 43  0  0  0  0  0  0  0  0999 V2000
   -0.7220   27.1300  -23.1200 N   0  0  0  0  0  0  0  0  0  0  0  0
   -0.6540   26.5800  -24.1360 C   0  0  0  0  0  0  0  0  0  0  0  0
   -0.5690   25.8950  -25.3990 C   0  0  0  0  0  0  0  0  0  0  0  0
   -0.0480   24.5980  -25.4580 C   0  0  0  0  0  0  0  0  0  0  0  0
    0.0380   23.9330  -26.6840 C   0  0  0  0  0  0  0  0  0  0  0  0
   -0.4120   24.5520  -27.8650 C   0  0  0  0  0  0  0  0  0  0  0  0
   -0.3090   23.8950  -29.1360 N   0  0  0  0  0  0  0  0  0  0  0  0
   -1.4000   23.4450  -29.9460 C   0  0  0  0  0  0  0  0  0  0  0  0
   -1.2340   22.4440  -30.6900 O   0  0  0  0  0  0  0  0  0  0  0  0
   -2.6250   24.1890  -29.9920 N   0  0  0  0  0  0  0  0  0  0  0  0
   -3.9320   23.6720  -30.2790 C   0  0  0  0  0  0  0  0  0  0  0  0
   -5.0620   24.0350  -29.5230 C   0  0  0  0  0  0  0  0  0  0  0  0
   -6.3210   23.5230  -29.8510 C   0  0  0  0  0  0  0  0  0  0  0  0
   -6.4700   22.6540  -30.9390 C   0  0  0  0  0  0  0  0  0  0  0  0
   -8.0640   22.0290  -31.3430 S   0  0  0  0  0  0  0  0  0  0  0  0
   -8.7100   22.9340  -32.3560 O   0  0  0  0  0  0  0  0  0  0  0  0
   -8.9410   21.9870  -30.1210 O   0  0  0  0  0  0  0  0  0  0  0  0
   -7.8970   20.4020  -31.9930 C   0  0  0  0  0  0  0  0  0  0  0  0
   -8.7010   19.3660  -31.4950 C   0  0  0  0  0  0  0  0  0  0  0  0
   -8.5640   18.0680  -31.9970 C   0  0  0  0  0  0  0  0  0  0  0  0
   -7.6190   17.7990  -32.9920 C   0  0  0  0  0  0  0  0  0  0  0  0
   -6.8100   18.8260  -33.4850 C   0  0  0  0  0  0  0  0  0  0  0  0
   -6.9450   20.1250  -32.9850 C   0  0  0  0  0  0  0  0  0  0  0  0
   -5.3500   22.3150  -31.7100 C   0  0  0  0  0  0  0  0  0  0  0  0
   -4.0910   22.8270  -31.3830 C   0  0  0  0  0  0  0  0  0  0  0  0
   -0.9120   25.8680  -27.8030 C   0  0  0  0  0  0  0  0  0  0  0  0
   -1.3390   26.5360  -28.9520 O   0  0  0  0  0  0  0  0  0  0  0  0
   -0.9950   26.5290  -26.5720 C   0  0  0  0  0  0  0  0  0  0  0  0
    0.2943   24.1011  -24.5383 H   0  0  0  0  0  0  0  0  0  0  0  0
    0.4605   22.9183  -26.7263 H   0  0  0  0  0  0  0  0  0  0  0  0
   -4.9545   24.7234  -28.6718 H   0  0  0  0  0  0  0  0  0  0  0  0
   -7.1992   23.8043  -29.2512 H   0  0  0  0  0  0  0  0  0  0  0  0
   -9.4407   19.5750  -30.7081 H   0  0  0  0  0  0  0  0  0  0  0  0
   -9.1997   17.2584  -31.6091 H   0  0  0  0  0  0  0  0  0  0  0  0
   -7.5124   16.7779  -33.3870 H   0  0  0  0  0  0  0  0  0  0  0  0
   -6.0664   18.6126  -34.2670 H   0  0  0  0  0  0  0  0  0  0  0  0
   -6.3033   20.9310  -33.3704 H   0  0  0  0  0  0  0  0  0  0  0  0
   -5.4618   21.6443  -32.5747 H   0  0  0  0  0  0  0  0  0  0  0  0
   -3.2182   22.5635  -31.9985 H   0  0  0  0  0  0  0  0  0  0  0  0
   -1.6070   26.0450  -29.7950 H   0  0  0  0  0  0  0  0  0  0  0  0
   -1.3970   27.5519  -26.5261 H   0  0  0  0  0  0  0  0  0  0  0  0
  1  2  3  0
  2  3  1  0
  3  4  2  0
  4  5  1  0
  5  6  2  0
  6  7  1  0
  7  8  1  0
  8  9  2  0
  8 10  1  0
 10 11  1  0
 11 12  2  0
 12 13  1  0
 13 14  2  0
 14 15  1  0
 15 16  2  0
 15 17  2  0
 15 18  1  0
 18 19  2  0
 19 20  1  0
 20 21  2  0
 21 22  1  0
 22 23  2  0
 14 24  1  0
 24 25  2  0
  6 26  1  0
 26 27  1  0
 26 28  2  0
 28  3  1  0
 25 11  1  0
 23 18  1  0
  4 29  1  0
  5 30  1  0
 12 31  1  0
 13 32  1  0
 19 33  1  0
 20 34  1  0
 21 35  1  0
 22 36  1  0
 23 37  1  0
 24 38  1  0
 25 39  1  0
 27 40  1  0
 28 41  1  0
M  CHG  2   7  -1  10  -1
M  END
>  <UniqueID>  (45) 
44

>  <SMILES>  (45) 
N#Cc1ccc([N-]C(=O)[N-]c2ccc(S(=O)(=O)c3ccccc3)cc2)c(O)c1

>  <Energy>  (45) 
52.29061284946225

>  <Genealogy>  (45) 
N#Cc1ccc([N-]C(=O)[N-]c2ccc(S(=O)(=O)c3ccccc3)cc2)c(O)c1 (protonated)
N#Cc1ccc([N-]C(=O)[N-]c2ccc(S(=O)(=O)c3ccccc3)cc2)c(O)c1 (3D coordinates assigned)
N#Cc1ccc([N-]C(=O)[N-]c2ccc(S(=O)(=O)c3ccccc3)cc2)c(O)c1 (optimized conformer: 52.29061284946225 kcal/mol)

>  <smiles>  (45) 
N#Cc1ccc(NC(=O)Nc2ccc(S(=O)(=O)c3ccccc3)cc2)c(O)c1

>  <score_type>  (45) 
oracle

>  <origin>  (45) 
adgpu

>  <m_score__min__energy>  (45) 
-12.9

>  <m_primary>  (45) 
energy

$$$$
45:0
     RDKit          3D

 66 69  0  0  0  0  0  0  0  0999 V2000
    2.9900   21.0370  -34.8590 C   0  0  0  0  0  0  0  0  0  0  0  0
    1.2320   21.2170  -35.1110 S   0  0  0  0  0  0  0  0  0  0  0  0
    0.8910   20.7460  -36.5000 O   0  0  0  0  0  0  0  0  0  0  0  0
    0.8680   22.6720  -34.9960 O   0  0  0  0  0  0  0  0  0  0  0  0
    0.3170   20.2980  -33.9360 N   0  0  0  0  0  0  0  0  0  0  0  0
   -0.4860   19.2350  -34.5900 C   0  0  0  0  0  0  0  0  0  0  0  0
   -1.9910   19.5210  -34.5800 C   0  0  0  0  0  0  0  0  0  0  0  0
   -2.4260   19.7690  -33.2070 N   0  0  0  0  0  0  0  0  0  0  0  0
   -3.7170   19.3240  -32.7730 C   0  0  0  0  0  0  0  0  0  0  0  0
   -3.9390   18.0870  -32.6830 O   0  0  0  0  0  0  0  0  0  0  0  0
   -4.7970   20.2940  -32.4800 C   0  0  0  0  0  0  0  0  0  0  0  0
   -6.1410   19.8850  -32.4970 C   0  0  0  0  0  0  0  0  0  0  0  0
   -7.1620   20.8050  -32.2590 C   0  0  0  0  0  0  0  0  0  0  0  0
   -6.8630   22.1530  -32.0210 C   0  0  0  0  0  0  0  0  0  0  0  0
   -7.8930   23.0490  -31.7480 O   0  0  0  0  0  0  0  0  0  0  0  0
   -5.5210   22.5810  -32.0340 C   0  0  0  0  0  0  0  0  0  0  0  0
   -5.1560   23.9530  -31.8350 N   0  0  0  0  0  0  0  0  0  0  0  0
   -5.1030   24.7380  -30.2900 S   0  0  0  0  0  0  0  0  0  0  0  0
   -4.6400   26.1550  -30.4720 O   0  0  0  0  0  0  0  0  0  0  0  0
   -6.4860   24.7610  -29.6990 O   0  0  0  0  0  0  0  0  0  0  0  0
   -3.9860   23.9010  -29.2180 C   0  0  0  0  0  0  0  0  0  0  0  0
   -4.2750   22.6120  -28.7490 C   0  0  0  0  0  0  0  0  0  0  0  0
   -3.3890   21.9650  -27.8840 C   0  0  0  0  0  0  0  0  0  0  0  0
   -2.2090   22.5990  -27.4860 C   0  0  0  0  0  0  0  0  0  0  0  0
   -1.9000   23.8860  -27.9590 C   0  0  0  0  0  0  0  0  0  0  0  0
   -0.6600   24.5610  -27.5090 C   0  0  0  0  0  0  0  0  0  0  0  0
    0.3310   24.5890  -28.2940 O   0  0  0  0  0  0  0  0  0  0  0  0
   -0.5410   25.1520  -26.2000 N   0  0  0  0  0  0  0  0  0  0  0  0
    0.7770   25.1640  -25.5460 C   0  0  0  0  0  0  0  0  0  0  0  0
    0.7250   25.8530  -24.1780 C   0  0  0  0  0  0  0  0  0  0  0  0
    0.0330   27.2150  -24.2910 C   0  0  0  0  0  0  0  0  0  0  0  0
   -1.3520   27.1430  -24.9710 C   0  0  0  0  0  0  0  0  0  0  0  0
   -1.7020   25.7530  -25.5240 C   0  0  0  0  0  0  0  0  0  0  0  0
   -2.8050   24.5360  -28.8160 C   0  0  0  0  0  0  0  0  0  0  0  0
   -4.4990   21.6450  -32.2330 C   0  0  0  0  0  0  0  0  0  0  0  0
   -1.5480   20.4900  -32.2810 C   0  0  0  0  0  0  0  0  0  0  0  0
   -0.4410   21.2140  -33.0540 C   0  0  0  0  0  0  0  0  0  0  0  0
    3.2055   21.0149  -33.7805 H   0  0  0  0  0  0  0  0  0  0  0  0
    3.3325   20.0991  -35.3206 H   0  0  0  0  0  0  0  0  0  0  0  0
    3.5154   21.8860  -35.3206 H   0  0  0  0  0  0  0  0  0  0  0  0
   -0.1554   19.1404  -35.6349 H   0  0  0  0  0  0  0  0  0  0  0  0
   -0.3263   18.3081  -34.0197 H   0  0  0  0  0  0  0  0  0  0  0  0
   -2.2009   20.4067  -35.1977 H   0  0  0  0  0  0  0  0  0  0  0  0
   -2.5335   18.6554  -34.9879 H   0  0  0  0  0  0  0  0  0  0  0  0
   -6.3896   18.8327  -32.6993 H   0  0  0  0  0  0  0  0  0  0  0  0
   -8.2097   20.4698  -32.2581 H   0  0  0  0  0  0  0  0  0  0  0  0
   -7.7160   23.9440  -31.3040 H   0  0  0  0  0  0  0  0  0  0  0  0
   -5.2015   22.1088  -29.0627 H   0  0  0  0  0  0  0  0  0  0  0  0
   -3.6207   20.9548  -27.5156 H   0  0  0  0  0  0  0  0  0  0  0  0
   -1.5184   22.0882  -26.7989 H   0  0  0  0  0  0  0  0  0  0  0  0
    1.1169   24.1267  -25.4100 H   0  0  0  0  0  0  0  0  0  0  0  0
    1.4725   25.7260  -26.1867 H   0  0  0  0  0  0  0  0  0  0  0  0
    0.1651   25.2195  -23.4743 H   0  0  0  0  0  0  0  0  0  0  0  0
    1.7526   26.0043  -23.8158 H   0  0  0  0  0  0  0  0  0  0  0  0
   -0.0961   27.6259  -23.2788 H   0  0  0  0  0  0  0  0  0  0  0  0
    0.6714   27.8532  -24.9196 H   0  0  0  0  0  0  0  0  0  0  0  0
   -2.1161   27.4240  -24.2313 H   0  0  0  0  0  0  0  0  0  0  0  0
   -1.3226   27.8302  -25.8294 H   0  0  0  0  0  0  0  0  0  0  0  0
   -2.0125   25.1021  -24.6934 H   0  0  0  0  0  0  0  0  0  0  0  0
   -2.5187   25.8590  -26.2532 H   0  0  0  0  0  0  0  0  0  0  0  0
   -2.5833   25.5523  -29.1738 H   0  0  0  0  0  0  0  0  0  0  0  0
   -3.4492   21.9713  -32.1955 H   0  0  0  0  0  0  0  0  0  0  0  0
   -2.1401   21.2272  -31.7190 H   0  0  0  0  0  0  0  0  0  0  0  0
   -1.0887   19.7693  -31.5884 H   0  0  0  0  0  0  0  0  0  0  0  0
   -0.8972   22.0025  -33.6706 H   0  0  0  0  0  0  0  0  0  0  0  0
    0.2624   21.6353  -32.3207 H   0  0  0  0  0  0  0  0  0  0  0  0
  1  2  1  0
  2  3  2  0
  2  4  2  0
  2  5  1  0
  5  6  1  0
  6  7  1  0
  7  8  1  0
  8  9  1  0
  9 10  2  0
  9 11  1  0
 11 12  2  0
 12 13  1  0
 13 14  2  0
 14 15  1  0
 14 16  1  0
 16 17  1  0
 17 18  1  0
 18 19  2  0
 18 20  2  0
 18 21  1  0
 21 22  2  0
 22 23  1  0
 23 24  2  0
 24 25  1  0
 25 26  1  0
 26 27  2  0
 26 28  1  0
 28 29  1  0
 29 30  1  0
 30 31  1  0
 31 32  1  0
 32 33  1  0
 25 34  2  0
 16 35  2  0
  8 36  1  0
 36 37  1  0
 37  5  1  0
 35 11  1  0
 34 21  1  0
 33 28  1  0
  1 38  1  0
  1 39  1  0
  1 40  1  0
  6 41  1  0
  6 42  1  0
  7 43  1  0
  7 44  1  0
 12 45  1  0
 13 46  1  0
 15 47  1  0
 22 48  1  0
 23 49  1  0
 24 50  1  0
 29 51  1  0
 29 52  1  0
 30 53  1  0
 30 54  1  0
 31 55  1  0
 31 56  1  0
 32 57  1  0
 32 58  1  0
 33 59  1  0
 33 60  1  0
 34 61  1  0
 35 62  1  0
 36 63  1  0
 36 64  1  0
 37 65  1  0
 37 66  1  0
M  CHG  1  17  -1
M  END
>  <UniqueID>  (46) 
45

>  <SMILES>  (46) 
CS(=O)(=O)N1CCN(C(=O)c2ccc(O)c([N-]S(=O)(=O)c3cccc(C(=O)N4CCCCC4)c3)c2)CC1

>  <Energy>  (46) 
87.35088831851418

>  <Genealogy>  (46) 
CS(=O)(=O)N1CCN(C(=O)c2ccc(O)c([N-]S(=O)(=O)c3cccc(C(=O)N4CCCCC4)c3)c2)CC1 (protonated)
CS(=O)(=O)N1CCN(C(=O)c2ccc(O)c([N-]S(=O)(=O)c3cccc(C(=O)N4CCCCC4)c3)c2)CC1 (3D coordinates assigned)
CS(=O)(=O)N1CCN(C(=O)c2ccc(O)c([N-]S(=O)(=O)c3cccc(C(=O)N4CCCCC4)c3)c2)CC1 (nonaromatic ring conformer: 87.35088831851418 kcal/mol)

>  <smiles>  (46) 
CS(=O)(=O)N1CCN(C(=O)c2ccc(O)c(NS(=O)(=O)c3cccc(C(=O)N4CCCCC4)c3)c2)CC1

>  <score_type>  (46) 
oracle

>  <origin>  (46) 
adgpu

>  <m_score__min__energy>  (46) 
-12.31

>  <m_primary>  (46) 
energy

$$$$
46:0
     RDKit          3D

 39 41  0  0  0  0  0  0  0  0999 V2000
   -0.1460   18.0860  -27.5130 C   0  0  0  0  0  0  0  0  0  0  0  0
   -0.8990   19.0590  -28.3120 N   0  0  0  0  0  0  0  0  0  0  0  0
    0.0210   19.8720  -29.1190 C   0  0  0  0  0  0  0  0  0  0  0  0
   -1.8340   20.0930  -27.2610 S   0  0  0  0  0  0  0  0  0  0  0  0
   -1.2960   20.0000  -25.8590 O   0  0  0  0  0  0  0  0  0  0  0  0
   -3.2620   19.6230  -27.2390 O   0  0  0  0  0  0  0  0  0  0  0  0
   -1.7840   21.7760  -27.7920 C   0  0  0  0  0  0  0  0  0  0  0  0
   -0.7100   22.5960  -27.4340 C   0  0  0  0  0  0  0  0  0  0  0  0
   -0.6810   23.9300  -27.8380 C   0  0  0  0  0  0  0  0  0  0  0  0
   -1.7230   24.4700  -28.6010 C   0  0  0  0  0  0  0  0  0  0  0  0
   -1.6640   25.8310  -28.9050 O   0  0  0  0  0  0  0  0  0  0  0  0
   -2.7990   23.6380  -29.0040 C   0  0  0  0  0  0  0  0  0  0  0  0
   -3.8880   24.1120  -29.8880 C   0  0  0  0  0  0  0  0  0  0  0  0
   -4.9710   23.3740  -30.2050 N   0  0  0  0  0  0  0  0  0  0  0  0
   -5.6270   24.2050  -31.0380 C   0  0  0  0  0  0  0  0  0  0  0  0
   -6.9580   23.8910  -31.6400 C   0  0  0  0  0  0  0  0  0  0  0  0
   -7.0970   22.4160  -31.8250 C   0  0  0  0  0  0  0  0  0  0  0  0
   -8.2530   21.6750  -31.6160 C   0  0  0  0  0  0  0  0  0  0  0  0
   -8.1090   20.3220  -31.9480 C   0  0  0  0  0  0  0  0  0  0  0  0
   -6.8460   19.9990  -32.4300 C   0  0  0  0  0  0  0  0  0  0  0  0
   -5.9120   21.3980  -32.4480 S   0  0  0  0  0  0  0  0  0  0  0  0
   -4.9880   25.3780  -31.2100 N   0  0  0  0  0  0  0  0  0  0  0  0
   -3.9140   25.2770  -30.4900 O   0  0  0  0  0  0  0  0  0  0  0  0
   -2.8210   22.2980  -28.5740 C   0  0  0  0  0  0  0  0  0  0  0  0
   -0.3035   18.2895  -26.4435 H   0  0  0  0  0  0  0  0  0  0  0  0
   -0.4952   17.0698  -27.7482 H   0  0  0  0  0  0  0  0  0  0  0  0
    0.9253   18.1691  -27.7482 H   0  0  0  0  0  0  0  0  0  0  0  0
    0.6775   20.4521  -28.4538 H   0  0  0  0  0  0  0  0  0  0  0  0
    0.6319   19.2133  -29.7537 H   0  0  0  0  0  0  0  0  0  0  0  0
   -0.5576   20.5593  -29.7537 H   0  0  0  0  0  0  0  0  0  0  0  0
    0.1148   22.1875  -26.8317 H   0  0  0  0  0  0  0  0  0  0  0  0
    0.1706   24.5656  -27.5539 H   0  0  0  0  0  0  0  0  0  0  0  0
   -2.4780   26.4250  -28.9730 H   0  0  0  0  0  0  0  0  0  0  0  0
   -7.7544   24.2515  -30.9723 H   0  0  0  0  0  0  0  0  0  0  0  0
   -7.0393   24.3878  -32.6180 H   0  0  0  0  0  0  0  0  0  0  0  0
   -9.1875   22.1072  -31.2287 H   0  0  0  0  0  0  0  0  0  0  0  0
   -8.9183   19.5852  -31.8378 H   0  0  0  0  0  0  0  0  0  0  0  0
   -6.5138   18.9991  -32.7458 H   0  0  0  0  0  0  0  0  0  0  0  0
   -3.6651   21.6517  -28.8565 H   0  0  0  0  0  0  0  0  0  0  0  0
  1  2  1  0
  2  3  1  0
  2  4  1  0
  4  5  2  0
  4  6  2  0
  4  7  1  0
  7  8  2  0
  8  9  1  0
  9 10  2  0
 10 11  1  0
 10 12  1  0
 12 13  1  0
 13 14  2  0
 14 15  1  0
 15 16  1  0
 16 17  1  0
 17 18  2  0
 18 19  1  0
 19 20  2  0
 20 21  1  0
 15 22  2  0
 22 23  1  0
 12 24  2  0
 24  7  1  0
 23 13  1  0
 21 17  1  0
  1 25  1  0
  1 26  1  0
  1 27  1  0
  3 28  1  0
  3 29  1  0
  3 30  1  0
  8 31  1  0
  9 32  1  0
 11 33  1  0
 16 34  1  0
 16 35  1  0
 18 36  1  0
 19 37  1  0
 20 38  1  0
 24 39  1  0
M  END
>  <UniqueID>  (47) 
46

>  <SMILES>  (47) 
CN(C)S(=O)(=O)c1ccc(O)c(-c2nc(Cc3cccs3)no2)c1

>  <Energy>  (47) 
99.28612748301462

>  <Genealogy>  (47) 
CN(C)S(=O)(=O)c1ccc(O)c(-c2nc(Cc3cccs3)no2)c1 (3D coordinates assigned)
CN(C)S(=O)(=O)c1ccc(O)c(-c2nc(Cc3cccs3)no2)c1 (optimized conformer: 99.28612748301462 kcal/mol)

>  <smiles>  (47) 
CN(C)S(=O)(=O)c1ccc(O)c(-c2nc(Cc3cccs3)no2)c1

>  <score_type>  (47) 
oracle

>  <origin>  (47) 
adgpu

>  <m_score__min__energy>  (47) 
-10.119999999999999

>  <m_primary>  (47) 
energy

$$$$
47:0
     RDKit          3D

 75 79  0  0  0  0  0  0  0  0999 V2000
   -3.4620   20.5350  -30.4590 C   0  0  0  0  0  0  0  0  0  0  0  0
   -2.5080   20.7300  -31.6080 C   0  0  0  0  0  0  0  0  0  0  0  0
   -1.2390   21.2690  -31.3430 C   0  0  0  0  0  0  0  0  0  0  0  0
   -0.3090   21.4440  -32.3680 C   0  0  0  0  0  0  0  0  0  0  0  0
   -0.6310   21.0850  -33.6800 C   0  0  0  0  0  0  0  0  0  0  0  0
    0.5540   21.3040  -34.9750 S   0  0  0  0  0  0  0  0  0  0  0  0
    1.7500   20.4390  -34.6940 O   0  0  0  0  0  0  0  0  0  0  0  0
   -0.0530   20.8470  -36.2720 O   0  0  0  0  0  0  0  0  0  0  0  0
    1.0810   22.9610  -35.1450 N   0  0  0  0  0  0  0  0  0  0  0  0
    2.4510   23.0550  -35.6470 C   0  0  0  0  0  0  0  0  0  0  0  0
    2.5600   24.3940  -36.3650 C   0  0  0  0  0  0  0  0  0  0  0  0
    1.1270   24.8450  -36.6030 C   0  0  0  0  0  0  0  0  0  0  0  0
    0.2600   23.7040  -36.0980 C   0  0  0  0  0  0  0  0  0  0  0  0
   -1.8930   20.5480  -33.9590 C   0  0  0  0  0  0  0  0  0  0  0  0
   -2.8540   20.3920  -32.9430 C   0  0  0  0  0  0  0  0  0  0  0  0
   -4.2000   19.8990  -33.3140 C   0  0  0  0  0  0  0  0  0  0  0  0
   -4.3670   18.6760  -33.5740 O   0  0  0  0  0  0  0  0  0  0  0  0
   -5.2790   20.8250  -33.4860 N   0  0  0  0  0  0  0  0  0  0  0  0
   -5.8910   21.6240  -32.4630 C   0  0  0  0  0  0  0  0  0  0  0  0
   -7.2070   21.3340  -32.0860 C   0  0  0  0  0  0  0  0  0  0  0  0
   -7.8470   22.0950  -31.1040 C   0  0  0  0  0  0  0  0  0  0  0  0
   -7.1810   23.1670  -30.5080 C   0  0  0  0  0  0  0  0  0  0  0  0
   -5.8750   23.4900  -30.8970 C   0  0  0  0  0  0  0  0  0  0  0  0
   -5.0810   24.8820  -30.1710 S   0  0  0  0  0  0  0  0  0  0  0  0
   -6.0930   25.9860  -30.0390 O   0  0  0  0  0  0  0  0  0  0  0  0
   -3.9380   25.3550  -31.0240 O   0  0  0  0  0  0  0  0  0  0  0  0
   -4.4710   24.4200  -28.6140 N   0  0  0  0  0  0  0  0  0  0  0  0
   -3.2080   23.7790  -28.4120 C   0  0  0  0  0  0  0  0  0  0  0  0
   -3.1940   22.4760  -27.8980 C   0  0  0  0  0  0  0  0  0  0  0  0
   -1.9800   21.8180  -27.6540 C   0  0  0  0  0  0  0  0  0  0  0  0
   -1.9750   20.1860  -26.9790 S   0  0  0  0  0  0  0  0  0  0  0  0
   -3.3920   19.6970  -26.8580 O   0  0  0  0  0  0  0  0  0  0  0  0
   -1.3760   20.2230  -25.5990 O   0  0  0  0  0  0  0  0  0  0  0  0
   -1.0710   19.0760  -27.9830 N   0  0  0  0  0  0  0  0  0  0  0  0
   -0.0720   19.7860  -28.8200 C   0  0  0  0  0  0  0  0  0  0  0  0
    1.3610   19.6520  -28.2850 C   0  0  0  0  0  0  0  0  0  0  0  0
    1.7830   18.1760  -28.1880 C   0  0  0  0  0  0  0  0  0  0  0  0
    0.5980   17.2350  -27.9030 C   0  0  0  0  0  0  0  0  0  0  0  0
   -0.5230   17.9710  -27.1650 C   0  0  0  0  0  0  0  0  0  0  0  0
   -0.7730   22.4690  -27.9400 C   0  0  0  0  0  0  0  0  0  0  0  0
   -0.7800   23.7540  -28.4890 C   0  0  0  0  0  0  0  0  0  0  0  0
   -1.9920   24.4070  -28.7400 C   0  0  0  0  0  0  0  0  0  0  0  0
   -1.9750   25.6620  -29.3390 O   0  0  0  0  0  0  0  0  0  0  0  0
   -5.2320   22.7230  -31.8790 C   0  0  0  0  0  0  0  0  0  0  0  0
   -2.9191   20.6460  -29.5088 H   0  0  0  0  0  0  0  0  0  0  0  0
   -4.2617   21.2883  -30.5145 H   0  0  0  0  0  0  0  0  0  0  0  0
   -3.9020   19.5284  -30.5145 H   0  0  0  0  0  0  0  0  0  0  0  0
   -0.9749   21.5568  -30.3147 H   0  0  0  0  0  0  0  0  0  0  0  0
    0.6815   21.8661  -32.1429 H   0  0  0  0  0  0  0  0  0  0  0  0
    3.1652   23.0131  -34.8114 H   0  0  0  0  0  0  0  0  0  0  0  0
    2.6832   22.2208  -36.3254 H   0  0  0  0  0  0  0  0  0  0  0  0
    3.0938   25.1238  -35.7386 H   0  0  0  0  0  0  0  0  0  0  0  0
    3.1225   24.3078  -37.3064 H   0  0  0  0  0  0  0  0  0  0  0  0
    0.9150   25.7675  -36.0426 H   0  0  0  0  0  0  0  0  0  0  0  0
    0.9370   25.0668  -37.6635 H   0  0  0  0  0  0  0  0  0  0  0  0
   -0.6386   24.0986  -35.6012 H   0  0  0  0  0  0  0  0  0  0  0  0
   -0.0779   23.0607  -36.9238 H   0  0  0  0  0  0  0  0  0  0  0  0
   -2.1372   20.2435  -34.9874 H   0  0  0  0  0  0  0  0  0  0  0  0
   -7.7416   20.5011  -32.5660 H   0  0  0  0  0  0  0  0  0  0  0  0
   -8.8754   21.8492  -30.8009 H   0  0  0  0  0  0  0  0  0  0  0  0
   -7.6837   23.7603  -29.7300 H   0  0  0  0  0  0  0  0  0  0  0  0
   -4.1439   21.9643  -27.6838 H   0  0  0  0  0  0  0  0  0  0  0  0
   -0.1070   19.3691  -29.8373 H   0  0  0  0  0  0  0  0  0  0  0  0
   -0.3304   20.8551  -28.8059 H   0  0  0  0  0  0  0  0  0  0  0  0
    2.0482   20.1777  -28.9643 H   0  0  0  0  0  0  0  0  0  0  0  0
    1.3992   20.0920  -27.2776 H   0  0  0  0  0  0  0  0  0  0  0  0
    2.2463   17.8794  -29.1406 H   0  0  0  0  0  0  0  0  0  0  0  0
    2.4868   18.0869  -27.3473 H   0  0  0  0  0  0  0  0  0  0  0  0
    0.2079   16.8491  -28.8564 H   0  0  0  0  0  0  0  0  0  0  0  0
    0.9516   16.4092  -27.2682 H   0  0  0  0  0  0  0  0  0  0  0  0
   -1.3301   17.2590  -26.9380 H   0  0  0  0  0  0  0  0  0  0  0  0
   -0.1079   18.3971  -26.2397 H   0  0  0  0  0  0  0  0  0  0  0  0
    0.1834   21.9670  -27.7317 H   0  0  0  0  0  0  0  0  0  0  0  0
    0.1709   24.2542  -28.7248 H   0  0  0  0  0  0  0  0  0  0  0  0
   -4.2100   22.9804  -32.1941 H   0  0  0  0  0  0  0  0  0  0  0  0
  1  2  1  0
  2  3  2  0
  3  4  1  0
  4  5  2  0
  5  6  1  0
  6  7  2  0
  6  8  2  0
  6  9  1  0
  9 10  1  0
 10 11  1  0
 11 12  1  0
 12 13  1  0
  5 14  1  0
 14 15  2  0
 15 16  1  0
 16 17  2  0
 16 18  1  0
 18 19  1  0
 19 20  2  0
 20 21  1  0
 21 22  2  0
 22 23  1  0
 23 24  1  0
 24 25  2  0
 24 26  2  0
 24 27  1  0
 27 28  1  0
 28 29  2  0
 29 30  1  0
 30 31  1  0
 31 32  2  0
 31 33  2  0
 31 34  1  0
 34 35  1  0
 35 36  1  0
 36 37  1  0
 37 38  1  0
 38 39  1  0
 30 40  2  0
 40 41  1  0
 41 42  2  0
 42 43  1  0
 23 44  2  0
 15  2  1  0
 44 19  1  0
 13  9  1  0
 42 28  1  0
 39 34  1  0
  1 45  1  0
  1 46  1  0
  1 47  1  0
  3 48  1  0
  4 49  1  0
 10 50  1  0
 10 51  1  0
 11 52  1  0
 11 53  1  0
 12 54  1  0
 12 55  1  0
 13 56  1  0
 13 57  1  0
 14 58  1  0
 20 59  1  0
 21 60  1  0
 22 61  1  0
 29 62  1  0
 35 63  1  0
 35 64  1  0
 36 65  1  0
 36 66  1  0
 37 67  1  0
 37 68  1  0
 38 69  1  0
 38 70  1  0
 39 71  1  0
 39 72  1  0
 40 73  1  0
 41 74  1  0
 44 75  1  0
M  CHG  3  18  -1  27  -1  43  -1
M  END
>  <UniqueID>  (48) 
47

>  <SMILES>  (48) 
Cc1ccc(S(=O)(=O)N2CCCC2)cc1C(=O)[N-]c1cccc(S(=O)(=O)[N-]c2cc(S(=O)(=O)N3CCCCC3)ccc2[O-])c1

>  <Energy>  (48) 
101.63832570203316

>  <Genealogy>  (48) 
Cc1ccc(S(=O)(=O)N2CCCC2)cc1C(=O)[N-]c1cccc(S(=O)(=O)[N-]c2cc(S(=O)(=O)N3CCCCC3)ccc2[O-])c1 (protonated)
Cc1ccc(S(=O)(=O)N2CCCC2)cc1C(=O)[N-]c1cccc(S(=O)(=O)[N-]c2cc(S(=O)(=O)N3CCCCC3)ccc2[O-])c1 (3D coordinates assigned)
Cc1ccc(S(=O)(=O)N2CCCC2)cc1C(=O)[N-]c1cccc(S(=O)(=O)[N-]c2cc(S(=O)(=O)N3CCCCC3)ccc2[O-])c1 (nonaromatic ring conformer: 101.63832570203316 kcal/mol)

>  <smiles>  (48) 
Cc1ccc(S(=O)(=O)N2CCCC2)cc1C(=O)Nc1cccc(S(=O)(=O)Nc2cc(S(=O)(=O)N3CCCCC3)ccc2O)c1

>  <score_type>  (48) 
oracle

>  <origin>  (48) 
adgpu

>  <m_score__min__energy>  (48) 
-16.690000000000001

>  <m_primary>  (48) 
energy

$$$$
48:0
     RDKit          3D

 63 66  0  0  0  0  0  0  0  0999 V2000
   -2.7310   22.9470  -27.5590 C   0  0  0  0  0  0  0  0  0  0  0  0
   -3.7230   23.2190  -28.6520 C   0  0  0  0  0  0  0  0  0  0  0  0
   -4.4310   24.4310  -28.6770 C   0  0  0  0  0  0  0  0  0  0  0  0
   -5.3210   24.7120  -29.7230 C   0  0  0  0  0  0  0  0  0  0  0  0
   -6.1070   25.9890  -29.7220 C   0  0  0  0  0  0  0  0  0  0  0  0
   -5.5170   23.7630  -30.7370 C   0  0  0  0  0  0  0  0  0  0  0  0
   -4.8060   22.5570  -30.7260 C   0  0  0  0  0  0  0  0  0  0  0  0
   -5.0360   21.3970  -32.0340 S   0  0  0  0  0  0  0  0  0  0  0  0
   -4.2270   20.1740  -31.7030 O   0  0  0  0  0  0  0  0  0  0  0  0
   -4.5340   21.9790  -33.3270 O   0  0  0  0  0  0  0  0  0  0  0  0
   -6.7560   20.9940  -32.1980 C   0  0  0  0  0  0  0  0  0  0  0  0
   -7.7050   21.9460  -31.7880 C   0  0  0  0  0  0  0  0  0  0  0  0
   -9.0700   21.6530  -31.8220 C   0  0  0  0  0  0  0  0  0  0  0  0
   -9.5070   20.4070  -32.2660 C   0  0  0  0  0  0  0  0  0  0  0  0
   -8.5810   19.4540  -32.6950 C   0  0  0  0  0  0  0  0  0  0  0  0
   -7.2060   19.7390  -32.6870 C   0  0  0  0  0  0  0  0  0  0  0  0
   -6.2810   18.7080  -33.1940 C   0  0  0  0  0  0  0  0  0  0  0  0
   -6.5990   17.4940  -33.0790 O   0  0  0  0  0  0  0  0  0  0  0  0
   -5.0450   19.0880  -33.8200 N   0  0  0  0  0  0  0  0  0  0  0  0
   -4.0530   18.1520  -34.2700 C   0  0  0  0  0  0  0  0  0  0  0  0
   -4.4570   16.8820  -34.7060 C   0  0  0  0  0  0  0  0  0  0  0  0
   -3.5120   15.9480  -35.1360 C   0  0  0  0  0  0  0  0  0  0  0  0
   -2.1520   16.2690  -35.1230 C   0  0  0  0  0  0  0  0  0  0  0  0
   -1.2460   15.3460  -35.5360 F   0  0  0  0  0  0  0  0  0  0  0  0
   -1.7300   17.5280  -34.6700 C   0  0  0  0  0  0  0  0  0  0  0  0
   -0.0100   17.9170  -34.6200 S   0  0  0  0  0  0  0  0  0  0  0  0
    0.4660   18.3410  -35.9820 O   0  0  0  0  0  0  0  0  0  0  0  0
    0.7480   16.6850  -34.2070 O   0  0  0  0  0  0  0  0  0  0  0  0
    0.2770   19.1990  -33.4680 N   0  0  0  0  0  0  0  0  0  0  0  0
   -0.5250   18.9660  -32.2460 C   0  0  0  0  0  0  0  0  0  0  0  0
   -0.6810   20.2470  -31.4220 C   0  0  0  0  0  0  0  0  0  0  0  0
   -1.4310   21.3300  -32.2170 C   0  0  0  0  0  0  0  0  0  0  0  0
   -1.2810   21.1610  -33.7380 C   0  0  0  0  0  0  0  0  0  0  0  0
    0.0740   20.5310  -34.0940 C   0  0  0  0  0  0  0  0  0  0  0  0
   -2.6830   18.4620  -34.2330 C   0  0  0  0  0  0  0  0  0  0  0  0
   -3.9000   22.2930  -29.6900 C   0  0  0  0  0  0  0  0  0  0  0  0
   -3.2170   23.0803  -26.5812 H   0  0  0  0  0  0  0  0  0  0  0  0
   -2.3620   21.9145  -27.6474 H   0  0  0  0  0  0  0  0  0  0  0  0
   -1.8870   23.6469  -27.6474 H   0  0  0  0  0  0  0  0  0  0  0  0
   -4.2864   25.1650  -27.8705 H   0  0  0  0  0  0  0  0  0  0  0  0
   -6.2988   26.3007  -28.6847 H   0  0  0  0  0  0  0  0  0  0  0  0
   -5.5345   26.7723  -30.2403 H   0  0  0  0  0  0  0  0  0  0  0  0
   -7.0642   25.8308  -30.2403 H   0  0  0  0  0  0  0  0  0  0  0  0
   -6.2338   23.9675  -31.5459 H   0  0  0  0  0  0  0  0  0  0  0  0
   -7.3690   22.9327  -31.4365 H   0  0  0  0  0  0  0  0  0  0  0  0
   -9.8016   22.4076  -31.4975 H   0  0  0  0  0  0  0  0  0  0  0  0
  -10.5819   20.1738  -32.2786 H   0  0  0  0  0  0  0  0  0  0  0  0
   -8.9318   18.4710  -33.0424 H   0  0  0  0  0  0  0  0  0  0  0  0
   -4.8030   20.1040  -33.8530 H   0  0  0  0  0  0  0  0  0  0  0  0
   -5.5253   16.6197  -34.7094 H   0  0  0  0  0  0  0  0  0  0  0  0
   -3.8389   14.9576  -35.4857 H   0  0  0  0  0  0  0  0  0  0  0  0
   -1.5225   18.6049  -32.5370 H   0  0  0  0  0  0  0  0  0  0  0  0
   -0.0025   18.2208  -31.6282 H   0  0  0  0  0  0  0  0  0  0  0  0
   -1.2455   20.0183  -30.5060 H   0  0  0  0  0  0  0  0  0  0  0  0
    0.3211   20.6269  -31.1743 H   0  0  0  0  0  0  0  0  0  0  0  0
   -2.4995   21.2779  -31.9609 H   0  0  0  0  0  0  0  0  0  0  0  0
   -0.9945   22.3027  -31.9463 H   0  0  0  0  0  0  0  0  0  0  0  0
   -2.0876   20.5113  -34.1085 H   0  0  0  0  0  0  0  0  0  0  0  0
   -1.3382   22.1544  -34.2070 H   0  0  0  0  0  0  0  0  0  0  0  0
    0.1315   20.4173  -35.1866 H   0  0  0  0  0  0  0  0  0  0  0  0
    0.8588   21.1987  -33.7089 H   0  0  0  0  0  0  0  0  0  0  0  0
   -2.3548   19.4431  -33.8591 H   0  0  0  0  0  0  0  0  0  0  0  0
   -3.3251   21.3552  -29.6911 H   0  0  0  0  0  0  0  0  0  0  0  0
  1  2  1  0
  2  3  2  0
  3  4  1  0
  4  5  1  0
  4  6  2  0
  6  7  1  0
  7  8  1  0
  8  9  2  0
  8 10  2  0
  8 11  1  0
 11 12  2  0
 12 13  1  0
 13 14  2  0
 14 15  1  0
 15 16  2  0
 16 17  1  0
 17 18  2  0
 17 19  1  0
 19 20  1  0
 20 21  2  0
 21 22  1  0
 22 23  2  0
 23 24  1  0
 23 25  1  0
 25 26  1  0
 26 27  2  0
 26 28  2  0
 26 29  1  0
 29 30  1  0
 30 31  1  0
 31 32  1  0
 32 33  1  0
 33 34  1  0
 25 35  2  0
  7 36  2  0
 36  2  1  0
 16 11  1  0
 35 20  1  0
 34 29  1  0
  1 37  1  0
  1 38  1  0
  1 39  1  0
  3 40  1  0
  5 41  1  0
  5 42  1  0
  5 43  1  0
  6 44  1  0
 12 45  1  0
 13 46  1  0
 14 47  1  0
 15 48  1  0
 19 49  1  0
 21 50  1  0
 22 51  1  0
 30 52  1  0
 30 53  1  0
 31 54  1  0
 31 55  1  0
 32 56  1  0
 32 57  1  0
 33 58  1  0
 33 59  1  0
 34 60  1  0
 34 61  1  0
 35 62  1  0
 36 63  1  0
M  END
>  <UniqueID>  (49) 
48

>  <SMILES>  (49) 
Cc1cc(C)cc(S(=O)(=O)c2ccccc2C(=O)Nc2ccc(F)c(S(=O)(=O)N3CCCCC3)c2)c1

>  <Energy>  (49) 
83.142948138958

>  <Genealogy>  (49) 
Cc1cc(C)cc(S(=O)(=O)c2ccccc2C(=O)Nc2ccc(F)c(S(=O)(=O)N3CCCCC3)c2)c1 (3D coordinates assigned)
Cc1cc(C)cc(S(=O)(=O)c2ccccc2C(=O)Nc2ccc(F)c(S(=O)(=O)N3CCCCC3)c2)c1 (nonaromatic ring conformer: 83.142948138958 kcal/mol)

>  <smiles>  (49) 
Cc1cc(C)cc(S(=O)(=O)c2ccccc2C(=O)Nc2ccc(F)c(S(=O)(=O)N3CCCCC3)c2)c1

>  <score_type>  (49) 
oracle

>  <origin>  (49) 
adgpu

>  <m_score__min__energy>  (49) 
-11.25

>  <m_primary>  (49) 
energy

$$$$
