0:0
     RDKit          3D

 57 59  0  0  0  0  0  0  0  0999 V2000
   -6.4190   17.3820  -31.7560 C   0  0  0  0  0  0  0  0  0  0  0  0
   -7.2080   18.2470  -32.7650 C   0  0  2  0  0  0  0  0  0  0  0  0
   -6.3600   18.6420  -33.9220 N   0  0  0  0  0  0  0  0  0  0  0  0
   -5.0650   18.0220  -33.9690 C   0  0  0  0  0  0  0  0  0  0  0  0
   -3.7660   18.4890  -34.0790 C   0  0  0  0  0  0  0  0  0  0  0  0
   -3.1770   19.7900  -34.1760 N   0  0  0  0  0  0  0  0  0  0  0  0
   -3.2400   20.7690  -33.1270 C   0  0  0  0  0  0  0  0  0  0  0  0
   -2.1390   20.9360  -32.2740 C   0  0  0  0  0  0  0  0  0  0  0  0
   -2.1640   21.9040  -31.2670 C   0  0  0  0  0  0  0  0  0  0  0  0
   -3.2880   22.7240  -31.1040 C   0  0  0  0  0  0  0  0  0  0  0  0
   -3.3030   23.9640  -29.8530 S   0  0  0  0  0  0  0  0  0  0  0  0
   -3.8450   25.2480  -30.4180 O   0  0  0  0  0  0  0  0  0  0  0  0
   -4.2040   23.5170  -28.7360 O   0  0  0  0  0  0  0  0  0  0  0  0
   -1.6860   24.2050  -29.2410 N   0  0  0  0  0  0  0  0  0  0  0  0
   -1.6640   25.3450  -28.3070 C   0  0  0  0  0  0  0  0  0  0  0  0
   -0.3450   25.3810  -27.5090 C   0  0  0  0  0  0  0  0  0  0  0  0
    0.6270   24.5450  -28.1060 O   0  0  0  0  0  0  0  0  0  0  0  0
    0.2110   23.1940  -28.0260 C   0  0  0  0  0  0  0  0  0  0  0  0
   -1.2190   22.9840  -28.5690 C   0  0  0  0  0  0  0  0  0  0  0  0
   -4.3790   22.5810  -31.9720 C   0  0  0  0  0  0  0  0  0  0  0  0
   -4.3540   21.6140  -32.9820 C   0  0  0  0  0  0  0  0  0  0  0  0
   -3.3010   17.1850  -34.0970 C   0  0  0  0  0  0  0  0  0  0  0  0
   -2.1690   16.6420  -34.1830 O   0  0  0  0  0  0  0  0  0  0  0  0
   -4.5960   16.7200  -34.0220 C   0  0  0  0  0  0  0  0  0  0  0  0
   -5.1280   15.5790  -34.0180 O   0  0  0  0  0  0  0  0  0  0  0  0
   -8.0560   19.4130  -32.0980 C   0  0  0  0  0  0  0  0  0  0  0  0
   -7.0940   20.5130  -31.5830 C   0  0  0  0  0  0  0  0  0  0  0  0
   -9.0520   20.0890  -33.0710 C   0  0  0  0  0  0  0  0  0  0  0  0
   -8.8420   18.8930  -30.8730 C   0  0  0  0  0  0  0  0  0  0  0  0
   -6.6881   17.6770  -30.7310 H   0  0  0  0  0  0  0  0  0  0  0  0
   -6.6673   16.3214  -31.9094 H   0  0  0  0  0  0  0  0  0  0  0  0
   -5.3401   17.5319  -31.9094 H   0  0  0  0  0  0  0  0  0  0  0  0
   -7.9980   17.6114  -33.1915 H   0  0  0  0  0  0  0  0  0  0  0  0
   -6.8560   18.3800  -34.8050 H   0  0  0  0  0  0  0  0  0  0  0  0
   -6.2440   19.6780  -33.9600 H   0  0  0  0  0  0  0  0  0  0  0  0
   -2.6230   20.0060  -35.0330 H   0  0  0  0  0  0  0  0  0  0  0  0
   -1.2499   20.3005  -32.3988 H   0  0  0  0  0  0  0  0  0  0  0  0
   -1.2977   22.0227  -30.5995 H   0  0  0  0  0  0  0  0  0  0  0  0
   -1.7644   26.2798  -28.8781 H   0  0  0  0  0  0  0  0  0  0  0  0
   -2.4986   25.2339  -27.5991 H   0  0  0  0  0  0  0  0  0  0  0  0
    0.0335   26.4135  -27.4847 H   0  0  0  0  0  0  0  0  0  0  0  0
   -0.5408   25.0204  -26.4884 H   0  0  0  0  0  0  0  0  0  0  0  0
    0.9059   22.5753  -28.6129 H   0  0  0  0  0  0  0  0  0  0  0  0
    0.2118   22.9057  -26.9644 H   0  0  0  0  0  0  0  0  0  0  0  0
   -1.2172   22.1509  -29.2873 H   0  0  0  0  0  0  0  0  0  0  0  0
   -1.8931   22.7527  -27.7310 H   0  0  0  0  0  0  0  0  0  0  0  0
   -5.2584   23.2319  -31.8584 H   0  0  0  0  0  0  0  0  0  0  0  0
   -5.2098   21.5142  -33.6659 H   0  0  0  0  0  0  0  0  0  0  0  0
   -7.0933   20.5138  -30.4830 H   0  0  0  0  0  0  0  0  0  0  0  0
   -6.0768   20.3118  -31.9502 H   0  0  0  0  0  0  0  0  0  0  0  0
   -7.4290   21.4943  -31.9502 H   0  0  0  0  0  0  0  0  0  0  0  0
   -9.8274   20.6153  -32.4949 H   0  0  0  0  0  0  0  0  0  0  0  0
   -8.5138   20.8092  -33.7048 H   0  0  0  0  0  0  0  0  0  0  0  0
   -9.5226   19.3229  -33.7048 H   0  0  0  0  0  0  0  0  0  0  0  0
   -8.3429   19.2232  -29.9500 H   0  0  0  0  0  0  0  0  0  0  0  0
   -9.8668   19.2919  -30.8986 H   0  0  0  0  0  0  0  0  0  0  0  0
   -8.8757   17.7938  -30.8986 H   0  0  0  0  0  0  0  0  0  0  0  0
  1  2  1  0
  2  3  1  0
  3  4  1  0
  4  5  2  0
  5  6  1  0
  6  7  1  0
  7  8  2  0
  8  9  1  0
  9 10  2  0
 10 11  1  0
 11 12  2  0
 11 13  2  0
 11 14  1  0
 14 15  1  0
 15 16  1  0
 16 17  1  0
 17 18  1  0
 18 19  1  0
 10 20  1  0
 20 21  2  0
  5 22  1  0
 22 23  2  0
 22 24  1  0
 24 25  2  0
  2 26  1  0
 26 27  1  0
 26 28  1  0
 26 29  1  0
 24  4  1  0
 21  7  1  0
 19 14  1  0
  1 30  1  0
  1 31  1  0
  1 32  1  0
  2 33  1  6
  3 34  1  0
  3 35  1  0
  6 36  1  0
  8 37  1  0
  9 38  1  0
 15 39  1  0
 15 40  1  0
 16 41  1  0
 16 42  1  0
 18 43  1  0
 18 44  1  0
 19 45  1  0
 19 46  1  0
 20 47  1  0
 21 48  1  0
 27 49  1  0
 27 50  1  0
 27 51  1  0
 28 52  1  0
 28 53  1  0
 28 54  1  0
 29 55  1  0
 29 56  1  0
 29 57  1  0
M  CHG  1   3   1
M  END
>  <UniqueID>  (1) 
1

>  <SMILES>  (1) 
C[C@H]([NH2+]c1c(Nc2ccc(S(=O)(=O)N3CCOCC3)cc2)c(=O)c1=O)C(C)(C)C

>  <Energy>  (1) 
62.44440022512592

>  <Genealogy>  (1) 
CC([NH2+]c1c(Nc2ccc(S(=O)(=O)N3CCOCC3)cc2)c(=O)c1=O)C(C)(C)C (protonated)
C[C@H]([NH2+]c1c(Nc2ccc(S(=O)(=O)N3CCOCC3)cc2)c(=O)c1=O)C(C)(C)C (chirality)
C[C@H]([NH2+]c1c(Nc2ccc(S(=O)(=O)N3CCOCC3)cc2)c(=O)c1=O)C(C)(C)C (3D coordinates assigned)
C[C@H]([NH2+]c1c(Nc2ccc(S(=O)(=O)N3CCOCC3)cc2)c(=O)c1=O)C(C)(C)C (nonaromatic ring conformer: 62.44440022512592 kcal/mol)

>  <smiles>  (1) 
CC(Nc1c(Nc2ccc(S(=O)(=O)N3CCOCC3)cc2)c(=O)c1=O)C(C)(C)C

>  <score_type>  (1) 
oracle

>  <origin>  (1) 
adgpu

>  <m_score__min__energy>  (1) 
-8.9399999999999995

>  <m_primary>  (1) 
energy

$$$$
1:0
     RDKit          3D

 59 62  0  0  0  0  0  0  0  0999 V2000
   -6.8320   25.1130  -29.7240 C   0  0  0  0  0  0  0  0  0  0  0  0
   -5.6530   24.2000  -29.9390 C   0  0  0  0  0  0  0  0  0  0  0  0
   -4.4250   24.5240  -29.3340 C   0  0  0  0  0  0  0  0  0  0  0  0
   -3.2960   23.7060  -29.5070 C   0  0  0  0  0  0  0  0  0  0  0  0
   -1.9990   24.0690  -28.8810 C   0  0  0  0  0  0  0  0  0  0  0  0
   -0.8110   23.4460  -29.2890 C   0  0  0  0  0  0  0  0  0  0  0  0
    0.3960   23.7990  -28.6860 C   0  0  0  0  0  0  0  0  0  0  0  0
    0.4200   24.7410  -27.7090 N   0  0  0  0  0  0  0  0  0  0  0  0
   -0.7080   25.3760  -27.2810 C   0  0  0  0  0  0  0  0  0  0  0  0
   -0.6170   26.3680  -26.2340 N   0  0  0  0  0  0  0  0  0  0  0  0
   -0.7920   27.7910  -26.5500 C   0  0  0  0  0  0  0  0  0  0  0  0
    0.0770   28.6430  -25.6150 C   0  0  0  0  0  0  0  0  0  0  0  0
   -0.1240   28.3510  -24.1790 N   0  0  0  0  0  0  0  0  0  0  0  0
   -0.8830   27.1210  -23.8950 C   0  0  0  0  0  0  0  0  0  0  0  0
   -0.4860   25.9700  -24.8260 C   0  0  0  0  0  0  0  0  0  0  0  0
   -1.9420   25.0400  -27.8660 C   0  0  0  0  0  0  0  0  0  0  0  0
   -3.4100   22.5450  -30.2850 C   0  0  0  0  0  0  0  0  0  0  0  0
   -4.6260   22.2050  -30.8770 C   0  0  0  0  0  0  0  0  0  0  0  0
   -5.7560   23.0190  -30.7120 C   0  0  0  0  0  0  0  0  0  0  0  0
   -7.2630   22.5530  -31.5140 S   0  0  0  0  0  0  0  0  0  0  0  0
   -7.9900   23.7860  -31.9690 O   0  0  0  0  0  0  0  0  0  0  0  0
   -8.1560   21.8070  -30.5630 O   0  0  0  0  0  0  0  0  0  0  0  0
   -6.9290   21.5440  -32.8800 N   0  0  0  0  0  0  0  0  0  0  0  0
   -6.9710   20.1240  -32.7430 C   0  0  0  0  0  0  0  0  0  0  0  0
   -8.0790   19.3300  -32.5140 C   0  0  0  0  0  0  0  0  0  0  0  0
   -9.4920   19.7790  -32.3380 C   0  0  0  0  0  0  0  0  0  0  0  0
   -7.6950   18.0360  -32.4930 N   0  0  0  0  0  0  0  0  0  0  0  0
   -6.3830   18.0000  -32.6850 N   0  0  0  0  0  0  0  0  0  0  0  0
   -5.6110   16.7640  -32.7370 C   0  0  0  0  0  0  0  0  0  0  0  0
   -5.9030   19.2550  -32.8210 C   0  0  0  0  0  0  0  0  0  0  0  0
   -4.4830   19.6110  -33.1430 C   0  0  0  0  0  0  0  0  0  0  0  0
   -7.0019   25.2446  -28.6452 H   0  0  0  0  0  0  0  0  0  0  0  0
   -6.6275   26.0906  -30.1849 H   0  0  0  0  0  0  0  0  0  0  0  0
   -7.7274   24.6704  -30.1849 H   0  0  0  0  0  0  0  0  0  0  0  0
   -4.3476   25.4310  -28.7165 H   0  0  0  0  0  0  0  0  0  0  0  0
   -0.8309   22.6826  -30.0807 H   0  0  0  0  0  0  0  0  0  0  0  0
    1.3306   23.3130  -29.0028 H   0  0  0  0  0  0  0  0  0  0  0  0
   -0.4928   27.9728  -27.5928 H   0  0  0  0  0  0  0  0  0  0  0  0
   -1.8484   28.0656  -26.4137 H   0  0  0  0  0  0  0  0  0  0  0  0
    1.1333   28.4598  -25.8612 H   0  0  0  0  0  0  0  0  0  0  0  0
   -0.2174   29.6912  -25.7721 H   0  0  0  0  0  0  0  0  0  0  0  0
    0.8140   28.2700  -23.7210 H   0  0  0  0  0  0  0  0  0  0  0  0
   -0.6912   26.8181  -22.8550 H   0  0  0  0  0  0  0  0  0  0  0  0
   -1.9494   27.3360  -24.0582 H   0  0  0  0  0  0  0  0  0  0  0  0
    0.5586   25.6889  -24.6265 H   0  0  0  0  0  0  0  0  0  0  0  0
   -1.1550   25.1175  -24.6372 H   0  0  0  0  0  0  0  0  0  0  0  0
   -2.8634   25.5374  -27.5290 H   0  0  0  0  0  0  0  0  0  0  0  0
   -2.5329   21.8970  -30.4296 H   0  0  0  0  0  0  0  0  0  0  0  0
   -4.6997   21.2881  -31.4801 H   0  0  0  0  0  0  0  0  0  0  0  0
   -7.0910   21.9510  -33.8270 H   0  0  0  0  0  0  0  0  0  0  0  0
   -9.7225   19.8522  -31.2649 H   0  0  0  0  0  0  0  0  0  0  0  0
   -9.6253   20.7637  -32.8097 H   0  0  0  0  0  0  0  0  0  0  0  0
  -10.1693   19.0518  -32.8097 H   0  0  0  0  0  0  0  0  0  0  0  0
   -5.3973   16.4218  -31.7136 H   0  0  0  0  0  0  0  0  0  0  0  0
   -6.1884   15.9931  -33.2683 H   0  0  0  0  0  0  0  0  0  0  0  0
   -4.6649   16.9447  -33.2683 H   0  0  0  0  0  0  0  0  0  0  0  0
   -3.9195   19.7523  -32.2089 H   0  0  0  0  0  0  0  0  0  0  0  0
   -4.0253   18.7998  -33.7282 H   0  0  0  0  0  0  0  0  0  0  0  0
   -4.4621   20.5422  -33.7282 H   0  0  0  0  0  0  0  0  0  0  0  0
  1  2  1  0
  2  3  2  0
  3  4  1  0
  4  5  1  0
  5  6  2  0
  6  7  1  0
  7  8  2  0
  8  9  1  0
  9 10  1  0
 10 11  1  0
 11 12  1  0
 12 13  1  0
 13 14  1  0
 14 15  1  0
  9 16  2  0
  4 17  2  0
 17 18  1  0
 18 19  2  0
 19 20  1  0
 20 21  2  0
 20 22  2  0
 20 23  1  0
 23 24  1  0
 24 25  1  0
 25 26  1  0
 25 27  2  0
 27 28  1  0
 28 29  1  0
 28 30  1  0
 30 31  1  0
 19  2  1  0
 30 24  2  0
 16  5  1  0
 15 10  1  0
  1 32  1  0
  1 33  1  0
  1 34  1  0
  3 35  1  0
  6 36  1  0
  7 37  1  0
 11 38  1  0
 11 39  1  0
 12 40  1  0
 12 41  1  0
 13 42  1  0
 14 43  1  0
 14 44  1  0
 15 45  1  0
 15 46  1  0
 16 47  1  0
 17 48  1  0
 18 49  1  0
 23 50  1  0
 26 51  1  0
 26 52  1  0
 26 53  1  0
 29 54  1  0
 29 55  1  0
 29 56  1  0
 31 57  1  0
 31 58  1  0
 31 59  1  0
M  END
>  <UniqueID>  (2) 
2

>  <SMILES>  (2) 
Cc1cc(-c2ccnc(N3CCNCC3)c2)ccc1S(=O)(=O)Nc1c(C)nn(C)c1C

>  <Energy>  (2) 
110.41634085840575

>  <Genealogy>  (2) 
Cc1cc(-c2ccnc(N3CCNCC3)c2)ccc1S(=O)(=O)Nc1c(C)nn(C)c1C (3D coordinates assigned)
Cc1cc(-c2ccnc(N3CCNCC3)c2)ccc1S(=O)(=O)Nc1c(C)nn(C)c1C (nonaromatic ring conformer: 110.41634085840575 kcal/mol)

>  <smiles>  (2) 
Cc1cc(-c2ccnc(N3CCNCC3)c2)ccc1S(=O)(=O)Nc1c(C)nn(C)c1C

>  <score_type>  (2) 
oracle

>  <origin>  (2) 
adgpu

>  <m_score__min__energy>  (2) 
-9.9800000000000004

>  <m_primary>  (2) 
energy

$$$$
2:0
     RDKit          3D

 38 40  0  0  0  0  0  0  0  0999 V2000
   -1.2170   21.4920  -27.1000 C   0  0  0  0  0  0  0  0  0  0  0  0
   -1.8740   22.5380  -27.9630 C   0  0  0  0  0  0  0  0  0  0  0  0
   -2.9590   22.1550  -28.7650 C   0  0  0  0  0  0  0  0  0  0  0  0
   -3.6020   23.0800  -29.5840 C   0  0  0  0  0  0  0  0  0  0  0  0
   -3.1860   24.4110  -29.6120 C   0  0  0  0  0  0  0  0  0  0  0  0
   -3.8690   25.3200  -30.4870 N   0  0  0  0  0  0  0  0  0  0  0  0
   -5.2520   25.2420  -30.8440 C   0  0  0  0  0  0  0  0  0  0  0  0
   -6.1260   25.8040  -30.1280 O   0  0  0  0  0  0  0  0  0  0  0  0
   -5.6360   24.4400  -31.9660 N   0  0  0  0  0  0  0  0  0  0  0  0
   -6.5100   23.3030  -31.9390 C   0  0  0  0  0  0  0  0  0  0  0  0
   -5.9960   22.0440  -32.2700 C   0  0  0  0  0  0  0  0  0  0  0  0
   -6.8280   20.9240  -32.2710 C   0  0  0  0  0  0  0  0  0  0  0  0
   -8.1790   21.0770  -31.9570 C   0  0  0  0  0  0  0  0  0  0  0  0
   -8.6750   22.3100  -31.6650 N   0  0  0  0  0  0  0  0  0  0  0  0
   -7.8820   23.4150  -31.6530 C   0  0  0  0  0  0  0  0  0  0  0  0
   -2.0760   24.8090  -28.8410 C   0  0  0  0  0  0  0  0  0  0  0  0
   -1.5850   26.1040  -28.9690 O   0  0  0  0  0  0  0  0  0  0  0  0
   -1.4390   23.8900  -27.9760 C   0  0  0  0  0  0  0  0  0  0  0  0
   -0.0690   24.4260  -26.9680 S   0  0  0  0  0  0  0  0  0  0  0  0
    0.3280   23.3420  -26.0050 O   0  0  0  0  0  0  0  0  0  0  0  0
    1.1190   24.6960  -27.8480 O   0  0  0  0  0  0  0  0  0  0  0  0
   -0.4330   25.9140  -26.0300 C   0  0  0  0  0  0  0  0  0  0  0  0
   -0.8310   25.6440  -24.5870 C   0  0  0  0  0  0  0  0  0  0  0  0
   -1.8750   26.1170  -25.5850 C   0  0  0  0  0  0  0  0  0  0  0  0
   -1.3731   21.7405  -26.0399 H   0  0  0  0  0  0  0  0  0  0  0  0
   -1.6597   20.5083  -27.3151 H   0  0  0  0  0  0  0  0  0  0  0  0
   -0.1386   21.4637  -27.3151 H   0  0  0  0  0  0  0  0  0  0  0  0
   -3.3063   21.1114  -28.7469 H   0  0  0  0  0  0  0  0  0  0  0  0
   -4.4446   22.7583  -30.2137 H   0  0  0  0  0  0  0  0  0  0  0  0
   -4.9326   21.9372  -32.5302 H   0  0  0  0  0  0  0  0  0  0  0  0
   -6.4233   19.9311  -32.5167 H   0  0  0  0  0  0  0  0  0  0  0  0
   -8.8434   20.2004  -31.9455 H   0  0  0  0  0  0  0  0  0  0  0  0
   -8.3152   24.3987  -31.4190 H   0  0  0  0  0  0  0  0  0  0  0  0
    0.2983   26.5483  -26.5524 H   0  0  0  0  0  0  0  0  0  0  0  0
   -0.8601   24.6115  -24.2088 H   0  0  0  0  0  0  0  0  0  0  0  0
   -0.4794   25.9941  -23.6053 H   0  0  0  0  0  0  0  0  0  0  0  0
   -2.6592   25.4268  -25.9293 H   0  0  0  0  0  0  0  0  0  0  0  0
   -2.5914   26.9508  -25.6250 H   0  0  0  0  0  0  0  0  0  0  0  0
  1  2  1  0
  2  3  2  0
  3  4  1  0
  4  5  2  0
  5  6  1  0
  6  7  1  0
  7  8  2  0
  7  9  1  0
  9 10  1  0
 10 11  2  0
 11 12  1  0
 12 13  2  0
 13 14  1  0
 14 15  2  0
  5 16  1  0
 16 17  1  0
 16 18  2  0
 18 19  1  0
 19 20  2  0
 19 21  2  0
 19 22  1  0
 22 23  1  0
 23 24  1  0
 18  2  1  0
 24 22  1  0
 15 10  1  0
  1 25  1  0
  1 26  1  0
  1 27  1  0
  3 28  1  0
  4 29  1  0
 11 30  1  0
 12 31  1  0
 13 32  1  0
 15 33  1  0
 22 34  1  0
 23 35  1  0
 23 36  1  0
 24 37  1  0
 24 38  1  0
M  CHG  3   6  -1   9  -1  17  -1
M  END
>  <UniqueID>  (3) 
3

>  <SMILES>  (3) 
Cc1ccc([N-]C(=O)[N-]c2cccnc2)c([O-])c1S(=O)(=O)C1CC1

>  <Energy>  (3) 
315.6625725132377

>  <Genealogy>  (3) 
Cc1ccc([N-]C(=O)[N-]c2cccnc2)c([O-])c1S(=O)(=O)C1CC1 (protonated)
Cc1ccc([N-]C(=O)[N-]c2cccnc2)c([O-])c1S(=O)(=O)C1CC1 (3D coordinates assigned)
Cc1ccc([N-]C(=O)[N-]c2cccnc2)c([O-])c1S(=O)(=O)C1CC1 (nonaromatic ring conformer: 315.6625725132377 kcal/mol)

>  <smiles>  (3) 
Cc1ccc(NC(=O)Nc2cccnc2)c(O)c1S(=O)(=O)C1CC1

>  <score_type>  (3) 
oracle

>  <origin>  (3) 
adgpu

>  <m_score__min__energy>  (3) 
-13.9

>  <m_primary>  (3) 
energy

$$$$
3:0
     RDKit          3D

 65 68  0  0  0  0  0  0  0  0999 V2000
   -8.9320   20.5240  -31.9870 C   0  0  0  0  0  0  0  0  0  0  0  0
   -7.7150   21.1930  -32.2990 O   0  0  0  0  0  0  0  0  0  0  0  0
   -6.5490   20.5550  -32.7520 C   0  0  0  0  0  0  0  0  0  0  0  0
   -6.5680   19.2430  -33.2640 C   0  0  0  0  0  0  0  0  0  0  0  0
   -5.3820   18.6220  -33.6910 C   0  0  0  0  0  0  0  0  0  0  0  0
   -5.4060   17.2810  -34.2220 N   0  0  0  0  0  0  0  0  0  0  0  0
   -4.3120   16.7700  -35.0540 C   0  0  0  0  0  0  0  0  0  0  0  0
   -3.7640   15.4540  -34.4680 C   0  0  0  0  0  0  0  0  0  0  0  0
   -4.7840   14.6370  -33.7600 N   0  0  0  0  0  0  0  0  0  0  0  0
   -4.6380   14.7230  -32.2970 C   0  0  0  0  0  0  0  0  0  0  0  0
   -6.1680   14.9280  -34.1920 C   0  0  0  0  0  0  0  0  0  0  0  0
   -6.5480   16.3990  -33.9500 C   0  0  0  0  0  0  0  0  0  0  0  0
   -4.1730   19.3290  -33.6090 C   0  0  0  0  0  0  0  0  0  0  0  0
   -4.1470   20.6300  -33.1080 C   0  0  0  0  0  0  0  0  0  0  0  0
   -5.3360   21.2590  -32.6980 C   0  0  0  0  0  0  0  0  0  0  0  0
   -5.3270   22.5900  -32.1520 N   0  0  0  0  0  0  0  0  0  0  0  0
   -4.4650   23.0700  -31.3030 C   0  0  0  0  0  0  0  0  0  0  0  0
   -3.3870   22.3410  -30.9030 N   0  0  0  0  0  0  0  0  0  0  0  0
   -2.4690   22.8540  -30.0450 C   0  0  0  0  0  0  0  0  0  0  0  0
   -2.6060   24.1640  -29.5650 C   0  0  0  0  0  0  0  0  0  0  0  0
   -1.5970   24.7350  -28.6420 C   0  0  0  0  0  0  0  0  0  0  0  0
   -0.3730   24.5460  -28.8790 O   0  0  0  0  0  0  0  0  0  0  0  0
   -1.9880   25.5150  -27.4990 N   0  0  0  0  0  0  0  0  0  0  0  0
   -1.0170   26.2200  -26.6650 C   0  0  0  0  0  0  0  0  0  0  0  0
   -0.1870   25.2240  -25.9030 C   0  0  0  0  0  0  0  0  0  0  0  0
   -0.7840   24.0750  -25.3600 C   0  0  0  0  0  0  0  0  0  0  0  0
   -0.0240   23.1730  -24.6130 C   0  0  0  0  0  0  0  0  0  0  0  0
    1.3340   23.4190  -24.3860 C   0  0  0  0  0  0  0  0  0  0  0  0
    1.9360   24.5740  -24.9020 C   0  0  0  0  0  0  0  0  0  0  0  0
    3.6450   24.8830  -24.6160 S   0  0  0  0  0  0  0  0  0  0  0  0
    3.9490   26.6330  -24.7040 C   0  0  0  0  0  0  0  0  0  0  0  0
    4.4720   24.1750  -25.6530 O   0  0  0  0  0  0  0  0  0  0  0  0
    4.0350   24.3720  -23.2570 O   0  0  0  0  0  0  0  0  0  0  0  0
    1.1750   25.4720  -25.6640 C   0  0  0  0  0  0  0  0  0  0  0  0
   -3.7270   24.8950  -29.9880 C   0  0  0  0  0  0  0  0  0  0  0  0
   -4.6210   24.3390  -30.8450 N   0  0  0  0  0  0  0  0  0  0  0  0
   -9.0463   20.4612  -30.8948 H   0  0  0  0  0  0  0  0  0  0  0  0
   -9.7778   21.0840  -32.4126 H   0  0  0  0  0  0  0  0  0  0  0  0
   -8.9125   19.5098  -32.4126 H   0  0  0  0  0  0  0  0  0  0  0  0
   -7.5215   18.6986  -33.3303 H   0  0  0  0  0  0  0  0  0  0  0  0
   -4.6858   16.5860  -36.0720 H   0  0  0  0  0  0  0  0  0  0  0  0
   -3.5031   17.5150  -35.0785 H   0  0  0  0  0  0  0  0  0  0  0  0
   -3.3511   14.8537  -35.2921 H   0  0  0  0  0  0  0  0  0  0  0  0
   -3.0034   15.7297  -33.7227 H   0  0  0  0  0  0  0  0  0  0  0  0
   -5.4893   14.2215  -31.8135 H   0  0  0  0  0  0  0  0  0  0  0  0
   -3.7020   14.2320  -31.9924 H   0  0  0  0  0  0  0  0  0  0  0  0
   -4.6137   15.7797  -31.9924 H   0  0  0  0  0  0  0  0  0  0  0  0
   -6.2584   14.7096  -35.2663 H   0  0  0  0  0  0  0  0  0  0  0  0
   -6.8489   14.2986  -33.6003 H   0  0  0  0  0  0  0  0  0  0  0  0
   -7.3809   16.6710  -34.6151 H   0  0  0  0  0  0  0  0  0  0  0  0
   -6.8453   16.5192  -32.8978 H   0  0  0  0  0  0  0  0  0  0  0  0
   -3.2388   18.8535  -33.9424 H   0  0  0  0  0  0  0  0  0  0  0  0
   -3.1903   21.1677  -33.0330 H   0  0  0  0  0  0  0  0  0  0  0  0
   -1.6144   22.2397  -29.7251 H   0  0  0  0  0  0  0  0  0  0  0  0
   -2.9920   25.7650  -27.3630 H   0  0  0  0  0  0  0  0  0  0  0  0
   -0.3613   26.8304  -27.3034 H   0  0  0  0  0  0  0  0  0  0  0  0
   -1.5497   26.8698  -25.9551 H   0  0  0  0  0  0  0  0  0  0  0  0
   -1.8550   23.8847  -25.5238 H   0  0  0  0  0  0  0  0  0  0  0  0
   -0.4941   22.2673  -24.2023 H   0  0  0  0  0  0  0  0  0  0  0  0
    1.9308   22.7038  -23.8009 H   0  0  0  0  0  0  0  0  0  0  0  0
    4.0205   27.0444  -23.6863 H   0  0  0  0  0  0  0  0  0  0  0  0
    4.8922   26.8148  -25.2401 H   0  0  0  0  0  0  0  0  0  0  0  0
    3.1224   27.1223  -25.2401 H   0  0  0  0  0  0  0  0  0  0  0  0
    1.6471   26.3757  -26.0769 H   0  0  0  0  0  0  0  0  0  0  0  0
   -3.8816   25.9215  -29.6240 H   0  0  0  0  0  0  0  0  0  0  0  0
  1  2  1  0
  2  3  1  0
  3  4  2  0
  4  5  1  0
  5  6  1  0
  6  7  1  0
  7  8  1  0
  8  9  1  0
  9 10  1  0
  9 11  1  0
 11 12  1  0
  5 13  2  0
 13 14  1  0
 14 15  2  0
 15 16  1  0
 16 17  2  3
 17 18  1  0
 18 19  2  0
 19 20  1  0
 20 21  1  0
 21 22  2  0
 21 23  1  0
 23 24  1  0
 24 25  1  0
 25 26  2  0
 26 27  1  0
 27 28  2  0
 28 29  1  0
 29 30  1  0
 30 31  1  0
 30 32  2  0
 30 33  2  0
 29 34  2  0
 20 35  2  0
 35 36  1  0
 15  3  1  0
 36 17  1  0
 12  6  1  0
 34 25  1  0
  1 37  1  0
  1 38  1  0
  1 39  1  0
  4 40  1  0
  7 41  1  0
  7 42  1  0
  8 43  1  0
  8 44  1  0
 10 45  1  0
 10 46  1  0
 10 47  1  0
 11 48  1  0
 11 49  1  0
 12 50  1  0
 12 51  1  0
 13 52  1  0
 14 53  1  0
 19 54  1  0
 23 55  1  0
 24 56  1  0
 24 57  1  0
 26 58  1  0
 27 59  1  0
 28 60  1  0
 31 61  1  0
 31 62  1  0
 31 63  1  0
 34 64  1  0
 35 65  1  0
M  CHG  1  36  -1
M  END
>  <UniqueID>  (4) 
4

>  <SMILES>  (4) 
COc1cc(N2CCN(C)CC2)ccc1N=c1ncc(C(=O)NCc2cccc(S(C)(=O)=O)c2)c[n-]1

>  <Energy>  (4) 
84.04249940050956

>  <Genealogy>  (4) 
COc1cc(N2CCN(C)CC2)ccc1N=c1ncc(C(=O)NCc2cccc(S(C)(=O)=O)c2)c[n-]1 (protonated)
COc1cc(N2CCN(C)CC2)ccc1N=c1ncc(C(=O)NCc2cccc(S(C)(=O)=O)c2)c[n-]1 (3D coordinates assigned)
COc1cc(N2CCN(C)CC2)ccc1N=c1ncc(C(=O)NCc2cccc(S(C)(=O)=O)c2)c[n-]1 (nonaromatic ring conformer: 84.04249940050956 kcal/mol)

>  <smiles>  (4) 
COc1cc(N2CCN(C)CC2)ccc1N=c1ncc(C(=O)NCc2cccc(S(C)(=O)=O)c2)c[nH]1

>  <score_type>  (4) 
oracle

>  <origin>  (4) 
adgpu

>  <m_score__min__energy>  (4) 
-10.779999999999999

>  <m_primary>  (4) 
energy

$$$$
4:0
     RDKit          3D

 40 42  0  0  0  0  0  0  0  0999 V2000
   -3.4790   25.2990  -30.7720 O   0  0  0  0  0  0  0  0  0  0  0  0
   -3.5930   24.5450  -29.7660 C   0  0  0  0  0  0  0  0  0  0  0  0
   -4.7360   23.6940  -29.6440 N   0  0  0  0  0  0  0  0  0  0  0  0
   -6.1150   23.8380  -30.6800 S   0  0  0  0  0  0  0  0  0  0  0  0
   -7.1370   24.6910  -29.9790 O   0  0  0  0  0  0  0  0  0  0  0  0
   -5.7230   24.5350  -31.9510 O   0  0  0  0  0  0  0  0  0  0  0  0
   -6.7960   22.2460  -31.0620 C   0  0  0  0  0  0  0  0  0  0  0  0
   -8.0930   21.9660  -30.5970 C   0  0  0  0  0  0  0  0  0  0  0  0
   -8.6980   20.7370  -30.8560 C   0  0  0  0  0  0  0  0  0  0  0  0
   -8.0200   19.7650  -31.5860 C   0  0  0  0  0  0  0  0  0  0  0  0
   -8.7780   18.2150  -31.9030 Cl  0  0  0  0  0  0  0  0  0  0  0  0
   -6.7350   20.0240  -32.0640 C   0  0  0  0  0  0  0  0  0  0  0  0
   -6.1060   21.2580  -31.8200 C   0  0  0  0  0  0  0  0  0  0  0  0
   -4.4560   21.4590  -32.4510 S   0  0  0  0  0  0  0  0  0  0  0  0
   -4.1710   20.3580  -33.4350 O   0  0  0  0  0  0  0  0  0  0  0  0
   -4.3210   22.7670  -33.1750 O   0  0  0  0  0  0  0  0  0  0  0  0
   -3.2610   21.3620  -31.1590 C   0  0  0  0  0  0  0  0  0  0  0  0
   -1.9510   21.8270  -31.3560 C   0  0  0  0  0  0  0  0  0  0  0  0
   -1.0240   21.7800  -30.3110 C   0  0  0  0  0  0  0  0  0  0  0  0
   -1.4010   21.2810  -29.0600 C   0  0  0  0  0  0  0  0  0  0  0  0
   -0.2380   21.2280  -27.7480 Cl  0  0  0  0  0  0  0  0  0  0  0  0
   -2.7080   20.8250  -28.8570 C   0  0  0  0  0  0  0  0  0  0  0  0
   -3.6340   20.8640  -29.9030 C   0  0  0  0  0  0  0  0  0  0  0  0
   -2.5530   24.5500  -28.7140 C   0  0  0  0  0  0  0  0  0  0  0  0
   -2.8750   24.2440  -27.3800 C   0  0  0  0  0  0  0  0  0  0  0  0
   -1.8830   24.2600  -26.3990 C   0  0  0  0  0  0  0  0  0  0  0  0
   -0.5720   24.5780  -26.7550 C   0  0  0  0  0  0  0  0  0  0  0  0
   -0.2700   24.8690  -28.0470 N   0  0  0  0  0  0  0  0  0  0  0  0
   -1.2170   24.8620  -29.0230 C   0  0  0  0  0  0  0  0  0  0  0  0
   -8.6383   22.7277  -30.0205 H   0  0  0  0  0  0  0  0  0  0  0  0
   -9.7129   20.5351  -30.4828 H   0  0  0  0  0  0  0  0  0  0  0  0
   -6.2057   19.2511  -32.6406 H   0  0  0  0  0  0  0  0  0  0  0  0
   -1.6533   22.2294  -32.3355 H   0  0  0  0  0  0  0  0  0  0  0  0
    0.0041   22.1362  -30.4728 H   0  0  0  0  0  0  0  0  0  0  0  0
   -3.0071   20.4353  -27.8728 H   0  0  0  0  0  0  0  0  0  0  0  0
   -4.6600   20.5023  -29.7399 H   0  0  0  0  0  0  0  0  0  0  0  0
   -3.9108   23.9915  -27.1093 H   0  0  0  0  0  0  0  0  0  0  0  0
   -2.1324   24.0239  -25.3540 H   0  0  0  0  0  0  0  0  0  0  0  0
    0.2174   24.5931  -25.9891 H   0  0  0  0  0  0  0  0  0  0  0  0
   -0.9366   25.1016  -30.0593 H   0  0  0  0  0  0  0  0  0  0  0  0
  1  2  2  0
  2  3  1  0
  3  4  1  0
  4  5  2  0
  4  6  2  0
  4  7  1  0
  7  8  2  0
  8  9  1  0
  9 10  2  0
 10 11  1  0
 10 12  1  0
 12 13  2  0
 13 14  1  0
 14 15  2  0
 14 16  2  0
 14 17  1  0
 17 18  2  0
 18 19  1  0
 19 20  2  0
 20 21  1  0
 20 22  1  0
 22 23  2  0
  2 24  1  0
 24 25  2  0
 25 26  1  0
 26 27  2  0
 27 28  1  0
 28 29  2  0
 13  7  1  0
 23 17  1  0
 29 24  1  0
  8 30  1  0
  9 31  1  0
 12 32  1  0
 18 33  1  0
 19 34  1  0
 22 35  1  0
 23 36  1  0
 25 37  1  0
 26 38  1  0
 27 39  1  0
 29 40  1  0
M  CHG  1   3  -1
M  END
>  <UniqueID>  (5) 
5

>  <SMILES>  (5) 
O=C([N-]S(=O)(=O)c1ccc(Cl)cc1S(=O)(=O)c1ccc(Cl)cc1)c1cccnc1

>  <Energy>  (5) 
47.38587954828348

>  <Genealogy>  (5) 
O=C([N-]S(=O)(=O)c1ccc(Cl)cc1S(=O)(=O)c1ccc(Cl)cc1)c1cccnc1 (protonated)
O=C([N-]S(=O)(=O)c1ccc(Cl)cc1S(=O)(=O)c1ccc(Cl)cc1)c1cccnc1 (3D coordinates assigned)
O=C([N-]S(=O)(=O)c1ccc(Cl)cc1S(=O)(=O)c1ccc(Cl)cc1)c1cccnc1 (optimized conformer: 47.38587954828348 kcal/mol)

>  <smiles>  (5) 
O=C(NS(=O)(=O)c1ccc(Cl)cc1S(=O)(=O)c1ccc(Cl)cc1)c1cccnc1

>  <score_type>  (5) 
oracle

>  <origin>  (5) 
adgpu

>  <m_score__min__energy>  (5) 
-10.710000000000001

>  <m_primary>  (5) 
energy

$$$$
5:0
     RDKit          3D

 45 47  0  0  0  0  0  0  0  0999 V2000
   -0.5360   19.0560  -27.7510 C   0  0  0  0  0  0  0  0  0  0  0  0
   -1.9650   19.7330  -26.9370 S   0  0  0  0  0  0  0  0  0  0  0  0
   -1.5470   20.4000  -25.6570 O   0  0  0  0  0  0  0  0  0  0  0  0
   -2.9290   18.6270  -26.6100 O   0  0  0  0  0  0  0  0  0  0  0  0
   -2.7390   20.9070  -27.9960 C   0  0  0  0  0  0  0  0  0  0  0  0
   -2.8370   20.6600  -29.3730 C   0  0  0  0  0  0  0  0  0  0  0  0
   -3.4390   21.5990  -30.2150 C   0  0  0  0  0  0  0  0  0  0  0  0
   -3.9420   22.7970  -29.6900 C   0  0  0  0  0  0  0  0  0  0  0  0
   -4.7280   23.9770  -30.7370 S   0  0  0  0  0  0  0  0  0  0  0  0
   -3.8760   25.2150  -30.7800 O   0  0  0  0  0  0  0  0  0  0  0  0
   -4.8310   23.4350  -32.1350 O   0  0  0  0  0  0  0  0  0  0  0  0
   -6.3110   24.4070  -30.1500 N   0  0  0  0  0  0  0  0  0  0  0  0
   -7.2470   23.2720  -30.1490 C   0  0  0  0  0  0  0  0  0  0  0  0
   -7.8580   22.9700  -31.5310 C   0  0  0  0  0  0  0  0  0  0  0  0
   -7.7940   21.5040  -31.8740 C   0  0  0  0  0  0  0  0  0  0  0  0
   -8.7470   20.6070  -31.3570 C   0  0  0  0  0  0  0  0  0  0  0  0
   -8.6710   19.2430  -31.6580 C   0  0  0  0  0  0  0  0  0  0  0  0
   -7.6420   18.7670  -32.4730 C   0  0  0  0  0  0  0  0  0  0  0  0
   -6.7070   19.6560  -33.0170 C   0  0  0  0  0  0  0  0  0  0  0  0
   -6.7710   21.0170  -32.7070 C   0  0  0  0  0  0  0  0  0  0  0  0
   -5.7140   19.1620  -33.8680 O   0  0  0  0  0  0  0  0  0  0  0  0
   -5.7950   17.8410  -34.4090 C   0  0  0  0  0  0  0  0  0  0  0  0
   -6.3440   16.8690  -33.3570 C   0  0  0  0  0  0  0  0  0  0  0  0
   -7.5300   17.4030  -32.7600 O   0  0  0  0  0  0  0  0  0  0  0  0
   -3.8410   23.0450  -28.3150 C   0  0  0  0  0  0  0  0  0  0  0  0
   -3.2390   22.1060  -27.4720 C   0  0  0  0  0  0  0  0  0  0  0  0
    0.1876   18.7132  -26.9967 H   0  0  0  0  0  0  0  0  0  0  0  0
   -0.8404   18.2064  -28.3799 H   0  0  0  0  0  0  0  0  0  0  0  0
   -0.0713   19.8297  -28.3799 H   0  0  0  0  0  0  0  0  0  0  0  0
   -2.4387   19.7240  -29.7917 H   0  0  0  0  0  0  0  0  0  0  0  0
   -3.5183   21.3971  -31.2934 H   0  0  0  0  0  0  0  0  0  0  0  0
   -6.6830   25.1850  -30.7380 H   0  0  0  0  0  0  0  0  0  0  0  0
   -6.7072   22.3773  -29.8052 H   0  0  0  0  0  0  0  0  0  0  0  0
   -8.0791   23.5429  -29.4825 H   0  0  0  0  0  0  0  0  0  0  0  0
   -8.9111   23.2878  -31.5298 H   0  0  0  0  0  0  0  0  0  0  0  0
   -7.2749   23.5189  -32.2851 H   0  0  0  0  0  0  0  0  0  0  0  0
   -9.5564   20.9805  -30.7125 H   0  0  0  0  0  0  0  0  0  0  0  0
   -9.4204   18.5468  -31.2534 H   0  0  0  0  0  0  0  0  0  0  0  0
   -6.0196   21.7089  -33.1154 H   0  0  0  0  0  0  0  0  0  0  0  0
   -6.4639   17.8466  -35.2823 H   0  0  0  0  0  0  0  0  0  0  0  0
   -4.7883   17.5140  -34.7083 H   0  0  0  0  0  0  0  0  0  0  0  0
   -6.5806   15.9086  -33.8384 H   0  0  0  0  0  0  0  0  0  0  0  0
   -5.5846   16.7209  -32.5750 H   0  0  0  0  0  0  0  0  0  0  0  0
   -4.2369   23.9822  -27.8969 H   0  0  0  0  0  0  0  0  0  0  0  0
   -3.1578   22.3094  -26.3940 H   0  0  0  0  0  0  0  0  0  0  0  0
  1  2  1  0
  2  3  2  0
  2  4  2  0
  2  5  1  0
  5  6  2  0
  6  7  1  0
  7  8  2  0
  8  9  1  0
  9 10  2  0
  9 11  2  0
  9 12  1  0
 12 13  1  0
 13 14  1  0
 14 15  1  0
 15 16  2  0
 16 17  1  0
 17 18  2  0
 18 19  1  0
 19 20  2  0
 19 21  1  0
 21 22  1  0
 22 23  1  0
 23 24  1  0
  8 25  1  0
 25 26  2  0
 26  5  1  0
 20 15  1  0
 24 18  1  0
  1 27  1  0
  1 28  1  0
  1 29  1  0
  6 30  1  0
  7 31  1  0
 12 32  1  0
 13 33  1  0
 13 34  1  0
 14 35  1  0
 14 36  1  0
 16 37  1  0
 17 38  1  0
 20 39  1  0
 22 40  1  0
 22 41  1  0
 23 42  1  0
 23 43  1  0
 25 44  1  0
 26 45  1  0
M  END
>  <UniqueID>  (6) 
6

>  <SMILES>  (6) 
CS(=O)(=O)c1ccc(S(=O)(=O)NCCc2ccc3c(c2)OCCO3)cc1

>  <Energy>  (6) 
42.92249229742371

>  <Genealogy>  (6) 
CS(=O)(=O)c1ccc(S(=O)(=O)NCCc2ccc3c(c2)OCCO3)cc1 (3D coordinates assigned)
CS(=O)(=O)c1ccc(S(=O)(=O)NCCc2ccc3c(c2)OCCO3)cc1 (nonaromatic ring conformer: 42.92249229742371 kcal/mol)

>  <smiles>  (6) 
CS(=O)(=O)c1ccc(S(=O)(=O)NCCc2ccc3c(c2)OCCO3)cc1

>  <score_type>  (6) 
oracle

>  <origin>  (6) 
adgpu

>  <m_score__min__energy>  (6) 
-9.5899999999999999

>  <m_primary>  (6) 
energy

$$$$
6:0
     RDKit          3D

 50 52  0  0  0  0  0  0  0  0999 V2000
   -3.8310   18.9160  -34.1690 C   0  0  0  0  0  0  0  0  0  0  0  0
   -3.1430   19.8210  -33.1900 C   0  0  0  0  0  0  0  0  0  0  0  0
   -1.8010   19.5950  -32.8440 C   0  0  0  0  0  0  0  0  0  0  0  0
   -1.1470   20.4590  -31.9610 C   0  0  0  0  0  0  0  0  0  0  0  0
   -1.8240   21.5600  -31.4250 C   0  0  0  0  0  0  0  0  0  0  0  0
   -0.9790   22.6620  -30.2900 S   0  0  0  0  0  0  0  0  0  0  0  0
   -2.4910   23.0570  -29.3510 C   0  0  0  0  0  0  0  0  0  0  0  0
   -2.8040   24.5150  -29.5200 C   0  0  0  0  0  0  0  0  0  0  0  0
   -2.0760   25.3680  -28.9470 O   0  0  0  0  0  0  0  0  0  0  0  0
   -3.8090   24.9660  -30.4370 N   0  0  0  0  0  0  0  0  0  0  0  0
   -5.0300   24.2810  -30.7440 C   0  0  0  0  0  0  0  0  0  0  0  0
   -5.4470   24.0960  -32.0720 C   0  0  0  0  0  0  0  0  0  0  0  0
   -6.6190   23.3880  -32.3500 C   0  0  0  0  0  0  0  0  0  0  0  0
   -7.3840   22.8500  -31.3050 C   0  0  0  0  0  0  0  0  0  0  0  0
   -8.8380   21.9180  -31.6630 S   0  0  0  0  0  0  0  0  0  0  0  0
   -9.8610   22.8300  -32.2820 O   0  0  0  0  0  0  0  0  0  0  0  0
   -9.4090   21.4130  -30.3670 O   0  0  0  0  0  0  0  0  0  0  0  0
   -8.5570   20.5480  -32.7170 N   0  0  0  0  0  0  0  0  0  0  0  0
   -7.1320   20.2500  -32.9700 C   0  0  0  0  0  0  0  0  0  0  0  0
   -6.5140   19.3270  -31.9130 C   0  0  0  0  0  0  0  0  0  0  0  0
   -7.3450   18.0570  -31.7630 C   0  0  0  0  0  0  0  0  0  0  0  0
   -8.7790   18.4160  -31.3850 C   0  0  0  0  0  0  0  0  0  0  0  0
   -9.4000   19.3710  -32.4180 C   0  0  0  0  0  0  0  0  0  0  0  0
   -6.9440   22.9970  -29.9820 C   0  0  0  0  0  0  0  0  0  0  0  0
   -5.7710   23.7050  -29.7050 C   0  0  0  0  0  0  0  0  0  0  0  0
   -3.1590   21.7970  -31.7750 C   0  0  0  0  0  0  0  0  0  0  0  0
   -3.8140   20.9370  -32.6620 C   0  0  0  0  0  0  0  0  0  0  0  0
   -4.4087   18.1561  -33.6224 H   0  0  0  0  0  0  0  0  0  0  0  0
   -4.5094   19.5077  -34.8012 H   0  0  0  0  0  0  0  0  0  0  0  0
   -3.0794   18.4206  -34.8012 H   0  0  0  0  0  0  0  0  0  0  0  0
   -1.2626   18.7352  -33.2692 H   0  0  0  0  0  0  0  0  0  0  0  0
   -0.0980   20.2730  -31.6870 H   0  0  0  0  0  0  0  0  0  0  0  0
   -3.3289   22.4535  -29.7302 H   0  0  0  0  0  0  0  0  0  0  0  0
   -2.3366   22.8310  -28.2856 H   0  0  0  0  0  0  0  0  0  0  0  0
   -4.8485   24.5102  -32.8968 H   0  0  0  0  0  0  0  0  0  0  0  0
   -6.9429   23.2521  -33.3924 H   0  0  0  0  0  0  0  0  0  0  0  0
   -7.0451   19.7641  -33.9530 H   0  0  0  0  0  0  0  0  0  0  0  0
   -6.5856   21.2039  -32.9325 H   0  0  0  0  0  0  0  0  0  0  0  0
   -5.4927   19.0574  -32.2201 H   0  0  0  0  0  0  0  0  0  0  0  0
   -6.4924   19.8547  -30.9481 H   0  0  0  0  0  0  0  0  0  0  0  0
   -7.3458   17.5070  -32.7157 H   0  0  0  0  0  0  0  0  0  0  0  0
   -6.9082   17.4299  -30.9718 H   0  0  0  0  0  0  0  0  0  0  0  0
   -9.3799   17.4957  -31.3394 H   0  0  0  0  0  0  0  0  0  0  0  0
   -8.7676   18.9184  -30.4065 H   0  0  0  0  0  0  0  0  0  0  0  0
   -9.5637   18.8140  -33.3523 H   0  0  0  0  0  0  0  0  0  0  0  0
  -10.3388   19.7478  -31.9858 H   0  0  0  0  0  0  0  0  0  0  0  0
   -7.5239   22.5536  -29.1591 H   0  0  0  0  0  0  0  0  0  0  0  0
   -5.4282   23.8102  -28.6651 H   0  0  0  0  0  0  0  0  0  0  0  0
   -3.6930   22.6606  -31.3518 H   0  0  0  0  0  0  0  0  0  0  0  0
   -4.8578   21.1347  -32.9473 H   0  0  0  0  0  0  0  0  0  0  0  0
  1  2  1  0
  2  3  2  0
  3  4  1  0
  4  5  2  0
  5  6  1  0
  6  7  1  0
  7  8  1  0
  8  9  2  0
  8 10  1  0
 10 11  1  0
 11 12  2  0
 12 13  1  0
 13 14  2  0
 14 15  1  0
 15 16  2  0
 15 17  2  0
 15 18  1  0
 18 19  1  0
 19 20  1  0
 20 21  1  0
 21 22  1  0
 22 23  1  0
 14 24  1  0
 24 25  2  0
  5 26  1  0
 26 27  2  0
 27  2  1  0
 25 11  1  0
 23 18  1  0
  1 28  1  0
  1 29  1  0
  1 30  1  0
  3 31  1  0
  4 32  1  0
  7 33  1  0
  7 34  1  0
 12 35  1  0
 13 36  1  0
 19 37  1  0
 19 38  1  0
 20 39  1  0
 20 40  1  0
 21 41  1  0
 21 42  1  0
 22 43  1  0
 22 44  1  0
 23 45  1  0
 23 46  1  0
 24 47  1  0
 25 48  1  0
 26 49  1  0
 27 50  1  0
M  CHG  1  10  -1
M  END
>  <UniqueID>  (7) 
7

>  <SMILES>  (7) 
Cc1ccc(SCC(=O)[N-]c2ccc(S(=O)(=O)N3CCCCC3)cc2)cc1

>  <Energy>  (7) 
49.3045370586424

>  <Genealogy>  (7) 
Cc1ccc(SCC(=O)[N-]c2ccc(S(=O)(=O)N3CCCCC3)cc2)cc1 (protonated)
Cc1ccc(SCC(=O)[N-]c2ccc(S(=O)(=O)N3CCCCC3)cc2)cc1 (3D coordinates assigned)
Cc1ccc(SCC(=O)[N-]c2ccc(S(=O)(=O)N3CCCCC3)cc2)cc1 (nonaromatic ring conformer: 49.3045370586424 kcal/mol)

>  <smiles>  (7) 
Cc1ccc(SCC(=O)Nc2ccc(S(=O)(=O)N3CCCCC3)cc2)cc1

>  <score_type>  (7) 
oracle

>  <origin>  (7) 
adgpu

>  <m_score__min__energy>  (7) 
-12.24

>  <m_primary>  (7) 
energy

$$$$
7:0
     RDKit          3D

 45 48  0  0  0  0  0  0  0  0999 V2000
   -3.1890   23.9950  -27.8020 C   0  0  0  0  0  0  0  0  0  0  0  0
   -3.4420   22.7630  -28.4670 O   0  0  0  0  0  0  0  0  0  0  0  0
   -2.8020   22.3440  -29.6450 C   0  0  0  0  0  0  0  0  0  0  0  0
   -1.5570   21.6890  -29.6180 C   0  0  0  0  0  0  0  0  0  0  0  0
   -0.9380   21.2930  -30.8060 C   0  0  0  0  0  0  0  0  0  0  0  0
   -1.5470   21.5450  -32.0460 C   0  0  0  0  0  0  0  0  0  0  0  0
   -0.9060   21.1420  -33.3170 C   0  0  0  0  0  0  0  0  0  0  0  0
   -1.0630   19.9580  -34.0130 C   0  0  0  0  0  0  0  0  0  0  0  0
   -0.3010   19.9980  -35.1230 N   0  0  0  0  0  0  0  0  0  0  0  0
    0.2930   21.2070  -35.0520 C   0  0  0  0  0  0  0  0  0  0  0  0
    1.2290   21.7250  -36.0900 C   0  0  0  0  0  0  0  0  0  0  0  0
   -0.0660   21.8900  -33.9890 O   0  0  0  0  0  0  0  0  0  0  0  0
   -2.7910   22.1960  -32.0720 C   0  0  0  0  0  0  0  0  0  0  0  0
   -3.4220   22.5900  -30.8830 C   0  0  0  0  0  0  0  0  0  0  0  0
   -4.9750   23.4310  -30.9510 S   0  0  0  0  0  0  0  0  0  0  0  0
   -5.6940   23.2950  -29.6350 O   0  0  0  0  0  0  0  0  0  0  0  0
   -4.7350   24.8910  -31.2150 O   0  0  0  0  0  0  0  0  0  0  0  0
   -5.9500   22.7510  -32.2300 N   0  0  0  0  0  0  0  0  0  0  0  0
   -7.3970   22.8060  -31.9010 C   0  0  0  0  0  0  0  0  0  0  0  0
   -7.9060   21.4420  -32.1470 C   0  0  0  0  0  0  0  0  0  0  0  0
   -9.2230   20.9830  -32.0540 C   0  0  0  0  0  0  0  0  0  0  0  0
   -9.4800   19.6280  -32.3190 C   0  0  0  0  0  0  0  0  0  0  0  0
   -8.4240   18.7620  -32.6630 C   0  0  0  0  0  0  0  0  0  0  0  0
   -7.1100   19.2500  -32.7440 C   0  0  0  0  0  0  0  0  0  0  0  0
   -6.8850   20.6030  -32.4810 C   0  0  0  0  0  0  0  0  0  0  0  0
   -5.5990   21.3310  -32.4860 C   0  0  0  0  0  0  0  0  0  0  0  0
   -3.2213   23.8377  -26.7138 H   0  0  0  0  0  0  0  0  0  0  0  0
   -2.1953   24.3693  -28.0890 H   0  0  0  0  0  0  0  0  0  0  0  0
   -3.9548   24.7306  -28.0890 H   0  0  0  0  0  0  0  0  0  0  0  0
   -1.0673   21.4872  -28.6539 H   0  0  0  0  0  0  0  0  0  0  0  0
    0.0342   20.7797  -30.7699 H   0  0  0  0  0  0  0  0  0  0  0  0
   -1.7062   19.1189  -33.7094 H   0  0  0  0  0  0  0  0  0  0  0  0
    2.0911   22.2021  -35.6010 H   0  0  0  0  0  0  0  0  0  0  0  0
    1.5782   20.8917  -36.7175 H   0  0  0  0  0  0  0  0  0  0  0  0
    0.7084   22.4634  -36.7175 H   0  0  0  0  0  0  0  0  0  0  0  0
   -3.2770   22.3996  -33.0376 H   0  0  0  0  0  0  0  0  0  0  0  0
   -5.7770   23.3090  -33.1000 H   0  0  0  0  0  0  0  0  0  0  0  0
   -7.5419   23.0869  -30.8474 H   0  0  0  0  0  0  0  0  0  0  0  0
   -7.9265   23.5562  -32.5067 H   0  0  0  0  0  0  0  0  0  0  0  0
  -10.0393   21.6673  -31.7796 H   0  0  0  0  0  0  0  0  0  0  0  0
  -10.5083   19.2422  -32.2577 H   0  0  0  0  0  0  0  0  0  0  0  0
   -8.6291   17.7010  -32.8687 H   0  0  0  0  0  0  0  0  0  0  0  0
   -6.2770   18.5821  -33.0085 H   0  0  0  0  0  0  0  0  0  0  0  0
   -4.9373   20.9492  -31.6945 H   0  0  0  0  0  0  0  0  0  0  0  0
   -5.0620   21.2071  -33.4380 H   0  0  0  0  0  0  0  0  0  0  0  0
  1  2  1  0
  2  3  1  0
  3  4  2  0
  4  5  1  0
  5  6  2  0
  6  7  1  0
  7  8  2  0
  8  9  1  0
  9 10  2  0
 10 11  1  0
 10 12  1  0
  6 13  1  0
 13 14  2  0
 14 15  1  0
 15 16  2  0
 15 17  2  0
 15 18  1  0
 18 19  1  0
 19 20  1  0
 20 21  2  0
 21 22  1  0
 22 23  2  0
 23 24  1  0
 24 25  2  0
 25 26  1  0
 14  3  1  0
 26 18  1  0
 12  7  1  0
 25 20  1  0
  1 27  1  0
  1 28  1  0
  1 29  1  0
  4 30  1  0
  5 31  1  0
  8 32  1  0
 11 33  1  0
 11 34  1  0
 11 35  1  0
 13 36  1  0
 18 37  1  0
 19 38  1  0
 19 39  1  0
 21 40  1  0
 22 41  1  0
 23 42  1  0
 24 43  1  0
 26 44  1  0
 26 45  1  0
M  CHG  1  18   1
M  END
>  <UniqueID>  (8) 
8

>  <SMILES>  (8) 
COc1ccc(-c2cnc(C)o2)cc1S(=O)(=O)[NH+]1Cc2ccccc2C1

>  <Energy>  (8) 
88.60014304787764

>  <Genealogy>  (8) 
COc1ccc(-c2cnc(C)o2)cc1S(=O)(=O)[NH+]1Cc2ccccc2C1 (protonated)
COc1ccc(-c2cnc(C)o2)cc1S(=O)(=O)[NH+]1Cc2ccccc2C1 (3D coordinates assigned)
COc1ccc(-c2cnc(C)o2)cc1S(=O)(=O)[NH+]1Cc2ccccc2C1 (nonaromatic ring conformer: 88.60014304787764 kcal/mol)

>  <smiles>  (8) 
COc1ccc(-c2cnc(C)o2)cc1S(=O)(=O)N1Cc2ccccc2C1

>  <score_type>  (8) 
oracle

>  <origin>  (8) 
adgpu

>  <m_score__min__energy>  (8) 
-8.3599999999999994

>  <m_primary>  (8) 
energy

$$$$
8:0
     RDKit          3D

 55 58  0  0  0  0  0  0  0  0999 V2000
   -2.6980   22.7350  -31.5440 O   0  0  0  0  0  0  0  0  0  0  0  0
   -3.8330   22.5990  -32.0760 C   0  0  0  0  0  0  0  0  0  0  0  0
   -3.9930   21.7700  -33.2360 N   0  0  0  0  0  0  0  0  0  0  0  0
   -3.0710   20.7200  -33.5760 C   0  0  0  0  0  0  0  0  0  0  0  0
   -1.7030   21.0040  -33.7510 C   0  0  0  0  0  0  0  0  0  0  0  0
   -0.7910   19.9770  -34.0020 C   0  0  0  0  0  0  0  0  0  0  0  0
   -1.2280   18.6560  -34.0670 C   0  0  0  0  0  0  0  0  0  0  0  0
   -2.5800   18.3580  -33.8890 C   0  0  0  0  0  0  0  0  0  0  0  0
   -3.5100   19.3790  -33.6470 C   0  0  0  0  0  0  0  0  0  0  0  0
   -4.9010   19.0490  -33.5170 N   0  0  0  0  0  0  0  0  0  0  0  0
   -5.6720   19.5580  -32.3750 C   0  0  0  0  0  0  0  0  0  0  0  0
   -6.2080   18.3980  -31.5130 C   0  0  0  0  0  0  0  0  0  0  0  0
   -6.5880   17.1440  -32.3310 C   0  0  0  0  0  0  0  0  0  0  0  0
   -6.7830   17.4580  -33.8210 C   0  0  0  0  0  0  0  0  0  0  0  0
   -5.4930   18.0420  -34.4120 C   0  0  0  0  0  0  0  0  0  0  0  0
   -4.9980   23.2740  -31.4740 C   0  0  0  0  0  0  0  0  0  0  0  0
   -6.2950   22.7630  -31.6840 C   0  0  0  0  0  0  0  0  0  0  0  0
   -7.4010   23.3990  -31.1100 C   0  0  0  0  0  0  0  0  0  0  0  0
   -7.2250   24.5450  -30.3290 C   0  0  0  0  0  0  0  0  0  0  0  0
   -5.9420   25.0550  -30.1090 C   0  0  0  0  0  0  0  0  0  0  0  0
   -4.8180   24.4140  -30.6640 C   0  0  0  0  0  0  0  0  0  0  0  0
   -3.4870   24.8940  -30.4120 N   0  0  0  0  0  0  0  0  0  0  0  0
   -2.5830   24.6360  -28.9580 S   0  0  0  0  0  0  0  0  0  0  0  0
   -1.3780   25.5380  -28.9250 O   0  0  0  0  0  0  0  0  0  0  0  0
   -3.4640   24.9160  -27.7700 O   0  0  0  0  0  0  0  0  0  0  0  0
   -2.0800   22.9490  -28.9280 C   0  0  0  0  0  0  0  0  0  0  0  0
   -2.9770   21.9560  -28.5000 C   0  0  0  0  0  0  0  0  0  0  0  0
   -2.5650   20.6160  -28.4280 C   0  0  0  0  0  0  0  0  0  0  0  0
   -1.2590   20.2580  -28.7890 C   0  0  0  0  0  0  0  0  0  0  0  0
   -0.3630   21.2450  -29.2170 C   0  0  0  0  0  0  0  0  0  0  0  0
   -0.7730   22.5880  -29.2880 C   0  0  0  0  0  0  0  0  0  0  0  0
   -4.8140   21.9320  -33.8530 H   0  0  0  0  0  0  0  0  0  0  0  0
   -1.3498   22.0439  -33.6894 H   0  0  0  0  0  0  0  0  0  0  0  0
    0.2737   20.2113  -34.1486 H   0  0  0  0  0  0  0  0  0  0  0  0
   -0.5074   17.8473  -34.2587 H   0  0  0  0  0  0  0  0  0  0  0  0
   -2.9189   17.3127  -33.9390 H   0  0  0  0  0  0  0  0  0  0  0  0
   -5.0224   20.1956  -31.7573 H   0  0  0  0  0  0  0  0  0  0  0  0
   -6.5263   20.1361  -32.7571 H   0  0  0  0  0  0  0  0  0  0  0  0
   -5.4314   18.1170  -30.7864 H   0  0  0  0  0  0  0  0  0  0  0  0
   -7.1270   18.7560  -31.0258 H   0  0  0  0  0  0  0  0  0  0  0  0
   -5.7859   16.3983  -32.2286 H   0  0  0  0  0  0  0  0  0  0  0  0
   -7.5427   16.7631  -31.9394 H   0  0  0  0  0  0  0  0  0  0  0  0
   -7.0418   16.5327  -34.3566 H   0  0  0  0  0  0  0  0  0  0  0  0
   -7.5933   18.1939  -33.9300 H   0  0  0  0  0  0  0  0  0  0  0  0
   -4.7686   17.2284  -34.5644 H   0  0  0  0  0  0  0  0  0  0  0  0
   -5.7389   18.5291  -35.3671 H   0  0  0  0  0  0  0  0  0  0  0  0
   -6.4376   21.8629  -32.3001 H   0  0  0  0  0  0  0  0  0  0  0  0
   -8.4115   22.9964  -31.2736 H   0  0  0  0  0  0  0  0  0  0  0  0
   -8.0982   25.0467  -29.8864 H   0  0  0  0  0  0  0  0  0  0  0  0
   -5.8101   25.9612  -29.4995 H   0  0  0  0  0  0  0  0  0  0  0  0
   -4.0052   22.2294  -28.2205 H   0  0  0  0  0  0  0  0  0  0  0  0
   -3.2701   19.8437  -28.0868 H   0  0  0  0  0  0  0  0  0  0  0  0
   -0.9395   19.2067  -28.7363 H   0  0  0  0  0  0  0  0  0  0  0  0
    0.6640   20.9691  -29.4983 H   0  0  0  0  0  0  0  0  0  0  0  0
   -0.0658   23.3592  -29.6274 H   0  0  0  0  0  0  0  0  0  0  0  0
  1  2  2  0
  2  3  1  0
  3  4  1  0
  4  5  2  0
  5  6  1  0
  6  7  2  0
  7  8  1  0
  8  9  2  0
  9 10  1  0
 10 11  1  0
 11 12  1  0
 12 13  1  0
 13 14  1  0
 14 15  1  0
  2 16  1  0
 16 17  2  0
 17 18  1  0
 18 19  2  0
 19 20  1  0
 20 21  2  0
 21 22  1  0
 22 23  1  0
 23 24  2  0
 23 25  2  0
 23 26  1  0
 26 27  2  0
 27 28  1  0
 28 29  2  0
 29 30  1  0
 30 31  2  0
  9  4  1  0
 15 10  1  0
 21 16  1  0
 31 26  1  0
  3 32  1  0
  5 33  1  0
  6 34  1  0
  7 35  1  0
  8 36  1  0
 11 37  1  0
 11 38  1  0
 12 39  1  0
 12 40  1  0
 13 41  1  0
 13 42  1  0
 14 43  1  0
 14 44  1  0
 15 45  1  0
 15 46  1  0
 17 47  1  0
 18 48  1  0
 19 49  1  0
 20 50  1  0
 27 51  1  0
 28 52  1  0
 29 53  1  0
 30 54  1  0
 31 55  1  0
M  CHG  1  22  -1
M  END
>  <UniqueID>  (9) 
9

>  <SMILES>  (9) 
O=C(Nc1ccccc1N1CCCCC1)c1ccccc1[N-]S(=O)(=O)c1ccccc1

>  <Energy>  (9) 
78.61378526903513

>  <Genealogy>  (9) 
O=C(Nc1ccccc1N1CCCCC1)c1ccccc1[N-]S(=O)(=O)c1ccccc1 (protonated)
O=C(Nc1ccccc1N1CCCCC1)c1ccccc1[N-]S(=O)(=O)c1ccccc1 (3D coordinates assigned)
O=C(Nc1ccccc1N1CCCCC1)c1ccccc1[N-]S(=O)(=O)c1ccccc1 (nonaromatic ring conformer: 78.61378526903513 kcal/mol)

>  <smiles>  (9) 
O=C(Nc1ccccc1N1CCCCC1)c1ccccc1NS(=O)(=O)c1ccccc1

>  <score_type>  (9) 
oracle

>  <origin>  (9) 
adgpu

>  <m_score__min__energy>  (9) 
-11.85

>  <m_primary>  (9) 
energy

$$$$
9:0
     RDKit          3D

 59 62  0  0  0  0  0  0  0  0999 V2000
   -4.2870   25.9650  -30.4600 O   0  0  0  0  0  0  0  0  0  0  0  0
   -4.4930   24.7640  -30.7780 C   0  0  0  0  0  0  0  0  0  0  0  0
   -5.5630   24.4650  -31.6820 N   0  0  0  0  0  0  0  0  0  0  0  0
   -6.2460   23.2090  -31.7930 C   0  0  0  0  0  0  0  0  0  0  0  0
   -7.6490   23.1320  -31.8700 C   0  0  0  0  0  0  0  0  0  0  0  0
   -8.2790   21.8920  -32.0040 C   0  0  0  0  0  0  0  0  0  0  0  0
   -7.5190   20.7170  -32.0740 C   0  0  0  0  0  0  0  0  0  0  0  0
   -8.3160   19.1500  -32.2330 S   0  0  0  0  0  0  0  0  0  0  0  0
   -8.6870   18.6510  -30.8660 O   0  0  0  0  0  0  0  0  0  0  0  0
   -9.5850   19.3170  -33.0230 O   0  0  0  0  0  0  0  0  0  0  0  0
   -7.2970   17.9730  -33.0240 N   0  0  0  0  0  0  0  0  0  0  0  0
   -6.4790   18.6140  -34.0710 C   0  0  0  0  0  0  0  0  0  0  0  0
   -5.3920   17.6490  -34.5850 C   0  0  0  0  0  0  0  0  0  0  0  0
   -5.6510   16.3250  -34.1610 O   0  0  0  0  0  0  0  0  0  0  0  0
   -5.5610   16.2440  -32.7460 C   0  0  0  0  0  0  0  0  0  0  0  0
   -6.4310   17.3040  -32.0420 C   0  0  0  0  0  0  0  0  0  0  0  0
   -6.1210   20.7960  -32.0250 C   0  0  0  0  0  0  0  0  0  0  0  0
   -5.4900   22.0360  -31.8940 C   0  0  0  0  0  0  0  0  0  0  0  0
   -3.6010   23.7330  -30.3260 N   0  0  0  0  0  0  0  0  0  0  0  0
   -2.7190   23.8650  -29.1980 C   0  0  0  0  0  0  0  0  0  0  0  0
   -1.3550   23.5780  -29.3540 C   0  0  0  0  0  0  0  0  0  0  0  0
   -0.4780   23.6890  -28.2720 C   0  0  0  0  0  0  0  0  0  0  0  0
   -0.9560   24.0810  -27.0150 C   0  0  0  0  0  0  0  0  0  0  0  0
    0.1650   24.2310  -25.6650 S   0  0  0  0  0  0  0  0  0  0  0  0
    1.4180   23.4480  -25.9430 O   0  0  0  0  0  0  0  0  0  0  0  0
   -0.4890   23.6690  -24.4340 O   0  0  0  0  0  0  0  0  0  0  0  0
    0.5580   25.9150  -25.4130 N   0  0  0  0  0  0  0  0  0  0  0  0
    0.4240   26.2900  -23.9870 C   0  0  0  0  0  0  0  0  0  0  0  0
   -0.8480   27.1120  -23.7240 C   0  0  0  0  0  0  0  0  0  0  0  0
   -0.9020   28.3130  -24.4800 O   0  0  0  0  0  0  0  0  0  0  0  0
   -0.3340   28.1980  -25.7800 C   0  0  0  0  0  0  0  0  0  0  0  0
   -0.2540   26.7570  -26.3100 C   0  0  0  0  0  0  0  0  0  0  0  0
   -2.3220   24.3370  -26.8440 C   0  0  0  0  0  0  0  0  0  0  0  0
   -3.2000   24.2250  -27.9250 C   0  0  0  0  0  0  0  0  0  0  0  0
   -8.2518   24.0510  -31.8246 H   0  0  0  0  0  0  0  0  0  0  0  0
   -9.3765   21.8381  -32.0548 H   0  0  0  0  0  0  0  0  0  0  0  0
   -7.1293   18.9040  -34.9094 H   0  0  0  0  0  0  0  0  0  0  0  0
   -5.9888   19.5003  -33.6418 H   0  0  0  0  0  0  0  0  0  0  0  0
   -5.3752   17.6782  -35.6845 H   0  0  0  0  0  0  0  0  0  0  0  0
   -4.4204   17.9648  -34.1773 H   0  0  0  0  0  0  0  0  0  0  0  0
   -5.8935   15.2451  -32.4272 H   0  0  0  0  0  0  0  0  0  0  0  0
   -4.5136   16.4280  -32.4647 H   0  0  0  0  0  0  0  0  0  0  0  0
   -7.0546   16.8157  -31.2787 H   0  0  0  0  0  0  0  0  0  0  0  0
   -5.7781   18.0509  -31.5666 H   0  0  0  0  0  0  0  0  0  0  0  0
   -5.5178   19.8784  -32.0899 H   0  0  0  0  0  0  0  0  0  0  0  0
   -4.3916   22.0902  -31.8701 H   0  0  0  0  0  0  0  0  0  0  0  0
   -3.5380   22.8600  -30.8990 H   0  0  0  0  0  0  0  0  0  0  0  0
   -0.9726   23.2630  -30.3361 H   0  0  0  0  0  0  0  0  0  0  0  0
    0.5910   23.4679  -28.4076 H   0  0  0  0  0  0  0  0  0  0  0  0
    0.3856   25.3729  -23.3809 H   0  0  0  0  0  0  0  0  0  0  0  0
    1.2911   26.9104  -23.7163 H   0  0  0  0  0  0  0  0  0  0  0  0
   -1.7222   26.4963  -23.9822 H   0  0  0  0  0  0  0  0  0  0  0  0
   -0.8420   27.3940  -22.6608 H   0  0  0  0  0  0  0  0  0  0  0  0
   -0.9470   28.7880  -26.4772 H   0  0  0  0  0  0  0  0  0  0  0  0
    0.7006   28.5642  -25.7054 H   0  0  0  0  0  0  0  0  0  0  0  0
   -1.2696   26.3396  -26.3754 H   0  0  0  0  0  0  0  0  0  0  0  0
    0.2179   26.7718  -27.3035 H   0  0  0  0  0  0  0  0  0  0  0  0
   -2.7053   24.6274  -25.8547 H   0  0  0  0  0  0  0  0  0  0  0  0
   -4.2730   24.4192  -27.7805 H   0  0  0  0  0  0  0  0  0  0  0  0
  1  2  2  0
  2  3  1  0
  3  4  1  0
  4  5  2  0
  5  6  1  0
  6  7  2  0
  7  8  1  0
  8  9  2  0
  8 10  2  0
  8 11  1  0
 11 12  1  0
 12 13  1  0
 13 14  1  0
 14 15  1  0
 15 16  1  0
  7 17  1  0
 17 18  2  0
  2 19  1  0
 19 20  1  0
 20 21  2  0
 21 22  1  0
 22 23  2  0
 23 24  1  0
 24 25  2  0
 24 26  2  0
 24 27  1  0
 27 28  1  0
 28 29  1  0
 29 30  1  0
 30 31  1  0
 31 32  1  0
 23 33  1  0
 33 34  2  0
 18  4  1  0
 34 20  1  0
 16 11  1  0
 32 27  1  0
  5 35  1  0
  6 36  1  0
 12 37  1  0
 12 38  1  0
 13 39  1  0
 13 40  1  0
 15 41  1  0
 15 42  1  0
 16 43  1  0
 16 44  1  0
 17 45  1  0
 18 46  1  0
 19 47  1  0
 21 48  1  0
 22 49  1  0
 28 50  1  0
 28 51  1  0
 29 52  1  0
 29 53  1  0
 31 54  1  0
 31 55  1  0
 32 56  1  0
 32 57  1  0
 33 58  1  0
 34 59  1  0
M  CHG  1   3  -1
M  END
>  <UniqueID>  (10) 
10

>  <SMILES>  (10) 
O=C([N-]c1ccc(S(=O)(=O)N2CCOCC2)cc1)Nc1ccc(S(=O)(=O)N2CCOCC2)cc1

>  <Energy>  (10) 
87.48084221885802

>  <Genealogy>  (10) 
O=C([N-]c1ccc(S(=O)(=O)N2CCOCC2)cc1)Nc1ccc(S(=O)(=O)N2CCOCC2)cc1 (protonated)
O=C([N-]c1ccc(S(=O)(=O)N2CCOCC2)cc1)Nc1ccc(S(=O)(=O)N2CCOCC2)cc1 (3D coordinates assigned)
O=C([N-]c1ccc(S(=O)(=O)N2CCOCC2)cc1)Nc1ccc(S(=O)(=O)N2CCOCC2)cc1 (nonaromatic ring conformer: 87.48084221885802 kcal/mol)

>  <smiles>  (10) 
O=C(Nc1ccc(S(=O)(=O)N2CCOCC2)cc1)Nc1ccc(S(=O)(=O)N2CCOCC2)cc1

>  <score_type>  (10) 
oracle

>  <origin>  (10) 
adgpu

>  <m_score__min__energy>  (10) 
-11.49

>  <m_primary>  (10) 
energy

$$$$
10:0
     RDKit          3D

 66 69  0  0  0  0  0  0  0  0999 V2000
   -0.8710   21.1370  -27.7370 C   0  0  0  0  0  0  0  0  0  0  0  0
   -1.4420   21.0300  -29.1200 C   0  0  0  0  0  0  0  0  0  0  0  0
   -2.8020   20.7350  -29.3020 C   0  0  0  0  0  0  0  0  0  0  0  0
   -3.3470   20.6860  -30.5880 C   0  0  0  0  0  0  0  0  0  0  0  0
   -2.5430   20.9480  -31.7050 C   0  0  0  0  0  0  0  0  0  0  0  0
   -3.2470   20.8800  -33.3180 S   0  0  0  0  0  0  0  0  0  0  0  0
   -3.5340   22.2900  -33.7530 O   0  0  0  0  0  0  0  0  0  0  0  0
   -2.2750   20.2590  -34.2830 O   0  0  0  0  0  0  0  0  0  0  0  0
   -4.7310   19.9210  -33.2860 C   0  0  0  0  0  0  0  0  0  0  0  0
   -4.6410   18.5300  -33.4530 C   0  0  0  0  0  0  0  0  0  0  0  0
   -5.7830   17.7270  -33.3640 C   0  0  0  0  0  0  0  0  0  0  0  0
   -5.6480   15.9920  -33.6200 S   0  0  0  0  0  0  0  0  0  0  0  0
   -5.0280   15.3930  -32.3890 O   0  0  0  0  0  0  0  0  0  0  0  0
   -6.9930   15.3550  -33.8260 O   0  0  0  0  0  0  0  0  0  0  0  0
   -4.6120   15.6540  -34.9730 N   0  0  0  0  0  0  0  0  0  0  0  0
   -3.3150   15.7250  -35.0760 C   0  0  0  0  0  0  0  0  0  0  0  0
   -2.7020   15.4290  -36.1990 O   0  0  0  0  0  0  0  0  0  0  0  0
   -1.4190   15.5990  -36.0830 N   0  0  0  0  0  0  0  0  0  0  0  0
   -1.1610   16.0300  -34.8350 C   0  0  0  0  0  0  0  0  0  0  0  0
    0.2100   16.3550  -34.3270 C   0  0  0  0  0  0  0  0  0  0  0  0
   -2.3550   16.1140  -34.1300 C   0  0  0  0  0  0  0  0  0  0  0  0
   -2.4950   16.5950  -32.7180 C   0  0  0  0  0  0  0  0  0  0  0  0
   -7.0190   18.3090  -33.0640 C   0  0  0  0  0  0  0  0  0  0  0  0
   -7.1260   19.6940  -32.9310 C   0  0  0  0  0  0  0  0  0  0  0  0
   -5.9990   20.5090  -33.0790 C   0  0  0  0  0  0  0  0  0  0  0  0
   -6.1710   21.8970  -33.0270 O   0  0  0  0  0  0  0  0  0  0  0  0
   -6.0530   22.6600  -31.8530 C   0  0  0  0  0  0  0  0  0  0  0  0
   -7.1600   22.7540  -31.0030 C   0  0  0  0  0  0  0  0  0  0  0  0
   -7.0850   23.5000  -29.8250 C   0  0  0  0  0  0  0  0  0  0  0  0
   -5.8980   24.1550  -29.4810 C   0  0  0  0  0  0  0  0  0  0  0  0
   -4.7760   24.0670  -30.3190 C   0  0  0  0  0  0  0  0  0  0  0  0
   -3.4980   24.7740  -29.9720 C   0  0  0  0  0  0  0  0  0  0  0  0
   -2.5970   23.8400  -29.3030 N   0  0  0  0  0  0  0  0  0  0  0  0
   -1.2990   24.7110  -28.5480 S   0  0  0  0  0  0  0  0  0  0  0  0
   -1.4630   24.5780  -26.7830 C   0  0  0  0  0  0  0  0  0  0  0  0
   -1.3550   26.1610  -28.9400 O   0  0  0  0  0  0  0  0  0  0  0  0
    0.0210   24.1270  -28.9720 O   0  0  0  0  0  0  0  0  0  0  0  0
   -4.8650   23.3380  -31.5140 C   0  0  0  0  0  0  0  0  0  0  0  0
   -1.1850   21.2500  -31.5260 C   0  0  0  0  0  0  0  0  0  0  0  0
   -0.6390   21.2980  -30.2400 C   0  0  0  0  0  0  0  0  0  0  0  0
   -1.6712   20.9870  -26.9973 H   0  0  0  0  0  0  0  0  0  0  0  0
   -0.0961   20.3684  -27.5998 H   0  0  0  0  0  0  0  0  0  0  0  0
   -0.4269   22.1340  -27.5998 H   0  0  0  0  0  0  0  0  0  0  0  0
   -3.4419   20.5415  -28.4285 H   0  0  0  0  0  0  0  0  0  0  0  0
   -4.4107   20.4409  -30.7236 H   0  0  0  0  0  0  0  0  0  0  0  0
   -3.6638   18.0674  -33.6556 H   0  0  0  0  0  0  0  0  0  0  0  0
   -0.7240   15.4390  -36.8470 H   0  0  0  0  0  0  0  0  0  0  0  0
    0.2034   16.3534  -33.2270 H   0  0  0  0  0  0  0  0  0  0  0  0
    0.9239   15.6012  -34.6904 H   0  0  0  0  0  0  0  0  0  0  0  0
    0.5096   17.3491  -34.6904 H   0  0  0  0  0  0  0  0  0  0  0  0
   -2.2561   15.7743  -32.0257 H   0  0  0  0  0  0  0  0  0  0  0  0
   -1.8035   17.4329  -32.5458 H   0  0  0  0  0  0  0  0  0  0  0  0
   -3.5282   16.9309  -32.5458 H   0  0  0  0  0  0  0  0  0  0  0  0
   -7.9077   17.6742  -32.9328 H   0  0  0  0  0  0  0  0  0  0  0  0
   -8.1030   20.1477  -32.7083 H   0  0  0  0  0  0  0  0  0  0  0  0
   -8.0952   22.2371  -31.2642 H   0  0  0  0  0  0  0  0  0  0  0  0
   -7.9623   23.5728  -29.1654 H   0  0  0  0  0  0  0  0  0  0  0  0
   -5.8439   24.7405  -28.5513 H   0  0  0  0  0  0  0  0  0  0  0  0
   -3.0235   25.1479  -30.8912 H   0  0  0  0  0  0  0  0  0  0  0  0
   -3.7145   25.6204  -29.3036 H   0  0  0  0  0  0  0  0  0  0  0  0
   -0.6970   25.1992  -26.2957 H   0  0  0  0  0  0  0  0  0  0  0  0
   -2.4625   24.9238  -26.4805 H   0  0  0  0  0  0  0  0  0  0  0  0
   -1.3310   23.5287  -26.4805 H   0  0  0  0  0  0  0  0  0  0  0  0
   -4.0001   23.2951  -32.1923 H   0  0  0  0  0  0  0  0  0  0  0  0
   -0.5478   21.4497  -32.4001 H   0  0  0  0  0  0  0  0  0  0  0  0
    0.4240   21.5467  -30.1051 H   0  0  0  0  0  0  0  0  0  0  0  0
  1  2  1  0
  2  3  2  0
  3  4  1  0
  4  5  2  0
  5  6  1  0
  6  7  2  0
  6  8  2  0
  6  9  1  0
  9 10  2  0
 10 11  1  0
 11 12  1  0
 12 13  2  0
 12 14  2  0
 12 15  1  0
 15 16  2  3
 16 17  1  0
 17 18  1  0
 18 19  1  0
 19 20  1  0
 19 21  2  0
 21 22  1  0
 11 23  2  0
 23 24  1  0
 24 25  2  0
 25 26  1  0
 26 27  1  0
 27 28  2  0
 28 29  1  0
 29 30  2  0
 30 31  1  0
 31 32  1  0
 32 33  1  0
 33 34  1  0
 34 35  1  0
 34 36  2  0
 34 37  2  0
 31 38  2  0
  5 39  1  0
 39 40  2  0
 40  2  1  0
 25  9  1  0
 38 27  1  0
 21 16  1  0
  1 41  1  0
  1 42  1  0
  1 43  1  0
  3 44  1  0
  4 45  1  0
 10 46  1  0
 18 47  1  0
 20 48  1  0
 20 49  1  0
 20 50  1  0
 22 51  1  0
 22 52  1  0
 22 53  1  0
 23 54  1  0
 24 55  1  0
 28 56  1  0
 29 57  1  0
 30 58  1  0
 32 59  1  0
 32 60  1  0
 35 61  1  0
 35 62  1  0
 35 63  1  0
 38 64  1  0
 39 65  1  0
 40 66  1  0
M  CHG  1  33  -1
M  END
>  <UniqueID>  (11) 
11

>  <SMILES>  (11) 
Cc1ccc(S(=O)(=O)c2cc(S(=O)(=O)N=c3o[nH]c(C)c3C)ccc2Oc2cccc(C[N-]S(C)(=O)=O)c2)cc1

>  <Energy>  (11) 
111.23080247747313

>  <Genealogy>  (11) 
Cc1ccc(S(=O)(=O)c2cc(S(=O)(=O)N=c3o[nH]c(C)c3C)ccc2Oc2cccc(C[N-]S(C)(=O)=O)c2)cc1 (protonated)
Cc1ccc(S(=O)(=O)c2cc(S(=O)(=O)N=c3o[nH]c(C)c3C)ccc2Oc2cccc(C[N-]S(C)(=O)=O)c2)cc1 (3D coordinates assigned)
Cc1ccc(S(=O)(=O)c2cc(S(=O)(=O)N=c3o[nH]c(C)c3C)ccc2Oc2cccc(C[N-]S(C)(=O)=O)c2)cc1 (optimized conformer: 111.23080247747313 kcal/mol)

>  <smiles>  (11) 
Cc1ccc(S(=O)(=O)c2cc(S(=O)(=O)N=c3o[nH]c(C)c3C)ccc2Oc2cccc(CNS(C)(=O)=O)c2)cc1

>  <score_type>  (11) 
oracle

>  <origin>  (11) 
adgpu

>  <m_score__min__energy>  (11) 
-12.65

>  <m_primary>  (11) 
energy

$$$$
11:0
     RDKit          3D

 64 67  0  0  0  0  0  0  0  0999 V2000
    0.2730   19.6890  -27.8340 C   0  0  0  0  0  0  0  0  0  0  0  0
   -0.3970   20.0770  -29.1250 C   0  0  0  0  0  0  0  0  0  0  0  0
    0.3580   20.1080  -30.3110 C   0  0  0  0  0  0  0  0  0  0  0  0
   -0.2380   20.4570  -31.5240 C   0  0  0  0  0  0  0  0  0  0  0  0
   -1.5940   20.7900  -31.5710 C   0  0  0  0  0  0  0  0  0  0  0  0
   -2.3810   21.2540  -33.1210 S   0  0  0  0  0  0  0  0  0  0  0  0
   -0.9300   20.8880  -34.1250 C   0  0  0  0  0  0  0  0  0  0  0  0
   -0.2350   21.9340  -34.6500 N   0  0  0  0  0  0  0  0  0  0  0  0
    0.8410   21.7600  -35.4590 C   0  0  0  0  0  0  0  0  0  0  0  0
    1.2580   20.4760  -35.7970 C   0  0  0  0  0  0  0  0  0  0  0  0
    0.5500   19.3790  -35.3090 C   0  0  0  0  0  0  0  0  0  0  0  0
   -0.5570   19.5630  -34.4650 C   0  0  0  0  0  0  0  0  0  0  0  0
   -1.3530   18.3790  -34.0730 C   0  0  0  0  0  0  0  0  0  0  0  0
   -0.7520   17.3350  -33.6960 O   0  0  0  0  0  0  0  0  0  0  0  0
   -2.7850   18.4070  -34.0920 N   0  0  0  0  0  0  0  0  0  0  0  0
   -3.5970   17.2070  -33.9050 C   0  0  0  0  0  0  0  0  0  0  0  0
   -5.0590   17.4960  -34.2430 C   0  0  0  0  0  0  0  0  0  0  0  0
   -5.5410   18.7160  -33.5050 C   0  0  0  0  0  0  0  0  0  0  0  0
   -5.2060   18.9080  -32.1550 C   0  0  0  0  0  0  0  0  0  0  0  0
   -5.6900   20.0200  -31.4590 C   0  0  0  0  0  0  0  0  0  0  0  0
   -6.5280   20.9420  -32.0990 C   0  0  0  0  0  0  0  0  0  0  0  0
   -7.1340   22.3390  -31.2130 S   0  0  0  0  0  0  0  0  0  0  0  0
   -8.2480   21.8920  -30.3080 O   0  0  0  0  0  0  0  0  0  0  0  0
   -7.6820   23.3560  -32.1780 O   0  0  0  0  0  0  0  0  0  0  0  0
   -5.8530   23.0510  -30.2600 N   0  0  0  0  0  0  0  0  0  0  0  0
   -4.5620   22.8990  -30.9590 C   0  0  0  0  0  0  0  0  0  0  0  0
   -3.5480   23.9430  -30.4650 C   0  0  0  0  0  0  0  0  0  0  0  0
   -3.9560   25.2910  -30.6660 O   0  0  0  0  0  0  0  0  0  0  0  0
   -5.3630   25.4500  -30.7820 C   0  0  0  0  0  0  0  0  0  0  0  0
   -6.1620   24.4580  -29.9210 C   0  0  0  0  0  0  0  0  0  0  0  0
   -6.8660   20.7530  -33.4440 C   0  0  0  0  0  0  0  0  0  0  0  0
   -6.3800   19.6440  -34.1430 C   0  0  0  0  0  0  0  0  0  0  0  0
   -2.3610   20.7390  -30.4010 C   0  0  0  0  0  0  0  0  0  0  0  0
   -1.7800   20.3760  -29.1750 C   0  0  0  0  0  0  0  0  0  0  0  0
   -2.6350   20.3500  -27.9340 C   0  0  0  0  0  0  0  0  0  0  0  0
   -0.3335   20.0402  -26.9862 H   0  0  0  0  0  0  0  0  0  0  0  0
    0.3709   18.5944  -27.7862 H   0  0  0  0  0  0  0  0  0  0  0  0
    1.2711   20.1489  -27.7862 H   0  0  0  0  0  0  0  0  0  0  0  0
    1.4281   19.8549  -30.2825 H   0  0  0  0  0  0  0  0  0  0  0  0
    0.3619   20.4699  -32.4459 H   0  0  0  0  0  0  0  0  0  0  0  0
    1.3837   22.6343  -35.8476 H   0  0  0  0  0  0  0  0  0  0  0  0
    2.1366   20.3285  -36.4422 H   0  0  0  0  0  0  0  0  0  0  0  0
    0.8609   18.3612  -35.5872 H   0  0  0  0  0  0  0  0  0  0  0  0
   -3.2730   19.3280  -34.1460 H   0  0  0  0  0  0  0  0  0  0  0  0
   -3.2231   16.4098  -34.5644 H   0  0  0  0  0  0  0  0  0  0  0  0
   -3.5294   16.8903  -32.8538 H   0  0  0  0  0  0  0  0  0  0  0  0
   -5.1529   17.6675  -35.3255 H   0  0  0  0  0  0  0  0  0  0  0  0
   -5.6707   16.6332  -33.9405 H   0  0  0  0  0  0  0  0  0  0  0  0
   -4.5598   18.1802  -31.6425 H   0  0  0  0  0  0  0  0  0  0  0  0
   -5.4118   20.1712  -30.4056 H   0  0  0  0  0  0  0  0  0  0  0  0
   -4.1646   21.8914  -30.7674 H   0  0  0  0  0  0  0  0  0  0  0  0
   -4.7247   23.0478  -32.0367 H   0  0  0  0  0  0  0  0  0  0  0  0
   -3.3893   23.7873  -29.3877 H   0  0  0  0  0  0  0  0  0  0  0  0
   -2.6312   23.7982  -31.0554 H   0  0  0  0  0  0  0  0  0  0  0  0
   -5.6254   26.4719  -30.4709 H   0  0  0  0  0  0  0  0  0  0  0  0
   -5.6267   25.2548  -31.8319 H   0  0  0  0  0  0  0  0  0  0  0  0
   -5.9168   24.6297  -28.8625 H   0  0  0  0  0  0  0  0  0  0  0  0
   -7.2315   24.6260  -30.1157 H   0  0  0  0  0  0  0  0  0  0  0  0
   -7.5164   21.4796  -33.9529 H   0  0  0  0  0  0  0  0  0  0  0  0
   -6.6561   19.4977  -35.1977 H   0  0  0  0  0  0  0  0  0  0  0  0
   -3.4320   20.9863  -30.4424 H   0  0  0  0  0  0  0  0  0  0  0  0
   -1.9895   20.3696  -27.0435 H   0  0  0  0  0  0  0  0  0  0  0  0
   -3.2970   21.2284  -27.9264 H   0  0  0  0  0  0  0  0  0  0  0  0
   -3.2424   19.4330  -27.9264 H   0  0  0  0  0  0  0  0  0  0  0  0
  1  2  1  0
  2  3  2  0
  3  4  1  0
  4  5  2  0
  5  6  1  0
  6  7  1  0
  7  8  2  0
  8  9  1  0
  9 10  2  0
 10 11  1  0
 11 12  2  0
 12 13  1  0
 13 14  2  0
 13 15  1  0
 15 16  1  0
 16 17  1  0
 17 18  1  0
 18 19  2  0
 19 20  1  0
 20 21  2  0
 21 22  1  0
 22 23  2  0
 22 24  2  0
 22 25  1  0
 25 26  1  0
 26 27  1  0
 27 28  1  0
 28 29  1  0
 29 30  1  0
 21 31  1  0
 31 32  2  0
  5 33  1  0
 33 34  2  0
 34 35  1  0
 34  2  1  0
 12  7  1  0
 32 18  1  0
 30 25  1  0
  1 36  1  0
  1 37  1  0
  1 38  1  0
  3 39  1  0
  4 40  1  0
  9 41  1  0
 10 42  1  0
 11 43  1  0
 15 44  1  0
 16 45  1  0
 16 46  1  0
 17 47  1  0
 17 48  1  0
 19 49  1  0
 20 50  1  0
 26 51  1  0
 26 52  1  0
 27 53  1  0
 27 54  1  0
 29 55  1  0
 29 56  1  0
 30 57  1  0
 30 58  1  0
 31 59  1  0
 32 60  1  0
 33 61  1  0
 35 62  1  0
 35 63  1  0
 35 64  1  0
M  END
>  <UniqueID>  (12) 
12

>  <SMILES>  (12) 
Cc1ccc(Sc2ncccc2C(=O)NCCc2ccc(S(=O)(=O)N3CCOCC3)cc2)cc1C

>  <Energy>  (12) 
80.63427564326943

>  <Genealogy>  (12) 
Cc1ccc(Sc2ncccc2C(=O)NCCc2ccc(S(=O)(=O)N3CCOCC3)cc2)cc1C (3D coordinates assigned)
Cc1ccc(Sc2ncccc2C(=O)NCCc2ccc(S(=O)(=O)N3CCOCC3)cc2)cc1C (nonaromatic ring conformer: 80.63427564326943 kcal/mol)

>  <smiles>  (12) 
Cc1ccc(Sc2ncccc2C(=O)NCCc2ccc(S(=O)(=O)N3CCOCC3)cc2)cc1C

>  <score_type>  (12) 
oracle

>  <origin>  (12) 
adgpu

>  <m_score__min__energy>  (12) 
-10.32

>  <m_primary>  (12) 
energy

$$$$
12:0
     RDKit          3D

 45 47  0  0  0  0  0  0  0  0999 V2000
   -4.2390   16.9800  -35.7040 C   0  0  0  0  0  0  0  0  0  0  0  0
   -4.9900   17.7950  -34.7050 C   0  0  0  0  0  0  0  0  0  0  0  0
   -6.2590   17.5240  -34.2320 C   0  0  0  0  0  0  0  0  0  0  0  0
   -6.4910   18.5160  -33.3010 C   0  0  0  0  0  0  0  0  0  0  0  0
   -7.7640   18.6910  -32.5310 C   0  0  0  0  0  0  0  0  0  0  0  0
   -5.3910   19.3030  -33.2170 N   0  0  0  0  0  0  0  0  0  0  0  0
   -5.1870   20.4510  -32.3770 C   0  0  0  0  0  0  0  0  0  0  0  0
   -6.0900   21.5270  -32.3890 C   0  0  0  0  0  0  0  0  0  0  0  0
   -5.8880   22.6290  -31.5540 C   0  0  0  0  0  0  0  0  0  0  0  0
   -4.7860   22.6660  -30.6890 C   0  0  0  0  0  0  0  0  0  0  0  0
   -4.5400   24.0590  -29.6420 S   0  0  0  0  0  0  0  0  0  0  0  0
   -5.8350   24.8080  -29.4900 O   0  0  0  0  0  0  0  0  0  0  0  0
   -3.5190   24.9600  -30.2790 O   0  0  0  0  0  0  0  0  0  0  0  0
   -3.9720   23.5120  -28.0780 N   0  0  0  0  0  0  0  0  0  0  0  0
   -4.0780   24.5660  -27.0430 C   0  0  0  0  0  0  0  0  0  0  0  0
   -2.7370   25.2570  -26.7330 C   0  0  0  0  0  0  0  0  0  0  0  0
   -1.9160   25.3150  -27.9510 N   0  0  0  0  0  0  0  0  0  0  0  0
   -0.7310   26.1580  -27.7380 C   0  0  0  0  0  0  0  0  0  0  0  0
   -1.5180   23.9600  -28.3890 C   0  0  0  0  0  0  0  0  0  0  0  0
   -2.6280   22.9120  -28.1560 C   0  0  0  0  0  0  0  0  0  0  0  0
   -3.8990   21.5820  -30.6530 C   0  0  0  0  0  0  0  0  0  0  0  0
   -4.1010   20.4800  -31.4880 C   0  0  0  0  0  0  0  0  0  0  0  0
   -4.4780   18.8690  -34.0740 N   0  0  0  0  0  0  0  0  0  0  0  0
   -3.5839   16.2691  -35.1792 H   0  0  0  0  0  0  0  0  0  0  0  0
   -4.9502   16.4264  -36.3347 H   0  0  0  0  0  0  0  0  0  0  0  0
   -3.6292   17.6437  -36.3347 H   0  0  0  0  0  0  0  0  0  0  0  0
   -6.9308   16.7052  -34.5292 H   0  0  0  0  0  0  0  0  0  0  0  0
   -7.5475   18.6612  -31.4529 H   0  0  0  0  0  0  0  0  0  0  0  0
   -8.2173   19.6599  -32.7873 H   0  0  0  0  0  0  0  0  0  0  0  0
   -8.4620   17.8804  -32.7873 H   0  0  0  0  0  0  0  0  0  0  0  0
   -6.9614   21.5019  -33.0598 H   0  0  0  0  0  0  0  0  0  0  0  0
   -6.5963   23.4703  -31.5757 H   0  0  0  0  0  0  0  0  0  0  0  0
   -4.7899   25.3279  -27.3931 H   0  0  0  0  0  0  0  0  0  0  0  0
   -4.4133   24.0778  -26.1160 H   0  0  0  0  0  0  0  0  0  0  0  0
   -2.9270   26.2783  -26.3712 H   0  0  0  0  0  0  0  0  0  0  0  0
   -2.2025   24.6848  -25.9604 H   0  0  0  0  0  0  0  0  0  0  0  0
   -0.5578   26.2812  -26.6587 H   0  0  0  0  0  0  0  0  0  0  0  0
    0.1465   25.6800  -28.1979 H   0  0  0  0  0  0  0  0  0  0  0  0
   -0.8948   27.1437  -28.1979 H   0  0  0  0  0  0  0  0  0  0  0  0
   -1.2828   23.9916  -29.4631 H   0  0  0  0  0  0  0  0  0  0  0  0
   -0.6445   23.6594  -27.7918 H   0  0  0  0  0  0  0  0  0  0  0  0
   -2.6121   22.1922  -28.9877 H   0  0  0  0  0  0  0  0  0  0  0  0
   -2.4262   22.4245  -27.1908 H   0  0  0  0  0  0  0  0  0  0  0  0
   -3.0408   21.5986  -29.9651 H   0  0  0  0  0  0  0  0  0  0  0  0
   -3.4044   19.6296  -31.4485 H   0  0  0  0  0  0  0  0  0  0  0  0
  1  2  1  0
  2  3  1  0
  3  4  2  0
  4  5  1  0
  4  6  1  0
  6  7  1  0
  7  8  2  0
  8  9  1  0
  9 10  2  0
 10 11  1  0
 11 12  2  0
 11 13  2  0
 11 14  1  0
 14 15  1  0
 15 16  1  0
 16 17  1  0
 17 18  1  0
 17 19  1  0
 19 20  1  0
 10 21  1  0
 21 22  2  0
  6 23  1  0
 23  2  2  0
 22  7  1  0
 20 14  1  0
  1 24  1  0
  1 25  1  0
  1 26  1  0
  3 27  1  0
  5 28  1  0
  5 29  1  0
  5 30  1  0
  8 31  1  0
  9 32  1  0
 15 33  1  0
 15 34  1  0
 16 35  1  0
 16 36  1  0
 18 37  1  0
 18 38  1  0
 18 39  1  0
 19 40  1  0
 19 41  1  0
 20 42  1  0
 20 43  1  0
 21 44  1  0
 22 45  1  0
M  END
>  <UniqueID>  (13) 
13

>  <SMILES>  (13) 
Cc1cc(C)n(-c2ccc(S(=O)(=O)N3CCN(C)CC3)cc2)n1

>  <Energy>  (13) 
88.02960437617983

>  <Genealogy>  (13) 
Cc1cc(C)n(-c2ccc(S(=O)(=O)N3CCN(C)CC3)cc2)n1 (3D coordinates assigned)
Cc1cc(C)n(-c2ccc(S(=O)(=O)N3CCN(C)CC3)cc2)n1 (nonaromatic ring conformer: 88.02960437617983 kcal/mol)

>  <smiles>  (13) 
Cc1cc(C)n(-c2ccc(S(=O)(=O)N3CCN(C)CC3)cc2)n1

>  <score_type>  (13) 
oracle

>  <origin>  (13) 
adgpu

>  <m_score__min__energy>  (13) 
-8.3300000000000001

>  <m_primary>  (13) 
energy

$$$$
13:0
     RDKit          3D

 35 37  0  0  0  0  0  0  0  0999 V2000
   -2.1740   23.6640  -26.7670 O   0  0  0  0  0  0  0  0  0  0  0  0
   -2.4780   22.8730  -27.7000 C   0  0  0  0  0  0  0  0  0  0  0  0
   -1.8300   21.5430  -27.7520 C   0  0  0  0  0  0  0  0  0  0  0  0
   -2.4260   20.4440  -27.1090 C   0  0  0  0  0  0  0  0  0  0  0  0
   -1.8330   19.1800  -27.1710 C   0  0  0  0  0  0  0  0  0  0  0  0
   -0.6450   18.9970  -27.8870 C   0  0  0  0  0  0  0  0  0  0  0  0
   -0.0570   17.7410  -27.9460 O   0  0  0  0  0  0  0  0  0  0  0  0
   -0.0540   20.0800  -28.5440 C   0  0  0  0  0  0  0  0  0  0  0  0
   -0.6450   21.3450  -28.4850 C   0  0  0  0  0  0  0  0  0  0  0  0
   -3.4740   23.3060  -28.7000 C   0  0  0  0  0  0  0  0  0  0  0  0
   -4.7270   22.7430  -28.8950 C   0  0  0  0  0  0  0  0  0  0  0  0
   -5.3950   23.4180  -29.8560 N   0  0  0  0  0  0  0  0  0  0  0  0
   -6.7670   23.1460  -30.2870 C   0  0  0  0  0  0  0  0  0  0  0  0
   -6.7830   22.0430  -31.3100 C   0  0  0  0  0  0  0  0  0  0  0  0
   -7.9910   21.4730  -31.7410 C   0  0  0  0  0  0  0  0  0  0  0  0
   -7.9800   20.4370  -32.6760 C   0  0  0  0  0  0  0  0  0  0  0  0
   -6.7600   19.9770  -33.1750 C   0  0  0  0  0  0  0  0  0  0  0  0
   -5.5970   20.5370  -32.7490 N   0  0  0  0  0  0  0  0  0  0  0  0
   -5.5810   21.5470  -31.8390 C   0  0  0  0  0  0  0  0  0  0  0  0
   -4.5910   24.4270  -30.2560 C   0  0  0  0  0  0  0  0  0  0  0  0
   -4.9160   25.3810  -31.2180 O   0  0  0  0  0  0  0  0  0  0  0  0
   -3.4050   24.3860  -29.5620 C   0  0  0  0  0  0  0  0  0  0  0  0
   -2.3630   25.2980  -29.6800 O   0  0  0  0  0  0  0  0  0  0  0  0
   -3.3655   20.5799  -26.5533 H   0  0  0  0  0  0  0  0  0  0  0  0
   -2.3009   18.3279  -26.6562 H   0  0  0  0  0  0  0  0  0  0  0  0
    0.8788   19.9362  -29.1090 H   0  0  0  0  0  0  0  0  0  0  0  0
   -0.1815   22.1905  -29.0143 H   0  0  0  0  0  0  0  0  0  0  0  0
   -5.1194   21.8737  -28.3470 H   0  0  0  0  0  0  0  0  0  0  0  0
   -7.3675   22.8427  -29.4167 H   0  0  0  0  0  0  0  0  0  0  0  0
   -7.1887   24.0573  -30.7362 H   0  0  0  0  0  0  0  0  0  0  0  0
   -8.9468   21.8430  -31.3416 H   0  0  0  0  0  0  0  0  0  0  0  0
   -8.9241   19.9869  -33.0167 H   0  0  0  0  0  0  0  0  0  0  0  0
   -6.7399   19.1614  -33.9129 H   0  0  0  0  0  0  0  0  0  0  0  0
   -4.6217   21.9775  -31.5158 H   0  0  0  0  0  0  0  0  0  0  0  0
   -4.2190   25.7760  -31.8350 H   0  0  0  0  0  0  0  0  0  0  0  0
  1  2  2  0
  2  3  1  0
  3  4  2  0
  4  5  1  0
  5  6  2  0
  6  7  1  0
  6  8  1  0
  8  9  2  0
  2 10  1  0
 10 11  2  0
 11 12  1  0
 12 13  1  0
 13 14  1  0
 14 15  2  0
 15 16  1  0
 16 17  2  0
 17 18  1  0
 18 19  2  0
 12 20  1  0
 20 21  1  0
 20 22  2  0
 22 23  1  0
  9  3  1  0
 22 10  1  0
 19 14  1  0
  4 24  1  0
  5 25  1  0
  8 26  1  0
  9 27  1  0
 11 28  1  0
 13 29  1  0
 13 30  1  0
 15 31  1  0
 16 32  1  0
 17 33  1  0
 19 34  1  0
 21 35  1  0
M  CHG  2   7  -1  23  -1
M  END
>  <UniqueID>  (14) 
14

>  <SMILES>  (14) 
O=C(c1ccc([O-])cc1)c1cn(Cc2cccnc2)c(O)c1[O-]

>  <Energy>  (14) 
71.30990204336035

>  <Genealogy>  (14) 
O=C(c1ccc([O-])cc1)c1cn(Cc2cccnc2)c(O)c1[O-] (protonated)
O=C(c1ccc([O-])cc1)c1cn(Cc2cccnc2)c(O)c1[O-] (3D coordinates assigned)
O=C(c1ccc([O-])cc1)c1cn(Cc2cccnc2)c(O)c1[O-] (optimized conformer: 71.30990204336035 kcal/mol)

>  <smiles>  (14) 
O=C(c1ccc(O)cc1)c1cn(Cc2cccnc2)c(O)c1O

>  <score_type>  (14) 
oracle

>  <origin>  (14) 
adgpu

>  <m_score__min__energy>  (14) 
-10.789999999999999

>  <m_primary>  (14) 
energy

$$$$
14:0
     RDKit          3D

 54 57  0  0  0  0  0  0  0  0999 V2000
   -4.2340   25.4750  -30.8230 O   0  0  0  0  0  0  0  0  0  0  0  0
   -4.2070   24.2150  -30.8460 C   0  0  0  0  0  0  0  0  0  0  0  0
   -2.9490   23.5600  -30.6320 N   0  0  0  0  0  0  0  0  0  0  0  0
   -2.6880   22.4540  -29.7540 C   0  0  0  0  0  0  0  0  0  0  0  0
   -3.3310   22.4460  -28.5090 C   0  0  0  0  0  0  0  0  0  0  0  0
   -3.1130   21.4070  -27.6030 C   0  0  0  0  0  0  0  0  0  0  0  0
   -2.2740   20.3480  -27.9440 C   0  0  0  0  0  0  0  0  0  0  0  0
   -1.6550   20.3220  -29.1950 C   0  0  0  0  0  0  0  0  0  0  0  0
   -1.8490   21.3680  -30.1140 C   0  0  0  0  0  0  0  0  0  0  0  0
   -1.2520   21.2640  -31.4210 N   0  0  0  0  0  0  0  0  0  0  0  0
   -2.0850   21.5500  -32.5990 C   0  0  0  0  0  0  0  0  0  0  0  0
   -1.3830   21.1880  -33.9070 C   0  0  0  0  0  0  0  0  0  0  0  0
   -0.0120   21.5020  -33.8340 O   0  0  0  0  0  0  0  0  0  0  0  0
    0.6150   20.5920  -32.9590 C   0  0  0  0  0  0  0  0  0  0  0  0
    0.1370   20.7800  -31.5130 C   0  0  0  0  0  0  0  0  0  0  0  0
   -5.4550   23.4740  -31.1480 C   0  0  0  0  0  0  0  0  0  0  0  0
   -6.7000   24.1120  -31.0010 C   0  0  0  0  0  0  0  0  0  0  0  0
   -7.8850   23.4260  -31.2770 C   0  0  0  0  0  0  0  0  0  0  0  0
   -7.8420   22.1000  -31.7110 C   0  0  0  0  0  0  0  0  0  0  0  0
   -6.6110   21.4530  -31.8780 C   0  0  0  0  0  0  0  0  0  0  0  0
   -6.5550   19.7720  -32.4170 S   0  0  0  0  0  0  0  0  0  0  0  0
   -6.3660   18.8760  -31.2240 O   0  0  0  0  0  0  0  0  0  0  0  0
   -7.8640   19.4140  -33.0630 O   0  0  0  0  0  0  0  0  0  0  0  0
   -5.2600   19.5040  -33.5620 N   0  0  0  0  0  0  0  0  0  0  0  0
   -4.0560   19.0070  -32.8690 C   0  0  0  0  0  0  0  0  0  0  0  0
   -3.1000   18.3420  -33.8710 C   0  0  0  0  0  0  0  0  0  0  0  0
   -3.6580   17.2200  -34.5460 O   0  0  0  0  0  0  0  0  0  0  0  0
   -5.0780   17.2240  -34.5900 C   0  0  0  0  0  0  0  0  0  0  0  0
   -5.6840   18.6370  -34.6830 C   0  0  0  0  0  0  0  0  0  0  0  0
   -5.4220   22.1470  -31.6120 C   0  0  0  0  0  0  0  0  0  0  0  0
   -4.0140   23.2663  -28.2432 H   0  0  0  0  0  0  0  0  0  0  0  0
   -3.6040   21.4241  -26.6188 H   0  0  0  0  0  0  0  0  0  0  0  0
   -2.0994   19.5321  -27.2271 H   0  0  0  0  0  0  0  0  0  0  0  0
   -1.0085   19.4739  -29.4646 H   0  0  0  0  0  0  0  0  0  0  0  0
   -3.0155   20.9681  -32.5240 H   0  0  0  0  0  0  0  0  0  0  0  0
   -2.2875   22.6311  -32.6136 H   0  0  0  0  0  0  0  0  0  0  0  0
   -1.4981   20.1100  -34.0934 H   0  0  0  0  0  0  0  0  0  0  0  0
   -1.8371   21.7649  -34.7261 H   0  0  0  0  0  0  0  0  0  0  0  0
    0.3811   19.5669  -33.2821 H   0  0  0  0  0  0  0  0  0  0  0  0
    1.6992   20.7753  -32.9901 H   0  0  0  0  0  0  0  0  0  0  0  0
    0.2058   19.8131  -30.9931 H   0  0  0  0  0  0  0  0  0  0  0  0
    0.7812   21.5429  -31.0514 H   0  0  0  0  0  0  0  0  0  0  0  0
   -6.7407   25.1590  -30.6662 H   0  0  0  0  0  0  0  0  0  0  0  0
   -8.8539   23.9316  -31.1521 H   0  0  0  0  0  0  0  0  0  0  0  0
   -8.7776   21.5616  -31.9225 H   0  0  0  0  0  0  0  0  0  0  0  0
   -3.5432   19.8501  -32.3829 H   0  0  0  0  0  0  0  0  0  0  0  0
   -4.3578   18.2644  -32.1157 H   0  0  0  0  0  0  0  0  0  0  0  0
   -2.8123   19.0907  -34.6238 H   0  0  0  0  0  0  0  0  0  0  0  0
   -2.2408   17.9709  -33.2930 H   0  0  0  0  0  0  0  0  0  0  0  0
   -5.4011   16.6477  -35.4695 H   0  0  0  0  0  0  0  0  0  0  0  0
   -5.4329   16.7802  -33.6482 H   0  0  0  0  0  0  0  0  0  0  0  0
   -5.3625   19.0984  -35.6284 H   0  0  0  0  0  0  0  0  0  0  0  0
   -6.7785   18.5377  -34.6366 H   0  0  0  0  0  0  0  0  0  0  0  0
   -4.4539   21.6485  -31.7678 H   0  0  0  0  0  0  0  0  0  0  0  0
  1  2  2  0
  2  3  1  0
  3  4  1  0
  4  5  2  0
  5  6  1  0
  6  7  2  0
  7  8  1  0
  8  9  2  0
  9 10  1  0
 10 11  1  0
 11 12  1  0
 12 13  1  0
 13 14  1  0
 14 15  1  0
  2 16  1  0
 16 17  2  0
 17 18  1  0
 18 19  2  0
 19 20  1  0
 20 21  1  0
 21 22  2  0
 21 23  2  0
 21 24  1  0
 24 25  1  0
 25 26  1  0
 26 27  1  0
 27 28  1  0
 28 29  1  0
 20 30  2  0
  9  4  1  0
 15 10  1  0
 30 16  1  0
 29 24  1  0
  5 31  1  0
  6 32  1  0
  7 33  1  0
  8 34  1  0
 11 35  1  0
 11 36  1  0
 12 37  1  0
 12 38  1  0
 14 39  1  0
 14 40  1  0
 15 41  1  0
 15 42  1  0
 17 43  1  0
 18 44  1  0
 19 45  1  0
 25 46  1  0
 25 47  1  0
 26 48  1  0
 26 49  1  0
 28 50  1  0
 28 51  1  0
 29 52  1  0
 29 53  1  0
 30 54  1  0
M  CHG  1   3  -1
M  END
>  <UniqueID>  (15) 
15

>  <SMILES>  (15) 
O=C([N-]c1ccccc1N1CCOCC1)c1cccc(S(=O)(=O)N2CCOCC2)c1

>  <Energy>  (15) 
80.30163166540133

>  <Genealogy>  (15) 
O=C([N-]c1ccccc1N1CCOCC1)c1cccc(S(=O)(=O)N2CCOCC2)c1 (protonated)
O=C([N-]c1ccccc1N1CCOCC1)c1cccc(S(=O)(=O)N2CCOCC2)c1 (3D coordinates assigned)
O=C([N-]c1ccccc1N1CCOCC1)c1cccc(S(=O)(=O)N2CCOCC2)c1 (nonaromatic ring conformer: 80.30163166540133 kcal/mol)

>  <smiles>  (15) 
O=C(Nc1ccccc1N1CCOCC1)c1cccc(S(=O)(=O)N2CCOCC2)c1

>  <score_type>  (15) 
oracle

>  <origin>  (15) 
adgpu

>  <m_score__min__energy>  (15) 
-10.380000000000001

>  <m_primary>  (15) 
energy

$$$$
15:0
     RDKit          3D

 41 43  0  0  1  0  0  0  0  0999 V2000
   -1.7470   25.9610  -25.7520 C   0  0  0  0  0  0  0  0  0  0  0  0
   -0.4870   26.2550  -26.4990 C   0  0  0  0  0  0  0  0  0  0  0  0
   -0.4010   25.4710  -27.7830 C   0  0  0  0  0  0  0  0  0  0  0  0
    0.6680   24.9240  -28.1570 O   0  0  0  0  0  0  0  0  0  0  0  0
   -1.6150   25.4000  -28.5340 N   0  0  0  0  0  0  0  0  0  0  0  0
   -2.1670   24.2610  -28.8270 C   0  0  0  0  0  0  0  0  0  0  0  0
   -1.5710   23.0670  -28.4030 C   0  0  0  0  0  0  0  0  0  0  0  0
   -2.1740   21.8620  -28.7240 C   0  0  0  0  0  0  0  0  0  0  0  0
   -1.5750   20.6150  -28.2960 C   0  0  0  0  0  0  0  0  0  0  0  0
   -0.3710   20.1720  -28.8150 C   0  0  0  0  0  0  0  0  0  0  0  0
    0.2070   18.9660  -28.4000 C   0  0  0  0  0  0  0  0  0  0  0  0
   -0.4060   18.1750  -27.4550 C   0  0  0  0  0  0  0  0  0  0  0  0
    0.2220   17.0000  -27.0940 O   0  0  0  0  0  0  0  0  0  0  0  0
   -1.5920   18.6020  -26.9370 C   0  0  0  0  0  0  0  0  0  0  0  0
   -2.1660   19.8020  -27.3510 C   0  0  0  0  0  0  0  0  0  0  0  0
   -3.3100   21.9350  -29.4330 N   0  0  0  0  0  0  0  0  0  0  0  0
   -3.8800   23.0810  -29.8380 C   0  0  0  0  0  0  0  0  0  0  0  0
   -5.1140   23.1210  -30.6070 C   0  0  0  0  0  0  0  0  0  0  0  0
   -5.4120   22.2480  -31.6280 C   0  0  0  0  0  0  0  0  0  0  0  0
   -6.6050   22.3150  -32.3450 C   0  0  0  0  0  0  0  0  0  0  0  0
   -7.5410   23.2800  -32.0430 C   0  0  0  0  0  0  0  0  0  0  0  0
   -7.2650   24.1660  -31.0240 C   0  0  0  0  0  0  0  0  0  0  0  0
   -6.0860   24.0830  -30.3330 C   0  0  0  0  0  0  0  0  0  0  0  0
   -3.3050   24.2500  -29.5340 N   0  0  0  0  0  0  0  0  0  0  0  0
   -1.5513   26.0067  -24.6705 H   0  0  0  0  0  0  0  0  0  0  0  0
   -2.5128   26.7046  -26.0177 H   0  0  0  0  0  0  0  0  0  0  0  0
   -2.1046   24.9553  -26.0177 H   0  0  0  0  0  0  0  0  0  0  0  0
   -0.4554   27.3289  -26.7349 H   0  0  0  0  0  0  0  0  0  0  0  0
    0.3626   25.9643  -25.8636 H   0  0  0  0  0  0  0  0  0  0  0  0
   -0.6366   23.0857  -27.8229 H   0  0  0  0  0  0  0  0  0  0  0  0
    0.1443   20.7819  -29.5717 H   0  0  0  0  0  0  0  0  0  0  0  0
    1.1651   18.6461  -28.8356 H   0  0  0  0  0  0  0  0  0  0  0  0
   -0.3530   16.2970  -26.6120 H   0  0  0  0  0  0  0  0  0  0  0  0
   -2.1041   17.9896  -26.1802 H   0  0  0  0  0  0  0  0  0  0  0  0
   -3.1242   20.1122  -26.9088 H   0  0  0  0  0  0  0  0  0  0  0  0
   -3.7820   21.0580  -29.6870 H   0  0  0  0  0  0  0  0  0  0  0  0
   -4.6812   21.4681  -31.8879 H   0  0  0  0  0  0  0  0  0  0  0  0
   -6.8000   21.5957  -33.1541 H   0  0  0  0  0  0  0  0  0  0  0  0
   -8.4863   23.3418  -32.6021 H   0  0  0  0  0  0  0  0  0  0  0  0
   -7.9969   24.9450  -30.7642 H   0  0  0  0  0  0  0  0  0  0  0  0
   -5.8971   24.8067  -29.5264 H   0  0  0  0  0  0  0  0  0  0  0  0
  1  2  1  0
  2  3  1  0
  3  4  2  0
  3  5  1  0
  5  6  2  0
  6  7  1  0
  7  8  2  0
  8  9  1  0
  9 10  2  0
 10 11  1  0
 11 12  2  0
 12 13  1  0
 12 14  1  0
 14 15  2  0
  8 16  1  0
 16 17  1  0
 17 18  1  0
 18 19  2  0
 19 20  1  0
 20 21  2  0
 21 22  1  0
 22 23  2  0
 17 24  2  0
 24  6  1  0
 15  9  1  0
 23 18  1  0
  1 25  1  0
  1 26  1  0
  1 27  1  0
  2 28  1  0
  2 29  1  0
  7 30  1  0
 10 31  1  0
 11 32  1  0
 13 33  1  0
 14 34  1  0
 15 35  1  0
 16 36  1  0
 19 37  1  0
 20 38  1  0
 21 39  1  0
 22 40  1  0
 23 41  1  0
M  END
>  <smiles>  (16) 
CCC(=O)N=c1cc(-c2ccc(O)cc2)[nH]c(-c2ccccc2)n1

>  <score_type>  (16) 
oracle

>  <origin>  (16) 
adgpu

>  <m_score__min__energy>  (16) 
-8.2300000000000004

>  <m_primary>  (16) 
energy

$$$$
16:0
     RDKit          3D

 72 76  0  0  0  0  0  0  0  0999 V2000
   -5.7680   18.9550  -31.5700 C   0  0  0  0  0  0  0  0  0  0  0  0
   -5.2550   19.9680  -32.6260 C   0  0  2  0  0  0  0  0  0  0  0  0
   -4.6530   19.1820  -33.7540 N   0  0  0  0  0  0  0  0  0  0  0  0
   -5.5210   18.2310  -34.4610 C   0  0  0  0  0  0  0  0  0  0  0  0
   -4.5930   17.2970  -35.2080 C   0  0  0  0  0  0  0  0  0  0  0  0
   -3.3520   17.2260  -34.3440 C   0  0  0  0  0  0  0  0  0  0  0  0
   -3.4000   18.4670  -33.4550 C   0  0  0  0  0  0  0  0  0  0  0  0
   -4.1570   20.8370  -31.9250 C   0  0  0  0  0  0  0  0  0  0  0  0
   -4.1430   22.2980  -32.4090 C   0  0  0  0  0  0  0  0  0  0  0  0
   -5.4490   22.9900  -32.2300 N   0  0  2  0  0  0  0  0  0  0  0  0
   -5.4220   24.0140  -30.8130 S   0  0  0  0  0  0  0  0  0  0  0  0
   -5.1510   25.4360  -31.2150 O   0  0  0  0  0  0  0  0  0  0  0  0
   -6.7520   23.9600  -30.1130 O   0  0  0  0  0  0  0  0  0  0  0  0
   -4.1450   23.4790  -29.7210 C   0  0  0  0  0  0  0  0  0  0  0  0
   -4.1480   22.1840  -29.2040 C   0  0  0  0  0  0  0  0  0  0  0  0
   -3.1100   21.7560  -28.3800 C   0  0  0  0  0  0  0  0  0  0  0  0
   -2.0450   22.6110  -28.0540 C   0  0  0  0  0  0  0  0  0  0  0  0
   -0.7820   21.9750  -26.9790 S   0  0  0  0  0  0  0  0  0  0  0  0
   -1.2210   22.1340  -25.5490 O   0  0  0  0  0  0  0  0  0  0  0  0
    0.4930   22.7510  -27.1610 O   0  0  0  0  0  0  0  0  0  0  0  0
   -0.4300   20.2910  -27.3530 C   0  0  0  0  0  0  0  0  0  0  0  0
    0.6470   19.9530  -28.1840 C   0  0  0  0  0  0  0  0  0  0  0  0
    0.9210   18.6120  -28.4680 C   0  0  0  0  0  0  0  0  0  0  0  0
    0.1150   17.6040  -27.9300 C   0  0  0  0  0  0  0  0  0  0  0  0
   -0.9650   17.9360  -27.1070 C   0  0  0  0  0  0  0  0  0  0  0  0
   -1.2410   19.2770  -26.8210 C   0  0  0  0  0  0  0  0  0  0  0  0
   -2.0330   23.9340  -28.5850 C   0  0  0  0  0  0  0  0  0  0  0  0
   -0.7630   25.1270  -28.2250 S   0  0  0  0  0  0  0  0  0  0  0  0
   -0.9770   26.4070  -28.9800 O   0  0  0  0  0  0  0  0  0  0  0  0
    0.5730   24.5500  -28.6020 O   0  0  0  0  0  0  0  0  0  0  0  0
   -0.7590   25.5410  -26.5060 C   0  0  0  0  0  0  0  0  0  0  0  0
   -1.9020   26.0930  -25.9050 C   0  0  0  0  0  0  0  0  0  0  0  0
   -1.8930   26.4200  -24.5450 C   0  0  0  0  0  0  0  0  0  0  0  0
   -0.7440   26.2020  -23.7800 C   0  0  0  0  0  0  0  0  0  0  0  0
    0.4000   25.6600  -24.3720 C   0  0  0  0  0  0  0  0  0  0  0  0
    0.3970   25.3320  -25.7310 C   0  0  0  0  0  0  0  0  0  0  0  0
    1.5190   24.8160  -26.2940 F   0  0  0  0  0  0  0  0  0  0  0  0
   -3.0970   24.3460  -29.4050 C   0  0  0  0  0  0  0  0  0  0  0  0
   -6.6180   22.0840  -32.1640 C   0  0  0  0  0  0  0  0  0  0  0  0
   -6.4510   20.8680  -33.0860 C   0  0  0  0  0  0  0  0  0  0  0  0
   -5.5702   19.3455  -30.5609 H   0  0  0  0  0  0  0  0  0  0  0  0
   -6.8501   18.8062  -31.7000 H   0  0  0  0  0  0  0  0  0  0  0  0
   -5.2476   17.9947  -31.7000 H   0  0  0  0  0  0  0  0  0  0  0  0
   -6.1348   17.6670  -33.7433 H   0  0  0  0  0  0  0  0  0  0  0  0
   -6.2112   18.7464  -35.1452 H   0  0  0  0  0  0  0  0  0  0  0  0
   -5.0483   16.3016  -35.3173 H   0  0  0  0  0  0  0  0  0  0  0  0
   -4.3743   17.6504  -36.2265 H   0  0  0  0  0  0  0  0  0  0  0  0
   -3.3629   16.3132  -33.7303 H   0  0  0  0  0  0  0  0  0  0  0  0
   -2.4347   17.1945  -34.9503 H   0  0  0  0  0  0  0  0  0  0  0  0
   -3.3811   18.1705  -32.3959 H   0  0  0  0  0  0  0  0  0  0  0  0
   -2.5312   19.1136  -33.6477 H   0  0  0  0  0  0  0  0  0  0  0  0
   -3.1730   20.3906  -32.1309 H   0  0  0  0  0  0  0  0  0  0  0  0
   -4.3864   20.8501  -30.8493 H   0  0  0  0  0  0  0  0  0  0  0  0
   -3.8856   22.3091  -33.4784 H   0  0  0  0  0  0  0  0  0  0  0  0
   -3.4027   22.8363  -31.7990 H   0  0  0  0  0  0  0  0  0  0  0  0
   -5.5850   23.6290  -33.0490 H   0  0  0  0  0  0  0  0  0  0  0  0
   -4.9728   21.4983  -29.4478 H   0  0  0  0  0  0  0  0  0  0  0  0
   -3.1247   20.7321  -27.9783 H   0  0  0  0  0  0  0  0  0  0  0  0
    1.2781   20.7449  -28.6137 H   0  0  0  0  0  0  0  0  0  0  0  0
    1.7710   18.3496  -29.1150 H   0  0  0  0  0  0  0  0  0  0  0  0
    0.3310   16.5490  -28.1546 H   0  0  0  0  0  0  0  0  0  0  0  0
   -1.5982   17.1422  -26.6840 H   0  0  0  0  0  0  0  0  0  0  0  0
   -2.0949   19.5371  -26.1782 H   0  0  0  0  0  0  0  0  0  0  0  0
   -2.8068   26.2687  -26.5054 H   0  0  0  0  0  0  0  0  0  0  0  0
   -2.7913   26.8492  -24.0772 H   0  0  0  0  0  0  0  0  0  0  0  0
   -0.7401   26.4575  -22.7101 H   0  0  0  0  0  0  0  0  0  0  0  0
    1.3038   25.4913  -23.7681 H   0  0  0  0  0  0  0  0  0  0  0  0
   -3.1045   25.3705  -29.8054 H   0  0  0  0  0  0  0  0  0  0  0  0
   -7.5170   22.6403  -32.4680 H   0  0  0  0  0  0  0  0  0  0  0  0
   -6.7090   21.7188  -31.1304 H   0  0  0  0  0  0  0  0  0  0  0  0
   -6.2625   21.2186  -34.1115 H   0  0  0  0  0  0  0  0  0  0  0  0
   -7.3732   20.2698  -33.0437 H   0  0  0  0  0  0  0  0  0  0  0  0
  2  1  1  1
  2  3  1  0
  3  4  1  0
  4  5  1  0
  5  6  1  0
  6  7  1  0
  2  8  1  0
  8  9  1  0
  9 10  1  0
 10 11  1  0
 11 12  2  0
 11 13  2  0
 11 14  1  0
 14 15  2  0
 15 16  1  0
 16 17  2  0
 17 18  1  0
 18 19  2  0
 18 20  2  0
 18 21  1  0
 21 22  2  0
 22 23  1  0
 23 24  2  0
 24 25  1  0
 25 26  2  0
 17 27  1  0
 27 28  1  0
 28 29  2  0
 28 30  2  0
 28 31  1  0
 31 32  2  0
 32 33  1  0
 33 34  2  0
 34 35  1  0
 35 36  2  0
 36 37  1  0
 27 38  2  0
 10 39  1  0
 39 40  1  0
 40  2  1  0
  7  3  1  0
 38 14  1  0
 26 21  1  0
 36 31  1  0
  1 41  1  0
  1 42  1  0
  1 43  1  0
  4 44  1  0
  4 45  1  0
  5 46  1  0
  5 47  1  0
  6 48  1  0
  6 49  1  0
  7 50  1  0
  7 51  1  0
  8 52  1  0
  8 53  1  0
  9 54  1  0
  9 55  1  0
 10 56  1  6
 15 57  1  0
 16 58  1  0
 22 59  1  0
 23 60  1  0
 24 61  1  0
 25 62  1  0
 26 63  1  0
 32 64  1  0
 33 65  1  0
 34 66  1  0
 35 67  1  0
 38 68  1  0
 39 69  1  0
 39 70  1  0
 40 71  1  0
 40 72  1  0
M  CHG  1  10   1
M  END
>  <UniqueID>  (17) 
16

>  <SMILES>  (17) 
CC1(N2CCCC2)CC[NH+](S(=O)(=O)c2ccc(S(=O)(=O)c3ccccc3)c(S(=O)(=O)c3ccccc3F)c2)CC1

>  <Energy>  (17) 
102.39237020284831

>  <Genealogy>  (17) 
CC1(N2CCCC2)CC[NH+](S(=O)(=O)c2ccc(S(=O)(=O)c3ccccc3)c(S(=O)(=O)c3ccccc3F)c2)CC1 (protonated)
CC1(N2CCCC2)CC[NH+](S(=O)(=O)c2ccc(S(=O)(=O)c3ccccc3)c(S(=O)(=O)c3ccccc3F)c2)CC1 (3D coordinates assigned)
CC1(N2CCCC2)CC[NH+](S(=O)(=O)c2ccc(S(=O)(=O)c3ccccc3)c(S(=O)(=O)c3ccccc3F)c2)CC1 (nonaromatic ring conformer: 102.39237020284831 kcal/mol)

>  <smiles>  (17) 
CC1(N2CCCC2)CCN(S(=O)(=O)c2ccc(S(=O)(=O)c3ccccc3)c(S(=O)(=O)c3ccccc3F)c2)CC1

>  <score_type>  (17) 
oracle

>  <origin>  (17) 
adgpu

>  <m_score__min__energy>  (17) 
-11.84

>  <m_primary>  (17) 
energy

$$$$
17:0
     RDKit          3D

 56 59  0  0  0  0  0  0  0  0999 V2000
   -4.5810   14.5240  -34.0040 C   0  0  0  0  0  0  0  0  0  0  0  0
   -5.2350   15.7270  -34.3980 O   0  0  0  0  0  0  0  0  0  0  0  0
   -5.6310   16.7400  -33.5130 C   0  0  0  0  0  0  0  0  0  0  0  0
   -5.7170   16.4330  -32.1510 C   0  0  0  0  0  0  0  0  0  0  0  0
   -6.1080   17.4090  -31.2280 C   0  0  0  0  0  0  0  0  0  0  0  0
   -6.4130   18.7030  -31.6590 C   0  0  0  0  0  0  0  0  0  0  0  0
   -6.3270   19.0310  -33.0200 C   0  0  0  0  0  0  0  0  0  0  0  0
   -6.6770   20.4150  -33.4930 C   0  0  0  0  0  0  0  0  0  0  0  0
   -7.3900   21.1440  -32.4420 N   0  0  0  0  0  0  0  0  0  0  0  0
   -8.6250   20.8680  -32.0560 N   0  0  0  0  0  0  0  0  0  0  0  0
   -8.9640   21.6950  -31.0500 C   0  0  0  0  0  0  0  0  0  0  0  0
   -7.9000   22.5360  -30.7760 C   0  0  0  0  0  0  0  0  0  0  0  0
   -6.9170   22.1480  -31.6790 C   0  0  0  0  0  0  0  0  0  0  0  0
   -5.7020   22.6160  -31.7750 N   0  0  0  0  0  0  0  0  0  0  0  0
   -5.1450   23.7270  -31.0500 C   0  0  0  0  0  0  0  0  0  0  0  0
   -5.3370   24.9080  -31.4480 O   0  0  0  0  0  0  0  0  0  0  0  0
   -4.2930   23.4840  -29.8640 C   0  0  0  0  0  0  0  0  0  0  0  0
   -4.4970   22.3540  -29.0530 C   0  0  0  0  0  0  0  0  0  0  0  0
   -3.7010   22.1360  -27.9280 C   0  0  0  0  0  0  0  0  0  0  0  0
   -2.6890   23.0390  -27.6000 C   0  0  0  0  0  0  0  0  0  0  0  0
   -2.4620   24.1650  -28.4020 C   0  0  0  0  0  0  0  0  0  0  0  0
   -1.1490   25.2810  -28.0210 S   0  0  0  0  0  0  0  0  0  0  0  0
   -1.1980   26.4480  -28.9680 O   0  0  0  0  0  0  0  0  0  0  0  0
    0.1670   24.5790  -28.2160 O   0  0  0  0  0  0  0  0  0  0  0  0
   -1.2520   25.8710  -26.3800 N   0  0  0  0  0  0  0  0  0  0  0  0
   -0.4930   25.0000  -25.4670 C   0  0  0  0  0  0  0  0  0  0  0  0
   -0.4850   25.5920  -24.0390 C   0  0  0  0  0  0  0  0  0  0  0  0
   -1.2960   26.7470  -23.9540 O   0  0  0  0  0  0  0  0  0  0  0  0
   -0.8070   27.7440  -24.8330 C   0  0  0  0  0  0  0  0  0  0  0  0
   -0.7490   27.2490  -26.2940 C   0  0  0  0  0  0  0  0  0  0  0  0
   -3.2690   24.3880  -29.5260 C   0  0  0  0  0  0  0  0  0  0  0  0
   -5.9410   18.0450  -33.9460 C   0  0  0  0  0  0  0  0  0  0  0  0
   -4.5497   14.4664  -32.9060 H   0  0  0  0  0  0  0  0  0  0  0  0
   -5.1333   13.6595  -34.4009 H   0  0  0  0  0  0  0  0  0  0  0  0
   -3.5551   14.5174  -34.4009 H   0  0  0  0  0  0  0  0  0  0  0  0
   -5.4757   15.4177  -31.8034 H   0  0  0  0  0  0  0  0  0  0  0  0
   -6.1756   17.1570  -30.1594 H   0  0  0  0  0  0  0  0  0  0  0  0
   -6.7212   19.4661  -30.9291 H   0  0  0  0  0  0  0  0  0  0  0  0
   -5.7538   20.9560  -33.7481 H   0  0  0  0  0  0  0  0  0  0  0  0
   -7.3246   20.3382  -34.3788 H   0  0  0  0  0  0  0  0  0  0  0  0
   -9.2270   20.1160  -32.4610 H   0  0  0  0  0  0  0  0  0  0  0  0
   -9.9326   21.7014  -30.5286 H   0  0  0  0  0  0  0  0  0  0  0  0
   -7.8446   23.3302  -30.0170 H   0  0  0  0  0  0  0  0  0  0  0  0
   -5.2905   21.6359  -29.3074 H   0  0  0  0  0  0  0  0  0  0  0  0
   -3.8716   21.2504  -27.2983 H   0  0  0  0  0  0  0  0  0  0  0  0
   -2.0676   22.8662  -26.7090 H   0  0  0  0  0  0  0  0  0  0  0  0
   -0.9602   24.0044  -25.4439 H   0  0  0  0  0  0  0  0  0  0  0  0
    0.5436   24.9231  -25.8270 H   0  0  0  0  0  0  0  0  0  0  0  0
   -0.8646   24.8358  -23.3361 H   0  0  0  0  0  0  0  0  0  0  0  0
    0.5478   25.8754  -23.7879 H   0  0  0  0  0  0  0  0  0  0  0  0
   -1.4705   28.6198  -24.7809 H   0  0  0  0  0  0  0  0  0  0  0  0
    0.2160   28.0005  -24.5203 H   0  0  0  0  0  0  0  0  0  0  0  0
   -1.3693   27.9029  -26.9247 H   0  0  0  0  0  0  0  0  0  0  0  0
    0.2943   27.2741  -26.6418 H   0  0  0  0  0  0  0  0  0  0  0  0
   -3.1003   25.2781  -30.1498 H   0  0  0  0  0  0  0  0  0  0  0  0
   -5.8807   18.2942  -35.0157 H   0  0  0  0  0  0  0  0  0  0  0  0
  1  2  1  0
  2  3  1  0
  3  4  2  0
  4  5  1  0
  5  6  2  0
  6  7  1  0
  7  8  1  0
  8  9  1  0
  9 10  1  0
 10 11  1  0
 11 12  2  0
 12 13  1  0
 13 14  2  3
 14 15  1  0
 15 16  2  0
 15 17  1  0
 17 18  2  0
 18 19  1  0
 19 20  2  0
 20 21  1  0
 21 22  1  0
 22 23  2  0
 22 24  2  0
 22 25  1  0
 25 26  1  0
 26 27  1  0
 27 28  1  0
 28 29  1  0
 29 30  1  0
 21 31  2  0
  7 32  2  0
 32  3  1  0
 13  9  1  0
 31 17  1  0
 30 25  1  0
  1 33  1  0
  1 34  1  0
  1 35  1  0
  4 36  1  0
  5 37  1  0
  6 38  1  0
  8 39  1  0
  8 40  1  0
 10 41  1  0
 11 42  1  0
 12 43  1  0
 18 44  1  0
 19 45  1  0
 20 46  1  0
 26 47  1  0
 26 48  1  0
 27 49  1  0
 27 50  1  0
 29 51  1  0
 29 52  1  0
 30 53  1  0
 30 54  1  0
 31 55  1  0
 32 56  1  0
M  END
>  <UniqueID>  (18) 
17

>  <SMILES>  (18) 
COc1cccc(Cn2[nH]ccc2=NC(=O)c2cccc(S(=O)(=O)N3CCOCC3)c2)c1

>  <Energy>  (18) 
100.60089714563225

>  <Genealogy>  (18) 
COc1cccc(Cn2[nH]ccc2=NC(=O)c2cccc(S(=O)(=O)N3CCOCC3)c2)c1 (3D coordinates assigned)
COc1cccc(Cn2[nH]ccc2=NC(=O)c2cccc(S(=O)(=O)N3CCOCC3)c2)c1 (nonaromatic ring conformer: 100.60089714563225 kcal/mol)

>  <smiles>  (18) 
COc1cccc(Cn2[nH]ccc2=NC(=O)c2cccc(S(=O)(=O)N3CCOCC3)c2)c1

>  <score_type>  (18) 
oracle

>  <origin>  (18) 
adgpu

>  <m_score__min__energy>  (18) 
-10.41

>  <m_primary>  (18) 
energy

$$$$
18:0
     RDKit          3D

 27 28  0  0  0  0  0  0  0  0999 V2000
   -3.8630   25.3090  -30.8710 O   0  0  0  0  0  0  0  0  0  0  0  0
   -4.9920   24.7590  -30.0480 S   0  0  0  0  0  0  0  0  0  0  0  0
   -5.9470   25.8730  -29.7180 O   0  0  0  0  0  0  0  0  0  0  0  0
   -4.3540   24.1060  -28.5740 N   0  0  0  0  0  0  0  0  0  0  0  0
   -3.0520   23.5210  -28.4170 C   0  0  0  0  0  0  0  0  0  0  0  0
   -2.8900   22.1730  -28.0440 C   0  0  0  0  0  0  0  0  0  0  0  0
   -1.6110   21.6270  -27.9060 C   0  0  0  0  0  0  0  0  0  0  0  0
   -0.4840   22.4170  -28.1360 C   0  0  0  0  0  0  0  0  0  0  0  0
   -0.6330   23.7550  -28.5050 C   0  0  0  0  0  0  0  0  0  0  0  0
   -1.9090   24.3130  -28.6470 C   0  0  0  0  0  0  0  0  0  0  0  0
   -2.0160   25.6530  -29.0180 O   0  0  0  0  0  0  0  0  0  0  0  0
   -5.8050   23.4970  -30.9670 C   0  0  0  0  0  0  0  0  0  0  0  0
   -5.0610   22.5000  -31.6150 C   0  0  0  0  0  0  0  0  0  0  0  0
   -5.7110   21.5050  -32.3510 C   0  0  0  0  0  0  0  0  0  0  0  0
   -7.1060   21.4980  -32.4410 C   0  0  0  0  0  0  0  0  0  0  0  0
   -7.8530   22.4860  -31.7930 C   0  0  0  0  0  0  0  0  0  0  0  0
   -9.2060   22.4780  -31.8770 F   0  0  0  0  0  0  0  0  0  0  0  0
   -7.2050   23.4830  -31.0560 C   0  0  0  0  0  0  0  0  0  0  0  0
   -3.7751   21.5462  -27.8602 H   0  0  0  0  0  0  0  0  0  0  0  0
   -1.4925   20.5727  -27.6156 H   0  0  0  0  0  0  0  0  0  0  0  0
    0.5219   21.9854  -28.0265 H   0  0  0  0  0  0  0  0  0  0  0  0
    0.2577   24.3747  -28.6853 H   0  0  0  0  0  0  0  0  0  0  0  0
   -2.8860   26.0590  -29.3440 H   0  0  0  0  0  0  0  0  0  0  0  0
   -3.9633   22.5011  -31.5439 H   0  0  0  0  0  0  0  0  0  0  0  0
   -5.1239   20.7264  -32.8601 H   0  0  0  0  0  0  0  0  0  0  0  0
   -7.6158   20.7151  -33.0217 H   0  0  0  0  0  0  0  0  0  0  0  0
   -7.7948   24.2581  -30.5449 H   0  0  0  0  0  0  0  0  0  0  0  0
  1  2  2  0
  2  3  2  0
  2  4  1  0
  4  5  1  0
  5  6  2  0
  6  7  1  0
  7  8  2  0
  8  9  1  0
  9 10  2  0
 10 11  1  0
  2 12  1  0
 12 13  2  0
 13 14  1  0
 14 15  2  0
 15 16  1  0
 16 17  1  0
 16 18  2  0
 10  5  1  0
 18 12  1  0
  6 19  1  0
  7 20  1  0
  8 21  1  0
  9 22  1  0
 11 23  1  0
 13 24  1  0
 14 25  1  0
 15 26  1  0
 18 27  1  0
M  CHG  1   4  -1
M  END
>  <UniqueID>  (19) 
18

>  <SMILES>  (19) 
O=S(=O)([N-]c1ccccc1O)c1cccc(F)c1

>  <Energy>  (19) 
31.278167167849517

>  <Genealogy>  (19) 
O=S(=O)([N-]c1ccccc1O)c1cccc(F)c1 (protonated)
O=S(=O)([N-]c1ccccc1O)c1cccc(F)c1 (3D coordinates assigned)
O=S(=O)([N-]c1ccccc1O)c1cccc(F)c1 (optimized conformer: 31.278167167849517 kcal/mol)

>  <smiles>  (19) 
O=S(=O)(Nc1ccccc1O)c1cccc(F)c1

>  <score_type>  (19) 
oracle

>  <origin>  (19) 
adgpu

>  <m_score__min__energy>  (19) 
-9.4399999999999995

>  <m_primary>  (19) 
energy

$$$$
19:0
     RDKit          3D

 57 60  0  0  0  0  0  0  0  0999 V2000
   -5.4480   26.4390  -30.7910 O   0  0  0  0  0  0  0  0  0  0  0  0
   -4.8680   25.3210  -30.7150 C   0  0  0  0  0  0  0  0  0  0  0  0
   -3.4860   25.2620  -30.3400 N   0  0  0  0  0  0  0  0  0  0  0  0
   -2.9350   24.5490  -29.2230 C   0  0  0  0  0  0  0  0  0  0  0  0
   -3.6430   23.5230  -28.5730 C   0  0  0  0  0  0  0  0  0  0  0  0
   -3.0840   22.8770  -27.4670 C   0  0  0  0  0  0  0  0  0  0  0  0
   -1.8260   23.2550  -26.9940 C   0  0  0  0  0  0  0  0  0  0  0  0
   -1.1190   24.2880  -27.6220 C   0  0  0  0  0  0  0  0  0  0  0  0
    0.4490   24.7820  -26.9880 S   0  0  0  0  0  0  0  0  0  0  0  0
    1.4660   24.8130  -28.0970 O   0  0  0  0  0  0  0  0  0  0  0  0
    0.8860   23.7760  -25.9610 O   0  0  0  0  0  0  0  0  0  0  0  0
    0.3100   26.3630  -26.2470 N   0  0  0  0  0  0  0  0  0  0  0  0
    0.7080   26.3080  -24.8360 C   0  0  0  0  0  0  0  0  0  0  0  0
   -0.5440   26.0790  -23.9990 C   0  0  0  0  0  0  0  0  0  0  0  0
   -1.7100   26.3980  -24.9150 C   0  0  0  0  0  0  0  0  0  0  0  0
   -1.0870   26.8070  -26.2430 C   0  0  0  0  0  0  0  0  0  0  0  0
   -1.6830   24.9390  -28.7300 C   0  0  0  0  0  0  0  0  0  0  0  0
   -5.6420   24.0740  -30.9510 C   0  0  0  0  0  0  0  0  0  0  0  0
   -5.0310   23.0020  -31.6320 C   0  0  0  0  0  0  0  0  0  0  0  0
   -5.7290   21.8110  -31.8710 C   0  0  0  0  0  0  0  0  0  0  0  0
   -4.9440   20.4710  -32.7030 S   0  0  0  0  0  0  0  0  0  0  0  0
   -4.0840   21.0220  -33.8090 O   0  0  0  0  0  0  0  0  0  0  0  0
   -4.0620   19.7210  -31.7420 O   0  0  0  0  0  0  0  0  0  0  0  0
   -6.1470   19.3970  -33.3790 N   0  0  0  0  0  0  0  0  0  0  0  0
   -6.6280   18.4640  -32.3440 C   0  0  0  0  0  0  0  0  0  0  0  0
   -7.2650   17.2220  -32.9880 C   0  0  0  0  0  0  0  0  0  0  0  0
   -6.3810   16.4790  -33.8180 O   0  0  0  0  0  0  0  0  0  0  0  0
   -5.2780   17.2340  -34.3020 C   0  0  0  0  0  0  0  0  0  0  0  0
   -5.6280   18.7070  -34.5830 C   0  0  0  0  0  0  0  0  0  0  0  0
   -7.0440   21.6780  -31.4190 C   0  0  0  0  0  0  0  0  0  0  0  0
   -7.6630   22.7280  -30.7410 C   0  0  0  0  0  0  0  0  0  0  0  0
   -6.9740   23.9250  -30.5000 C   0  0  0  0  0  0  0  0  0  0  0  0
   -7.6120   24.9480  -29.8000 O   0  0  0  0  0  0  0  0  0  0  0  0
   -4.6388   23.2282  -28.9356 H   0  0  0  0  0  0  0  0  0  0  0  0
   -3.6371   22.0680  -26.9674 H   0  0  0  0  0  0  0  0  0  0  0  0
   -1.3890   22.7401  -26.1257 H   0  0  0  0  0  0  0  0  0  0  0  0
    1.4166   25.4812  -24.6806 H   0  0  0  0  0  0  0  0  0  0  0  0
    1.1964   27.2485  -24.5412 H   0  0  0  0  0  0  0  0  0  0  0  0
   -0.5950   25.0330  -23.6624 H   0  0  0  0  0  0  0  0  0  0  0  0
   -0.5512   26.7077  -23.0964 H   0  0  0  0  0  0  0  0  0  0  0  0
   -2.3483   25.5119  -25.0470 H   0  0  0  0  0  0  0  0  0  0  0  0
   -2.3466   27.1941  -24.5016 H   0  0  0  0  0  0  0  0  0  0  0  0
   -1.6315   26.3318  -27.0723 H   0  0  0  0  0  0  0  0  0  0  0  0
   -1.1402   27.8985  -26.3686 H   0  0  0  0  0  0  0  0  0  0  0  0
   -1.1377   25.7620  -29.2152 H   0  0  0  0  0  0  0  0  0  0  0  0
   -3.9924   23.1017  -31.9805 H   0  0  0  0  0  0  0  0  0  0  0  0
   -5.7800   18.1513  -31.7171 H   0  0  0  0  0  0  0  0  0  0  0  0
   -7.3864   18.9741  -31.7319 H   0  0  0  0  0  0  0  0  0  0  0  0
   -7.6215   16.5609  -32.1844 H   0  0  0  0  0  0  0  0  0  0  0  0
   -8.0785   17.5826  -33.6346 H   0  0  0  0  0  0  0  0  0  0  0  0
   -4.4758   17.2026  -33.5500 H   0  0  0  0  0  0  0  0  0  0  0  0
   -4.9673   16.7839  -35.2564 H   0  0  0  0  0  0  0  0  0  0  0  0
   -4.7219   19.2273  -34.9268 H   0  0  0  0  0  0  0  0  0  0  0  0
   -6.4158   18.7271  -35.3504 H   0  0  0  0  0  0  0  0  0  0  0  0
   -7.5932   20.7420  -31.5984 H   0  0  0  0  0  0  0  0  0  0  0  0
   -8.7003   22.6160  -30.3925 H   0  0  0  0  0  0  0  0  0  0  0  0
   -7.1530   25.8300  -29.6080 H   0  0  0  0  0  0  0  0  0  0  0  0
  1  2  2  0
  2  3  1  0
  3  4  1  0
  4  5  2  0
  5  6  1  0
  6  7  2  0
  7  8  1  0
  8  9  1  0
  9 10  2  0
  9 11  2  0
  9 12  1  0
 12 13  1  0
 13 14  1  0
 14 15  1  0
 15 16  1  0
  8 17  2  0
  2 18  1  0
 18 19  2  0
 19 20  1  0
 20 21  1  0
 21 22  2  0
 21 23  2  0
 21 24  1  0
 24 25  1  0
 25 26  1  0
 26 27  1  0
 27 28  1  0
 28 29  1  0
 20 30  2  0
 30 31  1  0
 31 32  2  0
 32 33  1  0
 17  4  1  0
 32 18  1  0
 16 12  1  0
 29 24  1  0
  5 34  1  0
  6 35  1  0
  7 36  1  0
 13 37  1  0
 13 38  1  0
 14 39  1  0
 14 40  1  0
 15 41  1  0
 15 42  1  0
 16 43  1  0
 16 44  1  0
 17 45  1  0
 19 46  1  0
 25 47  1  0
 25 48  1  0
 26 49  1  0
 26 50  1  0
 28 51  1  0
 28 52  1  0
 29 53  1  0
 29 54  1  0
 30 55  1  0
 31 56  1  0
 33 57  1  0
M  CHG  1   3  -1
M  END
>  <UniqueID>  (20) 
19

>  <SMILES>  (20) 
O=C([N-]c1cccc(S(=O)(=O)N2CCCC2)c1)c1cc(S(=O)(=O)N2CCOCC2)ccc1O

>  <Energy>  (20) 
78.34558355191652

>  <Genealogy>  (20) 
O=C([N-]c1cccc(S(=O)(=O)N2CCCC2)c1)c1cc(S(=O)(=O)N2CCOCC2)ccc1O (protonated)
O=C([N-]c1cccc(S(=O)(=O)N2CCCC2)c1)c1cc(S(=O)(=O)N2CCOCC2)ccc1O (3D coordinates assigned)
O=C([N-]c1cccc(S(=O)(=O)N2CCCC2)c1)c1cc(S(=O)(=O)N2CCOCC2)ccc1O (nonaromatic ring conformer: 78.34558355191652 kcal/mol)

>  <smiles>  (20) 
O=C(Nc1cccc(S(=O)(=O)N2CCCC2)c1)c1cc(S(=O)(=O)N2CCOCC2)ccc1O

>  <score_type>  (20) 
oracle

>  <origin>  (20) 
adgpu

>  <m_score__min__energy>  (20) 
-11.43

>  <m_primary>  (20) 
energy

$$$$
20:0
     RDKit          3D

 44 46  0  0  0  0  0  0  0  0999 V2000
   -5.5950   25.3260  -28.8700 O   0  0  0  0  0  0  0  0  0  0  0  0
   -5.2550   25.0920  -30.3160 S   0  0  0  0  0  0  0  0  0  0  0  0
   -5.7480   26.2660  -31.1140 O   0  0  0  0  0  0  0  0  0  0  0  0
   -3.5350   24.9510  -30.4770 N   0  0  0  0  0  0  0  0  0  0  0  0
   -2.6830   24.1540  -29.6410 C   0  0  0  0  0  0  0  0  0  0  0  0
   -2.8130   22.7530  -29.5630 C   0  0  0  0  0  0  0  0  0  0  0  0
   -1.9570   22.0110  -28.7440 C   0  0  0  0  0  0  0  0  0  0  0  0
   -0.9740   22.6550  -27.9900 C   0  0  0  0  0  0  0  0  0  0  0  0
   -0.8370   24.0440  -28.0620 C   0  0  0  0  0  0  0  0  0  0  0  0
   -1.6860   24.7910  -28.8860 C   0  0  0  0  0  0  0  0  0  0  0  0
   -1.5360   26.1720  -28.9500 O   0  0  0  0  0  0  0  0  0  0  0  0
   -6.0190   23.5970  -30.8430 C   0  0  0  0  0  0  0  0  0  0  0  0
   -7.3690   23.3690  -30.5480 C   0  0  0  0  0  0  0  0  0  0  0  0
   -7.9840   22.1790  -30.9420 C   0  0  0  0  0  0  0  0  0  0  0  0
   -7.2510   21.2040  -31.6220 C   0  0  0  0  0  0  0  0  0  0  0  0
   -5.8950   21.4120  -31.9090 C   0  0  0  0  0  0  0  0  0  0  0  0
   -4.9540   20.1600  -32.7220 S   0  0  0  0  0  0  0  0  0  0  0  0
   -4.0480   19.4920  -31.7250 O   0  0  0  0  0  0  0  0  0  0  0  0
   -4.0940   20.7950  -33.7790 O   0  0  0  0  0  0  0  0  0  0  0  0
   -5.9910   18.9630  -33.4630 N   0  0  0  0  0  0  0  0  0  0  0  0
   -5.2450   18.1980  -34.4870 C   0  0  0  0  0  0  0  0  0  0  0  0
   -5.9830   16.9090  -34.8640 C   0  0  0  0  0  0  0  0  0  0  0  0
   -6.1190   15.9710  -33.6510 C   0  0  0  0  0  0  0  0  0  0  0  0
   -6.0730   16.7240  -32.3100 C   0  0  0  0  0  0  0  0  0  0  0  0
   -6.6800   18.1290  -32.4450 C   0  0  0  0  0  0  0  0  0  0  0  0
   -5.2850   22.6180  -31.5300 C   0  0  0  0  0  0  0  0  0  0  0  0
   -3.5909   22.2414  -30.1487 H   0  0  0  0  0  0  0  0  0  0  0  0
   -2.0581   20.9168  -28.6934 H   0  0  0  0  0  0  0  0  0  0  0  0
   -0.3077   22.0694  -27.3396 H   0  0  0  0  0  0  0  0  0  0  0  0
   -0.0606   24.5507  -27.4700 H   0  0  0  0  0  0  0  0  0  0  0  0
   -7.9470   24.1304  -30.0038 H   0  0  0  0  0  0  0  0  0  0  0  0
   -9.0472   22.0093  -30.7165 H   0  0  0  0  0  0  0  0  0  0  0  0
   -7.7398   20.2691  -31.9336 H   0  0  0  0  0  0  0  0  0  0  0  0
   -5.1290   18.8209  -35.3862 H   0  0  0  0  0  0  0  0  0  0  0  0
   -4.2626   17.9279  -34.0723 H   0  0  0  0  0  0  0  0  0  0  0  0
   -6.9868   17.1652  -35.2339 H   0  0  0  0  0  0  0  0  0  0  0  0
   -5.4038   16.3906  -35.6423 H   0  0  0  0  0  0  0  0  0  0  0  0
   -7.0792   15.4393  -33.7233 H   0  0  0  0  0  0  0  0  0  0  0  0
   -5.2666   15.2760  -33.6712 H   0  0  0  0  0  0  0  0  0  0  0  0
   -6.6430   16.1567  -31.5594 H   0  0  0  0  0  0  0  0  0  0  0  0
   -5.0221   16.8250  -32.0012 H   0  0  0  0  0  0  0  0  0  0  0  0
   -7.7372   18.0282  -32.7315 H   0  0  0  0  0  0  0  0  0  0  0  0
   -6.5643   18.6324  -31.4738 H   0  0  0  0  0  0  0  0  0  0  0  0
   -4.2270   22.7965  -31.7726 H   0  0  0  0  0  0  0  0  0  0  0  0
  1  2  2  0
  2  3  2  0
  2  4  1  0
  4  5  1  0
  5  6  2  0
  6  7  1  0
  7  8  2  0
  8  9  1  0
  9 10  2  0
 10 11  1  0
  2 12  1  0
 12 13  2  0
 13 14  1  0
 14 15  2  0
 15 16  1  0
 16 17  1  0
 17 18  2  0
 17 19  2  0
 17 20  1  0
 20 21  1  0
 21 22  1  0
 22 23  1  0
 23 24  1  0
 24 25  1  0
 16 26  2  0
 10  5  1  0
 26 12  1  0
 25 20  1  0
  6 27  1  0
  7 28  1  0
  8 29  1  0
  9 30  1  0
 13 31  1  0
 14 32  1  0
 15 33  1  0
 21 34  1  0
 21 35  1  0
 22 36  1  0
 22 37  1  0
 23 38  1  0
 23 39  1  0
 24 40  1  0
 24 41  1  0
 25 42  1  0
 25 43  1  0
 26 44  1  0
M  CHG  2   4  -1  11  -1
M  END
>  <UniqueID>  (21) 
20

>  <SMILES>  (21) 
O=S(=O)([N-]c1ccccc1[O-])c1cccc(S(=O)(=O)N2CCCCC2)c1

>  <Energy>  (21) 
50.90732639012595

>  <Genealogy>  (21) 
O=S(=O)([N-]c1ccccc1[O-])c1cccc(S(=O)(=O)N2CCCCC2)c1 (protonated)
O=S(=O)([N-]c1ccccc1[O-])c1cccc(S(=O)(=O)N2CCCCC2)c1 (3D coordinates assigned)
O=S(=O)([N-]c1ccccc1[O-])c1cccc(S(=O)(=O)N2CCCCC2)c1 (nonaromatic ring conformer: 50.90732639012595 kcal/mol)

>  <smiles>  (21) 
O=S(=O)(Nc1ccccc1O)c1cccc(S(=O)(=O)N2CCCCC2)c1

>  <score_type>  (21) 
oracle

>  <origin>  (21) 
adgpu

>  <m_score__min__energy>  (21) 
-14.33

>  <m_primary>  (21) 
energy

$$$$
21:0
     RDKit          3D

 67 71  0  0  0  0  0  0  0  0999 V2000
   -6.1120   16.8510  -30.8170 C   0  0  0  0  0  0  0  0  0  0  0  0
   -6.8650   17.5470  -31.9550 C   0  0  1  0  0  0  0  0  0  0  0  0
   -8.1830   18.2070  -31.4530 C   0  0  0  0  0  0  0  0  0  0  0  0
   -7.9850   19.6510  -31.7620 C   0  0  0  0  0  0  0  0  0  0  0  0
   -8.8660   20.7100  -31.5320 C   0  0  0  0  0  0  0  0  0  0  0  0
   -8.4820   22.0000  -31.9350 C   0  0  0  0  0  0  0  0  0  0  0  0
   -7.2360   22.2080  -32.5600 C   0  0  0  0  0  0  0  0  0  0  0  0
   -6.3690   21.1270  -32.7840 C   0  0  0  0  0  0  0  0  0  0  0  0
   -6.7760   19.8530  -32.3700 C   0  0  0  0  0  0  0  0  0  0  0  0
   -6.0610   18.6400  -32.5100 N   0  0  0  0  0  0  0  0  0  0  0  0
   -4.6640   18.4230  -33.5200 S   0  0  0  0  0  0  0  0  0  0  0  0
   -5.0790   18.5670  -34.9580 O   0  0  0  0  0  0  0  0  0  0  0  0
   -4.0920   17.0490  -33.3130 O   0  0  0  0  0  0  0  0  0  0  0  0
   -3.4390   19.6210  -33.1160 C   0  0  0  0  0  0  0  0  0  0  0  0
   -3.5880   20.9530  -33.5250 C   0  0  0  0  0  0  0  0  0  0  0  0
   -2.6220   21.9010  -33.1850 C   0  0  0  0  0  0  0  0  0  0  0  0
   -1.5130   21.5330  -32.4230 C   0  0  0  0  0  0  0  0  0  0  0  0
   -1.3460   20.1990  -32.0060 C   0  0  0  0  0  0  0  0  0  0  0  0
   -0.1690   19.8080  -31.2000 C   0  0  0  0  0  0  0  0  0  0  0  0
    0.9190   19.5230  -31.7700 O   0  0  0  0  0  0  0  0  0  0  0  0
   -0.2710   19.7160  -29.7750 N   0  0  0  0  0  0  0  0  0  0  0  0
   -1.2270   20.4400  -28.9950 C   0  0  0  0  0  0  0  0  0  0  0  0
   -1.4680   21.7800  -29.3150 C   0  0  0  0  0  0  0  0  0  0  0  0
   -2.4390   22.5150  -28.6250 C   0  0  0  0  0  0  0  0  0  0  0  0
   -2.7810   24.1740  -29.1100 S   0  0  0  0  0  0  0  0  0  0  0  0
   -3.5170   24.8870  -28.0090 O   0  0  0  0  0  0  0  0  0  0  0  0
   -1.4730   24.8810  -29.3360 O   0  0  0  0  0  0  0  0  0  0  0  0
   -3.7150   24.1990  -30.5930 N   0  0  0  0  0  0  0  0  0  0  0  0
   -4.3230   22.8870  -30.8900 C   0  0  0  0  0  0  0  0  0  0  0  0
   -5.5090   22.5550  -29.9650 C   0  0  0  0  0  0  0  0  0  0  0  0
   -6.3930   23.7760  -29.6560 C   0  0  0  0  0  0  0  0  0  0  0  0
   -6.1490   24.9200  -30.6370 C   0  0  0  0  0  0  0  0  0  0  0  0
   -4.6670   25.3380  -30.6290 C   0  0  0  0  0  0  0  0  0  0  0  0
   -3.1690   21.9050  -27.5980 C   0  0  0  0  0  0  0  0  0  0  0  0
   -2.9090   20.5790  -27.2440 C   0  0  0  0  0  0  0  0  0  0  0  0
   -1.9300   19.8400  -27.9250 C   0  0  0  0  0  0  0  0  0  0  0  0
   -1.6290   18.5080  -27.4880 N   0  0  0  0  0  0  0  0  0  0  0  0
   -2.3180   19.2470  -32.3630 C   0  0  0  0  0  0  0  0  0  0  0  0
   -6.4976   17.2074  -29.8504 H   0  0  0  0  0  0  0  0  0  0  0  0
   -6.2585   15.7634  -30.8917 H   0  0  0  0  0  0  0  0  0  0  0  0
   -5.0392   17.0825  -30.8917 H   0  0  0  0  0  0  0  0  0  0  0  0
   -7.0758   16.7683  -32.7028 H   0  0  0  0  0  0  0  0  0  0  0  0
   -9.0543   17.8051  -31.9910 H   0  0  0  0  0  0  0  0  0  0  0  0
   -8.3789   18.0187  -30.3871 H   0  0  0  0  0  0  0  0  0  0  0  0
   -9.8380   20.5381  -31.0466 H   0  0  0  0  0  0  0  0  0  0  0  0
   -9.1568   22.8513  -31.7620 H   0  0  0  0  0  0  0  0  0  0  0  0
   -6.9420   23.2206  -32.8733 H   0  0  0  0  0  0  0  0  0  0  0  0
   -5.3948   21.2770  -33.2723 H   0  0  0  0  0  0  0  0  0  0  0  0
   -4.4673   21.2516  -34.1146 H   0  0  0  0  0  0  0  0  0  0  0  0
   -2.7355   22.9428  -33.5193 H   0  0  0  0  0  0  0  0  0  0  0  0
   -0.7644   22.2900  -32.1463 H   0  0  0  0  0  0  0  0  0  0  0  0
   -0.8887   22.2611  -30.1169 H   0  0  0  0  0  0  0  0  0  0  0  0
   -4.6798   22.8926  -31.9305 H   0  0  0  0  0  0  0  0  0  0  0  0
   -3.5514   22.1202  -30.7270 H   0  0  0  0  0  0  0  0  0  0  0  0
   -6.1291   21.7880  -30.4522 H   0  0  0  0  0  0  0  0  0  0  0  0
   -5.0919   22.2017  -29.0104 H   0  0  0  0  0  0  0  0  0  0  0  0
   -7.4492   23.4747  -29.7171 H   0  0  0  0  0  0  0  0  0  0  0  0
   -6.1395   24.1331  -28.6469 H   0  0  0  0  0  0  0  0  0  0  0  0
   -6.4262   24.5923  -31.6498 H   0  0  0  0  0  0  0  0  0  0  0  0
   -6.7610   25.7822  -30.3336 H   0  0  0  0  0  0  0  0  0  0  0  0
   -4.4689   25.9249  -31.5380 H   0  0  0  0  0  0  0  0  0  0  0  0
   -4.5056   25.9150  -29.7065 H   0  0  0  0  0  0  0  0  0  0  0  0
   -3.9493   22.4713  -27.0685 H   0  0  0  0  0  0  0  0  0  0  0  0
   -3.4758   20.1110  -26.4256 H   0  0  0  0  0  0  0  0  0  0  0  0
   -0.9300   17.9260  -28.0000 H   0  0  0  0  0  0  0  0  0  0  0  0
   -2.1570   18.0570  -26.7080 H   0  0  0  0  0  0  0  0  0  0  0  0
   -2.1971   18.1999  -32.0484 H   0  0  0  0  0  0  0  0  0  0  0  0
  1  2  1  0
  2  3  1  0
  3  4  1  0
  4  5  2  0
  5  6  1  0
  6  7  2  0
  7  8  1  0
  8  9  2  0
  9 10  1  0
 10 11  1  0
 11 12  2  0
 11 13  2  0
 11 14  1  0
 14 15  2  0
 15 16  1  0
 16 17  2  0
 17 18  1  0
 18 19  1  0
 19 20  2  0
 19 21  1  0
 21 22  1  0
 22 23  2  0
 23 24  1  0
 24 25  1  0
 25 26  2  0
 25 27  2  0
 25 28  1  0
 28 29  1  0
 29 30  1  0
 30 31  1  0
 31 32  1  0
 32 33  1  0
 24 34  2  0
 34 35  1  0
 35 36  2  0
 36 37  1  0
 18 38  2  0
 10  2  1  0
 38 14  1  0
  9  4  1  0
 36 22  1  0
 33 28  1  0
  1 39  1  0
  1 40  1  0
  1 41  1  0
  2 42  1  6
  3 43  1  0
  3 44  1  0
  5 45  1  0
  6 46  1  0
  7 47  1  0
  8 48  1  0
 15 49  1  0
 16 50  1  0
 17 51  1  0
 23 52  1  0
 29 53  1  0
 29 54  1  0
 30 55  1  0
 30 56  1  0
 31 57  1  0
 31 58  1  0
 32 59  1  0
 32 60  1  0
 33 61  1  0
 33 62  1  0
 34 63  1  0
 35 64  1  0
 37 65  1  0
 37 66  1  0
 38 67  1  0
M  CHG  1  21  -1
M  END
>  <UniqueID>  (22) 
21

>  <SMILES>  (22) 
C[C@H]1Cc2ccccc2N1S(=O)(=O)c1cccc(C(=O)[N-]c2cc(S(=O)(=O)N3CCCCC3)ccc2N)c1

>  <Energy>  (22) 
99.53266791121239

>  <Genealogy>  (22) 
CC1Cc2ccccc2N1S(=O)(=O)c1cccc(C(=O)[N-]c2cc(S(=O)(=O)N3CCCCC3)ccc2N)c1 (protonated)
C[C@H]1Cc2ccccc2N1S(=O)(=O)c1cccc(C(=O)[N-]c2cc(S(=O)(=O)N3CCCCC3)ccc2N)c1 (chirality)
C[C@H]1Cc2ccccc2N1S(=O)(=O)c1cccc(C(=O)[N-]c2cc(S(=O)(=O)N3CCCCC3)ccc2N)c1 (3D coordinates assigned)
C[C@H]1Cc2ccccc2N1S(=O)(=O)c1cccc(C(=O)[N-]c2cc(S(=O)(=O)N3CCCCC3)ccc2N)c1 (nonaromatic ring conformer: 99.53266791121239 kcal/mol)

>  <smiles>  (22) 
CC1Cc2ccccc2N1S(=O)(=O)c1cccc(C(=O)Nc2cc(S(=O)(=O)N3CCCCC3)ccc2N)c1

>  <score_type>  (22) 
oracle

>  <origin>  (22) 
adgpu

>  <m_score__min__energy>  (22) 
-13.380000000000001

>  <m_primary>  (22) 
energy

$$$$
22:0
     RDKit          3D

 41 43  0  0  0  0  0  0  0  0999 V2000
   -2.4100   22.6910  -27.9290 O   0  0  0  0  0  0  0  0  0  0  0  0
   -2.1760   23.8390  -28.3890 C   0  0  0  0  0  0  0  0  0  0  0  0
   -2.3750   24.0680  -29.7910 N   0  0  0  0  0  0  0  0  0  0  0  0
   -3.5560   23.7450  -30.5390 C   0  0  0  0  0  0  0  0  0  0  0  0
   -3.8260   22.4270  -30.9460 C   0  0  0  0  0  0  0  0  0  0  0  0
   -4.9880   22.1350  -31.6760 C   0  0  0  0  0  0  0  0  0  0  0  0
   -5.3350   20.4860  -32.1910 S   0  0  0  0  0  0  0  0  0  0  0  0
   -5.2180   19.5680  -31.0060 O   0  0  0  0  0  0  0  0  0  0  0  0
   -4.3190   20.0920  -33.2270 O   0  0  0  0  0  0  0  0  0  0  0  0
   -6.9480   20.3890  -32.8700 N   0  0  0  0  0  0  0  0  0  0  0  0
   -7.9830   20.8040  -31.8990 C   0  0  0  0  0  0  0  0  0  0  0  0
   -8.6780   19.6100  -31.2200 C   0  0  0  0  0  0  0  0  0  0  0  0
   -7.7790   18.5340  -31.0800 O   0  0  0  0  0  0  0  0  0  0  0  0
   -7.4630   17.9890  -32.3500 C   0  0  0  0  0  0  0  0  0  0  0  0
   -7.2200   19.0590  -33.4430 C   0  0  0  0  0  0  0  0  0  0  0  0
   -5.8940   23.1600  -31.9740 C   0  0  0  0  0  0  0  0  0  0  0  0
   -5.6430   24.4660  -31.5460 C   0  0  0  0  0  0  0  0  0  0  0  0
   -4.4810   24.7580  -30.8270 C   0  0  0  0  0  0  0  0  0  0  0  0
   -4.2440   26.0630  -30.4060 O   0  0  0  0  0  0  0  0  0  0  0  0
   -1.7790   24.9320  -27.4630 C   0  0  0  0  0  0  0  0  0  0  0  0
   -1.8600   24.7410  -26.0710 C   0  0  0  0  0  0  0  0  0  0  0  0
   -1.4600   25.7500  -25.1900 C   0  0  0  0  0  0  0  0  0  0  0  0
   -0.9630   26.9550  -25.6870 C   0  0  0  0  0  0  0  0  0  0  0  0
   -0.8690   27.1570  -27.0660 C   0  0  0  0  0  0  0  0  0  0  0  0
   -1.2760   26.1550  -27.9540 C   0  0  0  0  0  0  0  0  0  0  0  0
   -1.1880   26.3930  -29.3230 O   0  0  0  0  0  0  0  0  0  0  0  0
   -3.1228   21.6205  -30.6909 H   0  0  0  0  0  0  0  0  0  0  0  0
   -7.5086   21.4223  -31.1227 H   0  0  0  0  0  0  0  0  0  0  0  0
   -8.7515   21.3628  -32.4532 H   0  0  0  0  0  0  0  0  0  0  0  0
   -9.0351   19.9159  -30.2256 H   0  0  0  0  0  0  0  0  0  0  0  0
   -9.5256   19.2885  -31.8431 H   0  0  0  0  0  0  0  0  0  0  0  0
   -6.5516   17.3812  -32.2502 H   0  0  0  0  0  0  0  0  0  0  0  0
   -8.3311   17.3939  -32.6697 H   0  0  0  0  0  0  0  0  0  0  0  0
   -6.3571   18.7528  -34.0527 H   0  0  0  0  0  0  0  0  0  0  0  0
   -8.1337   19.1339  -34.0509 H   0  0  0  0  0  0  0  0  0  0  0  0
   -6.8061   22.9364  -32.5468 H   0  0  0  0  0  0  0  0  0  0  0  0
   -6.3619   25.2663  -31.7756 H   0  0  0  0  0  0  0  0  0  0  0  0
   -2.2415   23.7892  -25.6727 H   0  0  0  0  0  0  0  0  0  0  0  0
   -1.5372   25.5936  -24.1039 H   0  0  0  0  0  0  0  0  0  0  0  0
   -0.6449   27.7466  -24.9926 H   0  0  0  0  0  0  0  0  0  0  0  0
   -0.4737   28.1069  -27.4552 H   0  0  0  0  0  0  0  0  0  0  0  0
  1  2  2  0
  2  3  1  0
  3  4  1  0
  4  5  2  0
  5  6  1  0
  6  7  1  0
  7  8  2  0
  7  9  2  0
  7 10  1  0
 10 11  1  0
 11 12  1  0
 12 13  1  0
 13 14  1  0
 14 15  1  0
  6 16  2  0
 16 17  1  0
 17 18  2  0
 18 19  1  0
  2 20  1  0
 20 21  2  0
 21 22  1  0
 22 23  2  0
 23 24  1  0
 24 25  2  0
 25 26  1  0
 18  4  1  0
 25 20  1  0
 15 10  1  0
  5 27  1  0
 11 28  1  0
 11 29  1  0
 12 30  1  0
 12 31  1  0
 14 32  1  0
 14 33  1  0
 15 34  1  0
 15 35  1  0
 16 36  1  0
 17 37  1  0
 21 38  1  0
 22 39  1  0
 23 40  1  0
 24 41  1  0
M  CHG  3   3  -1  19  -1  26  -1
M  END
>  <UniqueID>  (23) 
22

>  <SMILES>  (23) 
O=C([N-]c1cc(S(=O)(=O)N2CCOCC2)ccc1[O-])c1ccccc1[O-]

>  <Energy>  (23) 
59.459567718060185

>  <Genealogy>  (23) 
O=C([N-]c1cc(S(=O)(=O)N2CCOCC2)ccc1[O-])c1ccccc1[O-] (protonated)
O=C([N-]c1cc(S(=O)(=O)N2CCOCC2)ccc1[O-])c1ccccc1[O-] (3D coordinates assigned)
O=C([N-]c1cc(S(=O)(=O)N2CCOCC2)ccc1[O-])c1ccccc1[O-] (nonaromatic ring conformer: 59.459567718060185 kcal/mol)

>  <smiles>  (23) 
O=C(Nc1cc(S(=O)(=O)N2CCOCC2)ccc1O)c1ccccc1O

>  <score_type>  (23) 
oracle

>  <origin>  (23) 
adgpu

>  <m_score__min__energy>  (23) 
-14.5

>  <m_primary>  (23) 
energy

$$$$
23:0
     RDKit          3D

 42 44  0  0  0  0  0  0  0  0999 V2000
   -3.6210   21.6630  -28.2510 O   0  0  0  0  0  0  0  0  0  0  0  0
   -3.3110   22.4770  -29.1650 C   0  0  0  0  0  0  0  0  0  0  0  0
   -1.9280   22.7340  -29.4520 N   0  0  0  0  0  0  0  0  0  0  0  0
   -0.8620   21.8620  -29.0420 C   0  0  0  0  0  0  0  0  0  0  0  0
   -0.6680   20.6480  -29.7220 C   0  0  0  0  0  0  0  0  0  0  0  0
    0.3530   19.7750  -29.3350 C   0  0  0  0  0  0  0  0  0  0  0  0
    1.1790   20.0990  -28.2550 C   0  0  0  0  0  0  0  0  0  0  0  0
    2.1670   19.2510  -27.8790 F   0  0  0  0  0  0  0  0  0  0  0  0
    0.9780   21.2920  -27.5550 C   0  0  0  0  0  0  0  0  0  0  0  0
   -0.0420   22.1700  -27.9390 C   0  0  0  0  0  0  0  0  0  0  0  0
   -0.2540   23.2910  -27.2050 F   0  0  0  0  0  0  0  0  0  0  0  0
   -4.3830   23.2090  -29.8810 C   0  0  0  0  0  0  0  0  0  0  0  0
   -5.5380   22.5170  -30.2900 C   0  0  0  0  0  0  0  0  0  0  0  0
   -6.5750   23.1850  -30.9560 C   0  0  0  0  0  0  0  0  0  0  0  0
   -8.0300   22.3100  -31.4410 S   0  0  0  0  0  0  0  0  0  0  0  0
   -8.8980   23.2160  -32.2710 O   0  0  0  0  0  0  0  0  0  0  0  0
   -8.8060   21.9240  -30.2120 O   0  0  0  0  0  0  0  0  0  0  0  0
   -7.6510   20.8730  -32.3570 N   0  0  0  0  0  0  0  0  0  0  0  0
   -7.9480   19.6670  -31.5710 C   0  0  0  0  0  0  0  0  0  0  0  0
   -7.6260   18.4060  -32.4020 C   0  0  0  0  0  0  0  0  0  0  0  0
   -6.9810   18.7180  -33.6240 O   0  0  0  0  0  0  0  0  0  0  0  0
   -5.8410   19.5170  -33.3740 C   0  0  0  0  0  0  0  0  0  0  0  0
   -6.2360   20.8780  -32.7640 C   0  0  0  0  0  0  0  0  0  0  0  0
   -6.4530   24.5520  -31.2300 C   0  0  0  0  0  0  0  0  0  0  0  0
   -5.3040   25.2440  -30.8470 C   0  0  0  0  0  0  0  0  0  0  0  0
   -4.2660   24.5820  -30.1830 C   0  0  0  0  0  0  0  0  0  0  0  0
   -3.1190   25.2950  -29.8530 O   0  0  0  0  0  0  0  0  0  0  0  0
   -1.6740   23.6740  -29.8320 H   0  0  0  0  0  0  0  0  0  0  0  0
   -1.3237   20.3827  -30.5644 H   0  0  0  0  0  0  0  0  0  0  0  0
    0.5064   18.8324  -29.8808 H   0  0  0  0  0  0  0  0  0  0  0  0
    1.6233   21.5415  -26.6999 H   0  0  0  0  0  0  0  0  0  0  0  0
   -5.6281   21.4401  -30.0849 H   0  0  0  0  0  0  0  0  0  0  0  0
   -7.3362   19.6675  -30.6569 H   0  0  0  0  0  0  0  0  0  0  0  0
   -9.0151   19.6622  -31.3040 H   0  0  0  0  0  0  0  0  0  0  0  0
   -6.9678   17.7517  -31.8115 H   0  0  0  0  0  0  0  0  0  0  0  0
   -8.5774   17.9083  -32.6410 H   0  0  0  0  0  0  0  0  0  0  0  0
   -5.1790   18.9881  -32.6726 H   0  0  0  0  0  0  0  0  0  0  0  0
   -5.3275   19.6996  -34.3295 H   0  0  0  0  0  0  0  0  0  0  0  0
   -5.6073   21.0754  -31.8832 H   0  0  0  0  0  0  0  0  0  0  0  0
   -6.0878   21.6621  -33.5211 H   0  0  0  0  0  0  0  0  0  0  0  0
   -7.2653   25.0821  -31.7487 H   0  0  0  0  0  0  0  0  0  0  0  0
   -5.2136   26.3176  -31.0687 H   0  0  0  0  0  0  0  0  0  0  0  0
  1  2  2  0
  2  3  1  0
  3  4  1  0
  4  5  2  0
  5  6  1  0
  6  7  2  0
  7  8  1  0
  7  9  1  0
  9 10  2  0
 10 11  1  0
  2 12  1  0
 12 13  2  0
 13 14  1  0
 14 15  1  0
 15 16  2  0
 15 17  2  0
 15 18  1  0
 18 19  1  0
 19 20  1  0
 20 21  1  0
 21 22  1  0
 22 23  1  0
 14 24  2  0
 24 25  1  0
 25 26  2  0
 26 27  1  0
 10  4  1  0
 26 12  1  0
 23 18  1  0
  3 28  1  0
  5 29  1  0
  6 30  1  0
  9 31  1  0
 13 32  1  0
 19 33  1  0
 19 34  1  0
 20 35  1  0
 20 36  1  0
 22 37  1  0
 22 38  1  0
 23 39  1  0
 23 40  1  0
 24 41  1  0
 25 42  1  0
M  CHG  1  27  -1
M  END
>  <UniqueID>  (24) 
23

>  <SMILES>  (24) 
O=C(Nc1ccc(F)cc1F)c1cc(S(=O)(=O)N2CCOCC2)ccc1[O-]

>  <Energy>  (24) 
59.35342200313713

>  <Genealogy>  (24) 
O=C(Nc1ccc(F)cc1F)c1cc(S(=O)(=O)N2CCOCC2)ccc1[O-] (protonated)
O=C(Nc1ccc(F)cc1F)c1cc(S(=O)(=O)N2CCOCC2)ccc1[O-] (3D coordinates assigned)
O=C(Nc1ccc(F)cc1F)c1cc(S(=O)(=O)N2CCOCC2)ccc1[O-] (nonaromatic ring conformer: 59.35342200313713 kcal/mol)

>  <smiles>  (24) 
O=C(Nc1ccc(F)cc1F)c1cc(S(=O)(=O)N2CCOCC2)ccc1O

>  <score_type>  (24) 
oracle

>  <origin>  (24) 
adgpu

>  <m_score__min__energy>  (24) 
-11.35

>  <m_primary>  (24) 
energy

$$$$
24:0
     RDKit          3D

 43 44  0  0  0  0  0  0  0  0999 V2000
   -4.7220   22.4990  -31.7570 C   0  0  0  0  0  0  0  0  0  0  0  0
   -5.4700   23.0590  -30.6230 N   0  0  0  0  0  0  0  0  0  0  0  0
   -6.8280   23.5110  -30.9870 C   0  0  0  0  0  0  0  0  0  0  0  0
   -7.8330   22.3840  -31.1150 C   0  0  0  0  0  0  0  0  0  0  0  0
   -8.4350   21.9830  -30.0850 O   0  0  0  0  0  0  0  0  0  0  0  0
   -8.0570   21.6970  -32.3540 N   0  0  0  0  0  0  0  0  0  0  0  0
   -7.5640   20.3980  -32.7000 C   0  0  0  0  0  0  0  0  0  0  0  0
   -8.1790   19.2300  -32.2220 C   0  0  0  0  0  0  0  0  0  0  0  0
   -7.6630   17.9740  -32.5560 C   0  0  0  0  0  0  0  0  0  0  0  0
   -6.5140   17.8740  -33.3520 C   0  0  0  0  0  0  0  0  0  0  0  0
   -5.8730   16.2950  -33.7910 S   0  0  0  0  0  0  0  0  0  0  0  0
   -5.0600   15.6040  -32.4320 N   0  0  0  0  0  0  0  0  0  0  0  0
   -6.9950   15.3900  -34.2180 O   0  0  0  0  0  0  0  0  0  0  0  0
   -4.9060   16.4350  -34.9330 O   0  0  0  0  0  0  0  0  0  0  0  0
   -5.8850   19.0410  -33.8090 C   0  0  0  0  0  0  0  0  0  0  0  0
   -6.4000   20.2950  -33.4720 C   0  0  0  0  0  0  0  0  0  0  0  0
   -4.5420   24.3120  -29.8320 S   0  0  0  0  0  0  0  0  0  0  0  0
   -4.1100   25.3500  -30.8320 O   0  0  0  0  0  0  0  0  0  0  0  0
   -5.3680   24.9780  -28.7680 O   0  0  0  0  0  0  0  0  0  0  0  0
   -3.1260   23.5840  -29.0700 C   0  0  0  0  0  0  0  0  0  0  0  0
   -3.1670   22.2570  -28.6170 C   0  0  0  0  0  0  0  0  0  0  0  0
   -2.0470   21.6720  -27.9980 C   0  0  0  0  0  0  0  0  0  0  0  0
   -2.0930   20.2710  -27.5200 C   0  0  0  0  0  0  0  0  0  0  0  0
   -0.9240   19.4530  -27.5530 N   0  0  0  0  0  0  0  0  0  0  0  0
   -3.1690   19.7840  -27.0770 O   0  0  0  0  0  0  0  0  0  0  0  0
   -0.8800   22.4420  -27.8370 C   0  0  0  0  0  0  0  0  0  0  0  0
   -0.8370   23.7630  -28.2840 C   0  0  0  0  0  0  0  0  0  0  0  0
   -1.9530   24.3380  -28.8970 C   0  0  0  0  0  0  0  0  0  0  0  0
   -1.8900   25.6590  -29.3280 O   0  0  0  0  0  0  0  0  0  0  0  0
   -3.8946   21.8796  -31.3805 H   0  0  0  0  0  0  0  0  0  0  0  0
   -5.3940   21.8801  -32.3697 H   0  0  0  0  0  0  0  0  0  0  0  0
   -4.3174   23.3181  -32.3697 H   0  0  0  0  0  0  0  0  0  0  0  0
   -7.1823   24.2053  -30.2109 H   0  0  0  0  0  0  0  0  0  0  0  0
   -6.7532   23.9878  -31.9754 H   0  0  0  0  0  0  0  0  0  0  0  0
   -9.0706   19.3032  -31.5820 H   0  0  0  0  0  0  0  0  0  0  0  0
   -8.1602   17.0623  -32.1931 H   0  0  0  0  0  0  0  0  0  0  0  0
   -5.2600   14.5790  -32.4460 H   0  0  0  0  0  0  0  0  0  0  0  0
   -4.9832   18.9687  -34.4348 H   0  0  0  0  0  0  0  0  0  0  0  0
   -5.8885   21.2065  -33.8148 H   0  0  0  0  0  0  0  0  0  0  0  0
   -4.0859   21.6666  -28.7473 H   0  0  0  0  0  0  0  0  0  0  0  0
   -0.3330   19.3260  -26.7030 H   0  0  0  0  0  0  0  0  0  0  0  0
    0.0044   21.9993  -27.3554 H   0  0  0  0  0  0  0  0  0  0  0  0
    0.0808   24.3551  -28.1530 H   0  0  0  0  0  0  0  0  0  0  0  0
  1  2  1  0
  2  3  1  0
  3  4  1  0
  4  5  2  0
  4  6  1  0
  6  7  1  0
  7  8  2  0
  8  9  1  0
  9 10  2  0
 10 11  1  0
 11 12  1  0
 11 13  2  0
 11 14  2  0
 10 15  1  0
 15 16  2  0
  2 17  1  0
 17 18  2  0
 17 19  2  0
 17 20  1  0
 20 21  2  0
 21 22  1  0
 22 23  1  0
 23 24  1  0
 23 25  2  0
 22 26  2  0
 26 27  1  0
 27 28  2  0
 28 29  1  0
 16  7  1  0
 28 20  1  0
  1 30  1  0
  1 31  1  0
  1 32  1  0
  3 33  1  0
  3 34  1  0
  8 35  1  0
  9 36  1  0
 12 37  1  0
 15 38  1  0
 16 39  1  0
 21 40  1  0
 24 41  1  0
 26 42  1  0
 27 43  1  0
M  CHG  4   6  -1  12  -1  24  -1  29  -1
M  END
>  <UniqueID>  (25) 
24

>  <SMILES>  (25) 
CN(CC(=O)[N-]c1ccc(S([NH-])(=O)=O)cc1)S(=O)(=O)c1cc(C([NH-])=O)ccc1[O-]

>  <Energy>  (25) 
50.401755296240935

>  <Genealogy>  (25) 
CN(CC(=O)[N-]c1ccc(S([NH-])(=O)=O)cc1)S(=O)(=O)c1cc(C([NH-])=O)ccc1[O-] (protonated)
CN(CC(=O)[N-]c1ccc(S([NH-])(=O)=O)cc1)S(=O)(=O)c1cc(C([NH-])=O)ccc1[O-] (3D coordinates assigned)
CN(CC(=O)[N-]c1ccc(S([NH-])(=O)=O)cc1)S(=O)(=O)c1cc(C([NH-])=O)ccc1[O-] (optimized conformer: 50.401755296240935 kcal/mol)

>  <smiles>  (25) 
CN(CC(=O)Nc1ccc(S(N)(=O)=O)cc1)S(=O)(=O)c1cc(C(N)=O)ccc1O

>  <score_type>  (25) 
oracle

>  <origin>  (25) 
adgpu

>  <m_score__min__energy>  (25) 
-11.48

>  <m_primary>  (25) 
energy

$$$$
25:0
     RDKit          3D

 53 56  0  0  0  0  0  0  0  0999 V2000
   -2.0020   21.2830  -31.0260 C   0  0  0  0  0  0  0  0  0  0  0  0
   -3.2530   21.2520  -31.5140 C   0  0  0  0  0  0  0  0  0  0  0  0
   -4.3830   21.9280  -31.0220 C   0  0  0  0  0  0  0  0  0  0  0  0
   -4.5110   22.8510  -30.0480 C   0  0  0  0  0  0  0  0  0  0  0  0
   -3.3990   23.5450  -29.3690 C   0  0  0  0  0  0  0  0  0  0  0  0
   -3.1160   24.8950  -29.6350 C   0  0  0  0  0  0  0  0  0  0  0  0
   -3.8550   25.6060  -30.5740 O   0  0  0  0  0  0  0  0  0  0  0  0
   -2.1110   25.5190  -28.9670 N   0  0  0  0  0  0  0  0  0  0  0  0
   -1.3800   24.8640  -28.0290 C   0  0  0  0  0  0  0  0  0  0  0  0
   -0.1780   25.6400  -27.2450 S   0  0  0  0  0  0  0  0  0  0  0  0
   -1.6550   23.5680  -27.7360 N   0  0  0  0  0  0  0  0  0  0  0  0
   -2.6480   22.8980  -28.3760 C   0  0  0  0  0  0  0  0  0  0  0  0
   -2.8800   21.6970  -28.0740 O   0  0  0  0  0  0  0  0  0  0  0  0
   -5.4600   21.4800  -31.7690 C   0  0  0  0  0  0  0  0  0  0  0  0
   -4.9620   20.5910  -32.6980 C   0  0  0  0  0  0  0  0  0  0  0  0
   -5.7860   19.8810  -33.7290 C   0  0  0  0  0  0  0  0  0  0  0  0
   -3.6240   20.4650  -32.5570 N   0  0  0  0  0  0  0  0  0  0  0  0
   -2.7850   19.5850  -33.3260 C   0  0  0  0  0  0  0  0  0  0  0  0
   -3.1190   18.2300  -33.4460 C   0  0  0  0  0  0  0  0  0  0  0  0
   -2.3090   17.3610  -34.1910 C   0  0  0  0  0  0  0  0  0  0  0  0
   -2.7210   15.6490  -34.3120 S   0  0  0  0  0  0  0  0  0  0  0  0
   -1.4570   14.8360  -34.2990 O   0  0  0  0  0  0  0  0  0  0  0  0
   -3.4030   15.4130  -35.6310 O   0  0  0  0  0  0  0  0  0  0  0  0
   -3.7810   15.1100  -33.0250 N   0  0  0  0  0  0  0  0  0  0  0  0
   -3.9480   13.6380  -32.9780 C   0  0  0  0  0  0  0  0  0  0  0  0
   -5.4050   13.1690  -33.1200 C   0  0  0  0  0  0  0  0  0  0  0  0
   -6.1170   13.9630  -34.2100 C   0  0  0  0  0  0  0  0  0  0  0  0
   -6.1280   15.4660  -33.8970 C   0  0  0  0  0  0  0  0  0  0  0  0
   -5.0230   15.9010  -32.9140 C   0  0  0  0  0  0  0  0  0  0  0  0
   -1.1850   17.8680  -34.8570 C   0  0  0  0  0  0  0  0  0  0  0  0
   -0.8480   19.2200  -34.7410 C   0  0  0  0  0  0  0  0  0  0  0  0
   -1.6400   20.0780  -33.9720 C   0  0  0  0  0  0  0  0  0  0  0  0
   -1.2820   21.4160  -33.8480 O   0  0  0  0  0  0  0  0  0  0  0  0
   -1.2067   20.7003  -31.5139 H   0  0  0  0  0  0  0  0  0  0  0  0
   -1.7728   21.8910  -30.1385 H   0  0  0  0  0  0  0  0  0  0  0  0
   -5.5324   23.1094  -29.7318 H   0  0  0  0  0  0  0  0  0  0  0  0
   -6.5119   21.7768  -31.6448 H   0  0  0  0  0  0  0  0  0  0  0  0
   -6.5281   19.2416  -33.2286 H   0  0  0  0  0  0  0  0  0  0  0  0
   -6.3036   20.6206  -34.3576 H   0  0  0  0  0  0  0  0  0  0  0  0
   -5.1311   19.2597  -34.3576 H   0  0  0  0  0  0  0  0  0  0  0  0
   -4.0233   17.8448  -32.9522 H   0  0  0  0  0  0  0  0  0  0  0  0
   -3.3613   13.1970  -33.7974 H   0  0  0  0  0  0  0  0  0  0  0  0
   -3.6035   13.3102  -31.9861 H   0  0  0  0  0  0  0  0  0  0  0  0
   -5.4176   12.1010  -33.3831 H   0  0  0  0  0  0  0  0  0  0  0  0
   -5.9256   13.3300  -32.1645 H   0  0  0  0  0  0  0  0  0  0  0  0
   -5.5983   13.8011  -35.1664 H   0  0  0  0  0  0  0  0  0  0  0  0
   -7.1590   13.6149  -34.2650 H   0  0  0  0  0  0  0  0  0  0  0  0
   -5.9925   16.0181  -34.8387 H   0  0  0  0  0  0  0  0  0  0  0  0
   -7.0922   15.6878  -33.4163 H   0  0  0  0  0  0  0  0  0  0  0  0
   -4.7808   16.9561  -33.1094 H   0  0  0  0  0  0  0  0  0  0  0  0
   -5.4156   15.7399  -31.8992 H   0  0  0  0  0  0  0  0  0  0  0  0
   -0.5656   17.1998  -35.4733 H   0  0  0  0  0  0  0  0  0  0  0  0
    0.0425   19.6096  -35.2561 H   0  0  0  0  0  0  0  0  0  0  0  0
  1  2  2  0
  2  3  1  0
  3  4  2  3
  4  5  1  0
  5  6  2  0
  6  7  1  0
  6  8  1  0
  8  9  1  0
  9 10  2  0
  9 11  1  0
 11 12  1  0
 12 13  2  0
  3 14  1  0
 14 15  2  0
 15 16  1  0
 15 17  1  0
 17 18  1  0
 18 19  2  0
 19 20  1  0
 20 21  1  0
 21 22  2  0
 21 23  2  0
 21 24  1  0
 24 25  1  0
 25 26  1  0
 26 27  1  0
 27 28  1  0
 28 29  1  0
 20 30  2  0
 30 31  1  0
 31 32  2  0
 32 33  1  0
 17  2  1  0
 32 18  1  0
 12  5  1  0
 29 24  1  0
  1 34  1  0
  1 35  1  0
  4 36  1  0
 14 37  1  0
 16 38  1  0
 16 39  1  0
 16 40  1  0
 19 41  1  0
 25 42  1  0
 25 43  1  0
 26 44  1  0
 26 45  1  0
 27 46  1  0
 27 47  1  0
 28 48  1  0
 28 49  1  0
 29 50  1  0
 29 51  1  0
 30 52  1  0
 31 53  1  0
M  CHG  4   7  -1   8  -1  11  -1  33  -1
M  END
>  <UniqueID>  (26) 
25

>  <SMILES>  (26) 
C=c1c(=Cc2c([O-])[n-]c(=S)[n-]c2=O)cc(C)n1-c1cc(S(=O)(=O)N2CCCCC2)ccc1[O-]

>  <Energy>  (26) 
111.98019527800089

>  <Genealogy>  (26) 
C=c1c(=Cc2c([O-])[n-]c(=S)[n-]c2=O)cc(C)n1-c1cc(S(=O)(=O)N2CCCCC2)ccc1[O-] (protonated)
C=c1c(=Cc2c([O-])[n-]c(=S)[n-]c2=O)cc(C)n1-c1cc(S(=O)(=O)N2CCCCC2)ccc1[O-] (3D coordinates assigned)
C=c1c(=Cc2c([O-])[n-]c(=S)[n-]c2=O)cc(C)n1-c1cc(S(=O)(=O)N2CCCCC2)ccc1[O-] (nonaromatic ring conformer: 111.98019527800089 kcal/mol)

>  <smiles>  (26) 
C=c1c(=Cc2c(O)[nH]c(=S)[nH]c2=O)cc(C)n1-c1cc(S(=O)(=O)N2CCCCC2)ccc1O

>  <score_type>  (26) 
oracle

>  <origin>  (26) 
adgpu

>  <m_score__min__energy>  (26) 
-14.289999999999999

>  <m_primary>  (26) 
energy

$$$$
26:0
     RDKit          3D

 60 63  0  0  0  0  0  0  0  0999 V2000
   -2.2440   17.0830  -33.0880 C   0  0  0  0  0  0  0  0  0  0  0  0
   -2.3940   18.5740  -33.0220 C   0  0  0  0  0  0  0  0  0  0  0  0
   -3.4950   19.2040  -33.6210 C   0  0  0  0  0  0  0  0  0  0  0  0
   -3.6550   20.5870  -33.5180 C   0  0  0  0  0  0  0  0  0  0  0  0
   -2.7250   21.3520  -32.8120 C   0  0  0  0  0  0  0  0  0  0  0  0
   -1.6190   20.7370  -32.2040 C   0  0  0  0  0  0  0  0  0  0  0  0
   -0.6020   21.5680  -31.4630 C   0  0  0  0  0  0  0  0  0  0  0  0
   -0.9550   21.6710  -30.0470 N   0  0  0  0  0  0  0  0  0  0  0  0
   -0.3770   20.9130  -28.9830 C   0  0  0  0  0  0  0  0  0  0  0  0
    0.7190   20.3020  -29.0940 O   0  0  0  0  0  0  0  0  0  0  0  0
   -1.2260   20.9080  -27.7370 C   0  0  0  0  0  0  0  0  0  0  0  0
   -0.4980   21.5820  -26.5670 C   0  0  0  0  0  0  0  0  0  0  0  0
   -1.6720   19.4810  -27.3880 C   0  0  0  0  0  0  0  0  0  0  0  0
   -2.3850   21.7420  -28.2160 C   0  0  0  0  0  0  0  0  0  0  0  0
   -3.5670   22.0530  -27.5400 C   0  0  0  0  0  0  0  0  0  0  0  0
   -4.5610   22.7760  -28.2170 C   0  0  0  0  0  0  0  0  0  0  0  0
   -4.3620   23.1870  -29.5510 C   0  0  0  0  0  0  0  0  0  0  0  0
   -5.6610   23.9860  -30.4330 S   0  0  0  0  0  0  0  0  0  0  0  0
   -6.3710   24.9300  -29.5020 O   0  0  0  0  0  0  0  0  0  0  0  0
   -5.0840   24.7810  -31.5710 O   0  0  0  0  0  0  0  0  0  0  0  0
   -6.7940   22.8020  -31.0420 N   0  0  0  0  0  0  0  0  0  0  0  0
   -6.0520   21.7300  -31.7390 C   0  0  0  0  0  0  0  0  0  0  0  0
   -6.9370   20.8310  -32.6210 C   0  0  0  0  0  0  0  0  0  0  0  0
   -8.1760   20.2670  -31.9060 C   0  0  0  0  0  0  0  0  0  0  0  0
   -9.0960   21.3150  -31.2400 C   0  0  0  0  0  0  0  0  0  0  0  0
   -9.1290   22.6810  -31.9610 C   0  0  0  0  0  0  0  0  0  0  0  0
   -7.7920   23.4630  -31.9080 C   0  0  0  0  0  0  0  0  0  0  0  0
   -3.1590   22.8770  -30.2090 C   0  0  0  0  0  0  0  0  0  0  0  0
   -2.1870   22.1480  -29.5220 C   0  0  0  0  0  0  0  0  0  0  0  0
   -1.4650   19.3440  -32.3060 C   0  0  0  0  0  0  0  0  0  0  0  0
   -2.2028   16.6731  -32.0680 H   0  0  0  0  0  0  0  0  0  0  0  0
   -3.1033   16.6513  -33.6222 H   0  0  0  0  0  0  0  0  0  0  0  0
   -1.3160   16.8311  -33.6222 H   0  0  0  0  0  0  0  0  0  0  0  0
   -4.2347   18.6063  -34.1737 H   0  0  0  0  0  0  0  0  0  0  0  0
   -4.5173   21.0758  -33.9950 H   0  0  0  0  0  0  0  0  0  0  0  0
   -2.8592   22.4408  -32.7317 H   0  0  0  0  0  0  0  0  0  0  0  0
    0.3873   21.0960  -31.5556 H   0  0  0  0  0  0  0  0  0  0  0  0
   -0.5838   22.5780  -31.8985 H   0  0  0  0  0  0  0  0  0  0  0  0
   -0.9044   21.2057  -25.6166 H   0  0  0  0  0  0  0  0  0  0  0  0
    0.5764   21.3527  -26.6227 H   0  0  0  0  0  0  0  0  0  0  0  0
   -0.6439   22.6709  -26.6227 H   0  0  0  0  0  0  0  0  0  0  0  0
   -1.7082   19.3652  -26.2947 H   0  0  0  0  0  0  0  0  0  0  0  0
   -2.6709   19.2956  -27.8096 H   0  0  0  0  0  0  0  0  0  0  0  0
   -0.9564   18.7598  -27.8096 H   0  0  0  0  0  0  0  0  0  0  0  0
   -3.7159   21.7372  -26.4969 H   0  0  0  0  0  0  0  0  0  0  0  0
   -5.5017   23.0238  -27.7035 H   0  0  0  0  0  0  0  0  0  0  0  0
   -5.2874   22.1967  -32.3774 H   0  0  0  0  0  0  0  0  0  0  0  0
   -5.6166   21.0853  -30.9613 H   0  0  0  0  0  0  0  0  0  0  0  0
   -7.2766   21.4221  -33.4843 H   0  0  0  0  0  0  0  0  0  0  0  0
   -6.3198   19.9677  -32.9106 H   0  0  0  0  0  0  0  0  0  0  0  0
   -8.7726   19.7149  -32.6471 H   0  0  0  0  0  0  0  0  0  0  0  0
   -7.7924   19.6395  -31.0880 H   0  0  0  0  0  0  0  0  0  0  0  0
  -10.1192   20.9116  -31.2190 H   0  0  0  0  0  0  0  0  0  0  0  0
   -8.6885   21.4988  -30.2349 H   0  0  0  0  0  0  0  0  0  0  0  0
   -9.3847   22.5072  -33.0166 H   0  0  0  0  0  0  0  0  0  0  0  0
   -9.8746   23.2962  -31.4360 H   0  0  0  0  0  0  0  0  0  0  0  0
   -7.3839   23.5367  -32.9268 H   0  0  0  0  0  0  0  0  0  0  0  0
   -7.9987   24.4581  -31.4872 H   0  0  0  0  0  0  0  0  0  0  0  0
   -2.9870   23.2027  -31.2455 H   0  0  0  0  0  0  0  0  0  0  0  0
   -0.6088   18.8530  -31.8204 H   0  0  0  0  0  0  0  0  0  0  0  0
  1  2  1  0
  2  3  2  0
  3  4  1  0
  4  5  2  0
  5  6  1  0
  6  7  1  0
  7  8  1  0
  8  9  1  0
  9 10  2  0
  9 11  1  0
 11 12  1  0
 11 13  1  0
 11 14  1  0
 14 15  2  0
 15 16  1  0
 16 17  2  0
 17 18  1  0
 18 19  2  0
 18 20  2  0
 18 21  1  0
 21 22  1  0
 22 23  1  0
 23 24  1  0
 24 25  1  0
 25 26  1  0
 26 27  1  0
 17 28  1  0
 28 29  2  0
  6 30  2  0
 30  2  1  0
 29  8  1  0
 29 14  1  0
 27 21  1  0
  1 31  1  0
  1 32  1  0
  1 33  1  0
  3 34  1  0
  4 35  1  0
  5 36  1  0
  7 37  1  0
  7 38  1  0
 12 39  1  0
 12 40  1  0
 12 41  1  0
 13 42  1  0
 13 43  1  0
 13 44  1  0
 15 45  1  0
 16 46  1  0
 22 47  1  0
 22 48  1  0
 23 49  1  0
 23 50  1  0
 24 51  1  0
 24 52  1  0
 25 53  1  0
 25 54  1  0
 26 55  1  0
 26 56  1  0
 27 57  1  0
 27 58  1  0
 28 59  1  0
 30 60  1  0
M  END
>  <UniqueID>  (27) 
26

>  <SMILES>  (27) 
Cc1cccc(CN2C(=O)C(C)(C)c3ccc(S(=O)(=O)N4CCCCCC4)cc32)c1

>  <Energy>  (27) 
79.44118222082946

>  <Genealogy>  (27) 
Cc1cccc(CN2C(=O)C(C)(C)c3ccc(S(=O)(=O)N4CCCCCC4)cc32)c1 (3D coordinates assigned)
Cc1cccc(CN2C(=O)C(C)(C)c3ccc(S(=O)(=O)N4CCCCCC4)cc32)c1 (nonaromatic ring conformer: 79.44118222082946 kcal/mol)

>  <smiles>  (27) 
Cc1cccc(CN2C(=O)C(C)(C)c3ccc(S(=O)(=O)N4CCCCCC4)cc32)c1

>  <score_type>  (27) 
oracle

>  <origin>  (27) 
adgpu

>  <m_score__min__energy>  (27) 
-7.9199999999999999

>  <m_primary>  (27) 
energy

$$$$
27:0
     RDKit          3D

 54 57  0  0  0  0  0  0  0  0999 V2000
   -0.8980   25.6380  -24.7630 C   0  0  0  0  0  0  0  0  0  0  0  0
   -1.4320   25.9600  -26.0980 N   0  0  0  0  0  0  0  0  0  0  0  0
   -2.7670   25.3490  -26.3110 C   0  0  0  0  0  0  0  0  0  0  0  0
   -2.6940   23.9760  -26.9940 C   0  0  0  0  0  0  0  0  0  0  0  0
   -1.9170   24.0530  -28.2360 N   0  0  0  0  0  0  0  0  0  0  0  0
   -2.2090   23.1430  -29.3130 C   0  0  0  0  0  0  0  0  0  0  0  0
   -1.7150   21.8290  -29.2610 C   0  0  0  0  0  0  0  0  0  0  0  0
   -1.8970   20.9600  -30.3370 C   0  0  0  0  0  0  0  0  0  0  0  0
   -2.5620   21.3920  -31.4900 C   0  0  0  0  0  0  0  0  0  0  0  0
   -2.7530   20.3020  -32.8600 S   0  0  0  0  0  0  0  0  0  0  0  0
   -3.7500   20.8850  -33.8240 O   0  0  0  0  0  0  0  0  0  0  0  0
   -3.2740   18.9750  -32.3770 O   0  0  0  0  0  0  0  0  0  0  0  0
   -1.2160   20.1060  -33.6640 N   0  0  0  0  0  0  0  0  0  0  0  0
   -0.7310   21.3740  -34.2100 C   0  0  0  0  0  0  0  0  0  0  0  0
    0.7880   21.3030  -34.2130 C   0  0  0  0  0  0  0  0  0  0  0  0
    1.1430   20.1560  -33.2790 C   0  0  0  0  0  0  0  0  0  0  0  0
   -0.1840   19.6560  -32.7310 C   0  0  0  0  0  0  0  0  0  0  0  0
   -3.0600   22.6980  -31.5500 C   0  0  0  0  0  0  0  0  0  0  0  0
   -2.9250   23.5640  -30.4580 C   0  0  0  0  0  0  0  0  0  0  0  0
   -3.5480   24.8540  -30.5310 N   0  0  0  0  0  0  0  0  0  0  0  0
   -4.9610   25.0940  -30.5840 C   0  0  0  0  0  0  0  0  0  0  0  0
   -5.3790   26.2770  -30.4820 O   0  0  0  0  0  0  0  0  0  0  0  0
   -5.9410   24.0110  -30.7900 C   0  0  0  0  0  0  0  0  0  0  0  0
   -7.1240   23.8100  -30.0950 C   0  0  0  0  0  0  0  0  0  0  0  0
   -7.6890   22.6730  -30.6310 C   0  0  0  0  0  0  0  0  0  0  0  0
   -6.8160   22.2500  -31.6130 C   0  0  0  0  0  0  0  0  0  0  0  0
   -7.0500   20.7150  -32.7180 Br  0  0  0  0  0  0  0  0  0  0  0  0
   -5.7830   23.0580  -31.6810 O   0  0  0  0  0  0  0  0  0  0  0  0
   -1.0630   25.2200  -28.4750 C   0  0  0  0  0  0  0  0  0  0  0  0
   -0.4290   25.6640  -27.1540 C   0  0  0  0  0  0  0  0  0  0  0  0
   -1.5698   26.0431  -23.9919 H   0  0  0  0  0  0  0  0  0  0  0  0
   -0.8266   24.5461  -24.6502 H   0  0  0  0  0  0  0  0  0  0  0  0
    0.1010   26.0844  -24.6502 H   0  0  0  0  0  0  0  0  0  0  0  0
   -3.2580   25.2293  -25.3340 H   0  0  0  0  0  0  0  0  0  0  0  0
   -3.3339   26.0181  -26.9750 H   0  0  0  0  0  0  0  0  0  0  0  0
   -2.2137   23.2589  -26.3120 H   0  0  0  0  0  0  0  0  0  0  0  0
   -3.7155   23.6480  -27.2368 H   0  0  0  0  0  0  0  0  0  0  0  0
   -1.1802   21.4824  -28.3644 H   0  0  0  0  0  0  0  0  0  0  0  0
   -1.5158   19.9298  -30.2788 H   0  0  0  0  0  0  0  0  0  0  0  0
   -1.1050   21.5119  -35.2352 H   0  0  0  0  0  0  0  0  0  0  0  0
   -1.0837   22.2228  -33.6058 H   0  0  0  0  0  0  0  0  0  0  0  0
    1.1615   21.1020  -35.2279 H   0  0  0  0  0  0  0  0  0  0  0  0
    1.2415   22.2505  -33.8865 H   0  0  0  0  0  0  0  0  0  0  0  0
    1.6576   19.3556  -33.8308 H   0  0  0  0  0  0  0  0  0  0  0  0
    1.8221   20.4778  -32.4757 H   0  0  0  0  0  0  0  0  0  0  0  0
   -0.1800   18.5577  -32.6699 H   0  0  0  0  0  0  0  0  0  0  0  0
   -0.3673   20.0445  -31.7183 H   0  0  0  0  0  0  0  0  0  0  0  0
   -3.5625   23.0479  -32.4638 H   0  0  0  0  0  0  0  0  0  0  0  0
   -7.5286   24.4310  -29.2822 H   0  0  0  0  0  0  0  0  0  0  0  0
   -8.6381   22.2008  -30.3374 H   0  0  0  0  0  0  0  0  0  0  0  0
   -0.2714   24.9552  -29.1915 H   0  0  0  0  0  0  0  0  0  0  0  0
   -1.6686   26.0409  -28.8866 H   0  0  0  0  0  0  0  0  0  0  0  0
    0.2312   24.8608  -26.7948 H   0  0  0  0  0  0  0  0  0  0  0  0
    0.1246   26.5938  -27.3513 H   0  0  0  0  0  0  0  0  0  0  0  0
  1  2  1  0
  2  3  1  0
  3  4  1  0
  4  5  1  0
  5  6  1  0
  6  7  2  0
  7  8  1  0
  8  9  2  0
  9 10  1  0
 10 11  2  0
 10 12  2  0
 10 13  1  0
 13 14  1  0
 14 15  1  0
 15 16  1  0
 16 17  1  0
  9 18  1  0
 18 19  2  0
 19 20  1  0
 20 21  1  0
 21 22  2  0
 21 23  1  0
 23 24  2  0
 24 25  1  0
 25 26  2  0
 26 27  1  0
 26 28  1  0
  5 29  1  0
 29 30  1  0
 30  2  1  0
 19  6  1  0
 28 23  1  0
 17 13  1  0
  1 31  1  0
  1 32  1  0
  1 33  1  0
  3 34  1  0
  3 35  1  0
  4 36  1  0
  4 37  1  0
  7 38  1  0
  8 39  1  0
 14 40  1  0
 14 41  1  0
 15 42  1  0
 15 43  1  0
 16 44  1  0
 16 45  1  0
 17 46  1  0
 17 47  1  0
 18 48  1  0
 24 49  1  0
 25 50  1  0
 29 51  1  0
 29 52  1  0
 30 53  1  0
 30 54  1  0
M  CHG  1  20  -1
M  END
>  <UniqueID>  (28) 
27

>  <SMILES>  (28) 
CN1CCN(c2ccc(S(=O)(=O)N3CCCC3)cc2[N-]C(=O)c2ccc(Br)o2)CC1

>  <Energy>  (28) 
98.08571093166877

>  <Genealogy>  (28) 
CN1CCN(c2ccc(S(=O)(=O)N3CCCC3)cc2[N-]C(=O)c2ccc(Br)o2)CC1 (protonated)
CN1CCN(c2ccc(S(=O)(=O)N3CCCC3)cc2[N-]C(=O)c2ccc(Br)o2)CC1 (3D coordinates assigned)
CN1CCN(c2ccc(S(=O)(=O)N3CCCC3)cc2[N-]C(=O)c2ccc(Br)o2)CC1 (nonaromatic ring conformer: 98.08571093166877 kcal/mol)

>  <smiles>  (28) 
CN1CCN(c2ccc(S(=O)(=O)N3CCCC3)cc2NC(=O)c2ccc(Br)o2)CC1

>  <score_type>  (28) 
oracle

>  <origin>  (28) 
adgpu

>  <m_score__min__energy>  (28) 
-10.539999999999999

>  <m_primary>  (28) 
energy

$$$$
28:0
     RDKit          3D

 57 60  0  0  0  0  0  0  0  0999 V2000
   -0.5510   21.5460  -31.0170 C   0  0  0  0  0  0  0  0  0  0  0  0
   -1.9050   21.2490  -31.5930 C   0  0  0  0  0  0  0  0  0  0  0  0
   -2.2300   19.9380  -31.9580 C   0  0  0  0  0  0  0  0  0  0  0  0
   -3.4830   19.6430  -32.5000 C   0  0  0  0  0  0  0  0  0  0  0  0
   -4.4370   20.6570  -32.6820 C   0  0  0  0  0  0  0  0  0  0  0  0
   -5.7850   20.3000  -33.2410 C   0  0  0  0  0  0  0  0  0  0  0  0
   -4.0960   21.9940  -32.3580 C   0  0  0  0  0  0  0  0  0  0  0  0
   -5.0090   23.0780  -32.5870 N   0  0  0  0  0  0  0  0  0  0  0  0
   -5.5100   23.8580  -31.5010 C   0  0  0  0  0  0  0  0  0  0  0  0
   -4.9380   24.6510  -30.5250 C   0  0  0  0  0  0  0  0  0  0  0  0
   -3.5910   25.0120  -30.2030 N   0  0  0  0  0  0  0  0  0  0  0  0
   -2.8260   24.3920  -29.1550 C   0  0  0  0  0  0  0  0  0  0  0  0
   -3.2440   23.1840  -28.5720 C   0  0  0  0  0  0  0  0  0  0  0  0
   -2.4570   22.5560  -27.6060 C   0  0  0  0  0  0  0  0  0  0  0  0
   -1.2360   23.1110  -27.2270 C   0  0  0  0  0  0  0  0  0  0  0  0
   -0.8050   24.3230  -27.7870 C   0  0  0  0  0  0  0  0  0  0  0  0
    0.5120   24.8650  -27.3860 C   0  0  0  0  0  0  0  0  0  0  0  0
    1.5370   24.4990  -28.0310 O   0  0  0  0  0  0  0  0  0  0  0  0
    0.6500   25.7260  -26.2250 N   0  0  2  0  0  0  0  0  0  0  0  0
   -0.4870   25.5130  -25.2890 C   0  0  0  0  0  0  0  0  0  0  0  0
   -0.7130   26.7330  -24.3860 C   0  0  0  0  0  0  0  0  0  0  0  0
   -1.0950   27.9770  -25.2220 C   0  0  1  0  0  0  0  0  0  0  0  0
   -0.6620   29.1410  -24.5650 O   0  0  0  0  0  0  0  0  0  0  0  0
   -0.4880   27.9320  -26.6400 C   0  0  0  0  0  0  0  0  0  0  0  0
    0.8280   27.1430  -26.6570 C   0  0  0  0  0  0  0  0  0  0  0  0
   -1.6010   24.9600  -28.7590 C   0  0  0  0  0  0  0  0  0  0  0  0
   -1.1750   26.1500  -29.3440 O   0  0  0  0  0  0  0  0  0  0  0  0
   -6.1960   24.9550  -30.0400 C   0  0  0  0  0  0  0  0  0  0  0  0
   -6.6470   25.6920  -29.1230 O   0  0  0  0  0  0  0  0  0  0  0  0
   -6.7620   24.1190  -30.9790 C   0  0  0  0  0  0  0  0  0  0  0  0
   -7.9350   23.7650  -31.2650 O   0  0  0  0  0  0  0  0  0  0  0  0
   -2.8420   22.2730  -31.7950 C   0  0  0  0  0  0  0  0  0  0  0  0
   -0.6090   21.5333  -29.9186 H   0  0  0  0  0  0  0  0  0  0  0  0
    0.1665   20.7839  -31.3552 H   0  0  0  0  0  0  0  0  0  0  0  0
   -0.2183   22.5385  -31.3552 H   0  0  0  0  0  0  0  0  0  0  0  0
   -1.4931   19.1335  -31.8170 H   0  0  0  0  0  0  0  0  0  0  0  0
   -3.7242   18.6087  -32.7864 H   0  0  0  0  0  0  0  0  0  0  0  0
   -6.4870   20.1141  -32.4148 H   0  0  0  0  0  0  0  0  0  0  0  0
   -6.1574   21.1305  -33.8587 H   0  0  0  0  0  0  0  0  0  0  0  0
   -5.6975   19.3941  -33.8587 H   0  0  0  0  0  0  0  0  0  0  0  0
   -5.5920   23.0680  -33.4570 H   0  0  0  0  0  0  0  0  0  0  0  0
   -3.1060   25.6810  -30.8390 H   0  0  0  0  0  0  0  0  0  0  0  0
   -4.1979   22.7303  -28.8791 H   0  0  0  0  0  0  0  0  0  0  0  0
   -2.8013   21.6199  -27.1421 H   0  0  0  0  0  0  0  0  0  0  0  0
   -0.6074   22.5964  -26.4854 H   0  0  0  0  0  0  0  0  0  0  0  0
    1.5280   25.4590  -25.7170 H   0  0  0  0  0  0  0  0  0  0  0  0
   -1.4003   25.3276  -25.8734 H   0  0  0  0  0  0  0  0  0  0  0  0
   -0.2480   24.6512  -24.6486 H   0  0  0  0  0  0  0  0  0  0  0  0
   -1.5256   26.5115  -23.6785 H   0  0  0  0  0  0  0  0  0  0  0  0
    0.2206   26.9469  -23.8451 H   0  0  0  0  0  0  0  0  0  0  0  0
   -2.1902   27.9827  -25.3250 H   0  0  0  0  0  0  0  0  0  0  0  0
   -0.3260   28.8590  -23.6720 H   0  0  0  0  0  0  0  0  0  0  0  0
   -1.2041   27.4495  -27.3214 H   0  0  0  0  0  0  0  0  0  0  0  0
   -0.2795   28.9630  -26.9619 H   0  0  0  0  0  0  0  0  0  0  0  0
    1.2315   27.1518  -27.6803 H   0  0  0  0  0  0  0  0  0  0  0  0
    1.5160   27.6251  -25.9469 H   0  0  0  0  0  0  0  0  0  0  0  0
   -2.5909   23.3051  -31.5091 H   0  0  0  0  0  0  0  0  0  0  0  0
  1  2  1  0
  2  3  2  0
  3  4  1  0
  4  5  2  0
  5  6  1  0
  5  7  1  0
  7  8  1  0
  8  9  1  0
  9 10  2  0
 10 11  1  0
 11 12  1  0
 12 13  2  0
 13 14  1  0
 14 15  2  0
 15 16  1  0
 16 17  1  0
 17 18  2  0
 17 19  1  0
 19 20  1  0
 20 21  1  0
 21 22  1  0
 22 23  1  0
 22 24  1  0
 24 25  1  0
 16 26  2  0
 26 27  1  0
 10 28  1  0
 28 29  2  0
 28 30  1  0
 30 31  2  0
  7 32  2  0
 32  2  1  0
 30  9  1  0
 26 12  1  0
 25 19  1  0
  1 33  1  0
  1 34  1  0
  1 35  1  0
  3 36  1  0
  4 37  1  0
  6 38  1  0
  6 39  1  0
  6 40  1  0
  8 41  1  0
 11 42  1  0
 13 43  1  0
 14 44  1  0
 15 45  1  0
 19 46  1  1
 20 47  1  0
 20 48  1  0
 21 49  1  0
 21 50  1  0
 22 51  1  6
 23 52  1  0
 24 53  1  0
 24 54  1  0
 25 55  1  0
 25 56  1  0
 32 57  1  0
M  CHG  2  19   1  27  -1
M  END
>  <UniqueID>  (29) 
28

>  <SMILES>  (29) 
Cc1ccc(C)c(Nc2c(Nc3cccc(C(=O)[NH+]4CCC(O)CC4)c3[O-])c(=O)c2=O)c1

>  <Energy>  (29) 
81.37821816813553

>  <Genealogy>  (29) 
Cc1ccc(C)c(Nc2c(Nc3cccc(C(=O)[NH+]4CCC(O)CC4)c3[O-])c(=O)c2=O)c1 (protonated)
Cc1ccc(C)c(Nc2c(Nc3cccc(C(=O)[NH+]4CCC(O)CC4)c3[O-])c(=O)c2=O)c1 (3D coordinates assigned)
Cc1ccc(C)c(Nc2c(Nc3cccc(C(=O)[NH+]4CCC(O)CC4)c3[O-])c(=O)c2=O)c1 (nonaromatic ring conformer: 81.37821816813553 kcal/mol)

>  <smiles>  (29) 
Cc1ccc(C)c(Nc2c(Nc3cccc(C(=O)N4CCC(O)CC4)c3O)c(=O)c2=O)c1

>  <score_type>  (29) 
oracle

>  <origin>  (29) 
adgpu

>  <m_score__min__energy>  (29) 
-13.76

>  <m_primary>  (29) 
energy

$$$$
29:0
     RDKit          3D

 47 49  0  0  0  0  0  0  0  0999 V2000
   -4.2040   23.8510  -27.2050 N   0  0  0  0  0  0  0  0  0  0  0  0
   -2.9720   24.5770  -27.3040 C   0  0  0  0  0  0  0  0  0  0  0  0
   -2.2900   24.9280  -26.1280 C   0  0  0  0  0  0  0  0  0  0  0  0
   -1.0990   25.6550  -26.1880 C   0  0  0  0  0  0  0  0  0  0  0  0
   -0.5730   26.0330  -27.4240 C   0  0  0  0  0  0  0  0  0  0  0  0
   -1.2390   25.6880  -28.6030 C   0  0  0  0  0  0  0  0  0  0  0  0
   -2.4470   24.9690  -28.5580 C   0  0  0  0  0  0  0  0  0  0  0  0
   -3.0970   24.5780  -29.7790 N   0  0  0  0  0  0  0  0  0  0  0  0
   -4.5020   24.7610  -30.0220 C   0  0  0  0  0  0  0  0  0  0  0  0
   -5.2370   25.2950  -29.1490 O   0  0  0  0  0  0  0  0  0  0  0  0
   -5.0880   24.3770  -31.2720 N   0  0  0  0  0  0  0  0  0  0  0  0
   -5.8610   23.1920  -31.5000 C   0  0  0  0  0  0  0  0  0  0  0  0
   -5.2030   21.9650  -31.6390 C   0  0  0  0  0  0  0  0  0  0  0  0
   -5.9300   20.7950  -31.8810 C   0  0  0  0  0  0  0  0  0  0  0  0
   -7.3260   20.8460  -32.0040 C   0  0  0  0  0  0  0  0  0  0  0  0
   -8.2510   19.3700  -32.2890 S   0  0  0  0  0  0  0  0  0  0  0  0
   -8.7570   18.8440  -30.9730 O   0  0  0  0  0  0  0  0  0  0  0  0
   -9.4410   19.6860  -33.1510 O   0  0  0  0  0  0  0  0  0  0  0  0
   -7.2790   18.1440  -33.0650 N   0  0  0  0  0  0  0  0  0  0  0  0
   -6.4320   17.4590  -32.0760 C   0  0  0  0  0  0  0  0  0  0  0  0
   -5.7650   16.2220  -32.7060 C   0  0  0  0  0  0  0  0  0  0  0  0
   -5.6460   16.3340  -34.2350 C   0  0  0  0  0  0  0  0  0  0  0  0
   -5.3730   17.7790  -34.6620 C   0  0  0  0  0  0  0  0  0  0  0  0
   -6.4600   18.7450  -34.1370 C   0  0  0  0  0  0  0  0  0  0  0  0
   -7.9840   22.0790  -31.8990 C   0  0  0  0  0  0  0  0  0  0  0  0
   -7.2560   23.2470  -31.6560 C   0  0  0  0  0  0  0  0  0  0  0  0
   -5.1050   24.2970  -27.4870 H   0  0  0  0  0  0  0  0  0  0  0  0
   -4.2370   22.8580  -26.8900 H   0  0  0  0  0  0  0  0  0  0  0  0
   -2.6971   24.6279  -25.1512 H   0  0  0  0  0  0  0  0  0  0  0  0
   -0.5753   25.9298  -25.2605 H   0  0  0  0  0  0  0  0  0  0  0  0
    0.3667   26.6030  -27.4702 H   0  0  0  0  0  0  0  0  0  0  0  0
   -0.8149   25.9813  -29.5747 H   0  0  0  0  0  0  0  0  0  0  0  0
   -2.5080   24.1560  -30.5300 H   0  0  0  0  0  0  0  0  0  0  0  0
   -4.1069   21.9203  -31.5574 H   0  0  0  0  0  0  0  0  0  0  0  0
   -5.4056   19.8326  -31.9751 H   0  0  0  0  0  0  0  0  0  0  0  0
   -5.6529   18.1514  -31.7244 H   0  0  0  0  0  0  0  0  0  0  0  0
   -7.0589   17.1356  -31.2320 H   0  0  0  0  0  0  0  0  0  0  0  0
   -4.7568   16.1094  -32.2807 H   0  0  0  0  0  0  0  0  0  0  0  0
   -6.3971   15.3500  -32.4821 H   0  0  0  0  0  0  0  0  0  0  0  0
   -4.8190   15.6954  -34.5788 H   0  0  0  0  0  0  0  0  0  0  0  0
   -6.5966   16.0105  -34.6842 H   0  0  0  0  0  0  0  0  0  0  0  0
   -4.3964   18.0903  -34.2628 H   0  0  0  0  0  0  0  0  0  0  0  0
   -5.3802   17.8191  -35.7612 H   0  0  0  0  0  0  0  0  0  0  0  0
   -5.9698   19.6474  -33.7429 H   0  0  0  0  0  0  0  0  0  0  0  0
   -7.1298   18.9833  -34.9764 H   0  0  0  0  0  0  0  0  0  0  0  0
   -9.0775   22.1276  -32.0083 H   0  0  0  0  0  0  0  0  0  0  0  0
   -7.7774   24.2131  -31.5866 H   0  0  0  0  0  0  0  0  0  0  0  0
  1  2  1  0
  2  3  2  0
  3  4  1  0
  4  5  2  0
  5  6  1  0
  6  7  2  0
  7  8  1  0
  8  9  1  0
  9 10  2  0
  9 11  1  0
 11 12  1  0
 12 13  2  0
 13 14  1  0
 14 15  2  0
 15 16  1  0
 16 17  2  0
 16 18  2  0
 16 19  1  0
 19 20  1  0
 20 21  1  0
 21 22  1  0
 22 23  1  0
 23 24  1  0
 15 25  1  0
 25 26  2  0
  7  2  1  0
 26 12  1  0
 24 19  1  0
  1 27  1  0
  1 28  1  0
  3 29  1  0
  4 30  1  0
  5 31  1  0
  6 32  1  0
  8 33  1  0
 13 34  1  0
 14 35  1  0
 20 36  1  0
 20 37  1  0
 21 38  1  0
 21 39  1  0
 22 40  1  0
 22 41  1  0
 23 42  1  0
 23 43  1  0
 24 44  1  0
 24 45  1  0
 25 46  1  0
 26 47  1  0
M  CHG  1  11  -1
M  END
>  <UniqueID>  (30) 
29

>  <SMILES>  (30) 
Nc1ccccc1NC(=O)[N-]c1ccc(S(=O)(=O)N2CCCCC2)cc1

>  <Energy>  (30) 
59.223049677850234

>  <Genealogy>  (30) 
Nc1ccccc1NC(=O)[N-]c1ccc(S(=O)(=O)N2CCCCC2)cc1 (protonated)
Nc1ccccc1NC(=O)[N-]c1ccc(S(=O)(=O)N2CCCCC2)cc1 (3D coordinates assigned)
Nc1ccccc1NC(=O)[N-]c1ccc(S(=O)(=O)N2CCCCC2)cc1 (nonaromatic ring conformer: 59.223049677850234 kcal/mol)

>  <smiles>  (30) 
Nc1ccccc1NC(=O)Nc1ccc(S(=O)(=O)N2CCCCC2)cc1

>  <score_type>  (30) 
oracle

>  <origin>  (30) 
adgpu

>  <m_score__min__energy>  (30) 
-10.890000000000001

>  <m_primary>  (30) 
energy

$$$$
30:0
     RDKit          3D

 52 52  0  0  0  0  0  0  0  0999 V2000
   -2.7490   23.1560  -31.3410 H   0  0  0  0  0  0  0  0  0  0  0  0
   -2.6040   22.3250  -31.9010 O   0  0  0  0  0  0  0  0  0  0  0  0
   -3.5640   21.3410  -31.9350 N   0  0  0  0  0  0  0  0  0  0  0  0
   -4.1520   21.0340  -33.0450 C   0  0  0  0  0  0  0  0  0  0  0  0
   -3.8784   21.5652  -33.9686 H   0  0  0  0  0  0  0  0  0  0  0  0
   -5.1810   19.9850  -33.0900 C   0  0  0  0  0  0  0  0  0  0  0  0
   -5.6570   19.6520  -34.2090 O   0  0  0  0  0  0  0  0  0  0  0  0
   -5.6480   19.3520  -31.8870 N   0  0  0  0  0  0  0  0  0  0  0  0
   -5.2630   19.6570  -30.9650 H   0  0  0  0  0  0  0  0  0  0  0  0
   -6.7420   18.3810  -31.8750 C   0  0  0  0  0  0  0  0  0  0  0  0
   -7.1220   18.2789  -30.8478 H   0  0  0  0  0  0  0  0  0  0  0  0
   -6.3604   17.4162  -32.2404 H   0  0  0  0  0  0  0  0  0  0  0  0
   -7.8840   18.8350  -32.7900 C   0  0  0  0  0  0  0  0  0  0  0  0
   -8.1937   17.9868  -33.4183 H   0  0  0  0  0  0  0  0  0  0  0  0
   -7.5156   19.6714  -33.4021 H   0  0  0  0  0  0  0  0  0  0  0  0
   -9.0990   19.3310  -31.9940 C   0  0  0  0  0  0  0  0  0  0  0  0
   -9.4819   18.5086  -31.3718 H   0  0  0  0  0  0  0  0  0  0  0  0
   -9.8696   19.6678  -32.7030 H   0  0  0  0  0  0  0  0  0  0  0  0
   -8.7170   20.5110  -31.0880 C   0  0  0  0  0  0  0  0  0  0  0  0
   -7.6234   20.5249  -30.9707 H   0  0  0  0  0  0  0  0  0  0  0  0
   -9.2279   20.3687  -30.1243 H   0  0  0  0  0  0  0  0  0  0  0  0
   -9.1680   21.8670  -31.6570 C   0  0  0  0  0  0  0  0  0  0  0  0
   -9.8900   22.3189  -30.9610 H   0  0  0  0  0  0  0  0  0  0  0  0
   -9.6180   21.6821  -32.6436 H   0  0  0  0  0  0  0  0  0  0  0  0
   -7.9960   22.8430  -31.8540 C   0  0  0  0  0  0  0  0  0  0  0  0
   -8.3877   23.7822  -32.2716 H   0  0  0  0  0  0  0  0  0  0  0  0
   -7.2763   22.3621  -32.5328 H   0  0  0  0  0  0  0  0  0  0  0  0
   -7.2540   23.1600  -30.5430 C   0  0  0  0  0  0  0  0  0  0  0  0
   -6.3066   22.6010  -30.5446 H   0  0  0  0  0  0  0  0  0  0  0  0
   -7.9347   22.8693  -29.7293 H   0  0  0  0  0  0  0  0  0  0  0  0
   -6.9280   24.6510  -30.3160 C   0  0  0  0  0  0  0  0  0  0  0  0
   -7.7263   25.0856  -29.6965 H   0  0  0  0  0  0  0  0  0  0  0  0
   -6.8563   25.1082  -31.3139 H   0  0  0  0  0  0  0  0  0  0  0  0
   -5.5840   24.9170  -29.6200 C   0  0  0  0  0  0  0  0  0  0  0  0
   -5.5312   24.3083  -28.7053 H   0  0  0  0  0  0  0  0  0  0  0  0
   -5.5286   25.9907  -29.3873 H   0  0  0  0  0  0  0  0  0  0  0  0
   -4.4190   24.5730  -30.4980 C   0  0  0  0  0  0  0  0  0  0  0  0
   -4.6090   23.9050  -31.5500 O   0  0  0  0  0  0  0  0  0  0  0  0
   -3.0950   24.9280  -30.0830 N   0  0  0  0  0  0  0  0  0  0  0  0
   -2.4060   24.4520  -28.9170 C   0  0  0  0  0  0  0  0  0  0  0  0
   -1.6700   25.3290  -28.0980 C   0  0  0  0  0  0  0  0  0  0  0  0
   -1.6000   26.3946  -28.3620 H   0  0  0  0  0  0  0  0  0  0  0  0
   -1.0280   24.8540  -26.9520 C   0  0  0  0  0  0  0  0  0  0  0  0
   -0.4455   25.5437  -26.3235 H   0  0  0  0  0  0  0  0  0  0  0  0
   -1.1240   23.5070  -26.6030 C   0  0  0  0  0  0  0  0  0  0  0  0
   -0.6115   23.1341  -25.7040 H   0  0  0  0  0  0  0  0  0  0  0  0
   -1.8710   22.6310  -27.3950 C   0  0  0  0  0  0  0  0  0  0  0  0
   -1.9507   21.5710  -27.1119 H   0  0  0  0  0  0  0  0  0  0  0  0
   -2.5200   23.0950  -28.5490 C   0  0  0  0  0  0  0  0  0  0  0  0
   -3.2810   22.1770  -29.3450 N   0  0  0  0  0  0  0  0  0  0  0  0
   -3.8610   22.5000  -30.1500 H   0  0  0  0  0  0  0  0  0  0  0  0
   -3.2620   21.1540  -29.1390 H   0  0  0  0  0  0  0  0  0  0  0  0
  1  2  1  0
  2  3  1  0
  3  4  2  0
  4  5  1  0
  4  6  1  0
  6  7  2  0
  6  8  1  0
  8  9  1  0
  8 10  1  0
 10 11  1  0
 10 12  1  0
 10 13  1  0
 13 14  1  0
 13 15  1  0
 13 16  1  0
 16 17  1  0
 16 18  1  0
 16 19  1  0
 19 20  1  0
 19 21  1  0
 19 22  1  0
 22 23  1  0
 22 24  1  0
 22 25  1  0
 25 26  1  0
 25 27  1  0
 25 28  1  0
 28 29  1  0
 28 30  1  0
 28 31  1  0
 31 32  1  0
 31 33  1  0
 31 34  1  0
 34 35  1  0
 34 36  1  0
 34 37  1  0
 37 38  2  0
 37 39  1  0
 39 40  1  0
 40 41  2  0
 41 42  1  0
 41 43  1  0
 43 44  1  0
 43 45  2  0
 45 46  1  0
 45 47  1  0
 47 48  1  0
 47 49  2  0
 49 50  1  0
 50 51  1  0
 50 52  1  0
 49 40  1  0
M  CHG  1  39  -1
M  END
>  <UniqueID>  (31) 
30

>  <SMILES>  (31) 
Nc1ccccc1[N-]C(=O)CCCCCCCCCNC(=O)/C=N/O

>  <Energy>  (31) 
33.372924680725454

>  <Genealogy>  (31) 
Nc1ccccc1[N-]C(=O)CCCCCCCCCNC(=O)C=NO (protonated)
Nc1ccccc1[N-]C(=O)CCCCCCCCCNC(=O)/C=N/O (cis-trans isomerization)
Nc1ccccc1[N-]C(=O)CCCCCCCCCNC(=O)/C=N/O (3D coordinates assigned)
Nc1ccccc1[N-]C(=O)CCCCCCCCCNC(=O)/C=N/O (optimized conformer: 33.372924680725454 kcal/mol)

>  <smiles>  (31) 
Nc1ccccc1NC(=O)CCCCCCCCCNC(=O)C=NO

>  <score_type>  (31) 
oracle

>  <origin>  (31) 
adgpu

>  <m_score__min__energy>  (31) 
-8.4700000000000006

>  <m_primary>  (31) 
energy

$$$$
31:0
     RDKit          3D

 58 61  0  0  0  0  0  0  0  0999 V2000
   -4.8630   17.3930  -32.9290 C   0  0  0  0  0  0  0  0  0  0  0  0
   -5.6610   18.5220  -33.5010 C   0  0  0  0  0  0  0  0  0  0  0  0
   -5.3850   18.9410  -34.6580 O   0  0  0  0  0  0  0  0  0  0  0  0
   -6.7780   19.0820  -32.7780 N   0  0  0  0  0  0  0  0  0  0  0  0
   -8.0050   18.2670  -32.6900 C   0  0  0  0  0  0  0  0  0  0  0  0
   -9.0720   18.9090  -31.7990 C   0  0  0  0  0  0  0  0  0  0  0  0
   -9.2960   20.3650  -32.2030 C   0  0  0  0  0  0  0  0  0  0  0  0
   -8.0070   21.1270  -32.0990 C   0  0  0  0  0  0  0  0  0  0  0  0
   -8.0200   22.4850  -31.7510 C   0  0  0  0  0  0  0  0  0  0  0  0
   -6.8230   23.1940  -31.6230 C   0  0  0  0  0  0  0  0  0  0  0  0
   -6.8640   24.5490  -31.3130 O   0  0  0  0  0  0  0  0  0  0  0  0
   -5.5990   22.5420  -31.8280 C   0  0  0  0  0  0  0  0  0  0  0  0
   -4.3530   23.2260  -31.6710 N   0  0  0  0  0  0  0  0  0  0  0  0
   -3.9860   24.2440  -30.3170 S   0  0  0  0  0  0  0  0  0  0  0  0
   -5.0380   24.1110  -29.2520 O   0  0  0  0  0  0  0  0  0  0  0  0
   -3.9410   25.6710  -30.7900 O   0  0  0  0  0  0  0  0  0  0  0  0
   -2.4370   23.7310  -29.6480 C   0  0  0  0  0  0  0  0  0  0  0  0
   -2.1030   22.3700  -29.7060 C   0  0  0  0  0  0  0  0  0  0  0  0
   -0.8690   21.9160  -29.2250 C   0  0  0  0  0  0  0  0  0  0  0  0
   -0.4440   20.2080  -29.3540 S   0  0  0  0  0  0  0  0  0  0  0  0
   -1.2590   19.4190  -28.3670 O   0  0  0  0  0  0  0  0  0  0  0  0
    1.0080   20.0300  -29.0060 O   0  0  0  0  0  0  0  0  0  0  0  0
   -0.7240   19.5980  -30.9700 N   0  0  0  0  0  0  0  0  0  0  0  0
   -2.1130   19.8820  -31.3930 C   0  0  0  0  0  0  0  0  0  0  0  0
   -2.2720   19.7580  -32.9120 C   0  0  0  0  0  0  0  0  0  0  0  0
   -1.3890   20.7820  -33.6460 C   0  0  0  0  0  0  0  0  0  0  0  0
   -0.1580   21.2040  -32.8240 C   0  0  0  0  0  0  0  0  0  0  0  0
    0.3210   20.0620  -31.9160 C   0  0  0  0  0  0  0  0  0  0  0  0
    0.0270   22.8300  -28.6570 C   0  0  0  0  0  0  0  0  0  0  0  0
   -0.3070   24.1830  -28.5730 C   0  0  0  0  0  0  0  0  0  0  0  0
   -1.5350   24.6400  -29.0630 C   0  0  0  0  0  0  0  0  0  0  0  0
   -1.8440   25.9910  -28.9600 O   0  0  0  0  0  0  0  0  0  0  0  0
   -5.5850   21.2020  -32.2280 C   0  0  0  0  0  0  0  0  0  0  0  0
   -6.7860   20.4810  -32.3890 C   0  0  0  0  0  0  0  0  0  0  0  0
   -4.8963   17.4401  -31.8305 H   0  0  0  0  0  0  0  0  0  0  0  0
   -5.2864   16.4360  -33.2680 H   0  0  0  0  0  0  0  0  0  0  0  0
   -3.8196   17.4728  -33.2680 H   0  0  0  0  0  0  0  0  0  0  0  0
   -8.4187   18.1417  -33.7015 H   0  0  0  0  0  0  0  0  0  0  0  0
   -7.7328   17.2999  -32.2420 H   0  0  0  0  0  0  0  0  0  0  0  0
  -10.0156   18.3538  -31.9057 H   0  0  0  0  0  0  0  0  0  0  0  0
   -8.7312   18.8767  -30.7536 H   0  0  0  0  0  0  0  0  0  0  0  0
   -9.6603   20.4040  -33.2402 H   0  0  0  0  0  0  0  0  0  0  0  0
  -10.0400   20.8175  -31.5308 H   0  0  0  0  0  0  0  0  0  0  0  0
   -8.9788   22.9956  -31.5776 H   0  0  0  0  0  0  0  0  0  0  0  0
   -2.8180   21.6518  -30.1338 H   0  0  0  0  0  0  0  0  0  0  0  0
   -2.7896   19.1665  -30.9029 H   0  0  0  0  0  0  0  0  0  0  0  0
   -2.3589   20.9141  -31.1026 H   0  0  0  0  0  0  0  0  0  0  0  0
   -1.9801   18.7439  -33.2223 H   0  0  0  0  0  0  0  0  0  0  0  0
   -3.3231   19.9535  -33.1707 H   0  0  0  0  0  0  0  0  0  0  0  0
   -1.0449   20.3363  -34.5910 H   0  0  0  0  0  0  0  0  0  0  0  0
   -1.9976   21.6820  -33.8178 H   0  0  0  0  0  0  0  0  0  0  0  0
    0.6548   21.4809  -33.5115 H   0  0  0  0  0  0  0  0  0  0  0  0
   -0.4381   22.0587  -32.1907 H   0  0  0  0  0  0  0  0  0  0  0  0
    0.6231   19.2142  -32.5484 H   0  0  0  0  0  0  0  0  0  0  0  0
    1.1601   20.4465  -31.3176 H   0  0  0  0  0  0  0  0  0  0  0  0
    0.9978   22.4806  -28.2755 H   0  0  0  0  0  0  0  0  0  0  0  0
    0.3994   24.8936  -28.1190 H   0  0  0  0  0  0  0  0  0  0  0  0
   -4.6234   20.7034  -32.4197 H   0  0  0  0  0  0  0  0  0  0  0  0
  1  2  1  0
  2  3  2  0
  2  4  1  0
  4  5  1  0
  5  6  1  0
  6  7  1  0
  7  8  1  0
  8  9  2  0
  9 10  1  0
 10 11  1  0
 10 12  2  0
 12 13  1  0
 13 14  1  0
 14 15  2  0
 14 16  2  0
 14 17  1  0
 17 18  2  0
 18 19  1  0
 19 20  1  0
 20 21  2  0
 20 22  2  0
 20 23  1  0
 23 24  1  0
 24 25  1  0
 25 26  1  0
 26 27  1  0
 27 28  1  0
 19 29  2  0
 29 30  1  0
 30 31  2  0
 31 32  1  0
 12 33  1  0
 33 34  2  0
 34  4  1  0
 34  8  1  0
 31 17  1  0
 28 23  1  0
  1 35  1  0
  1 36  1  0
  1 37  1  0
  5 38  1  0
  5 39  1  0
  6 40  1  0
  6 41  1  0
  7 42  1  0
  7 43  1  0
  9 44  1  0
 18 45  1  0
 24 46  1  0
 24 47  1  0
 25 48  1  0
 25 49  1  0
 26 50  1  0
 26 51  1  0
 27 52  1  0
 27 53  1  0
 28 54  1  0
 28 55  1  0
 29 56  1  0
 30 57  1  0
 33 58  1  0
M  CHG  3  11  -1  13  -1  32  -1
M  END
>  <UniqueID>  (32) 
31

>  <SMILES>  (32) 
CC(=O)N1CCCc2cc([O-])c([N-]S(=O)(=O)c3cc(S(=O)(=O)N4CCCCC4)ccc3[O-])cc21

>  <Energy>  (32) 
77.05418065143525

>  <Genealogy>  (32) 
CC(=O)N1CCCc2cc([O-])c([N-]S(=O)(=O)c3cc(S(=O)(=O)N4CCCCC4)ccc3[O-])cc21 (protonated)
CC(=O)N1CCCc2cc([O-])c([N-]S(=O)(=O)c3cc(S(=O)(=O)N4CCCCC4)ccc3[O-])cc21 (3D coordinates assigned)
CC(=O)N1CCCc2cc([O-])c([N-]S(=O)(=O)c3cc(S(=O)(=O)N4CCCCC4)ccc3[O-])cc21 (nonaromatic ring conformer: 77.05418065143525 kcal/mol)

>  <smiles>  (32) 
CC(=O)N1CCCc2cc(O)c(NS(=O)(=O)c3cc(S(=O)(=O)N4CCCCC4)ccc3O)cc21

>  <score_type>  (32) 
oracle

>  <origin>  (32) 
adgpu

>  <m_score__min__energy>  (32) 
-16.210000000000001

>  <m_primary>  (32) 
energy

$$$$
32:0
     RDKit          3D

 52 55  0  0  0  0  0  0  0  0999 V2000
    1.7220   24.6090  -37.5920 N   0  0  0  0  0  0  0  0  0  0  0  0
    1.4440   23.8260  -36.0760 S   0  0  0  0  0  0  0  0  0  0  0  0
    2.1380   24.5990  -34.9890 O   0  0  0  0  0  0  0  0  0  0  0  0
   -0.0290   23.7940  -35.7840 O   0  0  0  0  0  0  0  0  0  0  0  0
    2.0650   22.1800  -36.1430 C   0  0  0  0  0  0  0  0  0  0  0  0
    3.4410   21.9410  -36.2620 C   0  0  0  0  0  0  0  0  0  0  0  0
    3.9250   20.6320  -36.3080 C   0  0  0  0  0  0  0  0  0  0  0  0
    3.0380   19.5550  -36.2410 C   0  0  0  0  0  0  0  0  0  0  0  0
    1.6560   19.7830  -36.1290 C   0  0  0  0  0  0  0  0  0  0  0  0
    0.7210   18.6920  -36.1560 N   0  0  0  0  0  0  0  0  0  0  0  0
   -0.0610   18.3710  -35.1960 N   0  0  0  0  0  0  0  0  0  0  0  0
   -0.2490   19.1480  -34.0030 C   0  0  0  0  0  0  0  0  0  0  0  0
    0.8100   19.2960  -33.0980 C   0  0  0  0  0  0  0  0  0  0  0  0
    2.0470   18.7240  -33.3680 O   0  0  0  0  0  0  0  0  0  0  0  0
    0.6300   20.0290  -31.9220 C   0  0  0  0  0  0  0  0  0  0  0  0
   -0.6110   20.6030  -31.6340 C   0  0  0  0  0  0  0  0  0  0  0  0
   -1.6870   20.4380  -32.5170 C   0  0  0  0  0  0  0  0  0  0  0  0
   -3.2640   21.1250  -32.1240 S   0  0  0  0  0  0  0  0  0  0  0  0
   -4.0930   21.1830  -33.3770 O   0  0  0  0  0  0  0  0  0  0  0  0
   -3.9820   20.2820  -31.1070 O   0  0  0  0  0  0  0  0  0  0  0  0
   -3.0720   22.7310  -31.4970 N   0  0  0  0  0  0  0  0  0  0  0  0
   -2.6380   23.0560  -30.1690 C   0  0  0  0  0  0  0  0  0  0  0  0
   -2.0090   22.1110  -29.3410 C   0  0  0  0  0  0  0  0  0  0  0  0
   -1.6140   22.4480  -28.0370 C   0  0  0  0  0  0  0  0  0  0  0  0
   -1.8200   23.7660  -27.5670 C   0  0  0  0  0  0  0  0  0  0  0  0
   -2.4620   24.7000  -28.3920 C   0  0  0  0  0  0  0  0  0  0  0  0
   -2.8590   24.3510  -29.6850 C   0  0  0  0  0  0  0  0  0  0  0  0
   -3.4810   25.3010  -30.4890 O   0  0  0  0  0  0  0  0  0  0  0  0
   -1.4430   24.1730  -26.1620 C   0  0  0  0  0  0  0  0  0  0  0  0
   -0.4000   23.2380  -25.5450 C   0  0  0  0  0  0  0  0  0  0  0  0
   -0.8240   21.7800  -25.7210 C   0  0  0  0  0  0  0  0  0  0  0  0
   -0.8840   21.4160  -27.2080 C   0  0  0  0  0  0  0  0  0  0  0  0
   -1.5080   19.7000  -33.6990 C   0  0  0  0  0  0  0  0  0  0  0  0
   -2.5820   19.4900  -34.5590 O   0  0  0  0  0  0  0  0  0  0  0  0
    1.1760   21.0980  -36.1000 C   0  0  0  0  0  0  0  0  0  0  0  0
    2.7410   24.5160  -37.8020 H   0  0  0  0  0  0  0  0  0  0  0  0
    4.1416   22.7871  -36.3193 H   0  0  0  0  0  0  0  0  0  0  0  0
    5.0060   20.4487  -36.3971 H   0  0  0  0  0  0  0  0  0  0  0  0
    3.4226   18.5250  -36.2760 H   0  0  0  0  0  0  0  0  0  0  0  0
    1.4681   20.1546  -31.2206 H   0  0  0  0  0  0  0  0  0  0  0  0
   -0.7440   21.1864  -30.7110 H   0  0  0  0  0  0  0  0  0  0  0  0
   -1.8239   21.0948  -29.7193 H   0  0  0  0  0  0  0  0  0  0  0  0
   -2.6548   25.7163  -28.0180 H   0  0  0  0  0  0  0  0  0  0  0  0
   -1.0321   25.1931  -26.1877 H   0  0  0  0  0  0  0  0  0  0  0  0
   -2.3501   24.1200  -25.5421 H   0  0  0  0  0  0  0  0  0  0  0  0
    0.5685   23.3967  -26.0417 H   0  0  0  0  0  0  0  0  0  0  0  0
   -0.3133   23.4581  -24.4707 H   0  0  0  0  0  0  0  0  0  0  0  0
   -0.0955   21.1276  -25.2174 H   0  0  0  0  0  0  0  0  0  0  0  0
   -1.8225   21.6435  -25.2801 H   0  0  0  0  0  0  0  0  0  0  0  0
    0.1439   21.3233  -27.5885 H   0  0  0  0  0  0  0  0  0  0  0  0
   -1.4391   20.4703  -27.2943 H   0  0  0  0  0  0  0  0  0  0  0  0
    0.0931   21.2829  -36.0430 H   0  0  0  0  0  0  0  0  0  0  0  0
  1  2  1  0
  2  3  2  0
  2  4  2  0
  2  5  1  0
  5  6  2  0
  6  7  1  0
  7  8  2  0
  8  9  1  0
  9 10  1  0
 10 11  2  3
 11 12  1  0
 12 13  2  0
 13 14  1  0
 13 15  1  0
 15 16  2  0
 16 17  1  0
 17 18  1  0
 18 19  2  0
 18 20  2  0
 18 21  1  0
 21 22  1  0
 22 23  2  0
 23 24  1  0
 24 25  2  0
 25 26  1  0
 26 27  2  0
 27 28  1  0
 25 29  1  0
 29 30  1  0
 30 31  1  0
 31 32  1  0
 17 33  2  0
 33 34  1  0
  9 35  2  0
 35  5  1  0
 33 12  1  0
 27 22  1  0
 32 24  1  0
  1 36  1  0
  6 37  1  0
  7 38  1  0
  8 39  1  0
 15 40  1  0
 16 41  1  0
 23 42  1  0
 26 43  1  0
 29 44  1  0
 29 45  1  0
 30 46  1  0
 30 47  1  0
 31 48  1  0
 31 49  1  0
 32 50  1  0
 32 51  1  0
 35 52  1  0
M  CHG  5   1  -1  14  -1  21  -1  28  -1  34  -1
M  END
>  <UniqueID>  (33) 
32

>  <SMILES>  (33) 
[NH-]S(=O)(=O)c1cccc(N=Nc2c([O-])ccc(S(=O)(=O)[N-]c3cc4c(cc3[O-])CCCC4)c2[O-])c1

>  <Energy>  (33) 
66.50708823533984

>  <Genealogy>  (33) 
[NH-]S(=O)(=O)c1cccc(N=Nc2c([O-])ccc(S(=O)(=O)[N-]c3cc4c(cc3[O-])CCCC4)c2[O-])c1 (protonated)
[NH-]S(=O)(=O)c1cccc(N=Nc2c([O-])ccc(S(=O)(=O)[N-]c3cc4c(cc3[O-])CCCC4)c2[O-])c1 (3D coordinates assigned)
[NH-]S(=O)(=O)c1cccc(N=Nc2c([O-])ccc(S(=O)(=O)[N-]c3cc4c(cc3[O-])CCCC4)c2[O-])c1 (nonaromatic ring conformer: 66.50708823533984 kcal/mol)

>  <smiles>  (33) 
NS(=O)(=O)c1cccc(N=Nc2c(O)ccc(S(=O)(=O)Nc3cc4c(cc3O)CCCC4)c2O)c1

>  <score_type>  (33) 
oracle

>  <origin>  (33) 
adgpu

>  <m_score__min__energy>  (33) 
-14.08

>  <m_primary>  (33) 
energy

$$$$
33:0
     RDKit          3D

 44 46  0  0  0  0  0  0  0  0999 V2000
   -6.7814   21.1218  -31.0835 H   0  0  0  0  0  0  0  0  0  0  0  0
   -6.0070   20.7490  -31.7700 C   0  0  0  0  0  0  0  0  0  0  0  0
   -4.9570   21.4750  -32.0010 N   0  0  0  0  0  0  0  0  0  0  0  0
   -4.7420   22.7420  -31.4270 N   0  0  0  0  0  0  0  0  0  0  0  0
   -5.5500   23.8090  -31.5470 C   0  0  0  0  0  0  0  0  0  0  0  0
   -6.8690   23.8110  -32.2500 C   0  0  0  0  0  0  0  0  0  0  0  0
   -7.6804   23.8122  -31.5072 H   0  0  0  0  0  0  0  0  0  0  0  0
   -6.9473   24.7093  -32.8801 H   0  0  0  0  0  0  0  0  0  0  0  0
   -6.9500   22.9130  -32.8801 H   0  0  0  0  0  0  0  0  0  0  0  0
   -4.9800   24.9120  -31.0240 N   0  0  0  0  0  0  0  0  0  0  0  0
   -3.7840   24.5540  -30.5720 N   0  0  0  0  0  0  0  0  0  0  0  0
   -3.6370   23.2400  -30.8340 C   0  0  0  0  0  0  0  0  0  0  0  0
   -2.3720   22.4890  -30.5610 C   0  0  0  0  0  0  0  0  0  0  0  0
   -2.2247   22.4016  -29.4744 H   0  0  0  0  0  0  0  0  0  0  0  0
   -2.4391   21.4844  -31.0039 H   0  0  0  0  0  0  0  0  0  0  0  0
   -1.5222   23.0290  -31.0039 H   0  0  0  0  0  0  0  0  0  0  0  0
   -6.1810   19.4280  -32.4140 C   0  0  0  0  0  0  0  0  0  0  0  0
   -7.3340   18.6860  -32.1060 C   0  0  0  0  0  0  0  0  0  0  0  0
   -8.0524   19.0778  -31.3709 H   0  0  0  0  0  0  0  0  0  0  0  0
   -7.5780   17.4580  -32.7220 C   0  0  0  0  0  0  0  0  0  0  0  0
   -8.4876   16.8909  -32.4749 H   0  0  0  0  0  0  0  0  0  0  0  0
   -6.6700   16.9480  -33.6510 C   0  0  0  0  0  0  0  0  0  0  0  0
   -6.8682   15.9838  -34.1420 H   0  0  0  0  0  0  0  0  0  0  0  0
   -5.5100   17.6620  -33.9570 C   0  0  0  0  0  0  0  0  0  0  0  0
   -4.7926   17.2513  -34.6827 H   0  0  0  0  0  0  0  0  0  0  0  0
   -5.2510   18.8990  -33.3470 C   0  0  0  0  0  0  0  0  0  0  0  0
   -4.0050   19.5640  -33.6030 N   0  0  0  0  0  0  0  0  0  0  0  0
   -4.0360   20.5930  -33.7720 H   0  0  0  0  0  0  0  0  0  0  0  0
   -2.7550   18.8590  -33.6890 C   0  0  0  0  0  0  0  0  0  0  0  0
   -2.7030   17.6390  -33.3730 O   0  0  0  0  0  0  0  0  0  0  0  0
   -1.5210   19.5390  -34.1540 C   0  0  0  0  0  0  0  0  0  0  0  0
   -1.2900   20.9010  -33.8840 C   0  0  0  0  0  0  0  0  0  0  0  0
   -2.0277   21.4751  -33.3042 H   0  0  0  0  0  0  0  0  0  0  0  0
   -0.1300   21.5300  -34.3470 C   0  0  0  0  0  0  0  0  0  0  0  0
    0.0454   22.5915  -34.1181 H   0  0  0  0  0  0  0  0  0  0  0  0
    0.8100   20.8150  -35.1010 C   0  0  0  0  0  0  0  0  0  0  0  0
    2.0720   21.4810  -35.5640 C   0  0  0  0  0  0  0  0  0  0  0  0
    2.6635   21.7932  -34.6907 H   0  0  0  0  0  0  0  0  0  0  0  0
    2.6581   20.7748  -36.1704 H   0  0  0  0  0  0  0  0  0  0  0  0
    1.8197   22.3634  -36.1704 H   0  0  0  0  0  0  0  0  0  0  0  0
    0.5920   19.4560  -35.3650 C   0  0  0  0  0  0  0  0  0  0  0  0
    1.3368   18.8827  -35.9365 H   0  0  0  0  0  0  0  0  0  0  0  0
   -0.5680   18.8260  -34.9050 C   0  0  0  0  0  0  0  0  0  0  0  0
   -0.7375   17.7631  -35.1321 H   0  0  0  0  0  0  0  0  0  0  0  0
  1  2  1  0
  2  3  2  0
  3  4  1  0
  4  5  1  0
  5  6  1  0
  6  7  1  0
  6  8  1  0
  6  9  1  0
  5 10  2  0
 10 11  1  0
 11 12  2  0
 12 13  1  0
 13 14  1  0
 13 15  1  0
 13 16  1  0
  2 17  1  0
 17 18  2  0
 18 19  1  0
 18 20  1  0
 20 21  1  0
 20 22  2  0
 22 23  1  0
 22 24  1  0
 24 25  1  0
 24 26  2  0
 26 27  1  0
 27 28  1  0
 27 29  1  0
 29 30  2  0
 29 31  1  0
 31 32  2  0
 32 33  1  0
 32 34  1  0
 34 35  1  0
 34 36  2  0
 36 37  1  0
 37 38  1  0
 37 39  1  0
 37 40  1  0
 36 41  1  0
 41 42  1  0
 41 43  2  0
 43 44  1  0
 12  4  1  0
 26 17  1  0
 43 31  1  0
M  END
>  <UniqueID>  (34) 
33

>  <SMILES>  (34) 
Cc1ccc(C(=O)Nc2ccccc2/C=N/n2c(C)nnc2C)cc1

>  <Energy>  (34) 
91.64235441360472

>  <Genealogy>  (34) 
Cc1ccc(C(=O)Nc2ccccc2/C=N/n2c(C)nnc2C)cc1 (cis-trans isomerization)
Cc1ccc(C(=O)Nc2ccccc2/C=N/n2c(C)nnc2C)cc1 (3D coordinates assigned)
Cc1ccc(C(=O)Nc2ccccc2/C=N/n2c(C)nnc2C)cc1 (optimized conformer: 91.64235441360472 kcal/mol)

>  <smiles>  (34) 
Cc1ccc(C(=O)Nc2ccccc2C=Nn2c(C)nnc2C)cc1

>  <score_type>  (34) 
oracle

>  <origin>  (34) 
adgpu

>  <m_score__min__energy>  (34) 
-8.4299999999999997

>  <m_primary>  (34) 
energy

$$$$
34:0
     RDKit          3D

 49 51  0  0  0  0  0  0  0  0999 V2000
   -0.2930   21.3260  -34.8970 C   0  0  0  0  0  0  0  0  0  0  0  0
   -1.1780   20.1260  -34.5430 C   0  0  0  0  0  0  0  0  0  0  0  0
   -2.1920   20.4860  -33.4350 C   0  0  0  0  0  0  0  0  0  0  0  0
   -2.4890   19.3270  -32.4610 C   0  0  0  0  0  0  0  0  0  0  0  0
   -2.4250   17.9860  -33.0790 N   0  0  0  0  0  0  0  0  0  0  0  0
   -3.9260   17.5080  -33.8450 S   0  0  0  0  0  0  0  0  0  0  0  0
   -4.1740   16.0490  -33.5810 O   0  0  0  0  0  0  0  0  0  0  0  0
   -3.8010   17.6900  -35.3330 O   0  0  0  0  0  0  0  0  0  0  0  0
   -5.3070   18.4440  -33.2730 C   0  0  0  0  0  0  0  0  0  0  0  0
   -5.5940   19.6950  -33.8350 C   0  0  0  0  0  0  0  0  0  0  0  0
   -6.6940   20.4330  -33.3900 C   0  0  0  0  0  0  0  0  0  0  0  0
   -7.5190   19.9380  -32.3650 C   0  0  0  0  0  0  0  0  0  0  0  0
   -8.6880   20.7190  -31.8970 C   0  0  0  0  0  0  0  0  0  0  0  0
   -9.8560   20.3470  -32.1950 O   0  0  0  0  0  0  0  0  0  0  0  0
   -8.4970   21.8960  -31.1020 N   0  0  0  0  0  0  0  0  0  0  0  0
   -8.2820   23.2250  -31.6630 C   0  0  0  0  0  0  0  0  0  0  0  0
   -6.9480   23.7650  -31.2280 C   0  0  0  0  0  0  0  0  0  0  0  0
   -6.8650   24.9510  -30.4780 C   0  0  0  0  0  0  0  0  0  0  0  0
   -5.6190   25.4580  -30.0970 C   0  0  0  0  0  0  0  0  0  0  0  0
   -4.4470   24.7880  -30.4650 C   0  0  0  0  0  0  0  0  0  0  0  0
   -3.2100   25.2940  -30.0860 O   0  0  0  0  0  0  0  0  0  0  0  0
   -4.5220   23.6110  -31.2140 C   0  0  0  0  0  0  0  0  0  0  0  0
   -5.7660   23.1010  -31.5970 C   0  0  0  0  0  0  0  0  0  0  0  0
   -7.2130   18.6910  -31.7890 C   0  0  0  0  0  0  0  0  0  0  0  0
   -6.1130   17.9550  -32.2370 C   0  0  0  0  0  0  0  0  0  0  0  0
   -1.2290   17.7000  -33.9070 C   0  0  0  0  0  0  0  0  0  0  0  0
   -0.3270   18.9210  -34.1340 C   0  0  0  0  0  0  0  0  0  0  0  0
    0.0609   21.8059  -33.9727 H   0  0  0  0  0  0  0  0  0  0  0  0
    0.5705   20.9836  -35.4862 H   0  0  0  0  0  0  0  0  0  0  0  0
   -0.8752   22.0498  -35.4862 H   0  0  0  0  0  0  0  0  0  0  0  0
   -1.7477   19.8524  -35.4433 H   0  0  0  0  0  0  0  0  0  0  0  0
   -1.7883   21.3301  -32.8566 H   0  0  0  0  0  0  0  0  0  0  0  0
   -3.1393   20.7334  -33.9363 H   0  0  0  0  0  0  0  0  0  0  0  0
   -1.7537   19.3659  -31.6438 H   0  0  0  0  0  0  0  0  0  0  0  0
   -3.5225   19.4650  -32.1106 H   0  0  0  0  0  0  0  0  0  0  0  0
   -4.9502   20.0982  -34.6305 H   0  0  0  0  0  0  0  0  0  0  0  0
   -6.9162   21.4093  -33.8455 H   0  0  0  0  0  0  0  0  0  0  0  0
   -8.3084   23.1641  -32.7610 H   0  0  0  0  0  0  0  0  0  0  0  0
   -9.0748   23.8977  -31.3040 H   0  0  0  0  0  0  0  0  0  0  0  0
   -7.7840   25.4823  -30.1897 H   0  0  0  0  0  0  0  0  0  0  0  0
   -5.5600   26.3847  -29.5073 H   0  0  0  0  0  0  0  0  0  0  0  0
   -3.6004   23.0846  -31.5029 H   0  0  0  0  0  0  0  0  0  0  0  0
   -5.8197   22.1759  -32.1898 H   0  0  0  0  0  0  0  0  0  0  0  0
   -7.8440   18.2930  -30.9807 H   0  0  0  0  0  0  0  0  0  0  0  0
   -5.8785   16.9855  -31.7732 H   0  0  0  0  0  0  0  0  0  0  0  0
   -0.6376   16.9204  -33.4046 H   0  0  0  0  0  0  0  0  0  0  0  0
   -1.5920   17.3814  -34.8953 H   0  0  0  0  0  0  0  0  0  0  0  0
    0.2129   19.1540  -33.2043 H   0  0  0  0  0  0  0  0  0  0  0  0
    0.3931   18.6966  -34.9347 H   0  0  0  0  0  0  0  0  0  0  0  0
  1  2  1  0
  2  3  1  0
  3  4  1  0
  4  5  1  0
  5  6  1  0
  6  7  2  0
  6  8  2  0
  6  9  1  0
  9 10  2  0
 10 11  1  0
 11 12  2  0
 12 13  1  0
 13 14  2  0
 13 15  1  0
 15 16  1  0
 16 17  1  0
 17 18  2  0
 18 19  1  0
 19 20  2  0
 20 21  1  0
 20 22  1  0
 22 23  2  0
 12 24  1  0
 24 25  2  0
  5 26  1  0
 26 27  1  0
 27  2  1  0
 25  9  1  0
 23 17  1  0
  1 28  1  0
  1 29  1  0
  1 30  1  0
  2 31  1  0
  3 32  1  0
  3 33  1  0
  4 34  1  0
  4 35  1  0
 10 36  1  0
 11 37  1  0
 16 38  1  0
 16 39  1  0
 18 40  1  0
 19 41  1  0
 22 42  1  0
 23 43  1  0
 24 44  1  0
 25 45  1  0
 26 46  1  0
 26 47  1  0
 27 48  1  0
 27 49  1  0
M  CHG  2  15  -1  21  -1
M  END
>  <UniqueID>  (35) 
34

>  <SMILES>  (35) 
CC1CCN(S(=O)(=O)c2ccc(C(=O)[N-]Cc3ccc([O-])cc3)cc2)CC1

>  <Energy>  (35) 
54.68331273518916

>  <Genealogy>  (35) 
CC1CCN(S(=O)(=O)c2ccc(C(=O)[N-]Cc3ccc([O-])cc3)cc2)CC1 (protonated)
CC1CCN(S(=O)(=O)c2ccc(C(=O)[N-]Cc3ccc([O-])cc3)cc2)CC1 (3D coordinates assigned)
CC1CCN(S(=O)(=O)c2ccc(C(=O)[N-]Cc3ccc([O-])cc3)cc2)CC1 (nonaromatic ring conformer: 54.68331273518916 kcal/mol)

>  <smiles>  (35) 
CC1CCN(S(=O)(=O)c2ccc(C(=O)NCc3ccc(O)cc3)cc2)CC1

>  <score_type>  (35) 
oracle

>  <origin>  (35) 
adgpu

>  <m_score__min__energy>  (35) 
-12.380000000000001

>  <m_primary>  (35) 
energy

$$$$
35:0
     RDKit          3D

 45 48  0  0  0  0  0  0  0  0999 V2000
   -1.5730   21.4040  -26.8620 C   0  0  0  0  0  0  0  0  0  0  0  0
   -2.1280   22.4070  -27.8410 C   0  0  0  0  0  0  0  0  0  0  0  0
   -3.3590   22.1270  -28.4530 C   0  0  0  0  0  0  0  0  0  0  0  0
   -3.9230   23.0190  -29.3610 C   0  0  0  0  0  0  0  0  0  0  0  0
   -3.2640   24.2020  -29.6910 C   0  0  0  0  0  0  0  0  0  0  0  0
   -3.8980   25.1000  -30.6130 N   0  0  0  0  0  0  0  0  0  0  0  0
   -5.3100   25.1990  -30.8400 C   0  0  0  0  0  0  0  0  0  0  0  0
   -6.0210   25.9260  -30.0960 O   0  0  0  0  0  0  0  0  0  0  0  0
   -5.9110   24.5620  -31.9710 N   0  0  0  0  0  0  0  0  0  0  0  0
   -6.6710   23.3460  -31.9460 C   0  0  0  0  0  0  0  0  0  0  0  0
   -8.0270   23.4050  -31.5890 C   0  0  0  0  0  0  0  0  0  0  0  0
   -8.7960   22.2380  -31.5280 C   0  0  0  0  0  0  0  0  0  0  0  0
   -8.2070   21.0020  -31.8050 C   0  0  0  0  0  0  0  0  0  0  0  0
   -6.8550   20.9340  -32.1660 C   0  0  0  0  0  0  0  0  0  0  0  0
   -6.0810   22.0960  -32.2150 C   0  0  0  0  0  0  0  0  0  0  0  0
   -6.2950   19.6880  -32.4690 O   0  0  0  0  0  0  0  0  0  0  0  0
   -7.1210   18.5420  -32.6930 C   0  0  0  0  0  0  0  0  0  0  0  0
   -8.3050   18.5430  -31.7180 C   0  0  0  0  0  0  0  0  0  0  0  0
   -8.9490   19.8190  -31.7200 O   0  0  0  0  0  0  0  0  0  0  0  0
   -2.0430   24.5180  -29.0660 C   0  0  0  0  0  0  0  0  0  0  0  0
   -1.4520   25.7550  -29.3060 O   0  0  0  0  0  0  0  0  0  0  0  0
   -1.4420   23.6060  -28.1680 C   0  0  0  0  0  0  0  0  0  0  0  0
    0.1270   24.0040  -27.4180 S   0  0  0  0  0  0  0  0  0  0  0  0
    0.7450   22.7520  -26.8630 O   0  0  0  0  0  0  0  0  0  0  0  0
    1.0750   24.5480  -28.4510 O   0  0  0  0  0  0  0  0  0  0  0  0
   -0.0160   25.2060  -26.0920 C   0  0  0  0  0  0  0  0  0  0  0  0
   -1.4480   25.6290  -25.8040 C   0  0  0  0  0  0  0  0  0  0  0  0
   -0.7060   24.7500  -24.8140 C   0  0  0  0  0  0  0  0  0  0  0  0
   -1.7641   21.7494  -25.8353 H   0  0  0  0  0  0  0  0  0  0  0  0
   -2.0608   20.4305  -27.0182 H   0  0  0  0  0  0  0  0  0  0  0  0
   -0.4891   21.3002  -27.0182 H   0  0  0  0  0  0  0  0  0  0  0  0
   -3.8849   21.1913  -28.2125 H   0  0  0  0  0  0  0  0  0  0  0  0
   -4.8952   22.7886  -29.8211 H   0  0  0  0  0  0  0  0  0  0  0  0
   -8.4884   24.3758  -31.3555 H   0  0  0  0  0  0  0  0  0  0  0  0
   -9.8620   22.2935  -31.2625 H   0  0  0  0  0  0  0  0  0  0  0  0
   -5.0112   22.0345  -32.4636 H   0  0  0  0  0  0  0  0  0  0  0  0
   -7.5005   18.5639  -33.7252 H   0  0  0  0  0  0  0  0  0  0  0  0
   -6.5240   17.6324  -32.5313 H   0  0  0  0  0  0  0  0  0  0  0  0
   -9.0272   17.7717  -32.0236 H   0  0  0  0  0  0  0  0  0  0  0  0
   -7.9336   18.3315  -30.7044 H   0  0  0  0  0  0  0  0  0  0  0  0
    0.9398   25.7080  -26.3030 H   0  0  0  0  0  0  0  0  0  0  0  0
   -1.6714   26.6757  -25.5498 H   0  0  0  0  0  0  0  0  0  0  0  0
   -2.4034   25.5557  -26.3442 H   0  0  0  0  0  0  0  0  0  0  0  0
   -0.3914   25.1598  -23.8429 H   0  0  0  0  0  0  0  0  0  0  0  0
   -0.9008   23.7766  -24.3402 H   0  0  0  0  0  0  0  0  0  0  0  0
  1  2  1  0
  2  3  2  0
  3  4  1  0
  4  5  2  0
  5  6  1  0
  6  7  1  0
  7  8  2  0
  7  9  1  0
  9 10  1  0
 10 11  2  0
 11 12  1  0
 12 13  2  0
 13 14  1  0
 14 15  2  0
 14 16  1  0
 16 17  1  0
 17 18  1  0
 18 19  1  0
  5 20  1  0
 20 21  1  0
 20 22  2  0
 22 23  1  0
 23 24  2  0
 23 25  2  0
 23 26  1  0
 26 27  1  0
 27 28  1  0
 22  2  1  0
 28 26  1  0
 15 10  1  0
 19 13  1  0
  1 29  1  0
  1 30  1  0
  1 31  1  0
  3 32  1  0
  4 33  1  0
 11 34  1  0
 12 35  1  0
 15 36  1  0
 17 37  1  0
 17 38  1  0
 18 39  1  0
 18 40  1  0
 26 41  1  0
 27 42  1  0
 27 43  1  0
 28 44  1  0
 28 45  1  0
M  CHG  3   6  -1   9  -1  21  -1
M  END
>  <UniqueID>  (36) 
35

>  <SMILES>  (36) 
Cc1ccc([N-]C(=O)[N-]c2ccc3c(c2)OCCO3)c([O-])c1S(=O)(=O)C1CC1

>  <Energy>  (36) 
323.87216145767655

>  <Genealogy>  (36) 
Cc1ccc([N-]C(=O)[N-]c2ccc3c(c2)OCCO3)c([O-])c1S(=O)(=O)C1CC1 (protonated)
Cc1ccc([N-]C(=O)[N-]c2ccc3c(c2)OCCO3)c([O-])c1S(=O)(=O)C1CC1 (3D coordinates assigned)
Cc1ccc([N-]C(=O)[N-]c2ccc3c(c2)OCCO3)c([O-])c1S(=O)(=O)C1CC1 (nonaromatic ring conformer: 323.87216145767655 kcal/mol)

>  <smiles>  (36) 
Cc1ccc(NC(=O)Nc2ccc3c(c2)OCCO3)c(O)c1S(=O)(=O)C1CC1

>  <score_type>  (36) 
oracle

>  <origin>  (36) 
adgpu

>  <m_score__min__energy>  (36) 
-15.01

>  <m_primary>  (36) 
energy

$$$$
36:0
     RDKit          3D

 55 57  0  0  0  0  0  0  0  0999 V2000
   -5.8580   25.3260  -29.6660 C   0  0  0  0  0  0  0  0  0  0  0  0
   -4.8950   24.2240  -29.9720 C   0  0  0  0  0  0  0  0  0  0  0  0
   -3.9750   23.8000  -29.0080 C   0  0  0  0  0  0  0  0  0  0  0  0
   -3.0660   22.7850  -29.3190 C   0  0  0  0  0  0  0  0  0  0  0  0
   -2.1110   22.4280  -28.3580 O   0  0  0  0  0  0  0  0  0  0  0  0
   -1.9000   21.1170  -27.9070 C   0  0  0  0  0  0  0  0  0  0  0  0
   -0.6850   20.4450  -28.1140 C   0  0  0  0  0  0  0  0  0  0  0  0
   -0.5430   19.1280  -27.6420 C   0  0  0  0  0  0  0  0  0  0  0  0
    0.6770   18.3750  -27.8390 N   0  0  0  0  0  0  0  0  0  0  0  0
    0.7550   16.9470  -27.5010 C   0  0  0  0  0  0  0  0  0  0  0  0
    1.8540   19.0560  -28.3920 C   0  0  0  0  0  0  0  0  0  0  0  0
   -1.5870   18.5560  -26.9790 N   0  0  0  0  0  0  0  0  0  0  0  0
   -2.7550   19.2190  -26.7810 C   0  0  0  0  0  0  0  0  0  0  0  0
   -3.8590   18.5720  -26.0120 C   0  0  0  0  0  0  0  0  0  0  0  0
   -2.9000   20.4910  -27.2330 N   0  0  0  0  0  0  0  0  0  0  0  0
   -3.1310   22.1490  -30.5780 C   0  0  0  0  0  0  0  0  0  0  0  0
   -2.2190   21.0040  -30.9290 C   0  0  0  0  0  0  0  0  0  0  0  0
   -4.0450   22.6340  -31.5300 C   0  0  0  0  0  0  0  0  0  0  0  0
   -4.0810   22.0740  -32.8130 O   0  0  0  0  0  0  0  0  0  0  0  0
   -4.6290   20.8130  -33.0810 C   0  0  0  0  0  0  0  0  0  0  0  0
   -5.9950   20.5930  -32.8210 C   0  0  0  0  0  0  0  0  0  0  0  0
   -6.8490   21.7040  -32.2770 C   0  0  0  0  0  0  0  0  0  0  0  0
   -6.5680   19.3480  -33.1210 C   0  0  0  0  0  0  0  0  0  0  0  0
   -5.7860   18.3200  -33.6570 C   0  0  0  0  0  0  0  0  0  0  0  0
   -6.3830   17.0480  -33.9680 C   0  0  0  0  0  0  0  0  0  0  0  0
   -6.8640   16.0240  -34.2160 N   0  0  0  0  0  0  0  0  0  0  0  0
   -4.4220   18.5270  -33.8870 C   0  0  0  0  0  0  0  0  0  0  0  0
   -3.8280   19.7630  -33.5840 C   0  0  0  0  0  0  0  0  0  0  0  0
   -2.3530   19.9460  -33.8190 C   0  0  0  0  0  0  0  0  0  0  0  0
   -4.8980   23.6430  -31.2000 N   0  0  0  0  0  0  0  0  0  0  0  0
   -5.9545   25.4364  -28.5758 H   0  0  0  0  0  0  0  0  0  0  0  0
   -5.4877   26.2672  -30.0985 H   0  0  0  0  0  0  0  0  0  0  0  0
   -6.8403   25.0852  -30.0985 H   0  0  0  0  0  0  0  0  0  0  0  0
   -3.9668   24.2629  -28.0102 H   0  0  0  0  0  0  0  0  0  0  0  0
    0.1446   20.9418  -28.6383 H   0  0  0  0  0  0  0  0  0  0  0  0
    0.7615   16.8289  -26.4074 H   0  0  0  0  0  0  0  0  0  0  0  0
   -0.1158   16.4226  -27.9213 H   0  0  0  0  0  0  0  0  0  0  0  0
    1.6778   16.5206  -27.9213 H   0  0  0  0  0  0  0  0  0  0  0  0
    2.4862   19.4218  -27.5694 H   0  0  0  0  0  0  0  0  0  0  0  0
    2.4287   18.3509  -29.0105 H   0  0  0  0  0  0  0  0  0  0  0  0
    1.5291   19.9057  -29.0105 H   0  0  0  0  0  0  0  0  0  0  0  0
   -3.6693   18.6832  -24.9342 H   0  0  0  0  0  0  0  0  0  0  0  0
   -4.8147   19.0529  -26.2676 H   0  0  0  0  0  0  0  0  0  0  0  0
   -3.9065   17.5032  -26.2676 H   0  0  0  0  0  0  0  0  0  0  0  0
   -1.8462   20.5359  -30.0060 H   0  0  0  0  0  0  0  0  0  0  0  0
   -2.7747   20.2601  -31.5188 H   0  0  0  0  0  0  0  0  0  0  0  0
   -1.3697   21.3792  -31.5188 H   0  0  0  0  0  0  0  0  0  0  0  0
   -6.8286   21.6774  -31.1775 H   0  0  0  0  0  0  0  0  0  0  0  0
   -6.4596   22.6711  -32.6277 H   0  0  0  0  0  0  0  0  0  0  0  0
   -7.8838   21.5764  -32.6277 H   0  0  0  0  0  0  0  0  0  0  0  0
   -7.6387   19.1795  -32.9335 H   0  0  0  0  0  0  0  0  0  0  0  0
   -3.8101   17.7158  -34.3083 H   0  0  0  0  0  0  0  0  0  0  0  0
   -1.8329   20.0105  -32.8519 H   0  0  0  0  0  0  0  0  0  0  0  0
   -1.9634   19.0893  -34.3884 H   0  0  0  0  0  0  0  0  0  0  0  0
   -2.1845   20.8719  -34.3884 H   0  0  0  0  0  0  0  0  0  0  0  0
  1  2  1  0
  2  3  2  0
  3  4  1  0
  4  5  1  0
  5  6  1  0
  6  7  2  0
  7  8  1  0
  8  9  1  0
  9 10  1  0
  9 11  1  0
  8 12  2  0
 12 13  1  0
 13 14  1  0
 13 15  2  0
  4 16  2  0
 16 17  1  0
 16 18  1  0
 18 19  1  0
 19 20  1  0
 20 21  2  0
 21 22  1  0
 21 23  1  0
 23 24  2  0
 24 25  1  0
 25 26  3  0
 24 27  1  0
 27 28  2  0
 28 29  1  0
 18 30  2  0
 30  2  1  0
 15  6  1  0
 28 20  1  0
  1 31  1  0
  1 32  1  0
  1 33  1  0
  3 34  1  0
  7 35  1  0
 10 36  1  0
 10 37  1  0
 10 38  1  0
 11 39  1  0
 11 40  1  0
 11 41  1  0
 14 42  1  0
 14 43  1  0
 14 44  1  0
 17 45  1  0
 17 46  1  0
 17 47  1  0
 22 48  1  0
 22 49  1  0
 22 50  1  0
 23 51  1  0
 27 52  1  0
 29 53  1  0
 29 54  1  0
 29 55  1  0
M  END
>  <UniqueID>  (37) 
36

>  <SMILES>  (37) 
Cc1cc(Oc2cc(N(C)C)nc(C)n2)c(C)c(Oc2c(C)cc(C#N)cc2C)n1

>  <Energy>  (37) 
67.18069465583878

>  <Genealogy>  (37) 
Cc1cc(Oc2cc(N(C)C)nc(C)n2)c(C)c(Oc2c(C)cc(C#N)cc2C)n1 (3D coordinates assigned)
Cc1cc(Oc2cc(N(C)C)nc(C)n2)c(C)c(Oc2c(C)cc(C#N)cc2C)n1 (optimized conformer: 67.18069465583878 kcal/mol)

>  <smiles>  (37) 
Cc1cc(Oc2cc(N(C)C)nc(C)n2)c(C)c(Oc2c(C)cc(C#N)cc2C)n1

>  <score_type>  (37) 
oracle

>  <origin>  (37) 
adgpu

>  <m_score__min__energy>  (37) 
-9.4900000000000002

>  <m_primary>  (37) 
energy

$$$$
37:0
     RDKit          3D

 58 61  0  0  0  0  0  0  0  0999 V2000
   -6.2540   25.7490  -29.6560 O   0  0  0  0  0  0  0  0  0  0  0  0
   -5.1500   24.8010  -30.0240 S   0  0  0  0  0  0  0  0  0  0  0  0
   -4.3430   25.3970  -31.1420 O   0  0  0  0  0  0  0  0  0  0  0  0
   -4.1230   24.5450  -28.6490 N   0  0  0  0  0  0  0  0  0  0  0  0
   -3.2310   23.4200  -28.5330 C   0  0  0  0  0  0  0  0  0  0  0  0
   -1.9580   23.4860  -29.1180 C   0  0  0  0  0  0  0  0  0  0  0  0
   -1.0700   22.4080  -29.0110 C   0  0  0  0  0  0  0  0  0  0  0  0
   -1.4480   21.2500  -28.3180 C   0  0  0  0  0  0  0  0  0  0  0  0
   -0.3640   19.8670  -28.2090 S   0  0  0  0  0  0  0  0  0  0  0  0
    1.0540   20.3290  -27.9850 O   0  0  0  0  0  0  0  0  0  0  0  0
   -0.7860   19.0230  -27.0350 O   0  0  0  0  0  0  0  0  0  0  0  0
   -0.4780   18.9260  -29.6820 N   0  0  0  0  0  0  0  0  0  0  0  0
   -1.0710   19.7170  -30.7640 C   0  0  0  0  0  0  0  0  0  0  0  0
    0.0600   20.3520  -31.5610 C   0  0  0  0  0  0  0  0  0  0  0  0
    1.3130   19.5900  -31.1680 C   0  0  0  0  0  0  0  0  0  0  0  0
    0.8560   18.5450  -30.1600 C   0  0  0  0  0  0  0  0  0  0  0  0
   -2.7240   21.1710  -27.7480 C   0  0  0  0  0  0  0  0  0  0  0  0
   -3.6130   22.2440  -27.8610 C   0  0  0  0  0  0  0  0  0  0  0  0
   -5.8620   23.2640  -30.5020 C   0  0  0  0  0  0  0  0  0  0  0  0
   -5.0770   22.3270  -31.1860 C   0  0  0  0  0  0  0  0  0  0  0  0
   -5.6580   21.1650  -31.6990 C   0  0  0  0  0  0  0  0  0  0  0  0
   -7.0310   20.9360  -31.5420 C   0  0  0  0  0  0  0  0  0  0  0  0
   -7.7860   19.5470  -32.3220 S   0  0  0  0  0  0  0  0  0  0  0  0
   -8.6420   18.8270  -31.3160 O   0  0  0  0  0  0  0  0  0  0  0  0
   -8.6750   20.0220  -33.4410 O   0  0  0  0  0  0  0  0  0  0  0  0
   -6.5880   18.4390  -32.9550 N   0  0  0  0  0  0  0  0  0  0  0  0
   -7.1660   17.0890  -33.1170 C   0  0  0  0  0  0  0  0  0  0  0  0
   -6.2320   16.1870  -33.9530 C   0  0  0  0  0  0  0  0  0  0  0  0
   -4.9330   16.7430  -34.0340 O   0  0  0  0  0  0  0  0  0  0  0  0
   -4.9710   17.9640  -34.7610 C   0  0  0  0  0  0  0  0  0  0  0  0
   -6.0630   18.9260  -34.2420 C   0  0  0  0  0  0  0  0  0  0  0  0
   -7.8080   21.8510  -30.8130 C   0  0  0  0  0  0  0  0  0  0  0  0
   -7.2250   23.0090  -30.2930 C   0  0  0  0  0  0  0  0  0  0  0  0
   -4.2830   25.1550  -27.8170 H   0  0  0  0  0  0  0  0  0  0  0  0
   -1.6547   24.3910  -29.6649 H   0  0  0  0  0  0  0  0  0  0  0  0
   -0.0733   22.4705  -29.4721 H   0  0  0  0  0  0  0  0  0  0  0  0
   -1.6678   19.0648  -31.4186 H   0  0  0  0  0  0  0  0  0  0  0  0
   -1.7291   20.4953  -30.3503 H   0  0  0  0  0  0  0  0  0  0  0  0
   -0.1275   20.2523  -32.6403 H   0  0  0  0  0  0  0  0  0  0  0  0
    0.1539   21.4273  -31.3492 H   0  0  0  0  0  0  0  0  0  0  0  0
    1.7597   19.1049  -32.0485 H   0  0  0  0  0  0  0  0  0  0  0  0
    2.0793   20.2563  -30.7451 H   0  0  0  0  0  0  0  0  0  0  0  0
    0.8115   17.5569  -30.6414 H   0  0  0  0  0  0  0  0  0  0  0  0
    1.5621   18.4929  -29.3182 H   0  0  0  0  0  0  0  0  0  0  0  0
   -3.0283   20.2615  -27.2093 H   0  0  0  0  0  0  0  0  0  0  0  0
   -4.6185   22.1685  -27.4214 H   0  0  0  0  0  0  0  0  0  0  0  0
   -4.0000   22.5068  -31.3195 H   0  0  0  0  0  0  0  0  0  0  0  0
   -5.0358   20.4278  -32.2276 H   0  0  0  0  0  0  0  0  0  0  0  0
   -7.3096   16.6371  -32.1244 H   0  0  0  0  0  0  0  0  0  0  0  0
   -8.1291   17.1793  -33.6407 H   0  0  0  0  0  0  0  0  0  0  0  0
   -6.1707   15.1957  -33.4803 H   0  0  0  0  0  0  0  0  0  0  0  0
   -6.6424   16.1027  -34.9701 H   0  0  0  0  0  0  0  0  0  0  0  0
   -3.9928   18.4590  -34.6712 H   0  0  0  0  0  0  0  0  0  0  0  0
   -5.2069   17.7232  -35.8081 H   0  0  0  0  0  0  0  0  0  0  0  0
   -5.6310   19.9282  -34.1042 H   0  0  0  0  0  0  0  0  0  0  0  0
   -6.8829   18.9726  -34.9738 H   0  0  0  0  0  0  0  0  0  0  0  0
   -8.8783   21.6553  -30.6511 H   0  0  0  0  0  0  0  0  0  0  0  0
   -7.8356   23.7215  -29.7190 H   0  0  0  0  0  0  0  0  0  0  0  0
  1  2  2  0
  2  3  2  0
  2  4  1  0
  4  5  1  0
  5  6  2  0
  6  7  1  0
  7  8  2  0
  8  9  1  0
  9 10  2  0
  9 11  2  0
  9 12  1  0
 12 13  1  0
 13 14  1  0
 14 15  1  0
 15 16  1  0
  8 17  1  0
 17 18  2  0
  2 19  1  0
 19 20  2  0
 20 21  1  0
 21 22  2  0
 22 23  1  0
 23 24  2  0
 23 25  2  0
 23 26  1  0
 26 27  1  0
 27 28  1  0
 28 29  1  0
 29 30  1  0
 30 31  1  0
 22 32  1  0
 32 33  2  0
 18  5  1  0
 33 19  1  0
 16 12  1  0
 31 26  1  0
  4 34  1  0
  6 35  1  0
  7 36  1  0
 13 37  1  0
 13 38  1  0
 14 39  1  0
 14 40  1  0
 15 41  1  0
 15 42  1  0
 16 43  1  0
 16 44  1  0
 17 45  1  0
 18 46  1  0
 20 47  1  0
 21 48  1  0
 27 49  1  0
 27 50  1  0
 28 51  1  0
 28 52  1  0
 30 53  1  0
 30 54  1  0
 31 55  1  0
 31 56  1  0
 32 57  1  0
 33 58  1  0
M  END
>  <UniqueID>  (38) 
37

>  <SMILES>  (38) 
O=S(=O)(Nc1ccc(S(=O)(=O)N2CCCC2)cc1)c1ccc(S(=O)(=O)N2CCOCC2)cc1

>  <Energy>  (38) 
69.33637279924318

>  <Genealogy>  (38) 
O=S(=O)(Nc1ccc(S(=O)(=O)N2CCCC2)cc1)c1ccc(S(=O)(=O)N2CCOCC2)cc1 (3D coordinates assigned)
O=S(=O)(Nc1ccc(S(=O)(=O)N2CCCC2)cc1)c1ccc(S(=O)(=O)N2CCOCC2)cc1 (nonaromatic ring conformer: 69.33637279924318 kcal/mol)

>  <smiles>  (38) 
O=S(=O)(Nc1ccc(S(=O)(=O)N2CCCC2)cc1)c1ccc(S(=O)(=O)N2CCOCC2)cc1

>  <score_type>  (38) 
oracle

>  <origin>  (38) 
adgpu

>  <m_score__min__energy>  (38) 
-11.35

>  <m_primary>  (38) 
energy

$$$$
38:0
     RDKit          3D

 58 61  0  0  0  0  0  0  0  0999 V2000
   -1.4840   20.2290  -27.7520 C   0  0  0  0  0  0  0  0  0  0  0  0
   -1.6130   21.6440  -28.2310 C   0  0  0  0  0  0  0  0  0  0  0  0
   -0.4650   22.3830  -28.5410 C   0  0  0  0  0  0  0  0  0  0  0  0
   -0.5720   23.7250  -28.9140 C   0  0  0  0  0  0  0  0  0  0  0  0
   -1.8300   24.3380  -28.9730 C   0  0  0  0  0  0  0  0  0  0  0  0
   -1.9250   25.6720  -29.3430 O   0  0  0  0  0  0  0  0  0  0  0  0
   -2.9870   23.6100  -28.6700 C   0  0  0  0  0  0  0  0  0  0  0  0
   -4.2630   24.2630  -28.7030 N   0  0  0  0  0  0  0  0  0  0  0  0
   -5.0240   24.8160  -30.1590 S   0  0  0  0  0  0  0  0  0  0  0  0
   -5.9990   25.9040  -29.8100 O   0  0  0  0  0  0  0  0  0  0  0  0
   -3.9750   25.3940  -31.0660 O   0  0  0  0  0  0  0  0  0  0  0  0
   -5.8960   23.5220  -30.9740 C   0  0  0  0  0  0  0  0  0  0  0  0
   -7.2730   23.6360  -31.2180 C   0  0  0  0  0  0  0  0  0  0  0  0
   -7.9550   22.6150  -31.8820 C   0  0  0  0  0  0  0  0  0  0  0  0
   -7.2710   21.4650  -32.3040 C   0  0  0  0  0  0  0  0  0  0  0  0
   -7.9510   20.4730  -33.0090 O   0  0  0  0  0  0  0  0  0  0  0  0
   -5.8940   21.3290  -32.0330 C   0  0  0  0  0  0  0  0  0  0  0  0
   -5.1620   20.1670  -32.4560 N   0  0  0  0  0  0  0  0  0  0  0  0
   -3.7390   20.1420  -32.6590 C   0  0  0  0  0  0  0  0  0  0  0  0
   -2.8890   20.5680  -31.6260 C   0  0  0  0  0  0  0  0  0  0  0  0
   -1.5030   20.5320  -31.7920 C   0  0  0  0  0  0  0  0  0  0  0  0
   -0.9450   20.0540  -32.9880 C   0  0  0  0  0  0  0  0  0  0  0  0
    0.8020   20.0190  -33.2110 S   0  0  0  0  0  0  0  0  0  0  0  0
    1.1590   18.7520  -33.9380 O   0  0  0  0  0  0  0  0  0  0  0  0
    1.4800   19.9970  -31.8700 O   0  0  0  0  0  0  0  0  0  0  0  0
    1.3470   21.3920  -34.1550 N   0  0  0  0  0  0  0  0  0  0  0  0
    2.5470   21.0800  -34.9510 C   0  0  0  0  0  0  0  0  0  0  0  0
    2.2270   20.1680  -36.1610 C   0  0  0  0  0  0  0  0  0  0  0  0
    0.8520   20.1340  -36.4960 O   0  0  0  0  0  0  0  0  0  0  0  0
    0.3040   21.4330  -36.4450 C   0  0  0  0  0  0  0  0  0  0  0  0
    0.2560   21.9420  -34.9920 C   0  0  0  0  0  0  0  0  0  0  0  0
   -1.7880   19.6150  -34.0180 C   0  0  0  0  0  0  0  0  0  0  0  0
   -3.1760   19.6500  -33.8530 C   0  0  0  0  0  0  0  0  0  0  0  0
   -5.2110   22.3720  -31.3910 C   0  0  0  0  0  0  0  0  0  0  0  0
   -2.8710   22.2650  -28.2810 C   0  0  0  0  0  0  0  0  0  0  0  0
   -1.4825   20.2129  -26.6521 H   0  0  0  0  0  0  0  0  0  0  0  0
   -2.3319   19.6365  -28.1262 H   0  0  0  0  0  0  0  0  0  0  0  0
   -0.5430   19.7996  -28.1262 H   0  0  0  0  0  0  0  0  0  0  0  0
    0.5246   21.9053  -28.4907 H   0  0  0  0  0  0  0  0  0  0  0  0
    0.3321   24.3006  -29.1615 H   0  0  0  0  0  0  0  0  0  0  0  0
   -7.8166   24.5325  -30.8851 H   0  0  0  0  0  0  0  0  0  0  0  0
   -9.0335   22.7125  -32.0753 H   0  0  0  0  0  0  0  0  0  0  0  0
   -7.7860   20.3170  -33.9990 H   0  0  0  0  0  0  0  0  0  0  0  0
   -5.7100   19.3080  -32.6890 H   0  0  0  0  0  0  0  0  0  0  0  0
   -3.3173   20.9322  -30.6805 H   0  0  0  0  0  0  0  0  0  0  0  0
   -0.8454   20.8799  -30.9817 H   0  0  0  0  0  0  0  0  0  0  0  0
    2.9805   22.0206  -35.3215 H   0  0  0  0  0  0  0  0  0  0  0  0
    3.2525   20.5422  -34.3007 H   0  0  0  0  0  0  0  0  0  0  0  0
    2.7884   20.5363  -37.0323 H   0  0  0  0  0  0  0  0  0  0  0  0
    2.5163   19.1447  -35.8796 H   0  0  0  0  0  0  0  0  0  0  0  0
    0.9264   22.1122  -37.0461 H   0  0  0  0  0  0  0  0  0  0  0  0
   -0.7202   21.4029  -36.8452 H   0  0  0  0  0  0  0  0  0  0  0  0
    0.3387   23.0389  -35.0009 H   0  0  0  0  0  0  0  0  0  0  0  0
   -0.6969   21.6082  -34.5554 H   0  0  0  0  0  0  0  0  0  0  0  0
   -1.3566   19.2420  -34.9586 H   0  0  0  0  0  0  0  0  0  0  0  0
   -3.8320   19.2914  -34.6599 H   0  0  0  0  0  0  0  0  0  0  0  0
   -4.1288   22.2872  -31.2131 H   0  0  0  0  0  0  0  0  0  0  0  0
   -3.7726   21.6943  -28.0136 H   0  0  0  0  0  0  0  0  0  0  0  0
  1  2  1  0
  2  3  2  0
  3  4  1  0
  4  5  2  0
  5  6  1  0
  5  7  1  0
  7  8  1  0
  8  9  1  0
  9 10  2  0
  9 11  2  0
  9 12  1  0
 12 13  2  0
 13 14  1  0
 14 15  2  0
 15 16  1  0
 15 17  1  0
 17 18  1  0
 18 19  1  0
 19 20  2  0
 20 21  1  0
 21 22  2  0
 22 23  1  0
 23 24  2  0
 23 25  2  0
 23 26  1  0
 26 27  1  0
 27 28  1  0
 28 29  1  0
 29 30  1  0
 30 31  1  0
 22 32  1  0
 32 33  2  0
 17 34  2  0
  7 35  2  0
 35  2  1  0
 34 12  1  0
 33 19  1  0
 31 26  1  0
  1 36  1  0
  1 37  1  0
  1 38  1  0
  3 39  1  0
  4 40  1  0
 13 41  1  0
 14 42  1  0
 16 43  1  0
 18 44  1  0
 20 45  1  0
 21 46  1  0
 27 47  1  0
 27 48  1  0
 28 49  1  0
 28 50  1  0
 30 51  1  0
 30 52  1  0
 31 53  1  0
 31 54  1  0
 32 55  1  0
 33 56  1  0
 34 57  1  0
 35 58  1  0
M  CHG  2   6  -1   8  -1
M  END
>  <UniqueID>  (39) 
38

>  <SMILES>  (39) 
Cc1ccc([O-])c([N-]S(=O)(=O)c2ccc(O)c(Nc3ccc(S(=O)(=O)N4CCOCC4)cc3)c2)c1

>  <Energy>  (39) 
85.31765604746285

>  <Genealogy>  (39) 
Cc1ccc([O-])c([N-]S(=O)(=O)c2ccc(O)c(Nc3ccc(S(=O)(=O)N4CCOCC4)cc3)c2)c1 (protonated)
Cc1ccc([O-])c([N-]S(=O)(=O)c2ccc(O)c(Nc3ccc(S(=O)(=O)N4CCOCC4)cc3)c2)c1 (3D coordinates assigned)
Cc1ccc([O-])c([N-]S(=O)(=O)c2ccc(O)c(Nc3ccc(S(=O)(=O)N4CCOCC4)cc3)c2)c1 (nonaromatic ring conformer: 85.31765604746285 kcal/mol)

>  <smiles>  (39) 
Cc1ccc(O)c(NS(=O)(=O)c2ccc(O)c(Nc3ccc(S(=O)(=O)N4CCOCC4)cc3)c2)c1

>  <score_type>  (39) 
oracle

>  <origin>  (39) 
adgpu

>  <m_score__min__energy>  (39) 
-14.32

>  <m_primary>  (39) 
energy

$$$$
39:0
     RDKit          3D

 73 77  0  0  0  0  0  0  0  0999 V2000
   -3.3350   25.4096  -26.0723 H   0  0  0  0  0  0  0  0  0  0  0  0
   -2.2800   25.4830  -26.3750 C   0  0  0  0  0  0  0  0  0  0  0  0
   -1.5080   26.5680  -25.9560 C   0  0  0  0  0  0  0  0  0  0  0  0
   -1.9588   27.3533  -25.3315 H   0  0  0  0  0  0  0  0  0  0  0  0
   -0.1670   26.6590  -26.3270 C   0  0  0  0  0  0  0  0  0  0  0  0
    0.4384   27.5118  -25.9862 H   0  0  0  0  0  0  0  0  0  0  0  0
    0.4170   25.6630  -27.1370 C   0  0  0  0  0  0  0  0  0  0  0  0
    1.7660   25.7000  -27.5300 O   0  0  0  0  0  0  0  0  0  0  0  0
    2.8860   25.4080  -26.6940 C   0  0  0  0  0  0  0  0  0  0  0  0
    3.3585   26.3507  -26.3809 H   0  0  0  0  0  0  0  0  0  0  0  0
    3.6004   24.7934  -27.2613 H   0  0  0  0  0  0  0  0  0  0  0  0
    2.4460   24.6320  -25.4550 C   0  0  0  0  0  0  0  0  0  0  0  0
    2.7555   25.1778  -24.5515 H   0  0  0  0  0  0  0  0  0  0  0  0
    1.3515   24.5226  -25.4604 H   0  0  0  0  0  0  0  0  0  0  0  0
    2.9141   23.6366  -25.4604 H   0  0  0  0  0  0  0  0  0  0  0  0
   -0.3710   24.5870  -27.5780 C   0  0  0  0  0  0  0  0  0  0  0  0
    0.2300   23.5730  -28.3940 N   0  0  0  0  0  0  0  0  0  0  0  0
    0.6160   22.2600  -27.9670 C   0  0  0  0  0  0  0  0  0  0  0  0
    1.4310   22.1600  -27.0120 O   0  0  0  0  0  0  0  0  0  0  0  0
    0.1500   21.0440  -28.6770 C   0  0  0  0  0  0  0  0  0  0  0  0
    1.1430   20.0370  -29.6010 S   0  0  0  0  0  0  0  0  0  0  0  0
   -0.0780   18.9390  -29.9370 C   0  0  0  0  0  0  0  0  0  0  0  0
    0.1210   17.7180  -30.6620 N   0  0  0  0  0  0  0  0  0  0  0  0
   -0.4780   17.3410  -31.7590 C   0  0  0  0  0  0  0  0  0  0  0  0
   -0.2510   16.0420  -32.2260 C   0  0  0  0  0  0  0  0  0  0  0  0
    0.4335   15.3723  -31.6846 H   0  0  0  0  0  0  0  0  0  0  0  0
   -0.8950   15.6000  -33.3790 C   0  0  0  0  0  0  0  0  0  0  0  0
   -0.7322   14.5742  -33.7413 H   0  0  0  0  0  0  0  0  0  0  0  0
   -1.7450   16.4570  -34.0730 C   0  0  0  0  0  0  0  0  0  0  0  0
   -2.2728   16.1067  -34.9723 H   0  0  0  0  0  0  0  0  0  0  0  0
   -1.9230   17.7750  -33.6140 C   0  0  0  0  0  0  0  0  0  0  0  0
   -2.7400   18.6940  -34.2910 O   0  0  0  0  0  0  0  0  0  0  0  0
   -3.8150   19.3690  -33.7020 C   0  0  0  0  0  0  0  0  0  0  0  0
   -5.1150   18.8260  -33.7510 C   0  0  0  0  0  0  0  0  0  0  0  0
   -5.3850   17.5490  -34.5040 C   0  0  0  0  0  0  0  0  0  0  0  0
   -5.5579   16.7312  -33.7889 H   0  0  0  0  0  0  0  0  0  0  0  0
   -6.2758   17.6776  -35.1364 H   0  0  0  0  0  0  0  0  0  0  0  0
   -4.5184   17.3060  -35.1364 H   0  0  0  0  0  0  0  0  0  0  0  0
   -6.1710   19.5030  -33.1220 C   0  0  0  0  0  0  0  0  0  0  0  0
   -7.1883   19.0863  -33.1618 H   0  0  0  0  0  0  0  0  0  0  0  0
   -5.9380   20.7040  -32.4450 C   0  0  0  0  0  0  0  0  0  0  0  0
   -7.0220   21.3870  -31.7880 C   0  0  0  0  0  0  0  0  0  0  0  0
   -7.8880   21.9440  -31.2600 N   0  0  0  0  0  0  0  0  0  0  0  0
   -4.6540   21.2570  -32.4230 C   0  0  0  0  0  0  0  0  0  0  0  0
   -4.4764   22.2072  -31.8981 H   0  0  0  0  0  0  0  0  0  0  0  0
   -3.5910   20.6060  -33.0670 C   0  0  0  0  0  0  0  0  0  0  0  0
   -2.2090   21.1930  -33.0080 C   0  0  0  0  0  0  0  0  0  0  0  0
   -1.9093   21.3203  -31.9573 H   0  0  0  0  0  0  0  0  0  0  0  0
   -1.5019   20.5175  -33.5117 H   0  0  0  0  0  0  0  0  0  0  0  0
   -2.2042   22.1709  -33.5117 H   0  0  0  0  0  0  0  0  0  0  0  0
   -1.2890   18.1800  -32.4790 N   0  0  0  0  0  0  0  0  0  0  0  0
   -1.4100   19.1790  -32.2070 H   0  0  0  0  0  0  0  0  0  0  0  0
   -1.2260   19.2710  -29.3110 N   0  0  0  0  0  0  0  0  0  0  0  0
   -1.1200   20.4390  -28.6210 C   0  0  0  0  0  0  0  0  0  0  0  0
   -2.5150   21.0570  -27.7390 S   0  0  0  0  0  0  0  0  0  0  0  0
   -3.4250   19.9230  -27.3610 O   0  0  0  0  0  0  0  0  0  0  0  0
   -2.0040   21.6970  -26.4800 O   0  0  0  0  0  0  0  0  0  0  0  0
   -3.3980   22.2720  -28.6680 C   0  0  0  0  0  0  0  0  0  0  0  0
   -2.8310   22.7870  -29.8430 C   0  0  0  0  0  0  0  0  0  0  0  0
   -1.8570   22.4127  -30.1912 H   0  0  0  0  0  0  0  0  0  0  0  0
   -3.4990   23.7740  -30.5730 C   0  0  0  0  0  0  0  0  0  0  0  0
   -3.0499   24.1708  -31.4954 H   0  0  0  0  0  0  0  0  0  0  0  0
   -4.7420   24.2620  -30.1340 C   0  0  0  0  0  0  0  0  0  0  0  0
   -5.4070   25.3780  -30.8790 C   0  0  0  0  0  0  0  0  0  0  0  0
   -5.8339   26.0944  -30.1617 H   0  0  0  0  0  0  0  0  0  0  0  0
   -4.6662   25.8894  -31.5112 H   0  0  0  0  0  0  0  0  0  0  0  0
   -6.2093   24.9699  -31.5112 H   0  0  0  0  0  0  0  0  0  0  0  0
   -5.3110   23.7450  -28.9600 C   0  0  0  0  0  0  0  0  0  0  0  0
   -6.2798   24.1273  -28.6060 H   0  0  0  0  0  0  0  0  0  0  0  0
   -4.6510   22.7460  -28.2390 C   0  0  0  0  0  0  0  0  0  0  0  0
   -5.1133   22.3287  -27.3323 H   0  0  0  0  0  0  0  0  0  0  0  0
   -1.7140   24.4910  -27.1780 C   0  0  0  0  0  0  0  0  0  0  0  0
   -2.3216   23.6318  -27.4983 H   0  0  0  0  0  0  0  0  0  0  0  0
  1  2  1  0
  2  3  2  0
  3  4  1  0
  3  5  1  0
  5  6  1  0
  5  7  2  0
  7  8  1  0
  8  9  1  0
  9 10  1  0
  9 11  1  0
  9 12  1  0
 12 13  1  0
 12 14  1  0
 12 15  1  0
  7 16  1  0
 16 17  1  0
 17 18  1  0
 18 19  2  0
 18 20  1  0
 20 21  1  0
 21 22  1  0
 22 23  1  0
 23 24  2  0
 24 25  1  0
 25 26  1  0
 25 27  2  0
 27 28  1  0
 27 29  1  0
 29 30  1  0
 29 31  2  0
 31 32  1  0
 32 33  1  0
 33 34  2  0
 34 35  1  0
 35 36  1  0
 35 37  1  0
 35 38  1  0
 34 39  1  0
 39 40  1  0
 39 41  2  0
 41 42  1  0
 42 43  3  0
 41 44  1  0
 44 45  1  0
 44 46  2  0
 46 47  1  0
 47 48  1  0
 47 49  1  0
 47 50  1  0
 31 51  1  0
 51 52  1  0
 22 53  2  0
 53 54  1  0
 54 55  1  0
 55 56  2  0
 55 57  2  0
 55 58  1  0
 58 59  2  0
 59 60  1  0
 59 61  1  0
 61 62  1  0
 61 63  2  0
 63 64  1  0
 64 65  1  0
 64 66  1  0
 64 67  1  0
 63 68  1  0
 68 69  1  0
 68 70  2  0
 70 71  1  0
 16 72  2  0
 72 73  1  0
 72  2  1  0
 54 20  2  0
 70 58  1  0
 51 24  1  0
 46 33  1  0
M  CHG  1  17  -1
M  END
>  <UniqueID>  (40) 
39

>  <SMILES>  (40) 
CCOc1ccccc1[N-]C(=O)c1sc(/N=c2/cccc(Oc3c(C)cc(C#N)cc3C)[nH]2)nc1S(=O)(=O)c1ccc(C)cc1

>  <Energy>  (40) 
131.04907683233958

>  <Genealogy>  (40) 
CCOc1ccccc1[N-]C(=O)c1sc(N=c2cccc(Oc3c(C)cc(C#N)cc3C)[nH]2)nc1S(=O)(=O)c1ccc(C)cc1 (protonated)
CCOc1ccccc1[N-]C(=O)c1sc(/N=c2/cccc(Oc3c(C)cc(C#N)cc3C)[nH]2)nc1S(=O)(=O)c1ccc(C)cc1 (cis-trans isomerization)
CCOc1ccccc1[N-]C(=O)c1sc(/N=c2/cccc(Oc3c(C)cc(C#N)cc3C)[nH]2)nc1S(=O)(=O)c1ccc(C)cc1 (3D coordinates assigned)
CCOc1ccccc1[N-]C(=O)c1sc(/N=c2/cccc(Oc3c(C)cc(C#N)cc3C)[nH]2)nc1S(=O)(=O)c1ccc(C)cc1 (optimized conformer: 131.04907683233958 kcal/mol)

>  <smiles>  (40) 
CCOc1ccccc1NC(=O)c1sc(N=c2cccc(Oc3c(C)cc(C#N)cc3C)[nH]2)nc1S(=O)(=O)c1ccc(C)cc1

>  <score_type>  (40) 
oracle

>  <origin>  (40) 
adgpu

>  <m_score__min__energy>  (40) 
-11.07

>  <m_primary>  (40) 
energy

$$$$
40:0
     RDKit          3D

 41 43  0  0  0  0  0  0  0  0999 V2000
   -7.4357   12.3416  -34.7093 H   0  0  0  0  0  0  0  0  0  0  0  0
   -6.6050   12.9910  -34.3960 C   0  0  0  0  0  0  0  0  0  0  0  0
   -5.3570   12.4370  -34.1110 C   0  0  0  0  0  0  0  0  0  0  0  0
   -5.2001   11.3532  -34.2146 H   0  0  0  0  0  0  0  0  0  0  0  0
   -4.3060   13.2580  -33.6940 C   0  0  0  0  0  0  0  0  0  0  0  0
   -3.3249   12.8144  -33.4690 H   0  0  0  0  0  0  0  0  0  0  0  0
   -4.4900   14.6460  -33.5590 C   0  0  0  0  0  0  0  0  0  0  0  0
   -3.3390   15.4830  -33.0650 C   0  0  0  0  0  0  0  0  0  0  0  0
   -3.3339   15.4867  -31.9650 H   0  0  0  0  0  0  0  0  0  0  0  0
   -2.3931   15.0603  -33.4346 H   0  0  0  0  0  0  0  0  0  0  0  0
   -3.4495   16.5131  -33.4346 H   0  0  0  0  0  0  0  0  0  0  0  0
   -5.7470   15.2120  -33.8900 C   0  0  0  0  0  0  0  0  0  0  0  0
   -6.0030   16.6640  -33.8150 C   0  0  0  0  0  0  0  0  0  0  0  0
   -6.0760   17.3280  -34.8840 O   0  0  0  0  0  0  0  0  0  0  0  0
   -6.1620   17.3100  -32.5400 N   0  0  0  0  0  0  0  0  0  0  0  0
   -6.1890   16.7130  -31.6830 H   0  0  0  0  0  0  0  0  0  0  0  0
   -6.3420   18.7260  -32.3680 C   0  0  0  0  0  0  0  0  0  0  0  0
   -7.6010   19.2150  -31.9910 C   0  0  0  0  0  0  0  0  0  0  0  0
   -8.4421   18.5175  -31.8642 H   0  0  0  0  0  0  0  0  0  0  0  0
   -7.7950   20.5830  -31.7750 C   0  0  0  0  0  0  0  0  0  0  0  0
   -8.7905   20.9578  -31.4949 H   0  0  0  0  0  0  0  0  0  0  0  0
   -6.7270   21.4770  -31.9140 C   0  0  0  0  0  0  0  0  0  0  0  0
   -6.9710   23.1920  -31.5970 S   0  0  0  0  0  0  0  0  0  0  0  0
   -7.8760   23.7990  -32.6330 O   0  0  0  0  0  0  0  0  0  0  0  0
   -7.6000   23.3510  -30.2420 O   0  0  0  0  0  0  0  0  0  0  0  0
   -5.4510   24.0280  -31.6180 N   0  0  0  0  0  0  0  0  0  0  0  0
   -4.6790   24.1760  -30.5850 C   0  0  0  0  0  0  0  0  0  0  0  0
   -3.5080   24.8440  -30.6490 N   0  0  0  0  0  0  0  0  0  0  0  0
   -2.8740   24.8990  -29.4780 N   0  0  0  0  0  0  0  0  0  0  0  0
   -3.5410   24.2810  -28.4780 C   0  0  0  0  0  0  0  0  0  0  0  0
   -3.0170   24.1620  -27.0870 C   0  0  0  0  0  0  0  0  0  0  0  0
   -3.8316   24.3470  -26.3713 H   0  0  0  0  0  0  0  0  0  0  0  0
   -2.6154   23.1498  -26.9318 H   0  0  0  0  0  0  0  0  0  0  0  0
   -2.2176   24.9015  -26.9318 H   0  0  0  0  0  0  0  0  0  0  0  0
   -4.9780   23.5910  -29.0280 S   0  0  0  0  0  0  0  0  0  0  0  0
   -5.4640   20.9930  -32.2760 C   0  0  0  0  0  0  0  0  0  0  0  0
   -4.6221   21.6916  -32.3903 H   0  0  0  0  0  0  0  0  0  0  0  0
   -5.2680   19.6250  -32.4930 C   0  0  0  0  0  0  0  0  0  0  0  0
   -4.2693   19.2509  -32.7626 H   0  0  0  0  0  0  0  0  0  0  0  0
   -6.8010   14.3690  -34.2840 C   0  0  0  0  0  0  0  0  0  0  0  0
   -7.7889   14.7989  -34.5060 H   0  0  0  0  0  0  0  0  0  0  0  0
  1  2  1  0
  2  3  2  0
  3  4  1  0
  3  5  1  0
  5  6  1  0
  5  7  2  0
  7  8  1  0
  8  9  1  0
  8 10  1  0
  8 11  1  0
  7 12  1  0
 12 13  1  0
 13 14  2  0
 13 15  1  0
 15 16  1  0
 15 17  1  0
 17 18  2  0
 18 19  1  0
 18 20  1  0
 20 21  1  0
 20 22  2  0
 22 23  1  0
 23 24  2  0
 23 25  2  0
 23 26  1  0
 26 27  2  0
 27 28  1  0
 28 29  1  0
 29 30  2  0
 30 31  1  0
 31 32  1  0
 31 33  1  0
 31 34  1  0
 30 35  1  0
 22 36  1  0
 36 37  1  0
 36 38  2  0
 38 39  1  0
 12 40  2  0
 40 41  1  0
 40  2  1  0
 38 17  1  0
 35 27  1  0
M  CHG  1  28  -1
M  END
>  <UniqueID>  (41) 
40

>  <SMILES>  (41) 
Cc1n[n-]/c(=N/S(=O)(=O)c2ccc(NC(=O)c3ccccc3C)cc2)s1

>  <Energy>  (41) 
89.3925046331461

>  <Genealogy>  (41) 
Cc1n[n-]c(=NS(=O)(=O)c2ccc(NC(=O)c3ccccc3C)cc2)s1 (protonated)
Cc1n[n-]/c(=N/S(=O)(=O)c2ccc(NC(=O)c3ccccc3C)cc2)s1 (cis-trans isomerization)
Cc1n[n-]/c(=N/S(=O)(=O)c2ccc(NC(=O)c3ccccc3C)cc2)s1 (3D coordinates assigned)
Cc1n[n-]/c(=N/S(=O)(=O)c2ccc(NC(=O)c3ccccc3C)cc2)s1 (optimized conformer: 89.3925046331461 kcal/mol)

>  <smiles>  (41) 
Cc1n[nH]c(=NS(=O)(=O)c2ccc(NC(=O)c3ccccc3C)cc2)s1

>  <score_type>  (41) 
oracle

>  <origin>  (41) 
adgpu

>  <m_score__min__energy>  (41) 
-10.17

>  <m_primary>  (41) 
energy

$$$$
41:0
     RDKit          3D

 48 51  0  0  0  0  0  0  0  0999 V2000
   -6.3690   17.1800  -32.3810 C   0  0  0  0  0  0  0  0  0  0  0  0
   -6.9500   18.4610  -31.9490 N   0  0  0  0  0  0  0  0  0  0  0  0
   -8.3400   18.5730  -32.4250 C   0  0  0  0  0  0  0  0  0  0  0  0
   -9.0090   19.7890  -31.7790 C   0  0  0  0  0  0  0  0  0  0  0  0
   -8.1440   21.0200  -31.8740 C   0  0  0  0  0  0  0  0  0  0  0  0
   -8.7030   22.2760  -31.6010 C   0  0  0  0  0  0  0  0  0  0  0  0
   -7.9090   23.4260  -31.6330 C   0  0  0  0  0  0  0  0  0  0  0  0
   -6.5440   23.3350  -31.9500 C   0  0  0  0  0  0  0  0  0  0  0  0
   -5.6950   24.4920  -31.9780 N   0  0  0  0  0  0  0  0  0  0  0  0
   -5.2730   25.2510  -30.8420 C   0  0  0  0  0  0  0  0  0  0  0  0
   -6.1420   25.8070  -30.1200 O   0  0  0  0  0  0  0  0  0  0  0  0
   -3.8900   25.2930  -30.4660 N   0  0  0  0  0  0  0  0  0  0  0  0
   -3.2550   24.4040  -29.5370 C   0  0  0  0  0  0  0  0  0  0  0  0
   -3.7270   23.0940  -29.4450 C   0  0  0  0  0  0  0  0  0  0  0  0
   -3.1290   22.1870  -28.5720 C   0  0  0  0  0  0  0  0  0  0  0  0
   -2.0430   22.5730  -27.7820 C   0  0  0  0  0  0  0  0  0  0  0  0
   -1.3160   21.3500  -26.7450 Cl  0  0  0  0  0  0  0  0  0  0  0  0
   -1.5370   23.8910  -27.8700 C   0  0  0  0  0  0  0  0  0  0  0  0
   -0.1390   24.3910  -26.8890 S   0  0  0  0  0  0  0  0  0  0  0  0
    0.7070   25.3450  -27.6850 O   0  0  0  0  0  0  0  0  0  0  0  0
    0.7180   23.2000  -26.5610 O   0  0  0  0  0  0  0  0  0  0  0  0
   -0.6030   25.1900  -25.3500 C   0  0  0  0  0  0  0  0  0  0  0  0
   -0.8600   26.6890  -25.3930 C   0  0  0  0  0  0  0  0  0  0  0  0
   -2.0290   25.7200  -25.3450 C   0  0  0  0  0  0  0  0  0  0  0  0
   -2.1310   24.7930  -28.7800 C   0  0  0  0  0  0  0  0  0  0  0  0
   -1.5830   26.0590  -28.9680 O   0  0  0  0  0  0  0  0  0  0  0  0
   -5.9760   22.0770  -32.1830 C   0  0  0  0  0  0  0  0  0  0  0  0
   -6.7620   20.9150  -32.1370 C   0  0  0  0  0  0  0  0  0  0  0  0
   -6.1410   19.5800  -32.4710 C   0  0  0  0  0  0  0  0  0  0  0  0
   -6.0985   16.5835  -31.4973 H   0  0  0  0  0  0  0  0  0  0  0  0
   -7.1051   16.6285  -32.9843 H   0  0  0  0  0  0  0  0  0  0  0  0
   -5.4692   17.3704  -32.9843 H   0  0  0  0  0  0  0  0  0  0  0  0
   -8.3438   18.6913  -33.5186 H   0  0  0  0  0  0  0  0  0  0  0  0
   -8.8940   17.6632  -32.1505 H   0  0  0  0  0  0  0  0  0  0  0  0
   -9.9632   19.9840  -32.2904 H   0  0  0  0  0  0  0  0  0  0  0  0
   -9.1697   19.5653  -30.7140 H   0  0  0  0  0  0  0  0  0  0  0  0
   -9.7732   22.3573  -31.3601 H   0  0  0  0  0  0  0  0  0  0  0  0
   -8.3552   24.4062  -31.4090 H   0  0  0  0  0  0  0  0  0  0  0  0
   -4.5771   22.7750  -30.0659 H   0  0  0  0  0  0  0  0  0  0  0  0
   -3.5150   21.1592  -28.5043 H   0  0  0  0  0  0  0  0  0  0  0  0
    0.0137   24.5437  -24.7082 H   0  0  0  0  0  0  0  0  0  0  0  0
   -0.6262   27.3123  -24.5173 H   0  0  0  0  0  0  0  0  0  0  0  0
   -0.5581   27.5109  -26.0589 H   0  0  0  0  0  0  0  0  0  0  0  0
   -2.6414   25.6419  -24.4346 H   0  0  0  0  0  0  0  0  0  0  0  0
   -2.9238   25.5500  -25.9618 H   0  0  0  0  0  0  0  0  0  0  0  0
   -4.9015   21.9982  -32.4047 H   0  0  0  0  0  0  0  0  0  0  0  0
   -6.0634   19.4854  -33.5642 H   0  0  0  0  0  0  0  0  0  0  0  0
   -5.1468   19.5350  -32.0024 H   0  0  0  0  0  0  0  0  0  0  0  0
  1  2  1  0
  2  3  1  0
  3  4  1  0
  4  5  1  0
  5  6  2  0
  6  7  1  0
  7  8  2  0
  8  9  1  0
  9 10  1  0
 10 11  2  0
 10 12  1  0
 12 13  1  0
 13 14  2  0
 14 15  1  0
 15 16  2  0
 16 17  1  0
 16 18  1  0
 18 19  1  0
 19 20  2  0
 19 21  2  0
 19 22  1  0
 22 23  1  0
 23 24  1  0
 18 25  2  0
 25 26  1  0
  8 27  1  0
 27 28  2  0
 28 29  1  0
 29  2  1  0
 28  5  1  0
 25 13  1  0
 24 22  1  0
  1 30  1  0
  1 31  1  0
  1 32  1  0
  3 33  1  0
  3 34  1  0
  4 35  1  0
  4 36  1  0
  6 37  1  0
  7 38  1  0
 14 39  1  0
 15 40  1  0
 22 41  1  0
 23 42  1  0
 23 43  1  0
 24 44  1  0
 24 45  1  0
 27 46  1  0
 29 47  1  0
 29 48  1  0
M  CHG  3   9  -1  12  -1  26  -1
M  END
>  <UniqueID>  (42) 
41

>  <SMILES>  (42) 
CN1CCc2ccc([N-]C(=O)[N-]c3ccc(Cl)c(S(=O)(=O)C4CC4)c3[O-])cc2C1

>  <Energy>  (42) 
328.0432245903125

>  <Genealogy>  (42) 
CN1CCc2ccc([N-]C(=O)[N-]c3ccc(Cl)c(S(=O)(=O)C4CC4)c3[O-])cc2C1 (protonated)
CN1CCc2ccc([N-]C(=O)[N-]c3ccc(Cl)c(S(=O)(=O)C4CC4)c3[O-])cc2C1 (3D coordinates assigned)
CN1CCc2ccc([N-]C(=O)[N-]c3ccc(Cl)c(S(=O)(=O)C4CC4)c3[O-])cc2C1 (nonaromatic ring conformer: 328.0432245903125 kcal/mol)

>  <smiles>  (42) 
CN1CCc2ccc(NC(=O)Nc3ccc(Cl)c(S(=O)(=O)C4CC4)c3O)cc2C1

>  <score_type>  (42) 
oracle

>  <origin>  (42) 
adgpu

>  <m_score__min__energy>  (42) 
-16.600000000000001

>  <m_primary>  (42) 
energy

$$$$
42:0
     RDKit          3D

 62 65  0  0  0  0  0  0  0  0999 V2000
   -4.7410   16.5090  -33.7860 C   0  0  0  0  0  0  0  0  0  0  0  0
   -3.9490   17.7690  -33.5900 C   0  0  0  0  0  0  0  0  0  0  0  0
   -4.3190   18.8470  -32.8030 C   0  0  0  0  0  0  0  0  0  0  0  0
   -5.4600   18.9190  -31.9490 N   0  0  0  0  0  0  0  0  0  0  0  0
   -6.9160   19.6460  -32.5230 S   0  0  0  0  0  0  0  0  0  0  0  0
   -8.1010   18.8440  -32.0560 O   0  0  0  0  0  0  0  0  0  0  0  0
   -6.9190   19.6890  -34.0260 O   0  0  0  0  0  0  0  0  0  0  0  0
   -6.9970   21.2700  -31.8530 C   0  0  0  0  0  0  0  0  0  0  0  0
   -8.1640   22.0370  -31.9860 C   0  0  0  0  0  0  0  0  0  0  0  0
   -8.1800   23.3670  -31.5540 C   0  0  0  0  0  0  0  0  0  0  0  0
   -7.0300   23.9390  -31.0010 C   0  0  0  0  0  0  0  0  0  0  0  0
   -5.8560   23.1830  -30.8770 C   0  0  0  0  0  0  0  0  0  0  0  0
   -4.4090   23.9190  -30.1850 S   0  0  0  0  0  0  0  0  0  0  0  0
   -4.4790   25.4010  -30.4280 O   0  0  0  0  0  0  0  0  0  0  0  0
   -3.1890   23.3910  -30.8880 O   0  0  0  0  0  0  0  0  0  0  0  0
   -4.3260   23.6260  -28.4570 N   0  0  0  0  0  0  0  0  0  0  0  0
   -3.3490   24.5080  -27.7750 C   0  0  0  0  0  0  0  0  0  0  0  0
   -1.9900   24.6890  -28.4900 C   0  0  0  0  0  0  0  0  0  0  0  0
   -1.1040   23.4380  -28.3970 C   0  0  0  0  0  0  0  0  0  0  0  0
   -1.7300   22.2960  -27.5800 C   0  0  0  0  0  0  0  0  0  0  0  0
   -2.8720   21.5410  -28.2780 C   0  0  0  0  0  0  0  0  0  0  0  0
   -4.2570   22.1910  -28.0830 C   0  0  0  0  0  0  0  0  0  0  0  0
   -5.8460   21.8460  -31.3010 C   0  0  0  0  0  0  0  0  0  0  0  0
   -3.2160   19.6680  -32.7770 C   0  0  0  0  0  0  0  0  0  0  0  0
   -3.1220   20.7560  -32.1480 O   0  0  0  0  0  0  0  0  0  0  0  0
   -2.2380   19.1330  -33.5370 N   0  0  0  0  0  0  0  0  0  0  0  0
   -0.9350   19.7050  -33.7560 C   0  0  0  0  0  0  0  0  0  0  0  0
   -0.7340   20.6430  -34.7800 C   0  0  0  0  0  0  0  0  0  0  0  0
    0.5290   21.2080  -34.9790 C   0  0  0  0  0  0  0  0  0  0  0  0
    1.5970   20.8450  -34.1550 C   0  0  0  0  0  0  0  0  0  0  0  0
    1.4030   19.9190  -33.1280 C   0  0  0  0  0  0  0  0  0  0  0  0
    0.1410   19.3510  -32.9250 C   0  0  0  0  0  0  0  0  0  0  0  0
   -2.6720   17.9650  -34.0120 N   0  0  0  0  0  0  0  0  0  0  0  0
   -1.8800   17.0270  -34.8130 C   0  0  0  0  0  0  0  0  0  0  0  0
   -5.0065   16.0866  -32.8057 H   0  0  0  0  0  0  0  0  0  0  0  0
   -5.6588   16.7365  -34.3480 H   0  0  0  0  0  0  0  0  0  0  0  0
   -4.1380   15.7806  -34.3480 H   0  0  0  0  0  0  0  0  0  0  0  0
   -9.0667   21.5922  -32.4302 H   0  0  0  0  0  0  0  0  0  0  0  0
   -9.0988   23.9642  -31.6494 H   0  0  0  0  0  0  0  0  0  0  0  0
   -7.0467   24.9854  -30.6622 H   0  0  0  0  0  0  0  0  0  0  0  0
   -5.2630   23.9450  -28.1120 H   0  0  0  0  0  0  0  0  0  0  0  0
   -3.8088   25.5016  -27.6682 H   0  0  0  0  0  0  0  0  0  0  0  0
   -3.1194   24.0152  -26.8187 H   0  0  0  0  0  0  0  0  0  0  0  0
   -2.1767   24.9107  -29.5511 H   0  0  0  0  0  0  0  0  0  0  0  0
   -1.4578   25.5127  -27.9917 H   0  0  0  0  0  0  0  0  0  0  0  0
   -0.9129   23.0714  -29.4163 H   0  0  0  0  0  0  0  0  0  0  0  0
   -0.1811   23.7359  -27.8779 H   0  0  0  0  0  0  0  0  0  0  0  0
   -0.9366   21.5712  -27.3451 H   0  0  0  0  0  0  0  0  0  0  0  0
   -2.1741   22.7656  -26.6900 H   0  0  0  0  0  0  0  0  0  0  0  0
   -2.6551   21.5030  -29.3557 H   0  0  0  0  0  0  0  0  0  0  0  0
   -2.9202   20.5405  -27.8233 H   0  0  0  0  0  0  0  0  0  0  0  0
   -4.9836   21.6409  -28.6989 H   0  0  0  0  0  0  0  0  0  0  0  0
   -4.4761   22.1393  -27.0063 H   0  0  0  0  0  0  0  0  0  0  0  0
   -4.9292   21.2467  -31.1994 H   0  0  0  0  0  0  0  0  0  0  0  0
   -1.5733   20.9348  -35.4285 H   0  0  0  0  0  0  0  0  0  0  0  0
    0.6822   21.9398  -35.7859 H   0  0  0  0  0  0  0  0  0  0  0  0
    2.5908   21.2886  -34.3152 H   0  0  0  0  0  0  0  0  0  0  0  0
    2.2438   19.6358  -32.4777 H   0  0  0  0  0  0  0  0  0  0  0  0
   -0.0094   18.6251  -32.1124 H   0  0  0  0  0  0  0  0  0  0  0  0
   -1.3163   16.3594  -34.1448 H   0  0  0  0  0  0  0  0  0  0  0  0
   -2.5509   16.4294  -35.4476 H   0  0  0  0  0  0  0  0  0  0  0  0
   -1.1784   17.5883  -35.4476 H   0  0  0  0  0  0  0  0  0  0  0  0
  1  2  1  0
  2  3  2  0
  3  4  1  0
  4  5  1  0
  5  6  2  0
  5  7  2  0
  5  8  1  0
  8  9  2  0
  9 10  1  0
 10 11  2  0
 11 12  1  0
 12 13  1  0
 13 14  2  0
 13 15  2  0
 13 16  1  0
 16 17  1  0
 17 18  1  0
 18 19  1  0
 19 20  1  0
 20 21  1  0
 21 22  1  0
 12 23  2  0
  3 24  1  0
 24 25  2  0
 24 26  1  0
 26 27  1  0
 27 28  2  0
 28 29  1  0
 29 30  2  0
 30 31  1  0
 31 32  2  0
 26 33  1  0
 33 34  1  0
 33  2  1  0
 23  8  1  0
 32 27  1  0
 22 16  1  0
  1 35  1  0
  1 36  1  0
  1 37  1  0
  9 38  1  0
 10 39  1  0
 11 40  1  0
 16 41  1  0
 17 42  1  0
 17 43  1  0
 18 44  1  0
 18 45  1  0
 19 46  1  0
 19 47  1  0
 20 48  1  0
 20 49  1  0
 21 50  1  0
 21 51  1  0
 22 52  1  0
 22 53  1  0
 23 54  1  0
 28 55  1  0
 29 56  1  0
 30 57  1  0
 31 58  1  0
 32 59  1  0
 34 60  1  0
 34 61  1  0
 34 62  1  0
M  CHG  2   4  -1  16   1
M  END
>  <UniqueID>  (43) 
42

>  <SMILES>  (43) 
Cc1c([N-]S(=O)(=O)c2cccc(S(=O)(=O)[NH+]3CCCCCC3)c2)c(=O)n(-c2ccccc2)n1C

>  <Energy>  (43) 
122.57998795223155

>  <Genealogy>  (43) 
Cc1c([N-]S(=O)(=O)c2cccc(S(=O)(=O)[NH+]3CCCCCC3)c2)c(=O)n(-c2ccccc2)n1C (protonated)
Cc1c([N-]S(=O)(=O)c2cccc(S(=O)(=O)[NH+]3CCCCCC3)c2)c(=O)n(-c2ccccc2)n1C (3D coordinates assigned)
Cc1c([N-]S(=O)(=O)c2cccc(S(=O)(=O)[NH+]3CCCCCC3)c2)c(=O)n(-c2ccccc2)n1C (nonaromatic ring conformer: 122.57998795223155 kcal/mol)

>  <smiles>  (43) 
Cc1c(NS(=O)(=O)c2cccc(S(=O)(=O)N3CCCCCC3)c2)c(=O)n(-c2ccccc2)n1C

>  <score_type>  (43) 
oracle

>  <origin>  (43) 
adgpu

>  <m_score__min__energy>  (43) 
-9.4700000000000006

>  <m_primary>  (43) 
energy

$$$$
43:0
     RDKit          3D

 57 61  0  0  0  0  0  0  0  0999 V2000
    1.0701   19.2313  -30.2122 H   0  0  0  0  0  0  0  0  0  0  0  0
    0.4780   18.5940  -29.5390 C   0  0  0  0  0  0  0  0  0  0  0  0
   -0.5080   19.1150  -28.8690 N   0  0  0  0  0  0  0  0  0  0  0  0
   -0.9580   20.4790  -28.9090 C   0  0  0  0  0  0  0  0  0  0  0  0
   -0.3450   21.4700  -29.7050 C   0  0  0  0  0  0  0  0  0  0  0  0
    0.5275   21.2135  -30.3239 H   0  0  0  0  0  0  0  0  0  0  0  0
   -0.8430   22.7780  -29.7100 C   0  0  0  0  0  0  0  0  0  0  0  0
   -0.3621   23.5451  -30.3348 H   0  0  0  0  0  0  0  0  0  0  0  0
   -1.9520   23.1140  -28.9220 C   0  0  0  0  0  0  0  0  0  0  0  0
   -2.6450   24.7310  -28.9730 S   0  0  0  0  0  0  0  0  0  0  0  0
   -1.5780   25.7850  -28.8710 O   0  0  0  0  0  0  0  0  0  0  0  0
   -3.6020   24.8900  -27.8250 O   0  0  0  0  0  0  0  0  0  0  0  0
   -3.5020   24.8990  -30.4680 N   0  0  0  0  0  0  0  0  0  0  0  0
   -4.6120   24.0530  -30.7860 C   0  0  0  0  0  0  0  0  0  0  0  0
   -5.9240   24.4690  -30.5110 C   0  0  0  0  0  0  0  0  0  0  0  0
   -6.1004   25.4410  -30.0272 H   0  0  0  0  0  0  0  0  0  0  0  0
   -7.0060   23.6540  -30.8490 C   0  0  0  0  0  0  0  0  0  0  0  0
   -8.0304   23.9783  -30.6137 H   0  0  0  0  0  0  0  0  0  0  0  0
   -6.7930   22.4280  -31.4850 C   0  0  0  0  0  0  0  0  0  0  0  0
   -7.6508   21.7928  -31.7509 H   0  0  0  0  0  0  0  0  0  0  0  0
   -5.4850   22.0020  -31.7870 C   0  0  0  0  0  0  0  0  0  0  0  0
   -5.2320   20.7870  -32.4600 C   0  0  0  0  0  0  0  0  0  0  0  0
   -6.3120   19.9650  -32.9360 N   0  0  0  0  0  0  0  0  0  0  0  0
   -6.1450   19.2730  -34.2130 C   0  0  0  0  0  0  0  0  0  0  0  0
   -5.8906   18.2189  -34.0283 H   0  0  0  0  0  0  0  0  0  0  0  0
   -7.0825   19.3290  -34.7858 H   0  0  0  0  0  0  0  0  0  0  0  0
   -5.3363   19.7504  -34.7858 H   0  0  0  0  0  0  0  0  0  0  0  0
   -7.2850   19.4400  -31.9750 C   0  0  0  0  0  0  0  0  0  0  0  0
   -6.9298   19.6317  -30.9517 H   0  0  0  0  0  0  0  0  0  0  0  0
   -8.2544   19.9375  -32.1258 H   0  0  0  0  0  0  0  0  0  0  0  0
   -7.4014   18.3566  -32.1258 H   0  0  0  0  0  0  0  0  0  0  0  0
   -3.9020   20.4040  -32.7140 C   0  0  0  0  0  0  0  0  0  0  0  0
   -3.6894   19.4529  -33.2241 H   0  0  0  0  0  0  0  0  0  0  0  0
   -2.8550   21.2340  -32.3170 C   0  0  0  0  0  0  0  0  0  0  0  0
   -1.8146   20.9365  -32.5145 H   0  0  0  0  0  0  0  0  0  0  0  0
   -3.1150   22.4090  -31.6870 N   0  0  0  0  0  0  0  0  0  0  0  0
   -4.3880   22.8150  -31.4080 C   0  0  0  0  0  0  0  0  0  0  0  0
   -2.5640   22.1310  -28.1350 C   0  0  0  0  0  0  0  0  0  0  0  0
   -3.4359   22.3895  -27.5162 H   0  0  0  0  0  0  0  0  0  0  0  0
   -2.0730   20.8250  -28.1320 C   0  0  0  0  0  0  0  0  0  0  0  0
   -2.5652   20.0594  -27.5142 H   0  0  0  0  0  0  0  0  0  0  0  0
    0.8180   17.1550  -29.4110 C   0  0  0  0  0  0  0  0  0  0  0  0
    0.9190   16.3790  -30.5760 C   0  0  0  0  0  0  0  0  0  0  0  0
    0.7529   16.8504  -31.5559 H   0  0  0  0  0  0  0  0  0  0  0  0
    1.2120   15.0840  -30.5150 O   0  0  0  0  0  0  0  0  0  0  0  0
    1.4290   14.4510  -29.3680 C   0  0  0  0  0  0  0  0  0  0  0  0
    1.7300   13.0850  -29.3770 C   0  0  0  0  0  0  0  0  0  0  0  0
    1.7891   12.5422  -30.3319 H   0  0  0  0  0  0  0  0  0  0  0  0
    1.9560   12.4080  -28.1740 C   0  0  0  0  0  0  0  0  0  0  0  0
    2.1903   11.3333  -28.1847 H   0  0  0  0  0  0  0  0  0  0  0  0
    1.8850   13.0920  -26.9620 C   0  0  0  0  0  0  0  0  0  0  0  0
    2.0642   12.5555  -26.0186 H   0  0  0  0  0  0  0  0  0  0  0  0
    1.5870   14.4570  -26.9410 C   0  0  0  0  0  0  0  0  0  0  0  0
    1.5345   14.9920  -25.9813 H   0  0  0  0  0  0  0  0  0  0  0  0
    1.3540   15.1490  -28.1430 C   0  0  0  0  0  0  0  0  0  0  0  0
    1.0460   16.5210  -28.1710 C   0  0  0  0  0  0  0  0  0  0  0  0
    0.9820   17.1770  -27.0920 O   0  0  0  0  0  0  0  0  0  0  0  0
  1  2  1  0
  2  3  2  0
  3  4  1  0
  4  5  2  0
  5  6  1  0
  5  7  1  0
  7  8  1  0
  7  9  2  0
  9 10  1  0
 10 11  2  0
 10 12  2  0
 10 13  1  0
 13 14  1  0
 14 15  2  0
 15 16  1  0
 15 17  1  0
 17 18  1  0
 17 19  2  0
 19 20  1  0
 19 21  1  0
 21 22  2  0
 22 23  1  0
 23 24  1  0
 24 25  1  0
 24 26  1  0
 24 27  1  0
 23 28  1  0
 28 29  1  0
 28 30  1  0
 28 31  1  0
 22 32  1  0
 32 33  1  0
 32 34  2  0
 34 35  1  0
 34 36  1  0
 36 37  2  0
  9 38  1  0
 38 39  1  0
 38 40  2  0
 40 41  1  0
  2 42  1  0
 42 43  2  0
 43 44  1  0
 43 45  1  0
 45 46  1  0
 46 47  2  0
 47 48  1  0
 47 49  1  0
 49 50  1  0
 49 51  2  0
 51 52  1  0
 51 53  1  0
 53 54  1  0
 53 55  2  0
 55 56  1  0
 56 57  2  0
 40  4  1  0
 56 42  1  0
 37 14  1  0
 55 46  1  0
 37 21  1  0
M  CHG  1  13  -1
M  END
>  <UniqueID>  (44) 
43

>  <SMILES>  (44) 
CN(C)c1ccnc2c([N-]S(=O)(=O)c3ccc(/N=C/c4coc5ccccc5c4=O)cc3)cccc12

>  <Energy>  (44) 
89.21281373345965

>  <Genealogy>  (44) 
CN(C)c1ccnc2c([N-]S(=O)(=O)c3ccc(N=Cc4coc5ccccc5c4=O)cc3)cccc12 (protonated)
CN(C)c1ccnc2c([N-]S(=O)(=O)c3ccc(/N=C/c4coc5ccccc5c4=O)cc3)cccc12 (cis-trans isomerization)
CN(C)c1ccnc2c([N-]S(=O)(=O)c3ccc(/N=C/c4coc5ccccc5c4=O)cc3)cccc12 (3D coordinates assigned)
CN(C)c1ccnc2c([N-]S(=O)(=O)c3ccc(/N=C/c4coc5ccccc5c4=O)cc3)cccc12 (optimized conformer: 89.21281373345965 kcal/mol)

>  <smiles>  (44) 
CN(C)c1ccnc2c(NS(=O)(=O)c3ccc(N=Cc4coc5ccccc5c4=O)cc3)cccc12

>  <score_type>  (44) 
oracle

>  <origin>  (44) 
adgpu

>  <m_score__min__energy>  (44) 
-10.800000000000001

>  <m_primary>  (44) 
energy

$$$$
44:0
     RDKit          3D

 29 30  0  0  0  0  0  0  0  0999 V2000
   -5.8152   21.5175  -32.9207 H   0  0  0  0  0  0  0  0  0  0  0  0
   -5.9420   22.3730  -32.2410 C   0  0  0  0  0  0  0  0  0  0  0  0
   -4.8200   23.0630  -31.7710 C   0  0  0  0  0  0  0  0  0  0  0  0
   -3.8119   22.7386  -32.0685 H   0  0  0  0  0  0  0  0  0  0  0  0
   -4.9780   24.1730  -30.9170 C   0  0  0  0  0  0  0  0  0  0  0  0
   -3.8500   24.8890  -30.3820 N   0  0  0  0  0  0  0  0  0  0  0  0
   -2.9160   24.4220  -29.6030 C   0  0  0  0  0  0  0  0  0  0  0  0
   -1.9860   25.2950  -29.1740 N   0  0  0  0  0  0  0  0  0  0  0  0
   -0.8760   25.2000  -28.4130 C   0  0  0  0  0  0  0  0  0  0  0  0
   -0.2550   26.2790  -28.2160 O   0  0  0  0  0  0  0  0  0  0  0  0
   -0.3590   24.0180  -27.8340 C   0  0  0  0  0  0  0  0  0  0  0  0
    0.9410   24.1580  -27.0410 C   0  0  0  0  0  0  0  0  0  0  0  0
    1.4680   25.0653  -27.3714 H   0  0  0  0  0  0  0  0  0  0  0  0
    1.5592   23.2662  -27.2211 H   0  0  0  0  0  0  0  0  0  0  0  0
    0.6600   24.2610  -25.5430 C   0  0  0  0  0  0  0  0  0  0  0  0
    1.5474   23.9357  -24.9803 H   0  0  0  0  0  0  0  0  0  0  0  0
    0.4242   25.3040  -25.2850 H   0  0  0  0  0  0  0  0  0  0  0  0
   -0.1940   23.6174  -25.2850 H   0  0  0  0  0  0  0  0  0  0  0  0
   -0.9490   22.7320  -27.8580 C   0  0  0  0  0  0  0  0  0  0  0  0
   -0.3020   21.7380  -27.1190 O   0  0  0  0  0  0  0  0  0  0  0  0
   -2.1080   22.3270  -28.5410 C   0  0  0  0  0  0  0  0  0  0  0  0
   -2.5650   20.7530  -28.4460 S   0  0  0  0  0  0  0  0  0  0  0  0
   -2.9080   23.1100  -29.2920 N   0  0  0  0  0  0  0  0  0  0  0  0
   -6.2660   24.5410  -30.5060 C   0  0  0  0  0  0  0  0  0  0  0  0
   -6.3977   25.3802  -29.8072 H   0  0  0  0  0  0  0  0  0  0  0  0
   -7.3840   23.8490  -30.9780 C   0  0  0  0  0  0  0  0  0  0  0  0
   -8.3924   24.1557  -30.6634 H   0  0  0  0  0  0  0  0  0  0  0  0
   -7.2240   22.7680  -31.8490 C   0  0  0  0  0  0  0  0  0  0  0  0
   -8.3370   22.0800  -32.3170 O   0  0  0  0  0  0  0  0  0  0  0  0
  1  2  1  0
  2  3  2  0
  3  4  1  0
  3  5  1  0
  5  6  1  0
  6  7  2  0
  7  8  1  0
  8  9  1  0
  9 10  2  0
  9 11  1  0
 11 12  1  0
 12 13  1  0
 12 14  1  0
 12 15  1  0
 15 16  1  0
 15 17  1  0
 15 18  1  0
 11 19  2  0
 19 20  1  0
 19 21  1  0
 21 22  2  0
 21 23  1  0
  5 24  2  0
 24 25  1  0
 24 26  1  0
 26 27  1  0
 26 28  2  0
 28 29  1  0
 28  2  1  0
 23  7  1  0
M  CHG  4   8  -1  20  -1  23  -1  29  -1
M  END
>  <UniqueID>  (45) 
44

>  <SMILES>  (45) 
CCc1c([O-])c(=S)[n-]/c(=N\c2ccc([O-])cc2)[n-]c1=O

>  <Energy>  (45) 
62.75462263261562

>  <Genealogy>  (45) 
CCc1c([O-])c(=S)[n-]c(=Nc2ccc([O-])cc2)[n-]c1=O (protonated)
CCc1c([O-])c(=S)[n-]/c(=N\c2ccc([O-])cc2)[n-]c1=O (cis-trans isomerization)
CCc1c([O-])c(=S)[n-]/c(=N\c2ccc([O-])cc2)[n-]c1=O (3D coordinates assigned)
CCc1c([O-])c(=S)[n-]/c(=N\c2ccc([O-])cc2)[n-]c1=O (optimized conformer: 62.75462263261562 kcal/mol)

>  <smiles>  (45) 
CCc1c(O)c(=S)[nH]c(=Nc2ccc(O)cc2)[nH]c1=O

>  <score_type>  (45) 
oracle

>  <origin>  (45) 
adgpu

>  <m_score__min__energy>  (45) 
-8.9100000000000001

>  <m_primary>  (45) 
energy

$$$$
45:0
     RDKit          3D

 72 76  0  0  0  0  0  0  0  0999 V2000
    0.8530   20.3480  -32.1310 O   0  0  0  0  0  0  0  0  0  0  0  0
    0.4670   20.1230  -33.3090 C   0  0  0  0  0  0  0  0  0  0  0  0
   -0.3520   18.9680  -33.5510 N   0  0  0  0  0  0  0  0  0  0  0  0
   -1.7870   18.9140  -33.5240 C   0  0  0  0  0  0  0  0  0  0  0  0
   -2.4930   18.0090  -34.3360 C   0  0  0  0  0  0  0  0  0  0  0  0
   -3.8890   18.0050  -34.3430 C   0  0  0  0  0  0  0  0  0  0  0  0
   -4.6010   18.8930  -33.5320 C   0  0  0  0  0  0  0  0  0  0  0  0
   -6.3620   18.8870  -33.5660 S   0  0  0  0  0  0  0  0  0  0  0  0
   -6.8580   19.9530  -34.5040 O   0  0  0  0  0  0  0  0  0  0  0  0
   -6.8240   17.5440  -34.0560 O   0  0  0  0  0  0  0  0  0  0  0  0
   -6.9670   19.1870  -31.9500 N   0  0  0  0  0  0  0  0  0  0  0  0
   -6.9510   20.6340  -31.6120 C   0  0  0  0  0  0  0  0  0  0  0  0
   -8.3390   21.2240  -31.3110 C   0  0  0  0  0  0  0  0  0  0  0  0
   -9.3580   20.7500  -32.3450 C   0  0  0  0  0  0  0  0  0  0  0  0
   -9.4370   19.2130  -32.4170 C   0  0  0  0  0  0  0  0  0  0  0  0
   -8.2590   18.5120  -31.7150 C   0  0  0  0  0  0  0  0  0  0  0  0
   -3.9060   19.7780  -32.6980 C   0  0  0  0  0  0  0  0  0  0  0  0
   -2.5040   19.7730  -32.6620 C   0  0  0  0  0  0  0  0  0  0  0  0
   -1.8300   20.6910  -31.7860 N   0  0  0  0  0  0  0  0  0  0  0  0
   -2.4150   21.9320  -31.3540 C   0  0  0  0  0  0  0  0  0  0  0  0
   -3.4390   22.3750  -31.9410 O   0  0  0  0  0  0  0  0  0  0  0  0
   -1.8120   22.7170  -30.2470 C   0  0  0  0  0  0  0  0  0  0  0  0
   -0.5620   22.3470  -29.7160 C   0  0  0  0  0  0  0  0  0  0  0  0
    0.0150   23.0810  -28.6760 C   0  0  0  0  0  0  0  0  0  0  0  0
   -0.6430   24.2000  -28.1550 C   0  0  0  0  0  0  0  0  0  0  0  0
    0.1020   25.1120  -26.8440 S   0  0  0  0  0  0  0  0  0  0  0  0
    1.4490   25.5990  -27.3020 O   0  0  0  0  0  0  0  0  0  0  0  0
    0.2810   24.2340  -25.6360 O   0  0  0  0  0  0  0  0  0  0  0  0
   -0.9150   26.4720  -26.4350 N   0  0  0  0  0  0  0  0  0  0  0  0
   -1.4460   26.3460  -25.0590 C   0  0  0  0  0  0  0  0  0  0  0  0
   -0.7730   27.3260  -24.0820 C   0  0  0  0  0  0  0  0  0  0  0  0
   -0.9130   28.6830  -24.4760 O   0  0  0  0  0  0  0  0  0  0  0  0
   -0.8400   28.8840  -25.8830 C   0  0  0  0  0  0  0  0  0  0  0  0
   -0.1810   27.7310  -26.6580 C   0  0  0  0  0  0  0  0  0  0  0  0
   -1.8820   24.5830  -28.6810 C   0  0  0  0  0  0  0  0  0  0  0  0
   -2.4620   23.8500  -29.7230 C   0  0  0  0  0  0  0  0  0  0  0  0
    0.8490   21.0600  -34.3910 C   0  0  0  0  0  0  0  0  0  0  0  0
    2.1810   21.1160  -34.8350 C   0  0  0  0  0  0  0  0  0  0  0  0
    2.5320   21.9910  -35.8670 C   0  0  0  0  0  0  0  0  0  0  0  0
    1.5900   22.7910  -36.4320 N   0  0  0  0  0  0  0  0  0  0  0  0
    0.2980   22.7750  -36.0130 C   0  0  0  0  0  0  0  0  0  0  0  0
   -0.0960   21.9180  -34.9810 C   0  0  0  0  0  0  0  0  0  0  0  0
   -1.9416   17.2992  -34.9701 H   0  0  0  0  0  0  0  0  0  0  0  0
   -4.4311   17.2996  -34.9899 H   0  0  0  0  0  0  0  0  0  0  0  0
   -6.3161   20.7745  -30.7247 H   0  0  0  0  0  0  0  0  0  0  0  0
   -6.5670   21.1622  -32.4972 H   0  0  0  0  0  0  0  0  0  0  0  0
   -8.6609   20.8995  -30.3105 H   0  0  0  0  0  0  0  0  0  0  0  0
   -8.2753   22.3214  -31.3518 H   0  0  0  0  0  0  0  0  0  0  0  0
  -10.3485   21.1439  -32.0736 H   0  0  0  0  0  0  0  0  0  0  0  0
   -9.0384   21.1197  -33.3305 H   0  0  0  0  0  0  0  0  0  0  0  0
  -10.3727   18.8881  -31.9385 H   0  0  0  0  0  0  0  0  0  0  0  0
   -9.3979   18.9329  -33.4800 H   0  0  0  0  0  0  0  0  0  0  0  0
   -8.4548   18.4955  -30.6327 H   0  0  0  0  0  0  0  0  0  0  0  0
   -8.1823   17.4971  -32.1323 H   0  0  0  0  0  0  0  0  0  0  0  0
   -4.4649   20.4834  -32.0655 H   0  0  0  0  0  0  0  0  0  0  0  0
   -0.8080   20.5440  -31.6260 H   0  0  0  0  0  0  0  0  0  0  0  0
   -0.0344   21.4720  -30.1234 H   0  0  0  0  0  0  0  0  0  0  0  0
    0.9896   22.7778  -28.2659 H   0  0  0  0  0  0  0  0  0  0  0  0
   -2.5267   26.5502  -25.0767 H   0  0  0  0  0  0  0  0  0  0  0  0
   -1.2362   25.3244  -24.7093 H   0  0  0  0  0  0  0  0  0  0  0  0
   -1.2290   27.2001  -23.0889 H   0  0  0  0  0  0  0  0  0  0  0  0
    0.3024   27.0948  -24.0712 H   0  0  0  0  0  0  0  0  0  0  0  0
   -1.8632   29.0143  -26.2651 H   0  0  0  0  0  0  0  0  0  0  0  0
   -0.2064   29.7693  -26.0403 H   0  0  0  0  0  0  0  0  0  0  0  0
   -0.1863   27.9675  -27.7323 H   0  0  0  0  0  0  0  0  0  0  0  0
    0.8523   27.6079  -26.3015 H   0  0  0  0  0  0  0  0  0  0  0  0
   -2.4018   25.4630  -28.2743 H   0  0  0  0  0  0  0  0  0  0  0  0
   -3.4330   24.1618  -30.1353 H   0  0  0  0  0  0  0  0  0  0  0  0
    2.9447   20.4737  -34.3722 H   0  0  0  0  0  0  0  0  0  0  0  0
    3.5722   22.0321  -36.2223 H   0  0  0  0  0  0  0  0  0  0  0  0
   -0.4405   23.4383  -36.4870 H   0  0  0  0  0  0  0  0  0  0  0  0
   -1.1393   21.9149  -34.6326 H   0  0  0  0  0  0  0  0  0  0  0  0
  1  2  2  0
  2  3  1  0
  3  4  1  0
  4  5  2  0
  5  6  1  0
  6  7  2  0
  7  8  1  0
  8  9  2  0
  8 10  2  0
  8 11  1  0
 11 12  1  0
 12 13  1  0
 13 14  1  0
 14 15  1  0
 15 16  1  0
  7 17  1  0
 17 18  2  0
 18 19  1  0
 19 20  1  0
 20 21  2  0
 20 22  1  0
 22 23  2  0
 23 24  1  0
 24 25  2  0
 25 26  1  0
 26 27  2  0
 26 28  2  0
 26 29  1  0
 29 30  1  0
 30 31  1  0
 31 32  1  0
 32 33  1  0
 33 34  1  0
 25 35  1  0
 35 36  2  0
  2 37  1  0
 37 38  2  0
 38 39  1  0
 39 40  2  0
 40 41  1  0
 41 42  2  0
 18  4  1  0
 36 22  1  0
 42 37  1  0
 16 11  1  0
 34 29  1  0
  5 43  1  0
  6 44  1  0
 12 45  1  0
 12 46  1  0
 13 47  1  0
 13 48  1  0
 14 49  1  0
 14 50  1  0
 15 51  1  0
 15 52  1  0
 16 53  1  0
 16 54  1  0
 17 55  1  0
 19 56  1  0
 23 57  1  0
 24 58  1  0
 30 59  1  0
 30 60  1  0
 31 61  1  0
 31 62  1  0
 33 63  1  0
 33 64  1  0
 34 65  1  0
 34 66  1  0
 35 67  1  0
 36 68  1  0
 38 69  1  0
 39 70  1  0
 41 71  1  0
 42 72  1  0
M  CHG  1   3  -1
M  END
>  <UniqueID>  (46) 
45

>  <SMILES>  (46) 
O=C([N-]c1ccc(S(=O)(=O)N2CCCCC2)cc1NC(=O)c1ccc(S(=O)(=O)N2CCOCC2)cc1)c1ccncc1

>  <Energy>  (46) 
110.49189109475893

>  <Genealogy>  (46) 
O=C([N-]c1ccc(S(=O)(=O)N2CCCCC2)cc1NC(=O)c1ccc(S(=O)(=O)N2CCOCC2)cc1)c1ccncc1 (protonated)
O=C([N-]c1ccc(S(=O)(=O)N2CCCCC2)cc1NC(=O)c1ccc(S(=O)(=O)N2CCOCC2)cc1)c1ccncc1 (3D coordinates assigned)
O=C([N-]c1ccc(S(=O)(=O)N2CCCCC2)cc1NC(=O)c1ccc(S(=O)(=O)N2CCOCC2)cc1)c1ccncc1 (nonaromatic ring conformer: 110.49189109475893 kcal/mol)

>  <smiles>  (46) 
O=C(Nc1ccc(S(=O)(=O)N2CCCCC2)cc1NC(=O)c1ccc(S(=O)(=O)N2CCOCC2)cc1)c1ccncc1

>  <score_type>  (46) 
oracle

>  <origin>  (46) 
adgpu

>  <m_score__min__energy>  (46) 
-13.119999999999999

>  <m_primary>  (46) 
energy

$$$$
46:0
     RDKit          3D

 60 63  0  0  0  0  0  0  0  0999 V2000
   -5.1570   17.5300  -34.5080 C   0  0  0  0  0  0  0  0  0  0  0  0
   -5.6710   17.6570  -33.1850 O   0  0  0  0  0  0  0  0  0  0  0  0
   -6.8190   18.3790  -32.8300 C   0  0  0  0  0  0  0  0  0  0  0  0
   -7.9600   17.7480  -32.2920 C   0  0  0  0  0  0  0  0  0  0  0  0
   -9.0960   18.4960  -31.9700 C   0  0  0  0  0  0  0  0  0  0  0  0
   -9.1120   19.8750  -32.1910 C   0  0  0  0  0  0  0  0  0  0  0  0
   -7.9910   20.5100  -32.7240 C   0  0  0  0  0  0  0  0  0  0  0  0
   -6.8360   19.7730  -33.0280 C   0  0  0  0  0  0  0  0  0  0  0  0
   -5.6920   20.4610  -33.5460 N   0  0  0  0  0  0  0  0  0  0  0  0
   -4.3800   20.9430  -32.5300 S   0  0  0  0  0  0  0  0  0  0  0  0
   -3.9320   19.7700  -31.7040 O   0  0  0  0  0  0  0  0  0  0  0  0
   -3.2340   21.3850  -33.3970 O   0  0  0  0  0  0  0  0  0  0  0  0
   -4.8720   22.2440  -31.4530 C   0  0  0  0  0  0  0  0  0  0  0  0
   -6.2180   22.4100  -31.1160 C   0  0  0  0  0  0  0  0  0  0  0  0
   -6.6150   23.4770  -30.3060 C   0  0  0  0  0  0  0  0  0  0  0  0
   -5.6740   24.4050  -29.8430 C   0  0  0  0  0  0  0  0  0  0  0  0
   -6.0810   25.4730  -29.0390 O   0  0  0  0  0  0  0  0  0  0  0  0
   -4.3210   24.2530  -30.1960 C   0  0  0  0  0  0  0  0  0  0  0  0
   -3.3470   25.2390  -29.8340 N   0  0  0  0  0  0  0  0  0  0  0  0
   -2.2390   24.9620  -28.9640 C   0  0  0  0  0  0  0  0  0  0  0  0
   -1.6160   25.9160  -28.4210 O   0  0  0  0  0  0  0  0  0  0  0  0
   -1.7790   23.5640  -28.7510 C   0  0  0  0  0  0  0  0  0  0  0  0
   -2.5550   22.6720  -27.9780 C   0  0  0  0  0  0  0  0  0  0  0  0
   -2.1130   21.3690  -27.7440 C   0  0  0  0  0  0  0  0  0  0  0  0
   -0.8950   20.9330  -28.2800 C   0  0  0  0  0  0  0  0  0  0  0  0
   -0.3650   19.2790  -28.0060 S   0  0  0  0  0  0  0  0  0  0  0  0
    1.0650   19.3240  -27.5470 O   0  0  0  0  0  0  0  0  0  0  0  0
   -1.2000   18.6440  -26.9300 O   0  0  0  0  0  0  0  0  0  0  0  0
   -0.4990   18.3790  -29.5060 N   0  0  0  0  0  0  0  0  0  0  0  0
    0.4890   17.2830  -29.5920 C   0  0  0  0  0  0  0  0  0  0  0  0
    1.8620   17.7510  -30.1180 C   0  0  0  0  0  0  0  0  0  0  0  0
    1.7310   18.4890  -31.3180 O   0  0  0  0  0  0  0  0  0  0  0  0
    0.9570   19.6450  -31.0770 C   0  0  0  0  0  0  0  0  0  0  0  0
   -0.4740   19.2510  -30.6950 C   0  0  0  0  0  0  0  0  0  0  0  0
   -0.1260   21.8040  -29.0620 C   0  0  0  0  0  0  0  0  0  0  0  0
   -0.5590   23.1140  -29.2910 C   0  0  0  0  0  0  0  0  0  0  0  0
   -3.9210   23.1560  -30.9730 C   0  0  0  0  0  0  0  0  0  0  0  0
   -4.0900   17.2664  -34.4631 H   0  0  0  0  0  0  0  0  0  0  0  0
   -5.7075   16.7409  -35.0411 H   0  0  0  0  0  0  0  0  0  0  0  0
   -5.2767   18.4847  -35.0411 H   0  0  0  0  0  0  0  0  0  0  0  0
   -7.9558   16.6608  -32.1248 H   0  0  0  0  0  0  0  0  0  0  0  0
   -9.9785   17.9980  -31.5420 H   0  0  0  0  0  0  0  0  0  0  0  0
  -10.0099   20.4606  -31.9443 H   0  0  0  0  0  0  0  0  0  0  0  0
   -8.0120   21.5944  -32.9072 H   0  0  0  0  0  0  0  0  0  0  0  0
   -6.9681   21.6976  -31.4900 H   0  0  0  0  0  0  0  0  0  0  0  0
   -7.6739   23.5888  -30.0301 H   0  0  0  0  0  0  0  0  0  0  0  0
   -5.4130   26.0060  -28.4860 H   0  0  0  0  0  0  0  0  0  0  0  0
   -3.5147   23.0068  -27.5574 H   0  0  0  0  0  0  0  0  0  0  0  0
   -2.7226   20.6832  -27.1373 H   0  0  0  0  0  0  0  0  0  0  0  0
    0.6255   16.8541  -28.5883 H   0  0  0  0  0  0  0  0  0  0  0  0
    0.0981   16.5419  -30.3047 H   0  0  0  0  0  0  0  0  0  0  0  0
    2.3390   18.3865  -29.3573 H   0  0  0  0  0  0  0  0  0  0  0  0
    2.4753   16.8614  -30.3240 H   0  0  0  0  0  0  0  0  0  0  0  0
    1.4079   20.2197  -30.2546 H   0  0  0  0  0  0  0  0  0  0  0  0
    0.9300   20.2569  -31.9907 H   0  0  0  0  0  0  0  0  0  0  0  0
   -1.0501   20.1632  -30.4806 H   0  0  0  0  0  0  0  0  0  0  0  0
   -0.9141   18.6966  -31.5370 H   0  0  0  0  0  0  0  0  0  0  0  0
    0.8223   21.4564  -29.4978 H   0  0  0  0  0  0  0  0  0  0  0  0
    0.0565   23.7961  -29.8959 H   0  0  0  0  0  0  0  0  0  0  0  0
   -2.8561   23.0103  -31.2070 H   0  0  0  0  0  0  0  0  0  0  0  0
  1  2  1  0
  2  3  1  0
  3  4  2  0
  4  5  1  0
  5  6  2  0
  6  7  1  0
  7  8  2  0
  8  9  1  0
  9 10  1  0
 10 11  2  0
 10 12  2  0
 10 13  1  0
 13 14  2  0
 14 15  1  0
 15 16  2  0
 16 17  1  0
 16 18  1  0
 18 19  1  0
 19 20  1  0
 20 21  2  0
 20 22  1  0
 22 23  2  0
 23 24  1  0
 24 25  2  0
 25 26  1  0
 26 27  2  0
 26 28  2  0
 26 29  1  0
 29 30  1  0
 30 31  1  0
 31 32  1  0
 32 33  1  0
 33 34  1  0
 25 35  1  0
 35 36  2  0
 18 37  2  0
  8  3  1  0
 37 13  1  0
 36 22  1  0
 34 29  1  0
  1 38  1  0
  1 39  1  0
  1 40  1  0
  4 41  1  0
  5 42  1  0
  6 43  1  0
  7 44  1  0
 14 45  1  0
 15 46  1  0
 17 47  1  0
 23 48  1  0
 24 49  1  0
 30 50  1  0
 30 51  1  0
 31 52  1  0
 31 53  1  0
 33 54  1  0
 33 55  1  0
 34 56  1  0
 34 57  1  0
 35 58  1  0
 36 59  1  0
 37 60  1  0
M  CHG  2   9  -1  19  -1
M  END
>  <UniqueID>  (47) 
46

>  <SMILES>  (47) 
COc1ccccc1[N-]S(=O)(=O)c1ccc(O)c([N-]C(=O)c2ccc(S(=O)(=O)N3CCOCC3)cc2)c1

>  <Energy>  (47) 
83.99832747641135

>  <Genealogy>  (47) 
COc1ccccc1[N-]S(=O)(=O)c1ccc(O)c([N-]C(=O)c2ccc(S(=O)(=O)N3CCOCC3)cc2)c1 (protonated)
COc1ccccc1[N-]S(=O)(=O)c1ccc(O)c([N-]C(=O)c2ccc(S(=O)(=O)N3CCOCC3)cc2)c1 (3D coordinates assigned)
COc1ccccc1[N-]S(=O)(=O)c1ccc(O)c([N-]C(=O)c2ccc(S(=O)(=O)N3CCOCC3)cc2)c1 (nonaromatic ring conformer: 83.99832747641135 kcal/mol)

>  <smiles>  (47) 
COc1ccccc1NS(=O)(=O)c1ccc(O)c(NC(=O)c2ccc(S(=O)(=O)N3CCOCC3)cc2)c1

>  <score_type>  (47) 
oracle

>  <origin>  (47) 
adgpu

>  <m_score__min__energy>  (47) 
-12

>  <m_primary>  (47) 
energy

$$$$
47:0
     RDKit          3D

 62 66  0  0  0  0  0  0  0  0999 V2000
   -4.1450   25.6400  -30.8460 O   0  0  0  0  0  0  0  0  0  0  0  0
   -4.0720   24.5640  -30.1900 C   0  0  0  0  0  0  0  0  0  0  0  0
   -5.2660   23.9180  -29.7330 N   0  0  0  0  0  0  0  0  0  0  0  0
   -6.2670   23.3240  -30.5710 C   0  0  0  0  0  0  0  0  0  0  0  0
   -7.3920   24.0460  -30.9960 C   0  0  0  0  0  0  0  0  0  0  0  0
   -8.3280   23.4520  -31.8470 C   0  0  0  0  0  0  0  0  0  0  0  0
   -8.1410   22.1400  -32.2860 C   0  0  0  0  0  0  0  0  0  0  0  0
   -7.0120   21.4150  -31.8820 C   0  0  0  0  0  0  0  0  0  0  0  0
   -6.7930   19.7430  -32.4120 S   0  0  0  0  0  0  0  0  0  0  0  0
   -6.4400   18.8950  -31.2200 O   0  0  0  0  0  0  0  0  0  0  0  0
   -8.0910   19.2330  -32.9760 O   0  0  0  0  0  0  0  0  0  0  0  0
   -5.5470   19.5670  -33.6260 N   0  0  0  0  0  0  0  0  0  0  0  0
   -4.2380   20.0040  -33.1440 C   0  0  0  0  0  0  0  0  0  0  0  0
   -3.2030   19.2550  -33.9740 C   0  0  0  0  0  0  0  0  0  0  0  0
   -3.9490   18.0700  -34.5750 C   0  0  0  0  0  0  0  0  0  0  0  0
   -5.3670   18.1750  -34.0340 C   0  0  0  0  0  0  0  0  0  0  0  0
   -6.0780   22.0150  -31.0260 C   0  0  0  0  0  0  0  0  0  0  0  0
   -2.7550   24.0030  -29.8410 C   0  0  0  0  0  0  0  0  0  0  0  0
   -1.6730   24.6770  -29.3090 C   0  0  0  0  0  0  0  0  0  0  0  0
   -1.6140   26.0270  -28.9870 O   0  0  0  0  0  0  0  0  0  0  0  0
   -0.6580   23.7580  -29.1420 C   0  0  0  0  0  0  0  0  0  0  0  0
    0.5960   24.0370  -28.6010 O   0  0  0  0  0  0  0  0  0  0  0  0
   -1.0570   22.5350  -29.5700 N   0  0  0  0  0  0  0  0  0  0  0  0
   -0.3230   21.2580  -29.5460 C   0  0  0  0  0  0  0  0  0  0  0  0
   -0.8840   20.2930  -28.5100 C   0  0  0  0  0  0  0  0  0  0  0  0
   -2.1490   20.5640  -27.9500 C   0  0  0  0  0  0  0  0  0  0  0  0
   -2.7160   19.6930  -27.0150 C   0  0  0  0  0  0  0  0  0  0  0  0
   -2.0300   18.5440  -26.6210 C   0  0  0  0  0  0  0  0  0  0  0  0
   -0.7770   18.2550  -27.1720 C   0  0  0  0  0  0  0  0  0  0  0  0
   -0.2080   19.1160  -28.1180 C   0  0  0  0  0  0  0  0  0  0  0  0
   -0.2070   20.6620  -30.9380 C   0  0  0  0  0  0  0  0  0  0  0  0
   -0.1440   21.4770  -32.0870 C   0  0  0  0  0  0  0  0  0  0  0  0
   -0.0680   20.9020  -33.3580 C   0  0  0  0  0  0  0  0  0  0  0  0
   -0.0730   19.5130  -33.5020 C   0  0  0  0  0  0  0  0  0  0  0  0
   -0.1530   18.6950  -32.3730 C   0  0  0  0  0  0  0  0  0  0  0  0
   -0.2230   19.2650  -31.0970 C   0  0  0  0  0  0  0  0  0  0  0  0
   -2.3390   22.6880  -29.9790 C   0  0  0  0  0  0  0  0  0  0  0  0
   -3.1200   21.6470  -30.4710 O   0  0  0  0  0  0  0  0  0  0  0  0
   -7.5379   25.0827  -30.6585 H   0  0  0  0  0  0  0  0  0  0  0  0
   -9.2131   24.0189  -32.1713 H   0  0  0  0  0  0  0  0  0  0  0  0
   -8.8825   21.6737  -32.9514 H   0  0  0  0  0  0  0  0  0  0  0  0
   -4.1242   21.0893  -33.2828 H   0  0  0  0  0  0  0  0  0  0  0  0
   -4.1172   19.7938  -32.0710 H   0  0  0  0  0  0  0  0  0  0  0  0
   -2.8049   19.9027  -34.7689 H   0  0  0  0  0  0  0  0  0  0  0  0
   -2.3450   18.9331  -33.3655 H   0  0  0  0  0  0  0  0  0  0  0  0
   -3.9497   18.1315  -35.6733 H   0  0  0  0  0  0  0  0  0  0  0  0
   -3.4784   17.1114  -34.3112 H   0  0  0  0  0  0  0  0  0  0  0  0
   -6.0938   17.9100  -34.8160 H   0  0  0  0  0  0  0  0  0  0  0  0
   -5.5257   17.4869  -33.1906 H   0  0  0  0  0  0  0  0  0  0  0  0
   -5.1882   21.4511  -30.7092 H   0  0  0  0  0  0  0  0  0  0  0  0
    0.9430   24.9860  -28.5470 H   0  0  0  0  0  0  0  0  0  0  0  0
    0.7060   21.4653  -29.2171 H   0  0  0  0  0  0  0  0  0  0  0  0
   -2.6954   21.4698  -28.2517 H   0  0  0  0  0  0  0  0  0  0  0  0
   -3.7057   19.9143  -26.5889 H   0  0  0  0  0  0  0  0  0  0  0  0
   -2.4740   17.8657  -25.8776 H   0  0  0  0  0  0  0  0  0  0  0  0
   -0.2372   17.3484  -26.8610 H   0  0  0  0  0  0  0  0  0  0  0  0
    0.7707   18.8748  -28.5584 H   0  0  0  0  0  0  0  0  0  0  0  0
   -0.1548   22.5719  -31.9820 H   0  0  0  0  0  0  0  0  0  0  0  0
   -0.0040   21.5453  -34.2480 H   0  0  0  0  0  0  0  0  0  0  0  0
   -0.0140   19.0634  -34.5042 H   0  0  0  0  0  0  0  0  0  0  0  0
   -0.1610   17.6009  -32.4870 H   0  0  0  0  0  0  0  0  0  0  0  0
   -0.2910   18.6155  -30.2118 H   0  0  0  0  0  0  0  0  0  0  0  0
  1  2  2  0
  2  3  1  0
  3  4  1  0
  4  5  2  0
  5  6  1  0
  6  7  2  0
  7  8  1  0
  8  9  1  0
  9 10  2  0
  9 11  2  0
  9 12  1  0
 12 13  1  0
 13 14  1  0
 14 15  1  0
 15 16  1  0
  8 17  2  0
  2 18  1  0
 18 19  1  0
 19 20  1  0
 19 21  2  0
 21 22  1  0
 21 23  1  0
 23 24  1  0
 24 25  1  0
 25 26  2  0
 26 27  1  0
 27 28  2  0
 28 29  1  0
 29 30  2  0
 24 31  1  0
 31 32  2  0
 32 33  1  0
 33 34  2  0
 34 35  1  0
 35 36  2  0
 23 37  1  0
 37 38  1  0
 17  4  1  0
 37 18  2  0
 16 12  1  0
 30 25  1  0
 36 31  1  0
  5 39  1  0
  6 40  1  0
  7 41  1  0
 13 42  1  0
 13 43  1  0
 14 44  1  0
 14 45  1  0
 15 46  1  0
 15 47  1  0
 16 48  1  0
 16 49  1  0
 17 50  1  0
 22 51  1  0
 24 52  1  0
 26 53  1  0
 27 54  1  0
 28 55  1  0
 29 56  1  0
 30 57  1  0
 32 58  1  0
 33 59  1  0
 34 60  1  0
 35 61  1  0
 36 62  1  0
M  CHG  3   3  -1  20  -1  38  -1
M  END
>  <UniqueID>  (48) 
47

>  <SMILES>  (48) 
O=C([N-]c1cccc(S(=O)(=O)N2CCCC2)c1)c1c([O-])c(O)n(C(c2ccccc2)c2ccccc2)c1[O-]

>  <Energy>  (48) 
106.83423079929165

>  <Genealogy>  (48) 
O=C([N-]c1cccc(S(=O)(=O)N2CCCC2)c1)c1c([O-])c(O)n(C(c2ccccc2)c2ccccc2)c1[O-] (protonated)
O=C([N-]c1cccc(S(=O)(=O)N2CCCC2)c1)c1c([O-])c(O)n(C(c2ccccc2)c2ccccc2)c1[O-] (3D coordinates assigned)
O=C([N-]c1cccc(S(=O)(=O)N2CCCC2)c1)c1c([O-])c(O)n(C(c2ccccc2)c2ccccc2)c1[O-] (nonaromatic ring conformer: 106.83423079929165 kcal/mol)

>  <smiles>  (48) 
O=C(Nc1cccc(S(=O)(=O)N2CCCC2)c1)c1c(O)c(O)n(C(c2ccccc2)c2ccccc2)c1O

>  <score_type>  (48) 
oracle

>  <origin>  (48) 
adgpu

>  <m_score__min__energy>  (48) 
-14.67

>  <m_primary>  (48) 
energy

$$$$
48:0
     RDKit          3D

 50 53  0  0  0  0  0  0  0  0999 V2000
   -6.1070   25.6850  -29.3670 C   0  0  0  0  0  0  0  0  0  0  0  0
   -5.1970   25.3980  -30.4240 O   0  0  0  0  0  0  0  0  0  0  0  0
   -4.8380   24.1050  -30.8370 C   0  0  0  0  0  0  0  0  0  0  0  0
   -3.5070   23.6500  -30.7970 C   0  0  0  0  0  0  0  0  0  0  0  0
   -3.1790   22.3540  -31.2310 C   0  0  0  0  0  0  0  0  0  0  0  0
   -1.8630   21.8680  -31.2210 O   0  0  0  0  0  0  0  0  0  0  0  0
   -1.1160   21.5240  -32.3850 C   0  0  0  0  0  0  0  0  0  0  0  0
   -1.4390   20.1080  -32.7780 C   0  0  0  0  0  0  0  0  0  0  0  0
   -2.2960   19.8630  -33.8620 C   0  0  0  0  0  0  0  0  0  0  0  0
   -2.6140   18.5490  -34.2080 C   0  0  0  0  0  0  0  0  0  0  0  0
   -2.1030   17.5120  -33.4950 N   0  0  0  0  0  0  0  0  0  0  0  0
   -1.2790   17.7150  -32.4340 C   0  0  0  0  0  0  0  0  0  0  0  0
   -0.9310   19.0140  -32.0480 C   0  0  0  0  0  0  0  0  0  0  0  0
    0.1220   19.2320  -30.6550 Cl  0  0  0  0  0  0  0  0  0  0  0  0
   -4.1880   21.5060  -31.6930 C   0  0  0  0  0  0  0  0  0  0  0  0
   -5.5310   21.9280  -31.7200 C   0  0  0  0  0  0  0  0  0  0  0  0
   -6.5810   21.0900  -32.1750 C   0  0  0  0  0  0  0  0  0  0  0  0
   -6.3620   19.6830  -32.5770 C   0  0  0  0  0  0  0  0  0  0  0  0
   -6.1000   19.3600  -33.9190 C   0  0  0  0  0  0  0  0  0  0  0  0
   -5.8760   18.0320  -34.2930 C   0  0  0  0  0  0  0  0  0  0  0  0
   -5.9050   17.0140  -33.3320 C   0  0  0  0  0  0  0  0  0  0  0  0
   -5.6060   15.3440  -33.8040 S   0  0  0  0  0  0  0  0  0  0  0  0
   -4.9370   14.4510  -32.4200 C   0  0  0  0  0  0  0  0  0  0  0  0
   -6.8900   14.6990  -34.2440 O   0  0  0  0  0  0  0  0  0  0  0  0
   -4.6310   15.3070  -34.9470 O   0  0  0  0  0  0  0  0  0  0  0  0
   -6.1430   17.3350  -31.9890 C   0  0  0  0  0  0  0  0  0  0  0  0
   -6.3680   18.6630  -31.6120 C   0  0  0  0  0  0  0  0  0  0  0  0
   -7.8870   21.6020  -32.2310 C   0  0  0  0  0  0  0  0  0  0  0  0
   -8.1410   22.9060  -31.8160 C   0  0  0  0  0  0  0  0  0  0  0  0
   -7.1290   23.6880  -31.3640 N   0  0  0  0  0  0  0  0  0  0  0  0
   -5.8440   23.2450  -31.3040 C   0  0  0  0  0  0  0  0  0  0  0  0
   -5.6071   25.5274  -28.3999 H   0  0  0  0  0  0  0  0  0  0  0  0
   -6.4383   26.7312  -29.4423 H   0  0  0  0  0  0  0  0  0  0  0  0
   -6.9785   25.0181  -29.4423 H   0  0  0  0  0  0  0  0  0  0  0  0
   -2.7152   24.3153  -30.4223 H   0  0  0  0  0  0  0  0  0  0  0  0
   -1.3821   22.2042  -33.2075 H   0  0  0  0  0  0  0  0  0  0  0  0
   -0.0401   21.6133  -32.1741 H   0  0  0  0  0  0  0  0  0  0  0  0
   -2.7150   20.7026  -34.4361 H   0  0  0  0  0  0  0  0  0  0  0  0
   -3.2805   18.3525  -35.0607 H   0  0  0  0  0  0  0  0  0  0  0  0
   -0.8835   16.8537  -31.8756 H   0  0  0  0  0  0  0  0  0  0  0  0
   -3.9300   20.4947  -32.0405 H   0  0  0  0  0  0  0  0  0  0  0  0
   -6.0710   20.1553  -34.6783 H   0  0  0  0  0  0  0  0  0  0  0  0
   -5.6762   17.7857  -35.3463 H   0  0  0  0  0  0  0  0  0  0  0  0
   -5.2831   14.9130  -31.4836 H   0  0  0  0  0  0  0  0  0  0  0  0
   -5.2758   13.4052  -32.4600 H   0  0  0  0  0  0  0  0  0  0  0  0
   -3.8382   14.4822  -32.4600 H   0  0  0  0  0  0  0  0  0  0  0  0
   -6.1529   16.5401  -31.2288 H   0  0  0  0  0  0  0  0  0  0  0  0
   -6.5503   18.9093  -30.5555 H   0  0  0  0  0  0  0  0  0  0  0  0
   -8.7092   20.9728  -32.6027 H   0  0  0  0  0  0  0  0  0  0  0  0
   -9.1658   23.3038  -31.8547 H   0  0  0  0  0  0  0  0  0  0  0  0
  1  2  1  0
  2  3  1  0
  3  4  2  0
  4  5  1  0
  5  6  1  0
  6  7  1  0
  7  8  1  0
  8  9  2  0
  9 10  1  0
 10 11  2  0
 11 12  1  0
 12 13  2  0
 13 14  1  0
  5 15  2  0
 15 16  1  0
 16 17  2  0
 17 18  1  0
 18 19  2  0
 19 20  1  0
 20 21  2  0
 21 22  1  0
 22 23  1  0
 22 24  2  0
 22 25  2  0
 21 26  1  0
 26 27  2  0
 17 28  1  0
 28 29  2  0
 29 30  1  0
 30 31  2  0
 31  3  1  0
 13  8  1  0
 31 16  1  0
 27 18  1  0
  1 32  1  0
  1 33  1  0
  1 34  1  0
  4 35  1  0
  7 36  1  0
  7 37  1  0
  9 38  1  0
 10 39  1  0
 12 40  1  0
 15 41  1  0
 19 42  1  0
 20 43  1  0
 23 44  1  0
 23 45  1  0
 23 46  1  0
 26 47  1  0
 27 48  1  0
 28 49  1  0
 29 50  1  0
M  END
>  <UniqueID>  (49) 
48

>  <SMILES>  (49) 
COc1cc(OCc2ccncc2Cl)cc2c(-c3ccc(S(C)(=O)=O)cc3)ccnc12

>  <Energy>  (49) 
64.46606019849631

>  <Genealogy>  (49) 
COc1cc(OCc2ccncc2Cl)cc2c(-c3ccc(S(C)(=O)=O)cc3)ccnc12 (3D coordinates assigned)
COc1cc(OCc2ccncc2Cl)cc2c(-c3ccc(S(C)(=O)=O)cc3)ccnc12 (optimized conformer: 64.46606019849631 kcal/mol)

>  <smiles>  (49) 
COc1cc(OCc2ccncc2Cl)cc2c(-c3ccc(S(C)(=O)=O)cc3)ccnc12

>  <score_type>  (49) 
oracle

>  <origin>  (49) 
adgpu

>  <m_score__min__energy>  (49) 
-9.6500000000000004

>  <m_primary>  (49) 
energy

$$$$
49:0
     RDKit          3D

 55 58  0  0  0  0  0  0  0  0999 V2000
   -6.6890   25.7830  -29.7590 O   0  0  0  0  0  0  0  0  0  0  0  0
   -5.5710   24.8430  -30.1150 S   0  0  0  0  0  0  0  0  0  0  0  0
   -4.5680   25.5810  -30.9600 O   0  0  0  0  0  0  0  0  0  0  0  0
   -4.8000   24.2900  -28.6610 N   0  0  0  0  0  0  0  0  0  0  0  0
   -3.6210   23.4730  -28.6040 C   0  0  0  0  0  0  0  0  0  0  0  0
   -3.6350   22.1700  -28.0730 C   0  0  0  0  0  0  0  0  0  0  0  0
   -2.4610   21.4030  -28.0230 C   0  0  0  0  0  0  0  0  0  0  0  0
   -1.2620   21.9260  -28.5580 C   0  0  0  0  0  0  0  0  0  0  0  0
   -1.2490   23.2360  -29.0640 C   0  0  0  0  0  0  0  0  0  0  0  0
   -2.4170   24.0020  -29.0910 C   0  0  0  0  0  0  0  0  0  0  0  0
   -2.3770   25.2990  -29.5940 O   0  0  0  0  0  0  0  0  0  0  0  0
    0.0340   21.1460  -28.5170 C   0  0  0  0  0  0  0  0  0  0  0  0
   -0.1860   19.6410  -28.2940 C   0  0  0  0  0  0  0  0  0  0  0  0
   -1.1730   19.4110  -27.1520 C   0  0  0  0  0  0  0  0  0  0  0  0
   -2.5450   19.9820  -27.5190 C   0  0  0  0  0  0  0  0  0  0  0  0
   -6.2410   23.4680  -30.9860 C   0  0  0  0  0  0  0  0  0  0  0  0
   -7.6250   23.3590  -31.2020 C   0  0  0  0  0  0  0  0  0  0  0  0
   -8.1340   22.2980  -31.9520 C   0  0  0  0  0  0  0  0  0  0  0  0
   -7.2750   21.3320  -32.4940 C   0  0  0  0  0  0  0  0  0  0  0  0
   -7.8410   20.3080  -33.2570 O   0  0  0  0  0  0  0  0  0  0  0  0
   -5.8810   21.4220  -32.2630 C   0  0  0  0  0  0  0  0  0  0  0  0
   -4.7500   20.2480  -32.9540 S   0  0  0  0  0  0  0  0  0  0  0  0
   -5.3610   19.6490  -34.1900 O   0  0  0  0  0  0  0  0  0  0  0  0
   -4.4780   19.1400  -31.9670 O   0  0  0  0  0  0  0  0  0  0  0  0
   -3.2510   21.0570  -33.3520 N   0  0  0  0  0  0  0  0  0  0  0  0
   -2.5830   21.5830  -32.1270 C   0  0  0  0  0  0  0  0  0  0  0  0
   -1.4260   20.6910  -31.6450 C   0  0  0  0  0  0  0  0  0  0  0  0
   -0.3520   20.5370  -32.7390 C   0  0  0  0  0  0  0  0  0  0  0  0
   -0.9370   20.6110  -34.1630 C   0  0  0  0  0  0  0  0  0  0  0  0
   -2.4070   20.1630  -34.1790 C   0  0  0  0  0  0  0  0  0  0  0  0
   -5.3800   22.4960  -31.5090 C   0  0  0  0  0  0  0  0  0  0  0  0
   -4.5769   21.7479  -27.6928 H   0  0  0  0  0  0  0  0  0  0  0  0
   -0.3091   23.6635  -29.4431 H   0  0  0  0  0  0  0  0  0  0  0  0
    0.5599   21.2869  -29.4728 H   0  0  0  0  0  0  0  0  0  0  0  0
    0.6230   21.5249  -27.6688 H   0  0  0  0  0  0  0  0  0  0  0  0
   -0.5867   19.1928  -29.2152 H   0  0  0  0  0  0  0  0  0  0  0  0
    0.7756   19.1744  -28.0340 H   0  0  0  0  0  0  0  0  0  0  0  0
   -1.2668   18.3312  -26.9642 H   0  0  0  0  0  0  0  0  0  0  0  0
   -0.8024   19.9174  -26.2486 H   0  0  0  0  0  0  0  0  0  0  0  0
   -2.9902   19.3542  -28.3049 H   0  0  0  0  0  0  0  0  0  0  0  0
   -3.1616   19.9851  -26.6081 H   0  0  0  0  0  0  0  0  0  0  0  0
   -8.3080   24.1107  -30.7795 H   0  0  0  0  0  0  0  0  0  0  0  0
   -9.2183   22.2191  -32.1193 H   0  0  0  0  0  0  0  0  0  0  0  0
   -7.5010   20.0420  -34.1740 H   0  0  0  0  0  0  0  0  0  0  0  0
   -2.1855   22.5848  -32.3469 H   0  0  0  0  0  0  0  0  0  0  0  0
   -3.3361   21.6077  -31.3256 H   0  0  0  0  0  0  0  0  0  0  0  0
   -0.9687   21.1459  -30.7540 H   0  0  0  0  0  0  0  0  0  0  0  0
   -1.8281   19.6951  -31.4072 H   0  0  0  0  0  0  0  0  0  0  0  0
    0.3885   21.3418  -32.6207 H   0  0  0  0  0  0  0  0  0  0  0  0
    0.1039   19.5431  -32.6188 H   0  0  0  0  0  0  0  0  0  0  0  0
   -0.8731   21.6479  -34.5246 H   0  0  0  0  0  0  0  0  0  0  0  0
   -0.3590   19.9391  -34.8145 H   0  0  0  0  0  0  0  0  0  0  0  0
   -2.7755   20.1798  -35.2153 H   0  0  0  0  0  0  0  0  0  0  0  0
   -2.4650   19.1468  -33.7619 H   0  0  0  0  0  0  0  0  0  0  0  0
   -4.2979   22.5742  -31.3273 H   0  0  0  0  0  0  0  0  0  0  0  0
  1  2  2  0
  2  3  2  0
  2  4  1  0
  4  5  1  0
  5  6  2  0
  6  7  1  0
  7  8  2  0
  8  9  1  0
  9 10  2  0
 10 11  1  0
  8 12  1  0
 12 13  1  0
 13 14  1  0
 14 15  1  0
  2 16  1  0
 16 17  2  0
 17 18  1  0
 18 19  2  0
 19 20  1  0
 19 21  1  0
 21 22  1  0
 22 23  2  0
 22 24  2  0
 22 25  1  0
 25 26  1  0
 26 27  1  0
 27 28  1  0
 28 29  1  0
 29 30  1  0
 21 31  2  0
 10  5  1  0
 31 16  1  0
 15  7  1  0
 30 25  1  0
  6 32  1  0
  9 33  1  0
 12 34  1  0
 12 35  1  0
 13 36  1  0
 13 37  1  0
 14 38  1  0
 14 39  1  0
 15 40  1  0
 15 41  1  0
 17 42  1  0
 18 43  1  0
 20 44  1  0
 26 45  1  0
 26 46  1  0
 27 47  1  0
 27 48  1  0
 28 49  1  0
 28 50  1  0
 29 51  1  0
 29 52  1  0
 30 53  1  0
 30 54  1  0
 31 55  1  0
M  CHG  2   4  -1  11  -1
M  END
>  <UniqueID>  (50) 
49

>  <SMILES>  (50) 
O=S(=O)([N-]c1cc2c(cc1[O-])CCCC2)c1ccc(O)c(S(=O)(=O)N2CCCCC2)c1

>  <Energy>  (50) 
65.01973636484715

>  <Genealogy>  (50) 
O=S(=O)([N-]c1cc2c(cc1[O-])CCCC2)c1ccc(O)c(S(=O)(=O)N2CCCCC2)c1 (protonated)
O=S(=O)([N-]c1cc2c(cc1[O-])CCCC2)c1ccc(O)c(S(=O)(=O)N2CCCCC2)c1 (3D coordinates assigned)
O=S(=O)([N-]c1cc2c(cc1[O-])CCCC2)c1ccc(O)c(S(=O)(=O)N2CCCCC2)c1 (nonaromatic ring conformer: 65.01973636484715 kcal/mol)

>  <smiles>  (50) 
O=S(=O)(Nc1cc2c(cc1O)CCCC2)c1ccc(O)c(S(=O)(=O)N2CCCCC2)c1

>  <score_type>  (50) 
oracle

>  <origin>  (50) 
adgpu

>  <m_score__min__energy>  (50) 
-15.23

>  <m_primary>  (50) 
energy

$$$$
