0:0
     RDKit          3D

 60 63  0  0  0  0  0  0  0  0999 V2000
   -5.7770   25.3870  -28.6260 O   0  0  0  0  0  0  0  0  0  0  0  0
   -5.2160   25.2130  -30.0100 S   0  0  0  0  0  0  0  0  0  0  0  0
   -5.6250   26.3970  -30.8400 O   0  0  0  0  0  0  0  0  0  0  0  0
   -3.4840   25.1580  -29.9100 N   0  0  0  0  0  0  0  0  0  0  0  0
   -2.7540   24.0890  -29.3010 C   0  0  0  0  0  0  0  0  0  0  0  0
   -2.1250   23.1130  -30.0890 C   0  0  0  0  0  0  0  0  0  0  0  0
   -1.4050   22.0690  -29.4930 C   0  0  0  0  0  0  0  0  0  0  0  0
   -0.5930   20.8660  -30.5000 S   0  0  0  0  0  0  0  0  0  0  0  0
    0.3600   20.0730  -29.6490 O   0  0  0  0  0  0  0  0  0  0  0  0
    0.2060   21.5660  -31.5630 O   0  0  0  0  0  0  0  0  0  0  0  0
   -1.7360   19.7760  -31.2500 N   0  0  0  0  0  0  0  0  0  0  0  0
   -2.9320   20.4980  -31.7520 C   0  0  0  0  0  0  0  0  0  0  0  0
   -2.9210   20.6890  -33.2750 C   0  0  0  0  0  0  0  0  0  0  0  0
   -2.8440   19.3350  -34.0030 C   0  0  0  0  0  0  0  0  0  0  0  0
   -2.0630   18.2740  -33.2050 C   0  0  0  0  0  0  0  0  0  0  0  0
   -1.0570   18.9290  -32.2550 C   0  0  0  0  0  0  0  0  0  0  0  0
   -1.3400   21.9850  -28.0970 C   0  0  0  0  0  0  0  0  0  0  0  0
   -2.0010   22.9270  -27.3060 C   0  0  0  0  0  0  0  0  0  0  0  0
   -2.7120   23.9750  -27.8990 C   0  0  0  0  0  0  0  0  0  0  0  0
   -3.3600   24.8990  -27.0770 O   0  0  0  0  0  0  0  0  0  0  0  0
   -5.8850   23.7440  -30.7150 C   0  0  0  0  0  0  0  0  0  0  0  0
   -5.1970   23.0730  -31.7360 C   0  0  0  0  0  0  0  0  0  0  0  0
   -5.7650   21.9520  -32.3470 C   0  0  0  0  0  0  0  0  0  0  0  0
   -7.0230   21.4860  -31.9370 C   0  0  0  0  0  0  0  0  0  0  0  0
   -7.7470   20.0820  -32.7220 S   0  0  0  0  0  0  0  0  0  0  0  0
   -9.2330   20.2900  -32.8290 O   0  0  0  0  0  0  0  0  0  0  0  0
   -7.1980   19.9590  -34.1160 O   0  0  0  0  0  0  0  0  0  0  0  0
   -7.4340   18.6010  -31.8420 N   0  0  0  0  0  0  0  0  0  0  0  0
   -6.0440   18.5450  -31.3780 C   0  0  0  0  0  0  0  0  0  0  0  0
   -5.2440   17.6970  -32.3550 C   0  0  0  0  0  0  0  0  0  0  0  0
   -6.2660   16.9790  -33.2130 C   0  0  0  0  0  0  0  0  0  0  0  0
   -7.6260   17.4270  -32.6990 C   0  0  0  0  0  0  0  0  0  0  0  0
   -7.7070   22.1550  -30.9130 C   0  0  0  0  0  0  0  0  0  0  0  0
   -7.1410   23.2780  -30.3040 C   0  0  0  0  0  0  0  0  0  0  0  0
   -2.1978   23.1680  -31.1852 H   0  0  0  0  0  0  0  0  0  0  0  0
   -3.8292   19.9240  -31.4771 H   0  0  0  0  0  0  0  0  0  0  0  0
   -2.9289   21.4984  -31.2946 H   0  0  0  0  0  0  0  0  0  0  0  0
   -3.8420   21.2082  -33.5786 H   0  0  0  0  0  0  0  0  0  0  0  0
   -2.0353   21.2822  -33.5462 H   0  0  0  0  0  0  0  0  0  0  0  0
   -3.8670   18.9669  -34.1703 H   0  0  0  0  0  0  0  0  0  0  0  0
   -2.3097   19.4975  -34.9507 H   0  0  0  0  0  0  0  0  0  0  0  0
   -2.7722   17.6720  -32.6179 H   0  0  0  0  0  0  0  0  0  0  0  0
   -1.5116   17.6392  -33.9142 H   0  0  0  0  0  0  0  0  0  0  0  0
   -0.4904   18.1420  -31.7357 H   0  0  0  0  0  0  0  0  0  0  0  0
   -0.3853   19.5668  -32.8483 H   0  0  0  0  0  0  0  0  0  0  0  0
   -0.7669   21.1750  -27.6221 H   0  0  0  0  0  0  0  0  0  0  0  0
   -1.9622   22.8442  -26.2098 H   0  0  0  0  0  0  0  0  0  0  0  0
   -3.9930   25.6000  -27.4430 H   0  0  0  0  0  0  0  0  0  0  0  0
   -4.2073   23.4301  -32.0569 H   0  0  0  0  0  0  0  0  0  0  0  0
   -5.2239   21.4333  -33.1521 H   0  0  0  0  0  0  0  0  0  0  0  0
   -5.6246   19.5611  -31.3385 H   0  0  0  0  0  0  0  0  0  0  0  0
   -5.9997   18.1038  -30.3713 H   0  0  0  0  0  0  0  0  0  0  0  0
   -4.6011   18.3354  -32.9788 H   0  0  0  0  0  0  0  0  0  0  0  0
   -4.5863   16.9880  -31.8308 H   0  0  0  0  0  0  0  0  0  0  0  0
   -6.1443   17.2597  -34.2696 H   0  0  0  0  0  0  0  0  0  0  0  0
   -6.1499   15.8868  -33.1528 H   0  0  0  0  0  0  0  0  0  0  0  0
   -8.2758   17.6886  -33.5471 H   0  0  0  0  0  0  0  0  0  0  0  0
   -8.0996   16.6154  -32.1271 H   0  0  0  0  0  0  0  0  0  0  0  0
   -8.6938   21.7944  -30.5872 H   0  0  0  0  0  0  0  0  0  0  0  0
   -7.6827   23.7976  -29.4999 H   0  0  0  0  0  0  0  0  0  0  0  0
  1  2  2  0
  2  3  2  0
  2  4  1  0
  4  5  1  0
  5  6  2  0
  6  7  1  0
  7  8  1  0
  8  9  2  0
  8 10  2  0
  8 11  1  0
 11 12  1  0
 12 13  1  0
 13 14  1  0
 14 15  1  0
 15 16  1  0
  7 17  2  0
 17 18  1  0
 18 19  2  0
 19 20  1  0
  2 21  1  0
 21 22  2  0
 22 23  1  0
 23 24  2  0
 24 25  1  0
 25 26  2  0
 25 27  2  0
 25 28  1  0
 28 29  1  0
 29 30  1  0
 30 31  1  0
 31 32  1  0
 24 33  1  0
 33 34  2  0
 19  5  1  0
 34 21  1  0
 16 11  1  0
 32 28  1  0
  6 35  1  0
 12 36  1  0
 12 37  1  0
 13 38  1  0
 13 39  1  0
 14 40  1  0
 14 41  1  0
 15 42  1  0
 15 43  1  0
 16 44  1  0
 16 45  1  0
 17 46  1  0
 18 47  1  0
 20 48  1  0
 22 49  1  0
 23 50  1  0
 29 51  1  0
 29 52  1  0
 30 53  1  0
 30 54  1  0
 31 55  1  0
 31 56  1  0
 32 57  1  0
 32 58  1  0
 33 59  1  0
 34 60  1  0
M  CHG  1   4  -1
M  END
>  <UniqueID>  (1) 
1

>  <SMILES>  (1) 
O=S(=O)([N-]c1cc(S(=O)(=O)N2CCCCC2)ccc1O)c1ccc(S(=O)(=O)N2CCCC2)cc1

>  <Energy>  (1) 
73.0847039555444

>  <Genealogy>  (1) 
O=S(=O)([N-]c1cc(S(=O)(=O)N2CCCCC2)ccc1O)c1ccc(S(=O)(=O)N2CCCC2)cc1 (protonated)
O=S(=O)([N-]c1cc(S(=O)(=O)N2CCCCC2)ccc1O)c1ccc(S(=O)(=O)N2CCCC2)cc1 (3D coordinates assigned)
O=S(=O)([N-]c1cc(S(=O)(=O)N2CCCCC2)ccc1O)c1ccc(S(=O)(=O)N2CCCC2)cc1 (nonaromatic ring conformer: 73.0847039555444 kcal/mol)

>  <smiles>  (1) 
O=S(=O)(Nc1cc(S(=O)(=O)N2CCCCC2)ccc1O)c1ccc(S(=O)(=O)N2CCCC2)cc1

>  <score_type>  (1) 
oracle

>  <origin>  (1) 
adgpu

>  <m_score__min__energy>  (1) 
-12.029999999999999

>  <m_primary>  (1) 
energy

$$$$
1:0
     RDKit          3D

 52 55  0  0  0  0  0  0  0  0999 V2000
   -3.9630   23.6280  -27.4050 O   0  0  0  0  0  0  0  0  0  0  0  0
   -3.0190   24.2170  -28.0030 C   0  0  0  0  0  0  0  0  0  0  0  0
   -2.7790   23.9260  -29.3840 N   0  0  0  0  0  0  0  0  0  0  0  0
   -3.5450   24.5280  -30.4660 C   0  0  0  0  0  0  0  0  0  0  0  0
   -4.8360   23.7730  -30.6430 C   0  0  0  0  0  0  0  0  0  0  0  0
   -6.0180   24.3230  -30.1180 C   0  0  0  0  0  0  0  0  0  0  0  0
   -7.2420   23.6750  -30.2950 C   0  0  0  0  0  0  0  0  0  0  0  0
   -7.3020   22.4720  -31.0020 C   0  0  0  0  0  0  0  0  0  0  0  0
   -8.8430   21.6650  -31.2290 Cl  0  0  0  0  0  0  0  0  0  0  0  0
   -6.1350   21.9160  -31.5350 C   0  0  0  0  0  0  0  0  0  0  0  0
   -4.9020   22.5580  -31.3630 C   0  0  0  0  0  0  0  0  0  0  0  0
   -3.7260   21.9670  -31.9310 N   0  0  0  0  0  0  0  0  0  0  0  0
   -3.6420   21.7970  -33.3850 C   0  0  0  0  0  0  0  0  0  0  0  0
   -2.4660   20.8960  -33.7720 C   0  0  0  0  0  0  0  0  0  0  0  0
   -1.2380   21.3190  -33.0820 N   0  0  0  0  0  0  0  0  0  0  0  0
    0.0390   21.1360  -33.7290 C   0  0  0  0  0  0  0  0  0  0  0  0
    0.8970   20.0820  -33.3640 C   0  0  0  0  0  0  0  0  0  0  0  0
    2.1320   19.9460  -34.0060 C   0  0  0  0  0  0  0  0  0  0  0  0
    2.5020   20.8480  -35.0050 C   0  0  0  0  0  0  0  0  0  0  0  0
    1.6280   21.8830  -35.3420 C   0  0  0  0  0  0  0  0  0  0  0  0
    0.4330   22.0030  -34.7040 N   0  0  0  0  0  0  0  0  0  0  0  0
   -1.2970   21.7650  -31.6790 C   0  0  0  0  0  0  0  0  0  0  0  0
   -2.6620   21.4820  -31.0500 C   0  0  0  0  0  0  0  0  0  0  0  0
   -2.1810   25.2070  -27.2750 C   0  0  0  0  0  0  0  0  0  0  0  0
   -2.2900   25.3010  -25.8710 C   0  0  0  0  0  0  0  0  0  0  0  0
   -1.5330   26.2310  -25.1580 C   0  0  0  0  0  0  0  0  0  0  0  0
   -0.6530   27.0770  -25.8280 C   0  0  0  0  0  0  0  0  0  0  0  0
   -0.5310   27.0020  -27.2150 C   0  0  0  0  0  0  0  0  0  0  0  0
   -1.2890   26.0770  -27.9470 C   0  0  0  0  0  0  0  0  0  0  0  0
   -1.1540   26.0380  -29.3360 O   0  0  0  0  0  0  0  0  0  0  0  0
   -3.7640   25.5778  -30.2211 H   0  0  0  0  0  0  0  0  0  0  0  0
   -2.9624   24.4845  -31.3980 H   0  0  0  0  0  0  0  0  0  0  0  0
   -5.9785   25.2719  -29.5630 H   0  0  0  0  0  0  0  0  0  0  0  0
   -8.1605   24.1126  -29.8770 H   0  0  0  0  0  0  0  0  0  0  0  0
   -6.1855   20.9691  -32.0925 H   0  0  0  0  0  0  0  0  0  0  0  0
   -4.5760   21.3427  -33.7473 H   0  0  0  0  0  0  0  0  0  0  0  0
   -3.4875   22.7855  -33.8421 H   0  0  0  0  0  0  0  0  0  0  0  0
   -2.6986   19.8582  -33.4914 H   0  0  0  0  0  0  0  0  0  0  0  0
   -2.3054   20.9709  -34.8576 H   0  0  0  0  0  0  0  0  0  0  0  0
    0.5986   19.3706  -32.5798 H   0  0  0  0  0  0  0  0  0  0  0  0
    2.8116   19.1284  -33.7238 H   0  0  0  0  0  0  0  0  0  0  0  0
    3.4688   20.7447  -35.5195 H   0  0  0  0  0  0  0  0  0  0  0  0
    1.9065   22.6032  -36.1254 H   0  0  0  0  0  0  0  0  0  0  0  0
   -0.5233   21.2351  -31.1041 H   0  0  0  0  0  0  0  0  0  0  0  0
   -1.1298   22.8520  -31.6585 H   0  0  0  0  0  0  0  0  0  0  0  0
   -2.7774   20.3983  -30.9009 H   0  0  0  0  0  0  0  0  0  0  0  0
   -2.7292   21.9995  -30.0816 H   0  0  0  0  0  0  0  0  0  0  0  0
   -2.9794   24.6337  -25.3330 H   0  0  0  0  0  0  0  0  0  0  0  0
   -1.6315   26.2961  -24.0644 H   0  0  0  0  0  0  0  0  0  0  0  0
   -0.0533   27.8054  -25.2624 H   0  0  0  0  0  0  0  0  0  0  0  0
    0.1651   27.6736  -27.7389 H   0  0  0  0  0  0  0  0  0  0  0  0
   -1.0650   25.1610  -29.8410 H   0  0  0  0  0  0  0  0  0  0  0  0
  1  2  2  0
  2  3  1  0
  3  4  1  0
  4  5  1  0
  5  6  2  0
  6  7  1  0
  7  8  2  0
  8  9  1  0
  8 10  1  0
 10 11  2  0
 11 12  1  0
 12 13  1  0
 13 14  1  0
 14 15  1  0
 15 16  1  0
 16 17  2  0
 17 18  1  0
 18 19  2  0
 19 20  1  0
 20 21  2  0
 15 22  1  0
 22 23  1  0
  2 24  1  0
 24 25  2  0
 25 26  1  0
 26 27  2  0
 27 28  1  0
 28 29  2  0
 29 30  1  0
 11  5  1  0
 23 12  1  0
 29 24  1  0
 21 16  1  0
  4 31  1  0
  4 32  1  0
  6 33  1  0
  7 34  1  0
 10 35  1  0
 13 36  1  0
 13 37  1  0
 14 38  1  0
 14 39  1  0
 17 40  1  0
 18 41  1  0
 19 42  1  0
 20 43  1  0
 22 44  1  0
 22 45  1  0
 23 46  1  0
 23 47  1  0
 25 48  1  0
 26 49  1  0
 27 50  1  0
 28 51  1  0
 30 52  1  0
M  CHG  1   3  -1
M  END
>  <UniqueID>  (2) 
2

>  <SMILES>  (2) 
O=C([N-]Cc1ccc(Cl)cc1N1CCN(c2ccccn2)CC1)c1ccccc1O

>  <Energy>  (2) 
63.92710916290262

>  <Genealogy>  (2) 
O=C([N-]Cc1ccc(Cl)cc1N1CCN(c2ccccn2)CC1)c1ccccc1O (protonated)
O=C([N-]Cc1ccc(Cl)cc1N1CCN(c2ccccn2)CC1)c1ccccc1O (3D coordinates assigned)
O=C([N-]Cc1ccc(Cl)cc1N1CCN(c2ccccn2)CC1)c1ccccc1O (nonaromatic ring conformer: 63.92710916290262 kcal/mol)

>  <smiles>  (2) 
O=C(NCc1ccc(Cl)cc1N1CCN(c2ccccn2)CC1)c1ccccc1O

>  <score_type>  (2) 
oracle

>  <origin>  (2) 
adgpu

>  <m_score__min__energy>  (2) 
-11.279999999999999

>  <m_primary>  (2) 
energy

$$$$
2:0
     RDKit          3D

 57 60  0  0  0  0  0  0  0  0999 V2000
   -5.0010   26.3570  -30.4660 O   0  0  0  0  0  0  0  0  0  0  0  0
   -4.5720   25.1770  -30.5650 C   0  0  0  0  0  0  0  0  0  0  0  0
   -3.1770   24.9230  -30.3500 N   0  0  0  0  0  0  0  0  0  0  0  0
   -2.6450   23.7280  -29.7640 C   0  0  0  0  0  0  0  0  0  0  0  0
   -2.5730   23.5690  -28.3700 C   0  0  0  0  0  0  0  0  0  0  0  0
   -2.0270   22.4060  -27.8240 C   0  0  0  0  0  0  0  0  0  0  0  0
   -1.5560   21.3920  -28.6620 C   0  0  0  0  0  0  0  0  0  0  0  0
   -1.6500   21.5300  -30.0530 C   0  0  0  0  0  0  0  0  0  0  0  0
   -1.0020   20.2750  -31.1060 S   0  0  0  0  0  0  0  0  0  0  0  0
   -0.0200   19.4440  -30.3280 O   0  0  0  0  0  0  0  0  0  0  0  0
   -2.1160   19.3820  -31.5780 O   0  0  0  0  0  0  0  0  0  0  0  0
   -0.1980   21.0140  -32.4690 N   0  0  0  0  0  0  0  0  0  0  0  0
   -1.1350   21.1400  -33.5980 C   0  0  0  0  0  0  0  0  0  0  0  0
   -0.3970   21.6140  -34.8680 C   0  0  0  0  0  0  0  0  0  0  0  0
    0.9520   21.9400  -34.5920 O   0  0  0  0  0  0  0  0  0  0  0  0
    1.6310   20.7900  -34.1240 C   0  0  0  0  0  0  0  0  0  0  0  0
    0.9690   20.2070  -32.8580 C   0  0  0  0  0  0  0  0  0  0  0  0
   -2.2070   22.6950  -30.6000 C   0  0  0  0  0  0  0  0  0  0  0  0
   -5.5200   24.0860  -30.8850 C   0  0  0  0  0  0  0  0  0  0  0  0
   -5.0440   22.9580  -31.5720 C   0  0  0  0  0  0  0  0  0  0  0  0
   -5.8940   21.8780  -31.8490 C   0  0  0  0  0  0  0  0  0  0  0  0
   -5.2690   20.4420  -32.6670 S   0  0  0  0  0  0  0  0  0  0  0  0
   -4.1290   20.8400  -33.5630 O   0  0  0  0  0  0  0  0  0  0  0  0
   -4.7350   19.4820  -31.6390 O   0  0  0  0  0  0  0  0  0  0  0  0
   -6.5080   19.6330  -33.6040 N   0  0  0  0  0  0  0  0  0  0  0  0
   -5.9170   18.6710  -34.5390 C   0  0  0  0  0  0  0  0  0  0  0  0
   -6.0210   17.2920  -33.9140 C   0  0  0  0  0  0  0  0  0  0  0  0
   -7.1990   17.3850  -32.9720 C   0  0  0  0  0  0  0  0  0  0  0  0
   -7.4300   18.8750  -32.7450 C   0  0  0  0  0  0  0  0  0  0  0  0
   -7.2330   21.9330  -31.4500 C   0  0  0  0  0  0  0  0  0  0  0  0
   -7.7210   23.0560  -30.7800 C   0  0  0  0  0  0  0  0  0  0  0  0
   -6.8830   24.1420  -30.5050 C   0  0  0  0  0  0  0  0  0  0  0  0
   -7.4400   25.2630  -29.8860 O   0  0  0  0  0  0  0  0  0  0  0  0
   -2.9478   24.3628  -27.7071 H   0  0  0  0  0  0  0  0  0  0  0  0
   -1.9675   22.2877  -26.7320 H   0  0  0  0  0  0  0  0  0  0  0  0
   -1.1108   20.4841  -28.2290 H   0  0  0  0  0  0  0  0  0  0  0  0
   -1.5987   20.1619  -33.7935 H   0  0  0  0  0  0  0  0  0  0  0  0
   -1.9047   21.8817  -33.3382 H   0  0  0  0  0  0  0  0  0  0  0  0
   -0.4243   20.8101  -35.6184 H   0  0  0  0  0  0  0  0  0  0  0  0
   -0.9007   22.5170  -35.2434 H   0  0  0  0  0  0  0  0  0  0  0  0
    1.6219   20.0252  -34.9145 H   0  0  0  0  0  0  0  0  0  0  0  0
    2.6599   21.0822  -33.8672 H   0  0  0  0  0  0  0  0  0  0  0  0
    0.6446   19.1758  -33.0613 H   0  0  0  0  0  0  0  0  0  0  0  0
    1.7001   20.2193  -32.0362 H   0  0  0  0  0  0  0  0  0  0  0  0
   -2.3000   22.7972  -31.6913 H   0  0  0  0  0  0  0  0  0  0  0  0
   -3.9935   22.9212  -31.8962 H   0  0  0  0  0  0  0  0  0  0  0  0
   -6.4645   18.6917  -35.4929 H   0  0  0  0  0  0  0  0  0  0  0  0
   -4.8651   18.9245  -34.7370 H   0  0  0  0  0  0  0  0  0  0  0  0
   -6.2008   16.5290  -34.6857 H   0  0  0  0  0  0  0  0  0  0  0  0
   -5.0960   16.9994  -33.3956 H   0  0  0  0  0  0  0  0  0  0  0  0
   -8.0891   16.9236  -33.4245 H   0  0  0  0  0  0  0  0  0  0  0  0
   -7.0058   16.8558  -32.0272 H   0  0  0  0  0  0  0  0  0  0  0  0
   -8.4687   19.1314  -33.0005 H   0  0  0  0  0  0  0  0  0  0  0  0
   -7.2486   19.1251  -31.6893 H   0  0  0  0  0  0  0  0  0  0  0  0
   -7.9041   21.0883  -31.6649 H   0  0  0  0  0  0  0  0  0  0  0  0
   -8.7745   23.0874  -30.4652 H   0  0  0  0  0  0  0  0  0  0  0  0
   -6.8830   26.0030  -29.4830 H   0  0  0  0  0  0  0  0  0  0  0  0
  1  2  2  0
  2  3  1  0
  3  4  1  0
  4  5  2  0
  5  6  1  0
  6  7  2  0
  7  8  1  0
  8  9  1  0
  9 10  2  0
  9 11  2  0
  9 12  1  0
 12 13  1  0
 13 14  1  0
 14 15  1  0
 15 16  1  0
 16 17  1  0
  8 18  2  0
  2 19  1  0
 19 20  2  0
 20 21  1  0
 21 22  1  0
 22 23  2  0
 22 24  2  0
 22 25  1  0
 25 26  1  0
 26 27  1  0
 27 28  1  0
 28 29  1  0
 21 30  2  0
 30 31  1  0
 31 32  2  0
 32 33  1  0
 18  4  1  0
 32 19  1  0
 17 12  1  0
 29 25  1  0
  5 34  1  0
  6 35  1  0
  7 36  1  0
 13 37  1  0
 13 38  1  0
 14 39  1  0
 14 40  1  0
 16 41  1  0
 16 42  1  0
 17 43  1  0
 17 44  1  0
 18 45  1  0
 20 46  1  0
 26 47  1  0
 26 48  1  0
 27 49  1  0
 27 50  1  0
 28 51  1  0
 28 52  1  0
 29 53  1  0
 29 54  1  0
 30 55  1  0
 31 56  1  0
 33 57  1  0
M  CHG  1   3  -1
M  END
>  <UniqueID>  (3) 
3

>  <SMILES>  (3) 
O=C([N-]c1cccc(S(=O)(=O)N2CCOCC2)c1)c1cc(S(=O)(=O)N2CCCC2)ccc1O

>  <Energy>  (3) 
74.43868309860103

>  <Genealogy>  (3) 
O=C([N-]c1cccc(S(=O)(=O)N2CCOCC2)c1)c1cc(S(=O)(=O)N2CCCC2)ccc1O (protonated)
O=C([N-]c1cccc(S(=O)(=O)N2CCOCC2)c1)c1cc(S(=O)(=O)N2CCCC2)ccc1O (3D coordinates assigned)
O=C([N-]c1cccc(S(=O)(=O)N2CCOCC2)c1)c1cc(S(=O)(=O)N2CCCC2)ccc1O (nonaromatic ring conformer: 74.43868309860103 kcal/mol)

>  <smiles>  (3) 
O=C(Nc1cccc(S(=O)(=O)N2CCOCC2)c1)c1cc(S(=O)(=O)N2CCCC2)ccc1O

>  <score_type>  (3) 
oracle

>  <origin>  (3) 
adgpu

>  <m_score__min__energy>  (3) 
-12.470000000000001

>  <m_primary>  (3) 
energy

$$$$
3:0
     RDKit          3D

 43 46  0  0  0  0  0  0  0  0999 V2000
   -7.4750   23.9230  -32.7890 O   0  0  0  0  0  0  0  0  0  0  0  0
   -6.8480   23.1190  -31.6850 S   0  0  0  0  0  0  0  0  0  0  0  0
   -7.3480   23.6240  -30.3590 O   0  0  0  0  0  0  0  0  0  0  0  0
   -5.1200   23.3090  -31.7470 N   0  0  0  0  0  0  0  0  0  0  0  0
   -4.2770   23.2860  -30.5780 C   0  0  0  0  0  0  0  0  0  0  0  0
   -4.0430   22.0940  -29.8640 C   0  0  0  0  0  0  0  0  0  0  0  0
   -3.2010   22.0880  -28.7470 C   0  0  0  0  0  0  0  0  0  0  0  0
   -2.5980   23.2710  -28.3190 C   0  0  0  0  0  0  0  0  0  0  0  0
   -2.8310   24.4640  -29.0070 C   0  0  0  0  0  0  0  0  0  0  0  0
   -3.6630   24.4760  -30.1340 C   0  0  0  0  0  0  0  0  0  0  0  0
   -3.8680   25.6720  -30.8120 O   0  0  0  0  0  0  0  0  0  0  0  0
   -7.2820   21.4250  -31.9030 C   0  0  0  0  0  0  0  0  0  0  0  0
   -8.3000   20.8470  -31.1290 C   0  0  0  0  0  0  0  0  0  0  0  0
   -8.6230   19.4940  -31.2890 C   0  0  0  0  0  0  0  0  0  0  0  0
   -7.9320   18.7130  -32.2210 C   0  0  0  0  0  0  0  0  0  0  0  0
   -6.9150   19.2860  -33.0000 C   0  0  0  0  0  0  0  0  0  0  0  0
   -6.0110   18.3170  -34.1560 S   0  0  0  0  0  0  0  0  0  0  0  0
   -6.1120   18.9030  -35.5400 O   0  0  0  0  0  0  0  0  0  0  0  0
   -6.5760   16.9240  -34.1750 O   0  0  0  0  0  0  0  0  0  0  0  0
   -4.3460   18.2750  -33.6770 N   0  0  0  0  0  0  0  0  0  0  0  0
   -3.5980   17.1710  -33.4430 C   0  0  0  0  0  0  0  0  0  0  0  0
   -2.3110   17.5370  -33.0360 C   0  0  0  0  0  0  0  0  0  0  0  0
   -2.3100   18.9210  -33.0300 C   0  0  0  0  0  0  0  0  0  0  0  0
   -1.3220   19.8470  -32.6990 C   0  0  0  0  0  0  0  0  0  0  0  0
   -1.6580   21.2140  -32.7840 C   0  0  0  0  0  0  0  0  0  0  0  0
   -2.9590   21.5930  -33.1920 C   0  0  0  0  0  0  0  0  0  0  0  0
   -3.8940   20.6420  -33.5040 N   0  0  0  0  0  0  0  0  0  0  0  0
   -3.5530   19.3290  -33.4190 C   0  0  0  0  0  0  0  0  0  0  0  0
   -6.6020   20.6440  -32.8470 C   0  0  0  0  0  0  0  0  0  0  0  0
   -4.6850   23.3180  -32.6970 H   0  0  0  0  0  0  0  0  0  0  0  0
   -4.5264   21.1604  -30.1877 H   0  0  0  0  0  0  0  0  0  0  0  0
   -3.0140   21.1491  -28.2053 H   0  0  0  0  0  0  0  0  0  0  0  0
   -1.9383   23.2642  -27.4388 H   0  0  0  0  0  0  0  0  0  0  0  0
   -2.3599   25.3966  -28.6630 H   0  0  0  0  0  0  0  0  0  0  0  0
   -8.8454   21.4583  -30.3949 H   0  0  0  0  0  0  0  0  0  0  0  0
   -9.4216   19.0445  -30.6806 H   0  0  0  0  0  0  0  0  0  0  0  0
   -8.1857   17.6497  -32.3434 H   0  0  0  0  0  0  0  0  0  0  0  0
   -3.9515   16.1356  -33.5566 H   0  0  0  0  0  0  0  0  0  0  0  0
   -1.4775   16.8678  -32.7761 H   0  0  0  0  0  0  0  0  0  0  0  0
   -0.3189   19.5239  -32.3837 H   0  0  0  0  0  0  0  0  0  0  0  0
   -0.9118   21.9826  -32.5342 H   0  0  0  0  0  0  0  0  0  0  0  0
   -3.2213   22.6592  -33.2591 H   0  0  0  0  0  0  0  0  0  0  0  0
   -5.8186   21.0987  -33.4712 H   0  0  0  0  0  0  0  0  0  0  0  0
  1  2  2  0
  2  3  2  0
  2  4  1  0
  4  5  1  0
  5  6  2  0
  6  7  1  0
  7  8  2  0
  8  9  1  0
  9 10  2  0
 10 11  1  0
  2 12  1  0
 12 13  2  0
 13 14  1  0
 14 15  2  0
 15 16  1  0
 16 17  1  0
 17 18  2  0
 17 19  2  0
 17 20  1  0
 20 21  1  0
 21 22  2  0
 22 23  1  0
 23 24  2  0
 24 25  1  0
 25 26  2  0
 26 27  1  0
 27 28  2  0
 16 29  2  0
 10  5  1  0
 29 12  1  0
 28 20  1  0
 28 23  1  0
  4 30  1  0
  6 31  1  0
  7 32  1  0
  8 33  1  0
  9 34  1  0
 13 35  1  0
 14 36  1  0
 15 37  1  0
 21 38  1  0
 22 39  1  0
 24 40  1  0
 25 41  1  0
 26 42  1  0
 29 43  1  0
M  CHG  1  11  -1
M  END
>  <UniqueID>  (4) 
4

>  <SMILES>  (4) 
O=S(=O)(Nc1ccccc1[O-])c1cccc(S(=O)(=O)n2ccc3cccnc32)c1

>  <Energy>  (4) 
87.79319973841847

>  <Genealogy>  (4) 
O=S(=O)(Nc1ccccc1[O-])c1cccc(S(=O)(=O)n2ccc3cccnc32)c1 (protonated)
O=S(=O)(Nc1ccccc1[O-])c1cccc(S(=O)(=O)n2ccc3cccnc32)c1 (3D coordinates assigned)
O=S(=O)(Nc1ccccc1[O-])c1cccc(S(=O)(=O)n2ccc3cccnc32)c1 (optimized conformer: 87.79319973841847 kcal/mol)

>  <smiles>  (4) 
O=S(=O)(Nc1ccccc1O)c1cccc(S(=O)(=O)n2ccc3cccnc32)c1

>  <score_type>  (4) 
oracle

>  <origin>  (4) 
adgpu

>  <m_score__min__energy>  (4) 
-13.49

>  <m_primary>  (4) 
energy

$$$$
4:0
     RDKit          3D

 58 61  0  0  0  0  0  0  0  0999 V2000
   -5.8700   17.6480  -33.0250 C   0  0  0  0  0  0  0  0  0  0  0  0
   -6.3730   18.9550  -33.5520 C   0  0  0  0  0  0  0  0  0  0  0  0
   -6.0990   19.2890  -34.7360 O   0  0  0  0  0  0  0  0  0  0  0  0
   -7.2080   19.8010  -32.7410 N   0  0  0  0  0  0  0  0  0  0  0  0
   -8.5340   19.3120  -32.3420 C   0  0  0  0  0  0  0  0  0  0  0  0
   -9.5380   20.4600  -32.3280 C   0  0  0  0  0  0  0  0  0  0  0  0
   -9.0840   21.5490  -31.3590 C   0  0  0  0  0  0  0  0  0  0  0  0
   -7.6530   21.9530  -31.5930 C   0  0  0  0  0  0  0  0  0  0  0  0
   -7.1960   23.1590  -31.0420 C   0  0  0  0  0  0  0  0  0  0  0  0
   -5.8460   23.5140  -31.1310 C   0  0  0  0  0  0  0  0  0  0  0  0
   -5.2310   24.9380  -30.2930 S   0  0  0  0  0  0  0  0  0  0  0  0
   -5.9010   26.1500  -30.8790 O   0  0  0  0  0  0  0  0  0  0  0  0
   -5.5500   24.8640  -28.8260 O   0  0  0  0  0  0  0  0  0  0  0  0
   -3.5090   25.0930  -30.5030 N   0  0  0  0  0  0  0  0  0  0  0  0
   -2.5310   24.4270  -29.6910 C   0  0  0  0  0  0  0  0  0  0  0  0
   -1.9570   25.0410  -28.5650 C   0  0  0  0  0  0  0  0  0  0  0  0
   -1.0990   24.3180  -27.7280 C   0  0  0  0  0  0  0  0  0  0  0  0
   -0.7740   22.9880  -28.0300 C   0  0  0  0  0  0  0  0  0  0  0  0
    0.2390   22.0500  -26.9300 S   0  0  0  0  0  0  0  0  0  0  0  0
    1.6560   22.0780  -27.4270 O   0  0  0  0  0  0  0  0  0  0  0  0
    0.2120   22.6900  -25.5690 O   0  0  0  0  0  0  0  0  0  0  0  0
   -0.2960   20.3920  -26.8040 N   0  0  0  0  0  0  0  0  0  0  0  0
   -1.7530   20.3440  -26.5720 C   0  0  0  0  0  0  0  0  0  0  0  0
   -2.3300   18.9210  -26.7520 C   0  0  0  0  0  0  0  0  0  0  0  0
   -1.2230   17.8600  -26.7190 C   0  0  0  0  0  0  0  0  0  0  0  0
   -0.1890   18.1310  -27.8220 C   0  0  0  0  0  0  0  0  0  0  0  0
    0.0830   19.6380  -28.0150 C   0  0  0  0  0  0  0  0  0  0  0  0
   -1.2900   22.4010  -29.1950 C   0  0  0  0  0  0  0  0  0  0  0  0
   -2.1580   23.1190  -30.0220 C   0  0  0  0  0  0  0  0  0  0  0  0
   -4.9540   22.6700  -31.8000 C   0  0  0  0  0  0  0  0  0  0  0  0
   -5.3930   21.4620  -32.3410 C   0  0  0  0  0  0  0  0  0  0  0  0
   -6.7450   21.0800  -32.2410 C   0  0  0  0  0  0  0  0  0  0  0  0
   -5.8779   17.6686  -31.9252 H   0  0  0  0  0  0  0  0  0  0  0  0
   -6.5194   16.8347  -33.3812 H   0  0  0  0  0  0  0  0  0  0  0  0
   -4.8429   17.4799  -33.3812 H   0  0  0  0  0  0  0  0  0  0  0  0
   -8.8686   18.5457  -33.0567 H   0  0  0  0  0  0  0  0  0  0  0  0
   -8.4681   18.8813  -31.3320 H   0  0  0  0  0  0  0  0  0  0  0  0
   -9.6179   20.8846  -33.3396 H   0  0  0  0  0  0  0  0  0  0  0  0
  -10.5160   20.0761  -32.0022 H   0  0  0  0  0  0  0  0  0  0  0  0
   -9.7278   22.4313  -31.4898 H   0  0  0  0  0  0  0  0  0  0  0  0
   -9.1605   21.1477  -30.3377 H   0  0  0  0  0  0  0  0  0  0  0  0
   -7.9048   23.8310  -30.5359 H   0  0  0  0  0  0  0  0  0  0  0  0
   -2.1827   26.0939  -28.3404 H   0  0  0  0  0  0  0  0  0  0  0  0
   -0.6784   24.7949  -26.8304 H   0  0  0  0  0  0  0  0  0  0  0  0
   -1.9589   20.6819  -25.5456 H   0  0  0  0  0  0  0  0  0  0  0  0
   -2.2334   20.9980  -27.3146 H   0  0  0  0  0  0  0  0  0  0  0  0
   -3.0438   18.7189  -25.9398 H   0  0  0  0  0  0  0  0  0  0  0  0
   -2.8285   18.8709  -27.7313 H   0  0  0  0  0  0  0  0  0  0  0  0
   -0.7236   17.8875  -25.7393 H   0  0  0  0  0  0  0  0  0  0  0  0
   -1.6723   16.8700  -26.8864 H   0  0  0  0  0  0  0  0  0  0  0  0
    0.7542   17.6334  -27.5522 H   0  0  0  0  0  0  0  0  0  0  0  0
   -0.5951   17.7395  -28.7664 H   0  0  0  0  0  0  0  0  0  0  0  0
    1.1539   19.7896  -28.2152 H   0  0  0  0  0  0  0  0  0  0  0  0
   -0.5169   20.0017  -28.8623 H   0  0  0  0  0  0  0  0  0  0  0  0
   -1.0100   21.3705  -29.4588 H   0  0  0  0  0  0  0  0  0  0  0  0
   -2.5504   22.6537  -30.9383 H   0  0  0  0  0  0  0  0  0  0  0  0
   -3.8980   22.9612  -31.9003 H   0  0  0  0  0  0  0  0  0  0  0  0
   -4.6765   20.8011  -32.8507 H   0  0  0  0  0  0  0  0  0  0  0  0
  1  2  1  0
  2  3  2  0
  2  4  1  0
  4  5  1  0
  5  6  1  0
  6  7  1  0
  7  8  1  0
  8  9  2  0
  9 10  1  0
 10 11  1  0
 11 12  2  0
 11 13  2  0
 11 14  1  0
 14 15  1  0
 15 16  2  0
 16 17  1  0
 17 18  2  0
 18 19  1  0
 19 20  2  0
 19 21  2  0
 19 22  1  0
 22 23  1  0
 23 24  1  0
 24 25  1  0
 25 26  1  0
 26 27  1  0
 18 28  1  0
 28 29  2  0
 10 30  2  0
 30 31  1  0
 31 32  2  0
 32  4  1  0
 32  8  1  0
 29 15  1  0
 27 22  1  0
  1 33  1  0
  1 34  1  0
  1 35  1  0
  5 36  1  0
  5 37  1  0
  6 38  1  0
  6 39  1  0
  7 40  1  0
  7 41  1  0
  9 42  1  0
 16 43  1  0
 17 44  1  0
 23 45  1  0
 23 46  1  0
 24 47  1  0
 24 48  1  0
 25 49  1  0
 25 50  1  0
 26 51  1  0
 26 52  1  0
 27 53  1  0
 27 54  1  0
 28 55  1  0
 29 56  1  0
 30 57  1  0
 31 58  1  0
M  CHG  1  14  -1
M  END
>  <UniqueID>  (5) 
5

>  <SMILES>  (5) 
CC(=O)N1CCCc2cc(S(=O)(=O)[N-]c3ccc(S(=O)(=O)N4CCCCC4)cc3)ccc21

>  <Energy>  (5) 
73.23284668140926

>  <Genealogy>  (5) 
CC(=O)N1CCCc2cc(S(=O)(=O)[N-]c3ccc(S(=O)(=O)N4CCCCC4)cc3)ccc21 (protonated)
CC(=O)N1CCCc2cc(S(=O)(=O)[N-]c3ccc(S(=O)(=O)N4CCCCC4)cc3)ccc21 (3D coordinates assigned)
CC(=O)N1CCCc2cc(S(=O)(=O)[N-]c3ccc(S(=O)(=O)N4CCCCC4)cc3)ccc21 (nonaromatic ring conformer: 73.23284668140926 kcal/mol)

>  <smiles>  (5) 
CC(=O)N1CCCc2cc(S(=O)(=O)Nc3ccc(S(=O)(=O)N4CCCCC4)cc3)ccc21

>  <score_type>  (5) 
oracle

>  <origin>  (5) 
adgpu

>  <m_score__min__energy>  (5) 
-12.76

>  <m_primary>  (5) 
energy

$$$$
5:0
     RDKit          3D

 61 65  0  0  0  0  0  0  0  0999 V2000
   -9.1620   18.6420  -31.9660 C   0  0  0  0  0  0  0  0  0  0  0  0
   -8.6300   19.9030  -32.6570 C   0  0  1  0  0  0  0  0  0  0  0  0
   -8.9050   21.1750  -31.8080 C   0  0  0  0  0  0  0  0  0  0  0  0
   -7.5440   21.6980  -31.5190 C   0  0  0  0  0  0  0  0  0  0  0  0
   -7.2130   22.8720  -30.8420 C   0  0  0  0  0  0  0  0  0  0  0  0
   -5.8650   23.2680  -30.7930 C   0  0  0  0  0  0  0  0  0  0  0  0
   -5.4340   24.8130  -30.0670 S   0  0  0  0  0  0  0  0  0  0  0  0
   -4.4500   25.5460  -30.9340 O   0  0  0  0  0  0  0  0  0  0  0  0
   -6.6640   25.6630  -29.9250 O   0  0  0  0  0  0  0  0  0  0  0  0
   -4.7560   24.5250  -28.4960 N   0  0  0  0  0  0  0  0  0  0  0  0
   -3.6490   23.6300  -28.3260 C   0  0  0  0  0  0  0  0  0  0  0  0
   -2.3350   24.0550  -28.5740 C   0  0  0  0  0  0  0  0  0  0  0  0
   -1.2700   23.1570  -28.4560 C   0  0  0  0  0  0  0  0  0  0  0  0
   -1.5070   21.8270  -28.0860 C   0  0  0  0  0  0  0  0  0  0  0  0
   -0.1640   20.6870  -27.9670 S   0  0  0  0  0  0  0  0  0  0  0  0
    1.0030   21.3690  -27.3060 O   0  0  0  0  0  0  0  0  0  0  0  0
   -0.5770   19.5270  -27.1010 O   0  0  0  0  0  0  0  0  0  0  0  0
    0.3180   20.0800  -29.5330 N   0  0  0  0  0  0  0  0  0  0  0  0
   -0.5480   20.6170  -30.5940 C   0  0  0  0  0  0  0  0  0  0  0  0
   -0.1900   19.9790  -31.9530 C   0  0  0  0  0  0  0  0  0  0  0  0
    0.9580   19.1550  -31.8520 O   0  0  0  0  0  0  0  0  0  0  0  0
    0.7150   18.0950  -30.9430 C   0  0  0  0  0  0  0  0  0  0  0  0
    0.2850   18.6070  -29.5520 C   0  0  0  0  0  0  0  0  0  0  0  0
   -2.8160   21.4080  -27.8130 C   0  0  0  0  0  0  0  0  0  0  0  0
   -3.8810   22.3070  -27.9250 C   0  0  0  0  0  0  0  0  0  0  0  0
   -4.8800   22.4740  -31.4200 C   0  0  0  0  0  0  0  0  0  0  0  0
   -5.2360   21.2900  -32.0830 C   0  0  0  0  0  0  0  0  0  0  0  0
   -6.5860   20.9210  -32.1120 C   0  0  0  0  0  0  0  0  0  0  0  0
   -7.1710   19.8280  -32.8070 N   0  0  0  0  0  0  0  0  0  0  0  0
   -6.4740   18.8970  -33.6530 C   0  0  0  0  0  0  0  0  0  0  0  0
   -5.8890   19.3050  -34.6920 O   0  0  0  0  0  0  0  0  0  0  0  0
   -6.3620   17.4500  -33.2660 C   0  0  0  0  0  0  0  0  0  0  0  0
   -6.1090   17.2090  -31.7840 C   0  0  0  0  0  0  0  0  0  0  0  0
   -4.9800   17.0330  -32.7850 C   0  0  0  0  0  0  0  0  0  0  0  0
   -9.1075   18.7711  -30.8750 H   0  0  0  0  0  0  0  0  0  0  0  0
  -10.2076   18.4742  -32.2636 H   0  0  0  0  0  0  0  0  0  0  0  0
   -8.5526   17.7760  -32.2636 H   0  0  0  0  0  0  0  0  0  0  0  0
   -9.1403   19.9627  -33.6297 H   0  0  0  0  0  0  0  0  0  0  0  0
   -9.4955   21.9080  -32.3773 H   0  0  0  0  0  0  0  0  0  0  0  0
   -9.4867   20.9661  -30.8980 H   0  0  0  0  0  0  0  0  0  0  0  0
   -7.9925   23.4767  -30.3555 H   0  0  0  0  0  0  0  0  0  0  0  0
   -5.3640   24.7300  -27.6720 H   0  0  0  0  0  0  0  0  0  0  0  0
   -2.1421   25.0988  -28.8624 H   0  0  0  0  0  0  0  0  0  0  0  0
   -0.2425   23.4960  -28.6544 H   0  0  0  0  0  0  0  0  0  0  0  0
   -1.5977   20.3930  -30.3535 H   0  0  0  0  0  0  0  0  0  0  0  0
   -0.3999   21.7050  -30.6598 H   0  0  0  0  0  0  0  0  0  0  0  0
   -1.0387   19.3694  -32.2966 H   0  0  0  0  0  0  0  0  0  0  0  0
    0.0260   20.7867  -32.6679 H   0  0  0  0  0  0  0  0  0  0  0  0
   -0.0842   17.4570  -31.3483 H   0  0  0  0  0  0  0  0  0  0  0  0
    1.6527   17.5331  -30.8210 H   0  0  0  0  0  0  0  0  0  0  0  0
   -0.7364   18.2613  -29.3348 H   0  0  0  0  0  0  0  0  0  0  0  0
    0.9766   18.2173  -28.7906 H   0  0  0  0  0  0  0  0  0  0  0  0
   -3.0064   20.3680  -27.5095 H   0  0  0  0  0  0  0  0  0  0  0  0
   -4.9047   21.9748  -27.6976 H   0  0  0  0  0  0  0  0  0  0  0  0
   -3.8257   22.7861  -31.3884 H   0  0  0  0  0  0  0  0  0  0  0  0
   -4.4717   20.6658  -32.5690 H   0  0  0  0  0  0  0  0  0  0  0  0
   -7.0800   17.0687  -34.0070 H   0  0  0  0  0  0  0  0  0  0  0  0
   -6.0956   18.0569  -31.0834 H   0  0  0  0  0  0  0  0  0  0  0  0
   -6.5674   16.5763  -31.0097 H   0  0  0  0  0  0  0  0  0  0  0  0
   -4.1491   17.7534  -32.8088 H   0  0  0  0  0  0  0  0  0  0  0  0
   -4.2826   16.2199  -33.0350 H   0  0  0  0  0  0  0  0  0  0  0  0
  1  2  1  0
  2  3  1  0
  3  4  1  0
  4  5  2  0
  5  6  1  0
  6  7  1  0
  7  8  2  0
  7  9  2  0
  7 10  1  0
 10 11  1  0
 11 12  2  0
 12 13  1  0
 13 14  2  0
 14 15  1  0
 15 16  2  0
 15 17  2  0
 15 18  1  0
 18 19  1  0
 19 20  1  0
 20 21  1  0
 21 22  1  0
 22 23  1  0
 14 24  1  0
 24 25  2  0
  6 26  2  0
 26 27  1  0
 27 28  2  0
 28 29  1  0
 29 30  1  0
 30 31  2  0
 30 32  1  0
 32 33  1  0
 33 34  1  0
 29  2  1  0
 34 32  1  0
 28  4  1  0
 25 11  1  0
 23 18  1  0
  1 35  1  0
  1 36  1  0
  1 37  1  0
  2 38  1  6
  3 39  1  0
  3 40  1  0
  5 41  1  0
 10 42  1  0
 12 43  1  0
 13 44  1  0
 19 45  1  0
 19 46  1  0
 20 47  1  0
 20 48  1  0
 22 49  1  0
 22 50  1  0
 23 51  1  0
 23 52  1  0
 24 53  1  0
 25 54  1  0
 26 55  1  0
 27 56  1  0
 32 57  1  0
 33 58  1  0
 33 59  1  0
 34 60  1  0
 34 61  1  0
M  END
>  <UniqueID>  (6) 
6

>  <SMILES>  (6) 
C[C@H]1Cc2cc(S(=O)(=O)Nc3ccc(S(=O)(=O)N4CCOCC4)cc3)ccc2N1C(=O)C1CC1

>  <Energy>  (6) 
350.938957183543

>  <Genealogy>  (6) 
C[C@H]1Cc2cc(S(=O)(=O)Nc3ccc(S(=O)(=O)N4CCOCC4)cc3)ccc2N1C(=O)C1CC1 (chirality)
C[C@H]1Cc2cc(S(=O)(=O)Nc3ccc(S(=O)(=O)N4CCOCC4)cc3)ccc2N1C(=O)C1CC1 (3D coordinates assigned)
C[C@H]1Cc2cc(S(=O)(=O)Nc3ccc(S(=O)(=O)N4CCOCC4)cc3)ccc2N1C(=O)C1CC1 (nonaromatic ring conformer: 350.938957183543 kcal/mol)

>  <smiles>  (6) 
CC1Cc2cc(S(=O)(=O)Nc3ccc(S(=O)(=O)N4CCOCC4)cc3)ccc2N1C(=O)C1CC1

>  <score_type>  (6) 
oracle

>  <origin>  (6) 
adgpu

>  <m_score__min__energy>  (6) 
-11.58

>  <m_primary>  (6) 
energy

$$$$
6:0
     RDKit          3D

 32 33  0  0  0  0  0  0  0  0999 V2000
   -3.7840   24.9100  -26.7140 C   0  0  0  0  0  0  0  0  0  0  0  0
   -2.8100   23.9910  -27.3740 C   0  0  0  0  0  0  0  0  0  0  0  0
   -1.9930   23.1530  -26.7040 N   0  0  0  0  0  0  0  0  0  0  0  0
   -1.1950   22.5720  -27.5900 N   0  0  0  0  0  0  0  0  0  0  0  0
   -0.1410   21.6310  -27.2300 C   0  0  0  0  0  0  0  0  0  0  0  0
   -1.4750   23.0280  -28.8320 C   0  0  0  0  0  0  0  0  0  0  0  0
   -0.7100   22.6900  -30.0740 C   0  0  0  0  0  0  0  0  0  0  0  0
   -2.4960   23.9460  -28.7170 C   0  0  0  0  0  0  0  0  0  0  0  0
   -3.0340   24.7680  -29.7500 N   0  0  0  0  0  0  0  0  0  0  0  0
   -4.6460   24.5330  -30.3310 S   0  0  0  0  0  0  0  0  0  0  0  0
   -5.0130   25.6960  -31.2090 O   0  0  0  0  0  0  0  0  0  0  0  0
   -5.6090   24.5010  -29.1780 O   0  0  0  0  0  0  0  0  0  0  0  0
   -4.7240   23.0420  -31.2830 C   0  0  0  0  0  0  0  0  0  0  0  0
   -3.5380   22.3170  -31.4790 C   0  0  0  0  0  0  0  0  0  0  0  0
   -3.5470   21.1150  -32.1900 C   0  0  0  0  0  0  0  0  0  0  0  0
   -4.7430   20.6190  -32.7080 C   0  0  0  0  0  0  0  0  0  0  0  0
   -4.7550   18.9700  -33.6730 Br  0  0  0  0  0  0  0  0  0  0  0  0
   -5.9320   21.3230  -32.5130 C   0  0  0  0  0  0  0  0  0  0  0  0
   -5.9370   22.5300  -31.8010 C   0  0  0  0  0  0  0  0  0  0  0  0
   -7.6320   23.3950  -31.5650 Br  0  0  0  0  0  0  0  0  0  0  0  0
   -3.6897   24.8211  -25.6217 H   0  0  0  0  0  0  0  0  0  0  0  0
   -3.5736   25.9463  -27.0170 H   0  0  0  0  0  0  0  0  0  0  0  0
   -4.8063   24.6398  -27.0170 H   0  0  0  0  0  0  0  0  0  0  0  0
   -0.0670   21.5649  -26.1345 H   0  0  0  0  0  0  0  0  0  0  0  0
   -0.3786   20.6391  -27.6420 H   0  0  0  0  0  0  0  0  0  0  0  0
    0.8177   21.9791  -27.6420 H   0  0  0  0  0  0  0  0  0  0  0  0
    0.2642   22.2596  -29.7989 H   0  0  0  0  0  0  0  0  0  0  0  0
   -1.2791   21.9595  -30.6678 H   0  0  0  0  0  0  0  0  0  0  0  0
   -0.5531   23.6026  -30.6678 H   0  0  0  0  0  0  0  0  0  0  0  0
   -2.5919   22.6995  -31.0684 H   0  0  0  0  0  0  0  0  0  0  0  0
   -2.6100   20.5591  -32.3415 H   0  0  0  0  0  0  0  0  0  0  0  0
   -6.8734   20.9271  -32.9217 H   0  0  0  0  0  0  0  0  0  0  0  0
  1  2  1  0
  2  3  2  0
  3  4  1  0
  4  5  1  0
  4  6  1  0
  6  7  1  0
  6  8  2  0
  8  9  1  0
  9 10  1  0
 10 11  2  0
 10 12  2  0
 10 13  1  0
 13 14  2  0
 14 15  1  0
 15 16  2  0
 16 17  1  0
 16 18  1  0
 18 19  2  0
 19 20  1  0
  8  2  1  0
 19 13  1  0
  1 21  1  0
  1 22  1  0
  1 23  1  0
  5 24  1  0
  5 25  1  0
  5 26  1  0
  7 27  1  0
  7 28  1  0
  7 29  1  0
 14 30  1  0
 15 31  1  0
 18 32  1  0
M  CHG  1   9  -1
M  END
>  <UniqueID>  (7) 
7

>  <SMILES>  (7) 
Cc1nn(C)c(C)c1[N-]S(=O)(=O)c1ccc(Br)cc1Br

>  <Energy>  (7) 
70.95650235789805

>  <Genealogy>  (7) 
Cc1nn(C)c(C)c1[N-]S(=O)(=O)c1ccc(Br)cc1Br (protonated)
Cc1nn(C)c(C)c1[N-]S(=O)(=O)c1ccc(Br)cc1Br (3D coordinates assigned)
Cc1nn(C)c(C)c1[N-]S(=O)(=O)c1ccc(Br)cc1Br (optimized conformer: 70.95650235789805 kcal/mol)

>  <smiles>  (7) 
Cc1nn(C)c(C)c1NS(=O)(=O)c1ccc(Br)cc1Br

>  <score_type>  (7) 
oracle

>  <origin>  (7) 
adgpu

>  <m_score__min__energy>  (7) 
-8.9800000000000004

>  <m_primary>  (7) 
energy

$$$$
7:0
     RDKit          3D

 50 52  0  0  0  0  0  0  0  0999 V2000
   -3.4850   25.2720  -30.3910 N   0  0  0  0  0  0  0  0  0  0  0  0
   -4.4920   23.9320  -30.8110 S   0  0  0  0  0  0  0  0  0  0  0  0
   -5.1000   23.3560  -29.5630 O   0  0  0  0  0  0  0  0  0  0  0  0
   -5.5980   24.3980  -31.7150 O   0  0  0  0  0  0  0  0  0  0  0  0
   -3.5300   22.7060  -31.6280 C   0  0  0  0  0  0  0  0  0  0  0  0
   -3.9700   22.1610  -32.8420 C   0  0  0  0  0  0  0  0  0  0  0  0
   -3.2010   21.1960  -33.5000 C   0  0  0  0  0  0  0  0  0  0  0  0
   -1.9870   20.7600  -32.9470 C   0  0  0  0  0  0  0  0  0  0  0  0
   -1.1450   19.7520  -33.6720 C   0  0  0  0  0  0  0  0  0  0  0  0
   -1.1120   18.5110  -32.9060 N   0  0  0  0  0  0  0  0  0  0  0  0
   -2.0150   17.4130  -33.0890 C   0  0  0  0  0  0  0  0  0  0  0  0
   -1.5950   16.2440  -32.8820 O   0  0  0  0  0  0  0  0  0  0  0  0
   -3.4050   17.6050  -33.5470 C   0  0  0  0  0  0  0  0  0  0  0  0
   -3.7070   17.6700  -34.9160 C   0  0  0  0  0  0  0  0  0  0  0  0
   -5.0250   17.8680  -35.3370 C   0  0  0  0  0  0  0  0  0  0  0  0
   -6.0460   18.0170  -34.3960 C   0  0  0  0  0  0  0  0  0  0  0  0
   -5.7540   17.9790  -33.0270 C   0  0  0  0  0  0  0  0  0  0  0  0
   -7.0440   18.1920  -31.8400 S   0  0  0  0  0  0  0  0  0  0  0  0
   -8.2840   17.4990  -32.3310 O   0  0  0  0  0  0  0  0  0  0  0  0
   -6.6370   17.5530  -30.5420 O   0  0  0  0  0  0  0  0  0  0  0  0
   -7.3970   19.8820  -31.5710 N   0  0  0  0  0  0  0  0  0  0  0  0
   -6.6640   20.7180  -32.5460 C   0  0  0  0  0  0  0  0  0  0  0  0
   -7.1520   22.1840  -32.5480 C   0  0  0  0  0  0  0  0  0  0  0  0
   -7.9860   22.5070  -31.3040 C   0  0  0  0  0  0  0  0  0  0  0  0
   -9.1810   21.5470  -31.1760 C   0  0  0  0  0  0  0  0  0  0  0  0
   -8.8460   20.1220  -31.6560 C   0  0  0  0  0  0  0  0  0  0  0  0
   -4.4320   17.7780  -32.6060 C   0  0  0  0  0  0  0  0  0  0  0  0
   -1.5370   21.3240  -31.7430 C   0  0  0  0  0  0  0  0  0  0  0  0
   -2.3070   22.2900  -31.0860 C   0  0  0  0  0  0  0  0  0  0  0  0
   -3.4810   25.9180  -31.2120 H   0  0  0  0  0  0  0  0  0  0  0  0
   -4.9233   22.4934  -33.2786 H   0  0  0  0  0  0  0  0  0  0  0  0
   -3.5492   20.7767  -34.4555 H   0  0  0  0  0  0  0  0  0  0  0  0
   -1.5764   19.5593  -34.6654 H   0  0  0  0  0  0  0  0  0  0  0  0
   -0.1226   20.1409  -33.7877 H   0  0  0  0  0  0  0  0  0  0  0  0
   -2.9038   17.5648  -35.6602 H   0  0  0  0  0  0  0  0  0  0  0  0
   -5.2584   17.9065  -36.4113 H   0  0  0  0  0  0  0  0  0  0  0  0
   -7.0832   18.1647  -34.7313 H   0  0  0  0  0  0  0  0  0  0  0  0
   -5.5940   20.7021  -32.2913 H   0  0  0  0  0  0  0  0  0  0  0  0
   -6.8456   20.3023  -33.5481 H   0  0  0  0  0  0  0  0  0  0  0  0
   -6.2773   22.8505  -32.5733 H   0  0  0  0  0  0  0  0  0  0  0  0
   -7.7872   22.3320  -33.4338 H   0  0  0  0  0  0  0  0  0  0  0  0
   -7.3511   22.4119  -30.4108 H   0  0  0  0  0  0  0  0  0  0  0  0
   -8.3700   23.5336  -31.3968 H   0  0  0  0  0  0  0  0  0  0  0  0
   -9.4854   21.5012  -30.1199 H   0  0  0  0  0  0  0  0  0  0  0  0
   -9.9901   21.9332  -31.8133 H   0  0  0  0  0  0  0  0  0  0  0  0
   -9.3724   19.3927  -31.0228 H   0  0  0  0  0  0  0  0  0  0  0  0
   -9.1660   20.0125  -32.7027 H   0  0  0  0  0  0  0  0  0  0  0  0
   -4.1981   17.7557  -31.5314 H   0  0  0  0  0  0  0  0  0  0  0  0
   -0.5754   21.0053  -31.3144 H   0  0  0  0  0  0  0  0  0  0  0  0
   -1.9507   22.7244  -30.1403 H   0  0  0  0  0  0  0  0  0  0  0  0
  1  2  1  0
  2  3  2  0
  2  4  2  0
  2  5  1  0
  5  6  2  0
  6  7  1  0
  7  8  2  0
  8  9  1  0
  9 10  1  0
 10 11  1  0
 11 12  2  0
 11 13  1  0
 13 14  2  0
 14 15  1  0
 15 16  2  0
 16 17  1  0
 17 18  1  0
 18 19  2  0
 18 20  2  0
 18 21  1  0
 21 22  1  0
 22 23  1  0
 23 24  1  0
 24 25  1  0
 25 26  1  0
 17 27  2  0
  8 28  1  0
 28 29  2  0
 29  5  1  0
 27 13  1  0
 26 21  1  0
  1 30  1  0
  6 31  1  0
  7 32  1  0
  9 33  1  0
  9 34  1  0
 14 35  1  0
 15 36  1  0
 16 37  1  0
 22 38  1  0
 22 39  1  0
 23 40  1  0
 23 41  1  0
 24 42  1  0
 24 43  1  0
 25 44  1  0
 25 45  1  0
 26 46  1  0
 26 47  1  0
 27 48  1  0
 28 49  1  0
 29 50  1  0
M  CHG  2   1  -1  10  -1
M  END
>  <UniqueID>  (8) 
8

>  <SMILES>  (8) 
[NH-]S(=O)(=O)c1ccc(C[N-]C(=O)c2cccc(S(=O)(=O)N3CCCCC3)c2)cc1

>  <Energy>  (8) 
56.4739210421488

>  <Genealogy>  (8) 
[NH-]S(=O)(=O)c1ccc(C[N-]C(=O)c2cccc(S(=O)(=O)N3CCCCC3)c2)cc1 (protonated)
[NH-]S(=O)(=O)c1ccc(C[N-]C(=O)c2cccc(S(=O)(=O)N3CCCCC3)c2)cc1 (3D coordinates assigned)
[NH-]S(=O)(=O)c1ccc(C[N-]C(=O)c2cccc(S(=O)(=O)N3CCCCC3)c2)cc1 (nonaromatic ring conformer: 56.4739210421488 kcal/mol)

>  <smiles>  (8) 
NS(=O)(=O)c1ccc(CNC(=O)c2cccc(S(=O)(=O)N3CCCCC3)c2)cc1

>  <score_type>  (8) 
oracle

>  <origin>  (8) 
adgpu

>  <m_score__min__energy>  (8) 
-12.050000000000001

>  <m_primary>  (8) 
energy

$$$$
8:0
     RDKit          3D

 60 63  0  0  0  0  0  0  0  0999 V2000
   -0.8730   21.1290  -33.8500 C   0  0  0  0  0  0  0  0  0  0  0  0
   -0.7750   21.2280  -32.3330 C   0  0  0  0  0  0  0  0  0  0  0  0
   -2.0590   20.2190  -31.5110 S   0  0  0  0  0  0  0  0  0  0  0  0
   -3.0230   21.6230  -30.9290 C   0  0  0  0  0  0  0  0  0  0  0  0
   -4.1190   21.9900  -31.6390 N   0  0  0  0  0  0  0  0  0  0  0  0
   -4.8930   23.0500  -31.2970 C   0  0  0  0  0  0  0  0  0  0  0  0
   -6.2520   23.4920  -32.3940 S   0  0  0  0  0  0  0  0  0  0  0  0
   -7.5320   22.5300  -31.5000 C   0  0  0  0  0  0  0  0  0  0  0  0
   -7.4130   21.0530  -31.7750 C   0  0  0  0  0  0  0  0  0  0  0  0
   -8.4740   20.1980  -31.4670 C   0  0  0  0  0  0  0  0  0  0  0  0
   -8.4220   18.8620  -31.8520 C   0  0  0  0  0  0  0  0  0  0  0  0
   -9.3940   18.1060  -31.5800 O   0  0  0  0  0  0  0  0  0  0  0  0
   -7.3010   18.3780  -32.5510 C   0  0  0  0  0  0  0  0  0  0  0  0
   -7.2370   17.0430  -32.9710 C   0  0  0  0  0  0  0  0  0  0  0  0
   -6.1330   16.5770  -33.6710 C   0  0  0  0  0  0  0  0  0  0  0  0
   -5.0600   17.4250  -33.9750 C   0  0  0  0  0  0  0  0  0  0  0  0
   -3.8940   16.8490  -34.7410 C   0  0  0  0  0  0  0  0  0  0  0  0
   -5.0960   18.7840  -33.5610 C   0  0  0  0  0  0  0  0  0  0  0  0
   -3.9560   19.7290  -33.8840 C   0  0  0  0  0  0  0  0  0  0  0  0
   -6.2310   19.2630  -32.8430 C   0  0  0  0  0  0  0  0  0  0  0  0
   -6.3200   20.5700  -32.4360 N   0  0  0  0  0  0  0  0  0  0  0  0
   -4.5810   23.8050  -30.1540 C   0  0  0  0  0  0  0  0  0  0  0  0
   -5.3930   24.9490  -29.7990 C   0  0  0  0  0  0  0  0  0  0  0  0
   -6.0410   25.8640  -29.5130 N   0  0  0  0  0  0  0  0  0  0  0  0
   -3.4400   23.4620  -29.3950 C   0  0  0  0  0  0  0  0  0  0  0  0
   -3.0670   24.2600  -28.2010 C   0  0  0  0  0  0  0  0  0  0  0  0
   -3.9480   24.3610  -27.1150 C   0  0  0  0  0  0  0  0  0  0  0  0
   -3.5990   25.1170  -25.9920 C   0  0  0  0  0  0  0  0  0  0  0  0
   -2.3600   25.7840  -25.9430 C   0  0  0  0  0  0  0  0  0  0  0  0
   -1.9650   26.5550  -24.8400 O   0  0  0  0  0  0  0  0  0  0  0  0
   -0.7600   26.3530  -24.1100 C   0  0  0  0  0  0  0  0  0  0  0  0
   -1.4840   25.6790  -27.0310 C   0  0  0  0  0  0  0  0  0  0  0  0
   -1.8320   24.9220  -28.1520 C   0  0  0  0  0  0  0  0  0  0  0  0
   -2.6450   22.3650  -29.7960 C   0  0  0  0  0  0  0  0  0  0  0  0
   -1.4640   21.9920  -29.0490 C   0  0  0  0  0  0  0  0  0  0  0  0
   -0.5190   21.6940  -28.4500 N   0  0  0  0  0  0  0  0  0  0  0  0
   -1.6231   20.3712  -34.1203 H   0  0  0  0  0  0  0  0  0  0  0  0
   -1.1716   22.1040  -34.2625 H   0  0  0  0  0  0  0  0  0  0  0  0
    0.1050   20.8403  -34.2625 H   0  0  0  0  0  0  0  0  0  0  0  0
    0.2164   20.8730  -32.0150 H   0  0  0  0  0  0  0  0  0  0  0  0
   -0.9256   22.2790  -32.0454 H   0  0  0  0  0  0  0  0  0  0  0  0
   -7.4172   22.7018  -30.4196 H   0  0  0  0  0  0  0  0  0  0  0  0
   -8.5195   22.8653  -31.8498 H   0  0  0  0  0  0  0  0  0  0  0  0
   -9.3490   20.5804  -30.9210 H   0  0  0  0  0  0  0  0  0  0  0  0
   -8.0681   16.3590  -32.7442 H   0  0  0  0  0  0  0  0  0  0  0  0
   -6.0999   15.5254  -33.9922 H   0  0  0  0  0  0  0  0  0  0  0  0
   -3.1388   16.4760  -34.0335 H   0  0  0  0  0  0  0  0  0  0  0  0
   -4.2445   16.0204  -35.3739 H   0  0  0  0  0  0  0  0  0  0  0  0
   -3.4489   17.6309  -35.3739 H   0  0  0  0  0  0  0  0  0  0  0  0
   -3.5100   20.0987  -32.9489 H   0  0  0  0  0  0  0  0  0  0  0  0
   -3.1921   19.1956  -34.4688 H   0  0  0  0  0  0  0  0  0  0  0  0
   -4.3385   20.5786  -34.4688 H   0  0  0  0  0  0  0  0  0  0  0  0
   -5.5610   21.2510  -32.6510 H   0  0  0  0  0  0  0  0  0  0  0  0
   -4.9180   23.8432  -27.1467 H   0  0  0  0  0  0  0  0  0  0  0  0
   -4.2950   25.1910  -25.1434 H   0  0  0  0  0  0  0  0  0  0  0  0
   -0.9742   26.3889  -23.0316 H   0  0  0  0  0  0  0  0  0  0  0  0
   -0.3358   25.3712  -24.3671 H   0  0  0  0  0  0  0  0  0  0  0  0
   -0.0388   27.1428  -24.3671 H   0  0  0  0  0  0  0  0  0  0  0  0
   -0.5140   26.1970  -27.0023 H   0  0  0  0  0  0  0  0  0  0  0  0
   -1.1348   24.8449  -28.9993 H   0  0  0  0  0  0  0  0  0  0  0  0
  1  2  1  0
  2  3  1  0
  3  4  1  0
  4  5  2  0
  5  6  1  0
  6  7  1  0
  7  8  1  0
  8  9  1  0
  9 10  2  0
 10 11  1  0
 11 12  2  0
 11 13  1  0
 13 14  2  0
 14 15  1  0
 15 16  2  0
 16 17  1  0
 16 18  1  0
 18 19  1  0
 18 20  2  0
 20 21  1  0
  6 22  2  0
 22 23  1  0
 23 24  3  0
 22 25  1  0
 25 26  1  0
 26 27  2  0
 27 28  1  0
 28 29  2  0
 29 30  1  0
 30 31  1  0
 29 32  1  0
 32 33  2  0
 25 34  2  0
 34 35  1  0
 35 36  3  0
 34  4  1  0
 21  9  1  0
 33 26  1  0
 20 13  1  0
  1 37  1  0
  1 38  1  0
  1 39  1  0
  2 40  1  0
  2 41  1  0
  8 42  1  0
  8 43  1  0
 10 44  1  0
 14 45  1  0
 15 46  1  0
 17 47  1  0
 17 48  1  0
 17 49  1  0
 19 50  1  0
 19 51  1  0
 19 52  1  0
 21 53  1  0
 27 54  1  0
 28 55  1  0
 31 56  1  0
 31 57  1  0
 31 58  1  0
 32 59  1  0
 33 60  1  0
M  END
>  <UniqueID>  (9) 
9

>  <SMILES>  (9) 
CCSc1nc(SCc2cc(=O)c3ccc(C)c(C)c3[nH]2)c(C#N)c(-c2ccc(OC)cc2)c1C#N

>  <Energy>  (9) 
70.06804851637422

>  <Genealogy>  (9) 
CCSc1nc(SCc2cc(=O)c3ccc(C)c(C)c3[nH]2)c(C#N)c(-c2ccc(OC)cc2)c1C#N (3D coordinates assigned)
CCSc1nc(SCc2cc(=O)c3ccc(C)c(C)c3[nH]2)c(C#N)c(-c2ccc(OC)cc2)c1C#N (optimized conformer: 70.06804851637422 kcal/mol)

>  <smiles>  (9) 
CCSc1nc(SCc2cc(=O)c3ccc(C)c(C)c3[nH]2)c(C#N)c(-c2ccc(OC)cc2)c1C#N

>  <score_type>  (9) 
oracle

>  <origin>  (9) 
adgpu

>  <m_score__min__energy>  (9) 
-10.789999999999999

>  <m_primary>  (9) 
energy

$$$$
9:0
     RDKit          3D

 43 45  0  0  0  0  0  0  0  0999 V2000
   -5.3760   26.8690  -30.3080 O   0  0  0  0  0  0  0  0  0  0  0  0
   -5.1240   25.6550  -30.5290 C   0  0  0  0  0  0  0  0  0  0  0  0
   -6.1580   24.7690  -30.8350 C   0  0  0  0  0  0  0  0  0  0  0  0
   -5.8650   23.4240  -31.0770 C   0  0  0  0  0  0  0  0  0  0  0  0
   -7.3180   22.2520  -31.5210 Br  0  0  0  0  0  0  0  0  0  0  0  0
   -4.5300   22.9750  -31.0030 C   0  0  0  0  0  0  0  0  0  0  0  0
   -4.1640   21.5280  -31.2410 C   0  0  0  0  0  0  0  0  0  0  0  0
   -4.2310   21.2020  -32.6670 N   0  0  0  0  0  0  0  0  0  0  0  0
   -3.8950   19.9180  -33.2260 C   0  0  0  0  0  0  0  0  0  0  0  0
   -2.6420   19.3170  -33.0080 C   0  0  0  0  0  0  0  0  0  0  0  0
   -2.3500   18.0690  -33.5630 C   0  0  0  0  0  0  0  0  0  0  0  0
   -3.2960   17.4080  -34.3570 C   0  0  0  0  0  0  0  0  0  0  0  0
   -2.9220   15.8380  -35.0690 S   0  0  0  0  0  0  0  0  0  0  0  0
   -1.4290   15.7030  -35.1680 O   0  0  0  0  0  0  0  0  0  0  0  0
   -3.4780   15.7900  -36.4660 O   0  0  0  0  0  0  0  0  0  0  0  0
   -3.5600   14.4890  -34.1450 N   0  0  0  0  0  0  0  0  0  0  0  0
   -4.8940   14.0680  -34.6210 C   0  0  0  0  0  0  0  0  0  0  0  0
   -6.0410   14.9590  -34.0870 C   0  0  0  0  0  0  0  0  0  0  0  0
   -5.6280   15.8610  -33.0800 O   0  0  0  0  0  0  0  0  0  0  0  0
   -4.8760   15.1740  -32.1070 C   0  0  0  0  0  0  0  0  0  0  0  0
   -3.5180   14.7380  -32.6820 C   0  0  0  0  0  0  0  0  0  0  0  0
   -4.5450   18.0030  -34.5770 C   0  0  0  0  0  0  0  0  0  0  0  0
   -4.8390   19.2510  -34.0220 C   0  0  0  0  0  0  0  0  0  0  0  0
   -3.5250   23.9100  -30.7020 C   0  0  0  0  0  0  0  0  0  0  0  0
   -3.8430   25.2110  -30.4730 N   0  0  0  0  0  0  0  0  0  0  0  0
   -7.1969   25.1269  -30.8854 H   0  0  0  0  0  0  0  0  0  0  0  0
   -3.1408   21.3505  -30.8783 H   0  0  0  0  0  0  0  0  0  0  0  0
   -4.8784   20.8902  -30.6998 H   0  0  0  0  0  0  0  0  0  0  0  0
   -4.6100   21.9360  -33.3070 H   0  0  0  0  0  0  0  0  0  0  0  0
   -1.8873   19.8332  -32.3965 H   0  0  0  0  0  0  0  0  0  0  0  0
   -1.3716   17.6025  -33.3755 H   0  0  0  0  0  0  0  0  0  0  0  0
   -2.9060   13.6950  -34.3430 H   0  0  0  0  0  0  0  0  0  0  0  0
   -4.9020   14.1092  -35.7202 H   0  0  0  0  0  0  0  0  0  0  0  0
   -5.0690   13.0494  -34.2444 H   0  0  0  0  0  0  0  0  0  0  0  0
   -6.4526   15.5382  -34.9267 H   0  0  0  0  0  0  0  0  0  0  0  0
   -6.7896   14.2902  -33.6372 H   0  0  0  0  0  0  0  0  0  0  0  0
   -4.7079   15.8368  -31.2454 H   0  0  0  0  0  0  0  0  0  0  0  0
   -5.4333   14.2785  -31.7947 H   0  0  0  0  0  0  0  0  0  0  0  0
   -2.7821   15.5309  -32.4824 H   0  0  0  0  0  0  0  0  0  0  0  0
   -3.2436   13.7907  -32.1949 H   0  0  0  0  0  0  0  0  0  0  0  0
   -5.2978   17.4852  -35.1896 H   0  0  0  0  0  0  0  0  0  0  0  0
   -5.8185   19.7147  -34.2105 H   0  0  0  0  0  0  0  0  0  0  0  0
   -2.4748   23.5867  -30.6515 H   0  0  0  0  0  0  0  0  0  0  0  0
  1  2  2  0
  2  3  1  0
  3  4  2  0
  4  5  1  0
  4  6  1  0
  6  7  1  0
  7  8  1  0
  8  9  1  0
  9 10  2  0
 10 11  1  0
 11 12  2  0
 12 13  1  0
 13 14  2  0
 13 15  2  0
 13 16  1  0
 16 17  1  0
 17 18  1  0
 18 19  1  0
 19 20  1  0
 20 21  1  0
 12 22  1  0
 22 23  2  0
  6 24  2  0
 24 25  1  0
 25  2  1  0
 23  9  1  0
 21 16  1  0
  3 26  1  0
  7 27  1  0
  7 28  1  0
  8 29  1  0
 10 30  1  0
 11 31  1  0
 16 32  1  0
 17 33  1  0
 17 34  1  0
 18 35  1  0
 18 36  1  0
 20 37  1  0
 20 38  1  0
 21 39  1  0
 21 40  1  0
 22 41  1  0
 23 42  1  0
 24 43  1  0
M  CHG  2  16   1  25  -1
M  END
>  <UniqueID>  (10) 
10

>  <SMILES>  (10) 
O=c1cc(Br)c(CNc2ccc(S(=O)(=O)[NH+]3CCOCC3)cc2)c[n-]1

>  <Energy>  (10) 
56.59994553287942

>  <Genealogy>  (10) 
O=c1cc(Br)c(CNc2ccc(S(=O)(=O)[NH+]3CCOCC3)cc2)c[n-]1 (protonated)
O=c1cc(Br)c(CNc2ccc(S(=O)(=O)[NH+]3CCOCC3)cc2)c[n-]1 (3D coordinates assigned)
O=c1cc(Br)c(CNc2ccc(S(=O)(=O)[NH+]3CCOCC3)cc2)c[n-]1 (nonaromatic ring conformer: 56.59994553287942 kcal/mol)

>  <smiles>  (10) 
O=c1cc(Br)c(CNc2ccc(S(=O)(=O)N3CCOCC3)cc2)c[nH]1

>  <score_type>  (10) 
oracle

>  <origin>  (10) 
adgpu

>  <m_score__min__energy>  (10) 
-9.0299999999999994

>  <m_primary>  (10) 
energy

$$$$
10:0
     RDKit          3D

 56 59  0  0  0  0  0  0  0  0999 V2000
   -4.1140   18.8490  -33.4800 C   0  0  0  0  0  0  0  0  0  0  0  0
   -5.1540   18.7730  -34.6020 C   0  0  0  0  0  0  0  0  0  0  0  0
   -6.4980   18.4490  -34.0990 N   0  0  0  0  0  0  0  0  0  0  0  0
   -6.5050   18.2150  -32.6490 C   0  0  0  0  0  0  0  0  0  0  0  0
   -7.8970   18.4870  -32.0650 C   0  0  0  0  0  0  0  0  0  0  0  0
   -8.1940   19.9190  -32.0450 N   0  0  0  0  0  0  0  0  0  0  0  0
   -9.5360   20.4810  -32.2100 C   0  0  0  0  0  0  0  0  0  0  0  0
   -9.3930   22.0040  -31.9710 C   0  0  0  0  0  0  0  0  0  0  0  0
   -7.9460   22.1730  -31.6680 C   0  0  0  0  0  0  0  0  0  0  0  0
   -7.2780   23.3410  -31.3040 C   0  0  0  0  0  0  0  0  0  0  0  0
   -5.9090   23.2680  -30.9930 C   0  0  0  0  0  0  0  0  0  0  0  0
   -5.0850   24.6870  -30.3590 S   0  0  0  0  0  0  0  0  0  0  0  0
   -5.4670   25.9150  -31.1360 O   0  0  0  0  0  0  0  0  0  0  0  0
   -5.4680   24.8810  -28.9190 O   0  0  0  0  0  0  0  0  0  0  0  0
   -3.3810   24.4250  -30.4760 N   0  0  0  0  0  0  0  0  0  0  0  0
   -2.7100   23.6720  -29.4670 C   0  0  0  0  0  0  0  0  0  0  0  0
   -3.1280   22.3680  -29.1770 C   0  0  0  0  0  0  0  0  0  0  0  0
   -2.5230   21.6410  -28.1420 C   0  0  0  0  0  0  0  0  0  0  0  0
   -1.4740   22.2240  -27.4000 C   0  0  0  0  0  0  0  0  0  0  0  0
   -1.0700   23.5360  -27.6850 C   0  0  0  0  0  0  0  0  0  0  0  0
   -1.6780   24.2570  -28.7210 C   0  0  0  0  0  0  0  0  0  0  0  0
   -1.2720   25.5610  -29.0030 O   0  0  0  0  0  0  0  0  0  0  0  0
   -0.8560   21.4900  -26.2320 C   0  0  0  0  0  0  0  0  0  0  0  0
   -1.0420   20.0350  -26.3230 N   0  0  0  0  0  0  0  0  0  0  0  0
   -2.4570   19.7040  -26.5370 C   0  0  0  0  0  0  0  0  0  0  0  0
   -2.9370   20.2130  -27.9020 C   0  0  0  0  0  0  0  0  0  0  0  0
   -5.2380   22.0280  -31.0620 C   0  0  0  0  0  0  0  0  0  0  0  0
   -5.9310   20.8670  -31.4360 C   0  0  0  0  0  0  0  0  0  0  0  0
   -7.2970   20.9700  -31.7240 C   0  0  0  0  0  0  0  0  0  0  0  0
   -4.6227   18.8118  -32.5054 H   0  0  0  0  0  0  0  0  0  0  0  0
   -3.4208   17.9991  -33.5644 H   0  0  0  0  0  0  0  0  0  0  0  0
   -3.5517   19.7906  -33.5644 H   0  0  0  0  0  0  0  0  0  0  0  0
   -5.1933   19.7458  -35.1139 H   0  0  0  0  0  0  0  0  0  0  0  0
   -4.8495   17.9689  -35.2881 H   0  0  0  0  0  0  0  0  0  0  0  0
   -7.1450   19.2420  -34.3220 H   0  0  0  0  0  0  0  0  0  0  0  0
   -6.2276   17.1693  -32.4502 H   0  0  0  0  0  0  0  0  0  0  0  0
   -5.7827   18.8967  -32.1763 H   0  0  0  0  0  0  0  0  0  0  0  0
   -8.6504   17.9733  -32.6802 H   0  0  0  0  0  0  0  0  0  0  0  0
   -7.9188   18.1133  -31.0307 H   0  0  0  0  0  0  0  0  0  0  0  0
   -9.9094   20.2870  -33.2263 H   0  0  0  0  0  0  0  0  0  0  0  0
  -10.2516   20.0283  -31.5078 H   0  0  0  0  0  0  0  0  0  0  0  0
   -9.6755   22.5714  -32.8700 H   0  0  0  0  0  0  0  0  0  0  0  0
  -10.0456   22.3749  -31.1669 H   0  0  0  0  0  0  0  0  0  0  0  0
   -7.8120   24.3017  -31.2609 H   0  0  0  0  0  0  0  0  0  0  0  0
   -3.9369   21.9103  -29.7653 H   0  0  0  0  0  0  0  0  0  0  0  0
   -0.2702   24.0024  -27.0911 H   0  0  0  0  0  0  0  0  0  0  0  0
   -1.6100   26.0570  -29.8210 H   0  0  0  0  0  0  0  0  0  0  0  0
    0.2220   21.7076  -26.2085 H   0  0  0  0  0  0  0  0  0  0  0  0
   -1.3570   21.8355  -25.3157 H   0  0  0  0  0  0  0  0  0  0  0  0
   -0.4750   19.6700  -27.1270 H   0  0  0  0  0  0  0  0  0  0  0  0
   -2.5818   18.6119  -26.4955 H   0  0  0  0  0  0  0  0  0  0  0  0
   -3.0545   20.1888  -25.7508 H   0  0  0  0  0  0  0  0  0  0  0  0
   -2.5049   19.5794  -28.6906 H   0  0  0  0  0  0  0  0  0  0  0  0
   -4.0360   20.1678  -27.9173 H   0  0  0  0  0  0  0  0  0  0  0  0
   -4.1661   21.9718  -30.8213 H   0  0  0  0  0  0  0  0  0  0  0  0
   -5.4132   19.8987  -31.5014 H   0  0  0  0  0  0  0  0  0  0  0  0
  1  2  1  0
  2  3  1  0
  3  4  1  0
  4  5  1  0
  5  6  1  0
  6  7  1  0
  7  8  1  0
  8  9  1  0
  9 10  2  0
 10 11  1  0
 11 12  1  0
 12 13  2  0
 12 14  2  0
 12 15  1  0
 15 16  1  0
 16 17  2  0
 17 18  1  0
 18 19  2  0
 19 20  1  0
 20 21  2  0
 21 22  1  0
 19 23  1  0
 23 24  1  0
 24 25  1  0
 25 26  1  0
 11 27  2  0
 27 28  1  0
 28 29  2  0
 29  6  1  0
 29  9  1  0
 21 16  1  0
 26 18  1  0
  1 30  1  0
  1 31  1  0
  1 32  1  0
  2 33  1  0
  2 34  1  0
  3 35  1  0
  4 36  1  0
  4 37  1  0
  5 38  1  0
  5 39  1  0
  7 40  1  0
  7 41  1  0
  8 42  1  0
  8 43  1  0
 10 44  1  0
 17 45  1  0
 20 46  1  0
 22 47  1  0
 23 48  1  0
 23 49  1  0
 24 50  1  0
 25 51  1  0
 25 52  1  0
 26 53  1  0
 26 54  1  0
 27 55  1  0
 28 56  1  0
M  CHG  1  15  -1
M  END
>  <UniqueID>  (11) 
11

>  <SMILES>  (11) 
CCNCCN1CCc2cc(S(=O)(=O)[N-]c3cc4c(cc3O)CNCC4)ccc21

>  <Energy>  (11) 
75.11381628853107

>  <Genealogy>  (11) 
CCNCCN1CCc2cc(S(=O)(=O)[N-]c3cc4c(cc3O)CNCC4)ccc21 (protonated)
CCNCCN1CCc2cc(S(=O)(=O)[N-]c3cc4c(cc3O)CNCC4)ccc21 (3D coordinates assigned)
CCNCCN1CCc2cc(S(=O)(=O)[N-]c3cc4c(cc3O)CNCC4)ccc21 (nonaromatic ring conformer: 75.11381628853107 kcal/mol)

>  <smiles>  (11) 
CCNCCN1CCc2cc(S(=O)(=O)Nc3cc4c(cc3O)CNCC4)ccc21

>  <score_type>  (11) 
oracle

>  <origin>  (11) 
adgpu

>  <m_score__min__energy>  (11) 
-12.82

>  <m_primary>  (11) 
energy

$$$$
11:0
     RDKit          3D

 48 50  0  0  0  0  0  0  0  0999 V2000
   -9.1250   19.9830  -32.3550 C   0  0  0  0  0  0  0  0  0  0  0  0
   -7.9710   20.9060  -32.0990 C   0  0  0  0  0  0  0  0  0  0  0  0
   -6.6880   20.5810  -32.5640 C   0  0  0  0  0  0  0  0  0  0  0  0
   -5.6190   21.4580  -32.3580 C   0  0  0  0  0  0  0  0  0  0  0  0
   -5.8200   22.6740  -31.6800 C   0  0  0  0  0  0  0  0  0  0  0  0
   -4.7560   23.6130  -31.4690 N   0  0  0  0  0  0  0  0  0  0  0  0
   -4.8740   24.9280  -30.9130 C   0  0  0  0  0  0  0  0  0  0  0  0
   -5.7120   25.7470  -31.3790 O   0  0  0  0  0  0  0  0  0  0  0  0
   -4.0260   25.2950  -29.8200 N   0  0  0  0  0  0  0  0  0  0  0  0
   -3.1370   24.4280  -29.0970 C   0  0  0  0  0  0  0  0  0  0  0  0
   -3.5010   23.1190  -28.7630 C   0  0  0  0  0  0  0  0  0  0  0  0
   -2.6300   22.3110  -28.0380 C   0  0  0  0  0  0  0  0  0  0  0  0
   -1.3730   22.7860  -27.6290 C   0  0  0  0  0  0  0  0  0  0  0  0
   -0.5080   21.8650  -26.8080 C   0  0  0  0  0  0  0  0  0  0  0  0
   -0.9980   24.1230  -27.9410 C   0  0  0  0  0  0  0  0  0  0  0  0
    0.5750   24.8210  -27.4530 S   0  0  0  0  0  0  0  0  0  0  0  0
    1.0140   24.1800  -26.1650 O   0  0  0  0  0  0  0  0  0  0  0  0
    1.6370   24.5210  -28.4720 O   0  0  0  0  0  0  0  0  0  0  0  0
    0.4890   26.5540  -27.2200 N   0  0  0  0  0  0  0  0  0  0  0  0
    1.7730   27.0850  -26.7430 C   0  0  0  0  0  0  0  0  0  0  0  0
    1.6800   28.6180  -26.5870 C   0  0  0  0  0  0  0  0  0  0  0  0
    0.3610   29.0980  -26.7820 O   0  0  0  0  0  0  0  0  0  0  0  0
   -0.5330   28.4070  -25.9300 C   0  0  0  0  0  0  0  0  0  0  0  0
   -0.5830   26.9040  -26.2740 C   0  0  0  0  0  0  0  0  0  0  0  0
   -1.9040   24.9340  -28.6650 C   0  0  0  0  0  0  0  0  0  0  0  0
   -1.5830   26.2540  -28.9660 O   0  0  0  0  0  0  0  0  0  0  0  0
   -7.1090   23.0140  -31.2550 C   0  0  0  0  0  0  0  0  0  0  0  0
   -8.1790   22.1370  -31.4610 C   0  0  0  0  0  0  0  0  0  0  0  0
   -9.5454   19.6468  -31.3957 H   0  0  0  0  0  0  0  0  0  0  0  0
   -9.8990   20.5140  -32.9285 H   0  0  0  0  0  0  0  0  0  0  0  0
   -8.7770   19.1112  -32.9285 H   0  0  0  0  0  0  0  0  0  0  0  0
   -6.5223   19.6312  -33.0935 H   0  0  0  0  0  0  0  0  0  0  0  0
   -4.6166   21.1961  -32.7276 H   0  0  0  0  0  0  0  0  0  0  0  0
   -4.4802   22.7266  -29.0749 H   0  0  0  0  0  0  0  0  0  0  0  0
   -2.9307   21.2845  -27.7813 H   0  0  0  0  0  0  0  0  0  0  0  0
   -0.6844   22.0528  -25.7386 H   0  0  0  0  0  0  0  0  0  0  0  0
   -0.7588   20.8201  -27.0430 H   0  0  0  0  0  0  0  0  0  0  0  0
    0.5506   22.0498  -27.0430 H   0  0  0  0  0  0  0  0  0  0  0  0
    2.0161   26.6331  -25.7700 H   0  0  0  0  0  0  0  0  0  0  0  0
    2.5598   26.8414  -27.4721 H   0  0  0  0  0  0  0  0  0  0  0  0
    2.0101   28.8914  -25.5739 H   0  0  0  0  0  0  0  0  0  0  0  0
    2.3219   29.0746  -27.3548 H   0  0  0  0  0  0  0  0  0  0  0  0
   -0.1999   28.5257  -24.8884 H   0  0  0  0  0  0  0  0  0  0  0  0
   -1.5397   28.8289  -26.0660 H   0  0  0  0  0  0  0  0  0  0  0  0
   -0.4573   26.3176  -25.3519 H   0  0  0  0  0  0  0  0  0  0  0  0
   -1.5542   26.6783  -26.7386 H   0  0  0  0  0  0  0  0  0  0  0  0
   -7.2822   23.9784  -30.7550 H   0  0  0  0  0  0  0  0  0  0  0  0
   -9.1878   22.4142  -31.1211 H   0  0  0  0  0  0  0  0  0  0  0  0
  1  2  1  0
  2  3  2  0
  3  4  1  0
  4  5  2  0
  5  6  1  0
  6  7  1  0
  7  8  2  0
  7  9  1  0
  9 10  1  0
 10 11  2  0
 11 12  1  0
 12 13  2  0
 13 14  1  0
 13 15  1  0
 15 16  1  0
 16 17  2  0
 16 18  2  0
 16 19  1  0
 19 20  1  0
 20 21  1  0
 21 22  1  0
 22 23  1  0
 23 24  1  0
 15 25  2  0
 25 26  1  0
  5 27  1  0
 27 28  2  0
 28  2  1  0
 25 10  1  0
 24 19  1  0
  1 29  1  0
  1 30  1  0
  1 31  1  0
  3 32  1  0
  4 33  1  0
 11 34  1  0
 12 35  1  0
 14 36  1  0
 14 37  1  0
 14 38  1  0
 20 39  1  0
 20 40  1  0
 21 41  1  0
 21 42  1  0
 23 43  1  0
 23 44  1  0
 24 45  1  0
 24 46  1  0
 27 47  1  0
 28 48  1  0
M  CHG  3   6  -1   9  -1  26  -1
M  END
>  <UniqueID>  (12) 
12

>  <SMILES>  (12) 
Cc1ccc([N-]C(=O)[N-]c2ccc(C)c(S(=O)(=O)N3CCOCC3)c2[O-])cc1

>  <Energy>  (12) 
67.82218373792156

>  <Genealogy>  (12) 
Cc1ccc([N-]C(=O)[N-]c2ccc(C)c(S(=O)(=O)N3CCOCC3)c2[O-])cc1 (protonated)
Cc1ccc([N-]C(=O)[N-]c2ccc(C)c(S(=O)(=O)N3CCOCC3)c2[O-])cc1 (3D coordinates assigned)
Cc1ccc([N-]C(=O)[N-]c2ccc(C)c(S(=O)(=O)N3CCOCC3)c2[O-])cc1 (nonaromatic ring conformer: 67.82218373792156 kcal/mol)

>  <smiles>  (12) 
Cc1ccc(NC(=O)Nc2ccc(C)c(S(=O)(=O)N3CCOCC3)c2O)cc1

>  <score_type>  (12) 
oracle

>  <origin>  (12) 
adgpu

>  <m_score__min__energy>  (12) 
-15.130000000000001

>  <m_primary>  (12) 
energy

$$$$
12:0
     RDKit          3D

 51 53  0  0  0  0  0  0  0  0999 V2000
   -9.2340   18.8610  -32.3440 C   0  0  0  0  0  0  0  0  0  0  0  0
   -7.9750   19.6850  -32.4160 C   0  0  0  0  0  0  0  0  0  0  0  0
   -6.8180   19.1250  -32.9830 C   0  0  0  0  0  0  0  0  0  0  0  0
   -5.6420   19.8700  -33.0810 C   0  0  0  0  0  0  0  0  0  0  0  0
   -5.6010   21.1840  -32.6090 C   0  0  0  0  0  0  0  0  0  0  0  0
   -4.0910   22.1460  -32.7350 S   0  0  0  0  0  0  0  0  0  0  0  0
   -4.4150   23.0640  -31.2230 C   0  0  0  0  0  0  0  0  0  0  0  0
   -5.1910   24.1800  -31.2970 N   0  0  0  0  0  0  0  0  0  0  0  0
   -5.4640   24.9440  -30.2060 C   0  0  0  0  0  0  0  0  0  0  0  0
   -4.9370   24.5990  -28.9630 C   0  0  0  0  0  0  0  0  0  0  0  0
   -4.1260   23.4690  -28.8550 C   0  0  0  0  0  0  0  0  0  0  0  0
   -3.8500   22.6880  -29.9860 C   0  0  0  0  0  0  0  0  0  0  0  0
   -2.9460   21.5310  -29.8650 C   0  0  0  0  0  0  0  0  0  0  0  0
   -3.4090   20.4190  -29.5030 O   0  0  0  0  0  0  0  0  0  0  0  0
   -1.5480   21.6390  -30.1560 N   0  0  0  0  0  0  0  0  0  0  0  0
   -0.5190   21.8750  -29.1490 C   0  0  0  0  0  0  0  0  0  0  0  0
    0.2520   20.5810  -28.8460 C   0  0  0  0  0  0  0  0  0  0  0  0
   -0.5160   19.3350  -29.1290 N   0  0  0  0  0  0  0  0  0  0  0  0
    0.1600   18.4120  -30.0670 C   0  0  0  0  0  0  0  0  0  0  0  0
    1.4400   17.8010  -29.4500 C   0  0  0  0  0  0  0  0  0  0  0  0
    1.4810   17.9010  -28.0360 O   0  0  0  0  0  0  0  0  0  0  0  0
    0.2260   17.5700  -27.4830 C   0  0  0  0  0  0  0  0  0  0  0  0
   -0.8450   18.6170  -27.8680 C   0  0  0  0  0  0  0  0  0  0  0  0
   -6.7530   21.7640  -32.0680 C   0  0  0  0  0  0  0  0  0  0  0  0
   -7.9480   21.0290  -31.9710 C   0  0  0  0  0  0  0  0  0  0  0  0
   -9.1730   21.6850  -31.3880 C   0  0  0  0  0  0  0  0  0  0  0  0
   -9.4990   18.6876  -31.2906 H   0  0  0  0  0  0  0  0  0  0  0  0
  -10.0530   19.3984  -32.8444 H   0  0  0  0  0  0  0  0  0  0  0  0
   -9.0693   17.8954  -32.8444 H   0  0  0  0  0  0  0  0  0  0  0  0
   -6.8392   18.0894  -33.3533 H   0  0  0  0  0  0  0  0  0  0  0  0
   -4.7445   19.4210  -33.5314 H   0  0  0  0  0  0  0  0  0  0  0  0
   -6.1013   25.8351  -30.3046 H   0  0  0  0  0  0  0  0  0  0  0  0
   -5.1581   25.2112  -28.0763 H   0  0  0  0  0  0  0  0  0  0  0  0
   -3.7017   23.1899  -27.8792 H   0  0  0  0  0  0  0  0  0  0  0  0
    0.1835   22.6349  -29.5219 H   0  0  0  0  0  0  0  0  0  0  0  0
   -1.0026   22.2230  -28.2243 H   0  0  0  0  0  0  0  0  0  0  0  0
    1.1650   20.5710  -29.4595 H   0  0  0  0  0  0  0  0  0  0  0  0
    0.4656   20.5840  -27.7669 H   0  0  0  0  0  0  0  0  0  0  0  0
   -1.4250   19.6180  -29.5650 H   0  0  0  0  0  0  0  0  0  0  0  0
   -0.5330   17.5984  -30.3273 H   0  0  0  0  0  0  0  0  0  0  0  0
    0.4509   18.9848  -30.9599 H   0  0  0  0  0  0  0  0  0  0  0  0
    1.4883   16.7375  -29.7269 H   0  0  0  0  0  0  0  0  0  0  0  0
    2.2958   18.3694  -29.8429 H   0  0  0  0  0  0  0  0  0  0  0  0
   -0.0838   16.5839  -27.8594 H   0  0  0  0  0  0  0  0  0  0  0  0
    0.3203   17.5530  -26.3872 H   0  0  0  0  0  0  0  0  0  0  0  0
   -1.8094   18.1037  -27.9962 H   0  0  0  0  0  0  0  0  0  0  0  0
   -0.8867   19.3632  -27.0609 H   0  0  0  0  0  0  0  0  0  0  0  0
   -6.7240   22.8054  -31.7149 H   0  0  0  0  0  0  0  0  0  0  0  0
   -9.1174   21.6552  -30.2898 H   0  0  0  0  0  0  0  0  0  0  0  0
   -9.2239   22.7311  -31.7243 H   0  0  0  0  0  0  0  0  0  0  0  0
  -10.0719   21.1476  -31.7243 H   0  0  0  0  0  0  0  0  0  0  0  0
  1  2  1  0
  2  3  2  0
  3  4  1  0
  4  5  2  0
  5  6  1  0
  6  7  1  0
  7  8  2  0
  8  9  1  0
  9 10  2  0
 10 11  1  0
 11 12  2  0
 12 13  1  0
 13 14  2  0
 13 15  1  0
 15 16  1  0
 16 17  1  0
 17 18  1  0
 18 19  1  0
 19 20  1  0
 20 21  1  0
 21 22  1  0
 22 23  1  0
  5 24  1  0
 24 25  2  0
 25 26  1  0
 25  2  1  0
 12  7  1  0
 23 18  1  0
  1 27  1  0
  1 28  1  0
  1 29  1  0
  3 30  1  0
  4 31  1  0
  9 32  1  0
 10 33  1  0
 11 34  1  0
 16 35  1  0
 16 36  1  0
 17 37  1  0
 17 38  1  0
 18 39  1  0
 19 40  1  0
 19 41  1  0
 20 42  1  0
 20 43  1  0
 22 44  1  0
 22 45  1  0
 23 46  1  0
 23 47  1  0
 24 48  1  0
 26 49  1  0
 26 50  1  0
 26 51  1  0
M  CHG  2  15  -1  18   1
M  END
>  <UniqueID>  (13) 
13

>  <SMILES>  (13) 
Cc1ccc(Sc2ncccc2C(=O)[N-]CC[NH+]2CCOCC2)cc1C

>  <Energy>  (13) 
67.25708460333489

>  <Genealogy>  (13) 
Cc1ccc(Sc2ncccc2C(=O)[N-]CC[NH+]2CCOCC2)cc1C (protonated)
Cc1ccc(Sc2ncccc2C(=O)[N-]CC[NH+]2CCOCC2)cc1C (3D coordinates assigned)
Cc1ccc(Sc2ncccc2C(=O)[N-]CC[NH+]2CCOCC2)cc1C (nonaromatic ring conformer: 67.25708460333489 kcal/mol)

>  <smiles>  (13) 
Cc1ccc(Sc2ncccc2C(=O)NCCN2CCOCC2)cc1C

>  <score_type>  (13) 
oracle

>  <origin>  (13) 
adgpu

>  <m_score__min__energy>  (13) 
-9.0700000000000003

>  <m_primary>  (13) 
energy

$$$$
13:0
     RDKit          3D

 54 57  0  0  0  0  0  0  0  0999 V2000
   -2.1400   18.9710  -26.7960 C   0  0  0  0  0  0  0  0  0  0  0  0
   -1.0690   18.9010  -27.7950 N   0  0  0  0  0  0  0  0  0  0  0  0
   -0.0500   17.8550  -27.6800 C   0  0  0  0  0  0  0  0  0  0  0  0
   -1.0350   19.8430  -28.8950 C   0  0  0  0  0  0  0  0  0  0  0  0
   -0.4750   19.4790  -30.1360 C   0  0  0  0  0  0  0  0  0  0  0  0
   -0.4230   20.3960  -31.1890 C   0  0  0  0  0  0  0  0  0  0  0  0
   -0.9230   21.6870  -31.0210 C   0  0  0  0  0  0  0  0  0  0  0  0
   -1.4820   22.0760  -29.8010 C   0  0  0  0  0  0  0  0  0  0  0  0
   -1.9680   23.3870  -29.6760 O   0  0  0  0  0  0  0  0  0  0  0  0
   -2.0940   24.0670  -28.4600 C   0  0  0  0  0  0  0  0  0  0  0  0
   -0.9310   24.4220  -27.7630 C   0  0  0  0  0  0  0  0  0  0  0  0
   -1.0230   25.1020  -26.5480 C   0  0  0  0  0  0  0  0  0  0  0  0
   -2.2770   25.4500  -26.0310 C   0  0  0  0  0  0  0  0  0  0  0  0
   -3.4430   25.0740  -26.7030 C   0  0  0  0  0  0  0  0  0  0  0  0
   -3.3620   24.3670  -27.9150 C   0  0  0  0  0  0  0  0  0  0  0  0
   -4.5610   23.9780  -28.5970 N   0  0  0  0  0  0  0  0  0  0  0  0
   -4.8360   24.3870  -29.9750 C   0  0  1  0  0  0  0  0  0  0  0  0
   -3.7840   25.1650  -30.4790 O   0  0  0  0  0  0  0  0  0  0  0  0
   -5.0230   23.1680  -30.8420 C   0  0  0  0  0  0  0  0  0  0  0  0
   -4.0100   22.5490  -31.5500 C   0  0  0  0  0  0  0  0  0  0  0  0
   -4.6020   21.5180  -32.2490 C   0  0  0  0  0  0  0  0  0  0  0  0
   -3.7120   20.3210  -33.4400 Br  0  0  0  0  0  0  0  0  0  0  0  0
   -5.9470   21.5410  -31.9440 C   0  0  0  0  0  0  0  0  0  0  0  0
   -7.2650   20.3690  -32.6900 Br  0  0  0  0  0  0  0  0  0  0  0  0
   -6.2020   22.5400  -31.0700 N   0  0  0  0  0  0  0  0  0  0  0  0
   -7.5220   22.9420  -30.5820 C   0  0  0  0  0  0  0  0  0  0  0  0
   -2.3440   26.1760  -24.8370 O   0  0  0  0  0  0  0  0  0  0  0  0
   -1.1810   26.8000  -24.2860 C   0  0  0  0  0  0  0  0  0  0  0  0
    0.0470   25.8990  -24.4770 C   0  0  0  0  0  0  0  0  0  0  0  0
    0.1270   25.4510  -25.8330 O   0  0  0  0  0  0  0  0  0  0  0  0
   -1.5510   21.1460  -28.7450 C   0  0  0  0  0  0  0  0  0  0  0  0
   -1.7027   18.9424  -25.7870 H   0  0  0  0  0  0  0  0  0  0  0  0
   -2.7018   19.9078  -26.9257 H   0  0  0  0  0  0  0  0  0  0  0  0
   -2.8189   18.1153  -26.9257 H   0  0  0  0  0  0  0  0  0  0  0  0
    0.1483   17.6515  -26.6173 H   0  0  0  0  0  0  0  0  0  0  0  0
   -0.4099   16.9373  -28.1682 H   0  0  0  0  0  0  0  0  0  0  0  0
    0.8768   18.1907  -28.1682 H   0  0  0  0  0  0  0  0  0  0  0  0
   -0.0753   18.4639  -30.2769 H   0  0  0  0  0  0  0  0  0  0  0  0
    0.0138   20.0986  -32.1538 H   0  0  0  0  0  0  0  0  0  0  0  0
   -0.8770   22.4036  -31.8543 H   0  0  0  0  0  0  0  0  0  0  0  0
    0.0560   24.1641  -28.1745 H   0  0  0  0  0  0  0  0  0  0  0  0
   -4.4262   25.3319  -26.2826 H   0  0  0  0  0  0  0  0  0  0  0  0
   -5.3850   23.7180  -28.0100 H   0  0  0  0  0  0  0  0  0  0  0  0
   -5.7562   24.9897  -29.9829 H   0  0  0  0  0  0  0  0  0  0  0  0
   -3.1130   24.5330  -30.8530 H   0  0  0  0  0  0  0  0  0  0  0  0
   -2.9449   22.8237  -31.5549 H   0  0  0  0  0  0  0  0  0  0  0  0
   -7.5219   22.9420  -29.4820 H   0  0  0  0  0  0  0  0  0  0  0  0
   -7.7564   23.9523  -30.9486 H   0  0  0  0  0  0  0  0  0  0  0  0
   -8.2797   22.2339  -30.9486 H   0  0  0  0  0  0  0  0  0  0  0  0
   -1.0092   27.7604  -24.7940 H   0  0  0  0  0  0  0  0  0  0  0  0
   -1.3394   26.9663  -23.2102 H   0  0  0  0  0  0  0  0  0  0  0  0
    0.9558   26.4664  -24.2279 H   0  0  0  0  0  0  0  0  0  0  0  0
   -0.0440   25.0247  -23.8157 H   0  0  0  0  0  0  0  0  0  0  0  0
   -2.0134   21.4405  -27.7914 H   0  0  0  0  0  0  0  0  0  0  0  0
  1  2  1  0
  2  3  1  0
  2  4  1  0
  4  5  2  0
  5  6  1  0
  6  7  2  0
  7  8  1  0
  8  9  1  0
  9 10  1  0
 10 11  2  0
 11 12  1  0
 12 13  2  0
 13 14  1  0
 14 15  2  0
 15 16  1  0
 16 17  1  0
 17 18  1  0
 17 19  1  0
 19 20  2  0
 20 21  1  0
 21 22  1  0
 21 23  2  0
 23 24  1  0
 23 25  1  0
 25 26  1  0
 13 27  1  0
 27 28  1  0
 28 29  1  0
 29 30  1  0
  8 31  2  0
 31  4  1  0
 15 10  1  0
 25 19  1  0
 30 12  1  0
  1 32  1  0
  1 33  1  0
  1 34  1  0
  3 35  1  0
  3 36  1  0
  3 37  1  0
  5 38  1  0
  6 39  1  0
  7 40  1  0
 11 41  1  0
 14 42  1  0
 16 43  1  0
 17 44  1  1
 18 45  1  0
 20 46  1  0
 26 47  1  0
 26 48  1  0
 26 49  1  0
 28 50  1  0
 28 51  1  0
 29 52  1  0
 29 53  1  0
 31 54  1  0
M  END
>  <UniqueID>  (14) 
14

>  <SMILES>  (14) 
CN(C)c1cccc(Oc2cc3c(cc2N[C@@H](O)c2cc(Br)c(Br)n2C)OCCO3)c1

>  <Energy>  (14) 
98.78952948149573

>  <Genealogy>  (14) 
CN(C)c1cccc(Oc2cc3c(cc2N[C@@H](O)c2cc(Br)c(Br)n2C)OCCO3)c1 (chirality)
CN(C)c1cccc(Oc2cc3c(cc2N[C@@H](O)c2cc(Br)c(Br)n2C)OCCO3)c1 (3D coordinates assigned)
CN(C)c1cccc(Oc2cc3c(cc2N[C@@H](O)c2cc(Br)c(Br)n2C)OCCO3)c1 (nonaromatic ring conformer: 98.78952948149573 kcal/mol)

>  <smiles>  (14) 
CN(C)c1cccc(Oc2cc3c(cc2NC(O)c2cc(Br)c(Br)n2C)OCCO3)c1

>  <score_type>  (14) 
oracle

>  <origin>  (14) 
adgpu

>  <m_score__min__energy>  (14) 
-8.9499999999999993

>  <m_primary>  (14) 
energy

$$$$
14:0
     RDKit          3D

 80 84  0  0  0  0  0  0  0  0999 V2000
   -1.6000   19.9740  -26.3390 C   0  0  0  0  0  0  0  0  0  0  0  0
   -1.5680   21.5060  -26.4120 C   0  0  0  0  0  0  0  0  0  0  0  0
   -0.5670   22.0180  -27.3850 N   0  0  0  0  0  0  0  0  0  0  0  0
   -0.2290   20.9990  -28.4030 C   0  0  0  0  0  0  0  0  0  0  0  0
   -1.3910   20.7210  -29.3680 C   0  0  0  0  0  0  0  0  0  0  0  0
   -1.9380   21.9720  -29.9200 N   0  0  0  0  0  0  0  0  0  0  0  0
   -2.6500   21.9540  -31.1800 C   0  0  0  0  0  0  0  0  0  0  0  0
   -3.2530   22.9840  -31.5850 O   0  0  0  0  0  0  0  0  0  0  0  0
   -2.7180   20.7430  -32.0110 C   0  0  0  0  0  0  0  0  0  0  0  0
   -1.5550   20.0390  -32.3210 C   0  0  0  0  0  0  0  0  0  0  0  0
   -1.6250   18.8800  -33.0930 C   0  0  0  0  0  0  0  0  0  0  0  0
   -2.8560   18.4040  -33.5800 C   0  0  0  0  0  0  0  0  0  0  0  0
   -2.8400   16.9150  -34.5510 S   0  0  0  0  0  0  0  0  0  0  0  0
   -3.2790   15.7540  -33.7030 O   0  0  0  0  0  0  0  0  0  0  0  0
   -3.7550   17.0270  -35.7360 O   0  0  0  0  0  0  0  0  0  0  0  0
   -1.2220   16.5880  -35.1710 C   0  0  0  0  0  0  0  0  0  0  0  0
   -0.7400   15.2730  -35.2210 C   0  0  0  0  0  0  0  0  0  0  0  0
    0.5220   15.0080  -35.7610 C   0  0  0  0  0  0  0  0  0  0  0  0
    1.3030   16.0530  -36.2630 C   0  0  0  0  0  0  0  0  0  0  0  0
    0.8280   17.3710  -36.2180 C   0  0  0  0  0  0  0  0  0  0  0  0
    1.7730   18.6730  -36.9330 S   0  0  0  0  0  0  0  0  0  0  0  0
    0.9740   19.3090  -38.0360 O   0  0  0  0  0  0  0  0  0  0  0  0
    3.0430   18.1180  -37.5180 O   0  0  0  0  0  0  0  0  0  0  0  0
    2.1460   19.8690  -35.7150 N   0  0  0  0  0  0  0  0  0  0  0  0
    2.5800   21.1250  -36.3580 C   0  0  0  0  0  0  0  0  0  0  0  0
    2.4140   22.3110  -35.3950 C   0  0  0  0  0  0  0  0  0  0  0  0
    1.0780   22.5230  -34.9570 O   0  0  0  0  0  0  0  0  0  0  0  0
    0.2520   21.3710  -35.0550 C   0  0  0  0  0  0  0  0  0  0  0  0
    1.0080   20.0580  -34.7870 C   0  0  0  0  0  0  0  0  0  0  0  0
   -0.4340   17.6340  -35.6690 C   0  0  0  0  0  0  0  0  0  0  0  0
   -4.0470   19.1110  -33.2470 C   0  0  0  0  0  0  0  0  0  0  0  0
   -5.6710   18.5810  -33.7340 S   0  0  0  0  0  0  0  0  0  0  0  0
   -5.8230   17.1140  -33.4450 O   0  0  0  0  0  0  0  0  0  0  0  0
   -5.8610   18.7860  -35.2120 O   0  0  0  0  0  0  0  0  0  0  0  0
   -6.9140   19.5230  -32.9170 C   0  0  0  0  0  0  0  0  0  0  0  0
   -7.9870   18.8910  -32.2760 C   0  0  0  0  0  0  0  0  0  0  0  0
   -8.9510   19.6510  -31.6070 C   0  0  0  0  0  0  0  0  0  0  0  0
   -8.8640   21.0510  -31.5910 C   0  0  0  0  0  0  0  0  0  0  0  0
   -9.8720   21.8600  -30.8310 C   0  0  0  0  0  0  0  0  0  0  0  0
   -7.7870   21.6810  -32.2320 C   0  0  0  0  0  0  0  0  0  0  0  0
   -6.8220   20.9210  -32.8990 C   0  0  0  0  0  0  0  0  0  0  0  0
   -3.9530   20.2810  -32.4730 C   0  0  0  0  0  0  0  0  0  0  0  0
   -2.1490   23.1060  -29.0090 C   0  0  0  0  0  0  0  0  0  0  0  0
   -0.9620   23.2800  -28.0500 C   0  0  0  0  0  0  0  0  0  0  0  0
   -1.6066   19.6572  -25.2856 H   0  0  0  0  0  0  0  0  0  0  0  0
   -2.5061   19.6019  -26.8395 H   0  0  0  0  0  0  0  0  0  0  0  0
   -0.7102   19.5644  -26.8395 H   0  0  0  0  0  0  0  0  0  0  0  0
   -2.5640   21.8640  -26.7118 H   0  0  0  0  0  0  0  0  0  0  0  0
   -1.2817   21.8780  -25.4172 H   0  0  0  0  0  0  0  0  0  0  0  0
    0.3170   22.2110  -26.8550 H   0  0  0  0  0  0  0  0  0  0  0  0
    0.6345   21.3545  -28.9843 H   0  0  0  0  0  0  0  0  0  0  0  0
   -0.0033   20.0613  -27.8740 H   0  0  0  0  0  0  0  0  0  0  0  0
   -1.0279   20.0929  -30.1948 H   0  0  0  0  0  0  0  0  0  0  0  0
   -2.1895   20.2081  -28.8119 H   0  0  0  0  0  0  0  0  0  0  0  0
   -0.5814   20.3983  -31.9562 H   0  0  0  0  0  0  0  0  0  0  0  0
   -0.7020   18.3285  -33.3252 H   0  0  0  0  0  0  0  0  0  0  0  0
   -1.3559   14.4476  -34.8345 H   0  0  0  0  0  0  0  0  0  0  0  0
    0.9009   13.9758  -35.7909 H   0  0  0  0  0  0  0  0  0  0  0  0
    2.2924   15.8406  -36.6942 H   0  0  0  0  0  0  0  0  0  0  0  0
    3.6384   21.0375  -36.6446 H   0  0  0  0  0  0  0  0  0  0  0  0
    1.9581   21.3011  -37.2480 H   0  0  0  0  0  0  0  0  0  0  0  0
    3.0421   22.1280  -34.5107 H   0  0  0  0  0  0  0  0  0  0  0  0
    2.7119   23.2130  -35.9497 H   0  0  0  0  0  0  0  0  0  0  0  0
   -0.5624   21.4614  -34.3212 H   0  0  0  0  0  0  0  0  0  0  0  0
   -0.1249   21.3261  -36.0875 H   0  0  0  0  0  0  0  0  0  0  0  0
    1.3905   20.0735  -33.7558 H   0  0  0  0  0  0  0  0  0  0  0  0
    0.3050   19.2260  -34.9405 H   0  0  0  0  0  0  0  0  0  0  0  0
   -0.8082   18.6676  -35.6287 H   0  0  0  0  0  0  0  0  0  0  0  0
   -8.0714   17.7945  -32.2990 H   0  0  0  0  0  0  0  0  0  0  0  0
   -9.7821   19.1485  -31.0904 H   0  0  0  0  0  0  0  0  0  0  0  0
   -9.7085   21.7288  -29.7512 H   0  0  0  0  0  0  0  0  0  0  0  0
   -9.7613   22.9228  -31.0921 H   0  0  0  0  0  0  0  0  0  0  0  0
  -10.8857   21.5219  -31.0921 H   0  0  0  0  0  0  0  0  0  0  0  0
   -7.7015   22.7774  -32.2097 H   0  0  0  0  0  0  0  0  0  0  0  0
   -5.9876   21.4221  -33.4115 H   0  0  0  0  0  0  0  0  0  0  0  0
   -4.8668   20.8418  -32.2271 H   0  0  0  0  0  0  0  0  0  0  0  0
   -2.2681   24.0247  -29.6021 H   0  0  0  0  0  0  0  0  0  0  0  0
   -3.0515   22.9084  -28.4120 H   0  0  0  0  0  0  0  0  0  0  0  0
   -0.1021   23.6593  -28.6215 H   0  0  0  0  0  0  0  0  0  0  0  0
   -1.2741   23.9830  -27.2636 H   0  0  0  0  0  0  0  0  0  0  0  0
  1  2  1  0
  2  3  1  0
  3  4  1  0
  4  5  1  0
  5  6  1  0
  6  7  1  0
  7  8  2  0
  7  9  1  0
  9 10  2  0
 10 11  1  0
 11 12  2  0
 12 13  1  0
 13 14  2  0
 13 15  2  0
 13 16  1  0
 16 17  2  0
 17 18  1  0
 18 19  2  0
 19 20  1  0
 20 21  1  0
 21 22  2  0
 21 23  2  0
 21 24  1  0
 24 25  1  0
 25 26  1  0
 26 27  1  0
 27 28  1  0
 28 29  1  0
 20 30  2  0
 12 31  1  0
 31 32  1  0
 32 33  2  0
 32 34  2  0
 32 35  1  0
 35 36  2  0
 36 37  1  0
 37 38  2  0
 38 39  1  0
 38 40  1  0
 40 41  2  0
 31 42  2  0
  6 43  1  0
 43 44  1  0
 44  3  1  0
 42  9  1  0
 30 16  1  0
 41 35  1  0
 29 24  1  0
  1 45  1  0
  1 46  1  0
  1 47  1  0
  2 48  1  0
  2 49  1  0
  3 50  1  0
  4 51  1  0
  4 52  1  0
  5 53  1  0
  5 54  1  0
 10 55  1  0
 11 56  1  0
 17 57  1  0
 18 58  1  0
 19 59  1  0
 25 60  1  0
 25 61  1  0
 26 62  1  0
 26 63  1  0
 28 64  1  0
 28 65  1  0
 29 66  1  0
 29 67  1  0
 30 68  1  0
 36 69  1  0
 37 70  1  0
 39 71  1  0
 39 72  1  0
 39 73  1  0
 40 74  1  0
 41 75  1  0
 42 76  1  0
 43 77  1  0
 43 78  1  0
 44 79  1  0
 44 80  1  0
M  CHG  1   3   1
M  END
>  <UniqueID>  (15) 
15

>  <SMILES>  (15) 
CC[NH+]1CCN(C(=O)c2ccc(S(=O)(=O)c3cccc(S(=O)(=O)N4CCOCC4)c3)c(S(=O)(=O)c3ccc(C)cc3)c2)CC1

>  <Energy>  (15) 
112.78859588728173

>  <Genealogy>  (15) 
CC[NH+]1CCN(C(=O)c2ccc(S(=O)(=O)c3cccc(S(=O)(=O)N4CCOCC4)c3)c(S(=O)(=O)c3ccc(C)cc3)c2)CC1 (protonated)
CC[NH+]1CCN(C(=O)c2ccc(S(=O)(=O)c3cccc(S(=O)(=O)N4CCOCC4)c3)c(S(=O)(=O)c3ccc(C)cc3)c2)CC1 (3D coordinates assigned)
CC[NH+]1CCN(C(=O)c2ccc(S(=O)(=O)c3cccc(S(=O)(=O)N4CCOCC4)c3)c(S(=O)(=O)c3ccc(C)cc3)c2)CC1 (nonaromatic ring conformer: 112.78859588728173 kcal/mol)

>  <smiles>  (15) 
CCN1CCN(C(=O)c2ccc(S(=O)(=O)c3cccc(S(=O)(=O)N4CCOCC4)c3)c(S(=O)(=O)c3ccc(C)cc3)c2)CC1

>  <score_type>  (15) 
oracle

>  <origin>  (15) 
adgpu

>  <m_score__min__energy>  (15) 
-11.69

>  <m_primary>  (15) 
energy

$$$$
15:0
     RDKit          3D

 32 33  0  0  0  0  0  0  0  0999 V2000
   -5.7520   23.4520  -29.5070 C   0  0  0  0  0  0  0  0  0  0  0  0
   -5.3860   24.8740  -30.5160 S   0  0  0  0  0  0  0  0  0  0  0  0
   -5.7330   24.5520  -31.9430 O   0  0  0  0  0  0  0  0  0  0  0  0
   -6.2200   26.0390  -30.0620 O   0  0  0  0  0  0  0  0  0  0  0  0
   -3.6970   25.2860  -30.4330 N   0  0  0  0  0  0  0  0  0  0  0  0
   -2.9350   24.2630  -29.7140 C   0  0  0  0  0  0  0  0  0  0  0  0
   -2.7010   23.0700  -30.5870 C   0  0  0  0  0  0  0  0  0  0  0  0
   -1.8060   22.0450  -30.3420 C   0  0  0  0  0  0  0  0  0  0  0  0
   -1.9910   21.1710  -31.3920 C   0  0  0  0  0  0  0  0  0  0  0  0
   -2.9450   21.6720  -32.1990 N   0  0  0  0  0  0  0  0  0  0  0  0
   -3.4930   21.0230  -33.3850 C   0  0  0  0  0  0  0  0  0  0  0  0
   -4.8690   20.4980  -33.0880 C   0  0  0  0  0  0  0  0  0  0  0  0
   -5.8710   21.3640  -32.6230 C   0  0  0  0  0  0  0  0  0  0  0  0
   -7.1620   20.8830  -32.3880 C   0  0  0  0  0  0  0  0  0  0  0  0
   -7.4690   19.5390  -32.6220 C   0  0  0  0  0  0  0  0  0  0  0  0
   -9.1050   18.9730  -32.3160 Cl  0  0  0  0  0  0  0  0  0  0  0  0
   -6.4750   18.6700  -33.1030 C   0  0  0  0  0  0  0  0  0  0  0  0
   -6.8210   16.9760  -33.4240 Cl  0  0  0  0  0  0  0  0  0  0  0  0
   -5.1830   19.1530  -33.3380 C   0  0  0  0  0  0  0  0  0  0  0  0
   -3.3970   22.8160  -31.7110 N   0  0  0  0  0  0  0  0  0  0  0  0
   -5.6809   23.7282  -28.4446 H   0  0  0  0  0  0  0  0  0  0  0  0
   -6.7703   23.0988  -29.7267 H   0  0  0  0  0  0  0  0  0  0  0  0
   -5.0307   22.6511  -29.7267 H   0  0  0  0  0  0  0  0  0  0  0  0
   -1.9654   24.6828  -29.4080 H   0  0  0  0  0  0  0  0  0  0  0  0
   -3.5094   23.9486  -28.8302 H   0  0  0  0  0  0  0  0  0  0  0  0
   -1.1050   21.9487  -29.4998 H   0  0  0  0  0  0  0  0  0  0  0  0
   -1.4509   20.2250  -31.5445 H   0  0  0  0  0  0  0  0  0  0  0  0
   -3.5498   21.7520  -34.2068 H   0  0  0  0  0  0  0  0  0  0  0  0
   -2.8402   20.1868  -33.6757 H   0  0  0  0  0  0  0  0  0  0  0  0
   -5.6395   22.4242  -32.4430 H   0  0  0  0  0  0  0  0  0  0  0  0
   -7.9409   21.5654  -32.0169 H   0  0  0  0  0  0  0  0  0  0  0  0
   -4.4076   18.4736  -33.7215 H   0  0  0  0  0  0  0  0  0  0  0  0
  1  2  1  0
  2  3  2  0
  2  4  2  0
  2  5  1  0
  5  6  1  0
  6  7  1  0
  7  8  1  0
  8  9  2  0
  9 10  1  0
 10 11  1  0
 11 12  1  0
 12 13  2  0
 13 14  1  0
 14 15  2  0
 15 16  1  0
 15 17  1  0
 17 18  1  0
 17 19  2  0
 10 20  1  0
 20  7  2  0
 19 12  1  0
  1 21  1  0
  1 22  1  0
  1 23  1  0
  6 24  1  0
  6 25  1  0
  8 26  1  0
  9 27  1  0
 11 28  1  0
 11 29  1  0
 13 30  1  0
 14 31  1  0
 19 32  1  0
M  CHG  1   5  -1
M  END
>  <UniqueID>  (16) 
16

>  <SMILES>  (16) 
CS(=O)(=O)[N-]Cc1ccn(Cc2ccc(Cl)c(Cl)c2)n1

>  <Energy>  (16) 
54.136898770888415

>  <Genealogy>  (16) 
CS(=O)(=O)[N-]Cc1ccn(Cc2ccc(Cl)c(Cl)c2)n1 (protonated)
CS(=O)(=O)[N-]Cc1ccn(Cc2ccc(Cl)c(Cl)c2)n1 (3D coordinates assigned)
CS(=O)(=O)[N-]Cc1ccn(Cc2ccc(Cl)c(Cl)c2)n1 (optimized conformer: 54.136898770888415 kcal/mol)

>  <smiles>  (16) 
CS(=O)(=O)NCc1ccn(Cc2ccc(Cl)c(Cl)c2)n1

>  <score_type>  (16) 
oracle

>  <origin>  (16) 
adgpu

>  <m_score__min__energy>  (16) 
-10.460000000000001

>  <m_primary>  (16) 
energy

$$$$
16:0
     RDKit          3D

 44 47  0  0  0  0  0  0  0  0999 V2000
   -1.5840   18.2670  -32.9450 O   0  0  0  0  0  0  0  0  0  0  0  0
   -1.7810   19.6830  -33.4100 S   0  0  0  0  0  0  0  0  0  0  0  0
   -0.6890   20.0300  -34.3810 O   0  0  0  0  0  0  0  0  0  0  0  0
   -3.3150   19.8160  -34.2070 N   0  0  0  0  0  0  0  0  0  0  0  0
   -4.5810   19.4370  -33.6450 C   0  0  0  0  0  0  0  0  0  0  0  0
   -5.5400   20.3970  -33.2740 C   0  0  0  0  0  0  0  0  0  0  0  0
   -6.7770   20.0060  -32.7420 C   0  0  0  0  0  0  0  0  0  0  0  0
   -7.0420   18.6380  -32.5260 C   0  0  0  0  0  0  0  0  0  0  0  0
   -6.0910   17.6820  -32.9050 C   0  0  0  0  0  0  0  0  0  0  0  0
   -4.8680   18.0710  -33.4600 C   0  0  0  0  0  0  0  0  0  0  0  0
   -3.9540   17.0820  -33.8240 O   0  0  0  0  0  0  0  0  0  0  0  0
   -8.3750   18.1860  -31.9770 C   0  0  0  0  0  0  0  0  0  0  0  0
   -9.0800   19.2580  -31.2590 N   0  0  0  0  0  0  0  0  0  0  0  0
   -9.1620   20.4680  -32.0840 C   0  0  0  0  0  0  0  0  0  0  0  0
   -7.7680   21.0610  -32.3260 C   0  0  0  0  0  0  0  0  0  0  0  0
   -1.7160   20.8070  -32.0550 C   0  0  0  0  0  0  0  0  0  0  0  0
   -0.5140   21.0380  -31.3720 C   0  0  0  0  0  0  0  0  0  0  0  0
   -0.4790   21.9190  -30.2880 C   0  0  0  0  0  0  0  0  0  0  0  0
   -1.6450   22.5850  -29.8750 C   0  0  0  0  0  0  0  0  0  0  0  0
   -1.6040   23.5070  -28.7710 N   0  0  0  0  0  0  0  0  0  0  0  0
   -2.1970   24.7170  -28.6960 C   0  0  0  0  0  0  0  0  0  0  0  0
   -2.9310   25.2950  -29.7250 O   0  0  0  0  0  0  0  0  0  0  0  0
   -1.9600   25.3110  -27.4720 C   0  0  0  0  0  0  0  0  0  0  0  0
   -1.1780   24.4220  -26.7580 C   0  0  0  0  0  0  0  0  0  0  0  0
   -0.9830   23.3340  -27.5850 C   0  0  0  0  0  0  0  0  0  0  0  0
   -0.2670   22.1960  -27.2340 O   0  0  0  0  0  0  0  0  0  0  0  0
   -2.8470   22.3510  -30.5630 C   0  0  0  0  0  0  0  0  0  0  0  0
   -2.8810   21.4650  -31.6450 C   0  0  0  0  0  0  0  0  0  0  0  0
   -5.3170   21.4664  -33.4027 H   0  0  0  0  0  0  0  0  0  0  0  0
   -6.3088   16.6130  -32.7644 H   0  0  0  0  0  0  0  0  0  0  0  0
   -3.0060   17.2960  -34.1120 H   0  0  0  0  0  0  0  0  0  0  0  0
   -9.0047   17.8479  -32.8131 H   0  0  0  0  0  0  0  0  0  0  0  0
   -8.1837   17.3732  -31.2609 H   0  0  0  0  0  0  0  0  0  0  0  0
   -8.5570   19.4770  -30.3780 H   0  0  0  0  0  0  0  0  0  0  0  0
   -9.6182   20.2136  -33.0521 H   0  0  0  0  0  0  0  0  0  0  0  0
   -9.7740   21.2133  -31.5549 H   0  0  0  0  0  0  0  0  0  0  0  0
   -7.8362   21.8187  -33.1205 H   0  0  0  0  0  0  0  0  0  0  0  0
   -7.4175   21.5073  -31.3837 H   0  0  0  0  0  0  0  0  0  0  0  0
    0.4049   20.5240  -31.6904 H   0  0  0  0  0  0  0  0  0  0  0  0
    0.4674   22.0922  -29.7547 H   0  0  0  0  0  0  0  0  0  0  0  0
   -2.3207   26.2935  -27.1333 H   0  0  0  0  0  0  0  0  0  0  0  0
   -0.7898   24.5548  -25.7374 H   0  0  0  0  0  0  0  0  0  0  0  0
   -3.7664   22.8671  -30.2494 H   0  0  0  0  0  0  0  0  0  0  0  0
   -3.8275   21.2848  -32.1758 H   0  0  0  0  0  0  0  0  0  0  0  0
  1  2  2  0
  2  3  2  0
  2  4  1  0
  4  5  1  0
  5  6  2  0
  6  7  1  0
  7  8  2  0
  8  9  1  0
  9 10  2  0
 10 11  1  0
  8 12  1  0
 12 13  1  0
 13 14  1  0
 14 15  1  0
  2 16  1  0
 16 17  2  0
 17 18  1  0
 18 19  2  0
 19 20  1  0
 20 21  1  0
 21 22  1  0
 21 23  2  0
 23 24  1  0
 24 25  2  0
 25 26  1  0
 19 27  1  0
 27 28  2  0
 10  5  1  0
 28 16  1  0
 15  7  1  0
 25 20  1  0
  6 29  1  0
  9 30  1  0
 11 31  1  0
 12 32  1  0
 12 33  1  0
 13 34  1  0
 14 35  1  0
 14 36  1  0
 15 37  1  0
 15 38  1  0
 17 39  1  0
 18 40  1  0
 23 41  1  0
 24 42  1  0
 27 43  1  0
 28 44  1  0
M  CHG  3   4  -1  22  -1  26  -1
M  END
>  <UniqueID>  (17) 
17

>  <SMILES>  (17) 
O=S(=O)([N-]c1cc2c(cc1O)CNCC2)c1ccc(-n2c([O-])ccc2[O-])cc1

>  <Energy>  (17) 
86.31117684482805

>  <Genealogy>  (17) 
O=S(=O)([N-]c1cc2c(cc1O)CNCC2)c1ccc(-n2c([O-])ccc2[O-])cc1 (protonated)
O=S(=O)([N-]c1cc2c(cc1O)CNCC2)c1ccc(-n2c([O-])ccc2[O-])cc1 (3D coordinates assigned)
O=S(=O)([N-]c1cc2c(cc1O)CNCC2)c1ccc(-n2c([O-])ccc2[O-])cc1 (nonaromatic ring conformer: 86.31117684482805 kcal/mol)

>  <smiles>  (17) 
O=S(=O)(Nc1cc2c(cc1O)CNCC2)c1ccc(-n2c(O)ccc2O)cc1

>  <score_type>  (17) 
oracle

>  <origin>  (17) 
adgpu

>  <m_score__min__energy>  (17) 
-10.949999999999999

>  <m_primary>  (17) 
energy

$$$$
17:0
     RDKit          3D

 61 65  0  0  0  0  0  0  0  0999 V2000
   -2.2510   23.1760  -29.7710 O   0  0  0  0  0  0  0  0  0  0  0  0
   -2.9620   22.9300  -30.7820 C   0  0  0  0  0  0  0  0  0  0  0  0
   -2.3450   22.3370  -31.9320 N   0  0  0  0  0  0  0  0  0  0  0  0
   -1.9200   20.9700  -32.0190 C   0  0  0  0  0  0  0  0  0  0  0  0
   -2.5560   20.1360  -32.9340 C   0  0  0  0  0  0  0  0  0  0  0  0
   -2.2410   18.7760  -33.0140 C   0  0  0  0  0  0  0  0  0  0  0  0
   -3.5370   17.7130  -33.6090 S   0  0  0  0  0  0  0  0  0  0  0  0
   -3.4570   16.3610  -32.9590 O   0  0  0  0  0  0  0  0  0  0  0  0
   -3.4550   17.5560  -35.1010 O   0  0  0  0  0  0  0  0  0  0  0  0
   -5.0980   18.4010  -33.1650 C   0  0  0  0  0  0  0  0  0  0  0  0
   -5.5550   19.5580  -33.8130 C   0  0  0  0  0  0  0  0  0  0  0  0
   -6.8080   20.0920  -33.4990 C   0  0  0  0  0  0  0  0  0  0  0  0
   -7.6120   19.4720  -32.5390 C   0  0  0  0  0  0  0  0  0  0  0  0
   -7.1650   18.3180  -31.8930 C   0  0  0  0  0  0  0  0  0  0  0  0
   -5.9120   17.7790  -32.2040 C   0  0  0  0  0  0  0  0  0  0  0  0
   -1.1170   18.2810  -32.3030 C   0  0  0  0  0  0  0  0  0  0  0  0
   -0.5140   17.0180  -32.5690 C   0  0  0  0  0  0  0  0  0  0  0  0
   -0.4480   16.3050  -34.1940 S   0  0  0  0  0  0  0  0  0  0  0  0
   -1.7580   15.6480  -34.5330 O   0  0  0  0  0  0  0  0  0  0  0  0
    0.6590   15.2920  -34.2650 O   0  0  0  0  0  0  0  0  0  0  0  0
   -0.1440   17.5720  -35.3590 N   0  0  0  0  0  0  0  0  0  0  0  0
    0.5660   17.0270  -36.5270 C   0  0  0  0  0  0  0  0  0  0  0  0
    0.8470   18.1510  -37.5470 C   0  0  0  0  0  0  0  0  0  0  0  0
    0.4950   19.4300  -37.0460 O   0  0  0  0  0  0  0  0  0  0  0  0
    1.1350   19.6510  -35.8050 C   0  0  0  0  0  0  0  0  0  0  0  0
    0.6550   18.6440  -34.7410 C   0  0  0  0  0  0  0  0  0  0  0  0
    0.3410   16.4520  -31.6150 C   0  0  0  0  0  0  0  0  0  0  0  0
    0.7220   17.1710  -30.4910 C   0  0  0  0  0  0  0  0  0  0  0  0
    0.3200   18.4940  -30.3370 C   0  0  0  0  0  0  0  0  0  0  0  0
   -0.5640   19.0870  -31.2610 C   0  0  0  0  0  0  0  0  0  0  0  0
   -0.9310   20.4540  -31.1650 C   0  0  0  0  0  0  0  0  0  0  0  0
   -0.3080   21.3370  -30.2740 O   0  0  0  0  0  0  0  0  0  0  0  0
   -4.3980   23.3000  -30.7760 C   0  0  0  0  0  0  0  0  0  0  0  0
   -5.3800   22.3060  -30.9330 C   0  0  0  0  0  0  0  0  0  0  0  0
   -6.7360   22.6410  -30.9240 C   0  0  0  0  0  0  0  0  0  0  0  0
   -7.1280   23.9720  -30.7710 C   0  0  0  0  0  0  0  0  0  0  0  0
   -6.1630   24.9710  -30.6270 C   0  0  0  0  0  0  0  0  0  0  0  0
   -4.8020   24.6430  -30.6310 C   0  0  0  0  0  0  0  0  0  0  0  0
   -3.8620   25.6560  -30.4700 O   0  0  0  0  0  0  0  0  0  0  0  0
   -3.3199   20.5541  -33.6060 H   0  0  0  0  0  0  0  0  0  0  0  0
   -4.9252   20.0468  -34.5709 H   0  0  0  0  0  0  0  0  0  0  0  0
   -7.1614   21.0009  -34.0080 H   0  0  0  0  0  0  0  0  0  0  0  0
   -8.5976   19.8934  -32.2922 H   0  0  0  0  0  0  0  0  0  0  0  0
   -7.7995   17.8313  -31.1376 H   0  0  0  0  0  0  0  0  0  0  0  0
   -5.5641   16.8676  -31.6957 H   0  0  0  0  0  0  0  0  0  0  0  0
    1.5189   16.5852  -36.2003 H   0  0  0  0  0  0  0  0  0  0  0  0
   -0.0593   16.2568  -37.0022 H   0  0  0  0  0  0  0  0  0  0  0  0
    1.9199   18.1488  -37.7898 H   0  0  0  0  0  0  0  0  0  0  0  0
    0.2338   17.9577  -38.4395 H   0  0  0  0  0  0  0  0  0  0  0  0
    2.2215   19.5418  -35.9375 H   0  0  0  0  0  0  0  0  0  0  0  0
    0.8853   20.6655  -35.4610 H   0  0  0  0  0  0  0  0  0  0  0  0
    1.5300   18.2005  -34.2433 H   0  0  0  0  0  0  0  0  0  0  0  0
    0.0275   19.1752  -34.0102 H   0  0  0  0  0  0  0  0  0  0  0  0
    0.7142   15.4272  -31.7582 H   0  0  0  0  0  0  0  0  0  0  0  0
    1.3438   16.6935  -29.7194 H   0  0  0  0  0  0  0  0  0  0  0  0
    0.6953   19.0824  -29.4867 H   0  0  0  0  0  0  0  0  0  0  0  0
   -0.6110   22.2840  -30.1000 H   0  0  0  0  0  0  0  0  0  0  0  0
   -5.0780   21.2564  -31.0639 H   0  0  0  0  0  0  0  0  0  0  0  0
   -7.4965   21.8544  -31.0377 H   0  0  0  0  0  0  0  0  0  0  0  0
   -8.1964   24.2337  -30.7639 H   0  0  0  0  0  0  0  0  0  0  0  0
   -6.4734   26.0198  -30.5100 H   0  0  0  0  0  0  0  0  0  0  0  0
  1  2  2  0
  2  3  1  0
  3  4  1  0
  4  5  2  0
  5  6  1  0
  6  7  1  0
  7  8  2  0
  7  9  2  0
  7 10  1  0
 10 11  2  0
 11 12  1  0
 12 13  2  0
 13 14  1  0
 14 15  2  0
  6 16  2  0
 16 17  1  0
 17 18  1  0
 18 19  2  0
 18 20  2  0
 18 21  1  0
 21 22  1  0
 22 23  1  0
 23 24  1  0
 24 25  1  0
 25 26  1  0
 17 27  2  0
 27 28  1  0
 28 29  2  0
 29 30  1  0
 30 31  2  0
 31 32  1  0
  2 33  1  0
 33 34  2  0
 34 35  1  0
 35 36  2  0
 36 37  1  0
 37 38  2  0
 38 39  1  0
 31  4  1  0
 38 33  1  0
 15 10  1  0
 30 16  1  0
 26 21  1  0
  5 40  1  0
 11 41  1  0
 12 42  1  0
 13 43  1  0
 14 44  1  0
 15 45  1  0
 22 46  1  0
 22 47  1  0
 23 48  1  0
 23 49  1  0
 25 50  1  0
 25 51  1  0
 26 52  1  0
 26 53  1  0
 27 54  1  0
 28 55  1  0
 29 56  1  0
 32 57  1  0
 34 58  1  0
 35 59  1  0
 36 60  1  0
 37 61  1  0
M  CHG  2   3  -1  39  -1
M  END
>  <UniqueID>  (18) 
18

>  <SMILES>  (18) 
O=C([N-]c1cc(S(=O)(=O)c2ccccc2)c2c(S(=O)(=O)N3CCOCC3)cccc2c1O)c1ccccc1[O-]

>  <Energy>  (18) 
113.36476719000606

>  <Genealogy>  (18) 
O=C([N-]c1cc(S(=O)(=O)c2ccccc2)c2c(S(=O)(=O)N3CCOCC3)cccc2c1O)c1ccccc1[O-] (protonated)
O=C([N-]c1cc(S(=O)(=O)c2ccccc2)c2c(S(=O)(=O)N3CCOCC3)cccc2c1O)c1ccccc1[O-] (3D coordinates assigned)
O=C([N-]c1cc(S(=O)(=O)c2ccccc2)c2c(S(=O)(=O)N3CCOCC3)cccc2c1O)c1ccccc1[O-] (nonaromatic ring conformer: 113.36476719000606 kcal/mol)

>  <smiles>  (18) 
O=C(Nc1cc(S(=O)(=O)c2ccccc2)c2c(S(=O)(=O)N3CCOCC3)cccc2c1O)c1ccccc1O

>  <score_type>  (18) 
oracle

>  <origin>  (18) 
adgpu

>  <m_score__min__energy>  (18) 
-13.119999999999999

>  <m_primary>  (18) 
energy

$$$$
18:0
     RDKit          3D

 41 43  0  0  0  0  0  0  0  0999 V2000
   -1.6990   21.3840  -30.9550 O   0  0  0  0  0  0  0  0  0  0  0  0
   -2.2530   22.4120  -30.4820 C   0  0  0  0  0  0  0  0  0  0  0  0
   -3.1040   23.1870  -31.3380 N   0  0  0  0  0  0  0  0  0  0  0  0
   -4.5010   23.4320  -31.1250 C   0  0  0  0  0  0  0  0  0  0  0  0
   -5.3970   22.3630  -31.2530 C   0  0  0  0  0  0  0  0  0  0  0  0
   -6.7730   22.5640  -31.0860 C   0  0  0  0  0  0  0  0  0  0  0  0
   -7.9000   21.2350  -31.3390 S   0  0  0  0  0  0  0  0  0  0  0  0
   -8.7130   21.5020  -32.5750 O   0  0  0  0  0  0  0  0  0  0  0  0
   -8.8350   21.1330  -30.1640 O   0  0  0  0  0  0  0  0  0  0  0  0
   -7.0010   19.7530  -31.5400 N   0  0  0  0  0  0  0  0  0  0  0  0
   -6.2480   19.7520  -32.7940 C   0  0  0  0  0  0  0  0  0  0  0  0
   -6.0910   18.2970  -33.2050 C   0  0  0  0  0  0  0  0  0  0  0  0
   -7.1580   17.5400  -32.4270 C   0  0  0  0  0  0  0  0  0  0  0  0
   -7.8930   18.5970  -31.6200 C   0  0  0  0  0  0  0  0  0  0  0  0
   -7.2540   23.8400  -30.7740 C   0  0  0  0  0  0  0  0  0  0  0  0
   -6.3660   24.9050  -30.6090 C   0  0  0  0  0  0  0  0  0  0  0  0
   -4.9870   24.7080  -30.7710 C   0  0  0  0  0  0  0  0  0  0  0  0
   -4.1040   25.7670  -30.5640 O   0  0  0  0  0  0  0  0  0  0  0  0
   -1.9680   22.8210  -29.0850 C   0  0  0  0  0  0  0  0  0  0  0  0
   -1.8190   21.8450  -28.0810 C   0  0  0  0  0  0  0  0  0  0  0  0
   -1.5500   22.2200  -26.7620 C   0  0  0  0  0  0  0  0  0  0  0  0
   -1.4380   23.5710  -26.4270 C   0  0  0  0  0  0  0  0  0  0  0  0
   -1.1710   23.9410  -25.1140 O   0  0  0  0  0  0  0  0  0  0  0  0
   -1.5940   24.5500  -27.4120 C   0  0  0  0  0  0  0  0  0  0  0  0
   -1.8590   24.1830  -28.7360 C   0  0  0  0  0  0  0  0  0  0  0  0
   -1.9940   25.1790  -29.6980 O   0  0  0  0  0  0  0  0  0  0  0  0
   -5.0169   21.3575  -31.4866 H   0  0  0  0  0  0  0  0  0  0  0  0
   -6.7983   20.3077  -33.5676 H   0  0  0  0  0  0  0  0  0  0  0  0
   -5.2686   20.2369  -32.6690 H   0  0  0  0  0  0  0  0  0  0  0  0
   -6.2506   18.1834  -34.2874 H   0  0  0  0  0  0  0  0  0  0  0  0
   -5.0812   17.9177  -32.9896 H   0  0  0  0  0  0  0  0  0  0  0  0
   -7.8489   17.0317  -33.1157 H   0  0  0  0  0  0  0  0  0  0  0  0
   -6.7212   16.7629  -31.7826 H   0  0  0  0  0  0  0  0  0  0  0  0
   -8.8310   18.8749  -32.1228 H   0  0  0  0  0  0  0  0  0  0  0  0
   -8.1516   18.2240  -30.6180 H   0  0  0  0  0  0  0  0  0  0  0  0
   -8.3354   24.0050  -30.6582 H   0  0  0  0  0  0  0  0  0  0  0  0
   -6.7499   25.9030  -30.3508 H   0  0  0  0  0  0  0  0  0  0  0  0
   -3.1110   25.6730  -30.7410 H   0  0  0  0  0  0  0  0  0  0  0  0
   -1.9151   20.7795  -28.3369 H   0  0  0  0  0  0  0  0  0  0  0  0
   -1.4263   21.4498  -25.9864 H   0  0  0  0  0  0  0  0  0  0  0  0
   -1.5081   25.6137  -27.1453 H   0  0  0  0  0  0  0  0  0  0  0  0
  1  2  2  0
  2  3  1  0
  3  4  1  0
  4  5  2  0
  5  6  1  0
  6  7  1  0
  7  8  2  0
  7  9  2  0
  7 10  1  0
 10 11  1  0
 11 12  1  0
 12 13  1  0
 13 14  1  0
  6 15  2  0
 15 16  1  0
 16 17  2  0
 17 18  1  0
  2 19  1  0
 19 20  2  0
 20 21  1  0
 21 22  2  0
 22 23  1  0
 22 24  1  0
 24 25  2  0
 25 26  1  0
 17  4  1  0
 25 19  1  0
 14 10  1  0
  5 27  1  0
 11 28  1  0
 11 29  1  0
 12 30  1  0
 12 31  1  0
 13 32  1  0
 13 33  1  0
 14 34  1  0
 14 35  1  0
 15 36  1  0
 16 37  1  0
 18 38  1  0
 20 39  1  0
 21 40  1  0
 24 41  1  0
M  CHG  3   3  -1  23  -1  26  -1
M  END
>  <UniqueID>  (19) 
19

>  <SMILES>  (19) 
O=C([N-]c1cc(S(=O)(=O)N2CCCC2)ccc1O)c1ccc([O-])cc1[O-]

>  <Energy>  (19) 
51.94081925405488

>  <Genealogy>  (19) 
O=C([N-]c1cc(S(=O)(=O)N2CCCC2)ccc1O)c1ccc([O-])cc1[O-] (protonated)
O=C([N-]c1cc(S(=O)(=O)N2CCCC2)ccc1O)c1ccc([O-])cc1[O-] (3D coordinates assigned)
O=C([N-]c1cc(S(=O)(=O)N2CCCC2)ccc1O)c1ccc([O-])cc1[O-] (nonaromatic ring conformer: 51.94081925405488 kcal/mol)

>  <smiles>  (19) 
O=C(Nc1cc(S(=O)(=O)N2CCCC2)ccc1O)c1ccc(O)cc1O

>  <score_type>  (19) 
oracle

>  <origin>  (19) 
adgpu

>  <m_score__min__energy>  (19) 
-12.98

>  <m_primary>  (19) 
energy

$$$$
19:0
     RDKit          3D

 52 55  0  0  0  0  0  0  0  0999 V2000
    1.1950   15.9650  -27.2970 C   0  0  0  0  0  0  0  0  0  0  0  0
    1.0670   17.4200  -27.4670 N   0  0  0  0  0  0  0  0  0  0  0  0
    1.8520   17.9020  -28.6340 C   0  0  0  0  0  0  0  0  0  0  0  0
    0.9840   18.3050  -29.8330 C   0  0  0  0  0  0  0  0  0  0  0  0
   -0.0220   19.2870  -29.4140 N   0  0  0  0  0  0  0  0  0  0  0  0
   -0.6240   20.1480  -30.3990 C   0  0  0  0  0  0  0  0  0  0  0  0
   -0.7120   19.7570  -31.5960 O   0  0  0  0  0  0  0  0  0  0  0  0
   -1.1450   21.4830  -30.0400 C   0  0  0  0  0  0  0  0  0  0  0  0
   -0.5700   22.2050  -28.9810 C   0  0  0  0  0  0  0  0  0  0  0  0
   -1.0560   23.4700  -28.6430 C   0  0  0  0  0  0  0  0  0  0  0  0
   -2.1240   24.0300  -29.3580 C   0  0  0  0  0  0  0  0  0  0  0  0
   -2.6050   25.2950  -29.0250 O   0  0  0  0  0  0  0  0  0  0  0  0
   -2.7110   23.3090  -30.4070 C   0  0  0  0  0  0  0  0  0  0  0  0
   -3.7620   23.8810  -31.1850 N   0  0  0  0  0  0  0  0  0  0  0  0
   -5.2960   24.2300  -30.4640 S   0  0  0  0  0  0  0  0  0  0  0  0
   -5.1790   24.0990  -28.9710 O   0  0  0  0  0  0  0  0  0  0  0  0
   -5.7140   25.6350  -30.7950 O   0  0  0  0  0  0  0  0  0  0  0  0
   -6.4900   23.0830  -31.0670 C   0  0  0  0  0  0  0  0  0  0  0  0
   -7.8010   23.4970  -31.3400 C   0  0  0  0  0  0  0  0  0  0  0  0
   -8.7580   22.5750  -31.7710 C   0  0  0  0  0  0  0  0  0  0  0  0
   -8.4170   21.2240  -31.9230 C   0  0  0  0  0  0  0  0  0  0  0  0
   -9.3720   20.2850  -32.3420 C   0  0  0  0  0  0  0  0  0  0  0  0
   -9.0250   18.9370  -32.4630 C   0  0  0  0  0  0  0  0  0  0  0  0
   -7.7240   18.5160  -32.1750 C   0  0  0  0  0  0  0  0  0  0  0  0
   -6.7610   19.4420  -31.7660 C   0  0  0  0  0  0  0  0  0  0  0  0
   -7.0970   20.7990  -31.6370 C   0  0  0  0  0  0  0  0  0  0  0  0
   -6.1420   21.7350  -31.2170 C   0  0  0  0  0  0  0  0  0  0  0  0
   -2.2330   22.0350  -30.7350 C   0  0  0  0  0  0  0  0  0  0  0  0
   -0.5660   19.2150  -28.0530 C   0  0  0  0  0  0  0  0  0  0  0  0
   -0.3600   17.8130  -27.4740 C   0  0  0  0  0  0  0  0  0  0  0  0
    1.2164   15.7216  -26.2245 H   0  0  0  0  0  0  0  0  0  0  0  0
    0.3375   15.4638  -27.7697 H   0  0  0  0  0  0  0  0  0  0  0  0
    2.1269   15.6212  -27.7697 H   0  0  0  0  0  0  0  0  0  0  0  0
    2.4398   18.7772  -28.3203 H   0  0  0  0  0  0  0  0  0  0  0  0
    2.4883   17.0669  -28.9622 H   0  0  0  0  0  0  0  0  0  0  0  0
    1.6218   18.7465  -30.6129 H   0  0  0  0  0  0  0  0  0  0  0  0
    0.4763   17.4129  -30.2284 H   0  0  0  0  0  0  0  0  0  0  0  0
    0.2677   21.7717  -28.4148 H   0  0  0  0  0  0  0  0  0  0  0  0
   -0.5992   24.0288  -27.8129 H   0  0  0  0  0  0  0  0  0  0  0  0
   -3.5550   25.4330  -28.7010 H   0  0  0  0  0  0  0  0  0  0  0  0
   -8.0780   24.5541  -31.2141 H   0  0  0  0  0  0  0  0  0  0  0  0
   -9.7821   22.9103  -31.9917 H   0  0  0  0  0  0  0  0  0  0  0  0
  -10.3962   20.6110  -32.5757 H   0  0  0  0  0  0  0  0  0  0  0  0
   -9.7790   18.2042  -32.7863 H   0  0  0  0  0  0  0  0  0  0  0  0
   -7.4574   17.4531  -32.2705 H   0  0  0  0  0  0  0  0  0  0  0  0
   -5.7370   19.1069  -31.5445 H   0  0  0  0  0  0  0  0  0  0  0  0
   -5.1133   21.4088  -31.0040 H   0  0  0  0  0  0  0  0  0  0  0  0
   -2.7128   21.4625  -31.5425 H   0  0  0  0  0  0  0  0  0  0  0  0
   -0.0512   19.9500  -27.4167 H   0  0  0  0  0  0  0  0  0  0  0  0
   -1.6433   19.4349  -28.0853 H   0  0  0  0  0  0  0  0  0  0  0  0
   -0.7380   17.7963  -26.4411 H   0  0  0  0  0  0  0  0  0  0  0  0
   -0.9057   17.0996  -28.1091 H   0  0  0  0  0  0  0  0  0  0  0  0
  1  2  1  0
  2  3  1  0
  3  4  1  0
  4  5  1  0
  5  6  1  0
  6  7  2  0
  6  8  1  0
  8  9  2  0
  9 10  1  0
 10 11  2  0
 11 12  1  0
 11 13  1  0
 13 14  1  0
 14 15  1  0
 15 16  2  0
 15 17  2  0
 15 18  1  0
 18 19  2  0
 19 20  1  0
 20 21  2  0
 21 22  1  0
 22 23  2  0
 23 24  1  0
 24 25  2  0
 25 26  1  0
 26 27  2  0
 13 28  2  0
  5 29  1  0
 29 30  1  0
 30  2  1  0
 28  8  1  0
 27 18  1  0
 26 21  1  0
  1 31  1  0
  1 32  1  0
  1 33  1  0
  3 34  1  0
  3 35  1  0
  4 36  1  0
  4 37  1  0
  9 38  1  0
 10 39  1  0
 12 40  1  0
 19 41  1  0
 20 42  1  0
 22 43  1  0
 23 44  1  0
 24 45  1  0
 25 46  1  0
 27 47  1  0
 28 48  1  0
 29 49  1  0
 29 50  1  0
 30 51  1  0
 30 52  1  0
M  CHG  1  14  -1
M  END
>  <UniqueID>  (20) 
20

>  <SMILES>  (20) 
CN1CCN(C(=O)c2ccc(O)c([N-]S(=O)(=O)c3ccc4ccccc4c3)c2)CC1

>  <Energy>  (20) 
73.41340221234441

>  <Genealogy>  (20) 
CN1CCN(C(=O)c2ccc(O)c([N-]S(=O)(=O)c3ccc4ccccc4c3)c2)CC1 (protonated)
CN1CCN(C(=O)c2ccc(O)c([N-]S(=O)(=O)c3ccc4ccccc4c3)c2)CC1 (3D coordinates assigned)
CN1CCN(C(=O)c2ccc(O)c([N-]S(=O)(=O)c3ccc4ccccc4c3)c2)CC1 (nonaromatic ring conformer: 73.41340221234441 kcal/mol)

>  <smiles>  (20) 
CN1CCN(C(=O)c2ccc(O)c(NS(=O)(=O)c3ccc4ccccc4c3)c2)CC1

>  <score_type>  (20) 
oracle

>  <origin>  (20) 
adgpu

>  <m_score__min__energy>  (20) 
-12.359999999999999

>  <m_primary>  (20) 
energy

$$$$
20:0
     RDKit          3D

 63 66  0  0  0  0  0  0  0  0999 V2000
   -5.6840   22.7020  -29.0120 O   0  0  0  0  0  0  0  0  0  0  0  0
   -5.4360   23.8650  -29.4310 C   0  0  0  0  0  0  0  0  0  0  0  0
   -6.4490   24.5780  -30.2750 C   0  0  0  0  0  0  0  0  0  0  0  0
   -6.5700   23.9420  -31.5440 O   0  0  0  0  0  0  0  0  0  0  0  0
   -7.5710   23.0130  -31.8430 C   0  0  0  0  0  0  0  0  0  0  0  0
   -8.7630   23.3950  -31.9960 O   0  0  0  0  0  0  0  0  0  0  0  0
   -7.2260   21.5850  -32.0000 C   0  0  0  0  0  0  0  0  0  0  0  0
   -5.9140   21.1430  -31.7610 C   0  0  0  0  0  0  0  0  0  0  0  0
   -5.5760   19.8010  -31.9340 C   0  0  0  0  0  0  0  0  0  0  0  0
   -6.5370   18.8800  -32.3690 C   0  0  0  0  0  0  0  0  0  0  0  0
   -6.0970   17.1890  -32.6280 S   0  0  0  0  0  0  0  0  0  0  0  0
   -7.2730   16.4610  -33.2160 O   0  0  0  0  0  0  0  0  0  0  0  0
   -5.7750   16.5580  -31.3030 O   0  0  0  0  0  0  0  0  0  0  0  0
   -4.7240   17.0010  -33.6930 N   0  0  0  0  0  0  0  0  0  0  0  0
   -3.5670   16.4300  -33.0050 C   0  0  0  0  0  0  0  0  0  0  0  0
   -2.3330   16.9180  -33.7480 C   0  0  0  0  0  0  0  0  0  0  0  0
   -2.8050   18.1000  -34.5820 C   0  0  0  0  0  0  0  0  0  0  0  0
   -4.2720   18.2810  -34.2310 C   0  0  0  0  0  0  0  0  0  0  0  0
   -7.8510   19.3110  -32.5900 C   0  0  0  0  0  0  0  0  0  0  0  0
   -8.1940   20.6530  -32.4080 C   0  0  0  0  0  0  0  0  0  0  0  0
   -4.2110   24.5170  -29.0720 N   0  0  0  0  0  0  0  0  0  0  0  0
   -3.0320   23.8060  -28.6600 C   0  0  0  0  0  0  0  0  0  0  0  0
   -3.1230   22.4990  -28.1500 C   0  0  0  0  0  0  0  0  0  0  0  0
   -1.9670   21.7940  -27.7940 C   0  0  0  0  0  0  0  0  0  0  0  0
   -2.0930   20.1460  -27.1750 S   0  0  0  0  0  0  0  0  0  0  0  0
   -1.5020   20.0920  -25.7970 O   0  0  0  0  0  0  0  0  0  0  0  0
   -3.5420   19.7680  -27.0730 O   0  0  0  0  0  0  0  0  0  0  0  0
   -1.2690   18.9990  -28.2040 N   0  0  0  0  0  0  0  0  0  0  0  0
   -0.1190   18.4020  -27.4980 C   0  0  0  0  0  0  0  0  0  0  0  0
    0.7440   17.5730  -28.4700 C   0  0  0  0  0  0  0  0  0  0  0  0
    0.0750   17.3630  -29.6970 O   0  0  0  0  0  0  0  0  0  0  0  0
   -0.1240   18.6040  -30.3540 C   0  0  0  0  0  0  0  0  0  0  0  0
   -0.8320   19.6370  -29.4520 C   0  0  0  0  0  0  0  0  0  0  0  0
   -0.7130   22.4000  -27.9410 C   0  0  0  0  0  0  0  0  0  0  0  0
   -0.6150   23.6940  -28.4570 C   0  0  0  0  0  0  0  0  0  0  0  0
   -1.7660   24.3940  -28.8250 C   0  0  0  0  0  0  0  0  0  0  0  0
   -1.6490   25.6770  -29.3450 O   0  0  0  0  0  0  0  0  0  0  0  0
   -7.4236   24.5597  -29.7654 H   0  0  0  0  0  0  0  0  0  0  0  0
   -6.1221   25.6175  -30.4251 H   0  0  0  0  0  0  0  0  0  0  0  0
   -5.1472   21.8611  -31.4348 H   0  0  0  0  0  0  0  0  0  0  0  0
   -4.5493   19.4643  -31.7277 H   0  0  0  0  0  0  0  0  0  0  0  0
   -3.5404   16.7721  -31.9599 H   0  0  0  0  0  0  0  0  0  0  0  0
   -3.6146   15.3311  -32.9954 H   0  0  0  0  0  0  0  0  0  0  0  0
   -1.5557   17.2346  -33.0370 H   0  0  0  0  0  0  0  0  0  0  0  0
   -1.8917   16.1270  -34.3722 H   0  0  0  0  0  0  0  0  0  0  0  0
   -2.2336   19.0044  -34.3259 H   0  0  0  0  0  0  0  0  0  0  0  0
   -2.6604   17.9250  -35.6583 H   0  0  0  0  0  0  0  0  0  0  0  0
   -4.3886   19.0737  -33.4774 H   0  0  0  0  0  0  0  0  0  0  0  0
   -4.8612   18.5756  -35.1120 H   0  0  0  0  0  0  0  0  0  0  0  0
   -8.6172   18.5889  -32.9086 H   0  0  0  0  0  0  0  0  0  0  0  0
   -9.2287   20.9816  -32.5854 H   0  0  0  0  0  0  0  0  0  0  0  0
   -4.1810   25.5610  -29.0980 H   0  0  0  0  0  0  0  0  0  0  0  0
   -4.1093   22.0270  -28.0298 H   0  0  0  0  0  0  0  0  0  0  0  0
    0.4952   19.2048  -27.0641 H   0  0  0  0  0  0  0  0  0  0  0  0
   -0.4952   17.7394  -26.7046 H   0  0  0  0  0  0  0  0  0  0  0  0
    1.6846   18.1101  -28.6617 H   0  0  0  0  0  0  0  0  0  0  0  0
    0.9427   16.5937  -28.0101 H   0  0  0  0  0  0  0  0  0  0  0  0
    0.8549   19.0072  -30.6527 H   0  0  0  0  0  0  0  0  0  0  0  0
   -0.7673   18.4230  -31.2277 H   0  0  0  0  0  0  0  0  0  0  0  0
   -0.1345   20.4548  -29.2181 H   0  0  0  0  0  0  0  0  0  0  0  0
   -1.7107   20.0353  -29.9805 H   0  0  0  0  0  0  0  0  0  0  0  0
    0.1971   21.8553  -27.6493 H   0  0  0  0  0  0  0  0  0  0  0  0
    0.3727   24.1637  -28.5740 H   0  0  0  0  0  0  0  0  0  0  0  0
  1  2  2  0
  2  3  1  0
  3  4  1  0
  4  5  1  0
  5  6  2  0
  5  7  1  0
  7  8  2  0
  8  9  1  0
  9 10  2  0
 10 11  1  0
 11 12  2  0
 11 13  2  0
 11 14  1  0
 14 15  1  0
 15 16  1  0
 16 17  1  0
 17 18  1  0
 10 19  1  0
 19 20  2  0
  2 21  1  0
 21 22  1  0
 22 23  2  0
 23 24  1  0
 24 25  1  0
 25 26  2  0
 25 27  2  0
 25 28  1  0
 28 29  1  0
 29 30  1  0
 30 31  1  0
 31 32  1  0
 32 33  1  0
 24 34  2  0
 34 35  1  0
 35 36  2  0
 36 37  1  0
 20  7  1  0
 36 22  1  0
 18 14  1  0
 33 28  1  0
  3 38  1  0
  3 39  1  0
  8 40  1  0
  9 41  1  0
 15 42  1  0
 15 43  1  0
 16 44  1  0
 16 45  1  0
 17 46  1  0
 17 47  1  0
 18 48  1  0
 18 49  1  0
 19 50  1  0
 20 51  1  0
 21 52  1  0
 23 53  1  0
 29 54  1  0
 29 55  1  0
 30 56  1  0
 30 57  1  0
 32 58  1  0
 32 59  1  0
 33 60  1  0
 33 61  1  0
 34 62  1  0
 35 63  1  0
M  CHG  1  37  -1
M  END
>  <UniqueID>  (21) 
21

>  <SMILES>  (21) 
O=C(COC(=O)c1ccc(S(=O)(=O)N2CCCC2)cc1)Nc1cc(S(=O)(=O)N2CCOCC2)ccc1[O-]

>  <Energy>  (21) 
74.40967911103719

>  <Genealogy>  (21) 
O=C(COC(=O)c1ccc(S(=O)(=O)N2CCCC2)cc1)Nc1cc(S(=O)(=O)N2CCOCC2)ccc1[O-] (protonated)
O=C(COC(=O)c1ccc(S(=O)(=O)N2CCCC2)cc1)Nc1cc(S(=O)(=O)N2CCOCC2)ccc1[O-] (3D coordinates assigned)
O=C(COC(=O)c1ccc(S(=O)(=O)N2CCCC2)cc1)Nc1cc(S(=O)(=O)N2CCOCC2)ccc1[O-] (nonaromatic ring conformer: 74.40967911103719 kcal/mol)

>  <smiles>  (21) 
O=C(COC(=O)c1ccc(S(=O)(=O)N2CCCC2)cc1)Nc1cc(S(=O)(=O)N2CCOCC2)ccc1O

>  <score_type>  (21) 
oracle

>  <origin>  (21) 
adgpu

>  <m_score__min__energy>  (21) 
-13.76

>  <m_primary>  (21) 
energy

$$$$
21:0
     RDKit          3D

 59 62  0  0  0  0  0  0  0  0999 V2000
   -0.2690   14.9560  -31.5730 C   0  0  0  0  0  0  0  0  0  0  0  0
   -0.4050   13.7870  -32.4560 N   0  0  0  0  0  0  0  0  0  0  0  0
   -1.4290   12.8410  -31.9470 C   0  0  0  0  0  0  0  0  0  0  0  0
   -2.7550   12.9480  -32.7140 C   0  0  0  0  0  0  0  0  0  0  0  0
   -2.5660   12.6450  -34.1470 N   0  0  0  0  0  0  0  0  0  0  0  0
   -3.9070   13.2660  -35.0820 S   0  0  0  0  0  0  0  0  0  0  0  0
   -3.5000   13.3720  -36.5250 O   0  0  0  0  0  0  0  0  0  0  0  0
   -5.0640   12.3100  -34.9930 O   0  0  0  0  0  0  0  0  0  0  0  0
   -4.4190   14.8540  -34.5040 C   0  0  0  0  0  0  0  0  0  0  0  0
   -5.3770   14.9690  -33.4920 C   0  0  0  0  0  0  0  0  0  0  0  0
   -5.7910   16.2300  -33.0590 C   0  0  0  0  0  0  0  0  0  0  0  0
   -5.2400   17.3820  -33.6480 C   0  0  0  0  0  0  0  0  0  0  0  0
   -5.6460   18.7450  -33.2230 C   0  0  0  0  0  0  0  0  0  0  0  0
   -6.8550   18.9300  -32.5310 C   0  0  0  0  0  0  0  0  0  0  0  0
   -7.2520   20.2040  -32.1190 C   0  0  0  0  0  0  0  0  0  0  0  0
   -6.4420   21.3200  -32.3770 C   0  0  0  0  0  0  0  0  0  0  0  0
   -6.8940   22.6960  -31.9510 C   0  0  0  0  0  0  0  0  0  0  0  0
   -5.7480   23.4990  -31.4770 N   0  0  0  0  0  0  0  0  0  0  0  0
   -5.1470   22.8840  -30.2820 C   0  0  0  0  0  0  0  0  0  0  0  0
   -3.8490   23.6210  -29.8930 C   0  0  0  0  0  0  0  0  0  0  0  0
   -3.7760   24.9810  -30.4550 N   0  0  0  0  0  0  0  0  0  0  0  0
   -5.0790   25.6530  -30.3800 C   0  0  0  0  0  0  0  0  0  0  0  0
   -6.1540   24.8940  -31.1870 C   0  0  0  0  0  0  0  0  0  0  0  0
   -5.2260   21.1460  -33.0630 C   0  0  0  0  0  0  0  0  0  0  0  0
   -4.4130   22.2470  -33.3310 O   0  0  0  0  0  0  0  0  0  0  0  0
   -4.8320   19.8660  -33.4770 C   0  0  0  0  0  0  0  0  0  0  0  0
   -4.2940   17.2390  -34.6190 N   0  0  0  0  0  0  0  0  0  0  0  0
   -3.8770   16.0210  -35.0540 C   0  0  0  0  0  0  0  0  0  0  0  0
   -1.2640   13.0990  -34.6920 C   0  0  0  0  0  0  0  0  0  0  0  0
   -0.6390   14.2230  -33.8530 C   0  0  0  0  0  0  0  0  0  0  0  0
   -0.3070   14.6291  -30.5234 H   0  0  0  0  0  0  0  0  0  0  0  0
    0.6930   15.4527  -31.7677 H   0  0  0  0  0  0  0  0  0  0  0  0
   -1.0913   15.6602  -31.7677 H   0  0  0  0  0  0  0  0  0  0  0  0
   -1.0441   11.8155  -32.0477 H   0  0  0  0  0  0  0  0  0  0  0  0
   -1.6276   13.0946  -30.8952 H   0  0  0  0  0  0  0  0  0  0  0  0
   -3.4752   12.2342  -32.2878 H   0  0  0  0  0  0  0  0  0  0  0  0
   -3.1304   13.9778  -32.6211 H   0  0  0  0  0  0  0  0  0  0  0  0
   -5.8053   14.0641  -33.0362 H   0  0  0  0  0  0  0  0  0  0  0  0
   -6.5436   16.3219  -32.2620 H   0  0  0  0  0  0  0  0  0  0  0  0
   -7.4951   18.0627  -32.3116 H   0  0  0  0  0  0  0  0  0  0  0  0
   -8.2068   20.3334  -31.5883 H   0  0  0  0  0  0  0  0  0  0  0  0
   -7.3610   23.2039  -32.8077 H   0  0  0  0  0  0  0  0  0  0  0  0
   -7.6169   22.5917  -31.1285 H   0  0  0  0  0  0  0  0  0  0  0  0
   -5.8607   22.9416  -29.4469 H   0  0  0  0  0  0  0  0  0  0  0  0
   -4.9081   21.8333  -30.5033 H   0  0  0  0  0  0  0  0  0  0  0  0
   -3.7991   23.6905  -28.7963 H   0  0  0  0  0  0  0  0  0  0  0  0
   -3.0055   23.0466  -30.3035 H   0  0  0  0  0  0  0  0  0  0  0  0
   -3.4910   24.9170  -31.4610 H   0  0  0  0  0  0  0  0  0  0  0  0
   -5.3936   25.7064  -29.3273 H   0  0  0  0  0  0  0  0  0  0  0  0
   -4.9730   26.6606  -30.8085 H   0  0  0  0  0  0  0  0  0  0  0  0
   -7.0886   24.8787  -30.6070 H   0  0  0  0  0  0  0  0  0  0  0  0
   -6.2897   25.4149  -32.1463 H   0  0  0  0  0  0  0  0  0  0  0  0
   -4.7970   23.1780  -33.4400 H   0  0  0  0  0  0  0  0  0  0  0  0
   -3.8765   19.7356  -34.0061 H   0  0  0  0  0  0  0  0  0  0  0  0
   -3.1112   15.9522  -35.8407 H   0  0  0  0  0  0  0  0  0  0  0  0
   -0.5713   12.2447  -34.7103 H   0  0  0  0  0  0  0  0  0  0  0  0
   -1.4427   13.4943  -35.7029 H   0  0  0  0  0  0  0  0  0  0  0  0
    0.3216   14.5141  -34.3030 H   0  0  0  0  0  0  0  0  0  0  0  0
   -1.3362   15.0737  -33.8386 H   0  0  0  0  0  0  0  0  0  0  0  0
  1  2  1  0
  2  3  1  0
  3  4  1  0
  4  5  1  0
  5  6  1  0
  6  7  2  0
  6  8  2  0
  6  9  1  0
  9 10  2  0
 10 11  1  0
 11 12  2  0
 12 13  1  0
 13 14  2  0
 14 15  1  0
 15 16  2  0
 16 17  1  0
 17 18  1  0
 18 19  1  0
 19 20  1  0
 20 21  1  0
 21 22  1  0
 22 23  1  0
 16 24  1  0
 24 25  1  0
 24 26  2  0
 12 27  1  0
 27 28  2  0
  5 29  1  0
 29 30  1  0
 30  2  1  0
 28  9  1  0
 26 13  1  0
 23 18  1  0
  1 31  1  0
  1 32  1  0
  1 33  1  0
  3 34  1  0
  3 35  1  0
  4 36  1  0
  4 37  1  0
 10 38  1  0
 11 39  1  0
 14 40  1  0
 15 41  1  0
 17 42  1  0
 17 43  1  0
 19 44  1  0
 19 45  1  0
 20 46  1  0
 20 47  1  0
 21 48  1  0
 22 49  1  0
 22 50  1  0
 23 51  1  0
 23 52  1  0
 25 53  1  0
 26 54  1  0
 28 55  1  0
 29 56  1  0
 29 57  1  0
 30 58  1  0
 30 59  1  0
M  END
>  <UniqueID>  (22) 
22

>  <SMILES>  (22) 
CN1CCN(S(=O)(=O)c2ccc(-c3ccc(CN4CCNCC4)c(O)c3)nc2)CC1

>  <Energy>  (22) 
81.9890722261682

>  <Genealogy>  (22) 
CN1CCN(S(=O)(=O)c2ccc(-c3ccc(CN4CCNCC4)c(O)c3)nc2)CC1 (3D coordinates assigned)
CN1CCN(S(=O)(=O)c2ccc(-c3ccc(CN4CCNCC4)c(O)c3)nc2)CC1 (nonaromatic ring conformer: 81.9890722261682 kcal/mol)

>  <smiles>  (22) 
CN1CCN(S(=O)(=O)c2ccc(-c3ccc(CN4CCNCC4)c(O)c3)nc2)CC1

>  <score_type>  (22) 
oracle

>  <origin>  (22) 
adgpu

>  <m_score__min__energy>  (22) 
-8.7799999999999994

>  <m_primary>  (22) 
energy

$$$$
22:0
     RDKit          3D

 47 49  0  0  0  0  0  0  0  0999 V2000
   -3.1350   19.4200  -27.1530 C   0  0  0  0  0  0  0  0  0  0  0  0
   -1.6210   20.1130  -26.5240 S   0  0  0  0  0  0  0  0  0  0  0  0
   -1.6270   20.0530  -25.0220 O   0  0  0  0  0  0  0  0  0  0  0  0
   -0.4700   19.3070  -27.0540 O   0  0  0  0  0  0  0  0  0  0  0  0
   -1.4730   21.7850  -27.0430 C   0  0  0  0  0  0  0  0  0  0  0  0
   -2.2040   22.2590  -28.1370 C   0  0  0  0  0  0  0  0  0  0  0  0
   -2.0670   23.5960  -28.5450 C   0  0  0  0  0  0  0  0  0  0  0  0
   -2.8540   24.0920  -29.6990 C   0  0  0  0  0  0  0  0  0  0  0  0
   -3.2930   25.2720  -29.6900 O   0  0  0  0  0  0  0  0  0  0  0  0
   -3.1740   23.2480  -30.8140 N   0  0  0  0  0  0  0  0  0  0  0  0
   -4.5010   22.9220  -31.2460 C   0  0  0  0  0  0  0  0  0  0  0  0
   -4.8690   21.5710  -31.3070 C   0  0  0  0  0  0  0  0  0  0  0  0
   -6.1300   21.2000  -31.7910 C   0  0  0  0  0  0  0  0  0  0  0  0
   -6.5760   19.5000  -31.9340 S   0  0  0  0  0  0  0  0  0  0  0  0
   -8.0560   19.3700  -31.6980 O   0  0  0  0  0  0  0  0  0  0  0  0
   -5.8460   18.6840  -30.9020 O   0  0  0  0  0  0  0  0  0  0  0  0
   -6.1820   18.9170  -33.5330 N   0  0  0  0  0  0  0  0  0  0  0  0
   -4.7210   18.9500  -33.7330 C   0  0  0  0  0  0  0  0  0  0  0  0
   -4.3100   18.0060  -34.8760 C   0  0  0  0  0  0  0  0  0  0  0  0
   -4.6620   16.6440  -34.6630 O   0  0  0  0  0  0  0  0  0  0  0  0
   -5.7110   16.4630  -33.7220 C   0  0  0  0  0  0  0  0  0  0  0  0
   -6.7690   17.5800  -33.7730 C   0  0  0  0  0  0  0  0  0  0  0  0
   -7.0320   22.1860  -32.2040 C   0  0  0  0  0  0  0  0  0  0  0  0
   -6.6850   23.5350  -32.1170 C   0  0  0  0  0  0  0  0  0  0  0  0
   -5.4330   23.9160  -31.6210 C   0  0  0  0  0  0  0  0  0  0  0  0
   -5.1600   25.2770  -31.4850 O   0  0  0  0  0  0  0  0  0  0  0  0
   -1.1930   24.4390  -27.8280 C   0  0  0  0  0  0  0  0  0  0  0  0
   -0.9190   26.1170  -28.2850 Cl  0  0  0  0  0  0  0  0  0  0  0  0
   -0.4800   23.9210  -26.7420 C   0  0  0  0  0  0  0  0  0  0  0  0
   -0.6330   22.6210  -26.3790 N   0  0  0  0  0  0  0  0  0  0  0  0
   -3.7801   19.1247  -26.3124 H   0  0  0  0  0  0  0  0  0  0  0  0
   -3.6541   20.1702  -27.7677 H   0  0  0  0  0  0  0  0  0  0  0  0
   -2.9065   18.5368  -27.7677 H   0  0  0  0  0  0  0  0  0  0  0  0
   -2.8855   21.5855  -28.6773 H   0  0  0  0  0  0  0  0  0  0  0  0
   -4.1628   20.7968  -30.9725 H   0  0  0  0  0  0  0  0  0  0  0  0
   -4.4134   19.9761  -33.9831 H   0  0  0  0  0  0  0  0  0  0  0  0
   -4.2285   18.6206  -32.8062 H   0  0  0  0  0  0  0  0  0  0  0  0
   -4.8000   18.3486  -35.7993 H   0  0  0  0  0  0  0  0  0  0  0  0
   -3.2123   18.0428  -34.9370 H   0  0  0  0  0  0  0  0  0  0  0  0
   -6.2057   15.5028  -33.9299 H   0  0  0  0  0  0  0  0  0  0  0  0
   -5.2590   16.4856  -32.7194 H   0  0  0  0  0  0  0  0  0  0  0  0
   -7.2428   17.5741  -34.7657 H   0  0  0  0  0  0  0  0  0  0  0  0
   -7.5037   17.3859  -32.9777 H   0  0  0  0  0  0  0  0  0  0  0  0
   -8.0175   21.8974  -32.5984 H   0  0  0  0  0  0  0  0  0  0  0  0
   -7.4011   24.3047  -32.4408 H   0  0  0  0  0  0  0  0  0  0  0  0
   -4.2300   25.6620  -31.5890 H   0  0  0  0  0  0  0  0  0  0  0  0
    0.2078   24.5693  -26.1793 H   0  0  0  0  0  0  0  0  0  0  0  0
  1  2  1  0
  2  3  2  0
  2  4  2  0
  2  5  1  0
  5  6  2  0
  6  7  1  0
  7  8  1  0
  8  9  2  0
  8 10  1  0
 10 11  1  0
 11 12  2  0
 12 13  1  0
 13 14  1  0
 14 15  2  0
 14 16  2  0
 14 17  1  0
 17 18  1  0
 18 19  1  0
 19 20  1  0
 20 21  1  0
 21 22  1  0
 13 23  2  0
 23 24  1  0
 24 25  2  0
 25 26  1  0
  7 27  2  0
 27 28  1  0
 27 29  1  0
 29 30  2  0
 30  5  1  0
 25 11  1  0
 22 17  1  0
  1 31  1  0
  1 32  1  0
  1 33  1  0
  6 34  1  0
 12 35  1  0
 18 36  1  0
 18 37  1  0
 19 38  1  0
 19 39  1  0
 21 40  1  0
 21 41  1  0
 22 42  1  0
 22 43  1  0
 23 44  1  0
 24 45  1  0
 26 46  1  0
 29 47  1  0
M  CHG  1  10  -1
M  END
>  <UniqueID>  (23) 
23

>  <SMILES>  (23) 
CS(=O)(=O)c1cc(C(=O)[N-]c2cc(S(=O)(=O)N3CCOCC3)ccc2O)c(Cl)cn1

>  <Energy>  (23) 
67.96555290979127

>  <Genealogy>  (23) 
CS(=O)(=O)c1cc(C(=O)[N-]c2cc(S(=O)(=O)N3CCOCC3)ccc2O)c(Cl)cn1 (protonated)
CS(=O)(=O)c1cc(C(=O)[N-]c2cc(S(=O)(=O)N3CCOCC3)ccc2O)c(Cl)cn1 (3D coordinates assigned)
CS(=O)(=O)c1cc(C(=O)[N-]c2cc(S(=O)(=O)N3CCOCC3)ccc2O)c(Cl)cn1 (nonaromatic ring conformer: 67.96555290979127 kcal/mol)

>  <smiles>  (23) 
CS(=O)(=O)c1cc(C(=O)Nc2cc(S(=O)(=O)N3CCOCC3)ccc2O)c(Cl)cn1

>  <score_type>  (23) 
oracle

>  <origin>  (23) 
adgpu

>  <m_score__min__energy>  (23) 
-11.16

>  <m_primary>  (23) 
energy

$$$$
23:0
     RDKit          3D

 33 34  0  0  0  0  0  0  0  0999 V2000
   -1.7071   26.9178  -25.0681 H   0  0  0  0  0  0  0  0  0  0  0  0
   -1.3510   26.1700  -25.7920 C   0  0  0  0  0  0  0  0  0  0  0  0
   -0.4417   26.3632  -26.3801 H   0  0  0  0  0  0  0  0  0  0  0  0
   -2.0230   25.0270  -25.9570 C   0  0  0  0  0  0  0  0  0  0  0  0
   -2.9304   24.8488  -25.3614 H   0  0  0  0  0  0  0  0  0  0  0  0
   -1.5720   23.9780  -26.9350 C   0  0  0  0  0  0  0  0  0  0  0  0
   -0.5506   24.2123  -27.2694 H   0  0  0  0  0  0  0  0  0  0  0  0
   -1.5969   22.9978  -26.4363 H   0  0  0  0  0  0  0  0  0  0  0  0
   -2.4880   23.9330  -28.1360 C   0  0  0  0  0  0  0  0  0  0  0  0
   -2.4580   24.9550  -29.1000 C   0  0  0  0  0  0  0  0  0  0  0  0
   -1.5690   26.0180  -28.9710 O   0  0  0  0  0  0  0  0  0  0  0  0
   -3.3030   24.9160  -30.1650 N   0  0  0  0  0  0  0  0  0  0  0  0
   -3.2660   25.6860  -30.8710 H   0  0  0  0  0  0  0  0  0  0  0  0
   -4.1890   23.8960  -30.3240 C   0  0  0  0  0  0  0  0  0  0  0  0
   -4.9980   23.9040  -31.3450 N   0  0  0  0  0  0  0  0  0  0  0  0
   -5.9580   22.8930  -31.6950 C   0  0  0  0  0  0  0  0  0  0  0  0
   -5.5110   21.7400  -32.3520 C   0  0  0  0  0  0  0  0  0  0  0  0
   -4.4466   21.6367  -32.6095 H   0  0  0  0  0  0  0  0  0  0  0  0
   -6.4060   20.7200  -32.6830 C   0  0  0  0  0  0  0  0  0  0  0  0
   -6.0440   19.8284  -33.2159 H   0  0  0  0  0  0  0  0  0  0  0  0
   -7.7610   20.8230  -32.3420 C   0  0  0  0  0  0  0  0  0  0  0  0
   -8.6200   19.7730  -32.6980 O   0  0  0  0  0  0  0  0  0  0  0  0
   -8.8710   18.6320  -31.8840 C   0  0  0  0  0  0  0  0  0  0  0  0
   -8.8083   18.9172  -30.8235 H   0  0  0  0  0  0  0  0  0  0  0  0
   -9.8765   18.2416  -32.0998 H   0  0  0  0  0  0  0  0  0  0  0  0
   -8.1222   17.8557  -32.0998 H   0  0  0  0  0  0  0  0  0  0  0  0
   -8.2090   21.9660  -31.6530 C   0  0  0  0  0  0  0  0  0  0  0  0
   -9.2689   22.0561  -31.3728 H   0  0  0  0  0  0  0  0  0  0  0  0
   -7.3120   22.9880  -31.3230 C   0  0  0  0  0  0  0  0  0  0  0  0
   -7.6669   23.8702  -30.7700 H   0  0  0  0  0  0  0  0  0  0  0  0
   -4.2480   22.9080  -29.3890 N   0  0  0  0  0  0  0  0  0  0  0  0
   -3.4270   22.9010  -28.3090 C   0  0  0  0  0  0  0  0  0  0  0  0
   -3.5190   21.9640  -27.4730 O   0  0  0  0  0  0  0  0  0  0  0  0
  1  2  1  0
  2  3  1  0
  2  4  2  0
  4  5  1  0
  4  6  1  0
  6  7  1  0
  6  8  1  0
  6  9  1  0
  9 10  2  0
 10 11  1  0
 10 12  1  0
 12 13  1  0
 12 14  1  0
 14 15  2  0
 15 16  1  0
 16 17  2  0
 17 18  1  0
 17 19  1  0
 19 20  1  0
 19 21  2  0
 21 22  1  0
 22 23  1  0
 23 24  1  0
 23 25  1  0
 23 26  1  0
 21 27  1  0
 27 28  1  0
 27 29  2  0
 29 30  1  0
 14 31  1  0
 31 32  1  0
 32 33  2  0
 32  9  1  0
 29 16  1  0
M  CHG  2  11  -1  31  -1
M  END
>  <UniqueID>  (24) 
24

>  <SMILES>  (24) 
C=CCc1c([O-])[nH]/c(=N/c2ccc(OC)cc2)[n-]c1=O

>  <Energy>  (24) 
38.191529536398

>  <Genealogy>  (24) 
C=CCc1c([O-])[nH]c(=Nc2ccc(OC)cc2)[n-]c1=O (protonated)
C=CCc1c([O-])[nH]/c(=N/c2ccc(OC)cc2)[n-]c1=O (cis-trans isomerization)
C=CCc1c([O-])[nH]/c(=N/c2ccc(OC)cc2)[n-]c1=O (3D coordinates assigned)
C=CCc1c([O-])[nH]/c(=N/c2ccc(OC)cc2)[n-]c1=O (optimized conformer: 38.191529536398 kcal/mol)

>  <smiles>  (24) 
C=CCc1c(O)[nH]c(=Nc2ccc(OC)cc2)[nH]c1=O

>  <score_type>  (24) 
oracle

>  <origin>  (24) 
adgpu

>  <m_score__min__energy>  (24) 
-11.17

>  <m_primary>  (24) 
energy

$$$$
24:0
     RDKit          3D

 41 43  0  0  0  0  0  0  0  0999 V2000
   -5.0819   17.0146  -30.6492 H   0  0  0  0  0  0  0  0  0  0  0  0
   -5.6900   16.9750  -31.5650 C   0  0  0  0  0  0  0  0  0  0  0  0
   -6.6790   17.8860  -31.7620 N   0  0  0  0  0  0  0  0  0  0  0  0
   -7.4540   17.8810  -32.8840 C   0  0  0  0  0  0  0  0  0  0  0  0
   -8.3710   18.7840  -33.0630 N   0  0  0  0  0  0  0  0  0  0  0  0
   -8.6960   20.0660  -31.9380 S   0  0  0  0  0  0  0  0  0  0  0  0
   -8.9560   19.4720  -30.5820 O   0  0  0  0  0  0  0  0  0  0  0  0
   -9.9110   20.8270  -32.3870 O   0  0  0  0  0  0  0  0  0  0  0  0
   -7.3210   21.1660  -31.8780 C   0  0  0  0  0  0  0  0  0  0  0  0
   -7.2880   22.2190  -30.9540 C   0  0  0  0  0  0  0  0  0  0  0  0
   -8.1586   22.4108  -30.3096 H   0  0  0  0  0  0  0  0  0  0  0  0
   -6.1520   23.0260  -30.8490 C   0  0  0  0  0  0  0  0  0  0  0  0
   -6.1378   23.8608  -30.1328 H   0  0  0  0  0  0  0  0  0  0  0  0
   -5.0320   22.7770  -31.6510 C   0  0  0  0  0  0  0  0  0  0  0  0
   -3.8580   23.5830  -31.4840 N   0  0  0  0  0  0  0  0  0  0  0  0
   -3.6000   24.4550  -30.3740 C   0  0  0  0  0  0  0  0  0  0  0  0
   -4.0140   25.6420  -30.4310 O   0  0  0  0  0  0  0  0  0  0  0  0
   -2.9160   23.9750  -29.1470 C   0  0  0  0  0  0  0  0  0  0  0  0
   -3.2280   22.7090  -28.6180 C   0  0  0  0  0  0  0  0  0  0  0  0
   -3.9772   22.0777  -29.1182 H   0  0  0  0  0  0  0  0  0  0  0  0
   -2.5930   22.2480  -27.4620 C   0  0  0  0  0  0  0  0  0  0  0  0
   -2.8432   21.2566  -27.0564 H   0  0  0  0  0  0  0  0  0  0  0  0
   -1.6420   23.0430  -26.8210 C   0  0  0  0  0  0  0  0  0  0  0  0
   -1.1377   22.6746  -25.9155 H   0  0  0  0  0  0  0  0  0  0  0  0
   -1.3300   24.3070  -27.3290 C   0  0  0  0  0  0  0  0  0  0  0  0
   -0.5851   24.9348  -26.8180 H   0  0  0  0  0  0  0  0  0  0  0  0
   -1.9630   24.7770  -28.4870 C   0  0  0  0  0  0  0  0  0  0  0  0
   -1.6240   26.0330  -28.9790 O   0  0  0  0  0  0  0  0  0  0  0  0
   -5.0880   21.7550  -32.6150 C   0  0  0  0  0  0  0  0  0  0  0  0
   -4.2324   21.5864  -33.2855 H   0  0  0  0  0  0  0  0  0  0  0  0
   -6.2250   20.9540  -32.7240 C   0  0  0  0  0  0  0  0  0  0  0  0
   -6.2609   20.1530  -33.4771 H   0  0  0  0  0  0  0  0  0  0  0  0
   -7.2390   16.9090  -33.8660 C   0  0  0  0  0  0  0  0  0  0  0  0
   -7.8643   16.8872  -34.7707 H   0  0  0  0  0  0  0  0  0  0  0  0
   -6.2240   15.9660  -33.6890 C   0  0  0  0  0  0  0  0  0  0  0  0
   -6.0376   15.2075  -34.4636 H   0  0  0  0  0  0  0  0  0  0  0  0
   -5.4430   15.9850  -32.5260 C   0  0  0  0  0  0  0  0  0  0  0  0
   -4.3140   15.0130  -32.3510 C   0  0  0  0  0  0  0  0  0  0  0  0
   -4.1297   14.8543  -31.2782 H   0  0  0  0  0  0  0  0  0  0  0  0
   -4.5782   14.0553  -32.8232 H   0  0  0  0  0  0  0  0  0  0  0  0
   -3.4062   15.4166  -32.8232 H   0  0  0  0  0  0  0  0  0  0  0  0
  1  2  1  0
  2  3  1  0
  3  4  1  0
  4  5  2  0
  5  6  1  0
  6  7  2  0
  6  8  2  0
  6  9  1  0
  9 10  2  0
 10 11  1  0
 10 12  1  0
 12 13  1  0
 12 14  2  0
 14 15  1  0
 15 16  1  0
 16 17  2  0
 16 18  1  0
 18 19  2  0
 19 20  1  0
 19 21  1  0
 21 22  1  0
 21 23  2  0
 23 24  1  0
 23 25  1  0
 25 26  1  0
 25 27  2  0
 27 28  1  0
 14 29  1  0
 29 30  1  0
 29 31  2  0
 31 32  1  0
  4 33  1  0
 33 34  1  0
 33 35  2  0
 35 36  1  0
 35 37  1  0
 37 38  1  0
 38 39  1  0
 38 40  1  0
 38 41  1  0
 37  2  2  0
 31  9  1  0
 27 18  1  0
M  CHG  3   3  -1  15  -1  28  -1
M  END
>  <UniqueID>  (25) 
25

>  <SMILES>  (25) 
Cc1cc/c(=N/S(=O)(=O)c2ccc([N-]C(=O)c3ccccc3[O-])cc2)[n-]c1

>  <Energy>  (25) 
52.947621951204795

>  <Genealogy>  (25) 
Cc1ccc(=NS(=O)(=O)c2ccc([N-]C(=O)c3ccccc3[O-])cc2)[n-]c1 (protonated)
Cc1cc/c(=N/S(=O)(=O)c2ccc([N-]C(=O)c3ccccc3[O-])cc2)[n-]c1 (cis-trans isomerization)
Cc1cc/c(=N/S(=O)(=O)c2ccc([N-]C(=O)c3ccccc3[O-])cc2)[n-]c1 (3D coordinates assigned)
Cc1cc/c(=N/S(=O)(=O)c2ccc([N-]C(=O)c3ccccc3[O-])cc2)[n-]c1 (optimized conformer: 52.947621951204795 kcal/mol)

>  <smiles>  (25) 
Cc1ccc(=NS(=O)(=O)c2ccc(NC(=O)c3ccccc3O)cc2)[nH]c1

>  <score_type>  (25) 
oracle

>  <origin>  (25) 
adgpu

>  <m_score__min__energy>  (25) 
-13.529999999999999

>  <m_primary>  (25) 
energy

$$$$
25:0
     RDKit          3D

 65 69  0  0  0  0  0  0  0  0999 V2000
   -6.1310   25.6390  -29.2990 C   0  0  0  0  0  0  0  0  0  0  0  0
   -5.7170   24.1520  -30.1910 S   0  0  0  0  0  0  0  0  0  0  0  0
   -6.7040   23.0690  -29.8490 O   0  0  0  0  0  0  0  0  0  0  0  0
   -5.7980   24.4470  -31.6630 O   0  0  0  0  0  0  0  0  0  0  0  0
   -4.0970   23.6430  -29.7730 N   0  0  0  0  0  0  0  0  0  0  0  0
   -4.1230   22.5700  -28.7400 C   0  0  0  0  0  0  0  0  0  0  0  0
   -3.4930   21.2520  -29.2050 C   0  0  0  0  0  0  0  0  0  0  0  0
   -2.1700   21.5210  -29.7720 N   0  0  0  0  0  0  0  0  0  0  0  0
   -1.0150   20.8580  -29.2350 C   0  0  0  0  0  0  0  0  0  0  0  0
   -0.7820   20.9470  -28.0000 O   0  0  0  0  0  0  0  0  0  0  0  0
   -0.1210   20.0470  -30.0980 C   0  0  0  0  0  0  0  0  0  0  0  0
    0.6010   18.9620  -29.5710 C   0  0  0  0  0  0  0  0  0  0  0  0
    1.4530   18.2150  -30.3880 C   0  0  0  0  0  0  0  0  0  0  0  0
    1.6220   18.5540  -31.7340 C   0  0  0  0  0  0  0  0  0  0  0  0
    2.4350   17.7510  -32.5260 O   0  0  0  0  0  0  0  0  0  0  0  0
    0.9470   19.6730  -32.2650 C   0  0  0  0  0  0  0  0  0  0  0  0
    1.1260   20.1240  -33.6140 N   0  0  0  0  0  0  0  0  0  0  0  0
   -0.1140   20.7310  -34.6630 S   0  0  0  0  0  0  0  0  0  0  0  0
    0.1430   20.2540  -36.0680 O   0  0  0  0  0  0  0  0  0  0  0  0
   -0.0650   22.2330  -34.6510 O   0  0  0  0  0  0  0  0  0  0  0  0
   -1.6980   20.2050  -34.1100 C   0  0  0  0  0  0  0  0  0  0  0  0
   -2.5580   21.1060  -33.4670 C   0  0  0  0  0  0  0  0  0  0  0  0
   -3.7970   20.6740  -32.9820 C   0  0  0  0  0  0  0  0  0  0  0  0
   -4.1960   19.3350  -33.1420 C   0  0  0  0  0  0  0  0  0  0  0  0
   -3.3140   18.4220  -33.7540 C   0  0  0  0  0  0  0  0  0  0  0  0
   -2.0780   18.8630  -34.2510 C   0  0  0  0  0  0  0  0  0  0  0  0
   -3.7330   16.9820  -33.9050 C   0  0  0  0  0  0  0  0  0  0  0  0
   -4.5940   16.5640  -32.7070 C   0  0  0  0  0  0  0  0  0  0  0  0
   -5.6600   17.5400  -32.4660 N   0  0  0  0  0  0  0  0  0  0  0  0
   -5.4960   18.8260  -32.6190 C   0  0  0  0  0  0  0  0  0  0  0  0
   -6.6350   19.7240  -32.3260 C   0  0  0  0  0  0  0  0  0  0  0  0
   -6.5630   21.0970  -32.6160 C   0  0  0  0  0  0  0  0  0  0  0  0
   -7.6500   21.9330  -32.3410 C   0  0  0  0  0  0  0  0  0  0  0  0
   -8.8220   21.4040  -31.7860 C   0  0  0  0  0  0  0  0  0  0  0  0
   -8.9090   20.0370  -31.5120 C   0  0  0  0  0  0  0  0  0  0  0  0
   -7.8230   19.1990  -31.7860 C   0  0  0  0  0  0  0  0  0  0  0  0
    0.0590   20.3870  -31.4500 C   0  0  0  0  0  0  0  0  0  0  0  0
   -1.9980   22.6640  -30.6750 C   0  0  0  0  0  0  0  0  0  0  0  0
   -3.3520   23.3050  -31.0020 C   0  0  0  0  0  0  0  0  0  0  0  0
   -6.0770   25.4449  -28.2176 H   0  0  0  0  0  0  0  0  0  0  0  0
   -5.4205   26.4357  -29.5645 H   0  0  0  0  0  0  0  0  0  0  0  0
   -7.1510   25.9539  -29.5645 H   0  0  0  0  0  0  0  0  0  0  0  0
   -3.5727   22.9252  -27.8563 H   0  0  0  0  0  0  0  0  0  0  0  0
   -5.1803   22.3610  -28.5199 H   0  0  0  0  0  0  0  0  0  0  0  0
   -3.3935   20.5698  -28.3478 H   0  0  0  0  0  0  0  0  0  0  0  0
   -4.1335   20.7870  -29.9689 H   0  0  0  0  0  0  0  0  0  0  0  0
    0.4943   18.6995  -28.5081 H   0  0  0  0  0  0  0  0  0  0  0  0
    1.9948   17.3540  -29.9695 H   0  0  0  0  0  0  0  0  0  0  0  0
   -2.2574   22.1569  -33.3433 H   0  0  0  0  0  0  0  0  0  0  0  0
   -4.4631   21.3858  -32.4725 H   0  0  0  0  0  0  0  0  0  0  0  0
   -1.4046   18.1528  -34.7532 H   0  0  0  0  0  0  0  0  0  0  0  0
   -4.3149   16.8661  -34.8313 H   0  0  0  0  0  0  0  0  0  0  0  0
   -2.8370   16.3454  -33.9485 H   0  0  0  0  0  0  0  0  0  0  0  0
   -5.0443   15.5815  -32.9119 H   0  0  0  0  0  0  0  0  0  0  0  0
   -3.9541   16.5134  -31.8137 H   0  0  0  0  0  0  0  0  0  0  0  0
   -5.6484   21.5159  -33.0609 H   0  0  0  0  0  0  0  0  0  0  0  0
   -7.5842   23.0087  -32.5612 H   0  0  0  0  0  0  0  0  0  0  0  0
   -9.6736   22.0646  -31.5660 H   0  0  0  0  0  0  0  0  0  0  0  0
   -9.8310   19.6197  -31.0810 H   0  0  0  0  0  0  0  0  0  0  0  0
   -7.8986   18.1216  -31.5776 H   0  0  0  0  0  0  0  0  0  0  0  0
   -0.5074   21.2285  -31.8756 H   0  0  0  0  0  0  0  0  0  0  0  0
   -1.3518   23.4117  -30.1920 H   0  0  0  0  0  0  0  0  0  0  0  0
   -1.5393   22.3101  -31.6100 H   0  0  0  0  0  0  0  0  0  0  0  0
   -3.1824   24.2240  -31.5823 H   0  0  0  0  0  0  0  0  0  0  0  0
   -3.9468   22.5831  -31.5808 H   0  0  0  0  0  0  0  0  0  0  0  0
  1  2  1  0
  2  3  2  0
  2  4  2  0
  2  5  1  0
  5  6  1  0
  6  7  1  0
  7  8  1  0
  8  9  1  0
  9 10  2  0
  9 11  1  0
 11 12  2  0
 12 13  1  0
 13 14  2  0
 14 15  1  0
 14 16  1  0
 16 17  1  0
 17 18  1  0
 18 19  2  0
 18 20  2  0
 18 21  1  0
 21 22  2  0
 22 23  1  0
 23 24  2  0
 24 25  1  0
 25 26  2  0
 25 27  1  0
 27 28  1  0
 28 29  1  0
 29 30  2  0
 30 31  1  0
 31 32  2  0
 32 33  1  0
 33 34  2  0
 34 35  1  0
 35 36  2  0
 16 37  2  0
  8 38  1  0
 38 39  1  0
 39  5  1  0
 37 11  1  0
 26 21  1  0
 36 31  1  0
 30 24  1  0
  1 40  1  0
  1 41  1  0
  1 42  1  0
  6 43  1  0
  6 44  1  0
  7 45  1  0
  7 46  1  0
 12 47  1  0
 13 48  1  0
 22 49  1  0
 23 50  1  0
 26 51  1  0
 27 52  1  0
 27 53  1  0
 28 54  1  0
 28 55  1  0
 32 56  1  0
 33 57  1  0
 34 58  1  0
 35 59  1  0
 36 60  1  0
 37 61  1  0
 38 62  1  0
 38 63  1  0
 39 64  1  0
 39 65  1  0
M  CHG  2  15  -1  17  -1
M  END
>  <UniqueID>  (26) 
26

>  <SMILES>  (26) 
CS(=O)(=O)N1CCN(C(=O)c2ccc([O-])c([N-]S(=O)(=O)c3ccc4c(c3)CCN=C4c3ccccc3)c2)CC1

>  <Energy>  (26) 
92.67796869312541

>  <Genealogy>  (26) 
CS(=O)(=O)N1CCN(C(=O)c2ccc([O-])c([N-]S(=O)(=O)c3ccc4c(c3)CCN=C4c3ccccc3)c2)CC1 (protonated)
CS(=O)(=O)N1CCN(C(=O)c2ccc([O-])c([N-]S(=O)(=O)c3ccc4c(c3)CCN=C4c3ccccc3)c2)CC1 (3D coordinates assigned)
CS(=O)(=O)N1CCN(C(=O)c2ccc([O-])c([N-]S(=O)(=O)c3ccc4c(c3)CCN=C4c3ccccc3)c2)CC1 (nonaromatic ring conformer: 92.67796869312541 kcal/mol)

>  <smiles>  (26) 
CS(=O)(=O)N1CCN(C(=O)c2ccc(O)c(NS(=O)(=O)c3ccc4c(c3)CCN=C4c3ccccc3)c2)CC1

>  <score_type>  (26) 
oracle

>  <origin>  (26) 
adgpu

>  <m_score__min__energy>  (26) 
-17.390000000000001

>  <m_primary>  (26) 
energy

$$$$
26:0
     RDKit          3D

 64 67  0  0  0  0  0  0  0  0999 V2000
   -1.1910   20.5750  -28.1400 C   0  0  0  0  0  0  0  0  0  0  0  0
   -1.2550   19.6940  -29.2570 O   0  0  0  0  0  0  0  0  0  0  0  0
   -0.7170   19.9690  -30.5250 C   0  0  0  0  0  0  0  0  0  0  0  0
    0.5520   19.4920  -30.9080 C   0  0  0  0  0  0  0  0  0  0  0  0
    1.0850   19.8160  -32.1570 C   0  0  0  0  0  0  0  0  0  0  0  0
    0.3640   20.6220  -33.0450 C   0  0  0  0  0  0  0  0  0  0  0  0
    1.0310   21.0120  -34.6340 S   0  0  0  0  0  0  0  0  0  0  0  0
    0.6430   22.4170  -35.0020 O   0  0  0  0  0  0  0  0  0  0  0  0
    2.5320   20.9440  -34.5730 O   0  0  0  0  0  0  0  0  0  0  0  0
    0.4500   19.9110  -35.8630 N   0  0  0  0  0  0  0  0  0  0  0  0
    1.5230   19.6040  -36.8280 C   0  0  0  0  0  0  0  0  0  0  0  0
    1.2190   18.2960  -37.5780 C   0  0  0  0  0  0  0  0  0  0  0  0
    1.0990   17.1570  -36.7340 O   0  0  0  0  0  0  0  0  0  0  0  0
    0.7550   17.4710  -35.3920 C   0  0  0  0  0  0  0  0  0  0  0  0
   -0.1630   18.7020  -35.2720 C   0  0  0  0  0  0  0  0  0  0  0  0
   -0.8950   21.1050  -32.6710 C   0  0  0  0  0  0  0  0  0  0  0  0
   -1.4530   20.7660  -31.4270 C   0  0  0  0  0  0  0  0  0  0  0  0
   -2.7990   21.2710  -31.0870 C   0  0  0  0  0  0  0  0  0  0  0  0
   -3.6000   20.5180  -30.4690 O   0  0  0  0  0  0  0  0  0  0  0  0
   -3.1920   22.6070  -31.4460 N   0  0  0  0  0  0  0  0  0  0  0  0
   -4.4840   23.1530  -31.1430 C   0  0  0  0  0  0  0  0  0  0  0  0
   -5.6270   22.3840  -31.4040 C   0  0  0  0  0  0  0  0  0  0  0  0
   -6.9060   22.9010  -31.1530 C   0  0  0  0  0  0  0  0  0  0  0  0
   -8.3390   21.9320  -31.5020 S   0  0  0  0  0  0  0  0  0  0  0  0
   -9.4120   22.8270  -32.0580 O   0  0  0  0  0  0  0  0  0  0  0  0
   -8.8550   21.3320  -30.2240 O   0  0  0  0  0  0  0  0  0  0  0  0
   -7.9990   20.6450  -32.6390 N   0  0  0  0  0  0  0  0  0  0  0  0
   -6.6990   20.8230  -33.3310 C   0  0  0  0  0  0  0  0  0  0  0  0
   -5.8610   19.5420  -33.3970 C   0  0  0  0  0  0  0  0  0  0  0  0
   -5.7060   18.9640  -31.9920 C   0  0  0  0  0  0  0  0  0  0  0  0
   -7.0680   18.6750  -31.3370 C   0  0  0  0  0  0  0  0  0  0  0  0
   -8.2680   19.3020  -32.0790 C   0  0  0  0  0  0  0  0  0  0  0  0
   -7.0380   24.1920  -30.6270 C   0  0  0  0  0  0  0  0  0  0  0  0
   -5.9040   24.9730  -30.3870 C   0  0  0  0  0  0  0  0  0  0  0  0
   -4.6290   24.4660  -30.6580 C   0  0  0  0  0  0  0  0  0  0  0  0
   -3.5200   25.2830  -30.4700 O   0  0  0  0  0  0  0  0  0  0  0  0
   -1.2335   19.9905  -27.2091 H   0  0  0  0  0  0  0  0  0  0  0  0
   -0.2493   21.1424  -28.1740 H   0  0  0  0  0  0  0  0  0  0  0  0
   -2.0408   21.2726  -28.1740 H   0  0  0  0  0  0  0  0  0  0  0  0
    1.1279   18.8588  -30.2170 H   0  0  0  0  0  0  0  0  0  0  0  0
    2.0764   19.4359  -32.4444 H   0  0  0  0  0  0  0  0  0  0  0  0
    1.6026   20.4267  -37.5538 H   0  0  0  0  0  0  0  0  0  0  0  0
    2.4696   19.4867  -36.2801 H   0  0  0  0  0  0  0  0  0  0  0  0
    0.2724   18.4228  -38.1239 H   0  0  0  0  0  0  0  0  0  0  0  0
    2.0725   18.1075  -38.2458 H   0  0  0  0  0  0  0  0  0  0  0  0
    0.2380   16.6054  -34.9521 H   0  0  0  0  0  0  0  0  0  0  0  0
    1.6895   17.7078  -34.8623 H   0  0  0  0  0  0  0  0  0  0  0  0
   -1.1083   18.4921  -35.7938 H   0  0  0  0  0  0  0  0  0  0  0  0
   -0.3328   18.8958  -34.2026 H   0  0  0  0  0  0  0  0  0  0  0  0
   -1.4538   21.7571  -33.3584 H   0  0  0  0  0  0  0  0  0  0  0  0
   -2.5490   23.1870  -32.0300 H   0  0  0  0  0  0  0  0  0  0  0  0
   -5.5195   21.3669  -31.8089 H   0  0  0  0  0  0  0  0  0  0  0  0
   -6.8953   21.1639  -34.3583 H   0  0  0  0  0  0  0  0  0  0  0  0
   -6.1216   21.5577  -32.7506 H   0  0  0  0  0  0  0  0  0  0  0  0
   -6.3642   18.8072  -34.0426 H   0  0  0  0  0  0  0  0  0  0  0  0
   -4.8683   19.7734  -33.8106 H   0  0  0  0  0  0  0  0  0  0  0  0
   -5.1352   18.0258  -32.0544 H   0  0  0  0  0  0  0  0  0  0  0  0
   -5.1812   19.7071  -31.3737 H   0  0  0  0  0  0  0  0  0  0  0  0
   -7.2122   17.5849  -31.3055 H   0  0  0  0  0  0  0  0  0  0  0  0
   -7.0416   19.1283  -30.3351 H   0  0  0  0  0  0  0  0  0  0  0  0
   -8.5502   18.6335  -32.9057 H   0  0  0  0  0  0  0  0  0  0  0  0
   -9.0708   19.4234  -31.3368 H   0  0  0  0  0  0  0  0  0  0  0  0
   -8.0374   24.5928  -30.4020 H   0  0  0  0  0  0  0  0  0  0  0  0
   -6.0147   25.9903  -29.9834 H   0  0  0  0  0  0  0  0  0  0  0  0
  1  2  1  0
  2  3  1  0
  3  4  2  0
  4  5  1  0
  5  6  2  0
  6  7  1  0
  7  8  2  0
  7  9  2  0
  7 10  1  0
 10 11  1  0
 11 12  1  0
 12 13  1  0
 13 14  1  0
 14 15  1  0
  6 16  1  0
 16 17  2  0
 17 18  1  0
 18 19  2  0
 18 20  1  0
 20 21  1  0
 21 22  2  0
 22 23  1  0
 23 24  1  0
 24 25  2  0
 24 26  2  0
 24 27  1  0
 27 28  1  0
 28 29  1  0
 29 30  1  0
 30 31  1  0
 31 32  1  0
 23 33  2  0
 33 34  1  0
 34 35  2  0
 35 36  1  0
 17  3  1  0
 35 21  1  0
 15 10  1  0
 32 27  1  0
  1 37  1  0
  1 38  1  0
  1 39  1  0
  4 40  1  0
  5 41  1  0
 11 42  1  0
 11 43  1  0
 12 44  1  0
 12 45  1  0
 14 46  1  0
 14 47  1  0
 15 48  1  0
 15 49  1  0
 16 50  1  0
 20 51  1  0
 22 52  1  0
 28 53  1  0
 28 54  1  0
 29 55  1  0
 29 56  1  0
 30 57  1  0
 30 58  1  0
 31 59  1  0
 31 60  1  0
 32 61  1  0
 32 62  1  0
 33 63  1  0
 34 64  1  0
M  CHG  1  36  -1
M  END
>  <UniqueID>  (27) 
27

>  <SMILES>  (27) 
COc1ccc(S(=O)(=O)N2CCOCC2)cc1C(=O)Nc1cc(S(=O)(=O)N2CCCCC2)ccc1[O-]

>  <Energy>  (27) 
94.26718213623866

>  <Genealogy>  (27) 
COc1ccc(S(=O)(=O)N2CCOCC2)cc1C(=O)Nc1cc(S(=O)(=O)N2CCCCC2)ccc1[O-] (protonated)
COc1ccc(S(=O)(=O)N2CCOCC2)cc1C(=O)Nc1cc(S(=O)(=O)N2CCCCC2)ccc1[O-] (3D coordinates assigned)
COc1ccc(S(=O)(=O)N2CCOCC2)cc1C(=O)Nc1cc(S(=O)(=O)N2CCCCC2)ccc1[O-] (nonaromatic ring conformer: 94.26718213623866 kcal/mol)

>  <smiles>  (27) 
COc1ccc(S(=O)(=O)N2CCOCC2)cc1C(=O)Nc1cc(S(=O)(=O)N2CCCCC2)ccc1O

>  <score_type>  (27) 
oracle

>  <origin>  (27) 
adgpu

>  <m_score__min__energy>  (27) 
-13.779999999999999

>  <m_primary>  (27) 
energy

$$$$
27:0
     RDKit          3D

 43 45  0  0  0  0  0  0  0  0999 V2000
   -6.5760   25.6600  -30.0770 O   0  0  0  0  0  0  0  0  0  0  0  0
   -5.5040   24.6170  -30.2270 S   0  0  0  0  0  0  0  0  0  0  0  0
   -4.4060   25.1590  -31.0980 O   0  0  0  0  0  0  0  0  0  0  0  0
   -4.8520   24.2290  -28.6660 N   0  0  0  0  0  0  0  0  0  0  0  0
   -3.6530   23.4520  -28.4900 C   0  0  0  0  0  0  0  0  0  0  0  0
   -3.7050   22.1410  -27.9760 C   0  0  0  0  0  0  0  0  0  0  0  0
   -2.5280   21.4150  -27.7630 C   0  0  0  0  0  0  0  0  0  0  0  0
   -2.6050   19.8000  -27.0810 Cl  0  0  0  0  0  0  0  0  0  0  0  0
   -1.2910   21.9790  -28.0880 C   0  0  0  0  0  0  0  0  0  0  0  0
   -1.2290   23.2660  -28.6250 C   0  0  0  0  0  0  0  0  0  0  0  0
   -2.4020   24.0030  -28.8260 C   0  0  0  0  0  0  0  0  0  0  0  0
   -2.3140   25.2900  -29.3460 O   0  0  0  0  0  0  0  0  0  0  0  0
   -6.2150   23.1740  -30.9440 C   0  0  0  0  0  0  0  0  0  0  0  0
   -7.5130   23.2290  -31.4670 C   0  0  0  0  0  0  0  0  0  0  0  0
   -8.1340   22.0670  -31.9340 C   0  0  0  0  0  0  0  0  0  0  0  0
   -7.4600   20.8400  -31.8820 C   0  0  0  0  0  0  0  0  0  0  0  0
   -8.2600   19.3500  -32.3670 S   0  0  0  0  0  0  0  0  0  0  0  0
   -9.5360   19.6950  -33.0840 O   0  0  0  0  0  0  0  0  0  0  0  0
   -8.5870   18.5180  -31.1570 O   0  0  0  0  0  0  0  0  0  0  0  0
   -7.2030   18.4510  -33.4280 N   0  0  0  0  0  0  0  0  0  0  0  0
   -6.3160   19.3550  -34.1960 C   0  0  0  0  0  0  0  0  0  0  0  0
   -4.8500   19.2620  -33.7410 C   0  0  0  0  0  0  0  0  0  0  0  0
   -4.3280   17.9480  -33.8360 O   0  0  0  0  0  0  0  0  0  0  0  0
   -5.2510   16.9330  -33.4540 C   0  0  0  0  0  0  0  0  0  0  0  0
   -6.4650   17.4350  -32.6560 C   0  0  0  0  0  0  0  0  0  0  0  0
   -6.1510   20.7900  -31.3850 C   0  0  0  0  0  0  0  0  0  0  0  0
   -5.5290   21.9510  -30.9190 C   0  0  0  0  0  0  0  0  0  0  0  0
   -5.4480   24.4500  -27.8380 H   0  0  0  0  0  0  0  0  0  0  0  0
   -4.6780   21.6850  -27.7405 H   0  0  0  0  0  0  0  0  0  0  0  0
   -0.3657   21.4082  -27.9205 H   0  0  0  0  0  0  0  0  0  0  0  0
   -0.2550   23.7025  -28.8911 H   0  0  0  0  0  0  0  0  0  0  0  0
   -8.0459   24.1903  -31.5105 H   0  0  0  0  0  0  0  0  0  0  0  0
   -9.1539   22.1161  -32.3431 H   0  0  0  0  0  0  0  0  0  0  0  0
   -6.3733   19.0856  -35.2610 H   0  0  0  0  0  0  0  0  0  0  0  0
   -6.6566   20.3865  -34.0228 H   0  0  0  0  0  0  0  0  0  0  0  0
   -4.2431   19.9278  -34.3723 H   0  0  0  0  0  0  0  0  0  0  0  0
   -4.8124   19.5576  -32.6821 H   0  0  0  0  0  0  0  0  0  0  0  0
   -5.6201   16.4442  -34.3677 H   0  0  0  0  0  0  0  0  0  0  0  0
   -4.7031   16.2498  -32.7884 H   0  0  0  0  0  0  0  0  0  0  0  0
   -7.1327   16.5878  -32.4407 H   0  0  0  0  0  0  0  0  0  0  0  0
   -6.1127   17.8868  -31.7170 H   0  0  0  0  0  0  0  0  0  0  0  0
   -5.6105   19.8322  -31.3616 H   0  0  0  0  0  0  0  0  0  0  0  0
   -4.5003   21.9058  -30.5321 H   0  0  0  0  0  0  0  0  0  0  0  0
  1  2  2  0
  2  3  2  0
  2  4  1  0
  4  5  1  0
  5  6  2  0
  6  7  1  0
  7  8  1  0
  7  9  2  0
  9 10  1  0
 10 11  2  0
 11 12  1  0
  2 13  1  0
 13 14  2  0
 14 15  1  0
 15 16  2  0
 16 17  1  0
 17 18  2  0
 17 19  2  0
 17 20  1  0
 20 21  1  0
 21 22  1  0
 22 23  1  0
 23 24  1  0
 24 25  1  0
 16 26  1  0
 26 27  2  0
 11  5  1  0
 27 13  1  0
 25 20  1  0
  4 28  1  0
  6 29  1  0
  9 30  1  0
 10 31  1  0
 14 32  1  0
 15 33  1  0
 21 34  1  0
 21 35  1  0
 22 36  1  0
 22 37  1  0
 24 38  1  0
 24 39  1  0
 25 40  1  0
 25 41  1  0
 26 42  1  0
 27 43  1  0
M  CHG  1  12  -1
M  END
>  <UniqueID>  (28) 
28

>  <SMILES>  (28) 
O=S(=O)(Nc1cc(Cl)ccc1[O-])c1ccc(S(=O)(=O)N2CCOCC2)cc1

>  <Energy>  (28) 
59.29379731073269

>  <Genealogy>  (28) 
O=S(=O)(Nc1cc(Cl)ccc1[O-])c1ccc(S(=O)(=O)N2CCOCC2)cc1 (protonated)
O=S(=O)(Nc1cc(Cl)ccc1[O-])c1ccc(S(=O)(=O)N2CCOCC2)cc1 (3D coordinates assigned)
O=S(=O)(Nc1cc(Cl)ccc1[O-])c1ccc(S(=O)(=O)N2CCOCC2)cc1 (nonaromatic ring conformer: 59.29379731073269 kcal/mol)

>  <smiles>  (28) 
O=S(=O)(Nc1cc(Cl)ccc1O)c1ccc(S(=O)(=O)N2CCOCC2)cc1

>  <score_type>  (28) 
oracle

>  <origin>  (28) 
adgpu

>  <m_score__min__energy>  (28) 
-14.01

>  <m_primary>  (28) 
energy

$$$$
28:0
     RDKit          3D

 59 62  0  0  0  0  0  0  0  0999 V2000
   -4.9720   13.6030  -33.2350 C   0  0  0  0  0  0  0  0  0  0  0  0
   -4.1450   15.1210  -33.6480 S   0  0  0  0  0  0  0  0  0  0  0  0
   -3.7880   15.1220  -35.1080 O   0  0  0  0  0  0  0  0  0  0  0  0
   -2.8810   15.2400  -32.8420 O   0  0  0  0  0  0  0  0  0  0  0  0
   -5.2090   16.4760  -33.2950 C   0  0  0  0  0  0  0  0  0  0  0  0
   -5.6640   16.6890  -31.9870 C   0  0  0  0  0  0  0  0  0  0  0  0
   -6.4790   17.7870  -31.6950 C   0  0  0  0  0  0  0  0  0  0  0  0
   -6.8340   18.6910  -32.7070 C   0  0  0  0  0  0  0  0  0  0  0  0
   -7.6370   19.8870  -32.3830 C   0  0  0  0  0  0  0  0  0  0  0  0
   -9.0330   19.7840  -32.3040 C   0  0  0  0  0  0  0  0  0  0  0  0
   -9.7850   20.8690  -31.9810 N   0  0  0  0  0  0  0  0  0  0  0  0
   -9.2220   22.0770  -31.7180 C   0  0  0  0  0  0  0  0  0  0  0  0
   -7.8340   22.2330  -31.7700 C   0  0  0  0  0  0  0  0  0  0  0  0
   -7.1330   23.7890  -31.3400 Cl  0  0  0  0  0  0  0  0  0  0  0  0
   -7.0280   21.1320  -32.1140 C   0  0  0  0  0  0  0  0  0  0  0  0
   -5.5960   21.2580  -32.1110 N   0  0  0  0  0  0  0  0  0  0  0  0
   -4.8600   21.3280  -30.8450 C   0  0  0  0  0  0  0  0  0  0  0  0
   -3.4560   20.7450  -31.0290 C   0  0  0  0  0  0  0  0  0  0  0  0
   -2.7050   21.4460  -32.0950 N   0  0  0  0  0  0  0  0  0  0  0  0
   -1.3480   20.4740  -32.6180 S   0  0  0  0  0  0  0  0  0  0  0  0
   -1.3500   19.1700  -31.8680 O   0  0  0  0  0  0  0  0  0  0  0  0
   -0.0730   21.2070  -32.3010 O   0  0  0  0  0  0  0  0  0  0  0  0
   -1.4250   20.1350  -34.3770 C   0  0  0  0  0  0  0  0  0  0  0  0
   -0.3930   19.1040  -34.7640 C   0  0  0  0  0  0  0  0  0  0  0  0
    0.7730   19.5400  -35.4200 C   0  0  0  0  0  0  0  0  0  0  0  0
    1.7530   18.6270  -35.8150 C   0  0  0  0  0  0  0  0  0  0  0  0
    1.5820   17.2680  -35.5650 C   0  0  0  0  0  0  0  0  0  0  0  0
    0.4260   16.8130  -34.9280 C   0  0  0  0  0  0  0  0  0  0  0  0
   -0.5750   17.7140  -34.5280 C   0  0  0  0  0  0  0  0  0  0  0  0
   -1.7550   17.1950  -33.8960 N   0  0  0  0  0  0  0  0  0  0  0  0
   -3.5190   21.9070  -33.2480 C   0  0  0  0  0  0  0  0  0  0  0  0
   -4.8620   21.1760  -33.3750 C   0  0  0  0  0  0  0  0  0  0  0  0
   -6.3900   18.4670  -34.0200 C   0  0  0  0  0  0  0  0  0  0  0  0
   -5.5760   17.3690  -34.3100 C   0  0  0  0  0  0  0  0  0  0  0  0
   -5.0273   13.5015  -32.1411 H   0  0  0  0  0  0  0  0  0  0  0  0
   -5.9890   13.6137  -33.6541 H   0  0  0  0  0  0  0  0  0  0  0  0
   -4.4116   12.7543  -33.6541 H   0  0  0  0  0  0  0  0  0  0  0  0
   -5.3790   15.9899  -31.1870 H   0  0  0  0  0  0  0  0  0  0  0  0
   -6.8428   17.9423  -30.6686 H   0  0  0  0  0  0  0  0  0  0  0  0
   -9.5224   18.8195  -32.5046 H   0  0  0  0  0  0  0  0  0  0  0  0
   -9.8608   22.9355  -31.4632 H   0  0  0  0  0  0  0  0  0  0  0  0
   -4.7807   22.3778  -30.5261 H   0  0  0  0  0  0  0  0  0  0  0  0
   -5.3969   20.7481  -30.0799 H   0  0  0  0  0  0  0  0  0  0  0  0
   -2.9038   20.8408  -30.0825 H   0  0  0  0  0  0  0  0  0  0  0  0
   -3.5596   19.6896  -31.3212 H   0  0  0  0  0  0  0  0  0  0  0  0
   -2.4266   19.7564  -34.6289 H   0  0  0  0  0  0  0  0  0  0  0  0
   -1.2210   21.0654  -34.9271 H   0  0  0  0  0  0  0  0  0  0  0  0
    0.9141   20.6117  -35.6239 H   0  0  0  0  0  0  0  0  0  0  0  0
    2.6611   18.9819  -36.3243 H   0  0  0  0  0  0  0  0  0  0  0  0
    2.3591   16.5516  -35.8699 H   0  0  0  0  0  0  0  0  0  0  0  0
    0.2975   15.7373  -34.7372 H   0  0  0  0  0  0  0  0  0  0  0  0
   -2.4810   16.7010  -34.4590 H   0  0  0  0  0  0  0  0  0  0  0  0
   -1.9570   17.3250  -32.8810 H   0  0  0  0  0  0  0  0  0  0  0  0
   -3.7170   22.9823  -33.1276 H   0  0  0  0  0  0  0  0  0  0  0  0
   -2.9433   21.6906  -34.1600 H   0  0  0  0  0  0  0  0  0  0  0  0
   -5.4573   21.6431  -34.1733 H   0  0  0  0  0  0  0  0  0  0  0  0
   -4.6773   20.1193  -33.6184 H   0  0  0  0  0  0  0  0  0  0  0  0
   -6.6841   19.1585  -34.8234 H   0  0  0  0  0  0  0  0  0  0  0  0
   -5.2222   17.2053  -35.3386 H   0  0  0  0  0  0  0  0  0  0  0  0
  1  2  1  0
  2  3  2  0
  2  4  2  0
  2  5  1  0
  5  6  2  0
  6  7  1  0
  7  8  2  0
  8  9  1  0
  9 10  2  0
 10 11  1  0
 11 12  2  0
 12 13  1  0
 13 14  1  0
 13 15  2  0
 15 16  1  0
 16 17  1  0
 17 18  1  0
 18 19  1  0
 19 20  1  0
 20 21  2  0
 20 22  2  0
 20 23  1  0
 23 24  1  0
 24 25  2  0
 25 26  1  0
 26 27  2  0
 27 28  1  0
 28 29  2  0
 29 30  1  0
 19 31  1  0
 31 32  1  0
  8 33  1  0
 33 34  2  0
 34  5  1  0
 15  9  1  0
 32 16  1  0
 29 24  1  0
  1 35  1  0
  1 36  1  0
  1 37  1  0
  6 38  1  0
  7 39  1  0
 10 40  1  0
 12 41  1  0
 17 42  1  0
 17 43  1  0
 18 44  1  0
 18 45  1  0
 23 46  1  0
 23 47  1  0
 25 48  1  0
 26 49  1  0
 27 50  1  0
 28 51  1  0
 30 52  1  0
 30 53  1  0
 31 54  1  0
 31 55  1  0
 32 56  1  0
 32 57  1  0
 33 58  1  0
 34 59  1  0
M  END
>  <UniqueID>  (29) 
29

>  <SMILES>  (29) 
CS(=O)(=O)c1ccc(-c2cncc(Cl)c2N2CCN(S(=O)(=O)Cc3ccccc3N)CC2)cc1

>  <Energy>  (29) 
73.4292480408092

>  <Genealogy>  (29) 
CS(=O)(=O)c1ccc(-c2cncc(Cl)c2N2CCN(S(=O)(=O)Cc3ccccc3N)CC2)cc1 (3D coordinates assigned)
CS(=O)(=O)c1ccc(-c2cncc(Cl)c2N2CCN(S(=O)(=O)Cc3ccccc3N)CC2)cc1 (nonaromatic ring conformer: 73.4292480408092 kcal/mol)

>  <smiles>  (29) 
CS(=O)(=O)c1ccc(-c2cncc(Cl)c2N2CCN(S(=O)(=O)Cc3ccccc3N)CC2)cc1

>  <score_type>  (29) 
oracle

>  <origin>  (29) 
adgpu

>  <m_score__min__energy>  (29) 
-11.01

>  <m_primary>  (29) 
energy

$$$$
29:0
     RDKit          3D

 43 46  0  0  0  0  0  0  0  0999 V2000
   -3.4770   25.1840  -30.0730 O   0  0  0  0  0  0  0  0  0  0  0  0
   -2.4790   24.9000  -29.3590 C   0  0  0  0  0  0  0  0  0  0  0  0
   -1.6180   25.9140  -28.9620 O   0  0  0  0  0  0  0  0  0  0  0  0
   -2.2600   23.5150  -28.8840 C   0  0  0  0  0  0  0  0  0  0  0  0
   -2.4150   22.4460  -29.7970 C   0  0  0  0  0  0  0  0  0  0  0  0
   -2.6510   22.6990  -31.1830 N   0  0  0  0  0  0  0  0  0  0  0  0
   -3.7040   21.6820  -32.1110 S   0  0  0  0  0  0  0  0  0  0  0  0
   -3.4140   21.8310  -33.5780 O   0  0  0  0  0  0  0  0  0  0  0  0
   -3.4240   20.2540  -31.7320 O   0  0  0  0  0  0  0  0  0  0  0  0
   -5.4030   22.0630  -31.7470 C   0  0  0  0  0  0  0  0  0  0  0  0
   -5.6920   23.3480  -31.2560 C   0  0  0  0  0  0  0  0  0  0  0  0
   -7.0050   23.7530  -31.0300 C   0  0  0  0  0  0  0  0  0  0  0  0
   -8.0630   22.8930  -31.3050 C   0  0  0  0  0  0  0  0  0  0  0  0
   -7.8140   21.6060  -31.7990 C   0  0  0  0  0  0  0  0  0  0  0  0
   -8.8870   20.7550  -32.0970 C   0  0  0  0  0  0  0  0  0  0  0  0
   -8.6320   19.4790  -32.5930 C   0  0  0  0  0  0  0  0  0  0  0  0
   -7.3550   19.0600  -32.7700 N   0  0  0  0  0  0  0  0  0  0  0  0
   -6.2900   19.8560  -32.4890 C   0  0  0  0  0  0  0  0  0  0  0  0
   -6.4800   21.1680  -32.0090 C   0  0  0  0  0  0  0  0  0  0  0  0
   -2.2430   21.1250  -29.3760 C   0  0  0  0  0  0  0  0  0  0  0  0
   -1.8600   20.8460  -28.0680 C   0  0  0  0  0  0  0  0  0  0  0  0
   -1.6500   21.8890  -27.1610 C   0  0  0  0  0  0  0  0  0  0  0  0
   -1.8720   23.2250  -27.5470 C   0  0  0  0  0  0  0  0  0  0  0  0
   -1.7550   24.2690  -26.4560 C   0  0  0  0  0  0  0  0  0  0  0  0
   -0.4510   24.0770  -25.6610 C   0  0  0  0  0  0  0  0  0  0  0  0
   -0.1300   22.6020  -25.3100 C   0  0  0  0  0  0  0  0  0  0  0  0
   -1.2150   21.6030  -25.7470 C   0  0  0  0  0  0  0  0  0  0  0  0
   -4.8673   24.0452  -31.0468 H   0  0  0  0  0  0  0  0  0  0  0  0
   -7.2065   24.7584  -30.6319 H   0  0  0  0  0  0  0  0  0  0  0  0
   -9.0979   23.2243  -31.1341 H   0  0  0  0  0  0  0  0  0  0  0  0
   -9.9222   21.0923  -31.9404 H   0  0  0  0  0  0  0  0  0  0  0  0
   -9.4687   18.8096  -32.8417 H   0  0  0  0  0  0  0  0  0  0  0  0
   -5.2696   19.4729  -32.6375 H   0  0  0  0  0  0  0  0  0  0  0  0
   -2.4116   20.2998  -30.0836 H   0  0  0  0  0  0  0  0  0  0  0  0
   -1.7222   19.8030  -27.7469 H   0  0  0  0  0  0  0  0  0  0  0  0
   -1.7566   25.2701  -26.9118 H   0  0  0  0  0  0  0  0  0  0  0  0
   -2.6080   24.1624  -25.7697 H   0  0  0  0  0  0  0  0  0  0  0  0
    0.3800   24.4773  -26.2602 H   0  0  0  0  0  0  0  0  0  0  0  0
   -0.5831   24.6067  -24.7060 H   0  0  0  0  0  0  0  0  0  0  0  0
    0.8130   22.3264  -25.8047 H   0  0  0  0  0  0  0  0  0  0  0  0
   -0.0670   22.5429  -24.2134 H   0  0  0  0  0  0  0  0  0  0  0  0
   -0.8113   20.5813  -25.6911 H   0  0  0  0  0  0  0  0  0  0  0  0
   -2.0830   21.7022  -25.0786 H   0  0  0  0  0  0  0  0  0  0  0  0
  1  2  2  0
  2  3  1  0
  2  4  1  0
  4  5  2  0
  5  6  1  0
  6  7  1  0
  7  8  2  0
  7  9  2  0
  7 10  1  0
 10 11  2  0
 11 12  1  0
 12 13  2  0
 13 14  1  0
 14 15  2  0
 15 16  1  0
 16 17  2  0
 17 18  1  0
 18 19  2  0
  5 20  1  0
 20 21  2  0
 21 22  1  0
 22 23  2  0
 23 24  1  0
 24 25  1  0
 25 26  1  0
 26 27  1  0
 23  4  1  0
 19 10  1  0
 27 22  1  0
 19 14  1  0
 11 28  1  0
 12 29  1  0
 13 30  1  0
 15 31  1  0
 16 32  1  0
 18 33  1  0
 20 34  1  0
 21 35  1  0
 24 36  1  0
 24 37  1  0
 25 38  1  0
 25 39  1  0
 26 40  1  0
 26 41  1  0
 27 42  1  0
 27 43  1  0
M  CHG  2   3  -1   6  -1
M  END
>  <UniqueID>  (30) 
30

>  <SMILES>  (30) 
O=C([O-])c1c([N-]S(=O)(=O)c2cccc3ccncc23)ccc2c1CCCC2

>  <Energy>  (30) 
73.56655354730914

>  <Genealogy>  (30) 
O=C([O-])c1c([N-]S(=O)(=O)c2cccc3ccncc23)ccc2c1CCCC2 (protonated)
O=C([O-])c1c([N-]S(=O)(=O)c2cccc3ccncc23)ccc2c1CCCC2 (3D coordinates assigned)
O=C([O-])c1c([N-]S(=O)(=O)c2cccc3ccncc23)ccc2c1CCCC2 (nonaromatic ring conformer: 73.56655354730914 kcal/mol)

>  <smiles>  (30) 
O=C(O)c1c(NS(=O)(=O)c2cccc3ccncc23)ccc2c1CCCC2

>  <score_type>  (30) 
oracle

>  <origin>  (30) 
adgpu

>  <m_score__min__energy>  (30) 
-12.82

>  <m_primary>  (30) 
energy

$$$$
30:0
     RDKit          3D

 46 48  0  0  0  0  0  0  0  0999 V2000
   -3.1750   20.9900  -33.4330 N   0  0  0  0  0  0  0  0  0  0  0  0
   -4.1500   21.6150  -32.5940 C   0  0  0  0  0  0  0  0  0  0  0  0
   -5.4550   21.1090  -32.5360 C   0  0  0  0  0  0  0  0  0  0  0  0
   -6.4040   21.7100  -31.7070 C   0  0  0  0  0  0  0  0  0  0  0  0
   -6.0580   22.8200  -30.9330 C   0  0  0  0  0  0  0  0  0  0  0  0
   -4.7560   23.3500  -30.9860 C   0  0  0  0  0  0  0  0  0  0  0  0
   -4.4050   24.5300  -30.0980 C   0  0  2  0  0  0  0  0  0  0  0  0
   -3.9970   25.6530  -30.8430 O   0  0  0  0  0  0  0  0  0  0  0  0
   -3.3730   24.1470  -29.0510 C   0  0  0  0  0  0  0  0  0  0  0  0
   -2.0690   23.7720  -29.4230 C   0  0  0  0  0  0  0  0  0  0  0  0
   -1.1270   23.4220  -28.4520 C   0  0  0  0  0  0  0  0  0  0  0  0
   -1.4700   23.4530  -27.0930 C   0  0  0  0  0  0  0  0  0  0  0  0
   -0.2840   23.0310  -25.8590 S   0  0  0  0  0  0  0  0  0  0  0  0
    0.9210   22.4130  -26.5110 O   0  0  0  0  0  0  0  0  0  0  0  0
   -0.8990   22.0170  -24.9340 O   0  0  0  0  0  0  0  0  0  0  0  0
    0.1600   24.4750  -24.9690 N   0  0  0  0  0  0  0  0  0  0  0  0
    1.5080   24.9500  -25.3410 C   0  0  0  0  0  0  0  0  0  0  0  0
    1.5570   25.5460  -26.7660 C   0  0  0  0  0  0  0  0  0  0  0  0
    0.2480   26.0390  -27.2240 N   0  0  0  0  0  0  0  0  0  0  0  0
   -0.5160   26.6220  -26.1210 C   0  0  0  0  0  0  0  0  0  0  0  0
   -0.8720   25.5370  -25.0870 C   0  0  0  0  0  0  0  0  0  0  0  0
   -2.7590   23.8440  -26.7160 C   0  0  0  0  0  0  0  0  0  0  0  0
   -3.7040   24.1900  -27.6860 C   0  0  0  0  0  0  0  0  0  0  0  0
   -3.8020   22.7300  -31.8170 C   0  0  0  0  0  0  0  0  0  0  0  0
   -2.7480   21.5080  -34.2330 H   0  0  0  0  0  0  0  0  0  0  0  0
   -2.8730   20.0050  -33.2610 H   0  0  0  0  0  0  0  0  0  0  0  0
   -5.7326   20.2361  -33.1451 H   0  0  0  0  0  0  0  0  0  0  0  0
   -7.4271   21.3082  -31.6633 H   0  0  0  0  0  0  0  0  0  0  0  0
   -6.8095   23.2834  -30.2769 H   0  0  0  0  0  0  0  0  0  0  0  0
   -5.3247   24.8191  -29.5683 H   0  0  0  0  0  0  0  0  0  0  0  0
   -4.7970   26.0630  -31.2650 H   0  0  0  0  0  0  0  0  0  0  0  0
   -1.7888   23.7542  -30.4866 H   0  0  0  0  0  0  0  0  0  0  0  0
   -0.1132   23.1212  -28.7549 H   0  0  0  0  0  0  0  0  0  0  0  0
    0.2040   24.1850  -23.9630 H   0  0  0  0  0  0  0  0  0  0  0  0
    1.8185   25.7247  -24.6245 H   0  0  0  0  0  0  0  0  0  0  0  0
    2.1840   24.0825  -25.3198 H   0  0  0  0  0  0  0  0  0  0  0  0
    2.2697   26.3838  -26.7721 H   0  0  0  0  0  0  0  0  0  0  0  0
    1.8658   24.7422  -27.4505 H   0  0  0  0  0  0  0  0  0  0  0  0
    0.4080   26.7820  -27.9420 H   0  0  0  0  0  0  0  0  0  0  0  0
    0.0867   27.4032  -25.6348 H   0  0  0  0  0  0  0  0  0  0  0  0
   -1.4449   27.0567  -26.5187 H   0  0  0  0  0  0  0  0  0  0  0  0
   -0.9924   26.0172  -24.1047 H   0  0  0  0  0  0  0  0  0  0  0  0
   -1.7989   25.0533  -25.4290 H   0  0  0  0  0  0  0  0  0  0  0  0
   -3.0304   23.8794  -25.6506 H   0  0  0  0  0  0  0  0  0  0  0  0
   -4.7142   24.4982  -27.3786 H   0  0  0  0  0  0  0  0  0  0  0  0
   -2.7756   23.1236  -31.8569 H   0  0  0  0  0  0  0  0  0  0  0  0
  1  2  1  0
  2  3  2  0
  3  4  1  0
  4  5  2  0
  5  6  1  0
  6  7  1  0
  7  8  1  0
  7  9  1  0
  9 10  2  0
 10 11  1  0
 11 12  2  0
 12 13  1  0
 13 14  2  0
 13 15  2  0
 13 16  1  0
 16 17  1  0
 17 18  1  0
 18 19  1  0
 19 20  1  0
 20 21  1  0
 12 22  1  0
 22 23  2  0
  6 24  2  0
 24  2  1  0
 23  9  1  0
 21 16  1  0
  1 25  1  0
  1 26  1  0
  3 27  1  0
  4 28  1  0
  5 29  1  0
  7 30  1  1
  8 31  1  0
 10 32  1  0
 11 33  1  0
 16 34  1  0
 17 35  1  0
 17 36  1  0
 18 37  1  0
 18 38  1  0
 19 39  1  0
 20 40  1  0
 20 41  1  0
 21 42  1  0
 21 43  1  0
 22 44  1  0
 23 45  1  0
 24 46  1  0
M  CHG  1  16   1
M  END
>  <UniqueID>  (31) 
31

>  <SMILES>  (31) 
Nc1cccc([C@H](O)c2ccc(S(=O)(=O)[NH+]3CCNCC3)cc2)c1

>  <Energy>  (31) 
57.935540031594314

>  <Genealogy>  (31) 
Nc1cccc(C(O)c2ccc(S(=O)(=O)[NH+]3CCNCC3)cc2)c1 (protonated)
Nc1cccc([C@H](O)c2ccc(S(=O)(=O)[NH+]3CCNCC3)cc2)c1 (chirality)
Nc1cccc([C@H](O)c2ccc(S(=O)(=O)[NH+]3CCNCC3)cc2)c1 (3D coordinates assigned)
Nc1cccc([C@H](O)c2ccc(S(=O)(=O)[NH+]3CCNCC3)cc2)c1 (nonaromatic ring conformer: 57.935540031594314 kcal/mol)

>  <smiles>  (31) 
Nc1cccc(C(O)c2ccc(S(=O)(=O)N3CCNCC3)cc2)c1

>  <score_type>  (31) 
oracle

>  <origin>  (31) 
adgpu

>  <m_score__min__energy>  (31) 
-8.5500000000000007

>  <m_primary>  (31) 
energy

$$$$
31:0
     RDKit          3D

 45 47  0  0  0  0  0  0  0  0999 V2000
   -1.7340   15.7970  -34.1650 N   0  0  0  0  0  0  0  0  0  0  0  0
   -3.1910   15.1970  -34.8770 S   0  0  0  0  0  0  0  0  0  0  0  0
   -3.3790   13.7630  -34.4720 O   0  0  0  0  0  0  0  0  0  0  0  0
   -3.0660   15.2850  -36.3720 O   0  0  0  0  0  0  0  0  0  0  0  0
   -4.5850   16.1430  -34.3400 C   0  0  0  0  0  0  0  0  0  0  0  0
   -5.7630   15.4880  -33.9500 C   0  0  0  0  0  0  0  0  0  0  0  0
   -6.8750   16.2220  -33.5350 C   0  0  0  0  0  0  0  0  0  0  0  0
   -6.8280   17.6170  -33.5190 C   0  0  0  0  0  0  0  0  0  0  0  0
   -5.6650   18.2810  -33.9140 C   0  0  0  0  0  0  0  0  0  0  0  0
   -4.5270   17.5520  -34.3100 C   0  0  0  0  0  0  0  0  0  0  0  0
   -3.3360   18.2180  -34.7580 N   0  0  0  0  0  0  0  0  0  0  0  0
   -2.4750   19.0620  -33.9810 C   0  0  0  0  0  0  0  0  0  0  0  0
   -1.2240   18.9440  -34.0840 O   0  0  0  0  0  0  0  0  0  0  0  0
   -3.0640   20.1050  -33.0990 C   0  0  0  0  0  0  0  0  0  0  0  0
   -4.0900   20.9340  -33.5920 C   0  0  0  0  0  0  0  0  0  0  0  0
   -4.6660   21.9150  -32.7840 C   0  0  0  0  0  0  0  0  0  0  0  0
   -4.2410   22.0930  -31.4620 C   0  0  0  0  0  0  0  0  0  0  0  0
   -4.8700   23.1050  -30.6530 N   0  0  0  0  0  0  0  0  0  0  0  0
   -4.9120   23.0880  -29.1890 C   0  0  0  0  0  0  0  0  0  0  0  0
   -3.6580   23.6910  -28.6060 C   0  0  0  0  0  0  0  0  0  0  0  0
   -3.1120   23.1700  -27.4220 C   0  0  0  0  0  0  0  0  0  0  0  0
   -1.9500   23.7190  -26.8760 C   0  0  0  0  0  0  0  0  0  0  0  0
   -1.3100   24.7900  -27.5070 C   0  0  0  0  0  0  0  0  0  0  0  0
   -0.1510   25.3190  -26.9390 O   0  0  0  0  0  0  0  0  0  0  0  0
   -1.8400   25.3120  -28.6980 C   0  0  0  0  0  0  0  0  0  0  0  0
   -1.2120   26.3760  -29.3370 O   0  0  0  0  0  0  0  0  0  0  0  0
   -3.0070   24.7630  -29.2490 C   0  0  0  0  0  0  0  0  0  0  0  0
   -3.5130   25.2810  -30.4370 O   0  0  0  0  0  0  0  0  0  0  0  0
   -3.2100   21.2790  -30.9650 C   0  0  0  0  0  0  0  0  0  0  0  0
   -2.6270   20.2910  -31.7680 C   0  0  0  0  0  0  0  0  0  0  0  0
   -1.6140   19.5060  -31.2270 O   0  0  0  0  0  0  0  0  0  0  0  0
   -1.7330   16.8330  -34.2970 H   0  0  0  0  0  0  0  0  0  0  0  0
   -5.8103   14.3892  -33.9715 H   0  0  0  0  0  0  0  0  0  0  0  0
   -7.7906   15.7001  -33.2198 H   0  0  0  0  0  0  0  0  0  0  0  0
   -7.7073   18.1932  -33.1952 H   0  0  0  0  0  0  0  0  0  0  0  0
   -5.6375   19.3807  -33.9159 H   0  0  0  0  0  0  0  0  0  0  0  0
   -4.4416   20.8067  -34.6265 H   0  0  0  0  0  0  0  0  0  0  0  0
   -5.4627   22.5555  -33.1902 H   0  0  0  0  0  0  0  0  0  0  0  0
   -5.3880   23.8750  -31.1350 H   0  0  0  0  0  0  0  0  0  0  0  0
   -5.7824   23.6673  -28.8472 H   0  0  0  0  0  0  0  0  0  0  0  0
   -4.9884   22.0436  -28.8523 H   0  0  0  0  0  0  0  0  0  0  0  0
   -3.6033   22.3230  -26.9208 H   0  0  0  0  0  0  0  0  0  0  0  0
   -1.5358   23.3065  -25.9442 H   0  0  0  0  0  0  0  0  0  0  0  0
    0.3410   26.1020  -27.3520 H   0  0  0  0  0  0  0  0  0  0  0  0
   -2.8564   21.4192  -29.9329 H   0  0  0  0  0  0  0  0  0  0  0  0
  1  2  1  0
  2  3  2  0
  2  4  2  0
  2  5  1  0
  5  6  2  0
  6  7  1  0
  7  8  2  0
  8  9  1  0
  9 10  2  0
 10 11  1  0
 11 12  1  0
 12 13  2  0
 12 14  1  0
 14 15  2  0
 15 16  1  0
 16 17  2  0
 17 18  1  0
 18 19  1  0
 19 20  1  0
 20 21  2  0
 21 22  1  0
 22 23  2  0
 23 24  1  0
 23 25  1  0
 25 26  1  0
 25 27  2  0
 27 28  1  0
 17 29  1  0
 29 30  2  0
 30 31  1  0
 10  5  1  0
 30 14  1  0
 27 20  1  0
  1 32  1  0
  6 33  1  0
  7 34  1  0
  8 35  1  0
  9 36  1  0
 15 37  1  0
 16 38  1  0
 18 39  1  0
 19 40  1  0
 19 41  1  0
 21 42  1  0
 22 43  1  0
 24 44  1  0
 29 45  1  0
M  CHG  5   1  -1  11  -1  26  -1  28  -1  31  -1
M  END
>  <UniqueID>  (32) 
32

>  <SMILES>  (32) 
[NH-]S(=O)(=O)c1ccccc1[N-]C(=O)c1ccc(NCc2ccc(O)c([O-])c2[O-])cc1[O-]

>  <Energy>  (32) 
55.15436480740875

>  <Genealogy>  (32) 
[NH-]S(=O)(=O)c1ccccc1[N-]C(=O)c1ccc(NCc2ccc(O)c([O-])c2[O-])cc1[O-] (protonated)
[NH-]S(=O)(=O)c1ccccc1[N-]C(=O)c1ccc(NCc2ccc(O)c([O-])c2[O-])cc1[O-] (3D coordinates assigned)
[NH-]S(=O)(=O)c1ccccc1[N-]C(=O)c1ccc(NCc2ccc(O)c([O-])c2[O-])cc1[O-] (optimized conformer: 55.15436480740875 kcal/mol)

>  <smiles>  (32) 
NS(=O)(=O)c1ccccc1NC(=O)c1ccc(NCc2ccc(O)c(O)c2O)cc1O

>  <score_type>  (32) 
oracle

>  <origin>  (32) 
adgpu

>  <m_score__min__energy>  (32) 
-13.949999999999999

>  <m_primary>  (32) 
energy

$$$$
32:0
     RDKit          3D

 59 62  0  0  0  0  0  0  0  0999 V2000
   -7.4000   24.3660  -30.5440 N   0  0  0  0  0  0  0  0  0  0  0  0
   -6.4460   23.8630  -31.4880 C   0  0  0  0  0  0  0  0  0  0  0  0
   -6.8030   23.6710  -32.7250 N   0  0  0  0  0  0  0  0  0  0  0  0
   -5.0600   23.5720  -31.0510 C   0  0  0  0  0  0  0  0  0  0  0  0
   -4.4890   22.3030  -31.2650 C   0  0  0  0  0  0  0  0  0  0  0  0
   -3.1940   22.0270  -30.8160 C   0  0  0  0  0  0  0  0  0  0  0  0
   -2.4450   23.0210  -30.1620 C   0  0  0  0  0  0  0  0  0  0  0  0
   -1.1570   22.7480  -29.6930 O   0  0  0  0  0  0  0  0  0  0  0  0
   -0.6780   21.4390  -29.6280 C   0  0  0  0  0  0  0  0  0  0  0  0
   -0.7460   20.7150  -28.4290 C   0  0  0  0  0  0  0  0  0  0  0  0
   -0.1960   19.4290  -28.3580 C   0  0  0  0  0  0  0  0  0  0  0  0
    0.4130   18.8600  -29.4840 C   0  0  0  0  0  0  0  0  0  0  0  0
    0.4580   19.5690  -30.6880 C   0  0  0  0  0  0  0  0  0  0  0  0
   -0.0970   20.8570  -30.7670 C   0  0  0  0  0  0  0  0  0  0  0  0
   -0.1210   21.5630  -32.0110 N   0  0  0  0  0  0  0  0  0  0  0  0
   -0.0050   20.9260  -33.2830 C   0  0  0  0  0  0  0  0  0  0  0  0
    0.6350   21.5010  -34.2010 O   0  0  0  0  0  0  0  0  0  0  0  0
   -0.5760   19.6280  -33.4900 N   0  0  0  0  0  0  0  0  0  0  0  0
   -1.9610   19.2790  -33.3590 C   0  0  0  0  0  0  0  0  0  0  0  0
   -2.9880   20.2260  -33.5180 C   0  0  0  0  0  0  0  0  0  0  0  0
   -4.3280   19.8340  -33.4440 C   0  0  0  0  0  0  0  0  0  0  0  0
   -4.6600   18.4890  -33.2390 C   0  0  0  0  0  0  0  0  0  0  0  0
   -6.3500   17.9860  -33.2100 S   0  0  0  0  0  0  0  0  0  0  0  0
   -6.6730   17.2560  -34.4830 O   0  0  0  0  0  0  0  0  0  0  0  0
   -6.5650   17.0440  -32.0590 O   0  0  0  0  0  0  0  0  0  0  0  0
   -7.4640   19.3840  -33.0440 C   0  0  0  0  0  0  0  0  0  0  0  0
   -8.8590   18.9760  -32.6020 C   0  0  0  0  0  0  0  0  0  0  0  0
   -9.4500   20.2330  -31.9870 C   0  0  0  0  0  0  0  0  0  0  0  0
   -8.2680   21.0280  -31.4280 C   0  0  0  0  0  0  0  0  0  0  0  0
   -6.9990   20.4030  -32.0080 C   0  0  0  0  0  0  0  0  0  0  0  0
   -3.6370   17.5430  -33.0890 C   0  0  0  0  0  0  0  0  0  0  0  0
   -2.2980   17.9380  -33.1550 C   0  0  0  0  0  0  0  0  0  0  0  0
   -2.9990   24.2990  -29.9730 C   0  0  0  0  0  0  0  0  0  0  0  0
   -2.2620   25.3000  -29.3410 O   0  0  0  0  0  0  0  0  0  0  0  0
   -4.3030   24.5680  -30.4010 C   0  0  0  0  0  0  0  0  0  0  0  0
   -7.1580   24.4590  -29.5340 H   0  0  0  0  0  0  0  0  0  0  0  0
   -8.3540   24.6640  -30.8550 H   0  0  0  0  0  0  0  0  0  0  0  0
   -6.1260   23.3360  -33.4460 H   0  0  0  0  0  0  0  0  0  0  0  0
   -7.7800   23.8720  -33.0340 H   0  0  0  0  0  0  0  0  0  0  0  0
   -5.0645   21.5250  -31.7879 H   0  0  0  0  0  0  0  0  0  0  0  0
   -2.7597   21.0289  -30.9749 H   0  0  0  0  0  0  0  0  0  0  0  0
   -1.2306   21.1564  -27.5456 H   0  0  0  0  0  0  0  0  0  0  0  0
   -0.2423   18.8640  -27.4153 H   0  0  0  0  0  0  0  0  0  0  0  0
    0.8559   17.8551  -29.4208 H   0  0  0  0  0  0  0  0  0  0  0  0
    0.9284   19.1179  -31.5742 H   0  0  0  0  0  0  0  0  0  0  0  0
   -2.7359   21.2809  -33.7016 H   0  0  0  0  0  0  0  0  0  0  0  0
   -5.1249   20.5852  -33.5472 H   0  0  0  0  0  0  0  0  0  0  0  0
   -7.4721   19.8205  -34.0536 H   0  0  0  0  0  0  0  0  0  0  0  0
   -9.4584   18.6466  -33.4635 H   0  0  0  0  0  0  0  0  0  0  0  0
   -8.8424   18.1339  -31.8945 H   0  0  0  0  0  0  0  0  0  0  0  0
   -9.9776   20.8209  -32.7525 H   0  0  0  0  0  0  0  0  0  0  0  0
  -10.1795   19.9907  -31.2001 H   0  0  0  0  0  0  0  0  0  0  0  0
   -8.3435   22.0824  -31.7322 H   0  0  0  0  0  0  0  0  0  0  0  0
   -8.2561   20.9955  -30.3285 H   0  0  0  0  0  0  0  0  0  0  0  0
   -6.3768   21.1749  -32.4844 H   0  0  0  0  0  0  0  0  0  0  0  0
   -6.3900   19.9293  -31.2239 H   0  0  0  0  0  0  0  0  0  0  0  0
   -3.8888   16.4858  -32.9187 H   0  0  0  0  0  0  0  0  0  0  0  0
   -1.5021   17.1866  -33.0454 H   0  0  0  0  0  0  0  0  0  0  0  0
   -4.7406   25.5625  -30.2295 H   0  0  0  0  0  0  0  0  0  0  0  0
  1  2  1  0
  2  3  2  0
  2  4  1  0
  4  5  2  0
  5  6  1  0
  6  7  2  0
  7  8  1  0
  8  9  1  0
  9 10  2  0
 10 11  1  0
 11 12  2  0
 12 13  1  0
 13 14  2  0
 14 15  1  0
 15 16  1  0
 16 17  2  0
 16 18  1  0
 18 19  1  0
 19 20  2  0
 20 21  1  0
 21 22  2  0
 22 23  1  0
 23 24  2  0
 23 25  2  0
 23 26  1  0
 26 27  1  0
 27 28  1  0
 28 29  1  0
 29 30  1  0
 22 31  1  0
 31 32  2  0
  7 33  1  0
 33 34  1  0
 33 35  2  0
 35  4  1  0
 14  9  1  0
 32 19  1  0
 30 26  1  0
  1 36  1  0
  1 37  1  0
  3 38  1  0
  3 39  1  0
  5 40  1  0
  6 41  1  0
 10 42  1  0
 11 43  1  0
 12 44  1  0
 13 45  1  0
 20 46  1  0
 21 47  1  0
 26 48  1  0
 27 49  1  0
 27 50  1  0
 28 51  1  0
 28 52  1  0
 29 53  1  0
 29 54  1  0
 30 55  1  0
 30 56  1  0
 31 57  1  0
 32 58  1  0
 35 59  1  0
M  CHG  4   3   1  15  -1  18  -1  34  -1
M  END
>  <UniqueID>  (33) 
33

>  <SMILES>  (33) 
NC(=[NH2+])c1ccc(Oc2ccccc2[N-]C(=O)[N-]c2ccc(S(=O)(=O)C3CCCC3)cc2)c([O-])c1

>  <Energy>  (33) 
84.45908295578322

>  <Genealogy>  (33) 
NC(=[NH2+])c1ccc(Oc2ccccc2[N-]C(=O)[N-]c2ccc(S(=O)(=O)C3CCCC3)cc2)c([O-])c1 (protonated)
NC(=[NH2+])c1ccc(Oc2ccccc2[N-]C(=O)[N-]c2ccc(S(=O)(=O)C3CCCC3)cc2)c([O-])c1 (3D coordinates assigned)
NC(=[NH2+])c1ccc(Oc2ccccc2[N-]C(=O)[N-]c2ccc(S(=O)(=O)C3CCCC3)cc2)c([O-])c1 (nonaromatic ring conformer: 84.45908295578322 kcal/mol)

>  <smiles>  (33) 
N=C(N)c1ccc(Oc2ccccc2NC(=O)Nc2ccc(S(=O)(=O)C3CCCC3)cc2)c(O)c1

>  <score_type>  (33) 
oracle

>  <origin>  (33) 
adgpu

>  <m_score__min__energy>  (33) 
-16.969999999999999

>  <m_primary>  (33) 
energy

$$$$
33:0
     RDKit          3D

 48 51  0  0  0  0  0  0  0  0999 V2000
    4.5402   24.8550  -35.9075 H   0  0  0  0  0  0  0  0  0  0  0  0
    3.7870   24.0710  -35.7400 C   0  0  0  0  0  0  0  0  0  0  0  0
    2.1170   24.2700  -35.8300 S   0  0  0  0  0  0  0  0  0  0  0  0
    1.8020   22.6650  -35.4540 C   0  0  0  0  0  0  0  0  0  0  0  0
    0.6030   22.1750  -35.3480 N   0  0  0  0  0  0  0  0  0  0  0  0
    0.2420   20.5290  -34.9330 S   0  0  0  0  0  0  0  0  0  0  0  0
    0.2440   19.6950  -36.1820 O   0  0  0  0  0  0  0  0  0  0  0  0
    1.3030   20.0180  -33.9970 O   0  0  0  0  0  0  0  0  0  0  0  0
   -1.3480   20.4270  -34.1810 C   0  0  0  0  0  0  0  0  0  0  0  0
   -1.8980   21.5520  -33.5570 C   0  0  0  0  0  0  0  0  0  0  0  0
   -1.3441   22.5023  -33.5576 H   0  0  0  0  0  0  0  0  0  0  0  0
   -3.1440   21.4770  -32.9340 C   0  0  0  0  0  0  0  0  0  0  0  0
   -3.5635   22.3684  -32.4448 H   0  0  0  0  0  0  0  0  0  0  0  0
   -3.8700   20.2690  -32.9260 C   0  0  0  0  0  0  0  0  0  0  0  0
   -5.1360   20.1610  -32.2980 C   0  0  0  0  0  0  0  0  0  0  0  0
   -5.7640   21.3040  -31.6040 C   0  0  0  0  0  0  0  0  0  0  0  0
   -4.9930   22.0890  -30.7350 C   0  0  0  0  0  0  0  0  0  0  0  0
   -3.9334   21.8430  -30.5713 H   0  0  0  0  0  0  0  0  0  0  0  0
   -5.5640   23.1860  -30.0730 C   0  0  0  0  0  0  0  0  0  0  0  0
   -4.7440   24.0060  -29.1150 C   0  0  0  0  0  0  0  0  0  0  0  0
   -5.4147   24.6066  -28.4830 H   0  0  0  0  0  0  0  0  0  0  0  0
   -4.1427   23.3328  -28.4862 H   0  0  0  0  0  0  0  0  0  0  0  0
   -3.8310   24.9160  -29.8730 C   0  0  0  0  0  0  0  0  0  0  0  0
   -4.1630   25.3450  -31.0100 O   0  0  0  0  0  0  0  0  0  0  0  0
   -2.5940   25.2590  -29.3430 O   0  0  0  0  0  0  0  0  0  0  0  0
   -6.9210   23.4790  -30.2730 C   0  0  0  0  0  0  0  0  0  0  0  0
   -7.3801   24.3274  -29.7443 H   0  0  0  0  0  0  0  0  0  0  0  0
   -7.6940   22.7010  -31.1390 C   0  0  0  0  0  0  0  0  0  0  0  0
   -8.7552   22.9456  -31.2939 H   0  0  0  0  0  0  0  0  0  0  0  0
   -7.1220   21.6050  -31.8150 C   0  0  0  0  0  0  0  0  0  0  0  0
   -7.8660   20.8050  -32.6980 O   0  0  0  0  0  0  0  0  0  0  0  0
   -9.0430   20.0880  -32.3400 C   0  0  0  0  0  0  0  0  0  0  0  0
   -9.1234   20.0390  -31.2440 H   0  0  0  0  0  0  0  0  0  0  0  0
   -9.9247   20.6026  -32.7497 H   0  0  0  0  0  0  0  0  0  0  0  0
   -8.9902   19.0685  -32.7497 H   0  0  0  0  0  0  0  0  0  0  0  0
   -5.8230   18.9380  -32.3280 C   0  0  0  0  0  0  0  0  0  0  0  0
   -6.8072   18.8542  -31.8438 H   0  0  0  0  0  0  0  0  0  0  0  0
   -5.2700   17.8270  -32.9660 C   0  0  0  0  0  0  0  0  0  0  0  0
   -5.8186   16.8737  -32.9810 H   0  0  0  0  0  0  0  0  0  0  0  0
   -4.0230   17.9220  -33.5850 C   0  0  0  0  0  0  0  0  0  0  0  0
   -3.5922   17.0421  -34.0851 H   0  0  0  0  0  0  0  0  0  0  0  0
   -3.3160   19.1330  -33.5730 C   0  0  0  0  0  0  0  0  0  0  0  0
   -2.0620   19.2240  -34.1950 C   0  0  0  0  0  0  0  0  0  0  0  0
   -1.6368   18.3428  -34.6976 H   0  0  0  0  0  0  0  0  0  0  0  0
    2.9450   21.9630  -35.2660 N   0  0  0  0  0  0  0  0  0  0  0  0
    3.0030   20.9490  -35.0290 H   0  0  0  0  0  0  0  0  0  0  0  0
    4.0490   22.7430  -35.4170 C   0  0  0  0  0  0  0  0  0  0  0  0
    5.0705   22.3540  -35.2933 H   0  0  0  0  0  0  0  0  0  0  0  0
  1  2  1  0
  2  3  1  0
  3  4  1  0
  4  5  2  0
  5  6  1  0
  6  7  2  0
  6  8  2  0
  6  9  1  0
  9 10  2  0
 10 11  1  0
 10 12  1  0
 12 13  1  0
 12 14  2  0
 14 15  1  0
 15 16  1  0
 16 17  2  0
 17 18  1  0
 17 19  1  0
 19 20  1  0
 20 21  1  0
 20 22  1  0
 20 23  1  0
 23 24  2  0
 23 25  1  0
 19 26  2  0
 26 27  1  0
 26 28  1  0
 28 29  1  0
 28 30  2  0
 30 31  1  0
 31 32  1  0
 32 33  1  0
 32 34  1  0
 32 35  1  0
 15 36  2  0
 36 37  1  0
 36 38  1  0
 38 39  1  0
 38 40  2  0
 40 41  1  0
 40 42  1  0
 42 43  2  0
 43 44  1  0
  4 45  1  0
 45 46  1  0
 45 47  1  0
 47 48  1  0
 47  2  2  0
 43  9  1  0
 42 14  1  0
 30 16  1  0
M  CHG  1  25  -1
M  END
>  <UniqueID>  (34) 
34

>  <SMILES>  (34) 
COc1ccc(CC(=O)[O-])cc1-c1cccc2cc(S(=O)(=O)/N=c3\[nH]ccs3)ccc12

>  <Energy>  (34) 
95.32024677425589

>  <Genealogy>  (34) 
COc1ccc(CC(=O)[O-])cc1-c1cccc2cc(S(=O)(=O)N=c3[nH]ccs3)ccc12 (protonated)
COc1ccc(CC(=O)[O-])cc1-c1cccc2cc(S(=O)(=O)/N=c3\[nH]ccs3)ccc12 (cis-trans isomerization)
COc1ccc(CC(=O)[O-])cc1-c1cccc2cc(S(=O)(=O)/N=c3\[nH]ccs3)ccc12 (3D coordinates assigned)
COc1ccc(CC(=O)[O-])cc1-c1cccc2cc(S(=O)(=O)/N=c3\[nH]ccs3)ccc12 (optimized conformer: 95.32024677425589 kcal/mol)

>  <smiles>  (34) 
COc1ccc(CC(=O)O)cc1-c1cccc2cc(S(=O)(=O)N=c3[nH]ccs3)ccc12

>  <score_type>  (34) 
oracle

>  <origin>  (34) 
adgpu

>  <m_score__min__energy>  (34) 
-12.18

>  <m_primary>  (34) 
energy

$$$$
34:0
     RDKit          3D

 53 56  0  0  0  0  0  0  0  0999 V2000
   -6.8540   23.4480  -32.6590 C   0  0  0  0  0  0  0  0  0  0  0  0
   -7.4680   23.5420  -31.2650 C   0  0  0  0  0  0  0  0  0  0  0  0
   -6.4260   23.2370  -30.1850 C   0  0  0  0  0  0  0  0  0  0  0  0
   -5.3630   24.6460  -29.8990 S   0  0  0  0  0  0  0  0  0  0  0  0
   -4.9800   25.2650  -31.2140 O   0  0  0  0  0  0  0  0  0  0  0  0
   -6.1120   25.6640  -29.0840 O   0  0  0  0  0  0  0  0  0  0  0  0
   -3.9300   24.1700  -29.0460 N   0  0  0  0  0  0  0  0  0  0  0  0
   -3.7250   24.3910  -27.6170 C   0  0  0  0  0  0  0  0  0  0  0  0
   -2.5050   23.5240  -27.2210 C   0  0  0  0  0  0  0  0  0  0  0  0
   -2.1620   22.8170  -28.4860 C   0  0  0  0  0  0  0  0  0  0  0  0
   -1.1940   21.8320  -28.6870 C   0  0  0  0  0  0  0  0  0  0  0  0
   -1.0820   21.2500  -29.9600 C   0  0  0  0  0  0  0  0  0  0  0  0
   -1.9280   21.6680  -31.0100 C   0  0  0  0  0  0  0  0  0  0  0  0
   -1.8560   20.8810  -32.5810 S   0  0  0  0  0  0  0  0  0  0  0  0
   -0.6320   20.0120  -32.6620 O   0  0  0  0  0  0  0  0  0  0  0  0
   -1.7740   21.9140  -33.6700 O   0  0  0  0  0  0  0  0  0  0  0  0
   -3.3120   19.9120  -32.7880 C   0  0  0  0  0  0  0  0  0  0  0  0
   -3.2000   18.5610  -33.1430 C   0  0  0  0  0  0  0  0  0  0  0  0
   -4.3460   17.7910  -33.3630 C   0  0  0  0  0  0  0  0  0  0  0  0
   -5.6150   18.3660  -33.2130 C   0  0  0  0  0  0  0  0  0  0  0  0
   -5.7330   19.7180  -32.8500 C   0  0  0  0  0  0  0  0  0  0  0  0
   -4.5810   20.4920  -32.6500 C   0  0  0  0  0  0  0  0  0  0  0  0
   -7.1100   20.3180  -32.7550 C   0  0  0  0  0  0  0  0  0  0  0  0
   -8.0900   19.3680  -32.0380 C   0  0  0  0  0  0  0  0  0  0  0  0
   -7.9060   17.8630  -32.3720 C   0  0  0  0  0  0  0  0  0  0  0  0
   -6.8700   17.5810  -33.4710 C   0  0  0  0  0  0  0  0  0  0  0  0
   -2.8880   22.6690  -30.7800 C   0  0  0  0  0  0  0  0  0  0  0  0
   -2.9860   23.2180  -29.4990 C   0  0  0  0  0  0  0  0  0  0  0  0
   -5.7701   23.2821  -32.5718 H   0  0  0  0  0  0  0  0  0  0  0  0
   -7.3106   22.6093  -33.2050 H   0  0  0  0  0  0  0  0  0  0  0  0
   -7.0388   24.3849  -33.2050 H   0  0  0  0  0  0  0  0  0  0  0  0
   -7.8581   24.5590  -31.1115 H   0  0  0  0  0  0  0  0  0  0  0  0
   -8.2789   22.8027  -31.1885 H   0  0  0  0  0  0  0  0  0  0  0  0
   -6.9435   22.9816  -29.2486 H   0  0  0  0  0  0  0  0  0  0  0  0
   -5.8056   22.3952  -30.5262 H   0  0  0  0  0  0  0  0  0  0  0  0
   -3.5186   25.4534  -27.4204 H   0  0  0  0  0  0  0  0  0  0  0  0
   -4.6181   24.1189  -27.0353 H   0  0  0  0  0  0  0  0  0  0  0  0
   -1.6685   24.1525  -26.8816 H   0  0  0  0  0  0  0  0  0  0  0  0
   -2.7170   22.8375  -26.3881 H   0  0  0  0  0  0  0  0  0  0  0  0
   -0.5329   21.5182  -27.8657 H   0  0  0  0  0  0  0  0  0  0  0  0
   -0.3322   20.4654  -30.1397 H   0  0  0  0  0  0  0  0  0  0  0  0
   -2.2051   18.1039  -33.2491 H   0  0  0  0  0  0  0  0  0  0  0  0
   -4.2515   16.7343  -33.6537 H   0  0  0  0  0  0  0  0  0  0  0  0
   -4.6730   21.5555  -32.3845 H   0  0  0  0  0  0  0  0  0  0  0  0
   -7.0510   21.2618  -32.1931 H   0  0  0  0  0  0  0  0  0  0  0  0
   -7.4821   20.4933  -33.7752 H   0  0  0  0  0  0  0  0  0  0  0  0
   -7.9575   19.4957  -30.9535 H   0  0  0  0  0  0  0  0  0  0  0  0
   -9.0960   19.6407  -32.3896 H   0  0  0  0  0  0  0  0  0  0  0  0
   -7.5870   17.3435  -31.4564 H   0  0  0  0  0  0  0  0  0  0  0  0
   -8.8739   17.5042  -32.7521 H   0  0  0  0  0  0  0  0  0  0  0  0
   -6.6319   16.5071  -33.4793 H   0  0  0  0  0  0  0  0  0  0  0  0
   -7.2874   17.8800  -34.4438 H   0  0  0  0  0  0  0  0  0  0  0  0
   -3.5474   23.0124  -31.5907 H   0  0  0  0  0  0  0  0  0  0  0  0
  1  2  1  0
  2  3  1  0
  3  4  1  0
  4  5  2  0
  4  6  2  0
  4  7  1  0
  7  8  1  0
  8  9  1  0
  9 10  1  0
 10 11  2  0
 11 12  1  0
 12 13  2  0
 13 14  1  0
 14 15  2  0
 14 16  2  0
 14 17  1  0
 17 18  2  0
 18 19  1  0
 19 20  2  0
 20 21  1  0
 21 22  2  0
 21 23  1  0
 23 24  1  0
 24 25  1  0
 25 26  1  0
 13 27  1  0
 27 28  2  0
 28  7  1  0
 28 10  1  0
 22 17  1  0
 26 20  1  0
  1 29  1  0
  1 30  1  0
  1 31  1  0
  2 32  1  0
  2 33  1  0
  3 34  1  0
  3 35  1  0
  8 36  1  0
  8 37  1  0
  9 38  1  0
  9 39  1  0
 11 40  1  0
 12 41  1  0
 18 42  1  0
 19 43  1  0
 22 44  1  0
 23 45  1  0
 23 46  1  0
 24 47  1  0
 24 48  1  0
 25 49  1  0
 25 50  1  0
 26 51  1  0
 26 52  1  0
 27 53  1  0
M  END
>  <UniqueID>  (35) 
35

>  <SMILES>  (35) 
CCCS(=O)(=O)N1CCc2ccc(S(=O)(=O)c3ccc4c(c3)CCCC4)cc21

>  <Energy>  (35) 
65.53351106328152

>  <Genealogy>  (35) 
CCCS(=O)(=O)N1CCc2ccc(S(=O)(=O)c3ccc4c(c3)CCCC4)cc21 (3D coordinates assigned)
CCCS(=O)(=O)N1CCc2ccc(S(=O)(=O)c3ccc4c(c3)CCCC4)cc21 (nonaromatic ring conformer: 65.53351106328152 kcal/mol)

>  <smiles>  (35) 
CCCS(=O)(=O)N1CCc2ccc(S(=O)(=O)c3ccc4c(c3)CCCC4)cc21

>  <score_type>  (35) 
oracle

>  <origin>  (35) 
adgpu

>  <m_score__min__energy>  (35) 
-10.31

>  <m_primary>  (35) 
energy

$$$$
35:0
     RDKit          3D

 31 32  0  0  0  0  0  0  0  0999 V2000
   -4.6240   16.6030  -33.1030 C   0  0  0  0  0  0  0  0  0  0  0  0
   -5.6770   17.6490  -32.8890 C   0  0  0  0  0  0  0  0  0  0  0  0
   -7.0160   17.2800  -32.6970 C   0  0  0  0  0  0  0  0  0  0  0  0
   -7.9980   18.2580  -32.5320 C   0  0  0  0  0  0  0  0  0  0  0  0
   -7.6550   19.6160  -32.5680 C   0  0  0  0  0  0  0  0  0  0  0  0
   -8.6370   20.5920  -32.4000 O   0  0  0  0  0  0  0  0  0  0  0  0
   -6.3220   20.0000  -32.7750 C   0  0  0  0  0  0  0  0  0  0  0  0
   -6.0020   21.3990  -32.8050 N   0  0  0  0  0  0  0  0  0  0  0  0
   -6.4900   22.5640  -31.6170 S   0  0  0  0  0  0  0  0  0  0  0  0
   -7.3880   23.5710  -32.2800 O   0  0  0  0  0  0  0  0  0  0  0  0
   -7.2700   21.8690  -30.5380 O   0  0  0  0  0  0  0  0  0  0  0  0
   -5.0630   23.3360  -30.8860 C   0  0  0  0  0  0  0  0  0  0  0  0
   -3.9870   22.5690  -30.3780 C   0  0  0  0  0  0  0  0  0  0  0  0
   -3.9710   21.0700  -30.4290 C   0  0  0  0  0  0  0  0  0  0  0  0
   -2.9050   23.2020  -29.8500 N   0  0  0  0  0  0  0  0  0  0  0  0
   -2.8390   24.5530  -29.7770 C   0  0  0  0  0  0  0  0  0  0  0  0
   -1.8240   25.1060  -29.2790 O   0  0  0  0  0  0  0  0  0  0  0  0
   -3.8640   25.3080  -30.2370 N   0  0  0  0  0  0  0  0  0  0  0  0
   -4.9680   24.7380  -30.7840 C   0  0  0  0  0  0  0  0  0  0  0  0
   -5.8970   25.4820  -31.1950 O   0  0  0  0  0  0  0  0  0  0  0  0
   -5.3370   19.0090  -32.9450 C   0  0  0  0  0  0  0  0  0  0  0  0
   -4.2615   16.2429  -32.1288 H   0  0  0  0  0  0  0  0  0  0  0  0
   -5.0520   15.7622  -33.6686 H   0  0  0  0  0  0  0  0  0  0  0  0
   -3.7861   17.0366  -33.6686 H   0  0  0  0  0  0  0  0  0  0  0  0
   -7.2936   16.2158  -32.6763 H   0  0  0  0  0  0  0  0  0  0  0  0
   -9.0453   17.9615  -32.3731 H   0  0  0  0  0  0  0  0  0  0  0  0
   -8.4040   21.5760  -32.3450 H   0  0  0  0  0  0  0  0  0  0  0  0
   -3.9667   20.6683  -29.4050 H   0  0  0  0  0  0  0  0  0  0  0  0
   -4.8654   20.7116  -30.9597 H   0  0  0  0  0  0  0  0  0  0  0  0
   -3.0692   20.7308  -30.9597 H   0  0  0  0  0  0  0  0  0  0  0  0
   -4.2922   19.3032  -33.1232 H   0  0  0  0  0  0  0  0  0  0  0  0
  1  2  1  0
  2  3  2  0
  3  4  1  0
  4  5  2  0
  5  6  1  0
  5  7  1  0
  7  8  1  0
  8  9  1  0
  9 10  2  0
  9 11  2  0
  9 12  1  0
 12 13  2  0
 13 14  1  0
 13 15  1  0
 15 16  1  0
 16 17  2  0
 16 18  1  0
 18 19  1  0
 19 20  2  0
  7 21  2  0
 21  2  1  0
 19 12  1  0
  1 22  1  0
  1 23  1  0
  1 24  1  0
  3 25  1  0
  4 26  1  0
  6 27  1  0
 14 28  1  0
 14 29  1  0
 14 30  1  0
 21 31  1  0
M  CHG  3   8  -1  15  -1  18  -1
M  END
>  <UniqueID>  (36) 
36

>  <SMILES>  (36) 
Cc1ccc(O)c([N-]S(=O)(=O)c2c(C)[n-]c(=O)[n-]c2=O)c1

>  <Energy>  (36) 
36.835892285985324

>  <Genealogy>  (36) 
Cc1ccc(O)c([N-]S(=O)(=O)c2c(C)[n-]c(=O)[n-]c2=O)c1 (protonated)
Cc1ccc(O)c([N-]S(=O)(=O)c2c(C)[n-]c(=O)[n-]c2=O)c1 (3D coordinates assigned)
Cc1ccc(O)c([N-]S(=O)(=O)c2c(C)[n-]c(=O)[n-]c2=O)c1 (optimized conformer: 36.835892285985324 kcal/mol)

>  <smiles>  (36) 
Cc1ccc(O)c(NS(=O)(=O)c2c(C)[nH]c(=O)[nH]c2=O)c1

>  <score_type>  (36) 
oracle

>  <origin>  (36) 
adgpu

>  <m_score__min__energy>  (36) 
-9.3499999999999996

>  <m_primary>  (36) 
energy

$$$$
36:0
     RDKit          3D

 39 40  0  0  0  0  0  0  0  0999 V2000
   -3.0820   19.6890  -27.0330 C   0  0  0  0  0  0  0  0  0  0  0  0
   -2.2350   20.8040  -27.2880 O   0  0  0  0  0  0  0  0  0  0  0  0
   -2.5750   21.8860  -28.1140 C   0  0  0  0  0  0  0  0  0  0  0  0
   -2.7340   23.1470  -27.5280 C   0  0  0  0  0  0  0  0  0  0  0  0
   -3.0540   24.2570  -28.3110 C   0  0  0  0  0  0  0  0  0  0  0  0
   -3.2350   24.1150  -29.6900 C   0  0  0  0  0  0  0  0  0  0  0  0
   -3.4920   25.2410  -30.4640 O   0  0  0  0  0  0  0  0  0  0  0  0
   -3.1310   22.8500  -30.2860 C   0  0  0  0  0  0  0  0  0  0  0  0
   -3.3670   22.6620  -32.0630 S   0  0  0  0  0  0  0  0  0  0  0  0
   -4.8440   21.6270  -31.9540 C   0  0  0  0  0  0  0  0  0  0  0  0
   -4.6710   20.2420  -32.1080 C   0  0  0  0  0  0  0  0  0  0  0  0
   -5.7690   19.3810  -32.1100 C   0  0  0  0  0  0  0  0  0  0  0  0
   -7.0570   19.8950  -31.9910 C   0  0  0  0  0  0  0  0  0  0  0  0
   -7.2520   21.2720  -31.8700 C   0  0  0  0  0  0  0  0  0  0  0  0
   -6.1560   22.1560  -31.8400 C   0  0  0  0  0  0  0  0  0  0  0  0
   -6.4340   23.6430  -31.7270 C   0  0  0  0  0  0  0  0  0  0  0  0
   -6.0510   24.1950  -30.4040 N   0  0  0  0  0  0  0  0  0  0  0  0
   -6.9470   25.3120  -30.0510 C   0  0  0  0  0  0  0  0  0  0  0  0
   -6.1010   23.1740  -29.3400 C   0  0  0  0  0  0  0  0  0  0  0  0
   -2.7600   21.7460  -29.5030 C   0  0  0  0  0  0  0  0  0  0  0  0
   -3.1878   19.5497  -25.9470 H   0  0  0  0  0  0  0  0  0  0  0  0
   -4.0716   19.8711  -27.4775 H   0  0  0  0  0  0  0  0  0  0  0  0
   -2.6412   18.7845  -27.4775 H   0  0  0  0  0  0  0  0  0  0  0  0
   -2.6057   23.2641  -26.4418 H   0  0  0  0  0  0  0  0  0  0  0  0
   -3.1641   25.2459  -27.8421 H   0  0  0  0  0  0  0  0  0  0  0  0
   -3.6578   19.8309  -32.2285 H   0  0  0  0  0  0  0  0  0  0  0  0
   -5.6167   18.2958  -32.2056 H   0  0  0  0  0  0  0  0  0  0  0  0
   -7.9221   19.2155  -31.9923 H   0  0  0  0  0  0  0  0  0  0  0  0
   -8.2743   21.6715  -31.7972 H   0  0  0  0  0  0  0  0  0  0  0  0
   -5.8634   24.1686  -32.5069 H   0  0  0  0  0  0  0  0  0  0  0  0
   -7.5173   23.7902  -31.8490 H   0  0  0  0  0  0  0  0  0  0  0  0
   -5.0740   24.5620  -30.4530 H   0  0  0  0  0  0  0  0  0  0  0  0
   -7.0144   25.3961  -28.9563 H   0  0  0  0  0  0  0  0  0  0  0  0
   -6.5468   26.2485  -30.4667 H   0  0  0  0  0  0  0  0  0  0  0  0
   -7.9480   25.1245  -30.4667 H   0  0  0  0  0  0  0  0  0  0  0  0
   -6.0768   23.6673  -28.3571 H   0  0  0  0  0  0  0  0  0  0  0  0
   -7.0288   22.5907  -29.4348 H   0  0  0  0  0  0  0  0  0  0  0  0
   -5.2346   22.5029  -29.4348 H   0  0  0  0  0  0  0  0  0  0  0  0
   -2.6127   20.7646  -29.9775 H   0  0  0  0  0  0  0  0  0  0  0  0
  1  2  1  0
  2  3  1  0
  3  4  2  0
  4  5  1  0
  5  6  2  0
  6  7  1  0
  6  8  1  0
  8  9  1  0
  9 10  1  0
 10 11  2  0
 11 12  1  0
 12 13  2  0
 13 14  1  0
 14 15  2  0
 15 16  1  0
 16 17  1  0
 17 18  1  0
 17 19  1  0
  8 20  2  0
 20  3  1  0
 15 10  1  0
  1 21  1  0
  1 22  1  0
  1 23  1  0
  4 24  1  0
  5 25  1  0
 11 26  1  0
 12 27  1  0
 13 28  1  0
 14 29  1  0
 16 30  1  0
 16 31  1  0
 17 32  1  0
 18 33  1  0
 18 34  1  0
 18 35  1  0
 19 36  1  0
 19 37  1  0
 19 38  1  0
 20 39  1  0
M  CHG  2   7  -1  17   1
M  END
>  <UniqueID>  (37) 
37

>  <SMILES>  (37) 
COc1ccc([O-])c(Sc2ccccc2C[NH+](C)C)c1

>  <Energy>  (37) 
38.9453984085446

>  <Genealogy>  (37) 
COc1ccc([O-])c(Sc2ccccc2C[NH+](C)C)c1 (protonated)
COc1ccc([O-])c(Sc2ccccc2C[NH+](C)C)c1 (3D coordinates assigned)
COc1ccc([O-])c(Sc2ccccc2C[NH+](C)C)c1 (optimized conformer: 38.9453984085446 kcal/mol)

>  <smiles>  (37) 
COc1ccc(O)c(Sc2ccccc2CN(C)C)c1

>  <score_type>  (37) 
oracle

>  <origin>  (37) 
adgpu

>  <m_score__min__energy>  (37) 
-9.4700000000000006

>  <m_primary>  (37) 
energy

$$$$
37:0
     RDKit          3D

 54 57  0  0  0  0  0  0  0  0999 V2000
   -2.8510   24.9240  -29.7090 O   0  0  0  0  0  0  0  0  0  0  0  0
   -3.2270   23.9340  -30.3920 C   0  0  0  0  0  0  0  0  0  0  0  0
   -4.4450   24.0400  -31.1420 N   0  0  0  0  0  0  0  0  0  0  0  0
   -5.4070   23.0070  -31.3930 C   0  0  0  0  0  0  0  0  0  0  0  0
   -5.0980   21.6960  -31.0070 C   0  0  0  0  0  0  0  0  0  0  0  0
   -5.9890   20.6530  -31.2670 C   0  0  0  0  0  0  0  0  0  0  0  0
   -7.2140   20.9140  -31.8940 C   0  0  0  0  0  0  0  0  0  0  0  0
   -8.2960   19.5820  -32.2910 S   0  0  0  0  0  0  0  0  0  0  0  0
   -9.4670   20.0930  -33.0850 O   0  0  0  0  0  0  0  0  0  0  0  0
   -8.8090   18.9730  -31.0160 O   0  0  0  0  0  0  0  0  0  0  0  0
   -7.4250   18.3800  -33.2080 N   0  0  0  0  0  0  0  0  0  0  0  0
   -6.8240   17.3880  -32.2980 C   0  0  0  0  0  0  0  0  0  0  0  0
   -5.8110   16.4970  -33.0450 C   0  0  0  0  0  0  0  0  0  0  0  0
   -5.9470   16.6400  -34.4450 O   0  0  0  0  0  0  0  0  0  0  0  0
   -5.6060   17.9620  -34.8270 C   0  0  0  0  0  0  0  0  0  0  0  0
   -6.3830   19.0250  -34.0200 C   0  0  0  0  0  0  0  0  0  0  0  0
   -7.5480   22.2300  -32.2420 C   0  0  0  0  0  0  0  0  0  0  0  0
   -6.6550   23.2730  -31.9820 C   0  0  0  0  0  0  0  0  0  0  0  0
   -2.4030   22.7070  -30.3800 C   0  0  0  0  0  0  0  0  0  0  0  0
   -1.9020   22.2510  -31.6120 C   0  0  0  0  0  0  0  0  0  0  0  0
   -1.1620   21.0700  -31.6860 C   0  0  0  0  0  0  0  0  0  0  0  0
   -0.9030   20.3360  -30.5310 C   0  0  0  0  0  0  0  0  0  0  0  0
   -1.3630   20.7910  -29.2950 C   0  0  0  0  0  0  0  0  0  0  0  0
   -2.0970   21.9840  -29.1950 C   0  0  0  0  0  0  0  0  0  0  0  0
   -2.5420   22.5430  -27.5700 S   0  0  0  0  0  0  0  0  0  0  0  0
   -2.0150   21.5780  -26.5450 O   0  0  0  0  0  0  0  0  0  0  0  0
   -4.0390   22.5820  -27.4570 O   0  0  0  0  0  0  0  0  0  0  0  0
   -1.8480   24.1200  -27.2010 C   0  0  0  0  0  0  0  0  0  0  0  0
   -2.5170   24.9830  -26.3220 C   0  0  0  0  0  0  0  0  0  0  0  0
   -1.9690   26.2320  -26.0110 C   0  0  0  0  0  0  0  0  0  0  0  0
   -0.7550   26.6270  -26.5810 C   0  0  0  0  0  0  0  0  0  0  0  0
   -0.0060   28.3310  -26.1530 Br  0  0  0  0  0  0  0  0  0  0  0  0
   -0.0900   25.7720  -27.4680 C   0  0  0  0  0  0  0  0  0  0  0  0
   -0.6360   24.5230  -27.7800 C   0  0  0  0  0  0  0  0  0  0  0  0
   -4.1468   21.4871  -30.4956 H   0  0  0  0  0  0  0  0  0  0  0  0
   -5.7283   19.6239  -30.9788 H   0  0  0  0  0  0  0  0  0  0  0  0
   -6.3072   17.9146  -31.4822 H   0  0  0  0  0  0  0  0  0  0  0  0
   -7.6247   16.7491  -31.8971 H   0  0  0  0  0  0  0  0  0  0  0  0
   -4.7914   16.7870  -32.7511 H   0  0  0  0  0  0  0  0  0  0  0  0
   -6.0045   15.4473  -32.7793 H   0  0  0  0  0  0  0  0  0  0  0  0
   -4.5286   18.1109  -34.6624 H   0  0  0  0  0  0  0  0  0  0  0  0
   -5.8715   18.0846  -35.8874 H   0  0  0  0  0  0  0  0  0  0  0  0
   -5.6862   19.5611  -33.3589 H   0  0  0  0  0  0  0  0  0  0  0  0
   -6.8559   19.7322  -34.7174 H   0  0  0  0  0  0  0  0  0  0  0  0
   -8.5153   22.4423  -32.7209 H   0  0  0  0  0  0  0  0  0  0  0  0
   -6.9300   24.3065  -32.2394 H   0  0  0  0  0  0  0  0  0  0  0  0
   -2.0952   22.8308  -32.5266 H   0  0  0  0  0  0  0  0  0  0  0  0
   -0.7831   20.7187  -32.6571 H   0  0  0  0  0  0  0  0  0  0  0  0
   -0.3349   19.3961  -30.5934 H   0  0  0  0  0  0  0  0  0  0  0  0
   -1.1480   20.2079  -28.3874 H   0  0  0  0  0  0  0  0  0  0  0  0
   -3.4749   24.6775  -25.8758 H   0  0  0  0  0  0  0  0  0  0  0  0
   -2.4942   26.9045  -25.3168 H   0  0  0  0  0  0  0  0  0  0  0  0
    0.8633   26.0831  -27.9201 H   0  0  0  0  0  0  0  0  0  0  0  0
   -0.1138   23.8553  -28.4810 H   0  0  0  0  0  0  0  0  0  0  0  0
  1  2  2  0
  2  3  1  0
  3  4  1  0
  4  5  2  0
  5  6  1  0
  6  7  2  0
  7  8  1  0
  8  9  2  0
  8 10  2  0
  8 11  1  0
 11 12  1  0
 12 13  1  0
 13 14  1  0
 14 15  1  0
 15 16  1  0
  7 17  1  0
 17 18  2  0
  2 19  1  0
 19 20  2  0
 20 21  1  0
 21 22  2  0
 22 23  1  0
 23 24  2  0
 24 25  1  0
 25 26  2  0
 25 27  2  0
 25 28  1  0
 28 29  2  0
 29 30  1  0
 30 31  2  0
 31 32  1  0
 31 33  1  0
 33 34  2  0
 18  4  1  0
 24 19  1  0
 34 28  1  0
 16 11  1  0
  5 35  1  0
  6 36  1  0
 12 37  1  0
 12 38  1  0
 13 39  1  0
 13 40  1  0
 15 41  1  0
 15 42  1  0
 16 43  1  0
 16 44  1  0
 17 45  1  0
 18 46  1  0
 20 47  1  0
 21 48  1  0
 22 49  1  0
 23 50  1  0
 29 51  1  0
 30 52  1  0
 33 53  1  0
 34 54  1  0
M  CHG  1   3  -1
M  END
>  <UniqueID>  (38) 
38

>  <SMILES>  (38) 
O=C([N-]c1ccc(S(=O)(=O)N2CCOCC2)cc1)c1ccccc1S(=O)(=O)c1ccc(Br)cc1

>  <Energy>  (38) 
76.26345047682598

>  <Genealogy>  (38) 
O=C([N-]c1ccc(S(=O)(=O)N2CCOCC2)cc1)c1ccccc1S(=O)(=O)c1ccc(Br)cc1 (protonated)
O=C([N-]c1ccc(S(=O)(=O)N2CCOCC2)cc1)c1ccccc1S(=O)(=O)c1ccc(Br)cc1 (3D coordinates assigned)
O=C([N-]c1ccc(S(=O)(=O)N2CCOCC2)cc1)c1ccccc1S(=O)(=O)c1ccc(Br)cc1 (nonaromatic ring conformer: 76.26345047682598 kcal/mol)

>  <smiles>  (38) 
O=C(Nc1ccc(S(=O)(=O)N2CCOCC2)cc1)c1ccccc1S(=O)(=O)c1ccc(Br)cc1

>  <score_type>  (38) 
oracle

>  <origin>  (38) 
adgpu

>  <m_score__min__energy>  (38) 
-11.92

>  <m_primary>  (38) 
energy

$$$$
38:0
     RDKit          3D

 44 47  0  0  0  0  0  0  0  0999 V2000
   -0.6950   25.8690  -24.9570 C   0  0  0  0  0  0  0  0  0  0  0  0
   -0.8490   25.5870  -26.4150 C   0  0  0  0  0  0  0  0  0  0  0  0
    0.1410   25.7100  -27.3290 N   0  0  0  0  0  0  0  0  0  0  0  0
   -0.3280   25.3610  -28.5240 N   0  0  0  0  0  0  0  0  0  0  0  0
   -1.6170   25.0140  -28.3620 C   0  0  0  0  0  0  0  0  0  0  0  0
   -2.5090   24.5680  -29.3340 C   0  0  0  0  0  0  0  0  0  0  0  0
   -3.8210   24.2430  -28.9230 C   0  0  0  0  0  0  0  0  0  0  0  0
   -4.9950   23.6330  -30.0830 S   0  0  0  0  0  0  0  0  0  0  0  0
   -4.9900   24.4780  -31.3270 O   0  0  0  0  0  0  0  0  0  0  0  0
   -6.3640   23.6880  -29.4660 O   0  0  0  0  0  0  0  0  0  0  0  0
   -4.6090   21.9840  -30.4850 N   0  0  0  0  0  0  0  0  0  0  0  0
   -3.9360   21.8910  -31.7950 C   0  0  2  0  0  0  0  0  0  0  0  0
   -4.9260   22.0210  -32.9550 C   0  0  0  0  0  0  0  0  0  0  0  0
   -6.1120   21.2790  -32.6900 O   0  0  0  0  0  0  0  0  0  0  0  0
   -6.1760   19.8800  -32.6900 C   0  0  0  0  0  0  0  0  0  0  0  0
   -7.4500   19.3000  -32.6940 C   0  0  0  0  0  0  0  0  0  0  0  0
   -7.6040   17.9140  -32.6910 C   0  0  0  0  0  0  0  0  0  0  0  0
   -6.4820   17.0900  -32.6940 C   0  0  0  0  0  0  0  0  0  0  0  0
   -5.2030   17.6510  -32.7130 C   0  0  0  0  0  0  0  0  0  0  0  0
   -5.0240   19.0500  -32.7230 C   0  0  0  0  0  0  0  0  0  0  0  0
   -3.6900   19.5960  -32.8390 N   0  0  0  0  0  0  0  0  0  0  0  0
   -2.6920   18.9580  -33.7020 C   0  0  0  0  0  0  0  0  0  0  0  0
   -3.2270   20.5780  -31.9070 C   0  0  0  0  0  0  0  0  0  0  0  0
   -2.2080   20.3360  -31.2030 O   0  0  0  0  0  0  0  0  0  0  0  0
   -4.1900   24.3710  -27.5610 C   0  0  0  0  0  0  0  0  0  0  0  0
   -3.2620   24.8270  -26.6060 C   0  0  0  0  0  0  0  0  0  0  0  0
   -1.9820   25.1390  -27.0540 C   0  0  0  0  0  0  0  0  0  0  0  0
   -1.1426   25.0494  -24.3757 H   0  0  0  0  0  0  0  0  0  0  0  0
    0.3738   25.9522  -24.7105 H   0  0  0  0  0  0  0  0  0  0  0  0
   -1.2027   26.8132  -24.7105 H   0  0  0  0  0  0  0  0  0  0  0  0
   -2.2024   24.4720  -30.3860 H   0  0  0  0  0  0  0  0  0  0  0  0
   -5.4950   21.4290  -30.4770 H   0  0  0  0  0  0  0  0  0  0  0  0
   -3.2188   22.7227  -31.8577 H   0  0  0  0  0  0  0  0  0  0  0  0
   -5.1861   23.0812  -33.0907 H   0  0  0  0  0  0  0  0  0  0  0  0
   -4.4565   21.6235  -33.8669 H   0  0  0  0  0  0  0  0  0  0  0  0
   -8.3407   19.9455  -32.6996 H   0  0  0  0  0  0  0  0  0  0  0  0
   -8.6114   17.4722  -32.6863 H   0  0  0  0  0  0  0  0  0  0  0  0
   -6.6027   15.9967  -32.6814 H   0  0  0  0  0  0  0  0  0  0  0  0
   -4.3223   16.9920  -32.7203 H   0  0  0  0  0  0  0  0  0  0  0  0
   -1.9278   18.4694  -33.0797 H   0  0  0  0  0  0  0  0  0  0  0  0
   -3.1833   18.2061  -34.3370 H   0  0  0  0  0  0  0  0  0  0  0  0
   -2.2158   19.7196  -34.3370 H   0  0  0  0  0  0  0  0  0  0  0  0
   -5.2117   24.1115  -27.2469 H   0  0  0  0  0  0  0  0  0  0  0  0
   -3.5379   24.9327  -25.5464 H   0  0  0  0  0  0  0  0  0  0  0  0
  1  2  1  0
  2  3  2  0
  3  4  1  0
  4  5  1  0
  5  6  2  0
  6  7  1  0
  7  8  1  0
  8  9  2  0
  8 10  2  0
  8 11  1  0
 11 12  1  0
 12 13  1  0
 13 14  1  0
 14 15  1  0
 15 16  2  0
 16 17  1  0
 17 18  2  0
 18 19  1  0
 19 20  2  0
 20 21  1  0
 21 22  1  0
 21 23  1  0
 23 24  2  0
  7 25  2  0
 25 26  1  0
 26 27  2  0
 27  2  1  0
 27  5  1  0
 23 12  1  0
 20 15  1  0
  1 28  1  0
  1 29  1  0
  1 30  1  0
  6 31  1  0
 11 32  1  0
 12 33  1  6
 13 34  1  0
 13 35  1  0
 16 36  1  0
 17 37  1  0
 18 38  1  0
 19 39  1  0
 22 40  1  0
 22 41  1  0
 22 42  1  0
 25 43  1  0
 26 44  1  0
M  CHG  1   4  -1
M  END
>  <UniqueID>  (39) 
39

>  <SMILES>  (39) 
Cc1n[n-]c2cc(S(=O)(=O)N[C@@H]3COc4ccccc4N(C)C3=O)ccc12

>  <Energy>  (39) 
101.39962942396585

>  <Genealogy>  (39) 
Cc1n[n-]c2cc(S(=O)(=O)NC3COc4ccccc4N(C)C3=O)ccc12 (protonated)
Cc1n[n-]c2cc(S(=O)(=O)N[C@@H]3COc4ccccc4N(C)C3=O)ccc12 (chirality)
Cc1n[n-]c2cc(S(=O)(=O)N[C@@H]3COc4ccccc4N(C)C3=O)ccc12 (3D coordinates assigned)
Cc1n[n-]c2cc(S(=O)(=O)N[C@@H]3COc4ccccc4N(C)C3=O)ccc12 (nonaromatic ring conformer: 101.39962942396585 kcal/mol)

>  <smiles>  (39) 
Cc1n[nH]c2cc(S(=O)(=O)NC3COc4ccccc4N(C)C3=O)ccc12

>  <score_type>  (39) 
oracle

>  <origin>  (39) 
adgpu

>  <m_score__min__energy>  (39) 
-8.1199999999999992

>  <m_primary>  (39) 
energy

$$$$
39:0
     RDKit          3D

 59 62  0  0  0  0  0  0  0  0999 V2000
   -0.0320   27.3600  -26.0870 C   0  0  0  0  0  0  0  0  0  0  0  0
   -0.9520   26.3020  -26.4890 N   0  0  0  0  0  0  0  0  0  0  0  0
   -0.5430   25.2290  -27.3530 C   0  0  0  0  0  0  0  0  0  0  0  0
    0.6440   25.1930  -27.7820 O   0  0  0  0  0  0  0  0  0  0  0  0
   -1.4990   24.1650  -27.7370 C   0  0  0  0  0  0  0  0  0  0  0  0
   -2.5100   24.4040  -28.6830 C   0  0  0  0  0  0  0  0  0  0  0  0
   -3.3820   23.3560  -29.0290 C   0  0  0  0  0  0  0  0  0  0  0  0
   -4.4500   23.5320  -30.0580 C   0  0  0  0  0  0  0  0  0  0  0  0
   -5.5300   24.4060  -29.8250 C   0  0  0  0  0  0  0  0  0  0  0  0
   -6.4990   24.6170  -30.8060 C   0  0  0  0  0  0  0  0  0  0  0  0
   -6.3850   23.9610  -32.0280 C   0  0  0  0  0  0  0  0  0  0  0  0
   -5.3430   23.1220  -32.2550 N   0  0  0  0  0  0  0  0  0  0  0  0
   -4.3800   22.8870  -31.3170 C   0  0  0  0  0  0  0  0  0  0  0  0
   -3.3300   21.9570  -31.6250 N   0  0  0  0  0  0  0  0  0  0  0  0
   -3.2320   20.7220  -30.8510 C   0  0  0  0  0  0  0  0  0  0  0  0
   -4.0110   19.6150  -31.5710 C   0  0  0  0  0  0  0  0  0  0  0  0
   -3.6880   19.5660  -33.0100 N   0  0  0  0  0  0  0  0  0  0  0  0
   -3.9100   18.3160  -33.7020 C   0  0  0  0  0  0  0  0  0  0  0  0
   -3.3420   17.2720  -33.2760 O   0  0  0  0  0  0  0  0  0  0  0  0
   -4.9500   18.1720  -34.7830 C   0  0  0  0  0  0  0  0  0  0  0  0
   -6.2540   17.9060  -34.2730 O   0  0  0  0  0  0  0  0  0  0  0  0
   -6.9530   18.7200  -33.3650 C   0  0  0  0  0  0  0  0  0  0  0  0
   -6.7920   20.1090  -33.4630 C   0  0  0  0  0  0  0  0  0  0  0  0
   -7.4900   20.9680  -32.6110 C   0  0  0  0  0  0  0  0  0  0  0  0
   -8.3660   20.4490  -31.6540 C   0  0  0  0  0  0  0  0  0  0  0  0
   -9.2630   21.5330  -30.6040 Cl  0  0  0  0  0  0  0  0  0  0  0  0
   -8.5260   19.0630  -31.5380 C   0  0  0  0  0  0  0  0  0  0  0  0
   -7.8180   18.2000  -32.3820 C   0  0  0  0  0  0  0  0  0  0  0  0
   -3.5610   20.8190  -33.7790 C   0  0  0  0  0  0  0  0  0  0  0  0
   -2.8070   21.8940  -32.9880 C   0  0  0  0  0  0  0  0  0  0  0  0
   -3.2230   22.1460  -28.4290 N   0  0  0  0  0  0  0  0  0  0  0  0
   -2.2480   21.9270  -27.5100 C   0  0  0  0  0  0  0  0  0  0  0  0
   -2.1190   20.5940  -26.8530 C   0  0  0  0  0  0  0  0  0  0  0  0
   -1.3970   22.9330  -27.1740 N   0  0  0  0  0  0  0  0  0  0  0  0
    0.0117   27.4103  -24.9890 H   0  0  0  0  0  0  0  0  0  0  0  0
    0.9708   27.1445  -26.4844 H   0  0  0  0  0  0  0  0  0  0  0  0
   -0.3847   28.3232  -26.4844 H   0  0  0  0  0  0  0  0  0  0  0  0
   -1.9310   26.3410  -26.1280 H   0  0  0  0  0  0  0  0  0  0  0  0
   -2.6179   25.3959  -29.1461 H   0  0  0  0  0  0  0  0  0  0  0  0
   -5.6100   24.9273  -28.8597 H   0  0  0  0  0  0  0  0  0  0  0  0
   -7.3443   25.2947  -30.6157 H   0  0  0  0  0  0  0  0  0  0  0  0
   -7.1406   24.1228  -32.8109 H   0  0  0  0  0  0  0  0  0  0  0  0
   -2.1760   20.4285  -30.7580 H   0  0  0  0  0  0  0  0  0  0  0  0
   -3.6541   20.8793  -29.8475 H   0  0  0  0  0  0  0  0  0  0  0  0
   -3.7567   18.6465  -31.1156 H   0  0  0  0  0  0  0  0  0  0  0  0
   -5.0849   19.8298  -31.4683 H   0  0  0  0  0  0  0  0  0  0  0  0
   -4.9846   19.1066  -35.3621 H   0  0  0  0  0  0  0  0  0  0  0  0
   -4.6596   17.3124  -35.4048 H   0  0  0  0  0  0  0  0  0  0  0  0
   -6.1095   20.5264  -34.2180 H   0  0  0  0  0  0  0  0  0  0  0  0
   -7.3497   22.0559  -32.6936 H   0  0  0  0  0  0  0  0  0  0  0  0
   -9.2101   18.6512  -30.7814 H   0  0  0  0  0  0  0  0  0  0  0  0
   -7.9373   17.1115  -32.2775 H   0  0  0  0  0  0  0  0  0  0  0  0
   -3.0139   20.6120  -34.7105 H   0  0  0  0  0  0  0  0  0  0  0  0
   -4.5724   21.1953  -33.9921 H   0  0  0  0  0  0  0  0  0  0  0  0
   -1.7364   21.6431  -32.9581 H   0  0  0  0  0  0  0  0  0  0  0  0
   -2.9430   22.8700  -33.4769 H   0  0  0  0  0  0  0  0  0  0  0  0
   -2.1313   20.7210  -25.7604 H   0  0  0  0  0  0  0  0  0  0  0  0
   -2.9593   19.9525  -27.1570 H   0  0  0  0  0  0  0  0  0  0  0  0
   -1.1713   20.1255  -27.1570 H   0  0  0  0  0  0  0  0  0  0  0  0
  1  2  1  0
  2  3  1  0
  3  4  2  0
  3  5  1  0
  5  6  2  0
  6  7  1  0
  7  8  1  0
  8  9  2  0
  9 10  1  0
 10 11  2  0
 11 12  1  0
 12 13  2  0
 13 14  1  0
 14 15  1  0
 15 16  1  0
 16 17  1  0
 17 18  1  0
 18 19  2  0
 18 20  1  0
 20 21  1  0
 21 22  1  0
 22 23  2  0
 23 24  1  0
 24 25  2  0
 25 26  1  0
 25 27  1  0
 27 28  2  0
 17 29  1  0
 29 30  1  0
  7 31  2  0
 31 32  1  0
 32 33  1  0
 32 34  2  0
 34  5  1  0
 13  8  1  0
 30 14  1  0
 28 22  1  0
  1 35  1  0
  1 36  1  0
  1 37  1  0
  2 38  1  0
  6 39  1  0
  9 40  1  0
 10 41  1  0
 11 42  1  0
 15 43  1  0
 15 44  1  0
 16 45  1  0
 16 46  1  0
 20 47  1  0
 20 48  1  0
 23 49  1  0
 24 50  1  0
 27 51  1  0
 28 52  1  0
 29 53  1  0
 29 54  1  0
 30 55  1  0
 30 56  1  0
 33 57  1  0
 33 58  1  0
 33 59  1  0
M  END
>  <UniqueID>  (40) 
40

>  <SMILES>  (40) 
CNC(=O)c1cc(-c2cccnc2N2CCN(C(=O)COc3ccc(Cl)cc3)CC2)nc(C)n1

>  <Energy>  (40) 
74.24569513003911

>  <Genealogy>  (40) 
CNC(=O)c1cc(-c2cccnc2N2CCN(C(=O)COc3ccc(Cl)cc3)CC2)nc(C)n1 (3D coordinates assigned)
CNC(=O)c1cc(-c2cccnc2N2CCN(C(=O)COc3ccc(Cl)cc3)CC2)nc(C)n1 (nonaromatic ring conformer: 74.24569513003911 kcal/mol)

>  <smiles>  (40) 
CNC(=O)c1cc(-c2cccnc2N2CCN(C(=O)COc3ccc(Cl)cc3)CC2)nc(C)n1

>  <score_type>  (40) 
oracle

>  <origin>  (40) 
adgpu

>  <m_score__min__energy>  (40) 
-9.7599999999999998

>  <m_primary>  (40) 
energy

$$$$
40:0
     RDKit          3D

 54 57  0  0  0  0  0  0  0  0999 V2000
    1.6790   15.4980  -28.8500 C   0  0  0  0  0  0  0  0  0  0  0  0
    2.1820   16.8680  -28.5040 C   0  0  0  0  0  0  0  0  0  0  0  0
    3.4250   17.0790  -28.5420 O   0  0  0  0  0  0  0  0  0  0  0  0
    1.2780   17.9240  -28.1110 N   0  0  0  0  0  0  0  0  0  0  0  0
   -0.1180   17.6090  -27.7650 C   0  0  0  0  0  0  0  0  0  0  0  0
   -0.8380   18.8190  -27.1650 C   0  0  0  0  0  0  0  0  0  0  0  0
   -0.5970   20.0020  -27.9980 N   0  0  0  0  0  0  0  0  0  0  0  0
   -1.7070   20.7310  -28.5540 C   0  0  0  0  0  0  0  0  0  0  0  0
   -2.7150   20.1010  -28.9720 O   0  0  0  0  0  0  0  0  0  0  0  0
   -1.6820   22.2070  -28.6570 C   0  0  0  0  0  0  0  0  0  0  0  0
   -0.7350   22.9490  -27.9320 C   0  0  0  0  0  0  0  0  0  0  0  0
   -0.7010   24.3420  -28.0350 C   0  0  0  0  0  0  0  0  0  0  0  0
   -1.6030   25.0080  -28.8700 C   0  0  0  0  0  0  0  0  0  0  0  0
   -1.5600   26.3940  -28.9680 O   0  0  0  0  0  0  0  0  0  0  0  0
   -2.5440   24.2750  -29.6070 C   0  0  0  0  0  0  0  0  0  0  0  0
   -3.4620   24.9430  -30.4710 N   0  0  0  0  0  0  0  0  0  0  0  0
   -5.1590   24.9080  -30.1480 S   0  0  0  0  0  0  0  0  0  0  0  0
   -5.8060   26.1190  -30.7570 O   0  0  0  0  0  0  0  0  0  0  0  0
   -5.3850   24.9360  -28.6630 O   0  0  0  0  0  0  0  0  0  0  0  0
   -5.8660   23.4600  -30.8590 C   0  0  0  0  0  0  0  0  0  0  0  0
   -7.2080   23.1030  -30.5830 C   0  0  0  0  0  0  0  0  0  0  0  0
   -7.7800   21.9600  -31.1700 C   0  0  0  0  0  0  0  0  0  0  0  0
   -6.9830   21.1920  -32.0220 C   0  0  0  0  0  0  0  0  0  0  0  0
   -5.6780   21.5330  -32.2800 C   0  0  0  0  0  0  0  0  0  0  0  0
   -5.0850   22.6600  -31.7160 C   0  0  0  0  0  0  0  0  0  0  0  0
   -5.1630   20.6020  -33.1580 C   0  0  0  0  0  0  0  0  0  0  0  0
   -6.2130   19.7250  -33.3930 C   0  0  0  0  0  0  0  0  0  0  0  0
   -6.1470   18.6270  -34.2420 O   0  0  0  0  0  0  0  0  0  0  0  0
   -7.3190   20.0720  -32.6930 N   0  0  0  0  0  0  0  0  0  0  0  0
   -8.6250   19.4200  -32.7360 C   0  0  0  0  0  0  0  0  0  0  0  0
   -2.5750   22.8790  -29.5080 C   0  0  0  0  0  0  0  0  0  0  0  0
    0.7720   20.3220  -28.4320 C   0  0  0  0  0  0  0  0  0  0  0  0
    1.7870   19.2910  -27.9200 C   0  0  0  0  0  0  0  0  0  0  0  0
    1.4736   14.9385  -27.9255 H   0  0  0  0  0  0  0  0  0  0  0  0
    0.7541   15.5849  -29.4391 H   0  0  0  0  0  0  0  0  0  0  0  0
    2.4404   14.9658  -29.4391 H   0  0  0  0  0  0  0  0  0  0  0  0
   -0.6487   17.2935  -28.6754 H   0  0  0  0  0  0  0  0  0  0  0  0
   -0.1127   16.8053  -27.0140 H   0  0  0  0  0  0  0  0  0  0  0  0
   -1.9184   18.6167  -27.1213 H   0  0  0  0  0  0  0  0  0  0  0  0
   -0.4550   19.0041  -26.1506 H   0  0  0  0  0  0  0  0  0  0  0  0
   -0.0165   22.4308  -27.2799 H   0  0  0  0  0  0  0  0  0  0  0  0
    0.0379   24.9165  -27.4572 H   0  0  0  0  0  0  0  0  0  0  0  0
   -7.8087   23.7252  -29.9033 H   0  0  0  0  0  0  0  0  0  0  0  0
   -8.8235   21.6794  -30.9643 H   0  0  0  0  0  0  0  0  0  0  0  0
   -4.0379   22.9177  -31.9333 H   0  0  0  0  0  0  0  0  0  0  0  0
   -4.1471   20.5632  -33.5781 H   0  0  0  0  0  0  0  0  0  0  0  0
   -8.9802   19.2427  -31.7102 H   0  0  0  0  0  0  0  0  0  0  0  0
   -9.3404   20.0667  -33.2651 H   0  0  0  0  0  0  0  0  0  0  0  0
   -8.5381   18.4595  -33.2651 H   0  0  0  0  0  0  0  0  0  0  0  0
   -3.3029   22.3049  -30.1001 H   0  0  0  0  0  0  0  0  0  0  0  0
    0.8029   20.3366  -29.5315 H   0  0  0  0  0  0  0  0  0  0  0  0
    1.0421   21.3039  -28.0162 H   0  0  0  0  0  0  0  0  0  0  0  0
    2.7302   19.4063  -28.4742 H   0  0  0  0  0  0  0  0  0  0  0  0
    1.9535   19.4605  -26.8460 H   0  0  0  0  0  0  0  0  0  0  0  0
  1  2  1  0
  2  3  2  0
  2  4  1  0
  4  5  1  0
  5  6  1  0
  6  7  1  0
  7  8  1  0
  8  9  2  0
  8 10  1  0
 10 11  2  0
 11 12  1  0
 12 13  2  0
 13 14  1  0
 13 15  1  0
 15 16  1  0
 16 17  1  0
 17 18  2  0
 17 19  2  0
 17 20  1  0
 20 21  2  0
 21 22  1  0
 22 23  2  0
 23 24  1  0
 24 25  2  0
 24 26  1  0
 26 27  2  0
 27 28  1  0
 27 29  1  0
 29 30  1  0
 15 31  2  0
  7 32  1  0
 32 33  1  0
 33  4  1  0
 31 10  1  0
 25 20  1  0
 29 23  1  0
  1 34  1  0
  1 35  1  0
  1 36  1  0
  5 37  1  0
  5 38  1  0
  6 39  1  0
  6 40  1  0
 11 41  1  0
 12 42  1  0
 21 43  1  0
 22 44  1  0
 25 45  1  0
 26 46  1  0
 30 47  1  0
 30 48  1  0
 30 49  1  0
 31 50  1  0
 32 51  1  0
 32 52  1  0
 33 53  1  0
 33 54  1  0
M  CHG  3  14  -1  16  -1  28  -1
M  END
>  <UniqueID>  (41) 
41

>  <SMILES>  (41) 
CC(=O)N1CCN(C(=O)c2ccc([O-])c([N-]S(=O)(=O)c3ccc4c(c3)cc([O-])n4C)c2)CC1

>  <Energy>  (41) 
100.82850123966942

>  <Genealogy>  (41) 
CC(=O)N1CCN(C(=O)c2ccc([O-])c([N-]S(=O)(=O)c3ccc4c(c3)cc([O-])n4C)c2)CC1 (protonated)
CC(=O)N1CCN(C(=O)c2ccc([O-])c([N-]S(=O)(=O)c3ccc4c(c3)cc([O-])n4C)c2)CC1 (3D coordinates assigned)
CC(=O)N1CCN(C(=O)c2ccc([O-])c([N-]S(=O)(=O)c3ccc4c(c3)cc([O-])n4C)c2)CC1 (nonaromatic ring conformer: 100.82850123966942 kcal/mol)

>  <smiles>  (41) 
CC(=O)N1CCN(C(=O)c2ccc(O)c(NS(=O)(=O)c3ccc4c(c3)cc(O)n4C)c2)CC1

>  <score_type>  (41) 
oracle

>  <origin>  (41) 
adgpu

>  <m_score__min__energy>  (41) 
-14.380000000000001

>  <m_primary>  (41) 
energy

$$$$
41:0
     RDKit          3D

 54 57  0  0  0  0  0  0  0  0999 V2000
   -1.8190   21.6060  -33.8260 O   0  0  0  0  0  0  0  0  0  0  0  0
   -2.6110   20.9000  -33.1480 C   0  0  0  0  0  0  0  0  0  0  0  0
   -2.1900   19.5870  -32.7550 N   0  0  0  0  0  0  0  0  0  0  0  0
   -2.4060   18.3690  -33.4810 C   0  0  0  0  0  0  0  0  0  0  0  0
   -1.5580   17.9720  -34.5290 C   0  0  0  0  0  0  0  0  0  0  0  0
   -1.7840   16.7640  -35.1950 C   0  0  0  0  0  0  0  0  0  0  0  0
   -2.8440   15.9380  -34.8120 C   0  0  0  0  0  0  0  0  0  0  0  0
   -3.6850   16.3190  -33.7570 C   0  0  0  0  0  0  0  0  0  0  0  0
   -5.0100   15.2820  -33.2330 S   0  0  0  0  0  0  0  0  0  0  0  0
   -4.5760   14.4330  -32.0700 O   0  0  0  0  0  0  0  0  0  0  0  0
   -5.4040   14.3840  -34.3730 O   0  0  0  0  0  0  0  0  0  0  0  0
   -6.3660   16.2840  -32.7800 N   0  0  0  0  0  0  0  0  0  0  0  0
   -6.6300   17.3060  -33.7910 C   0  0  0  0  0  0  0  0  0  0  0  0
   -7.3170   18.4530  -33.0690 C   0  0  0  0  0  0  0  0  0  0  0  0
   -6.9490   18.2820  -31.6020 C   0  0  0  0  0  0  0  0  0  0  0  0
   -6.1030   17.0180  -31.5440 C   0  0  0  0  0  0  0  0  0  0  0  0
   -3.4550   17.5280  -33.0880 C   0  0  0  0  0  0  0  0  0  0  0  0
   -3.9140   21.4720  -32.7290 C   0  0  0  0  0  0  0  0  0  0  0  0
   -5.1180   20.7950  -32.9920 C   0  0  0  0  0  0  0  0  0  0  0  0
   -6.3340   21.3230  -32.5550 C   0  0  0  0  0  0  0  0  0  0  0  0
   -6.3630   22.5210  -31.8380 C   0  0  0  0  0  0  0  0  0  0  0  0
   -5.1730   23.2050  -31.5610 C   0  0  0  0  0  0  0  0  0  0  0  0
   -5.2080   24.6750  -30.5880 S   0  0  0  0  0  0  0  0  0  0  0  0
   -5.9470   24.3990  -29.3100 O   0  0  0  0  0  0  0  0  0  0  0  0
   -5.9280   25.7810  -31.3110 O   0  0  0  0  0  0  0  0  0  0  0  0
   -3.5840   25.1480  -30.2030 N   0  0  0  0  0  0  0  0  0  0  0  0
   -2.7260   24.4830  -29.2650 C   0  0  0  0  0  0  0  0  0  0  0  0
   -3.0270   23.2050  -28.7580 C   0  0  0  0  0  0  0  0  0  0  0  0
   -2.1830   22.5990  -27.8230 C   0  0  0  0  0  0  0  0  0  0  0  0
   -1.0300   23.2610  -27.3900 C   0  0  0  0  0  0  0  0  0  0  0  0
   -0.7100   24.5190  -27.9040 C   0  0  0  0  0  0  0  0  0  0  0  0
   -1.5520   25.1310  -28.8400 C   0  0  0  0  0  0  0  0  0  0  0  0
   -1.2270   26.3860  -29.3380 O   0  0  0  0  0  0  0  0  0  0  0  0
   -3.9540   22.6810  -32.0130 C   0  0  0  0  0  0  0  0  0  0  0  0
   -0.7148   18.6131  -34.8257 H   0  0  0  0  0  0  0  0  0  0  0  0
   -1.1255   16.4627  -36.0230 H   0  0  0  0  0  0  0  0  0  0  0  0
   -3.0187   14.9882  -35.3386 H   0  0  0  0  0  0  0  0  0  0  0  0
   -5.6867   17.6495  -34.2406 H   0  0  0  0  0  0  0  0  0  0  0  0
   -7.2581   16.9117  -34.6034 H   0  0  0  0  0  0  0  0  0  0  0  0
   -6.9530   19.4196  -33.4474 H   0  0  0  0  0  0  0  0  0  0  0  0
   -8.4061   18.4407  -33.2227 H   0  0  0  0  0  0  0  0  0  0  0  0
   -6.3720   19.1483  -31.2461 H   0  0  0  0  0  0  0  0  0  0  0  0
   -7.8405   18.2082  -30.9618 H   0  0  0  0  0  0  0  0  0  0  0  0
   -5.0363   17.2778  -31.4762 H   0  0  0  0  0  0  0  0  0  0  0  0
   -6.3543   16.4120  -30.6610 H   0  0  0  0  0  0  0  0  0  0  0  0
   -4.1028   17.8191  -32.2480 H   0  0  0  0  0  0  0  0  0  0  0  0
   -5.1015   19.8443  -33.5450 H   0  0  0  0  0  0  0  0  0  0  0  0
   -7.2726   20.7937  -32.7761 H   0  0  0  0  0  0  0  0  0  0  0  0
   -7.3235   22.9285  -31.4898 H   0  0  0  0  0  0  0  0  0  0  0  0
   -3.9314   22.6802  -29.0994 H   0  0  0  0  0  0  0  0  0  0  0  0
   -2.4258   21.6015  -27.4279 H   0  0  0  0  0  0  0  0  0  0  0  0
   -0.3740   22.7899  -26.6432 H   0  0  0  0  0  0  0  0  0  0  0  0
    0.2058   25.0304  -27.5727 H   0  0  0  0  0  0  0  0  0  0  0  0
   -3.0188   23.2216  -31.8052 H   0  0  0  0  0  0  0  0  0  0  0  0
  1  2  2  0
  2  3  1  0
  3  4  1  0
  4  5  2  0
  5  6  1  0
  6  7  2  0
  7  8  1  0
  8  9  1  0
  9 10  2  0
  9 11  2  0
  9 12  1  0
 12 13  1  0
 13 14  1  0
 14 15  1  0
 15 16  1  0
  8 17  2  0
  2 18  1  0
 18 19  2  0
 19 20  1  0
 20 21  2  0
 21 22  1  0
 22 23  1  0
 23 24  2  0
 23 25  2  0
 23 26  1  0
 26 27  1  0
 27 28  2  0
 28 29  1  0
 29 30  2  0
 30 31  1  0
 31 32  2  0
 32 33  1  0
 22 34  2  0
 17  4  1  0
 34 18  1  0
 16 12  1  0
 32 27  1  0
  5 35  1  0
  6 36  1  0
  7 37  1  0
 13 38  1  0
 13 39  1  0
 14 40  1  0
 14 41  1  0
 15 42  1  0
 15 43  1  0
 16 44  1  0
 16 45  1  0
 17 46  1  0
 19 47  1  0
 20 48  1  0
 21 49  1  0
 28 50  1  0
 29 51  1  0
 30 52  1  0
 31 53  1  0
 34 54  1  0
M  CHG  3   3  -1  26  -1  33  -1
M  END
>  <UniqueID>  (42) 
42

>  <SMILES>  (42) 
O=C([N-]c1cccc(S(=O)(=O)N2CCCC2)c1)c1cccc(S(=O)(=O)[N-]c2ccccc2[O-])c1

>  <Energy>  (42) 
70.36262672200066

>  <Genealogy>  (42) 
O=C([N-]c1cccc(S(=O)(=O)N2CCCC2)c1)c1cccc(S(=O)(=O)[N-]c2ccccc2[O-])c1 (protonated)
O=C([N-]c1cccc(S(=O)(=O)N2CCCC2)c1)c1cccc(S(=O)(=O)[N-]c2ccccc2[O-])c1 (3D coordinates assigned)
O=C([N-]c1cccc(S(=O)(=O)N2CCCC2)c1)c1cccc(S(=O)(=O)[N-]c2ccccc2[O-])c1 (nonaromatic ring conformer: 70.36262672200066 kcal/mol)

>  <smiles>  (42) 
O=C(Nc1cccc(S(=O)(=O)N2CCCC2)c1)c1cccc(S(=O)(=O)Nc2ccccc2O)c1

>  <score_type>  (42) 
oracle

>  <origin>  (42) 
adgpu

>  <m_score__min__energy>  (42) 
-14.99

>  <m_primary>  (42) 
energy

$$$$
42:0
     RDKit          3D

 50 53  0  0  0  0  0  0  0  0999 V2000
   -5.0080   18.9900  -34.2040 C   0  0  0  0  0  0  0  0  0  0  0  0
   -6.2790   19.0680  -33.4040 C   0  0  0  0  0  0  0  0  0  0  0  0
   -6.7590   20.3170  -32.9740 C   0  0  0  0  0  0  0  0  0  0  0  0
   -7.9350   20.4050  -32.2160 C   0  0  0  0  0  0  0  0  0  0  0  0
   -8.5050   21.9760  -31.6600 S   0  0  0  0  0  0  0  0  0  0  0  0
   -8.7500   21.9580  -30.1770 O   0  0  0  0  0  0  0  0  0  0  0  0
   -9.7910   22.3000  -32.3650 O   0  0  0  0  0  0  0  0  0  0  0  0
   -7.3280   23.1990  -32.0230 N   0  0  0  0  0  0  0  0  0  0  0  0
   -6.2060   23.5080  -31.1770 C   0  0  0  0  0  0  0  0  0  0  0  0
   -6.3610   24.4600  -30.1560 C   0  0  0  0  0  0  0  0  0  0  0  0
   -5.2900   24.7960  -29.3240 C   0  0  0  0  0  0  0  0  0  0  0  0
   -4.0450   24.1780  -29.4990 C   0  0  0  0  0  0  0  0  0  0  0  0
   -2.9530   24.4980  -28.6820 C   0  0  0  0  0  0  0  0  0  0  0  0
   -1.7230   23.8510  -28.8690 C   0  0  0  0  0  0  0  0  0  0  0  0
   -0.5630   24.2010  -28.0250 C   0  0  0  0  0  0  0  0  0  0  0  0
    0.5120   24.5490  -28.5850 O   0  0  0  0  0  0  0  0  0  0  0  0
   -0.6340   24.1590  -26.5880 N   0  0  0  0  0  0  0  0  0  0  0  0
   -0.9320   25.3200  -25.7610 C   0  0  0  0  0  0  0  0  0  0  0  0
   -0.8150   24.8450  -24.3190 C   0  0  0  0  0  0  0  0  0  0  0  0
   -0.0270   23.5320  -24.3780 C   0  0  1  0  0  0  0  0  0  0  0  0
   -0.4850   22.5930  -23.4380 O   0  0  0  0  0  0  0  0  0  0  0  0
   -0.1560   23.0250  -25.8160 C   0  0  0  0  0  0  0  0  0  0  0  0
   -1.6040   22.9130  -29.9050 C   0  0  0  0  0  0  0  0  0  0  0  0
   -2.6730   22.6160  -30.6910 N   0  0  0  0  0  0  0  0  0  0  0  0
   -3.8810   23.2140  -30.5140 C   0  0  0  0  0  0  0  0  0  0  0  0
   -4.9570   22.8790  -31.3430 C   0  0  0  0  0  0  0  0  0  0  0  0
   -8.6440   19.2410  -31.8980 C   0  0  0  0  0  0  0  0  0  0  0  0
   -8.1760   17.9970  -32.3230 C   0  0  0  0  0  0  0  0  0  0  0  0
   -6.9970   17.9010  -33.0720 C   0  0  0  0  0  0  0  0  0  0  0  0
   -6.4470   16.3070  -33.5780 Cl  0  0  0  0  0  0  0  0  0  0  0  0
   -4.1474   18.9372  -33.5209 H   0  0  0  0  0  0  0  0  0  0  0  0
   -5.0285   18.0914  -34.8381 H   0  0  0  0  0  0  0  0  0  0  0  0
   -4.9184   19.8843  -34.8381 H   0  0  0  0  0  0  0  0  0  0  0  0
   -6.2077   21.2326  -33.2342 H   0  0  0  0  0  0  0  0  0  0  0  0
   -7.4010   23.6610  -32.9580 H   0  0  0  0  0  0  0  0  0  0  0  0
   -7.3366   24.9466  -30.0098 H   0  0  0  0  0  0  0  0  0  0  0  0
   -5.4245   25.5463  -28.5310 H   0  0  0  0  0  0  0  0  0  0  0  0
   -3.0604   25.2572  -27.8933 H   0  0  0  0  0  0  0  0  0  0  0  0
   -0.2099   26.1260  -25.9583 H   0  0  0  0  0  0  0  0  0  0  0  0
   -1.9335   25.7220  -25.9743 H   0  0  0  0  0  0  0  0  0  0  0  0
   -0.2768   25.5885  -23.7127 H   0  0  0  0  0  0  0  0  0  0  0  0
   -1.8030   24.7053  -23.8560 H   0  0  0  0  0  0  0  0  0  0  0  0
    1.0281   23.6948  -24.1128 H   0  0  0  0  0  0  0  0  0  0  0  0
   -0.1300   22.8530  -22.5470 H   0  0  0  0  0  0  0  0  0  0  0  0
    0.8206   22.6877  -26.1934 H   0  0  0  0  0  0  0  0  0  0  0  0
   -0.8411   22.1672  -25.8855 H   0  0  0  0  0  0  0  0  0  0  0  0
   -0.6397   22.4145  -30.0827 H   0  0  0  0  0  0  0  0  0  0  0  0
   -4.8267   22.1202  -32.1287 H   0  0  0  0  0  0  0  0  0  0  0  0
   -9.5724   19.3069  -31.3117 H   0  0  0  0  0  0  0  0  0  0  0  0
   -8.7370   17.0859  -32.0679 H   0  0  0  0  0  0  0  0  0  0  0  0
  1  2  1  0
  2  3  2  0
  3  4  1  0
  4  5  1  0
  5  6  2  0
  5  7  2  0
  5  8  1  0
  8  9  1  0
  9 10  2  0
 10 11  1  0
 11 12  2  0
 12 13  1  0
 13 14  2  0
 14 15  1  0
 15 16  2  0
 15 17  1  0
 17 18  1  0
 18 19  1  0
 19 20  1  0
 20 21  1  0
 20 22  1  0
 14 23  1  0
 23 24  2  0
 24 25  1  0
 25 26  2  0
  4 27  2  0
 27 28  1  0
 28 29  2  0
 29 30  1  0
 29  2  1  0
 26  9  1  0
 25 12  1  0
 22 17  1  0
  1 31  1  0
  1 32  1  0
  1 33  1  0
  3 34  1  0
  8 35  1  0
 10 36  1  0
 11 37  1  0
 13 38  1  0
 18 39  1  0
 18 40  1  0
 19 41  1  0
 19 42  1  0
 20 43  1  1
 21 44  1  0
 22 45  1  0
 22 46  1  0
 23 47  1  0
 26 48  1  0
 27 49  1  0
 28 50  1  0
M  END
>  <UniqueID>  (43) 
43

>  <SMILES>  (43) 
Cc1cc(S(=O)(=O)Nc2ccc3cc(C(=O)N4CC[C@@H](O)C4)cnc3c2)ccc1Cl

>  <Energy>  (43) 
65.83418275485192

>  <Genealogy>  (43) 
Cc1cc(S(=O)(=O)Nc2ccc3cc(C(=O)N4CC[C@@H](O)C4)cnc3c2)ccc1Cl (chirality)
Cc1cc(S(=O)(=O)Nc2ccc3cc(C(=O)N4CC[C@@H](O)C4)cnc3c2)ccc1Cl (3D coordinates assigned)
Cc1cc(S(=O)(=O)Nc2ccc3cc(C(=O)N4CC[C@@H](O)C4)cnc3c2)ccc1Cl (nonaromatic ring conformer: 65.83418275485192 kcal/mol)

>  <smiles>  (43) 
Cc1cc(S(=O)(=O)Nc2ccc3cc(C(=O)N4CCC(O)C4)cnc3c2)ccc1Cl

>  <score_type>  (43) 
oracle

>  <origin>  (43) 
adgpu

>  <m_score__min__energy>  (43) 
-11.039999999999999

>  <m_primary>  (43) 
energy

$$$$
43:0
     RDKit          3D

 57 60  0  0  0  0  0  0  0  0999 V2000
   -3.8240   24.1860  -28.0470 C   0  0  0  0  0  0  0  0  0  0  0  0
   -2.8210   24.5440  -29.1590 C   0  0  0  0  0  0  0  0  0  0  0  0
   -1.6460   25.3590  -28.5850 C   0  0  0  0  0  0  0  0  0  0  0  0
   -2.2750   23.2500  -29.7790 C   0  0  0  0  0  0  0  0  0  0  0  0
   -3.4910   25.3000  -30.2230 N   0  0  0  0  0  0  0  0  0  0  0  0
   -4.8170   25.0910  -30.7330 C   0  0  0  0  0  0  0  0  0  0  0  0
   -5.6250   26.0580  -30.7900 O   0  0  0  0  0  0  0  0  0  0  0  0
   -5.2530   23.7400  -31.1900 C   0  0  0  0  0  0  0  0  0  0  0  0
   -4.4200   23.0040  -32.0470 C   0  0  0  0  0  0  0  0  0  0  0  0
   -4.7650   21.7600  -32.5010 N   0  0  0  0  0  0  0  0  0  0  0  0
   -3.7950   21.0580  -33.3720 C   0  0  0  0  0  0  0  0  0  0  0  0
   -2.4840   20.8280  -32.6590 C   0  0  0  0  0  0  0  0  0  0  0  0
   -1.2750   21.2160  -33.2620 C   0  0  0  0  0  0  0  0  0  0  0  0
   -0.0600   21.0210  -32.5970 C   0  0  0  0  0  0  0  0  0  0  0  0
   -0.0420   20.4460  -31.3240 C   0  0  0  0  0  0  0  0  0  0  0  0
   -1.2400   20.0730  -30.7090 C   0  0  0  0  0  0  0  0  0  0  0  0
   -2.4570   20.2710  -31.3680 C   0  0  0  0  0  0  0  0  0  0  0  0
   -5.9640   21.1870  -32.1240 C   0  0  0  0  0  0  0  0  0  0  0  0
   -6.3550   19.9040  -32.5760 C   0  0  0  0  0  0  0  0  0  0  0  0
   -7.5520   19.3240  -32.1470 C   0  0  0  0  0  0  0  0  0  0  0  0
   -7.9930   17.6730  -32.6900 S   0  0  0  0  0  0  0  0  0  0  0  0
   -6.3410   17.3410  -33.3040 C   0  0  0  0  0  0  0  0  0  0  0  0
   -5.3810   16.7630  -32.4630 C   0  0  0  0  0  0  0  0  0  0  0  0
   -4.0880   16.5220  -32.9390 C   0  0  0  0  0  0  0  0  0  0  0  0
   -3.7540   16.8550  -34.2560 C   0  0  0  0  0  0  0  0  0  0  0  0
   -4.7130   17.4260  -35.0980 C   0  0  0  0  0  0  0  0  0  0  0  0
   -6.0050   17.6690  -34.6230 C   0  0  0  0  0  0  0  0  0  0  0  0
   -8.3930   20.0190  -31.2820 C   0  0  0  0  0  0  0  0  0  0  0  0
   -8.0440   21.2910  -30.8380 C   0  0  0  0  0  0  0  0  0  0  0  0
   -6.8340   21.8870  -31.2460 C   0  0  0  0  0  0  0  0  0  0  0  0
   -6.4710   23.1640  -30.7850 C   0  0  0  0  0  0  0  0  0  0  0  0
   -7.2390   23.7860  -29.9990 O   0  0  0  0  0  0  0  0  0  0  0  0
   -3.3574   24.3525  -27.0649 H   0  0  0  0  0  0  0  0  0  0  0  0
   -4.7175   24.8207  -28.1409 H   0  0  0  0  0  0  0  0  0  0  0  0
   -4.1136   23.1290  -28.1409 H   0  0  0  0  0  0  0  0  0  0  0  0
   -1.6838   25.3327  -27.4860 H   0  0  0  0  0  0  0  0  0  0  0  0
   -0.6958   24.9250  -28.9296 H   0  0  0  0  0  0  0  0  0  0  0  0
   -1.7196   26.4010  -28.9296 H   0  0  0  0  0  0  0  0  0  0  0  0
   -1.9818   22.5551  -28.9783 H   0  0  0  0  0  0  0  0  0  0  0  0
   -3.0535   22.7847  -30.4015 H   0  0  0  0  0  0  0  0  0  0  0  0
   -1.3985   23.4830  -30.4015 H   0  0  0  0  0  0  0  0  0  0  0  0
   -3.4610   23.4403  -32.3632 H   0  0  0  0  0  0  0  0  0  0  0  0
   -4.2171   20.0864  -33.6682 H   0  0  0  0  0  0  0  0  0  0  0  0
   -3.6045   21.6850  -34.2555 H   0  0  0  0  0  0  0  0  0  0  0  0
   -1.2844   21.6751  -34.2616 H   0  0  0  0  0  0  0  0  0  0  0  0
    0.8830   21.3210  -33.0773 H   0  0  0  0  0  0  0  0  0  0  0  0
    0.9152   20.2869  -30.8058 H   0  0  0  0  0  0  0  0  0  0  0  0
   -1.2255   19.6231  -29.7053 H   0  0  0  0  0  0  0  0  0  0  0  0
   -3.3986   19.9895  -30.8739 H   0  0  0  0  0  0  0  0  0  0  0  0
   -5.7071   19.3552  -33.2753 H   0  0  0  0  0  0  0  0  0  0  0  0
   -5.6442   16.4987  -31.4282 H   0  0  0  0  0  0  0  0  0  0  0  0
   -3.3337   16.0706  -32.2777 H   0  0  0  0  0  0  0  0  0  0  0  0
   -2.7364   16.6675  -34.6293 H   0  0  0  0  0  0  0  0  0  0  0  0
   -4.4507   17.6841  -36.1346 H   0  0  0  0  0  0  0  0  0  0  0  0
   -6.7587   18.1185  -35.2863 H   0  0  0  0  0  0  0  0  0  0  0  0
   -9.3361   19.5614  -30.9485 H   0  0  0  0  0  0  0  0  0  0  0  0
   -8.7191   21.8363  -30.1621 H   0  0  0  0  0  0  0  0  0  0  0  0
  1  2  1  0
  2  3  1  0
  2  4  1  0
  2  5  1  0
  5  6  1  0
  6  7  2  0
  6  8  1  0
  8  9  2  0
  9 10  1  0
 10 11  1  0
 11 12  1  0
 12 13  2  0
 13 14  1  0
 14 15  2  0
 15 16  1  0
 16 17  2  0
 10 18  1  0
 18 19  2  0
 19 20  1  0
 20 21  1  0
 21 22  1  0
 22 23  2  0
 23 24  1  0
 24 25  2  0
 25 26  1  0
 26 27  2  0
 20 28  2  0
 28 29  1  0
 29 30  2  0
 30 31  1  0
 31 32  2  0
 31  8  1  0
 17 12  1  0
 30 18  1  0
 27 22  1  0
  1 33  1  0
  1 34  1  0
  1 35  1  0
  3 36  1  0
  3 37  1  0
  3 38  1  0
  4 39  1  0
  4 40  1  0
  4 41  1  0
  9 42  1  0
 11 43  1  0
 11 44  1  0
 13 45  1  0
 14 46  1  0
 15 47  1  0
 16 48  1  0
 17 49  1  0
 19 50  1  0
 23 51  1  0
 24 52  1  0
 25 53  1  0
 26 54  1  0
 27 55  1  0
 28 56  1  0
 29 57  1  0
M  CHG  1   5  -1
M  END
>  <UniqueID>  (44) 
44

>  <SMILES>  (44) 
CC(C)(C)[N-]C(=O)c1cn(Cc2ccccc2)c2cc(Sc3ccccc3)ccc2c1=O

>  <Energy>  (44) 
60.84100247753636

>  <Genealogy>  (44) 
CC(C)(C)[N-]C(=O)c1cn(Cc2ccccc2)c2cc(Sc3ccccc3)ccc2c1=O (protonated)
CC(C)(C)[N-]C(=O)c1cn(Cc2ccccc2)c2cc(Sc3ccccc3)ccc2c1=O (3D coordinates assigned)
CC(C)(C)[N-]C(=O)c1cn(Cc2ccccc2)c2cc(Sc3ccccc3)ccc2c1=O (optimized conformer: 60.84100247753636 kcal/mol)

>  <smiles>  (44) 
CC(C)(C)NC(=O)c1cn(Cc2ccccc2)c2cc(Sc3ccccc3)ccc2c1=O

>  <score_type>  (44) 
oracle

>  <origin>  (44) 
adgpu

>  <m_score__min__energy>  (44) 
-12.119999999999999

>  <m_primary>  (44) 
energy

$$$$
44:0
     RDKit          3D

 58 61  0  0  0  0  0  0  0  0999 V2000
   -6.1730   25.8730  -29.4530 N   0  0  0  0  0  0  0  0  0  0  0  0
   -5.8880   24.6540  -30.1510 C   0  0  0  0  0  0  0  0  0  0  0  0
   -6.9410   23.7940  -30.4950 C   0  0  0  0  0  0  0  0  0  0  0  0
   -6.6880   22.6040  -31.1830 C   0  0  0  0  0  0  0  0  0  0  0  0
   -5.3770   22.2560  -31.5260 C   0  0  0  0  0  0  0  0  0  0  0  0
   -5.0340   20.7560  -32.3820 S   0  0  0  0  0  0  0  0  0  0  0  0
   -4.7020   19.6980  -31.3690 O   0  0  0  0  0  0  0  0  0  0  0  0
   -3.8500   20.9390  -33.2920 O   0  0  0  0  0  0  0  0  0  0  0  0
   -6.4410   20.2760  -33.3070 N   0  0  0  0  0  0  0  0  0  0  0  0
   -6.1170   19.1480  -34.1860 C   0  0  0  0  0  0  0  0  0  0  0  0
   -6.4670   17.8590  -33.4530 C   0  0  0  0  0  0  0  0  0  0  0  0
   -7.3440   18.2780  -32.2880 C   0  0  0  0  0  0  0  0  0  0  0  0
   -7.4980   19.7860  -32.4170 C   0  0  0  0  0  0  0  0  0  0  0  0
   -4.3220   23.1030  -31.1760 C   0  0  0  0  0  0  0  0  0  0  0  0
   -4.5670   24.3170  -30.5100 C   0  0  0  0  0  0  0  0  0  0  0  0
   -3.4860   25.1940  -30.1570 N   0  0  0  0  0  0  0  0  0  0  0  0
   -2.4610   24.9190  -29.1920 C   0  0  0  0  0  0  0  0  0  0  0  0
   -1.9410   25.8830  -28.5680 O   0  0  0  0  0  0  0  0  0  0  0  0
   -1.9720   23.5440  -28.9430 C   0  0  0  0  0  0  0  0  0  0  0  0
   -2.8390   22.5690  -28.4230 C   0  0  0  0  0  0  0  0  0  0  0  0
   -2.3900   21.2620  -28.2130 C   0  0  0  0  0  0  0  0  0  0  0  0
   -1.0640   20.9170  -28.5000 C   0  0  0  0  0  0  0  0  0  0  0  0
   -0.5170   19.2610  -28.2520 S   0  0  0  0  0  0  0  0  0  0  0  0
    0.7710   19.2570  -27.4740 O   0  0  0  0  0  0  0  0  0  0  0  0
   -1.5580   18.5220  -27.4600 O   0  0  0  0  0  0  0  0  0  0  0  0
   -0.2830   18.4810  -29.7990 N   0  0  0  0  0  0  0  0  0  0  0  0
    1.1500   18.1890  -30.0020 C   0  0  0  0  0  0  0  0  0  0  0  0
    1.4680   18.0360  -31.4990 C   0  0  0  0  0  0  0  0  0  0  0  0
    1.1870   19.1990  -32.2700 O   0  0  0  0  0  0  0  0  0  0  0  0
    0.2060   20.0480  -31.6920 C   0  0  0  0  0  0  0  0  0  0  0  0
   -0.8690   19.2830  -30.8970 C   0  0  0  0  0  0  0  0  0  0  0  0
   -0.1900   21.8900  -29.0020 C   0  0  0  0  0  0  0  0  0  0  0  0
   -0.6390   23.1960  -29.2200 C   0  0  0  0  0  0  0  0  0  0  0  0
   -7.1450   26.2420  -29.3710 H   0  0  0  0  0  0  0  0  0  0  0  0
   -5.4050   26.4230  -29.0070 H   0  0  0  0  0  0  0  0  0  0  0  0
   -7.9733   24.0579  -30.2214 H   0  0  0  0  0  0  0  0  0  0  0  0
   -7.5213   21.9397  -31.4554 H   0  0  0  0  0  0  0  0  0  0  0  0
   -6.7023   19.2192  -35.1146 H   0  0  0  0  0  0  0  0  0  0  0  0
   -5.0476   19.1611  -34.4432 H   0  0  0  0  0  0  0  0  0  0  0  0
   -7.0137   17.1749  -34.1187 H   0  0  0  0  0  0  0  0  0  0  0  0
   -5.5665   17.3260  -33.1138 H   0  0  0  0  0  0  0  0  0  0  0  0
   -8.3253   17.7848  -32.3487 H   0  0  0  0  0  0  0  0  0  0  0  0
   -6.9019   17.9941  -31.3216 H   0  0  0  0  0  0  0  0  0  0  0  0
   -8.4841   20.0253  -32.8417 H   0  0  0  0  0  0  0  0  0  0  0  0
   -7.4173   20.2637  -31.4294 H   0  0  0  0  0  0  0  0  0  0  0  0
   -3.2892   22.8171  -31.4241 H   0  0  0  0  0  0  0  0  0  0  0  0
   -3.8780   22.8356  -28.1794 H   0  0  0  0  0  0  0  0  0  0  0  0
   -3.0813   20.5016  -27.8207 H   0  0  0  0  0  0  0  0  0  0  0  0
    1.7485   19.0140  -29.5884 H   0  0  0  0  0  0  0  0  0  0  0  0
    1.3942   17.2461  -29.4909 H   0  0  0  0  0  0  0  0  0  0  0  0
    2.5375   17.8011  -31.6037 H   0  0  0  0  0  0  0  0  0  0  0  0
    0.8201   17.2342  -31.8828 H   0  0  0  0  0  0  0  0  0  0  0  0
    0.7094   20.7508  -31.0118 H   0  0  0  0  0  0  0  0  0  0  0  0
   -0.3052   20.5649  -32.5176 H   0  0  0  0  0  0  0  0  0  0  0  0
   -1.5765   20.0081  -30.4683 H   0  0  0  0  0  0  0  0  0  0  0  0
   -1.3751   18.5930  -31.5882 H   0  0  0  0  0  0  0  0  0  0  0  0
    0.8540   21.6253  -29.2256 H   0  0  0  0  0  0  0  0  0  0  0  0
    0.0548   23.9551  -29.6104 H   0  0  0  0  0  0  0  0  0  0  0  0
  1  2  1  0
  2  3  2  0
  3  4  1  0
  4  5  2  0
  5  6  1  0
  6  7  2  0
  6  8  2  0
  6  9  1  0
  9 10  1  0
 10 11  1  0
 11 12  1  0
 12 13  1  0
  5 14  1  0
 14 15  2  0
 15 16  1  0
 16 17  1  0
 17 18  2  0
 17 19  1  0
 19 20  2  0
 20 21  1  0
 21 22  2  0
 22 23  1  0
 23 24  2  0
 23 25  2  0
 23 26  1  0
 26 27  1  0
 27 28  1  0
 28 29  1  0
 29 30  1  0
 30 31  1  0
 22 32  1  0
 32 33  2  0
 15  2  1  0
 33 19  1  0
 13  9  1  0
 31 26  1  0
  1 34  1  0
  1 35  1  0
  3 36  1  0
  4 37  1  0
 10 38  1  0
 10 39  1  0
 11 40  1  0
 11 41  1  0
 12 42  1  0
 12 43  1  0
 13 44  1  0
 13 45  1  0
 14 46  1  0
 20 47  1  0
 21 48  1  0
 27 49  1  0
 27 50  1  0
 28 51  1  0
 28 52  1  0
 30 53  1  0
 30 54  1  0
 31 55  1  0
 31 56  1  0
 32 57  1  0
 33 58  1  0
M  CHG  1  16  -1
M  END
>  <UniqueID>  (45) 
45

>  <SMILES>  (45) 
Nc1ccc(S(=O)(=O)N2CCCC2)cc1[N-]C(=O)c1ccc(S(=O)(=O)N2CCOCC2)cc1

>  <Energy>  (45) 
78.5824191804527

>  <Genealogy>  (45) 
Nc1ccc(S(=O)(=O)N2CCCC2)cc1[N-]C(=O)c1ccc(S(=O)(=O)N2CCOCC2)cc1 (protonated)
Nc1ccc(S(=O)(=O)N2CCCC2)cc1[N-]C(=O)c1ccc(S(=O)(=O)N2CCOCC2)cc1 (3D coordinates assigned)
Nc1ccc(S(=O)(=O)N2CCCC2)cc1[N-]C(=O)c1ccc(S(=O)(=O)N2CCOCC2)cc1 (nonaromatic ring conformer: 78.5824191804527 kcal/mol)

>  <smiles>  (45) 
Nc1ccc(S(=O)(=O)N2CCCC2)cc1NC(=O)c1ccc(S(=O)(=O)N2CCOCC2)cc1

>  <score_type>  (45) 
oracle

>  <origin>  (45) 
adgpu

>  <m_score__min__energy>  (45) 
-11.9

>  <m_primary>  (45) 
energy

$$$$
45:0
     RDKit          3D

 36 38  0  0  0  0  0  0  0  0999 V2000
   -1.8160   24.2420  -29.3340 C   0  0  0  0  0  0  0  0  0  0  0  0
   -3.1480   24.1550  -30.0040 C   0  0  0  0  0  0  0  0  0  0  0  0
   -3.8490   25.1970  -30.3880 O   0  0  0  0  0  0  0  0  0  0  0  0
   -4.9790   24.8340  -30.9220 N   0  0  0  0  0  0  0  0  0  0  0  0
   -5.0190   23.4870  -30.8950 C   0  0  0  0  0  0  0  0  0  0  0  0
   -6.1630   22.7050  -31.3910 C   0  0  0  0  0  0  0  0  0  0  0  0
   -5.9400   21.5540  -32.1630 C   0  0  0  0  0  0  0  0  0  0  0  0
   -7.0220   20.8090  -32.6450 C   0  0  0  0  0  0  0  0  0  0  0  0
   -8.3300   21.1990  -32.3460 C   0  0  0  0  0  0  0  0  0  0  0  0
   -8.5580   22.3300  -31.5580 C   0  0  0  0  0  0  0  0  0  0  0  0
   -7.4800   23.0770  -31.0740 C   0  0  0  0  0  0  0  0  0  0  0  0
   -3.8610   23.0080  -30.3000 C   0  0  0  0  0  0  0  0  0  0  0  0
   -3.5120   21.5900  -29.9210 C   0  0  0  0  0  0  0  0  0  0  0  0
   -2.3090   21.1290  -30.6380 N   0  0  0  0  0  0  0  0  0  0  0  0
   -1.3200   20.4890  -29.9400 C   0  0  0  0  0  0  0  0  0  0  0  0
   -0.1540   20.0660  -30.5770 C   0  0  0  0  0  0  0  0  0  0  0  0
   -0.0030   20.2810  -31.9430 C   0  0  0  0  0  0  0  0  0  0  0  0
   -1.0200   20.9070  -32.6670 C   0  0  0  0  0  0  0  0  0  0  0  0
   -0.8650   21.1140  -34.0770 N   0  0  0  0  0  0  0  0  0  0  0  0
   -2.1840   21.3230  -31.9940 C   0  0  0  0  0  0  0  0  0  0  0  0
   -3.1120   21.8770  -32.6450 O   0  0  0  0  0  0  0  0  0  0  0  0
   -1.9532   24.2330  -28.2426 H   0  0  0  0  0  0  0  0  0  0  0  0
   -1.1983   23.3823  -29.6330 H   0  0  0  0  0  0  0  0  0  0  0  0
   -1.3154   25.1748  -29.6330 H   0  0  0  0  0  0  0  0  0  0  0  0
   -4.9115   21.2367  -32.3898 H   0  0  0  0  0  0  0  0  0  0  0  0
   -6.8426   19.9150  -33.2602 H   0  0  0  0  0  0  0  0  0  0  0  0
   -9.1797   20.6159  -32.7308 H   0  0  0  0  0  0  0  0  0  0  0  0
   -9.5878   22.6333  -31.3180 H   0  0  0  0  0  0  0  0  0  0  0  0
   -7.6637   23.9590  -30.4428 H   0  0  0  0  0  0  0  0  0  0  0  0
   -3.3246   21.5435  -28.8381 H   0  0  0  0  0  0  0  0  0  0  0  0
   -4.3539   20.9378  -30.1964 H   0  0  0  0  0  0  0  0  0  0  0  0
   -1.4470   20.3062  -28.8628 H   0  0  0  0  0  0  0  0  0  0  0  0
    0.6405   19.5660  -30.0036 H   0  0  0  0  0  0  0  0  0  0  0  0
    0.9168   19.9582  -32.4526 H   0  0  0  0  0  0  0  0  0  0  0  0
   -1.6140   21.5700  -34.6450 H   0  0  0  0  0  0  0  0  0  0  0  0
    0.0080   20.8150  -34.5660 H   0  0  0  0  0  0  0  0  0  0  0  0
  1  2  1  0
  2  3  1  0
  3  4  1  0
  4  5  2  0
  5  6  1  0
  6  7  2  0
  7  8  1  0
  8  9  2  0
  9 10  1  0
 10 11  2  0
  5 12  1  0
 12 13  1  0
 13 14  1  0
 14 15  1  0
 15 16  2  0
 16 17  1  0
 17 18  2  0
 18 19  1  0
 18 20  1  0
 20 21  2  0
 12  2  2  0
 20 14  1  0
 11  6  1  0
  1 22  1  0
  1 23  1  0
  1 24  1  0
  7 25  1  0
  8 26  1  0
  9 27  1  0
 10 28  1  0
 11 29  1  0
 13 30  1  0
 13 31  1  0
 15 32  1  0
 16 33  1  0
 17 34  1  0
 19 35  1  0
 19 36  1  0
M  END
>  <UniqueID>  (46) 
46

>  <SMILES>  (46) 
Cc1onc(-c2ccccc2)c1Cn1cccc(N)c1=O

>  <Energy>  (46) 
73.35639579054848

>  <Genealogy>  (46) 
Cc1onc(-c2ccccc2)c1Cn1cccc(N)c1=O (3D coordinates assigned)
Cc1onc(-c2ccccc2)c1Cn1cccc(N)c1=O (optimized conformer: 73.35639579054848 kcal/mol)

>  <smiles>  (46) 
Cc1onc(-c2ccccc2)c1Cn1cccc(N)c1=O

>  <score_type>  (46) 
oracle

>  <origin>  (46) 
adgpu

>  <m_score__min__energy>  (46) 
-8.5899999999999999

>  <m_primary>  (46) 
energy

$$$$
46:0
     RDKit          3D

 66 69  0  0  1  0  0  0  0  0999 V2000
   -6.8720   19.1760  -33.4470 C   0  0  0  0  0  0  0  0  0  0  0  0
   -6.2470   20.4020  -32.8640 C   0  0  0  0  0  0  0  0  0  0  0  0
   -7.0080   21.3820  -32.2480 C   0  0  0  0  0  0  0  0  0  0  0  0
   -6.4160   22.5150  -31.7110 C   0  0  0  0  0  0  0  0  0  0  0  0
   -7.2110   23.5860  -31.0440 C   0  0  0  0  0  0  0  0  0  0  0  0
   -5.0380   22.6310  -31.8120 C   0  0  0  0  0  0  0  0  0  0  0  0
   -4.3460   23.7610  -31.2890 N   0  0  0  0  0  0  0  0  0  0  0  0
   -3.6680   23.6760  -30.1930 C   0  0  0  0  0  0  0  0  0  0  0  0
   -3.5860   22.5230  -29.4970 N   0  0  0  0  0  0  0  0  0  0  0  0
   -2.8950   22.3930  -28.3570 C   0  0  0  0  0  0  0  0  0  0  0  0
   -2.7910   21.2310  -27.6210 O   0  0  0  0  0  0  0  0  0  0  0  0
   -1.8470   20.2570  -27.7240 C   0  0  0  0  0  0  0  0  0  0  0  0
   -0.7480   20.2790  -28.5520 C   0  0  0  0  0  0  0  0  0  0  0  0
   -0.5330   21.4460  -29.4400 C   0  0  0  0  0  0  0  0  0  0  0  0
    0.1800   19.2600  -28.6170 C   0  0  0  0  0  0  0  0  0  0  0  0
    0.0370   18.1410  -27.8240 C   0  0  0  0  0  0  0  0  0  0  0  0
    0.9580   17.0440  -27.8350 C   0  0  0  0  0  0  0  0  0  0  0  0
    1.7200   16.1660  -27.8350 N   0  0  0  0  0  0  0  0  0  0  0  0
   -1.0540   18.0880  -26.9840 C   0  0  0  0  0  0  0  0  0  0  0  0
   -1.9910   19.1270  -26.9260 C   0  0  0  0  0  0  0  0  0  0  0  0
   -3.1380   18.9930  -25.9940 C   0  0  0  0  0  0  0  0  0  0  0  0
   -2.2420   23.5310  -27.8990 C   0  0  0  0  0  0  0  0  0  0  0  0
   -2.3190   24.7130  -28.6030 C   0  0  0  0  0  0  0  0  0  0  0  0
   -1.7390   25.7610  -28.2150 N   0  0  0  0  0  0  0  0  0  0  0  0
   -0.9600   25.8310  -27.0360 C   0  0  0  0  0  0  0  0  0  0  0  0
   -0.4790   27.2590  -27.1390 C   0  0  0  0  0  0  0  0  0  0  0  0
   -0.1110   28.3880  -27.2050 N   0  0  0  0  0  0  0  0  0  0  0  0
    0.3720   25.1300  -27.0460 C   0  0  0  0  0  0  0  0  0  0  0  0
    1.1700   25.8180  -25.9240 C   0  0  0  0  0  0  0  0  0  0  0  0
    0.4470   25.9120  -24.7630 O   0  0  0  0  0  0  0  0  0  0  0  0
   -0.7110   25.1220  -24.7320 C   0  0  0  0  0  0  0  0  0  0  0  0
   -1.6640   25.8130  -25.7190 C   0  0  0  0  0  0  0  0  0  0  0  0
   -3.0390   24.7830  -29.7570 N   0  0  0  0  0  0  0  0  0  0  0  0
   -4.2690   21.6490  -32.4300 C   0  0  0  0  0  0  0  0  0  0  0  0
   -2.7930   21.7530  -32.5480 C   0  0  0  0  0  0  0  0  0  0  0  0
   -4.8750   20.5130  -32.9660 C   0  0  0  0  0  0  0  0  0  0  0  0
   -7.2091   18.5148  -32.6351 H   0  0  0  0  0  0  0  0  0  0  0  0
   -7.7336   19.4633  -34.0675 H   0  0  0  0  0  0  0  0  0  0  0  0
   -6.1333   18.6475  -34.0675 H   0  0  0  0  0  0  0  0  0  0  0  0
   -8.0993   21.2594  -32.1839 H   0  0  0  0  0  0  0  0  0  0  0  0
   -7.1300   23.4769  -29.9524 H   0  0  0  0  0  0  0  0  0  0  0  0
   -6.8235   24.5709  -31.3438 H   0  0  0  0  0  0  0  0  0  0  0  0
   -8.2659   23.5002  -31.3438 H   0  0  0  0  0  0  0  0  0  0  0  0
   -4.0990   21.7110  -29.8960 H   0  0  0  0  0  0  0  0  0  0  0  0
   -0.3672   22.3458  -28.8293 H   0  0  0  0  0  0  0  0  0  0  0  0
    0.3472   21.2664  -30.0749 H   0  0  0  0  0  0  0  0  0  0  0  0
   -1.4194   21.5919  -30.0749 H   0  0  0  0  0  0  0  0  0  0  0  0
    1.0360   19.3405  -29.3031 H   0  0  0  0  0  0  0  0  0  0  0  0
   -1.1926   17.2058  -26.3417 H   0  0  0  0  0  0  0  0  0  0  0  0
   -2.7745   19.0355  -24.9567 H   0  0  0  0  0  0  0  0  0  0  0  0
   -3.8491   19.8142  -26.1672 H   0  0  0  0  0  0  0  0  0  0  0  0
   -3.6407   18.0300  -26.1672 H   0  0  0  0  0  0  0  0  0  0  0  0
   -1.6591   23.4878  -26.9672 H   0  0  0  0  0  0  0  0  0  0  0  0
    0.2497   24.0572  -26.8362 H   0  0  0  0  0  0  0  0  0  0  0  0
    0.8752   25.1960  -28.0219 H   0  0  0  0  0  0  0  0  0  0  0  0
    2.0821   25.2352  -25.7282 H   0  0  0  0  0  0  0  0  0  0  0  0
    1.4133   26.8380  -26.2563 H   0  0  0  0  0  0  0  0  0  0  0  0
   -0.4911   24.0942  -25.0565 H   0  0  0  0  0  0  0  0  0  0  0  0
   -1.1379   25.0389  -23.7216 H   0  0  0  0  0  0  0  0  0  0  0  0
   -2.6054   25.2495  -25.7977 H   0  0  0  0  0  0  0  0  0  0  0  0
   -1.9167   26.8305  -25.3860 H   0  0  0  0  0  0  0  0  0  0  0  0
   -3.1040   25.6730  -30.2990 H   0  0  0  0  0  0  0  0  0  0  0  0
   -2.3462   21.7845  -31.5433 H   0  0  0  0  0  0  0  0  0  0  0  0
   -2.4064   20.8799  -33.0941 H   0  0  0  0  0  0  0  0  0  0  0  0
   -2.5326   22.6717  -33.0941 H   0  0  0  0  0  0  0  0  0  0  0  0
   -4.2778   19.7294  -33.4551 H   0  0  0  0  0  0  0  0  0  0  0  0
  1  2  1  0
  2  3  2  0
  3  4  1  0
  4  5  1  0
  4  6  2  0
  6  7  1  0
  7  8  2  0
  8  9  1  0
  9 10  1  0
 10 11  1  0
 11 12  1  0
 12 13  2  0
 13 14  1  0
 13 15  1  0
 15 16  2  0
 16 17  1  0
 17 18  3  0
 16 19  1  0
 19 20  2  0
 20 21  1  0
 10 22  2  0
 22 23  1  0
 23 24  2  0
 24 25  1  0
 25 26  1  0
 26 27  3  0
 25 28  1  0
 28 29  1  0
 29 30  1  0
 30 31  1  0
 31 32  1  0
 23 33  1  0
  6 34  1  0
 34 35  1  0
 34 36  2  0
 36  2  1  0
 33  8  1  0
 20 12  1  0
 32 25  1  0
  1 37  1  0
  1 38  1  0
  1 39  1  0
  3 40  1  0
  5 41  1  0
  5 42  1  0
  5 43  1  0
  9 44  1  0
 14 45  1  0
 14 46  1  0
 14 47  1  0
 15 48  1  0
 19 49  1  0
 21 50  1  0
 21 51  1  0
 21 52  1  0
 22 53  1  0
 28 54  1  0
 28 55  1  0
 29 56  1  0
 29 57  1  0
 31 58  1  0
 31 59  1  0
 32 60  1  0
 32 61  1  0
 33 62  1  0
 35 63  1  0
 35 64  1  0
 35 65  1  0
 36 66  1  0
M  END
>  <smiles>  (47) 
Cc1cc(C)c(N=c2[nH]c(Oc3c(C)cc(C#N)cc3C)cc(=NC3(C#N)CCOCC3)[nH]2)c(C)c1

>  <score_type>  (47) 
oracle

>  <origin>  (47) 
adgpu

>  <m_score__min__energy>  (47) 
-11.970000000000001

>  <m_primary>  (47) 
energy

$$$$
47:0
     RDKit          3D

 39 41  0  0  0  0  0  0  0  0999 V2000
   -9.3590   20.1180  -32.3600 C   0  0  0  0  0  0  0  0  0  0  0  0
   -8.9800   21.4070  -31.8920 O   0  0  0  0  0  0  0  0  0  0  0  0
   -7.6990   21.7320  -31.4170 C   0  0  0  0  0  0  0  0  0  0  0  0
   -6.5280   21.1850  -31.9710 C   0  0  0  0  0  0  0  0  0  0  0  0
   -5.2750   21.5410  -31.4620 C   0  0  0  0  0  0  0  0  0  0  0  0
   -5.1650   22.4560  -30.4000 C   0  0  0  0  0  0  0  0  0  0  0  0
   -3.8230   22.8110  -29.8760 C   0  0  0  0  0  0  0  0  0  0  0  0
   -3.3620   24.1380  -29.8490 C   0  0  0  0  0  0  0  0  0  0  0  0
   -2.0930   24.4070  -29.3380 C   0  0  0  0  0  0  0  0  0  0  0  0
   -1.6180   25.7120  -29.3380 O   0  0  0  0  0  0  0  0  0  0  0  0
   -1.3100   23.3590  -28.8440 C   0  0  0  0  0  0  0  0  0  0  0  0
    0.3290   23.6770  -28.1620 S   0  0  0  0  0  0  0  0  0  0  0  0
   -0.2830   24.6800  -26.7920 C   0  0  0  0  0  0  0  0  0  0  0  0
   -0.3790   26.0660  -26.9780 C   0  0  0  0  0  0  0  0  0  0  0  0
   -0.8620   26.8890  -25.9580 C   0  0  0  0  0  0  0  0  0  0  0  0
   -1.2440   26.3340  -24.7370 C   0  0  0  0  0  0  0  0  0  0  0  0
   -1.1280   24.9590  -24.5260 C   0  0  0  0  0  0  0  0  0  0  0  0
   -0.6270   24.1190  -25.5360 C   0  0  0  0  0  0  0  0  0  0  0  0
   -0.5150   22.6470  -25.2520 C   0  0  0  0  0  0  0  0  0  0  0  0
   -1.8130   22.0530  -28.9400 C   0  0  0  0  0  0  0  0  0  0  0  0
   -1.1140   21.0720  -28.5740 O   0  0  0  0  0  0  0  0  0  0  0  0
   -3.0270   21.8350  -29.4360 O   0  0  0  0  0  0  0  0  0  0  0  0
   -6.3430   22.9920  -29.8430 C   0  0  0  0  0  0  0  0  0  0  0  0
   -7.5940   22.6320  -30.3520 C   0  0  0  0  0  0  0  0  0  0  0  0
   -9.5529   19.4585  -31.5012 H   0  0  0  0  0  0  0  0  0  0  0  0
  -10.2702   20.2028  -32.9703 H   0  0  0  0  0  0  0  0  0  0  0  0
   -8.5469   19.6961  -32.9703 H   0  0  0  0  0  0  0  0  0  0  0  0
   -6.5978   20.4745  -32.8078 H   0  0  0  0  0  0  0  0  0  0  0  0
   -4.3658   21.1005  -31.8971 H   0  0  0  0  0  0  0  0  0  0  0  0
   -3.9947   24.9548  -30.2265 H   0  0  0  0  0  0  0  0  0  0  0  0
   -0.0711   26.5097  -27.9363 H   0  0  0  0  0  0  0  0  0  0  0  0
   -0.9410   27.9745  -26.1178 H   0  0  0  0  0  0  0  0  0  0  0  0
   -1.6373   26.9808  -23.9389 H   0  0  0  0  0  0  0  0  0  0  0  0
   -1.4315   24.5286  -23.5603 H   0  0  0  0  0  0  0  0  0  0  0  0
   -0.5025   22.4833  -24.1643 H   0  0  0  0  0  0  0  0  0  0  0  0
   -1.3758   22.1222  -25.6919 H   0  0  0  0  0  0  0  0  0  0  0  0
    0.4153   22.2584  -25.6919 H   0  0  0  0  0  0  0  0  0  0  0  0
   -6.2777   23.6983  -29.0022 H   0  0  0  0  0  0  0  0  0  0  0  0
   -8.5054   23.0611  -29.9102 H   0  0  0  0  0  0  0  0  0  0  0  0
  1  2  1  0
  2  3  1  0
  3  4  2  0
  4  5  1  0
  5  6  2  0
  6  7  1  0
  7  8  2  0
  8  9  1  0
  9 10  1  0
  9 11  2  0
 11 12  1  0
 12 13  1  0
 13 14  2  0
 14 15  1  0
 15 16  2  0
 16 17  1  0
 17 18  2  0
 18 19  1  0
 11 20  1  0
 20 21  2  0
 20 22  1  0
  6 23  1  0
 23 24  2  0
 24  3  1  0
 22  7  1  0
 18 13  1  0
  1 25  1  0
  1 26  1  0
  1 27  1  0
  4 28  1  0
  5 29  1  0
  8 30  1  0
 14 31  1  0
 15 32  1  0
 16 33  1  0
 17 34  1  0
 19 35  1  0
 19 36  1  0
 19 37  1  0
 23 38  1  0
 24 39  1  0
M  CHG  1  10  -1
M  END
>  <UniqueID>  (48) 
47

>  <SMILES>  (48) 
COc1ccc(-c2cc([O-])c(Sc3ccccc3C)c(=O)o2)cc1

>  <Energy>  (48) 
44.585121375740954

>  <Genealogy>  (48) 
COc1ccc(-c2cc([O-])c(Sc3ccccc3C)c(=O)o2)cc1 (protonated)
COc1ccc(-c2cc([O-])c(Sc3ccccc3C)c(=O)o2)cc1 (3D coordinates assigned)
COc1ccc(-c2cc([O-])c(Sc3ccccc3C)c(=O)o2)cc1 (optimized conformer: 44.585121375740954 kcal/mol)

>  <smiles>  (48) 
COc1ccc(-c2cc(O)c(Sc3ccccc3C)c(=O)o2)cc1

>  <score_type>  (48) 
oracle

>  <origin>  (48) 
adgpu

>  <m_score__min__energy>  (48) 
-9.5600000000000005

>  <m_primary>  (48) 
energy

$$$$
48:0
     RDKit          3D

 29 30  0  0  0  0  0  0  0  0999 V2000
   -2.0550   20.8178  -32.9708 H   0  0  0  0  0  0  0  0  0  0  0  0
   -2.4430   21.5010  -32.2010 C   0  0  0  0  0  0  0  0  0  0  0  0
   -3.4906   21.8343  -32.2390 H   0  0  0  0  0  0  0  0  0  0  0  0
   -1.6420   21.9260  -31.2200 C   0  0  0  0  0  0  0  0  0  0  0  0
   -0.5965   21.5850  -31.1938 H   0  0  0  0  0  0  0  0  0  0  0  0
   -2.1370   22.8590  -30.1520 C   0  0  0  0  0  0  0  0  0  0  0  0
   -1.8457   22.4683  -29.1658 H   0  0  0  0  0  0  0  0  0  0  0  0
   -1.6920   23.8523  -30.3113 H   0  0  0  0  0  0  0  0  0  0  0  0
   -3.5920   22.9760  -30.2130 N   0  0  0  0  0  0  0  0  0  0  0  0
   -4.1660   22.1380  -29.9650 H   0  0  0  0  0  0  0  0  0  0  0  0
   -4.2500   24.2090  -30.5460 C   0  0  0  0  0  0  0  0  0  0  0  0
   -3.6180   25.2960  -30.4680 O   0  0  0  0  0  0  0  0  0  0  0  0
   -5.6340   24.2380  -30.9180 N   0  0  0  0  0  0  0  0  0  0  0  0
   -6.3540   23.2030  -31.2370 C   0  0  0  0  0  0  0  0  0  0  0  0
   -5.8640   21.9430  -31.3480 N   0  0  0  0  0  0  0  0  0  0  0  0
   -6.8400   21.0830  -31.7350 C   0  0  0  0  0  0  0  0  0  0  0  0
   -6.6520   19.7150  -31.9300 C   0  0  0  0  0  0  0  0  0  0  0  0
   -5.6662   19.2567  -31.7620 H   0  0  0  0  0  0  0  0  0  0  0  0
   -7.7460   18.9290  -32.3460 C   0  0  0  0  0  0  0  0  0  0  0  0
   -7.5830   17.4490  -32.5250 C   0  0  0  0  0  0  0  0  0  0  0  0
   -7.5296   16.9641  -31.5391 H   0  0  0  0  0  0  0  0  0  0  0  0
   -8.4427   17.0503  -33.0836 H   0  0  0  0  0  0  0  0  0  0  0  0
   -6.6572   17.2470  -33.0836 H   0  0  0  0  0  0  0  0  0  0  0  0
   -9.0150   19.5280  -32.5320 C   0  0  0  0  0  0  0  0  0  0  0  0
   -9.8717   18.9081  -32.8349 H   0  0  0  0  0  0  0  0  0  0  0  0
   -9.1890   20.9070  -32.3330 C   0  0  0  0  0  0  0  0  0  0  0  0
  -10.1698   21.3811  -32.4859 H   0  0  0  0  0  0  0  0  0  0  0  0
   -8.0860   21.6570  -31.9370 C   0  0  0  0  0  0  0  0  0  0  0  0
   -7.9960   23.3050  -31.6280 S   0  0  0  0  0  0  0  0  0  0  0  0
  1  2  1  0
  2  3  1  0
  2  4  2  0
  4  5  1  0
  4  6  1  0
  6  7  1  0
  6  8  1  0
  6  9  1  0
  9 10  1  0
  9 11  1  0
 11 12  2  0
 11 13  1  0
 13 14  2  0
 14 15  1  0
 15 16  1  0
 16 17  2  0
 17 18  1  0
 17 19  1  0
 19 20  1  0
 20 21  1  0
 20 22  1  0
 20 23  1  0
 19 24  2  0
 24 25  1  0
 24 26  1  0
 26 27  1  0
 26 28  2  0
 28 29  1  0
 29 14  1  0
 28 16  1  0
M  CHG  1  15  -1
M  END
>  <UniqueID>  (49) 
48

>  <SMILES>  (49) 
C=CCNC(=O)/N=c1\[n-]c2cc(C)ccc2s1

>  <Energy>  (49) 
61.54170387529554

>  <Genealogy>  (49) 
C=CCNC(=O)N=c1[n-]c2cc(C)ccc2s1 (protonated)
C=CCNC(=O)/N=c1\[n-]c2cc(C)ccc2s1 (cis-trans isomerization)
C=CCNC(=O)/N=c1\[n-]c2cc(C)ccc2s1 (3D coordinates assigned)
C=CCNC(=O)/N=c1\[n-]c2cc(C)ccc2s1 (optimized conformer: 61.54170387529554 kcal/mol)

>  <smiles>  (49) 
C=CCNC(=O)N=c1[nH]c2cc(C)ccc2s1

>  <score_type>  (49) 
oracle

>  <origin>  (49) 
adgpu

>  <m_score__min__energy>  (49) 
-8.0099999999999998

>  <m_primary>  (49) 
energy

$$$$
