0:0
     RDKit          3D

 45 48  0  0  0  0  0  0  0  0999 V2000
   -5.2470   18.5330  -34.2120 C   0  0  0  0  0  0  0  0  0  0  0  0
   -5.7150   19.6410  -32.9010 S   0  0  0  0  0  0  0  0  0  0  0  0
   -6.3890   18.8460  -31.8190 O   0  0  0  0  0  0  0  0  0  0  0  0
   -6.6770   20.6700  -33.4240 O   0  0  0  0  0  0  0  0  0  0  0  0
   -4.2850   20.4490  -32.2670 C   0  0  0  0  0  0  0  0  0  0  0  0
   -3.4290   21.1320  -33.1400 C   0  0  0  0  0  0  0  0  0  0  0  0
   -2.2850   21.7660  -32.6490 C   0  0  0  0  0  0  0  0  0  0  0  0
   -1.9980   21.7370  -31.2820 C   0  0  0  0  0  0  0  0  0  0  0  0
   -2.8670   21.0870  -30.3890 C   0  0  0  0  0  0  0  0  0  0  0  0
   -2.5690   21.0770  -28.9070 C   0  0  0  0  0  0  0  0  0  0  0  0
   -3.2040   22.1840  -28.1560 N   0  0  0  0  0  0  0  0  0  0  0  0
   -2.3340   23.3500  -27.8540 C   0  0  0  0  0  0  0  0  0  0  0  0
   -2.2580   24.4000  -28.9880 C   0  0  0  0  0  0  0  0  0  0  0  0
   -3.5400   24.4870  -29.7460 C   0  0  0  0  0  0  0  0  0  0  0  0
   -3.7860   25.3140  -30.7770 N   0  0  0  0  0  0  0  0  0  0  0  0
   -4.9830   25.0140  -31.2630 N   0  0  0  0  0  0  0  0  0  0  0  0
   -5.5050   23.9940  -30.5470 C   0  0  0  0  0  0  0  0  0  0  0  0
   -6.8170   23.3800  -30.8500 C   0  0  0  0  0  0  0  0  0  0  0  0
   -7.5010   23.7450  -32.0200 C   0  0  0  0  0  0  0  0  0  0  0  0
   -8.7380   23.1640  -32.3090 C   0  0  0  0  0  0  0  0  0  0  0  0
   -9.2850   22.2640  -31.4530 N   0  0  0  0  0  0  0  0  0  0  0  0
   -8.6580   21.9040  -30.3030 C   0  0  0  0  0  0  0  0  0  0  0  0
   -7.4180   22.4590  -29.9760 C   0  0  0  0  0  0  0  0  0  0  0  0
   -4.5860   23.6270  -29.5770 C   0  0  0  0  0  0  0  0  0  0  0  0
   -4.5850   22.5260  -28.5630 C   0  0  0  0  0  0  0  0  0  0  0  0
   -3.9940   20.4170  -30.8960 C   0  0  0  0  0  0  0  0  0  0  0  0
   -4.8532   17.6007  -33.7811 H   0  0  0  0  0  0  0  0  0  0  0  0
   -6.1266   18.3072  -34.8327 H   0  0  0  0  0  0  0  0  0  0  0  0
   -4.4719   19.0061  -34.8327 H   0  0  0  0  0  0  0  0  0  0  0  0
   -3.6580   21.1694  -34.2152 H   0  0  0  0  0  0  0  0  0  0  0  0
   -1.6084   22.2894  -33.3406 H   0  0  0  0  0  0  0  0  0  0  0  0
   -1.0879   22.2250  -30.9030 H   0  0  0  0  0  0  0  0  0  0  0  0
   -2.9279   20.1250  -28.4887 H   0  0  0  0  0  0  0  0  0  0  0  0
   -1.4815   21.2040  -28.8009 H   0  0  0  0  0  0  0  0  0  0  0  0
   -2.7227   23.8451  -26.9519 H   0  0  0  0  0  0  0  0  0  0  0  0
   -1.3155   22.9563  -27.7212 H   0  0  0  0  0  0  0  0  0  0  0  0
   -2.0361   25.3838  -28.5487 H   0  0  0  0  0  0  0  0  0  0  0  0
   -1.4663   24.0930  -29.6872 H   0  0  0  0  0  0  0  0  0  0  0  0
   -7.0648   24.4855  -32.7065 H   0  0  0  0  0  0  0  0  0  0  0  0
   -9.2700   23.4365  -33.2324 H   0  0  0  0  0  0  0  0  0  0  0  0
   -9.1276   21.1738  -29.6275 H   0  0  0  0  0  0  0  0  0  0  0  0
   -6.9152   22.1763  -29.0394 H   0  0  0  0  0  0  0  0  0  0  0  0
   -5.1512   22.8512  -27.6778 H   0  0  0  0  0  0  0  0  0  0  0  0
   -5.0501   21.6354  -29.0109 H   0  0  0  0  0  0  0  0  0  0  0  0
   -4.6530   19.8630  -30.2113 H   0  0  0  0  0  0  0  0  0  0  0  0
  1  2  1  0
  2  3  2  0
  2  4  2  0
  2  5  1  0
  5  6  2  0
  6  7  1  0
  7  8  2  0
  8  9  1  0
  9 10  1  0
 10 11  1  0
 11 12  1  0
 12 13  1  0
 13 14  1  0
 14 15  1  0
 15 16  1  0
 16 17  2  0
 17 18  1  0
 18 19  2  0
 19 20  1  0
 20 21  2  0
 21 22  1  0
 22 23  2  0
 17 24  1  0
 24 25  1  0
  9 26  2  0
 26  5  1  0
 25 11  1  0
 24 14  2  0
 23 18  1  0
  1 27  1  0
  1 28  1  0
  1 29  1  0
  6 30  1  0
  7 31  1  0
  8 32  1  0
 10 33  1  0
 10 34  1  0
 12 35  1  0
 12 36  1  0
 13 37  1  0
 13 38  1  0
 19 39  1  0
 20 40  1  0
 22 41  1  0
 23 42  1  0
 25 43  1  0
 25 44  1  0
 26 45  1  0
M  CHG  1  15  -1
M  END
>  <UniqueID>  (1) 
1

>  <SMILES>  (1) 
CS(=O)(=O)c1cccc(CN2CCc3[n-]nc(-c4ccncc4)c3C2)c1

>  <Energy>  (1) 
88.8478896891088

>  <Genealogy>  (1) 
CS(=O)(=O)c1cccc(CN2CCc3[n-]nc(-c4ccncc4)c3C2)c1 (protonated)
CS(=O)(=O)c1cccc(CN2CCc3[n-]nc(-c4ccncc4)c3C2)c1 (3D coordinates assigned)
CS(=O)(=O)c1cccc(CN2CCc3[n-]nc(-c4ccncc4)c3C2)c1 (nonaromatic ring conformer: 88.8478896891088 kcal/mol)

>  <smiles>  (1) 
CS(=O)(=O)c1cccc(CN2CCc3[nH]nc(-c4ccncc4)c3C2)c1

>  <score_type>  (1) 
oracle

>  <origin>  (1) 
adgpu

>  <m_score__min__energy>  (1) 
-10.449999999999999

>  <m_primary>  (1) 
energy

$$$$
1:0
     RDKit          3D

 44 47  0  0  0  0  0  0  0  0999 V2000
   -5.8860   26.1060  -29.8700 O   0  0  0  0  0  0  0  0  0  0  0  0
   -5.2260   25.1560  -30.3690 C   0  0  0  0  0  0  0  0  0  0  0  0
   -3.8050   25.3000  -30.4980 N   0  0  0  0  0  0  0  0  0  0  0  0
   -2.8120   24.3590  -30.0600 C   0  0  0  0  0  0  0  0  0  0  0  0
   -2.8810   23.0000  -30.4160 C   0  0  0  0  0  0  0  0  0  0  0  0
   -1.9030   22.1000  -29.9720 C   0  0  0  0  0  0  0  0  0  0  0  0
   -2.0010   20.3920  -30.3970 S   0  0  0  0  0  0  0  0  0  0  0  0
   -3.4270   20.0220  -30.7020 O   0  0  0  0  0  0  0  0  0  0  0  0
   -1.5400   19.5820  -29.2170 O   0  0  0  0  0  0  0  0  0  0  0  0
   -0.9750   20.0620  -31.7770 N   0  0  0  0  0  0  0  0  0  0  0  0
   -0.8740   21.2420  -32.6410 C   0  0  0  0  0  0  0  0  0  0  0  0
   -1.9500   21.1380  -33.7110 C   0  0  0  0  0  0  0  0  0  0  0  0
   -2.3980   19.6890  -33.6990 C   0  0  0  0  0  0  0  0  0  0  0  0
   -1.5680   19.0150  -32.6150 C   0  0  0  0  0  0  0  0  0  0  0  0
   -0.8310   22.5660  -29.2020 C   0  0  0  0  0  0  0  0  0  0  0  0
   -0.7410   23.9200  -28.8710 C   0  0  0  0  0  0  0  0  0  0  0  0
   -1.7260   24.8150  -29.3000 C   0  0  0  0  0  0  0  0  0  0  0  0
   -1.6240   26.1610  -28.9620 O   0  0  0  0  0  0  0  0  0  0  0  0
   -5.9300   23.9120  -30.7600 C   0  0  0  0  0  0  0  0  0  0  0  0
   -7.1200   23.5250  -30.1150 C   0  0  0  0  0  0  0  0  0  0  0  0
   -7.7720   22.3410  -30.4740 C   0  0  0  0  0  0  0  0  0  0  0  0
   -7.2470   21.5370  -31.4870 C   0  0  0  0  0  0  0  0  0  0  0  0
   -7.8650   20.3800  -31.8460 N   0  0  0  0  0  0  0  0  0  0  0  0
   -7.3620   19.5920  -32.8330 C   0  0  0  0  0  0  0  0  0  0  0  0
   -6.1890   19.9750  -33.4920 C   0  0  0  0  0  0  0  0  0  0  0  0
   -5.5670   21.1300  -33.1370 N   0  0  0  0  0  0  0  0  0  0  0  0
   -6.0650   21.9230  -32.1520 C   0  0  0  0  0  0  0  0  0  0  0  0
   -5.4150   23.1070  -31.7920 C   0  0  0  0  0  0  0  0  0  0  0  0
   -3.7078   22.6415  -31.0468 H   0  0  0  0  0  0  0  0  0  0  0  0
   -1.0272   22.1542  -32.0456 H   0  0  0  0  0  0  0  0  0  0  0  0
    0.1219   21.2899  -33.1056 H   0  0  0  0  0  0  0  0  0  0  0  0
   -2.7935   21.8028  -33.4732 H   0  0  0  0  0  0  0  0  0  0  0  0
   -1.5720   21.4391  -34.6991 H   0  0  0  0  0  0  0  0  0  0  0  0
   -3.4698   19.6200  -33.4611 H   0  0  0  0  0  0  0  0  0  0  0  0
   -2.2555   19.2099  -34.6789 H   0  0  0  0  0  0  0  0  0  0  0  0
   -2.2114   18.3668  -32.0019 H   0  0  0  0  0  0  0  0  0  0  0  0
   -0.7786   18.3977  -33.0685 H   0  0  0  0  0  0  0  0  0  0  0  0
   -0.0575   21.8642  -28.8567 H   0  0  0  0  0  0  0  0  0  0  0  0
    0.1067   24.2831  -28.2714 H   0  0  0  0  0  0  0  0  0  0  0  0
   -7.5409   24.1598  -29.3213 H   0  0  0  0  0  0  0  0  0  0  0  0
   -8.6973   22.0438  -29.9588 H   0  0  0  0  0  0  0  0  0  0  0  0
   -7.8741   18.6592  -33.1116 H   0  0  0  0  0  0  0  0  0  0  0  0
   -5.7728   19.3454  -34.2923 H   0  0  0  0  0  0  0  0  0  0  0  0
   -4.4975   23.4102  -32.3176 H   0  0  0  0  0  0  0  0  0  0  0  0
  1  2  2  0
  2  3  1  0
  3  4  1  0
  4  5  2  0
  5  6  1  0
  6  7  1  0
  7  8  2  0
  7  9  2  0
  7 10  1  0
 10 11  1  0
 11 12  1  0
 12 13  1  0
 13 14  1  0
  6 15  2  0
 15 16  1  0
 16 17  2  0
 17 18  1  0
  2 19  1  0
 19 20  2  0
 20 21  1  0
 21 22  2  0
 22 23  1  0
 23 24  2  0
 24 25  1  0
 25 26  2  0
 26 27  1  0
 27 28  2  0
 17  4  1  0
 28 19  1  0
 14 10  1  0
 27 22  1  0
  5 29  1  0
 11 30  1  0
 11 31  1  0
 12 32  1  0
 12 33  1  0
 13 34  1  0
 13 35  1  0
 14 36  1  0
 14 37  1  0
 15 38  1  0
 16 39  1  0
 20 40  1  0
 21 41  1  0
 24 42  1  0
 25 43  1  0
 28 44  1  0
M  CHG  2   3  -1  18  -1
M  END
>  <UniqueID>  (2) 
2

>  <SMILES>  (2) 
O=C([N-]c1cc(S(=O)(=O)N2CCCC2)ccc1[O-])c1ccc2nccnc2c1

>  <Energy>  (2) 
59.151016923999855

>  <Genealogy>  (2) 
O=C([N-]c1cc(S(=O)(=O)N2CCCC2)ccc1[O-])c1ccc2nccnc2c1 (protonated)
O=C([N-]c1cc(S(=O)(=O)N2CCCC2)ccc1[O-])c1ccc2nccnc2c1 (3D coordinates assigned)
O=C([N-]c1cc(S(=O)(=O)N2CCCC2)ccc1[O-])c1ccc2nccnc2c1 (nonaromatic ring conformer: 59.151016923999855 kcal/mol)

>  <smiles>  (2) 
O=C(Nc1cc(S(=O)(=O)N2CCCC2)ccc1O)c1ccc2nccnc2c1

>  <score_type>  (2) 
oracle

>  <origin>  (2) 
adgpu

>  <m_score__min__energy>  (2) 
-14.06

>  <m_primary>  (2) 
energy

$$$$
2:0
     RDKit          3D

 56 58  0  0  0  0  0  0  0  0999 V2000
   -4.9650   16.1930  -34.2370 C   0  0  0  0  0  0  0  0  0  0  0  0
   -4.7220   17.5550  -34.5780 O   0  0  0  0  0  0  0  0  0  0  0  0
   -4.0880   18.4870  -33.7400 C   0  0  0  0  0  0  0  0  0  0  0  0
   -2.7500   18.8720  -33.9440 C   0  0  0  0  0  0  0  0  0  0  0  0
   -2.1420   19.8030  -33.1030 C   0  0  0  0  0  0  0  0  0  0  0  0
   -2.8610   20.3910  -32.0500 C   0  0  0  0  0  0  0  0  0  0  0  0
   -2.2060   21.3830  -31.1650 C   0  0  0  0  0  0  0  0  0  0  0  0
   -0.9680   21.2920  -30.9370 O   0  0  0  0  0  0  0  0  0  0  0  0
   -2.9540   22.4740  -30.6010 N   0  0  0  0  0  0  0  0  0  0  0  0
   -2.5250   23.2260  -29.4520 C   0  0  0  0  0  0  0  0  0  0  0  0
   -3.4800   23.6840  -28.5320 C   0  0  0  0  0  0  0  0  0  0  0  0
   -3.0880   24.3860  -27.3830 C   0  0  0  0  0  0  0  0  0  0  0  0
   -4.1200   24.9070  -26.4270 C   0  0  0  0  0  0  0  0  0  0  0  0
   -1.7290   24.6540  -27.1670 C   0  0  0  0  0  0  0  0  0  0  0  0
   -0.7620   24.2000  -28.0760 C   0  0  0  0  0  0  0  0  0  0  0  0
    0.6960   24.4320  -27.8070 C   0  0  0  0  0  0  0  0  0  0  0  0
   -1.1620   23.4650  -29.2020 C   0  0  0  0  0  0  0  0  0  0  0  0
   -4.1950   20.0060  -31.8420 C   0  0  0  0  0  0  0  0  0  0  0  0
   -4.8080   19.0450  -32.6630 C   0  0  0  0  0  0  0  0  0  0  0  0
   -6.2480   18.6600  -32.4100 C   0  0  0  0  0  0  0  0  0  0  0  0
   -7.1490   19.6320  -32.9420 O   0  0  0  0  0  0  0  0  0  0  0  0
   -7.2930   20.9490  -32.4730 C   0  0  0  0  0  0  0  0  0  0  0  0
   -8.5520   21.3530  -32.0180 C   0  0  0  0  0  0  0  0  0  0  0  0
   -8.7490   22.6490  -31.5360 C   0  0  0  0  0  0  0  0  0  0  0  0
   -7.6890   23.5580  -31.5170 C   0  0  0  0  0  0  0  0  0  0  0  0
   -6.4280   23.1820  -31.9940 C   0  0  0  0  0  0  0  0  0  0  0  0
   -5.3580   24.1360  -31.9420 N   0  0  0  0  0  0  0  0  0  0  0  0
   -5.0490   25.0170  -30.8530 C   0  0  0  0  0  0  0  0  0  0  0  0
   -6.0550   25.3680  -29.7990 C   0  0  0  0  0  0  0  0  0  0  0  0
   -3.8820   25.4780  -30.7570 O   0  0  0  0  0  0  0  0  0  0  0  0
   -6.2240   21.8670  -32.4440 C   0  0  0  0  0  0  0  0  0  0  0  0
   -4.9839   16.0869  -33.1423 H   0  0  0  0  0  0  0  0  0  0  0  0
   -5.9335   15.8781  -34.6527 H   0  0  0  0  0  0  0  0  0  0  0  0
   -4.1651   15.5626  -34.6527 H   0  0  0  0  0  0  0  0  0  0  0  0
   -2.1781   18.4340  -34.7753 H   0  0  0  0  0  0  0  0  0  0  0  0
   -1.0898   20.0793  -33.2658 H   0  0  0  0  0  0  0  0  0  0  0  0
   -3.7950   22.8120  -31.1200 H   0  0  0  0  0  0  0  0  0  0  0  0
   -4.5475   23.4904  -28.7138 H   0  0  0  0  0  0  0  0  0  0  0  0
   -3.7822   24.7365  -25.3941 H   0  0  0  0  0  0  0  0  0  0  0  0
   -4.2625   25.9850  -26.5929 H   0  0  0  0  0  0  0  0  0  0  0  0
   -5.0720   24.3815  -26.5929 H   0  0  0  0  0  0  0  0  0  0  0  0
   -1.4190   25.2241  -26.2788 H   0  0  0  0  0  0  0  0  0  0  0  0
    0.8686   24.4595  -26.7210 H   0  0  0  0  0  0  0  0  0  0  0  0
    1.2852   23.6163  -28.2514 H   0  0  0  0  0  0  0  0  0  0  0  0
    1.0029   25.3903  -28.2514 H   0  0  0  0  0  0  0  0  0  0  0  0
   -0.4033   23.0725  -29.8950 H   0  0  0  0  0  0  0  0  0  0  0  0
   -4.7692   20.4641  -31.0232 H   0  0  0  0  0  0  0  0  0  0  0  0
   -6.4476   17.6887  -32.8861 H   0  0  0  0  0  0  0  0  0  0  0  0
   -6.4046   18.6016  -31.3228 H   0  0  0  0  0  0  0  0  0  0  0  0
   -9.3935   20.6449  -32.0399 H   0  0  0  0  0  0  0  0  0  0  0  0
   -9.7407   22.9542  -31.1708 H   0  0  0  0  0  0  0  0  0  0  0  0
   -7.8458   24.5739  -31.1255 H   0  0  0  0  0  0  0  0  0  0  0  0
   -5.6125   25.2136  -28.8038 H   0  0  0  0  0  0  0  0  0  0  0  0
   -6.3496   26.4220  -29.9098 H   0  0  0  0  0  0  0  0  0  0  0  0
   -6.9413   24.7260  -29.9098 H   0  0  0  0  0  0  0  0  0  0  0  0
   -5.2237   21.5518  -32.7758 H   0  0  0  0  0  0  0  0  0  0  0  0
  1  2  1  0
  2  3  1  0
  3  4  2  0
  4  5  1  0
  5  6  2  0
  6  7  1  0
  7  8  2  0
  7  9  1  0
  9 10  1  0
 10 11  2  0
 11 12  1  0
 12 13  1  0
 12 14  2  0
 14 15  1  0
 15 16  1  0
 15 17  2  0
  6 18  1  0
 18 19  2  0
 19 20  1  0
 20 21  1  0
 21 22  1  0
 22 23  2  0
 23 24  1  0
 24 25  2  0
 25 26  1  0
 26 27  1  0
 27 28  1  0
 28 29  1  0
 28 30  2  0
 26 31  2  0
 19  3  1  0
 31 22  1  0
 17 10  1  0
  1 32  1  0
  1 33  1  0
  1 34  1  0
  4 35  1  0
  5 36  1  0
  9 37  1  0
 11 38  1  0
 13 39  1  0
 13 40  1  0
 13 41  1  0
 14 42  1  0
 16 43  1  0
 16 44  1  0
 16 45  1  0
 17 46  1  0
 18 47  1  0
 20 48  1  0
 20 49  1  0
 23 50  1  0
 24 51  1  0
 25 52  1  0
 29 53  1  0
 29 54  1  0
 29 55  1  0
 31 56  1  0
M  CHG  1  27  -1
M  END
>  <UniqueID>  (3) 
3

>  <SMILES>  (3) 
COc1ccc(C(=O)Nc2cc(C)cc(C)c2)cc1COc1cccc([N-]C(C)=O)c1

>  <Energy>  (3) 
62.96686696040726

>  <Genealogy>  (3) 
COc1ccc(C(=O)Nc2cc(C)cc(C)c2)cc1COc1cccc([N-]C(C)=O)c1 (protonated)
COc1ccc(C(=O)Nc2cc(C)cc(C)c2)cc1COc1cccc([N-]C(C)=O)c1 (3D coordinates assigned)
COc1ccc(C(=O)Nc2cc(C)cc(C)c2)cc1COc1cccc([N-]C(C)=O)c1 (optimized conformer: 62.96686696040726 kcal/mol)

>  <smiles>  (3) 
COc1ccc(C(=O)Nc2cc(C)cc(C)c2)cc1COc1cccc(NC(C)=O)c1

>  <score_type>  (3) 
oracle

>  <origin>  (3) 
adgpu

>  <m_score__min__energy>  (3) 
-10.85

>  <m_primary>  (3) 
energy

$$$$
3:0
     RDKit          3D

 52 54  0  0  0  0  0  0  0  0999 V2000
   -1.0230   22.2130  -30.7540 C   0  0  0  0  0  0  0  0  0  0  0  0
   -1.8350   22.1010  -29.4900 C   0  0  0  0  0  0  0  0  0  0  0  0
   -1.8690   20.8710  -28.8230 C   0  0  0  0  0  0  0  0  0  0  0  0
   -2.6390   20.7410  -27.6680 C   0  0  0  0  0  0  0  0  0  0  0  0
   -2.6890   19.6350  -27.0670 O   0  0  0  0  0  0  0  0  0  0  0  0
   -3.3240   21.7750  -27.1980 O   0  0  0  0  0  0  0  0  0  0  0  0
   -3.3110   22.9740  -27.7720 C   0  0  0  0  0  0  0  0  0  0  0  0
   -4.1150   24.0690  -27.1320 C   0  0  0  0  0  0  0  0  0  0  0  0
   -2.5490   23.1940  -28.9450 C   0  0  0  0  0  0  0  0  0  0  0  0
   -2.5100   24.5340  -29.5810 C   0  0  0  0  0  0  0  0  0  0  0  0
   -1.5620   25.3170  -29.3070 O   0  0  0  0  0  0  0  0  0  0  0  0
   -3.5500   24.9910  -30.4550 N   0  0  0  0  0  0  0  0  0  0  0  0
   -4.8160   24.3560  -30.6830 C   0  0  0  0  0  0  0  0  0  0  0  0
   -6.0280   24.9630  -30.3120 C   0  0  0  0  0  0  0  0  0  0  0  0
   -7.2410   24.3080  -30.5410 C   0  0  0  0  0  0  0  0  0  0  0  0
   -7.2540   23.0410  -31.1270 C   0  0  0  0  0  0  0  0  0  0  0  0
   -6.0520   22.4180  -31.4840 C   0  0  0  0  0  0  0  0  0  0  0  0
   -6.0800   20.8050  -32.1910 S   0  0  0  0  0  0  0  0  0  0  0  0
   -6.7450   19.8650  -31.2220 O   0  0  0  0  0  0  0  0  0  0  0  0
   -6.8760   20.8180  -33.4670 O   0  0  0  0  0  0  0  0  0  0  0  0
   -4.4480   20.2700  -32.5090 N   0  0  2  0  0  0  0  0  0  0  0  0
   -3.7770   21.2140  -33.4220 C   0  0  0  0  0  0  0  0  0  0  0  0
   -2.2810   20.8720  -33.5850 C   0  0  0  0  0  0  0  0  0  0  0  0
   -1.9770   19.3810  -33.3140 C   0  0  2  0  0  0  0  0  0  0  0  0
   -0.6730   18.9540  -33.9960 C   0  0  0  0  0  0  0  0  0  0  0  0
   -3.1510   18.5020  -33.7700 C   0  0  0  0  0  0  0  0  0  0  0  0
   -4.4690   18.8950  -33.0620 C   0  0  0  0  0  0  0  0  0  0  0  0
   -4.8350   23.0740  -31.2460 C   0  0  0  0  0  0  0  0  0  0  0  0
    0.0366   22.3592  -30.4974 H   0  0  0  0  0  0  0  0  0  0  0  0
   -1.1336   21.2911  -31.3438 H   0  0  0  0  0  0  0  0  0  0  0  0
   -1.3791   23.0705  -31.3438 H   0  0  0  0  0  0  0  0  0  0  0  0
   -1.2938   20.0153  -29.2063 H   0  0  0  0  0  0  0  0  0  0  0  0
   -4.0497   23.9801  -26.0375 H   0  0  0  0  0  0  0  0  0  0  0  0
   -3.7182   25.0461  -27.4448 H   0  0  0  0  0  0  0  0  0  0  0  0
   -5.1661   23.9829  -27.4448 H   0  0  0  0  0  0  0  0  0  0  0  0
   -6.0218   25.9566  -29.8400 H   0  0  0  0  0  0  0  0  0  0  0  0
   -8.1877   24.7919  -30.2589 H   0  0  0  0  0  0  0  0  0  0  0  0
   -8.2113   22.5306  -31.3088 H   0  0  0  0  0  0  0  0  0  0  0  0
   -3.9460   20.2650  -31.5890 H   0  0  0  0  0  0  0  0  0  0  0  0
   -4.2643   21.1670  -34.4070 H   0  0  0  0  0  0  0  0  0  0  0  0
   -3.8567   22.2247  -32.9951 H   0  0  0  0  0  0  0  0  0  0  0  0
   -1.9752   21.1121  -34.6140 H   0  0  0  0  0  0  0  0  0  0  0  0
   -1.7222   21.4647  -32.8458 H   0  0  0  0  0  0  0  0  0  0  0  0
   -1.8469   19.2467  -32.2300 H   0  0  0  0  0  0  0  0  0  0  0  0
    0.0777   18.7082  -33.2305 H   0  0  0  0  0  0  0  0  0  0  0  0
   -0.8598   18.0701  -34.6235 H   0  0  0  0  0  0  0  0  0  0  0  0
   -0.3008   19.7772  -34.6235 H   0  0  0  0  0  0  0  0  0  0  0  0
   -3.2817   18.6172  -34.8561 H   0  0  0  0  0  0  0  0  0  0  0  0
   -2.9196   17.4587  -33.5092 H   0  0  0  0  0  0  0  0  0  0  0  0
   -5.2912   18.8233  -33.7892 H   0  0  0  0  0  0  0  0  0  0  0  0
   -4.6037   18.2048  -32.2161 H   0  0  0  0  0  0  0  0  0  0  0  0
   -3.8880   22.5773  -31.5037 H   0  0  0  0  0  0  0  0  0  0  0  0
  1  2  1  0
  2  3  2  0
  3  4  1  0
  4  5  2  0
  4  6  1  0
  6  7  1  0
  7  8  1  0
  7  9  2  0
  9 10  1  0
 10 11  2  0
 10 12  1  0
 12 13  1  0
 13 14  2  0
 14 15  1  0
 15 16  2  0
 16 17  1  0
 17 18  1  0
 18 19  2  0
 18 20  2  0
 18 21  1  0
 21 22  1  0
 22 23  1  0
 23 24  1  0
 24 25  1  0
 24 26  1  0
 26 27  1  0
 17 28  2  0
  9  2  1  0
 28 13  1  0
 27 21  1  0
  1 29  1  0
  1 30  1  0
  1 31  1  0
  3 32  1  0
  8 33  1  0
  8 34  1  0
  8 35  1  0
 14 36  1  0
 15 37  1  0
 16 38  1  0
 21 39  1  1
 22 40  1  0
 22 41  1  0
 23 42  1  0
 23 43  1  0
 24 44  1  1
 25 45  1  0
 25 46  1  0
 25 47  1  0
 26 48  1  0
 26 49  1  0
 27 50  1  0
 27 51  1  0
 28 52  1  0
M  CHG  2  12  -1  21   1
M  END
>  <UniqueID>  (4) 
4

>  <SMILES>  (4) 
Cc1cc(=O)oc(C)c1C(=O)[N-]c1cccc(S(=O)(=O)[NH+]2CCC(C)CC2)c1

>  <Energy>  (4) 
65.37218648931126

>  <Genealogy>  (4) 
Cc1cc(=O)oc(C)c1C(=O)[N-]c1cccc(S(=O)(=O)[NH+]2CCC(C)CC2)c1 (protonated)
Cc1cc(=O)oc(C)c1C(=O)[N-]c1cccc(S(=O)(=O)[NH+]2CCC(C)CC2)c1 (3D coordinates assigned)
Cc1cc(=O)oc(C)c1C(=O)[N-]c1cccc(S(=O)(=O)[NH+]2CCC(C)CC2)c1 (nonaromatic ring conformer: 65.37218648931126 kcal/mol)

>  <smiles>  (4) 
Cc1cc(=O)oc(C)c1C(=O)Nc1cccc(S(=O)(=O)N2CCC(C)CC2)c1

>  <score_type>  (4) 
oracle

>  <origin>  (4) 
adgpu

>  <m_score__min__energy>  (4) 
-10.289999999999999

>  <m_primary>  (4) 
energy

$$$$
4:0
     RDKit          3D

 40 42  0  0  0  0  0  0  0  0999 V2000
   -5.7690   25.4920  -29.6930 O   0  0  0  0  0  0  0  0  0  0  0  0
   -4.8480   24.8930  -30.3080 C   0  0  0  0  0  0  0  0  0  0  0  0
   -3.4900   25.2860  -30.0790 N   0  0  0  0  0  0  0  0  0  0  0  0
   -2.5320   24.5700  -29.2860 C   0  0  0  0  0  0  0  0  0  0  0  0
   -2.6340   23.1800  -29.0950 C   0  0  0  0  0  0  0  0  0  0  0  0
   -1.6560   22.4880  -28.3670 C   0  0  0  0  0  0  0  0  0  0  0  0
   -1.7840   20.7400  -28.1420 S   0  0  0  0  0  0  0  0  0  0  0  0
   -3.2090   20.3850  -27.8240 O   0  0  0  0  0  0  0  0  0  0  0  0
   -0.9310   20.3270  -26.9750 O   0  0  0  0  0  0  0  0  0  0  0  0
   -1.2750   19.8690  -29.5700 N   0  0  0  0  0  0  0  0  0  0  0  0
   -2.0330   20.2990  -30.7730 C   0  0  0  0  0  0  0  0  0  0  0  0
   -1.2140   21.1980  -31.7080 C   0  0  0  0  0  0  0  0  0  0  0  0
    0.0600   20.4810  -32.1840 C   0  0  0  0  0  0  0  0  0  0  0  0
    0.6420   19.5320  -31.1190 C   0  0  0  0  0  0  0  0  0  0  0  0
    0.1970   19.9350  -29.7100 C   0  0  0  0  0  0  0  0  0  0  0  0
   -0.5650   23.1890  -27.8370 C   0  0  0  0  0  0  0  0  0  0  0  0
   -0.4530   24.5680  -28.0340 C   0  0  0  0  0  0  0  0  0  0  0  0
   -1.4260   25.2560  -28.7640 C   0  0  0  0  0  0  0  0  0  0  0  0
   -1.2920   26.6240  -28.9670 O   0  0  0  0  0  0  0  0  0  0  0  0
   -5.1810   23.7580  -31.1860 C   0  0  0  0  0  0  0  0  0  0  0  0
   -6.4510   23.2790  -31.4410 C   0  0  0  0  0  0  0  0  0  0  0  0
   -6.2800   22.2060  -32.2880 C   0  0  0  0  0  0  0  0  0  0  0  0
   -4.9200   22.0910  -32.4920 C   0  0  0  0  0  0  0  0  0  0  0  0
   -4.2920   23.0310  -31.8240 O   0  0  0  0  0  0  0  0  0  0  0  0
   -3.4877   22.6319  -29.5201 H   0  0  0  0  0  0  0  0  0  0  0  0
   -2.3428   19.4030  -31.3308 H   0  0  0  0  0  0  0  0  0  0  0  0
   -2.8963   20.8855  -30.4256 H   0  0  0  0  0  0  0  0  0  0  0  0
   -1.8271   21.4609  -32.5826 H   0  0  0  0  0  0  0  0  0  0  0  0
   -0.9216   22.1037  -31.1565 H   0  0  0  0  0  0  0  0  0  0  0  0
   -0.1811   19.8951  -33.0832 H   0  0  0  0  0  0  0  0  0  0  0  0
    0.8170   21.2517  -32.3912 H   0  0  0  0  0  0  0  0  0  0  0  0
    0.2965   18.5081  -31.3245 H   0  0  0  0  0  0  0  0  0  0  0  0
    1.7395   19.5898  -31.1658 H   0  0  0  0  0  0  0  0  0  0  0  0
    0.6570   19.2525  -28.9803 H   0  0  0  0  0  0  0  0  0  0  0  0
    0.5162   20.9720  -29.5290 H   0  0  0  0  0  0  0  0  0  0  0  0
    0.2057   22.6525  -27.2641 H   0  0  0  0  0  0  0  0  0  0  0  0
    0.4042   25.1139  -27.6129 H   0  0  0  0  0  0  0  0  0  0  0  0
   -7.4008   23.6722  -31.0495 H   0  0  0  0  0  0  0  0  0  0  0  0
   -7.0686   21.5693  -32.7155 H   0  0  0  0  0  0  0  0  0  0  0  0
   -4.4357   21.3279  -33.1189 H   0  0  0  0  0  0  0  0  0  0  0  0
  1  2  2  0
  2  3  1  0
  3  4  1  0
  4  5  2  0
  5  6  1  0
  6  7  1  0
  7  8  2  0
  7  9  2  0
  7 10  1  0
 10 11  1  0
 11 12  1  0
 12 13  1  0
 13 14  1  0
 14 15  1  0
  6 16  2  0
 16 17  1  0
 17 18  2  0
 18 19  1  0
  2 20  1  0
 20 21  2  0
 21 22  1  0
 22 23  2  0
 23 24  1  0
 18  4  1  0
 24 20  1  0
 15 10  1  0
  5 25  1  0
 11 26  1  0
 11 27  1  0
 12 28  1  0
 12 29  1  0
 13 30  1  0
 13 31  1  0
 14 32  1  0
 14 33  1  0
 15 34  1  0
 15 35  1  0
 16 36  1  0
 17 37  1  0
 21 38  1  0
 22 39  1  0
 23 40  1  0
M  CHG  2   3  -1  19  -1
M  END
>  <UniqueID>  (5) 
5

>  <SMILES>  (5) 
O=C([N-]c1cc(S(=O)(=O)N2CCCCC2)ccc1[O-])c1ccco1

>  <Energy>  (5) 
74.02098643353874

>  <Genealogy>  (5) 
O=C([N-]c1cc(S(=O)(=O)N2CCCCC2)ccc1[O-])c1ccco1 (protonated)
O=C([N-]c1cc(S(=O)(=O)N2CCCCC2)ccc1[O-])c1ccco1 (3D coordinates assigned)
O=C([N-]c1cc(S(=O)(=O)N2CCCCC2)ccc1[O-])c1ccco1 (nonaromatic ring conformer: 74.02098643353874 kcal/mol)

>  <smiles>  (5) 
O=C(Nc1cc(S(=O)(=O)N2CCCCC2)ccc1O)c1ccco1

>  <score_type>  (5) 
oracle

>  <origin>  (5) 
adgpu

>  <m_score__min__energy>  (5) 
-12.1

>  <m_primary>  (5) 
energy

$$$$
5:0
     RDKit          3D

 51 55  0  0  0  0  0  0  0  0999 V2000
   -6.6500   26.0260  -29.8890 O   0  0  0  0  0  0  0  0  0  0  0  0
   -5.5680   25.0180  -30.1590 S   0  0  0  0  0  0  0  0  0  0  0  0
   -4.6510   25.5550  -31.2220 O   0  0  0  0  0  0  0  0  0  0  0  0
   -4.6570   24.7520  -28.7060 N   0  0  0  0  0  0  0  0  0  0  0  0
   -3.6070   23.7730  -28.5930 C   0  0  0  0  0  0  0  0  0  0  0  0
   -3.8850   22.4490  -28.1680 C   0  0  0  0  0  0  0  0  0  0  0  0
   -2.8280   21.5510  -28.0650 C   0  0  0  0  0  0  0  0  0  0  0  0
   -2.8840   20.2890  -27.6850 O   0  0  0  0  0  0  0  0  0  0  0  0
   -1.6500   19.8270  -27.7380 C   0  0  0  0  0  0  0  0  0  0  0  0
   -1.2110   18.5430  -27.4260 C   0  0  0  0  0  0  0  0  0  0  0  0
    0.1640   18.2670  -27.5570 C   0  0  0  0  0  0  0  0  0  0  0  0
    1.0600   19.2700  -27.9920 C   0  0  0  0  0  0  0  0  0  0  0  0
    0.5930   20.5610  -28.3020 C   0  0  0  0  0  0  0  0  0  0  0  0
   -0.7720   20.8030  -28.1620 C   0  0  0  0  0  0  0  0  0  0  0  0
   -1.5390   21.9210  -28.3740 C   0  0  0  0  0  0  0  0  0  0  0  0
   -1.2220   23.2040  -28.8050 C   0  0  0  0  0  0  0  0  0  0  0  0
   -2.2680   24.1370  -28.9160 C   0  0  0  0  0  0  0  0  0  0  0  0
   -1.9750   25.4290  -29.3390 O   0  0  0  0  0  0  0  0  0  0  0  0
   -6.3180   23.5120  -30.6810 C   0  0  0  0  0  0  0  0  0  0  0  0
   -5.7620   22.7900  -31.7440 C   0  0  0  0  0  0  0  0  0  0  0  0
   -6.3640   21.6070  -32.1820 C   0  0  0  0  0  0  0  0  0  0  0  0
   -7.5220   21.1290  -31.5520 C   0  0  0  0  0  0  0  0  0  0  0  0
   -8.2910   19.6390  -32.1120 S   0  0  0  0  0  0  0  0  0  0  0  0
   -8.9400   18.9540  -30.9420 O   0  0  0  0  0  0  0  0  0  0  0  0
   -9.3660   19.9870  -33.1030 O   0  0  0  0  0  0  0  0  0  0  0  0
   -7.1630   18.5340  -32.8630 N   0  0  0  0  0  0  0  0  0  0  0  0
   -6.4630   19.1440  -33.9910 C   0  0  0  0  0  0  0  0  0  0  0  0
   -5.1470   18.3950  -34.1360 C   0  0  0  0  0  0  0  0  0  0  0  0
   -4.9240   17.7100  -32.7950 C   0  0  0  0  0  0  0  0  0  0  0  0
   -6.1170   18.1050  -31.9390 C   0  0  0  0  0  0  0  0  0  0  0  0
   -8.0790   21.8550  -30.4900 C   0  0  0  0  0  0  0  0  0  0  0  0
   -7.4770   23.0390  -30.0540 C   0  0  0  0  0  0  0  0  0  0  0  0
   -4.9700   25.2720  -27.8560 H   0  0  0  0  0  0  0  0  0  0  0  0
   -4.9123   22.1395  -27.9255 H   0  0  0  0  0  0  0  0  0  0  0  0
   -1.9156   17.7688  -27.0880 H   0  0  0  0  0  0  0  0  0  0  0  0
    0.5437   17.2625  -27.3188 H   0  0  0  0  0  0  0  0  0  0  0  0
    2.1312   19.0396  -28.0890 H   0  0  0  0  0  0  0  0  0  0  0  0
    1.2802   21.3497  -28.6422 H   0  0  0  0  0  0  0  0  0  0  0  0
   -0.1862   23.4804  -29.0513 H   0  0  0  0  0  0  0  0  0  0  0  0
   -4.8484   23.1550  -32.2361 H   0  0  0  0  0  0  0  0  0  0  0  0
   -5.9279   21.0491  -33.0237 H   0  0  0  0  0  0  0  0  0  0  0  0
   -7.0609   19.0438  -34.9089 H   0  0  0  0  0  0  0  0  0  0  0  0
   -6.2941   20.2177  -33.8219 H   0  0  0  0  0  0  0  0  0  0  0  0
   -5.2146   17.6500  -34.9425 H   0  0  0  0  0  0  0  0  0  0  0  0
   -4.3177   19.0699  -34.3944 H   0  0  0  0  0  0  0  0  0  0  0  0
   -4.8856   16.6180  -32.9219 H   0  0  0  0  0  0  0  0  0  0  0  0
   -3.9714   18.0107  -32.3344 H   0  0  0  0  0  0  0  0  0  0  0  0
   -6.4619   17.2446  -31.3468 H   0  0  0  0  0  0  0  0  0  0  0  0
   -5.8539   18.9073  -31.2340 H   0  0  0  0  0  0  0  0  0  0  0  0
   -8.9932   21.4917  -29.9979 H   0  0  0  0  0  0  0  0  0  0  0  0
   -7.9152   23.6007  -29.2158 H   0  0  0  0  0  0  0  0  0  0  0  0
  1  2  2  0
  2  3  2  0
  2  4  1  0
  4  5  1  0
  5  6  2  0
  6  7  1  0
  7  8  1  0
  8  9  1  0
  9 10  2  0
 10 11  1  0
 11 12  2  0
 12 13  1  0
 13 14  2  0
 14 15  1  0
 15 16  1  0
 16 17  2  0
 17 18  1  0
  2 19  1  0
 19 20  2  0
 20 21  1  0
 21 22  2  0
 22 23  1  0
 23 24  2  0
 23 25  2  0
 23 26  1  0
 26 27  1  0
 27 28  1  0
 28 29  1  0
 29 30  1  0
 22 31  1  0
 31 32  2  0
 17  5  1  0
 32 19  1  0
 15  7  2  0
 30 26  1  0
 14  9  1  0
  4 33  1  0
  6 34  1  0
 10 35  1  0
 11 36  1  0
 12 37  1  0
 13 38  1  0
 16 39  1  0
 20 40  1  0
 21 41  1  0
 27 42  1  0
 27 43  1  0
 28 44  1  0
 28 45  1  0
 29 46  1  0
 29 47  1  0
 30 48  1  0
 30 49  1  0
 31 50  1  0
 32 51  1  0
M  CHG  1  18  -1
M  END
>  <UniqueID>  (6) 
6

>  <SMILES>  (6) 
O=S(=O)(Nc1cc2oc3ccccc3c2cc1[O-])c1ccc(S(=O)(=O)N2CCCC2)cc1

>  <Energy>  (6) 
102.41152804859071

>  <Genealogy>  (6) 
O=S(=O)(Nc1cc2oc3ccccc3c2cc1[O-])c1ccc(S(=O)(=O)N2CCCC2)cc1 (protonated)
O=S(=O)(Nc1cc2oc3ccccc3c2cc1[O-])c1ccc(S(=O)(=O)N2CCCC2)cc1 (3D coordinates assigned)
O=S(=O)(Nc1cc2oc3ccccc3c2cc1[O-])c1ccc(S(=O)(=O)N2CCCC2)cc1 (nonaromatic ring conformer: 102.41152804859071 kcal/mol)

>  <smiles>  (6) 
O=S(=O)(Nc1cc2oc3ccccc3c2cc1O)c1ccc(S(=O)(=O)N2CCCC2)cc1

>  <score_type>  (6) 
oracle

>  <origin>  (6) 
adgpu

>  <m_score__min__energy>  (6) 
-14.93

>  <m_primary>  (6) 
energy

$$$$
6:0
     RDKit          3D

 41 43  0  0  0  0  0  0  0  0999 V2000
   -0.2570   21.7330  -34.4830 N   0  0  0  0  0  0  0  0  0  0  0  0
   -1.0270   21.3280  -32.9880 S   0  0  0  0  0  0  0  0  0  0  0  0
   -2.4090   21.9190  -32.9960 O   0  0  0  0  0  0  0  0  0  0  0  0
   -0.2500   21.9180  -31.8460 O   0  0  0  0  0  0  0  0  0  0  0  0
   -1.1300   19.5710  -32.7960 C   0  0  0  0  0  0  0  0  0  0  0  0
   -1.8950   18.8360  -33.7180 C   0  0  0  0  0  0  0  0  0  0  0  0
   -1.9450   17.4430  -33.6470 C   0  0  0  0  0  0  0  0  0  0  0  0
   -1.2290   16.7660  -32.6590 C   0  0  0  0  0  0  0  0  0  0  0  0
   -0.4740   17.4830  -31.7300 C   0  0  0  0  0  0  0  0  0  0  0  0
   -0.4370   18.8830  -31.7720 C   0  0  0  0  0  0  0  0  0  0  0  0
    0.3350   19.5740  -30.7840 N   0  0  0  0  0  0  0  0  0  0  0  0
   -0.1030   19.7680  -29.4380 C   0  0  0  0  0  0  0  0  0  0  0  0
    0.7050   19.6150  -28.4820 O   0  0  0  0  0  0  0  0  0  0  0  0
   -1.4140   20.2000  -29.2070 O   0  0  0  0  0  0  0  0  0  0  0  0
   -1.9020   21.4870  -29.4820 C   0  0  0  0  0  0  0  0  0  0  0  0
   -1.1290   22.6410  -29.2710 C   0  0  0  0  0  0  0  0  0  0  0  0
   -1.6580   23.9080  -29.5480 C   0  0  0  0  0  0  0  0  0  0  0  0
   -0.8880   25.0520  -29.3500 O   0  0  0  0  0  0  0  0  0  0  0  0
   -2.9680   24.0300  -30.0280 C   0  0  0  0  0  0  0  0  0  0  0  0
   -3.4660   25.2930  -30.3320 O   0  0  0  0  0  0  0  0  0  0  0  0
   -3.7650   22.8820  -30.2130 C   0  0  0  0  0  0  0  0  0  0  0  0
   -5.1630   22.9860  -30.6970 C   0  0  0  0  0  0  0  0  0  0  0  0
   -6.2370   22.7610  -29.8170 C   0  0  0  0  0  0  0  0  0  0  0  0
   -7.5550   22.8690  -30.2680 C   0  0  0  0  0  0  0  0  0  0  0  0
   -7.8150   23.2050  -31.5990 C   0  0  0  0  0  0  0  0  0  0  0  0
   -6.7570   23.4370  -32.4810 C   0  0  0  0  0  0  0  0  0  0  0  0
   -5.4360   23.3310  -32.0330 C   0  0  0  0  0  0  0  0  0  0  0  0
   -3.2180   21.6170  -29.9370 C   0  0  0  0  0  0  0  0  0  0  0  0
   -0.9250   22.3340  -35.0160 H   0  0  0  0  0  0  0  0  0  0  0  0
   -2.4589   19.3629  -34.5019 H   0  0  0  0  0  0  0  0  0  0  0  0
   -2.5500   16.8778  -34.3712 H   0  0  0  0  0  0  0  0  0  0  0  0
   -1.2597   15.6674  -32.6125 H   0  0  0  0  0  0  0  0  0  0  0  0
    0.0966   16.9449  -30.9587 H   0  0  0  0  0  0  0  0  0  0  0  0
   -0.1026   22.5490  -28.8861 H   0  0  0  0  0  0  0  0  0  0  0  0
   -0.1460   25.3080  -29.9910 H   0  0  0  0  0  0  0  0  0  0  0  0
   -6.0381   22.4984  -28.7675 H   0  0  0  0  0  0  0  0  0  0  0  0
   -8.3893   22.6892  -29.5740 H   0  0  0  0  0  0  0  0  0  0  0  0
   -8.8534   23.2869  -31.9525 H   0  0  0  0  0  0  0  0  0  0  0  0
   -6.9626   23.7032  -33.5283 H   0  0  0  0  0  0  0  0  0  0  0  0
   -4.6057   23.5186  -32.7298 H   0  0  0  0  0  0  0  0  0  0  0  0
   -3.8336   20.7168  -30.0809 H   0  0  0  0  0  0  0  0  0  0  0  0
  1  2  1  0
  2  3  2  0
  2  4  2  0
  2  5  1  0
  5  6  2  0
  6  7  1  0
  7  8  2  0
  8  9  1  0
  9 10  2  0
 10 11  1  0
 11 12  1  0
 12 13  2  0
 12 14  1  0
 14 15  1  0
 15 16  2  0
 16 17  1  0
 17 18  1  0
 17 19  2  0
 19 20  1  0
 19 21  1  0
 21 22  1  0
 22 23  2  0
 23 24  1  0
 24 25  2  0
 25 26  1  0
 26 27  2  0
 21 28  2  0
 10  5  1  0
 28 15  1  0
 27 22  1  0
  1 29  1  0
  6 30  1  0
  7 31  1  0
  8 32  1  0
  9 33  1  0
 16 34  1  0
 18 35  1  0
 23 36  1  0
 24 37  1  0
 25 38  1  0
 26 39  1  0
 27 40  1  0
 28 41  1  0
M  CHG  3   1  -1  11  -1  20  -1
M  END
>  <UniqueID>  (7) 
7

>  <SMILES>  (7) 
[NH-]S(=O)(=O)c1ccccc1[N-]C(=O)Oc1cc(O)c([O-])c(-c2ccccc2)c1

>  <Energy>  (7) 
62.63790386856163

>  <Genealogy>  (7) 
[NH-]S(=O)(=O)c1ccccc1[N-]C(=O)Oc1cc(O)c([O-])c(-c2ccccc2)c1 (protonated)
[NH-]S(=O)(=O)c1ccccc1[N-]C(=O)Oc1cc(O)c([O-])c(-c2ccccc2)c1 (3D coordinates assigned)
[NH-]S(=O)(=O)c1ccccc1[N-]C(=O)Oc1cc(O)c([O-])c(-c2ccccc2)c1 (optimized conformer: 62.63790386856163 kcal/mol)

>  <smiles>  (7) 
NS(=O)(=O)c1ccccc1NC(=O)Oc1cc(O)c(O)c(-c2ccccc2)c1

>  <score_type>  (7) 
oracle

>  <origin>  (7) 
adgpu

>  <m_score__min__energy>  (7) 
-12.02

>  <m_primary>  (7) 
energy

$$$$
7:0
     RDKit          3D

 57 60  0  0  0  0  0  0  0  0999 V2000
   -0.1290   22.9810  -24.5400 C   0  0  0  0  0  0  0  0  0  0  0  0
   -0.5430   22.4510  -25.7960 O   0  0  0  0  0  0  0  0  0  0  0  0
   -1.2270   23.1830  -26.7790 C   0  0  0  0  0  0  0  0  0  0  0  0
   -0.8210   24.4720  -27.1790 C   0  0  0  0  0  0  0  0  0  0  0  0
   -1.5320   25.1640  -28.1650 C   0  0  0  0  0  0  0  0  0  0  0  0
   -2.6530   24.5790  -28.7610 C   0  0  0  0  0  0  0  0  0  0  0  0
   -3.3430   25.2490  -29.7240 N   0  0  0  0  0  0  0  0  0  0  0  0
   -4.4370   24.7170  -30.3300 C   0  0  0  0  0  0  0  0  0  0  0  0
   -5.0300   25.3830  -31.2190 O   0  0  0  0  0  0  0  0  0  0  0  0
   -4.8940   23.4350  -29.9620 C   0  0  0  0  0  0  0  0  0  0  0  0
   -6.0830   22.7900  -30.6260 C   0  0  0  0  0  0  0  0  0  0  0  0
   -5.6310   21.9870  -31.7840 N   0  0  0  0  0  0  0  0  0  0  0  0
   -4.5700   22.6530  -32.5650 C   0  0  0  0  0  0  0  0  0  0  0  0
   -3.3040   21.8390  -32.5080 C   0  0  0  0  0  0  0  0  0  0  0  0
   -2.3960   22.0320  -31.4590 C   0  0  0  0  0  0  0  0  0  0  0  0
   -1.2410   21.2490  -31.3690 C   0  0  0  0  0  0  0  0  0  0  0  0
   -0.9660   20.2530  -32.3290 C   0  0  0  0  0  0  0  0  0  0  0  0
    0.2290   19.4330  -32.2340 N   0  0  0  0  0  0  0  0  0  0  0  0
    1.3490   19.6340  -33.1620 C   0  0  0  0  0  0  0  0  0  0  0  0
    0.3380   18.3860  -31.2090 C   0  0  0  0  0  0  0  0  0  0  0  0
   -1.8860   20.0730  -33.3850 C   0  0  0  0  0  0  0  0  0  0  0  0
   -3.0400   20.8560  -33.4710 C   0  0  0  0  0  0  0  0  0  0  0  0
   -5.3030   20.5860  -31.4310 C   0  0  0  0  0  0  0  0  0  0  0  0
   -6.3400   19.5880  -31.8790 C   0  0  0  0  0  0  0  0  0  0  0  0
   -7.7170   19.7810  -31.8890 C   0  0  0  0  0  0  0  0  0  0  0  0
   -8.4290   18.6610  -32.3340 C   0  0  0  0  0  0  0  0  0  0  0  0
   -7.6230   17.5820  -32.6670 C   0  0  0  0  0  0  0  0  0  0  0  0
   -6.0210   18.0210  -32.4050 S   0  0  0  0  0  0  0  0  0  0  0  0
   -4.1930   22.7260  -28.9750 C   0  0  0  0  0  0  0  0  0  0  0  0
   -3.0680   23.2920  -28.3650 C   0  0  0  0  0  0  0  0  0  0  0  0
   -2.3520   22.6000  -27.3760 C   0  0  0  0  0  0  0  0  0  0  0  0
   -0.5853   22.3969  -23.7272 H   0  0  0  0  0  0  0  0  0  0  0  0
    0.9668   22.9248  -24.4615 H   0  0  0  0  0  0  0  0  0  0  0  0
   -0.4488   24.0305  -24.4615 H   0  0  0  0  0  0  0  0  0  0  0  0
    0.0604   24.9367  -26.7130 H   0  0  0  0  0  0  0  0  0  0  0  0
   -1.2086   26.1697  -28.4717 H   0  0  0  0  0  0  0  0  0  0  0  0
   -6.5948   22.1360  -29.9046 H   0  0  0  0  0  0  0  0  0  0  0  0
   -6.7761   23.5711  -30.9718 H   0  0  0  0  0  0  0  0  0  0  0  0
   -4.8941   22.7505  -33.6116 H   0  0  0  0  0  0  0  0  0  0  0  0
   -4.3792   23.6497  -32.1405 H   0  0  0  0  0  0  0  0  0  0  0  0
   -2.5928   22.8046  -30.7011 H   0  0  0  0  0  0  0  0  0  0  0  0
   -0.5379   21.4119  -30.5389 H   0  0  0  0  0  0  0  0  0  0  0  0
    2.2738   19.8000  -32.5900 H   0  0  0  0  0  0  0  0  0  0  0  0
    1.4648   18.7423  -33.7956 H   0  0  0  0  0  0  0  0  0  0  0  0
    1.1475   20.5103  -33.7956 H   0  0  0  0  0  0  0  0  0  0  0  0
    0.2903   18.8443  -30.2102 H   0  0  0  0  0  0  0  0  0  0  0  0
   -0.4907   17.6719  -31.3247 H   0  0  0  0  0  0  0  0  0  0  0  0
    1.2960   17.8579  -31.3247 H   0  0  0  0  0  0  0  0  0  0  0  0
   -1.6917   19.3065  -34.1497 H   0  0  0  0  0  0  0  0  0  0  0  0
   -3.7458   20.6997  -34.3001 H   0  0  0  0  0  0  0  0  0  0  0  0
   -4.3439   20.3249  -31.9021 H   0  0  0  0  0  0  0  0  0  0  0  0
   -5.2604   20.5334  -30.3331 H   0  0  0  0  0  0  0  0  0  0  0  0
   -8.1986   20.7199  -31.5783 H   0  0  0  0  0  0  0  0  0  0  0  0
   -9.5260   18.6385  -32.4124 H   0  0  0  0  0  0  0  0  0  0  0  0
   -7.9718   16.6071  -33.0385 H   0  0  0  0  0  0  0  0  0  0  0  0
   -4.5291   21.7212  -28.6795 H   0  0  0  0  0  0  0  0  0  0  0  0
   -2.6759   21.5948  -27.0682 H   0  0  0  0  0  0  0  0  0  0  0  0
  1  2  1  0
  2  3  1  0
  3  4  2  0
  4  5  1  0
  5  6  2  0
  6  7  1  0
  7  8  1  0
  8  9  2  0
  8 10  1  0
 10 11  1  0
 11 12  1  0
 12 13  1  0
 13 14  1  0
 14 15  2  0
 15 16  1  0
 16 17  2  0
 17 18  1  0
 18 19  1  0
 18 20  1  0
 17 21  1  0
 21 22  2  0
 12 23  1  0
 23 24  1  0
 24 25  2  0
 25 26  1  0
 26 27  2  0
 27 28  1  0
 10 29  2  0
 29 30  1  0
 30 31  2  0
 31  3  1  0
 30  6  1  0
 22 14  1  0
 28 24  1  0
  1 32  1  0
  1 33  1  0
  1 34  1  0
  4 35  1  0
  5 36  1  0
 11 37  1  0
 11 38  1  0
 13 39  1  0
 13 40  1  0
 15 41  1  0
 16 42  1  0
 19 43  1  0
 19 44  1  0
 19 45  1  0
 20 46  1  0
 20 47  1  0
 20 48  1  0
 21 49  1  0
 22 50  1  0
 23 51  1  0
 23 52  1  0
 25 53  1  0
 26 54  1  0
 27 55  1  0
 29 56  1  0
 31 57  1  0
M  CHG  1   7  -1
M  END
>  <UniqueID>  (8) 
8

>  <SMILES>  (8) 
COc1ccc2[n-]c(=O)c(CN(Cc3ccc(N(C)C)cc3)Cc3cccs3)cc2c1

>  <Energy>  (8) 
93.62623633228522

>  <Genealogy>  (8) 
COc1ccc2[n-]c(=O)c(CN(Cc3ccc(N(C)C)cc3)Cc3cccs3)cc2c1 (protonated)
COc1ccc2[n-]c(=O)c(CN(Cc3ccc(N(C)C)cc3)Cc3cccs3)cc2c1 (3D coordinates assigned)
COc1ccc2[n-]c(=O)c(CN(Cc3ccc(N(C)C)cc3)Cc3cccs3)cc2c1 (optimized conformer: 93.62623633228522 kcal/mol)

>  <smiles>  (8) 
COc1ccc2[nH]c(=O)c(CN(Cc3ccc(N(C)C)cc3)Cc3cccs3)cc2c1

>  <score_type>  (8) 
oracle

>  <origin>  (8) 
adgpu

>  <m_score__min__energy>  (8) 
-11.210000000000001

>  <m_primary>  (8) 
energy

$$$$
8:0
     RDKit          3D

 60 64  0  0  0  0  0  0  0  0999 V2000
   -5.2720   25.9290  -30.4250 O   0  0  0  0  0  0  0  0  0  0  0  0
   -4.5400   24.9020  -30.4550 C   0  0  0  0  0  0  0  0  0  0  0  0
   -4.9790   23.6780  -31.2060 C   0  0  0  0  0  0  0  0  0  0  0  0
   -4.4680   22.4020  -30.5190 C   0  0  0  0  0  0  0  0  0  0  0  0
   -3.0020   22.4980  -30.1580 C   0  0  0  0  0  0  0  0  0  0  0  0
   -2.2090   21.3400  -30.0900 C   0  0  0  0  0  0  0  0  0  0  0  0
   -0.8730   21.4200  -29.6720 C   0  0  0  0  0  0  0  0  0  0  0  0
    0.1010   19.9570  -29.5670 S   0  0  0  0  0  0  0  0  0  0  0  0
    1.0710   20.1060  -28.4280 O   0  0  0  0  0  0  0  0  0  0  0  0
   -0.7710   18.7650  -29.2950 O   0  0  0  0  0  0  0  0  0  0  0  0
    0.9840   19.6930  -31.0360 N   0  0  0  0  0  0  0  0  0  0  0  0
    0.3590   19.8470  -32.3170 C   0  0  0  0  0  0  0  0  0  0  0  0
    0.8070   20.8190  -33.2220 C   0  0  0  0  0  0  0  0  0  0  0  0
    0.1810   20.9650  -34.4610 C   0  0  0  0  0  0  0  0  0  0  0  0
   -0.8920   20.1400  -34.8090 C   0  0  0  0  0  0  0  0  0  0  0  0
   -1.3410   19.1450  -33.9230 C   0  0  0  0  0  0  0  0  0  0  0  0
   -2.5060   18.3000  -34.2820 C   0  0  0  0  0  0  0  0  0  0  0  0
   -2.3490   17.3410  -35.0890 O   0  0  0  0  0  0  0  0  0  0  0  0
   -3.8210   18.5640  -33.7590 N   0  0  0  0  0  0  0  0  0  0  0  0
   -4.9660   18.5500  -34.6790 C   0  0  0  0  0  0  0  0  0  0  0  0
   -6.3010   18.6180  -33.9290 C   0  0  0  0  0  0  0  0  0  0  0  0
   -6.2510   19.6460  -32.8800 N   0  0  0  0  0  0  0  0  0  0  0  0
   -7.4280   20.4250  -32.5780 C   0  0  0  0  0  0  0  0  0  0  0  0
   -8.7050   19.8330  -32.6180 C   0  0  0  0  0  0  0  0  0  0  0  0
   -9.8450   20.5890  -32.3170 C   0  0  0  0  0  0  0  0  0  0  0  0
   -9.7220   21.9400  -31.9810 C   0  0  0  0  0  0  0  0  0  0  0  0
   -8.4590   22.5380  -31.9430 C   0  0  0  0  0  0  0  0  0  0  0  0
   -7.3170   21.7870  -32.2390 C   0  0  0  0  0  0  0  0  0  0  0  0
   -5.0710   19.7550  -32.0080 C   0  0  0  0  0  0  0  0  0  0  0  0
   -4.0390   18.6640  -32.3100 C   0  0  0  0  0  0  0  0  0  0  0  0
   -0.7070   19.0080  -32.6750 C   0  0  0  0  0  0  0  0  0  0  0  0
   -0.3350   22.6620  -29.2990 C   0  0  0  0  0  0  0  0  0  0  0  0
   -1.1260   23.8150  -29.3420 C   0  0  0  0  0  0  0  0  0  0  0  0
   -2.4550   23.7380  -29.7720 C   0  0  0  0  0  0  0  0  0  0  0  0
   -3.2570   24.9240  -29.8280 N   0  0  0  0  0  0  0  0  0  0  0  0
   -6.0781   23.6523  -31.2422 H   0  0  0  0  0  0  0  0  0  0  0  0
   -4.5626   23.7210  -32.2232 H   0  0  0  0  0  0  0  0  0  0  0  0
   -5.0495   22.2368  -29.6000 H   0  0  0  0  0  0  0  0  0  0  0  0
   -4.5892   21.5661  -31.2237 H   0  0  0  0  0  0  0  0  0  0  0  0
   -2.6385   20.3657  -30.3661 H   0  0  0  0  0  0  0  0  0  0  0  0
    1.8420   19.1020  -30.9700 H   0  0  0  0  0  0  0  0  0  0  0  0
    1.6539   21.4683  -32.9552 H   0  0  0  0  0  0  0  0  0  0  0  0
    0.5335   21.7322  -35.1661 H   0  0  0  0  0  0  0  0  0  0  0  0
   -1.3883   20.2699  -35.7820 H   0  0  0  0  0  0  0  0  0  0  0  0
   -4.8918   19.4164  -35.3527 H   0  0  0  0  0  0  0  0  0  0  0  0
   -4.9391   17.6062  -35.2433 H   0  0  0  0  0  0  0  0  0  0  0  0
   -7.1033   18.8651  -34.6399 H   0  0  0  0  0  0  0  0  0  0  0  0
   -6.4959   17.6418  -33.4610 H   0  0  0  0  0  0  0  0  0  0  0  0
   -8.8078   18.7714  -32.8870 H   0  0  0  0  0  0  0  0  0  0  0  0
  -10.8389   20.1185  -32.3451 H   0  0  0  0  0  0  0  0  0  0  0  0
  -10.6186   22.5325  -31.7465 H   0  0  0  0  0  0  0  0  0  0  0  0
   -8.3632   23.6017  -31.6797 H   0  0  0  0  0  0  0  0  0  0  0  0
   -6.3260   22.2633  -32.2068 H   0  0  0  0  0  0  0  0  0  0  0  0
   -4.6043   20.7392  -32.1615 H   0  0  0  0  0  0  0  0  0  0  0  0
   -5.4027   19.6335  -30.9663 H   0  0  0  0  0  0  0  0  0  0  0  0
   -3.0890   18.9147  -31.8154 H   0  0  0  0  0  0  0  0  0  0  0  0
   -4.4130   17.7001  -31.9344 H   0  0  0  0  0  0  0  0  0  0  0  0
   -1.0506   18.2348  -31.9721 H   0  0  0  0  0  0  0  0  0  0  0  0
    0.7130   22.7287  -28.9715 H   0  0  0  0  0  0  0  0  0  0  0  0
   -0.7025   24.7834  -29.0373 H   0  0  0  0  0  0  0  0  0  0  0  0
  1  2  2  0
  2  3  1  0
  3  4  1  0
  4  5  1  0
  5  6  2  0
  6  7  1  0
  7  8  1  0
  8  9  2  0
  8 10  2  0
  8 11  1  0
 11 12  1  0
 12 13  2  0
 13 14  1  0
 14 15  2  0
 15 16  1  0
 16 17  1  0
 17 18  2  0
 17 19  1  0
 19 20  1  0
 20 21  1  0
 21 22  1  0
 22 23  1  0
 23 24  2  0
 24 25  1  0
 25 26  2  0
 26 27  1  0
 27 28  2  0
 22 29  1  0
 29 30  1  0
 16 31  2  0
  7 32  2  0
 32 33  1  0
 33 34  2  0
 34 35  1  0
 35  2  1  0
 34  5  1  0
 31 12  1  0
 30 19  1  0
 28 23  1  0
  3 36  1  0
  3 37  1  0
  4 38  1  0
  4 39  1  0
  6 40  1  0
 11 41  1  0
 13 42  1  0
 14 43  1  0
 15 44  1  0
 20 45  1  0
 20 46  1  0
 21 47  1  0
 21 48  1  0
 24 49  1  0
 25 50  1  0
 26 51  1  0
 27 52  1  0
 28 53  1  0
 29 54  1  0
 29 55  1  0
 30 56  1  0
 30 57  1  0
 31 58  1  0
 32 59  1  0
 33 60  1  0
M  CHG  1  35  -1
M  END
>  <UniqueID>  (9) 
9

>  <SMILES>  (9) 
O=C1CCc2cc(S(=O)(=O)Nc3cccc(C(=O)N4CCN(c5ccccc5)CC4)c3)ccc2[N-]1

>  <Energy>  (9) 
79.4701936978593

>  <Genealogy>  (9) 
O=C1CCc2cc(S(=O)(=O)Nc3cccc(C(=O)N4CCN(c5ccccc5)CC4)c3)ccc2[N-]1 (protonated)
O=C1CCc2cc(S(=O)(=O)Nc3cccc(C(=O)N4CCN(c5ccccc5)CC4)c3)ccc2[N-]1 (3D coordinates assigned)
O=C1CCc2cc(S(=O)(=O)Nc3cccc(C(=O)N4CCN(c5ccccc5)CC4)c3)ccc2[N-]1 (nonaromatic ring conformer: 79.4701936978593 kcal/mol)

>  <smiles>  (9) 
O=C1CCc2cc(S(=O)(=O)Nc3cccc(C(=O)N4CCN(c5ccccc5)CC4)c3)ccc2N1

>  <score_type>  (9) 
oracle

>  <origin>  (9) 
adgpu

>  <m_score__min__energy>  (9) 
-12.67

>  <m_primary>  (9) 
energy

$$$$
9:0
     RDKit          3D

 69 72  0  0  0  0  0  0  0  0999 V2000
   -1.8090   16.9610  -35.0680 C   0  0  0  0  0  0  0  0  0  0  0  0
   -2.0450   17.9290  -33.9920 N   0  0  0  0  0  0  0  0  0  0  0  0
   -3.3890   18.2880  -33.5900 C   0  0  0  0  0  0  0  0  0  0  0  0
   -4.2370   17.3250  -33.0040 C   0  0  0  0  0  0  0  0  0  0  0  0
   -5.5270   17.6630  -32.5920 C   0  0  0  0  0  0  0  0  0  0  0  0
   -5.9980   18.9720  -32.7540 C   0  0  0  0  0  0  0  0  0  0  0  0
   -7.6140   19.4100  -32.1980 S   0  0  0  0  0  0  0  0  0  0  0  0
   -8.1550   18.2920  -31.3470 O   0  0  0  0  0  0  0  0  0  0  0  0
   -8.5240   19.5660  -33.3870 O   0  0  0  0  0  0  0  0  0  0  0  0
   -7.6090   20.8970  -31.2730 N   0  0  0  0  0  0  0  0  0  0  0  0
   -8.9200   21.1810  -30.6420 C   0  0  0  0  0  0  0  0  0  0  0  0
   -9.8640   22.0340  -31.5150 C   0  0  0  0  0  0  0  0  0  0  0  0
   -9.1700   23.2030  -32.2330 C   0  0  0  0  0  0  0  0  0  0  0  0
   -7.7040   23.3520  -31.8230 C   0  0  0  0  0  0  0  0  0  0  0  0
   -6.9810   22.0140  -32.0170 C   0  0  0  0  0  0  0  0  0  0  0  0
   -5.1750   19.9330  -33.3600 C   0  0  0  0  0  0  0  0  0  0  0  0
   -3.8820   19.5970  -33.7710 C   0  0  0  0  0  0  0  0  0  0  0  0
   -0.9200   18.6640  -33.4760 C   0  0  0  0  0  0  0  0  0  0  0  0
   -0.6280   18.6210  -32.1040 C   0  0  0  0  0  0  0  0  0  0  0  0
    0.4780   19.3170  -31.5860 C   0  0  0  0  0  0  0  0  0  0  0  0
    0.7970   19.2860  -30.1390 C   0  0  0  0  0  0  0  0  0  0  0  0
    1.4570   18.3160  -29.6720 O   0  0  0  0  0  0  0  0  0  0  0  0
    0.3980   20.3580  -29.2680 N   0  0  0  0  0  0  0  0  0  0  0  0
    0.7580   20.3580  -27.8490 C   0  0  0  0  0  0  0  0  0  0  0  0
   -0.1940   21.2350  -27.0230 C   0  0  0  0  0  0  0  0  0  0  0  0
   -1.2270   21.9030  -27.8950 C   0  0  0  0  0  0  0  0  0  0  0  0
   -0.9620   23.1510  -28.4840 C   0  0  0  0  0  0  0  0  0  0  0  0
   -1.9400   23.7920  -29.2530 C   0  0  0  0  0  0  0  0  0  0  0  0
   -3.1970   23.1980  -29.4340 C   0  0  0  0  0  0  0  0  0  0  0  0
   -4.4320   24.0100  -30.3950 S   0  0  0  0  0  0  0  0  0  0  0  0
   -3.9930   25.6680  -30.6090 N   0  0  0  0  0  0  0  0  0  0  0  0
   -4.5520   23.3450  -31.7370 O   0  0  0  0  0  0  0  0  0  0  0  0
   -5.7580   23.9310  -29.6950 O   0  0  0  0  0  0  0  0  0  0  0  0
   -3.4600   21.9480  -28.8580 C   0  0  0  0  0  0  0  0  0  0  0  0
   -2.4820   21.3040  -28.0930 C   0  0  0  0  0  0  0  0  0  0  0  0
    1.3020   20.0390  -32.4670 C   0  0  0  0  0  0  0  0  0  0  0  0
    1.0150   20.0840  -33.8350 C   0  0  0  0  0  0  0  0  0  0  0  0
    2.1570   21.0850  -35.0010 Br  0  0  0  0  0  0  0  0  0  0  0  0
   -0.0940   19.3980  -34.3440 C   0  0  0  0  0  0  0  0  0  0  0  0
   -0.3690   19.4290  -35.7100 O   0  0  0  0  0  0  0  0  0  0  0  0
   -1.5697   15.9797  -34.6324 H   0  0  0  0  0  0  0  0  0  0  0  0
   -2.7127   16.8759  -35.6894 H   0  0  0  0  0  0  0  0  0  0  0  0
   -0.9675   17.3014  -35.6894 H   0  0  0  0  0  0  0  0  0  0  0  0
   -3.8769   16.2943  -32.8700 H   0  0  0  0  0  0  0  0  0  0  0  0
   -6.1757   16.8990  -32.1387 H   0  0  0  0  0  0  0  0  0  0  0  0
   -9.4167   20.2228  -30.4296 H   0  0  0  0  0  0  0  0  0  0  0  0
   -8.7158   21.7628  -29.7311 H   0  0  0  0  0  0  0  0  0  0  0  0
  -10.3155   21.3804  -32.2759 H   0  0  0  0  0  0  0  0  0  0  0  0
  -10.6097   22.4757  -30.8376 H   0  0  0  0  0  0  0  0  0  0  0  0
   -9.2173   23.0291  -33.3181 H   0  0  0  0  0  0  0  0  0  0  0  0
   -9.6930   24.1283  -31.9497 H   0  0  0  0  0  0  0  0  0  0  0  0
   -7.2252   24.1214  -32.4465 H   0  0  0  0  0  0  0  0  0  0  0  0
   -7.6472   23.6497  -30.7656 H   0  0  0  0  0  0  0  0  0  0  0  0
   -6.9858   21.7664  -33.0888 H   0  0  0  0  0  0  0  0  0  0  0  0
   -5.9604   22.1345  -31.6249 H   0  0  0  0  0  0  0  0  0  0  0  0
   -5.5492   20.9561  -33.5125 H   0  0  0  0  0  0  0  0  0  0  0  0
   -3.2433   20.3602  -34.2397 H   0  0  0  0  0  0  0  0  0  0  0  0
   -1.2703   18.0375  -31.4280 H   0  0  0  0  0  0  0  0  0  0  0  0
   -0.0700   21.1970  -29.6770 H   0  0  0  0  0  0  0  0  0  0  0  0
    0.7125   19.3266  -27.4694 H   0  0  0  0  0  0  0  0  0  0  0  0
    1.7740   20.7684  -27.7524 H   0  0  0  0  0  0  0  0  0  0  0  0
   -0.7062   20.6054  -26.2805 H   0  0  0  0  0  0  0  0  0  0  0  0
    0.3996   22.0186  -26.5294 H   0  0  0  0  0  0  0  0  0  0  0  0
    0.0193   23.6266  -28.3399 H   0  0  0  0  0  0  0  0  0  0  0  0
   -1.7217   24.7652  -29.7170 H   0  0  0  0  0  0  0  0  0  0  0  0
   -3.1430   25.6770  -31.2190 H   0  0  0  0  0  0  0  0  0  0  0  0
   -4.4398   21.4711  -29.0081 H   0  0  0  0  0  0  0  0  0  0  0  0
   -2.6969   20.3231  -27.6440 H   0  0  0  0  0  0  0  0  0  0  0  0
    2.1806   20.5735  -32.0767 H   0  0  0  0  0  0  0  0  0  0  0  0
  1  2  1  0
  2  3  1  0
  3  4  2  0
  4  5  1  0
  5  6  2  0
  6  7  1  0
  7  8  2  0
  7  9  2  0
  7 10  1  0
 10 11  1  0
 11 12  1  0
 12 13  1  0
 13 14  1  0
 14 15  1  0
  6 16  1  0
 16 17  2  0
  2 18  1  0
 18 19  2  0
 19 20  1  0
 20 21  1  0
 21 22  2  0
 21 23  1  0
 23 24  1  0
 24 25  1  0
 25 26  1  0
 26 27  2  0
 27 28  1  0
 28 29  2  0
 29 30  1  0
 30 31  1  0
 30 32  2  0
 30 33  2  0
 29 34  1  0
 34 35  2  0
 20 36  2  0
 36 37  1  0
 37 38  1  0
 37 39  2  0
 39 40  1  0
 17  3  1  0
 39 18  1  0
 15 10  1  0
 35 26  1  0
  1 41  1  0
  1 42  1  0
  1 43  1  0
  4 44  1  0
  5 45  1  0
 11 46  1  0
 11 47  1  0
 12 48  1  0
 12 49  1  0
 13 50  1  0
 13 51  1  0
 14 52  1  0
 14 53  1  0
 15 54  1  0
 15 55  1  0
 16 56  1  0
 17 57  1  0
 19 58  1  0
 23 59  1  0
 24 60  1  0
 24 61  1  0
 25 62  1  0
 25 63  1  0
 27 64  1  0
 28 65  1  0
 31 66  1  0
 34 67  1  0
 35 68  1  0
 36 69  1  0
M  CHG  2  31  -1  40  -1
M  END
>  <UniqueID>  (10) 
10

>  <SMILES>  (10) 
CN(c1ccc(S(=O)(=O)N2CCCCC2)cc1)c1cc(C(=O)NCCc2ccc(S([NH-])(=O)=O)cc2)cc(Br)c1[O-]

>  <Energy>  (10) 
86.05555864832088

>  <Genealogy>  (10) 
CN(c1ccc(S(=O)(=O)N2CCCCC2)cc1)c1cc(C(=O)NCCc2ccc(S([NH-])(=O)=O)cc2)cc(Br)c1[O-] (protonated)
CN(c1ccc(S(=O)(=O)N2CCCCC2)cc1)c1cc(C(=O)NCCc2ccc(S([NH-])(=O)=O)cc2)cc(Br)c1[O-] (3D coordinates assigned)
CN(c1ccc(S(=O)(=O)N2CCCCC2)cc1)c1cc(C(=O)NCCc2ccc(S([NH-])(=O)=O)cc2)cc(Br)c1[O-] (nonaromatic ring conformer: 86.05555864832088 kcal/mol)

>  <smiles>  (10) 
CN(c1ccc(S(=O)(=O)N2CCCCC2)cc1)c1cc(C(=O)NCCc2ccc(S(N)(=O)=O)cc2)cc(Br)c1O

>  <score_type>  (10) 
oracle

>  <origin>  (10) 
adgpu

>  <m_score__min__energy>  (10) 
-14.33

>  <m_primary>  (10) 
energy

$$$$
10:0
     RDKit          3D

 62 65  0  0  0  0  0  0  0  0999 V2000
   -8.9820   23.1440  -32.0650 C   0  0  0  0  0  0  0  0  0  0  0  0
   -8.5030   21.7200  -31.9670 C   0  0  0  0  0  0  0  0  0  0  0  0
   -9.4550   20.6990  -32.1140 C   0  0  0  0  0  0  0  0  0  0  0  0
   -9.0810   19.3610  -32.0770 C   0  0  0  0  0  0  0  0  0  0  0  0
   -7.7400   19.0020  -31.9030 C   0  0  0  0  0  0  0  0  0  0  0  0
   -7.3450   17.6240  -31.9240 N   0  0  0  0  0  0  0  0  0  0  0  0
   -6.0650   17.1430  -32.3410 C   0  0  0  0  0  0  0  0  0  0  0  0
   -5.4440   16.3320  -31.6040 O   0  0  0  0  0  0  0  0  0  0  0  0
   -5.5440   17.4990  -33.6270 N   0  0  0  0  0  0  0  0  0  0  0  0
   -4.1700   17.7700  -33.9260 C   0  0  0  0  0  0  0  0  0  0  0  0
   -3.3160   16.7710  -34.4230 C   0  0  0  0  0  0  0  0  0  0  0  0
   -1.9650   17.0500  -34.6460 C   0  0  0  0  0  0  0  0  0  0  0  0
   -1.4550   18.3200  -34.3660 C   0  0  0  0  0  0  0  0  0  0  0  0
   -2.2950   19.3220  -33.8620 C   0  0  0  0  0  0  0  0  0  0  0  0
   -1.6480   20.9220  -33.4960 S   0  0  0  0  0  0  0  0  0  0  0  0
   -0.6730   21.3020  -34.5780 O   0  0  0  0  0  0  0  0  0  0  0  0
   -2.7640   21.9300  -33.4840 O   0  0  0  0  0  0  0  0  0  0  0  0
   -0.8260   20.9050  -31.9520 N   0  0  0  0  0  0  0  0  0  0  0  0
   -0.6750   19.5170  -31.4690 C   0  0  0  0  0  0  0  0  0  0  0  0
   -0.4600   19.4890  -29.9460 C   0  0  0  0  0  0  0  0  0  0  0  0
   -1.5260   20.0640  -29.1980 O   0  0  0  0  0  0  0  0  0  0  0  0
   -2.3190   20.9800  -29.9410 C   0  0  0  0  0  0  0  0  0  0  0  0
   -1.5090   21.7820  -30.9750 C   0  0  0  0  0  0  0  0  0  0  0  0
   -3.6520   19.0390  -33.6390 C   0  0  0  0  0  0  0  0  0  0  0  0
   -6.7640   20.0080  -31.7810 C   0  0  0  0  0  0  0  0  0  0  0  0
   -5.4200   19.6510  -31.6420 O   0  0  0  0  0  0  0  0  0  0  0  0
   -7.1340   21.3770  -31.7790 C   0  0  0  0  0  0  0  0  0  0  0  0
   -5.8620   22.6170  -31.5400 S   0  0  0  0  0  0  0  0  0  0  0  0
   -5.9120   23.6460  -32.6350 O   0  0  0  0  0  0  0  0  0  0  0  0
   -4.5180   21.9490  -31.6470 O   0  0  0  0  0  0  0  0  0  0  0  0
   -5.9430   23.4160  -29.9780 N   0  0  0  0  0  0  0  0  0  0  0  0
   -6.4660   24.7910  -30.0570 C   0  0  0  0  0  0  0  0  0  0  0  0
   -5.3780   25.8260  -30.4260 C   0  0  0  0  0  0  0  0  0  0  0  0
   -4.0910   25.2510  -30.5290 O   0  0  0  0  0  0  0  0  0  0  0  0
   -3.7890   24.5520  -29.3430 C   0  0  0  0  0  0  0  0  0  0  0  0
   -4.7020   23.3200  -29.1810 C   0  0  0  0  0  0  0  0  0  0  0  0
   -9.1202   23.5548  -31.0540 H   0  0  0  0  0  0  0  0  0  0  0  0
   -8.2366   23.7452  -32.6063 H   0  0  0  0  0  0  0  0  0  0  0  0
   -9.9392   23.1725  -32.6063 H   0  0  0  0  0  0  0  0  0  0  0  0
  -10.5130   20.9619  -32.2607 H   0  0  0  0  0  0  0  0  0  0  0  0
   -9.8457   18.5777  -32.1854 H   0  0  0  0  0  0  0  0  0  0  0  0
   -3.7117   15.7672  -34.6370 H   0  0  0  0  0  0  0  0  0  0  0  0
   -1.3015   16.2676  -35.0430 H   0  0  0  0  0  0  0  0  0  0  0  0
   -0.3905   18.5342  -34.5417 H   0  0  0  0  0  0  0  0  0  0  0  0
   -1.5839   18.9485  -31.7154 H   0  0  0  0  0  0  0  0  0  0  0  0
    0.2021   19.0672  -31.9573 H   0  0  0  0  0  0  0  0  0  0  0  0
   -0.3441   18.4410  -29.6327 H   0  0  0  0  0  0  0  0  0  0  0  0
    0.4347   20.0951  -29.7407 H   0  0  0  0  0  0  0  0  0  0  0  0
   -3.1011   20.4161  -30.4705 H   0  0  0  0  0  0  0  0  0  0  0  0
   -2.7422   21.7011  -29.2262 H   0  0  0  0  0  0  0  0  0  0  0  0
   -2.1920   22.4522  -31.5175 H   0  0  0  0  0  0  0  0  0  0  0  0
   -0.7377   22.3493  -30.4335 H   0  0  0  0  0  0  0  0  0  0  0  0
   -4.3133   19.8201  -33.2358 H   0  0  0  0  0  0  0  0  0  0  0  0
   -5.0720   18.7220  -31.8460 H   0  0  0  0  0  0  0  0  0  0  0  0
   -7.2556   24.8232  -30.8222 H   0  0  0  0  0  0  0  0  0  0  0  0
   -6.8513   25.0564  -29.0614 H   0  0  0  0  0  0  0  0  0  0  0  0
   -5.6386   26.2810  -31.3930 H   0  0  0  0  0  0  0  0  0  0  0  0
   -5.3442   26.5742  -29.6204 H   0  0  0  0  0  0  0  0  0  0  0  0
   -2.7406   24.2209  -29.3774 H   0  0  0  0  0  0  0  0  0  0  0  0
   -3.9524   25.2246  -28.4881 H   0  0  0  0  0  0  0  0  0  0  0  0
   -4.1465   22.4266  -29.5024 H   0  0  0  0  0  0  0  0  0  0  0  0
   -4.9932   23.2615  -28.1219 H   0  0  0  0  0  0  0  0  0  0  0  0
  1  2  1  0
  2  3  2  0
  3  4  1  0
  4  5  2  0
  5  6  1  0
  6  7  1  0
  7  8  2  0
  7  9  1  0
  9 10  1  0
 10 11  2  0
 11 12  1  0
 12 13  2  0
 13 14  1  0
 14 15  1  0
 15 16  2  0
 15 17  2  0
 15 18  1  0
 18 19  1  0
 19 20  1  0
 20 21  1  0
 21 22  1  0
 22 23  1  0
 14 24  2  0
  5 25  1  0
 25 26  1  0
 25 27  2  0
 27 28  1  0
 28 29  2  0
 28 30  2  0
 28 31  1  0
 31 32  1  0
 32 33  1  0
 33 34  1  0
 34 35  1  0
 35 36  1  0
 27  2  1  0
 36 31  1  0
 24 10  1  0
 23 18  1  0
  1 37  1  0
  1 38  1  0
  1 39  1  0
  3 40  1  0
  4 41  1  0
 11 42  1  0
 12 43  1  0
 13 44  1  0
 19 45  1  0
 19 46  1  0
 20 47  1  0
 20 48  1  0
 22 49  1  0
 22 50  1  0
 23 51  1  0
 23 52  1  0
 24 53  1  0
 26 54  1  0
 32 55  1  0
 32 56  1  0
 33 57  1  0
 33 58  1  0
 35 59  1  0
 35 60  1  0
 36 61  1  0
 36 62  1  0
M  CHG  2   6  -1   9  -1
M  END
>  <UniqueID>  (11) 
11

>  <SMILES>  (11) 
Cc1ccc([N-]C(=O)[N-]c2cccc(S(=O)(=O)N3CCOCC3)c2)c(O)c1S(=O)(=O)N1CCOCC1

>  <Energy>  (11) 
100.45483822620962

>  <Genealogy>  (11) 
Cc1ccc([N-]C(=O)[N-]c2cccc(S(=O)(=O)N3CCOCC3)c2)c(O)c1S(=O)(=O)N1CCOCC1 (protonated)
Cc1ccc([N-]C(=O)[N-]c2cccc(S(=O)(=O)N3CCOCC3)c2)c(O)c1S(=O)(=O)N1CCOCC1 (3D coordinates assigned)
Cc1ccc([N-]C(=O)[N-]c2cccc(S(=O)(=O)N3CCOCC3)c2)c(O)c1S(=O)(=O)N1CCOCC1 (nonaromatic ring conformer: 100.45483822620962 kcal/mol)

>  <smiles>  (11) 
Cc1ccc(NC(=O)Nc2cccc(S(=O)(=O)N3CCOCC3)c2)c(O)c1S(=O)(=O)N1CCOCC1

>  <score_type>  (11) 
oracle

>  <origin>  (11) 
adgpu

>  <m_score__min__energy>  (11) 
-14.94

>  <m_primary>  (11) 
energy

$$$$
11:0
     RDKit          3D

 56 59  0  0  0  0  0  0  0  0999 V2000
   -3.4260   20.7940  -32.9090 O   0  0  0  0  0  0  0  0  0  0  0  0
   -3.9340   21.7470  -32.2610 C   0  0  0  0  0  0  0  0  0  0  0  0
   -3.0630   22.7370  -31.6960 N   0  0  0  0  0  0  0  0  0  0  0  0
   -2.8380   22.9590  -30.2960 C   0  0  0  0  0  0  0  0  0  0  0  0
   -2.4610   21.8720  -29.4980 C   0  0  0  0  0  0  0  0  0  0  0  0
   -2.2150   22.0460  -28.1290 C   0  0  0  0  0  0  0  0  0  0  0  0
   -1.7380   20.6760  -27.1310 S   0  0  0  0  0  0  0  0  0  0  0  0
   -1.0450   21.1680  -25.8900 O   0  0  0  0  0  0  0  0  0  0  0  0
   -2.9670   19.9130  -26.7190 O   0  0  0  0  0  0  0  0  0  0  0  0
   -0.6860   19.6300  -28.0500 N   0  0  0  0  0  0  0  0  0  0  0  0
    0.7040   20.0800  -27.9790 C   0  0  0  0  0  0  0  0  0  0  0  0
    1.5700   18.8460  -28.1840 C   0  0  0  0  0  0  0  0  0  0  0  0
    0.6650   17.6640  -27.8700 C   0  0  0  0  0  0  0  0  0  0  0  0
   -0.6830   18.2710  -27.5120 C   0  0  0  0  0  0  0  0  0  0  0  0
   -2.3790   23.3100  -27.5510 C   0  0  0  0  0  0  0  0  0  0  0  0
   -2.7860   24.3910  -28.3330 C   0  0  0  0  0  0  0  0  0  0  0  0
   -3.0300   24.2220  -29.7000 C   0  0  0  0  0  0  0  0  0  0  0  0
   -3.4950   25.3020  -30.4430 O   0  0  0  0  0  0  0  0  0  0  0  0
   -5.4080   21.8280  -32.1280 C   0  0  0  0  0  0  0  0  0  0  0  0
   -6.1690   20.6500  -32.2060 C   0  0  0  0  0  0  0  0  0  0  0  0
   -7.5610   20.6890  -32.0590 C   0  0  0  0  0  0  0  0  0  0  0  0
   -8.5080   19.2080  -32.1630 S   0  0  0  0  0  0  0  0  0  0  0  0
   -9.1270   18.9070  -30.8240 O   0  0  0  0  0  0  0  0  0  0  0  0
   -9.6120   19.3940  -33.1660 O   0  0  0  0  0  0  0  0  0  0  0  0
   -7.4750   17.8960  -32.6710 N   0  0  0  0  0  0  0  0  0  0  0  0
   -6.6820   18.2650  -33.8430 C   0  0  0  0  0  0  0  0  0  0  0  0
   -5.4200   17.4210  -33.7960 C   0  0  0  0  0  0  0  0  0  0  0  0
   -5.2960   16.9640  -32.3500 C   0  0  0  0  0  0  0  0  0  0  0  0
   -6.5010   17.5530  -31.6350 C   0  0  0  0  0  0  0  0  0  0  0  0
   -8.2030   21.9160  -31.8580 C   0  0  0  0  0  0  0  0  0  0  0  0
   -7.4580   23.0960  -31.8010 C   0  0  0  0  0  0  0  0  0  0  0  0
   -6.0640   23.0620  -31.9460 C   0  0  0  0  0  0  0  0  0  0  0  0
   -5.3400   24.2550  -31.9360 O   0  0  0  0  0  0  0  0  0  0  0  0
   -2.3571   20.8740  -29.9488 H   0  0  0  0  0  0  0  0  0  0  0  0
    0.9044   20.8199  -28.7679 H   0  0  0  0  0  0  0  0  0  0  0  0
    0.9176   20.5590  -27.0121 H   0  0  0  0  0  0  0  0  0  0  0  0
    1.9259   18.7934  -29.2235 H   0  0  0  0  0  0  0  0  0  0  0  0
    2.4633   18.8605  -27.5422 H   0  0  0  0  0  0  0  0  0  0  0  0
    0.5706   17.0078  -28.7478 H   0  0  0  0  0  0  0  0  0  0  0  0
    1.0662   17.0477  -27.0520 H   0  0  0  0  0  0  0  0  0  0  0  0
   -1.4958   17.6827  -27.9628 H   0  0  0  0  0  0  0  0  0  0  0  0
   -0.8391   18.2754  -26.4231 H   0  0  0  0  0  0  0  0  0  0  0  0
   -2.1864   23.4514  -26.4773 H   0  0  0  0  0  0  0  0  0  0  0  0
   -2.9157   25.3814  -27.8724 H   0  0  0  0  0  0  0  0  0  0  0  0
   -5.6667   19.6877  -32.3843 H   0  0  0  0  0  0  0  0  0  0  0  0
   -7.2453   18.0545  -34.7641 H   0  0  0  0  0  0  0  0  0  0  0  0
   -6.4419   19.3385  -33.8377 H   0  0  0  0  0  0  0  0  0  0  0  0
   -5.5108   16.5545  -34.4675 H   0  0  0  0  0  0  0  0  0  0  0  0
   -4.5358   17.9869  -34.1244 H   0  0  0  0  0  0  0  0  0  0  0  0
   -5.3125   15.8657  -32.2909 H   0  0  0  0  0  0  0  0  0  0  0  0
   -4.3498   17.2944  -31.8966 H   0  0  0  0  0  0  0  0  0  0  0  0
   -6.9290   16.8145  -30.9412 H   0  0  0  0  0  0  0  0  0  0  0  0
   -6.2193   18.4386  -31.0464 H   0  0  0  0  0  0  0  0  0  0  0  0
   -9.2966   21.9513  -31.7447 H   0  0  0  0  0  0  0  0  0  0  0  0
   -7.9679   24.0575  -31.6414 H   0  0  0  0  0  0  0  0  0  0  0  0
   -4.3860   24.2950  -31.5990 H   0  0  0  0  0  0  0  0  0  0  0  0
  1  2  2  0
  2  3  1  0
  3  4  1  0
  4  5  2  0
  5  6  1  0
  6  7  1  0
  7  8  2  0
  7  9  2  0
  7 10  1  0
 10 11  1  0
 11 12  1  0
 12 13  1  0
 13 14  1  0
  6 15  2  0
 15 16  1  0
 16 17  2  0
 17 18  1  0
  2 19  1  0
 19 20  2  0
 20 21  1  0
 21 22  1  0
 22 23  2  0
 22 24  2  0
 22 25  1  0
 25 26  1  0
 26 27  1  0
 27 28  1  0
 28 29  1  0
 21 30  2  0
 30 31  1  0
 31 32  2  0
 32 33  1  0
 17  4  1  0
 32 19  1  0
 14 10  1  0
 29 25  1  0
  5 34  1  0
 11 35  1  0
 11 36  1  0
 12 37  1  0
 12 38  1  0
 13 39  1  0
 13 40  1  0
 14 41  1  0
 14 42  1  0
 15 43  1  0
 16 44  1  0
 20 45  1  0
 26 46  1  0
 26 47  1  0
 27 48  1  0
 27 49  1  0
 28 50  1  0
 28 51  1  0
 29 52  1  0
 29 53  1  0
 30 54  1  0
 31 55  1  0
 33 56  1  0
M  CHG  2   3  -1  18  -1
M  END
>  <UniqueID>  (12) 
12

>  <SMILES>  (12) 
O=C([N-]c1cc(S(=O)(=O)N2CCCC2)ccc1[O-])c1cc(S(=O)(=O)N2CCCC2)ccc1O

>  <Energy>  (12) 
68.58948717988922

>  <Genealogy>  (12) 
O=C([N-]c1cc(S(=O)(=O)N2CCCC2)ccc1[O-])c1cc(S(=O)(=O)N2CCCC2)ccc1O (protonated)
O=C([N-]c1cc(S(=O)(=O)N2CCCC2)ccc1[O-])c1cc(S(=O)(=O)N2CCCC2)ccc1O (3D coordinates assigned)
O=C([N-]c1cc(S(=O)(=O)N2CCCC2)ccc1[O-])c1cc(S(=O)(=O)N2CCCC2)ccc1O (nonaromatic ring conformer: 68.58948717988922 kcal/mol)

>  <smiles>  (12) 
O=C(Nc1cc(S(=O)(=O)N2CCCC2)ccc1O)c1cc(S(=O)(=O)N2CCCC2)ccc1O

>  <score_type>  (12) 
oracle

>  <origin>  (12) 
adgpu

>  <m_score__min__energy>  (12) 
-14.27

>  <m_primary>  (12) 
energy

$$$$
12:0
     RDKit          3D

 58 62  0  0  0  0  0  0  0  0999 V2000
   -6.2700   25.6700  -29.5740 C   0  0  0  0  0  0  0  0  0  0  0  0
   -5.1820   25.1550  -30.4580 C   0  0  0  0  0  0  0  0  0  0  0  0
   -5.4700   24.6730  -31.5870 O   0  0  0  0  0  0  0  0  0  0  0  0
   -3.8170   25.2910  -30.0420 N   0  0  0  0  0  0  0  0  0  0  0  0
   -2.8330   24.2480  -29.9730 C   0  0  0  0  0  0  0  0  0  0  0  0
   -1.8750   24.2990  -28.9550 C   0  0  0  0  0  0  0  0  0  0  0  0
   -0.9060   23.3020  -28.8450 C   0  0  0  0  0  0  0  0  0  0  0  0
   -0.8920   22.2320  -29.7430 C   0  0  0  0  0  0  0  0  0  0  0  0
   -1.8650   22.1370  -30.7570 C   0  0  0  0  0  0  0  0  0  0  0  0
   -1.8680   21.0140  -31.6700 N   0  0  0  0  0  0  0  0  0  0  0  0
   -0.9390   20.8620  -32.7970 C   0  0  0  0  0  0  0  0  0  0  0  0
   -1.3410   19.5690  -33.4000 C   0  0  0  0  0  0  0  0  0  0  0  0
   -0.7680   18.9150  -34.4910 C   0  0  0  0  0  0  0  0  0  0  0  0
   -1.2860   17.6660  -34.8730 C   0  0  0  0  0  0  0  0  0  0  0  0
   -2.3680   17.0960  -34.1660 C   0  0  0  0  0  0  0  0  0  0  0  0
   -2.9330   15.4760  -34.5610 S   0  0  0  0  0  0  0  0  0  0  0  0
   -2.7410   15.2190  -36.0300 O   0  0  0  0  0  0  0  0  0  0  0  0
   -2.1660   14.4360  -33.7860 O   0  0  0  0  0  0  0  0  0  0  0  0
   -4.6200   15.3850  -34.1710 N   0  0  0  0  0  0  0  0  0  0  0  0
   -5.3700   16.5820  -33.9590 C   0  0  0  0  0  0  0  0  0  0  0  0
   -6.0980   16.7510  -32.7750 C   0  0  0  0  0  0  0  0  0  0  0  0
   -6.8110   17.9350  -32.5430 C   0  0  0  0  0  0  0  0  0  0  0  0
   -6.7610   18.9760  -33.4920 C   0  0  0  0  0  0  0  0  0  0  0  0
   -6.0340   18.8000  -34.6820 C   0  0  0  0  0  0  0  0  0  0  0  0
   -5.3350   17.6080  -34.9140 C   0  0  0  0  0  0  0  0  0  0  0  0
   -4.5870   17.4460  -36.0840 O   0  0  0  0  0  0  0  0  0  0  0  0
   -7.5720   20.2360  -33.2970 C   0  0  0  0  0  0  0  0  0  0  0  0
   -7.9150   20.4700  -31.8860 N   0  0  0  0  0  0  0  0  0  0  0  0
   -8.5340   19.2760  -31.2940 C   0  0  0  0  0  0  0  0  0  0  0  0
   -7.5320   18.1170  -31.2300 C   0  0  0  0  0  0  0  0  0  0  0  0
   -2.9240   17.7770  -33.0680 C   0  0  0  0  0  0  0  0  0  0  0  0
   -2.3920   19.0160  -32.7090 C   0  0  0  0  0  0  0  0  0  0  0  0
   -2.7970   19.8820  -31.5780 C   0  0  0  0  0  0  0  0  0  0  0  0
   -2.8390   23.1520  -30.8570 C   0  0  0  0  0  0  0  0  0  0  0  0
   -5.9823   25.5338  -28.5211 H   0  0  0  0  0  0  0  0  0  0  0  0
   -6.4303   26.7396  -29.7749 H   0  0  0  0  0  0  0  0  0  0  0  0
   -7.1988   25.1160  -29.7749 H   0  0  0  0  0  0  0  0  0  0  0  0
   -1.8860   25.1315  -28.2360 H   0  0  0  0  0  0  0  0  0  0  0  0
   -0.1499   23.3584  -28.0481 H   0  0  0  0  0  0  0  0  0  0  0  0
   -0.1153   21.4578  -29.6576 H   0  0  0  0  0  0  0  0  0  0  0  0
   -1.0553   21.6854  -33.5170 H   0  0  0  0  0  0  0  0  0  0  0  0
    0.1170   20.8832  -32.4896 H   0  0  0  0  0  0  0  0  0  0  0  0
    0.0710   19.3673  -35.0402 H   0  0  0  0  0  0  0  0  0  0  0  0
   -0.8468   17.1294  -35.7269 H   0  0  0  0  0  0  0  0  0  0  0  0
   -6.1104   15.9492  -32.0220 H   0  0  0  0  0  0  0  0  0  0  0  0
   -6.0137   19.6019  -35.4347 H   0  0  0  0  0  0  0  0  0  0  0  0
   -4.0540   16.6010  -36.2640 H   0  0  0  0  0  0  0  0  0  0  0  0
   -6.9880   21.0924  -33.6652 H   0  0  0  0  0  0  0  0  0  0  0  0
   -8.5124   20.1190  -33.8555 H   0  0  0  0  0  0  0  0  0  0  0  0
   -7.0390   20.7010  -31.3570 H   0  0  0  0  0  0  0  0  0  0  0  0
   -8.8752   19.5141  -30.2757 H   0  0  0  0  0  0  0  0  0  0  0  0
   -9.3844   18.9721  -31.9220 H   0  0  0  0  0  0  0  0  0  0  0  0
   -6.7930   18.3267  -30.4427 H   0  0  0  0  0  0  0  0  0  0  0  0
   -8.0871   17.1931  -31.0106 H   0  0  0  0  0  0  0  0  0  0  0  0
   -3.7616   17.3414  -32.5035 H   0  0  0  0  0  0  0  0  0  0  0  0
   -3.8386   20.2169  -31.6915 H   0  0  0  0  0  0  0  0  0  0  0  0
   -2.7548   19.3685  -30.6061 H   0  0  0  0  0  0  0  0  0  0  0  0
   -3.6133   23.0867  -31.6356 H   0  0  0  0  0  0  0  0  0  0  0  0
  1  2  1  0
  2  3  2  0
  2  4  1  0
  4  5  1  0
  5  6  2  0
  6  7  1  0
  7  8  2  0
  8  9  1  0
  9 10  1  0
 10 11  1  0
 11 12  1  0
 12 13  2  0
 13 14  1  0
 14 15  2  0
 15 16  1  0
 16 17  2  0
 16 18  2  0
 16 19  1  0
 19 20  1  0
 20 21  2  0
 21 22  1  0
 22 23  2  0
 23 24  1  0
 24 25  2  0
 25 26  1  0
 23 27  1  0
 27 28  1  0
 28 29  1  0
 29 30  1  0
 15 31  1  0
 31 32  2  0
 32 33  1  0
  9 34  2  0
 34  5  1  0
 33 10  1  0
 32 12  1  0
 25 20  1  0
 30 22  1  0
  1 35  1  0
  1 36  1  0
  1 37  1  0
  6 38  1  0
  7 39  1  0
  8 40  1  0
 11 41  1  0
 11 42  1  0
 13 43  1  0
 14 44  1  0
 21 45  1  0
 24 46  1  0
 26 47  1  0
 27 48  1  0
 27 49  1  0
 28 50  1  0
 29 51  1  0
 29 52  1  0
 30 53  1  0
 30 54  1  0
 31 55  1  0
 33 56  1  0
 33 57  1  0
 34 58  1  0
M  CHG  2   4  -1  19  -1
M  END
>  <UniqueID>  (13) 
13

>  <SMILES>  (13) 
CC(=O)[N-]c1cccc(N2Cc3ccc(S(=O)(=O)[N-]c4cc5c(cc4O)CNCC5)cc3C2)c1

>  <Energy>  (13) 
86.32587383193

>  <Genealogy>  (13) 
CC(=O)[N-]c1cccc(N2Cc3ccc(S(=O)(=O)[N-]c4cc5c(cc4O)CNCC5)cc3C2)c1 (protonated)
CC(=O)[N-]c1cccc(N2Cc3ccc(S(=O)(=O)[N-]c4cc5c(cc4O)CNCC5)cc3C2)c1 (3D coordinates assigned)
CC(=O)[N-]c1cccc(N2Cc3ccc(S(=O)(=O)[N-]c4cc5c(cc4O)CNCC5)cc3C2)c1 (nonaromatic ring conformer: 86.32587383193 kcal/mol)

>  <smiles>  (13) 
CC(=O)Nc1cccc(N2Cc3ccc(S(=O)(=O)Nc4cc5c(cc4O)CNCC5)cc3C2)c1

>  <score_type>  (13) 
oracle

>  <origin>  (13) 
adgpu

>  <m_score__min__energy>  (13) 
-13.130000000000001

>  <m_primary>  (13) 
energy

$$$$
13:0
     RDKit          3D

 45 48  0  0  0  0  0  0  0  0999 V2000
    1.1320   22.8770  -27.4340 N   0  0  0  0  0  0  0  0  0  0  0  0
    1.0410   21.7370  -27.6160 C   0  0  0  0  0  0  0  0  0  0  0  0
    0.9300   20.3160  -27.8410 C   0  0  0  0  0  0  0  0  0  0  0  0
    2.0180   19.6370  -28.4080 C   0  0  0  0  0  0  0  0  0  0  0  0
    1.9480   18.2610  -28.6360 C   0  0  0  0  0  0  0  0  0  0  0  0
    0.7930   17.5540  -28.2990 C   0  0  0  0  0  0  0  0  0  0  0  0
   -0.2970   18.2190  -27.7340 C   0  0  0  0  0  0  0  0  0  0  0  0
   -0.2420   19.6040  -27.5000 C   0  0  0  0  0  0  0  0  0  0  0  0
   -1.6350   20.4180  -26.7710 S   0  0  0  0  0  0  0  0  0  0  0  0
   -1.2580   21.0440  -25.4580 O   0  0  0  0  0  0  0  0  0  0  0  0
   -2.7140   19.4000  -26.5270 O   0  0  0  0  0  0  0  0  0  0  0  0
   -2.2120   21.6830  -27.8520 C   0  0  0  0  0  0  0  0  0  0  0  0
   -2.8420   22.8160  -27.3230 C   0  0  0  0  0  0  0  0  0  0  0  0
   -3.2940   23.8300  -28.1730 C   0  0  0  0  0  0  0  0  0  0  0  0
   -3.1110   23.7320  -29.5580 C   0  0  0  0  0  0  0  0  0  0  0  0
   -3.6080   24.7860  -30.3950 N   0  0  0  0  0  0  0  0  0  0  0  0
   -4.9590   24.9560  -30.8420 C   0  0  0  0  0  0  0  0  0  0  0  0
   -5.4980   26.0960  -30.8080 O   0  0  0  0  0  0  0  0  0  0  0  0
   -5.7420   23.7800  -31.2930 C   0  0  0  0  0  0  0  0  0  0  0  0
   -7.1460   23.8040  -31.2450 C   0  0  0  0  0  0  0  0  0  0  0  0
   -7.8800   22.6970  -31.6730 C   0  0  0  0  0  0  0  0  0  0  0  0
   -9.1400   22.7340  -31.6210 O   0  0  0  0  0  0  0  0  0  0  0  0
   -7.2110   21.5600  -32.1540 C   0  0  0  0  0  0  0  0  0  0  0  0
   -7.9100   20.4210  -32.5980 C   0  0  0  0  0  0  0  0  0  0  0  0
   -7.2110   19.3070  -33.0720 C   0  0  0  0  0  0  0  0  0  0  0  0
   -5.8160   19.3170  -33.1100 C   0  0  0  0  0  0  0  0  0  0  0  0
   -5.1090   20.4400  -32.6720 C   0  0  0  0  0  0  0  0  0  0  0  0
   -5.7970   21.5680  -32.1930 C   0  0  0  0  0  0  0  0  0  0  0  0
   -5.1060   22.6660  -31.7650 N   0  0  0  0  0  0  0  0  0  0  0  0
   -2.5040   22.5790  -30.0890 C   0  0  0  0  0  0  0  0  0  0  0  0
   -2.0520   21.5640  -29.2390 C   0  0  0  0  0  0  0  0  0  0  0  0
    2.9305   20.1905  -28.6743 H   0  0  0  0  0  0  0  0  0  0  0  0
    2.8043   17.7338  -29.0818 H   0  0  0  0  0  0  0  0  0  0  0  0
    0.7412   16.4701  -28.4789 H   0  0  0  0  0  0  0  0  0  0  0  0
   -1.2043   17.6557  -27.4704 H   0  0  0  0  0  0  0  0  0  0  0  0
   -2.9817   22.9086  -26.2358 H   0  0  0  0  0  0  0  0  0  0  0  0
   -3.7975   24.7120  -27.7504 H   0  0  0  0  0  0  0  0  0  0  0  0
   -7.6674   24.6968  -30.8695 H   0  0  0  0  0  0  0  0  0  0  0  0
   -9.0096   20.4078  -32.5718 H   0  0  0  0  0  0  0  0  0  0  0  0
   -7.7624   18.4196  -33.4162 H   0  0  0  0  0  0  0  0  0  0  0  0
   -5.2713   18.4383  -33.4858 H   0  0  0  0  0  0  0  0  0  0  0  0
   -4.0094   20.4411  -32.7023 H   0  0  0  0  0  0  0  0  0  0  0  0
   -4.0620   22.6470  -31.8030 H   0  0  0  0  0  0  0  0  0  0  0  0
   -2.3843   22.4752  -31.1775 H   0  0  0  0  0  0  0  0  0  0  0  0
   -1.5696   20.6699  -29.6607 H   0  0  0  0  0  0  0  0  0  0  0  0
  1  2  3  0
  2  3  1  0
  3  4  2  0
  4  5  1  0
  5  6  2  0
  6  7  1  0
  7  8  2  0
  8  9  1  0
  9 10  2  0
  9 11  2  0
  9 12  1  0
 12 13  2  0
 13 14  1  0
 14 15  2  0
 15 16  1  0
 16 17  1  0
 17 18  2  0
 17 19  1  0
 19 20  2  0
 20 21  1  0
 21 22  2  0
 21 23  1  0
 23 24  2  0
 24 25  1  0
 25 26  2  0
 26 27  1  0
 27 28  2  0
 28 29  1  0
 15 30  1  0
 30 31  2  0
  8  3  1  0
 31 12  1  0
 29 19  1  0
 28 23  1  0
  4 32  1  0
  5 33  1  0
  6 34  1  0
  7 35  1  0
 13 36  1  0
 14 37  1  0
 20 38  1  0
 24 39  1  0
 25 40  1  0
 26 41  1  0
 27 42  1  0
 29 43  1  0
 30 44  1  0
 31 45  1  0
M  CHG  1  16  -1
M  END
>  <UniqueID>  (14) 
14

>  <SMILES>  (14) 
N#Cc1ccccc1S(=O)(=O)c1ccc([N-]C(=O)c2cc(=O)c3ccccc3[nH]2)cc1

>  <Energy>  (14) 
61.569153982359154

>  <Genealogy>  (14) 
N#Cc1ccccc1S(=O)(=O)c1ccc([N-]C(=O)c2cc(=O)c3ccccc3[nH]2)cc1 (protonated)
N#Cc1ccccc1S(=O)(=O)c1ccc([N-]C(=O)c2cc(=O)c3ccccc3[nH]2)cc1 (3D coordinates assigned)
N#Cc1ccccc1S(=O)(=O)c1ccc([N-]C(=O)c2cc(=O)c3ccccc3[nH]2)cc1 (optimized conformer: 61.569153982359154 kcal/mol)

>  <smiles>  (14) 
N#Cc1ccccc1S(=O)(=O)c1ccc(NC(=O)c2cc(=O)c3ccccc3[nH]2)cc1

>  <score_type>  (14) 
oracle

>  <origin>  (14) 
adgpu

>  <m_score__min__energy>  (14) 
-11.91

>  <m_primary>  (14) 
energy

$$$$
14:0
     RDKit          3D

 63 66  0  0  1  0  0  0  0  0999 V2000
   -8.1990   18.6020  -32.5510 C   0  0  0  0  0  0  0  0  0  0  0  0
   -8.0950   19.9400  -33.0680 N   0  0  0  0  0  0  0  0  0  0  0  0
   -8.2560   21.1190  -31.8420 S   0  0  0  0  0  0  0  0  0  0  0  0
   -9.2180   22.1850  -32.3520 O   0  0  0  0  0  0  0  0  0  0  0  0
   -8.8310   20.4910  -30.6020 O   0  0  0  0  0  0  0  0  0  0  0  0
   -6.7120   21.8860  -31.5440 C   0  0  0  0  0  0  0  0  0  0  0  0
   -6.4790   22.6490  -30.4150 C   0  0  0  0  0  0  0  0  0  0  0  0
   -5.2330   23.2220  -30.2550 C   0  0  0  0  0  0  0  0  0  0  0  0
   -4.2340   23.0370  -31.2040 C   0  0  0  0  0  0  0  0  0  0  0  0
   -4.4460   22.2830  -32.3300 C   0  0  0  0  0  0  0  0  0  0  0  0
   -3.4870   22.0220  -33.3310 N   0  0  0  0  0  0  0  0  0  0  0  0
   -2.2560   21.3840  -33.1970 C   0  0  0  0  0  0  0  0  0  0  0  0
   -1.7540   21.1420  -31.9090 C   0  0  0  0  0  0  0  0  0  0  0  0
   -0.5430   20.5370  -31.6900 C   0  0  0  0  0  0  0  0  0  0  0  0
   -0.1460   20.3520  -30.4730 N   0  0  0  0  0  0  0  0  0  0  0  0
   -0.8900   20.7380  -29.3220 C   0  0  0  0  0  0  0  0  0  0  0  0
   -1.2980   22.0680  -29.1520 C   0  0  0  0  0  0  0  0  0  0  0  0
   -2.0230   22.4820  -28.0600 C   0  0  0  0  0  0  0  0  0  0  0  0
   -2.4370   23.8290  -27.9180 N   0  0  0  0  0  0  0  0  0  0  0  0
   -3.6480   24.2090  -27.1730 C   0  0  0  0  0  0  0  0  0  0  0  0
   -3.3370   25.3210  -26.1980 C   0  0  0  0  0  0  0  0  0  0  0  0
   -1.9880   25.7220  -26.1660 N   0  0  0  0  0  0  0  0  0  0  0  0
   -1.2510   25.4900  -24.9720 C   0  0  0  0  0  0  0  0  0  0  0  0
   -1.2650   25.8250  -27.3730 C   0  0  0  0  0  0  0  0  0  0  0  0
   -1.7150   24.9580  -28.5040 C   0  0  0  0  0  0  0  0  0  0  0  0
   -2.3430   21.5300  -27.1170 C   0  0  0  0  0  0  0  0  0  0  0  0
   -1.9420   20.2120  -27.2790 C   0  0  0  0  0  0  0  0  0  0  0  0
   -1.2170   19.7990  -28.3710 C   0  0  0  0  0  0  0  0  0  0  0  0
   -0.8660   18.4650  -28.4370 O   0  0  0  0  0  0  0  0  0  0  0  0
    0.4480   18.0900  -28.0940 C   0  0  0  0  0  0  0  0  0  0  0  0
    1.1460   17.5820  -29.1730 F   0  0  0  0  0  0  0  0  0  0  0  0
    0.3390   17.1470  -27.0800 F   0  0  0  0  0  0  0  0  0  0  0  0
    1.1770   19.1400  -27.5860 F   0  0  0  0  0  0  0  0  0  0  0  0
    0.1840   20.1660  -32.7550 N   0  0  0  0  0  0  0  0  0  0  0  0
   -0.2690   20.3850  -34.0260 C   0  0  0  0  0  0  0  0  0  0  0  0
   -1.4640   20.9830  -34.2020 N   0  0  0  0  0  0  0  0  0  0  0  0
   -5.7070   21.7170  -32.4700 C   0  0  0  0  0  0  0  0  0  0  0  0
   -8.1966   18.6326  -31.4514 H   0  0  0  0  0  0  0  0  0  0  0  0
   -9.1354   18.1446  -32.9031 H   0  0  0  0  0  0  0  0  0  0  0  0
   -7.3445   18.0054  -32.9031 H   0  0  0  0  0  0  0  0  0  0  0  0
   -8.7970   20.0620  -33.8290 H   0  0  0  0  0  0  0  0  0  0  0  0
   -7.2674   22.7961  -29.6621 H   0  0  0  0  0  0  0  0  0  0  0  0
   -5.0279   23.8336  -29.3640 H   0  0  0  0  0  0  0  0  0  0  0  0
   -3.2512   23.5060  -31.0483 H   0  0  0  0  0  0  0  0  0  0  0  0
   -3.7570   22.3650  -34.3070 H   0  0  0  0  0  0  0  0  0  0  0  0
   -2.3556   21.4497  -31.0410 H   0  0  0  0  0  0  0  0  0  0  0  0
   -1.0282   22.8075  -29.9204 H   0  0  0  0  0  0  0  0  0  0  0  0
   -4.4169   24.5517  -27.8810 H   0  0  0  0  0  0  0  0  0  0  0  0
   -4.0131   23.3348  -26.6140 H   0  0  0  0  0  0  0  0  0  0  0  0
   -3.9467   26.1949  -26.4708 H   0  0  0  0  0  0  0  0  0  0  0  0
   -3.5649   24.9259  -25.1970 H   0  0  0  0  0  0  0  0  0  0  0  0
   -1.8915   25.6916  -24.1007 H   0  0  0  0  0  0  0  0  0  0  0  0
   -0.9154   24.4428  -24.9459 H   0  0  0  0  0  0  0  0  0  0  0  0
   -0.3760   26.1562  -24.9459 H   0  0  0  0  0  0  0  0  0  0  0  0
   -1.3270   26.8703  -27.7099 H   0  0  0  0  0  0  0  0  0  0  0  0
   -0.2496   25.4782  -27.1308 H   0  0  0  0  0  0  0  0  0  0  0  0
   -2.3793   25.5247  -29.1730 H   0  0  0  0  0  0  0  0  0  0  0  0
   -0.8562   24.6092  -29.0963 H   0  0  0  0  0  0  0  0  0  0  0  0
   -2.9220   21.8178  -26.2271 H   0  0  0  0  0  0  0  0  0  0  0  0
   -2.2128   19.4743  -26.5093 H   0  0  0  0  0  0  0  0  0  0  0  0
    0.3336   20.0774  -34.8933 H   0  0  0  0  0  0  0  0  0  0  0  0
   -1.7540   21.1400  -35.1890 H   0  0  0  0  0  0  0  0  0  0  0  0
   -5.9120   21.1059  -33.3614 H   0  0  0  0  0  0  0  0  0  0  0  0
  1  2  1  0
  2  3  1  0
  3  4  2  0
  3  5  2  0
  3  6  1  0
  6  7  2  0
  7  8  1  0
  8  9  2  0
  9 10  1  0
 10 11  1  0
 11 12  1  0
 12 13  2  0
 13 14  1  0
 14 15  2  0
 15 16  1  0
 16 17  2  0
 17 18  1  0
 18 19  1  0
 19 20  1  0
 20 21  1  0
 21 22  1  0
 22 23  1  0
 22 24  1  0
 24 25  1  0
 18 26  2  0
 26 27  1  0
 27 28  2  0
 28 29  1  0
 29 30  1  0
 30 31  1  0
 30 32  1  0
 30 33  1  0
 14 34  1  0
 34 35  2  0
 35 36  1  0
 10 37  2  0
 37  6  1  0
 36 12  1  0
 28 16  1  0
 25 19  1  0
  1 38  1  0
  1 39  1  0
  1 40  1  0
  2 41  1  0
  7 42  1  0
  8 43  1  0
  9 44  1  0
 11 45  1  0
 13 46  1  0
 17 47  1  0
 20 48  1  0
 20 49  1  0
 21 50  1  0
 21 51  1  0
 23 52  1  0
 23 53  1  0
 23 54  1  0
 24 55  1  0
 24 56  1  0
 25 57  1  0
 25 58  1  0
 26 59  1  0
 27 60  1  0
 35 61  1  0
 36 62  1  0
 37 63  1  0
M  END
>  <smiles>  (15) 
CNS(=O)(=O)c1cccc(Nc2cc(=Nc3cc(N4CCN(C)CC4)ccc3OC(F)(F)F)nc[nH]2)c1

>  <score_type>  (15) 
oracle

>  <origin>  (15) 
adgpu

>  <m_score__min__energy>  (15) 
-9.6500000000000004

>  <m_primary>  (15) 
energy

$$$$
15:0
     RDKit          3D

 59 63  0  0  0  0  0  0  0  0999 V2000
    3.3120   30.8950  -23.6770 C   0  0  0  0  0  0  0  0  0  0  0  0
    2.2810   29.9200  -24.0600 N   0  0  0  0  0  0  0  0  0  0  0  0
    1.1880   30.5870  -24.8070 C   0  0  0  0  0  0  0  0  0  0  0  0
   -0.1220   29.7710  -24.8160 C   0  0  0  0  0  0  0  0  0  0  0  0
    0.1400   28.3570  -24.5180 N   0  0  0  0  0  0  0  0  0  0  0  0
   -0.4280   27.3110  -25.3320 C   0  0  0  0  0  0  0  0  0  0  0  0
   -0.3010   27.3470  -26.7300 C   0  0  0  0  0  0  0  0  0  0  0  0
   -0.8620   26.3390  -27.5190 C   0  0  0  0  0  0  0  0  0  0  0  0
   -1.5670   25.2760  -26.9260 C   0  0  0  0  0  0  0  0  0  0  0  0
   -2.1630   24.2050  -27.7630 C   0  0  0  0  0  0  0  0  0  0  0  0
   -1.9960   22.8530  -27.4150 C   0  0  0  0  0  0  0  0  0  0  0  0
   -2.5540   21.8400  -28.1990 C   0  0  0  0  0  0  0  0  0  0  0  0
   -3.2920   22.1610  -29.3450 C   0  0  0  0  0  0  0  0  0  0  0  0
   -3.8580   21.1510  -30.1370 C   0  0  0  0  0  0  0  0  0  0  0  0
   -4.6080   21.4800  -31.2760 C   0  0  0  0  0  0  0  0  0  0  0  0
   -5.2030   20.4150  -32.1100 C   0  0  0  0  0  0  0  0  0  0  0  0
   -6.5730   20.1430  -31.9670 C   0  0  0  0  0  0  0  0  0  0  0  0
   -7.1900   19.1680  -32.7550 C   0  0  0  0  0  0  0  0  0  0  0  0
   -8.5480   18.9130  -32.6090 O   0  0  0  0  0  0  0  0  0  0  0  0
   -6.4430   18.4550  -33.6930 C   0  0  0  0  0  0  0  0  0  0  0  0
   -5.0760   18.7050  -33.8370 C   0  0  0  0  0  0  0  0  0  0  0  0
   -4.4380   19.6730  -33.0450 C   0  0  0  0  0  0  0  0  0  0  0  0
   -2.6910   19.9030  -33.2280 S   0  0  0  0  0  0  0  0  0  0  0  0
   -2.3320   21.5820  -33.4380 N   0  0  0  0  0  0  0  0  0  0  0  0
   -1.9850   19.4000  -32.0010 O   0  0  0  0  0  0  0  0  0  0  0  0
   -2.1950   19.1600  -34.4360 O   0  0  0  0  0  0  0  0  0  0  0  0
   -4.7670   22.8260  -31.6380 C   0  0  0  0  0  0  0  0  0  0  0  0
   -4.2060   23.8380  -30.8560 C   0  0  0  0  0  0  0  0  0  0  0  0
   -3.4690   23.5180  -29.7070 C   0  0  0  0  0  0  0  0  0  0  0  0
   -2.9030   24.5280  -28.9150 C   0  0  0  0  0  0  0  0  0  0  0  0
   -1.6990   25.2470  -25.5260 C   0  0  0  0  0  0  0  0  0  0  0  0
   -1.1380   26.2550  -24.7390 C   0  0  0  0  0  0  0  0  0  0  0  0
    0.9270   28.0180  -23.3240 C   0  0  0  0  0  0  0  0  0  0  0  0
    1.7710   29.2140  -22.8710 C   0  0  0  0  0  0  0  0  0  0  0  0
    3.3728   30.9525  -22.5802 H   0  0  0  0  0  0  0  0  0  0  0  0
    4.2845   30.5785  -24.0821 H   0  0  0  0  0  0  0  0  0  0  0  0
    3.0503   31.8836  -24.0821 H   0  0  0  0  0  0  0  0  0  0  0  0
    0.9896   31.5633  -24.3406 H   0  0  0  0  0  0  0  0  0  0  0  0
    1.5184   30.6902  -25.8511 H   0  0  0  0  0  0  0  0  0  0  0  0
   -0.8055   30.1786  -24.0566 H   0  0  0  0  0  0  0  0  0  0  0  0
   -0.5736   29.8418  -25.8165 H   0  0  0  0  0  0  0  0  0  0  0  0
    0.2440   28.1746  -27.2076 H   0  0  0  0  0  0  0  0  0  0  0  0
   -0.7513   26.3772  -28.6127 H   0  0  0  0  0  0  0  0  0  0  0  0
   -1.4198   22.5899  -26.5157 H   0  0  0  0  0  0  0  0  0  0  0  0
   -2.4131   20.7867  -27.9150 H   0  0  0  0  0  0  0  0  0  0  0  0
   -3.7130   20.0954  -29.8635 H   0  0  0  0  0  0  0  0  0  0  0  0
   -7.1657   20.7023  -31.2282 H   0  0  0  0  0  0  0  0  0  0  0  0
   -6.9311   17.6946  -34.3203 H   0  0  0  0  0  0  0  0  0  0  0  0
   -4.4938   18.1378  -34.5782 H   0  0  0  0  0  0  0  0  0  0  0  0
   -2.0560   21.7120  -34.4370 H   0  0  0  0  0  0  0  0  0  0  0  0
   -5.3365   23.0857  -32.5425 H   0  0  0  0  0  0  0  0  0  0  0  0
   -4.3430   24.8911  -31.1429 H   0  0  0  0  0  0  0  0  0  0  0  0
   -3.0391   25.5824  -29.1973 H   0  0  0  0  0  0  0  0  0  0  0  0
   -2.2488   24.4234  -25.0470 H   0  0  0  0  0  0  0  0  0  0  0  0
   -1.2534   26.2213  -23.6456 H   0  0  0  0  0  0  0  0  0  0  0  0
    0.2437   27.7304  -22.5114 H   0  0  0  0  0  0  0  0  0  0  0  0
    1.6008   27.1843  -23.5708 H   0  0  0  0  0  0  0  0  0  0  0  0
    1.1503   29.8983  -22.2739 H   0  0  0  0  0  0  0  0  0  0  0  0
    2.6139   28.8627  -22.2577 H   0  0  0  0  0  0  0  0  0  0  0  0
  1  2  1  0
  2  3  1  0
  3  4  1  0
  4  5  1  0
  5  6  1  0
  6  7  2  0
  7  8  1  0
  8  9  2  0
  9 10  1  0
 10 11  2  0
 11 12  1  0
 12 13  2  0
 13 14  1  0
 14 15  2  0
 15 16  1  0
 16 17  2  0
 17 18  1  0
 18 19  1  0
 18 20  2  0
 20 21  1  0
 21 22  2  0
 22 23  1  0
 23 24  1  0
 23 25  2  0
 23 26  2  0
 15 27  1  0
 27 28  2  0
 28 29  1  0
 29 30  2  0
  9 31  1  0
 31 32  2  0
  5 33  1  0
 33 34  1  0
 34  2  1  0
 32  6  1  0
 30 10  1  0
 29 13  1  0
 22 16  1  0
  1 35  1  0
  1 36  1  0
  1 37  1  0
  3 38  1  0
  3 39  1  0
  4 40  1  0
  4 41  1  0
  7 42  1  0
  8 43  1  0
 11 44  1  0
 12 45  1  0
 14 46  1  0
 17 47  1  0
 20 48  1  0
 21 49  1  0
 24 50  1  0
 27 51  1  0
 28 52  1  0
 30 53  1  0
 31 54  1  0
 32 55  1  0
 33 56  1  0
 33 57  1  0
 34 58  1  0
 34 59  1  0
M  CHG  2  19  -1  24  -1
M  END
>  <UniqueID>  (16) 
15

>  <SMILES>  (16) 
CN1CCN(c2ccc(-c3ccc4cc(-c5cc([O-])ccc5S([NH-])(=O)=O)ccc4c3)cc2)CC1

>  <Energy>  (16) 
90.14816597088775

>  <Genealogy>  (16) 
CN1CCN(c2ccc(-c3ccc4cc(-c5cc([O-])ccc5S([NH-])(=O)=O)ccc4c3)cc2)CC1 (protonated)
CN1CCN(c2ccc(-c3ccc4cc(-c5cc([O-])ccc5S([NH-])(=O)=O)ccc4c3)cc2)CC1 (3D coordinates assigned)
CN1CCN(c2ccc(-c3ccc4cc(-c5cc([O-])ccc5S([NH-])(=O)=O)ccc4c3)cc2)CC1 (nonaromatic ring conformer: 90.14816597088775 kcal/mol)

>  <smiles>  (16) 
CN1CCN(c2ccc(-c3ccc4cc(-c5cc(O)ccc5S(N)(=O)=O)ccc4c3)cc2)CC1

>  <score_type>  (16) 
oracle

>  <origin>  (16) 
adgpu

>  <m_score__min__energy>  (16) 
-8.8200000000000003

>  <m_primary>  (16) 
energy

$$$$
16:0
     RDKit          3D

 59 62  0  0  0  0  0  0  0  0999 V2000
   -6.1530   17.2850  -33.4810 C   0  0  0  0  0  0  0  0  0  0  0  0
   -6.3910   18.7200  -33.8170 C   0  0  0  0  0  0  0  0  0  0  0  0
   -6.0740   19.1240  -34.9680 O   0  0  0  0  0  0  0  0  0  0  0  0
   -6.9400   19.6540  -32.8640 N   0  0  0  0  0  0  0  0  0  0  0  0
   -6.3080   20.8100  -32.3260 C   0  0  0  0  0  0  0  0  0  0  0  0
   -4.9360   21.0600  -32.2050 C   0  0  0  0  0  0  0  0  0  0  0  0
   -4.5200   22.2440  -31.5810 C   0  0  0  0  0  0  0  0  0  0  0  0
   -5.4690   23.1380  -31.0430 C   0  0  0  0  0  0  0  0  0  0  0  0
   -4.9520   24.5630  -30.1460 S   0  0  0  0  0  0  0  0  0  0  0  0
   -3.8870   25.3150  -30.8940 O   0  0  0  0  0  0  0  0  0  0  0  0
   -6.1280   25.4800  -29.9610 O   0  0  0  0  0  0  0  0  0  0  0  0
   -4.3690   24.0710  -28.5850 N   0  0  0  0  0  0  0  0  0  0  0  0
   -3.0570   23.5550  -28.3180 C   0  0  0  0  0  0  0  0  0  0  0  0
   -2.8660   22.2370  -27.8710 C   0  0  0  0  0  0  0  0  0  0  0  0
   -1.5820   21.7430  -27.6130 C   0  0  0  0  0  0  0  0  0  0  0  0
   -1.3660   20.0710  -27.1030 S   0  0  0  0  0  0  0  0  0  0  0  0
   -1.5820   19.9730  -25.6180 O   0  0  0  0  0  0  0  0  0  0  0  0
   -2.4010   19.2170  -27.7810 O   0  0  0  0  0  0  0  0  0  0  0  0
    0.2260   19.4720  -27.5060 N   0  0  0  0  0  0  0  0  0  0  0  0
    0.6950   20.0740  -28.7710 C   0  0  0  0  0  0  0  0  0  0  0  0
    1.8350   19.2620  -29.3860 C   0  0  0  0  0  0  0  0  0  0  0  0
    1.3520   17.8510  -29.7620 C   0  0  0  0  0  0  0  0  0  0  0  0
    0.1950   17.3620  -28.8680 C   0  0  0  0  0  0  0  0  0  0  0  0
    0.2710   17.9910  -27.4720 C   0  0  0  0  0  0  0  0  0  0  0  0
   -0.4760   22.5780  -27.7880 C   0  0  0  0  0  0  0  0  0  0  0  0
   -0.6490   23.8870  -28.2550 C   0  0  0  0  0  0  0  0  0  0  0  0
   -1.9310   24.3770  -28.5300 C   0  0  0  0  0  0  0  0  0  0  0  0
   -2.0650   25.6790  -29.0070 O   0  0  0  0  0  0  0  0  0  0  0  0
   -6.8390   22.8430  -31.1460 C   0  0  0  0  0  0  0  0  0  0  0  0
   -7.2270   21.6710  -31.7880 C   0  0  0  0  0  0  0  0  0  0  0  0
   -8.6080   21.1430  -31.9490 C   0  0  0  0  0  0  0  0  0  0  0  0
   -8.3800   19.7360  -32.5670 C   0  0  2  0  0  0  0  0  0  0  0  0
   -8.7920   18.6300  -31.5890 C   0  0  0  0  0  0  0  0  0  0  0  0
   -6.1327   17.1628  -32.3880 H   0  0  0  0  0  0  0  0  0  0  0  0
   -6.9615   16.6705  -33.9037 H   0  0  0  0  0  0  0  0  0  0  0  0
   -5.1894   16.9644  -33.9037 H   0  0  0  0  0  0  0  0  0  0  0  0
   -4.1988   20.3412  -32.5921 H   0  0  0  0  0  0  0  0  0  0  0  0
   -3.4474   22.4773  -31.5104 H   0  0  0  0  0  0  0  0  0  0  0  0
   -3.7382   21.5836  -27.7216 H   0  0  0  0  0  0  0  0  0  0  0  0
   -0.1431   20.1101  -29.4825 H   0  0  0  0  0  0  0  0  0  0  0  0
    1.0679   21.0862  -28.5555 H   0  0  0  0  0  0  0  0  0  0  0  0
    2.1965   19.7735  -30.2903 H   0  0  0  0  0  0  0  0  0  0  0  0
    2.6466   19.1746  -28.6486 H   0  0  0  0  0  0  0  0  0  0  0  0
    1.0088   17.8630  -30.8070 H   0  0  0  0  0  0  0  0  0  0  0  0
    2.1969   17.1611  -29.6201 H   0  0  0  0  0  0  0  0  0  0  0  0
   -0.7615   17.6392  -29.3351 H   0  0  0  0  0  0  0  0  0  0  0  0
    0.2726   16.2697  -28.7633 H   0  0  0  0  0  0  0  0  0  0  0  0
   -0.5789   17.6272  -26.8759 H   0  0  0  0  0  0  0  0  0  0  0  0
    1.2347   17.6991  -27.0293 H   0  0  0  0  0  0  0  0  0  0  0  0
    0.5336   22.2065  -27.5584 H   0  0  0  0  0  0  0  0  0  0  0  0
    0.2277   24.5338  -28.4066 H   0  0  0  0  0  0  0  0  0  0  0  0
   -2.9490   26.0530  -29.3300 H   0  0  0  0  0  0  0  0  0  0  0  0
   -7.5917   23.5267  -30.7264 H   0  0  0  0  0  0  0  0  0  0  0  0
   -9.1179   21.0691  -30.9771 H   0  0  0  0  0  0  0  0  0  0  0  0
   -9.2471   21.7884  -32.5695 H   0  0  0  0  0  0  0  0  0  0  0  0
   -8.9899   19.5967  -33.4718 H   0  0  0  0  0  0  0  0  0  0  0  0
   -8.6596   18.9855  -30.5565 H   0  0  0  0  0  0  0  0  0  0  0  0
   -9.8477   18.3689  -31.7543 H   0  0  0  0  0  0  0  0  0  0  0  0
   -8.1644   17.7419  -31.7543 H   0  0  0  0  0  0  0  0  0  0  0  0
  1  2  1  0
  2  3  2  0
  2  4  1  0
  4  5  1  0
  5  6  2  0
  6  7  1  0
  7  8  2  0
  8  9  1  0
  9 10  2  0
  9 11  2  0
  9 12  1  0
 12 13  1  0
 13 14  2  0
 14 15  1  0
 15 16  1  0
 16 17  2  0
 16 18  2  0
 16 19  1  0
 19 20  1  0
 20 21  1  0
 21 22  1  0
 22 23  1  0
 23 24  1  0
 15 25  2  0
 25 26  1  0
 26 27  2  0
 27 28  1  0
  8 29  1  0
 29 30  2  0
 30 31  1  0
 31 32  1  0
 32 33  1  0
 32  4  1  0
 30  5  1  0
 27 13  1  0
 24 19  1  0
  1 34  1  0
  1 35  1  0
  1 36  1  0
  6 37  1  0
  7 38  1  0
 14 39  1  0
 20 40  1  0
 20 41  1  0
 21 42  1  0
 21 43  1  0
 22 44  1  0
 22 45  1  0
 23 46  1  0
 23 47  1  0
 24 48  1  0
 24 49  1  0
 25 50  1  0
 26 51  1  0
 28 52  1  0
 29 53  1  0
 31 54  1  0
 31 55  1  0
 32 56  1  6
 33 57  1  0
 33 58  1  0
 33 59  1  0
M  CHG  1  12  -1
M  END
>  <UniqueID>  (17) 
16

>  <SMILES>  (17) 
CC(=O)N1c2ccc(S(=O)(=O)[N-]c3cc(S(=O)(=O)N4CCCCC4)ccc3O)cc2C[C@@H]1C

>  <Energy>  (17) 
85.75155095839446

>  <Genealogy>  (17) 
CC(=O)N1c2ccc(S(=O)(=O)[N-]c3cc(S(=O)(=O)N4CCCCC4)ccc3O)cc2CC1C (protonated)
CC(=O)N1c2ccc(S(=O)(=O)[N-]c3cc(S(=O)(=O)N4CCCCC4)ccc3O)cc2C[C@@H]1C (chirality)
CC(=O)N1c2ccc(S(=O)(=O)[N-]c3cc(S(=O)(=O)N4CCCCC4)ccc3O)cc2C[C@@H]1C (3D coordinates assigned)
CC(=O)N1c2ccc(S(=O)(=O)[N-]c3cc(S(=O)(=O)N4CCCCC4)ccc3O)cc2C[C@@H]1C (nonaromatic ring conformer: 85.75155095839446 kcal/mol)

>  <smiles>  (17) 
CC(=O)N1c2ccc(S(=O)(=O)Nc3cc(S(=O)(=O)N4CCCCC4)ccc3O)cc2CC1C

>  <score_type>  (17) 
oracle

>  <origin>  (17) 
adgpu

>  <m_score__min__energy>  (17) 
-14.039999999999999

>  <m_primary>  (17) 
energy

$$$$
17:0
     RDKit          3D

 54 57  0  0  0  0  0  0  0  0999 V2000
   -7.9780   23.4150  -31.5000 C   0  0  0  0  0  0  0  0  0  0  0  0
   -6.7430   22.6240  -31.8440 C   0  0  0  0  0  0  0  0  0  0  0  0
   -6.8820   21.4360  -32.5820 C   0  0  0  0  0  0  0  0  0  0  0  0
   -5.7630   20.6740  -32.9180 C   0  0  0  0  0  0  0  0  0  0  0  0
   -4.4860   21.0860  -32.5270 C   0  0  0  0  0  0  0  0  0  0  0  0
   -3.0740   20.1000  -32.9120 S   0  0  0  0  0  0  0  0  0  0  0  0
   -3.4830   18.6540  -32.9780 O   0  0  0  0  0  0  0  0  0  0  0  0
   -2.5630   20.4930  -34.2690 O   0  0  0  0  0  0  0  0  0  0  0  0
   -1.7880   20.2820  -31.7350 N   0  0  0  0  0  0  0  0  0  0  0  0
   -1.0360   19.0300  -31.5070 C   0  0  0  0  0  0  0  0  0  0  0  0
    0.3200   19.0040  -32.2310 C   0  0  0  0  0  0  0  0  0  0  0  0
    0.2650   19.7770  -33.4080 O   0  0  0  0  0  0  0  0  0  0  0  0
    0.1660   21.1470  -33.0730 C   0  0  0  0  0  0  0  0  0  0  0  0
   -0.9250   21.4430  -32.0160 C   0  0  0  0  0  0  0  0  0  0  0  0
   -4.3320   22.2830  -31.8190 C   0  0  0  0  0  0  0  0  0  0  0  0
   -5.4480   23.0630  -31.4730 C   0  0  0  0  0  0  0  0  0  0  0  0
   -5.1950   24.5530  -30.5500 S   0  0  0  0  0  0  0  0  0  0  0  0
   -5.9060   25.6910  -31.2270 O   0  0  0  0  0  0  0  0  0  0  0  0
   -5.7280   24.3620  -29.1580 O   0  0  0  0  0  0  0  0  0  0  0  0
   -3.5010   24.9200  -30.4700 N   0  0  0  0  0  0  0  0  0  0  0  0
   -2.5290   24.1930  -29.7070 C   0  0  0  0  0  0  0  0  0  0  0  0
   -2.4970   22.7870  -29.6880 C   0  0  0  0  0  0  0  0  0  0  0  0
   -1.5340   22.1080  -28.9280 C   0  0  0  0  0  0  0  0  0  0  0  0
   -0.5790   22.8380  -28.1900 C   0  0  0  0  0  0  0  0  0  0  0  0
   -0.6240   24.2390  -28.1970 C   0  0  0  0  0  0  0  0  0  0  0  0
   -1.5870   24.9120  -28.9550 C   0  0  0  0  0  0  0  0  0  0  0  0
   -1.6090   26.3020  -28.9560 O   0  0  0  0  0  0  0  0  0  0  0  0
    0.4350   22.1210  -27.3340 C   0  0  0  0  0  0  0  0  0  0  0  0
    0.7130   20.7050  -27.8530 C   0  0  0  0  0  0  0  0  0  0  0  0
   -0.5960   19.9350  -28.0430 C   0  0  0  0  0  0  0  0  0  0  0  0
   -1.4990   20.6730  -28.9240 N   0  0  0  0  0  0  0  0  0  0  0  0
   -8.0792   23.4798  -30.4066 H   0  0  0  0  0  0  0  0  0  0  0  0
   -7.8939   24.4277  -31.9211 H   0  0  0  0  0  0  0  0  0  0  0  0
   -8.8627   22.9151  -31.9211 H   0  0  0  0  0  0  0  0  0  0  0  0
   -7.8822   21.1041  -32.8975 H   0  0  0  0  0  0  0  0  0  0  0  0
   -5.8862   19.7446  -33.4933 H   0  0  0  0  0  0  0  0  0  0  0  0
   -0.8590   18.9190  -30.4270 H   0  0  0  0  0  0  0  0  0  0  0  0
   -1.6407   18.2045  -31.9107 H   0  0  0  0  0  0  0  0  0  0  0  0
    1.0941   19.4130  -31.5650 H   0  0  0  0  0  0  0  0  0  0  0  0
    0.5610   17.9646  -32.4985 H   0  0  0  0  0  0  0  0  0  0  0  0
    1.1362   21.4800  -32.6756 H   0  0  0  0  0  0  0  0  0  0  0  0
   -0.1145   21.6864  -33.9897 H   0  0  0  0  0  0  0  0  0  0  0  0
   -0.4327   21.7478  -31.0807 H   0  0  0  0  0  0  0  0  0  0  0  0
   -1.5673   22.2385  -32.4216 H   0  0  0  0  0  0  0  0  0  0  0  0
   -3.3248   22.6174  -31.5298 H   0  0  0  0  0  0  0  0  0  0  0  0
   -3.2327   22.2160  -30.2735 H   0  0  0  0  0  0  0  0  0  0  0  0
    0.1026   24.8123  -27.6026 H   0  0  0  0  0  0  0  0  0  0  0  0
    1.3743   22.6935  -27.3385 H   0  0  0  0  0  0  0  0  0  0  0  0
    0.0286   22.0399  -26.3150 H   0  0  0  0  0  0  0  0  0  0  0  0
    1.2377   20.7699  -28.8176 H   0  0  0  0  0  0  0  0  0  0  0  0
    1.3342   20.1730  -27.1174 H   0  0  0  0  0  0  0  0  0  0  0  0
   -0.3774   18.9532  -28.4884 H   0  0  0  0  0  0  0  0  0  0  0  0
   -1.0796   19.8069  -27.0633 H   0  0  0  0  0  0  0  0  0  0  0  0
   -2.1930   20.1350  -29.4890 H   0  0  0  0  0  0  0  0  0  0  0  0
  1  2  1  0
  2  3  2  0
  3  4  1  0
  4  5  2  0
  5  6  1  0
  6  7  2  0
  6  8  2  0
  6  9  1  0
  9 10  1  0
 10 11  1  0
 11 12  1  0
 12 13  1  0
 13 14  1  0
  5 15  1  0
 15 16  2  0
 16 17  1  0
 17 18  2  0
 17 19  2  0
 17 20  1  0
 20 21  1  0
 21 22  2  0
 22 23  1  0
 23 24  2  0
 24 25  1  0
 25 26  2  0
 26 27  1  0
 24 28  1  0
 28 29  1  0
 29 30  1  0
 30 31  1  0
 16  2  1  0
 26 21  1  0
 14  9  1  0
 31 23  1  0
  1 32  1  0
  1 33  1  0
  1 34  1  0
  3 35  1  0
  4 36  1  0
 10 37  1  0
 10 38  1  0
 11 39  1  0
 11 40  1  0
 13 41  1  0
 13 42  1  0
 14 43  1  0
 14 44  1  0
 15 45  1  0
 22 46  1  0
 25 47  1  0
 28 48  1  0
 28 49  1  0
 29 50  1  0
 29 51  1  0
 30 52  1  0
 30 53  1  0
 31 54  1  0
M  CHG  2  20  -1  27  -1
M  END
>  <UniqueID>  (18) 
17

>  <SMILES>  (18) 
Cc1ccc(S(=O)(=O)N2CCOCC2)cc1S(=O)(=O)[N-]c1cc2c(cc1[O-])CCCN2

>  <Energy>  (18) 
70.78341595916159

>  <Genealogy>  (18) 
Cc1ccc(S(=O)(=O)N2CCOCC2)cc1S(=O)(=O)[N-]c1cc2c(cc1[O-])CCCN2 (protonated)
Cc1ccc(S(=O)(=O)N2CCOCC2)cc1S(=O)(=O)[N-]c1cc2c(cc1[O-])CCCN2 (3D coordinates assigned)
Cc1ccc(S(=O)(=O)N2CCOCC2)cc1S(=O)(=O)[N-]c1cc2c(cc1[O-])CCCN2 (nonaromatic ring conformer: 70.78341595916159 kcal/mol)

>  <smiles>  (18) 
Cc1ccc(S(=O)(=O)N2CCOCC2)cc1S(=O)(=O)Nc1cc2c(cc1O)CCCN2

>  <score_type>  (18) 
oracle

>  <origin>  (18) 
adgpu

>  <m_score__min__energy>  (18) 
-13.65

>  <m_primary>  (18) 
energy

$$$$
18:0
     RDKit          3D

 43 45  0  0  0  0  0  0  0  0999 V2000
   -6.8600   16.4810  -34.0070 C   0  0  0  0  0  0  0  0  0  0  0  0
   -6.1510   17.6520  -33.3930 C   0  0  0  0  0  0  0  0  0  0  0  0
   -6.6010   18.1920  -32.1780 C   0  0  0  0  0  0  0  0  0  0  0  0
   -5.9650   19.3070  -31.6240 C   0  0  0  0  0  0  0  0  0  0  0  0
   -4.8700   19.8960  -32.2760 C   0  0  0  0  0  0  0  0  0  0  0  0
   -4.2140   21.0490  -31.7250 N   0  0  0  0  0  0  0  0  0  0  0  0
   -3.0000   20.9980  -31.1970 N   0  0  0  0  0  0  0  0  0  0  0  0
   -2.6940   22.2250  -30.7320 C   0  0  0  0  0  0  0  0  0  0  0  0
   -3.7620   23.0710  -30.9520 C   0  0  0  0  0  0  0  0  0  0  0  0
   -3.8620   24.4690  -30.5160 C   0  0  0  0  0  0  0  0  0  0  0  0
   -4.5770   25.2660  -31.1780 O   0  0  0  0  0  0  0  0  0  0  0  0
   -3.1280   24.9620  -29.3890 N   0  0  0  0  0  0  0  0  0  0  0  0
   -2.2930   24.1560  -28.4990 C   0  0  0  0  0  0  0  0  0  0  0  0
   -1.8570   24.9470  -27.2790 C   0  0  0  0  0  0  0  0  0  0  0  0
   -2.7720   25.3250  -26.2650 C   0  0  0  0  0  0  0  0  0  0  0  0
   -4.2320   24.9610  -26.3410 C   0  0  0  0  0  0  0  0  0  0  0  0
   -2.3350   26.0760  -25.2120 N   0  0  0  0  0  0  0  0  0  0  0  0
   -1.0310   26.4380  -25.0960 C   0  0  0  0  0  0  0  0  0  0  0  0
   -0.6510   27.1270  -24.1130 O   0  0  0  0  0  0  0  0  0  0  0  0
   -0.1340   26.0560  -26.0370 N   0  0  0  0  0  0  0  0  0  0  0  0
   -0.5080   25.3240  -27.1130 C   0  0  0  0  0  0  0  0  0  0  0  0
    0.3670   24.9900  -27.9560 O   0  0  0  0  0  0  0  0  0  0  0  0
   -4.7170   22.2970  -31.5840 C   0  0  0  0  0  0  0  0  0  0  0  0
   -6.0650   22.7590  -32.0590 C   0  0  0  0  0  0  0  0  0  0  0  0
   -4.4460   19.3780  -33.5090 C   0  0  0  0  0  0  0  0  0  0  0  0
   -5.0820   18.2630  -34.0640 C   0  0  0  0  0  0  0  0  0  0  0  0
   -7.2531   15.8318  -33.2108 H   0  0  0  0  0  0  0  0  0  0  0  0
   -7.6917   16.8415  -34.6302 H   0  0  0  0  0  0  0  0  0  0  0  0
   -6.1551   15.9112  -34.6302 H   0  0  0  0  0  0  0  0  0  0  0  0
   -7.4574   17.7361  -31.6597 H   0  0  0  0  0  0  0  0  0  0  0  0
   -6.3245   19.7250  -30.6721 H   0  0  0  0  0  0  0  0  0  0  0  0
   -1.7446   22.5073  -30.2535 H   0  0  0  0  0  0  0  0  0  0  0  0
   -2.8665   23.2772  -28.1692 H   0  0  0  0  0  0  0  0  0  0  0  0
   -1.3928   23.8504  -29.0525 H   0  0  0  0  0  0  0  0  0  0  0  0
   -4.6381   24.8598  -25.3237 H   0  0  0  0  0  0  0  0  0  0  0  0
   -4.7792   25.7502  -26.8774 H   0  0  0  0  0  0  0  0  0  0  0  0
   -4.3447   24.0073  -26.8774 H   0  0  0  0  0  0  0  0  0  0  0  0
   -3.0090   26.3820  -24.4740 H   0  0  0  0  0  0  0  0  0  0  0  0
   -6.7043   22.9781  -31.1911 H   0  0  0  0  0  0  0  0  0  0  0  0
   -5.9477   23.6682  -32.6669 H   0  0  0  0  0  0  0  0  0  0  0  0
   -6.5301   21.9690  -32.6669 H   0  0  0  0  0  0  0  0  0  0  0  0
   -3.6085   19.8516  -34.0422 H   0  0  0  0  0  0  0  0  0  0  0  0
   -4.7423   17.8636  -35.0310 H   0  0  0  0  0  0  0  0  0  0  0  0
  1  2  1  0
  2  3  2  0
  3  4  1  0
  4  5  2  0
  5  6  1  0
  6  7  1  0
  7  8  2  0
  8  9  1  0
  9 10  1  0
 10 11  2  0
 10 12  1  0
 12 13  1  0
 13 14  1  0
 14 15  2  0
 15 16  1  0
 15 17  1  0
 17 18  1  0
 18 19  2  0
 18 20  1  0
 20 21  1  0
 21 22  2  0
  9 23  2  0
 23 24  1  0
  5 25  1  0
 25 26  2  0
 26  2  1  0
 23  6  1  0
 21 14  1  0
  1 27  1  0
  1 28  1  0
  1 29  1  0
  3 30  1  0
  4 31  1  0
  8 32  1  0
 13 33  1  0
 13 34  1  0
 16 35  1  0
 16 36  1  0
 16 37  1  0
 17 38  1  0
 24 39  1  0
 24 40  1  0
 24 41  1  0
 25 42  1  0
 26 43  1  0
M  CHG  2  12  -1  20  -1
M  END
>  <UniqueID>  (19) 
18

>  <SMILES>  (19) 
Cc1ccc(-n2ncc(C(=O)[N-]Cc3c(C)[nH]c(=O)[n-]c3=O)c2C)cc1

>  <Energy>  (19) 
85.68111527171844

>  <Genealogy>  (19) 
Cc1ccc(-n2ncc(C(=O)[N-]Cc3c(C)[nH]c(=O)[n-]c3=O)c2C)cc1 (protonated)
Cc1ccc(-n2ncc(C(=O)[N-]Cc3c(C)[nH]c(=O)[n-]c3=O)c2C)cc1 (3D coordinates assigned)
Cc1ccc(-n2ncc(C(=O)[N-]Cc3c(C)[nH]c(=O)[n-]c3=O)c2C)cc1 (optimized conformer: 85.68111527171844 kcal/mol)

>  <smiles>  (19) 
Cc1ccc(-n2ncc(C(=O)NCc3c(C)[nH]c(=O)[nH]c3=O)c2C)cc1

>  <score_type>  (19) 
oracle

>  <origin>  (19) 
adgpu

>  <m_score__min__energy>  (19) 
-11.31

>  <m_primary>  (19) 
energy

$$$$
19:0
     RDKit          3D

 61 64  0  0  0  0  0  0  0  0999 V2000
   -6.4400   25.6590  -29.5020 C   0  0  0  0  0  0  0  0  0  0  0  0
   -5.8900   25.1180  -30.6990 O   0  0  0  0  0  0  0  0  0  0  0  0
   -5.9370   23.7640  -31.0640 C   0  0  0  0  0  0  0  0  0  0  0  0
   -7.1550   23.0960  -31.3100 C   0  0  0  0  0  0  0  0  0  0  0  0
   -7.1800   21.7320  -31.6910 C   0  0  0  0  0  0  0  0  0  0  0  0
   -5.9410   21.0580  -31.8330 C   0  0  0  0  0  0  0  0  0  0  0  0
   -5.9290   19.7160  -32.2130 C   0  0  0  0  0  0  0  0  0  0  0  0
   -7.1230   19.0510  -32.4430 C   0  0  0  0  0  0  0  0  0  0  0  0
   -8.3330   19.7260  -32.2970 C   0  0  0  0  0  0  0  0  0  0  0  0
   -9.3990   19.0880  -32.5090 O   0  0  0  0  0  0  0  0  0  0  0  0
   -8.3630   21.0550  -31.9310 N   0  0  0  0  0  0  0  0  0  0  0  0
   -9.6620   21.7490  -31.8180 C   0  0  0  0  0  0  0  0  0  0  0  0
   -4.7340   21.7290  -31.5970 C   0  0  0  0  0  0  0  0  0  0  0  0
   -4.7310   23.0650  -31.1990 C   0  0  0  0  0  0  0  0  0  0  0  0
   -3.4830   23.7200  -30.9610 N   0  0  0  0  0  0  0  0  0  0  0  0
   -2.8770   23.9140  -29.3520 S   0  0  0  0  0  0  0  0  0  0  0  0
   -1.8160   24.9760  -29.3420 O   0  0  0  0  0  0  0  0  0  0  0  0
   -3.9950   24.3420  -28.4440 O   0  0  0  0  0  0  0  0  0  0  0  0
   -2.1740   22.3850  -28.8100 C   0  0  0  0  0  0  0  0  0  0  0  0
   -2.3010   22.0010  -27.4660 C   0  0  0  0  0  0  0  0  0  0  0  0
   -1.8020   20.7690  -27.0230 C   0  0  0  0  0  0  0  0  0  0  0  0
   -1.9310   20.4160  -25.6800 O   0  0  0  0  0  0  0  0  0  0  0  0
   -1.1650   19.9000  -27.9330 C   0  0  0  0  0  0  0  0  0  0  0  0
   -0.6620   18.5720  -27.5050 C   0  0  0  0  0  0  0  0  0  0  0  0
   -1.3550   17.8690  -26.7180 O   0  0  0  0  0  0  0  0  0  0  0  0
    0.5770   18.0420  -28.0130 N   0  0  0  0  0  0  0  0  0  0  0  0
    0.6410   16.6190  -28.3740 C   0  0  0  0  0  0  0  0  0  0  0  0
    2.0280   16.2340  -28.8960 C   0  0  0  0  0  0  0  0  0  0  0  0
    2.5150   17.2660  -29.8250 N   0  0  0  0  0  0  0  0  0  0  0  0
    3.0210   16.9400  -31.1380 C   0  0  0  0  0  0  0  0  0  0  0  0
    2.7390   15.6220  -31.7920 C   0  0  0  0  0  0  0  0  0  0  0  0
    3.7150   17.7830  -31.7680 O   0  0  0  0  0  0  0  0  0  0  0  0
    2.5100   18.6780  -29.3990 C   0  0  0  0  0  0  0  0  0  0  0  0
    1.7910   18.8690  -28.0570 C   0  0  0  0  0  0  0  0  0  0  0  0
   -1.0470   20.2830  -29.2770 C   0  0  0  0  0  0  0  0  0  0  0  0
   -1.5340   21.5170  -29.7180 C   0  0  0  0  0  0  0  0  0  0  0  0
   -1.3290   21.9270  -31.4140 Cl  0  0  0  0  0  0  0  0  0  0  0  0
   -5.9601   25.1870  -28.6320 H   0  0  0  0  0  0  0  0  0  0  0  0
   -6.2625   26.7442  -29.4747 H   0  0  0  0  0  0  0  0  0  0  0  0
   -7.5222   25.4636  -29.4747 H   0  0  0  0  0  0  0  0  0  0  0  0
   -8.1026   23.6445  -31.2040 H   0  0  0  0  0  0  0  0  0  0  0  0
   -4.9724   19.1857  -32.3301 H   0  0  0  0  0  0  0  0  0  0  0  0
   -7.1153   17.9920  -32.7403 H   0  0  0  0  0  0  0  0  0  0  0  0
   -9.9145   21.8839  -30.7559 H   0  0  0  0  0  0  0  0  0  0  0  0
   -9.5962   22.7321  -32.3070 H   0  0  0  0  0  0  0  0  0  0  0  0
  -10.4427   21.1478  -32.3070 H   0  0  0  0  0  0  0  0  0  0  0  0
   -3.7801   21.1968  -31.7269 H   0  0  0  0  0  0  0  0  0  0  0  0
   -2.7979   22.6748  -26.7525 H   0  0  0  0  0  0  0  0  0  0  0  0
   -2.0220   19.4520  -25.3920 H   0  0  0  0  0  0  0  0  0  0  0  0
    0.4135   16.0139  -27.4840 H   0  0  0  0  0  0  0  0  0  0  0  0
   -0.0922   16.4323  -29.1725 H   0  0  0  0  0  0  0  0  0  0  0  0
    2.7252   16.1461  -28.0498 H   0  0  0  0  0  0  0  0  0  0  0  0
    1.9630   15.2713  -29.4242 H   0  0  0  0  0  0  0  0  0  0  0  0
    2.5753   14.8567  -31.0190 H   0  0  0  0  0  0  0  0  0  0  0  0
    1.8391   15.7087  -32.4186 H   0  0  0  0  0  0  0  0  0  0  0  0
    3.5956   15.3329  -32.4186 H   0  0  0  0  0  0  0  0  0  0  0  0
    3.5498   19.0223  -29.2974 H   0  0  0  0  0  0  0  0  0  0  0  0
    1.9712   19.2615  -30.1601 H   0  0  0  0  0  0  0  0  0  0  0  0
    2.4633   18.5723  -27.2385 H   0  0  0  0  0  0  0  0  0  0  0  0
    1.5106   19.9268  -27.9459 H   0  0  0  0  0  0  0  0  0  0  0  0
   -0.5644   19.6028  -29.9943 H   0  0  0  0  0  0  0  0  0  0  0  0
  1  2  1  0
  2  3  1  0
  3  4  2  0
  4  5  1  0
  5  6  2  0
  6  7  1  0
  7  8  2  0
  8  9  1  0
  9 10  2  0
  9 11  1  0
 11 12  1  0
  6 13  1  0
 13 14  2  0
 14 15  1  0
 15 16  1  0
 16 17  2  0
 16 18  2  0
 16 19  1  0
 19 20  2  0
 20 21  1  0
 21 22  1  0
 21 23  2  0
 23 24  1  0
 24 25  2  0
 24 26  1  0
 26 27  1  0
 27 28  1  0
 28 29  1  0
 29 30  1  0
 30 31  1  0
 30 32  2  0
 29 33  1  0
 33 34  1  0
 23 35  1  0
 35 36  2  0
 36 37  1  0
 14  3  1  0
 36 19  1  0
 11  5  1  0
 34 26  1  0
  1 38  1  0
  1 39  1  0
  1 40  1  0
  4 41  1  0
  7 42  1  0
  8 43  1  0
 12 44  1  0
 12 45  1  0
 12 46  1  0
 13 47  1  0
 20 48  1  0
 22 49  1  0
 27 50  1  0
 27 51  1  0
 28 52  1  0
 28 53  1  0
 31 54  1  0
 31 55  1  0
 31 56  1  0
 33 57  1  0
 33 58  1  0
 34 59  1  0
 34 60  1  0
 35 61  1  0
M  CHG  1  15  -1
M  END
>  <UniqueID>  (20) 
19

>  <SMILES>  (20) 
COc1cc2c(ccc(=O)n2C)cc1[N-]S(=O)(=O)c1cc(O)c(C(=O)N2CCN(C(C)=O)CC2)cc1Cl

>  <Energy>  (20) 
89.51768604526185

>  <Genealogy>  (20) 
COc1cc2c(ccc(=O)n2C)cc1[N-]S(=O)(=O)c1cc(O)c(C(=O)N2CCN(C(C)=O)CC2)cc1Cl (protonated)
COc1cc2c(ccc(=O)n2C)cc1[N-]S(=O)(=O)c1cc(O)c(C(=O)N2CCN(C(C)=O)CC2)cc1Cl (3D coordinates assigned)
COc1cc2c(ccc(=O)n2C)cc1[N-]S(=O)(=O)c1cc(O)c(C(=O)N2CCN(C(C)=O)CC2)cc1Cl (nonaromatic ring conformer: 89.51768604526185 kcal/mol)

>  <smiles>  (20) 
COc1cc2c(ccc(=O)n2C)cc1NS(=O)(=O)c1cc(O)c(C(=O)N2CCN(C(C)=O)CC2)cc1Cl

>  <score_type>  (20) 
oracle

>  <origin>  (20) 
adgpu

>  <m_score__min__energy>  (20) 
-11.140000000000001

>  <m_primary>  (20) 
energy

$$$$
20:0
     RDKit          3D

 45 47  0  0  0  0  0  0  0  0999 V2000
    1.1730   24.3140  -25.4890 C   0  0  0  0  0  0  0  0  0  0  0  0
   -0.0100   24.3240  -26.4110 C   0  0  0  0  0  0  0  0  0  0  0  0
   -1.0700   23.4280  -26.2100 C   0  0  0  0  0  0  0  0  0  0  0  0
   -2.1890   23.4610  -27.0450 C   0  0  0  0  0  0  0  0  0  0  0  0
   -2.2810   24.4080  -28.0770 C   0  0  0  0  0  0  0  0  0  0  0  0
   -3.4420   24.4120  -28.9230 N   0  0  0  0  0  0  0  0  0  0  0  0
   -3.6270   23.4850  -30.0040 C   0  0  0  0  0  0  0  0  0  0  0  0
   -2.6330   22.8510  -30.4580 O   0  0  0  0  0  0  0  0  0  0  0  0
   -4.9610   23.2910  -30.6230 C   0  0  0  0  0  0  0  0  0  0  0  0
   -5.9030   24.3360  -30.6490 C   0  0  0  0  0  0  0  0  0  0  0  0
   -7.1620   24.1380  -31.2200 C   0  0  0  0  0  0  0  0  0  0  0  0
   -7.5000   22.8970  -31.7630 C   0  0  0  0  0  0  0  0  0  0  0  0
   -6.5810   21.8400  -31.7310 C   0  0  0  0  0  0  0  0  0  0  0  0
   -7.0210   20.2640  -32.3900 S   0  0  0  0  0  0  0  0  0  0  0  0
   -8.2830   19.7950  -31.7220 O   0  0  0  0  0  0  0  0  0  0  0  0
   -7.3050   20.4050  -33.8590 O   0  0  0  0  0  0  0  0  0  0  0  0
   -5.7660   19.0630  -32.1540 N   0  0  0  0  0  0  0  0  0  0  0  0
   -4.6840   19.1620  -33.1570 C   0  0  0  0  0  0  0  0  0  0  0  0
   -4.7890   18.0970  -34.2610 C   0  0  0  0  0  0  0  0  0  0  0  0
   -6.1350   17.7410  -34.4730 O   0  0  0  0  0  0  0  0  0  0  0  0
   -6.6170   17.0170  -33.3590 C   0  0  0  0  0  0  0  0  0  0  0  0
   -6.3080   17.7000  -32.0040 C   0  0  0  0  0  0  0  0  0  0  0  0
   -5.3140   22.0430  -31.1670 C   0  0  0  0  0  0  0  0  0  0  0  0
   -1.2110   25.3000  -28.2880 C   0  0  0  0  0  0  0  0  0  0  0  0
   -1.2360   26.2040  -29.3440 O   0  0  0  0  0  0  0  0  0  0  0  0
   -0.0930   25.2670  -27.4470 C   0  0  0  0  0  0  0  0  0  0  0  0
    0.8247   24.3169  -24.4456 H   0  0  0  0  0  0  0  0  0  0  0  0
    1.7734   23.4107  -25.6726 H   0  0  0  0  0  0  0  0  0  0  0  0
    1.7885   25.2070  -25.6726 H   0  0  0  0  0  0  0  0  0  0  0  0
   -1.0198   22.6957  -25.3907 H   0  0  0  0  0  0  0  0  0  0  0  0
   -3.0048   22.7390  -26.8927 H   0  0  0  0  0  0  0  0  0  0  0  0
   -4.0860   25.2330  -28.8620 H   0  0  0  0  0  0  0  0  0  0  0  0
   -5.6462   25.3145  -30.2171 H   0  0  0  0  0  0  0  0  0  0  0  0
   -7.8898   24.9625  -31.2420 H   0  0  0  0  0  0  0  0  0  0  0  0
   -8.4908   22.7487  -32.2173 H   0  0  0  0  0  0  0  0  0  0  0  0
   -4.7291   20.1568  -33.6242 H   0  0  0  0  0  0  0  0  0  0  0  0
   -3.7318   18.9981  -32.6311 H   0  0  0  0  0  0  0  0  0  0  0  0
   -4.3693   18.5000  -35.1945 H   0  0  0  0  0  0  0  0  0  0  0  0
   -4.2283   17.2034  -33.9494 H   0  0  0  0  0  0  0  0  0  0  0  0
   -7.7076   16.9119  -33.4563 H   0  0  0  0  0  0  0  0  0  0  0  0
   -6.1052   16.0433  -33.3571 H   0  0  0  0  0  0  0  0  0  0  0  0
   -7.2383   17.7555  -31.4196 H   0  0  0  0  0  0  0  0  0  0  0  0
   -5.5402   17.0953  -31.4992 H   0  0  0  0  0  0  0  0  0  0  0  0
   -4.5877   21.2171  -31.1497 H   0  0  0  0  0  0  0  0  0  0  0  0
    0.7263   25.9851  -27.5990 H   0  0  0  0  0  0  0  0  0  0  0  0
  1  2  1  0
  2  3  2  0
  3  4  1  0
  4  5  2  0
  5  6  1  0
  6  7  1  0
  7  8  2  0
  7  9  1  0
  9 10  2  0
 10 11  1  0
 11 12  2  0
 12 13  1  0
 13 14  1  0
 14 15  2  0
 14 16  2  0
 14 17  1  0
 17 18  1  0
 18 19  1  0
 19 20  1  0
 20 21  1  0
 21 22  1  0
 13 23  2  0
  5 24  1  0
 24 25  1  0
 24 26  2  0
 26  2  1  0
 23  9  1  0
 22 17  1  0
  1 27  1  0
  1 28  1  0
  1 29  1  0
  3 30  1  0
  4 31  1  0
  6 32  1  0
 10 33  1  0
 11 34  1  0
 12 35  1  0
 18 36  1  0
 18 37  1  0
 19 38  1  0
 19 39  1  0
 21 40  1  0
 21 41  1  0
 22 42  1  0
 22 43  1  0
 23 44  1  0
 26 45  1  0
M  CHG  1  25  -1
M  END
>  <UniqueID>  (21) 
20

>  <SMILES>  (21) 
Cc1ccc(NC(=O)c2cccc(S(=O)(=O)N3CCOCC3)c2)c([O-])c1

>  <Energy>  (21) 
63.24818274626224

>  <Genealogy>  (21) 
Cc1ccc(NC(=O)c2cccc(S(=O)(=O)N3CCOCC3)c2)c([O-])c1 (protonated)
Cc1ccc(NC(=O)c2cccc(S(=O)(=O)N3CCOCC3)c2)c([O-])c1 (3D coordinates assigned)
Cc1ccc(NC(=O)c2cccc(S(=O)(=O)N3CCOCC3)c2)c([O-])c1 (nonaromatic ring conformer: 63.24818274626224 kcal/mol)

>  <smiles>  (21) 
Cc1ccc(NC(=O)c2cccc(S(=O)(=O)N3CCOCC3)c2)c(O)c1

>  <score_type>  (21) 
oracle

>  <origin>  (21) 
adgpu

>  <m_score__min__energy>  (21) 
-13.02

>  <m_primary>  (21) 
energy

$$$$
21:0
     RDKit          3D

 52 55  0  0  0  0  0  0  0  0999 V2000
   -3.8840   25.4360  -30.7600 O   0  0  0  0  0  0  0  0  0  0  0  0
   -4.0240   24.0180  -30.2800 S   0  0  0  0  0  0  0  0  0  0  0  0
   -5.2000   23.9400  -29.3480 O   0  0  0  0  0  0  0  0  0  0  0  0
   -4.3170   22.9950  -31.6480 N   0  0  0  0  0  0  0  0  0  0  0  0
   -5.4640   22.1500  -31.8200 C   0  0  0  0  0  0  0  0  0  0  0  0
   -5.3400   20.7660  -32.0410 C   0  0  0  0  0  0  0  0  0  0  0  0
   -6.4780   19.9630  -32.1970 C   0  0  0  0  0  0  0  0  0  0  0  0
   -7.7610   20.5420  -32.1000 C   0  0  0  0  0  0  0  0  0  0  0  0
   -7.8820   21.9230  -31.8990 C   0  0  0  0  0  0  0  0  0  0  0  0
   -6.7410   22.7240  -31.7560 C   0  0  0  0  0  0  0  0  0  0  0  0
   -6.8730   24.0980  -31.5540 O   0  0  0  0  0  0  0  0  0  0  0  0
   -8.9990   19.7040  -32.3120 C   0  0  0  0  0  0  0  0  0  0  0  0
   -8.7390   18.2800  -32.0620 N   0  0  0  0  0  0  0  0  0  0  0  0
   -7.6050   17.8190  -32.8710 C   0  0  0  0  0  0  0  0  0  0  0  0
   -6.3150   18.4750  -32.3720 C   0  0  0  0  0  0  0  0  0  0  0  0
   -2.5790   23.4630  -29.4150 C   0  0  0  0  0  0  0  0  0  0  0  0
   -2.2760   22.0910  -29.2950 C   0  0  0  0  0  0  0  0  0  0  0  0
   -3.0890   21.1230  -29.8720 O   0  0  0  0  0  0  0  0  0  0  0  0
   -1.1420   21.6840  -28.5890 C   0  0  0  0  0  0  0  0  0  0  0  0
   -0.2960   22.6280  -28.0070 C   0  0  0  0  0  0  0  0  0  0  0  0
   -0.5780   23.9960  -28.1220 C   0  0  0  0  0  0  0  0  0  0  0  0
    0.5310   25.1850  -27.4340 S   0  0  0  0  0  0  0  0  0  0  0  0
    1.9140   24.9340  -27.9760 O   0  0  0  0  0  0  0  0  0  0  0  0
    0.1080   26.5700  -27.8380 O   0  0  0  0  0  0  0  0  0  0  0  0
    0.5130   25.0160  -25.6900 N   0  0  0  0  0  0  0  0  0  0  0  0
   -0.8660   25.0390  -25.1510 C   0  0  0  0  0  0  0  0  0  0  0  0
   -1.2610   26.4160  -24.5870 C   0  0  0  0  0  0  0  0  0  0  0  0
   -0.6230   27.4450  -25.3110 O   0  0  0  0  0  0  0  0  0  0  0  0
    0.7750   27.4290  -25.0670 C   0  0  0  0  0  0  0  0  0  0  0  0
    1.3830   26.0070  -25.0330 C   0  0  0  0  0  0  0  0  0  0  0  0
   -1.7180   24.4120  -28.8310 C   0  0  0  0  0  0  0  0  0  0  0  0
   -1.9920   25.7710  -28.9600 O   0  0  0  0  0  0  0  0  0  0  0  0
   -4.3403   20.3099  -32.0918 H   0  0  0  0  0  0  0  0  0  0  0  0
   -8.8804   22.3823  -31.8530 H   0  0  0  0  0  0  0  0  0  0  0  0
   -6.1070   24.6580  -31.2030 H   0  0  0  0  0  0  0  0  0  0  0  0
   -9.7854   20.0491  -31.6246 H   0  0  0  0  0  0  0  0  0  0  0  0
   -9.3148   19.8167  -33.3596 H   0  0  0  0  0  0  0  0  0  0  0  0
   -9.5860   17.7420  -32.3620 H   0  0  0  0  0  0  0  0  0  0  0  0
   -7.5158   16.7259  -32.7863 H   0  0  0  0  0  0  0  0  0  0  0  0
   -7.7713   18.0956  -33.9226 H   0  0  0  0  0  0  0  0  0  0  0  0
   -6.0401   18.0302  -31.4042 H   0  0  0  0  0  0  0  0  0  0  0  0
   -5.5297   18.3020  -33.1226 H   0  0  0  0  0  0  0  0  0  0  0  0
   -0.9145   20.6122  -28.4912 H   0  0  0  0  0  0  0  0  0  0  0  0
    0.5964   22.2973  -27.4554 H   0  0  0  0  0  0  0  0  0  0  0  0
   -1.5642   24.7765  -25.9595 H   0  0  0  0  0  0  0  0  0  0  0  0
   -0.9112   24.3158  -24.3234 H   0  0  0  0  0  0  0  0  0  0  0  0
   -2.3512   26.5404  -24.6646 H   0  0  0  0  0  0  0  0  0  0  0  0
   -0.9482   26.4736  -23.5340 H   0  0  0  0  0  0  0  0  0  0  0  0
    1.2733   28.0010  -25.8635 H   0  0  0  0  0  0  0  0  0  0  0  0
    0.9332   27.8706  -24.0720 H   0  0  0  0  0  0  0  0  0  0  0  0
    2.3541   26.0241  -25.5495 H   0  0  0  0  0  0  0  0  0  0  0  0
    1.4963   25.7123  -23.9793 H   0  0  0  0  0  0  0  0  0  0  0  0
  1  2  2  0
  2  3  2  0
  2  4  1  0
  4  5  1  0
  5  6  2  0
  6  7  1  0
  7  8  2  0
  8  9  1  0
  9 10  2  0
 10 11  1  0
  8 12  1  0
 12 13  1  0
 13 14  1  0
 14 15  1  0
  2 16  1  0
 16 17  2  0
 17 18  1  0
 17 19  1  0
 19 20  2  0
 20 21  1  0
 21 22  1  0
 22 23  2  0
 22 24  2  0
 22 25  1  0
 25 26  1  0
 26 27  1  0
 27 28  1  0
 28 29  1  0
 29 30  1  0
 21 31  2  0
 31 32  1  0
 10  5  1  0
 31 16  1  0
 15  7  1  0
 30 25  1  0
  6 33  1  0
  9 34  1  0
 11 35  1  0
 12 36  1  0
 12 37  1  0
 13 38  1  0
 14 39  1  0
 14 40  1  0
 15 41  1  0
 15 42  1  0
 19 43  1  0
 20 44  1  0
 26 45  1  0
 26 46  1  0
 27 47  1  0
 27 48  1  0
 29 49  1  0
 29 50  1  0
 30 51  1  0
 30 52  1  0
M  CHG  3   4  -1  18  -1  32  -1
M  END
>  <UniqueID>  (22) 
21

>  <SMILES>  (22) 
O=S(=O)([N-]c1cc2c(cc1O)CNCC2)c1c([O-])ccc(S(=O)(=O)N2CCOCC2)c1[O-]

>  <Energy>  (22) 
72.37729521671972

>  <Genealogy>  (22) 
O=S(=O)([N-]c1cc2c(cc1O)CNCC2)c1c([O-])ccc(S(=O)(=O)N2CCOCC2)c1[O-] (protonated)
O=S(=O)([N-]c1cc2c(cc1O)CNCC2)c1c([O-])ccc(S(=O)(=O)N2CCOCC2)c1[O-] (3D coordinates assigned)
O=S(=O)([N-]c1cc2c(cc1O)CNCC2)c1c([O-])ccc(S(=O)(=O)N2CCOCC2)c1[O-] (nonaromatic ring conformer: 72.37729521671972 kcal/mol)

>  <smiles>  (22) 
O=S(=O)(Nc1cc2c(cc1O)CNCC2)c1c(O)ccc(S(=O)(=O)N2CCOCC2)c1O

>  <score_type>  (22) 
oracle

>  <origin>  (22) 
adgpu

>  <m_score__min__energy>  (22) 
-13.58

>  <m_primary>  (22) 
energy

$$$$
22:0
     RDKit          3D

 36 38  0  0  0  0  0  0  0  0999 V2000
   -5.3690   23.3600  -32.2170 H   0  0  0  0  0  0  0  0  0  0  0  0
   -4.9610   23.8620  -31.3960 N   0  0  0  0  0  0  0  0  0  0  0  0
   -3.8920   23.4500  -30.7910 C   0  0  0  0  0  0  0  0  0  0  0  0
   -3.4140   24.1510  -29.7290 N   0  0  0  0  0  0  0  0  0  0  0  0
   -2.2940   23.7760  -29.0520 C   0  0  0  0  0  0  0  0  0  0  0  0
   -1.8620   24.5890  -27.8990 C   0  0  0  0  0  0  0  0  0  0  0  0
   -2.0080   24.0740  -26.6030 C   0  0  0  0  0  0  0  0  0  0  0  0
   -2.4507   23.0775  -26.4577 H   0  0  0  0  0  0  0  0  0  0  0  0
   -1.5950   24.8180  -25.4950 C   0  0  0  0  0  0  0  0  0  0  0  0
   -1.7023   24.3996  -24.4834 H   0  0  0  0  0  0  0  0  0  0  0  0
   -1.0420   26.1010  -25.6680 C   0  0  0  0  0  0  0  0  0  0  0  0
   -0.6090   26.8850  -24.5880 O   0  0  0  0  0  0  0  0  0  0  0  0
   -0.5320   26.4270  -23.2430 C   0  0  0  0  0  0  0  0  0  0  0  0
   -0.6747   27.2757  -22.5579 H   0  0  0  0  0  0  0  0  0  0  0  0
   -1.3166   25.6767  -23.0657 H   0  0  0  0  0  0  0  0  0  0  0  0
    0.4548   25.9745  -23.0657 H   0  0  0  0  0  0  0  0  0  0  0  0
   -0.9190   26.6230  -26.9610 C   0  0  0  0  0  0  0  0  0  0  0  0
   -0.4935   27.6271  -27.1048 H   0  0  0  0  0  0  0  0  0  0  0  0
   -1.3320   25.8800  -28.0720 C   0  0  0  0  0  0  0  0  0  0  0  0
   -1.2250   26.4380  -29.3420 O   0  0  0  0  0  0  0  0  0  0  0  0
   -1.6090   22.6040  -29.4390 C   0  0  0  0  0  0  0  0  0  0  0  0
   -0.1760   21.9880  -28.5420 S   0  0  0  0  0  0  0  0  0  0  0  0
   -1.0990   20.6450  -27.8000 C   0  0  0  0  0  0  0  0  0  0  0  0
   -0.5000   19.4380  -27.6150 N   0  0  0  0  0  0  0  0  0  0  0  0
   -1.1590   18.3930  -27.0480 C   0  0  0  0  0  0  0  0  0  0  0  0
   -0.6461   17.4297  -26.9102 H   0  0  0  0  0  0  0  0  0  0  0  0
   -2.4870   18.5410  -26.6400 C   0  0  0  0  0  0  0  0  0  0  0  0
   -3.0243   17.6994  -26.1785 H   0  0  0  0  0  0  0  0  0  0  0  0
   -3.1250   19.7710  -26.8250 C   0  0  0  0  0  0  0  0  0  0  0  0
   -4.1709   19.9029  -26.5109 H   0  0  0  0  0  0  0  0  0  0  0  0
   -2.4300   20.8320  -27.4100 C   0  0  0  0  0  0  0  0  0  0  0  0
   -2.9231   21.8034  -27.5624 H   0  0  0  0  0  0  0  0  0  0  0  0
   -2.0840   21.8730  -30.5320 C   0  0  0  0  0  0  0  0  0  0  0  0
   -1.5559   20.9635  -30.8543 H   0  0  0  0  0  0  0  0  0  0  0  0
   -3.2250   22.2930  -31.2150 C   0  0  0  0  0  0  0  0  0  0  0  0
   -3.5977   21.7217  -32.0780 H   0  0  0  0  0  0  0  0  0  0  0  0
  1  2  1  0
  2  3  2  0
  3  4  1  0
  4  5  1  0
  5  6  1  0
  6  7  2  0
  7  8  1  0
  7  9  1  0
  9 10  1  0
  9 11  2  0
 11 12  1  0
 12 13  1  0
 13 14  1  0
 13 15  1  0
 13 16  1  0
 11 17  1  0
 17 18  1  0
 17 19  2  0
 19 20  1  0
  5 21  2  0
 21 22  1  0
 22 23  1  0
 23 24  2  0
 24 25  1  0
 25 26  1  0
 25 27  2  0
 27 28  1  0
 27 29  1  0
 29 30  1  0
 29 31  2  0
 31 32  1  0
 21 33  1  0
 33 34  1  0
 33 35  2  0
 35 36  1  0
 35  3  1  0
 19  6  1  0
 31 23  1  0
M  CHG  2   4  -1  20  -1
M  END
>  <UniqueID>  (23) 
22

>  <SMILES>  (23) 
[H]/N=c1\ccc(Sc2ccccn2)c(-c2ccc(OC)cc2[O-])[n-]1

>  <Energy>  (23) 
42.451713201841734

>  <Genealogy>  (23) 
COc1ccc(-c2[n-]c(=N)ccc2Sc2ccccn2)c([O-])c1 (protonated)
[H]/N=c1\ccc(Sc2ccccn2)c(-c2ccc(OC)cc2[O-])[n-]1 (cis-trans isomerization)
[H]/N=c1\ccc(Sc2ccccn2)c(-c2ccc(OC)cc2[O-])[n-]1 (3D coordinates assigned)
[H]/N=c1\ccc(Sc2ccccn2)c(-c2ccc(OC)cc2[O-])[n-]1 (optimized conformer: 42.451713201841734 kcal/mol)

>  <smiles>  (23) 
COc1ccc(-c2[nH]c(=N)ccc2Sc2ccccn2)c(O)c1

>  <score_type>  (23) 
oracle

>  <origin>  (23) 
adgpu

>  <m_score__min__energy>  (23) 
-11.09

>  <m_primary>  (23) 
energy

$$$$
23:0
     RDKit          3D

 68 71  0  0  0  0  0  0  0  0999 V2000
   -8.5620   20.5390  -31.9570 C   0  0  0  0  0  0  0  0  0  0  0  0
   -7.2080   20.0600  -32.4110 C   0  0  0  0  0  0  0  0  0  0  0  0
   -7.0580   18.7010  -32.7420 C   0  0  0  0  0  0  0  0  0  0  0  0
   -5.8270   18.2030  -33.1690 C   0  0  0  0  0  0  0  0  0  0  0  0
   -4.7230   19.0520  -33.2740 C   0  0  0  0  0  0  0  0  0  0  0  0
   -3.1710   18.4310  -33.8330 S   0  0  0  0  0  0  0  0  0  0  0  0
   -2.5220   17.6580  -32.7190 O   0  0  0  0  0  0  0  0  0  0  0  0
   -3.3740   17.5040  -34.9990 O   0  0  0  0  0  0  0  0  0  0  0  0
   -2.1310   19.7430  -34.2970 N   0  0  0  0  0  0  0  0  0  0  0  0
   -1.0390   19.8750  -33.3350 C   0  0  0  0  0  0  0  0  0  0  0  0
    0.2960   19.7000  -34.0560 C   0  0  0  0  0  0  0  0  0  0  0  0
    0.7760   21.0140  -34.6100 C   0  0  0  0  0  0  0  0  0  0  0  0
   -0.1350   21.9100  -35.1920 C   0  0  0  0  0  0  0  0  0  0  0  0
    0.3150   23.1180  -35.7360 C   0  0  0  0  0  0  0  0  0  0  0  0
    1.6790   23.4380  -35.7140 C   0  0  0  0  0  0  0  0  0  0  0  0
    2.2450   24.9730  -36.3690 S   0  0  0  0  0  0  0  0  0  0  0  0
    1.9150   25.0480  -37.8350 O   0  0  0  0  0  0  0  0  0  0  0  0
    3.7380   25.0490  -36.2120 O   0  0  0  0  0  0  0  0  0  0  0  0
    1.4950   26.2950  -35.5110 N   0  0  0  0  0  0  0  0  0  0  0  0
    0.0800   26.4310  -35.9150 C   0  0  0  0  0  0  0  0  0  0  0  0
   -0.5060   27.7860  -35.4650 C   0  0  0  0  0  0  0  0  0  0  0  0
    0.3050   28.3860  -34.4760 O   0  0  0  0  0  0  0  0  0  0  0  0
    1.5620   28.7320  -35.0340 C   0  0  0  0  0  0  0  0  0  0  0  0
    2.2330   27.5440  -35.7610 C   0  0  0  0  0  0  0  0  0  0  0  0
    2.5890   22.5420  -35.1400 C   0  0  0  0  0  0  0  0  0  0  0  0
    2.1430   21.3330  -34.5990 C   0  0  0  0  0  0  0  0  0  0  0  0
   -4.8620   20.4090  -32.9680 C   0  0  0  0  0  0  0  0  0  0  0  0
   -6.0950   20.9320  -32.5460 C   0  0  0  0  0  0  0  0  0  0  0  0
   -6.1550   22.6700  -32.1830 S   0  0  0  0  0  0  0  0  0  0  0  0
   -7.4110   23.3030  -32.7120 O   0  0  0  0  0  0  0  0  0  0  0  0
   -4.9920   23.3210  -32.8800 O   0  0  0  0  0  0  0  0  0  0  0  0
   -5.9970   22.9400  -30.4560 N   0  0  0  0  0  0  0  0  0  0  0  0
   -6.5000   24.2610  -30.0260 C   0  0  0  0  0  0  0  0  0  0  0  0
   -5.3900   25.3270  -29.9470 C   0  0  0  0  0  0  0  0  0  0  0  0
   -4.3210   25.0000  -30.8030 O   0  0  0  0  0  0  0  0  0  0  0  0
   -3.6570   23.8460  -30.3220 C   0  0  0  0  0  0  0  0  0  0  0  0
   -4.6240   22.6840  -29.9890 C   0  0  0  0  0  0  0  0  0  0  0  0
   -8.5969   20.5513  -30.8576 H   0  0  0  0  0  0  0  0  0  0  0  0
   -8.7394   21.5544  -32.3409 H   0  0  0  0  0  0  0  0  0  0  0  0
   -9.3385   19.8610  -32.3409 H   0  0  0  0  0  0  0  0  0  0  0  0
   -7.9210   18.0235  -32.6632 H   0  0  0  0  0  0  0  0  0  0  0  0
   -5.7254   17.1378  -33.4239 H   0  0  0  0  0  0  0  0  0  0  0  0
   -1.0774   20.8714  -32.8706 H   0  0  0  0  0  0  0  0  0  0  0  0
   -1.1400   19.1045  -32.5565 H   0  0  0  0  0  0  0  0  0  0  0  0
    1.0420   19.3130  -33.3462 H   0  0  0  0  0  0  0  0  0  0  0  0
    0.1593   18.9936  -34.8880 H   0  0  0  0  0  0  0  0  0  0  0  0
   -1.2062   21.6614  -35.2204 H   0  0  0  0  0  0  0  0  0  0  0  0
   -0.4050   23.8194  -36.1828 H   0  0  0  0  0  0  0  0  0  0  0  0
    1.5400   26.0720  -34.4880 H   0  0  0  0  0  0  0  0  0  0  0  0
    0.0119   26.3576  -37.0104 H   0  0  0  0  0  0  0  0  0  0  0  0
   -0.4964   25.6273  -35.4335 H   0  0  0  0  0  0  0  0  0  0  0  0
   -0.5687   28.4571  -36.3343 H   0  0  0  0  0  0  0  0  0  0  0  0
   -1.5052   27.6112  -35.0396 H   0  0  0  0  0  0  0  0  0  0  0  0
    1.4151   29.5496  -35.7551 H   0  0  0  0  0  0  0  0  0  0  0  0
    2.2226   29.0354  -34.2084 H   0  0  0  0  0  0  0  0  0  0  0  0
    2.2472   27.7444  -36.8425 H   0  0  0  0  0  0  0  0  0  0  0  0
    3.2585   27.4304  -35.3795 H   0  0  0  0  0  0  0  0  0  0  0  0
    3.6602   22.7908  -35.1147 H   0  0  0  0  0  0  0  0  0  0  0  0
    2.8663   20.6284  -34.1627 H   0  0  0  0  0  0  0  0  0  0  0  0
   -3.9927   21.0769  -33.0591 H   0  0  0  0  0  0  0  0  0  0  0  0
   -7.2605   24.5985  -30.7455 H   0  0  0  0  0  0  0  0  0  0  0  0
   -6.9176   24.1429  -29.0152 H   0  0  0  0  0  0  0  0  0  0  0  0
   -5.8044   26.3018  -30.2437 H   0  0  0  0  0  0  0  0  0  0  0  0
   -5.0144   25.3690  -28.9140 H   0  0  0  0  0  0  0  0  0  0  0  0
   -2.9493   23.5031  -31.0911 H   0  0  0  0  0  0  0  0  0  0  0  0
   -3.1468   24.1261  -29.3886 H   0  0  0  0  0  0  0  0  0  0  0  0
   -4.2529   21.7674  -30.4708 H   0  0  0  0  0  0  0  0  0  0  0  0
   -4.6576   22.5811  -28.8943 H   0  0  0  0  0  0  0  0  0  0  0  0
  1  2  1  0
  2  3  2  0
  3  4  1  0
  4  5  2  0
  5  6  1  0
  6  7  2  0
  6  8  2  0
  6  9  1  0
  9 10  1  0
 10 11  1  0
 11 12  1  0
 12 13  2  0
 13 14  1  0
 14 15  2  0
 15 16  1  0
 16 17  2  0
 16 18  2  0
 16 19  1  0
 19 20  1  0
 20 21  1  0
 21 22  1  0
 22 23  1  0
 23 24  1  0
 15 25  1  0
 25 26  2  0
  5 27  1  0
 27 28  2  0
 28 29  1  0
 29 30  2  0
 29 31  2  0
 29 32  1  0
 32 33  1  0
 33 34  1  0
 34 35  1  0
 35 36  1  0
 36 37  1  0
 28  2  1  0
 37 32  1  0
 26 12  1  0
 24 19  1  0
  1 38  1  0
  1 39  1  0
  1 40  1  0
  3 41  1  0
  4 42  1  0
 10 43  1  0
 10 44  1  0
 11 45  1  0
 11 46  1  0
 13 47  1  0
 14 48  1  0
 19 49  1  0
 20 50  1  0
 20 51  1  0
 21 52  1  0
 21 53  1  0
 23 54  1  0
 23 55  1  0
 24 56  1  0
 24 57  1  0
 25 58  1  0
 26 59  1  0
 27 60  1  0
 33 61  1  0
 33 62  1  0
 34 63  1  0
 34 64  1  0
 36 65  1  0
 36 66  1  0
 37 67  1  0
 37 68  1  0
M  CHG  2   9  -1  19   1
M  END
>  <UniqueID>  (24) 
23

>  <SMILES>  (24) 
Cc1ccc(S(=O)(=O)[N-]CCc2ccc(S(=O)(=O)[NH+]3CCOCC3)cc2)cc1S(=O)(=O)N1CCOCC1

>  <Energy>  (24) 
85.84628924795022

>  <Genealogy>  (24) 
Cc1ccc(S(=O)(=O)[N-]CCc2ccc(S(=O)(=O)[NH+]3CCOCC3)cc2)cc1S(=O)(=O)N1CCOCC1 (protonated)
Cc1ccc(S(=O)(=O)[N-]CCc2ccc(S(=O)(=O)[NH+]3CCOCC3)cc2)cc1S(=O)(=O)N1CCOCC1 (3D coordinates assigned)
Cc1ccc(S(=O)(=O)[N-]CCc2ccc(S(=O)(=O)[NH+]3CCOCC3)cc2)cc1S(=O)(=O)N1CCOCC1 (nonaromatic ring conformer: 85.84628924795022 kcal/mol)

>  <smiles>  (24) 
Cc1ccc(S(=O)(=O)NCCc2ccc(S(=O)(=O)N3CCOCC3)cc2)cc1S(=O)(=O)N1CCOCC1

>  <score_type>  (24) 
oracle

>  <origin>  (24) 
adgpu

>  <m_score__min__energy>  (24) 
-12.369999999999999

>  <m_primary>  (24) 
energy

$$$$
24:0
     RDKit          3D

 49 52  0  0  0  0  0  0  0  0999 V2000
   -0.7642   23.2266  -25.7813 H   0  0  0  0  0  0  0  0  0  0  0  0
   -1.3220   23.4530  -26.7020 C   0  0  0  0  0  0  0  0  0  0  0  0
   -2.3470   22.6040  -27.1230 C   0  0  0  0  0  0  0  0  0  0  0  0
   -2.5964   21.7095  -26.5333 H   0  0  0  0  0  0  0  0  0  0  0  0
   -3.0570   22.8890  -28.2930 C   0  0  0  0  0  0  0  0  0  0  0  0
   -3.8577   22.2117  -28.6250 H   0  0  0  0  0  0  0  0  0  0  0  0
   -2.7540   24.0370  -29.0490 C   0  0  0  0  0  0  0  0  0  0  0  0
   -3.5000   24.3180  -30.3000 C   0  0  0  0  0  0  0  0  0  0  0  0
   -3.8890   25.4940  -30.5330 O   0  0  0  0  0  0  0  0  0  0  0  0
   -3.7360   23.3090  -31.2950 N   0  0  0  0  0  0  0  0  0  0  0  0
   -2.9710   22.2880  -31.5380 C   0  0  0  0  0  0  0  0  0  0  0  0
   -1.8590   21.9760  -30.8440 N   0  0  0  0  0  0  0  0  0  0  0  0
   -1.3890   20.8680  -31.3940 N   0  0  0  0  0  0  0  0  0  0  0  0
   -2.2350   20.5470  -32.3950 C   0  0  0  0  0  0  0  0  0  0  0  0
   -2.0820   19.3700  -33.2730 C   0  0  0  0  0  0  0  0  0  0  0  0
   -0.9980   19.2910  -34.1620 C   0  0  0  0  0  0  0  0  0  0  0  0
   -0.2628   20.1082  -34.2029 H   0  0  0  0  0  0  0  0  0  0  0  0
   -0.8490   18.1790  -34.9950 C   0  0  0  0  0  0  0  0  0  0  0  0
    0.0050   18.1212  -35.6860 H   0  0  0  0  0  0  0  0  0  0  0  0
   -1.7820   17.1410  -34.9520 C   0  0  0  0  0  0  0  0  0  0  0  0
   -1.6595   16.2666  -35.6081 H   0  0  0  0  0  0  0  0  0  0  0  0
   -2.8740   17.2090  -34.0760 C   0  0  0  0  0  0  0  0  0  0  0  0
   -4.0670   15.9080  -34.0400 S   0  0  0  0  0  0  0  0  0  0  0  0
   -3.7040   14.9350  -32.9510 O   0  0  0  0  0  0  0  0  0  0  0  0
   -4.0310   15.1700  -35.3500 O   0  0  0  0  0  0  0  0  0  0  0  0
   -5.6830   16.5180  -33.7630 N   0  0  0  0  0  0  0  0  0  0  0  0
   -6.3260   15.7010  -33.8970 H   0  0  0  0  0  0  0  0  0  0  0  0
   -5.8230   16.9670  -32.3560 C   0  0  0  0  0  0  0  0  0  0  0  0
   -5.9512   16.0853  -31.7108 H   0  0  0  0  0  0  0  0  0  0  0  0
   -4.9164   17.5259  -32.0810 H   0  0  0  0  0  0  0  0  0  0  0  0
   -7.0310   17.8940  -32.1780 C   0  0  0  0  0  0  0  0  0  0  0  0
   -7.9403   17.3660  -32.5010 H   0  0  0  0  0  0  0  0  0  0  0  0
   -7.1044   18.1741  -31.1168 H   0  0  0  0  0  0  0  0  0  0  0  0
   -6.8700   19.1770  -33.0140 C   0  0  0  0  0  0  0  0  0  0  0  0
   -7.8627   19.4940  -33.3664 H   0  0  0  0  0  0  0  0  0  0  0  0
   -6.4047   19.9369  -32.3690 H   0  0  0  0  0  0  0  0  0  0  0  0
   -5.9540   18.9810  -34.2350 C   0  0  0  0  0  0  0  0  0  0  0  0
   -6.2540   19.6842  -35.0259 H   0  0  0  0  0  0  0  0  0  0  0  0
   -4.9149   19.1676  -33.9262 H   0  0  0  0  0  0  0  0  0  0  0  0
   -6.0530   17.5460  -34.7750 C   0  0  0  0  0  0  0  0  0  0  0  0
   -7.0885   17.3634  -35.0980 H   0  0  0  0  0  0  0  0  0  0  0  0
   -5.3417   17.4580  -35.6095 H   0  0  0  0  0  0  0  0  0  0  0  0
   -3.0160   18.3200  -33.2330 C   0  0  0  0  0  0  0  0  0  0  0  0
   -3.8646   18.3706  -32.5349 H   0  0  0  0  0  0  0  0  0  0  0  0
   -3.2140   21.4170  -32.4860 O   0  0  0  0  0  0  0  0  0  0  0  0
   -1.7120   24.8850  -28.6200 C   0  0  0  0  0  0  0  0  0  0  0  0
   -1.3820   26.0280  -29.3400 O   0  0  0  0  0  0  0  0  0  0  0  0
   -1.0040   24.5900  -27.4490 C   0  0  0  0  0  0  0  0  0  0  0  0
   -0.1943   25.2558  -27.1157 H   0  0  0  0  0  0  0  0  0  0  0  0
  1  2  1  0
  2  3  2  0
  3  4  1  0
  3  5  1  0
  5  6  1  0
  5  7  2  0
  7  8  1  0
  8  9  2  0
  8 10  1  0
 10 11  2  0
 11 12  1  0
 12 13  1  0
 13 14  2  0
 14 15  1  0
 15 16  2  0
 16 17  1  0
 16 18  1  0
 18 19  1  0
 18 20  2  0
 20 21  1  0
 20 22  1  0
 22 23  1  0
 23 24  2  0
 23 25  2  0
 23 26  1  0
 26 27  1  0
 26 28  1  0
 28 29  1  0
 28 30  1  0
 28 31  1  0
 31 32  1  0
 31 33  1  0
 31 34  1  0
 34 35  1  0
 34 36  1  0
 34 37  1  0
 37 38  1  0
 37 39  1  0
 37 40  1  0
 40 41  1  0
 40 42  1  0
 22 43  2  0
 43 44  1  0
 14 45  1  0
  7 46  1  0
 46 47  1  0
 46 48  2  0
 48 49  1  0
 48  2  1  0
 45 11  1  0
 43 15  1  0
 40 26  1  0
M  CHG  3  12  -1  26   1  47  -1
M  END
>  <UniqueID>  (25) 
24

>  <SMILES>  (25) 
O=C(/N=c1\[n-]nc(-c2cccc(S(=O)(=O)[NH+]3CCCCC3)c2)o1)c1ccccc1[O-]

>  <Energy>  (25) 
100.96412097982243

>  <Genealogy>  (25) 
O=C(N=c1[n-]nc(-c2cccc(S(=O)(=O)[NH+]3CCCCC3)c2)o1)c1ccccc1[O-] (protonated)
O=C(/N=c1\[n-]nc(-c2cccc(S(=O)(=O)[NH+]3CCCCC3)c2)o1)c1ccccc1[O-] (cis-trans isomerization)
O=C(/N=c1\[n-]nc(-c2cccc(S(=O)(=O)[NH+]3CCCCC3)c2)o1)c1ccccc1[O-] (3D coordinates assigned)
O=C(/N=c1\[n-]nc(-c2cccc(S(=O)(=O)[NH+]3CCCCC3)c2)o1)c1ccccc1[O-] (nonaromatic ring conformer: 100.96412097982243 kcal/mol)

>  <smiles>  (25) 
O=C(N=c1[nH]nc(-c2cccc(S(=O)(=O)N3CCCCC3)c2)o1)c1ccccc1O

>  <score_type>  (25) 
oracle

>  <origin>  (25) 
adgpu

>  <m_score__min__energy>  (25) 
-14.31

>  <m_primary>  (25) 
energy

$$$$
25:0
     RDKit          3D

 41 43  0  0  0  0  0  0  0  0999 V2000
   -3.2940   20.6790  -31.3660 C   0  0  0  0  0  0  0  0  0  0  0  0
   -3.4900   22.0040  -30.6780 C   0  0  0  0  0  0  0  0  0  0  0  0
   -2.4150   22.5900  -29.9870 C   0  0  0  0  0  0  0  0  0  0  0  0
   -2.5700   23.8220  -29.3400 C   0  0  0  0  0  0  0  0  0  0  0  0
   -1.2230   24.5370  -28.4600 S   0  0  0  0  0  0  0  0  0  0  0  0
   -1.2340   26.2500  -28.6810 N   0  0  0  0  0  0  0  0  0  0  0  0
   -1.3450   24.2210  -26.9960 O   0  0  0  0  0  0  0  0  0  0  0  0
    0.0740   23.9730  -28.9680 O   0  0  0  0  0  0  0  0  0  0  0  0
   -3.8080   24.4740  -29.3820 C   0  0  0  0  0  0  0  0  0  0  0  0
   -4.8780   23.9070  -30.0740 C   0  0  0  0  0  0  0  0  0  0  0  0
   -4.7350   22.6700  -30.7240 C   0  0  0  0  0  0  0  0  0  0  0  0
   -5.8340   22.1120  -31.4650 N   0  0  0  0  0  0  0  0  0  0  0  0
   -7.1600   22.6600  -31.4430 C   0  0  0  0  0  0  0  0  0  0  0  0
   -7.4390   23.6400  -30.6990 O   0  0  0  0  0  0  0  0  0  0  0  0
   -8.2490   22.0120  -32.2410 C   0  0  0  0  0  0  0  0  0  0  0  0
   -8.2320   20.5310  -32.0160 C   0  0  0  0  0  0  0  0  0  0  0  0
   -9.1070   19.8040  -31.2130 C   0  0  0  0  0  0  0  0  0  0  0  0
   -8.8530   18.4800  -31.3180 N   0  0  0  0  0  0  0  0  0  0  0  0
   -7.8360   18.3630  -32.1890 C   0  0  0  0  0  0  0  0  0  0  0  0
   -7.2370   17.1870  -32.6360 C   0  0  0  0  0  0  0  0  0  0  0  0
   -6.1950   17.2940  -33.5790 C   0  0  0  0  0  0  0  0  0  0  0  0
   -5.5480   16.1050  -34.0680 C   0  0  0  0  0  0  0  0  0  0  0  0
   -5.0290   15.1500  -34.4640 N   0  0  0  0  0  0  0  0  0  0  0  0
   -5.7840   18.5650  -34.0470 C   0  0  0  0  0  0  0  0  0  0  0  0
   -6.4100   19.7340  -33.5770 C   0  0  0  0  0  0  0  0  0  0  0  0
   -7.4330   19.5940  -32.6420 C   0  0  0  0  0  0  0  0  0  0  0  0
   -3.1769   19.8876  -30.6110 H   0  0  0  0  0  0  0  0  0  0  0  0
   -4.1694   20.4593  -31.9948 H   0  0  0  0  0  0  0  0  0  0  0  0
   -2.3925   20.7222  -31.9948 H   0  0  0  0  0  0  0  0  0  0  0  0
   -1.4431   22.0758  -29.9543 H   0  0  0  0  0  0  0  0  0  0  0  0
   -1.2380   26.4250  -29.7110 H   0  0  0  0  0  0  0  0  0  0  0  0
   -3.9375   25.4374  -28.8672 H   0  0  0  0  0  0  0  0  0  0  0  0
   -5.8431   24.4335  -30.1111 H   0  0  0  0  0  0  0  0  0  0  0  0
   -5.6890   21.2070  -31.9660 H   0  0  0  0  0  0  0  0  0  0  0  0
   -9.2222   22.4177  -31.9273 H   0  0  0  0  0  0  0  0  0  0  0  0
   -8.0877   22.2184  -33.3094 H   0  0  0  0  0  0  0  0  0  0  0  0
   -9.8935   20.2444  -30.5825 H   0  0  0  0  0  0  0  0  0  0  0  0
   -9.3600   17.7060  -30.8330 H   0  0  0  0  0  0  0  0  0  0  0  0
   -7.5671   16.2057  -32.2645 H   0  0  0  0  0  0  0  0  0  0  0  0
   -4.9699   18.6393  -34.7830 H   0  0  0  0  0  0  0  0  0  0  0  0
   -6.1015   20.7268  -33.9364 H   0  0  0  0  0  0  0  0  0  0  0  0
  1  2  1  0
  2  3  2  0
  3  4  1  0
  4  5  1  0
  5  6  1  0
  5  7  2  0
  5  8  2  0
  4  9  2  0
  9 10  1  0
 10 11  2  0
 11 12  1  0
 12 13  1  0
 13 14  2  0
 13 15  1  0
 15 16  1  0
 16 17  2  0
 17 18  1  0
 18 19  1  0
 19 20  2  0
 20 21  1  0
 21 22  1  0
 22 23  3  0
 21 24  2  0
 24 25  1  0
 25 26  2  0
 11  2  1  0
 26 16  1  0
 26 19  1  0
  1 27  1  0
  1 28  1  0
  1 29  1  0
  3 30  1  0
  6 31  1  0
  9 32  1  0
 10 33  1  0
 12 34  1  0
 15 35  1  0
 15 36  1  0
 17 37  1  0
 18 38  1  0
 20 39  1  0
 24 40  1  0
 25 41  1  0
M  CHG  1   6  -1
M  END
>  <UniqueID>  (26) 
25

>  <SMILES>  (26) 
Cc1cc(S([NH-])(=O)=O)ccc1NC(=O)Cc1c[nH]c2cc(C#N)ccc12

>  <Energy>  (26) 
75.98769006359187

>  <Genealogy>  (26) 
Cc1cc(S([NH-])(=O)=O)ccc1NC(=O)Cc1c[nH]c2cc(C#N)ccc12 (protonated)
Cc1cc(S([NH-])(=O)=O)ccc1NC(=O)Cc1c[nH]c2cc(C#N)ccc12 (3D coordinates assigned)
Cc1cc(S([NH-])(=O)=O)ccc1NC(=O)Cc1c[nH]c2cc(C#N)ccc12 (optimized conformer: 75.98769006359187 kcal/mol)

>  <smiles>  (26) 
Cc1cc(S(N)(=O)=O)ccc1NC(=O)Cc1c[nH]c2cc(C#N)ccc12

>  <score_type>  (26) 
oracle

>  <origin>  (26) 
adgpu

>  <m_score__min__energy>  (26) 
-11.619999999999999

>  <m_primary>  (26) 
energy

$$$$
26:0
     RDKit          3D

 47 51  0  0  0  0  0  0  0  0999 V2000
   -8.5800   19.2310  -31.7710 O   0  0  0  0  0  0  0  0  0  0  0  0
   -7.4290   19.6150  -32.1280 C   0  0  0  0  0  0  0  0  0  0  0  0
   -6.5950   18.7550  -33.0050 C   0  0  0  0  0  0  0  0  0  0  0  0
   -7.0590   17.4930  -33.4220 C   0  0  0  0  0  0  0  0  0  0  0  0
   -6.2750   16.6890  -34.2540 C   0  0  0  0  0  0  0  0  0  0  0  0
   -5.0220   17.1340  -34.6770 C   0  0  0  0  0  0  0  0  0  0  0  0
   -4.5480   18.3860  -34.2710 C   0  0  0  0  0  0  0  0  0  0  0  0
   -5.3260   19.2050  -33.4320 C   0  0  0  0  0  0  0  0  0  0  0  0
   -4.8280   20.5330  -32.9980 C   0  0  0  0  0  0  0  0  0  0  0  0
   -3.7100   20.9490  -33.4070 O   0  0  0  0  0  0  0  0  0  0  0  0
   -5.6460   21.3760  -32.0910 C   0  0  0  0  0  0  0  0  0  0  0  0
   -5.1710   22.6260  -31.6520 C   0  0  0  0  0  0  0  0  0  0  0  0
   -5.9580   23.4420  -30.8250 C   0  0  0  0  0  0  0  0  0  0  0  0
   -5.3930   25.0420  -30.3440 S   0  0  0  0  0  0  0  0  0  0  0  0
   -5.8760   26.0520  -31.3480 O   0  0  0  0  0  0  0  0  0  0  0  0
   -5.9420   25.4220  -28.9970 O   0  0  0  0  0  0  0  0  0  0  0  0
   -3.6590   25.0610  -30.3230 N   0  0  0  0  0  0  0  0  0  0  0  0
   -2.8370   24.2370  -29.4830 C   0  0  0  0  0  0  0  0  0  0  0  0
   -3.2240   22.9350  -29.1240 C   0  0  0  0  0  0  0  0  0  0  0  0
   -2.3830   22.1260  -28.3460 C   0  0  0  0  0  0  0  0  0  0  0  0
   -1.1620   22.6460  -27.8720 C   0  0  0  0  0  0  0  0  0  0  0  0
   -0.7860   23.9540  -28.2140 C   0  0  0  0  0  0  0  0  0  0  0  0
   -1.6210   24.7470  -29.0090 C   0  0  0  0  0  0  0  0  0  0  0  0
   -1.2280   26.0390  -29.3380 O   0  0  0  0  0  0  0  0  0  0  0  0
   -0.2030   21.7770  -27.0870 C   0  0  0  0  0  0  0  0  0  0  0  0
   -0.8630   20.6140  -26.4750 N   0  0  0  0  0  0  0  0  0  0  0  0
   -1.6740   19.8850  -27.4600 C   0  0  0  0  0  0  0  0  0  0  0  0
   -2.8440   20.7480  -27.9460 C   0  0  0  0  0  0  0  0  0  0  0  0
   -7.2210   22.9950  -30.4180 C   0  0  0  0  0  0  0  0  0  0  0  0
   -7.6950   21.7470  -30.8290 C   0  0  0  0  0  0  0  0  0  0  0  0
   -6.9170   20.9300  -31.6720 C   0  0  0  0  0  0  0  0  0  0  0  0
   -8.0457   17.1372  -33.0906 H   0  0  0  0  0  0  0  0  0  0  0  0
   -6.6460   15.7047  -34.5756 H   0  0  0  0  0  0  0  0  0  0  0  0
   -4.4059   16.4993  -35.3308 H   0  0  0  0  0  0  0  0  0  0  0  0
   -3.5605   18.7325  -34.6099 H   0  0  0  0  0  0  0  0  0  0  0  0
   -4.1718   22.9671  -31.9606 H   0  0  0  0  0  0  0  0  0  0  0  0
   -4.1975   22.5457  -29.4568 H   0  0  0  0  0  0  0  0  0  0  0  0
    0.1717   24.3587  -27.8547 H   0  0  0  0  0  0  0  0  0  0  0  0
    0.5837   21.4179  -27.7668 H   0  0  0  0  0  0  0  0  0  0  0  0
    0.2116   22.3903  -26.2734 H   0  0  0  0  0  0  0  0  0  0  0  0
   -1.4850   20.9460  -25.6970 H   0  0  0  0  0  0  0  0  0  0  0  0
   -1.0423   19.6164  -28.3196 H   0  0  0  0  0  0  0  0  0  0  0  0
   -2.0774   18.9791  -26.9840 H   0  0  0  0  0  0  0  0  0  0  0  0
   -3.3112   20.2609  -28.8146 H   0  0  0  0  0  0  0  0  0  0  0  0
   -3.5644   20.8502  -27.1210 H   0  0  0  0  0  0  0  0  0  0  0  0
   -7.8435   23.6303  -29.7708 H   0  0  0  0  0  0  0  0  0  0  0  0
   -8.6829   21.3999  -30.4919 H   0  0  0  0  0  0  0  0  0  0  0  0
  1  2  2  0
  2  3  1  0
  3  4  2  0
  4  5  1  0
  5  6  2  0
  6  7  1  0
  7  8  2  0
  8  9  1  0
  9 10  2  0
  9 11  1  0
 11 12  2  0
 12 13  1  0
 13 14  1  0
 14 15  2  0
 14 16  2  0
 14 17  1  0
 17 18  1  0
 18 19  2  0
 19 20  1  0
 20 21  2  0
 21 22  1  0
 22 23  2  0
 23 24  1  0
 21 25  1  0
 25 26  1  0
 26 27  1  0
 27 28  1  0
 13 29  2  0
 29 30  1  0
 30 31  2  0
 31  2  1  0
  8  3  1  0
 31 11  1  0
 23 18  1  0
 28 20  1  0
  4 32  1  0
  5 33  1  0
  6 34  1  0
  7 35  1  0
 12 36  1  0
 19 37  1  0
 22 38  1  0
 25 39  1  0
 25 40  1  0
 26 41  1  0
 27 42  1  0
 27 43  1  0
 28 44  1  0
 28 45  1  0
 29 46  1  0
 30 47  1  0
M  CHG  2  17  -1  24  -1
M  END
>  <UniqueID>  (27) 
26

>  <SMILES>  (27) 
O=C1c2ccccc2C(=O)c2cc(S(=O)(=O)[N-]c3cc4c(cc3[O-])CNCC4)ccc21

>  <Energy>  (27) 
64.38412010768064

>  <Genealogy>  (27) 
O=C1c2ccccc2C(=O)c2cc(S(=O)(=O)[N-]c3cc4c(cc3[O-])CNCC4)ccc21 (protonated)
O=C1c2ccccc2C(=O)c2cc(S(=O)(=O)[N-]c3cc4c(cc3[O-])CNCC4)ccc21 (3D coordinates assigned)
O=C1c2ccccc2C(=O)c2cc(S(=O)(=O)[N-]c3cc4c(cc3[O-])CNCC4)ccc21 (nonaromatic ring conformer: 64.38412010768064 kcal/mol)

>  <smiles>  (27) 
O=C1c2ccccc2C(=O)c2cc(S(=O)(=O)Nc3cc4c(cc3O)CNCC4)ccc21

>  <score_type>  (27) 
oracle

>  <origin>  (27) 
adgpu

>  <m_score__min__energy>  (27) 
-16.239999999999998

>  <m_primary>  (27) 
energy

$$$$
27:0
     RDKit          3D

 60 63  0  0  0  0  0  0  0  0999 V2000
   -4.9880   26.3180  -30.4240 O   0  0  0  0  0  0  0  0  0  0  0  0
   -4.5110   25.1550  -30.5280 C   0  0  0  0  0  0  0  0  0  0  0  0
   -3.1260   24.9150  -30.2470 N   0  0  0  0  0  0  0  0  0  0  0  0
   -2.4980   24.9430  -28.9570 C   0  0  0  0  0  0  0  0  0  0  0  0
   -3.1690   24.5360  -27.7900 C   0  0  0  0  0  0  0  0  0  0  0  0
   -2.5360   24.6240  -26.5450 C   0  0  0  0  0  0  0  0  0  0  0  0
   -1.2410   25.1490  -26.4470 C   0  0  0  0  0  0  0  0  0  0  0  0
   -0.4450   25.2530  -24.8760 S   0  0  0  0  0  0  0  0  0  0  0  0
    1.0420   25.1580  -25.0760 O   0  0  0  0  0  0  0  0  0  0  0  0
   -0.8680   24.0730  -24.0460 O   0  0  0  0  0  0  0  0  0  0  0  0
   -0.8230   26.7230  -24.0030 N   0  0  0  0  0  0  0  0  0  0  0  0
   -1.2040   27.8480  -24.8800 C   0  0  0  0  0  0  0  0  0  0  0  0
   -0.0030   28.7170  -25.2810 C   0  0  0  0  0  0  0  0  0  0  0  0
    0.7220   29.1290  -24.1440 O   0  0  0  0  0  0  0  0  0  0  0  0
    1.2800   27.9940  -23.5180 C   0  0  0  0  0  0  0  0  0  0  0  0
    0.1770   27.0760  -22.9760 C   0  0  0  0  0  0  0  0  0  0  0  0
   -0.5730   25.5600  -27.6080 C   0  0  0  0  0  0  0  0  0  0  0  0
   -1.2040   25.4710  -28.8520 C   0  0  0  0  0  0  0  0  0  0  0  0
   -5.4130   24.0250  -30.8310 C   0  0  0  0  0  0  0  0  0  0  0  0
   -4.8840   22.8970  -31.4830 C   0  0  0  0  0  0  0  0  0  0  0  0
   -5.7050   21.8180  -31.8300 C   0  0  0  0  0  0  0  0  0  0  0  0
   -5.0040   20.4090  -32.6270 S   0  0  0  0  0  0  0  0  0  0  0  0
   -4.1380   19.6890  -31.6330 O   0  0  0  0  0  0  0  0  0  0  0  0
   -4.1610   20.8580  -33.7860 O   0  0  0  0  0  0  0  0  0  0  0  0
   -6.2550   19.3340  -33.1990 N   0  0  0  0  0  0  0  0  0  0  0  0
   -5.9650   18.8530  -34.5730 C   0  0  0  0  0  0  0  0  0  0  0  0
   -5.4240   17.4170  -34.6080 C   0  0  0  0  0  0  0  0  0  0  0  0
   -6.4150   16.4340  -33.9610 C   0  0  0  0  0  0  0  0  0  0  0  0
   -7.2350   17.0760  -32.8290 C   0  0  0  0  0  0  0  0  0  0  0  0
   -6.4870   18.2600  -32.2090 C   0  0  0  0  0  0  0  0  0  0  0  0
   -7.0670   21.8550  -31.5150 C   0  0  0  0  0  0  0  0  0  0  0  0
   -7.6030   22.9630  -30.8570 C   0  0  0  0  0  0  0  0  0  0  0  0
   -6.7880   24.0410  -30.4920 C   0  0  0  0  0  0  0  0  0  0  0  0
   -7.3710   25.0800  -29.7660 O   0  0  0  0  0  0  0  0  0  0  0  0
   -4.1957   24.1468  -27.8561 H   0  0  0  0  0  0  0  0  0  0  0  0
   -3.0574   24.2795  -25.6398 H   0  0  0  0  0  0  0  0  0  0  0  0
   -1.6659   27.4427  -25.7924 H   0  0  0  0  0  0  0  0  0  0  0  0
   -1.9040   28.4851  -24.3196 H   0  0  0  0  0  0  0  0  0  0  0  0
    0.6591   28.1348  -25.9388 H   0  0  0  0  0  0  0  0  0  0  0  0
   -0.3748   29.6107  -25.8036 H   0  0  0  0  0  0  0  0  0  0  0  0
    1.8846   27.4386  -24.2501 H   0  0  0  0  0  0  0  0  0  0  0  0
    1.9077   28.3264  -22.6780 H   0  0  0  0  0  0  0  0  0  0  0  0
    0.6404   26.1508  -22.6027 H   0  0  0  0  0  0  0  0  0  0  0  0
   -0.3454   27.6197  -22.1751 H   0  0  0  0  0  0  0  0  0  0  0  0
    0.4517   25.9541  -27.5402 H   0  0  0  0  0  0  0  0  0  0  0  0
   -0.6811   25.8180  -29.7554 H   0  0  0  0  0  0  0  0  0  0  0  0
   -3.8111   22.8622  -31.7234 H   0  0  0  0  0  0  0  0  0  0  0  0
   -6.8942   18.8912  -35.1604 H   0  0  0  0  0  0  0  0  0  0  0  0
   -5.1855   19.5069  -34.9911 H   0  0  0  0  0  0  0  0  0  0  0  0
   -5.2570   17.1217  -35.6544 H   0  0  0  0  0  0  0  0  0  0  0  0
   -4.4817   17.3856  -34.0414 H   0  0  0  0  0  0  0  0  0  0  0  0
   -7.1074   16.0718  -34.7352 H   0  0  0  0  0  0  0  0  0  0  0  0
   -5.8294   15.6127  -33.5222 H   0  0  0  0  0  0  0  0  0  0  0  0
   -8.1936   17.4301  -33.2361 H   0  0  0  0  0  0  0  0  0  0  0  0
   -7.4023   16.3205  -32.0472 H   0  0  0  0  0  0  0  0  0  0  0  0
   -7.0833   18.6634  -31.3773 H   0  0  0  0  0  0  0  0  0  0  0  0
   -5.5096   17.9022  -31.8531 H   0  0  0  0  0  0  0  0  0  0  0  0
   -7.7167   21.0098  -31.7862 H   0  0  0  0  0  0  0  0  0  0  0  0
   -8.6774   22.9894  -30.6227 H   0  0  0  0  0  0  0  0  0  0  0  0
   -6.8550   25.8800  -29.4250 H   0  0  0  0  0  0  0  0  0  0  0  0
  1  2  2  0
  2  3  1  0
  3  4  1  0
  4  5  2  0
  5  6  1  0
  6  7  2  0
  7  8  1  0
  8  9  2  0
  8 10  2  0
  8 11  1  0
 11 12  1  0
 12 13  1  0
 13 14  1  0
 14 15  1  0
 15 16  1  0
  7 17  1  0
 17 18  2  0
  2 19  1  0
 19 20  2  0
 20 21  1  0
 21 22  1  0
 22 23  2  0
 22 24  2  0
 22 25  1  0
 25 26  1  0
 26 27  1  0
 27 28  1  0
 28 29  1  0
 29 30  1  0
 21 31  2  0
 31 32  1  0
 32 33  2  0
 33 34  1  0
 18  4  1  0
 33 19  1  0
 16 11  1  0
 30 25  1  0
  5 35  1  0
  6 36  1  0
 12 37  1  0
 12 38  1  0
 13 39  1  0
 13 40  1  0
 15 41  1  0
 15 42  1  0
 16 43  1  0
 16 44  1  0
 17 45  1  0
 18 46  1  0
 20 47  1  0
 26 48  1  0
 26 49  1  0
 27 50  1  0
 27 51  1  0
 28 52  1  0
 28 53  1  0
 29 54  1  0
 29 55  1  0
 30 56  1  0
 30 57  1  0
 31 58  1  0
 32 59  1  0
 34 60  1  0
M  CHG  1   3  -1
M  END
>  <UniqueID>  (28) 
27

>  <SMILES>  (28) 
O=C([N-]c1ccc(S(=O)(=O)N2CCOCC2)cc1)c1cc(S(=O)(=O)N2CCCCC2)ccc1O

>  <Energy>  (28) 
82.48875662747642

>  <Genealogy>  (28) 
O=C([N-]c1ccc(S(=O)(=O)N2CCOCC2)cc1)c1cc(S(=O)(=O)N2CCCCC2)ccc1O (protonated)
O=C([N-]c1ccc(S(=O)(=O)N2CCOCC2)cc1)c1cc(S(=O)(=O)N2CCCCC2)ccc1O (3D coordinates assigned)
O=C([N-]c1ccc(S(=O)(=O)N2CCOCC2)cc1)c1cc(S(=O)(=O)N2CCCCC2)ccc1O (nonaromatic ring conformer: 82.48875662747642 kcal/mol)

>  <smiles>  (28) 
O=C(Nc1ccc(S(=O)(=O)N2CCOCC2)cc1)c1cc(S(=O)(=O)N2CCCCC2)ccc1O

>  <score_type>  (28) 
oracle

>  <origin>  (28) 
adgpu

>  <m_score__min__energy>  (28) 
-11.880000000000001

>  <m_primary>  (28) 
energy

$$$$
28:0
     RDKit          3D

 42 44  0  0  0  0  0  0  0  0999 V2000
   -2.0420   17.0210  -33.8610 C   0  0  0  0  0  0  0  0  0  0  0  0
   -3.3540   16.8940  -34.3990 O   0  0  0  0  0  0  0  0  0  0  0  0
   -4.4470   17.6830  -34.0140 C   0  0  0  0  0  0  0  0  0  0  0  0
   -5.6780   17.0530  -33.7930 C   0  0  0  0  0  0  0  0  0  0  0  0
   -6.7970   17.7960  -33.4090 C   0  0  0  0  0  0  0  0  0  0  0  0
   -6.7020   19.1860  -33.2440 C   0  0  0  0  0  0  0  0  0  0  0  0
   -7.9090   19.9950  -32.8490 C   0  0  0  0  0  0  0  0  0  0  0  0
   -7.9390   20.2390  -31.4050 N   0  0  0  0  0  0  0  0  0  0  0  0
   -8.3670   21.8860  -31.0380 S   0  0  0  0  0  0  0  0  0  0  0  0
   -9.1580   21.9230  -29.7610 O   0  0  0  0  0  0  0  0  0  0  0  0
   -9.2290   22.4240  -32.1460 O   0  0  0  0  0  0  0  0  0  0  0  0
   -6.9330   22.9030  -30.8990 C   0  0  0  0  0  0  0  0  0  0  0  0
   -7.0440   24.2560  -30.5580 C   0  0  0  0  0  0  0  0  0  0  0  0
   -5.8990   25.0420  -30.4280 C   0  0  0  0  0  0  0  0  0  0  0  0
   -4.6320   24.4870  -30.6380 C   0  0  0  0  0  0  0  0  0  0  0  0
   -3.5080   25.2870  -30.4670 O   0  0  0  0  0  0  0  0  0  0  0  0
   -4.5070   23.1280  -30.9940 C   0  0  0  0  0  0  0  0  0  0  0  0
   -3.1780   22.5130  -31.2290 C   0  0  0  0  0  0  0  0  0  0  0  0
   -2.9170   21.8050  -32.4130 C   0  0  0  0  0  0  0  0  0  0  0  0
   -1.6600   21.2380  -32.6280 C   0  0  0  0  0  0  0  0  0  0  0  0
   -0.6670   21.3880  -31.6590 C   0  0  0  0  0  0  0  0  0  0  0  0
   -0.9270   22.0830  -30.5200 N   0  0  0  0  0  0  0  0  0  0  0  0
   -2.1440   22.6430  -30.2850 C   0  0  0  0  0  0  0  0  0  0  0  0
   -5.6670   22.3430  -31.1160 C   0  0  0  0  0  0  0  0  0  0  0  0
   -5.4700   19.8210  -33.4610 C   0  0  0  0  0  0  0  0  0  0  0  0
   -4.3490   19.0780  -33.8440 C   0  0  0  0  0  0  0  0  0  0  0  0
   -2.0942   17.0159  -32.7623 H   0  0  0  0  0  0  0  0  0  0  0  0
   -1.4225   16.1786  -34.2025 H   0  0  0  0  0  0  0  0  0  0  0  0
   -1.5956   17.9666  -34.2025 H   0  0  0  0  0  0  0  0  0  0  0  0
   -5.7646   15.9641  -33.9228 H   0  0  0  0  0  0  0  0  0  0  0  0
   -7.7574   17.2887  -33.2351 H   0  0  0  0  0  0  0  0  0  0  0  0
   -7.8803   20.9608  -33.3747 H   0  0  0  0  0  0  0  0  0  0  0  0
   -8.8109   19.4282  -33.1234 H   0  0  0  0  0  0  0  0  0  0  0  0
   -8.0364   24.7005  -30.3922 H   0  0  0  0  0  0  0  0  0  0  0  0
   -5.9928   26.1044  -30.1588 H   0  0  0  0  0  0  0  0  0  0  0  0
   -3.7050   21.6970  -33.1729 H   0  0  0  0  0  0  0  0  0  0  0  0
   -1.4540   20.6783  -33.5523 H   0  0  0  0  0  0  0  0  0  0  0  0
    0.3267   20.9436  -31.8170 H   0  0  0  0  0  0  0  0  0  0  0  0
   -2.3201   23.1998  -29.3528 H   0  0  0  0  0  0  0  0  0  0  0  0
   -5.5800   21.2798  -31.3842 H   0  0  0  0  0  0  0  0  0  0  0  0
   -5.3853   20.9098  -33.3291 H   0  0  0  0  0  0  0  0  0  0  0  0
   -3.3873   19.5845  -34.0131 H   0  0  0  0  0  0  0  0  0  0  0  0
  1  2  1  0
  2  3  1  0
  3  4  2  0
  4  5  1  0
  5  6  2  0
  6  7  1  0
  7  8  1  0
  8  9  1  0
  9 10  2  0
  9 11  2  0
  9 12  1  0
 12 13  2  0
 13 14  1  0
 14 15  2  0
 15 16  1  0
 15 17  1  0
 17 18  1  0
 18 19  2  0
 19 20  1  0
 20 21  2  0
 21 22  1  0
 22 23  2  0
 17 24  2  0
  6 25  1  0
 25 26  2  0
 26  3  1  0
 24 12  1  0
 23 18  1  0
  1 27  1  0
  1 28  1  0
  1 29  1  0
  4 30  1  0
  5 31  1  0
  7 32  1  0
  7 33  1  0
 13 34  1  0
 14 35  1  0
 19 36  1  0
 20 37  1  0
 21 38  1  0
 23 39  1  0
 24 40  1  0
 25 41  1  0
 26 42  1  0
M  CHG  2   8  -1  16  -1
M  END
>  <UniqueID>  (29) 
28

>  <SMILES>  (29) 
COc1ccc(C[N-]S(=O)(=O)c2ccc([O-])c(-c3cccnc3)c2)cc1

>  <Energy>  (29) 
49.723025836753074

>  <Genealogy>  (29) 
COc1ccc(C[N-]S(=O)(=O)c2ccc([O-])c(-c3cccnc3)c2)cc1 (protonated)
COc1ccc(C[N-]S(=O)(=O)c2ccc([O-])c(-c3cccnc3)c2)cc1 (3D coordinates assigned)
COc1ccc(C[N-]S(=O)(=O)c2ccc([O-])c(-c3cccnc3)c2)cc1 (optimized conformer: 49.723025836753074 kcal/mol)

>  <smiles>  (29) 
COc1ccc(CNS(=O)(=O)c2ccc(O)c(-c3cccnc3)c2)cc1

>  <score_type>  (29) 
oracle

>  <origin>  (29) 
adgpu

>  <m_score__min__energy>  (29) 
-11.6

>  <m_primary>  (29) 
energy

$$$$
29:0
     RDKit          3D

 47 50  0  0  0  0  0  0  0  0999 V2000
   -3.3730   23.6040  -31.0420 O   0  0  0  0  0  0  0  0  0  0  0  0
   -3.5710   24.1970  -29.9470 C   0  0  0  0  0  0  0  0  0  0  0  0
   -4.7900   24.9300  -29.7410 N   0  0  0  0  0  0  0  0  0  0  0  0
   -5.7760   25.1190  -30.8030 C   0  0  0  0  0  0  0  0  0  0  0  0
   -6.4540   23.8130  -31.1180 C   0  0  0  0  0  0  0  0  0  0  0  0
   -6.1220   23.1160  -32.2900 C   0  0  0  0  0  0  0  0  0  0  0  0
   -6.7220   21.8860  -32.5740 C   0  0  0  0  0  0  0  0  0  0  0  0
   -7.6610   21.3390  -31.6890 C   0  0  0  0  0  0  0  0  0  0  0  0
   -8.3850   19.7740  -32.0310 S   0  0  0  0  0  0  0  0  0  0  0  0
   -9.0860   19.2520  -30.8070 O   0  0  0  0  0  0  0  0  0  0  0  0
   -9.4030   19.9110  -33.1280 O   0  0  0  0  0  0  0  0  0  0  0  0
   -7.1210   18.6540  -32.5190 C   0  0  0  0  0  0  0  0  0  0  0  0
   -6.7170   17.6250  -31.6560 C   0  0  0  0  0  0  0  0  0  0  0  0
   -5.6940   16.7500  -32.0360 C   0  0  0  0  0  0  0  0  0  0  0  0
   -5.0670   16.9020  -33.2760 C   0  0  0  0  0  0  0  0  0  0  0  0
   -5.4600   17.9320  -34.1370 C   0  0  0  0  0  0  0  0  0  0  0  0
   -4.8470   18.0820  -35.3360 F   0  0  0  0  0  0  0  0  0  0  0  0
   -6.4820   18.8080  -33.7590 C   0  0  0  0  0  0  0  0  0  0  0  0
   -7.9850   22.0270  -30.5120 C   0  0  0  0  0  0  0  0  0  0  0  0
   -7.3870   23.2570  -30.2280 C   0  0  0  0  0  0  0  0  0  0  0  0
   -2.5710   24.1310  -28.9170 N   0  0  0  0  0  0  0  0  0  0  0  0
   -2.7870   24.5280  -27.5230 C   0  0  0  0  0  0  0  0  0  0  0  0
   -1.4570   24.3080  -26.9050 C   0  0  0  0  0  0  0  0  0  0  0  0
   -1.0770   24.5250  -25.5820 C   0  0  0  0  0  0  0  0  0  0  0  0
    0.2530   24.2440  -25.2300 C   0  0  0  0  0  0  0  0  0  0  0  0
    1.1300   23.7750  -26.1670 N   0  0  0  0  0  0  0  0  0  0  0  0
    0.7550   23.5650  -27.4620 C   0  0  0  0  0  0  0  0  0  0  0  0
   -0.5610   23.8380  -27.8310 C   0  0  0  0  0  0  0  0  0  0  0  0
   -1.1950   23.6940  -29.1620 C   0  0  0  0  0  0  0  0  0  0  0  0
   -4.9900   25.3560  -28.8090 H   0  0  0  0  0  0  0  0  0  0  0  0
   -6.5294   25.8499  -30.4740 H   0  0  0  0  0  0  0  0  0  0  0  0
   -5.2665   25.4869  -31.7058 H   0  0  0  0  0  0  0  0  0  0  0  0
   -5.3857   23.5399  -32.9887 H   0  0  0  0  0  0  0  0  0  0  0  0
   -6.4565   21.3458  -33.4947 H   0  0  0  0  0  0  0  0  0  0  0  0
   -7.2058   17.5057  -30.6778 H   0  0  0  0  0  0  0  0  0  0  0  0
   -5.3826   15.9414  -31.3583 H   0  0  0  0  0  0  0  0  0  0  0  0
   -4.2645   16.2116  -33.5748 H   0  0  0  0  0  0  0  0  0  0  0  0
   -6.7861   19.6203  -34.4355 H   0  0  0  0  0  0  0  0  0  0  0  0
   -8.7133   21.5967  -29.8088 H   0  0  0  0  0  0  0  0  0  0  0  0
   -7.6481   23.7923  -29.3032 H   0  0  0  0  0  0  0  0  0  0  0  0
   -3.0853   25.5846  -27.4543 H   0  0  0  0  0  0  0  0  0  0  0  0
   -3.5929   23.9638  -27.0309 H   0  0  0  0  0  0  0  0  0  0  0  0
   -1.7943   24.9034  -24.8389 H   0  0  0  0  0  0  0  0  0  0  0  0
    0.5905   24.4022  -24.1951 H   0  0  0  0  0  0  0  0  0  0  0  0
    1.4775   23.1875  -28.2006 H   0  0  0  0  0  0  0  0  0  0  0  0
   -0.7023   24.3363  -29.9068 H   0  0  0  0  0  0  0  0  0  0  0  0
   -1.1286   22.6734  -29.5670 H   0  0  0  0  0  0  0  0  0  0  0  0
  1  2  2  0
  2  3  1  0
  3  4  1  0
  4  5  1  0
  5  6  2  0
  6  7  1  0
  7  8  2  0
  8  9  1  0
  9 10  2  0
  9 11  2  0
  9 12  1  0
 12 13  2  0
 13 14  1  0
 14 15  2  0
 15 16  1  0
 16 17  1  0
 16 18  2  0
  8 19  1  0
 19 20  2  0
  2 21  1  0
 21 22  1  0
 22 23  1  0
 23 24  2  0
 24 25  1  0
 25 26  2  0
 26 27  1  0
 27 28  2  0
 28 29  1  0
 20  5  1  0
 29 21  1  0
 18 12  1  0
 28 23  1  0
  3 30  1  0
  4 31  1  0
  4 32  1  0
  6 33  1  0
  7 34  1  0
 13 35  1  0
 14 36  1  0
 15 37  1  0
 18 38  1  0
 19 39  1  0
 20 40  1  0
 22 41  1  0
 22 42  1  0
 24 43  1  0
 25 44  1  0
 27 45  1  0
 29 46  1  0
 29 47  1  0
M  END
>  <UniqueID>  (30) 
29

>  <SMILES>  (30) 
O=C(NCc1ccc(S(=O)(=O)c2cccc(F)c2)cc1)N1Cc2ccncc2C1

>  <Energy>  (30) 
61.08893253789279

>  <Genealogy>  (30) 
O=C(NCc1ccc(S(=O)(=O)c2cccc(F)c2)cc1)N1Cc2ccncc2C1 (3D coordinates assigned)
O=C(NCc1ccc(S(=O)(=O)c2cccc(F)c2)cc1)N1Cc2ccncc2C1 (nonaromatic ring conformer: 61.08893253789279 kcal/mol)

>  <smiles>  (30) 
O=C(NCc1ccc(S(=O)(=O)c2cccc(F)c2)cc1)N1Cc2ccncc2C1

>  <score_type>  (30) 
oracle

>  <origin>  (30) 
adgpu

>  <m_score__min__energy>  (30) 
-10.17

>  <m_primary>  (30) 
energy

$$$$
30:0
     RDKit          3D

 62 66  0  0  0  0  0  0  0  0999 V2000
   -7.7980   19.1350  -32.8450 O   0  0  0  0  0  0  0  0  0  0  0  0
   -6.6310   19.5950  -32.9610 C   0  0  0  0  0  0  0  0  0  0  0  0
   -6.3060   20.8930  -32.3360 C   0  0  0  0  0  0  0  0  0  0  0  0
   -5.1210   21.5700  -32.6660 C   0  0  0  0  0  0  0  0  0  0  0  0
   -4.8160   22.7980  -32.0680 C   0  0  0  0  0  0  0  0  0  0  0  0
   -5.6890   23.3650  -31.1250 C   0  0  0  0  0  0  0  0  0  0  0  0
   -5.3220   24.9350  -30.4110 S   0  0  0  0  0  0  0  0  0  0  0  0
   -5.9140   25.0010  -29.0310 O   0  0  0  0  0  0  0  0  0  0  0  0
   -5.9270   26.0490  -31.2180 O   0  0  0  0  0  0  0  0  0  0  0  0
   -3.6030   25.1240  -30.2790 N   0  0  0  0  0  0  0  0  0  0  0  0
   -2.7220   24.3210  -29.4800 C   0  0  0  0  0  0  0  0  0  0  0  0
   -3.0040   22.9740  -29.1870 C   0  0  0  0  0  0  0  0  0  0  0  0
   -2.1390   22.2220  -28.3790 C   0  0  0  0  0  0  0  0  0  0  0  0
   -0.9540   22.8090  -27.8870 C   0  0  0  0  0  0  0  0  0  0  0  0
   -0.6680   24.1470  -28.1920 C   0  0  0  0  0  0  0  0  0  0  0  0
   -1.5390   24.8950  -28.9930 C   0  0  0  0  0  0  0  0  0  0  0  0
   -1.2270   26.2140  -29.2990 O   0  0  0  0  0  0  0  0  0  0  0  0
   -0.0360   22.0440  -26.9620 C   0  0  0  0  0  0  0  0  0  0  0  0
   -0.2100   20.5890  -27.0770 N   0  0  0  0  0  0  0  0  0  0  0  0
   -1.6250   20.2170  -26.9490 C   0  0  0  0  0  0  0  0  0  0  0  0
   -2.4490   20.7690  -28.1210 C   0  0  0  0  0  0  0  0  0  0  0  0
   -6.8790   22.6940  -30.8040 C   0  0  0  0  0  0  0  0  0  0  0  0
   -7.1920   21.4740  -31.4150 C   0  0  0  0  0  0  0  0  0  0  0  0
   -5.6300   18.8310  -33.6640 N   0  0  0  0  0  0  0  0  0  0  0  0
   -4.2630   18.7660  -33.1220 C   0  0  0  0  0  0  0  0  0  0  0  0
   -3.4880   17.5730  -33.6930 C   0  0  0  0  0  0  0  0  0  0  0  0
   -4.3610   16.3940  -33.7440 N   0  0  0  0  0  0  0  0  0  0  0  0
   -4.0410   15.2220  -32.9670 C   0  0  0  0  0  0  0  0  0  0  0  0
   -4.9220   14.7870  -31.9610 C   0  0  0  0  0  0  0  0  0  0  0  0
   -4.6320   13.6410  -31.2150 C   0  0  0  0  0  0  0  0  0  0  0  0
   -3.4640   12.9150  -31.4700 C   0  0  0  0  0  0  0  0  0  0  0  0
   -2.5800   13.3400  -32.4670 C   0  0  0  0  0  0  0  0  0  0  0  0
   -2.8620   14.4940  -33.2180 C   0  0  0  0  0  0  0  0  0  0  0  0
   -1.9660   14.9300  -34.1950 O   0  0  0  0  0  0  0  0  0  0  0  0
   -5.6770   16.4850  -34.3910 C   0  0  0  0  0  0  0  0  0  0  0  0
   -6.0190   17.9330  -34.7600 C   0  0  0  0  0  0  0  0  0  0  0  0
   -4.4278   21.1323  -33.3994 H   0  0  0  0  0  0  0  0  0  0  0  0
   -3.8873   23.3221  -32.3380 H   0  0  0  0  0  0  0  0  0  0  0  0
   -3.9118   22.5062  -29.5957 H   0  0  0  0  0  0  0  0  0  0  0  0
    0.2478   24.6127  -27.7990 H   0  0  0  0  0  0  0  0  0  0  0  0
    1.0056   22.2959  -27.2103 H   0  0  0  0  0  0  0  0  0  0  0  0
   -0.2851   22.3309  -25.9297 H   0  0  0  0  0  0  0  0  0  0  0  0
    0.1410   20.2750  -28.0140 H   0  0  0  0  0  0  0  0  0  0  0  0
   -1.7085   19.1203  -26.9360 H   0  0  0  0  0  0  0  0  0  0  0  0
   -2.0160   20.6452  -26.0143 H   0  0  0  0  0  0  0  0  0  0  0  0
   -2.2172   20.1880  -29.0258 H   0  0  0  0  0  0  0  0  0  0  0  0
   -3.5150   20.6842  -27.8634 H   0  0  0  0  0  0  0  0  0  0  0  0
   -7.5703   23.1295  -30.0675 H   0  0  0  0  0  0  0  0  0  0  0  0
   -8.1378   20.9676  -31.1720 H   0  0  0  0  0  0  0  0  0  0  0  0
   -3.7317   19.6939  -33.3802 H   0  0  0  0  0  0  0  0  0  0  0  0
   -4.3300   18.6435  -32.0309 H   0  0  0  0  0  0  0  0  0  0  0  0
   -3.1407   17.8149  -34.7083 H   0  0  0  0  0  0  0  0  0  0  0  0
   -2.6233   17.3581  -33.0479 H   0  0  0  0  0  0  0  0  0  0  0  0
   -5.8444   15.3516  -31.7600 H   0  0  0  0  0  0  0  0  0  0  0  0
   -5.3234   13.3096  -30.4262 H   0  0  0  0  0  0  0  0  0  0  0  0
   -3.2407   12.0097  -30.8864 H   0  0  0  0  0  0  0  0  0  0  0  0
   -1.6607   12.7690  -32.6641 H   0  0  0  0  0  0  0  0  0  0  0  0
   -2.1620   14.8360  -35.1810 H   0  0  0  0  0  0  0  0  0  0  0  0
   -5.6690   15.8746  -35.3061 H   0  0  0  0  0  0  0  0  0  0  0  0
   -6.4365   16.1188  -33.6846 H   0  0  0  0  0  0  0  0  0  0  0  0
   -5.4754   18.2152  -35.6737 H   0  0  0  0  0  0  0  0  0  0  0  0
   -7.1021   18.0179  -34.9320 H   0  0  0  0  0  0  0  0  0  0  0  0
  1  2  2  0
  2  3  1  0
  3  4  2  0
  4  5  1  0
  5  6  2  0
  6  7  1  0
  7  8  2  0
  7  9  2  0
  7 10  1  0
 10 11  1  0
 11 12  2  0
 12 13  1  0
 13 14  2  0
 14 15  1  0
 15 16  2  0
 16 17  1  0
 14 18  1  0
 18 19  1  0
 19 20  1  0
 20 21  1  0
  6 22  1  0
 22 23  2  0
  2 24  1  0
 24 25  1  0
 25 26  1  0
 26 27  1  0
 27 28  1  0
 28 29  2  0
 29 30  1  0
 30 31  2  0
 31 32  1  0
 32 33  2  0
 33 34  1  0
 27 35  1  0
 35 36  1  0
 23  3  1  0
 36 24  1  0
 16 11  1  0
 33 28  1  0
 21 13  1  0
  4 37  1  0
  5 38  1  0
 12 39  1  0
 15 40  1  0
 18 41  1  0
 18 42  1  0
 19 43  1  0
 20 44  1  0
 20 45  1  0
 21 46  1  0
 21 47  1  0
 22 48  1  0
 23 49  1  0
 25 50  1  0
 25 51  1  0
 26 52  1  0
 26 53  1  0
 29 54  1  0
 30 55  1  0
 31 56  1  0
 32 57  1  0
 34 58  1  0
 35 59  1  0
 35 60  1  0
 36 61  1  0
 36 62  1  0
M  CHG  2  10  -1  17  -1
M  END
>  <UniqueID>  (31) 
30

>  <SMILES>  (31) 
O=C(c1ccc(S(=O)(=O)[N-]c2cc3c(cc2[O-])CNCC3)cc1)N1CCN(c2ccccc2O)CC1

>  <Energy>  (31) 
85.69173599964493

>  <Genealogy>  (31) 
O=C(c1ccc(S(=O)(=O)[N-]c2cc3c(cc2[O-])CNCC3)cc1)N1CCN(c2ccccc2O)CC1 (protonated)
O=C(c1ccc(S(=O)(=O)[N-]c2cc3c(cc2[O-])CNCC3)cc1)N1CCN(c2ccccc2O)CC1 (3D coordinates assigned)
O=C(c1ccc(S(=O)(=O)[N-]c2cc3c(cc2[O-])CNCC3)cc1)N1CCN(c2ccccc2O)CC1 (nonaromatic ring conformer: 85.69173599964493 kcal/mol)

>  <smiles>  (31) 
O=C(c1ccc(S(=O)(=O)Nc2cc3c(cc2O)CNCC3)cc1)N1CCN(c2ccccc2O)CC1

>  <score_type>  (31) 
oracle

>  <origin>  (31) 
adgpu

>  <m_score__min__energy>  (31) 
-15.01

>  <m_primary>  (31) 
energy

$$$$
31:0
     RDKit          3D

 51 54  0  0  0  0  0  0  0  0999 V2000
   -6.8490   25.6460  -29.8180 O   0  0  0  0  0  0  0  0  0  0  0  0
   -5.6090   24.8390  -30.0770 S   0  0  0  0  0  0  0  0  0  0  0  0
   -4.6470   25.6590  -30.8920 O   0  0  0  0  0  0  0  0  0  0  0  0
   -4.8600   24.4370  -28.5620 N   0  0  0  0  0  0  0  0  0  0  0  0
   -3.7250   23.5590  -28.4530 C   0  0  0  0  0  0  0  0  0  0  0  0
   -3.8610   22.2510  -27.9540 C   0  0  0  0  0  0  0  0  0  0  0  0
   -2.7420   21.4200  -27.7990 C   0  0  0  0  0  0  0  0  0  0  0  0
   -1.4720   21.8790  -28.2000 C   0  0  0  0  0  0  0  0  0  0  0  0
   -1.3360   23.1800  -28.7050 C   0  0  0  0  0  0  0  0  0  0  0  0
   -2.4500   24.0120  -28.8350 C   0  0  0  0  0  0  0  0  0  0  0  0
   -2.2790   25.3000  -29.3320 O   0  0  0  0  0  0  0  0  0  0  0  0
   -0.2410   21.0280  -27.9930 C   0  0  0  0  0  0  0  0  0  0  0  0
   -0.5640   19.6000  -27.8680 N   0  0  0  0  0  0  0  0  0  0  0  0
   -1.6020   19.3870  -26.8520 C   0  0  0  0  0  0  0  0  0  0  0  0
   -2.9300   20.0170  -27.2860 C   0  0  0  0  0  0  0  0  0  0  0  0
   -6.0590   23.3720  -30.9430 C   0  0  0  0  0  0  0  0  0  0  0  0
   -7.3980   23.1260  -31.2700 C   0  0  0  0  0  0  0  0  0  0  0  0
   -7.7440   21.9810  -31.9930 C   0  0  0  0  0  0  0  0  0  0  0  0
   -6.7550   21.0790  -32.3930 C   0  0  0  0  0  0  0  0  0  0  0  0
   -5.4130   21.3110  -32.0600 C   0  0  0  0  0  0  0  0  0  0  0  0
   -4.1550   20.1880  -32.5910 S   0  0  0  0  0  0  0  0  0  0  0  0
   -3.1220   20.0650  -31.5040 O   0  0  0  0  0  0  0  0  0  0  0  0
   -3.4810   20.7500  -33.8100 O   0  0  0  0  0  0  0  0  0  0  0  0
   -4.7770   18.6000  -32.9660 N   0  0  0  0  0  0  0  0  0  0  0  0
   -5.4760   18.5740  -34.2500 C   0  0  0  0  0  0  0  0  0  0  0  0
   -6.4580   17.4150  -34.1780 C   0  0  0  0  0  0  0  0  0  0  0  0
   -6.6480   17.1390  -32.6930 C   0  0  0  0  0  0  0  0  0  0  0  0
   -5.7550   18.1440  -31.9810 C   0  0  0  0  0  0  0  0  0  0  0  0
   -5.0710   22.4580  -31.3320 C   0  0  0  0  0  0  0  0  0  0  0  0
   -5.3570   24.7440  -27.6960 H   0  0  0  0  0  0  0  0  0  0  0  0
   -4.8582   21.8749  -27.6817 H   0  0  0  0  0  0  0  0  0  0  0  0
   -0.3429   23.5486  -29.0014 H   0  0  0  0  0  0  0  0  0  0  0  0
    0.4318   21.1644  -28.8525 H   0  0  0  0  0  0  0  0  0  0  0  0
    0.2353   21.3484  -27.0547 H   0  0  0  0  0  0  0  0  0  0  0  0
   -0.9120   19.2480  -28.7920 H   0  0  0  0  0  0  0  0  0  0  0  0
   -1.7468   18.3064  -26.7062 H   0  0  0  0  0  0  0  0  0  0  0  0
   -1.2780   19.8615  -25.9140 H   0  0  0  0  0  0  0  0  0  0  0  0
   -3.3717   19.4023  -28.0841 H   0  0  0  0  0  0  0  0  0  0  0  0
   -3.5913   20.0597  -26.4080 H   0  0  0  0  0  0  0  0  0  0  0  0
   -8.1788   23.8349  -30.9574 H   0  0  0  0  0  0  0  0  0  0  0  0
   -8.7969   21.7897  -32.2475 H   0  0  0  0  0  0  0  0  0  0  0  0
   -7.0300   20.1843  -32.9708 H   0  0  0  0  0  0  0  0  0  0  0  0
   -6.0143   19.5199  -34.4099 H   0  0  0  0  0  0  0  0  0  0  0  0
   -4.7720   18.4501  -35.0860 H   0  0  0  0  0  0  0  0  0  0  0  0
   -7.4153   17.6920  -34.6437 H   0  0  0  0  0  0  0  0  0  0  0  0
   -6.0865   16.5296  -34.7148 H   0  0  0  0  0  0  0  0  0  0  0  0
   -7.6994   17.2859  -32.4051 H   0  0  0  0  0  0  0  0  0  0  0  0
   -6.3886   16.1024  -32.4318 H   0  0  0  0  0  0  0  0  0  0  0  0
   -6.3527   18.9930  -31.6176 H   0  0  0  0  0  0  0  0  0  0  0  0
   -5.2604   17.6898  -31.1098 H   0  0  0  0  0  0  0  0  0  0  0  0
   -4.0201   22.6422  -31.0641 H   0  0  0  0  0  0  0  0  0  0  0  0
  1  2  2  0
  2  3  2  0
  2  4  1  0
  4  5  1  0
  5  6  2  0
  6  7  1  0
  7  8  2  0
  8  9  1  0
  9 10  2  0
 10 11  1  0
  8 12  1  0
 12 13  1  0
 13 14  1  0
 14 15  1  0
  2 16  1  0
 16 17  2  0
 17 18  1  0
 18 19  2  0
 19 20  1  0
 20 21  1  0
 21 22  2  0
 21 23  2  0
 21 24  1  0
 24 25  1  0
 25 26  1  0
 26 27  1  0
 27 28  1  0
 20 29  2  0
 10  5  1  0
 29 16  1  0
 15  7  1  0
 28 24  1  0
  4 30  1  0
  6 31  1  0
  9 32  1  0
 12 33  1  0
 12 34  1  0
 13 35  1  0
 14 36  1  0
 14 37  1  0
 15 38  1  0
 15 39  1  0
 17 40  1  0
 18 41  1  0
 19 42  1  0
 25 43  1  0
 25 44  1  0
 26 45  1  0
 26 46  1  0
 27 47  1  0
 27 48  1  0
 28 49  1  0
 28 50  1  0
 29 51  1  0
M  CHG  1  11  -1
M  END
>  <UniqueID>  (32) 
31

>  <SMILES>  (32) 
O=S(=O)(Nc1cc2c(cc1[O-])CNCC2)c1cccc(S(=O)(=O)N2CCCC2)c1

>  <Energy>  (32) 
58.56635982084936

>  <Genealogy>  (32) 
O=S(=O)(Nc1cc2c(cc1[O-])CNCC2)c1cccc(S(=O)(=O)N2CCCC2)c1 (protonated)
O=S(=O)(Nc1cc2c(cc1[O-])CNCC2)c1cccc(S(=O)(=O)N2CCCC2)c1 (3D coordinates assigned)
O=S(=O)(Nc1cc2c(cc1[O-])CNCC2)c1cccc(S(=O)(=O)N2CCCC2)c1 (nonaromatic ring conformer: 58.56635982084936 kcal/mol)

>  <smiles>  (32) 
O=S(=O)(Nc1cc2c(cc1O)CNCC2)c1cccc(S(=O)(=O)N2CCCC2)c1

>  <score_type>  (32) 
oracle

>  <origin>  (32) 
adgpu

>  <m_score__min__energy>  (32) 
-14.34

>  <m_primary>  (32) 
energy

$$$$
32:0
     RDKit          3D

 49 52  0  0  0  0  0  0  0  0999 V2000
   -9.7290   21.8760  -30.8210 O   0  0  0  0  0  0  0  0  0  0  0  0
   -8.6830   21.7310  -31.5130 C   0  0  0  0  0  0  0  0  0  0  0  0
   -8.6610   20.7680  -32.5740 N   0  0  0  0  0  0  0  0  0  0  0  0
   -9.1480   19.4000  -32.4370 C   0  0  0  0  0  0  0  0  0  0  0  0
   -8.1160   18.5360  -31.7070 C   0  0  0  0  0  0  0  0  0  0  0  0
   -6.8610   18.4050  -32.5280 C   0  0  0  0  0  0  0  0  0  0  0  0
   -6.7710   17.4280  -33.5320 C   0  0  0  0  0  0  0  0  0  0  0  0
   -5.6180   17.3270  -34.3140 C   0  0  0  0  0  0  0  0  0  0  0  0
   -4.5510   18.2060  -34.1070 C   0  0  0  0  0  0  0  0  0  0  0  0
   -4.6350   19.1930  -33.1200 C   0  0  0  0  0  0  0  0  0  0  0  0
   -3.5670   20.0670  -32.9290 O   0  0  0  0  0  0  0  0  0  0  0  0
   -5.7920   19.2950  -32.3320 C   0  0  0  0  0  0  0  0  0  0  0  0
   -7.4870   22.5580  -31.2300 C   0  0  0  0  0  0  0  0  0  0  0  0
   -7.3310   23.1870  -29.9820 C   0  0  0  0  0  0  0  0  0  0  0  0
   -6.2020   23.9660  -29.7130 C   0  0  0  0  0  0  0  0  0  0  0  0
   -5.2000   24.1200  -30.6860 C   0  0  0  0  0  0  0  0  0  0  0  0
   -4.0360   24.9290  -30.4590 N   0  0  0  0  0  0  0  0  0  0  0  0
   -2.8400   24.5290  -29.7780 C   0  0  0  0  0  0  0  0  0  0  0  0
   -2.2980   25.3010  -28.9420 O   0  0  0  0  0  0  0  0  0  0  0  0
   -2.3350   23.1530  -29.9640 C   0  0  0  0  0  0  0  0  0  0  0  0
   -2.2590   22.6870  -31.2390 N   0  0  0  0  0  0  0  0  0  0  0  0
   -1.8720   21.4440  -31.5210 N   0  0  0  0  0  0  0  0  0  0  0  0
   -1.5310   20.5650  -30.5500 C   0  0  0  0  0  0  0  0  0  0  0  0
   -1.1830   19.3960  -30.8720 O   0  0  0  0  0  0  0  0  0  0  0  0
   -1.5600   20.9710  -29.2070 C   0  0  0  0  0  0  0  0  0  0  0  0
   -1.1900   20.0910  -28.1720 C   0  0  0  0  0  0  0  0  0  0  0  0
   -1.1840   20.5260  -26.8460 C   0  0  0  0  0  0  0  0  0  0  0  0
   -1.5310   21.8410  -26.5390 C   0  0  0  0  0  0  0  0  0  0  0  0
   -1.9060   22.7260  -27.5530 C   0  0  0  0  0  0  0  0  0  0  0  0
   -1.9530   22.2990  -28.8980 C   0  0  0  0  0  0  0  0  0  0  0  0
   -5.3630   23.5160  -31.9370 C   0  0  0  0  0  0  0  0  0  0  0  0
   -6.4910   22.7360  -32.2080 C   0  0  0  0  0  0  0  0  0  0  0  0
  -10.0867   19.4053  -31.8636 H   0  0  0  0  0  0  0  0  0  0  0  0
   -9.3193   18.9804  -33.4393 H   0  0  0  0  0  0  0  0  0  0  0  0
   -7.8700   19.0038  -30.7423 H   0  0  0  0  0  0  0  0  0  0  0  0
   -8.5413   17.5344  -31.5460 H   0  0  0  0  0  0  0  0  0  0  0  0
   -7.6115   16.7395  -33.7035 H   0  0  0  0  0  0  0  0  0  0  0  0
   -5.5495   16.5544  -35.0940 H   0  0  0  0  0  0  0  0  0  0  0  0
   -3.6430   18.1211  -34.7221 H   0  0  0  0  0  0  0  0  0  0  0  0
   -2.9130   19.9450  -32.1650 H   0  0  0  0  0  0  0  0  0  0  0  0
   -5.8619   20.0742  -31.5587 H   0  0  0  0  0  0  0  0  0  0  0  0
   -8.1050   23.0648  -29.2100 H   0  0  0  0  0  0  0  0  0  0  0  0
   -6.0975   24.4603  -28.7359 H   0  0  0  0  0  0  0  0  0  0  0  0
   -0.9043   19.0557  -28.4097 H   0  0  0  0  0  0  0  0  0  0  0  0
   -0.9049   19.8299  -26.0413 H   0  0  0  0  0  0  0  0  0  0  0  0
   -1.5094   22.1832  -25.4938 H   0  0  0  0  0  0  0  0  0  0  0  0
   -2.1669   23.7645  -27.3013 H   0  0  0  0  0  0  0  0  0  0  0  0
   -4.5972   23.6559  -32.7141 H   0  0  0  0  0  0  0  0  0  0  0  0
   -6.6008   22.2580  -33.1926 H   0  0  0  0  0  0  0  0  0  0  0  0
  1  2  2  0
  2  3  1  0
  3  4  1  0
  4  5  1  0
  5  6  1  0
  6  7  2  0
  7  8  1  0
  8  9  2  0
  9 10  1  0
 10 11  1  0
 10 12  2  0
  2 13  1  0
 13 14  2  0
 14 15  1  0
 15 16  2  0
 16 17  1  0
 17 18  1  0
 18 19  2  0
 18 20  1  0
 20 21  2  0
 21 22  1  0
 22 23  1  0
 23 24  2  0
 23 25  1  0
 25 26  2  0
 26 27  1  0
 27 28  2  0
 28 29  1  0
 29 30  2  0
 16 31  1  0
 31 32  2  0
 12  6  1  0
 32 13  1  0
 30 20  1  0
 30 25  1  0
  4 33  1  0
  4 34  1  0
  5 35  1  0
  5 36  1  0
  7 37  1  0
  8 38  1  0
  9 39  1  0
 11 40  1  0
 12 41  1  0
 14 42  1  0
 15 43  1  0
 26 44  1  0
 27 45  1  0
 28 46  1  0
 29 47  1  0
 31 48  1  0
 32 49  1  0
M  CHG  3   3  -1  17  -1  22  -1
M  END
>  <UniqueID>  (33) 
32

>  <SMILES>  (33) 
O=C([N-]CCc1cccc(O)c1)c1ccc([N-]C(=O)c2n[n-]c(=O)c3ccccc23)cc1

>  <Energy>  (33) 
65.34200914899814

>  <Genealogy>  (33) 
O=C([N-]CCc1cccc(O)c1)c1ccc([N-]C(=O)c2n[n-]c(=O)c3ccccc23)cc1 (protonated)
O=C([N-]CCc1cccc(O)c1)c1ccc([N-]C(=O)c2n[n-]c(=O)c3ccccc23)cc1 (3D coordinates assigned)
O=C([N-]CCc1cccc(O)c1)c1ccc([N-]C(=O)c2n[n-]c(=O)c3ccccc23)cc1 (optimized conformer: 65.34200914899814 kcal/mol)

>  <smiles>  (33) 
O=C(NCCc1cccc(O)c1)c1ccc(NC(=O)c2n[nH]c(=O)c3ccccc23)cc1

>  <score_type>  (33) 
oracle

>  <origin>  (33) 
adgpu

>  <m_score__min__energy>  (33) 
-11.470000000000001

>  <m_primary>  (33) 
energy

$$$$
33:0
     RDKit          3D

 57 60  0  0  0  0  0  0  0  0999 V2000
   -0.3960   26.6960  -27.4340 O   0  0  0  0  0  0  0  0  0  0  0  0
   -0.6610   25.7020  -28.1590 C   0  0  0  0  0  0  0  0  0  0  0  0
    0.3140   24.6600  -28.2820 N   0  0  0  0  0  0  0  0  0  0  0  0
    0.0760   23.2460  -28.2330 C   0  0  0  0  0  0  0  0  0  0  0  0
   -0.2740   22.5070  -29.3770 C   0  0  0  0  0  0  0  0  0  0  0  0
   -0.5150   21.1340  -29.2790 C   0  0  0  0  0  0  0  0  0  0  0  0
   -0.4490   20.4810  -28.0340 C   0  0  0  0  0  0  0  0  0  0  0  0
   -0.7130   19.0220  -27.9390 C   0  0  0  0  0  0  0  0  0  0  0  0
   -1.8270   18.6110  -27.5160 O   0  0  0  0  0  0  0  0  0  0  0  0
    0.2780   18.0560  -28.3160 N   0  0  0  0  0  0  0  0  0  0  0  0
    1.5160   17.9420  -27.5420 C   0  0  0  0  0  0  0  0  0  0  0  0
    2.1010   16.5370  -27.7000 C   0  0  0  0  0  0  0  0  0  0  0  0
    2.1960   16.1810  -29.0690 O   0  0  0  0  0  0  0  0  0  0  0  0
    0.9000   16.0900  -29.6290 C   0  0  0  0  0  0  0  0  0  0  0  0
    0.2260   17.4630  -29.6520 C   0  0  0  0  0  0  0  0  0  0  0  0
   -0.1260   21.2350  -26.8920 C   0  0  0  0  0  0  0  0  0  0  0  0
    0.1260   22.6050  -26.9930 C   0  0  0  0  0  0  0  0  0  0  0  0
   -1.8690   25.6660  -28.9270 N   0  0  0  0  0  0  0  0  0  0  0  0
   -2.8980   24.6660  -28.8680 C   0  0  0  0  0  0  0  0  0  0  0  0
   -2.8860   23.6500  -27.8930 C   0  0  0  0  0  0  0  0  0  0  0  0
   -3.8850   22.6750  -27.8830 C   0  0  0  0  0  0  0  0  0  0  0  0
   -4.8960   22.6950  -28.8440 C   0  0  0  0  0  0  0  0  0  0  0  0
   -4.9180   23.6900  -29.8310 C   0  0  0  0  0  0  0  0  0  0  0  0
   -6.2180   23.6800  -31.0370 S   0  0  0  0  0  0  0  0  0  0  0  0
   -7.5180   23.2920  -30.3810 O   0  0  0  0  0  0  0  0  0  0  0  0
   -6.3810   25.0680  -31.5850 O   0  0  0  0  0  0  0  0  0  0  0  0
   -5.8770   22.5860  -32.3600 N   0  0  0  0  0  0  0  0  0  0  0  0
   -4.5060   22.0590  -32.2510 C   0  0  0  0  0  0  0  0  0  0  0  0
   -4.3240   20.8490  -33.1820 C   0  0  0  0  0  0  0  0  0  0  0  0
   -5.2350   19.7780  -32.9550 O   0  0  0  0  0  0  0  0  0  0  0  0
   -6.3510   20.1310  -32.1500 C   0  0  0  0  0  0  0  0  0  0  0  0
   -6.9030   21.5270  -32.4880 C   0  0  0  0  0  0  0  0  0  0  0  0
   -3.8980   24.6630  -29.8510 C   0  0  0  0  0  0  0  0  0  0  0  0
   -3.8640   25.6320  -30.8490 O   0  0  0  0  0  0  0  0  0  0  0  0
   -0.3583   23.0108  -30.3512 H   0  0  0  0  0  0  0  0  0  0  0  0
   -0.7587   20.5579  -30.1838 H   0  0  0  0  0  0  0  0  0  0  0  0
    2.2431   18.6829  -27.9057 H   0  0  0  0  0  0  0  0  0  0  0  0
    1.2974   18.1261  -26.4798 H   0  0  0  0  0  0  0  0  0  0  0  0
    3.1047   16.5119  -27.2506 H   0  0  0  0  0  0  0  0  0  0  0  0
    1.4367   15.8202  -27.1951 H   0  0  0  0  0  0  0  0  0  0  0  0
    0.9766   15.7076  -30.6575 H   0  0  0  0  0  0  0  0  0  0  0  0
    0.2948   15.4080  -29.0137 H   0  0  0  0  0  0  0  0  0  0  0  0
    0.7511   18.1170  -30.3638 H   0  0  0  0  0  0  0  0  0  0  0  0
   -0.8235   17.3503  -29.9617 H   0  0  0  0  0  0  0  0  0  0  0  0
   -0.0713   20.7415  -25.9104 H   0  0  0  0  0  0  0  0  0  0  0  0
    0.3658   23.1838  -26.0888 H   0  0  0  0  0  0  0  0  0  0  0  0
   -2.0872   23.6246  -27.1372 H   0  0  0  0  0  0  0  0  0  0  0  0
   -3.8750   21.8880  -27.1145 H   0  0  0  0  0  0  0  0  0  0  0  0
   -5.6812   21.9248  -28.8271 H   0  0  0  0  0  0  0  0  0  0  0  0
   -3.7912   22.8457  -32.5343 H   0  0  0  0  0  0  0  0  0  0  0  0
   -4.3258   21.7423  -31.2131 H   0  0  0  0  0  0  0  0  0  0  0  0
   -4.4518   21.1929  -34.2190 H   0  0  0  0  0  0  0  0  0  0  0  0
   -3.3196   20.4496  -32.9777 H   0  0  0  0  0  0  0  0  0  0  0  0
   -7.1479   19.3891  -32.3068 H   0  0  0  0  0  0  0  0  0  0  0  0
   -6.0155   20.1487  -31.1026 H   0  0  0  0  0  0  0  0  0  0  0  0
   -7.2747   21.5187  -33.5233 H   0  0  0  0  0  0  0  0  0  0  0  0
   -7.7077   21.7516  -31.7724 H   0  0  0  0  0  0  0  0  0  0  0  0
  1  2  2  0
  2  3  1  0
  3  4  1  0
  4  5  2  0
  5  6  1  0
  6  7  2  0
  7  8  1  0
  8  9  2  0
  8 10  1  0
 10 11  1  0
 11 12  1  0
 12 13  1  0
 13 14  1  0
 14 15  1  0
  7 16  1  0
 16 17  2  0
  2 18  1  0
 18 19  1  0
 19 20  2  0
 20 21  1  0
 21 22  2  0
 22 23  1  0
 23 24  1  0
 24 25  2  0
 24 26  2  0
 24 27  1  0
 27 28  1  0
 28 29  1  0
 29 30  1  0
 30 31  1  0
 31 32  1  0
 23 33  2  0
 33 34  1  0
 17  4  1  0
 33 19  1  0
 15 10  1  0
 32 27  1  0
  5 35  1  0
  6 36  1  0
 11 37  1  0
 11 38  1  0
 12 39  1  0
 12 40  1  0
 14 41  1  0
 14 42  1  0
 15 43  1  0
 15 44  1  0
 16 45  1  0
 17 46  1  0
 20 47  1  0
 21 48  1  0
 22 49  1  0
 28 50  1  0
 28 51  1  0
 29 52  1  0
 29 53  1  0
 31 54  1  0
 31 55  1  0
 32 56  1  0
 32 57  1  0
M  CHG  3   3  -1  18  -1  34  -1
M  END
>  <UniqueID>  (34) 
33

>  <SMILES>  (34) 
O=C([N-]c1ccc(C(=O)N2CCOCC2)cc1)[N-]c1cccc(S(=O)(=O)N2CCOCC2)c1[O-]

>  <Energy>  (34) 
88.06202426579422

>  <Genealogy>  (34) 
O=C([N-]c1ccc(C(=O)N2CCOCC2)cc1)[N-]c1cccc(S(=O)(=O)N2CCOCC2)c1[O-] (protonated)
O=C([N-]c1ccc(C(=O)N2CCOCC2)cc1)[N-]c1cccc(S(=O)(=O)N2CCOCC2)c1[O-] (3D coordinates assigned)
O=C([N-]c1ccc(C(=O)N2CCOCC2)cc1)[N-]c1cccc(S(=O)(=O)N2CCOCC2)c1[O-] (nonaromatic ring conformer: 88.06202426579422 kcal/mol)

>  <smiles>  (34) 
O=C(Nc1ccc(C(=O)N2CCOCC2)cc1)Nc1cccc(S(=O)(=O)N2CCOCC2)c1O

>  <score_type>  (34) 
oracle

>  <origin>  (34) 
adgpu

>  <m_score__min__energy>  (34) 
-16.16

>  <m_primary>  (34) 
energy

$$$$
34:0
     RDKit          3D

 50 52  0  0  0  0  0  0  0  0999 V2000
   -0.8340   26.5660  -27.8280 C   0  0  0  0  0  0  0  0  0  0  0  0
   -1.5510   25.9700  -28.9040 O   0  0  0  0  0  0  0  0  0  0  0  0
   -2.0120   24.6440  -28.9190 C   0  0  0  0  0  0  0  0  0  0  0  0
   -1.3600   23.6260  -28.1930 C   0  0  0  0  0  0  0  0  0  0  0  0
   -1.7990   22.3020  -28.2800 C   0  0  0  0  0  0  0  0  0  0  0  0
   -2.8830   21.9770  -29.0950 C   0  0  0  0  0  0  0  0  0  0  0  0
   -3.5430   22.9760  -29.8120 C   0  0  0  0  0  0  0  0  0  0  0  0
   -3.1360   24.3120  -29.7080 C   0  0  0  0  0  0  0  0  0  0  0  0
   -3.8450   25.3010  -30.4670 N   0  0  0  0  0  0  0  0  0  0  0  0
   -5.2680   25.3570  -30.6370 C   0  0  0  0  0  0  0  0  0  0  0  0
   -5.9780   26.0190  -29.8340 O   0  0  0  0  0  0  0  0  0  0  0  0
   -5.9000   24.6740  -31.7230 N   0  0  0  0  0  0  0  0  0  0  0  0
   -6.4730   23.3570  -31.6790 C   0  0  0  0  0  0  0  0  0  0  0  0
   -7.7000   23.1280  -31.0430 C   0  0  0  0  0  0  0  0  0  0  0  0
   -8.2670   21.8580  -31.0400 C   0  0  0  0  0  0  0  0  0  0  0  0
   -7.6320   20.7860  -31.6830 C   0  0  0  0  0  0  0  0  0  0  0  0
   -8.2990   19.4350  -31.6540 C   0  0  0  0  0  0  0  0  0  0  0  0
   -6.3830   20.9960  -32.3230 C   0  0  0  0  0  0  0  0  0  0  0  0
   -5.5460   19.6520  -33.1400 S   0  0  0  0  0  0  0  0  0  0  0  0
   -6.1630   19.4350  -34.4930 O   0  0  0  0  0  0  0  0  0  0  0  0
   -5.6870   18.3700  -32.3640 O   0  0  0  0  0  0  0  0  0  0  0  0
   -3.8550   20.0480  -33.3230 N   0  0  0  0  0  0  0  0  0  0  0  0
   -3.2510   20.2980  -32.0030 C   0  0  0  0  0  0  0  0  0  0  0  0
   -1.7140   20.3610  -32.1040 C   0  0  0  0  0  0  0  0  0  0  0  0
   -1.2990   20.4720  -33.4520 O   0  0  0  0  0  0  0  0  0  0  0  0
   -1.6560   19.2970  -34.1600 C   0  0  0  0  0  0  0  0  0  0  0  0
   -3.1530   18.9520  -34.0060 C   0  0  0  0  0  0  0  0  0  0  0  0
   -5.8280   22.2970  -32.3450 C   0  0  0  0  0  0  0  0  0  0  0  0
   -4.6330   22.5310  -33.0310 O   0  0  0  0  0  0  0  0  0  0  0  0
   -1.2521   26.2185  -26.8717 H   0  0  0  0  0  0  0  0  0  0  0  0
    0.2261   26.2793  -27.8905 H   0  0  0  0  0  0  0  0  0  0  0  0
   -0.9221   27.6607  -27.8905 H   0  0  0  0  0  0  0  0  0  0  0  0
   -0.5002   23.8756  -27.5540 H   0  0  0  0  0  0  0  0  0  0  0  0
   -1.2888   21.5152  -27.7049 H   0  0  0  0  0  0  0  0  0  0  0  0
   -3.2181   20.9322  -29.1728 H   0  0  0  0  0  0  0  0  0  0  0  0
   -4.3891   22.7121  -30.4636 H   0  0  0  0  0  0  0  0  0  0  0  0
   -8.2188   23.9587  -30.5423 H   0  0  0  0  0  0  0  0  0  0  0  0
   -9.2257   21.6925  -30.5267 H   0  0  0  0  0  0  0  0  0  0  0  0
   -8.4525   19.1242  -30.6100 H   0  0  0  0  0  0  0  0  0  0  0  0
   -9.2711   19.4949  -32.1654 H   0  0  0  0  0  0  0  0  0  0  0  0
   -7.6604   18.6997  -32.1654 H   0  0  0  0  0  0  0  0  0  0  0  0
   -3.6256   21.2551  -31.6110 H   0  0  0  0  0  0  0  0  0  0  0  0
   -3.5253   19.4729  -31.3292 H   0  0  0  0  0  0  0  0  0  0  0  0
   -1.3521   21.2352  -31.5430 H   0  0  0  0  0  0  0  0  0  0  0  0
   -1.2967   19.4340  -31.6839 H   0  0  0  0  0  0  0  0  0  0  0  0
   -1.4354   19.4463  -35.2273 H   0  0  0  0  0  0  0  0  0  0  0  0
   -1.0737   18.4625  -33.7423 H   0  0  0  0  0  0  0  0  0  0  0  0
   -3.5959   18.8004  -35.0014 H   0  0  0  0  0  0  0  0  0  0  0  0
   -3.2517   18.0333  -33.4092 H   0  0  0  0  0  0  0  0  0  0  0  0
   -4.4080   22.0830  -33.9100 H   0  0  0  0  0  0  0  0  0  0  0  0
  1  2  1  0
  2  3  1  0
  3  4  2  0
  4  5  1  0
  5  6  2  0
  6  7  1  0
  7  8  2  0
  8  9  1  0
  9 10  1  0
 10 11  2  0
 10 12  1  0
 12 13  1  0
 13 14  2  0
 14 15  1  0
 15 16  2  0
 16 17  1  0
 16 18  1  0
 18 19  1  0
 19 20  2  0
 19 21  2  0
 19 22  1  0
 22 23  1  0
 23 24  1  0
 24 25  1  0
 25 26  1  0
 26 27  1  0
 18 28  2  0
 28 29  1  0
  8  3  1  0
 28 13  1  0
 27 22  1  0
  1 30  1  0
  1 31  1  0
  1 32  1  0
  4 33  1  0
  5 34  1  0
  6 35  1  0
  7 36  1  0
 14 37  1  0
 15 38  1  0
 17 39  1  0
 17 40  1  0
 17 41  1  0
 23 42  1  0
 23 43  1  0
 24 44  1  0
 24 45  1  0
 26 46  1  0
 26 47  1  0
 27 48  1  0
 27 49  1  0
 29 50  1  0
M  CHG  2   9  -1  12  -1
M  END
>  <UniqueID>  (35) 
34

>  <SMILES>  (35) 
COc1ccccc1[N-]C(=O)[N-]c1ccc(C)c(S(=O)(=O)N2CCOCC2)c1O

>  <Energy>  (35) 
70.42902350328076

>  <Genealogy>  (35) 
COc1ccccc1[N-]C(=O)[N-]c1ccc(C)c(S(=O)(=O)N2CCOCC2)c1O (protonated)
COc1ccccc1[N-]C(=O)[N-]c1ccc(C)c(S(=O)(=O)N2CCOCC2)c1O (3D coordinates assigned)
COc1ccccc1[N-]C(=O)[N-]c1ccc(C)c(S(=O)(=O)N2CCOCC2)c1O (nonaromatic ring conformer: 70.42902350328076 kcal/mol)

>  <smiles>  (35) 
COc1ccccc1NC(=O)Nc1ccc(C)c(S(=O)(=O)N2CCOCC2)c1O

>  <score_type>  (35) 
oracle

>  <origin>  (35) 
adgpu

>  <m_score__min__energy>  (35) 
-12.109999999999999

>  <m_primary>  (35) 
energy

$$$$
35:0
     RDKit          3D

 54 57  0  0  0  0  0  0  0  0999 V2000
   -0.4430   19.1040  -34.7320 C   0  0  0  0  0  0  0  0  0  0  0  0
   -0.8620   19.7420  -33.4410 C   0  0  0  0  0  0  0  0  0  0  0  0
   -0.5940   19.1080  -32.2170 C   0  0  0  0  0  0  0  0  0  0  0  0
   -0.9230   19.7350  -31.0110 C   0  0  0  0  0  0  0  0  0  0  0  0
   -1.4980   21.0150  -31.0140 C   0  0  0  0  0  0  0  0  0  0  0  0
   -1.7510   21.8780  -29.4940 S   0  0  0  0  0  0  0  0  0  0  0  0
   -0.4160   22.3090  -28.9580 O   0  0  0  0  0  0  0  0  0  0  0  0
   -2.4180   20.9810  -28.4900 O   0  0  0  0  0  0  0  0  0  0  0  0
   -2.7450   23.2790  -29.7380 N   0  0  0  0  0  0  0  0  0  0  0  0
   -4.0410   23.2870  -30.3540 C   0  0  0  0  0  0  0  0  0  0  0  0
   -4.7700   22.1020  -30.5570 C   0  0  0  0  0  0  0  0  0  0  0  0
   -5.9400   22.1120  -31.3300 C   0  0  0  0  0  0  0  0  0  0  0  0
   -6.5810   20.8340  -31.7030 C   0  0  0  0  0  0  0  0  0  0  0  0
   -7.6390   20.4880  -31.1130 O   0  0  0  0  0  0  0  0  0  0  0  0
   -5.9900   19.9530  -32.6810 N   0  0  0  0  0  0  0  0  0  0  0  0
   -4.5380   19.9500  -32.9140 C   0  0  0  0  0  0  0  0  0  0  0  0
   -4.0080   18.5170  -33.0400 C   0  0  0  0  0  0  0  0  0  0  0  0
   -4.8690   17.6840  -33.8880 N   0  0  0  0  0  0  0  0  0  0  0  0
   -4.3950   16.3890  -34.2960 C   0  0  0  0  0  0  0  0  0  0  0  0
   -3.2010   16.2570  -34.6780 O   0  0  0  0  0  0  0  0  0  0  0  0
   -5.2670   15.2010  -34.2680 C   0  0  0  0  0  0  0  0  0  0  0  0
   -4.8910   13.9070  -33.9600 C   0  0  0  0  0  0  0  0  0  0  0  0
   -6.0380   13.1510  -34.0750 C   0  0  0  0  0  0  0  0  0  0  0  0
   -7.0380   14.0240  -34.4540 C   0  0  0  0  0  0  0  0  0  0  0  0
   -6.5470   15.2360  -34.5650 O   0  0  0  0  0  0  0  0  0  0  0  0
   -6.0790   18.2580  -34.4900 C   0  0  0  0  0  0  0  0  0  0  0  0
   -6.8630   19.0390  -33.4330 C   0  0  0  0  0  0  0  0  0  0  0  0
   -6.4470   23.3340  -31.8010 C   0  0  0  0  0  0  0  0  0  0  0  0
   -5.7690   24.5240  -31.5310 C   0  0  0  0  0  0  0  0  0  0  0  0
   -4.5610   24.5010  -30.8270 C   0  0  0  0  0  0  0  0  0  0  0  0
   -3.8690   25.6880  -30.6120 O   0  0  0  0  0  0  0  0  0  0  0  0
   -1.7720   21.6460  -32.2360 C   0  0  0  0  0  0  0  0  0  0  0  0
   -1.4510   21.0150  -33.4420 C   0  0  0  0  0  0  0  0  0  0  0  0
    0.1495   18.2018  -34.5198 H   0  0  0  0  0  0  0  0  0  0  0  0
   -1.3363   18.8281  -35.3115 H   0  0  0  0  0  0  0  0  0  0  0  0
    0.1651   19.8141  -35.3115 H   0  0  0  0  0  0  0  0  0  0  0  0
   -0.1232   18.1139  -32.2067 H   0  0  0  0  0  0  0  0  0  0  0  0
   -0.7303   19.2230  -30.0567 H   0  0  0  0  0  0  0  0  0  0  0  0
   -4.4204   21.1613  -30.1067 H   0  0  0  0  0  0  0  0  0  0  0  0
   -4.3211   20.4974  -33.8431 H   0  0  0  0  0  0  0  0  0  0  0  0
   -4.0435   20.4341  -32.0590 H   0  0  0  0  0  0  0  0  0  0  0  0
   -3.0003   18.5486  -33.4799 H   0  0  0  0  0  0  0  0  0  0  0  0
   -3.9898   18.0722  -32.0341 H   0  0  0  0  0  0  0  0  0  0  0  0
   -3.8870   13.5544  -33.6815 H   0  0  0  0  0  0  0  0  0  0  0  0
   -6.1366   12.0695  -33.9000 H   0  0  0  0  0  0  0  0  0  0  0  0
   -8.0867   13.7461  -34.6354 H   0  0  0  0  0  0  0  0  0  0  0  0
   -5.7937   18.9358  -35.3080 H   0  0  0  0  0  0  0  0  0  0  0  0
   -6.7089   17.4467  -34.8838 H   0  0  0  0  0  0  0  0  0  0  0  0
   -7.6493   19.6249  -33.9315 H   0  0  0  0  0  0  0  0  0  0  0  0
   -7.3004   18.3191  -32.7256 H   0  0  0  0  0  0  0  0  0  0  0  0
   -7.3798   23.3535  -32.3836 H   0  0  0  0  0  0  0  0  0  0  0  0
   -6.1862   25.4826  -31.8730 H   0  0  0  0  0  0  0  0  0  0  0  0
   -2.2411   22.6409  -32.2460 H   0  0  0  0  0  0  0  0  0  0  0  0
   -1.6615   21.5197  -34.3965 H   0  0  0  0  0  0  0  0  0  0  0  0
  1  2  1  0
  2  3  2  0
  3  4  1  0
  4  5  2  0
  5  6  1  0
  6  7  2  0
  6  8  2  0
  6  9  1  0
  9 10  1  0
 10 11  2  0
 11 12  1  0
 12 13  1  0
 13 14  2  0
 13 15  1  0
 15 16  1  0
 16 17  1  0
 17 18  1  0
 18 19  1  0
 19 20  2  0
 19 21  1  0
 21 22  2  0
 22 23  1  0
 23 24  2  0
 24 25  1  0
 18 26  1  0
 26 27  1  0
 12 28  2  0
 28 29  1  0
 29 30  2  0
 30 31  1  0
  5 32  1  0
 32 33  2  0
 33  2  1  0
 30 10  1  0
 27 15  1  0
 25 21  1  0
  1 34  1  0
  1 35  1  0
  1 36  1  0
  3 37  1  0
  4 38  1  0
 11 39  1  0
 16 40  1  0
 16 41  1  0
 17 42  1  0
 17 43  1  0
 22 44  1  0
 23 45  1  0
 24 46  1  0
 26 47  1  0
 26 48  1  0
 27 49  1  0
 27 50  1  0
 28 51  1  0
 29 52  1  0
 32 53  1  0
 33 54  1  0
M  CHG  2   9  -1  31  -1
M  END
>  <UniqueID>  (36) 
35

>  <SMILES>  (36) 
Cc1ccc(S(=O)(=O)[N-]c2cc(C(=O)N3CCN(C(=O)c4ccco4)CC3)ccc2[O-])cc1

>  <Energy>  (36) 
93.64321646114414

>  <Genealogy>  (36) 
Cc1ccc(S(=O)(=O)[N-]c2cc(C(=O)N3CCN(C(=O)c4ccco4)CC3)ccc2[O-])cc1 (protonated)
Cc1ccc(S(=O)(=O)[N-]c2cc(C(=O)N3CCN(C(=O)c4ccco4)CC3)ccc2[O-])cc1 (3D coordinates assigned)
Cc1ccc(S(=O)(=O)[N-]c2cc(C(=O)N3CCN(C(=O)c4ccco4)CC3)ccc2[O-])cc1 (nonaromatic ring conformer: 93.64321646114414 kcal/mol)

>  <smiles>  (36) 
Cc1ccc(S(=O)(=O)Nc2cc(C(=O)N3CCN(C(=O)c4ccco4)CC3)ccc2O)cc1

>  <score_type>  (36) 
oracle

>  <origin>  (36) 
adgpu

>  <m_score__min__energy>  (36) 
-13.029999999999999

>  <m_primary>  (36) 
energy

$$$$
36:0
     RDKit          3D

 44 46  0  0  0  0  0  0  0  0999 V2000
   -2.6100   24.9530  -26.9180 C   0  0  0  0  0  0  0  0  0  0  0  0
   -1.8480   24.9370  -28.2390 C   0  0  0  0  0  0  0  0  0  0  0  0
   -2.7060   25.2990  -29.3220 O   0  0  0  0  0  0  0  0  0  0  0  0
   -3.8270   24.5720  -29.7550 C   0  0  0  0  0  0  0  0  0  0  0  0
   -4.8110   25.2500  -30.4860 C   0  0  0  0  0  0  0  0  0  0  0  0
   -5.9470   24.5770  -30.9420 C   0  0  0  0  0  0  0  0  0  0  0  0
   -6.1080   23.2110  -30.6830 C   0  0  0  0  0  0  0  0  0  0  0  0
   -7.5540   22.3710  -31.2320 S   0  0  0  0  0  0  0  0  0  0  0  0
   -8.4440   22.0710  -30.0570 O   0  0  0  0  0  0  0  0  0  0  0  0
   -8.3230   23.2390  -32.1900 O   0  0  0  0  0  0  0  0  0  0  0  0
   -7.0770   20.8800  -32.0350 C   0  0  0  0  0  0  0  0  0  0  0  0
   -7.9810   19.8270  -32.1630 C   0  0  0  0  0  0  0  0  0  0  0  0
   -7.5950   18.6400  -32.7790 C   0  0  0  0  0  0  0  0  0  0  0  0
   -6.2830   18.4700  -33.2840 C   0  0  0  0  0  0  0  0  0  0  0  0
   -5.3510   19.5400  -33.1460 C   0  0  0  0  0  0  0  0  0  0  0  0
   -5.7750   20.7360  -32.5160 C   0  0  0  0  0  0  0  0  0  0  0  0
   -4.0650   19.3920  -33.6220 N   0  0  0  0  0  0  0  0  0  0  0  0
   -3.0800   20.4860  -33.4880 C   0  0  0  0  0  0  0  0  0  0  0  0
   -3.6960   18.2180  -34.2260 C   0  0  0  0  0  0  0  0  0  0  0  0
   -2.5230   18.0620  -34.6690 O   0  0  0  0  0  0  0  0  0  0  0  0
   -4.6100   17.1700  -34.3630 C   0  0  0  0  0  0  0  0  0  0  0  0
   -4.2310   16.1040  -34.9250 O   0  0  0  0  0  0  0  0  0  0  0  0
   -5.8930   17.2970  -33.8960 N   0  0  0  0  0  0  0  0  0  0  0  0
   -6.8420   16.1760  -34.0530 C   0  0  0  0  0  0  0  0  0  0  0  0
   -5.1310   22.5260  -29.9520 C   0  0  0  0  0  0  0  0  0  0  0  0
   -3.9930   23.1970  -29.4930 C   0  0  0  0  0  0  0  0  0  0  0  0
   -1.8951   24.9380  -26.0821 H   0  0  0  0  0  0  0  0  0  0  0  0
   -3.2234   25.8642  -26.8595 H   0  0  0  0  0  0  0  0  0  0  0  0
   -3.2611   24.0683  -26.8595 H   0  0  0  0  0  0  0  0  0  0  0  0
   -1.0148   25.6530  -28.1838 H   0  0  0  0  0  0  0  0  0  0  0  0
   -1.4669   23.9202  -28.4148 H   0  0  0  0  0  0  0  0  0  0  0  0
   -4.6881   26.3214  -30.7028 H   0  0  0  0  0  0  0  0  0  0  0  0
   -6.7176   25.1224  -31.5065 H   0  0  0  0  0  0  0  0  0  0  0  0
   -9.0048   19.9345  -31.7752 H   0  0  0  0  0  0  0  0  0  0  0  0
   -8.3217   17.8198  -32.8752 H   0  0  0  0  0  0  0  0  0  0  0  0
   -5.0638   21.5676  -32.4038 H   0  0  0  0  0  0  0  0  0  0  0  0
   -2.8986   20.6875  -32.4219 H   0  0  0  0  0  0  0  0  0  0  0  0
   -2.1367   20.1913  -33.9712 H   0  0  0  0  0  0  0  0  0  0  0  0
   -3.4717   21.3933  -33.9712 H   0  0  0  0  0  0  0  0  0  0  0  0
   -7.1488   15.8136  -33.0608 H   0  0  0  0  0  0  0  0  0  0  0  0
   -7.7275   16.5201  -34.6076 H   0  0  0  0  0  0  0  0  0  0  0  0
   -6.3565   15.3595  -34.6076 H   0  0  0  0  0  0  0  0  0  0  0  0
   -5.2587   21.4547  -29.7374 H   0  0  0  0  0  0  0  0  0  0  0  0
   -3.2253   22.6502  -28.9259 H   0  0  0  0  0  0  0  0  0  0  0  0
  1  2  1  0
  2  3  1  0
  3  4  1  0
  4  5  2  0
  5  6  1  0
  6  7  2  0
  7  8  1  0
  8  9  2  0
  8 10  2  0
  8 11  1  0
 11 12  2  0
 12 13  1  0
 13 14  2  0
 14 15  1  0
 15 16  2  0
 15 17  1  0
 17 18  1  0
 17 19  1  0
 19 20  2  0
 19 21  1  0
 21 22  2  0
 21 23  1  0
 23 24  1  0
  7 25  1  0
 25 26  2  0
 26  4  1  0
 16 11  1  0
 23 14  1  0
  1 27  1  0
  1 28  1  0
  1 29  1  0
  2 30  1  0
  2 31  1  0
  5 32  1  0
  6 33  1  0
 12 34  1  0
 13 35  1  0
 16 36  1  0
 18 37  1  0
 18 38  1  0
 18 39  1  0
 24 40  1  0
 24 41  1  0
 24 42  1  0
 25 43  1  0
 26 44  1  0
M  END
>  <UniqueID>  (37) 
36

>  <SMILES>  (37) 
CCOc1ccc(S(=O)(=O)c2ccc3c(c2)n(C)c(=O)c(=O)n3C)cc1

>  <Energy>  (37) 
63.365550242497775

>  <Genealogy>  (37) 
CCOc1ccc(S(=O)(=O)c2ccc3c(c2)n(C)c(=O)c(=O)n3C)cc1 (3D coordinates assigned)
CCOc1ccc(S(=O)(=O)c2ccc3c(c2)n(C)c(=O)c(=O)n3C)cc1 (optimized conformer: 63.365550242497775 kcal/mol)

>  <smiles>  (37) 
CCOc1ccc(S(=O)(=O)c2ccc3c(c2)n(C)c(=O)c(=O)n3C)cc1

>  <score_type>  (37) 
oracle

>  <origin>  (37) 
adgpu

>  <m_score__min__energy>  (37) 
-9.4000000000000004

>  <m_primary>  (37) 
energy

$$$$
37:0
     RDKit          3D

 61 64  0  0  0  0  0  0  0  0999 V2000
    4.0020   20.2580  -28.2060 C   0  0  0  0  0  0  0  0  0  0  0  0
    2.5400   19.9280  -28.2800 C   0  0  0  0  0  0  0  0  0  0  0  0
    2.1060   18.7850  -28.9680 C   0  0  0  0  0  0  0  0  0  0  0  0
    0.7420   18.4570  -29.0110 C   0  0  0  0  0  0  0  0  0  0  0  0
    0.2880   17.2150  -29.7200 C   0  0  0  0  0  0  0  0  0  0  0  0
   -0.1830   19.2570  -28.3260 C   0  0  0  0  0  0  0  0  0  0  0  0
    0.2440   20.3940  -27.6260 C   0  0  0  0  0  0  0  0  0  0  0  0
   -0.9100   21.3890  -26.7390 S   0  0  0  0  0  0  0  0  0  0  0  0
   -1.8960   20.4630  -26.0820 O   0  0  0  0  0  0  0  0  0  0  0  0
   -0.1930   22.1740  -25.6770 O   0  0  0  0  0  0  0  0  0  0  0  0
   -1.7550   22.5080  -27.8250 C   0  0  0  0  0  0  0  0  0  0  0  0
   -1.5870   23.8900  -27.6270 C   0  0  0  0  0  0  0  0  0  0  0  0
   -2.1650   24.8130  -28.4990 C   0  0  0  0  0  0  0  0  0  0  0  0
   -2.9200   24.3720  -29.5830 C   0  0  0  0  0  0  0  0  0  0  0  0
   -3.4890   25.2930  -30.4550 O   0  0  0  0  0  0  0  0  0  0  0  0
   -3.1120   23.0050  -29.7900 C   0  0  0  0  0  0  0  0  0  0  0  0
   -2.5550   22.0590  -28.9100 C   0  0  0  0  0  0  0  0  0  0  0  0
   -2.8560   20.6300  -29.1510 C   0  0  0  0  0  0  0  0  0  0  0  0
   -3.0790   19.8560  -28.1810 O   0  0  0  0  0  0  0  0  0  0  0  0
   -2.8830   20.1330  -30.4960 N   0  0  0  0  0  0  0  0  0  0  0  0
   -1.9470   20.4450  -31.5380 C   0  0  0  0  0  0  0  0  0  0  0  0
   -2.3950   20.4510  -32.8640 C   0  0  0  0  0  0  0  0  0  0  0  0
   -1.5110   20.7310  -33.9100 C   0  0  0  0  0  0  0  0  0  0  0  0
   -0.1540   20.9770  -33.6460 C   0  0  0  0  0  0  0  0  0  0  0  0
    0.7740   21.2830  -34.7550 C   0  0  0  0  0  0  0  0  0  0  0  0
    0.7800   22.4440  -35.2480 O   0  0  0  0  0  0  0  0  0  0  0  0
    1.6550   20.2780  -35.2940 N   0  0  0  0  0  0  0  0  0  0  0  0
    1.1520   18.9140  -35.5240 C   0  0  0  0  0  0  0  0  0  0  0  0
    2.0380   18.1460  -36.5160 C   0  0  0  0  0  0  0  0  0  0  0  0
    2.3900   19.0340  -37.7160 C   0  0  0  0  0  0  0  0  0  0  0  0
    3.0880   20.3500  -37.3040 C   0  0  0  0  0  0  0  0  0  0  0  0
    2.9790   20.6570  -35.8020 C   0  0  0  0  0  0  0  0  0  0  0  0
    0.2980   20.9620  -32.3170 C   0  0  0  0  0  0  0  0  0  0  0  0
   -0.5890   20.6880  -31.2710 C   0  0  0  0  0  0  0  0  0  0  0  0
    1.6050   20.7200  -27.5980 C   0  0  0  0  0  0  0  0  0  0  0  0
    4.3093   20.3274  -27.1521 H   0  0  0  0  0  0  0  0  0  0  0  0
    4.5819   19.4682  -28.7058 H   0  0  0  0  0  0  0  0  0  0  0  0
    4.1864   21.2204  -28.7058 H   0  0  0  0  0  0  0  0  0  0  0  0
    2.8392   18.1419  -29.4768 H   0  0  0  0  0  0  0  0  0  0  0  0
    0.0088   16.4512  -28.9792 H   0  0  0  0  0  0  0  0  0  0  0  0
   -0.5824   17.4500  -30.3503 H   0  0  0  0  0  0  0  0  0  0  0  0
    1.1047   16.8333  -30.3503 H   0  0  0  0  0  0  0  0  0  0  0  0
   -1.2503   18.9910  -28.3378 H   0  0  0  0  0  0  0  0  0  0  0  0
   -0.9923   24.2479  -26.7737 H   0  0  0  0  0  0  0  0  0  0  0  0
   -2.0242   25.8908  -28.3301 H   0  0  0  0  0  0  0  0  0  0  0  0
   -3.7055   22.6635  -30.6509 H   0  0  0  0  0  0  0  0  0  0  0  0
   -3.4505   20.2338  -33.0846 H   0  0  0  0  0  0  0  0  0  0  0  0
   -1.8805   20.7588  -34.9457 H   0  0  0  0  0  0  0  0  0  0  0  0
    1.1359   18.3730  -34.5664 H   0  0  0  0  0  0  0  0  0  0  0  0
    0.1405   18.9869  -35.9502 H   0  0  0  0  0  0  0  0  0  0  0  0
    2.9643   17.8362  -36.0101 H   0  0  0  0  0  0  0  0  0  0  0  0
    1.4897   17.2623  -36.8744 H   0  0  0  0  0  0  0  0  0  0  0  0
    3.0621   18.4736  -38.3825 H   0  0  0  0  0  0  0  0  0  0  0  0
    1.4480   19.3019  -38.2169 H   0  0  0  0  0  0  0  0  0  0  0  0
    4.1533   20.2767  -37.5681 H   0  0  0  0  0  0  0  0  0  0  0  0
    2.5811   21.1666  -37.8390 H   0  0  0  0  0  0  0  0  0  0  0  0
    3.7504   20.0904  -35.2599 H   0  0  0  0  0  0  0  0  0  0  0  0
    3.1230   21.7367  -35.6484 H   0  0  0  0  0  0  0  0  0  0  0  0
    1.3561   21.1670  -32.0970 H   0  0  0  0  0  0  0  0  0  0  0  0
   -0.2218   20.6626  -30.2344 H   0  0  0  0  0  0  0  0  0  0  0  0
    1.9435   21.6036  -27.0371 H   0  0  0  0  0  0  0  0  0  0  0  0
  1  2  1  0
  2  3  2  0
  3  4  1  0
  4  5  1  0
  4  6  2  0
  6  7  1  0
  7  8  1  0
  8  9  2  0
  8 10  2  0
  8 11  1  0
 11 12  2  0
 12 13  1  0
 13 14  2  0
 14 15  1  0
 14 16  1  0
 16 17  2  0
 17 18  1  0
 18 19  2  0
 18 20  1  0
 20 21  1  0
 21 22  2  0
 22 23  1  0
 23 24  2  0
 24 25  1  0
 25 26  2  0
 25 27  1  0
 27 28  1  0
 28 29  1  0
 29 30  1  0
 30 31  1  0
 31 32  1  0
 24 33  1  0
 33 34  2  0
  7 35  2  0
 35  2  1  0
 17 11  1  0
 34 21  1  0
 32 27  1  0
  1 36  1  0
  1 37  1  0
  1 38  1  0
  3 39  1  0
  5 40  1  0
  5 41  1  0
  5 42  1  0
  6 43  1  0
 12 44  1  0
 13 45  1  0
 16 46  1  0
 22 47  1  0
 23 48  1  0
 28 49  1  0
 28 50  1  0
 29 51  1  0
 29 52  1  0
 30 53  1  0
 30 54  1  0
 31 55  1  0
 31 56  1  0
 32 57  1  0
 32 58  1  0
 33 59  1  0
 34 60  1  0
 35 61  1  0
M  CHG  2  15  -1  20  -1
M  END
>  <UniqueID>  (38) 
37

>  <SMILES>  (38) 
Cc1cc(C)cc(S(=O)(=O)c2ccc([O-])cc2C(=O)[N-]c2ccc(C(=O)N3CCCCC3)cc2)c1

>  <Energy>  (38) 
81.62594609377348

>  <Genealogy>  (38) 
Cc1cc(C)cc(S(=O)(=O)c2ccc([O-])cc2C(=O)[N-]c2ccc(C(=O)N3CCCCC3)cc2)c1 (protonated)
Cc1cc(C)cc(S(=O)(=O)c2ccc([O-])cc2C(=O)[N-]c2ccc(C(=O)N3CCCCC3)cc2)c1 (3D coordinates assigned)
Cc1cc(C)cc(S(=O)(=O)c2ccc([O-])cc2C(=O)[N-]c2ccc(C(=O)N3CCCCC3)cc2)c1 (nonaromatic ring conformer: 81.62594609377348 kcal/mol)

>  <smiles>  (38) 
Cc1cc(C)cc(S(=O)(=O)c2ccc(O)cc2C(=O)Nc2ccc(C(=O)N3CCCCC3)cc2)c1

>  <score_type>  (38) 
oracle

>  <origin>  (38) 
adgpu

>  <m_score__min__energy>  (38) 
-12.609999999999999

>  <m_primary>  (38) 
energy

$$$$
38:0
     RDKit          3D

 63 66  0  0  0  0  0  0  0  0999 V2000
   -9.4960   22.8920  -31.9940 C   0  0  0  0  0  0  0  0  0  0  0  0
   -8.0290   22.4420  -31.8090 C   0  0  0  0  0  0  0  0  0  0  0  0
   -7.1610   23.3540  -32.7140 C   0  0  0  0  0  0  0  0  0  0  0  0
   -7.5800   22.6980  -30.3510 C   0  0  0  0  0  0  0  0  0  0  0  0
   -7.8840   20.9350  -32.1520 C   0  0  0  0  0  0  0  0  0  0  0  0
   -8.9740   20.0370  -32.0160 C   0  0  0  0  0  0  0  0  0  0  0  0
   -8.8500   18.6870  -32.3420 C   0  0  0  0  0  0  0  0  0  0  0  0
   -7.6430   18.1870  -32.8140 C   0  0  0  0  0  0  0  0  0  0  0  0
   -6.5510   19.0360  -32.9590 C   0  0  0  0  0  0  0  0  0  0  0  0
   -6.6530   20.4040  -32.6390 C   0  0  0  0  0  0  0  0  0  0  0  0
   -5.5270   21.2320  -32.7680 O   0  0  0  0  0  0  0  0  0  0  0  0
   -4.2890   21.0120  -32.1520 C   0  0  0  0  0  0  0  0  0  0  0  0
   -3.5080   19.9980  -32.6060 N   0  0  0  0  0  0  0  0  0  0  0  0
   -2.2960   19.7160  -32.0620 C   0  0  0  0  0  0  0  0  0  0  0  0
   -1.8020   20.4800  -30.9930 C   0  0  0  0  0  0  0  0  0  0  0  0
   -0.5060   20.2020  -30.4150 N   0  0  0  0  0  0  0  0  0  0  0  0
   -0.3530   20.0750  -28.9590 C   0  0  0  0  0  0  0  0  0  0  0  0
    1.1070   20.2980  -28.5520 C   0  0  0  0  0  0  0  0  0  0  0  0
    2.0140   19.3650  -29.2400 N   0  0  0  0  0  0  0  0  0  0  0  0
    1.6900   19.1080  -30.6580 C   0  0  0  0  0  0  0  0  0  0  0  0
    0.6910   20.1060  -31.2630 C   0  0  0  0  0  0  0  0  0  0  0  0
   -2.6000   21.5250  -30.5010 C   0  0  0  0  0  0  0  0  0  0  0  0
   -3.8640   21.7830  -31.0550 C   0  0  0  0  0  0  0  0  0  0  0  0
   -4.7080   22.8230  -30.5400 N   0  0  0  0  0  0  0  0  0  0  0  0
   -4.5180   24.2260  -30.7410 C   0  0  0  0  0  0  0  0  0  0  0  0
   -5.4080   24.8850  -31.3420 O   0  0  0  0  0  0  0  0  0  0  0  0
   -3.3790   24.8900  -30.1800 N   0  0  0  0  0  0  0  0  0  0  0  0
   -2.6590   24.4910  -29.0050 C   0  0  0  0  0  0  0  0  0  0  0  0
   -3.0410   23.3660  -28.2520 C   0  0  0  0  0  0  0  0  0  0  0  0
   -2.3560   23.0360  -27.0780 C   0  0  0  0  0  0  0  0  0  0  0  0
   -1.2910   23.8320  -26.6390 C   0  0  0  0  0  0  0  0  0  0  0  0
   -0.5900   23.4970  -25.4280 C   0  0  0  0  0  0  0  0  0  0  0  0
   -0.0250   23.2280  -24.4540 N   0  0  0  0  0  0  0  0  0  0  0  0
   -0.9190   24.9630  -27.3750 C   0  0  0  0  0  0  0  0  0  0  0  0
   -1.6020   25.2950  -28.5500 C   0  0  0  0  0  0  0  0  0  0  0  0
   -1.2230   26.4250  -29.2670 O   0  0  0  0  0  0  0  0  0  0  0  0
   -9.9627   23.0352  -31.0083 H   0  0  0  0  0  0  0  0  0  0  0  0
   -9.5213   23.8392  -32.5527 H   0  0  0  0  0  0  0  0  0  0  0  0
  -10.0481   22.1219  -32.5527 H   0  0  0  0  0  0  0  0  0  0  0  0
   -6.5384   24.0081  -32.0859 H   0  0  0  0  0  0  0  0  0  0  0  0
   -6.5138   22.7312  -33.3491 H   0  0  0  0  0  0  0  0  0  0  0  0
   -7.8150   23.9696  -33.3491 H   0  0  0  0  0  0  0  0  0  0  0  0
   -8.3227   22.2745  -29.6589 H   0  0  0  0  0  0  0  0  0  0  0  0
   -6.6041   22.2205  -30.1787 H   0  0  0  0  0  0  0  0  0  0  0  0
   -7.4938   23.7810  -30.1787 H   0  0  0  0  0  0  0  0  0  0  0  0
   -9.9384   20.4142  -31.6451 H   0  0  0  0  0  0  0  0  0  0  0  0
   -9.7125   18.0144  -32.2248 H   0  0  0  0  0  0  0  0  0  0  0  0
   -7.5511   17.1218  -33.0725 H   0  0  0  0  0  0  0  0  0  0  0  0
   -5.5958   18.6342  -33.3281 H   0  0  0  0  0  0  0  0  0  0  0  0
   -1.6978   18.8838  -32.4615 H   0  0  0  0  0  0  0  0  0  0  0  0
   -0.9861   20.8246  -28.4616 H   0  0  0  0  0  0  0  0  0  0  0  0
   -0.6562   19.0619  -28.6562 H   0  0  0  0  0  0  0  0  0  0  0  0
    1.3947   21.3284  -28.8079 H   0  0  0  0  0  0  0  0  0  0  0  0
    1.1913   20.1217  -27.4695 H   0  0  0  0  0  0  0  0  0  0  0  0
    2.9830   19.7610  -29.1820 H   0  0  0  0  0  0  0  0  0  0  0  0
    2.6223   19.1565  -31.2398 H   0  0  0  0  0  0  0  0  0  0  0  0
    1.2143   18.1171  -30.7006 H   0  0  0  0  0  0  0  0  0  0  0  0
    1.1651   21.0959  -31.3360 H   0  0  0  0  0  0  0  0  0  0  0  0
    0.3956   19.7569  -32.2634 H   0  0  0  0  0  0  0  0  0  0  0  0
   -2.2311   22.1481  -29.6729 H   0  0  0  0  0  0  0  0  0  0  0  0
   -3.8827   22.7426  -28.5881 H   0  0  0  0  0  0  0  0  0  0  0  0
   -2.6544   22.1498  -26.4987 H   0  0  0  0  0  0  0  0  0  0  0  0
   -0.0866   25.5931  -27.0283 H   0  0  0  0  0  0  0  0  0  0  0  0
  1  2  1  0
  2  3  1  0
  2  4  1  0
  2  5  1  0
  5  6  2  0
  6  7  1  0
  7  8  2  0
  8  9  1  0
  9 10  2  0
 10 11  1  0
 11 12  1  0
 12 13  2  0
 13 14  1  0
 14 15  2  0
 15 16  1  0
 16 17  1  0
 17 18  1  0
 18 19  1  0
 19 20  1  0
 20 21  1  0
 15 22  1  0
 22 23  2  0
 23 24  1  0
 24 25  1  0
 25 26  2  0
 25 27  1  0
 27 28  1  0
 28 29  2  0
 29 30  1  0
 30 31  2  0
 31 32  1  0
 32 33  3  0
 31 34  1  0
 34 35  2  0
 35 36  1  0
 10  5  1  0
 23 12  1  0
 35 28  1  0
 21 16  1  0
  1 37  1  0
  1 38  1  0
  1 39  1  0
  3 40  1  0
  3 41  1  0
  3 42  1  0
  4 43  1  0
  4 44  1  0
  4 45  1  0
  6 46  1  0
  7 47  1  0
  8 48  1  0
  9 49  1  0
 14 50  1  0
 17 51  1  0
 17 52  1  0
 18 53  1  0
 18 54  1  0
 19 55  1  0
 20 56  1  0
 20 57  1  0
 21 58  1  0
 21 59  1  0
 22 60  1  0
 29 61  1  0
 30 62  1  0
 34 63  1  0
M  CHG  3  24  -1  27  -1  36  -1
M  END
>  <UniqueID>  (39) 
38

>  <SMILES>  (39) 
CC(C)(C)c1ccccc1Oc1ncc(N2CCNCC2)cc1[N-]C(=O)[N-]c1ccc(C#N)cc1[O-]

>  <Energy>  (39) 
92.33597331039837

>  <Genealogy>  (39) 
CC(C)(C)c1ccccc1Oc1ncc(N2CCNCC2)cc1[N-]C(=O)[N-]c1ccc(C#N)cc1[O-] (protonated)
CC(C)(C)c1ccccc1Oc1ncc(N2CCNCC2)cc1[N-]C(=O)[N-]c1ccc(C#N)cc1[O-] (3D coordinates assigned)
CC(C)(C)c1ccccc1Oc1ncc(N2CCNCC2)cc1[N-]C(=O)[N-]c1ccc(C#N)cc1[O-] (nonaromatic ring conformer: 92.33597331039837 kcal/mol)

>  <smiles>  (39) 
CC(C)(C)c1ccccc1Oc1ncc(N2CCNCC2)cc1NC(=O)Nc1ccc(C#N)cc1O

>  <score_type>  (39) 
oracle

>  <origin>  (39) 
adgpu

>  <m_score__min__energy>  (39) 
-15.56

>  <m_primary>  (39) 
energy

$$$$
39:0
     RDKit          3D

 46 48  0  0  0  0  0  0  0  0999 V2000
   -1.8527   14.9096  -33.9934 H   0  0  0  0  0  0  0  0  0  0  0  0
   -1.8920   16.0060  -34.0730 C   0  0  0  0  0  0  0  0  0  0  0  0
   -3.0660   16.6590  -33.8750 N   0  0  0  0  0  0  0  0  0  0  0  0
   -3.1640   18.0180  -33.9500 C   0  0  0  0  0  0  0  0  0  0  0  0
   -4.3140   18.6040  -33.8000 N   0  0  0  0  0  0  0  0  0  0  0  0
   -5.7960   17.7630  -33.4750 S   0  0  0  0  0  0  0  0  0  0  0  0
   -6.3120   17.1530  -34.7490 O   0  0  0  0  0  0  0  0  0  0  0  0
   -5.5340   16.6630  -32.4860 O   0  0  0  0  0  0  0  0  0  0  0  0
   -6.9720   18.8800  -32.7910 C   0  0  0  0  0  0  0  0  0  0  0  0
   -6.7350   20.2590  -32.8530 C   0  0  0  0  0  0  0  0  0  0  0  0
   -5.8092   20.6357  -33.3124 H   0  0  0  0  0  0  0  0  0  0  0  0
   -7.6710   21.1590  -32.3330 C   0  0  0  0  0  0  0  0  0  0  0  0
   -7.4822   22.2411  -32.3915 H   0  0  0  0  0  0  0  0  0  0  0  0
   -8.8500   20.6860  -31.7370 C   0  0  0  0  0  0  0  0  0  0  0  0
   -9.8740   21.6530  -31.2190 C   0  0  0  0  0  0  0  0  0  0  0  0
   -9.8639   21.6435  -30.1191 H   0  0  0  0  0  0  0  0  0  0  0  0
   -9.6377   22.6652  -31.5791 H   0  0  0  0  0  0  0  0  0  0  0  0
  -10.8710   21.3592  -31.5791 H   0  0  0  0  0  0  0  0  0  0  0  0
   -9.0960   19.3050  -31.6950 C   0  0  0  0  0  0  0  0  0  0  0  0
  -10.0296   18.9284  -31.2517 H   0  0  0  0  0  0  0  0  0  0  0  0
   -8.1600   18.4060  -32.2140 C   0  0  0  0  0  0  0  0  0  0  0  0
   -8.3551   17.3243  -32.1700 H   0  0  0  0  0  0  0  0  0  0  0  0
   -2.0090   18.7820  -34.2230 C   0  0  0  0  0  0  0  0  0  0  0  0
   -2.0510   20.2170  -34.3230 N   0  0  0  0  0  0  0  0  0  0  0  0
   -1.6060   20.6570  -35.1600 H   0  0  0  0  0  0  0  0  0  0  0  0
   -2.5830   21.0830  -33.3040 C   0  0  0  0  0  0  0  0  0  0  0  0
   -1.8250   21.4330  -32.1730 C   0  0  0  0  0  0  0  0  0  0  0  0
   -0.8063   21.0358  -32.0525 H   0  0  0  0  0  0  0  0  0  0  0  0
   -2.3600   22.2840  -31.2000 C   0  0  0  0  0  0  0  0  0  0  0  0
   -1.7639   22.5469  -30.3137 H   0  0  0  0  0  0  0  0  0  0  0  0
   -3.6520   22.8020  -31.3510 C   0  0  0  0  0  0  0  0  0  0  0  0
   -4.3170   23.8860  -30.1330 S   0  0  0  0  0  0  0  0  0  0  0  0
   -3.7680   23.5310  -28.7790 O   0  0  0  0  0  0  0  0  0  0  0  0
   -3.9360   25.3050  -30.4520 O   0  0  0  0  0  0  0  0  0  0  0  0
   -6.0880   23.7350  -30.1140 C   0  0  0  0  0  0  0  0  0  0  0  0
   -6.4423   23.7048  -29.0730 H   0  0  0  0  0  0  0  0  0  0  0  0
   -6.5351   24.5983  -30.6286 H   0  0  0  0  0  0  0  0  0  0  0  0
   -6.3825   22.8085  -30.6286 H   0  0  0  0  0  0  0  0  0  0  0  0
   -4.3980   22.4790  -32.4920 C   0  0  0  0  0  0  0  0  0  0  0  0
   -5.4073   22.8963  -32.6230 H   0  0  0  0  0  0  0  0  0  0  0  0
   -3.8650   21.6290  -33.4640 C   0  0  0  0  0  0  0  0  0  0  0  0
   -4.4544   21.3864  -34.3605 H   0  0  0  0  0  0  0  0  0  0  0  0
   -0.8000   18.1150  -34.4600 C   0  0  0  0  0  0  0  0  0  0  0  0
    0.1029   18.6903  -34.7125 H   0  0  0  0  0  0  0  0  0  0  0  0
   -0.7370   16.7240  -34.3770 C   0  0  0  0  0  0  0  0  0  0  0  0
    0.2143   16.1994  -34.5497 H   0  0  0  0  0  0  0  0  0  0  0  0
  1  2  1  0
  2  3  1  0
  3  4  1  0
  4  5  2  0
  5  6  1  0
  6  7  2  0
  6  8  2  0
  6  9  1  0
  9 10  2  0
 10 11  1  0
 10 12  1  0
 12 13  1  0
 12 14  2  0
 14 15  1  0
 15 16  1  0
 15 17  1  0
 15 18  1  0
 14 19  1  0
 19 20  1  0
 19 21  2  0
 21 22  1  0
  4 23  1  0
 23 24  1  0
 24 25  1  0
 24 26  1  0
 26 27  2  0
 27 28  1  0
 27 29  1  0
 29 30  1  0
 29 31  2  0
 31 32  1  0
 32 33  2  0
 32 34  2  0
 32 35  1  0
 35 36  1  0
 35 37  1  0
 35 38  1  0
 31 39  1  0
 39 40  1  0
 39 41  2  0
 41 42  1  0
 23 43  2  0
 43 44  1  0
 43 45  1  0
 45 46  1  0
 45  2  2  0
 21  9  1  0
 41 26  1  0
M  CHG  1   3  -1
M  END
>  <UniqueID>  (40) 
39

>  <SMILES>  (40) 
Cc1ccc(S(=O)(=O)/N=c2\[n-]cccc2Nc2ccc(S(C)(=O)=O)cc2)cc1

>  <Energy>  (40) 
54.966826033814556

>  <Genealogy>  (40) 
Cc1ccc(S(=O)(=O)N=c2[n-]cccc2Nc2ccc(S(C)(=O)=O)cc2)cc1 (protonated)
Cc1ccc(S(=O)(=O)/N=c2\[n-]cccc2Nc2ccc(S(C)(=O)=O)cc2)cc1 (cis-trans isomerization)
Cc1ccc(S(=O)(=O)/N=c2\[n-]cccc2Nc2ccc(S(C)(=O)=O)cc2)cc1 (3D coordinates assigned)
Cc1ccc(S(=O)(=O)/N=c2\[n-]cccc2Nc2ccc(S(C)(=O)=O)cc2)cc1 (optimized conformer: 54.966826033814556 kcal/mol)

>  <smiles>  (40) 
Cc1ccc(S(=O)(=O)N=c2[nH]cccc2Nc2ccc(S(C)(=O)=O)cc2)cc1

>  <score_type>  (40) 
oracle

>  <origin>  (40) 
adgpu

>  <m_score__min__energy>  (40) 
-10.27

>  <m_primary>  (40) 
energy

$$$$
40:0
     RDKit          3D

 50 53  0  0  0  0  0  0  0  0999 V2000
   -6.4030   25.6380  -29.8030 C   0  0  0  0  0  0  0  0  0  0  0  0
   -5.7770   24.4920  -30.4570 N   0  0  0  0  0  0  0  0  0  0  0  0
   -4.4610   24.3280  -30.7290 C   0  0  0  0  0  0  0  0  0  0  0  0
   -3.4900   25.2900  -30.4740 O   0  0  0  0  0  0  0  0  0  0  0  0
   -4.2040   23.0770  -31.2740 C   0  0  0  0  0  0  0  0  0  0  0  0
   -5.4350   22.4550  -31.3120 C   0  0  0  0  0  0  0  0  0  0  0  0
   -5.7780   21.1690  -31.7150 C   0  0  0  0  0  0  0  0  0  0  0  0
   -7.1230   20.7690  -31.5840 C   0  0  0  0  0  0  0  0  0  0  0  0
   -7.5630   19.0970  -31.9360 S   0  0  0  0  0  0  0  0  0  0  0  0
   -9.0580   19.0000  -32.0380 O   0  0  0  0  0  0  0  0  0  0  0  0
   -7.0800   18.1790  -30.8480 O   0  0  0  0  0  0  0  0  0  0  0  0
   -6.8430   18.6210  -33.4430 N   0  0  0  0  0  0  0  0  0  0  0  0
   -5.4260   18.4420  -33.5670 C   0  0  0  0  0  0  0  0  0  0  0  0
   -4.6190   19.5250  -33.9430 C   0  0  0  0  0  0  0  0  0  0  0  0
   -3.2260   19.4060  -33.9240 C   0  0  0  0  0  0  0  0  0  0  0  0
   -2.6270   18.1980  -33.5450 C   0  0  0  0  0  0  0  0  0  0  0  0
   -0.8780   18.1060  -33.3670 S   0  0  0  0  0  0  0  0  0  0  0  0
   -0.2440   18.5670  -34.6500 O   0  0  0  0  0  0  0  0  0  0  0  0
   -0.4690   16.6780  -33.1260 O   0  0  0  0  0  0  0  0  0  0  0  0
   -0.3330   19.1350  -32.0550 N   0  0  0  0  0  0  0  0  0  0  0  0
    0.8130   19.9780  -32.4430 C   0  0  0  0  0  0  0  0  0  0  0  0
    0.4000   21.1310  -33.3850 C   0  0  0  0  0  0  0  0  0  0  0  0
   -0.9940   21.3880  -33.3840 O   0  0  0  0  0  0  0  0  0  0  0  0
   -1.4920   21.3650  -32.0650 C   0  0  0  0  0  0  0  0  0  0  0  0
   -1.4430   19.9350  -31.4940 C   0  0  0  0  0  0  0  0  0  0  0  0
   -3.4310   17.0970  -33.2220 C   0  0  0  0  0  0  0  0  0  0  0  0
   -4.8220   17.2150  -33.2430 C   0  0  0  0  0  0  0  0  0  0  0  0
   -8.0840   21.6730  -31.0700 C   0  0  0  0  0  0  0  0  0  0  0  0
   -7.7060   22.9680  -30.6730 C   0  0  0  0  0  0  0  0  0  0  0  0
   -6.3650   23.3300  -30.8060 C   0  0  0  0  0  0  0  0  0  0  0  0
   -6.3375   25.5181  -28.7115 H   0  0  0  0  0  0  0  0  0  0  0  0
   -5.8833   26.5601  -30.1024 H   0  0  0  0  0  0  0  0  0  0  0  0
   -7.4597   25.6989  -30.1024 H   0  0  0  0  0  0  0  0  0  0  0  0
   -3.2353   22.6722  -31.6022 H   0  0  0  0  0  0  0  0  0  0  0  0
   -5.0212   20.4836  -32.1243 H   0  0  0  0  0  0  0  0  0  0  0  0
   -7.4160   18.7470  -34.3070 H   0  0  0  0  0  0  0  0  0  0  0  0
   -5.0836   20.4722  -34.2542 H   0  0  0  0  0  0  0  0  0  0  0  0
   -2.5985   20.2638  -34.2076 H   0  0  0  0  0  0  0  0  0  0  0  0
    1.2606   20.4067  -31.5342 H   0  0  0  0  0  0  0  0  0  0  0  0
    1.5307   19.3428  -32.9829 H   0  0  0  0  0  0  0  0  0  0  0  0
    0.9231   22.0450  -33.0673 H   0  0  0  0  0  0  0  0  0  0  0  0
    0.6733   20.8288  -34.4067 H   0  0  0  0  0  0  0  0  0  0  0  0
   -0.8796   22.0273  -31.4354 H   0  0  0  0  0  0  0  0  0  0  0  0
   -2.5369   21.7088  -32.0734 H   0  0  0  0  0  0  0  0  0  0  0  0
   -1.3168   19.9957  -30.4029 H   0  0  0  0  0  0  0  0  0  0  0  0
   -2.3842   19.4354  -31.7671 H   0  0  0  0  0  0  0  0  0  0  0  0
   -2.9654   16.1378  -32.9514 H   0  0  0  0  0  0  0  0  0  0  0  0
   -5.4486   16.3429  -33.0047 H   0  0  0  0  0  0  0  0  0  0  0  0
   -9.1347   21.3598  -30.9805 H   0  0  0  0  0  0  0  0  0  0  0  0
   -8.4458   23.6749  -30.2694 H   0  0  0  0  0  0  0  0  0  0  0  0
  1  2  1  0
  2  3  1  0
  3  4  1  0
  3  5  2  0
  5  6  1  0
  6  7  2  0
  7  8  1  0
  8  9  1  0
  9 10  2  0
  9 11  2  0
  9 12  1  0
 12 13  1  0
 13 14  2  0
 14 15  1  0
 15 16  2  0
 16 17  1  0
 17 18  2  0
 17 19  2  0
 17 20  1  0
 20 21  1  0
 21 22  1  0
 22 23  1  0
 23 24  1  0
 24 25  1  0
 16 26  1  0
 26 27  2  0
  8 28  2  0
 28 29  1  0
 29 30  2  0
 30  2  1  0
 30  6  1  0
 27 13  1  0
 25 20  1  0
  1 31  1  0
  1 32  1  0
  1 33  1  0
  5 34  1  0
  7 35  1  0
 12 36  1  0
 14 37  1  0
 15 38  1  0
 21 39  1  0
 21 40  1  0
 22 41  1  0
 22 42  1  0
 24 43  1  0
 24 44  1  0
 25 45  1  0
 25 46  1  0
 26 47  1  0
 27 48  1  0
 28 49  1  0
 29 50  1  0
M  CHG  1   4  -1
M  END
>  <UniqueID>  (41) 
40

>  <SMILES>  (41) 
Cn1c([O-])cc2cc(S(=O)(=O)Nc3ccc(S(=O)(=O)N4CCOCC4)cc3)ccc21

>  <Energy>  (41) 
98.00258834665178

>  <Genealogy>  (41) 
Cn1c([O-])cc2cc(S(=O)(=O)Nc3ccc(S(=O)(=O)N4CCOCC4)cc3)ccc21 (protonated)
Cn1c([O-])cc2cc(S(=O)(=O)Nc3ccc(S(=O)(=O)N4CCOCC4)cc3)ccc21 (3D coordinates assigned)
Cn1c([O-])cc2cc(S(=O)(=O)Nc3ccc(S(=O)(=O)N4CCOCC4)cc3)ccc21 (nonaromatic ring conformer: 98.00258834665178 kcal/mol)

>  <smiles>  (41) 
Cn1c(O)cc2cc(S(=O)(=O)Nc3ccc(S(=O)(=O)N4CCOCC4)cc3)ccc21

>  <score_type>  (41) 
oracle

>  <origin>  (41) 
adgpu

>  <m_score__min__energy>  (41) 
-12.06

>  <m_primary>  (41) 
energy

$$$$
41:0
     RDKit          3D

 66 70  0  0  0  0  0  0  0  0999 V2000
   -3.2090   21.7460  -28.6310 O   0  0  0  0  0  0  0  0  0  0  0  0
   -3.2060   21.8390  -30.1330 S   0  0  0  0  0  0  0  0  0  0  0  0
   -3.2490   20.4350  -30.6730 O   0  0  0  0  0  0  0  0  0  0  0  0
   -1.7400   22.6260  -30.6320 N   0  0  0  0  0  0  0  0  0  0  0  0
   -0.6010   22.0890  -29.8920 C   0  0  0  0  0  0  0  0  0  0  0  0
   -0.5990   22.6630  -28.5010 C   0  0  0  0  0  0  0  0  0  0  0  0
   -1.0360   23.9820  -28.3130 C   0  0  0  0  0  0  0  0  0  0  0  0
   -0.9990   24.5670  -27.0410 C   0  0  0  0  0  0  0  0  0  0  0  0
   -1.4210   25.8910  -26.8310 C   0  0  0  0  0  0  0  0  0  0  0  0
   -1.3570   26.4530  -25.5520 C   0  0  0  0  0  0  0  0  0  0  0  0
   -0.8710   25.6990  -24.4790 C   0  0  0  0  0  0  0  0  0  0  0  0
   -0.4530   24.3790  -24.6800 C   0  0  0  0  0  0  0  0  0  0  0  0
   -0.5190   23.8090  -25.9560 C   0  0  0  0  0  0  0  0  0  0  0  0
   -0.1330   22.5210  -26.1520 N   0  0  0  0  0  0  0  0  0  0  0  0
   -0.1720   21.9250  -27.3760 C   0  0  0  0  0  0  0  0  0  0  0  0
    0.2130   20.5490  -27.4890 N   0  0  0  0  0  0  0  0  0  0  0  0
    1.6080   20.2530  -27.8280 C   0  0  0  0  0  0  0  0  0  0  0  0
    1.8620   18.7530  -27.8430 C   0  0  0  0  0  0  0  0  0  0  0  0
    0.8640   18.1250  -28.6160 O   0  0  0  0  0  0  0  0  0  0  0  0
   -0.3470   18.1200  -27.8840 C   0  0  0  0  0  0  0  0  0  0  0  0
   -0.8590   19.5430  -27.5650 C   0  0  0  0  0  0  0  0  0  0  0  0
   -4.6210   22.7880  -30.6340 C   0  0  0  0  0  0  0  0  0  0  0  0
   -5.8070   22.0830  -30.9000 C   0  0  0  0  0  0  0  0  0  0  0  0
   -6.9560   22.7450  -31.3510 C   0  0  0  0  0  0  0  0  0  0  0  0
   -8.4590   21.8530  -31.6030 S   0  0  0  0  0  0  0  0  0  0  0  0
   -8.9790   21.3810  -30.2760 O   0  0  0  0  0  0  0  0  0  0  0  0
   -9.4820   22.7760  -32.2010 O   0  0  0  0  0  0  0  0  0  0  0  0
   -8.2330   20.4750  -32.6520 N   0  0  0  0  0  0  0  0  0  0  0  0
   -6.8330   20.4140  -33.1250 C   0  0  0  0  0  0  0  0  0  0  0  0
   -6.5050   19.0350  -33.7060 C   0  0  0  0  0  0  0  0  0  0  0  0
   -6.6340   17.9360  -32.6320 C   0  0  0  0  0  0  0  0  0  0  0  0
   -7.6100   18.3220  -31.5010 C   0  0  0  0  0  0  0  0  0  0  0  0
   -8.7360   19.2220  -32.0300 C   0  0  0  0  0  0  0  0  0  0  0  0
   -6.9150   24.1260  -31.5560 C   0  0  0  0  0  0  0  0  0  0  0  0
   -5.7560   24.8450  -31.2630 C   0  0  0  0  0  0  0  0  0  0  0  0
   -4.6150   24.2000  -30.7730 C   0  0  0  0  0  0  0  0  0  0  0  0
   -3.5310   25.0010  -30.4100 O   0  0  0  0  0  0  0  0  0  0  0  0
   -0.6812   20.9933  -29.8376 H   0  0  0  0  0  0  0  0  0  0  0  0
    0.3336   22.3601  -30.4048 H   0  0  0  0  0  0  0  0  0  0  0  0
   -1.4103   24.5610  -29.1701 H   0  0  0  0  0  0  0  0  0  0  0  0
   -1.8022   26.4861  -27.6739 H   0  0  0  0  0  0  0  0  0  0  0  0
   -1.6892   27.4890  -25.3898 H   0  0  0  0  0  0  0  0  0  0  0  0
   -0.8173   26.1448  -23.4748 H   0  0  0  0  0  0  0  0  0  0  0  0
   -0.0720   23.7886  -23.8337 H   0  0  0  0  0  0  0  0  0  0  0  0
    1.8310   20.6650  -28.8232 H   0  0  0  0  0  0  0  0  0  0  0  0
    2.2569   20.7095  -27.0661 H   0  0  0  0  0  0  0  0  0  0  0  0
    2.8501   18.5509  -28.2822 H   0  0  0  0  0  0  0  0  0  0  0  0
    1.8363   18.3619  -26.8152 H   0  0  0  0  0  0  0  0  0  0  0  0
   -1.1125   17.5950  -28.4743 H   0  0  0  0  0  0  0  0  0  0  0  0
   -0.1534   17.6149  -26.9262 H   0  0  0  0  0  0  0  0  0  0  0  0
   -1.5641   19.8444  -28.3537 H   0  0  0  0  0  0  0  0  0  0  0  0
   -1.3347   19.5013  -26.5741 H   0  0  0  0  0  0  0  0  0  0  0  0
   -5.8335   20.9934  -30.7516 H   0  0  0  0  0  0  0  0  0  0  0  0
   -6.6837   21.1764  -33.9038 H   0  0  0  0  0  0  0  0  0  0  0  0
   -6.1674   20.5990  -32.2690 H   0  0  0  0  0  0  0  0  0  0  0  0
   -7.2015   18.8168  -34.5290 H   0  0  0  0  0  0  0  0  0  0  0  0
   -5.4674   19.0471  -34.0711 H   0  0  0  0  0  0  0  0  0  0  0  0
   -6.9976   17.0155  -33.1120 H   0  0  0  0  0  0  0  0  0  0  0  0
   -5.6411   17.7937  -32.1805 H   0  0  0  0  0  0  0  0  0  0  0  0
   -8.0497   17.4071  -31.0773 H   0  0  0  0  0  0  0  0  0  0  0  0
   -7.0526   18.8742  -30.7300 H   0  0  0  0  0  0  0  0  0  0  0  0
   -9.3082   18.6614  -32.7839 H   0  0  0  0  0  0  0  0  0  0  0  0
   -9.3602   19.5083  -31.1707 H   0  0  0  0  0  0  0  0  0  0  0  0
   -7.7994   24.6483  -31.9497 H   0  0  0  0  0  0  0  0  0  0  0  0
   -5.7388   25.9337  -31.4193 H   0  0  0  0  0  0  0  0  0  0  0  0
   -2.5910   24.6530  -30.2960 H   0  0  0  0  0  0  0  0  0  0  0  0
  1  2  2  0
  2  3  2  0
  2  4  1  0
  4  5  1  0
  5  6  1  0
  6  7  2  0
  7  8  1  0
  8  9  2  0
  9 10  1  0
 10 11  2  0
 11 12  1  0
 12 13  2  0
 13 14  1  0
 14 15  2  0
 15 16  1  0
 16 17  1  0
 17 18  1  0
 18 19  1  0
 19 20  1  0
 20 21  1  0
  2 22  1  0
 22 23  2  0
 23 24  1  0
 24 25  1  0
 25 26  2  0
 25 27  2  0
 25 28  1  0
 28 29  1  0
 29 30  1  0
 30 31  1  0
 31 32  1  0
 32 33  1  0
 24 34  2  0
 34 35  1  0
 35 36  2  0
 36 37  1  0
 15  6  1  0
 21 16  1  0
 36 22  1  0
 13  8  1  0
 33 28  1  0
  5 38  1  0
  5 39  1  0
  7 40  1  0
  9 41  1  0
 10 42  1  0
 11 43  1  0
 12 44  1  0
 17 45  1  0
 17 46  1  0
 18 47  1  0
 18 48  1  0
 20 49  1  0
 20 50  1  0
 21 51  1  0
 21 52  1  0
 23 53  1  0
 29 54  1  0
 29 55  1  0
 30 56  1  0
 30 57  1  0
 31 58  1  0
 31 59  1  0
 32 60  1  0
 32 61  1  0
 33 62  1  0
 33 63  1  0
 34 64  1  0
 35 65  1  0
 37 66  1  0
M  CHG  1   4  -1
M  END
>  <UniqueID>  (42) 
41

>  <SMILES>  (42) 
O=S(=O)([N-]Cc1cc2ccccc2nc1N1CCOCC1)c1cc(S(=O)(=O)N2CCCCC2)ccc1O

>  <Energy>  (42) 
88.89884601205442

>  <Genealogy>  (42) 
O=S(=O)([N-]Cc1cc2ccccc2nc1N1CCOCC1)c1cc(S(=O)(=O)N2CCCCC2)ccc1O (protonated)
O=S(=O)([N-]Cc1cc2ccccc2nc1N1CCOCC1)c1cc(S(=O)(=O)N2CCCCC2)ccc1O (3D coordinates assigned)
O=S(=O)([N-]Cc1cc2ccccc2nc1N1CCOCC1)c1cc(S(=O)(=O)N2CCCCC2)ccc1O (nonaromatic ring conformer: 88.89884601205442 kcal/mol)

>  <smiles>  (42) 
O=S(=O)(NCc1cc2ccccc2nc1N1CCOCC1)c1cc(S(=O)(=O)N2CCCCC2)ccc1O

>  <score_type>  (42) 
oracle

>  <origin>  (42) 
adgpu

>  <m_score__min__energy>  (42) 
-11.779999999999999

>  <m_primary>  (42) 
energy

$$$$
42:0
     RDKit          3D

 56 60  0  0  0  0  0  0  0  0999 V2000
   -0.0670   21.5120  -34.5260 C   0  0  0  0  0  0  0  0  0  0  0  0
   -1.1560   20.5150  -34.5130 N   0  0  0  0  0  0  0  0  0  0  0  0
   -2.0010   20.6290  -33.2950 C   0  0  0  0  0  0  0  0  0  0  0  0
   -1.7160   19.5460  -32.2310 C   0  0  0  0  0  0  0  0  0  0  0  0
   -0.3100   19.1200  -32.2880 N   0  0  0  0  0  0  0  0  0  0  0  0
    0.4430   18.8870  -31.0820 C   0  0  0  0  0  0  0  0  0  0  0  0
    1.1440   17.8450  -30.9900 O   0  0  0  0  0  0  0  0  0  0  0  0
    0.4260   19.8500  -29.9530 C   0  0  0  0  0  0  0  0  0  0  0  0
    1.3780   19.7640  -28.9190 C   0  0  0  0  0  0  0  0  0  0  0  0
    1.3710   20.6850  -27.8700 C   0  0  0  0  0  0  0  0  0  0  0  0
    0.4090   21.6970  -27.8280 C   0  0  0  0  0  0  0  0  0  0  0  0
    0.4470   22.6130  -26.7830 O   0  0  0  0  0  0  0  0  0  0  0  0
   -0.5760   21.7780  -28.8360 C   0  0  0  0  0  0  0  0  0  0  0  0
   -1.8400   23.0170  -28.7950 S   0  0  0  0  0  0  0  0  0  0  0  0
   -1.2250   24.3240  -28.3800 O   0  0  0  0  0  0  0  0  0  0  0  0
   -2.9000   22.6750  -27.7840 O   0  0  0  0  0  0  0  0  0  0  0  0
   -2.5190   23.2250  -30.3790 N   0  0  0  0  0  0  0  0  0  0  0  0
   -3.9110   23.2390  -30.7390 C   0  0  0  0  0  0  0  0  0  0  0  0
   -4.6370   22.0490  -30.9760 C   0  0  0  0  0  0  0  0  0  0  0  0
   -5.9800   22.1460  -31.3370 C   0  0  0  0  0  0  0  0  0  0  0  0
   -6.6190   23.3660  -31.4390 C   0  0  0  0  0  0  0  0  0  0  0  0
   -5.9310   24.5540  -31.1870 C   0  0  0  0  0  0  0  0  0  0  0  0
   -4.5720   24.4890  -30.8320 C   0  0  0  0  0  0  0  0  0  0  0  0
   -3.8730   25.6690  -30.5830 O   0  0  0  0  0  0  0  0  0  0  0  0
   -8.0610   23.2040  -31.8330 C   0  0  0  0  0  0  0  0  0  0  0  0
   -8.1450   21.7080  -31.9560 C   0  0  0  0  0  0  0  0  0  0  0  0
   -9.2500   20.9410  -32.3300 C   0  0  0  0  0  0  0  0  0  0  0  0
   -9.1060   19.5440  -32.4010 C   0  0  0  0  0  0  0  0  0  0  0  0
   -7.8720   18.9340  -32.0950 C   0  0  0  0  0  0  0  0  0  0  0  0
   -6.7680   19.7180  -31.7200 C   0  0  0  0  0  0  0  0  0  0  0  0
   -6.9350   21.1060  -31.6570 C   0  0  0  0  0  0  0  0  0  0  0  0
   -0.5630   20.8470  -29.8890 C   0  0  0  0  0  0  0  0  0  0  0  0
    0.2350   18.6650  -33.5710 C   0  0  0  0  0  0  0  0  0  0  0  0
   -0.6440   19.1450  -34.7390 C   0  0  0  0  0  0  0  0  0  0  0  0
    0.2102   21.7657  -33.4922 H   0  0  0  0  0  0  0  0  0  0  0  0
    0.8066   21.0941  -35.0478 H   0  0  0  0  0  0  0  0  0  0  0  0
   -0.4064   22.4190  -35.0478 H   0  0  0  0  0  0  0  0  0  0  0  0
   -1.8233   21.6152  -32.8414 H   0  0  0  0  0  0  0  0  0  0  0  0
   -3.0442   20.4935  -33.6166 H   0  0  0  0  0  0  0  0  0  0  0  0
   -1.9292   19.9555  -31.2326 H   0  0  0  0  0  0  0  0  0  0  0  0
   -2.3581   18.6755  -32.4311 H   0  0  0  0  0  0  0  0  0  0  0  0
    2.1333   18.9646  -28.9380 H   0  0  0  0  0  0  0  0  0  0  0  0
    2.1261   20.6135  -27.0733 H   0  0  0  0  0  0  0  0  0  0  0  0
   -4.1519   21.0667  -30.8775 H   0  0  0  0  0  0  0  0  0  0  0  0
   -6.4431   25.5244  -31.2648 H   0  0  0  0  0  0  0  0  0  0  0  0
   -8.7396   23.5864  -31.0563 H   0  0  0  0  0  0  0  0  0  0  0  0
   -8.3535   23.7555  -32.7387 H   0  0  0  0  0  0  0  0  0  0  0  0
  -10.2126   21.4192  -32.5641 H   0  0  0  0  0  0  0  0  0  0  0  0
   -9.9632   18.9218  -32.6977 H   0  0  0  0  0  0  0  0  0  0  0  0
   -7.7733   17.8398  -32.1501 H   0  0  0  0  0  0  0  0  0  0  0  0
   -5.7995   19.2537  -31.4826 H   0  0  0  0  0  0  0  0  0  0  0  0
   -1.3347   20.8991  -30.6711 H   0  0  0  0  0  0  0  0  0  0  0  0
    1.2509   19.0684  -33.6947 H   0  0  0  0  0  0  0  0  0  0  0  0
    0.2566   17.5652  -33.5748 H   0  0  0  0  0  0  0  0  0  0  0  0
   -0.0459   19.1359  -35.6622 H   0  0  0  0  0  0  0  0  0  0  0  0
   -1.5059   18.4664  -34.8204 H   0  0  0  0  0  0  0  0  0  0  0  0
  1  2  1  0
  2  3  1  0
  3  4  1  0
  4  5  1  0
  5  6  1  0
  6  7  2  0
  6  8  1  0
  8  9  2  0
  9 10  1  0
 10 11  2  0
 11 12  1  0
 11 13  1  0
 13 14  1  0
 14 15  2  0
 14 16  2  0
 14 17  1  0
 17 18  1  0
 18 19  2  0
 19 20  1  0
 20 21  2  0
 21 22  1  0
 22 23  2  0
 23 24  1  0
 21 25  1  0
 25 26  1  0
 26 27  2  0
 27 28  1  0
 28 29  2  0
 29 30  1  0
 30 31  2  0
 13 32  2  0
  5 33  1  0
 33 34  1  0
 34  2  1  0
 32  8  1  0
 23 18  1  0
 31 26  1  0
 31 20  1  0
  1 35  1  0
  1 36  1  0
  1 37  1  0
  3 38  1  0
  3 39  1  0
  4 40  1  0
  4 41  1  0
  9 42  1  0
 10 43  1  0
 19 44  1  0
 22 45  1  0
 25 46  1  0
 25 47  1  0
 27 48  1  0
 28 49  1  0
 29 50  1  0
 30 51  1  0
 32 52  1  0
 33 53  1  0
 33 54  1  0
 34 55  1  0
 34 56  1  0
M  CHG  3  12  -1  17  -1  24  -1
M  END
>  <UniqueID>  (43) 
42

>  <SMILES>  (43) 
CN1CCN(C(=O)c2ccc([O-])c(S(=O)(=O)[N-]c3cc4c(cc3[O-])Cc3ccccc3-4)c2)CC1

>  <Energy>  (43) 
102.68914038934656

>  <Genealogy>  (43) 
CN1CCN(C(=O)c2ccc([O-])c(S(=O)(=O)[N-]c3cc4c(cc3[O-])Cc3ccccc3-4)c2)CC1 (protonated)
CN1CCN(C(=O)c2ccc([O-])c(S(=O)(=O)[N-]c3cc4c(cc3[O-])Cc3ccccc3-4)c2)CC1 (3D coordinates assigned)
CN1CCN(C(=O)c2ccc([O-])c(S(=O)(=O)[N-]c3cc4c(cc3[O-])Cc3ccccc3-4)c2)CC1 (nonaromatic ring conformer: 102.68914038934656 kcal/mol)

>  <smiles>  (43) 
CN1CCN(C(=O)c2ccc(O)c(S(=O)(=O)Nc3cc4c(cc3O)Cc3ccccc3-4)c2)CC1

>  <score_type>  (43) 
oracle

>  <origin>  (43) 
adgpu

>  <m_score__min__energy>  (43) 
-15.24

>  <m_primary>  (43) 
energy

$$$$
43:0
     RDKit          3D

 46 49  0  0  0  0  0  0  0  0999 V2000
   -8.7740   21.6390  -30.5920 O   0  0  0  0  0  0  0  0  0  0  0  0
   -7.5550   21.8390  -30.8390 C   0  0  0  0  0  0  0  0  0  0  0  0
   -6.9070   22.9490  -30.2970 C   0  0  0  0  0  0  0  0  0  0  0  0
   -5.5510   23.1630  -30.5760 C   0  0  0  0  0  0  0  0  0  0  0  0
   -4.7550   24.5930  -29.8960 S   0  0  0  0  0  0  0  0  0  0  0  0
   -4.0730   25.3840  -30.9770 O   0  0  0  0  0  0  0  0  0  0  0  0
   -5.7950   25.4640  -29.2490 O   0  0  0  0  0  0  0  0  0  0  0  0
   -3.5400   24.0970  -28.7210 C   0  0  0  0  0  0  0  0  0  0  0  0
   -3.6750   22.8900  -28.0220 C   0  0  0  0  0  0  0  0  0  0  0  0
   -2.7000   22.4990  -27.1000 C   0  0  0  0  0  0  0  0  0  0  0  0
   -1.5810   23.3100  -26.8690 C   0  0  0  0  0  0  0  0  0  0  0  0
   -0.3630   22.8350  -25.6900 S   0  0  0  0  0  0  0  0  0  0  0  0
    0.8890   22.4200  -26.4130 O   0  0  0  0  0  0  0  0  0  0  0  0
   -0.8610   21.6640  -24.8880 O   0  0  0  0  0  0  0  0  0  0  0  0
   -0.0130   24.1860  -24.6440 N   0  0  0  0  0  0  0  0  0  0  0  0
   -1.1690   25.0740  -24.4940 C   0  0  0  0  0  0  0  0  0  0  0  0
   -0.6180   26.4600  -24.1880 C   0  0  0  0  0  0  0  0  0  0  0  0
    0.8390   26.4260  -24.6290 C   0  0  0  0  0  0  0  0  0  0  0  0
    1.0650   25.0230  -25.1760 C   0  0  0  0  0  0  0  0  0  0  0  0
   -1.4530   24.5240  -27.5580 C   0  0  0  0  0  0  0  0  0  0  0  0
   -2.4270   24.9150  -28.4800 C   0  0  0  0  0  0  0  0  0  0  0  0
   -4.8770   22.2390  -31.4090 C   0  0  0  0  0  0  0  0  0  0  0  0
   -3.5140   22.3640  -31.7530 C   0  0  0  0  0  0  0  0  0  0  0  0
   -2.9060   21.4210  -32.5860 C   0  0  0  0  0  0  0  0  0  0  0  0
   -1.5960   21.5510  -32.9110 F   0  0  0  0  0  0  0  0  0  0  0  0
   -3.6420   20.3440  -33.0850 C   0  0  0  0  0  0  0  0  0  0  0  0
   -4.9890   20.2040  -32.7530 C   0  0  0  0  0  0  0  0  0  0  0  0
   -5.6120   21.1400  -31.9210 C   0  0  0  0  0  0  0  0  0  0  0  0
   -6.8970   20.9890  -31.6190 O   0  0  0  0  0  0  0  0  0  0  0  0
   -7.4574   23.6520  -29.6544 H   0  0  0  0  0  0  0  0  0  0  0  0
   -4.5508   22.2485  -28.1994 H   0  0  0  0  0  0  0  0  0  0  0  0
   -2.8116   21.5509  -26.5536 H   0  0  0  0  0  0  0  0  0  0  0  0
    0.2660   23.8190  -23.7030 H   0  0  0  0  0  0  0  0  0  0  0  0
   -1.7541   25.0955  -25.4253 H   0  0  0  0  0  0  0  0  0  0  0  0
   -1.8342   24.7259  -23.6901 H   0  0  0  0  0  0  0  0  0  0  0  0
   -1.1718   27.2264  -24.7500 H   0  0  0  0  0  0  0  0  0  0  0  0
   -0.7154   26.7112  -23.1215 H   0  0  0  0  0  0  0  0  0  0  0  0
    1.0218   27.1777  -25.4110 H   0  0  0  0  0  0  0  0  0  0  0  0
    1.5226   26.6555  -23.7983 H   0  0  0  0  0  0  0  0  0  0  0  0
    1.0291   25.0342  -26.2754 H   0  0  0  0  0  0  0  0  0  0  0  0
    2.0506   24.6359  -24.8783 H   0  0  0  0  0  0  0  0  0  0  0  0
   -0.5829   25.1708  -27.3721 H   0  0  0  0  0  0  0  0  0  0  0  0
   -2.3204   25.8680  -29.0188 H   0  0  0  0  0  0  0  0  0  0  0  0
   -2.9269   23.2086  -31.3632 H   0  0  0  0  0  0  0  0  0  0  0  0
   -3.1583   19.6051  -33.7409 H   0  0  0  0  0  0  0  0  0  0  0  0
   -5.5644   19.3534  -33.1473 H   0  0  0  0  0  0  0  0  0  0  0  0
  1  2  2  0
  2  3  1  0
  3  4  2  0
  4  5  1  0
  5  6  2  0
  5  7  2  0
  5  8  1  0
  8  9  2  0
  9 10  1  0
 10 11  2  0
 11 12  1  0
 12 13  2  0
 12 14  2  0
 12 15  1  0
 15 16  1  0
 16 17  1  0
 17 18  1  0
 18 19  1  0
 11 20  1  0
 20 21  2  0
  4 22  1  0
 22 23  2  0
 23 24  1  0
 24 25  1  0
 24 26  2  0
 26 27  1  0
 27 28  2  0
 28 29  1  0
 29  2  1  0
 21  8  1  0
 28 22  1  0
 19 15  1  0
  3 30  1  0
  9 31  1  0
 10 32  1  0
 15 33  1  0
 16 34  1  0
 16 35  1  0
 17 36  1  0
 17 37  1  0
 18 38  1  0
 18 39  1  0
 19 40  1  0
 19 41  1  0
 20 42  1  0
 21 43  1  0
 23 44  1  0
 26 45  1  0
 27 46  1  0
M  CHG  1  15   1
M  END
>  <UniqueID>  (44) 
43

>  <SMILES>  (44) 
O=c1cc(S(=O)(=O)c2ccc(S(=O)(=O)[NH+]3CCCC3)cc2)c2cc(F)ccc2o1

>  <Energy>  (44) 
58.048304209729785

>  <Genealogy>  (44) 
O=c1cc(S(=O)(=O)c2ccc(S(=O)(=O)[NH+]3CCCC3)cc2)c2cc(F)ccc2o1 (protonated)
O=c1cc(S(=O)(=O)c2ccc(S(=O)(=O)[NH+]3CCCC3)cc2)c2cc(F)ccc2o1 (3D coordinates assigned)
O=c1cc(S(=O)(=O)c2ccc(S(=O)(=O)[NH+]3CCCC3)cc2)c2cc(F)ccc2o1 (nonaromatic ring conformer: 58.048304209729785 kcal/mol)

>  <smiles>  (44) 
O=c1cc(S(=O)(=O)c2ccc(S(=O)(=O)N3CCCC3)cc2)c2cc(F)ccc2o1

>  <score_type>  (44) 
oracle

>  <origin>  (44) 
adgpu

>  <m_score__min__energy>  (44) 
-9.6300000000000008

>  <m_primary>  (44) 
energy

$$$$
44:0
     RDKit          3D

 53 56  0  0  0  0  0  0  0  0999 V2000
   -4.2540   25.6460  -30.8170 O   0  0  0  0  0  0  0  0  0  0  0  0
   -5.3180   24.7930  -30.1860 S   0  0  0  0  0  0  0  0  0  0  0  0
   -6.5780   25.6000  -30.0410 O   0  0  0  0  0  0  0  0  0  0  0  0
   -4.7950   24.2370  -28.6350 N   0  0  0  0  0  0  0  0  0  0  0  0
   -3.6250   23.4230  -28.5350 C   0  0  0  0  0  0  0  0  0  0  0  0
   -3.7120   22.1330  -27.9940 C   0  0  0  0  0  0  0  0  0  0  0  0
   -2.5480   21.3980  -27.7290 C   0  0  0  0  0  0  0  0  0  0  0  0
   -1.2900   21.9620  -27.9920 C   0  0  0  0  0  0  0  0  0  0  0  0
   -1.2020   23.2480  -28.5420 C   0  0  0  0  0  0  0  0  0  0  0  0
   -2.3680   23.9760  -28.8190 C   0  0  0  0  0  0  0  0  0  0  0  0
   -2.2800   25.2660  -29.3340 O   0  0  0  0  0  0  0  0  0  0  0  0
   -0.0620   21.1920  -27.5880 C   0  0  0  0  0  0  0  0  0  0  0  0
   -0.1840   19.7080  -27.9840 C   0  0  0  0  0  0  0  0  0  0  0  0
   -1.5970   19.0910  -27.7810 C   0  0  0  0  0  0  0  0  0  0  0  0
   -2.6110   20.0320  -27.1060 C   0  0  0  0  0  0  0  0  0  0  0  0
   -5.6420   23.3690  -31.1730 C   0  0  0  0  0  0  0  0  0  0  0  0
   -4.5850   22.5940  -31.6720 C   0  0  0  0  0  0  0  0  0  0  0  0
   -4.8380   21.3530  -32.2630 C   0  0  0  0  0  0  0  0  0  0  0  0
   -6.1540   20.8800  -32.3630 C   0  0  0  0  0  0  0  0  0  0  0  0
   -6.4890   19.2660  -32.9860 S   0  0  0  0  0  0  0  0  0  0  0  0
   -6.4680   19.2780  -34.4890 O   0  0  0  0  0  0  0  0  0  0  0  0
   -7.8570   18.8480  -32.5220 O   0  0  0  0  0  0  0  0  0  0  0  0
   -5.2770   18.1620  -32.3720 N   0  0  0  0  0  0  0  0  0  0  0  0
   -4.0070   18.2560  -33.1290 C   0  0  0  0  0  0  0  0  0  0  0  0
   -3.8200   17.0900  -34.1180 C   0  0  0  0  0  0  0  0  0  0  0  0
   -5.0640   16.7250  -34.6720 O   0  0  0  0  0  0  0  0  0  0  0  0
   -5.8840   16.1100  -33.6900 C   0  0  0  0  0  0  0  0  0  0  0  0
   -5.7930   16.7790  -32.2950 C   0  0  0  0  0  0  0  0  0  0  0  0
   -7.2120   21.6680  -31.8920 C   0  0  0  0  0  0  0  0  0  0  0  0
   -6.9580   22.9050  -31.2960 C   0  0  0  0  0  0  0  0  0  0  0  0
   -4.6975   21.6955  -27.7765 H   0  0  0  0  0  0  0  0  0  0  0  0
   -0.2166   23.6871  -28.7568 H   0  0  0  0  0  0  0  0  0  0  0  0
   -3.0940   25.7410  -29.7130 H   0  0  0  0  0  0  0  0  0  0  0  0
    0.8157   21.6267  -28.0887 H   0  0  0  0  0  0  0  0  0  0  0  0
    0.0465   21.2547  -26.4952 H   0  0  0  0  0  0  0  0  0  0  0  0
    0.0799   19.6153  -29.0478 H   0  0  0  0  0  0  0  0  0  0  0  0
    0.4936   19.1539  -27.3178 H   0  0  0  0  0  0  0  0  0  0  0  0
   -1.9938   18.8082  -28.7672 H   0  0  0  0  0  0  0  0  0  0  0  0
   -1.4700   18.2310  -27.1070 H   0  0  0  0  0  0  0  0  0  0  0  0
   -3.6245   19.6228  -27.2300 H   0  0  0  0  0  0  0  0  0  0  0  0
   -2.3667   20.1143  -26.0366 H   0  0  0  0  0  0  0  0  0  0  0  0
   -3.5520   22.9646  -31.5979 H   0  0  0  0  0  0  0  0  0  0  0  0
   -4.0049   20.7476  -32.6495 H   0  0  0  0  0  0  0  0  0  0  0  0
   -4.0018   19.2006  -33.6927 H   0  0  0  0  0  0  0  0  0  0  0  0
   -3.1819   18.2128  -32.4028 H   0  0  0  0  0  0  0  0  0  0  0  0
   -3.1393   17.4013  -34.9240 H   0  0  0  0  0  0  0  0  0  0  0  0
   -3.3949   16.2274  -33.5839 H   0  0  0  0  0  0  0  0  0  0  0  0
   -6.9289   16.1576  -34.0306 H   0  0  0  0  0  0  0  0  0  0  0  0
   -5.5271   15.0759  -33.5747 H   0  0  0  0  0  0  0  0  0  0  0  0
   -6.7969   16.7999  -31.8459 H   0  0  0  0  0  0  0  0  0  0  0  0
   -5.0931   16.1908  -31.6832 H   0  0  0  0  0  0  0  0  0  0  0  0
   -8.2476   21.3108  -31.9921 H   0  0  0  0  0  0  0  0  0  0  0  0
   -7.7928   23.5162  -30.9224 H   0  0  0  0  0  0  0  0  0  0  0  0
  1  2  2  0
  2  3  2  0
  2  4  1  0
  4  5  1  0
  5  6  2  0
  6  7  1  0
  7  8  2  0
  8  9  1  0
  9 10  2  0
 10 11  1  0
  8 12  1  0
 12 13  1  0
 13 14  1  0
 14 15  1  0
  2 16  1  0
 16 17  2  0
 17 18  1  0
 18 19  2  0
 19 20  1  0
 20 21  2  0
 20 22  2  0
 20 23  1  0
 23 24  1  0
 24 25  1  0
 25 26  1  0
 26 27  1  0
 27 28  1  0
 19 29  1  0
 29 30  2  0
 10  5  1  0
 30 16  1  0
 15  7  1  0
 28 23  1  0
  6 31  1  0
  9 32  1  0
 11 33  1  0
 12 34  1  0
 12 35  1  0
 13 36  1  0
 13 37  1  0
 14 38  1  0
 14 39  1  0
 15 40  1  0
 15 41  1  0
 17 42  1  0
 18 43  1  0
 24 44  1  0
 24 45  1  0
 25 46  1  0
 25 47  1  0
 27 48  1  0
 27 49  1  0
 28 50  1  0
 28 51  1  0
 29 52  1  0
 30 53  1  0
M  CHG  1   4  -1
M  END
>  <UniqueID>  (45) 
44

>  <SMILES>  (45) 
O=S(=O)([N-]c1cc2c(cc1O)CCCC2)c1ccc(S(=O)(=O)N2CCOCC2)cc1

>  <Energy>  (45) 
76.3388677229782

>  <Genealogy>  (45) 
O=S(=O)([N-]c1cc2c(cc1O)CCCC2)c1ccc(S(=O)(=O)N2CCOCC2)cc1 (protonated)
O=S(=O)([N-]c1cc2c(cc1O)CCCC2)c1ccc(S(=O)(=O)N2CCOCC2)cc1 (3D coordinates assigned)
O=S(=O)([N-]c1cc2c(cc1O)CCCC2)c1ccc(S(=O)(=O)N2CCOCC2)cc1 (nonaromatic ring conformer: 76.3388677229782 kcal/mol)

>  <smiles>  (45) 
O=S(=O)(Nc1cc2c(cc1O)CCCC2)c1ccc(S(=O)(=O)N2CCOCC2)cc1

>  <score_type>  (45) 
oracle

>  <origin>  (45) 
adgpu

>  <m_score__min__energy>  (45) 
-12.970000000000001

>  <m_primary>  (45) 
energy

$$$$
45:0
     RDKit          3D

 36 37  0  0  0  0  0  0  0  0999 V2000
    0.9780   19.5170  -32.7530 C   0  0  0  0  0  0  0  0  0  0  0  0
    0.0780   20.5590  -33.3480 C   0  0  0  0  0  0  0  0  0  0  0  0
    0.6070   21.5600  -33.9040 O   0  0  0  0  0  0  0  0  0  0  0  0
   -1.4040   20.4400  -33.2980 C   0  0  0  0  0  0  0  0  0  0  0  0
   -2.0030   19.1870  -33.0790 C   0  0  0  0  0  0  0  0  0  0  0  0
   -3.3950   19.0610  -33.0290 C   0  0  0  0  0  0  0  0  0  0  0  0
   -4.2200   20.1840  -33.1930 C   0  0  0  0  0  0  0  0  0  0  0  0
   -5.6540   20.0500  -33.1490 N   0  0  0  0  0  0  0  0  0  0  0  0
   -6.3300   19.0970  -34.0300 C   0  0  0  0  0  0  0  0  0  0  0  0
   -6.5950   20.9880  -32.0250 S   0  0  0  0  0  0  0  0  0  0  0  0
   -7.8100   21.5350  -32.7200 O   0  0  0  0  0  0  0  0  0  0  0  0
   -7.0500   20.1160  -30.8870 O   0  0  0  0  0  0  0  0  0  0  0  0
   -5.6040   22.2900  -31.3550 C   0  0  0  0  0  0  0  0  0  0  0  0
   -4.5590   21.9620  -30.4790 C   0  0  0  0  0  0  0  0  0  0  0  0
   -3.7450   22.9620  -29.9410 C   0  0  0  0  0  0  0  0  0  0  0  0
   -3.9660   24.3000  -30.2770 C   0  0  0  0  0  0  0  0  0  0  0  0
   -3.1570   25.2930  -29.7400 O   0  0  0  0  0  0  0  0  0  0  0  0
   -4.9990   24.6380  -31.1550 C   0  0  0  0  0  0  0  0  0  0  0  0
   -5.8200   23.6390  -31.7030 C   0  0  0  0  0  0  0  0  0  0  0  0
   -6.8350   23.9890  -32.5910 O   0  0  0  0  0  0  0  0  0  0  0  0
   -3.6260   21.4350  -33.4200 C   0  0  0  0  0  0  0  0  0  0  0  0
   -2.2350   21.5640  -33.4690 C   0  0  0  0  0  0  0  0  0  0  0  0
    0.9291   19.5736  -31.6555 H   0  0  0  0  0  0  0  0  0  0  0  0
    0.6528   18.5195  -33.0835 H   0  0  0  0  0  0  0  0  0  0  0  0
    2.0122   19.6937  -33.0835 H   0  0  0  0  0  0  0  0  0  0  0  0
   -1.3705   18.2969  -32.9457 H   0  0  0  0  0  0  0  0  0  0  0  0
   -3.8471   18.0726  -32.8596 H   0  0  0  0  0  0  0  0  0  0  0  0
   -6.8606   18.3489  -33.4227 H   0  0  0  0  0  0  0  0  0  0  0  0
   -7.0513   19.6325  -34.6648 H   0  0  0  0  0  0  0  0  0  0  0  0
   -5.5862   18.5932  -34.6648 H   0  0  0  0  0  0  0  0  0  0  0  0
   -4.3790   20.9098  -30.2136 H   0  0  0  0  0  0  0  0  0  0  0  0
   -2.9296   22.6957  -29.2524 H   0  0  0  0  0  0  0  0  0  0  0  0
   -5.1701   25.6922  -31.4184 H   0  0  0  0  0  0  0  0  0  0  0  0
   -7.0340   23.4380  -33.4160 H   0  0  0  0  0  0  0  0  0  0  0  0
   -4.2609   22.3222  -33.5607 H   0  0  0  0  0  0  0  0  0  0  0  0
   -1.7853   22.5527  -33.6428 H   0  0  0  0  0  0  0  0  0  0  0  0
  1  2  1  0
  2  3  2  0
  2  4  1  0
  4  5  2  0
  5  6  1  0
  6  7  2  0
  7  8  1  0
  8  9  1  0
  8 10  1  0
 10 11  2  0
 10 12  2  0
 10 13  1  0
 13 14  2  0
 14 15  1  0
 15 16  2  0
 16 17  1  0
 16 18  1  0
 18 19  2  0
 19 20  1  0
  7 21  1  0
 21 22  2  0
 22  4  1  0
 19 13  1  0
  1 23  1  0
  1 24  1  0
  1 25  1  0
  5 26  1  0
  6 27  1  0
  9 28  1  0
  9 29  1  0
  9 30  1  0
 14 31  1  0
 15 32  1  0
 18 33  1  0
 20 34  1  0
 21 35  1  0
 22 36  1  0
M  CHG  1  17  -1
M  END
>  <UniqueID>  (46) 
45

>  <SMILES>  (46) 
CC(=O)c1ccc(N(C)S(=O)(=O)c2ccc([O-])cc2O)cc1

>  <Energy>  (46) 
42.46792031864247

>  <Genealogy>  (46) 
CC(=O)c1ccc(N(C)S(=O)(=O)c2ccc([O-])cc2O)cc1 (protonated)
CC(=O)c1ccc(N(C)S(=O)(=O)c2ccc([O-])cc2O)cc1 (3D coordinates assigned)
CC(=O)c1ccc(N(C)S(=O)(=O)c2ccc([O-])cc2O)cc1 (optimized conformer: 42.46792031864247 kcal/mol)

>  <smiles>  (46) 
CC(=O)c1ccc(N(C)S(=O)(=O)c2ccc(O)cc2O)cc1

>  <score_type>  (46) 
oracle

>  <origin>  (46) 
adgpu

>  <m_score__min__energy>  (46) 
-9.2400000000000002

>  <m_primary>  (46) 
energy

$$$$
46:0
     RDKit          3D

 52 54  0  0  0  0  0  0  0  0999 V2000
   -2.7500   22.0440  -27.4690 C   0  0  0  0  0  0  0  0  0  0  0  0
   -1.9290   23.3270  -27.4660 C   0  0  0  0  0  0  0  0  0  0  0  0
   -1.5810   23.8710  -29.1310 S   0  0  0  0  0  0  0  0  0  0  0  0
   -2.1240   25.2590  -29.3210 O   0  0  0  0  0  0  0  0  0  0  0  0
   -0.0950   23.9040  -29.3340 O   0  0  0  0  0  0  0  0  0  0  0  0
   -2.3740   22.7930  -30.2790 C   0  0  0  0  0  0  0  0  0  0  0  0
   -1.7240   21.7560  -30.8450 N   0  0  0  0  0  0  0  0  0  0  0  0
   -2.5480   21.1770  -31.7040 N   0  0  0  0  0  0  0  0  0  0  0  0
   -2.1610   20.0460  -32.5390 C   0  0  0  0  0  0  0  0  0  0  0  0
   -3.7330   21.8230  -31.6910 C   0  0  0  0  0  0  0  0  0  0  0  0
   -4.8280   21.5360  -32.5700 N   0  0  0  0  0  0  0  0  0  0  0  0
   -5.2260   20.1630  -32.8890 C   0  0  0  0  0  0  0  0  0  0  0  0
   -6.4570   20.1740  -33.8310 C   0  0  0  0  0  0  0  0  0  0  0  0
   -7.7710   20.0070  -33.0610 C   0  0  0  0  0  0  0  0  0  0  0  0
   -7.8110   18.6740  -32.2860 C   0  0  0  0  0  0  0  0  0  0  0  0
   -6.4230   18.1990  -31.8080 C   0  0  0  0  0  0  0  0  0  0  0  0
   -5.4730   19.3780  -31.5790 C   0  0  0  0  0  0  0  0  0  0  0  0
   -3.6610   22.8780  -30.8010 C   0  0  0  0  0  0  0  0  0  0  0  0
   -4.9250   24.0560  -30.4350 S   0  0  0  0  0  0  0  0  0  0  0  0
   -4.9210   24.4010  -28.9730 O   0  0  0  0  0  0  0  0  0  0  0  0
   -4.6610   25.3140  -31.2120 O   0  0  0  0  0  0  0  0  0  0  0  0
   -6.4950   23.3740  -30.8460 C   0  0  0  0  0  0  0  0  0  0  0  0
   -7.1670   23.7720  -32.0120 C   0  0  0  0  0  0  0  0  0  0  0  0
   -8.4080   23.2130  -32.3300 C   0  0  0  0  0  0  0  0  0  0  0  0
   -8.9870   22.2610  -31.4840 C   0  0  0  0  0  0  0  0  0  0  0  0
   -8.3240   21.8700  -30.3170 C   0  0  0  0  0  0  0  0  0  0  0  0
   -7.0830   22.4270  -29.9970 C   0  0  0  0  0  0  0  0  0  0  0  0
   -2.9487   21.7334  -26.4326 H   0  0  0  0  0  0  0  0  0  0  0  0
   -3.7036   22.2201  -27.9883 H   0  0  0  0  0  0  0  0  0  0  0  0
   -2.1906   21.2519  -27.9883 H   0  0  0  0  0  0  0  0  0  0  0  0
   -2.4924   24.1129  -26.9416 H   0  0  0  0  0  0  0  0  0  0  0  0
   -0.9745   23.1300  -26.9560 H   0  0  0  0  0  0  0  0  0  0  0  0
   -1.8714   19.1997  -31.8988 H   0  0  0  0  0  0  0  0  0  0  0  0
   -3.0096   19.7518  -33.1741 H   0  0  0  0  0  0  0  0  0  0  0  0
   -1.3100   20.3333  -33.1741 H   0  0  0  0  0  0  0  0  0  0  0  0
   -5.4890   22.3090  -32.8060 H   0  0  0  0  0  0  0  0  0  0  0  0
   -4.4193   19.6460  -33.4294 H   0  0  0  0  0  0  0  0  0  0  0  0
   -6.4816   21.1315  -34.3719 H   0  0  0  0  0  0  0  0  0  0  0  0
   -6.3605   19.3267  -34.5258 H   0  0  0  0  0  0  0  0  0  0  0  0
   -7.8744   20.8377  -32.3474 H   0  0  0  0  0  0  0  0  0  0  0  0
   -8.5971   20.0070  -33.7873 H   0  0  0  0  0  0  0  0  0  0  0  0
   -8.4575   18.8023  -31.4054 H   0  0  0  0  0  0  0  0  0  0  0  0
   -8.1949   17.9090  -32.9770 H   0  0  0  0  0  0  0  0  0  0  0  0
   -6.5401   17.6462  -30.8643 H   0  0  0  0  0  0  0  0  0  0  0  0
   -5.9914   17.5554  -32.5887 H   0  0  0  0  0  0  0  0  0  0  0  0
   -5.9153   20.0551  -30.8334 H   0  0  0  0  0  0  0  0  0  0  0  0
   -4.5096   18.9838  -31.2234 H   0  0  0  0  0  0  0  0  0  0  0  0
   -6.7167   24.5244  -32.6762 H   0  0  0  0  0  0  0  0  0  0  0  0
   -8.9305   23.5222  -33.2473 H   0  0  0  0  0  0  0  0  0  0  0  0
   -9.9628   21.8206  -31.7368 H   0  0  0  0  0  0  0  0  0  0  0  0
   -8.7796   21.1232  -29.6501 H   0  0  0  0  0  0  0  0  0  0  0  0
   -6.5660   22.1210  -29.0755 H   0  0  0  0  0  0  0  0  0  0  0  0
  1  2  1  0
  2  3  1  0
  3  4  2  0
  3  5  2  0
  3  6  1  0
  6  7  2  0
  7  8  1  0
  8  9  1  0
  8 10  1  0
 10 11  1  0
 11 12  1  0
 12 13  1  0
 13 14  1  0
 14 15  1  0
 15 16  1  0
 16 17  1  0
 10 18  2  0
 18 19  1  0
 19 20  2  0
 19 21  2  0
 19 22  1  0
 22 23  2  0
 23 24  1  0
 24 25  2  0
 25 26  1  0
 26 27  2  0
 18  6  1  0
 27 22  1  0
 17 12  1  0
  1 28  1  0
  1 29  1  0
  1 30  1  0
  2 31  1  0
  2 32  1  0
  9 33  1  0
  9 34  1  0
  9 35  1  0
 11 36  1  0
 12 37  1  0
 13 38  1  0
 13 39  1  0
 14 40  1  0
 14 41  1  0
 15 42  1  0
 15 43  1  0
 16 44  1  0
 16 45  1  0
 17 46  1  0
 17 47  1  0
 23 48  1  0
 24 49  1  0
 25 50  1  0
 26 51  1  0
 27 52  1  0
M  END
>  <UniqueID>  (47) 
46

>  <SMILES>  (47) 
CCS(=O)(=O)c1nn(C)c(NC2CCCCC2)c1S(=O)(=O)c1ccccc1

>  <Energy>  (47) 
83.4167684528408

>  <Genealogy>  (47) 
CCS(=O)(=O)c1nn(C)c(NC2CCCCC2)c1S(=O)(=O)c1ccccc1 (3D coordinates assigned)
CCS(=O)(=O)c1nn(C)c(NC2CCCCC2)c1S(=O)(=O)c1ccccc1 (nonaromatic ring conformer: 83.4167684528408 kcal/mol)

>  <smiles>  (47) 
CCS(=O)(=O)c1nn(C)c(NC2CCCCC2)c1S(=O)(=O)c1ccccc1

>  <score_type>  (47) 
oracle

>  <origin>  (47) 
adgpu

>  <m_score__min__energy>  (47) 
-10.4

>  <m_primary>  (47) 
energy

$$$$
47:0
     RDKit          3D

 42 44  0  0  0  0  0  0  0  0999 V2000
   -5.6430   16.6140  -32.4230 C   0  0  0  0  0  0  0  0  0  0  0  0
   -5.0610   17.9750  -32.6800 C   0  0  0  0  0  0  0  0  0  0  0  0
   -5.7490   19.1280  -32.2750 C   0  0  0  0  0  0  0  0  0  0  0  0
   -5.2200   20.4060  -32.5180 C   0  0  0  0  0  0  0  0  0  0  0  0
   -6.0060   21.5830  -32.0880 C   0  0  0  0  0  0  0  0  0  0  0  0
   -5.3520   22.6750  -31.4980 C   0  0  0  0  0  0  0  0  0  0  0  0
   -6.0810   23.7910  -31.0700 C   0  0  0  0  0  0  0  0  0  0  0  0
   -5.2560   25.1190  -30.2600 S   0  0  0  0  0  0  0  0  0  0  0  0
   -5.6870   26.4140  -30.8860 O   0  0  0  0  0  0  0  0  0  0  0  0
   -5.5970   25.1400  -28.7950 O   0  0  0  0  0  0  0  0  0  0  0  0
   -3.5400   24.9430  -30.4400 N   0  0  0  0  0  0  0  0  0  0  0  0
   -2.6990   24.1610  -29.5800 C   0  0  0  0  0  0  0  0  0  0  0  0
   -2.9950   22.8200  -29.2660 C   0  0  0  0  0  0  0  0  0  0  0  0
   -2.1380   22.0820  -28.4450 C   0  0  0  0  0  0  0  0  0  0  0  0
   -0.9860   22.6730  -27.9240 C   0  0  0  0  0  0  0  0  0  0  0  0
   -0.6900   24.0050  -28.2200 C   0  0  0  0  0  0  0  0  0  0  0  0
   -1.5420   24.7490  -29.0430 C   0  0  0  0  0  0  0  0  0  0  0  0
   -1.2320   26.0730  -29.3340 O   0  0  0  0  0  0  0  0  0  0  0  0
   -7.4670   23.8310  -31.2660 C   0  0  0  0  0  0  0  0  0  0  0  0
   -8.1210   22.7570  -31.8760 C   0  0  0  0  0  0  0  0  0  0  0  0
   -7.3960   21.6320  -32.2850 C   0  0  0  0  0  0  0  0  0  0  0  0
   -8.0660   20.5650  -32.8760 O   0  0  0  0  0  0  0  0  0  0  0  0
   -3.9730   20.5320  -33.1810 C   0  0  0  0  0  0  0  0  0  0  0  0
   -3.2960   21.8600  -33.4020 C   0  0  0  0  0  0  0  0  0  0  0  0
   -3.2900   19.3710  -33.5760 C   0  0  0  0  0  0  0  0  0  0  0  0
   -3.8280   18.1050  -33.3350 C   0  0  0  0  0  0  0  0  0  0  0  0
   -3.1260   16.9770  -33.7480 O   0  0  0  0  0  0  0  0  0  0  0  0
   -5.7153   16.4450  -31.3385 H   0  0  0  0  0  0  0  0  0  0  0  0
   -6.6457   16.5534  -32.8712 H   0  0  0  0  0  0  0  0  0  0  0  0
   -4.9941   15.8471  -32.8712 H   0  0  0  0  0  0  0  0  0  0  0  0
   -6.7161   19.0300  -31.7600 H   0  0  0  0  0  0  0  0  0  0  0  0
   -4.2596   22.6542  -31.3709 H   0  0  0  0  0  0  0  0  0  0  0  0
   -3.9050   22.3515  -29.6689 H   0  0  0  0  0  0  0  0  0  0  0  0
   -2.3719   21.0334  -28.2090 H   0  0  0  0  0  0  0  0  0  0  0  0
   -0.3113   22.0895  -27.2803 H   0  0  0  0  0  0  0  0  0  0  0  0
    0.2159   24.4707  -27.8048 H   0  0  0  0  0  0  0  0  0  0  0  0
   -8.0423   24.7097  -30.9391 H   0  0  0  0  0  0  0  0  0  0  0  0
   -9.2087   22.7961  -32.0351 H   0  0  0  0  0  0  0  0  0  0  0  0
   -3.0622   22.3186  -32.4299 H   0  0  0  0  0  0  0  0  0  0  0  0
   -2.3656   21.7075  -33.9687 H   0  0  0  0  0  0  0  0  0  0  0  0
   -3.9660   22.5233  -33.9687 H   0  0  0  0  0  0  0  0  0  0  0  0
   -2.3175   19.4596  -34.0824 H   0  0  0  0  0  0  0  0  0  0  0  0
  1  2  1  0
  2  3  2  0
  3  4  1  0
  4  5  1  0
  5  6  2  0
  6  7  1  0
  7  8  1  0
  8  9  2  0
  8 10  2  0
  8 11  1  0
 11 12  1  0
 12 13  2  0
 13 14  1  0
 14 15  2  0
 15 16  1  0
 16 17  2  0
 17 18  1  0
  7 19  2  0
 19 20  1  0
 20 21  2  0
 21 22  1  0
  4 23  2  0
 23 24  1  0
 23 25  1  0
 25 26  2  0
 26 27  1  0
 26  2  1  0
 21  5  1  0
 17 12  1  0
  1 28  1  0
  1 29  1  0
  1 30  1  0
  3 31  1  0
  6 32  1  0
 13 33  1  0
 14 34  1  0
 15 35  1  0
 16 36  1  0
 19 37  1  0
 20 38  1  0
 24 39  1  0
 24 40  1  0
 24 41  1  0
 25 42  1  0
M  CHG  4  11  -1  18  -1  22  -1  27  -1
M  END
>  <UniqueID>  (48) 
47

>  <SMILES>  (48) 
Cc1cc(-c2cc(S(=O)(=O)[N-]c3ccccc3[O-])ccc2[O-])c(C)cc1[O-]

>  <Energy>  (48) 
55.19571756885266

>  <Genealogy>  (48) 
Cc1cc(-c2cc(S(=O)(=O)[N-]c3ccccc3[O-])ccc2[O-])c(C)cc1[O-] (protonated)
Cc1cc(-c2cc(S(=O)(=O)[N-]c3ccccc3[O-])ccc2[O-])c(C)cc1[O-] (3D coordinates assigned)
Cc1cc(-c2cc(S(=O)(=O)[N-]c3ccccc3[O-])ccc2[O-])c(C)cc1[O-] (optimized conformer: 55.19571756885266 kcal/mol)

>  <smiles>  (48) 
Cc1cc(-c2cc(S(=O)(=O)Nc3ccccc3O)ccc2O)c(C)cc1O

>  <score_type>  (48) 
oracle

>  <origin>  (48) 
adgpu

>  <m_score__min__energy>  (48) 
-13.390000000000001

>  <m_primary>  (48) 
energy

$$$$
