0:0
     RDKit          3D

 45 47  0  0  0  0  0  0  0  0999 V2000
   -4.7360   13.8050  -32.5740 C   0  0  0  0  0  0  0  0  0  0  0  0
   -4.2350   15.1600  -32.8340 N   0  0  0  0  0  0  0  0  0  0  0  0
   -5.1110   16.2110  -32.8340 C   0  0  0  0  0  0  0  0  0  0  0  0
   -4.6750   17.5190  -33.1030 C   0  0  0  0  0  0  0  0  0  0  0  0
   -5.6620   18.6190  -33.1720 C   0  0  0  0  0  0  0  0  0  0  0  0
   -5.9720   19.0980  -34.2960 O   0  0  0  0  0  0  0  0  0  0  0  0
   -6.2870   19.1150  -31.9760 N   0  0  0  0  0  0  0  0  0  0  0  0
   -7.2270   20.2000  -31.9600 C   0  0  0  0  0  0  0  0  0  0  0  0
   -6.7470   21.5190  -31.9410 C   0  0  0  0  0  0  0  0  0  0  0  0
   -7.6380   22.5970  -31.9460 C   0  0  0  0  0  0  0  0  0  0  0  0
   -9.0140   22.3670  -31.9880 C   0  0  0  0  0  0  0  0  0  0  0  0
   -9.8770   23.4130  -31.9990 F   0  0  0  0  0  0  0  0  0  0  0  0
   -9.5030   21.0590  -32.0350 C   0  0  0  0  0  0  0  0  0  0  0  0
   -8.6170   19.9750  -32.0280 C   0  0  0  0  0  0  0  0  0  0  0  0
   -9.1160   18.7200  -32.1380 F   0  0  0  0  0  0  0  0  0  0  0  0
   -3.3050   17.7350  -33.3660 C   0  0  0  0  0  0  0  0  0  0  0  0
   -2.7750   19.0500  -33.5980 N   0  0  0  0  0  0  0  0  0  0  0  0
   -3.1040   20.1990  -32.7950 C   0  0  0  0  0  0  0  0  0  0  0  0
   -3.6040   21.3520  -33.4170 C   0  0  0  0  0  0  0  0  0  0  0  0
   -3.9400   22.4770  -32.6580 C   0  0  0  0  0  0  0  0  0  0  0  0
   -3.7740   22.4650  -31.2670 C   0  0  0  0  0  0  0  0  0  0  0  0
   -4.2030   23.8780  -30.3090 S   0  0  0  0  0  0  0  0  0  0  0  0
   -2.7680   24.6110  -29.6850 N   0  0  0  0  0  0  0  0  0  0  0  0
   -4.9400   24.8710  -31.1630 O   0  0  0  0  0  0  0  0  0  0  0  0
   -5.0950   23.4660  -29.1700 O   0  0  0  0  0  0  0  0  0  0  0  0
   -3.2470   21.3280  -30.6440 C   0  0  0  0  0  0  0  0  0  0  0  0
   -2.9100   20.2020  -31.4010 C   0  0  0  0  0  0  0  0  0  0  0  0
   -2.4360   16.6420  -33.4060 C   0  0  0  0  0  0  0  0  0  0  0  0
   -2.9130   15.3580  -33.1360 C   0  0  0  0  0  0  0  0  0  0  0  0
   -2.1100   14.3870  -33.1730 O   0  0  0  0  0  0  0  0  0  0  0  0
   -4.7974   13.6388  -31.4884 H   0  0  0  0  0  0  0  0  0  0  0  0
   -5.7354   13.6918  -33.0194 H   0  0  0  0  0  0  0  0  0  0  0  0
   -4.0506   13.0689  -33.0194 H   0  0  0  0  0  0  0  0  0  0  0  0
   -6.1744   16.0287  -32.6198 H   0  0  0  0  0  0  0  0  0  0  0  0
   -6.1330   18.5990  -31.0810 H   0  0  0  0  0  0  0  0  0  0  0  0
   -5.6632   21.7059  -31.9221 H   0  0  0  0  0  0  0  0  0  0  0  0
   -7.2539   23.6273  -31.9168 H   0  0  0  0  0  0  0  0  0  0  0  0
  -10.5876   20.8804  -32.0776 H   0  0  0  0  0  0  0  0  0  0  0  0
   -2.0300   19.1500  -34.3250 H   0  0  0  0  0  0  0  0  0  0  0  0
   -3.7327   21.3715  -34.5093 H   0  0  0  0  0  0  0  0  0  0  0  0
   -4.3362   23.3749  -33.1549 H   0  0  0  0  0  0  0  0  0  0  0  0
   -2.4480   25.3070  -30.3960 H   0  0  0  0  0  0  0  0  0  0  0  0
   -3.0973   21.3203  -29.5543 H   0  0  0  0  0  0  0  0  0  0  0  0
   -2.4912   19.3141  -30.9047 H   0  0  0  0  0  0  0  0  0  0  0  0
   -1.3743   16.7932  -33.6506 H   0  0  0  0  0  0  0  0  0  0  0  0
  1  2  1  0
  2  3  1  0
  3  4  2  0
  4  5  1  0
  5  6  2  0
  5  7  1  0
  7  8  1  0
  8  9  2  0
  9 10  1  0
 10 11  2  0
 11 12  1  0
 11 13  1  0
 13 14  2  0
 14 15  1  0
  4 16  1  0
 16 17  1  0
 17 18  1  0
 18 19  2  0
 19 20  1  0
 20 21  2  0
 21 22  1  0
 22 23  1  0
 22 24  2  0
 22 25  2  0
 21 26  1  0
 26 27  2  0
 16 28  2  0
 28 29  1  0
 29 30  2  0
 29  2  1  0
 14  8  1  0
 27 18  1  0
  1 31  1  0
  1 32  1  0
  1 33  1  0
  3 34  1  0
  7 35  1  0
  9 36  1  0
 10 37  1  0
 13 38  1  0
 17 39  1  0
 19 40  1  0
 20 41  1  0
 23 42  1  0
 26 43  1  0
 27 44  1  0
 28 45  1  0
M  CHG  1  23  -1
M  END
>  <UniqueID>  (1) 
1

>  <SMILES>  (1) 
Cn1cc(C(=O)Nc2ccc(F)cc2F)c(Nc2ccc(S([NH-])(=O)=O)cc2)cc1=O

>  <Energy>  (1) 
63.65980246774585

>  <Genealogy>  (1) 
Cn1cc(C(=O)Nc2ccc(F)cc2F)c(Nc2ccc(S([NH-])(=O)=O)cc2)cc1=O (protonated)
Cn1cc(C(=O)Nc2ccc(F)cc2F)c(Nc2ccc(S([NH-])(=O)=O)cc2)cc1=O (3D coordinates assigned)
Cn1cc(C(=O)Nc2ccc(F)cc2F)c(Nc2ccc(S([NH-])(=O)=O)cc2)cc1=O (optimized conformer: 63.65980246774585 kcal/mol)

>  <smiles>  (1) 
Cn1cc(C(=O)Nc2ccc(F)cc2F)c(Nc2ccc(S(N)(=O)=O)cc2)cc1=O

>  <score_type>  (1) 
oracle

>  <origin>  (1) 
adgpu

>  <m_score__min__energy>  (1) 
-10.49

>  <m_primary>  (1) 
energy

$$$$
1:0
     RDKit          3D

 43 45  0  0  0  0  0  0  0  0999 V2000
   -2.6300   23.1630  -28.9270 C   0  0  0  0  0  0  0  0  0  0  0  0
   -2.7410   24.5630  -29.4500 C   0  0  0  0  0  0  0  0  0  0  0  0
   -1.9890   25.4540  -28.9750 O   0  0  0  0  0  0  0  0  0  0  0  0
   -3.7060   24.9290  -30.4460 N   0  0  0  0  0  0  0  0  0  0  0  0
   -4.9360   24.2490  -30.7290 C   0  0  0  0  0  0  0  0  0  0  0  0
   -5.6420   24.4690  -31.9240 C   0  0  0  0  0  0  0  0  0  0  0  0
   -6.8450   23.7980  -32.1660 C   0  0  0  0  0  0  0  0  0  0  0  0
   -7.3650   22.9190  -31.2080 C   0  0  0  0  0  0  0  0  0  0  0  0
   -8.8370   22.0120  -31.5440 S   0  0  0  0  0  0  0  0  0  0  0  0
   -9.8570   22.9170  -32.1770 O   0  0  0  0  0  0  0  0  0  0  0  0
   -9.4040   21.4740  -30.2600 O   0  0  0  0  0  0  0  0  0  0  0  0
   -8.4720   20.6630  -32.6530 C   0  0  0  0  0  0  0  0  0  0  0  0
   -7.0760   20.1720  -32.4230 C   0  0  0  0  0  0  0  0  0  0  0  0
   -5.9760   20.8880  -32.7220 N   0  0  0  0  0  0  0  0  0  0  0  0
   -4.9580   20.0370  -32.4570 C   0  0  0  0  0  0  0  0  0  0  0  0
   -3.5220   20.3680  -32.6220 C   0  0  0  0  0  0  0  0  0  0  0  0
   -3.0190   21.4970  -31.9470 C   0  0  0  0  0  0  0  0  0  0  0  0
   -1.6770   21.8650  -32.0710 C   0  0  0  0  0  0  0  0  0  0  0  0
   -0.8160   21.1100  -32.8660 C   0  0  0  0  0  0  0  0  0  0  0  0
   -1.2930   19.9820  -33.5350 C   0  0  0  0  0  0  0  0  0  0  0  0
   -2.6360   19.5990  -33.4200 C   0  0  0  0  0  0  0  0  0  0  0  0
   -3.1270   18.1300  -34.2590 Cl  0  0  0  0  0  0  0  0  0  0  0  0
   -5.3840   18.8680  -32.0270 O   0  0  0  0  0  0  0  0  0  0  0  0
   -6.6920   18.9160  -32.0020 C   0  0  0  0  0  0  0  0  0  0  0  0
   -7.5730   17.7790  -31.5990 C   0  0  0  0  0  0  0  0  0  0  0  0
   -6.6790   22.7240  -30.0020 C   0  0  0  0  0  0  0  0  0  0  0  0
   -5.4770   23.3950  -29.7610 C   0  0  0  0  0  0  0  0  0  0  0  0
   -2.6314   23.1813  -27.8272 H   0  0  0  0  0  0  0  0  0  0  0  0
   -3.4839   22.5691  -29.2850 H   0  0  0  0  0  0  0  0  0  0  0  0
   -1.6932   22.7110  -29.2850 H   0  0  0  0  0  0  0  0  0  0  0  0
   -5.2468   25.1719  -32.6722 H   0  0  0  0  0  0  0  0  0  0  0  0
   -7.3839   23.9611  -33.1110 H   0  0  0  0  0  0  0  0  0  0  0  0
   -9.1811   19.8416  -32.4727 H   0  0  0  0  0  0  0  0  0  0  0  0
   -8.5637   21.0150  -33.6911 H   0  0  0  0  0  0  0  0  0  0  0  0
   -3.6907   22.0962  -31.3147 H   0  0  0  0  0  0  0  0  0  0  0  0
   -1.2993   22.7516  -31.5407 H   0  0  0  0  0  0  0  0  0  0  0  0
    0.2394   21.4034  -32.9660 H   0  0  0  0  0  0  0  0  0  0  0  0
   -0.6084   19.3880  -34.1584 H   0  0  0  0  0  0  0  0  0  0  0  0
   -7.6179   17.7211  -30.5014 H   0  0  0  0  0  0  0  0  0  0  0  0
   -8.5849   17.9394  -31.9994 H   0  0  0  0  0  0  0  0  0  0  0  0
   -7.1650   16.8392  -31.9994 H   0  0  0  0  0  0  0  0  0  0  0  0
   -7.0876   22.0409  -29.2428 H   0  0  0  0  0  0  0  0  0  0  0  0
   -4.9529   23.2511  -28.8047 H   0  0  0  0  0  0  0  0  0  0  0  0
  1  2  1  0
  2  3  2  0
  2  4  1  0
  4  5  1  0
  5  6  2  0
  6  7  1  0
  7  8  2  0
  8  9  1  0
  9 10  2  0
  9 11  2  0
  9 12  1  0
 12 13  1  0
 13 14  1  0
 14 15  2  0
 15 16  1  0
 16 17  2  0
 17 18  1  0
 18 19  2  0
 19 20  1  0
 20 21  2  0
 21 22  1  0
 15 23  1  0
 23 24  1  0
 24 25  1  0
  8 26  1  0
 26 27  2  0
 27  5  1  0
 24 13  2  0
 21 16  1  0
  1 28  1  0
  1 29  1  0
  1 30  1  0
  6 31  1  0
  7 32  1  0
 12 33  1  0
 12 34  1  0
 17 35  1  0
 18 36  1  0
 19 37  1  0
 20 38  1  0
 25 39  1  0
 25 40  1  0
 25 41  1  0
 26 42  1  0
 27 43  1  0
M  CHG  1   4  -1
M  END
>  <UniqueID>  (2) 
2

>  <SMILES>  (2) 
CC(=O)[N-]c1ccc(S(=O)(=O)Cc2nc(-c3ccccc3Cl)oc2C)cc1

>  <Energy>  (2) 
74.40996334533413

>  <Genealogy>  (2) 
CC(=O)[N-]c1ccc(S(=O)(=O)Cc2nc(-c3ccccc3Cl)oc2C)cc1 (protonated)
CC(=O)[N-]c1ccc(S(=O)(=O)Cc2nc(-c3ccccc3Cl)oc2C)cc1 (3D coordinates assigned)
CC(=O)[N-]c1ccc(S(=O)(=O)Cc2nc(-c3ccccc3Cl)oc2C)cc1 (optimized conformer: 74.40996334533413 kcal/mol)

>  <smiles>  (2) 
CC(=O)Nc1ccc(S(=O)(=O)Cc2nc(-c3ccccc3Cl)oc2C)cc1

>  <score_type>  (2) 
oracle

>  <origin>  (2) 
adgpu

>  <m_score__min__energy>  (2) 
-10.57

>  <m_primary>  (2) 
energy

$$$$
2:0
     RDKit          3D

 38 39  0  0  0  0  0  0  0  0999 V2000
   -7.5770   17.7710  -32.7210 C   0  0  0  0  0  0  0  0  0  0  0  0
   -7.1690   19.2030  -32.5390 C   0  0  0  0  0  0  0  0  0  0  0  0
   -8.1190   20.1690  -32.1840 C   0  0  0  0  0  0  0  0  0  0  0  0
   -7.7530   21.5160  -32.0420 C   0  0  0  0  0  0  0  0  0  0  0  0
   -8.7990   22.5200  -31.6340 C   0  0  0  0  0  0  0  0  0  0  0  0
   -6.4220   21.9100  -32.3130 C   0  0  0  0  0  0  0  0  0  0  0  0
   -6.0400   23.2910  -32.2190 N   0  0  0  0  0  0  0  0  0  0  0  0
   -5.9520   23.9720  -30.9610 C   0  0  0  0  0  0  0  0  0  0  0  0
   -6.3160   23.3930  -29.9000 O   0  0  0  0  0  0  0  0  0  0  0  0
   -5.3680   25.3520  -30.8900 C   0  0  0  0  0  0  0  0  0  0  0  0
   -3.9110   25.3000  -30.8110 N   0  0  0  0  0  0  0  0  0  0  0  0
   -3.1290   24.4170  -29.9930 C   0  0  0  0  0  0  0  0  0  0  0  0
   -3.2000   23.1790  -30.2160 O   0  0  0  0  0  0  0  0  0  0  0  0
   -2.2370   24.8970  -28.9180 C   0  0  0  0  0  0  0  0  0  0  0  0
   -1.9950   24.2370  -27.7260 C   0  0  0  0  0  0  0  0  0  0  0  0
   -1.0970   25.0230  -27.0370 C   0  0  0  0  0  0  0  0  0  0  0  0
   -0.8490   26.1140  -27.8440 C   0  0  0  0  0  0  0  0  0  0  0  0
   -1.5420   26.0110  -28.9560 O   0  0  0  0  0  0  0  0  0  0  0  0
   -5.4610   20.9370  -32.6640 C   0  0  0  0  0  0  0  0  0  0  0  0
   -4.0480   21.3320  -32.9910 C   0  0  0  0  0  0  0  0  0  0  0  0
   -5.8480   19.5940  -32.7900 C   0  0  0  0  0  0  0  0  0  0  0  0
   -7.7112   17.3000  -31.7361 H   0  0  0  0  0  0  0  0  0  0  0  0
   -8.5233   17.7276  -33.2802 H   0  0  0  0  0  0  0  0  0  0  0  0
   -6.7957   17.2354  -33.2802 H   0  0  0  0  0  0  0  0  0  0  0  0
   -9.1635   19.8683  -32.0147 H   0  0  0  0  0  0  0  0  0  0  0  0
   -8.8510   22.5699  -30.5364 H   0  0  0  0  0  0  0  0  0  0  0  0
   -8.5330   23.5096  -32.0338 H   0  0  0  0  0  0  0  0  0  0  0  0
   -9.7769   22.2137  -32.0338 H   0  0  0  0  0  0  0  0  0  0  0  0
   -5.8860   23.8270  -33.1020 H   0  0  0  0  0  0  0  0  0  0  0  0
   -5.6597   25.9128  -31.7902 H   0  0  0  0  0  0  0  0  0  0  0  0
   -5.7505   25.8484  -29.9860 H   0  0  0  0  0  0  0  0  0  0  0  0
   -2.4298   23.2819  -27.3964 H   0  0  0  0  0  0  0  0  0  0  0  0
   -0.6657   24.8215  -26.0453 H   0  0  0  0  0  0  0  0  0  0  0  0
   -0.1730   26.9451  -27.5944 H   0  0  0  0  0  0  0  0  0  0  0  0
   -3.4861   21.4891  -32.0585 H   0  0  0  0  0  0  0  0  0  0  0  0
   -3.5702   20.5330  -33.5769 H   0  0  0  0  0  0  0  0  0  0  0  0
   -4.0538   22.2630  -33.5769 H   0  0  0  0  0  0  0  0  0  0  0  0
   -5.1052   18.8399  -33.0893 H   0  0  0  0  0  0  0  0  0  0  0  0
  1  2  1  0
  2  3  2  0
  3  4  1  0
  4  5  1  0
  4  6  2  0
  6  7  1  0
  7  8  1  0
  8  9  2  0
  8 10  1  0
 10 11  1  0
 11 12  1  0
 12 13  2  0
 12 14  1  0
 14 15  2  0
 15 16  1  0
 16 17  2  0
 17 18  1  0
  6 19  1  0
 19 20  1  0
 19 21  2  0
 21  2  1  0
 18 14  1  0
  1 22  1  0
  1 23  1  0
  1 24  1  0
  3 25  1  0
  5 26  1  0
  5 27  1  0
  5 28  1  0
  7 29  1  0
 10 30  1  0
 10 31  1  0
 15 32  1  0
 16 33  1  0
 17 34  1  0
 20 35  1  0
 20 36  1  0
 20 37  1  0
 21 38  1  0
M  CHG  1  11  -1
M  END
>  <UniqueID>  (3) 
3

>  <SMILES>  (3) 
Cc1cc(C)c(NC(=O)C[N-]C(=O)c2ccco2)c(C)c1

>  <Energy>  (3) 
66.02661513459691

>  <Genealogy>  (3) 
Cc1cc(C)c(NC(=O)C[N-]C(=O)c2ccco2)c(C)c1 (protonated)
Cc1cc(C)c(NC(=O)C[N-]C(=O)c2ccco2)c(C)c1 (3D coordinates assigned)
Cc1cc(C)c(NC(=O)C[N-]C(=O)c2ccco2)c(C)c1 (optimized conformer: 66.02661513459691 kcal/mol)

>  <smiles>  (3) 
Cc1cc(C)c(NC(=O)CNC(=O)c2ccco2)c(C)c1

>  <score_type>  (3) 
oracle

>  <origin>  (3) 
adgpu

>  <m_score__min__energy>  (3) 
-10.27

>  <m_primary>  (3) 
energy

$$$$
3:0
     RDKit          3D

 19 19  0  0  0  0  0  0  0  0999 V2000
   -6.9470   20.9680  -32.6100 C   0  0  0  0  0  0  0  0  0  0  0  0
   -5.8380   21.2280  -31.5950 C   0  0  0  0  0  0  0  0  0  0  0  0
   -5.9130   22.6110  -31.0940 N   0  0  0  0  0  0  0  0  0  0  0  0
   -7.0930   23.0540  -30.5600 C   0  0  0  0  0  0  0  0  0  0  0  0
   -7.2170   24.3630  -30.0940 C   0  0  0  0  0  0  0  0  0  0  0  0
   -6.1310   25.2290  -30.1830 C   0  0  0  0  0  0  0  0  0  0  0  0
   -4.9320   24.7850  -30.7410 C   0  0  0  0  0  0  0  0  0  0  0  0
   -3.8550   25.6680  -30.8300 O   0  0  0  0  0  0  0  0  0  0  0  0
   -4.8370   23.4600  -31.2030 C   0  0  0  0  0  0  0  0  0  0  0  0
   -3.7570   23.0590  -31.7190 O   0  0  0  0  0  0  0  0  0  0  0  0
   -7.8853   20.7480  -32.0796 H   0  0  0  0  0  0  0  0  0  0  0  0
   -7.0827   21.8587  -33.2411 H   0  0  0  0  0  0  0  0  0  0  0  0
   -6.6727   20.1098  -33.2411 H   0  0  0  0  0  0  0  0  0  0  0  0
   -5.9482   20.5307  -30.7515 H   0  0  0  0  0  0  0  0  0  0  0  0
   -4.8645   21.0787  -32.0848 H   0  0  0  0  0  0  0  0  0  0  0  0
   -7.9526   22.3705  -30.4977 H   0  0  0  0  0  0  0  0  0  0  0  0
   -8.1665   24.7084  -29.6592 H   0  0  0  0  0  0  0  0  0  0  0  0
   -6.2180   26.2616  -29.8140 H   0  0  0  0  0  0  0  0  0  0  0  0
   -3.1950   25.6360  -31.5970 H   0  0  0  0  0  0  0  0  0  0  0  0
  1  2  1  0
  2  3  1  0
  3  4  1  0
  4  5  2  0
  5  6  1  0
  6  7  2  0
  7  8  1  0
  7  9  1  0
  9 10  2  0
  9  3  1  0
  1 11  1  0
  1 12  1  0
  1 13  1  0
  2 14  1  0
  2 15  1  0
  4 16  1  0
  5 17  1  0
  6 18  1  0
  8 19  1  0
M  END
>  <UniqueID>  (4) 
4

>  <SMILES>  (4) 
CCn1cccc(O)c1=O

>  <Energy>  (4) 
17.033286041774282

>  <Genealogy>  (4) 
CCn1cccc(O)c1=O (3D coordinates assigned)
CCn1cccc(O)c1=O (optimized conformer: 17.033286041774282 kcal/mol)

>  <smiles>  (4) 
CCn1cccc(O)c1=O

>  <score_type>  (4) 
oracle

>  <origin>  (4) 
adgpu

>  <m_score__min__energy>  (4) 
-5.5099999999999998

>  <m_primary>  (4) 
energy

$$$$
4:0
     RDKit          3D

 24 26  0  0  0  0  0  0  0  0999 V2000
   -3.1440   25.2870  -30.1050 O   0  0  0  0  0  0  0  0  0  0  0  0
   -2.3450   24.6310  -29.1770 C   0  0  0  0  0  0  0  0  0  0  0  0
   -1.2330   25.2820  -28.6090 C   0  0  0  0  0  0  0  0  0  0  0  0
   -0.4520   24.6380  -27.6230 C   0  0  0  0  0  0  0  0  0  0  0  0
   -0.7820   23.3420  -27.1880 C   0  0  0  0  0  0  0  0  0  0  0  0
   -1.8830   22.7230  -27.7720 C   0  0  0  0  0  0  0  0  0  0  0  0
   -2.3870   21.5450  -27.5030 O   0  0  0  0  0  0  0  0  0  0  0  0
   -3.4340   21.3200  -28.2510 N   0  0  0  0  0  0  0  0  0  0  0  0
   -3.6110   22.4020  -29.0480 C   0  0  0  0  0  0  0  0  0  0  0  0
   -4.6830   22.4970  -30.0570 C   0  0  0  0  0  0  0  0  0  0  0  0
   -5.5520   23.5990  -30.0480 C   0  0  0  0  0  0  0  0  0  0  0  0
   -6.5870   23.6890  -30.9830 C   0  0  0  0  0  0  0  0  0  0  0  0
   -6.7740   22.6710  -31.9220 C   0  0  0  0  0  0  0  0  0  0  0  0
   -5.9290   21.5570  -31.9220 C   0  0  0  0  0  0  0  0  0  0  0  0
   -6.1990   20.1530  -33.1890 Br  0  0  0  0  0  0  0  0  0  0  0  0
   -4.8910   21.4650  -30.9870 C   0  0  0  0  0  0  0  0  0  0  0  0
   -2.6250   23.3270  -28.7500 C   0  0  0  0  0  0  0  0  0  0  0  0
   -0.9704   26.2992  -28.9352 H   0  0  0  0  0  0  0  0  0  0  0  0
    0.4194   25.1536  -27.1931 H   0  0  0  0  0  0  0  0  0  0  0  0
   -0.1897   22.8347  -26.4122 H   0  0  0  0  0  0  0  0  0  0  0  0
   -5.4179   24.3957  -29.3015 H   0  0  0  0  0  0  0  0  0  0  0  0
   -7.2555   24.5626  -30.9797 H   0  0  0  0  0  0  0  0  0  0  0  0
   -7.5856   22.7461  -32.6607 H   0  0  0  0  0  0  0  0  0  0  0  0
   -4.2359   20.5813  -30.9806 H   0  0  0  0  0  0  0  0  0  0  0  0
  1  2  1  0
  2  3  2  0
  3  4  1  0
  4  5  2  0
  5  6  1  0
  6  7  1  0
  7  8  1  0
  8  9  2  0
  9 10  1  0
 10 11  2  0
 11 12  1  0
 12 13  2  0
 13 14  1  0
 14 15  1  0
 14 16  2  0
  9 17  1  0
 17  2  1  0
 17  6  2  0
 16 10  1  0
  3 18  1  0
  4 19  1  0
  5 20  1  0
 11 21  1  0
 12 22  1  0
 13 23  1  0
 16 24  1  0
M  CHG  1   1  -1
M  END
>  <UniqueID>  (5) 
5

>  <SMILES>  (5) 
[O-]c1cccc2onc(-c3cccc(Br)c3)c12

>  <Energy>  (5) 
72.0803707130355

>  <Genealogy>  (5) 
[O-]c1cccc2onc(-c3cccc(Br)c3)c12 (protonated)
[O-]c1cccc2onc(-c3cccc(Br)c3)c12 (3D coordinates assigned)
[O-]c1cccc2onc(-c3cccc(Br)c3)c12 (optimized conformer: 72.0803707130355 kcal/mol)

>  <smiles>  (5) 
Oc1cccc2onc(-c3cccc(Br)c3)c12

>  <score_type>  (5) 
oracle

>  <origin>  (5) 
adgpu

>  <m_score__min__energy>  (5) 
-9.2699999999999996

>  <m_primary>  (5) 
energy

$$$$
5:0
     RDKit          3D

 41 43  0  0  0  0  0  0  0  0999 V2000
   -5.8510   19.1540  -31.5950 C   0  0  0  0  0  0  0  0  0  0  0  0
   -6.3580   19.9620  -32.8050 C   0  0  0  0  0  0  0  0  0  0  0  0
   -6.3960   19.0520  -34.0410 C   0  0  0  0  0  0  0  0  0  0  0  0
   -5.4270   21.1730  -33.0730 C   0  0  0  0  0  0  0  0  0  0  0  0
   -5.5680   22.2450  -32.0120 C   0  0  0  0  0  0  0  0  0  0  0  0
   -4.4740   23.0600  -31.6900 C   0  0  0  0  0  0  0  0  0  0  0  0
   -4.6010   24.0930  -30.7460 C   0  0  0  0  0  0  0  0  0  0  0  0
   -3.4800   24.9060  -30.3700 N   0  0  0  0  0  0  0  0  0  0  0  0
   -2.5090   24.6740  -28.9510 S   0  0  0  0  0  0  0  0  0  0  0  0
   -1.3740   25.6590  -28.9650 O   0  0  0  0  0  0  0  0  0  0  0  0
   -3.3510   24.9130  -27.7300 O   0  0  0  0  0  0  0  0  0  0  0  0
   -1.9040   23.0200  -28.9090 C   0  0  0  0  0  0  0  0  0  0  0  0
   -0.9090   22.6210  -29.8120 C   0  0  0  0  0  0  0  0  0  0  0  0
   -0.3970   21.3210  -29.7630 C   0  0  0  0  0  0  0  0  0  0  0  0
   -0.8760   20.4140  -28.8140 C   0  0  0  0  0  0  0  0  0  0  0  0
   -1.8730   20.8060  -27.9110 C   0  0  0  0  0  0  0  0  0  0  0  0
   -2.3620   19.8730  -26.9290 C   0  0  0  0  0  0  0  0  0  0  0  0
   -2.7540   19.1230  -26.1380 N   0  0  0  0  0  0  0  0  0  0  0  0
   -2.3870   22.1070  -27.9600 C   0  0  0  0  0  0  0  0  0  0  0  0
   -5.8560   24.3330  -30.1530 C   0  0  0  0  0  0  0  0  0  0  0  0
   -6.0330   25.3560  -29.2200 O   0  0  0  0  0  0  0  0  0  0  0  0
   -6.9540   23.5360  -30.4910 C   0  0  0  0  0  0  0  0  0  0  0  0
   -6.8170   22.4890  -31.4130 C   0  0  0  0  0  0  0  0  0  0  0  0
   -7.9550   21.6140  -31.7580 C   0  0  0  0  0  0  0  0  0  0  0  0
   -9.1280   21.8970  -31.3950 O   0  0  0  0  0  0  0  0  0  0  0  0
   -7.7170   20.4350  -32.5310 N   0  0  0  0  0  0  0  0  0  0  0  0
   -6.1632   19.6516  -30.6650 H   0  0  0  0  0  0  0  0  0  0  0  0
   -6.2747   18.1394  -31.6281 H   0  0  0  0  0  0  0  0  0  0  0  0
   -4.7531   19.0941  -31.6281 H   0  0  0  0  0  0  0  0  0  0  0  0
   -6.4399   18.0005  -33.7210 H   0  0  0  0  0  0  0  0  0  0  0  0
   -7.2850   19.2892  -34.6438 H   0  0  0  0  0  0  0  0  0  0  0  0
   -5.4903   19.2143  -34.6438 H   0  0  0  0  0  0  0  0  0  0  0  0
   -4.3844   20.8227  -33.0871 H   0  0  0  0  0  0  0  0  0  0  0  0
   -5.7129   21.6131  -34.0397 H   0  0  0  0  0  0  0  0  0  0  0  0
   -3.5051   22.8890  -32.1819 H   0  0  0  0  0  0  0  0  0  0  0  0
   -0.5302   23.3322  -30.5608 H   0  0  0  0  0  0  0  0  0  0  0  0
    0.3843   21.0116  -30.4728 H   0  0  0  0  0  0  0  0  0  0  0  0
   -0.4703   19.3923  -28.7759 H   0  0  0  0  0  0  0  0  0  0  0  0
   -3.1715   22.4141  -27.2527 H   0  0  0  0  0  0  0  0  0  0  0  0
   -5.2770   25.7000  -28.6390 H   0  0  0  0  0  0  0  0  0  0  0  0
   -7.9332   23.7321  -30.0297 H   0  0  0  0  0  0  0  0  0  0  0  0
  1  2  1  0
  2  3  1  0
  2  4  1  0
  4  5  1  0
  5  6  2  0
  6  7  1  0
  7  8  1  0
  8  9  1  0
  9 10  2  0
  9 11  2  0
  9 12  1  0
 12 13  2  0
 13 14  1  0
 14 15  2  0
 15 16  1  0
 16 17  1  0
 17 18  3  0
 16 19  2  0
  7 20  2  0
 20 21  1  0
 20 22  1  0
 22 23  2  0
 23 24  1  0
 24 25  2  0
 24 26  1  0
 26  2  1  0
 23  5  1  0
 19 12  1  0
  1 27  1  0
  1 28  1  0
  1 29  1  0
  3 30  1  0
  3 31  1  0
  3 32  1  0
  4 33  1  0
  4 34  1  0
  6 35  1  0
 13 36  1  0
 14 37  1  0
 15 38  1  0
 19 39  1  0
 21 40  1  0
 22 41  1  0
M  CHG  2   8  -1  26  -1
M  END
>  <UniqueID>  (6) 
6

>  <SMILES>  (6) 
CC1(C)Cc2cc([N-]S(=O)(=O)c3cccc(C#N)c3)c(O)cc2C(=O)[N-]1

>  <Energy>  (6) 
43.331329271315525

>  <Genealogy>  (6) 
CC1(C)Cc2cc([N-]S(=O)(=O)c3cccc(C#N)c3)c(O)cc2C(=O)[N-]1 (protonated)
CC1(C)Cc2cc([N-]S(=O)(=O)c3cccc(C#N)c3)c(O)cc2C(=O)[N-]1 (3D coordinates assigned)
CC1(C)Cc2cc([N-]S(=O)(=O)c3cccc(C#N)c3)c(O)cc2C(=O)[N-]1 (nonaromatic ring conformer: 43.331329271315525 kcal/mol)

>  <smiles>  (6) 
CC1(C)Cc2cc(NS(=O)(=O)c3cccc(C#N)c3)c(O)cc2C(=O)N1

>  <score_type>  (6) 
oracle

>  <origin>  (6) 
adgpu

>  <m_score__min__energy>  (6) 
-11.470000000000001

>  <m_primary>  (6) 
energy

$$$$
6:0
     RDKit          3D

 54 57  0  0  0  0  0  0  0  0999 V2000
   -6.7210   17.8250  -31.2580 C   0  0  0  0  0  0  0  0  0  0  0  0
   -6.0580   17.4260  -32.5490 C   0  0  0  0  0  0  0  0  0  0  0  0
   -5.4980   16.1400  -32.6590 C   0  0  0  0  0  0  0  0  0  0  0  0
   -4.8990   15.7250  -33.8480 C   0  0  0  0  0  0  0  0  0  0  0  0
   -4.8390   16.5880  -34.9400 C   0  0  0  0  0  0  0  0  0  0  0  0
   -5.3750   17.8740  -34.8450 C   0  0  0  0  0  0  0  0  0  0  0  0
   -5.9850   18.3120  -33.6560 C   0  0  0  0  0  0  0  0  0  0  0  0
   -6.5230   19.6930  -33.5970 C   0  0  0  0  0  0  0  0  0  0  0  0
   -7.7640   19.8740  -33.4940 O   0  0  0  0  0  0  0  0  0  0  0  0
   -5.6570   20.8350  -33.5670 N   0  0  0  0  0  0  0  0  0  0  0  0
   -4.3820   20.9100  -32.9090 C   0  0  0  0  0  0  0  0  0  0  0  0
   -3.3730   19.9750  -33.1950 C   0  0  0  0  0  0  0  0  0  0  0  0
   -2.1190   20.0770  -32.5910 C   0  0  0  0  0  0  0  0  0  0  0  0
   -1.8390   21.1260  -31.7130 C   0  0  0  0  0  0  0  0  0  0  0  0
   -0.5410   21.1870  -31.1030 N   0  0  0  0  0  0  0  0  0  0  0  0
   -0.2650   21.3810  -29.7090 C   0  0  0  0  0  0  0  0  0  0  0  0
    0.5850   20.6530  -29.1260 O   0  0  0  0  0  0  0  0  0  0  0  0
   -1.0160   22.3990  -28.9380 C   0  0  0  0  0  0  0  0  0  0  0  0
   -1.7820   22.0250  -27.8180 C   0  0  0  0  0  0  0  0  0  0  0  0
   -2.4870   22.9860  -27.0890 C   0  0  0  0  0  0  0  0  0  0  0  0
   -2.4430   24.3320  -27.4640 C   0  0  0  0  0  0  0  0  0  0  0  0
   -3.1590   25.2680  -26.7200 O   0  0  0  0  0  0  0  0  0  0  0  0
   -1.6820   24.7170  -28.5790 C   0  0  0  0  0  0  0  0  0  0  0  0
   -1.6250   26.0500  -28.9670 O   0  0  0  0  0  0  0  0  0  0  0  0
   -0.9730   23.7560  -29.3090 C   0  0  0  0  0  0  0  0  0  0  0  0
   -2.8450   22.0590  -31.4120 C   0  0  0  0  0  0  0  0  0  0  0  0
   -4.1100   21.9750  -32.0230 C   0  0  0  0  0  0  0  0  0  0  0  0
   -5.1550   22.9710  -31.6780 C   0  0  0  0  0  0  0  0  0  0  0  0
   -4.8070   24.1580  -31.4290 O   0  0  0  0  0  0  0  0  0  0  0  0
   -6.5970   22.6180  -31.6380 C   0  0  0  0  0  0  0  0  0  0  0  0
   -7.0510   21.4980  -30.9160 C   0  0  0  0  0  0  0  0  0  0  0  0
   -8.4130   21.1810  -30.8830 C   0  0  0  0  0  0  0  0  0  0  0  0
   -9.3360   21.9810  -31.5600 C   0  0  0  0  0  0  0  0  0  0  0  0
   -8.8990   23.1040  -32.2680 C   0  0  0  0  0  0  0  0  0  0  0  0
   -7.5390   23.4250  -32.3050 C   0  0  0  0  0  0  0  0  0  0  0  0
   -6.1203   17.4635  -30.4103 H   0  0  0  0  0  0  0  0  0  0  0  0
   -6.8005   18.9211  -31.2101 H   0  0  0  0  0  0  0  0  0  0  0  0
   -7.7267   17.3820  -31.2101 H   0  0  0  0  0  0  0  0  0  0  0  0
   -5.5330   15.4553  -31.7988 H   0  0  0  0  0  0  0  0  0  0  0  0
   -4.4728   14.7137  -33.9238 H   0  0  0  0  0  0  0  0  0  0  0  0
   -4.3691   16.2562  -35.8776 H   0  0  0  0  0  0  0  0  0  0  0  0
   -5.3195   18.5518  -35.7096 H   0  0  0  0  0  0  0  0  0  0  0  0
   -3.5731   19.1556  -33.9010 H   0  0  0  0  0  0  0  0  0  0  0  0
   -1.3456   19.3256  -32.8082 H   0  0  0  0  0  0  0  0  0  0  0  0
   -1.8259   20.9686  -27.5145 H   0  0  0  0  0  0  0  0  0  0  0  0
   -3.0805   22.6815  -26.2143 H   0  0  0  0  0  0  0  0  0  0  0  0
   -3.2960   26.2190  -27.0410 H   0  0  0  0  0  0  0  0  0  0  0  0
   -0.3768   24.0641  -30.1806 H   0  0  0  0  0  0  0  0  0  0  0  0
   -2.6418   22.8642  -30.6907 H   0  0  0  0  0  0  0  0  0  0  0  0
   -6.3300   20.8681  -30.3743 H   0  0  0  0  0  0  0  0  0  0  0  0
   -8.7578   20.2996  -30.3225 H   0  0  0  0  0  0  0  0  0  0  0  0
  -10.4061   21.7275  -31.5360 H   0  0  0  0  0  0  0  0  0  0  0  0
   -9.6268   23.7366  -32.7972 H   0  0  0  0  0  0  0  0  0  0  0  0
   -7.2023   24.3138  -32.8588 H   0  0  0  0  0  0  0  0  0  0  0  0
  1  2  1  0
  2  3  2  0
  3  4  1  0
  4  5  2  0
  5  6  1  0
  6  7  2  0
  7  8  1  0
  8  9  2  0
  8 10  1  0
 10 11  1  0
 11 12  2  0
 12 13  1  0
 13 14  2  0
 14 15  1  0
 15 16  1  0
 16 17  2  0
 16 18  1  0
 18 19  2  0
 19 20  1  0
 20 21  2  0
 21 22  1  0
 21 23  1  0
 23 24  1  0
 23 25  2  0
 14 26  1  0
 26 27  2  0
 27 28  1  0
 28 29  2  0
 28 30  1  0
 30 31  2  0
 31 32  1  0
 32 33  2  0
 33 34  1  0
 34 35  2  0
  7  2  1  0
 27 11  1  0
 35 30  1  0
 25 18  1  0
  1 36  1  0
  1 37  1  0
  1 38  1  0
  3 39  1  0
  4 40  1  0
  5 41  1  0
  6 42  1  0
 12 43  1  0
 13 44  1  0
 19 45  1  0
 20 46  1  0
 22 47  1  0
 25 48  1  0
 26 49  1  0
 31 50  1  0
 32 51  1  0
 33 52  1  0
 34 53  1  0
 35 54  1  0
M  CHG  3  10  -1  15  -1  24  -1
M  END
>  <UniqueID>  (7) 
7

>  <SMILES>  (7) 
Cc1ccccc1C(=O)[N-]c1ccc([N-]C(=O)c2ccc(O)c([O-])c2)cc1C(=O)c1ccccc1

>  <Energy>  (7) 
79.47013038398998

>  <Genealogy>  (7) 
Cc1ccccc1C(=O)[N-]c1ccc([N-]C(=O)c2ccc(O)c([O-])c2)cc1C(=O)c1ccccc1 (protonated)
Cc1ccccc1C(=O)[N-]c1ccc([N-]C(=O)c2ccc(O)c([O-])c2)cc1C(=O)c1ccccc1 (3D coordinates assigned)
Cc1ccccc1C(=O)[N-]c1ccc([N-]C(=O)c2ccc(O)c([O-])c2)cc1C(=O)c1ccccc1 (optimized conformer: 79.47013038398998 kcal/mol)

>  <smiles>  (7) 
Cc1ccccc1C(=O)Nc1ccc(NC(=O)c2ccc(O)c(O)c2)cc1C(=O)c1ccccc1

>  <score_type>  (7) 
oracle

>  <origin>  (7) 
adgpu

>  <m_score__min__energy>  (7) 
-13.23

>  <m_primary>  (7) 
energy

$$$$
7:0
     RDKit          3D

 43 45  0  0  0  0  0  0  0  0999 V2000
   -8.7610   19.0140  -33.8140 H   0  0  0  0  0  0  0  0  0  0  0  0
   -8.7910   19.7690  -33.0940 N   0  0  0  0  0  0  0  0  0  0  0  0
   -7.7400   20.3440  -32.5860 C   0  0  0  0  0  0  0  0  0  0  0  0
   -6.4330   19.9850  -32.9870 C   0  0  0  0  0  0  0  0  0  0  0  0
   -6.2220   18.9730  -34.0050 C   0  0  0  0  0  0  0  0  0  0  0  0
   -6.0510   18.1660  -34.8170 N   0  0  0  0  0  0  0  0  0  0  0  0
   -5.3280   20.6410  -32.4050 C   0  0  0  0  0  0  0  0  0  0  0  0
   -3.9540   20.3120  -32.8530 C   0  0  0  0  0  0  0  0  0  0  0  0
   -3.4600   19.0090  -32.7130 C   0  0  0  0  0  0  0  0  0  0  0  0
   -4.0940   18.2269  -32.2698 H   0  0  0  0  0  0  0  0  0  0  0  0
   -2.1630   18.6990  -33.1350 C   0  0  0  0  0  0  0  0  0  0  0  0
   -1.7803   17.6739  -33.0222 H   0  0  0  0  0  0  0  0  0  0  0  0
   -1.3450   19.6950  -33.7040 C   0  0  0  0  0  0  0  0  0  0  0  0
   -0.0370   19.4360  -34.1410 O   0  0  0  0  0  0  0  0  0  0  0  0
    0.8670   20.4330  -34.6040 C   0  0  0  0  0  0  0  0  0  0  0  0
    1.3265   20.9398  -33.7426 H   0  0  0  0  0  0  0  0  0  0  0  0
    1.6519   19.9616  -35.2136 H   0  0  0  0  0  0  0  0  0  0  0  0
    0.3212   21.1682  -35.2136 H   0  0  0  0  0  0  0  0  0  0  0  0
   -1.8470   20.9950  -33.8430 C   0  0  0  0  0  0  0  0  0  0  0  0
   -1.2160   21.7790  -34.2871 H   0  0  0  0  0  0  0  0  0  0  0  0
   -3.1430   21.3040  -33.4220 C   0  0  0  0  0  0  0  0  0  0  0  0
   -3.5279   22.3280  -33.5373 H   0  0  0  0  0  0  0  0  0  0  0  0
   -5.5440   21.6260  -31.4140 C   0  0  0  0  0  0  0  0  0  0  0  0
   -6.8700   21.9670  -31.0680 C   0  0  0  0  0  0  0  0  0  0  0  0
   -7.9160   21.3200  -31.6540 N   0  0  0  0  0  0  0  0  0  0  0  0
   -8.8920   21.5800  -31.3830 H   0  0  0  0  0  0  0  0  0  0  0  0
   -7.1390   23.0600  -30.0520 C   0  0  0  0  0  0  0  0  0  0  0  0
   -6.6117   22.8054  -29.1208 H   0  0  0  0  0  0  0  0  0  0  0  0
   -8.2296   23.1113  -29.9176 H   0  0  0  0  0  0  0  0  0  0  0  0
   -6.6740   24.4650  -30.5080 C   0  0  0  0  0  0  0  0  0  0  0  0
   -7.2468   25.2201  -29.9497 H   0  0  0  0  0  0  0  0  0  0  0  0
   -6.8483   24.5288  -31.5922 H   0  0  0  0  0  0  0  0  0  0  0  0
   -5.2300   24.7090  -30.2820 N   0  0  0  0  0  0  0  0  0  0  0  0
   -4.8960   24.4730  -28.8680 C   0  0  0  0  0  0  0  0  0  0  0  0
   -5.6264   24.9891  -28.2276 H   0  0  0  0  0  0  0  0  0  0  0  0
   -4.9243   23.3932  -28.6598 H   0  0  0  0  0  0  0  0  0  0  0  0
   -3.8877   24.8603  -28.6598 H   0  0  0  0  0  0  0  0  0  0  0  0
   -4.3710   23.8610  -31.1420 C   0  0  0  0  0  0  0  0  0  0  0  0
   -3.3347   24.2221  -31.0666 H   0  0  0  0  0  0  0  0  0  0  0  0
   -4.7588   23.9353  -32.1687 H   0  0  0  0  0  0  0  0  0  0  0  0
   -4.4020   22.3720  -30.7450 C   0  0  0  0  0  0  0  0  0  0  0  0
   -4.5210   22.2982  -29.6540 H   0  0  0  0  0  0  0  0  0  0  0  0
   -3.4582   21.9135  -31.0754 H   0  0  0  0  0  0  0  0  0  0  0  0
  1  2  1  0
  2  3  2  0
  3  4  1  0
  4  5  1  0
  5  6  3  0
  4  7  2  0
  7  8  1  0
  8  9  2  0
  9 10  1  0
  9 11  1  0
 11 12  1  0
 11 13  2  0
 13 14  1  0
 14 15  1  0
 15 16  1  0
 15 17  1  0
 15 18  1  0
 13 19  1  0
 19 20  1  0
 19 21  2  0
 21 22  1  0
  7 23  1  0
 23 24  2  0
 24 25  1  0
 25 26  1  0
 24 27  1  0
 27 28  1  0
 27 29  1  0
 27 30  1  0
 30 31  1  0
 30 32  1  0
 30 33  1  0
 33 34  1  0
 34 35  1  0
 34 36  1  0
 34 37  1  0
 33 38  1  0
 38 39  1  0
 38 40  1  0
 38 41  1  0
 41 42  1  0
 41 43  1  0
 25  3  1  0
 21  8  1  0
 41 23  1  0
M  END
>  <UniqueID>  (8) 
8

>  <SMILES>  (8) 
[H]/N=c1/[nH]c2c(c(-c3ccc(OC)cc3)c1C#N)CCN(C)CC2

>  <Energy>  (8) 
66.1012114872604

>  <Genealogy>  (8) 
[H]/N=c1/[nH]c2c(c(-c3ccc(OC)cc3)c1C#N)CCN(C)CC2 (cis-trans isomerization)
[H]/N=c1/[nH]c2c(c(-c3ccc(OC)cc3)c1C#N)CCN(C)CC2 (3D coordinates assigned)
[H]/N=c1/[nH]c2c(c(-c3ccc(OC)cc3)c1C#N)CCN(C)CC2 (nonaromatic ring conformer: 66.1012114872604 kcal/mol)

>  <smiles>  (8) 
COc1ccc(-c2c3c([nH]c(=N)c2C#N)CCN(C)CC3)cc1

>  <score_type>  (8) 
oracle

>  <origin>  (8) 
adgpu

>  <m_score__min__energy>  (8) 
-6.3499999999999996

>  <m_primary>  (8) 
energy

$$$$
8:0
     RDKit          3D

 29 31  0  0  0  0  0  0  0  0999 V2000
   -2.9860   19.7740  -33.8140 N   0  0  0  0  0  0  0  0  0  0  0  0
   -4.1490   19.2780  -33.8330 C   0  0  0  0  0  0  0  0  0  0  0  0
   -4.2990   18.0840  -34.4810 N   0  0  0  0  0  0  0  0  0  0  0  0
   -5.4880   17.4630  -34.5660 C   0  0  0  0  0  0  0  0  0  0  0  0
   -6.5830   18.0070  -34.0070 N   0  0  0  0  0  0  0  0  0  0  0  0
   -6.5120   19.1810  -33.3530 C   0  0  0  0  0  0  0  0  0  0  0  0
   -7.6270   19.7710  -32.7630 C   0  0  0  0  0  0  0  0  0  0  0  0
   -7.4990   20.9910  -32.0950 C   0  0  0  0  0  0  0  0  0  0  0  0
   -6.2770   21.6000  -32.0240 C   0  0  0  0  0  0  0  0  0  0  0  0
   -6.1650   22.8690  -31.3250 C   0  0  0  0  0  0  0  0  0  0  0  0
   -7.2430   23.4840  -30.7110 C   0  0  0  0  0  0  0  0  0  0  0  0
   -7.0950   24.6960  -30.0520 C   0  0  0  0  0  0  0  0  0  0  0  0
   -5.8450   25.3200  -29.9980 C   0  0  0  0  0  0  0  0  0  0  0  0
   -4.7580   24.7010  -30.6160 C   0  0  0  0  0  0  0  0  0  0  0  0
   -3.4870   25.2810  -30.5910 O   0  0  0  0  0  0  0  0  0  0  0  0
   -4.9370   23.4910  -31.2660 C   0  0  0  0  0  0  0  0  0  0  0  0
   -5.1660   21.0270  -32.6040 C   0  0  0  0  0  0  0  0  0  0  0  0
   -5.2750   19.8270  -33.2640 C   0  0  0  0  0  0  0  0  0  0  0  0
   -2.6760   20.6510  -33.3840 H   0  0  0  0  0  0  0  0  0  0  0  0
   -3.4580   17.6320  -34.9290 H   0  0  0  0  0  0  0  0  0  0  0  0
   -5.5657   16.5027  -35.0968 H   0  0  0  0  0  0  0  0  0  0  0  0
   -8.6078   19.2766  -32.8230 H   0  0  0  0  0  0  0  0  0  0  0  0
   -8.3777   21.4598  -31.6280 H   0  0  0  0  0  0  0  0  0  0  0  0
   -8.2322   23.0042  -30.7462 H   0  0  0  0  0  0  0  0  0  0  0  0
   -7.9642   25.1676  -29.5703 H   0  0  0  0  0  0  0  0  0  0  0  0
   -5.7208   26.2813  -29.4779 H   0  0  0  0  0  0  0  0  0  0  0  0
   -3.0820   25.6750  -29.7340 H   0  0  0  0  0  0  0  0  0  0  0  0
   -4.0728   23.0123  -31.7496 H   0  0  0  0  0  0  0  0  0  0  0  0
   -4.1905   21.5311  -32.5384 H   0  0  0  0  0  0  0  0  0  0  0  0
  1  2  2  3
  2  3  1  0
  3  4  1  0
  4  5  2  0
  5  6  1  0
  6  7  2  0
  7  8  1  0
  8  9  2  0
  9 10  1  0
 10 11  2  0
 11 12  1  0
 12 13  2  0
 13 14  1  0
 14 15  1  0
 14 16  2  0
  9 17  1  0
 17 18  2  0
 18  2  1  0
 18  6  1  0
 16 10  1  0
  1 19  1  0
  3 20  1  0
  4 21  1  0
  7 22  1  0
  8 23  1  0
 11 24  1  0
 12 25  1  0
 13 26  1  0
 15 27  1  0
 16 28  1  0
 17 29  1  0
M  END
>  <smiles>  (9) 
N=c1[nH]cnc2ccc(-c3cccc(O)c3)cc12

>  <score_type>  (9) 
oracle

>  <origin>  (9) 
adgpu

>  <m_score__min__energy>  (9) 
-8.6500000000000004

>  <m_primary>  (9) 
energy

$$$$
9:0
     RDKit          3D

 45 47  0  0  0  0  0  0  0  0999 V2000
   -6.1075   19.5953  -35.3667 H   0  0  0  0  0  0  0  0  0  0  0  0
   -6.0770   18.8220  -34.5850 C   0  0  0  0  0  0  0  0  0  0  0  0
   -5.6820   17.5590  -34.8950 N   0  0  0  0  0  0  0  0  0  0  0  0
   -5.6050   16.5790  -33.9500 C   0  0  0  0  0  0  0  0  0  0  0  0
   -5.2000   15.2840  -34.2910 O   0  0  0  0  0  0  0  0  0  0  0  0
   -3.9840   14.7110  -33.8250 C   0  0  0  0  0  0  0  0  0  0  0  0
   -3.9779   14.7081  -32.7250 H   0  0  0  0  0  0  0  0  0  0  0  0
   -3.8998   13.6785  -34.1948 H   0  0  0  0  0  0  0  0  0  0  0  0
   -3.1341   15.3034  -34.1948 H   0  0  0  0  0  0  0  0  0  0  0  0
   -5.9270   16.8690  -32.6210 C   0  0  0  0  0  0  0  0  0  0  0  0
   -5.8588   16.0870  -31.8504 H   0  0  0  0  0  0  0  0  0  0  0  0
   -6.3360   18.1600  -32.2800 C   0  0  0  0  0  0  0  0  0  0  0  0
   -6.5714   18.4045  -31.2337 H   0  0  0  0  0  0  0  0  0  0  0  0
   -6.4460   19.1410  -33.2690 C   0  0  0  0  0  0  0  0  0  0  0  0
   -6.7850   20.4850  -32.9070 N   0  0  0  0  0  0  0  0  0  0  0  0
   -6.0350   21.4250  -32.3920 C   0  0  0  0  0  0  0  0  0  0  0  0
   -4.6180   21.3420  -32.2800 C   0  0  0  0  0  0  0  0  0  0  0  0
   -3.6190   20.1010  -33.0360 Cl  0  0  0  0  0  0  0  0  0  0  0  0
   -3.9280   22.3840  -31.6520 C   0  0  0  0  0  0  0  0  0  0  0  0
   -2.8362   22.3180  -31.5358 H   0  0  0  0  0  0  0  0  0  0  0  0
   -4.6060   23.5100  -31.1690 C   0  0  0  0  0  0  0  0  0  0  0  0
   -3.8720   24.6100  -30.5020 C   0  0  0  0  0  0  0  0  0  0  0  0
   -4.2890   25.7960  -30.6030 O   0  0  0  0  0  0  0  0  0  0  0  0
   -2.6870   24.3270  -29.7430 N   0  0  0  0  0  0  0  0  0  0  0  0
   -2.6350   24.0010  -28.3170 C   0  0  1  0  0  0  0  0  0  0  0  0
   -3.6554   23.9826  -27.9065 H   0  0  0  0  0  0  0  0  0  0  0  0
   -2.0920   22.5970  -28.1030 C   0  0  0  0  0  0  0  0  0  0  0  0
   -0.7450   22.3370  -28.4170 C   0  0  0  0  0  0  0  0  0  0  0  0
   -0.1160   23.1423  -28.8243 H   0  0  0  0  0  0  0  0  0  0  0  0
   -0.1980   21.0670  -28.2170 C   0  0  0  0  0  0  0  0  0  0  0  0
    1.0980   20.8300  -28.5380 F   0  0  0  0  0  0  0  0  0  0  0  0
   -0.9830   20.0430  -27.6870 C   0  0  0  0  0  0  0  0  0  0  0  0
   -0.5519   19.0426  -27.5341 H   0  0  0  0  0  0  0  0  0  0  0  0
   -2.3180   20.2880  -27.3500 C   0  0  0  0  0  0  0  0  0  0  0  0
   -3.3010   19.0020  -26.6750 Cl  0  0  0  0  0  0  0  0  0  0  0  0
   -2.8700   21.5580  -27.5510 C   0  0  0  0  0  0  0  0  0  0  0  0
   -3.9182   21.7475  -27.2765 H   0  0  0  0  0  0  0  0  0  0  0  0
   -1.9060   25.0990  -27.5290 C   0  0  0  0  0  0  0  0  0  0  0  0
   -2.0263   24.9178  -26.4507 H   0  0  0  0  0  0  0  0  0  0  0  0
   -0.8365   25.0861  -27.7859 H   0  0  0  0  0  0  0  0  0  0  0  0
   -2.3330   26.0797  -27.7859 H   0  0  0  0  0  0  0  0  0  0  0  0
   -5.9920   23.5760  -31.3510 C   0  0  0  0  0  0  0  0  0  0  0  0
   -6.5462   24.4606  -31.0040 H   0  0  0  0  0  0  0  0  0  0  0  0
   -6.6590   22.5560  -31.9530 N   0  0  0  0  0  0  0  0  0  0  0  0
   -7.6960   22.6420  -32.0540 H   0  0  0  0  0  0  0  0  0  0  0  0
  1  2  1  0
  2  3  2  0
  3  4  1  0
  4  5  1  0
  5  6  1  0
  6  7  1  0
  6  8  1  0
  6  9  1  0
  4 10  2  0
 10 11  1  0
 10 12  1  0
 12 13  1  0
 12 14  2  0
 14 15  1  0
 15 16  2  0
 16 17  1  0
 17 18  1  0
 17 19  2  0
 19 20  1  0
 19 21  1  0
 21 22  1  0
 22 23  2  0
 22 24  1  0
 24 25  1  0
 25 26  1  1
 25 27  1  0
 27 28  2  0
 28 29  1  0
 28 30  1  0
 30 31  1  0
 30 32  2  0
 32 33  1  0
 32 34  1  0
 34 35  1  0
 34 36  2  0
 36 37  1  0
 25 38  1  0
 38 39  1  0
 38 40  1  0
 38 41  1  0
 21 42  2  0
 42 43  1  0
 42 44  1  0
 44 45  1  0
 14  2  1  0
 44 16  1  0
 36 27  1  0
M  CHG  1  24  -1
M  END
>  <UniqueID>  (10) 
9

>  <SMILES>  (10) 
COc1ccc(/N=c2/[nH]cc(C(=O)[N-][C@H](C)c3cc(F)cc(Cl)c3)cc2Cl)cn1

>  <Energy>  (10) 
63.844105061075865

>  <Genealogy>  (10) 
COc1ccc(N=c2[nH]cc(C(=O)[N-]C(C)c3cc(F)cc(Cl)c3)cc2Cl)cn1 (protonated)
COc1ccc(N=c2[nH]cc(C(=O)[N-][C@H](C)c3cc(F)cc(Cl)c3)cc2Cl)cn1 (chirality)
COc1ccc(/N=c2/[nH]cc(C(=O)[N-][C@H](C)c3cc(F)cc(Cl)c3)cc2Cl)cn1 (cis-trans isomerization)
COc1ccc(/N=c2/[nH]cc(C(=O)[N-][C@H](C)c3cc(F)cc(Cl)c3)cc2Cl)cn1 (3D coordinates assigned)
COc1ccc(/N=c2/[nH]cc(C(=O)[N-][C@H](C)c3cc(F)cc(Cl)c3)cc2Cl)cn1 (optimized conformer: 63.844105061075865 kcal/mol)

>  <smiles>  (10) 
COc1ccc(N=c2[nH]cc(C(=O)NC(C)c3cc(F)cc(Cl)c3)cc2Cl)cn1

>  <score_type>  (10) 
oracle

>  <origin>  (10) 
adgpu

>  <m_score__min__energy>  (10) 
-10.41

>  <m_primary>  (10) 
energy

$$$$
10:0
     RDKit          3D

 62 65  0  0  0  0  0  0  0  0999 V2000
   -9.2537   21.5906  -29.7196 H   0  0  0  0  0  0  0  0  0  0  0  0
   -8.4320   21.9680  -30.3460 C   0  0  0  0  0  0  0  0  0  0  0  0
   -7.5710   22.9500  -29.8470 C   0  0  0  0  0  0  0  0  0  0  0  0
   -7.7030   23.3255  -28.8215 H   0  0  0  0  0  0  0  0  0  0  0  0
   -6.5410   23.4570  -30.6490 C   0  0  0  0  0  0  0  0  0  0  0  0
   -5.3750   24.5920  -29.9750 S   0  0  0  0  0  0  0  0  0  0  0  0
   -4.7000   25.3680  -31.0720 O   0  0  0  0  0  0  0  0  0  0  0  0
   -6.0930   25.5580  -29.0760 O   0  0  0  0  0  0  0  0  0  0  0  0
   -4.1840   23.7310  -29.0560 N   0  0  0  0  0  0  0  0  0  0  0  0
   -2.9760   24.1710  -28.8880 C   0  0  0  0  0  0  0  0  0  0  0  0
   -2.5150   25.3000  -29.3720 O   0  0  0  0  0  0  0  0  0  0  0  0
   -1.2700   25.4770  -29.0280 N   0  0  0  0  0  0  0  0  0  0  0  0
   -0.9110   24.4080  -28.2860 C   0  0  0  0  0  0  0  0  0  0  0  0
    0.4340   24.2460  -27.6580 C   0  0  0  0  0  0  0  0  0  0  0  0
    0.3312   24.2584  -26.5629 H   0  0  0  0  0  0  0  0  0  0  0  0
    0.8734   23.2884  -27.9742 H   0  0  0  0  0  0  0  0  0  0  0  0
    1.0882   25.0718  -27.9742 H   0  0  0  0  0  0  0  0  0  0  0  0
   -1.9810   23.5370  -28.1800 C   0  0  0  0  0  0  0  0  0  0  0  0
   -2.0750   22.2840  -27.3660 C   0  0  0  0  0  0  0  0  0  0  0  0
   -2.0558   22.5394  -26.2962 H   0  0  0  0  0  0  0  0  0  0  0  0
   -3.0147   21.7632  -27.6018 H   0  0  0  0  0  0  0  0  0  0  0  0
   -1.2235   21.6288  -27.6018 H   0  0  0  0  0  0  0  0  0  0  0  0
   -6.3980   22.9970  -31.9650 C   0  0  0  0  0  0  0  0  0  0  0  0
   -5.6137   23.4182  -32.6111 H   0  0  0  0  0  0  0  0  0  0  0  0
   -7.2480   22.0060  -32.4580 C   0  0  0  0  0  0  0  0  0  0  0  0
   -7.1310   21.6484  -33.4917 H   0  0  0  0  0  0  0  0  0  0  0  0
   -8.2530   21.4630  -31.6390 C   0  0  0  0  0  0  0  0  0  0  0  0
   -9.0900   20.3940  -32.0990 N   0  0  0  0  0  0  0  0  0  0  0  0
   -8.6740   19.0270  -32.2250 C   0  0  0  0  0  0  0  0  0  0  0  0
   -9.4970   18.1140  -31.9540 O   0  0  0  0  0  0  0  0  0  0  0  0
   -7.2950   18.6710  -32.6350 C   0  0  0  0  0  0  0  0  0  0  0  0
   -6.5580   17.7290  -31.8980 C   0  0  0  0  0  0  0  0  0  0  0  0
   -6.9904   17.2861  -30.9887 H   0  0  0  0  0  0  0  0  0  0  0  0
   -5.2790   17.3520  -32.3140 C   0  0  0  0  0  0  0  0  0  0  0  0
   -4.7144   16.6039  -31.7381 H   0  0  0  0  0  0  0  0  0  0  0  0
   -4.7120   17.9220  -33.4610 C   0  0  0  0  0  0  0  0  0  0  0  0
   -3.1580   17.3500  -34.0510 S   0  0  0  0  0  0  0  0  0  0  0  0
   -3.3180   16.7210  -35.4080 O   0  0  0  0  0  0  0  0  0  0  0  0
   -2.5970   16.3200  -33.1110 O   0  0  0  0  0  0  0  0  0  0  0  0
   -2.0790   18.6990  -34.1380 N   0  0  0  0  0  0  0  0  0  0  0  0
   -1.3010   18.6360  -34.8310 H   0  0  0  0  0  0  0  0  0  0  0  0
   -1.8740   19.5070  -32.9780 C   0  0  0  0  0  0  0  0  0  0  0  0
   -2.5190   20.6840  -32.6460 C   0  0  0  0  0  0  0  0  0  0  0  0
   -3.5750   21.3860  -33.4340 C   0  0  0  0  0  0  0  0  0  0  0  0
   -4.2902   21.8614  -32.7467 H   0  0  0  0  0  0  0  0  0  0  0  0
   -3.1092   22.1548  -34.0680 H   0  0  0  0  0  0  0  0  0  0  0  0
   -4.1036   20.6589  -34.0680 H   0  0  0  0  0  0  0  0  0  0  0  0
   -2.0700   21.1080  -31.4470 N   0  0  0  0  0  0  0  0  0  0  0  0
   -1.1570   20.2410  -31.0260 N   0  0  0  0  0  0  0  0  0  0  0  0
   -0.4750   20.3550  -29.7420 C   0  0  0  0  0  0  0  0  0  0  0  0
   -1.2041   20.2331  -28.9274 H   0  0  0  0  0  0  0  0  0  0  0  0
    0.2949   19.5731  -29.6650 H   0  0  0  0  0  0  0  0  0  0  0  0
   -0.0013   21.3448  -29.6650 H   0  0  0  0  0  0  0  0  0  0  0  0
   -1.0240   19.2420  -31.9260 C   0  0  0  0  0  0  0  0  0  0  0  0
   -0.1090   18.0630  -31.7970 C   0  0  0  0  0  0  0  0  0  0  0  0
    0.0602   17.8450  -30.7322 H   0  0  0  0  0  0  0  0  0  0  0  0
   -0.5672   17.1885  -32.2820 H   0  0  0  0  0  0  0  0  0  0  0  0
    0.8519   18.2898  -32.2820 H   0  0  0  0  0  0  0  0  0  0  0  0
   -5.4310   18.8800  -34.1850 C   0  0  0  0  0  0  0  0  0  0  0  0
   -4.9880   19.3350  -35.0832 H   0  0  0  0  0  0  0  0  0  0  0  0
   -6.7100   19.2600  -33.7700 C   0  0  0  0  0  0  0  0  0  0  0  0
   -7.2629   20.0250  -34.3349 H   0  0  0  0  0  0  0  0  0  0  0  0
  1  2  1  0
  2  3  2  0
  3  4  1  0
  3  5  1  0
  5  6  1  0
  6  7  2  0
  6  8  2  0
  6  9  1  0
  9 10  2  0
 10 11  1  0
 11 12  1  0
 12 13  1  0
 13 14  1  0
 14 15  1  0
 14 16  1  0
 14 17  1  0
 13 18  2  0
 18 19  1  0
 19 20  1  0
 19 21  1  0
 19 22  1  0
  5 23  2  0
 23 24  1  0
 23 25  1  0
 25 26  1  0
 25 27  2  0
 27 28  1  0
 28 29  1  0
 29 30  2  0
 29 31  1  0
 31 32  2  0
 32 33  1  0
 32 34  1  0
 34 35  1  0
 34 36  2  0
 36 37  1  0
 37 38  2  0
 37 39  2  0
 37 40  1  0
 40 41  1  0
 40 42  1  0
 42 43  1  0
 43 44  1  0
 44 45  1  0
 44 46  1  0
 44 47  1  0
 43 48  2  0
 48 49  1  0
 49 50  1  0
 50 51  1  0
 50 52  1  0
 50 53  1  0
 49 54  1  0
 54 55  1  0
 55 56  1  0
 55 57  1  0
 55 58  1  0
 36 59  1  0
 59 60  1  0
 59 61  2  0
 61 62  1  0
 27  2  1  0
 61 31  1  0
 18 10  1  0
 54 42  2  0
M  CHG  2  12  -1  28  -1
M  END
>  <UniqueID>  (11) 
10

>  <SMILES>  (11) 
Cc1nn(C)c(C)c1NS(=O)(=O)c1ccc(C(=O)[N-]c2ccc(S(=O)(=O)/N=c3\o[n-]c(C)c3C)cc2)cc1

>  <Energy>  (11) 
135.4278786182688

>  <Genealogy>  (11) 
Cc1nn(C)c(C)c1NS(=O)(=O)c1ccc(C(=O)[N-]c2ccc(S(=O)(=O)N=c3o[n-]c(C)c3C)cc2)cc1 (protonated)
Cc1nn(C)c(C)c1NS(=O)(=O)c1ccc(C(=O)[N-]c2ccc(S(=O)(=O)/N=c3\o[n-]c(C)c3C)cc2)cc1 (cis-trans isomerization)
Cc1nn(C)c(C)c1NS(=O)(=O)c1ccc(C(=O)[N-]c2ccc(S(=O)(=O)/N=c3\o[n-]c(C)c3C)cc2)cc1 (3D coordinates assigned)
Cc1nn(C)c(C)c1NS(=O)(=O)c1ccc(C(=O)[N-]c2ccc(S(=O)(=O)/N=c3\o[n-]c(C)c3C)cc2)cc1 (optimized conformer: 135.4278786182688 kcal/mol)

>  <smiles>  (11) 
Cc1nn(C)c(C)c1NS(=O)(=O)c1ccc(C(=O)Nc2ccc(S(=O)(=O)N=c3o[nH]c(C)c3C)cc2)cc1

>  <score_type>  (11) 
oracle

>  <origin>  (11) 
adgpu

>  <m_score__min__energy>  (11) 
-14.140000000000001

>  <m_primary>  (11) 
energy

$$$$
11:0
     RDKit          3D

 38 40  0  0  0  0  0  0  0  0999 V2000
   -5.9130   18.8900  -34.9570 N   0  0  0  0  0  0  0  0  0  0  0  0
   -5.7430   19.3790  -33.6250 C   0  0  0  0  0  0  0  0  0  0  0  0
   -4.6150   19.2760  -33.0740 O   0  0  0  0  0  0  0  0  0  0  0  0
   -6.8690   20.0160  -32.8970 C   0  0  0  0  0  0  0  0  0  0  0  0
   -8.0230   19.2600  -32.6170 C   0  0  0  0  0  0  0  0  0  0  0  0
   -9.1160   19.8420  -31.9730 C   0  0  0  0  0  0  0  0  0  0  0  0
   -9.0740   21.1840  -31.5970 C   0  0  0  0  0  0  0  0  0  0  0  0
   -7.9390   21.9480  -31.8640 C   0  0  0  0  0  0  0  0  0  0  0  0
   -6.8320   21.3830  -32.5230 C   0  0  0  0  0  0  0  0  0  0  0  0
   -5.6430   22.1690  -32.7190 N   0  0  0  0  0  0  0  0  0  0  0  0
   -4.8950   22.7740  -31.6500 C   0  0  0  0  0  0  0  0  0  0  0  0
   -5.4370   23.8710  -30.9650 C   0  0  0  0  0  0  0  0  0  0  0  0
   -4.7380   24.4630  -29.9090 C   0  0  0  0  0  0  0  0  0  0  0  0
   -3.4860   23.9620  -29.5110 C   0  0  0  0  0  0  0  0  0  0  0  0
   -2.7420   24.5920  -28.3900 C   0  0  0  0  0  0  0  0  0  0  0  0
   -3.3040   24.6520  -27.1010 C   0  0  0  0  0  0  0  0  0  0  0  0
   -2.6020   25.2440  -26.0480 C   0  0  0  0  0  0  0  0  0  0  0  0
   -1.3330   25.7850  -26.2670 C   0  0  0  0  0  0  0  0  0  0  0  0
   -0.7640   25.7340  -27.5420 C   0  0  0  0  0  0  0  0  0  0  0  0
   -1.4620   25.1410  -28.5990 C   0  0  0  0  0  0  0  0  0  0  0  0
   -2.9530   22.8510  -30.1870 C   0  0  0  0  0  0  0  0  0  0  0  0
   -3.6530   22.2580  -31.2410 C   0  0  0  0  0  0  0  0  0  0  0  0
   -5.1010   18.4860  -35.4730 H   0  0  0  0  0  0  0  0  0  0  0  0
   -6.8530   18.8690  -35.4120 H   0  0  0  0  0  0  0  0  0  0  0  0
   -8.0637   18.2001  -32.9086 H   0  0  0  0  0  0  0  0  0  0  0  0
  -10.0125   19.2406  -31.7616 H   0  0  0  0  0  0  0  0  0  0  0  0
   -9.9368   21.6400  -31.0895 H   0  0  0  0  0  0  0  0  0  0  0  0
   -7.9087   23.0036  -31.5562 H   0  0  0  0  0  0  0  0  0  0  0  0
   -5.2820   22.2700  -33.6950 H   0  0  0  0  0  0  0  0  0  0  0  0
   -6.4191   24.2685  -31.2607 H   0  0  0  0  0  0  0  0  0  0  0  0
   -5.1710   25.3279  -29.3851 H   0  0  0  0  0  0  0  0  0  0  0  0
   -4.3036   24.2296  -26.9212 H   0  0  0  0  0  0  0  0  0  0  0  0
   -3.0498   25.2841  -25.0441 H   0  0  0  0  0  0  0  0  0  0  0  0
   -0.7822   26.2507  -25.4365 H   0  0  0  0  0  0  0  0  0  0  0  0
    0.2349   26.1611  -27.7148 H   0  0  0  0  0  0  0  0  0  0  0  0
   -1.0082   25.1032  -29.6003 H   0  0  0  0  0  0  0  0  0  0  0  0
   -1.9767   22.4449  -29.8838 H   0  0  0  0  0  0  0  0  0  0  0  0
   -3.2295   21.3819  -31.7539 H   0  0  0  0  0  0  0  0  0  0  0  0
  1  2  1  0
  2  3  2  0
  2  4  1  0
  4  5  2  0
  5  6  1  0
  6  7  2  0
  7  8  1  0
  8  9  2  0
  9 10  1  0
 10 11  1  0
 11 12  2  0
 12 13  1  0
 13 14  2  0
 14 15  1  0
 15 16  2  0
 16 17  1  0
 17 18  2  0
 18 19  1  0
 19 20  2  0
 14 21  1  0
 21 22  2  0
  9  4  1  0
 22 11  1  0
 20 15  1  0
  1 23  1  0
  1 24  1  0
  5 25  1  0
  6 26  1  0
  7 27  1  0
  8 28  1  0
 10 29  1  0
 12 30  1  0
 13 31  1  0
 16 32  1  0
 17 33  1  0
 18 34  1  0
 19 35  1  0
 20 36  1  0
 21 37  1  0
 22 38  1  0
M  END
>  <UniqueID>  (12) 
11

>  <SMILES>  (12) 
NC(=O)c1ccccc1Nc1ccc(-c2ccccc2)cc1

>  <Energy>  (12) 
55.154891725022104

>  <Genealogy>  (12) 
NC(=O)c1ccccc1Nc1ccc(-c2ccccc2)cc1 (3D coordinates assigned)
NC(=O)c1ccccc1Nc1ccc(-c2ccccc2)cc1 (optimized conformer: 55.154891725022104 kcal/mol)

>  <smiles>  (12) 
NC(=O)c1ccccc1Nc1ccc(-c2ccccc2)cc1

>  <score_type>  (12) 
oracle

>  <origin>  (12) 
adgpu

>  <m_score__min__energy>  (12) 
-8.4000000000000004

>  <m_primary>  (12) 
energy

$$$$
12:0
     RDKit          3D

 48 50  0  0  1  0  0  0  0  0999 V2000
   -6.4760   25.8220  -28.7810 C   0  0  0  0  0  0  0  0  0  0  0  0
   -5.4120   24.9040  -29.0440 N   0  0  0  0  0  0  0  0  0  0  0  0
   -5.2920   24.4230  -30.6950 S   0  0  0  0  0  0  0  0  0  0  0  0
   -5.5020   25.6030  -31.5930 O   0  0  0  0  0  0  0  0  0  0  0  0
   -3.8880   23.9310  -30.9060 O   0  0  0  0  0  0  0  0  0  0  0  0
   -6.4000   23.1200  -31.0630 C   0  0  0  0  0  0  0  0  0  0  0  0
   -7.4830   22.9130  -30.2060 C   0  0  0  0  0  0  0  0  0  0  0  0
   -8.3840   21.9060  -30.4440 C   0  0  0  0  0  0  0  0  0  0  0  0
   -8.2000   21.1000  -31.5490 C   0  0  0  0  0  0  0  0  0  0  0  0
   -7.1200   21.3070  -32.4030 C   0  0  0  0  0  0  0  0  0  0  0  0
   -7.0200   20.4220  -33.5120 N   0  0  0  0  0  0  0  0  0  0  0  0
   -5.9560   19.7020  -33.6900 C   0  0  0  0  0  0  0  0  0  0  0  0
   -4.9400   19.8300  -32.7700 C   0  0  0  0  0  0  0  0  0  0  0  0
   -3.7580   19.0780  -32.9050 C   0  0  0  0  0  0  0  0  0  0  0  0
   -2.7310   19.2200  -31.9590 N   0  0  0  0  0  0  0  0  0  0  0  0
   -2.4080   20.3610  -31.2030 C   0  0  0  0  0  0  0  0  0  0  0  0
   -1.5050   21.3310  -31.5620 C   0  0  0  0  0  0  0  0  0  0  0  0
   -1.2230   22.4390  -30.7750 C   0  0  0  0  0  0  0  0  0  0  0  0
   -1.8690   22.5910  -29.5730 C   0  0  0  0  0  0  0  0  0  0  0  0
   -1.4880   24.0000  -28.6100 S   0  0  0  0  0  0  0  0  0  0  0  0
   -1.6500   23.6960  -26.8770 C   0  0  0  0  0  0  0  0  0  0  0  0
   -0.0390   24.3400  -28.8950 O   0  0  0  0  0  0  0  0  0  0  0  0
   -2.3580   25.1240  -29.0310 O   0  0  0  0  0  0  0  0  0  0  0  0
   -2.7730   21.6530  -29.1770 C   0  0  0  0  0  0  0  0  0  0  0  0
   -3.0420   20.5590  -29.9680 C   0  0  0  0  0  0  0  0  0  0  0  0
   -3.7370   18.2680  -33.9740 N   0  0  0  0  0  0  0  0  0  0  0  0
   -4.7350   18.1510  -34.8650 C   0  0  0  0  0  0  0  0  0  0  0  0
   -5.8620   18.8660  -34.7390 N   0  0  0  0  0  0  0  0  0  0  0  0
   -6.2120   22.3180  -32.1650 C   0  0  0  0  0  0  0  0  0  0  0  0
   -6.6044   25.9328  -27.6942 H   0  0  0  0  0  0  0  0  0  0  0  0
   -6.2344   26.7998  -29.2232 H   0  0  0  0  0  0  0  0  0  0  0  0
   -7.4078   25.4397  -29.2232 H   0  0  0  0  0  0  0  0  0  0  0  0
   -4.4990   25.1400  -28.6460 H   0  0  0  0  0  0  0  0  0  0  0  0
   -7.6153   23.5649  -29.3299 H   0  0  0  0  0  0  0  0  0  0  0  0
   -9.2361   21.7443  -29.7674 H   0  0  0  0  0  0  0  0  0  0  0  0
   -8.9121   20.2877  -31.7567 H   0  0  0  0  0  0  0  0  0  0  0  0
   -5.0526   20.5242  -31.9242 H   0  0  0  0  0  0  0  0  0  0  0  0
   -2.1250   18.3620  -31.7930 H   0  0  0  0  0  0  0  0  0  0  0  0
   -0.9784   21.2246  -32.5219 H   0  0  0  0  0  0  0  0  0  0  0  0
   -0.4899   23.1872  -31.1107 H   0  0  0  0  0  0  0  0  0  0  0  0
   -1.2052   24.5306  -26.3152 H   0  0  0  0  0  0  0  0  0  0  0  0
   -2.7154   23.6065  -26.6185 H   0  0  0  0  0  0  0  0  0  0  0  0
   -1.1302   22.7617  -26.6185 H   0  0  0  0  0  0  0  0  0  0  0  0
   -3.2937   21.7706  -28.2152 H   0  0  0  0  0  0  0  0  0  0  0  0
   -3.7766   19.8176  -29.6208 H   0  0  0  0  0  0  0  0  0  0  0  0
   -4.6260   17.4574  -35.7118 H   0  0  0  0  0  0  0  0  0  0  0  0
   -6.6610   18.7940  -35.4240 H   0  0  0  0  0  0  0  0  0  0  0  0
   -5.3584   22.4790  -32.8399 H   0  0  0  0  0  0  0  0  0  0  0  0
  1  2  1  0
  2  3  1  0
  3  4  2  0
  3  5  2  0
  3  6  1  0
  6  7  2  0
  7  8  1  0
  8  9  2  0
  9 10  1  0
 10 11  1  0
 11 12  2  0
 12 13  1  0
 13 14  2  0
 14 15  1  0
 15 16  1  0
 16 17  2  0
 17 18  1  0
 18 19  2  0
 19 20  1  0
 20 21  1  0
 20 22  2  0
 20 23  2  0
 19 24  1  0
 24 25  2  0
 14 26  1  0
 26 27  2  0
 27 28  1  0
 10 29  2  0
 29  6  1  0
 28 12  1  0
 25 16  1  0
  1 30  1  0
  1 31  1  0
  1 32  1  0
  2 33  1  0
  7 34  1  0
  8 35  1  0
  9 36  1  0
 13 37  1  0
 15 38  1  0
 17 39  1  0
 18 40  1  0
 21 41  1  0
 21 42  1  0
 21 43  1  0
 24 44  1  0
 25 45  1  0
 27 46  1  0
 28 47  1  0
 29 48  1  0
M  END
>  <smiles>  (13) 
CNS(=O)(=O)c1cccc(N=c2cc(Nc3ccc(S(C)(=O)=O)cc3)nc[nH]2)c1

>  <score_type>  (13) 
oracle

>  <origin>  (13) 
adgpu

>  <m_score__min__energy>  (13) 
-10.119999999999999

>  <m_primary>  (13) 
energy

$$$$
13:0
     RDKit          3D

 39 41  0  0  0  0  0  0  0  0999 V2000
   -2.9470   25.2890  -30.4830 H   0  0  0  0  0  0  0  0  0  0  0  0
   -3.8850   25.6090  -30.8150 N   0  0  0  0  0  0  0  0  0  0  0  0
   -5.0550   24.5310  -30.1410 S   0  0  0  0  0  0  0  0  0  0  0  0
   -4.5360   23.9730  -28.8470 O   0  0  0  0  0  0  0  0  0  0  0  0
   -6.3230   25.2970  -29.8820 O   0  0  0  0  0  0  0  0  0  0  0  0
   -5.3710   23.2110  -31.2630 C   0  0  0  0  0  0  0  0  0  0  0  0
   -4.3100   22.6040  -31.9490 C   0  0  0  0  0  0  0  0  0  0  0  0
   -3.2805   22.9580  -31.7912 H   0  0  0  0  0  0  0  0  0  0  0  0
   -4.5570   21.5500  -32.8330 C   0  0  0  0  0  0  0  0  0  0  0  0
   -3.7192   21.0669  -33.3571 H   0  0  0  0  0  0  0  0  0  0  0  0
   -5.8710   21.1050  -33.0550 C   0  0  0  0  0  0  0  0  0  0  0  0
   -6.1440   19.9870  -33.9140 N   0  0  0  0  0  0  0  0  0  0  0  0
   -5.9170   18.7230  -33.6750 C   0  0  0  0  0  0  0  0  0  0  0  0
   -5.2140   18.2820  -32.5390 C   0  0  0  0  0  0  0  0  0  0  0  0
   -4.8366   19.0081  -31.8039 H   0  0  0  0  0  0  0  0  0  0  0  0
   -5.0000   16.9190  -32.3530 C   0  0  0  0  0  0  0  0  0  0  0  0
   -4.4509   16.5585  -31.4707 H   0  0  0  0  0  0  0  0  0  0  0  0
   -5.4890   16.0140  -33.2970 C   0  0  0  0  0  0  0  0  0  0  0  0
   -5.2660   14.5580  -33.1570 C   0  0  0  0  0  0  0  0  0  0  0  0
   -4.1700   14.1240  -32.3920 C   0  0  0  0  0  0  0  0  0  0  0  0
   -3.4962   14.8648  -31.9369 H   0  0  0  0  0  0  0  0  0  0  0  0
   -3.9280   12.7630  -32.2040 C   0  0  0  0  0  0  0  0  0  0  0  0
   -3.0682   12.4362  -31.6008 H   0  0  0  0  0  0  0  0  0  0  0  0
   -4.7750   11.8160  -32.7800 C   0  0  0  0  0  0  0  0  0  0  0  0
   -4.5908   10.7436  -32.6186 H   0  0  0  0  0  0  0  0  0  0  0  0
   -5.8560   12.2280  -33.5610 C   0  0  0  0  0  0  0  0  0  0  0  0
   -6.5205   11.4758  -34.0112 H   0  0  0  0  0  0  0  0  0  0  0  0
   -6.1040   13.5940  -33.7780 C   0  0  0  0  0  0  0  0  0  0  0  0
   -7.2590   13.9860  -34.6630 C   0  0  0  0  0  0  0  0  0  0  0  0
   -8.1168   14.2771  -34.0389 H   0  0  0  0  0  0  0  0  0  0  0  0
   -6.9630   14.8340  -35.2980 H   0  0  0  0  0  0  0  0  0  0  0  0
   -7.5403   13.1330  -35.2980 H   0  0  0  0  0  0  0  0  0  0  0  0
   -6.1290   16.4910  -34.3970 N   0  0  0  0  0  0  0  0  0  0  0  0
   -6.3350   17.7960  -34.5830 N   0  0  0  0  0  0  0  0  0  0  0  0
   -6.8380   18.1040  -35.4450 H   0  0  0  0  0  0  0  0  0  0  0  0
   -6.9230   21.6850  -32.3350 C   0  0  0  0  0  0  0  0  0  0  0  0
   -7.9484   21.3089  -32.4660 H   0  0  0  0  0  0  0  0  0  0  0  0
   -6.6770   22.7390  -31.4510 C   0  0  0  0  0  0  0  0  0  0  0  0
   -7.5110   23.1995  -30.9011 H   0  0  0  0  0  0  0  0  0  0  0  0
  1  2  1  0
  2  3  1  0
  3  4  2  0
  3  5  2  0
  3  6  1  0
  6  7  2  0
  7  8  1  0
  7  9  1  0
  9 10  1  0
  9 11  2  0
 11 12  1  0
 12 13  2  0
 13 14  1  0
 14 15  1  0
 14 16  2  0
 16 17  1  0
 16 18  1  0
 18 19  1  0
 19 20  2  0
 20 21  1  0
 20 22  1  0
 22 23  1  0
 22 24  2  0
 24 25  1  0
 24 26  1  0
 26 27  1  0
 26 28  2  0
 28 29  1  0
 29 30  1  0
 29 31  1  0
 29 32  1  0
 18 33  2  0
 33 34  1  0
 34 35  1  0
 11 36  1  0
 36 37  1  0
 36 38  2  0
 38 39  1  0
 38  6  1  0
 34 13  1  0
 28 19  1  0
M  CHG  1   2  -1
M  END
>  <UniqueID>  (14) 
12

>  <SMILES>  (14) 
Cc1ccccc1-c1cc/c(=N\c2ccc(S([NH-])(=O)=O)cc2)[nH]n1

>  <Energy>  (14) 
58.43076179483328

>  <Genealogy>  (14) 
Cc1ccccc1-c1ccc(=Nc2ccc(S([NH-])(=O)=O)cc2)[nH]n1 (protonated)
Cc1ccccc1-c1cc/c(=N\c2ccc(S([NH-])(=O)=O)cc2)[nH]n1 (cis-trans isomerization)
Cc1ccccc1-c1cc/c(=N\c2ccc(S([NH-])(=O)=O)cc2)[nH]n1 (3D coordinates assigned)
Cc1ccccc1-c1cc/c(=N\c2ccc(S([NH-])(=O)=O)cc2)[nH]n1 (optimized conformer: 58.43076179483328 kcal/mol)

>  <smiles>  (14) 
Cc1ccccc1-c1ccc(=Nc2ccc(S(N)(=O)=O)cc2)[nH]n1

>  <score_type>  (14) 
oracle

>  <origin>  (14) 
adgpu

>  <m_score__min__energy>  (14) 
-10.390000000000001

>  <m_primary>  (14) 
energy

$$$$
14:0
     RDKit          3D

 20 21  0  0  0  0  0  0  0  0999 V2000
   -5.0520   25.9220  -29.0170 H   0  0  0  0  0  0  0  0  0  0  0  0
   -5.8000   25.3140  -29.4180 N   0  0  0  0  0  0  0  0  0  0  0  0
   -5.5720   24.1800  -30.0120 C   0  0  0  0  0  0  0  0  0  0  0  0
   -4.2650   23.6680  -30.1620 C   0  0  0  0  0  0  0  0  0  0  0  0
   -3.1020   24.3660  -29.6770 C   0  0  0  0  0  0  0  0  0  0  0  0
   -2.1670   24.9270  -29.2860 N   0  0  0  0  0  0  0  0  0  0  0  0
   -4.0910   22.4760  -30.7870 N   0  0  0  0  0  0  0  0  0  0  0  0
   -5.1400   21.7630  -31.2690 C   0  0  0  0  0  0  0  0  0  0  0  0
   -4.9690   20.7978  -31.7682 H   0  0  0  0  0  0  0  0  0  0  0  0
   -6.4440   22.2620  -31.1280 C   0  0  0  0  0  0  0  0  0  0  0  0
   -7.6060   21.5020  -31.6540 C   0  0  0  0  0  0  0  0  0  0  0  0
   -7.4990   20.2560  -32.2730 C   0  0  0  0  0  0  0  0  0  0  0  0
   -6.5654   19.7002  -32.4447 H   0  0  0  0  0  0  0  0  0  0  0  0
   -9.0390   19.7500  -32.7110 S   0  0  0  0  0  0  0  0  0  0  0  0
   -9.8620   21.0930  -32.1320 C   0  0  0  0  0  0  0  0  0  0  0  0
  -10.9489   21.2547  -32.1816 H   0  0  0  0  0  0  0  0  0  0  0  0
   -8.9340   21.9640  -31.5800 C   0  0  0  0  0  0  0  0  0  0  0  0
   -9.2103   22.9272  -31.1262 H   0  0  0  0  0  0  0  0  0  0  0  0
   -6.6230   23.4620  -30.5000 N   0  0  0  0  0  0  0  0  0  0  0  0
   -7.5890   23.8380  -30.3630 H   0  0  0  0  0  0  0  0  0  0  0  0
  1  2  1  0
  2  3  2  0
  3  4  1  0
  4  5  1  0
  5  6  3  0
  4  7  2  0
  7  8  1  0
  8  9  1  0
  8 10  2  0
 10 11  1  0
 11 12  2  0
 12 13  1  0
 12 14  1  0
 14 15  1  0
 15 16  1  0
 15 17  2  0
 17 18  1  0
 10 19  1  0
 19 20  1  0
 19  3  1  0
 17 11  1  0
M  END
>  <UniqueID>  (15) 
13

>  <SMILES>  (15) 
[H]/N=c1/[nH]c(-c2ccsc2)cnc1C#N

>  <Energy>  (15) 
52.46139564124438

>  <Genealogy>  (15) 
[H]/N=c1/[nH]c(-c2ccsc2)cnc1C#N (cis-trans isomerization)
[H]/N=c1/[nH]c(-c2ccsc2)cnc1C#N (3D coordinates assigned)
[H]/N=c1/[nH]c(-c2ccsc2)cnc1C#N (optimized conformer: 52.46139564124438 kcal/mol)

>  <smiles>  (15) 
N#Cc1ncc(-c2ccsc2)[nH]c1=N

>  <score_type>  (15) 
oracle

>  <origin>  (15) 
adgpu

>  <m_score__min__energy>  (15) 
-5.5899999999999999

>  <m_primary>  (15) 
energy

$$$$
15:0
     RDKit          3D

 57 59  0  0  0  0  0  0  0  0999 V2000
   -4.1660   15.6670  -32.9870 C   0  0  0  0  0  0  0  0  0  0  0  0
   -3.5640   16.0830  -34.3260 C   0  0  0  0  0  0  0  0  0  0  0  0
   -2.9240   17.3990  -34.2400 N   0  0  0  0  0  0  0  0  0  0  0  0
   -3.6590   18.5180  -33.7180 C   0  0  0  0  0  0  0  0  0  0  0  0
   -3.0270   19.4710  -32.9090 C   0  0  0  0  0  0  0  0  0  0  0  0
   -3.7460   20.5600  -32.4080 C   0  0  0  0  0  0  0  0  0  0  0  0
   -5.1110   20.7160  -32.7080 C   0  0  0  0  0  0  0  0  0  0  0  0
   -5.8740   21.8720  -32.1720 C   0  0  0  0  0  0  0  0  0  0  0  0
   -7.2780   21.8670  -32.1810 C   0  0  0  0  0  0  0  0  0  0  0  0
   -7.9760   22.9570  -31.6600 C   0  0  0  0  0  0  0  0  0  0  0  0
   -7.3010   24.0180  -31.1480 N   0  0  0  0  0  0  0  0  0  0  0  0
   -5.9410   24.0650  -31.1230 C   0  0  0  0  0  0  0  0  0  0  0  0
   -5.2700   25.2480  -30.5490 C   0  0  0  0  0  0  0  0  0  0  0  0
   -5.9620   26.2170  -30.1370 O   0  0  0  0  0  0  0  0  0  0  0  0
   -3.8420   25.3000  -30.4560 N   0  0  0  0  0  0  0  0  0  0  0  0
   -3.0890   24.5510  -29.4620 C   0  0  0  0  0  0  0  0  0  0  0  0
   -5.2040   22.9860  -31.6390 C   0  0  0  0  0  0  0  0  0  0  0  0
   -5.7410   19.7560  -33.5190 C   0  0  0  0  0  0  0  0  0  0  0  0
   -5.0210   18.6680  -34.0190 C   0  0  0  0  0  0  0  0  0  0  0  0
   -1.1950   17.5220  -34.4060 S   0  0  0  0  0  0  0  0  0  0  0  0
   -0.6750   16.3310  -35.1620 O   0  0  0  0  0  0  0  0  0  0  0  0
   -0.8760   18.7410  -35.2230 O   0  0  0  0  0  0  0  0  0  0  0  0
   -0.4310   17.5450  -32.7870 C   0  0  0  0  0  0  0  0  0  0  0  0
   -0.3280   16.3700  -31.9850 C   0  0  0  0  0  0  0  0  0  0  0  0
   -0.8580   15.0290  -32.4260 C   0  0  0  0  0  0  0  0  0  0  0  0
    0.2700   16.4440  -30.7150 C   0  0  0  0  0  0  0  0  0  0  0  0
    0.7960   17.6430  -30.2340 C   0  0  0  0  0  0  0  0  0  0  0  0
    1.3970   17.7070  -28.8590 C   0  0  0  0  0  0  0  0  0  0  0  0
    0.7030   18.7950  -31.0150 C   0  0  0  0  0  0  0  0  0  0  0  0
    0.1190   18.7600  -32.2900 C   0  0  0  0  0  0  0  0  0  0  0  0
    0.0750   20.0460  -33.0770 C   0  0  0  0  0  0  0  0  0  0  0  0
   -3.5620   16.0844  -32.1679 H   0  0  0  0  0  0  0  0  0  0  0  0
   -5.1956   16.0472  -32.9139 H   0  0  0  0  0  0  0  0  0  0  0  0
   -4.1744   14.5695  -32.9139 H   0  0  0  0  0  0  0  0  0  0  0  0
   -2.8121   15.3386  -34.6269 H   0  0  0  0  0  0  0  0  0  0  0  0
   -4.3751   16.1407  -35.0668 H   0  0  0  0  0  0  0  0  0  0  0  0
   -1.9596   19.3619  -32.6668 H   0  0  0  0  0  0  0  0  0  0  0  0
   -3.2394   21.3018  -31.7732 H   0  0  0  0  0  0  0  0  0  0  0  0
   -7.8250   21.0080  -32.5968 H   0  0  0  0  0  0  0  0  0  0  0  0
   -9.0760   22.9568  -31.6641 H   0  0  0  0  0  0  0  0  0  0  0  0
   -3.4016   24.8620  -28.4543 H   0  0  0  0  0  0  0  0  0  0  0  0
   -3.2814   23.4755  -29.5900 H   0  0  0  0  0  0  0  0  0  0  0  0
   -2.0146   24.7491  -29.5900 H   0  0  0  0  0  0  0  0  0  0  0  0
   -4.1044   23.0133  -31.6257 H   0  0  0  0  0  0  0  0  0  0  0  0
   -6.8086   19.8622  -33.7617 H   0  0  0  0  0  0  0  0  0  0  0  0
   -5.5255   17.9240  -34.6530 H   0  0  0  0  0  0  0  0  0  0  0  0
   -1.0984   14.4208  -31.5415 H   0  0  0  0  0  0  0  0  0  0  0  0
   -1.7664   15.1741  -33.0291 H   0  0  0  0  0  0  0  0  0  0  0  0
   -0.0959   14.5138  -33.0291 H   0  0  0  0  0  0  0  0  0  0  0  0
    0.3241   15.5407  -30.0896 H   0  0  0  0  0  0  0  0  0  0  0  0
    0.5996   17.6221  -28.1060 H   0  0  0  0  0  0  0  0  0  0  0  0
    2.1109   16.8798  -28.7320 H   0  0  0  0  0  0  0  0  0  0  0  0
    1.9207   18.6660  -28.7320 H   0  0  0  0  0  0  0  0  0  0  0  0
    1.0939   19.7463  -30.6248 H   0  0  0  0  0  0  0  0  0  0  0  0
    0.0458   20.8994  -32.3836 H   0  0  0  0  0  0  0  0  0  0  0  0
    0.9712   20.1189  -33.7107 H   0  0  0  0  0  0  0  0  0  0  0  0
   -0.8241   20.0575  -33.7107 H   0  0  0  0  0  0  0  0  0  0  0  0
  1  2  1  0
  2  3  1  0
  3  4  1  0
  4  5  2  0
  5  6  1  0
  6  7  2  0
  7  8  1  0
  8  9  2  0
  9 10  1  0
 10 11  2  0
 11 12  1  0
 12 13  1  0
 13 14  2  0
 13 15  1  0
 15 16  1  0
 12 17  2  0
  7 18  1  0
 18 19  2  0
  3 20  1  0
 20 21  2  0
 20 22  2  0
 20 23  1  0
 23 24  2  0
 24 25  1  0
 24 26  1  0
 26 27  2  0
 27 28  1  0
 27 29  1  0
 29 30  2  0
 30 31  1  0
 19  4  1  0
 30 23  1  0
 17  8  1  0
  1 32  1  0
  1 33  1  0
  1 34  1  0
  2 35  1  0
  2 36  1  0
  5 37  1  0
  6 38  1  0
  9 39  1  0
 10 40  1  0
 16 41  1  0
 16 42  1  0
 16 43  1  0
 17 44  1  0
 18 45  1  0
 19 46  1  0
 25 47  1  0
 25 48  1  0
 25 49  1  0
 26 50  1  0
 28 51  1  0
 28 52  1  0
 28 53  1  0
 29 54  1  0
 31 55  1  0
 31 56  1  0
 31 57  1  0
M  CHG  1  15  -1
M  END
>  <UniqueID>  (16) 
14

>  <SMILES>  (16) 
CCN(c1ccc(-c2ccnc(C(=O)[N-]C)c2)cc1)S(=O)(=O)c1c(C)cc(C)cc1C

>  <Energy>  (16) 
70.1158476780044

>  <Genealogy>  (16) 
CCN(c1ccc(-c2ccnc(C(=O)[N-]C)c2)cc1)S(=O)(=O)c1c(C)cc(C)cc1C (protonated)
CCN(c1ccc(-c2ccnc(C(=O)[N-]C)c2)cc1)S(=O)(=O)c1c(C)cc(C)cc1C (3D coordinates assigned)
CCN(c1ccc(-c2ccnc(C(=O)[N-]C)c2)cc1)S(=O)(=O)c1c(C)cc(C)cc1C (optimized conformer: 70.1158476780044 kcal/mol)

>  <smiles>  (16) 
CCN(c1ccc(-c2ccnc(C(=O)NC)c2)cc1)S(=O)(=O)c1c(C)cc(C)cc1C

>  <score_type>  (16) 
oracle

>  <origin>  (16) 
adgpu

>  <m_score__min__energy>  (16) 
-9.5999999999999996

>  <m_primary>  (16) 
energy

$$$$
16:0
     RDKit          3D

 38 39  0  0  1  0  0  0  0  0999 V2000
   -5.9490   25.4740  -30.1040 C   0  0  0  0  0  0  0  0  0  0  0  0
   -4.7750   25.2750  -30.8520 O   0  0  0  0  0  0  0  0  0  0  0  0
   -4.1090   24.0640  -30.7340 C   0  0  0  0  0  0  0  0  0  0  0  0
   -4.5930   22.9190  -31.3610 C   0  0  0  0  0  0  0  0  0  0  0  0
   -3.9570   21.6980  -31.2660 C   0  0  0  0  0  0  0  0  0  0  0  0
   -4.4680   20.4990  -31.9240 C   0  0  0  0  0  0  0  0  0  0  0  0
   -5.7610   20.0630  -31.7250 C   0  0  0  0  0  0  0  0  0  0  0  0
   -6.2580   18.9130  -32.3530 C   0  0  0  0  0  0  0  0  0  0  0  0
   -7.4750   18.5350  -32.1420 N   0  0  0  0  0  0  0  0  0  0  0  0
   -8.3800   19.2410  -31.2770 C   0  0  0  0  0  0  0  0  0  0  0  0
   -9.4460   19.9960  -32.0550 C   0  0  0  0  0  0  0  0  0  0  0  0
   -9.4930   19.5890  -33.4370 N   0  0  0  0  0  0  0  0  0  0  0  0
   -5.4370   18.2090  -33.1830 N   0  0  0  0  0  0  0  0  0  0  0  0
   -4.1770   18.6420  -33.3710 C   0  0  0  0  0  0  0  0  0  0  0  0
   -3.2970   17.8610  -34.2790 C   0  0  0  0  0  0  0  0  0  0  0  0
   -3.7050   19.7630  -32.7530 N   0  0  0  0  0  0  0  0  0  0  0  0
   -2.8000   21.6670  -30.5070 C   0  0  0  0  0  0  0  0  0  0  0  0
   -2.3110   22.8160  -29.8760 C   0  0  0  0  0  0  0  0  0  0  0  0
   -2.9590   24.0260  -29.9830 C   0  0  0  0  0  0  0  0  0  0  0  0
   -2.5090   25.1860  -29.3740 O   0  0  0  0  0  0  0  0  0  0  0  0
   -5.7112   25.4337  -29.0308 H   0  0  0  0  0  0  0  0  0  0  0  0
   -6.3770   26.4575  -30.3481 H   0  0  0  0  0  0  0  0  0  0  0  0
   -6.6772   24.6865  -30.3481 H   0  0  0  0  0  0  0  0  0  0  0  0
   -5.5166   22.9903  -31.9541 H   0  0  0  0  0  0  0  0  0  0  0  0
   -6.4206   20.6337  -31.0547 H   0  0  0  0  0  0  0  0  0  0  0  0
   -8.8730   18.5162  -30.6125 H   0  0  0  0  0  0  0  0  0  0  0  0
   -7.7956   19.9760  -30.7041 H   0  0  0  0  0  0  0  0  0  0  0  0
  -10.4260   19.8032  -31.5941 H   0  0  0  0  0  0  0  0  0  0  0  0
   -9.1964   21.0668  -32.0235 H   0  0  0  0  0  0  0  0  0  0  0  0
   -9.1320   18.6020  -33.5610 H   0  0  0  0  0  0  0  0  0  0  0  0
   -8.9020   20.2210  -34.0240 H   0  0  0  0  0  0  0  0  0  0  0  0
   -2.6060   17.2477  -33.6820 H   0  0  0  0  0  0  0  0  0  0  0  0
   -3.9130   17.2069  -34.9135 H   0  0  0  0  0  0  0  0  0  0  0  0
   -2.7207   18.5504  -34.9135 H   0  0  0  0  0  0  0  0  0  0  0  0
   -2.7230   20.0030  -32.9700 H   0  0  0  0  0  0  0  0  0  0  0  0
   -2.2533   20.7188  -30.3976 H   0  0  0  0  0  0  0  0  0  0  0  0
   -1.3881   22.7511  -29.2810 H   0  0  0  0  0  0  0  0  0  0  0  0
   -3.0560   26.0430  -29.3370 H   0  0  0  0  0  0  0  0  0  0  0  0
  1  2  1  0
  2  3  1  0
  3  4  2  0
  4  5  1  0
  5  6  1  0
  6  7  2  0
  7  8  1  0
  8  9  2  0
  9 10  1  0
 10 11  1  0
 11 12  1  0
  8 13  1  0
 13 14  2  0
 14 15  1  0
 14 16  1  0
  5 17  2  0
 17 18  1  0
 18 19  2  0
 19 20  1  0
 19  3  1  0
 16  6  1  0
  1 21  1  0
  1 22  1  0
  1 23  1  0
  4 24  1  0
  7 25  1  0
 10 26  1  0
 10 27  1  0
 11 28  1  0
 11 29  1  0
 12 30  1  0
 12 31  1  0
 15 32  1  0
 15 33  1  0
 15 34  1  0
 16 35  1  0
 17 36  1  0
 18 37  1  0
 20 38  1  0
M  END
>  <smiles>  (17) 
COc1cc(-c2cc(=NCCN)nc(C)[nH]2)ccc1O

>  <score_type>  (17) 
oracle

>  <origin>  (17) 
adgpu

>  <m_score__min__energy>  (17) 
-7.4400000000000004

>  <m_primary>  (17) 
energy

$$$$
17:0
     RDKit          3D

 44 46  0  0  0  0  0  0  0  0999 V2000
   -0.9270   25.7490  -28.1040 C   0  0  0  0  0  0  0  0  0  0  0  0
   -1.8270   25.0100  -27.2160 N   0  0  0  0  0  0  0  0  0  0  0  0
   -2.3770   25.6730  -26.0350 C   0  0  0  0  0  0  0  0  0  0  0  0
   -2.2010   23.6470  -27.4900 C   0  0  0  0  0  0  0  0  0  0  0  0
   -1.3230   22.6490  -27.1900 N   0  0  0  0  0  0  0  0  0  0  0  0
   -1.6100   21.3390  -27.4110 C   0  0  0  0  0  0  0  0  0  0  0  0
   -2.8350   20.9790  -27.9650 C   0  0  0  0  0  0  0  0  0  0  0  0
   -3.7540   21.9720  -28.3020 C   0  0  0  0  0  0  0  0  0  0  0  0
   -3.4460   23.3260  -28.0760 C   0  0  0  0  0  0  0  0  0  0  0  0
   -4.3430   24.3760  -28.4680 N   0  0  0  0  0  0  0  0  0  0  0  0
   -4.9120   24.6610  -30.0800 S   0  0  0  0  0  0  0  0  0  0  0  0
   -3.8800   25.4550  -30.8330 O   0  0  0  0  0  0  0  0  0  0  0  0
   -6.1890   25.4490  -30.0190 O   0  0  0  0  0  0  0  0  0  0  0  0
   -5.2270   23.1270  -30.8830 C   0  0  0  0  0  0  0  0  0  0  0  0
   -4.2040   22.4880  -31.5950 C   0  0  0  0  0  0  0  0  0  0  0  0
   -4.4500   21.2770  -32.2460 C   0  0  0  0  0  0  0  0  0  0  0  0
   -5.7240   20.6820  -32.1930 C   0  0  0  0  0  0  0  0  0  0  0  0
   -5.9880   19.3960  -32.8880 C   0  0  0  0  0  0  0  0  0  0  0  0
   -6.9980   18.5310  -32.4280 C   0  0  0  0  0  0  0  0  0  0  0  0
   -7.2460   17.3210  -33.0830 C   0  0  0  0  0  0  0  0  0  0  0  0
   -6.4920   16.9620  -34.2020 C   0  0  0  0  0  0  0  0  0  0  0  0
   -5.4840   17.8100  -34.6710 C   0  0  0  0  0  0  0  0  0  0  0  0
   -4.7370   17.4370  -35.7860 O   0  0  0  0  0  0  0  0  0  0  0  0
   -5.2340   19.0240  -34.0160 C   0  0  0  0  0  0  0  0  0  0  0  0
   -6.7450   21.3270  -31.4710 C   0  0  0  0  0  0  0  0  0  0  0  0
   -6.4970   22.5390  -30.8200 C   0  0  0  0  0  0  0  0  0  0  0  0
   -0.2157   26.3331  -27.5016 H   0  0  0  0  0  0  0  0  0  0  0  0
   -0.3747   25.0404  -28.7387 H   0  0  0  0  0  0  0  0  0  0  0  0
   -1.5146   26.4286  -28.7387 H   0  0  0  0  0  0  0  0  0  0  0  0
   -1.9800   25.1944  -25.1276 H   0  0  0  0  0  0  0  0  0  0  0  0
   -2.0912   26.7352  -26.0443 H   0  0  0  0  0  0  0  0  0  0  0  0
   -3.4737   25.5883  -26.0443 H   0  0  0  0  0  0  0  0  0  0  0  0
   -0.8742   20.5634  -27.1520 H   0  0  0  0  0  0  0  0  0  0  0  0
   -3.0763   19.9194  -28.1356 H   0  0  0  0  0  0  0  0  0  0  0  0
   -4.7220   21.6961  -28.7456 H   0  0  0  0  0  0  0  0  0  0  0  0
   -3.2030   22.9416  -31.6417 H   0  0  0  0  0  0  0  0  0  0  0  0
   -3.6408   20.7842  -32.8049 H   0  0  0  0  0  0  0  0  0  0  0  0
   -7.5962   18.8085  -31.5476 H   0  0  0  0  0  0  0  0  0  0  0  0
   -8.0369   16.6503  -32.7160 H   0  0  0  0  0  0  0  0  0  0  0  0
   -6.6914   16.0100  -34.7157 H   0  0  0  0  0  0  0  0  0  0  0  0
   -3.7310   17.3190  -35.7340 H   0  0  0  0  0  0  0  0  0  0  0  0
   -4.4419   19.6911  -34.3870 H   0  0  0  0  0  0  0  0  0  0  0  0
   -7.7460   20.8741  -31.4184 H   0  0  0  0  0  0  0  0  0  0  0  0
   -7.3021   23.0329  -30.2561 H   0  0  0  0  0  0  0  0  0  0  0  0
  1  2  1  0
  2  3  1  0
  2  4  1  0
  4  5  2  0
  5  6  1  0
  6  7  2  0
  7  8  1  0
  8  9  2  0
  9 10  1  0
 10 11  1  0
 11 12  2  0
 11 13  2  0
 11 14  1  0
 14 15  2  0
 15 16  1  0
 16 17  2  0
 17 18  1  0
 18 19  2  0
 19 20  1  0
 20 21  2  0
 21 22  1  0
 22 23  1  0
 22 24  2  0
 17 25  1  0
 25 26  2  0
  9  4  1  0
 26 14  1  0
 24 18  1  0
  1 27  1  0
  1 28  1  0
  1 29  1  0
  3 30  1  0
  3 31  1  0
  3 32  1  0
  6 33  1  0
  7 34  1  0
  8 35  1  0
 15 36  1  0
 16 37  1  0
 19 38  1  0
 20 39  1  0
 21 40  1  0
 23 41  1  0
 24 42  1  0
 25 43  1  0
 26 44  1  0
M  CHG  1  10  -1
M  END
>  <UniqueID>  (18) 
15

>  <SMILES>  (18) 
CN(C)c1ncccc1[N-]S(=O)(=O)c1ccc(-c2cccc(O)c2)cc1

>  <Energy>  (18) 
57.46885122640297

>  <Genealogy>  (18) 
CN(C)c1ncccc1[N-]S(=O)(=O)c1ccc(-c2cccc(O)c2)cc1 (protonated)
CN(C)c1ncccc1[N-]S(=O)(=O)c1ccc(-c2cccc(O)c2)cc1 (3D coordinates assigned)
CN(C)c1ncccc1[N-]S(=O)(=O)c1ccc(-c2cccc(O)c2)cc1 (optimized conformer: 57.46885122640297 kcal/mol)

>  <smiles>  (18) 
CN(C)c1ncccc1NS(=O)(=O)c1ccc(-c2cccc(O)c2)cc1

>  <score_type>  (18) 
oracle

>  <origin>  (18) 
adgpu

>  <m_score__min__energy>  (18) 
-9.4499999999999993

>  <m_primary>  (18) 
energy

$$$$
18:0
     RDKit          3D

 44 46  0  0  0  0  0  0  0  0999 V2000
   -4.8970   16.5670  -34.2630 C   0  0  0  0  0  0  0  0  0  0  0  0
   -5.3470   17.8640  -33.6450 C   0  0  0  0  0  0  0  0  0  0  0  0
   -6.6410   17.9620  -33.1090 C   0  0  0  0  0  0  0  0  0  0  0  0
   -7.0960   19.1580  -32.5330 C   0  0  0  0  0  0  0  0  0  0  0  0
   -8.7440   19.2520  -31.8860 S   0  0  0  0  0  0  0  0  0  0  0  0
   -9.8870   19.7060  -33.1060 N   0  0  0  0  0  0  0  0  0  0  0  0
   -8.7940   20.2830  -30.7940 O   0  0  0  0  0  0  0  0  0  0  0  0
   -9.1340   17.9120  -31.3270 O   0  0  0  0  0  0  0  0  0  0  0  0
   -6.2400   20.2780  -32.4940 C   0  0  0  0  0  0  0  0  0  0  0  0
   -6.6560   21.5010  -31.8620 N   0  0  0  0  0  0  0  0  0  0  0  0
   -5.7450   22.4840  -31.3400 C   0  0  0  0  0  0  0  0  0  0  0  0
   -4.5400   22.0670  -30.7530 C   0  0  0  0  0  0  0  0  0  0  0  0
   -3.6480   23.0030  -30.2230 C   0  0  0  0  0  0  0  0  0  0  0  0
   -3.9580   24.3660  -30.2620 C   0  0  0  0  0  0  0  0  0  0  0  0
   -3.0700   25.2970  -29.7360 O   0  0  0  0  0  0  0  0  0  0  0  0
   -5.1640   24.7910  -30.8280 C   0  0  0  0  0  0  0  0  0  0  0  0
   -6.0570   23.8570  -31.3590 C   0  0  0  0  0  0  0  0  0  0  0  0
   -4.9470   20.1780  -33.0310 C   0  0  0  0  0  0  0  0  0  0  0  0
   -4.4900   18.9830  -33.6040 C   0  0  0  0  0  0  0  0  0  0  0  0
   -3.1760   18.9200  -34.1900 N   0  0  0  0  0  0  0  0  0  0  0  0
   -2.0470   19.6730  -33.7130 C   0  0  0  0  0  0  0  0  0  0  0  0
   -1.2640   20.4530  -34.5850 C   0  0  0  0  0  0  0  0  0  0  0  0
   -0.1840   21.1920  -34.0940 C   0  0  0  0  0  0  0  0  0  0  0  0
    0.1170   21.1690  -32.7300 C   0  0  0  0  0  0  0  0  0  0  0  0
   -0.6660   20.4140  -31.8530 C   0  0  0  0  0  0  0  0  0  0  0  0
   -1.7480   19.6740  -32.3410 C   0  0  0  0  0  0  0  0  0  0  0  0
   -4.6479   15.8489  -33.4678 H   0  0  0  0  0  0  0  0  0  0  0  0
   -5.7057   16.1578  -34.8864 H   0  0  0  0  0  0  0  0  0  0  0  0
   -4.0087   16.7466  -34.8864 H   0  0  0  0  0  0  0  0  0  0  0  0
   -7.3082   17.0880  -33.1411 H   0  0  0  0  0  0  0  0  0  0  0  0
   -9.3940   19.6820  -34.0260 H   0  0  0  0  0  0  0  0  0  0  0  0
  -10.1680   20.6950  -32.9200 H   0  0  0  0  0  0  0  0  0  0  0  0
   -7.6810   21.6660  -31.7390 H   0  0  0  0  0  0  0  0  0  0  0  0
   -4.2961   20.9953  -30.7099 H   0  0  0  0  0  0  0  0  0  0  0  0
   -2.7012   22.6674  -29.7748 H   0  0  0  0  0  0  0  0  0  0  0  0
   -5.4100   25.8628  -30.8552 H   0  0  0  0  0  0  0  0  0  0  0  0
   -7.0087   24.1959  -31.7942 H   0  0  0  0  0  0  0  0  0  0  0  0
   -4.2806   21.0527  -33.0017 H   0  0  0  0  0  0  0  0  0  0  0  0
   -3.0400   18.3140  -35.0300 H   0  0  0  0  0  0  0  0  0  0  0  0
   -1.5034   20.4810  -35.6583 H   0  0  0  0  0  0  0  0  0  0  0  0
    0.4294   21.7922  -34.7821 H   0  0  0  0  0  0  0  0  0  0  0  0
    0.9713   21.7459  -32.3460 H   0  0  0  0  0  0  0  0  0  0  0  0
   -0.4314   20.4016  -30.7784 H   0  0  0  0  0  0  0  0  0  0  0  0
   -2.3684   19.0893  -31.6458 H   0  0  0  0  0  0  0  0  0  0  0  0
  1  2  1  0
  2  3  2  0
  3  4  1  0
  4  5  1  0
  5  6  1  0
  5  7  2  0
  5  8  2  0
  4  9  2  0
  9 10  1  0
 10 11  1  0
 11 12  2  0
 12 13  1  0
 13 14  2  0
 14 15  1  0
 14 16  1  0
 16 17  2  0
  9 18  1  0
 18 19  2  0
 19 20  1  0
 20 21  1  0
 21 22  2  0
 22 23  1  0
 23 24  2  0
 24 25  1  0
 25 26  2  0
 19  2  1  0
 26 21  1  0
 17 11  1  0
  1 27  1  0
  1 28  1  0
  1 29  1  0
  3 30  1  0
  6 31  1  0
  6 32  1  0
 10 33  1  0
 12 34  1  0
 13 35  1  0
 16 36  1  0
 17 37  1  0
 18 38  1  0
 20 39  1  0
 22 40  1  0
 23 41  1  0
 24 42  1  0
 25 43  1  0
 26 44  1  0
M  CHG  1  15  -1
M  END
>  <UniqueID>  (19) 
16

>  <SMILES>  (19) 
Cc1cc(S(N)(=O)=O)c(Nc2ccc([O-])cc2)cc1Nc1ccccc1

>  <Energy>  (19) 
58.1086842206616

>  <Genealogy>  (19) 
Cc1cc(S(N)(=O)=O)c(Nc2ccc([O-])cc2)cc1Nc1ccccc1 (protonated)
Cc1cc(S(N)(=O)=O)c(Nc2ccc([O-])cc2)cc1Nc1ccccc1 (3D coordinates assigned)
Cc1cc(S(N)(=O)=O)c(Nc2ccc([O-])cc2)cc1Nc1ccccc1 (optimized conformer: 58.1086842206616 kcal/mol)

>  <smiles>  (19) 
Cc1cc(S(N)(=O)=O)c(Nc2ccc(O)cc2)cc1Nc1ccccc1

>  <score_type>  (19) 
oracle

>  <origin>  (19) 
adgpu

>  <m_score__min__energy>  (19) 
-11.460000000000001

>  <m_primary>  (19) 
energy

$$$$
19:0
     RDKit          3D

 25 26  0  0  0  0  0  0  0  0999 V2000
   -3.1520   25.6430  -30.8160 H   0  0  0  0  0  0  0  0  0  0  0  0
   -4.1520   25.6740  -30.5150 N   0  0  0  0  0  0  0  0  0  0  0  0
   -4.9850   24.7400  -30.8360 C   0  0  0  0  0  0  0  0  0  0  0  0
   -4.5720   23.6820  -31.5850 N   0  0  0  0  0  0  0  0  0  0  0  0
   -5.4350   22.6920  -31.9320 C   0  0  0  0  0  0  0  0  0  0  0  0
   -4.9950   21.6120  -32.7030 C   0  0  0  0  0  0  0  0  0  0  0  0
   -3.9459   21.5648  -33.0304 H   0  0  0  0  0  0  0  0  0  0  0  0
   -5.8890   20.5830  -33.0630 C   0  0  0  0  0  0  0  0  0  0  0  0
   -5.4840   19.4830  -33.8360 O   0  0  0  0  0  0  0  0  0  0  0  0
   -5.5790   18.1240  -33.4180 C   0  0  0  0  0  0  0  0  0  0  0  0
   -5.5822   18.0778  -32.3190 H   0  0  0  0  0  0  0  0  0  0  0  0
   -6.5100   17.6852  -33.8062 H   0  0  0  0  0  0  0  0  0  0  0  0
   -4.7181   17.5599  -33.8062 H   0  0  0  0  0  0  0  0  0  0  0  0
   -7.2290   20.6460  -32.6450 C   0  0  0  0  0  0  0  0  0  0  0  0
   -8.0930   19.6050  -33.0230 O   0  0  0  0  0  0  0  0  0  0  0  0
   -8.9440   18.8960  -32.1280 C   0  0  0  0  0  0  0  0  0  0  0  0
   -8.6623   19.1307  -31.0909 H   0  0  0  0  0  0  0  0  0  0  0  0
   -9.9884   19.1949  -32.3009 H   0  0  0  0  0  0  0  0  0  0  0  0
   -8.8386   17.8148  -32.3009 H   0  0  0  0  0  0  0  0  0  0  0  0
   -7.6700   21.7370  -31.8690 C   0  0  0  0  0  0  0  0  0  0  0  0
   -8.7188   21.7886  -31.5414 H   0  0  0  0  0  0  0  0  0  0  0  0
   -6.7770   22.7550  -31.5140 C   0  0  0  0  0  0  0  0  0  0  0  0
   -7.1780   23.8520  -30.7450 C   0  0  0  0  0  0  0  0  0  0  0  0
   -8.2197   23.9330  -30.4010 H   0  0  0  0  0  0  0  0  0  0  0  0
   -6.2780   24.8170  -30.4240 N   0  0  0  0  0  0  0  0  0  0  0  0
  1  2  1  0
  2  3  2  0
  3  4  1  0
  4  5  2  0
  5  6  1  0
  6  7  1  0
  6  8  2  0
  8  9  1  0
  9 10  1  0
 10 11  1  0
 10 12  1  0
 10 13  1  0
  8 14  1  0
 14 15  1  0
 15 16  1  0
 16 17  1  0
 16 18  1  0
 16 19  1  0
 14 20  2  0
 20 21  1  0
 20 22  1  0
 22 23  2  0
 23 24  1  0
 23 25  1  0
 25  3  1  0
 22  5  1  0
M  CHG  1  25  -1
M  END
>  <UniqueID>  (20) 
17

>  <SMILES>  (20) 
[H]/N=c1\nc2cc(OC)c(OC)cc2c[n-]1

>  <Energy>  (20) 
27.733984960777285

>  <Genealogy>  (20) 
COc1cc2c[n-]c(=N)nc2cc1OC (protonated)
[H]/N=c1\nc2cc(OC)c(OC)cc2c[n-]1 (cis-trans isomerization)
[H]/N=c1\nc2cc(OC)c(OC)cc2c[n-]1 (3D coordinates assigned)
[H]/N=c1\nc2cc(OC)c(OC)cc2c[n-]1 (optimized conformer: 27.733984960777285 kcal/mol)

>  <smiles>  (20) 
COc1cc2c[nH]c(=N)nc2cc1OC

>  <score_type>  (20) 
oracle

>  <origin>  (20) 
adgpu

>  <m_score__min__energy>  (20) 
-7.2199999999999998

>  <m_primary>  (20) 
energy

$$$$
20:0
     RDKit          3D

 37 39  0  0  0  0  0  0  0  0999 V2000
   -6.4630   24.3440  -31.2410 C   0  0  0  0  0  0  0  0  0  0  0  0
   -6.8530   22.9520  -31.6220 C   0  0  0  0  0  0  0  0  0  0  0  0
   -8.0570   22.4590  -31.4450 O   0  0  0  0  0  0  0  0  0  0  0  0
   -8.1230   21.2230  -31.8430 N   0  0  0  0  0  0  0  0  0  0  0  0
   -6.9040   20.8840  -32.3100 C   0  0  0  0  0  0  0  0  0  0  0  0
   -6.6130   19.5610  -32.8970 C   0  0  0  0  0  0  0  0  0  0  0  0
   -6.9480   18.3940  -32.1890 C   0  0  0  0  0  0  0  0  0  0  0  0
   -6.7040   17.1360  -32.7450 C   0  0  0  0  0  0  0  0  0  0  0  0
   -6.1370   17.0310  -34.0190 C   0  0  0  0  0  0  0  0  0  0  0  0
   -5.8230   18.1850  -34.7400 C   0  0  0  0  0  0  0  0  0  0  0  0
   -6.0660   19.4460  -34.1870 C   0  0  0  0  0  0  0  0  0  0  0  0
   -6.0490   21.9740  -32.1820 C   0  0  0  0  0  0  0  0  0  0  0  0
   -4.5980   22.0460  -32.4450 C   0  0  0  0  0  0  0  0  0  0  0  0
   -4.1100   21.4650  -33.4510 O   0  0  0  0  0  0  0  0  0  0  0  0
   -3.7530   22.8030  -31.5680 N   0  0  0  0  0  0  0  0  0  0  0  0
   -3.2290   22.3770  -30.3000 C   0  0  0  0  0  0  0  0  0  0  0  0
   -3.2010   21.0110  -29.9630 C   0  0  0  0  0  0  0  0  0  0  0  0
   -2.7220   20.5940  -28.7220 C   0  0  0  0  0  0  0  0  0  0  0  0
   -2.2790   21.5340  -27.7890 C   0  0  0  0  0  0  0  0  0  0  0  0
   -1.7970   21.1270  -26.5460 O   0  0  0  0  0  0  0  0  0  0  0  0
   -2.3230   22.8950  -28.1000 C   0  0  0  0  0  0  0  0  0  0  0  0
   -2.8020   23.3380  -29.3470 C   0  0  0  0  0  0  0  0  0  0  0  0
   -2.8280   24.8010  -29.6230 C   0  0  0  0  0  0  0  0  0  0  0  0
   -3.6310   25.2950  -30.4580 O   0  0  0  0  0  0  0  0  0  0  0  0
   -1.9540   25.6530  -28.9580 O   0  0  0  0  0  0  0  0  0  0  0  0
   -6.4387   24.4309  -30.1447 H   0  0  0  0  0  0  0  0  0  0  0  0
   -5.4668   24.5704  -31.6490 H   0  0  0  0  0  0  0  0  0  0  0  0
   -7.1965   25.0550  -31.6490 H   0  0  0  0  0  0  0  0  0  0  0  0
   -7.4049   18.4717  -31.1914 H   0  0  0  0  0  0  0  0  0  0  0  0
   -6.9581   16.2270  -32.1801 H   0  0  0  0  0  0  0  0  0  0  0  0
   -5.9384   16.0399  -34.4530 H   0  0  0  0  0  0  0  0  0  0  0  0
   -5.3836   18.1018  -35.7450 H   0  0  0  0  0  0  0  0  0  0  0  0
   -5.8282   20.3520  -34.7637 H   0  0  0  0  0  0  0  0  0  0  0  0
   -3.5608   20.2645  -30.6863 H   0  0  0  0  0  0  0  0  0  0  0  0
   -2.6929   19.5220  -28.4771 H   0  0  0  0  0  0  0  0  0  0  0  0
   -1.5930   21.7950  -25.8120 H   0  0  0  0  0  0  0  0  0  0  0  0
   -1.9782   23.6315  -27.3593 H   0  0  0  0  0  0  0  0  0  0  0  0
  1  2  1  0
  2  3  1  0
  3  4  1  0
  4  5  2  0
  5  6  1  0
  6  7  2  0
  7  8  1  0
  8  9  2  0
  9 10  1  0
 10 11  2  0
  5 12  1  0
 12 13  1  0
 13 14  2  0
 13 15  1  0
 15 16  1  0
 16 17  2  0
 17 18  1  0
 18 19  2  0
 19 20  1  0
 19 21  1  0
 21 22  2  0
 22 23  1  0
 23 24  2  0
 23 25  1  0
 12  2  2  0
 22 16  1  0
 11  6  1  0
  1 26  1  0
  1 27  1  0
  1 28  1  0
  7 29  1  0
  8 30  1  0
  9 31  1  0
 10 32  1  0
 11 33  1  0
 17 34  1  0
 18 35  1  0
 20 36  1  0
 21 37  1  0
M  CHG  2  15  -1  25  -1
M  END
>  <UniqueID>  (21) 
18

>  <SMILES>  (21) 
Cc1onc(-c2ccccc2)c1C(=O)[N-]c1ccc(O)cc1C(=O)[O-]

>  <Energy>  (21) 
81.71991891257238

>  <Genealogy>  (21) 
Cc1onc(-c2ccccc2)c1C(=O)[N-]c1ccc(O)cc1C(=O)[O-] (protonated)
Cc1onc(-c2ccccc2)c1C(=O)[N-]c1ccc(O)cc1C(=O)[O-] (3D coordinates assigned)
Cc1onc(-c2ccccc2)c1C(=O)[N-]c1ccc(O)cc1C(=O)[O-] (optimized conformer: 81.71991891257238 kcal/mol)

>  <smiles>  (21) 
Cc1onc(-c2ccccc2)c1C(=O)Nc1ccc(O)cc1C(=O)O

>  <score_type>  (21) 
oracle

>  <origin>  (21) 
adgpu

>  <m_score__min__energy>  (21) 
-10.85

>  <m_primary>  (21) 
energy

$$$$
21:0
     RDKit          3D

 46 48  0  0  0  0  0  0  0  0999 V2000
    0.9470   16.9380  -37.1700 C   0  0  0  0  0  0  0  0  0  0  0  0
    0.7780   18.3550  -37.1810 O   0  0  0  0  0  0  0  0  0  0  0  0
    0.3620   19.1110  -36.0740 C   0  0  0  0  0  0  0  0  0  0  0  0
   -0.3030   18.5360  -34.9770 C   0  0  0  0  0  0  0  0  0  0  0  0
   -0.7280   19.3330  -33.9130 C   0  0  0  0  0  0  0  0  0  0  0  0
   -0.5120   20.7200  -33.9370 C   0  0  0  0  0  0  0  0  0  0  0  0
   -1.0230   21.5270  -32.8660 N   0  0  0  0  0  0  0  0  0  0  0  0
   -2.3810   21.4160  -32.4000 C   0  0  0  0  0  0  0  0  0  0  0  0
   -3.1440   20.5550  -32.9130 O   0  0  0  0  0  0  0  0  0  0  0  0
   -2.8620   22.2900  -31.3010 C   0  0  0  0  0  0  0  0  0  0  0  0
   -4.0410   22.9450  -31.4710 N   0  0  0  0  0  0  0  0  0  0  0  0
   -4.5330   23.7910  -30.5310 C   0  0  0  0  0  0  0  0  0  0  0  0
   -6.0570   24.6800  -30.8400 S   0  0  0  0  0  0  0  0  0  0  0  0
   -6.4270   23.7990  -32.3990 C   0  0  0  0  0  0  0  0  0  0  0  0
   -7.2520   22.5670  -32.1390 C   0  0  0  0  0  0  0  0  0  0  0  0
   -8.5390   22.6830  -31.5890 C   0  0  0  0  0  0  0  0  0  0  0  0
   -9.2920   21.5380  -31.3090 C   0  0  0  0  0  0  0  0  0  0  0  0
   -8.7630   20.2700  -31.5660 C   0  0  0  0  0  0  0  0  0  0  0  0
   -7.4770   20.1430  -32.1100 C   0  0  0  0  0  0  0  0  0  0  0  0
   -6.7920   18.5450  -32.3780 Cl  0  0  0  0  0  0  0  0  0  0  0  0
   -6.7260   21.2890  -32.4000 C   0  0  0  0  0  0  0  0  0  0  0  0
   -3.8520   23.9940  -29.3770 N   0  0  0  0  0  0  0  0  0  0  0  0
   -2.6770   23.3590  -29.1450 C   0  0  0  0  0  0  0  0  0  0  0  0
   -2.1390   22.4950  -30.1010 C   0  0  0  0  0  0  0  0  0  0  0  0
   -0.5730   21.7630  -29.7630 Cl  0  0  0  0  0  0  0  0  0  0  0  0
    0.1970   21.3040  -35.0080 C   0  0  0  0  0  0  0  0  0  0  0  0
    0.4730   22.6800  -34.9710 O   0  0  0  0  0  0  0  0  0  0  0  0
    1.5040   23.3170  -35.7160 C   0  0  0  0  0  0  0  0  0  0  0  0
    0.6210   20.4880  -36.0760 C   0  0  0  0  0  0  0  0  0  0  0  0
    0.9895   16.5819  -36.1301 H   0  0  0  0  0  0  0  0  0  0  0  0
    0.0991   16.4636  -37.6857 H   0  0  0  0  0  0  0  0  0  0  0  0
    1.8827   16.6763  -37.6857 H   0  0  0  0  0  0  0  0  0  0  0  0
   -0.4894   17.4521  -34.9571 H   0  0  0  0  0  0  0  0  0  0  0  0
   -1.2344   18.8724  -33.0519 H   0  0  0  0  0  0  0  0  0  0  0  0
   -0.3310   22.0340  -32.2700 H   0  0  0  0  0  0  0  0  0  0  0  0
   -6.9845   24.4707  -33.0683 H   0  0  0  0  0  0  0  0  0  0  0  0
   -5.4776   23.4938  -32.8632 H   0  0  0  0  0  0  0  0  0  0  0  0
   -8.9566   23.6784  -31.3775 H   0  0  0  0  0  0  0  0  0  0  0  0
  -10.3026   21.6356  -30.8857 H   0  0  0  0  0  0  0  0  0  0  0  0
   -9.3560   19.3712  -31.3413 H   0  0  0  0  0  0  0  0  0  0  0  0
   -5.7201   21.1891  -32.8339 H   0  0  0  0  0  0  0  0  0  0  0  0
   -2.1438   23.5255  -28.1974 H   0  0  0  0  0  0  0  0  0  0  0  0
    2.2318   23.7667  -35.0245 H   0  0  0  0  0  0  0  0  0  0  0  0
    2.0108   22.5744  -36.3498 H   0  0  0  0  0  0  0  0  0  0  0  0
    1.0666   24.1025  -36.3498 H   0  0  0  0  0  0  0  0  0  0  0  0
    1.1620   20.9377  -36.9216 H   0  0  0  0  0  0  0  0  0  0  0  0
  1  2  1  0
  2  3  1  0
  3  4  2  0
  4  5  1  0
  5  6  2  0
  6  7  1  0
  7  8  1  0
  8  9  2  0
  8 10  1  0
 10 11  2  0
 11 12  1  0
 12 13  1  0
 13 14  1  0
 14 15  1  0
 15 16  2  0
 16 17  1  0
 17 18  2  0
 18 19  1  0
 19 20  1  0
 19 21  2  0
 12 22  2  0
 22 23  1  0
 23 24  2  0
 24 25  1  0
  6 26  1  0
 26 27  1  0
 27 28  1  0
 26 29  2  0
 29  3  1  0
 24 10  1  0
 21 15  1  0
  1 30  1  0
  1 31  1  0
  1 32  1  0
  4 33  1  0
  5 34  1  0
  7 35  1  0
 14 36  1  0
 14 37  1  0
 16 38  1  0
 17 39  1  0
 18 40  1  0
 21 41  1  0
 23 42  1  0
 28 43  1  0
 28 44  1  0
 28 45  1  0
 29 46  1  0
M  END
>  <UniqueID>  (22) 
19

>  <SMILES>  (22) 
COc1ccc(NC(=O)c2nc(SCc3cccc(Cl)c3)ncc2Cl)c(OC)c1

>  <Energy>  (22) 
48.96128771583645

>  <Genealogy>  (22) 
COc1ccc(NC(=O)c2nc(SCc3cccc(Cl)c3)ncc2Cl)c(OC)c1 (3D coordinates assigned)
COc1ccc(NC(=O)c2nc(SCc3cccc(Cl)c3)ncc2Cl)c(OC)c1 (optimized conformer: 48.96128771583645 kcal/mol)

>  <smiles>  (22) 
COc1ccc(NC(=O)c2nc(SCc3cccc(Cl)c3)ncc2Cl)c(OC)c1

>  <score_type>  (22) 
oracle

>  <origin>  (22) 
adgpu

>  <m_score__min__energy>  (22) 
-8.8100000000000005

>  <m_primary>  (22) 
energy

$$$$
22:0
     RDKit          3D

 45 46  0  0  0  0  0  0  0  0999 V2000
   -2.0830   25.1310  -29.3180 N   0  0  0  0  0  0  0  0  0  0  0  0
   -3.5740   24.5490  -29.9710 S   0  0  0  0  0  0  0  0  0  0  0  0
   -4.5410   24.2720  -28.8540 O   0  0  0  0  0  0  0  0  0  0  0  0
   -4.1540   25.6060  -30.8680 O   0  0  0  0  0  0  0  0  0  0  0  0
   -3.2890   23.0670  -30.8790 C   0  0  0  0  0  0  0  0  0  0  0  0
   -2.1600   22.2760  -30.6240 C   0  0  0  0  0  0  0  0  0  0  0  0
   -1.9500   21.0980  -31.3450 C   0  0  0  0  0  0  0  0  0  0  0  0
   -2.8630   20.6970  -32.3350 C   0  0  0  0  0  0  0  0  0  0  0  0
   -2.6810   19.3870  -33.0480 C   0  0  0  0  0  0  0  0  0  0  0  0
   -3.9080   18.5950  -32.9150 N   0  0  0  0  0  0  0  0  0  0  0  0
   -3.9310   17.4800  -33.8670 C   0  0  0  0  0  0  0  0  0  0  0  0
   -5.3060   17.3800  -34.5450 C   0  0  0  0  0  0  0  0  0  0  0  0
   -6.4150   16.9020  -33.5960 C   0  0  0  0  0  0  0  0  0  0  0  0
   -6.6010   17.8540  -32.4870 N   0  0  0  0  0  0  0  0  0  0  0  0
   -7.9990   18.2900  -32.3730 C   0  0  0  0  0  0  0  0  0  0  0  0
   -8.1050   19.7870  -32.1660 C   0  0  0  0  0  0  0  0  0  0  0  0
   -9.0390   20.2760  -31.2340 C   0  0  0  0  0  0  0  0  0  0  0  0
   -9.1180   21.6430  -30.9560 C   0  0  0  0  0  0  0  0  0  0  0  0
   -8.2620   22.5380  -31.5960 C   0  0  0  0  0  0  0  0  0  0  0  0
   -7.3190   22.0690  -32.5120 C   0  0  0  0  0  0  0  0  0  0  0  0
   -7.2250   20.7010  -32.7920 C   0  0  0  0  0  0  0  0  0  0  0  0
   -6.2530   20.2700  -33.6850 O   0  0  0  0  0  0  0  0  0  0  0  0
   -3.9950   21.4880  -32.5830 C   0  0  0  0  0  0  0  0  0  0  0  0
   -4.2030   22.6680  -31.8640 C   0  0  0  0  0  0  0  0  0  0  0  0
   -1.5860   25.6370  -30.0840 H   0  0  0  0  0  0  0  0  0  0  0  0
   -1.4373   22.5838  -29.8539 H   0  0  0  0  0  0  0  0  0  0  0  0
   -1.0641   20.4803  -31.1363 H   0  0  0  0  0  0  0  0  0  0  0  0
   -2.4755   19.5723  -34.1126 H   0  0  0  0  0  0  0  0  0  0  0  0
   -1.8357   18.8386  -32.6066 H   0  0  0  0  0  0  0  0  0  0  0  0
   -4.7220   19.2200  -33.1250 H   0  0  0  0  0  0  0  0  0  0  0  0
   -3.1600   17.6432  -34.6344 H   0  0  0  0  0  0  0  0  0  0  0  0
   -3.7332   16.5442  -33.3238 H   0  0  0  0  0  0  0  0  0  0  0  0
   -5.5792   18.3737  -34.9297 H   0  0  0  0  0  0  0  0  0  0  0  0
   -5.2204   16.6347  -35.3495 H   0  0  0  0  0  0  0  0  0  0  0  0
   -7.3568   16.8139  -34.1574 H   0  0  0  0  0  0  0  0  0  0  0  0
   -6.1254   15.9264  -33.1784 H   0  0  0  0  0  0  0  0  0  0  0  0
   -6.0160   18.7040  -32.6740 H   0  0  0  0  0  0  0  0  0  0  0  0
   -8.5330   18.0192  -33.2957 H   0  0  0  0  0  0  0  0  0  0  0  0
   -8.4431   17.7911  -31.4990 H   0  0  0  0  0  0  0  0  0  0  0  0
   -9.7132   19.5755  -30.7195 H   0  0  0  0  0  0  0  0  0  0  0  0
   -9.8572   22.0138  -30.2306 H   0  0  0  0  0  0  0  0  0  0  0  0
   -8.3297   23.6143  -31.3790 H   0  0  0  0  0  0  0  0  0  0  0  0
   -6.6463   22.7783  -33.0164 H   0  0  0  0  0  0  0  0  0  0  0  0
   -4.7225   21.1776  -33.3474 H   0  0  0  0  0  0  0  0  0  0  0  0
   -5.0883   23.2868  -32.0720 H   0  0  0  0  0  0  0  0  0  0  0  0
  1  2  1  0
  2  3  2  0
  2  4  2  0
  2  5  1  0
  5  6  2  0
  6  7  1  0
  7  8  2  0
  8  9  1  0
  9 10  1  0
 10 11  1  0
 11 12  1  0
 12 13  1  0
 13 14  1  0
 14 15  1  0
 15 16  1  0
 16 17  2  0
 17 18  1  0
 18 19  2  0
 19 20  1  0
 20 21  2  0
 21 22  1  0
  8 23  1  0
 23 24  2  0
 24  5  1  0
 21 16  1  0
  1 25  1  0
  6 26  1  0
  7 27  1  0
  9 28  1  0
  9 29  1  0
 10 30  1  0
 11 31  1  0
 11 32  1  0
 12 33  1  0
 12 34  1  0
 13 35  1  0
 13 36  1  0
 14 37  1  0
 15 38  1  0
 15 39  1  0
 17 40  1  0
 18 41  1  0
 19 42  1  0
 20 43  1  0
 23 44  1  0
 24 45  1  0
M  CHG  2   1  -1  22  -1
M  END
>  <UniqueID>  (23) 
20

>  <SMILES>  (23) 
[NH-]S(=O)(=O)c1ccc(CNCCCNCc2ccccc2[O-])cc1

>  <Energy>  (23) 
36.0985388761668

>  <Genealogy>  (23) 
[NH-]S(=O)(=O)c1ccc(CNCCCNCc2ccccc2[O-])cc1 (protonated)
[NH-]S(=O)(=O)c1ccc(CNCCCNCc2ccccc2[O-])cc1 (3D coordinates assigned)
[NH-]S(=O)(=O)c1ccc(CNCCCNCc2ccccc2[O-])cc1 (optimized conformer: 36.0985388761668 kcal/mol)

>  <smiles>  (23) 
NS(=O)(=O)c1ccc(CNCCCNCc2ccccc2O)cc1

>  <score_type>  (23) 
oracle

>  <origin>  (23) 
adgpu

>  <m_score__min__energy>  (23) 
-11.279999999999999

>  <m_primary>  (23) 
energy

$$$$
23:0
     RDKit          3D

 32 34  0  0  0  0  0  0  0  0999 V2000
   -1.2830   22.4240  -29.0080 C   0  0  0  0  0  0  0  0  0  0  0  0
   -2.5540   22.9890  -29.5950 C   0  0  0  0  0  0  0  0  0  0  0  0
   -2.7150   24.3850  -29.7450 C   0  0  0  0  0  0  0  0  0  0  0  0
   -1.6990   25.3030  -29.3030 N   0  0  0  0  0  0  0  0  0  0  0  0
   -1.4640   25.6240  -27.9210 C   0  0  0  0  0  0  0  0  0  0  0  0
   -2.2470   25.0610  -26.8950 C   0  0  0  0  0  0  0  0  0  0  0  0
   -2.0130   25.4040  -25.5600 C   0  0  0  0  0  0  0  0  0  0  0  0
   -1.0070   26.3200  -25.2370 C   0  0  0  0  0  0  0  0  0  0  0  0
   -0.6900   26.7880  -23.4130 Br  0  0  0  0  0  0  0  0  0  0  0  0
   -0.2390   26.8980  -26.2520 C   0  0  0  0  0  0  0  0  0  0  0  0
   -0.4710   26.5570  -27.5880 C   0  0  0  0  0  0  0  0  0  0  0  0
   -3.8700   24.8750  -30.2750 N   0  0  0  0  0  0  0  0  0  0  0  0
   -4.8890   24.0760  -30.6750 C   0  0  0  0  0  0  0  0  0  0  0  0
   -6.0470   24.6440  -31.2190 C   0  0  0  0  0  0  0  0  0  0  0  0
   -7.1040   23.8260  -31.6260 C   0  0  0  0  0  0  0  0  0  0  0  0
   -7.0110   22.4390  -31.4880 C   0  0  0  0  0  0  0  0  0  0  0  0
   -5.8590   21.8610  -30.9440 C   0  0  0  0  0  0  0  0  0  0  0  0
   -4.7860   22.6750  -30.5330 C   0  0  0  0  0  0  0  0  0  0  0  0
   -3.6100   22.1340  -29.9810 C   0  0  0  0  0  0  0  0  0  0  0  0
   -3.5000   20.8850  -29.8310 O   0  0  0  0  0  0  0  0  0  0  0  0
   -1.3428   22.4506  -27.9099 H   0  0  0  0  0  0  0  0  0  0  0  0
   -1.1549   21.3842  -29.3432 H   0  0  0  0  0  0  0  0  0  0  0  0
   -0.4252   23.0256  -29.3432 H   0  0  0  0  0  0  0  0  0  0  0  0
   -1.0250   25.6790  -30.0070 H   0  0  0  0  0  0  0  0  0  0  0  0
   -3.0465   24.3480  -27.1450 H   0  0  0  0  0  0  0  0  0  0  0  0
   -2.6213   24.9526  -24.7624 H   0  0  0  0  0  0  0  0  0  0  0  0
    0.5493   27.6224  -25.9992 H   0  0  0  0  0  0  0  0  0  0  0  0
    0.1292   27.0235  -28.3831 H   0  0  0  0  0  0  0  0  0  0  0  0
   -6.1249   25.7360  -31.3262 H   0  0  0  0  0  0  0  0  0  0  0  0
   -8.0114   24.2751  -32.0560 H   0  0  0  0  0  0  0  0  0  0  0  0
   -7.8465   21.7991  -31.8082 H   0  0  0  0  0  0  0  0  0  0  0  0
   -5.7912   20.7683  -30.8371 H   0  0  0  0  0  0  0  0  0  0  0  0
  1  2  1  0
  2  3  2  0
  3  4  1  0
  4  5  1  0
  5  6  2  0
  6  7  1  0
  7  8  2  0
  8  9  1  0
  8 10  1  0
 10 11  2  0
  3 12  1  0
 12 13  1  0
 13 14  2  0
 14 15  1  0
 15 16  2  0
 16 17  1  0
 17 18  2  0
 18 19  1  0
 19 20  2  0
 19  2  1  0
 11  5  1  0
 18 13  1  0
  1 21  1  0
  1 22  1  0
  1 23  1  0
  4 24  1  0
  6 25  1  0
  7 26  1  0
 10 27  1  0
 11 28  1  0
 14 29  1  0
 15 30  1  0
 16 31  1  0
 17 32  1  0
M  CHG  1  12  -1
M  END
>  <UniqueID>  (24) 
21

>  <SMILES>  (24) 
Cc1c(Nc2ccc(Br)cc2)[n-]c2ccccc2c1=O

>  <Energy>  (24) 
45.002859183331346

>  <Genealogy>  (24) 
Cc1c(Nc2ccc(Br)cc2)[n-]c2ccccc2c1=O (protonated)
Cc1c(Nc2ccc(Br)cc2)[n-]c2ccccc2c1=O (3D coordinates assigned)
Cc1c(Nc2ccc(Br)cc2)[n-]c2ccccc2c1=O (optimized conformer: 45.002859183331346 kcal/mol)

>  <smiles>  (24) 
Cc1c(Nc2ccc(Br)cc2)[nH]c2ccccc2c1=O

>  <score_type>  (24) 
oracle

>  <origin>  (24) 
adgpu

>  <m_score__min__energy>  (24) 
-9.6500000000000004

>  <m_primary>  (24) 
energy

$$$$
24:0
     RDKit          3D

 42 44  0  0  0  0  0  0  0  0999 V2000
   -2.0670   21.9830  -31.6580 C   0  0  0  0  0  0  0  0  0  0  0  0
   -2.1790   22.4060  -30.2300 C   0  0  0  0  0  0  0  0  0  0  0  0
   -1.5740   21.7570  -29.2130 N   0  0  0  0  0  0  0  0  0  0  0  0
   -1.8550   22.4110  -28.0940 N   0  0  0  0  0  0  0  0  0  0  0  0
   -1.3160   22.0400  -26.7940 C   0  0  0  0  0  0  0  0  0  0  0  0
   -2.6420   23.4750  -28.3660 C   0  0  0  0  0  0  0  0  0  0  0  0
   -3.0240   24.5340  -27.3790 C   0  0  0  0  0  0  0  0  0  0  0  0
   -2.8530   23.5070  -29.7280 C   0  0  0  0  0  0  0  0  0  0  0  0
   -3.4840   24.5620  -30.4600 N   0  0  0  0  0  0  0  0  0  0  0  0
   -5.1990   24.8080  -30.4140 S   0  0  0  0  0  0  0  0  0  0  0  0
   -5.6530   24.9540  -28.9880 O   0  0  0  0  0  0  0  0  0  0  0  0
   -5.5450   26.0600  -31.1720 O   0  0  0  0  0  0  0  0  0  0  0  0
   -5.9840   23.4380  -31.1920 C   0  0  0  0  0  0  0  0  0  0  0  0
   -5.2050   22.5060  -31.8840 C   0  0  0  0  0  0  0  0  0  0  0  0
   -5.7850   21.3440  -32.3980 C   0  0  0  0  0  0  0  0  0  0  0  0
   -7.1550   21.0900  -32.2110 C   0  0  0  0  0  0  0  0  0  0  0  0
   -7.7680   19.8320  -32.6970 C   0  0  0  0  0  0  0  0  0  0  0  0
   -9.0240   19.7570  -32.7900 O   0  0  0  0  0  0  0  0  0  0  0  0
   -6.9510   18.6530  -33.0660 C   0  0  0  0  0  0  0  0  0  0  0  0
   -6.5170   17.6780  -32.1860 C   0  0  0  0  0  0  0  0  0  0  0  0
   -5.7760   16.7820  -32.9340 C   0  0  0  0  0  0  0  0  0  0  0  0
   -5.7750   17.2560  -34.2300 C   0  0  0  0  0  0  0  0  0  0  0  0
   -6.4850   18.3970  -34.3060 N   0  0  0  0  0  0  0  0  0  0  0  0
   -7.9470   22.0590  -31.5720 C   0  0  0  0  0  0  0  0  0  0  0  0
   -7.3640   23.2240  -31.0610 C   0  0  0  0  0  0  0  0  0  0  0  0
   -1.7857   20.9206  -31.7047 H   0  0  0  0  0  0  0  0  0  0  0  0
   -3.0346   22.1285  -32.1605 H   0  0  0  0  0  0  0  0  0  0  0  0
   -1.2982   22.5883  -32.1605 H   0  0  0  0  0  0  0  0  0  0  0  0
   -1.9433   22.4718  -26.0002 H   0  0  0  0  0  0  0  0  0  0  0  0
   -1.3079   20.9441  -26.6996 H   0  0  0  0  0  0  0  0  0  0  0  0
   -0.2894   22.4237  -26.6996 H   0  0  0  0  0  0  0  0  0  0  0  0
   -2.8856   24.1502  -26.3575 H   0  0  0  0  0  0  0  0  0  0  0  0
   -2.3887   25.4197  -27.5272 H   0  0  0  0  0  0  0  0  0  0  0  0
   -4.0784   24.8102  -27.5272 H   0  0  0  0  0  0  0  0  0  0  0  0
   -4.1294   22.6888  -32.0245 H   0  0  0  0  0  0  0  0  0  0  0  0
   -5.1661   20.6232  -32.9525 H   0  0  0  0  0  0  0  0  0  0  0  0
   -6.7208   17.6259  -31.1063 H   0  0  0  0  0  0  0  0  0  0  0  0
   -5.2833   15.8693  -32.5675 H   0  0  0  0  0  0  0  0  0  0  0  0
   -5.2678   16.7719  -35.0776 H   0  0  0  0  0  0  0  0  0  0  0  0
   -6.6120   18.9780  -35.1640 H   0  0  0  0  0  0  0  0  0  0  0  0
   -9.0311   21.9009  -31.4729 H   0  0  0  0  0  0  0  0  0  0  0  0
   -7.9897   23.9741  -30.5552 H   0  0  0  0  0  0  0  0  0  0  0  0
  1  2  1  0
  2  3  2  0
  3  4  1  0
  4  5  1  0
  4  6  1  0
  6  7  1  0
  6  8  2  0
  8  9  1  0
  9 10  1  0
 10 11  2  0
 10 12  2  0
 10 13  1  0
 13 14  2  0
 14 15  1  0
 15 16  2  0
 16 17  1  0
 17 18  2  0
 17 19  1  0
 19 20  2  0
 20 21  1  0
 21 22  2  0
 22 23  1  0
 16 24  1  0
 24 25  2  0
  8  2  1  0
 25 13  1  0
 23 19  1  0
  1 26  1  0
  1 27  1  0
  1 28  1  0
  5 29  1  0
  5 30  1  0
  5 31  1  0
  7 32  1  0
  7 33  1  0
  7 34  1  0
 14 35  1  0
 15 36  1  0
 20 37  1  0
 21 38  1  0
 22 39  1  0
 23 40  1  0
 24 41  1  0
 25 42  1  0
M  CHG  1   9  -1
M  END
>  <UniqueID>  (25) 
22

>  <SMILES>  (25) 
Cc1nn(C)c(C)c1[N-]S(=O)(=O)c1ccc(C(=O)c2ccc[nH]2)cc1

>  <Energy>  (25) 
108.39494512477596

>  <Genealogy>  (25) 
Cc1nn(C)c(C)c1[N-]S(=O)(=O)c1ccc(C(=O)c2ccc[nH]2)cc1 (protonated)
Cc1nn(C)c(C)c1[N-]S(=O)(=O)c1ccc(C(=O)c2ccc[nH]2)cc1 (3D coordinates assigned)
Cc1nn(C)c(C)c1[N-]S(=O)(=O)c1ccc(C(=O)c2ccc[nH]2)cc1 (optimized conformer: 108.39494512477596 kcal/mol)

>  <smiles>  (25) 
Cc1nn(C)c(C)c1NS(=O)(=O)c1ccc(C(=O)c2ccc[nH]2)cc1

>  <score_type>  (25) 
oracle

>  <origin>  (25) 
adgpu

>  <m_score__min__energy>  (25) 
-10.32

>  <m_primary>  (25) 
energy

$$$$
25:0
     RDKit          3D

 25 26  0  0  0  0  0  0  0  0999 V2000
   -2.4680   22.2800  -31.8150 N   0  0  0  0  0  0  0  0  0  0  0  0
   -3.4940   22.7470  -31.5510 C   0  0  0  0  0  0  0  0  0  0  0  0
   -4.7740   23.3290  -31.2230 C   0  0  0  0  0  0  0  0  0  0  0  0
   -4.8540   24.5180  -30.4660 C   0  0  0  0  0  0  0  0  0  0  0  0
   -3.6750   25.2260  -30.0540 N   0  0  0  0  0  0  0  0  0  0  0  0
   -6.1110   25.0140  -30.1020 C   0  0  0  0  0  0  0  0  0  0  0  0
   -7.2630   24.3280  -30.4800 C   0  0  0  0  0  0  0  0  0  0  0  0
   -7.1680   23.1890  -31.2130 N   0  0  0  0  0  0  0  0  0  0  0  0
   -5.9690   22.6800  -31.6070 C   0  0  0  0  0  0  0  0  0  0  0  0
   -5.9600   21.5000  -32.3610 O   0  0  0  0  0  0  0  0  0  0  0  0
   -6.8960   20.4620  -32.2330 C   0  0  0  0  0  0  0  0  0  0  0  0
   -6.4310   19.1700  -31.9560 C   0  0  0  0  0  0  0  0  0  0  0  0
   -7.3310   18.1100  -31.8150 C   0  0  0  0  0  0  0  0  0  0  0  0
   -8.7040   18.3350  -31.9430 C   0  0  0  0  0  0  0  0  0  0  0  0
   -9.1790   19.6230  -32.2060 C   0  0  0  0  0  0  0  0  0  0  0  0
   -8.2820   20.6860  -32.3460 C   0  0  0  0  0  0  0  0  0  0  0  0
   -3.0520   25.6740  -30.7620 H   0  0  0  0  0  0  0  0  0  0  0  0
   -3.4030   25.3070  -29.0500 H   0  0  0  0  0  0  0  0  0  0  0  0
   -6.1892   25.9434  -29.5188 H   0  0  0  0  0  0  0  0  0  0  0  0
   -8.2513   24.7097  -30.1841 H   0  0  0  0  0  0  0  0  0  0  0  0
   -5.3514   18.9886  -31.8488 H   0  0  0  0  0  0  0  0  0  0  0  0
   -6.9578   17.0972  -31.6030 H   0  0  0  0  0  0  0  0  0  0  0  0
   -9.4108   17.4989  -31.8368 H   0  0  0  0  0  0  0  0  0  0  0  0
  -10.2603   19.8004  -32.3030 H   0  0  0  0  0  0  0  0  0  0  0  0
   -8.6595   21.6999  -32.5449 H   0  0  0  0  0  0  0  0  0  0  0  0
  1  2  3  0
  2  3  1  0
  3  4  2  0
  4  5  1  0
  4  6  1  0
  6  7  2  0
  7  8  1  0
  8  9  2  0
  9 10  1  0
 10 11  1  0
 11 12  2  0
 12 13  1  0
 13 14  2  0
 14 15  1  0
 15 16  2  0
  9  3  1  0
 16 11  1  0
  5 17  1  0
  5 18  1  0
  6 19  1  0
  7 20  1  0
 12 21  1  0
 13 22  1  0
 14 23  1  0
 15 24  1  0
 16 25  1  0
M  END
>  <UniqueID>  (26) 
23

>  <SMILES>  (26) 
N#Cc1c(N)ccnc1Oc1ccccc1

>  <Energy>  (26) 
35.063621972360785

>  <Genealogy>  (26) 
N#Cc1c(N)ccnc1Oc1ccccc1 (3D coordinates assigned)
N#Cc1c(N)ccnc1Oc1ccccc1 (optimized conformer: 35.063621972360785 kcal/mol)

>  <smiles>  (26) 
N#Cc1c(N)ccnc1Oc1ccccc1

>  <score_type>  (26) 
oracle

>  <origin>  (26) 
adgpu

>  <m_score__min__energy>  (26) 
-6.6600000000000001

>  <m_primary>  (26) 
energy

$$$$
26:0
     RDKit          3D

 43 45  0  0  0  0  0  0  0  0999 V2000
   -3.6240   18.5490  -25.9730 C   0  0  0  0  0  0  0  0  0  0  0  0
   -1.9890   18.4520  -26.7730 S   0  0  0  0  0  0  0  0  0  0  0  0
   -1.9410   20.2040  -27.1550 C   0  0  0  0  0  0  0  0  0  0  0  0
   -3.1160   20.8760  -27.5190 C   0  0  0  0  0  0  0  0  0  0  0  0
   -3.0770   22.2390  -27.8410 C   0  0  0  0  0  0  0  0  0  0  0  0
   -1.8640   22.9420  -27.7950 C   0  0  0  0  0  0  0  0  0  0  0  0
   -1.7920   24.6470  -28.2310 S   0  0  0  0  0  0  0  0  0  0  0  0
   -0.3670   25.0950  -28.3870 O   0  0  0  0  0  0  0  0  0  0  0  0
   -2.4200   25.4580  -27.1340 O   0  0  0  0  0  0  0  0  0  0  0  0
   -2.6510   24.9300  -29.7080 N   0  0  0  0  0  0  0  0  0  0  0  0
   -3.7930   24.1870  -30.1570 C   0  0  0  0  0  0  0  0  0  0  0  0
   -5.1060   24.5680  -29.8170 C   0  0  0  0  0  0  0  0  0  0  0  0
   -6.1960   23.8060  -30.2420 C   0  0  0  0  0  0  0  0  0  0  0  0
   -5.9860   22.6460  -31.0140 C   0  0  0  0  0  0  0  0  0  0  0  0
   -7.0980   21.8460  -31.4330 N   0  0  0  0  0  0  0  0  0  0  0  0
   -6.8470   20.5780  -32.1190 C   0  0  0  0  0  0  0  0  0  0  0  0
   -8.0850   19.6830  -32.0190 C   0  0  0  0  0  0  0  0  0  0  0  0
   -9.2330   20.3750  -32.4660 O   0  0  0  0  0  0  0  0  0  0  0  0
   -9.5140   21.4580  -31.5990 C   0  0  0  0  0  0  0  0  0  0  0  0
   -8.3900   22.5000  -31.6490 C   0  0  0  0  0  0  0  0  0  0  0  0
   -4.6830   22.2690  -31.3560 C   0  0  0  0  0  0  0  0  0  0  0  0
   -3.5940   23.0440  -30.9400 C   0  0  0  0  0  0  0  0  0  0  0  0
   -0.6910   22.2710  -27.4100 C   0  0  0  0  0  0  0  0  0  0  0  0
   -0.7270   20.9040  -27.0880 C   0  0  0  0  0  0  0  0  0  0  0  0
   -3.4985   18.5416  -24.8802 H   0  0  0  0  0  0  0  0  0  0  0  0
   -4.1269   19.4786  -26.2780 H   0  0  0  0  0  0  0  0  0  0  0  0
   -4.2333   17.6854  -26.2780 H   0  0  0  0  0  0  0  0  0  0  0  0
   -4.0714   20.3318  -27.5519 H   0  0  0  0  0  0  0  0  0  0  0  0
   -4.0014   22.7600  -28.1311 H   0  0  0  0  0  0  0  0  0  0  0  0
   -5.2735   25.4718  -29.2127 H   0  0  0  0  0  0  0  0  0  0  0  0
   -7.2184   24.1111  -29.9743 H   0  0  0  0  0  0  0  0  0  0  0  0
   -6.6218   20.7735  -33.1778 H   0  0  0  0  0  0  0  0  0  0  0  0
   -5.9923   20.0715  -31.6468 H   0  0  0  0  0  0  0  0  0  0  0  0
   -7.9362   18.7884  -32.6415 H   0  0  0  0  0  0  0  0  0  0  0  0
   -8.2308   19.3934  -30.9679 H   0  0  0  0  0  0  0  0  0  0  0  0
  -10.4583   21.9309  -31.9066 H   0  0  0  0  0  0  0  0  0  0  0  0
   -9.5952   21.0753  -30.5709 H   0  0  0  0  0  0  0  0  0  0  0  0
   -8.3908   22.9911  -32.6333 H   0  0  0  0  0  0  0  0  0  0  0  0
   -8.5541   23.2496  -30.8608 H   0  0  0  0  0  0  0  0  0  0  0  0
   -4.5137   21.3611  -31.9535 H   0  0  0  0  0  0  0  0  0  0  0  0
   -2.5740   22.7525  -31.2307 H   0  0  0  0  0  0  0  0  0  0  0  0
    0.2613   22.8194  -27.3604 H   0  0  0  0  0  0  0  0  0  0  0  0
    0.1936   20.3842  -26.7843 H   0  0  0  0  0  0  0  0  0  0  0  0
  1  2  1  0
  2  3  1  0
  3  4  2  0
  4  5  1  0
  5  6  2  0
  6  7  1  0
  7  8  2  0
  7  9  2  0
  7 10  1  0
 10 11  1  0
 11 12  2  0
 12 13  1  0
 13 14  2  0
 14 15  1  0
 15 16  1  0
 16 17  1  0
 17 18  1  0
 18 19  1  0
 19 20  1  0
 14 21  1  0
 21 22  2  0
  6 23  1  0
 23 24  2  0
 24  3  1  0
 22 11  1  0
 20 15  1  0
  1 25  1  0
  1 26  1  0
  1 27  1  0
  4 28  1  0
  5 29  1  0
 12 30  1  0
 13 31  1  0
 16 32  1  0
 16 33  1  0
 17 34  1  0
 17 35  1  0
 19 36  1  0
 19 37  1  0
 20 38  1  0
 20 39  1  0
 21 40  1  0
 22 41  1  0
 23 42  1  0
 24 43  1  0
M  CHG  1  10  -1
M  END
>  <UniqueID>  (27) 
24

>  <SMILES>  (27) 
CSc1ccc(S(=O)(=O)[N-]c2ccc(N3CCOCC3)cc2)cc1

>  <Energy>  (27) 
51.01030389305089

>  <Genealogy>  (27) 
CSc1ccc(S(=O)(=O)[N-]c2ccc(N3CCOCC3)cc2)cc1 (protonated)
CSc1ccc(S(=O)(=O)[N-]c2ccc(N3CCOCC3)cc2)cc1 (3D coordinates assigned)
CSc1ccc(S(=O)(=O)[N-]c2ccc(N3CCOCC3)cc2)cc1 (nonaromatic ring conformer: 51.01030389305089 kcal/mol)

>  <smiles>  (27) 
CSc1ccc(S(=O)(=O)Nc2ccc(N3CCOCC3)cc2)cc1

>  <score_type>  (27) 
oracle

>  <origin>  (27) 
adgpu

>  <m_score__min__energy>  (27) 
-10.1

>  <m_primary>  (27) 
energy

$$$$
27:0
     RDKit          3D

 44 46  0  0  0  0  0  0  0  0999 V2000
   -7.4670   17.9820  -31.9720 C   0  0  0  0  0  0  0  0  0  0  0  0
   -8.7150   18.8310  -31.7930 C   0  0  0  0  0  0  0  0  0  0  0  0
   -8.6110   20.0050  -32.5930 O   0  0  0  0  0  0  0  0  0  0  0  0
   -7.8320   21.1240  -32.2600 C   0  0  0  0  0  0  0  0  0  0  0  0
   -6.4650   21.2160  -32.5800 C   0  0  0  0  0  0  0  0  0  0  0  0
   -5.7330   22.3540  -32.2260 C   0  0  0  0  0  0  0  0  0  0  0  0
   -6.3550   23.4210  -31.5690 C   0  0  0  0  0  0  0  0  0  0  0  0
   -5.5670   24.5620  -31.2000 N   0  0  0  0  0  0  0  0  0  0  0  0
   -4.5020   24.5740  -30.2420 C   0  0  0  0  0  0  0  0  0  0  0  0
   -3.4830   25.2760  -30.4760 O   0  0  0  0  0  0  0  0  0  0  0  0
   -4.6330   23.8840  -28.9900 N   0  0  0  0  0  0  0  0  0  0  0  0
   -3.5240   23.5470  -28.1380 C   0  0  0  0  0  0  0  0  0  0  0  0
   -2.9350   24.5020  -27.2910 C   0  0  0  0  0  0  0  0  0  0  0  0
   -1.8480   24.1550  -26.4860 C   0  0  0  0  0  0  0  0  0  0  0  0
   -1.3260   22.8600  -26.5300 C   0  0  0  0  0  0  0  0  0  0  0  0
   -1.8760   21.9040  -27.3980 C   0  0  0  0  0  0  0  0  0  0  0  0
   -1.3370   20.5260  -27.4520 C   0  0  0  0  0  0  0  0  0  0  0  0
   -0.1000   20.1730  -27.9560 C   0  0  0  0  0  0  0  0  0  0  0  0
   -0.0350   18.8040  -27.7990 C   0  0  0  0  0  0  0  0  0  0  0  0
   -1.1660   18.3600  -27.2180 N   0  0  0  0  0  0  0  0  0  0  0  0
   -1.9480   19.4070  -27.0010 N   0  0  0  0  0  0  0  0  0  0  0  0
   -3.2490   19.2990  -26.3490 C   0  0  0  0  0  0  0  0  0  0  0  0
   -2.9810   22.2540  -28.1930 C   0  0  0  0  0  0  0  0  0  0  0  0
   -7.7150   23.3210  -31.2280 C   0  0  0  0  0  0  0  0  0  0  0  0
   -8.4460   22.1830  -31.5800 C   0  0  0  0  0  0  0  0  0  0  0  0
   -7.0650   17.7085  -30.9853 H   0  0  0  0  0  0  0  0  0  0  0  0
   -7.7216   17.0689  -32.5301 H   0  0  0  0  0  0  0  0  0  0  0  0
   -6.7113   18.5541  -32.5301 H   0  0  0  0  0  0  0  0  0  0  0  0
   -9.5985   18.2536  -32.1028 H   0  0  0  0  0  0  0  0  0  0  0  0
   -8.8150   19.1164  -30.7354 H   0  0  0  0  0  0  0  0  0  0  0  0
   -5.9699   20.3895  -33.1108 H   0  0  0  0  0  0  0  0  0  0  0  0
   -4.6609   22.4104  -32.4658 H   0  0  0  0  0  0  0  0  0  0  0  0
   -5.5990   23.6900  -28.6400 H   0  0  0  0  0  0  0  0  0  0  0  0
   -3.3322   25.5274  -27.2622 H   0  0  0  0  0  0  0  0  0  0  0  0
   -1.4014   24.9037  -25.8152 H   0  0  0  0  0  0  0  0  0  0  0  0
   -0.4801   22.5883  -25.8814 H   0  0  0  0  0  0  0  0  0  0  0  0
    0.6640   20.8367  -28.3871 H   0  0  0  0  0  0  0  0  0  0  0  0
    0.8120   18.1711  -28.1023 H   0  0  0  0  0  0  0  0  0  0  0  0
   -3.1141   19.3102  -25.2574 H   0  0  0  0  0  0  0  0  0  0  0  0
   -3.8811   20.1478  -26.6491 H   0  0  0  0  0  0  0  0  0  0  0  0
   -3.7325   18.3576  -26.6491 H   0  0  0  0  0  0  0  0  0  0  0  0
   -3.4253   21.5059  -28.8660 H   0  0  0  0  0  0  0  0  0  0  0  0
   -8.2053   24.1408  -30.6825 H   0  0  0  0  0  0  0  0  0  0  0  0
   -9.5130   22.1186  -31.3206 H   0  0  0  0  0  0  0  0  0  0  0  0
  1  2  1  0
  2  3  1  0
  3  4  1  0
  4  5  2  0
  5  6  1  0
  6  7  2  0
  7  8  1  0
  8  9  1  0
  9 10  2  0
  9 11  1  0
 11 12  1  0
 12 13  2  0
 13 14  1  0
 14 15  2  0
 15 16  1  0
 16 17  1  0
 17 18  2  0
 18 19  1  0
 19 20  2  0
 20 21  1  0
 21 22  1  0
 16 23  2  0
  7 24  1  0
 24 25  2  0
 25  4  1  0
 23 12  1  0
 21 17  1  0
  1 26  1  0
  1 27  1  0
  1 28  1  0
  2 29  1  0
  2 30  1  0
  5 31  1  0
  6 32  1  0
 11 33  1  0
 13 34  1  0
 14 35  1  0
 15 36  1  0
 18 37  1  0
 19 38  1  0
 22 39  1  0
 22 40  1  0
 22 41  1  0
 23 42  1  0
 24 43  1  0
 25 44  1  0
M  CHG  1   8  -1
M  END
>  <UniqueID>  (28) 
25

>  <SMILES>  (28) 
CCOc1ccc([N-]C(=O)Nc2cccc(-c3ccnn3C)c2)cc1

>  <Energy>  (28) 
83.61851566706534

>  <Genealogy>  (28) 
CCOc1ccc([N-]C(=O)Nc2cccc(-c3ccnn3C)c2)cc1 (protonated)
CCOc1ccc([N-]C(=O)Nc2cccc(-c3ccnn3C)c2)cc1 (3D coordinates assigned)
CCOc1ccc([N-]C(=O)Nc2cccc(-c3ccnn3C)c2)cc1 (optimized conformer: 83.61851566706534 kcal/mol)

>  <smiles>  (28) 
CCOc1ccc(NC(=O)Nc2cccc(-c3ccnn3C)c2)cc1

>  <score_type>  (28) 
oracle

>  <origin>  (28) 
adgpu

>  <m_score__min__energy>  (28) 
-9.4800000000000004

>  <m_primary>  (28) 
energy

$$$$
28:0
     RDKit          3D

 41 43  0  0  0  0  0  0  0  0999 V2000
    1.1890   27.3200  -23.3390 C   0  0  0  0  0  0  0  0  0  0  0  0
    0.1250   28.0920  -24.1130 C   0  0  0  0  0  0  0  0  0  0  0  0
   -1.0130   27.2700  -24.3670 O   0  0  0  0  0  0  0  0  0  0  0  0
   -1.3010   26.6230  -25.5810 C   0  0  0  0  0  0  0  0  0  0  0  0
   -0.6130   27.0350  -26.7280 C   0  0  0  0  0  0  0  0  0  0  0  0
   -0.8570   26.4260  -27.9610 C   0  0  0  0  0  0  0  0  0  0  0  0
   -1.7760   25.3770  -28.0620 C   0  0  0  0  0  0  0  0  0  0  0  0
   -2.0230   24.7840  -29.3420 N   0  0  0  0  0  0  0  0  0  0  0  0
   -1.8150   23.4080  -29.6870 C   0  0  0  0  0  0  0  0  0  0  0  0
   -0.6800   23.0520  -30.0990 O   0  0  0  0  0  0  0  0  0  0  0  0
   -2.8710   22.3610  -29.4660 C   0  0  0  0  0  0  0  0  0  0  0  0
   -3.6260   21.8550  -31.0500 S   0  0  0  0  0  0  0  0  0  0  0  0
   -4.7160   23.2790  -31.1520 C   0  0  0  0  0  0  0  0  0  0  0  0
   -4.3080   24.5450  -30.9530 N   0  0  0  0  0  0  0  0  0  0  0  0
   -5.3670   25.2960  -31.2250 N   0  0  0  0  0  0  0  0  0  0  0  0
   -6.3880   24.5290  -31.5800 N   0  0  0  0  0  0  0  0  0  0  0  0
   -6.0070   23.2650  -31.5350 N   0  0  0  0  0  0  0  0  0  0  0  0
   -6.8490   22.1510  -31.8670 C   0  0  0  0  0  0  0  0  0  0  0  0
   -6.3970   21.1350  -32.7280 C   0  0  0  0  0  0  0  0  0  0  0  0
   -7.2210   20.0460  -33.0270 C   0  0  0  0  0  0  0  0  0  0  0  0
   -8.5000   19.9610  -32.4720 C   0  0  0  0  0  0  0  0  0  0  0  0
   -8.9520   20.9600  -31.6050 C   0  0  0  0  0  0  0  0  0  0  0  0
   -8.1270   22.0450  -31.2960 C   0  0  0  0  0  0  0  0  0  0  0  0
   -2.5010   24.9870  -26.9250 C   0  0  0  0  0  0  0  0  0  0  0  0
   -2.2600   25.5970  -25.6900 C   0  0  0  0  0  0  0  0  0  0  0  0
    1.0188   27.4435  -22.2593 H   0  0  0  0  0  0  0  0  0  0  0  0
    1.1302   26.2530  -23.5998 H   0  0  0  0  0  0  0  0  0  0  0  0
    2.1851   27.7069  -23.5998 H   0  0  0  0  0  0  0  0  0  0  0  0
   -0.1864   28.9667  -23.5232 H   0  0  0  0  0  0  0  0  0  0  0  0
    0.5513   28.4112  -25.0755 H   0  0  0  0  0  0  0  0  0  0  0  0
    0.1268   27.8460  -26.6578 H   0  0  0  0  0  0  0  0  0  0  0  0
   -0.3232   26.7736  -28.8578 H   0  0  0  0  0  0  0  0  0  0  0  0
   -2.4130   21.4824  -28.9881 H   0  0  0  0  0  0  0  0  0  0  0  0
   -3.6557   22.7830  -28.8209 H   0  0  0  0  0  0  0  0  0  0  0  0
   -5.3908   21.1975  -33.1680 H   0  0  0  0  0  0  0  0  0  0  0  0
   -6.8614   19.2544  -33.7008 H   0  0  0  0  0  0  0  0  0  0  0  0
   -9.1509   19.1088  -32.7170 H   0  0  0  0  0  0  0  0  0  0  0  0
   -9.9581   20.8921  -31.1655 H   0  0  0  0  0  0  0  0  0  0  0  0
   -8.4813   22.8206  -30.6011 H   0  0  0  0  0  0  0  0  0  0  0  0
   -3.2626   24.1975  -27.0059 H   0  0  0  0  0  0  0  0  0  0  0  0
   -2.8212   25.2745  -24.8006 H   0  0  0  0  0  0  0  0  0  0  0  0
  1  2  1  0
  2  3  1  0
  3  4  1  0
  4  5  2  0
  5  6  1  0
  6  7  2  0
  7  8  1  0
  8  9  1  0
  9 10  2  0
  9 11  1  0
 11 12  1  0
 12 13  1  0
 13 14  2  0
 14 15  1  0
 15 16  2  0
 16 17  1  0
 17 18  1  0
 18 19  2  0
 19 20  1  0
 20 21  2  0
 21 22  1  0
 22 23  2  0
  7 24  1  0
 24 25  2  0
 25  4  1  0
 17 13  1  0
 23 18  1  0
  1 26  1  0
  1 27  1  0
  1 28  1  0
  2 29  1  0
  2 30  1  0
  5 31  1  0
  6 32  1  0
 11 33  1  0
 11 34  1  0
 19 35  1  0
 20 36  1  0
 21 37  1  0
 22 38  1  0
 23 39  1  0
 24 40  1  0
 25 41  1  0
M  CHG  1   8  -1
M  END
>  <UniqueID>  (29) 
26

>  <SMILES>  (29) 
CCOc1ccc([N-]C(=O)CSc2nnnn2-c2ccccc2)cc1

>  <Energy>  (29) 
85.0580869549585

>  <Genealogy>  (29) 
CCOc1ccc([N-]C(=O)CSc2nnnn2-c2ccccc2)cc1 (protonated)
CCOc1ccc([N-]C(=O)CSc2nnnn2-c2ccccc2)cc1 (3D coordinates assigned)
CCOc1ccc([N-]C(=O)CSc2nnnn2-c2ccccc2)cc1 (optimized conformer: 85.0580869549585 kcal/mol)

>  <smiles>  (29) 
CCOc1ccc(NC(=O)CSc2nnnn2-c2ccccc2)cc1

>  <score_type>  (29) 
oracle

>  <origin>  (29) 
adgpu

>  <m_score__min__energy>  (29) 
-10.42

>  <m_primary>  (29) 
energy

$$$$
29:0
     RDKit          3D

 31 33  0  0  0  0  0  0  0  0999 V2000
   -1.2220   26.3110  -29.2800 O   0  0  0  0  0  0  0  0  0  0  0  0
   -0.8990   25.1830  -28.8230 C   0  0  0  0  0  0  0  0  0  0  0  0
    0.2830   25.0700  -28.1000 O   0  0  0  0  0  0  0  0  0  0  0  0
   -1.7590   23.9920  -29.0470 C   0  0  0  0  0  0  0  0  0  0  0  0
   -1.3290   22.7340  -28.5800 C   0  0  0  0  0  0  0  0  0  0  0  0
   -2.1150   21.5850  -28.7730 C   0  0  0  0  0  0  0  0  0  0  0  0
   -1.6580   20.2690  -28.2820 C   0  0  0  0  0  0  0  0  0  0  0  0
   -0.6590   19.5540  -28.8370 N   0  0  0  0  0  0  0  0  0  0  0  0
   -0.6320   18.4630  -28.0430 C   0  0  0  0  0  0  0  0  0  0  0  0
    0.3090   17.3370  -28.2240 C   0  0  0  0  0  0  0  0  0  0  0  0
    0.8870   17.0840  -29.4790 C   0  0  0  0  0  0  0  0  0  0  0  0
    1.7760   16.0190  -29.6500 C   0  0  0  0  0  0  0  0  0  0  0  0
    2.1060   15.1840  -28.5690 C   0  0  0  0  0  0  0  0  0  0  0  0
    3.0220   14.0880  -28.7480 N   0  0  0  0  0  0  0  0  0  0  0  0
    2.7520   13.1540  -29.5310 O   0  0  0  0  0  0  0  0  0  0  0  0
    4.2130   14.0530  -28.0590 O   0  0  0  0  0  0  0  0  0  0  0  0
    1.5270   15.4370  -27.3130 C   0  0  0  0  0  0  0  0  0  0  0  0
    0.6380   16.5030  -27.1420 C   0  0  0  0  0  0  0  0  0  0  0  0
   -1.5610   18.5180  -27.0670 N   0  0  0  0  0  0  0  0  0  0  0  0
   -2.1730   19.6480  -27.2490 O   0  0  0  0  0  0  0  0  0  0  0  0
   -3.3420   21.6970  -29.4400 C   0  0  0  0  0  0  0  0  0  0  0  0
   -3.7790   22.9380  -29.9080 C   0  0  0  0  0  0  0  0  0  0  0  0
   -3.0000   24.0820  -29.7170 C   0  0  0  0  0  0  0  0  0  0  0  0
   -3.4730   25.2980  -30.1980 O   0  0  0  0  0  0  0  0  0  0  0  0
   -0.3648   22.6501  -28.0572 H   0  0  0  0  0  0  0  0  0  0  0  0
    0.6380   17.7293  -30.3343 H   0  0  0  0  0  0  0  0  0  0  0  0
    2.2209   15.8330  -30.6387 H   0  0  0  0  0  0  0  0  0  0  0  0
    1.7753   14.7912  -26.4578 H   0  0  0  0  0  0  0  0  0  0  0  0
    0.1932   16.6899  -26.1535 H   0  0  0  0  0  0  0  0  0  0  0  0
   -3.9640   20.8032  -29.5958 H   0  0  0  0  0  0  0  0  0  0  0  0
   -4.7437   23.0154  -30.4309 H   0  0  0  0  0  0  0  0  0  0  0  0
  1  2  2  0
  2  3  1  0
  2  4  1  0
  4  5  2  0
  5  6  1  0
  6  7  1  0
  7  8  2  0
  8  9  1  0
  9 10  1  0
 10 11  2  0
 11 12  1  0
 12 13  2  0
 13 14  1  0
 14 15  2  0
 14 16  1  0
 13 17  1  0
 17 18  2  0
  9 19  2  0
 19 20  1  0
  6 21  2  0
 21 22  1  0
 22 23  2  0
 23 24  1  0
 23  4  1  0
 20  7  1  0
 18 10  1  0
  5 25  1  0
 11 26  1  0
 12 27  1  0
 17 28  1  0
 18 29  1  0
 21 30  1  0
 22 31  1  0
M  CHG  4   3  -1  14   1  16  -1  24  -1
M  END
>  <UniqueID>  (30) 
27

>  <SMILES>  (30) 
O=C([O-])c1cc(-c2nc(-c3ccc([N+](=O)[O-])cc3)no2)ccc1[O-]

>  <Energy>  (30) 
71.37322588265654

>  <Genealogy>  (30) 
O=C([O-])c1cc(-c2nc(-c3ccc([N+](=O)[O-])cc3)no2)ccc1[O-] (protonated)
O=C([O-])c1cc(-c2nc(-c3ccc([N+](=O)[O-])cc3)no2)ccc1[O-] (3D coordinates assigned)
O=C([O-])c1cc(-c2nc(-c3ccc([N+](=O)[O-])cc3)no2)ccc1[O-] (optimized conformer: 71.37322588265654 kcal/mol)

>  <smiles>  (30) 
O=C(O)c1cc(-c2nc(-c3ccc([N+](=O)[O-])cc3)no2)ccc1O

>  <score_type>  (30) 
oracle

>  <origin>  (30) 
adgpu

>  <m_score__min__energy>  (30) 
-10.73

>  <m_primary>  (30) 
energy

$$$$
30:0
     RDKit          3D

 48 51  0  0  0  0  0  0  0  0999 V2000
   -7.4820   23.0940  -32.3320 C   0  0  0  0  0  0  0  0  0  0  0  0
   -6.6220   21.8700  -32.3220 C   0  0  0  0  0  0  0  0  0  0  0  0
   -6.9820   20.7120  -32.9060 N   0  0  0  0  0  0  0  0  0  0  0  0
   -6.0060   19.8370  -32.7140 N   0  0  0  0  0  0  0  0  0  0  0  0
   -6.0640   18.4880  -33.2080 C   0  0  0  0  0  0  0  0  0  0  0  0
   -5.0020   17.9400  -33.9370 C   0  0  0  0  0  0  0  0  0  0  0  0
   -5.0610   16.6200  -34.3940 C   0  0  0  0  0  0  0  0  0  0  0  0
   -6.1810   15.8000  -34.1230 C   0  0  0  0  0  0  0  0  0  0  0  0
   -6.2460   14.4220  -34.6020 N   0  0  0  0  0  0  0  0  0  0  0  0
   -4.9900   13.6880  -34.8700 C   0  0  0  0  0  0  0  0  0  0  0  0
   -5.2070   12.2330  -35.2950 C   0  0  0  0  0  0  0  0  0  0  0  0
   -6.3320   12.1140  -36.1340 O   0  0  0  0  0  0  0  0  0  0  0  0
   -7.4850   12.3650  -35.3670 C   0  0  0  0  0  0  0  0  0  0  0  0
   -7.5590   13.8370  -34.9520 C   0  0  0  0  0  0  0  0  0  0  0  0
   -7.2380   16.3680  -33.3720 C   0  0  0  0  0  0  0  0  0  0  0  0
   -7.1730   17.6860  -32.9160 C   0  0  0  0  0  0  0  0  0  0  0  0
   -4.9960   20.4270  -32.0310 C   0  0  0  0  0  0  0  0  0  0  0  0
   -3.6690   19.7970  -31.7180 C   0  0  0  0  0  0  0  0  0  0  0  0
   -5.3630   21.7370  -31.7550 C   0  0  0  0  0  0  0  0  0  0  0  0
   -4.5810   22.7620  -31.0300 C   0  0  0  0  0  0  0  0  0  0  0  0
   -5.1580   24.0010  -30.7030 C   0  0  0  0  0  0  0  0  0  0  0  0
   -4.4160   24.9660  -30.0170 C   0  0  0  0  0  0  0  0  0  0  0  0
   -3.0920   24.7040  -29.6520 C   0  0  0  0  0  0  0  0  0  0  0  0
   -2.3560   25.6660  -28.9700 O   0  0  0  0  0  0  0  0  0  0  0  0
   -2.5100   23.4760  -29.9750 C   0  0  0  0  0  0  0  0  0  0  0  0
   -3.2490   22.5070  -30.6620 C   0  0  0  0  0  0  0  0  0  0  0  0
   -7.6968   23.3997  -31.2974 H   0  0  0  0  0  0  0  0  0  0  0  0
   -6.9559   23.9075  -32.8530 H   0  0  0  0  0  0  0  0  0  0  0  0
   -8.4257   22.8748  -32.8530 H   0  0  0  0  0  0  0  0  0  0  0  0
   -4.1141   18.5527  -34.1520 H   0  0  0  0  0  0  0  0  0  0  0  0
   -4.2209   16.2117  -34.9750 H   0  0  0  0  0  0  0  0  0  0  0  0
   -4.4486   14.2078  -35.6742 H   0  0  0  0  0  0  0  0  0  0  0  0
   -4.4223   13.6669  -33.9280 H   0  0  0  0  0  0  0  0  0  0  0  0
   -4.3164   11.8796  -35.8354 H   0  0  0  0  0  0  0  0  0  0  0  0
   -5.3770   11.6264  -34.3932 H   0  0  0  0  0  0  0  0  0  0  0  0
   -8.3749   12.1142  -35.9629 H   0  0  0  0  0  0  0  0  0  0  0  0
   -7.4425   11.7467  -34.4582 H   0  0  0  0  0  0  0  0  0  0  0  0
   -7.9842   14.4126  -35.7874 H   0  0  0  0  0  0  0  0  0  0  0  0
   -8.1842   13.8856  -34.0483 H   0  0  0  0  0  0  0  0  0  0  0  0
   -8.1261   15.7604  -33.1437 H   0  0  0  0  0  0  0  0  0  0  0  0
   -8.0016   18.0980  -32.3214 H   0  0  0  0  0  0  0  0  0  0  0  0
   -3.5403   19.7359  -30.6273 H   0  0  0  0  0  0  0  0  0  0  0  0
   -3.6326   18.7855  -32.1487 H   0  0  0  0  0  0  0  0  0  0  0  0
   -2.8622   20.4082  -32.1487 H   0  0  0  0  0  0  0  0  0  0  0  0
   -6.1991   24.2122  -30.9886 H   0  0  0  0  0  0  0  0  0  0  0  0
   -4.8743   25.9334  -29.7637 H   0  0  0  0  0  0  0  0  0  0  0  0
   -1.4681   23.2704  -29.6885 H   0  0  0  0  0  0  0  0  0  0  0  0
   -2.7857   21.5419  -30.9150 H   0  0  0  0  0  0  0  0  0  0  0  0
  1  2  1  0
  2  3  2  0
  3  4  1  0
  4  5  1  0
  5  6  2  0
  6  7  1  0
  7  8  2  0
  8  9  1  0
  9 10  1  0
 10 11  1  0
 11 12  1  0
 12 13  1  0
 13 14  1  0
  8 15  1  0
 15 16  2  0
  4 17  1  0
 17 18  1  0
 17 19  2  0
 19 20  1  0
 20 21  2  0
 21 22  1  0
 22 23  2  0
 23 24  1  0
 23 25  1  0
 25 26  2  0
 19  2  1  0
 26 20  1  0
 16  5  1  0
 14  9  1  0
  1 27  1  0
  1 28  1  0
  1 29  1  0
  6 30  1  0
  7 31  1  0
 10 32  1  0
 10 33  1  0
 11 34  1  0
 11 35  1  0
 13 36  1  0
 13 37  1  0
 14 38  1  0
 14 39  1  0
 15 40  1  0
 16 41  1  0
 18 42  1  0
 18 43  1  0
 18 44  1  0
 21 45  1  0
 22 46  1  0
 25 47  1  0
 26 48  1  0
M  CHG  1  24  -1
M  END
>  <UniqueID>  (31) 
28

>  <SMILES>  (31) 
Cc1nn(-c2ccc(N3CCOCC3)cc2)c(C)c1-c1ccc([O-])cc1

>  <Energy>  (31) 
98.25593054747391

>  <Genealogy>  (31) 
Cc1nn(-c2ccc(N3CCOCC3)cc2)c(C)c1-c1ccc([O-])cc1 (protonated)
Cc1nn(-c2ccc(N3CCOCC3)cc2)c(C)c1-c1ccc([O-])cc1 (3D coordinates assigned)
Cc1nn(-c2ccc(N3CCOCC3)cc2)c(C)c1-c1ccc([O-])cc1 (nonaromatic ring conformer: 98.25593054747391 kcal/mol)

>  <smiles>  (31) 
Cc1nn(-c2ccc(N3CCOCC3)cc2)c(C)c1-c1ccc(O)cc1

>  <score_type>  (31) 
oracle

>  <origin>  (31) 
adgpu

>  <m_score__min__energy>  (31) 
-10.06

>  <m_primary>  (31) 
energy

$$$$
31:0
     RDKit          3D

 48 50  0  0  0  0  0  0  0  0999 V2000
   -1.5040   26.0840  -26.4850 C   0  0  0  0  0  0  0  0  0  0  0  0
   -0.8910   26.0390  -28.1990 S   0  0  0  0  0  0  0  0  0  0  0  0
   -1.1220   24.2600  -28.3720 C   0  0  0  0  0  0  0  0  0  0  0  0
    0.0000   23.4320  -28.2290 C   0  0  0  0  0  0  0  0  0  0  0  0
   -0.1120   22.0520  -28.4070 C   0  0  0  0  0  0  0  0  0  0  0  0
   -1.3430   21.4870  -28.7380 C   0  0  0  0  0  0  0  0  0  0  0  0
   -2.4700   22.3000  -28.8860 C   0  0  0  0  0  0  0  0  0  0  0  0
   -2.3800   23.6890  -28.6850 C   0  0  0  0  0  0  0  0  0  0  0  0
   -3.5900   24.5170  -28.8640 C   0  0  0  0  0  0  0  0  0  0  0  0
   -4.4690   24.5610  -27.9620 O   0  0  0  0  0  0  0  0  0  0  0  0
   -3.7520   25.2880  -30.0590 N   0  0  0  0  0  0  0  0  0  0  0  0
   -4.9820   25.2890  -30.8400 C   0  0  0  0  0  0  0  0  0  0  0  0
   -5.2660   23.8940  -31.3320 C   0  0  0  0  0  0  0  0  0  0  0  0
   -6.5710   23.5100  -31.6750 C   0  0  0  0  0  0  0  0  0  0  0  0
   -6.8150   22.2480  -32.2240 C   0  0  0  0  0  0  0  0  0  0  0  0
   -5.7540   21.3520  -32.4510 C   0  0  0  0  0  0  0  0  0  0  0  0
   -5.9910   20.0160  -33.0490 C   0  0  0  0  0  0  0  0  0  0  0  0
   -6.7960   19.9100  -34.0140 O   0  0  0  0  0  0  0  0  0  0  0  0
   -5.3200   18.8470  -32.5450 N   0  0  0  0  0  0  0  0  0  0  0  0
   -5.5240   17.5330  -33.0900 C   0  0  0  0  0  0  0  0  0  0  0  0
   -4.4200   16.7600  -33.4940 C   0  0  0  0  0  0  0  0  0  0  0  0
   -4.6100   15.5010  -34.0700 C   0  0  0  0  0  0  0  0  0  0  0  0
   -5.9000   15.0040  -34.2560 C   0  0  0  0  0  0  0  0  0  0  0  0
   -7.0050   15.7660  -33.8700 C   0  0  0  0  0  0  0  0  0  0  0  0
   -6.8300   17.0310  -33.2870 C   0  0  0  0  0  0  0  0  0  0  0  0
   -7.9830   17.7780  -32.8760 N   0  0  0  0  0  0  0  0  0  0  0  0
   -4.4520   21.7350  -32.0880 C   0  0  0  0  0  0  0  0  0  0  0  0
   -4.2090   22.9970  -31.5400 C   0  0  0  0  0  0  0  0  0  0  0  0
   -0.6538   26.0216  -25.7898 H   0  0  0  0  0  0  0  0  0  0  0  0
   -2.0485   27.0245  -26.3149 H   0  0  0  0  0  0  0  0  0  0  0  0
   -2.1800   25.2331  -26.3149 H   0  0  0  0  0  0  0  0  0  0  0  0
    0.9753   23.8727  -27.9748 H   0  0  0  0  0  0  0  0  0  0  0  0
    0.7724   21.4092  -28.2859 H   0  0  0  0  0  0  0  0  0  0  0  0
   -1.4272   20.3998  -28.8828 H   0  0  0  0  0  0  0  0  0  0  0  0
   -3.4351   21.8500  -29.1619 H   0  0  0  0  0  0  0  0  0  0  0  0
   -5.8159   25.6324  -30.2102 H   0  0  0  0  0  0  0  0  0  0  0  0
   -4.8693   25.9652  -31.7003 H   0  0  0  0  0  0  0  0  0  0  0  0
   -7.4069   24.2060  -31.5110 H   0  0  0  0  0  0  0  0  0  0  0  0
   -7.8433   21.9533  -32.4803 H   0  0  0  0  0  0  0  0  0  0  0  0
   -4.6620   18.9370  -31.7400 H   0  0  0  0  0  0  0  0  0  0  0  0
   -3.4005   17.1492  -33.3555 H   0  0  0  0  0  0  0  0  0  0  0  0
   -3.7408   14.9009  -34.3772 H   0  0  0  0  0  0  0  0  0  0  0  0
   -6.0471   14.0115  -34.7069 H   0  0  0  0  0  0  0  0  0  0  0  0
   -8.0203   15.3718  -34.0240 H   0  0  0  0  0  0  0  0  0  0  0  0
   -8.4360   17.5900  -31.9530 H   0  0  0  0  0  0  0  0  0  0  0  0
   -8.3790   18.5480  -33.4590 H   0  0  0  0  0  0  0  0  0  0  0  0
   -3.6165   21.0351  -32.2365 H   0  0  0  0  0  0  0  0  0  0  0  0
   -3.1831   23.2882  -31.2704 H   0  0  0  0  0  0  0  0  0  0  0  0
  1  2  1  0
  2  3  1  0
  3  4  2  0
  4  5  1  0
  5  6  2  0
  6  7  1  0
  7  8  2  0
  8  9  1  0
  9 10  2  0
  9 11  1  0
 11 12  1  0
 12 13  1  0
 13 14  2  0
 14 15  1  0
 15 16  2  0
 16 17  1  0
 17 18  2  0
 17 19  1  0
 19 20  1  0
 20 21  2  0
 21 22  1  0
 22 23  2  0
 23 24  1  0
 24 25  2  0
 25 26  1  0
 16 27  1  0
 27 28  2  0
  8  3  1  0
 28 13  1  0
 25 20  1  0
  1 29  1  0
  1 30  1  0
  1 31  1  0
  4 32  1  0
  5 33  1  0
  6 34  1  0
  7 35  1  0
 12 36  1  0
 12 37  1  0
 14 38  1  0
 15 39  1  0
 19 40  1  0
 21 41  1  0
 22 42  1  0
 23 43  1  0
 24 44  1  0
 26 45  1  0
 26 46  1  0
 27 47  1  0
 28 48  1  0
M  CHG  1  11  -1
M  END
>  <UniqueID>  (32) 
29

>  <SMILES>  (32) 
CSc1ccccc1C(=O)[N-]Cc1ccc(C(=O)Nc2ccccc2N)cc1

>  <Energy>  (32) 
55.1633612790941

>  <Genealogy>  (32) 
CSc1ccccc1C(=O)[N-]Cc1ccc(C(=O)Nc2ccccc2N)cc1 (protonated)
CSc1ccccc1C(=O)[N-]Cc1ccc(C(=O)Nc2ccccc2N)cc1 (3D coordinates assigned)
CSc1ccccc1C(=O)[N-]Cc1ccc(C(=O)Nc2ccccc2N)cc1 (optimized conformer: 55.1633612790941 kcal/mol)

>  <smiles>  (32) 
CSc1ccccc1C(=O)NCc1ccc(C(=O)Nc2ccccc2N)cc1

>  <score_type>  (32) 
oracle

>  <origin>  (32) 
adgpu

>  <m_score__min__energy>  (32) 
-9.6999999999999993

>  <m_primary>  (32) 
energy

$$$$
32:0
     RDKit          3D

 53 55  0  0  0  0  0  0  0  0999 V2000
    0.4050   18.9060  -29.6020 C   0  0  0  0  0  0  0  0  0  0  0  0
   -0.7530   19.4500  -30.2260 O   0  0  0  0  0  0  0  0  0  0  0  0
   -0.7580   20.0860  -31.4780 C   0  0  0  0  0  0  0  0  0  0  0  0
    0.4190   20.2510  -32.2350 C   0  0  0  0  0  0  0  0  0  0  0  0
    0.3750   20.8890  -33.4780 C   0  0  0  0  0  0  0  0  0  0  0  0
   -0.8370   21.3730  -33.9730 C   0  0  0  0  0  0  0  0  0  0  0  0
   -2.0090   21.2140  -33.2320 C   0  0  0  0  0  0  0  0  0  0  0  0
   -1.9800   20.5600  -31.9910 C   0  0  0  0  0  0  0  0  0  0  0  0
   -3.1850   20.3950  -31.2360 N   0  0  0  0  0  0  0  0  0  0  0  0
   -4.7230   20.2530  -32.0210 S   0  0  0  0  0  0  0  0  0  0  0  0
   -5.3950   18.9700  -31.6230 O   0  0  0  0  0  0  0  0  0  0  0  0
   -4.5030   20.2070  -33.5070 O   0  0  0  0  0  0  0  0  0  0  0  0
   -5.7030   21.6790  -31.6310 C   0  0  0  0  0  0  0  0  0  0  0  0
   -5.0160   22.8530  -31.2820 C   0  0  0  0  0  0  0  0  0  0  0  0
   -5.7090   24.0200  -30.9350 C   0  0  0  0  0  0  0  0  0  0  0  0
   -4.9820   25.2580  -30.5860 C   0  0  0  0  0  0  0  0  0  0  0  0
   -5.6390   26.3060  -30.3530 O   0  0  0  0  0  0  0  0  0  0  0  0
   -3.5550   25.2980  -30.4610 N   0  0  0  0  0  0  0  0  0  0  0  0
   -2.7490   24.3350  -29.7170 C   0  0  0  0  0  0  0  0  0  0  0  0
   -3.5370   23.8120  -28.5150 C   0  0  0  0  0  0  0  0  0  0  0  0
   -2.8640   22.6090  -27.9030 C   0  0  0  0  0  0  0  0  0  0  0  0
   -1.6900   22.7650  -27.1460 C   0  0  0  0  0  0  0  0  0  0  0  0
   -1.0480   21.6460  -26.6070 C   0  0  0  0  0  0  0  0  0  0  0  0
   -1.5660   20.3670  -26.8240 C   0  0  0  0  0  0  0  0  0  0  0  0
   -2.7280   20.2040  -27.5850 C   0  0  0  0  0  0  0  0  0  0  0  0
   -3.3750   21.3190  -28.1260 C   0  0  0  0  0  0  0  0  0  0  0  0
   -7.1060   24.0230  -30.9700 C   0  0  0  0  0  0  0  0  0  0  0  0
   -7.8060   22.8640  -31.3040 C   0  0  0  0  0  0  0  0  0  0  0  0
   -7.1220   21.6770  -31.6190 C   0  0  0  0  0  0  0  0  0  0  0  0
   -7.9310   20.4580  -31.9710 C   0  0  0  0  0  0  0  0  0  0  0  0
    0.2918   18.9592  -28.5091 H   0  0  0  0  0  0  0  0  0  0  0  0
    0.5271   17.8563  -29.9073 H   0  0  0  0  0  0  0  0  0  0  0  0
    1.2909   19.4821  -29.9073 H   0  0  0  0  0  0  0  0  0  0  0  0
    1.3771   19.8759  -31.8459 H   0  0  0  0  0  0  0  0  0  0  0  0
    1.2964   21.0097  -34.0666 H   0  0  0  0  0  0  0  0  0  0  0  0
   -0.8685   21.8804  -34.9485 H   0  0  0  0  0  0  0  0  0  0  0  0
   -2.9605   21.6035  -33.6230 H   0  0  0  0  0  0  0  0  0  0  0  0
   -3.1190   20.0210  -30.2620 H   0  0  0  0  0  0  0  0  0  0  0  0
   -3.9160   22.8563  -31.2811 H   0  0  0  0  0  0  0  0  0  0  0  0
   -2.4872   23.4934  -30.3751 H   0  0  0  0  0  0  0  0  0  0  0  0
   -1.8329   24.8291  -29.3612 H   0  0  0  0  0  0  0  0  0  0  0  0
   -3.6072   24.6074  -27.7584 H   0  0  0  0  0  0  0  0  0  0  0  0
   -4.5386   23.5136  -28.8583 H   0  0  0  0  0  0  0  0  0  0  0  0
   -1.2754   23.7698  -26.9772 H   0  0  0  0  0  0  0  0  0  0  0  0
   -0.1326   21.7731  -26.0105 H   0  0  0  0  0  0  0  0  0  0  0  0
   -1.0603   19.4886  -26.3966 H   0  0  0  0  0  0  0  0  0  0  0  0
   -3.1337   19.1964  -27.7582 H   0  0  0  0  0  0  0  0  0  0  0  0
   -4.2862   21.1863  -28.7277 H   0  0  0  0  0  0  0  0  0  0  0  0
   -7.6568   24.9451  -30.7327 H   0  0  0  0  0  0  0  0  0  0  0  0
   -8.9058   22.8788  -31.3212 H   0  0  0  0  0  0  0  0  0  0  0  0
   -8.2623   19.9588  -31.0485 H   0  0  0  0  0  0  0  0  0  0  0  0
   -8.8094   20.7587  -32.5609 H   0  0  0  0  0  0  0  0  0  0  0  0
   -7.3127   19.7654  -32.5609 H   0  0  0  0  0  0  0  0  0  0  0  0
  1  2  1  0
  2  3  1  0
  3  4  2  0
  4  5  1  0
  5  6  2  0
  6  7  1  0
  7  8  2  0
  8  9  1  0
  9 10  1  0
 10 11  2  0
 10 12  2  0
 10 13  1  0
 13 14  2  0
 14 15  1  0
 15 16  1  0
 16 17  2  0
 16 18  1  0
 18 19  1  0
 19 20  1  0
 20 21  1  0
 21 22  2  0
 22 23  1  0
 23 24  2  0
 24 25  1  0
 25 26  2  0
 15 27  2  0
 27 28  1  0
 28 29  2  0
 29 30  1  0
  8  3  1  0
 29 13  1  0
 26 21  1  0
  1 31  1  0
  1 32  1  0
  1 33  1  0
  4 34  1  0
  5 35  1  0
  6 36  1  0
  7 37  1  0
  9 38  1  0
 14 39  1  0
 19 40  1  0
 19 41  1  0
 20 42  1  0
 20 43  1  0
 22 44  1  0
 23 45  1  0
 24 46  1  0
 25 47  1  0
 26 48  1  0
 27 49  1  0
 28 50  1  0
 30 51  1  0
 30 52  1  0
 30 53  1  0
M  CHG  1  18  -1
M  END
>  <UniqueID>  (33) 
30

>  <SMILES>  (33) 
COc1ccccc1NS(=O)(=O)c1cc(C(=O)[N-]CCc2ccccc2)ccc1C

>  <Energy>  (33) 
61.74614028383979

>  <Genealogy>  (33) 
COc1ccccc1NS(=O)(=O)c1cc(C(=O)[N-]CCc2ccccc2)ccc1C (protonated)
COc1ccccc1NS(=O)(=O)c1cc(C(=O)[N-]CCc2ccccc2)ccc1C (3D coordinates assigned)
COc1ccccc1NS(=O)(=O)c1cc(C(=O)[N-]CCc2ccccc2)ccc1C (optimized conformer: 61.74614028383979 kcal/mol)

>  <smiles>  (33) 
COc1ccccc1NS(=O)(=O)c1cc(C(=O)NCCc2ccccc2)ccc1C

>  <score_type>  (33) 
oracle

>  <origin>  (33) 
adgpu

>  <m_score__min__energy>  (33) 
-10.880000000000001

>  <m_primary>  (33) 
energy

$$$$
33:0
     RDKit          3D

 44 46  0  0  0  0  0  0  0  0999 V2000
   -5.9700   25.7670  -29.8370 O   0  0  0  0  0  0  0  0  0  0  0  0
   -5.1930   25.2890  -30.7050 C   0  0  0  0  0  0  0  0  0  0  0  0
   -5.7430   24.6550  -31.8630 N   0  0  0  0  0  0  0  0  0  0  0  0
   -6.3160   23.3410  -31.8860 C   0  0  0  0  0  0  0  0  0  0  0  0
   -7.6230   23.1590  -31.4220 C   0  0  0  0  0  0  0  0  0  0  0  0
   -8.2070   21.8900  -31.4350 C   0  0  0  0  0  0  0  0  0  0  0  0
   -7.4910   20.7940  -31.9260 C   0  0  0  0  0  0  0  0  0  0  0  0
   -6.1910   20.9660  -32.4190 C   0  0  0  0  0  0  0  0  0  0  0  0
   -5.2810   19.5860  -33.0390 S   0  0  0  0  0  0  0  0  0  0  0  0
   -6.0030   19.0100  -34.2250 O   0  0  0  0  0  0  0  0  0  0  0  0
   -5.2080   18.5220  -31.9780 O   0  0  0  0  0  0  0  0  0  0  0  0
   -3.6630   20.0470  -33.5120 N   0  0  0  0  0  0  0  0  0  0  0  0
   -2.9030   18.8580  -33.9580 C   0  0  0  0  0  0  0  0  0  0  0  0
   -1.3980   19.1380  -33.9900 C   0  0  0  0  0  0  0  0  0  0  0  0
   -0.8670   19.4750  -32.5850 C   0  0  0  0  0  0  0  0  0  0  0  0
   -1.9520   20.0570  -31.6630 C   0  0  0  0  0  0  0  0  0  0  0  0
   -2.9920   20.8560  -32.4630 C   0  0  0  0  0  0  0  0  0  0  0  0
   -5.6130   22.2430  -32.4120 C   0  0  0  0  0  0  0  0  0  0  0  0
   -3.7760   25.2980  -30.4880 N   0  0  0  0  0  0  0  0  0  0  0  0
   -3.0730   24.4560  -29.5650 C   0  0  0  0  0  0  0  0  0  0  0  0
   -3.6030   23.1930  -29.2720 C   0  0  0  0  0  0  0  0  0  0  0  0
   -2.9360   22.3310  -28.3960 C   0  0  0  0  0  0  0  0  0  0  0  0
   -1.7270   22.7230  -27.8160 C   0  0  0  0  0  0  0  0  0  0  0  0
   -1.1770   23.9700  -28.1220 C   0  0  0  0  0  0  0  0  0  0  0  0
   -1.8360   24.8340  -29.0040 C   0  0  0  0  0  0  0  0  0  0  0  0
   -1.2380   26.0430  -29.3390 O   0  0  0  0  0  0  0  0  0  0  0  0
   -8.1942   24.0200  -31.0447 H   0  0  0  0  0  0  0  0  0  0  0  0
   -9.2314   21.7529  -31.0585 H   0  0  0  0  0  0  0  0  0  0  0  0
   -7.9496   19.7942  -31.9252 H   0  0  0  0  0  0  0  0  0  0  0  0
   -3.0980   18.0273  -33.2639 H   0  0  0  0  0  0  0  0  0  0  0  0
   -3.2293   18.5999  -34.9763 H   0  0  0  0  0  0  0  0  0  0  0  0
   -0.8748   18.2471  -34.3677 H   0  0  0  0  0  0  0  0  0  0  0  0
   -1.2170   20.0007  -34.6481 H   0  0  0  0  0  0  0  0  0  0  0  0
   -0.4733   18.5552  -32.1278 H   0  0  0  0  0  0  0  0  0  0  0  0
   -0.0847   20.2396  -32.7005 H   0  0  0  0  0  0  0  0  0  0  0  0
   -2.4582   19.2324  -31.1398 H   0  0  0  0  0  0  0  0  0  0  0  0
   -1.4701   20.7355  -30.9437 H   0  0  0  0  0  0  0  0  0  0  0  0
   -3.7567   21.2315  -31.7671 H   0  0  0  0  0  0  0  0  0  0  0  0
   -2.4599   21.6751  -32.9690 H   0  0  0  0  0  0  0  0  0  0  0  0
   -4.6021   22.3870  -32.8210 H   0  0  0  0  0  0  0  0  0  0  0  0
   -4.5500   22.8772  -29.7340 H   0  0  0  0  0  0  0  0  0  0  0  0
   -3.3632   21.3443  -28.1636 H   0  0  0  0  0  0  0  0  0  0  0  0
   -1.2080   22.0494  -27.1181 H   0  0  0  0  0  0  0  0  0  0  0  0
   -0.2223   24.2741  -27.6680 H   0  0  0  0  0  0  0  0  0  0  0  0
  1  2  2  0
  2  3  1  0
  3  4  1  0
  4  5  2  0
  5  6  1  0
  6  7  2  0
  7  8  1  0
  8  9  1  0
  9 10  2  0
  9 11  2  0
  9 12  1  0
 12 13  1  0
 13 14  1  0
 14 15  1  0
 15 16  1  0
 16 17  1  0
  8 18  2  0
  2 19  1  0
 19 20  1  0
 20 21  2  0
 21 22  1  0
 22 23  2  0
 23 24  1  0
 24 25  2  0
 25 26  1  0
 18  4  1  0
 25 20  1  0
 17 12  1  0
  5 27  1  0
  6 28  1  0
  7 29  1  0
 13 30  1  0
 13 31  1  0
 14 32  1  0
 14 33  1  0
 15 34  1  0
 15 35  1  0
 16 36  1  0
 16 37  1  0
 17 38  1  0
 17 39  1  0
 18 40  1  0
 21 41  1  0
 22 42  1  0
 23 43  1  0
 24 44  1  0
M  CHG  3   3  -1  19  -1  26  -1
M  END
>  <UniqueID>  (34) 
31

>  <SMILES>  (34) 
O=C([N-]c1cccc(S(=O)(=O)N2CCCCC2)c1)[N-]c1ccccc1[O-]

>  <Energy>  (34) 
56.60890749568379

>  <Genealogy>  (34) 
O=C([N-]c1cccc(S(=O)(=O)N2CCCCC2)c1)[N-]c1ccccc1[O-] (protonated)
O=C([N-]c1cccc(S(=O)(=O)N2CCCCC2)c1)[N-]c1ccccc1[O-] (3D coordinates assigned)
O=C([N-]c1cccc(S(=O)(=O)N2CCCCC2)c1)[N-]c1ccccc1[O-] (nonaromatic ring conformer: 56.60890749568379 kcal/mol)

>  <smiles>  (34) 
O=C(Nc1cccc(S(=O)(=O)N2CCCCC2)c1)Nc1ccccc1O

>  <score_type>  (34) 
oracle

>  <origin>  (34) 
adgpu

>  <m_score__min__energy>  (34) 
-14.65

>  <m_primary>  (34) 
energy

$$$$
34:0
     RDKit          3D

 48 51  0  0  0  0  0  0  0  0999 V2000
   -1.6660   21.7360  -32.1440 O   0  0  0  0  0  0  0  0  0  0  0  0
   -2.6810   21.0210  -32.3770 C   0  0  0  0  0  0  0  0  0  0  0  0
   -3.9970   21.5250  -32.0840 N   0  0  0  0  0  0  0  0  0  0  0  0
   -4.2460   22.7890  -31.4440 C   0  0  0  0  0  0  0  0  0  0  0  0
   -5.5310   23.3490  -31.5060 C   0  0  0  0  0  0  0  0  0  0  0  0
   -5.8050   24.5650  -30.8730 C   0  0  0  0  0  0  0  0  0  0  0  0
   -4.8010   25.2230  -30.1590 C   0  0  0  0  0  0  0  0  0  0  0  0
   -3.5240   24.6620  -30.0670 C   0  0  0  0  0  0  0  0  0  0  0  0
   -2.5310   25.3080  -29.3410 O   0  0  0  0  0  0  0  0  0  0  0  0
   -3.2460   23.4450  -30.7020 C   0  0  0  0  0  0  0  0  0  0  0  0
   -2.4860   19.6740  -32.9650 C   0  0  0  0  0  0  0  0  0  0  0  0
   -1.2790   19.3170  -33.5930 C   0  0  0  0  0  0  0  0  0  0  0  0
   -1.1110   18.0330  -34.1190 C   0  0  0  0  0  0  0  0  0  0  0  0
   -2.1300   17.0870  -34.0040 C   0  0  0  0  0  0  0  0  0  0  0  0
   -3.3270   17.4150  -33.3530 C   0  0  0  0  0  0  0  0  0  0  0  0
   -4.5730   16.1810  -33.1180 S   0  0  0  0  0  0  0  0  0  0  0  0
   -5.0780   16.2860  -31.7060 O   0  0  0  0  0  0  0  0  0  0  0  0
   -3.9530   14.8210  -33.2830 O   0  0  0  0  0  0  0  0  0  0  0  0
   -5.9400   16.3660  -34.2080 N   0  0  0  0  0  0  0  0  0  0  0  0
   -5.7480   17.4140  -35.2260 C   0  0  0  0  0  0  0  0  0  0  0  0
   -5.7340   18.8300  -34.6320 C   0  0  0  0  0  0  0  0  0  0  0  0
   -6.7410   19.0170  -33.5270 C   0  0  0  0  0  0  0  0  0  0  0  0
   -6.9320   20.2990  -32.9890 C   0  0  0  0  0  0  0  0  0  0  0  0
   -7.7970   20.4920  -31.9100 C   0  0  0  0  0  0  0  0  0  0  0  0
   -8.4810   19.4080  -31.3590 C   0  0  0  0  0  0  0  0  0  0  0  0
   -8.2960   18.1250  -31.8820 C   0  0  0  0  0  0  0  0  0  0  0  0
   -7.4120   17.9170  -32.9520 C   0  0  0  0  0  0  0  0  0  0  0  0
   -7.2220   16.5240  -33.5010 C   0  0  0  0  0  0  0  0  0  0  0  0
   -3.5080   18.7140  -32.8580 C   0  0  0  0  0  0  0  0  0  0  0  0
   -4.8320   20.9810  -32.3940 H   0  0  0  0  0  0  0  0  0  0  0  0
   -6.3281   22.8278  -32.0563 H   0  0  0  0  0  0  0  0  0  0  0  0
   -6.8117   25.0037  -30.9373 H   0  0  0  0  0  0  0  0  0  0  0  0
   -5.0155   26.1839  -29.6684 H   0  0  0  0  0  0  0  0  0  0  0  0
   -2.2431   23.0005  -30.6206 H   0  0  0  0  0  0  0  0  0  0  0  0
   -0.4638   20.0515  -33.6705 H   0  0  0  0  0  0  0  0  0  0  0  0
   -0.1715   17.7673  -34.6257 H   0  0  0  0  0  0  0  0  0  0  0  0
   -1.9935   16.0803  -34.4257 H   0  0  0  0  0  0  0  0  0  0  0  0
   -4.7888   17.2374  -35.7347 H   0  0  0  0  0  0  0  0  0  0  0  0
   -6.5977   17.3569  -35.9222 H   0  0  0  0  0  0  0  0  0  0  0  0
   -4.7304   19.0307  -34.2288 H   0  0  0  0  0  0  0  0  0  0  0  0
   -6.0001   19.5274  -35.4400 H   0  0  0  0  0  0  0  0  0  0  0  0
   -6.3966   21.1577  -33.4203 H   0  0  0  0  0  0  0  0  0  0  0  0
   -7.9394   21.5002  -31.4938 H   0  0  0  0  0  0  0  0  0  0  0  0
   -9.1662   19.5631  -30.5126 H   0  0  0  0  0  0  0  0  0  0  0  0
   -8.8459   17.2744  -31.4529 H   0  0  0  0  0  0  0  0  0  0  0  0
   -7.2549   15.8084  -32.6662 H   0  0  0  0  0  0  0  0  0  0  0  0
   -8.0283   16.3378  -34.2257 H   0  0  0  0  0  0  0  0  0  0  0  0
   -4.4608   18.9856  -32.3802 H   0  0  0  0  0  0  0  0  0  0  0  0
  1  2  2  0
  2  3  1  0
  3  4  1  0
  4  5  2  0
  5  6  1  0
  6  7  2  0
  7  8  1  0
  8  9  1  0
  8 10  2  0
  2 11  1  0
 11 12  2  0
 12 13  1  0
 13 14  2  0
 14 15  1  0
 15 16  1  0
 16 17  2  0
 16 18  2  0
 16 19  1  0
 19 20  1  0
 20 21  1  0
 21 22  1  0
 22 23  2  0
 23 24  1  0
 24 25  2  0
 25 26  1  0
 26 27  2  0
 27 28  1  0
 15 29  2  0
 10  4  1  0
 29 11  1  0
 28 19  1  0
 27 22  1  0
  3 30  1  0
  5 31  1  0
  6 32  1  0
  7 33  1  0
 10 34  1  0
 12 35  1  0
 13 36  1  0
 14 37  1  0
 20 38  1  0
 20 39  1  0
 21 40  1  0
 21 41  1  0
 23 42  1  0
 24 43  1  0
 25 44  1  0
 26 45  1  0
 28 46  1  0
 28 47  1  0
 29 48  1  0
M  CHG  1   9  -1
M  END
>  <UniqueID>  (35) 
32

>  <SMILES>  (35) 
O=C(Nc1cccc([O-])c1)c1cccc(S(=O)(=O)N2CCc3ccccc3C2)c1

>  <Energy>  (35) 
61.88191754572808

>  <Genealogy>  (35) 
O=C(Nc1cccc([O-])c1)c1cccc(S(=O)(=O)N2CCc3ccccc3C2)c1 (protonated)
O=C(Nc1cccc([O-])c1)c1cccc(S(=O)(=O)N2CCc3ccccc3C2)c1 (3D coordinates assigned)
O=C(Nc1cccc([O-])c1)c1cccc(S(=O)(=O)N2CCc3ccccc3C2)c1 (nonaromatic ring conformer: 61.88191754572808 kcal/mol)

>  <smiles>  (35) 
O=C(Nc1cccc(O)c1)c1cccc(S(=O)(=O)N2CCc3ccccc3C2)c1

>  <score_type>  (35) 
oracle

>  <origin>  (35) 
adgpu

>  <m_score__min__energy>  (35) 
-13.17

>  <m_primary>  (35) 
energy

$$$$
35:0
     RDKit          3D

 54 56  0  0  0  0  0  0  0  0999 V2000
    0.0410   18.8920  -31.2570 C   0  0  0  0  0  0  0  0  0  0  0  0
    0.1870   20.3610  -31.6430 C   0  0  0  0  0  0  0  0  0  0  0  0
   -1.1250   21.0330  -31.6590 N   0  0  0  0  0  0  0  0  0  0  0  0
   -1.8930   21.0560  -32.8740 C   0  0  0  0  0  0  0  0  0  0  0  0
   -1.3920   21.5660  -33.9110 O   0  0  0  0  0  0  0  0  0  0  0  0
   -3.2600   20.5120  -32.9210 C   0  0  0  0  0  0  0  0  0  0  0  0
   -3.6850   19.4620  -33.7300 C   0  0  0  0  0  0  0  0  0  0  0  0
   -5.0520   19.1860  -33.6130 C   0  0  0  0  0  0  0  0  0  0  0  0
   -5.6980   20.0190  -32.7070 C   0  0  0  0  0  0  0  0  0  0  0  0
   -7.1060   20.0310  -32.4250 N   0  0  0  0  0  0  0  0  0  0  0  0
   -7.8710   18.9270  -32.3150 C   0  0  0  0  0  0  0  0  0  0  0  0
   -9.1840   19.2800  -32.0890 C   0  0  0  0  0  0  0  0  0  0  0  0
   -9.2270   20.6590  -32.0760 C   0  0  0  0  0  0  0  0  0  0  0  0
   -7.9310   21.0980  -32.2910 C   0  0  0  0  0  0  0  0  0  0  0  0
   -7.5400   22.5430  -32.4570 C   0  0  0  0  0  0  0  0  0  0  0  0
   -7.4620   23.2160  -31.1590 N   0  0  0  0  0  0  0  0  0  0  0  0
   -6.2330   23.5320  -30.4770 C   0  0  0  0  0  0  0  0  0  0  0  0
   -5.4480   24.5970  -30.9390 C   0  0  0  0  0  0  0  0  0  0  0  0
   -4.2530   24.9320  -30.2960 C   0  0  0  0  0  0  0  0  0  0  0  0
   -3.8230   24.2120  -29.1680 C   0  0  0  0  0  0  0  0  0  0  0  0
   -2.5530   24.5630  -28.4890 C   0  0  0  0  0  0  0  0  0  0  0  0
   -1.7210   25.6020  -29.0000 N   0  0  0  0  0  0  0  0  0  0  0  0
   -2.1970   23.9470  -27.4480 O   0  0  0  0  0  0  0  0  0  0  0  0
   -4.6200   23.1550  -28.6930 C   0  0  0  0  0  0  0  0  0  0  0  0
   -5.8170   22.8230  -29.3370 C   0  0  0  0  0  0  0  0  0  0  0  0
   -4.5900   21.1190  -32.0810 S   0  0  0  0  0  0  0  0  0  0  0  0
   -1.6500   21.7420  -30.4770 C   0  0  0  0  0  0  0  0  0  0  0  0
   -2.3960   20.7770  -29.5470 C   0  0  0  0  0  0  0  0  0  0  0  0
   -0.5320   22.4860  -29.7370 C   0  0  0  0  0  0  0  0  0  0  0  0
    0.0319   18.8001  -30.1609 H   0  0  0  0  0  0  0  0  0  0  0  0
   -0.9008   18.4973  -31.6659 H   0  0  0  0  0  0  0  0  0  0  0  0
    0.8867   18.3196  -31.6659 H   0  0  0  0  0  0  0  0  0  0  0  0
    0.8396   20.8622  -30.9130 H   0  0  0  0  0  0  0  0  0  0  0  0
    0.6237   20.4181  -32.6510 H   0  0  0  0  0  0  0  0  0  0  0  0
   -3.0116   18.9033  -34.3967 H   0  0  0  0  0  0  0  0  0  0  0  0
   -5.5620   18.3926  -34.1790 H   0  0  0  0  0  0  0  0  0  0  0  0
   -7.5012   17.8941  -32.3941 H   0  0  0  0  0  0  0  0  0  0  0  0
  -10.0329   18.5952  -31.9466 H   0  0  0  0  0  0  0  0  0  0  0  0
  -10.1171   21.2873  -31.9244 H   0  0  0  0  0  0  0  0  0  0  0  0
   -6.5579   22.5960  -32.9496 H   0  0  0  0  0  0  0  0  0  0  0  0
   -8.3042   23.0457  -33.0680 H   0  0  0  0  0  0  0  0  0  0  0  0
   -8.3570   23.5400  -30.7270 H   0  0  0  0  0  0  0  0  0  0  0  0
   -5.7754   25.1748  -31.8159 H   0  0  0  0  0  0  0  0  0  0  0  0
   -3.6442   25.7658  -30.6758 H   0  0  0  0  0  0  0  0  0  0  0  0
   -1.5160   25.6730  -30.0220 H   0  0  0  0  0  0  0  0  0  0  0  0
   -4.2998   22.5849  -27.8084 H   0  0  0  0  0  0  0  0  0  0  0  0
   -6.4367   22.0014  -28.9484 H   0  0  0  0  0  0  0  0  0  0  0  0
   -2.3723   22.4956  -30.8239 H   0  0  0  0  0  0  0  0  0  0  0  0
   -2.1897   21.0438  -28.5000 H   0  0  0  0  0  0  0  0  0  0  0  0
   -3.4772   20.8469  -29.7370 H   0  0  0  0  0  0  0  0  0  0  0  0
   -2.0561   19.7483  -29.7370 H   0  0  0  0  0  0  0  0  0  0  0  0
   -0.6813   22.3866  -28.6517 H   0  0  0  0  0  0  0  0  0  0  0  0
    0.4413   22.0548  -30.0142 H   0  0  0  0  0  0  0  0  0  0  0  0
   -0.5539   23.5503  -30.0142 H   0  0  0  0  0  0  0  0  0  0  0  0
  1  2  1  0
  2  3  1  0
  3  4  1  0
  4  5  2  0
  4  6  1  0
  6  7  2  0
  7  8  1  0
  8  9  2  0
  9 10  1  0
 10 11  1  0
 11 12  2  0
 12 13  1  0
 13 14  2  0
 14 15  1  0
 15 16  1  0
 16 17  1  0
 17 18  2  0
 18 19  1  0
 19 20  2  0
 20 21  1  0
 21 22  1  0
 21 23  2  0
 20 24  1  0
 24 25  2  0
  9 26  1  0
  3 27  1  0
 27 28  1  0
 27 29  1  0
 26  6  1  0
 14 10  1  0
 25 17  1  0
  1 30  1  0
  1 31  1  0
  1 32  1  0
  2 33  1  0
  2 34  1  0
  7 35  1  0
  8 36  1  0
 11 37  1  0
 12 38  1  0
 13 39  1  0
 15 40  1  0
 15 41  1  0
 16 42  1  0
 18 43  1  0
 19 44  1  0
 22 45  1  0
 24 46  1  0
 25 47  1  0
 27 48  1  0
 28 49  1  0
 28 50  1  0
 28 51  1  0
 29 52  1  0
 29 53  1  0
 29 54  1  0
M  CHG  1  22  -1
M  END
>  <UniqueID>  (36) 
33

>  <SMILES>  (36) 
CCN(C(=O)c1ccc(-n2cccc2CNc2ccc(C([NH-])=O)cc2)s1)C(C)C

>  <Energy>  (36) 
110.01466864189553

>  <Genealogy>  (36) 
CCN(C(=O)c1ccc(-n2cccc2CNc2ccc(C([NH-])=O)cc2)s1)C(C)C (protonated)
CCN(C(=O)c1ccc(-n2cccc2CNc2ccc(C([NH-])=O)cc2)s1)C(C)C (3D coordinates assigned)
CCN(C(=O)c1ccc(-n2cccc2CNc2ccc(C([NH-])=O)cc2)s1)C(C)C (optimized conformer: 110.01466864189553 kcal/mol)

>  <smiles>  (36) 
CCN(C(=O)c1ccc(-n2cccc2CNc2ccc(C(N)=O)cc2)s1)C(C)C

>  <score_type>  (36) 
oracle

>  <origin>  (36) 
adgpu

>  <m_score__min__energy>  (36) 
-10.5

>  <m_primary>  (36) 
energy

$$$$
36:0
     RDKit          3D

 51 54  0  0  0  0  0  0  0  0999 V2000
   -1.6300   18.2320  -34.2310 C   0  0  0  0  0  0  0  0  0  0  0  0
   -2.9390   17.5100  -34.1900 C   0  0  0  0  0  0  0  0  0  0  0  0
   -3.0370   16.1900  -34.6440 C   0  0  0  0  0  0  0  0  0  0  0  0
   -4.2780   15.5490  -34.6200 C   0  0  0  0  0  0  0  0  0  0  0  0
   -5.4070   16.2270  -34.1540 C   0  0  0  0  0  0  0  0  0  0  0  0
   -6.6440   15.5900  -34.1760 O   0  0  0  0  0  0  0  0  0  0  0  0
   -5.2750   17.5530  -33.6980 C   0  0  0  0  0  0  0  0  0  0  0  0
   -6.4250   18.3260  -33.1820 C   0  0  0  0  0  0  0  0  0  0  0  0
   -7.0970   17.9370  -32.0100 C   0  0  0  0  0  0  0  0  0  0  0  0
   -8.1250   18.7280  -31.4880 C   0  0  0  0  0  0  0  0  0  0  0  0
   -8.4970   19.9190  -32.1280 C   0  0  0  0  0  0  0  0  0  0  0  0
   -9.4830   20.8570  -31.4770 C   0  0  0  0  0  0  0  0  0  0  0  0
   -9.1910   22.3270  -31.8280 C   0  0  0  0  0  0  0  0  0  0  0  0
   -7.7310   22.6490  -31.7080 C   0  0  0  0  0  0  0  0  0  0  0  0
   -7.0310   23.5470  -32.5040 C   0  0  0  0  0  0  0  0  0  0  0  0
   -5.6440   23.4690  -32.3390 C   0  0  0  0  0  0  0  0  0  0  0  0
   -5.2520   22.5200  -31.3990 C   0  0  0  0  0  0  0  0  0  0  0  0
   -3.8620   22.1080  -31.1230 C   0  0  0  0  0  0  0  0  0  0  0  0
   -3.4210   20.8770  -31.6400 C   0  0  0  0  0  0  0  0  0  0  0  0
   -2.1340   20.4110  -31.3660 C   0  0  0  0  0  0  0  0  0  0  0  0
   -1.2700   21.1700  -30.5780 C   0  0  0  0  0  0  0  0  0  0  0  0
   -1.6890   22.4010  -30.0650 C   0  0  0  0  0  0  0  0  0  0  0  0
   -2.9770   22.8890  -30.3380 C   0  0  0  0  0  0  0  0  0  0  0  0
   -3.4150   24.4920  -29.7210 S   0  0  0  0  0  0  0  0  0  0  0  0
   -2.0010   25.3010  -29.1450 N   0  0  0  0  0  0  0  0  0  0  0  0
   -4.4160   24.3640  -28.6060 O   0  0  0  0  0  0  0  0  0  0  0  0
   -4.0360   25.3100  -30.8190 O   0  0  0  0  0  0  0  0  0  0  0  0
   -6.6260   21.7470  -30.8110 S   0  0  0  0  0  0  0  0  0  0  0  0
   -7.8370   20.3000  -33.3070 C   0  0  0  0  0  0  0  0  0  0  0  0
   -6.8050   19.5160  -33.8240 C   0  0  0  0  0  0  0  0  0  0  0  0
   -4.0520   18.1520  -33.7440 N   0  0  0  0  0  0  0  0  0  0  0  0
   -1.2842   18.4228  -33.2044 H   0  0  0  0  0  0  0  0  0  0  0  0
   -0.8877   17.6157  -34.7594 H   0  0  0  0  0  0  0  0  0  0  0  0
   -1.7553   19.1886  -34.7594 H   0  0  0  0  0  0  0  0  0  0  0  0
   -2.1462   15.6626  -35.0159 H   0  0  0  0  0  0  0  0  0  0  0  0
   -4.3663   14.5094  -34.9684 H   0  0  0  0  0  0  0  0  0  0  0  0
   -6.8123   17.0046  -31.5005 H   0  0  0  0  0  0  0  0  0  0  0  0
   -8.6446   18.4144  -30.5706 H   0  0  0  0  0  0  0  0  0  0  0  0
  -10.4964   20.6033  -31.8213 H   0  0  0  0  0  0  0  0  0  0  0  0
   -9.3955   20.7420  -30.3865 H   0  0  0  0  0  0  0  0  0  0  0  0
   -9.5136   22.5169  -32.8623 H   0  0  0  0  0  0  0  0  0  0  0  0
   -9.7408   22.9635  -31.1191 H   0  0  0  0  0  0  0  0  0  0  0  0
   -7.5190   24.2497  -33.1955 H   0  0  0  0  0  0  0  0  0  0  0  0
   -4.9331   24.0959  -32.8972 H   0  0  0  0  0  0  0  0  0  0  0  0
   -4.0964   20.2756  -32.2662 H   0  0  0  0  0  0  0  0  0  0  0  0
   -1.8014   19.4443  -31.7721 H   0  0  0  0  0  0  0  0  0  0  0  0
   -0.2574   20.7998  -30.3597 H   0  0  0  0  0  0  0  0  0  0  0  0
   -1.0030   22.9931  -29.4414 H   0  0  0  0  0  0  0  0  0  0  0  0
   -1.4990   25.6710  -29.9850 H   0  0  0  0  0  0  0  0  0  0  0  0
   -8.1353   21.2225  -33.8266 H   0  0  0  0  0  0  0  0  0  0  0  0
   -6.2855   19.8321  -34.7406 H   0  0  0  0  0  0  0  0  0  0  0  0
  1  2  1  0
  2  3  2  0
  3  4  1  0
  4  5  2  0
  5  6  1  0
  5  7  1  0
  7  8  1  0
  8  9  2  0
  9 10  1  0
 10 11  2  0
 11 12  1  0
 12 13  1  0
 13 14  1  0
 14 15  2  0
 15 16  1  0
 16 17  2  0
 17 18  1  0
 18 19  2  0
 19 20  1  0
 20 21  2  0
 21 22  1  0
 22 23  2  0
 23 24  1  0
 24 25  1  0
 24 26  2  0
 24 27  2  0
 17 28  1  0
 11 29  1  0
 29 30  2  0
  7 31  2  0
 31  2  1  0
 30  8  1  0
 28 14  1  0
 23 18  1  0
  1 32  1  0
  1 33  1  0
  1 34  1  0
  3 35  1  0
  4 36  1  0
  9 37  1  0
 10 38  1  0
 12 39  1  0
 12 40  1  0
 13 41  1  0
 13 42  1  0
 15 43  1  0
 16 44  1  0
 19 45  1  0
 20 46  1  0
 21 47  1  0
 22 48  1  0
 25 49  1  0
 29 50  1  0
 30 51  1  0
M  CHG  2   6  -1  25  -1
M  END
>  <UniqueID>  (37) 
34

>  <SMILES>  (37) 
Cc1ccc([O-])c(-c2ccc(CCc3ccc(-c4ccccc4S([NH-])(=O)=O)s3)cc2)n1

>  <Energy>  (37) 
88.85056851268256

>  <Genealogy>  (37) 
Cc1ccc([O-])c(-c2ccc(CCc3ccc(-c4ccccc4S([NH-])(=O)=O)s3)cc2)n1 (protonated)
Cc1ccc([O-])c(-c2ccc(CCc3ccc(-c4ccccc4S([NH-])(=O)=O)s3)cc2)n1 (3D coordinates assigned)
Cc1ccc([O-])c(-c2ccc(CCc3ccc(-c4ccccc4S([NH-])(=O)=O)s3)cc2)n1 (optimized conformer: 88.85056851268256 kcal/mol)

>  <smiles>  (37) 
Cc1ccc(O)c(-c2ccc(CCc3ccc(-c4ccccc4S(N)(=O)=O)s3)cc2)n1

>  <score_type>  (37) 
oracle

>  <origin>  (37) 
adgpu

>  <m_score__min__energy>  (37) 
-14.390000000000001

>  <m_primary>  (37) 
energy

$$$$
37:0
     RDKit          3D

 43 45  0  0  0  0  0  0  0  0999 V2000
   -1.9950   24.1040  -27.2150 C   0  0  0  0  0  0  0  0  0  0  0  0
   -1.6610   24.7050  -28.5390 C   0  0  0  0  0  0  0  0  0  0  0  0
   -0.4900   24.5990  -28.9910 O   0  0  0  0  0  0  0  0  0  0  0  0
   -2.7030   25.2990  -29.3240 N   0  0  0  0  0  0  0  0  0  0  0  0
   -3.9140   24.6630  -29.7580 C   0  0  0  0  0  0  0  0  0  0  0  0
   -4.3790   23.4660  -29.1820 C   0  0  0  0  0  0  0  0  0  0  0  0
   -5.5530   22.8690  -29.6510 C   0  0  0  0  0  0  0  0  0  0  0  0
   -6.2660   23.4460  -30.7090 C   0  0  0  0  0  0  0  0  0  0  0  0
   -7.7380   22.6890  -31.3090 S   0  0  0  0  0  0  0  0  0  0  0  0
   -8.6520   23.7570  -31.8380 O   0  0  0  0  0  0  0  0  0  0  0  0
   -8.4370   21.9450  -30.2060 O   0  0  0  0  0  0  0  0  0  0  0  0
   -7.3650   21.5810  -32.5900 N   0  0  0  0  0  0  0  0  0  0  0  0
   -6.8930   20.2370  -32.4140 C   0  0  0  0  0  0  0  0  0  0  0  0
   -7.7180   19.2290  -31.8770 C   0  0  0  0  0  0  0  0  0  0  0  0
   -7.2290   17.9320  -31.7060 C   0  0  0  0  0  0  0  0  0  0  0  0
   -5.9180   17.6240  -32.0730 C   0  0  0  0  0  0  0  0  0  0  0  0
   -5.0920   18.6130  -32.6100 C   0  0  0  0  0  0  0  0  0  0  0  0
   -5.5720   19.9190  -32.7800 C   0  0  0  0  0  0  0  0  0  0  0  0
   -4.4730   21.1670  -33.4650 S   0  0  0  0  0  0  0  0  0  0  0  0
   -3.3760   21.1230  -32.0460 C   0  0  0  0  0  0  0  0  0  0  0  0
   -2.0560   21.5780  -32.1630 C   0  0  0  0  0  0  0  0  0  0  0  0
   -1.1980   21.5260  -31.0600 C   0  0  0  0  0  0  0  0  0  0  0  0
   -1.6580   21.0270  -29.8360 C   0  0  0  0  0  0  0  0  0  0  0  0
   -0.5790   20.9550  -28.4560 Cl  0  0  0  0  0  0  0  0  0  0  0  0
   -2.9800   20.5840  -29.7160 C   0  0  0  0  0  0  0  0  0  0  0  0
   -3.8390   20.6360  -30.8170 C   0  0  0  0  0  0  0  0  0  0  0  0
   -5.7940   24.6270  -31.2950 C   0  0  0  0  0  0  0  0  0  0  0  0
   -4.6190   25.2250  -30.8280 C   0  0  0  0  0  0  0  0  0  0  0  0
   -1.6300   24.7608  -26.4116 H   0  0  0  0  0  0  0  0  0  0  0  0
   -3.0857   23.9903  -27.1286 H   0  0  0  0  0  0  0  0  0  0  0  0
   -1.5156   23.1178  -27.1286 H   0  0  0  0  0  0  0  0  0  0  0  0
   -3.8169   22.9986  -28.3601 H   0  0  0  0  0  0  0  0  0  0  0  0
   -5.9184   21.9413  -29.1865 H   0  0  0  0  0  0  0  0  0  0  0  0
   -8.7535   19.4650  -31.5907 H   0  0  0  0  0  0  0  0  0  0  0  0
   -7.8781   17.1520  -31.2814 H   0  0  0  0  0  0  0  0  0  0  0  0
   -5.5355   16.6014  -31.9390 H   0  0  0  0  0  0  0  0  0  0  0  0
   -4.0602   18.3664  -32.9009 H   0  0  0  0  0  0  0  0  0  0  0  0
   -1.6946   21.9762  -33.1226 H   0  0  0  0  0  0  0  0  0  0  0  0
   -0.1601   21.8778  -31.1545 H   0  0  0  0  0  0  0  0  0  0  0  0
   -3.3435   20.1943  -28.7537 H   0  0  0  0  0  0  0  0  0  0  0  0
   -4.8799   20.2941  -30.7184 H   0  0  0  0  0  0  0  0  0  0  0  0
   -6.3495   25.0863  -32.1259 H   0  0  0  0  0  0  0  0  0  0  0  0
   -4.2466   26.1435  -31.3052 H   0  0  0  0  0  0  0  0  0  0  0  0
  1  2  1  0
  2  3  2  0
  2  4  1  0
  4  5  1  0
  5  6  2  0
  6  7  1  0
  7  8  2  0
  8  9  1  0
  9 10  2  0
  9 11  2  0
  9 12  1  0
 12 13  1  0
 13 14  2  0
 14 15  1  0
 15 16  2  0
 16 17  1  0
 17 18  2  0
 18 19  1  0
 19 20  1  0
 20 21  2  0
 21 22  1  0
 22 23  2  0
 23 24  1  0
 23 25  1  0
 25 26  2  0
  8 27  1  0
 27 28  2  0
 28  5  1  0
 18 13  1  0
 26 20  1  0
  1 29  1  0
  1 30  1  0
  1 31  1  0
  6 32  1  0
  7 33  1  0
 14 34  1  0
 15 35  1  0
 16 36  1  0
 17 37  1  0
 21 38  1  0
 22 39  1  0
 25 40  1  0
 26 41  1  0
 27 42  1  0
 28 43  1  0
M  CHG  2   4  -1  12  -1
M  END
>  <UniqueID>  (38) 
35

>  <SMILES>  (38) 
CC(=O)[N-]c1ccc(S(=O)(=O)[N-]c2ccccc2Sc2ccc(Cl)cc2)cc1

>  <Energy>  (38) 
44.46138414267413

>  <Genealogy>  (38) 
CC(=O)[N-]c1ccc(S(=O)(=O)[N-]c2ccccc2Sc2ccc(Cl)cc2)cc1 (protonated)
CC(=O)[N-]c1ccc(S(=O)(=O)[N-]c2ccccc2Sc2ccc(Cl)cc2)cc1 (3D coordinates assigned)
CC(=O)[N-]c1ccc(S(=O)(=O)[N-]c2ccccc2Sc2ccc(Cl)cc2)cc1 (optimized conformer: 44.46138414267413 kcal/mol)

>  <smiles>  (38) 
CC(=O)Nc1ccc(S(=O)(=O)Nc2ccccc2Sc2ccc(Cl)cc2)cc1

>  <score_type>  (38) 
oracle

>  <origin>  (38) 
adgpu

>  <m_score__min__energy>  (38) 
-10.57

>  <m_primary>  (38) 
energy

$$$$
38:0
     RDKit          3D

 43 45  0  0  0  0  0  0  0  0999 V2000
   -2.5660   22.7050  -33.4733 H   0  0  0  0  0  0  0  0  0  0  0  0
   -2.7700   21.9240  -32.7260 C   0  0  0  0  0  0  0  0  0  0  0  0
   -3.2180   20.7650  -33.1280 N   0  0  0  0  0  0  0  0  0  0  0  0
   -3.6130   19.7880  -32.2420 O   0  0  0  0  0  0  0  0  0  0  0  0
   -4.2750   18.6220  -32.7110 C   0  0  0  0  0  0  0  0  0  0  0  0
   -4.0013   18.4434  -33.7613 H   0  0  0  0  0  0  0  0  0  0  0  0
   -3.9721   17.7596  -32.0990 H   0  0  0  0  0  0  0  0  0  0  0  0
   -5.7630   18.8090  -32.6070 C   0  0  0  0  0  0  0  0  0  0  0  0
   -6.3950   19.8610  -33.2940 C   0  0  0  0  0  0  0  0  0  0  0  0
   -5.8028   20.5294  -33.9364 H   0  0  0  0  0  0  0  0  0  0  0  0
   -7.7730   20.0610  -33.1640 C   0  0  0  0  0  0  0  0  0  0  0  0
   -8.2637   20.8801  -33.7101 H   0  0  0  0  0  0  0  0  0  0  0  0
   -8.5280   19.2190  -32.3390 C   0  0  0  0  0  0  0  0  0  0  0  0
   -9.8680   19.4110  -32.2240 F   0  0  0  0  0  0  0  0  0  0  0  0
   -7.9050   18.1810  -31.6380 C   0  0  0  0  0  0  0  0  0  0  0  0
   -8.4997   17.5224  -30.9879 H   0  0  0  0  0  0  0  0  0  0  0  0
   -6.5270   17.9800  -31.7630 C   0  0  0  0  0  0  0  0  0  0  0  0
   -6.0379   17.1714  -31.2001 H   0  0  0  0  0  0  0  0  0  0  0  0
   -2.5300   22.2170  -31.3060 C   0  0  0  0  0  0  0  0  0  0  0  0
   -1.5390   21.7410  -30.4590 C   0  0  0  0  0  0  0  0  0  0  0  0
   -0.4790   20.7350  -30.7800 C   0  0  0  0  0  0  0  0  0  0  0  0
   -0.0578   20.3353  -29.8457 H   0  0  0  0  0  0  0  0  0  0  0  0
   -0.9182   19.9136  -31.3651 H   0  0  0  0  0  0  0  0  0  0  0  0
    0.3183   21.2165  -31.3651 H   0  0  0  0  0  0  0  0  0  0  0  0
   -1.6320   22.3650  -29.2650 N   0  0  0  0  0  0  0  0  0  0  0  0
   -2.6600   23.2000  -29.3200 N   0  0  0  0  0  0  0  0  0  0  0  0
   -2.9860   24.1340  -28.2450 C   0  0  0  0  0  0  0  0  0  0  0  0
   -2.8163   23.6479  -27.2729 H   0  0  0  0  0  0  0  0  0  0  0  0
   -2.3456   25.0247  -28.3263 H   0  0  0  0  0  0  0  0  0  0  0  0
   -4.0415   24.4327  -28.3263 H   0  0  0  0  0  0  0  0  0  0  0  0
   -3.2340   23.1170  -30.5400 C   0  0  0  0  0  0  0  0  0  0  0  0
   -4.2960   23.9010  -31.0090 O   0  0  0  0  0  0  0  0  0  0  0  0
   -5.6340   23.4980  -31.0760 C   0  0  0  0  0  0  0  0  0  0  0  0
   -6.2540   22.7830  -30.0330 C   0  0  0  0  0  0  0  0  0  0  0  0
   -5.6881   22.5414  -29.1212 H   0  0  0  0  0  0  0  0  0  0  0  0
   -7.5890   22.3790  -30.1540 C   0  0  0  0  0  0  0  0  0  0  0  0
   -8.0752   21.8317  -29.3329 H   0  0  0  0  0  0  0  0  0  0  0  0
   -8.3040   22.6720  -31.3200 C   0  0  0  0  0  0  0  0  0  0  0  0
   -9.3533   22.3558  -31.4150 H   0  0  0  0  0  0  0  0  0  0  0  0
   -7.6860   23.3670  -32.3660 C   0  0  0  0  0  0  0  0  0  0  0  0
   -8.2481   23.5921  -33.2843 H   0  0  0  0  0  0  0  0  0  0  0  0
   -6.3550   23.7750  -32.2440 C   0  0  0  0  0  0  0  0  0  0  0  0
   -5.8710   24.3167  -33.0700 H   0  0  0  0  0  0  0  0  0  0  0  0
  1  2  1  0
  2  3  2  0
  3  4  1  0
  4  5  1  0
  5  6  1  0
  5  7  1  0
  5  8  1  0
  8  9  2  0
  9 10  1  0
  9 11  1  0
 11 12  1  0
 11 13  2  0
 13 14  1  0
 13 15  1  0
 15 16  1  0
 15 17  2  0
 17 18  1  0
  2 19  1  0
 19 20  1  0
 20 21  1  0
 21 22  1  0
 21 23  1  0
 21 24  1  0
 20 25  2  0
 25 26  1  0
 26 27  1  0
 27 28  1  0
 27 29  1  0
 27 30  1  0
 26 31  1  0
 31 32  1  0
 32 33  1  0
 33 34  2  0
 34 35  1  0
 34 36  1  0
 36 37  1  0
 36 38  2  0
 38 39  1  0
 38 40  1  0
 40 41  1  0
 40 42  2  0
 42 43  1  0
 17  8  1  0
 31 19  2  0
 42 33  1  0
M  END
>  <UniqueID>  (39) 
36

>  <SMILES>  (39) 
Cc1nn(C)c(Oc2ccccc2)c1/C=N\OCc1ccc(F)cc1

>  <Energy>  (39) 
84.18592216679596

>  <Genealogy>  (39) 
Cc1nn(C)c(Oc2ccccc2)c1/C=N\OCc1ccc(F)cc1 (cis-trans isomerization)
Cc1nn(C)c(Oc2ccccc2)c1/C=N\OCc1ccc(F)cc1 (3D coordinates assigned)
Cc1nn(C)c(Oc2ccccc2)c1/C=N\OCc1ccc(F)cc1 (optimized conformer: 84.18592216679596 kcal/mol)

>  <smiles>  (39) 
Cc1nn(C)c(Oc2ccccc2)c1C=NOCc1ccc(F)cc1

>  <score_type>  (39) 
oracle

>  <origin>  (39) 
adgpu

>  <m_score__min__energy>  (39) 
-7.4500000000000002

>  <m_primary>  (39) 
energy

$$$$
39:0
     RDKit          3D

 50 52  0  0  0  0  0  0  0  0999 V2000
   -5.3980   25.3310  -30.1530 C   0  0  0  0  0  0  0  0  0  0  0  0
   -5.2770   24.4360  -31.2550 O   0  0  0  0  0  0  0  0  0  0  0  0
   -6.1590   23.3790  -31.5210 C   0  0  0  0  0  0  0  0  0  0  0  0
   -7.4870   23.3770  -31.0530 C   0  0  0  0  0  0  0  0  0  0  0  0
   -8.3320   22.2970  -31.3280 C   0  0  0  0  0  0  0  0  0  0  0  0
   -7.8680   21.2020  -32.0630 C   0  0  0  0  0  0  0  0  0  0  0  0
   -8.7790   20.1350  -32.3630 N   0  0  0  0  0  0  0  0  0  0  0  0
   -8.6150   18.7480  -32.0420 C   0  0  0  0  0  0  0  0  0  0  0  0
   -7.4240   17.9590  -32.4940 C   0  0  0  0  0  0  0  0  0  0  0  0
   -9.4820   18.1830  -31.3250 O   0  0  0  0  0  0  0  0  0  0  0  0
   -6.5550   21.2130  -32.5590 C   0  0  0  0  0  0  0  0  0  0  0  0
   -5.7040   22.2930  -32.2880 C   0  0  0  0  0  0  0  0  0  0  0  0
   -4.0410   22.2910  -32.9670 S   0  0  0  0  0  0  0  0  0  0  0  0
   -3.2930   22.1790  -31.3400 C   0  0  0  0  0  0  0  0  0  0  0  0
   -3.4980   21.0460  -30.5530 C   0  0  0  0  0  0  0  0  0  0  0  0
   -2.9670   20.9860  -29.2650 C   0  0  0  0  0  0  0  0  0  0  0  0
   -2.2230   22.0550  -28.7490 C   0  0  0  0  0  0  0  0  0  0  0  0
   -1.7010   21.9550  -27.0280 S   0  0  0  0  0  0  0  0  0  0  0  0
   -0.8810   20.3770  -27.2680 C   0  0  0  0  0  0  0  0  0  0  0  0
    0.3990   20.3360  -27.8340 C   0  0  0  0  0  0  0  0  0  0  0  0
    1.0460   19.1100  -28.0150 C   0  0  0  0  0  0  0  0  0  0  0  0
    0.4160   17.9150  -27.6380 C   0  0  0  0  0  0  0  0  0  0  0  0
    1.1090   16.6050  -27.8620 C   0  0  0  0  0  0  0  0  0  0  0  0
   -0.8690   17.9610  -27.0760 C   0  0  0  0  0  0  0  0  0  0  0  0
   -1.5090   19.1890  -26.8830 C   0  0  0  0  0  0  0  0  0  0  0  0
   -1.9690   23.1910  -29.5590 C   0  0  0  0  0  0  0  0  0  0  0  0
   -1.1420   24.3360  -29.1040 C   0  0  0  0  0  0  0  0  0  0  0  0
   -1.6570   25.6630  -29.1150 N   0  0  0  0  0  0  0  0  0  0  0  0
    0.0190   24.1340  -28.6560 O   0  0  0  0  0  0  0  0  0  0  0  0
   -2.5230   23.2380  -30.8510 C   0  0  0  0  0  0  0  0  0  0  0  0
   -5.3217   24.7664  -29.2120 H   0  0  0  0  0  0  0  0  0  0  0  0
   -4.5928   26.0791  -30.1981 H   0  0  0  0  0  0  0  0  0  0  0  0
   -6.3729   25.8384  -30.1981 H   0  0  0  0  0  0  0  0  0  0  0  0
   -7.8620   24.2296  -30.4678 H   0  0  0  0  0  0  0  0  0  0  0  0
   -9.3697   22.3092  -30.9632 H   0  0  0  0  0  0  0  0  0  0  0  0
   -6.8718   17.5932  -31.6158 H   0  0  0  0  0  0  0  0  0  0  0  0
   -7.7590   17.1036  -33.0990 H   0  0  0  0  0  0  0  0  0  0  0  0
   -6.7669   18.6011  -33.0990 H   0  0  0  0  0  0  0  0  0  0  0  0
   -6.1919   20.3691  -33.1639 H   0  0  0  0  0  0  0  0  0  0  0  0
   -4.0787   20.1995  -30.9484 H   0  0  0  0  0  0  0  0  0  0  0  0
   -3.1339   20.0906  -28.6482 H   0  0  0  0  0  0  0  0  0  0  0  0
    0.8961   21.2695  -28.1366 H   0  0  0  0  0  0  0  0  0  0  0  0
    2.0538   19.0825  -28.4551 H   0  0  0  0  0  0  0  0  0  0  0  0
    1.3510   16.1475  -26.8914 H   0  0  0  0  0  0  0  0  0  0  0  0
    0.4484   15.9330  -28.4295 H   0  0  0  0  0  0  0  0  0  0  0  0
    2.0362   16.7730  -28.4295 H   0  0  0  0  0  0  0  0  0  0  0  0
   -1.3744   17.0279  -26.7864 H   0  0  0  0  0  0  0  0  0  0  0  0
   -2.5095   19.2203  -26.4269 H   0  0  0  0  0  0  0  0  0  0  0  0
   -1.2270   26.4020  -29.7150 H   0  0  0  0  0  0  0  0  0  0  0  0
   -2.3480   24.1198  -31.4849 H   0  0  0  0  0  0  0  0  0  0  0  0
  1  2  1  0
  2  3  1  0
  3  4  2  0
  4  5  1  0
  5  6  2  0
  6  7  1  0
  7  8  1  0
  8  9  1  0
  8 10  2  0
  6 11  1  0
 11 12  2  0
 12 13  1  0
 13 14  1  0
 14 15  2  0
 15 16  1  0
 16 17  2  0
 17 18  1  0
 18 19  1  0
 19 20  2  0
 20 21  1  0
 21 22  2  0
 22 23  1  0
 22 24  1  0
 24 25  2  0
 17 26  1  0
 26 27  1  0
 27 28  1  0
 27 29  2  0
 26 30  2  0
 12  3  1  0
 30 14  1  0
 25 19  1  0
  1 31  1  0
  1 32  1  0
  1 33  1  0
  4 34  1  0
  5 35  1  0
  9 36  1  0
  9 37  1  0
  9 38  1  0
 11 39  1  0
 15 40  1  0
 16 41  1  0
 20 42  1  0
 21 43  1  0
 23 44  1  0
 23 45  1  0
 23 46  1  0
 24 47  1  0
 25 48  1  0
 28 49  1  0
 30 50  1  0
M  CHG  2   7  -1  28  -1
M  END
>  <UniqueID>  (40) 
37

>  <SMILES>  (40) 
COc1ccc([N-]C(C)=O)cc1Sc1ccc(Sc2ccc(C)cc2)c(C([NH-])=O)c1

>  <Energy>  (40) 
48.652334258378

>  <Genealogy>  (40) 
COc1ccc([N-]C(C)=O)cc1Sc1ccc(Sc2ccc(C)cc2)c(C([NH-])=O)c1 (protonated)
COc1ccc([N-]C(C)=O)cc1Sc1ccc(Sc2ccc(C)cc2)c(C([NH-])=O)c1 (3D coordinates assigned)
COc1ccc([N-]C(C)=O)cc1Sc1ccc(Sc2ccc(C)cc2)c(C([NH-])=O)c1 (optimized conformer: 48.652334258378 kcal/mol)

>  <smiles>  (40) 
COc1ccc(NC(C)=O)cc1Sc1ccc(Sc2ccc(C)cc2)c(C(N)=O)c1

>  <score_type>  (40) 
oracle

>  <origin>  (40) 
adgpu

>  <m_score__min__energy>  (40) 
-12.69

>  <m_primary>  (40) 
energy

$$$$
40:0
     RDKit          3D

 52 55  0  0  0  0  0  0  0  0999 V2000
    2.2490   24.9320  -26.1710 C   0  0  0  0  0  0  0  0  0  0  0  0
    1.8150   24.2290  -27.3300 O   0  0  0  0  0  0  0  0  0  0  0  0
    0.5180   24.3010  -27.8610 C   0  0  0  0  0  0  0  0  0  0  0  0
   -0.3120   25.4220  -27.6750 C   0  0  0  0  0  0  0  0  0  0  0  0
   -1.5980   25.4460  -28.2250 C   0  0  0  0  0  0  0  0  0  0  0  0
   -2.0740   24.3540  -28.9690 C   0  0  0  0  0  0  0  0  0  0  0  0
   -3.4320   24.3870  -29.5480 C   0  0  0  0  0  0  0  0  0  0  0  0
   -4.3720   23.4450  -29.3110 N   0  0  0  0  0  0  0  0  0  0  0  0
   -5.4250   23.8800  -30.0280 C   0  0  0  0  0  0  0  0  0  0  0  0
   -6.7240   23.1420  -30.1460 C   0  0  0  0  0  0  0  0  0  0  0  0
   -6.5920   21.9990  -31.0740 N   0  0  0  0  0  0  0  0  0  0  0  0
   -7.9160   21.3950  -31.3780 C   0  0  0  0  0  0  0  0  0  0  0  0
   -7.9220   20.5760  -32.6850 C   0  0  0  0  0  0  0  0  0  0  0  0
   -6.5630   20.1490  -33.0370 N   0  0  0  0  0  0  0  0  0  0  0  0
   -6.2770   18.7770  -33.3680 C   0  0  0  0  0  0  0  0  0  0  0  0
   -7.1560   17.7530  -32.9760 C   0  0  0  0  0  0  0  0  0  0  0  0
   -6.8770   16.4220  -33.2930 C   0  0  0  0  0  0  0  0  0  0  0  0
   -5.7140   16.0960  -33.9960 C   0  0  0  0  0  0  0  0  0  0  0  0
   -4.8120   17.1010  -34.3710 C   0  0  0  0  0  0  0  0  0  0  0  0
   -3.5820   16.7560  -35.1580 C   0  0  0  0  0  0  0  0  0  0  0  0
   -5.1030   18.4410  -34.0670 C   0  0  0  0  0  0  0  0  0  0  0  0
   -5.5010   21.1620  -33.1010 C   0  0  0  0  0  0  0  0  0  0  0  0
   -5.8930   22.4110  -32.3050 C   0  0  0  0  0  0  0  0  0  0  0  0
   -5.0950   25.0460  -30.6780 C   0  0  0  0  0  0  0  0  0  0  0  0
   -3.8580   25.3340  -30.3560 O   0  0  0  0  0  0  0  0  0  0  0  0
   -1.2420   23.2380  -29.1540 C   0  0  0  0  0  0  0  0  0  0  0  0
    0.0420   23.2150  -28.6030 C   0  0  0  0  0  0  0  0  0  0  0  0
    1.9172   24.3945  -25.2704 H   0  0  0  0  0  0  0  0  0  0  0  0
    3.3469   25.0006  -26.1734 H   0  0  0  0  0  0  0  0  0  0  0  0
    1.8184   25.9442  -26.1734 H   0  0  0  0  0  0  0  0  0  0  0  0
    0.0519   26.2828  -27.0948 H   0  0  0  0  0  0  0  0  0  0  0  0
   -2.2406   26.3259  -28.0738 H   0  0  0  0  0  0  0  0  0  0  0  0
   -7.0194   22.7697  -29.1540 H   0  0  0  0  0  0  0  0  0  0  0  0
   -7.4877   23.8299  -30.5379 H   0  0  0  0  0  0  0  0  0  0  0  0
   -8.1967   20.7307  -30.5474 H   0  0  0  0  0  0  0  0  0  0  0  0
   -8.6316   22.2207  -31.5052 H   0  0  0  0  0  0  0  0  0  0  0  0
   -8.5562   19.6873  -32.5511 H   0  0  0  0  0  0  0  0  0  0  0  0
   -8.3149   21.2073  -33.4956 H   0  0  0  0  0  0  0  0  0  0  0  0
   -8.0695   18.0015  -32.4159 H   0  0  0  0  0  0  0  0  0  0  0  0
   -7.5746   15.6279  -32.9885 H   0  0  0  0  0  0  0  0  0  0  0  0
   -5.5059   15.0476  -34.2558 H   0  0  0  0  0  0  0  0  0  0  0  0
   -2.7577   16.5248  -34.4673 H   0  0  0  0  0  0  0  0  0  0  0  0
   -3.7859   15.8804  -35.7918 H   0  0  0  0  0  0  0  0  0  0  0  0
   -3.3007   17.6099  -35.7918 H   0  0  0  0  0  0  0  0  0  0  0  0
   -4.4074   19.2343  -34.3779 H   0  0  0  0  0  0  0  0  0  0  0  0
   -4.5757   20.7417  -32.6802 H   0  0  0  0  0  0  0  0  0  0  0  0
   -5.3481   21.4471  -34.1524 H   0  0  0  0  0  0  0  0  0  0  0  0
   -4.9885   22.9793  -32.0424 H   0  0  0  0  0  0  0  0  0  0  0  0
   -6.5554   23.0449  -32.9127 H   0  0  0  0  0  0  0  0  0  0  0  0
   -5.7481   25.6286  -31.3444 H   0  0  0  0  0  0  0  0  0  0  0  0
   -1.6030   22.3771  -29.7359 H   0  0  0  0  0  0  0  0  0  0  0  0
    0.6842   22.3348  -28.7542 H   0  0  0  0  0  0  0  0  0  0  0  0
  1  2  1  0
  2  3  1  0
  3  4  2  0
  4  5  1  0
  5  6  2  0
  6  7  1  0
  7  8  2  0
  8  9  1  0
  9 10  1  0
 10 11  1  0
 11 12  1  0
 12 13  1  0
 13 14  1  0
 14 15  1  0
 15 16  2  0
 16 17  1  0
 17 18  2  0
 18 19  1  0
 19 20  1  0
 19 21  2  0
 14 22  1  0
 22 23  1  0
  9 24  2  0
 24 25  1  0
  6 26  1  0
 26 27  2  0
 27  3  1  0
 25  7  1  0
 23 11  1  0
 21 15  1  0
  1 28  1  0
  1 29  1  0
  1 30  1  0
  4 31  1  0
  5 32  1  0
 10 33  1  0
 10 34  1  0
 12 35  1  0
 12 36  1  0
 13 37  1  0
 13 38  1  0
 16 39  1  0
 17 40  1  0
 18 41  1  0
 20 42  1  0
 20 43  1  0
 20 44  1  0
 21 45  1  0
 22 46  1  0
 22 47  1  0
 23 48  1  0
 23 49  1  0
 24 50  1  0
 26 51  1  0
 27 52  1  0
M  END
>  <UniqueID>  (41) 
38

>  <SMILES>  (41) 
COc1ccc(-c2nc(CN3CCN(c4cccc(C)c4)CC3)co2)cc1

>  <Energy>  (41) 
92.51817573602253

>  <Genealogy>  (41) 
COc1ccc(-c2nc(CN3CCN(c4cccc(C)c4)CC3)co2)cc1 (3D coordinates assigned)
COc1ccc(-c2nc(CN3CCN(c4cccc(C)c4)CC3)co2)cc1 (nonaromatic ring conformer: 92.51817573602253 kcal/mol)

>  <smiles>  (41) 
COc1ccc(-c2nc(CN3CCN(c4cccc(C)c4)CC3)co2)cc1

>  <score_type>  (41) 
oracle

>  <origin>  (41) 
adgpu

>  <m_score__min__energy>  (41) 
-8.6899999999999995

>  <m_primary>  (41) 
energy

$$$$
41:0
     RDKit          3D

 50 53  0  0  0  0  0  0  0  0999 V2000
   -1.0480   26.6510  -25.1370 C   0  0  0  0  0  0  0  0  0  0  0  0
   -0.6690   25.2040  -25.1850 C   0  0  0  0  0  0  0  0  0  0  0  0
   -0.8660   24.4290  -24.1720 N   0  0  0  0  0  0  0  0  0  0  0  0
   -0.4280   23.1340  -24.5240 C   0  0  0  0  0  0  0  0  0  0  0  0
   -0.4950   22.1560  -23.7350 O   0  0  0  0  0  0  0  0  0  0  0  0
    0.1030   23.0530  -25.9050 C   0  0  0  0  0  0  0  0  0  0  0  0
   -0.0530   24.5170  -26.3880 C   0  0  2  0  0  0  0  0  0  0  0  0
    1.3180   25.1440  -26.7080 C   0  0  0  0  0  0  0  0  0  0  0  0
   -0.9780   24.5870  -27.5840 C   0  0  0  0  0  0  0  0  0  0  0  0
   -1.0910   25.6690  -28.3810 N   0  0  0  0  0  0  0  0  0  0  0  0
   -1.9020   25.3050  -29.3270 O   0  0  0  0  0  0  0  0  0  0  0  0
   -2.2670   24.0600  -29.1440 C   0  0  0  0  0  0  0  0  0  0  0  0
   -3.1840   23.3210  -30.0340 C   0  0  0  0  0  0  0  0  0  0  0  0
   -4.4790   23.8050  -30.2720 C   0  0  0  0  0  0  0  0  0  0  0  0
   -5.3510   23.1090  -31.1140 C   0  0  0  0  0  0  0  0  0  0  0  0
   -4.9450   21.9130  -31.7280 C   0  0  0  0  0  0  0  0  0  0  0  0
   -5.8400   21.2030  -32.6070 N   0  0  0  0  0  0  0  0  0  0  0  0
   -7.2660   21.5340  -32.6690 C   0  0  0  0  0  0  0  0  0  0  0  0
   -8.1230   20.2790  -32.4110 C   0  0  0  0  0  0  0  0  0  0  0  0
   -7.4800   19.0070  -32.8470 N   0  0  0  0  0  0  0  0  0  0  0  0
   -6.9090   18.2710  -31.7010 C   0  0  0  0  0  0  0  0  0  0  0  0
   -6.4770   19.2060  -33.9190 C   0  0  0  0  0  0  0  0  0  0  0  0
   -5.3330   20.1320  -33.4700 C   0  0  0  0  0  0  0  0  0  0  0  0
   -3.6450   21.4350  -31.4970 C   0  0  0  0  0  0  0  0  0  0  0  0
   -2.7720   22.1310  -30.6560 C   0  0  0  0  0  0  0  0  0  0  0  0
   -1.6930   23.5360  -28.0420 N   0  0  0  0  0  0  0  0  0  0  0  0
   -1.1324   26.9733  -24.0887 H   0  0  0  0  0  0  0  0  0  0  0  0
   -0.2762   27.2492  -25.6435 H   0  0  0  0  0  0  0  0  0  0  0  0
   -2.0139   26.7940  -25.6435 H   0  0  0  0  0  0  0  0  0  0  0  0
    1.1572   22.7388  -25.9115 H   0  0  0  0  0  0  0  0  0  0  0  0
   -0.4122   22.3164  -26.5390 H   0  0  0  0  0  0  0  0  0  0  0  0
    1.8400   25.3827  -25.7696 H   0  0  0  0  0  0  0  0  0  0  0  0
    1.9198   24.4316  -27.2914 H   0  0  0  0  0  0  0  0  0  0  0  0
    1.1727   26.0652  -27.2914 H   0  0  0  0  0  0  0  0  0  0  0  0
   -4.8103   24.7381  -29.7930 H   0  0  0  0  0  0  0  0  0  0  0  0
   -6.3624   23.5008  -31.2970 H   0  0  0  0  0  0  0  0  0  0  0  0
   -7.4952   22.2921  -31.9056 H   0  0  0  0  0  0  0  0  0  0  0  0
   -7.4977   21.9232  -33.6714 H   0  0  0  0  0  0  0  0  0  0  0  0
   -8.3239   20.2130  -31.3315 H   0  0  0  0  0  0  0  0  0  0  0  0
   -9.0412   20.3922  -33.0060 H   0  0  0  0  0  0  0  0  0  0  0  0
   -8.2310   18.3940  -33.2470 H   0  0  0  0  0  0  0  0  0  0  0  0
   -7.2605   18.7241  -30.7623 H   0  0  0  0  0  0  0  0  0  0  0  0
   -7.2302   17.2198  -31.7435 H   0  0  0  0  0  0  0  0  0  0  0  0
   -5.8110   18.3209  -31.7435 H   0  0  0  0  0  0  0  0  0  0  0  0
   -6.0552   18.2289  -34.1972 H   0  0  0  0  0  0  0  0  0  0  0  0
   -6.9818   19.6782  -34.7747 H   0  0  0  0  0  0  0  0  0  0  0  0
   -4.5887   19.5427  -32.9144 H   0  0  0  0  0  0  0  0  0  0  0  0
   -4.8743   20.5843  -34.3616 H   0  0  0  0  0  0  0  0  0  0  0  0
   -3.3111   20.5057  -31.9816 H   0  0  0  0  0  0  0  0  0  0  0  0
   -1.7571   21.7448  -30.4804 H   0  0  0  0  0  0  0  0  0  0  0  0
  1  2  1  0
  2  3  2  0
  3  4  1  0
  4  5  2  0
  4  6  1  0
  6  7  1  0
  7  8  1  6
  7  9  1  0
  9 10  2  0
 10 11  1  0
 11 12  1  0
 12 13  1  0
 13 14  2  0
 14 15  1  0
 15 16  2  0
 16 17  1  0
 17 18  1  0
 18 19  1  0
 19 20  1  0
 20 21  1  0
 20 22  1  0
 22 23  1  0
 16 24  1  0
 24 25  2  0
 12 26  2  0
  7  2  1  0
 26  9  1  0
 25 13  1  0
 23 17  1  0
  1 27  1  0
  1 28  1  0
  1 29  1  0
  6 30  1  0
  6 31  1  0
  8 32  1  0
  8 33  1  0
  8 34  1  0
 14 35  1  0
 15 36  1  0
 18 37  1  0
 18 38  1  0
 19 39  1  0
 19 40  1  0
 20 41  1  0
 21 42  1  0
 21 43  1  0
 21 44  1  0
 22 45  1  0
 22 46  1  0
 23 47  1  0
 23 48  1  0
 24 49  1  0
 25 50  1  0
M  CHG  1  20   1
M  END
>  <UniqueID>  (42) 
39

>  <SMILES>  (42) 
CC1=NC(=O)C[C@@]1(C)c1noc(-c2ccc(N3CC[NH+](C)CC3)cc2)n1

>  <Energy>  (42) 
104.08332170544462

>  <Genealogy>  (42) 
CC1=NC(=O)CC1(C)c1noc(-c2ccc(N3CC[NH+](C)CC3)cc2)n1 (protonated)
CC1=NC(=O)C[C@@]1(C)c1noc(-c2ccc(N3CC[NH+](C)CC3)cc2)n1 (chirality)
CC1=NC(=O)C[C@@]1(C)c1noc(-c2ccc(N3CC[NH+](C)CC3)cc2)n1 (3D coordinates assigned)
CC1=NC(=O)C[C@@]1(C)c1noc(-c2ccc(N3CC[NH+](C)CC3)cc2)n1 (nonaromatic ring conformer: 104.08332170544462 kcal/mol)

>  <smiles>  (42) 
CC1=NC(=O)CC1(C)c1noc(-c2ccc(N3CCN(C)CC3)cc2)n1

>  <score_type>  (42) 
oracle

>  <origin>  (42) 
adgpu

>  <m_score__min__energy>  (42) 
-8.1699999999999999

>  <m_primary>  (42) 
energy

$$$$
42:0
     RDKit          3D

 57 59  0  0  0  0  0  0  0  0999 V2000
   -5.0240   17.7110  -35.1660 C   0  0  0  0  0  0  0  0  0  0  0  0
   -6.0050   18.2640  -34.1250 C   0  0  0  0  0  0  0  0  0  0  0  0
   -5.3200   19.3050  -33.2070 C   0  0  0  0  0  0  0  0  0  0  0  0
   -5.7700   19.2040  -31.7360 C   0  0  0  0  0  0  0  0  0  0  0  0
   -7.2120   18.9140  -31.5970 N   0  0  0  0  0  0  0  0  0  0  0  0
   -8.2000   20.3070  -31.9860 S   0  0  0  0  0  0  0  0  0  0  0  0
   -8.5290   20.3200  -33.4530 O   0  0  0  0  0  0  0  0  0  0  0  0
   -9.4870   20.2810  -31.2100 O   0  0  0  0  0  0  0  0  0  0  0  0
   -7.3050   21.7750  -31.5990 C   0  0  0  0  0  0  0  0  0  0  0  0
   -7.5180   22.4380  -30.3830 C   0  0  0  0  0  0  0  0  0  0  0  0
   -6.7860   23.5870  -30.0700 C   0  0  0  0  0  0  0  0  0  0  0  0
   -5.8360   24.0970  -30.9730 C   0  0  0  0  0  0  0  0  0  0  0  0
   -5.0570   25.3130  -30.6430 C   0  0  0  0  0  0  0  0  0  0  0  0
   -5.6480   26.4160  -30.4830 O   0  0  0  0  0  0  0  0  0  0  0  0
   -3.6360   25.2260  -30.4560 N   0  0  0  0  0  0  0  0  0  0  0  0
   -2.9370   24.2620  -29.6560 C   0  0  0  0  0  0  0  0  0  0  0  0
   -3.3110   22.9160  -29.7470 C   0  0  0  0  0  0  0  0  0  0  0  0
   -2.6300   21.9410  -29.0150 C   0  0  0  0  0  0  0  0  0  0  0  0
   -1.5570   22.3020  -28.1970 C   0  0  0  0  0  0  0  0  0  0  0  0
   -1.1560   23.6420  -28.1110 C   0  0  0  0  0  0  0  0  0  0  0  0
    0.2270   24.0950  -27.1120 S   0  0  0  0  0  0  0  0  0  0  0  0
    1.1000   22.8890  -26.9070 O   0  0  0  0  0  0  0  0  0  0  0  0
    1.0380   25.1360  -27.8330 O   0  0  0  0  0  0  0  0  0  0  0  0
   -0.2780   24.7200  -25.5600 N   0  0  0  0  0  0  0  0  0  0  0  0
   -1.6090   25.3250  -25.6770 C   0  0  0  0  0  0  0  0  0  0  0  0
   -0.2990   23.6320  -24.5730 C   0  0  0  0  0  0  0  0  0  0  0  0
   -1.8430   24.6190  -28.8440 C   0  0  0  0  0  0  0  0  0  0  0  0
   -5.6330   23.4300  -32.1940 C   0  0  0  0  0  0  0  0  0  0  0  0
   -6.3570   22.2740  -32.5000 C   0  0  0  0  0  0  0  0  0  0  0  0
   -7.6600   17.6870  -32.3040 C   0  0  0  0  0  0  0  0  0  0  0  0
   -6.6350   17.1270  -33.3090 C   0  0  0  0  0  0  0  0  0  0  0  0
   -4.1762   17.2331  -34.6533 H   0  0  0  0  0  0  0  0  0  0  0  0
   -5.5371   16.9692  -35.7957 H   0  0  0  0  0  0  0  0  0  0  0  0
   -4.6550   18.5340  -35.7957 H   0  0  0  0  0  0  0  0  0  0  0  0
   -6.8141   18.7805  -34.6622 H   0  0  0  0  0  0  0  0  0  0  0  0
   -4.2321   19.1488  -33.2517 H   0  0  0  0  0  0  0  0  0  0  0  0
   -5.6085   20.3024  -33.5702 H   0  0  0  0  0  0  0  0  0  0  0  0
   -5.2010   18.3984  -31.2489 H   0  0  0  0  0  0  0  0  0  0  0  0
   -5.5814   20.1797  -31.2643 H   0  0  0  0  0  0  0  0  0  0  0  0
   -8.2639   22.0529  -29.6722 H   0  0  0  0  0  0  0  0  0  0  0  0
   -6.9544   24.0964  -29.1097 H   0  0  0  0  0  0  0  0  0  0  0  0
   -4.1471   22.6244  -30.3996 H   0  0  0  0  0  0  0  0  0  0  0  0
   -2.9390   20.8875  -29.0827 H   0  0  0  0  0  0  0  0  0  0  0  0
   -1.0251   21.5322  -27.6186 H   0  0  0  0  0  0  0  0  0  0  0  0
   -2.0170   25.5105  -24.6725 H   0  0  0  0  0  0  0  0  0  0  0  0
   -1.5324   26.2768  -26.2231 H   0  0  0  0  0  0  0  0  0  0  0  0
   -2.2757   24.6415  -26.2231 H   0  0  0  0  0  0  0  0  0  0  0  0
   -0.2908   24.0571  -23.5585 H   0  0  0  0  0  0  0  0  0  0  0  0
   -1.2089   23.0295  -24.7108 H   0  0  0  0  0  0  0  0  0  0  0  0
    0.5870   22.9948  -24.7108 H   0  0  0  0  0  0  0  0  0  0  0  0
   -1.5260   25.6707  -28.7848 H   0  0  0  0  0  0  0  0  0  0  0  0
   -4.8989   23.8208  -32.9139 H   0  0  0  0  0  0  0  0  0  0  0  0
   -6.1809   21.7541  -33.4532 H   0  0  0  0  0  0  0  0  0  0  0  0
   -7.8650   16.9110  -31.5519 H   0  0  0  0  0  0  0  0  0  0  0  0
   -8.5523   17.9646  -32.8843 H   0  0  0  0  0  0  0  0  0  0  0  0
   -5.8444   16.5941  -32.7605 H   0  0  0  0  0  0  0  0  0  0  0  0
   -7.1499   16.4393  -33.9960 H   0  0  0  0  0  0  0  0  0  0  0  0
  1  2  1  0
  2  3  1  0
  3  4  1  0
  4  5  1  0
  5  6  1  0
  6  7  2  0
  6  8  2  0
  6  9  1  0
  9 10  2  0
 10 11  1  0
 11 12  2  0
 12 13  1  0
 13 14  2  0
 13 15  1  0
 15 16  1  0
 16 17  2  0
 17 18  1  0
 18 19  2  0
 19 20  1  0
 20 21  1  0
 21 22  2  0
 21 23  2  0
 21 24  1  0
 24 25  1  0
 24 26  1  0
 20 27  2  0
 12 28  1  0
 28 29  2  0
  5 30  1  0
 30 31  1  0
 31  2  1  0
 29  9  1  0
 27 16  1  0
  1 32  1  0
  1 33  1  0
  1 34  1  0
  2 35  1  0
  3 36  1  0
  3 37  1  0
  4 38  1  0
  4 39  1  0
 10 40  1  0
 11 41  1  0
 17 42  1  0
 18 43  1  0
 19 44  1  0
 25 45  1  0
 25 46  1  0
 25 47  1  0
 26 48  1  0
 26 49  1  0
 26 50  1  0
 27 51  1  0
 28 52  1  0
 29 53  1  0
 30 54  1  0
 30 55  1  0
 31 56  1  0
 31 57  1  0
M  CHG  1  15  -1
M  END
>  <UniqueID>  (43) 
40

>  <SMILES>  (43) 
CC1CCN(S(=O)(=O)c2ccc(C(=O)[N-]c3cccc(S(=O)(=O)N(C)C)c3)cc2)CC1

>  <Energy>  (43) 
65.84575902715028

>  <Genealogy>  (43) 
CC1CCN(S(=O)(=O)c2ccc(C(=O)[N-]c3cccc(S(=O)(=O)N(C)C)c3)cc2)CC1 (protonated)
CC1CCN(S(=O)(=O)c2ccc(C(=O)[N-]c3cccc(S(=O)(=O)N(C)C)c3)cc2)CC1 (3D coordinates assigned)
CC1CCN(S(=O)(=O)c2ccc(C(=O)[N-]c3cccc(S(=O)(=O)N(C)C)c3)cc2)CC1 (nonaromatic ring conformer: 65.84575902715028 kcal/mol)

>  <smiles>  (43) 
CC1CCN(S(=O)(=O)c2ccc(C(=O)Nc3cccc(S(=O)(=O)N(C)C)c3)cc2)CC1

>  <score_type>  (43) 
oracle

>  <origin>  (43) 
adgpu

>  <m_score__min__energy>  (43) 
-12.779999999999999

>  <m_primary>  (43) 
energy

$$$$
43:0
     RDKit          3D

 57 60  0  0  0  0  0  0  0  0999 V2000
    2.2180   20.6720  -35.2420 C   0  0  0  0  0  0  0  0  0  0  0  0
    0.7860   21.0350  -34.9840 C   0  0  0  0  0  0  0  0  0  0  0  0
    0.4700   22.2570  -34.9670 O   0  0  0  0  0  0  0  0  0  0  0  0
   -0.2260   20.0240  -34.7680 N   0  0  0  0  0  0  0  0  0  0  0  0
   -1.5700   20.4240  -34.3260 C   0  0  0  0  0  0  0  0  0  0  0  0
   -2.1470   19.3810  -33.3690 C   0  0  0  0  0  0  0  0  0  0  0  0
   -2.0050   18.0350  -33.9360 N   0  0  0  0  0  0  0  0  0  0  0  0
   -3.0760   17.0780  -33.7990 C   0  0  0  0  0  0  0  0  0  0  0  0
   -4.3840   17.4880  -33.5090 C   0  0  0  0  0  0  0  0  0  0  0  0
   -5.3770   16.5160  -33.3140 C   0  0  0  0  0  0  0  0  0  0  0  0
   -6.6920   16.8670  -32.9700 O   0  0  0  0  0  0  0  0  0  0  0  0
   -7.0650   18.1240  -32.4730 C   0  0  0  0  0  0  0  0  0  0  0  0
   -8.3580   18.6020  -32.7200 C   0  0  0  0  0  0  0  0  0  0  0  0
   -8.7210   19.8940  -32.3200 C   0  0  0  0  0  0  0  0  0  0  0  0
   -7.7930   20.7090  -31.6550 C   0  0  0  0  0  0  0  0  0  0  0  0
   -8.1420   22.4000  -31.3190 S   0  0  0  0  0  0  0  0  0  0  0  0
   -8.0060   22.6370  -29.8400 O   0  0  0  0  0  0  0  0  0  0  0  0
   -9.5380   22.7650  -31.7420 O   0  0  0  0  0  0  0  0  0  0  0  0
   -6.9910   23.3790  -32.1700 N   0  0  0  0  0  0  0  0  0  0  0  0
   -5.7010   23.6480  -31.6070 C   0  0  0  0  0  0  0  0  0  0  0  0
   -4.5190   22.9970  -31.8910 C   0  0  0  0  0  0  0  0  0  0  0  0
   -4.3130   21.9020  -32.8850 C   0  0  0  0  0  0  0  0  0  0  0  0
   -3.5170   23.5980  -31.2170 N   0  0  0  0  0  0  0  0  0  0  0  0
   -4.0500   24.5630  -30.5160 O   0  0  0  0  0  0  0  0  0  0  0  0
   -5.3480   24.6330  -30.7060 C   0  0  0  0  0  0  0  0  0  0  0  0
   -6.2390   25.6300  -30.0400 C   0  0  0  0  0  0  0  0  0  0  0  0
   -6.5280   20.2030  -31.3380 C   0  0  0  0  0  0  0  0  0  0  0  0
   -6.1680   18.9150  -31.7330 C   0  0  0  0  0  0  0  0  0  0  0  0
   -5.0650   15.2050  -33.4860 N   0  0  0  0  0  0  0  0  0  0  0  0
   -3.8020   14.8200  -33.8060 C   0  0  0  0  0  0  0  0  0  0  0  0
   -2.8210   15.7490  -33.9490 N   0  0  0  0  0  0  0  0  0  0  0  0
   -0.6670   17.6260  -34.3900 C   0  0  0  0  0  0  0  0  0  0  0  0
   -0.0810   18.6750  -35.3340 C   0  0  0  0  0  0  0  0  0  0  0  0
    2.7411   20.5394  -34.2835 H   0  0  0  0  0  0  0  0  0  0  0  0
    2.2610   19.7346  -35.8159 H   0  0  0  0  0  0  0  0  0  0  0  0
    2.7023   21.4758  -35.8159 H   0  0  0  0  0  0  0  0  0  0  0  0
   -1.5087   21.3941  -33.8111 H   0  0  0  0  0  0  0  0  0  0  0  0
   -2.2263   20.5043  -35.2051 H   0  0  0  0  0  0  0  0  0  0  0  0
   -1.6081   19.4299  -32.4113 H   0  0  0  0  0  0  0  0  0  0  0  0
   -3.2151   19.5920  -33.2119 H   0  0  0  0  0  0  0  0  0  0  0  0
   -4.6292   18.5578  -33.4352 H   0  0  0  0  0  0  0  0  0  0  0  0
   -9.0913   17.9601  -33.2302 H   0  0  0  0  0  0  0  0  0  0  0  0
   -9.7338   20.2698  -32.5273 H   0  0  0  0  0  0  0  0  0  0  0  0
   -7.3720   24.0510  -32.8720 H   0  0  0  0  0  0  0  0  0  0  0  0
   -4.1348   20.9546  -32.3552 H   0  0  0  0  0  0  0  0  0  0  0  0
   -5.2089   21.8063  -33.5160 H   0  0  0  0  0  0  0  0  0  0  0  0
   -3.4436   22.1384  -33.5160 H   0  0  0  0  0  0  0  0  0  0  0  0
   -6.1496   25.5300  -28.9482 H   0  0  0  0  0  0  0  0  0  0  0  0
   -5.9421   26.6456  -30.3407 H   0  0  0  0  0  0  0  0  0  0  0  0
   -7.2814   25.4486  -30.3407 H   0  0  0  0  0  0  0  0  0  0  0  0
   -5.8148   20.8232  -30.7752 H   0  0  0  0  0  0  0  0  0  0  0  0
   -5.1786   18.5161  -31.4648 H   0  0  0  0  0  0  0  0  0  0  0  0
   -3.5731   13.7537  -33.9496 H   0  0  0  0  0  0  0  0  0  0  0  0
   -0.0066   17.5144  -33.5174 H   0  0  0  0  0  0  0  0  0  0  0  0
   -0.7493   16.6693  -34.9266 H   0  0  0  0  0  0  0  0  0  0  0  0
    0.9868   18.4625  -35.4914 H   0  0  0  0  0  0  0  0  0  0  0  0
   -0.6241   18.6328  -36.2897 H   0  0  0  0  0  0  0  0  0  0  0  0
  1  2  1  0
  2  3  2  0
  2  4  1  0
  4  5  1  0
  5  6  1  0
  6  7  1  0
  7  8  1  0
  8  9  2  0
  9 10  1  0
 10 11  1  0
 11 12  1  0
 12 13  2  0
 13 14  1  0
 14 15  2  0
 15 16  1  0
 16 17  2  0
 16 18  2  0
 16 19  1  0
 19 20  1  0
 20 21  1  0
 21 22  1  0
 21 23  2  0
 23 24  1  0
 24 25  1  0
 25 26  1  0
 15 27  1  0
 27 28  2  0
 10 29  2  0
 29 30  1  0
 30 31  2  0
  7 32  1  0
 32 33  1  0
 33  4  1  0
 31  8  1  0
 28 12  1  0
 25 20  2  0
  1 34  1  0
  1 35  1  0
  1 36  1  0
  5 37  1  0
  5 38  1  0
  6 39  1  0
  6 40  1  0
  9 41  1  0
 13 42  1  0
 14 43  1  0
 19 44  1  0
 22 45  1  0
 22 46  1  0
 22 47  1  0
 26 48  1  0
 26 49  1  0
 26 50  1  0
 27 51  1  0
 28 52  1  0
 30 53  1  0
 32 54  1  0
 32 55  1  0
 33 56  1  0
 33 57  1  0
M  END
>  <UniqueID>  (44) 
41

>  <SMILES>  (44) 
CC(=O)N1CCN(c2cc(Oc3ccc(S(=O)(=O)Nc4c(C)noc4C)cc3)ncn2)CC1

>  <Energy>  (44) 
102.7198336688782

>  <Genealogy>  (44) 
CC(=O)N1CCN(c2cc(Oc3ccc(S(=O)(=O)Nc4c(C)noc4C)cc3)ncn2)CC1 (3D coordinates assigned)
CC(=O)N1CCN(c2cc(Oc3ccc(S(=O)(=O)Nc4c(C)noc4C)cc3)ncn2)CC1 (nonaromatic ring conformer: 102.7198336688782 kcal/mol)

>  <smiles>  (44) 
CC(=O)N1CCN(c2cc(Oc3ccc(S(=O)(=O)Nc4c(C)noc4C)cc3)ncn2)CC1

>  <score_type>  (44) 
oracle

>  <origin>  (44) 
adgpu

>  <m_score__min__energy>  (44) 
-10.789999999999999

>  <m_primary>  (44) 
energy

$$$$
44:0
     RDKit          3D

 51 53  0  0  0  0  0  0  0  0999 V2000
   -4.6630   18.1474  -34.9864 H   0  0  0  0  0  0  0  0  0  0  0  0
   -4.7020   18.8240  -34.1200 C   0  0  0  0  0  0  0  0  0  0  0  0
   -3.6180   19.5780  -33.8800 C   0  0  0  0  0  0  0  0  0  0  0  0
   -2.7147   19.3688  -34.4719 H   0  0  0  0  0  0  0  0  0  0  0  0
   -3.5410   20.6700  -32.8810 C   0  0  0  0  0  0  0  0  0  0  0  0
   -4.6280   21.5440  -32.7150 C   0  0  0  0  0  0  0  0  0  0  0  0
   -5.5490   21.3846  -33.2949 H   0  0  0  0  0  0  0  0  0  0  0  0
   -4.5500   22.6140  -31.8200 C   0  0  0  0  0  0  0  0  0  0  0  0
   -5.4196   23.2731  -31.6810 H   0  0  0  0  0  0  0  0  0  0  0  0
   -3.3720   22.8550  -31.0970 C   0  0  0  0  0  0  0  0  0  0  0  0
   -3.3050   23.9920  -30.1480 C   0  0  0  0  0  0  0  0  0  0  0  0
   -3.8280   25.0950  -30.4670 O   0  0  0  0  0  0  0  0  0  0  0  0
   -2.6380   23.8630  -28.8810 N   0  0  0  0  0  0  0  0  0  0  0  0
   -1.9990   23.0500  -28.7290 H   0  0  0  0  0  0  0  0  0  0  0  0
   -2.7430   24.8880  -27.8360 C   0  0  0  0  0  0  0  0  0  0  0  0
   -2.9308   25.8613  -28.3129 H   0  0  0  0  0  0  0  0  0  0  0  0
   -1.4350   24.9820  -27.0450 C   0  0  0  0  0  0  0  0  0  0  0  0
   -1.6561   24.9661  -25.9676 H   0  0  0  0  0  0  0  0  0  0  0  0
   -0.7903   24.1279  -27.2996 H   0  0  0  0  0  0  0  0  0  0  0  0
   -0.9191   25.9195  -27.2996 H   0  0  0  0  0  0  0  0  0  0  0  0
   -3.9090   24.5620  -26.8990 C   0  0  0  0  0  0  0  0  0  0  0  0
   -3.5770   24.6548  -25.8544 H   0  0  0  0  0  0  0  0  0  0  0  0
   -4.7357   25.2634  -27.0847 H   0  0  0  0  0  0  0  0  0  0  0  0
   -4.2521   23.5335  -27.0847 H   0  0  0  0  0  0  0  0  0  0  0  0
   -2.2750   21.9940  -31.2750 C   0  0  0  0  0  0  0  0  0  0  0  0
   -1.3475   22.1719  -30.7110 H   0  0  0  0  0  0  0  0  0  0  0  0
   -2.3490   20.9110  -32.1630 C   0  0  0  0  0  0  0  0  0  0  0  0
   -1.1660   20.0340  -32.3150 C   0  0  0  0  0  0  0  0  0  0  0  0
   -0.9230   19.0590  -31.3350 C   0  0  0  0  0  0  0  0  0  0  0  0
   -1.6169   18.9512  -30.4883 H   0  0  0  0  0  0  0  0  0  0  0  0
    0.1930   18.2250  -31.4270 C   0  0  0  0  0  0  0  0  0  0  0  0
    0.3753   17.4638  -30.6541 H   0  0  0  0  0  0  0  0  0  0  0  0
    1.0770   18.3560  -32.4980 C   0  0  0  0  0  0  0  0  0  0  0  0
    1.9604   17.7038  -32.5638 H   0  0  0  0  0  0  0  0  0  0  0  0
    0.8420   19.3150  -33.4880 C   0  0  0  0  0  0  0  0  0  0  0  0
    1.5460   19.4166  -34.3270 H   0  0  0  0  0  0  0  0  0  0  0  0
   -0.2860   20.1500  -33.4200 C   0  0  0  0  0  0  0  0  0  0  0  0
   -0.5000   21.1740  -34.5010 C   0  0  0  0  0  0  0  0  0  0  0  0
   -0.7046   22.1531  -34.0433 H   0  0  0  0  0  0  0  0  0  0  0  0
    0.4032   21.2426  -35.1251 H   0  0  0  0  0  0  0  0  0  0  0  0
   -1.3551   20.8751  -35.1251 H   0  0  0  0  0  0  0  0  0  0  0  0
   -5.9460   18.8260  -33.3170 C   0  0  0  0  0  0  0  0  0  0  0  0
   -6.8990   19.7840  -33.5010 N   0  0  0  0  0  0  0  0  0  0  0  0
   -8.0320   19.8290  -32.7510 C   0  0  0  0  0  0  0  0  0  0  0  0
   -8.7841   20.6098  -32.9373 H   0  0  0  0  0  0  0  0  0  0  0  0
   -8.2410   18.8850  -31.7450 C   0  0  0  0  0  0  0  0  0  0  0  0
   -9.1568   18.9140  -31.1363 H   0  0  0  0  0  0  0  0  0  0  0  0
   -7.2740   17.9030  -31.5200 C   0  0  0  0  0  0  0  0  0  0  0  0
   -7.4236   17.1536  -30.7288 H   0  0  0  0  0  0  0  0  0  0  0  0
   -6.1170   17.8740  -32.3010 C   0  0  0  0  0  0  0  0  0  0  0  0
   -5.3457   17.1107  -32.1210 H   0  0  0  0  0  0  0  0  0  0  0  0
  1  2  1  0
  2  3  2  0
  3  4  1  0
  3  5  1  0
  5  6  2  0
  6  7  1  0
  6  8  1  0
  8  9  1  0
  8 10  2  0
 10 11  1  0
 11 12  2  0
 11 13  1  0
 13 14  1  0
 13 15  1  0
 15 16  1  0
 15 17  1  0
 17 18  1  0
 17 19  1  0
 17 20  1  0
 15 21  1  0
 21 22  1  0
 21 23  1  0
 21 24  1  0
 10 25  1  0
 25 26  1  0
 25 27  2  0
 27 28  1  0
 28 29  2  0
 29 30  1  0
 29 31  1  0
 31 32  1  0
 31 33  2  0
 33 34  1  0
 33 35  1  0
 35 36  1  0
 35 37  2  0
 37 38  1  0
 38 39  1  0
 38 40  1  0
 38 41  1  0
  2 42  1  0
 42 43  2  0
 43 44  1  0
 44 45  1  0
 44 46  2  0
 46 47  1  0
 46 48  1  0
 48 49  1  0
 48 50  2  0
 50 51  1  0
 27  5  1  0
 37 28  1  0
 50 42  1  0
M  END
>  <UniqueID>  (45) 
42

>  <SMILES>  (45) 
Cc1ccccc1-c1cc(C(=O)NC(C)C)ccc1/C=C\c1ccccn1

>  <Energy>  (45) 
65.40957390385

>  <Genealogy>  (45) 
Cc1ccccc1-c1cc(C(=O)NC(C)C)ccc1/C=C\c1ccccn1 (cis-trans isomerization)
Cc1ccccc1-c1cc(C(=O)NC(C)C)ccc1/C=C\c1ccccn1 (3D coordinates assigned)
Cc1ccccc1-c1cc(C(=O)NC(C)C)ccc1/C=C\c1ccccn1 (optimized conformer: 65.40957390385 kcal/mol)

>  <smiles>  (45) 
Cc1ccccc1-c1cc(C(=O)NC(C)C)ccc1C=Cc1ccccn1

>  <score_type>  (45) 
oracle

>  <origin>  (45) 
adgpu

>  <m_score__min__energy>  (45) 
-8.9800000000000004

>  <m_primary>  (45) 
energy

$$$$
45:0
     RDKit          3D

 41 43  0  0  0  0  0  0  0  0999 V2000
   -9.6150   20.8610  -32.5390 O   0  0  0  0  0  0  0  0  0  0  0  0
   -9.0020   21.4670  -31.6320 N   0  0  0  0  0  0  0  0  0  0  0  0
   -9.7100   21.8830  -30.5280 O   0  0  0  0  0  0  0  0  0  0  0  0
   -7.6260   21.8590  -31.8200 C   0  0  0  0  0  0  0  0  0  0  0  0
   -7.1420   23.0170  -31.1830 C   0  0  0  0  0  0  0  0  0  0  0  0
   -5.8020   23.4040  -31.3200 C   0  0  0  0  0  0  0  0  0  0  0  0
   -5.2240   24.8500  -30.4950 S   0  0  0  0  0  0  0  0  0  0  0  0
   -5.7860   24.8730  -29.1020 O   0  0  0  0  0  0  0  0  0  0  0  0
   -5.6670   26.0970  -31.2130 O   0  0  0  0  0  0  0  0  0  0  0  0
   -3.4910   24.8300  -30.4120 N   0  0  0  0  0  0  0  0  0  0  0  0
   -2.7020   23.8480  -29.7190 C   0  0  0  0  0  0  0  0  0  0  0  0
   -1.8600   22.9530  -30.4100 C   0  0  0  0  0  0  0  0  0  0  0  0
   -1.1150   22.0010  -29.7110 C   0  0  0  0  0  0  0  0  0  0  0  0
   -1.1940   21.9320  -28.3190 C   0  0  0  0  0  0  0  0  0  0  0  0
   -2.0140   22.8250  -27.6210 C   0  0  0  0  0  0  0  0  0  0  0  0
   -2.7710   23.7790  -28.3100 C   0  0  0  0  0  0  0  0  0  0  0  0
   -3.5810   24.6480  -27.5790 O   0  0  0  0  0  0  0  0  0  0  0  0
   -4.9320   22.6320  -32.1010 C   0  0  0  0  0  0  0  0  0  0  0  0
   -5.3960   21.4820  -32.7390 C   0  0  0  0  0  0  0  0  0  0  0  0
   -6.7360   21.0810  -32.6060 C   0  0  0  0  0  0  0  0  0  0  0  0
   -7.2060   19.9450  -33.3450 N   0  0  0  0  0  0  0  0  0  0  0  0
   -6.4770   18.7110  -33.4660 C   0  0  0  0  0  0  0  0  0  0  0  0
   -5.7310   18.4070  -34.6200 C   0  0  0  0  0  0  0  0  0  0  0  0
   -5.0120   17.2150  -34.6950 C   0  0  0  0  0  0  0  0  0  0  0  0
   -5.0190   16.3180  -33.6230 C   0  0  0  0  0  0  0  0  0  0  0  0
   -5.7450   16.6160  -32.4700 C   0  0  0  0  0  0  0  0  0  0  0  0
   -6.4680   17.8100  -32.3900 C   0  0  0  0  0  0  0  0  0  0  0  0
   -7.8235   23.6255  -30.5704 H   0  0  0  0  0  0  0  0  0  0  0  0
   -1.7895   23.0049  -31.5065 H   0  0  0  0  0  0  0  0  0  0  0  0
   -0.4641   21.3036  -30.2587 H   0  0  0  0  0  0  0  0  0  0  0  0
   -0.6120   21.1761  -27.7714 H   0  0  0  0  0  0  0  0  0  0  0  0
   -2.0640   22.7769  -26.5232 H   0  0  0  0  0  0  0  0  0  0  0  0
   -4.2220   25.2910  -28.0250 H   0  0  0  0  0  0  0  0  0  0  0  0
   -3.8800   22.9338  -32.2113 H   0  0  0  0  0  0  0  0  0  0  0  0
   -4.7064   20.8832  -33.3521 H   0  0  0  0  0  0  0  0  0  0  0  0
   -8.1090   20.0450  -33.8630 H   0  0  0  0  0  0  0  0  0  0  0  0
   -5.7152   19.1115  -35.4647 H   0  0  0  0  0  0  0  0  0  0  0  0
   -4.4364   16.9792  -35.6022 H   0  0  0  0  0  0  0  0  0  0  0  0
   -4.4522   15.3776  -33.6887 H   0  0  0  0  0  0  0  0  0  0  0  0
   -5.7487   15.9124  -31.6245 H   0  0  0  0  0  0  0  0  0  0  0  0
   -7.0342   18.0450  -31.4766 H   0  0  0  0  0  0  0  0  0  0  0  0
  1  2  2  0
  2  3  1  0
  2  4  1  0
  4  5  2  0
  5  6  1  0
  6  7  1  0
  7  8  2  0
  7  9  2  0
  7 10  1  0
 10 11  1  0
 11 12  2  0
 12 13  1  0
 13 14  2  0
 14 15  1  0
 15 16  2  0
 16 17  1  0
  6 18  2  0
 18 19  1  0
 19 20  2  0
 20 21  1  0
 21 22  1  0
 22 23  2  0
 23 24  1  0
 24 25  2  0
 25 26  1  0
 26 27  2  0
 20  4  1  0
 27 22  1  0
 16 11  1  0
  5 28  1  0
 12 29  1  0
 13 30  1  0
 14 31  1  0
 15 32  1  0
 17 33  1  0
 18 34  1  0
 19 35  1  0
 21 36  1  0
 23 37  1  0
 24 38  1  0
 25 39  1  0
 26 40  1  0
 27 41  1  0
M  CHG  3   2   1   3  -1  10  -1
M  END
>  <UniqueID>  (46) 
43

>  <SMILES>  (46) 
O=[N+]([O-])c1cc(S(=O)(=O)[N-]c2ccccc2O)ccc1Nc1ccccc1

>  <Energy>  (46) 
57.348254470299736

>  <Genealogy>  (46) 
O=[N+]([O-])c1cc(S(=O)(=O)[N-]c2ccccc2O)ccc1Nc1ccccc1 (protonated)
O=[N+]([O-])c1cc(S(=O)(=O)[N-]c2ccccc2O)ccc1Nc1ccccc1 (3D coordinates assigned)
O=[N+]([O-])c1cc(S(=O)(=O)[N-]c2ccccc2O)ccc1Nc1ccccc1 (optimized conformer: 57.348254470299736 kcal/mol)

>  <smiles>  (46) 
O=[N+]([O-])c1cc(S(=O)(=O)Nc2ccccc2O)ccc1Nc1ccccc1

>  <score_type>  (46) 
oracle

>  <origin>  (46) 
adgpu

>  <m_score__min__energy>  (46) 
-12.58

>  <m_primary>  (46) 
energy

$$$$
46:0
     RDKit          3D

 48 51  0  0  0  0  0  0  0  0999 V2000
   -9.0070   21.5580  -31.0050 C   0  0  0  0  0  0  0  0  0  0  0  0
   -8.1910   22.2860  -31.9170 O   0  0  0  0  0  0  0  0  0  0  0  0
   -7.0140   22.9620  -31.5620 C   0  0  0  0  0  0  0  0  0  0  0  0
   -5.7350   22.4840  -31.9080 C   0  0  0  0  0  0  0  0  0  0  0  0
   -4.5930   23.1950  -31.5310 C   0  0  0  0  0  0  0  0  0  0  0  0
   -4.7020   24.3780  -30.7910 C   0  0  0  0  0  0  0  0  0  0  0  0
   -3.5030   25.0850  -30.4420 N   0  0  0  0  0  0  0  0  0  0  0  0
   -2.6670   24.8410  -29.3050 C   0  0  0  0  0  0  0  0  0  0  0  0
   -1.7810   25.6720  -28.9690 O   0  0  0  0  0  0  0  0  0  0  0  0
   -2.8550   23.6350  -28.5560 N   0  0  0  0  0  0  0  0  0  0  0  0
   -2.2600   22.3570  -28.8250 C   0  0  0  0  0  0  0  0  0  0  0  0
   -2.3320   21.2920  -27.9100 C   0  0  0  0  0  0  0  0  0  0  0  0
   -1.7650   20.0560  -28.2250 C   0  0  0  0  0  0  0  0  0  0  0  0
   -1.1330   19.8640  -29.4560 C   0  0  0  0  0  0  0  0  0  0  0  0
   -1.0660   20.9120  -30.3890 C   0  0  0  0  0  0  0  0  0  0  0  0
   -0.4110   20.7000  -31.7050 C   0  0  0  0  0  0  0  0  0  0  0  0
   -1.0250   21.1670  -32.8760 C   0  0  0  0  0  0  0  0  0  0  0  0
   -0.4160   20.9850  -34.1170 C   0  0  0  0  0  0  0  0  0  0  0  0
    0.8180   20.3180  -34.1930 C   0  0  0  0  0  0  0  0  0  0  0  0
    1.5140   20.1030  -35.4880 C   0  0  0  0  0  0  0  0  0  0  0  0
    2.6900   20.8140  -35.7790 C   0  0  0  0  0  0  0  0  0  0  0  0
    3.3460   20.6050  -36.9940 C   0  0  0  0  0  0  0  0  0  0  0  0
    2.8530   19.7120  -37.8910 N   0  0  0  0  0  0  0  0  0  0  0  0
    1.7240   19.0000  -37.6380 C   0  0  0  0  0  0  0  0  0  0  0  0
    1.0360   19.1780  -36.4360 C   0  0  0  0  0  0  0  0  0  0  0  0
    1.3980   19.8720  -33.0440 N   0  0  0  0  0  0  0  0  0  0  0  0
    0.8270   20.0360  -31.8210 C   0  0  0  0  0  0  0  0  0  0  0  0
    1.4090   19.5710  -30.8050 O   0  0  0  0  0  0  0  0  0  0  0  0
   -1.6460   22.1520  -30.0690 C   0  0  0  0  0  0  0  0  0  0  0  0
   -5.9800   24.8680  -30.4650 C   0  0  0  0  0  0  0  0  0  0  0  0
   -7.1240   24.1570  -30.8430 C   0  0  0  0  0  0  0  0  0  0  0  0
   -8.7215   21.8127  -29.9737 H   0  0  0  0  0  0  0  0  0  0  0  0
  -10.0629   21.8196  -31.1684 H   0  0  0  0  0  0  0  0  0  0  0  0
   -8.8670   20.4792  -31.1684 H   0  0  0  0  0  0  0  0  0  0  0  0
   -5.6350   21.5479  -32.4769 H   0  0  0  0  0  0  0  0  0  0  0  0
   -3.5990   22.8216  -31.8184 H   0  0  0  0  0  0  0  0  0  0  0  0
   -2.8367   21.4332  -26.9429 H   0  0  0  0  0  0  0  0  0  0  0  0
   -1.8160   19.2296  -27.5008 H   0  0  0  0  0  0  0  0  0  0  0  0
   -0.6859   18.8880  -29.6957 H   0  0  0  0  0  0  0  0  0  0  0  0
   -1.9954   21.6813  -32.8150 H   0  0  0  0  0  0  0  0  0  0  0  0
   -0.8988   21.3614  -35.0309 H   0  0  0  0  0  0  0  0  0  0  0  0
    3.0933   21.5338  -35.0515 H   0  0  0  0  0  0  0  0  0  0  0  0
    4.2642   21.1649  -37.2252 H   0  0  0  0  0  0  0  0  0  0  0  0
    1.3507   18.2811  -38.3822 H   0  0  0  0  0  0  0  0  0  0  0  0
    0.1242   18.5979  -36.2305 H   0  0  0  0  0  0  0  0  0  0  0  0
   -1.6179   22.9709  -30.8029 H   0  0  0  0  0  0  0  0  0  0  0  0
   -6.0799   25.8131  -29.9112 H   0  0  0  0  0  0  0  0  0  0  0  0
   -8.1187   24.5409  -30.5725 H   0  0  0  0  0  0  0  0  0  0  0  0
  1  2  1  0
  2  3  1  0
  3  4  2  0
  4  5  1  0
  5  6  2  0
  6  7  1  0
  7  8  1  0
  8  9  2  0
  8 10  1  0
 10 11  1  0
 11 12  2  0
 12 13  1  0
 13 14  2  0
 14 15  1  0
 15 16  1  0
 16 17  2  0
 17 18  1  0
 18 19  2  0
 19 20  1  0
 20 21  2  0
 21 22  1  0
 22 23  2  0
 23 24  1  0
 24 25  2  0
 19 26  1  0
 26 27  1  0
 27 28  2  0
 15 29  2  0
  6 30  1  0
 30 31  2  0
 31  3  1  0
 29 11  1  0
 27 16  1  0
 25 20  1  0
  1 32  1  0
  1 33  1  0
  1 34  1  0
  4 35  1  0
  5 36  1  0
 12 37  1  0
 13 38  1  0
 14 39  1  0
 17 40  1  0
 18 41  1  0
 21 42  1  0
 22 43  1  0
 24 44  1  0
 25 45  1  0
 29 46  1  0
 30 47  1  0
 31 48  1  0
M  CHG  3   7  -1  10  -1  26  -1
M  END
>  <UniqueID>  (47) 
44

>  <SMILES>  (47) 
COc1ccc([N-]C(=O)[N-]c2cccc(-c3ccc(-c4ccncc4)[n-]c3=O)c2)cc1

>  <Energy>  (47) 
71.8433228506666

>  <Genealogy>  (47) 
COc1ccc([N-]C(=O)[N-]c2cccc(-c3ccc(-c4ccncc4)[n-]c3=O)c2)cc1 (protonated)
COc1ccc([N-]C(=O)[N-]c2cccc(-c3ccc(-c4ccncc4)[n-]c3=O)c2)cc1 (3D coordinates assigned)
COc1ccc([N-]C(=O)[N-]c2cccc(-c3ccc(-c4ccncc4)[n-]c3=O)c2)cc1 (optimized conformer: 71.8433228506666 kcal/mol)

>  <smiles>  (47) 
COc1ccc(NC(=O)Nc2cccc(-c3ccc(-c4ccncc4)[nH]c3=O)c2)cc1

>  <score_type>  (47) 
oracle

>  <origin>  (47) 
adgpu

>  <m_score__min__energy>  (47) 
-12.17

>  <m_primary>  (47) 
energy

$$$$
47:0
     RDKit          3D

 41 43  0  0  0  0  0  0  0  0999 V2000
   -4.3040   14.6600  -32.3320 C   0  0  0  0  0  0  0  0  0  0  0  0
   -4.1500   16.0490  -32.6030 O   0  0  0  0  0  0  0  0  0  0  0  0
   -5.2100   16.9650  -32.6650 C   0  0  0  0  0  0  0  0  0  0  0  0
   -6.0790   17.0540  -31.5690 C   0  0  0  0  0  0  0  0  0  0  0  0
   -7.1490   17.9530  -31.5830 C   0  0  0  0  0  0  0  0  0  0  0  0
   -7.3610   18.7750  -32.6950 C   0  0  0  0  0  0  0  0  0  0  0  0
   -8.7300   19.9330  -32.7090 S   0  0  0  0  0  0  0  0  0  0  0  0
   -7.7260   21.2690  -32.0600 C   0  0  0  0  0  0  0  0  0  0  0  0
   -6.4950   21.5740  -32.6500 C   0  0  0  0  0  0  0  0  0  0  0  0
   -5.7090   22.6110  -32.1390 C   0  0  0  0  0  0  0  0  0  0  0  0
   -6.1510   23.3500  -31.0330 C   0  0  0  0  0  0  0  0  0  0  0  0
   -5.1710   24.6670  -30.3980 S   0  0  0  0  0  0  0  0  0  0  0  0
   -5.5580   24.9330  -28.9700 O   0  0  0  0  0  0  0  0  0  0  0  0
   -5.4080   25.9060  -31.2170 O   0  0  0  0  0  0  0  0  0  0  0  0
   -3.4980   24.2080  -30.4860 N   0  0  0  0  0  0  0  0  0  0  0  0
   -2.9160   23.2690  -29.7940 C   0  0  0  0  0  0  0  0  0  0  0  0
   -3.6030   22.4800  -28.8520 C   0  0  0  0  0  0  0  0  0  0  0  0
   -2.9120   21.4900  -28.1480 C   0  0  0  0  0  0  0  0  0  0  0  0
   -1.5840   21.2900  -28.3700 N   0  0  0  0  0  0  0  0  0  0  0  0
   -0.8970   22.0390  -29.2740 C   0  0  0  0  0  0  0  0  0  0  0  0
   -1.5500   23.0390  -30.0000 C   0  0  0  0  0  0  0  0  0  0  0  0
   -7.3920   23.0520  -30.4510 C   0  0  0  0  0  0  0  0  0  0  0  0
   -8.1760   22.0140  -30.9630 C   0  0  0  0  0  0  0  0  0  0  0  0
   -6.5030   18.6910  -33.7970 C   0  0  0  0  0  0  0  0  0  0  0  0
   -5.4300   17.7920  -33.7850 C   0  0  0  0  0  0  0  0  0  0  0  0
   -4.3219   14.4985  -31.2441 H   0  0  0  0  0  0  0  0  0  0  0  0
   -5.2472   14.3031  -32.7713 H   0  0  0  0  0  0  0  0  0  0  0  0
   -3.4619   14.1051  -32.7713 H   0  0  0  0  0  0  0  0  0  0  0  0
   -5.9176   16.4113  -30.6910 H   0  0  0  0  0  0  0  0  0  0  0  0
   -7.8258   18.0144  -30.7180 H   0  0  0  0  0  0  0  0  0  0  0  0
   -6.1446   20.9965  -33.5182 H   0  0  0  0  0  0  0  0  0  0  0  0
   -4.7415   22.8476  -32.6059 H   0  0  0  0  0  0  0  0  0  0  0  0
   -4.6760   22.6416  -28.6713 H   0  0  0  0  0  0  0  0  0  0  0  0
   -3.4436   20.8697  -27.4113 H   0  0  0  0  0  0  0  0  0  0  0  0
   -1.0820   20.5470  -27.8340 H   0  0  0  0  0  0  0  0  0  0  0  0
    0.1760   21.8571  -29.4342 H   0  0  0  0  0  0  0  0  0  0  0  0
   -0.9928   23.6434  -30.7309 H   0  0  0  0  0  0  0  0  0  0  0  0
   -7.7490   23.6362  -29.5900 H   0  0  0  0  0  0  0  0  0  0  0  0
   -9.1481   21.7820  -30.5034 H   0  0  0  0  0  0  0  0  0  0  0  0
   -6.6719   19.3326  -34.6744 H   0  0  0  0  0  0  0  0  0  0  0  0
   -4.7564   17.7308  -34.6524 H   0  0  0  0  0  0  0  0  0  0  0  0
  1  2  1  0
  2  3  1  0
  3  4  2  0
  4  5  1  0
  5  6  2  0
  6  7  1  0
  7  8  1  0
  8  9  2  0
  9 10  1  0
 10 11  2  0
 11 12  1  0
 12 13  2  0
 12 14  2  0
 12 15  1  0
 15 16  2  3
 16 17  1  0
 17 18  2  0
 18 19  1  0
 19 20  1  0
 20 21  2  0
 11 22  1  0
 22 23  2  0
  6 24  1  0
 24 25  2  0
 25  3  1  0
 23  8  1  0
 21 16  1  0
  1 26  1  0
  1 27  1  0
  1 28  1  0
  4 29  1  0
  5 30  1  0
  9 31  1  0
 10 32  1  0
 17 33  1  0
 18 34  1  0
 19 35  1  0
 20 36  1  0
 21 37  1  0
 22 38  1  0
 23 39  1  0
 24 40  1  0
 25 41  1  0
M  END
>  <UniqueID>  (48) 
45

>  <SMILES>  (48) 
COc1ccc(Sc2ccc(S(=O)(=O)N=c3cc[nH]cc3)cc2)cc1

>  <Energy>  (48) 
44.6433522921915

>  <Genealogy>  (48) 
COc1ccc(Sc2ccc(S(=O)(=O)N=c3cc[nH]cc3)cc2)cc1 (3D coordinates assigned)
COc1ccc(Sc2ccc(S(=O)(=O)N=c3cc[nH]cc3)cc2)cc1 (optimized conformer: 44.6433522921915 kcal/mol)

>  <smiles>  (48) 
COc1ccc(Sc2ccc(S(=O)(=O)N=c3cc[nH]cc3)cc2)cc1

>  <score_type>  (48) 
oracle

>  <origin>  (48) 
adgpu

>  <m_score__min__energy>  (48) 
-9.1400000000000006

>  <m_primary>  (48) 
energy

$$$$
48:0
     RDKit          3D

 50 52  0  0  0  0  0  0  0  0999 V2000
   -0.7830   26.7840  -27.8430 C   0  0  0  0  0  0  0  0  0  0  0  0
   -1.3660   26.0370  -28.9100 O   0  0  0  0  0  0  0  0  0  0  0  0
   -1.6050   24.6540  -28.8730 C   0  0  0  0  0  0  0  0  0  0  0  0
   -0.8250   23.7950  -28.0660 C   0  0  0  0  0  0  0  0  0  0  0  0
   -1.0500   22.4150  -28.0770 C   0  0  0  0  0  0  0  0  0  0  0  0
   -2.0480   21.8730  -28.8930 C   0  0  0  0  0  0  0  0  0  0  0  0
   -2.8280   22.7110  -29.6960 C   0  0  0  0  0  0  0  0  0  0  0  0
   -2.6310   24.1010  -29.6760 C   0  0  0  0  0  0  0  0  0  0  0  0
   -3.4860   24.9190  -30.4880 N   0  0  0  0  0  0  0  0  0  0  0  0
   -5.2200   24.8210  -30.4830 S   0  0  0  0  0  0  0  0  0  0  0  0
   -5.7220   24.7790  -29.0630 O   0  0  0  0  0  0  0  0  0  0  0  0
   -5.7870   26.0340  -31.1680 O   0  0  0  0  0  0  0  0  0  0  0  0
   -5.7260   23.3880  -31.3710 C   0  0  0  0  0  0  0  0  0  0  0  0
   -7.0550   22.9520  -31.3340 C   0  0  0  0  0  0  0  0  0  0  0  0
   -7.4340   21.7850  -32.0080 C   0  0  0  0  0  0  0  0  0  0  0  0
   -6.4830   21.0410  -32.7280 C   0  0  0  0  0  0  0  0  0  0  0  0
   -6.9190   19.7950  -33.4520 C   0  0  0  0  0  0  0  0  0  0  0  0
   -5.1350   21.4680  -32.7400 C   0  0  0  0  0  0  0  0  0  0  0  0
   -4.1200   20.7390  -33.4390 N   0  0  0  0  0  0  0  0  0  0  0  0
   -2.9610   20.1880  -32.8030 C   0  0  0  0  0  0  0  0  0  0  0  0
   -3.0780   19.2430  -31.9740 O   0  0  0  0  0  0  0  0  0  0  0  0
   -1.6400   20.7690  -33.0820 C   0  0  0  0  0  0  0  0  0  0  0  0
   -0.8710   21.0340  -32.1190 O   0  0  0  0  0  0  0  0  0  0  0  0
   -1.2410   21.0650  -34.4310 N   0  0  0  0  0  0  0  0  0  0  0  0
    0.1120   21.3780  -34.8070 C   0  0  0  0  0  0  0  0  0  0  0  0
    1.1940   20.6160  -34.3310 C   0  0  0  0  0  0  0  0  0  0  0  0
    2.5000   20.9210  -34.7290 C   0  0  0  0  0  0  0  0  0  0  0  0
    2.7370   21.9880  -35.6050 C   0  0  0  0  0  0  0  0  0  0  0  0
    4.3840   22.4150  -36.0490 Cl  0  0  0  0  0  0  0  0  0  0  0  0
    1.6630   22.7300  -36.1050 C   0  0  0  0  0  0  0  0  0  0  0  0
    0.3580   22.4250  -35.7120 C   0  0  0  0  0  0  0  0  0  0  0  0
   -4.7760   22.6520  -32.0880 C   0  0  0  0  0  0  0  0  0  0  0  0
   -1.1103   26.3646  -26.8802 H   0  0  0  0  0  0  0  0  0  0  0  0
    0.3134   26.7290  -27.9132 H   0  0  0  0  0  0  0  0  0  0  0  0
   -1.1027   27.8342  -27.9132 H   0  0  0  0  0  0  0  0  0  0  0  0
   -0.0357   24.2148  -27.4251 H   0  0  0  0  0  0  0  0  0  0  0  0
   -0.4408   21.7544  -27.4426 H   0  0  0  0  0  0  0  0  0  0  0  0
   -2.2196   20.7865  -28.9032 H   0  0  0  0  0  0  0  0  0  0  0  0
   -3.6012   22.2782  -30.3478 H   0  0  0  0  0  0  0  0  0  0  0  0
   -7.8052   23.5286  -30.7730 H   0  0  0  0  0  0  0  0  0  0  0  0
   -8.4808   21.4486  -31.9741 H   0  0  0  0  0  0  0  0  0  0  0  0
   -7.1899   19.0208  -32.7190 H   0  0  0  0  0  0  0  0  0  0  0  0
   -7.7906   20.0236  -34.0830 H   0  0  0  0  0  0  0  0  0  0  0  0
   -6.0951   19.4303  -34.0830 H   0  0  0  0  0  0  0  0  0  0  0  0
   -1.9850   21.1380  -35.1670 H   0  0  0  0  0  0  0  0  0  0  0  0
    1.0127   19.7770  -33.6431 H   0  0  0  0  0  0  0  0  0  0  0  0
    3.3424   20.3217  -34.3533 H   0  0  0  0  0  0  0  0  0  0  0  0
    1.8460   23.5552  -36.8089 H   0  0  0  0  0  0  0  0  0  0  0  0
   -0.4836   23.0085  -36.1137 H   0  0  0  0  0  0  0  0  0  0  0  0
   -3.7366   23.0083  -32.1393 H   0  0  0  0  0  0  0  0  0  0  0  0
  1  2  1  0
  2  3  1  0
  3  4  2  0
  4  5  1  0
  5  6  2  0
  6  7  1  0
  7  8  2  0
  8  9  1  0
  9 10  1  0
 10 11  2  0
 10 12  2  0
 10 13  1  0
 13 14  2  0
 14 15  1  0
 15 16  2  0
 16 17  1  0
 16 18  1  0
 18 19  1  0
 19 20  1  0
 20 21  2  0
 20 22  1  0
 22 23  2  0
 22 24  1  0
 24 25  1  0
 25 26  2  0
 26 27  1  0
 27 28  2  0
 28 29  1  0
 28 30  1  0
 30 31  2  0
 18 32  2  0
  8  3  1  0
 32 13  1  0
 31 25  1  0
  1 33  1  0
  1 34  1  0
  1 35  1  0
  4 36  1  0
  5 37  1  0
  6 38  1  0
  7 39  1  0
 14 40  1  0
 15 41  1  0
 17 42  1  0
 17 43  1  0
 17 44  1  0
 24 45  1  0
 26 46  1  0
 27 47  1  0
 30 48  1  0
 31 49  1  0
 32 50  1  0
M  CHG  2   9  -1  19  -1
M  END
>  <UniqueID>  (49) 
46

>  <SMILES>  (49) 
COc1ccccc1[N-]S(=O)(=O)c1ccc(C)c([N-]C(=O)C(=O)Nc2ccc(Cl)cc2)c1

>  <Energy>  (49) 
66.86355624585718

>  <Genealogy>  (49) 
COc1ccccc1[N-]S(=O)(=O)c1ccc(C)c([N-]C(=O)C(=O)Nc2ccc(Cl)cc2)c1 (protonated)
COc1ccccc1[N-]S(=O)(=O)c1ccc(C)c([N-]C(=O)C(=O)Nc2ccc(Cl)cc2)c1 (3D coordinates assigned)
COc1ccccc1[N-]S(=O)(=O)c1ccc(C)c([N-]C(=O)C(=O)Nc2ccc(Cl)cc2)c1 (optimized conformer: 66.86355624585718 kcal/mol)

>  <smiles>  (49) 
COc1ccccc1NS(=O)(=O)c1ccc(C)c(NC(=O)C(=O)Nc2ccc(Cl)cc2)c1

>  <score_type>  (49) 
oracle

>  <origin>  (49) 
adgpu

>  <m_score__min__energy>  (49) 
-11.48

>  <m_primary>  (49) 
energy

$$$$
49:0
     RDKit          3D

 53 56  0  0  0  0  0  0  0  0999 V2000
   -3.8950   25.2970  -30.8460 O   0  0  0  0  0  0  0  0  0  0  0  0
   -3.7060   24.1760  -30.3020 C   0  0  0  0  0  0  0  0  0  0  0  0
   -3.6300   24.1140  -28.8700 N   0  0  0  0  0  0  0  0  0  0  0  0
   -2.5820   23.5090  -28.0990 C   0  0  0  0  0  0  0  0  0  0  0  0
   -2.6760   22.1500  -27.7770 C   0  0  0  0  0  0  0  0  0  0  0  0
   -1.6750   21.5320  -27.0230 C   0  0  0  0  0  0  0  0  0  0  0  0
   -0.5750   22.2700  -26.5780 C   0  0  0  0  0  0  0  0  0  0  0  0
   -0.4750   23.6350  -26.8820 C   0  0  0  0  0  0  0  0  0  0  0  0
    0.9000   24.5700  -26.3010 S   0  0  0  0  0  0  0  0  0  0  0  0
    1.3080   25.5700  -27.3480 O   0  0  0  0  0  0  0  0  0  0  0  0
    2.0540   23.6390  -26.0560 O   0  0  0  0  0  0  0  0  0  0  0  0
    0.4770   25.3870  -24.8180 N   0  0  0  0  0  0  0  0  0  0  0  0
   -0.9520   25.7630  -24.8270 C   0  0  0  0  0  0  0  0  0  0  0  0
   -1.2720   26.7920  -23.7240 C   0  0  0  0  0  0  0  0  0  0  0  0
   -0.2470   26.8280  -22.7540 O   0  0  0  0  0  0  0  0  0  0  0  0
    0.9470   27.3230  -23.3360 C   0  0  0  0  0  0  0  0  0  0  0  0
    1.3300   26.5730  -24.6320 C   0  0  0  0  0  0  0  0  0  0  0  0
   -1.4900   24.2560  -27.6230 C   0  0  0  0  0  0  0  0  0  0  0  0
   -3.6120   22.9650  -31.1500 C   0  0  0  0  0  0  0  0  0  0  0  0
   -2.4110   22.2360  -31.2070 C   0  0  0  0  0  0  0  0  0  0  0  0
   -2.3250   21.0780  -31.9830 C   0  0  0  0  0  0  0  0  0  0  0  0
   -3.4270   20.6440  -32.7220 C   0  0  0  0  0  0  0  0  0  0  0  0
   -4.6230   21.3810  -32.7060 C   0  0  0  0  0  0  0  0  0  0  0  0
   -5.7570   20.9730  -33.4250 O   0  0  0  0  0  0  0  0  0  0  0  0
   -6.8470   20.2680  -32.8950 C   0  0  0  0  0  0  0  0  0  0  0  0
   -7.9600   20.9260  -32.3360 C   0  0  0  0  0  0  0  0  0  0  0  0
   -9.0190   20.1860  -31.8020 C   0  0  0  0  0  0  0  0  0  0  0  0
   -8.9720   18.7890  -31.8090 C   0  0  0  0  0  0  0  0  0  0  0  0
   -7.8600   18.1310  -32.3420 C   0  0  0  0  0  0  0  0  0  0  0  0
   -6.8000   18.8690  -32.8780 C   0  0  0  0  0  0  0  0  0  0  0  0
   -4.7100   22.5320  -31.9150 C   0  0  0  0  0  0  0  0  0  0  0  0
   -3.5426   21.5654  -28.1194 H   0  0  0  0  0  0  0  0  0  0  0  0
   -1.7531   20.4622  -26.7792 H   0  0  0  0  0  0  0  0  0  0  0  0
    0.2135   21.7794  -25.9884 H   0  0  0  0  0  0  0  0  0  0  0  0
    0.6510   24.7160  -24.0310 H   0  0  0  0  0  0  0  0  0  0  0  0
   -1.2008   26.1990  -25.8058 H   0  0  0  0  0  0  0  0  0  0  0  0
   -1.5484   24.8581  -24.6387 H   0  0  0  0  0  0  0  0  0  0  0  0
   -1.3717   27.7884  -24.1793 H   0  0  0  0  0  0  0  0  0  0  0  0
   -2.2107   26.4980  -23.2317 H   0  0  0  0  0  0  0  0  0  0  0  0
    0.8085   28.3882  -23.5729 H   0  0  0  0  0  0  0  0  0  0  0  0
    1.7597   27.1719  -22.6103 H   0  0  0  0  0  0  0  0  0  0  0  0
    1.2023   27.2480  -25.4911 H   0  0  0  0  0  0  0  0  0  0  0  0
    2.3777   26.2468  -24.5556 H   0  0  0  0  0  0  0  0  0  0  0  0
   -1.4319   25.3341  -27.8333 H   0  0  0  0  0  0  0  0  0  0  0  0
   -1.5348   22.5795  -30.6375 H   0  0  0  0  0  0  0  0  0  0  0  0
   -1.3858   20.5060  -32.0120 H   0  0  0  0  0  0  0  0  0  0  0  0
   -3.3587   19.7223  -33.3185 H   0  0  0  0  0  0  0  0  0  0  0  0
   -7.9960   22.0253  -32.3196 H   0  0  0  0  0  0  0  0  0  0  0  0
   -9.8907   20.7039  -31.3756 H   0  0  0  0  0  0  0  0  0  0  0  0
   -9.8095   18.2080  -31.3954 H   0  0  0  0  0  0  0  0  0  0  0  0
   -7.8186   17.0318  -32.3398 H   0  0  0  0  0  0  0  0  0  0  0  0
   -5.9234   18.3468  -33.2890 H   0  0  0  0  0  0  0  0  0  0  0  0
   -5.6486   23.1052  -31.8912 H   0  0  0  0  0  0  0  0  0  0  0  0
  1  2  2  0
  2  3  1  0
  3  4  1  0
  4  5  2  0
  5  6  1  0
  6  7  2  0
  7  8  1  0
  8  9  1  0
  9 10  2  0
  9 11  2  0
  9 12  1  0
 12 13  1  0
 13 14  1  0
 14 15  1  0
 15 16  1  0
 16 17  1  0
  8 18  2  0
  2 19  1  0
 19 20  2  0
 20 21  1  0
 21 22  2  0
 22 23  1  0
 23 24  1  0
 24 25  1  0
 25 26  2  0
 26 27  1  0
 27 28  2  0
 28 29  1  0
 29 30  2  0
 23 31  2  0
 18  4  1  0
 31 19  1  0
 17 12  1  0
 30 25  1  0
  5 32  1  0
  6 33  1  0
  7 34  1  0
 12 35  1  0
 13 36  1  0
 13 37  1  0
 14 38  1  0
 14 39  1  0
 16 40  1  0
 16 41  1  0
 17 42  1  0
 17 43  1  0
 18 44  1  0
 20 45  1  0
 21 46  1  0
 22 47  1  0
 26 48  1  0
 27 49  1  0
 28 50  1  0
 29 51  1  0
 30 52  1  0
 31 53  1  0
M  CHG  2   3  -1  12   1
M  END
>  <UniqueID>  (50) 
47

>  <SMILES>  (50) 
O=C([N-]c1cccc(S(=O)(=O)[NH+]2CCOCC2)c1)c1cccc(Oc2ccccc2)c1

>  <Energy>  (50) 
76.1878226197143

>  <Genealogy>  (50) 
O=C([N-]c1cccc(S(=O)(=O)[NH+]2CCOCC2)c1)c1cccc(Oc2ccccc2)c1 (protonated)
O=C([N-]c1cccc(S(=O)(=O)[NH+]2CCOCC2)c1)c1cccc(Oc2ccccc2)c1 (3D coordinates assigned)
O=C([N-]c1cccc(S(=O)(=O)[NH+]2CCOCC2)c1)c1cccc(Oc2ccccc2)c1 (nonaromatic ring conformer: 76.1878226197143 kcal/mol)

>  <smiles>  (50) 
O=C(Nc1cccc(S(=O)(=O)N2CCOCC2)c1)c1cccc(Oc2ccccc2)c1

>  <score_type>  (50) 
oracle

>  <origin>  (50) 
adgpu

>  <m_score__min__energy>  (50) 
-11.65

>  <m_primary>  (50) 
energy

$$$$
