0:0
     RDKit          3D

 35 37  0  0  0  0  0  0  0  0999 V2000
   -3.9131   22.0159  -32.2788 H   0  0  0  0  0  0  0  0  0  0  0  0
   -5.0000   22.1430  -32.1670 C   0  0  0  0  0  0  0  0  0  0  0  0
   -5.8680   21.1970  -32.7180 C   0  0  0  0  0  0  0  0  0  0  0  0
   -5.4620   20.3403  -33.2759 H   0  0  0  0  0  0  0  0  0  0  0  0
   -7.2600   21.3360  -32.5620 C   0  0  0  0  0  0  0  0  0  0  0  0
   -8.1740   20.4150  -33.0950 O   0  0  0  0  0  0  0  0  0  0  0  0
   -8.7780   19.3610  -32.3530 C   0  0  0  0  0  0  0  0  0  0  0  0
   -8.6648   19.5585  -31.2768 H   0  0  0  0  0  0  0  0  0  0  0  0
   -9.8472   19.3015  -32.6044 H   0  0  0  0  0  0  0  0  0  0  0  0
   -8.2887   18.4084  -32.6044 H   0  0  0  0  0  0  0  0  0  0  0  0
   -7.7590   22.4260  -31.8410 C   0  0  0  0  0  0  0  0  0  0  0  0
   -8.8448   22.5392  -31.7062 H   0  0  0  0  0  0  0  0  0  0  0  0
   -6.8900   23.3730  -31.2900 C   0  0  0  0  0  0  0  0  0  0  0  0
   -7.2942   24.2162  -30.7107 H   0  0  0  0  0  0  0  0  0  0  0  0
   -5.5010   23.2510  -31.4740 C   0  0  0  0  0  0  0  0  0  0  0  0
   -4.5700   24.1820  -30.8960 N   0  0  0  0  0  0  0  0  0  0  0  0
   -3.6870   23.9350  -29.9720 C   0  0  0  0  0  0  0  0  0  0  0  0
   -2.8490   24.9270  -29.5770 N   0  0  0  0  0  0  0  0  0  0  0  0
   -1.9210   24.7350  -28.6020 C   0  0  0  0  0  0  0  0  0  0  0  0
   -0.8580   26.1180  -28.1610 S   0  0  0  0  0  0  0  0  0  0  0  0
   -1.5830   26.2970  -26.5020 C   0  0  0  0  0  0  0  0  0  0  0  0
   -0.8110   26.1064  -25.7420 H   0  0  0  0  0  0  0  0  0  0  0  0
   -1.9729   27.3184  -26.3805 H   0  0  0  0  0  0  0  0  0  0  0  0
   -2.4035   25.5745  -26.3805 H   0  0  0  0  0  0  0  0  0  0  0  0
   -1.8270   23.4810  -27.9690 C   0  0  0  0  0  0  0  0  0  0  0  0
   -0.8960   23.2020  -26.9510 C   0  0  0  0  0  0  0  0  0  0  0  0
   -0.1985   23.9837  -26.6157 H   0  0  0  0  0  0  0  0  0  0  0  0
   -0.8560   21.9330  -26.3650 C   0  0  0  0  0  0  0  0  0  0  0  0
   -0.1262   21.7203  -25.5699 H   0  0  0  0  0  0  0  0  0  0  0  0
   -1.7380   20.9340  -26.7840 C   0  0  0  0  0  0  0  0  0  0  0  0
   -1.7012   19.9381  -26.3182 H   0  0  0  0  0  0  0  0  0  0  0  0
   -2.6670   21.1980  -27.7940 C   0  0  0  0  0  0  0  0  0  0  0  0
   -3.3611   20.4101  -28.1220 H   0  0  0  0  0  0  0  0  0  0  0  0
   -2.7150   22.4650  -28.3890 C   0  0  0  0  0  0  0  0  0  0  0  0
   -3.6190   22.7160  -29.3690 N   0  0  0  0  0  0  0  0  0  0  0  0
  1  2  1  0
  2  3  2  0
  3  4  1  0
  3  5  1  0
  5  6  1  0
  6  7  1  0
  7  8  1  0
  7  9  1  0
  7 10  1  0
  5 11  2  0
 11 12  1  0
 11 13  1  0
 13 14  1  0
 13 15  2  0
 15 16  1  0
 16 17  2  0
 17 18  1  0
 18 19  2  0
 19 20  1  0
 20 21  1  0
 21 22  1  0
 21 23  1  0
 21 24  1  0
 19 25  1  0
 25 26  2  0
 26 27  1  0
 26 28  1  0
 28 29  1  0
 28 30  2  0
 30 31  1  0
 30 32  1  0
 32 33  1  0
 32 34  2  0
 34 35  1  0
 15  2  1  0
 35 17  1  0
 34 25  1  0
M  CHG  1  35  -1
M  END
>  <UniqueID>  (1) 
1

>  <SMILES>  (1) 
COc1ccc(/N=c2/nc(SC)c3ccccc3[n-]2)cc1

>  <Energy>  (1) 
43.82899885203441

>  <Genealogy>  (1) 
COc1ccc(N=c2nc(SC)c3ccccc3[n-]2)cc1 (protonated)
COc1ccc(/N=c2/nc(SC)c3ccccc3[n-]2)cc1 (cis-trans isomerization)
COc1ccc(/N=c2/nc(SC)c3ccccc3[n-]2)cc1 (3D coordinates assigned)
COc1ccc(/N=c2/nc(SC)c3ccccc3[n-]2)cc1 (optimized conformer: 43.82899885203441 kcal/mol)

>  <smiles>  (1) 
COc1ccc(N=c2nc(SC)c3ccccc3[nH]2)cc1

>  <score_type>  (1) 
oracle

>  <origin>  (1) 
adgpu

>  <m_score__min__energy>  (1) 
-8.4299999999999997

>  <m_primary>  (1) 
energy

$$$$
1:0
     RDKit          3D

 22 23  0  0  0  0  0  0  0  0999 V2000
    0.6140   25.0530  -27.9260 O   0  0  0  0  0  0  0  0  0  0  0  0
   -0.5680   24.6220  -27.9850 C   0  0  0  0  0  0  0  0  0  0  0  0
   -1.3720   24.9920  -29.0140 N   0  0  0  0  0  0  0  0  0  0  0  0
   -2.6520   24.5430  -29.0910 C   0  0  0  0  0  0  0  0  0  0  0  0
   -3.4710   24.9230  -30.2060 N   0  0  0  0  0  0  0  0  0  0  0  0
   -4.7010   24.2700  -30.5640 C   0  0  0  0  0  0  0  0  0  0  0  0
   -5.9210   24.8180  -30.1370 C   0  0  0  0  0  0  0  0  0  0  0  0
   -7.1290   24.1890  -30.4530 C   0  0  0  0  0  0  0  0  0  0  0  0
   -7.1290   22.9970  -31.1830 C   0  0  0  0  0  0  0  0  0  0  0  0
   -8.7800   22.1360  -31.6100 Br  0  0  0  0  0  0  0  0  0  0  0  0
   -5.9170   22.4300  -31.5910 C   0  0  0  0  0  0  0  0  0  0  0  0
   -4.7080   23.0570  -31.2770 C   0  0  0  0  0  0  0  0  0  0  0  0
   -3.1170   23.6950  -28.1340 N   0  0  0  0  0  0  0  0  0  0  0  0
   -2.3460   23.3170  -27.1130 N   0  0  0  0  0  0  0  0  0  0  0  0
   -1.0660   23.7620  -27.0040 C   0  0  0  0  0  0  0  0  0  0  0  0
   -0.3460   23.3980  -26.0350 O   0  0  0  0  0  0  0  0  0  0  0  0
   -3.1070   25.6690  -30.8400 H   0  0  0  0  0  0  0  0  0  0  0  0
   -5.9265   25.7483  -29.5500 H   0  0  0  0  0  0  0  0  0  0  0  0
   -8.0810   24.6329  -30.1266 H   0  0  0  0  0  0  0  0  0  0  0  0
   -5.9155   21.4887  -32.1602 H   0  0  0  0  0  0  0  0  0  0  0  0
   -3.7573   22.5999  -31.5888 H   0  0  0  0  0  0  0  0  0  0  0  0
   -2.7380   22.6690  -26.3930 H   0  0  0  0  0  0  0  0  0  0  0  0
  1  2  2  0
  2  3  1  0
  3  4  1  0
  4  5  1  0
  5  6  1  0
  6  7  2  0
  7  8  1  0
  8  9  2  0
  9 10  1  0
  9 11  1  0
 11 12  2  0
  4 13  2  0
 13 14  1  0
 14 15  1  0
 15 16  2  0
 15  2  1  0
 12  6  1  0
  5 17  1  0
  7 18  1  0
  8 19  1  0
 11 20  1  0
 12 21  1  0
 14 22  1  0
M  CHG  1   3  -1
M  END
>  <UniqueID>  (2) 
2

>  <SMILES>  (2) 
O=c1[n-]c(Nc2ccc(Br)cc2)n[nH]c1=O

>  <Energy>  (2) 
28.357850058791247

>  <Genealogy>  (2) 
O=c1[n-]c(Nc2ccc(Br)cc2)n[nH]c1=O (protonated)
O=c1[n-]c(Nc2ccc(Br)cc2)n[nH]c1=O (3D coordinates assigned)
O=c1[n-]c(Nc2ccc(Br)cc2)n[nH]c1=O (optimized conformer: 28.357850058791247 kcal/mol)

>  <smiles>  (2) 
O=c1[nH]nc(Nc2ccc(Br)cc2)[nH]c1=O

>  <score_type>  (2) 
oracle

>  <origin>  (2) 
adgpu

>  <m_score__min__energy>  (2) 
-7.7800000000000002

>  <m_primary>  (2) 
energy

$$$$
2:0
     RDKit          3D

 21 22  0  0  0  0  0  0  0  0999 V2000
   -5.5950   24.5650  -30.6480 C   0  0  0  0  0  0  0  0  0  0  0  0
   -6.5230   23.7980  -31.5840 C   0  0  0  0  0  0  0  0  0  0  0  0
   -5.8350   22.6370  -32.1520 N   0  0  0  0  0  0  0  0  0  0  0  0
   -4.5940   22.6690  -32.6960 C   0  0  0  0  0  0  0  0  0  0  0  0
   -4.2020   21.4810  -33.2120 N   0  0  0  0  0  0  0  0  0  0  0  0
   -5.2590   20.6820  -32.9820 C   0  0  0  0  0  0  0  0  0  0  0  0
   -5.3760   19.3400  -33.3320 C   0  0  0  0  0  0  0  0  0  0  0  0
   -4.0500   18.5210  -34.1510 Cl  0  0  0  0  0  0  0  0  0  0  0  0
   -6.5790   18.6750  -33.0140 C   0  0  0  0  0  0  0  0  0  0  0  0
   -6.7740   16.9740  -33.4390 Cl  0  0  0  0  0  0  0  0  0  0  0  0
   -7.6270   19.3720  -32.3580 C   0  0  0  0  0  0  0  0  0  0  0  0
   -9.1270   18.5260  -31.9690 Cl  0  0  0  0  0  0  0  0  0  0  0  0
   -7.4780   20.7400  -32.0140 C   0  0  0  0  0  0  0  0  0  0  0  0
   -8.7960   21.5770  -31.1970 Cl  0  0  0  0  0  0  0  0  0  0  0  0
   -6.2600   21.3660  -32.3460 C   0  0  0  0  0  0  0  0  0  0  0  0
   -5.8625   24.3439  -29.6042 H   0  0  0  0  0  0  0  0  0  0  0  0
   -4.5544   24.2599  -30.8323 H   0  0  0  0  0  0  0  0  0  0  0  0
   -5.6987   25.6445  -30.8323 H   0  0  0  0  0  0  0  0  0  0  0  0
   -7.4038   23.4566  -31.0204 H   0  0  0  0  0  0  0  0  0  0  0  0
   -6.8312   24.4642  -32.4032 H   0  0  0  0  0  0  0  0  0  0  0  0
   -3.9667   23.5724  -32.7161 H   0  0  0  0  0  0  0  0  0  0  0  0
  1  2  1  0
  2  3  1  0
  3  4  1  0
  4  5  2  0
  5  6  1  0
  6  7  2  0
  7  8  1  0
  7  9  1  0
  9 10  1  0
  9 11  2  0
 11 12  1  0
 11 13  1  0
 13 14  1  0
 13 15  2  0
 15  3  1  0
 15  6  1  0
  1 16  1  0
  1 17  1  0
  1 18  1  0
  2 19  1  0
  2 20  1  0
  4 21  1  0
M  END
>  <UniqueID>  (3) 
3

>  <SMILES>  (3) 
CCn1cnc2c(Cl)c(Cl)c(Cl)c(Cl)c21

>  <Energy>  (3) 
61.9021158215127

>  <Genealogy>  (3) 
CCn1cnc2c(Cl)c(Cl)c(Cl)c(Cl)c21 (3D coordinates assigned)
CCn1cnc2c(Cl)c(Cl)c(Cl)c(Cl)c21 (optimized conformer: 61.9021158215127 kcal/mol)

>  <smiles>  (3) 
CCn1cnc2c(Cl)c(Cl)c(Cl)c(Cl)c21

>  <score_type>  (3) 
oracle

>  <origin>  (3) 
adgpu

>  <m_score__min__energy>  (3) 
-6.7400000000000002

>  <m_primary>  (3) 
energy

$$$$
3:0
     RDKit          3D

 20 20  0  0  0  0  0  0  0  0999 V2000
   -6.9510   23.7180  -30.8900 C   0  0  0  0  0  0  0  0  0  0  0  0
   -6.1470   24.7800  -30.8970 C   0  0  0  0  0  0  0  0  0  0  0  0
   -4.8980   24.8540  -30.1180 C   0  0  0  0  0  0  0  0  0  0  0  0
   -3.8640   25.3050  -30.6830 O   0  0  0  0  0  0  0  0  0  0  0  0
   -4.8520   24.4810  -28.7300 N   0  0  0  0  0  0  0  0  0  0  0  0
   -3.6390   24.1480  -28.0320 C   0  0  0  0  0  0  0  0  0  0  0  0
   -2.8640   23.0650  -28.4760 C   0  0  0  0  0  0  0  0  0  0  0  0
   -1.6700   22.7350  -27.8280 C   0  0  0  0  0  0  0  0  0  0  0  0
   -1.2330   23.4930  -26.7360 C   0  0  0  0  0  0  0  0  0  0  0  0
    0.2670   23.0800  -25.9250 Cl  0  0  0  0  0  0  0  0  0  0  0  0
   -1.9870   24.5860  -26.3000 C   0  0  0  0  0  0  0  0  0  0  0  0
   -3.1820   24.9170  -26.9460 C   0  0  0  0  0  0  0  0  0  0  0  0
   -7.8712   23.7208  -31.4927 H   0  0  0  0  0  0  0  0  0  0  0  0
   -6.6947   22.8382  -30.2815 H   0  0  0  0  0  0  0  0  0  0  0  0
   -6.4293   25.6450  -31.5151 H   0  0  0  0  0  0  0  0  0  0  0  0
   -5.7270   24.5710  -28.1660 H   0  0  0  0  0  0  0  0  0  0  0  0
   -3.1985   22.4719  -29.3399 H   0  0  0  0  0  0  0  0  0  0  0  0
   -1.0737   21.8790  -28.1768 H   0  0  0  0  0  0  0  0  0  0  0  0
   -1.6396   25.1871  -25.4468 H   0  0  0  0  0  0  0  0  0  0  0  0
   -3.7677   25.7828  -26.6035 H   0  0  0  0  0  0  0  0  0  0  0  0
  1  2  2  0
  2  3  1  0
  3  4  2  0
  3  5  1  0
  5  6  1  0
  6  7  2  0
  7  8  1  0
  8  9  2  0
  9 10  1  0
  9 11  1  0
 11 12  2  0
 12  6  1  0
  1 13  1  0
  1 14  1  0
  2 15  1  0
  5 16  1  0
  7 17  1  0
  8 18  1  0
 11 19  1  0
 12 20  1  0
M  END
>  <UniqueID>  (4) 
4

>  <SMILES>  (4) 
C=CC(=O)Nc1ccc(Cl)cc1

>  <Energy>  (4) 
20.95599735237212

>  <Genealogy>  (4) 
C=CC(=O)Nc1ccc(Cl)cc1 (3D coordinates assigned)
C=CC(=O)Nc1ccc(Cl)cc1 (optimized conformer: 20.95599735237212 kcal/mol)

>  <smiles>  (4) 
C=CC(=O)Nc1ccc(Cl)cc1

>  <score_type>  (4) 
oracle

>  <origin>  (4) 
adgpu

>  <m_score__min__energy>  (4) 
-5.4800000000000004

>  <m_primary>  (4) 
energy

$$$$
4:0
     RDKit          3D

 50 52  0  0  0  0  0  0  0  0999 V2000
   -7.6250   20.3280  -32.2810 C   0  0  0  0  0  0  0  0  0  0  0  0
   -6.9510   21.6140  -31.8850 C   0  0  0  0  0  0  0  0  0  0  0  0
   -7.5820   22.4760  -30.9730 C   0  0  0  0  0  0  0  0  0  0  0  0
   -6.9670   23.6660  -30.5790 C   0  0  0  0  0  0  0  0  0  0  0  0
   -5.7240   24.0350  -31.1140 C   0  0  0  0  0  0  0  0  0  0  0  0
   -5.0420   25.2660  -30.6660 C   0  0  0  0  0  0  0  0  0  0  0  0
   -5.7090   26.3120  -30.4320 O   0  0  0  0  0  0  0  0  0  0  0  0
   -3.6240   25.2660  -30.4710 N   0  0  0  0  0  0  0  0  0  0  0  0
   -2.9860   24.7670  -29.2590 C   0  0  0  0  0  0  0  0  0  0  0  0
   -2.4200   23.4030  -29.5320 C   0  0  0  0  0  0  0  0  0  0  0  0
   -1.0370   23.2230  -29.6790 C   0  0  0  0  0  0  0  0  0  0  0  0
   -0.5020   21.9400  -29.8300 C   0  0  0  0  0  0  0  0  0  0  0  0
   -1.3440   20.8120  -29.8240 C   0  0  0  0  0  0  0  0  0  0  0  0
   -0.8320   19.4740  -29.9620 N   0  0  0  0  0  0  0  0  0  0  0  0
   -0.0680   18.5750  -28.6880 S   0  0  0  0  0  0  0  0  0  0  0  0
    1.4810   19.3330  -28.2500 C   0  0  0  0  0  0  0  0  0  0  0  0
    0.1960   17.1770  -29.1720 O   0  0  0  0  0  0  0  0  0  0  0  0
   -0.9750   18.5050  -27.4910 O   0  0  0  0  0  0  0  0  0  0  0  0
   -2.7280   20.9990  -29.6800 C   0  0  0  0  0  0  0  0  0  0  0  0
   -3.2610   22.2800  -29.5250 C   0  0  0  0  0  0  0  0  0  0  0  0
   -5.1030   23.1880  -32.0440 C   0  0  0  0  0  0  0  0  0  0  0  0
   -5.6910   21.9670  -32.4160 C   0  0  0  0  0  0  0  0  0  0  0  0
   -5.0170   21.1040  -33.3490 N   0  0  0  0  0  0  0  0  0  0  0  0
   -3.6630   20.6460  -33.1740 C   0  0  0  0  0  0  0  0  0  0  0  0
   -2.6010   21.5390  -33.3690 C   0  0  0  0  0  0  0  0  0  0  0  0
   -1.2860   21.0920  -33.2130 C   0  0  0  0  0  0  0  0  0  0  0  0
   -1.0390   19.7940  -32.8920 N   0  0  0  0  0  0  0  0  0  0  0  0
   -2.0480   18.8990  -32.7160 C   0  0  0  0  0  0  0  0  0  0  0  0
   -1.7800   17.7030  -32.4320 O   0  0  0  0  0  0  0  0  0  0  0  0
   -3.3780   19.3060  -32.8580 C   0  0  0  0  0  0  0  0  0  0  0  0
   -7.9159   19.7730  -31.3769 H   0  0  0  0  0  0  0  0  0  0  0  0
   -8.5214   20.5525  -32.8778 H   0  0  0  0  0  0  0  0  0  0  0  0
   -6.9304   19.7186  -32.8778 H   0  0  0  0  0  0  0  0  0  0  0  0
   -8.5690   22.2113  -30.5658 H   0  0  0  0  0  0  0  0  0  0  0  0
   -7.4607   24.3186  -29.8439 H   0  0  0  0  0  0  0  0  0  0  0  0
   -2.1766   25.4494  -28.9603 H   0  0  0  0  0  0  0  0  0  0  0  0
   -3.7253   24.7074  -28.4467 H   0  0  0  0  0  0  0  0  0  0  0  0
   -0.3688   24.0968  -29.6755 H   0  0  0  0  0  0  0  0  0  0  0  0
    0.5834   21.8114  -29.9542 H   0  0  0  0  0  0  0  0  0  0  0  0
   -0.9830   18.9680  -30.8640 H   0  0  0  0  0  0  0  0  0  0  0  0
    1.5709   19.3770  -27.1546 H   0  0  0  0  0  0  0  0  0  0  0  0
    2.3096   18.7386  -28.6623 H   0  0  0  0  0  0  0  0  0  0  0  0
    1.5201   20.3520  -28.6623 H   0  0  0  0  0  0  0  0  0  0  0  0
   -3.3991   20.1275  -29.6894 H   0  0  0  0  0  0  0  0  0  0  0  0
   -4.3458   22.4095  -29.3967 H   0  0  0  0  0  0  0  0  0  0  0  0
   -4.1414   23.4840  -32.4887 H   0  0  0  0  0  0  0  0  0  0  0  0
   -5.5310   20.8030  -34.2090 H   0  0  0  0  0  0  0  0  0  0  0  0
   -2.8010   22.5853  -33.6432 H   0  0  0  0  0  0  0  0  0  0  0  0
   -0.4487   21.7921  -33.3503 H   0  0  0  0  0  0  0  0  0  0  0  0
   -4.1958   18.5828  -32.7234 H   0  0  0  0  0  0  0  0  0  0  0  0
  1  2  1  0
  2  3  2  0
  3  4  1  0
  4  5  2  0
  5  6  1  0
  6  7  2  0
  6  8  1  0
  8  9  1  0
  9 10  1  0
 10 11  2  0
 11 12  1  0
 12 13  2  0
 13 14  1  0
 14 15  1  0
 15 16  1  0
 15 17  2  0
 15 18  2  0
 13 19  1  0
 19 20  2  0
  5 21  1  0
 21 22  2  0
 22 23  1  0
 23 24  1  0
 24 25  1  0
 25 26  2  0
 26 27  1  0
 27 28  1  0
 28 29  2  0
 28 30  1  0
 22  2  1  0
 30 24  2  0
 20 10  1  0
  1 31  1  0
  1 32  1  0
  1 33  1  0
  3 34  1  0
  4 35  1  0
  9 36  1  0
  9 37  1  0
 11 38  1  0
 12 39  1  0
 14 40  1  0
 16 41  1  0
 16 42  1  0
 16 43  1  0
 19 44  1  0
 20 45  1  0
 21 46  1  0
 23 47  1  0
 25 48  1  0
 26 49  1  0
 30 50  1  0
M  CHG  2   8  -1  27  -1
M  END
>  <UniqueID>  (5) 
5

>  <SMILES>  (5) 
Cc1ccc(C(=O)[N-]Cc2ccc(NS(C)(=O)=O)cc2)cc1Nc1cc[n-]c(=O)c1

>  <Energy>  (5) 
56.59445896526219

>  <Genealogy>  (5) 
Cc1ccc(C(=O)[N-]Cc2ccc(NS(C)(=O)=O)cc2)cc1Nc1cc[n-]c(=O)c1 (protonated)
Cc1ccc(C(=O)[N-]Cc2ccc(NS(C)(=O)=O)cc2)cc1Nc1cc[n-]c(=O)c1 (3D coordinates assigned)
Cc1ccc(C(=O)[N-]Cc2ccc(NS(C)(=O)=O)cc2)cc1Nc1cc[n-]c(=O)c1 (optimized conformer: 56.59445896526219 kcal/mol)

>  <smiles>  (5) 
Cc1ccc(C(=O)NCc2ccc(NS(C)(=O)=O)cc2)cc1Nc1cc[nH]c(=O)c1

>  <score_type>  (5) 
oracle

>  <origin>  (5) 
adgpu

>  <m_score__min__energy>  (5) 
-10.93

>  <m_primary>  (5) 
energy

$$$$
5:0
     RDKit          3D

 42 45  0  0  0  0  0  0  0  0999 V2000
   -9.4900   19.3890  -33.9730 H   0  0  0  0  0  0  0  0  0  0  0  0
   -9.2500   19.8660  -33.0740 N   0  0  0  0  0  0  0  0  0  0  0  0
   -8.0580   20.3140  -32.8530 C   0  0  0  0  0  0  0  0  0  0  0  0
   -7.0430   20.2150  -33.7310 N   0  0  0  0  0  0  0  0  0  0  0  0
   -6.0040   20.7850  -33.1410 N   0  0  0  0  0  0  0  0  0  0  0  0
   -6.4310   21.2060  -31.9310 C   0  0  0  0  0  0  0  0  0  0  0  0
   -5.5840   21.9010  -30.9410 C   0  0  0  0  0  0  0  0  0  0  0  0
   -6.0660   23.0390  -30.2770 C   0  0  0  0  0  0  0  0  0  0  0  0
   -7.0775   23.4120  -30.4954 H   0  0  0  0  0  0  0  0  0  0  0  0
   -5.2680   23.7020  -29.3390 C   0  0  0  0  0  0  0  0  0  0  0  0
   -5.6566   24.5938  -28.8254 H   0  0  0  0  0  0  0  0  0  0  0  0
   -3.9730   23.2380  -29.0470 C   0  0  0  0  0  0  0  0  0  0  0  0
   -3.1260   23.9410  -28.0490 C   0  0  0  0  0  0  0  0  0  0  0  0
   -1.7320   24.0120  -28.2080 C   0  0  0  0  0  0  0  0  0  0  0  0
   -1.2562   23.5439  -29.0824 H   0  0  0  0  0  0  0  0  0  0  0  0
   -0.9690   24.6560  -27.2870 N   0  0  0  0  0  0  0  0  0  0  0  0
   -1.4970   25.2590  -26.1850 C   0  0  0  0  0  0  0  0  0  0  0  0
   -0.6250   25.9320  -25.2450 N   0  0  0  0  0  0  0  0  0  0  0  0
   -1.1600   26.4570  -23.9800 C   0  0  0  0  0  0  0  0  0  0  0  0
   -2.0377   27.0843  -24.1945 H   0  0  0  0  0  0  0  0  0  0  0  0
   -1.4381   25.6068  -23.3398 H   0  0  0  0  0  0  0  0  0  0  0  0
   -0.1140   27.2970  -23.2430 C   0  0  0  0  0  0  0  0  0  0  0  0
    0.0492   28.2373  -23.7899 H   0  0  0  0  0  0  0  0  0  0  0  0
   -0.4759   27.5141  -22.2272 H   0  0  0  0  0  0  0  0  0  0  0  0
    1.1510   26.5600  -23.1560 N   0  0  0  0  0  0  0  0  0  0  0  0
    1.8370   27.1400  -22.6180 H   0  0  0  0  0  0  0  0  0  0  0  0
    0.9920   25.6780  -22.6130 H   0  0  0  0  0  0  0  0  0  0  0  0
    1.7310   26.2250  -24.4770 C   0  0  0  0  0  0  0  0  0  0  0  0
    2.5597   26.9208  -24.6747 H   0  0  0  0  0  0  0  0  0  0  0  0
    2.0548   25.1753  -24.4191 H   0  0  0  0  0  0  0  0  0  0  0  0
    0.7360   26.3130  -25.6550 C   0  0  0  0  0  0  0  0  0  0  0  0
    0.7191   27.3464  -26.0314 H   0  0  0  0  0  0  0  0  0  0  0  0
    1.0674   25.6148  -26.4377 H   0  0  0  0  0  0  0  0  0  0  0  0
   -2.8900   25.2080  -25.9900 C   0  0  0  0  0  0  0  0  0  0  0  0
   -3.3419   25.6847  -25.1076 H   0  0  0  0  0  0  0  0  0  0  0  0
   -3.6960   24.5500  -26.9210 C   0  0  0  0  0  0  0  0  0  0  0  0
   -4.7847   24.5088  -26.7691 H   0  0  0  0  0  0  0  0  0  0  0  0
   -3.4940   22.0970  -29.7140 C   0  0  0  0  0  0  0  0  0  0  0  0
   -2.4835   21.7212  -29.4956 H   0  0  0  0  0  0  0  0  0  0  0  0
   -4.2920   21.4360  -30.6530 C   0  0  0  0  0  0  0  0  0  0  0  0
   -3.9042   20.5455  -31.1693 H   0  0  0  0  0  0  0  0  0  0  0  0
   -7.7000   20.9170  -31.7480 O   0  0  0  0  0  0  0  0  0  0  0  0
  1  2  1  0
  2  3  2  0
  3  4  1  0
  4  5  1  0
  5  6  2  0
  6  7  1  0
  7  8  2  0
  8  9  1  0
  8 10  1  0
 10 11  1  0
 10 12  2  0
 12 13  1  0
 13 14  2  0
 14 15  1  0
 14 16  1  0
 16 17  2  0
 17 18  1  0
 18 19  1  0
 19 20  1  0
 19 21  1  0
 19 22  1  0
 22 23  1  0
 22 24  1  0
 22 25  1  0
 25 26  1  0
 25 27  1  0
 25 28  1  0
 28 29  1  0
 28 30  1  0
 28 31  1  0
 31 32  1  0
 31 33  1  0
 17 34  1  0
 34 35  1  0
 34 36  2  0
 36 37  1  0
 12 38  1  0
 38 39  1  0
 38 40  2  0
 40 41  1  0
  6 42  1  0
 42  3  1  0
 40  7  1  0
 36 13  1  0
 31 18  1  0
M  CHG  2   4  -1  25   1
M  END
>  <UniqueID>  (6) 
6

>  <SMILES>  (6) 
[H]/N=c1\[n-]nc(-c2ccc(-c3ccc(N4CC[NH2+]CC4)nc3)cc2)o1

>  <Energy>  (6) 
93.12231042122613

>  <Genealogy>  (6) 
N=c1[n-]nc(-c2ccc(-c3ccc(N4CC[NH2+]CC4)nc3)cc2)o1 (protonated)
[H]/N=c1\[n-]nc(-c2ccc(-c3ccc(N4CC[NH2+]CC4)nc3)cc2)o1 (cis-trans isomerization)
[H]/N=c1\[n-]nc(-c2ccc(-c3ccc(N4CC[NH2+]CC4)nc3)cc2)o1 (3D coordinates assigned)
[H]/N=c1\[n-]nc(-c2ccc(-c3ccc(N4CC[NH2+]CC4)nc3)cc2)o1 (nonaromatic ring conformer: 93.12231042122613 kcal/mol)

>  <smiles>  (6) 
N=c1[nH]nc(-c2ccc(-c3ccc(N4CCNCC4)nc3)cc2)o1

>  <score_type>  (6) 
oracle

>  <origin>  (6) 
adgpu

>  <m_score__min__energy>  (6) 
-7.9800000000000004

>  <m_primary>  (6) 
energy

$$$$
6:0
     RDKit          3D

 33 35  0  0  0  0  0  0  0  0999 V2000
   -4.6790   26.0930  -30.4740 N   0  0  0  0  0  0  0  0  0  0  0  0
   -5.0460   24.7230  -30.6320 C   0  0  0  0  0  0  0  0  0  0  0  0
   -6.4880   24.2100  -31.3180 S   0  0  0  0  0  0  0  0  0  0  0  0
   -6.1600   22.5570  -31.2240 C   0  0  0  0  0  0  0  0  0  0  0  0
   -7.0680   21.4730  -31.6790 C   0  0  0  0  0  0  0  0  0  0  0  0
   -6.5410   20.2520  -32.1430 C   0  0  0  0  0  0  0  0  0  0  0  0
   -7.3900   19.2280  -32.5720 C   0  0  0  0  0  0  0  0  0  0  0  0
   -8.7750   19.4060  -32.5390 C   0  0  0  0  0  0  0  0  0  0  0  0
   -9.3120   20.6080  -32.0760 C   0  0  0  0  0  0  0  0  0  0  0  0
   -8.4670   21.6370  -31.6470 C   0  0  0  0  0  0  0  0  0  0  0  0
   -4.8990   22.3980  -30.6430 C   0  0  0  0  0  0  0  0  0  0  0  0
   -4.2640   23.6100  -30.3150 C   0  0  0  0  0  0  0  0  0  0  0  0
   -2.9460   23.6700  -29.6450 C   0  0  0  0  0  0  0  0  0  0  0  0
   -2.3870   24.7910  -29.4970 O   0  0  0  0  0  0  0  0  0  0  0  0
   -2.2830   22.4560  -29.1100 C   0  0  0  0  0  0  0  0  0  0  0  0
   -2.7470   21.8350  -27.9340 C   0  0  0  0  0  0  0  0  0  0  0  0
   -2.1200   20.6850  -27.4460 C   0  0  0  0  0  0  0  0  0  0  0  0
   -1.0300   20.1360  -28.1280 C   0  0  0  0  0  0  0  0  0  0  0  0
   -0.2470   18.6920  -27.5140 Cl  0  0  0  0  0  0  0  0  0  0  0  0
   -0.5720   20.7350  -29.3050 C   0  0  0  0  0  0  0  0  0  0  0  0
   -1.1950   21.8860  -29.7960 C   0  0  0  0  0  0  0  0  0  0  0  0
   -5.1820   26.8320  -31.0130 H   0  0  0  0  0  0  0  0  0  0  0  0
   -3.8780   26.3790  -29.8690 H   0  0  0  0  0  0  0  0  0  0  0  0
   -5.4514   20.1030  -32.1680 H   0  0  0  0  0  0  0  0  0  0  0  0
   -6.9667   18.2803  -32.9362 H   0  0  0  0  0  0  0  0  0  0  0  0
   -9.4419   18.5994  -32.8777 H   0  0  0  0  0  0  0  0  0  0  0  0
  -10.4029   20.7467  -32.0483 H   0  0  0  0  0  0  0  0  0  0  0  0
   -8.8979   22.5810  -31.2820 H   0  0  0  0  0  0  0  0  0  0  0  0
   -4.4438   21.4137  -30.4587 H   0  0  0  0  0  0  0  0  0  0  0  0
   -3.6084   22.2578  -27.3961 H   0  0  0  0  0  0  0  0  0  0  0  0
   -2.4851   20.2108  -26.5231 H   0  0  0  0  0  0  0  0  0  0  0  0
    0.2809   20.2995  -29.8463 H   0  0  0  0  0  0  0  0  0  0  0  0
   -0.8320   22.3493  -30.7253 H   0  0  0  0  0  0  0  0  0  0  0  0
  1  2  1  0
  2  3  1  0
  3  4  1  0
  4  5  1  0
  5  6  2  0
  6  7  1  0
  7  8  2  0
  8  9  1  0
  9 10  2  0
  4 11  2  0
 11 12  1  0
 12 13  1  0
 13 14  2  0
 13 15  1  0
 15 16  2  0
 16 17  1  0
 17 18  2  0
 18 19  1  0
 18 20  1  0
 20 21  2  0
 12  2  2  0
 21 15  1  0
 10  5  1  0
  1 22  1  0
  1 23  1  0
  6 24  1  0
  7 25  1  0
  8 26  1  0
  9 27  1  0
 10 28  1  0
 11 29  1  0
 16 30  1  0
 17 31  1  0
 20 32  1  0
 21 33  1  0
M  END
>  <UniqueID>  (7) 
7

>  <SMILES>  (7) 
Nc1sc(-c2ccccc2)cc1C(=O)c1ccc(Cl)cc1

>  <Energy>  (7) 
70.12353830440281

>  <Genealogy>  (7) 
Nc1sc(-c2ccccc2)cc1C(=O)c1ccc(Cl)cc1 (3D coordinates assigned)
Nc1sc(-c2ccccc2)cc1C(=O)c1ccc(Cl)cc1 (optimized conformer: 70.12353830440281 kcal/mol)

>  <smiles>  (7) 
Nc1sc(-c2ccccc2)cc1C(=O)c1ccc(Cl)cc1

>  <score_type>  (7) 
oracle

>  <origin>  (7) 
adgpu

>  <m_score__min__energy>  (7) 
-9.1400000000000006

>  <m_primary>  (7) 
energy

$$$$
7:0
     RDKit          3D

 42 44  0  0  0  0  0  0  0  0999 V2000
   -5.2890   19.0330  -32.5750 O   0  0  0  0  0  0  0  0  0  0  0  0
   -5.6830   20.2280  -32.6560 C   0  0  0  0  0  0  0  0  0  0  0  0
   -4.7480   21.2530  -33.0290 N   0  0  0  0  0  0  0  0  0  0  0  0
   -3.3270   21.0850  -32.9050 C   0  0  0  0  0  0  0  0  0  0  0  0
   -2.6740   20.1830  -33.7590 C   0  0  0  0  0  0  0  0  0  0  0  0
   -1.2940   19.9470  -33.6420 C   0  0  0  0  0  0  0  0  0  0  0  0
   -0.5990   19.0000  -34.5890 C   0  0  0  0  0  0  0  0  0  0  0  0
   -0.1410   19.6740  -35.7070 F   0  0  0  0  0  0  0  0  0  0  0  0
    0.4850   18.4010  -33.9700 F   0  0  0  0  0  0  0  0  0  0  0  0
   -1.4890   18.0200  -34.9850 F   0  0  0  0  0  0  0  0  0  0  0  0
   -0.5570   20.6720  -32.6920 C   0  0  0  0  0  0  0  0  0  0  0  0
   -1.1910   21.5910  -31.8560 C   0  0  0  0  0  0  0  0  0  0  0  0
   -2.5710   21.8150  -31.9590 C   0  0  0  0  0  0  0  0  0  0  0  0
   -3.1820   22.8290  -31.1450 N   0  0  0  0  0  0  0  0  0  0  0  0
   -4.6230   23.0840  -31.2590 C   0  0  0  0  0  0  0  0  0  0  0  0
   -4.9680   24.5420  -30.8740 C   0  0  0  0  0  0  0  0  0  0  0  0
   -3.8540   25.2790  -30.3990 O   0  0  0  0  0  0  0  0  0  0  0  0
   -3.1930   24.5510  -29.3860 C   0  0  0  0  0  0  0  0  0  0  0  0
   -2.4310   23.3810  -30.0130 C   0  0  0  0  0  0  0  0  0  0  0  0
   -7.1150   20.5410  -32.4120 C   0  0  0  0  0  0  0  0  0  0  0  0
   -7.4830   21.8500  -32.0420 C   0  0  0  0  0  0  0  0  0  0  0  0
   -8.8230   22.1760  -31.8180 C   0  0  0  0  0  0  0  0  0  0  0  0
   -9.8150   21.2050  -31.9650 C   0  0  0  0  0  0  0  0  0  0  0  0
   -9.4680   19.9080  -32.3430 C   0  0  0  0  0  0  0  0  0  0  0  0
   -8.1300   19.5700  -32.5700 C   0  0  0  0  0  0  0  0  0  0  0  0
   -7.8470   18.3080  -32.9750 F   0  0  0  0  0  0  0  0  0  0  0  0
   -5.0990   22.0510  -33.6040 H   0  0  0  0  0  0  0  0  0  0  0  0
   -3.2510   19.6531  -34.5312 H   0  0  0  0  0  0  0  0  0  0  0  0
    0.5282   20.5141  -32.6064 H   0  0  0  0  0  0  0  0  0  0  0  0
   -0.6030   22.1448  -31.1093 H   0  0  0  0  0  0  0  0  0  0  0  0
   -4.9378   22.9036  -32.2974 H   0  0  0  0  0  0  0  0  0  0  0  0
   -5.1507   22.4087  -30.5694 H   0  0  0  0  0  0  0  0  0  0  0  0
   -5.3694   25.0513  -31.7625 H   0  0  0  0  0  0  0  0  0  0  0  0
   -5.6997   24.4962  -30.0540 H   0  0  0  0  0  0  0  0  0  0  0  0
   -2.4855   25.2108  -28.8624 H   0  0  0  0  0  0  0  0  0  0  0  0
   -3.9331   24.1648  -28.6697 H   0  0  0  0  0  0  0  0  0  0  0  0
   -1.4510   23.7345  -30.3662 H   0  0  0  0  0  0  0  0  0  0  0  0
   -2.2989   22.5946  -29.2553 H   0  0  0  0  0  0  0  0  0  0  0  0
   -6.7080   22.6223  -31.9285 H   0  0  0  0  0  0  0  0  0  0  0  0
   -9.0969   23.2003  -31.5251 H   0  0  0  0  0  0  0  0  0  0  0  0
  -10.8689   21.4623  -31.7830 H   0  0  0  0  0  0  0  0  0  0  0  0
  -10.2520   19.1458  -32.4634 H   0  0  0  0  0  0  0  0  0  0  0  0
  1  2  2  0
  2  3  1  0
  3  4  1  0
  4  5  2  0
  5  6  1  0
  6  7  1  0
  7  8  1  0
  7  9  1  0
  7 10  1  0
  6 11  2  0
 11 12  1  0
 12 13  2  0
 13 14  1  0
 14 15  1  0
 15 16  1  0
 16 17  1  0
 17 18  1  0
 18 19  1  0
  2 20  1  0
 20 21  2  0
 21 22  1  0
 22 23  2  0
 23 24  1  0
 24 25  2  0
 25 26  1  0
 13  4  1  0
 19 14  1  0
 25 20  1  0
  3 27  1  0
  5 28  1  0
 11 29  1  0
 12 30  1  0
 15 31  1  0
 15 32  1  0
 16 33  1  0
 16 34  1  0
 18 35  1  0
 18 36  1  0
 19 37  1  0
 19 38  1  0
 21 39  1  0
 22 40  1  0
 23 41  1  0
 24 42  1  0
M  END
>  <UniqueID>  (8) 
8

>  <SMILES>  (8) 
O=C(Nc1cc(C(F)(F)F)ccc1N1CCOCC1)c1ccccc1F

>  <Energy>  (8) 
61.64464458575042

>  <Genealogy>  (8) 
O=C(Nc1cc(C(F)(F)F)ccc1N1CCOCC1)c1ccccc1F (3D coordinates assigned)
O=C(Nc1cc(C(F)(F)F)ccc1N1CCOCC1)c1ccccc1F (nonaromatic ring conformer: 61.64464458575042 kcal/mol)

>  <smiles>  (8) 
O=C(Nc1cc(C(F)(F)F)ccc1N1CCOCC1)c1ccccc1F

>  <score_type>  (8) 
oracle

>  <origin>  (8) 
adgpu

>  <m_score__min__energy>  (8) 
-8.2100000000000009

>  <m_primary>  (8) 
energy

$$$$
8:0
     RDKit          3D

 37 38  0  0  0  0  0  0  0  0999 V2000
   -2.0270   20.6570  -28.2610 N   0  0  0  0  0  0  0  0  0  0  0  0
   -2.4990   21.0410  -29.5550 C   0  0  0  0  0  0  0  0  0  0  0  0
   -1.9440   20.4710  -30.7040 C   0  0  0  0  0  0  0  0  0  0  0  0
   -2.3970   20.8530  -31.9670 C   0  0  0  0  0  0  0  0  0  0  0  0
   -3.4130   21.8120  -32.1050 C   0  0  0  0  0  0  0  0  0  0  0  0
   -3.8320   22.1870  -33.4250 N   0  0  0  0  0  0  0  0  0  0  0  0
   -3.9880   22.3860  -30.9440 C   0  0  0  0  0  0  0  0  0  0  0  0
   -5.2670   23.6060  -31.0410 S   0  0  0  0  0  0  0  0  0  0  0  0
   -4.6510   24.9660  -31.2160 O   0  0  0  0  0  0  0  0  0  0  0  0
   -6.0630   23.5730  -29.7660 O   0  0  0  0  0  0  0  0  0  0  0  0
   -6.2900   23.2750  -32.4130 N   0  0  0  0  0  0  0  0  0  0  0  0
   -7.7140   23.3890  -32.0740 C   0  0  0  0  0  0  0  0  0  0  0  0
   -8.1320   22.3010  -31.0760 C   0  0  0  0  0  0  0  0  0  0  0  0
   -7.9800   20.9210  -31.6640 C   0  0  0  0  0  0  0  0  0  0  0  0
   -9.1080   20.1030  -31.8500 C   0  0  0  0  0  0  0  0  0  0  0  0
   -8.9630   18.8040  -32.3440 C   0  0  0  0  0  0  0  0  0  0  0  0
   -7.6910   18.3110  -32.6540 C   0  0  0  0  0  0  0  0  0  0  0  0
   -6.5650   19.1170  -32.4670 C   0  0  0  0  0  0  0  0  0  0  0  0
   -6.7060   20.4150  -31.9680 C   0  0  0  0  0  0  0  0  0  0  0  0
   -3.5190   21.9920  -29.6790 C   0  0  0  0  0  0  0  0  0  0  0  0
   -1.3180   19.8980  -28.1540 H   0  0  0  0  0  0  0  0  0  0  0  0
   -2.3780   21.1330  -27.4000 H   0  0  0  0  0  0  0  0  0  0  0  0
   -1.1470   19.7184  -30.6122 H   0  0  0  0  0  0  0  0  0  0  0  0
   -1.9532   20.3978  -32.8647 H   0  0  0  0  0  0  0  0  0  0  0  0
   -4.7360   22.6910  -33.5670 H   0  0  0  0  0  0  0  0  0  0  0  0
   -3.2780   21.9590  -34.2770 H   0  0  0  0  0  0  0  0  0  0  0  0
   -6.0660   23.9970  -33.1360 H   0  0  0  0  0  0  0  0  0  0  0  0
   -7.8991   24.3770  -31.6272 H   0  0  0  0  0  0  0  0  0  0  0  0
   -8.3037   23.2648  -32.9942 H   0  0  0  0  0  0  0  0  0  0  0  0
   -7.5007   22.3782  -30.1785 H   0  0  0  0  0  0  0  0  0  0  0  0
   -9.1920   22.4533  -30.8248 H   0  0  0  0  0  0  0  0  0  0  0  0
  -10.1093   20.4872  -31.6056 H   0  0  0  0  0  0  0  0  0  0  0  0
   -9.8493   18.1688  -32.4892 H   0  0  0  0  0  0  0  0  0  0  0  0
   -7.5773   17.2891  -33.0449 H   0  0  0  0  0  0  0  0  0  0  0  0
   -5.5655   18.7292  -32.7130 H   0  0  0  0  0  0  0  0  0  0  0  0
   -5.8158   21.0423  -31.8129 H   0  0  0  0  0  0  0  0  0  0  0  0
   -3.9592   22.4367  -28.7743 H   0  0  0  0  0  0  0  0  0  0  0  0
  1  2  1  0
  2  3  2  0
  3  4  1  0
  4  5  2  0
  5  6  1  0
  5  7  1  0
  7  8  1  0
  8  9  2  0
  8 10  2  0
  8 11  1  0
 11 12  1  0
 12 13  1  0
 13 14  1  0
 14 15  2  0
 15 16  1  0
 16 17  2  0
 17 18  1  0
 18 19  2  0
  7 20  2  0
 20  2  1  0
 19 14  1  0
  1 21  1  0
  1 22  1  0
  3 23  1  0
  4 24  1  0
  6 25  1  0
  6 26  1  0
 11 27  1  0
 12 28  1  0
 12 29  1  0
 13 30  1  0
 13 31  1  0
 15 32  1  0
 16 33  1  0
 17 34  1  0
 18 35  1  0
 19 36  1  0
 20 37  1  0
M  END
>  <UniqueID>  (9) 
9

>  <SMILES>  (9) 
Nc1ccc(N)c(S(=O)(=O)NCCc2ccccc2)c1

>  <Energy>  (9) 
34.315189575284265

>  <Genealogy>  (9) 
Nc1ccc(N)c(S(=O)(=O)NCCc2ccccc2)c1 (3D coordinates assigned)
Nc1ccc(N)c(S(=O)(=O)NCCc2ccccc2)c1 (optimized conformer: 34.315189575284265 kcal/mol)

>  <smiles>  (9) 
Nc1ccc(N)c(S(=O)(=O)NCCc2ccccc2)c1

>  <score_type>  (9) 
oracle

>  <origin>  (9) 
adgpu

>  <m_score__min__energy>  (9) 
-8.5399999999999991

>  <m_primary>  (9) 
energy

$$$$
9:0
     RDKit          3D

 42 44  0  0  0  0  0  0  0  0999 V2000
   -3.9070   18.3940  -33.3430 O   0  0  0  0  0  0  0  0  0  0  0  0
   -4.4500   19.4060  -32.8190 C   0  0  0  0  0  0  0  0  0  0  0  0
   -3.6590   20.5710  -32.5200 N   0  0  0  0  0  0  0  0  0  0  0  0
   -2.2760   20.7150  -32.8830 C   0  0  0  0  0  0  0  0  0  0  0  0
   -1.8770   20.4310  -34.2000 C   0  0  0  0  0  0  0  0  0  0  0  0
   -0.5340   20.5410  -34.5720 C   0  0  0  0  0  0  0  0  0  0  0  0
    0.4260   20.9170  -33.6300 C   0  0  0  0  0  0  0  0  0  0  0  0
    1.7290   21.0190  -33.9910 F   0  0  0  0  0  0  0  0  0  0  0  0
    0.0450   21.1760  -32.3100 C   0  0  0  0  0  0  0  0  0  0  0  0
   -1.2980   21.0700  -31.9340 C   0  0  0  0  0  0  0  0  0  0  0  0
   -5.9000   19.3610  -32.5130 C   0  0  0  0  0  0  0  0  0  0  0  0
   -6.6500   18.1840  -32.6910 C   0  0  0  0  0  0  0  0  0  0  0  0
   -8.0170   18.1680  -32.4010 C   0  0  0  0  0  0  0  0  0  0  0  0
   -8.6530   19.3230  -31.9450 C   0  0  0  0  0  0  0  0  0  0  0  0
   -7.9270   20.5100  -31.7840 C   0  0  0  0  0  0  0  0  0  0  0  0
   -8.7370   21.9800  -31.2330 S   0  0  0  0  0  0  0  0  0  0  0  0
   -9.5270   21.6770  -29.9910 O   0  0  0  0  0  0  0  0  0  0  0  0
   -9.6980   22.4420  -32.2930 O   0  0  0  0  0  0  0  0  0  0  0  0
   -7.5930   23.2610  -30.8970 N   0  0  0  0  0  0  0  0  0  0  0  0
   -6.9720   23.7780  -32.1370 C   0  0  0  0  0  0  0  0  0  0  0  0
   -5.5230   23.2890  -32.3050 C   0  0  0  0  0  0  0  0  0  0  0  0
   -4.6770   23.6540  -31.2240 O   0  0  0  0  0  0  0  0  0  0  0  0
   -5.3390   23.6890  -29.9640 C   0  0  0  0  0  0  0  0  0  0  0  0
   -6.6030   22.8190  -29.8960 C   0  0  0  0  0  0  0  0  0  0  0  0
   -6.5540   20.5230  -32.0650 C   0  0  0  0  0  0  0  0  0  0  0  0
   -4.0830   21.3480  -31.9660 H   0  0  0  0  0  0  0  0  0  0  0  0
   -2.6262   20.1201  -34.9430 H   0  0  0  0  0  0  0  0  0  0  0  0
   -0.2327   20.3310  -35.6089 H   0  0  0  0  0  0  0  0  0  0  0  0
    0.8025   21.4636  -31.5661 H   0  0  0  0  0  0  0  0  0  0  0  0
   -1.5917   21.2649  -30.8920 H   0  0  0  0  0  0  0  0  0  0  0  0
   -6.1580   17.2720  -33.0602 H   0  0  0  0  0  0  0  0  0  0  0  0
   -8.5940   17.2408  -32.5328 H   0  0  0  0  0  0  0  0  0  0  0  0
   -9.7277   19.3014  -31.7112 H   0  0  0  0  0  0  0  0  0  0  0  0
   -7.5638   23.4369  -32.9992 H   0  0  0  0  0  0  0  0  0  0  0  0
   -6.9543   24.8761  -32.0750 H   0  0  0  0  0  0  0  0  0  0  0  0
   -5.5321   22.1920  -32.3860 H   0  0  0  0  0  0  0  0  0  0  0  0
   -5.1205   23.7686  -33.2094 H   0  0  0  0  0  0  0  0  0  0  0  0
   -4.6359   23.3377  -29.1944 H   0  0  0  0  0  0  0  0  0  0  0  0
   -5.6602   24.7287  -29.8029 H   0  0  0  0  0  0  0  0  0  0  0  0
   -6.3318   21.7715  -30.0940 H   0  0  0  0  0  0  0  0  0  0  0  0
   -7.0456   22.9149  -28.8936 H   0  0  0  0  0  0  0  0  0  0  0  0
   -5.9811   21.4528  -31.9337 H   0  0  0  0  0  0  0  0  0  0  0  0
  1  2  2  0
  2  3  1  0
  3  4  1  0
  4  5  2  0
  5  6  1  0
  6  7  2  0
  7  8  1  0
  7  9  1  0
  9 10  2  0
  2 11  1  0
 11 12  2  0
 12 13  1  0
 13 14  2  0
 14 15  1  0
 15 16  1  0
 16 17  2  0
 16 18  2  0
 16 19  1  0
 19 20  1  0
 20 21  1  0
 21 22  1  0
 22 23  1  0
 23 24  1  0
 15 25  2  0
 10  4  1  0
 25 11  1  0
 24 19  1  0
  3 26  1  0
  5 27  1  0
  6 28  1  0
  9 29  1  0
 10 30  1  0
 12 31  1  0
 13 32  1  0
 14 33  1  0
 20 34  1  0
 20 35  1  0
 21 36  1  0
 21 37  1  0
 23 38  1  0
 23 39  1  0
 24 40  1  0
 24 41  1  0
 25 42  1  0
M  END
>  <UniqueID>  (10) 
10

>  <SMILES>  (10) 
O=C(Nc1ccc(F)cc1)c1cccc(S(=O)(=O)N2CCOCC2)c1

>  <Energy>  (10) 
62.20713729732076

>  <Genealogy>  (10) 
O=C(Nc1ccc(F)cc1)c1cccc(S(=O)(=O)N2CCOCC2)c1 (3D coordinates assigned)
O=C(Nc1ccc(F)cc1)c1cccc(S(=O)(=O)N2CCOCC2)c1 (nonaromatic ring conformer: 62.20713729732076 kcal/mol)

>  <smiles>  (10) 
O=C(Nc1ccc(F)cc1)c1cccc(S(=O)(=O)N2CCOCC2)c1

>  <score_type>  (10) 
oracle

>  <origin>  (10) 
adgpu

>  <m_score__min__energy>  (10) 
-8.8000000000000007

>  <m_primary>  (10) 
energy

$$$$
10:0
     RDKit          3D

 31 32  0  0  0  0  0  0  0  0999 V2000
   -5.6340   17.3530  -34.5330 C   0  0  0  0  0  0  0  0  0  0  0  0
   -6.4750   18.4360  -34.1490 O   0  0  0  0  0  0  0  0  0  0  0  0
   -6.0240   19.6110  -33.5260 C   0  0  0  0  0  0  0  0  0  0  0  0
   -4.6620   19.9650  -33.4960 C   0  0  0  0  0  0  0  0  0  0  0  0
   -4.2510   21.1400  -32.8640 C   0  0  0  0  0  0  0  0  0  0  0  0
   -5.1920   21.9770  -32.2450 C   0  0  0  0  0  0  0  0  0  0  0  0
   -4.8180   23.1720  -31.6120 O   0  0  0  0  0  0  0  0  0  0  0  0
   -4.1450   23.2590  -30.3860 C   0  0  0  0  0  0  0  0  0  0  0  0
   -3.8820   22.0790  -29.6780 C   0  0  0  0  0  0  0  0  0  0  0  0
   -3.2120   22.1240  -28.4530 C   0  0  0  0  0  0  0  0  0  0  0  0
   -2.7890   23.3480  -27.9310 C   0  0  0  0  0  0  0  0  0  0  0  0
   -3.0230   24.5290  -28.6400 C   0  0  0  0  0  0  0  0  0  0  0  0
   -3.6880   24.4910  -29.8710 C   0  0  0  0  0  0  0  0  0  0  0  0
   -3.8670   25.6690  -30.5860 O   0  0  0  0  0  0  0  0  0  0  0  0
   -6.5470   21.6370  -32.2880 C   0  0  0  0  0  0  0  0  0  0  0  0
   -6.9720   20.4530  -32.9220 C   0  0  0  0  0  0  0  0  0  0  0  0
   -8.3240   20.0780  -32.9730 O   0  0  0  0  0  0  0  0  0  0  0  0
   -8.8850   18.9860  -32.2530 C   0  0  0  0  0  0  0  0  0  0  0  0
   -5.2459   16.8532  -33.6332 H   0  0  0  0  0  0  0  0  0  0  0  0
   -6.2126   16.6337  -35.1312 H   0  0  0  0  0  0  0  0  0  0  0  0
   -4.7938   17.7354  -35.1312 H   0  0  0  0  0  0  0  0  0  0  0  0
   -3.9168   19.3118  -33.9735 H   0  0  0  0  0  0  0  0  0  0  0  0
   -3.1850   21.4109  -32.8512 H   0  0  0  0  0  0  0  0  0  0  0  0
   -4.2050   21.1112  -30.0892 H   0  0  0  0  0  0  0  0  0  0  0  0
   -3.0174   21.1939  -27.8989 H   0  0  0  0  0  0  0  0  0  0  0  0
   -2.2713   23.3825  -26.9611 H   0  0  0  0  0  0  0  0  0  0  0  0
   -2.6836   25.4915  -28.2295 H   0  0  0  0  0  0  0  0  0  0  0  0
   -7.2896   22.3012  -31.8217 H   0  0  0  0  0  0  0  0  0  0  0  0
   -8.7898   19.1713  -31.1729 H   0  0  0  0  0  0  0  0  0  0  0  0
   -9.9483   18.8817  -32.5148 H   0  0  0  0  0  0  0  0  0  0  0  0
   -8.3505   18.0609  -32.5148 H   0  0  0  0  0  0  0  0  0  0  0  0
  1  2  1  0
  2  3  1  0
  3  4  2  0
  4  5  1  0
  5  6  2  0
  6  7  1  0
  7  8  1  0
  8  9  2  0
  9 10  1  0
 10 11  2  0
 11 12  1  0
 12 13  2  0
 13 14  1  0
  6 15  1  0
 15 16  2  0
 16 17  1  0
 17 18  1  0
 16  3  1  0
 13  8  1  0
  1 19  1  0
  1 20  1  0
  1 21  1  0
  4 22  1  0
  5 23  1  0
  9 24  1  0
 10 25  1  0
 11 26  1  0
 12 27  1  0
 15 28  1  0
 18 29  1  0
 18 30  1  0
 18 31  1  0
M  CHG  1  14  -1
M  END
>  <UniqueID>  (11) 
11

>  <SMILES>  (11) 
COc1ccc(Oc2ccccc2[O-])cc1OC

>  <Energy>  (11) 
38.45310157677137

>  <Genealogy>  (11) 
COc1ccc(Oc2ccccc2[O-])cc1OC (protonated)
COc1ccc(Oc2ccccc2[O-])cc1OC (3D coordinates assigned)
COc1ccc(Oc2ccccc2[O-])cc1OC (optimized conformer: 38.45310157677137 kcal/mol)

>  <smiles>  (11) 
COc1ccc(Oc2ccccc2O)cc1OC

>  <score_type>  (11) 
oracle

>  <origin>  (11) 
adgpu

>  <m_score__min__energy>  (11) 
-9.2599999999999998

>  <m_primary>  (11) 
energy

$$$$
11:0
     RDKit          3D

 35 36  0  0  0  0  0  0  0  0999 V2000
   -5.1510   17.2360  -33.5490 C   0  0  0  0  0  0  0  0  0  0  0  0
   -5.6800   17.7380  -32.3260 O   0  0  0  0  0  0  0  0  0  0  0  0
   -6.7480   18.6460  -32.2240 C   0  0  0  0  0  0  0  0  0  0  0  0
   -8.0600   18.1990  -31.9610 C   0  0  0  0  0  0  0  0  0  0  0  0
   -9.1160   19.1060  -31.8840 C   0  0  0  0  0  0  0  0  0  0  0  0
   -8.8850   20.4670  -32.0680 C   0  0  0  0  0  0  0  0  0  0  0  0
   -7.5930   20.9280  -32.3260 C   0  0  0  0  0  0  0  0  0  0  0  0
   -6.5080   20.0330  -32.3990 C   0  0  0  0  0  0  0  0  0  0  0  0
   -5.1460   20.5690  -32.6680 C   0  0  0  0  0  0  0  0  0  0  0  0
   -4.6680   20.4990  -33.8330 O   0  0  0  0  0  0  0  0  0  0  0  0
   -4.4030   21.2280  -31.6340 N   0  0  0  0  0  0  0  0  0  0  0  0
   -4.5320   22.5990  -31.2260 C   0  0  0  0  0  0  0  0  0  0  0  0
   -5.7160   23.2800  -31.5310 C   0  0  0  0  0  0  0  0  0  0  0  0
   -5.8820   24.6130  -31.1500 C   0  0  0  0  0  0  0  0  0  0  0  0
   -4.8750   25.2690  -30.4370 C   0  0  0  0  0  0  0  0  0  0  0  0
   -3.7090   24.5860  -30.0730 C   0  0  0  0  0  0  0  0  0  0  0  0
   -2.6940   25.2910  -29.3430 N   0  0  0  0  0  0  0  0  0  0  0  0
   -1.7060   24.7150  -28.4770 C   0  0  0  0  0  0  0  0  0  0  0  0
   -2.0780   23.8910  -27.2820 C   0  0  0  0  0  0  0  0  0  0  0  0
   -0.4900   24.9410  -28.7070 O   0  0  0  0  0  0  0  0  0  0  0  0
   -3.5310   23.2530  -30.4860 C   0  0  0  0  0  0  0  0  0  0  0  0
   -4.3687   16.4936  -33.3328 H   0  0  0  0  0  0  0  0  0  0  0  0
   -5.9561   16.7618  -34.1295 H   0  0  0  0  0  0  0  0  0  0  0  0
   -4.7196   18.0648  -34.1295 H   0  0  0  0  0  0  0  0  0  0  0  0
   -8.2514   17.1256  -31.8154 H   0  0  0  0  0  0  0  0  0  0  0  0
  -10.1345   18.7456  -31.6773 H   0  0  0  0  0  0  0  0  0  0  0  0
   -9.7213   21.1792  -32.0100 H   0  0  0  0  0  0  0  0  0  0  0  0
   -7.4200   22.0042  -32.4742 H   0  0  0  0  0  0  0  0  0  0  0  0
   -6.5204   22.7622  -32.0740 H   0  0  0  0  0  0  0  0  0  0  0  0
   -6.8070   25.1477  -31.4115 H   0  0  0  0  0  0  0  0  0  0  0  0
   -4.9993   26.3265  -30.1607 H   0  0  0  0  0  0  0  0  0  0  0  0
   -1.8287   24.4432  -26.3639 H   0  0  0  0  0  0  0  0  0  0  0  0
   -3.1578   23.6820  -27.3024 H   0  0  0  0  0  0  0  0  0  0  0  0
   -1.5206   22.9429  -27.3024 H   0  0  0  0  0  0  0  0  0  0  0  0
   -2.6040   22.7196  -30.2287 H   0  0  0  0  0  0  0  0  0  0  0  0
  1  2  1  0
  2  3  1  0
  3  4  2  0
  4  5  1  0
  5  6  2  0
  6  7  1  0
  7  8  2  0
  8  9  1  0
  9 10  2  0
  9 11  1  0
 11 12  1  0
 12 13  2  0
 13 14  1  0
 14 15  2  0
 15 16  1  0
 16 17  1  0
 17 18  1  0
 18 19  1  0
 18 20  2  0
 16 21  2  0
  8  3  1  0
 21 12  1  0
  1 22  1  0
  1 23  1  0
  1 24  1  0
  4 25  1  0
  5 26  1  0
  6 27  1  0
  7 28  1  0
 13 29  1  0
 14 30  1  0
 15 31  1  0
 19 32  1  0
 19 33  1  0
 19 34  1  0
 21 35  1  0
M  CHG  2  11  -1  17  -1
M  END
>  <UniqueID>  (12) 
12

>  <SMILES>  (12) 
COc1ccccc1C(=O)[N-]c1cccc([N-]C(C)=O)c1

>  <Energy>  (12) 
44.637854888221106

>  <Genealogy>  (12) 
COc1ccccc1C(=O)[N-]c1cccc([N-]C(C)=O)c1 (protonated)
COc1ccccc1C(=O)[N-]c1cccc([N-]C(C)=O)c1 (3D coordinates assigned)
COc1ccccc1C(=O)[N-]c1cccc([N-]C(C)=O)c1 (optimized conformer: 44.637854888221106 kcal/mol)

>  <smiles>  (12) 
COc1ccccc1C(=O)Nc1cccc(NC(C)=O)c1

>  <score_type>  (12) 
oracle

>  <origin>  (12) 
adgpu

>  <m_score__min__energy>  (12) 
-9.3000000000000007

>  <m_primary>  (12) 
energy

$$$$
12:0
     RDKit          3D

 26 27  0  0  0  0  0  0  0  0999 V2000
   -9.6740   21.2560  -31.9710 Cl  0  0  0  0  0  0  0  0  0  0  0  0
   -8.1370   20.4590  -32.2770 C   0  0  0  0  0  0  0  0  0  0  0  0
   -8.0840   19.0620  -32.2300 C   0  0  0  0  0  0  0  0  0  0  0  0
   -6.8700   18.3970  -32.4150 C   0  0  0  0  0  0  0  0  0  0  0  0
   -5.7010   19.1260  -32.6410 C   0  0  0  0  0  0  0  0  0  0  0  0
   -5.7400   20.5230  -32.6910 C   0  0  0  0  0  0  0  0  0  0  0  0
   -4.2490   21.4020  -33.0010 Cl  0  0  0  0  0  0  0  0  0  0  0  0
   -6.9630   21.2000  -32.5200 C   0  0  0  0  0  0  0  0  0  0  0  0
   -7.0030   22.6330  -32.5710 N   0  0  0  0  0  0  0  0  0  0  0  0
   -7.2880   23.4090  -31.3670 C   0  0  0  0  0  0  0  0  0  0  0  0
   -6.0050   23.7980  -30.6880 C   0  0  0  0  0  0  0  0  0  0  0  0
   -5.4330   22.9760  -29.7070 C   0  0  0  0  0  0  0  0  0  0  0  0
   -4.2240   23.3360  -29.1110 C   0  0  0  0  0  0  0  0  0  0  0  0
   -3.5890   24.5150  -29.5090 C   0  0  0  0  0  0  0  0  0  0  0  0
   -4.1480   25.2960  -30.4710 N   0  0  0  0  0  0  0  0  0  0  0  0
   -5.3260   24.9670  -31.0650 C   0  0  0  0  0  0  0  0  0  0  0  0
   -9.0023   18.4849  -32.0466 H   0  0  0  0  0  0  0  0  0  0  0  0
   -6.8348   17.2980  -32.3826 H   0  0  0  0  0  0  0  0  0  0  0  0
   -4.7454   18.5994  -32.7803 H   0  0  0  0  0  0  0  0  0  0  0  0
   -7.2350   23.0740  -33.4910 H   0  0  0  0  0  0  0  0  0  0  0  0
   -7.8438   24.3174  -31.6426 H   0  0  0  0  0  0  0  0  0  0  0  0
   -7.8890   22.7973  -30.6781 H   0  0  0  0  0  0  0  0  0  0  0  0
   -5.9380   22.0460  -29.4068 H   0  0  0  0  0  0  0  0  0  0  0  0
   -3.7753   22.6979  -28.3355 H   0  0  0  0  0  0  0  0  0  0  0  0
   -2.6371   24.8112  -29.0441 H   0  0  0  0  0  0  0  0  0  0  0  0
   -5.7482   25.6192  -31.8436 H   0  0  0  0  0  0  0  0  0  0  0  0
  1  2  1  0
  2  3  2  0
  3  4  1  0
  4  5  2  0
  5  6  1  0
  6  7  1  0
  6  8  2  0
  8  9  1  0
  9 10  1  0
 10 11  1  0
 11 12  2  0
 12 13  1  0
 13 14  2  0
 14 15  1  0
 15 16  2  0
  8  2  1  0
 16 11  1  0
  3 17  1  0
  4 18  1  0
  5 19  1  0
  9 20  1  0
 10 21  1  0
 10 22  1  0
 12 23  1  0
 13 24  1  0
 14 25  1  0
 16 26  1  0
M  END
>  <UniqueID>  (13) 
13

>  <SMILES>  (13) 
Clc1cccc(Cl)c1NCc1cccnc1

>  <Energy>  (13) 
32.463102406449664

>  <Genealogy>  (13) 
Clc1cccc(Cl)c1NCc1cccnc1 (3D coordinates assigned)
Clc1cccc(Cl)c1NCc1cccnc1 (optimized conformer: 32.463102406449664 kcal/mol)

>  <smiles>  (13) 
Clc1cccc(Cl)c1NCc1cccnc1

>  <score_type>  (13) 
oracle

>  <origin>  (13) 
adgpu

>  <m_score__min__energy>  (13) 
-7.4100000000000001

>  <m_primary>  (13) 
energy

$$$$
13:0
     RDKit          3D

 25 26  0  0  0  0  0  0  0  0999 V2000
   -3.8590   25.6240  -30.8230 O   0  0  0  0  0  0  0  0  0  0  0  0
   -4.0700   24.4490  -30.1060 C   0  0  0  0  0  0  0  0  0  0  0  0
   -3.6000   24.2040  -28.8340 C   0  0  0  0  0  0  0  0  0  0  0  0
   -4.0260   22.9300  -28.5140 C   0  0  0  0  0  0  0  0  0  0  0  0
   -4.7350   22.4590  -29.6040 C   0  0  0  0  0  0  0  0  0  0  0  0
   -4.7650   23.3950  -30.5800 N   0  0  0  0  0  0  0  0  0  0  0  0
   -5.3770   23.3130  -31.9180 C   0  0  1  0  0  0  0  0  0  0  0  0
   -5.2600   21.9100  -32.4580 C   0  0  0  0  0  0  0  0  0  0  0  0
   -6.1760   20.9850  -32.1460 C   0  0  0  0  0  0  0  0  0  0  0  0
   -7.3130   21.3360  -31.2330 C   0  0  0  0  0  0  0  0  0  0  0  0
   -7.9060   22.7110  -31.5880 C   0  0  0  0  0  0  0  0  0  0  0  0
   -6.8520   23.7950  -31.9490 C   0  0  0  0  0  0  0  0  0  0  0  0
   -3.2010   25.6520  -31.5940 H   0  0  0  0  0  0  0  0  0  0  0  0
   -3.0076   24.8833  -28.2035 H   0  0  0  0  0  0  0  0  0  0  0  0
   -3.8376   22.3929  -27.5727 H   0  0  0  0  0  0  0  0  0  0  0  0
   -5.2062   21.4671  -29.6680 H   0  0  0  0  0  0  0  0  0  0  0  0
   -4.8173   24.0033  -32.5663 H   0  0  0  0  0  0  0  0  0  0  0  0
   -4.4166   21.6449  -33.1125 H   0  0  0  0  0  0  0  0  0  0  0  0
   -6.0949   19.9686  -32.5588 H   0  0  0  0  0  0  0  0  0  0  0  0
   -8.0981   20.5713  -31.3269 H   0  0  0  0  0  0  0  0  0  0  0  0
   -6.9327   21.3758  -30.2016 H   0  0  0  0  0  0  0  0  0  0  0  0
   -8.5766   22.5834  -32.4506 H   0  0  0  0  0  0  0  0  0  0  0  0
   -8.4262   23.0688  -30.6872 H   0  0  0  0  0  0  0  0  0  0  0  0
   -7.0707   24.1588  -32.9638 H   0  0  0  0  0  0  0  0  0  0  0  0
   -6.9366   24.5745  -31.1774 H   0  0  0  0  0  0  0  0  0  0  0  0
  1  2  1  0
  2  3  2  0
  3  4  1  0
  4  5  2  0
  5  6  1  0
  6  7  1  0
  7  8  1  0
  8  9  2  0
  9 10  1  0
 10 11  1  0
 11 12  1  0
  6  2  1  0
 12  7  1  0
  1 13  1  0
  3 14  1  0
  4 15  1  0
  5 16  1  0
  7 17  1  6
  8 18  1  0
  9 19  1  0
 10 20  1  0
 10 21  1  0
 11 22  1  0
 11 23  1  0
 12 24  1  0
 12 25  1  0
M  END
>  <UniqueID>  (14) 
14

>  <SMILES>  (14) 
Oc1cccn1[C@H]1C=CCCC1

>  <Energy>  (14) 
54.369954733334765

>  <Genealogy>  (14) 
Oc1cccn1[C@H]1C=CCCC1 (chirality)
Oc1cccn1[C@H]1C=CCCC1 (3D coordinates assigned)
Oc1cccn1[C@H]1C=CCCC1 (nonaromatic ring conformer: 54.369954733334765 kcal/mol)

>  <smiles>  (14) 
Oc1cccn1C1C=CCCC1

>  <score_type>  (14) 
oracle

>  <origin>  (14) 
adgpu

>  <m_score__min__energy>  (14) 
-6.4299999999999997

>  <m_primary>  (14) 
energy

$$$$
14:0
     RDKit          3D

 28 29  0  0  0  0  0  0  0  0999 V2000
   -1.9950   25.4190  -28.9400 O   0  0  0  0  0  0  0  0  0  0  0  0
   -2.7710   24.6160  -29.5200 C   0  0  0  0  0  0  0  0  0  0  0  0
   -3.7150   25.1330  -30.4670 N   0  0  0  0  0  0  0  0  0  0  0  0
   -5.1590   25.1690  -30.2690 C   0  0  0  0  0  0  0  0  0  0  0  0
   -5.7790   23.9690  -30.9230 C   0  0  0  0  0  0  0  0  0  0  0  0
   -4.9840   23.0690  -31.6530 C   0  0  0  0  0  0  0  0  0  0  0  0
   -5.5680   21.9710  -32.2900 C   0  0  0  0  0  0  0  0  0  0  0  0
   -6.9490   21.7680  -32.2140 C   0  0  0  0  0  0  0  0  0  0  0  0
   -7.7490   22.6680  -31.5030 C   0  0  0  0  0  0  0  0  0  0  0  0
   -7.1680   23.7680  -30.8630 C   0  0  0  0  0  0  0  0  0  0  0  0
   -2.6540   23.1730  -29.2320 C   0  0  0  0  0  0  0  0  0  0  0  0
   -3.2430   22.6170  -28.0850 C   0  0  0  0  0  0  0  0  0  0  0  0
   -3.1120   21.2510  -27.8160 C   0  0  0  0  0  0  0  0  0  0  0  0
   -2.3810   20.4340  -28.6830 C   0  0  0  0  0  0  0  0  0  0  0  0
   -1.7730   20.9830  -29.8150 C   0  0  0  0  0  0  0  0  0  0  0  0
   -1.0560   20.1920  -30.6510 F   0  0  0  0  0  0  0  0  0  0  0  0
   -1.9020   22.3490  -30.0860 C   0  0  0  0  0  0  0  0  0  0  0  0
   -5.3827   25.1572  -29.1920 H   0  0  0  0  0  0  0  0  0  0  0  0
   -5.5697   26.0861  -30.7165 H   0  0  0  0  0  0  0  0  0  0  0  0
   -3.8980   23.2295  -31.7232 H   0  0  0  0  0  0  0  0  0  0  0  0
   -4.9397   21.2648  -32.8525 H   0  0  0  0  0  0  0  0  0  0  0  0
   -7.4061   20.9009  -32.7132 H   0  0  0  0  0  0  0  0  0  0  0  0
   -8.8363   22.5109  -31.4469 H   0  0  0  0  0  0  0  0  0  0  0  0
   -7.8011   24.4781  -30.3108 H   0  0  0  0  0  0  0  0  0  0  0  0
   -3.8101   23.2589  -27.3948 H   0  0  0  0  0  0  0  0  0  0  0  0
   -3.5846   20.8192  -26.9215 H   0  0  0  0  0  0  0  0  0  0  0  0
   -2.2843   19.3584  -28.4741 H   0  0  0  0  0  0  0  0  0  0  0  0
   -1.4125   22.7801  -30.9717 H   0  0  0  0  0  0  0  0  0  0  0  0
  1  2  2  0
  2  3  1  0
  3  4  1  0
  4  5  1  0
  5  6  2  0
  6  7  1  0
  7  8  2  0
  8  9  1  0
  9 10  2  0
  2 11  1  0
 11 12  2  0
 12 13  1  0
 13 14  2  0
 14 15  1  0
 15 16  1  0
 15 17  2  0
 10  5  1  0
 17 11  1  0
  4 18  1  0
  4 19  1  0
  6 20  1  0
  7 21  1  0
  8 22  1  0
  9 23  1  0
 10 24  1  0
 12 25  1  0
 13 26  1  0
 14 27  1  0
 17 28  1  0
M  CHG  1   3  -1
M  END
>  <UniqueID>  (15) 
15

>  <SMILES>  (15) 
O=C([N-]Cc1ccccc1)c1cccc(F)c1

>  <Energy>  (15) 
32.08602875163161

>  <Genealogy>  (15) 
O=C([N-]Cc1ccccc1)c1cccc(F)c1 (protonated)
O=C([N-]Cc1ccccc1)c1cccc(F)c1 (3D coordinates assigned)
O=C([N-]Cc1ccccc1)c1cccc(F)c1 (optimized conformer: 32.08602875163161 kcal/mol)

>  <smiles>  (15) 
O=C(NCc1ccccc1)c1cccc(F)c1

>  <score_type>  (15) 
oracle

>  <origin>  (15) 
adgpu

>  <m_score__min__energy>  (15) 
-8.0600000000000005

>  <m_primary>  (15) 
energy

$$$$
15:0
     RDKit          3D

 46 49  0  0  0  0  0  0  0  0999 V2000
   -4.2721   26.1430  -30.5398 H   0  0  0  0  0  0  0  0  0  0  0  0
   -4.0940   25.0850  -30.2970 C   0  0  0  0  0  0  0  0  0  0  0  0
   -5.0370   24.1170  -30.6560 C   0  0  0  0  0  0  0  0  0  0  0  0
   -5.9649   24.4180  -31.1644 H   0  0  0  0  0  0  0  0  0  0  0  0
   -4.8040   22.7620  -30.3700 C   0  0  0  0  0  0  0  0  0  0  0  0
   -5.7850   21.7580  -30.6720 N   0  0  0  0  0  0  0  0  0  0  0  0
   -5.6050   20.6410  -31.3260 C   0  0  0  0  0  0  0  0  0  0  0  0
   -6.7150   19.8250  -31.6330 C   0  0  0  0  0  0  0  0  0  0  0  0
   -8.0270   20.1990  -31.2720 C   0  0  0  0  0  0  0  0  0  0  0  0
   -8.1940   21.1290  -30.7088 H   0  0  0  0  0  0  0  0  0  0  0  0
   -9.1140   19.3980  -31.6240 C   0  0  0  0  0  0  0  0  0  0  0  0
  -10.1317   19.6947  -31.3304 H   0  0  0  0  0  0  0  0  0  0  0  0
   -8.9140   18.2240  -32.3460 C   0  0  0  0  0  0  0  0  0  0  0  0
   -9.7753   17.6016  -32.6301 H   0  0  0  0  0  0  0  0  0  0  0  0
   -7.6250   17.8350  -32.7100 C   0  0  0  0  0  0  0  0  0  0  0  0
   -7.4776   16.9120  -33.2899 H   0  0  0  0  0  0  0  0  0  0  0  0
   -6.5080   18.6150  -32.3410 C   0  0  0  0  0  0  0  0  0  0  0  0
   -5.1890   18.2480  -32.6810 C   0  0  0  0  0  0  0  0  0  0  0  0
   -4.8510   16.9840  -33.3690 C   0  0  0  0  0  0  0  0  0  0  0  0
   -4.2730   17.0180  -34.6440 C   0  0  0  0  0  0  0  0  0  0  0  0
   -4.0968   17.9842  -35.1394 H   0  0  0  0  0  0  0  0  0  0  0  0
   -3.9190   15.8310  -35.2900 C   0  0  0  0  0  0  0  0  0  0  0  0
   -3.4756   15.8677  -36.2960 H   0  0  0  0  0  0  0  0  0  0  0  0
   -4.1260   14.5880  -34.6620 C   0  0  0  0  0  0  0  0  0  0  0  0
   -3.7880   13.3750  -35.2810 O   0  0  0  0  0  0  0  0  0  0  0  0
   -4.7290   12.3850  -35.6830 C   0  0  0  0  0  0  0  0  0  0  0  0
   -5.1731   11.9178  -34.7916 H   0  0  0  0  0  0  0  0  0  0  0  0
   -5.5215   12.8549  -36.2840 H   0  0  0  0  0  0  0  0  0  0  0  0
   -4.2195   11.6174  -36.2840 H   0  0  0  0  0  0  0  0  0  0  0  0
   -4.6840   14.5470  -33.3740 C   0  0  0  0  0  0  0  0  0  0  0  0
   -4.8730   13.2940  -32.7690 O   0  0  0  0  0  0  0  0  0  0  0  0
   -4.6390   13.0200  -31.3910 C   0  0  0  0  0  0  0  0  0  0  0  0
   -5.2304   13.7124  -30.7739 H   0  0  0  0  0  0  0  0  0  0  0  0
   -4.9359   11.9847  -31.1674 H   0  0  0  0  0  0  0  0  0  0  0  0
   -3.5700   13.1512  -31.1674 H   0  0  0  0  0  0  0  0  0  0  0  0
   -5.0360   15.7490  -32.7280 C   0  0  0  0  0  0  0  0  0  0  0  0
   -5.4592   15.7192  -31.7131 H   0  0  0  0  0  0  0  0  0  0  0  0
   -4.1680   19.0770  -32.3460 N   0  0  0  0  0  0  0  0  0  0  0  0
   -4.3570   20.2230  -31.6960 N   0  0  0  0  0  0  0  0  0  0  0  0
   -3.5050   20.7700  -31.4420 H   0  0  0  0  0  0  0  0  0  0  0  0
   -3.6460   22.3960  -29.6700 C   0  0  0  0  0  0  0  0  0  0  0  0
   -3.4785   21.3426  -29.4012 H   0  0  0  0  0  0  0  0  0  0  0  0
   -2.7030   23.3640  -29.3120 C   0  0  0  0  0  0  0  0  0  0  0  0
   -1.7864   23.0682  -28.7805 H   0  0  0  0  0  0  0  0  0  0  0  0
   -2.9240   24.7080  -29.6290 C   0  0  0  0  0  0  0  0  0  0  0  0
   -1.9860   25.6690  -29.2740 O   0  0  0  0  0  0  0  0  0  0  0  0
  1  2  1  0
  2  3  2  0
  3  4  1  0
  3  5  1  0
  5  6  1  0
  6  7  2  0
  7  8  1  0
  8  9  2  0
  9 10  1  0
  9 11  1  0
 11 12  1  0
 11 13  2  0
 13 14  1  0
 13 15  1  0
 15 16  1  0
 15 17  2  0
 17 18  1  0
 18 19  1  0
 19 20  2  0
 20 21  1  0
 20 22  1  0
 22 23  1  0
 22 24  2  0
 24 25  1  0
 25 26  1  0
 26 27  1  0
 26 28  1  0
 26 29  1  0
 24 30  1  0
 30 31  1  0
 31 32  1  0
 32 33  1  0
 32 34  1  0
 32 35  1  0
 30 36  2  0
 36 37  1  0
 18 38  2  0
 38 39  1  0
 39 40  1  0
  5 41  2  0
 41 42  1  0
 41 43  1  0
 43 44  1  0
 43 45  2  0
 45 46  1  0
 45  2  1  0
 39  7  1  0
 17  8  1  0
 36 19  1  0
M  CHG  1  46  -1
M  END
>  <UniqueID>  (16) 
16

>  <SMILES>  (16) 
COc1ccc(-c2n[nH]/c(=N\c3ccc([O-])cc3)c3ccccc23)cc1OC

>  <Energy>  (16) 
72.53376366171851

>  <Genealogy>  (16) 
COc1ccc(-c2n[nH]c(=Nc3ccc([O-])cc3)c3ccccc23)cc1OC (protonated)
COc1ccc(-c2n[nH]/c(=N\c3ccc([O-])cc3)c3ccccc23)cc1OC (cis-trans isomerization)
COc1ccc(-c2n[nH]/c(=N\c3ccc([O-])cc3)c3ccccc23)cc1OC (3D coordinates assigned)
COc1ccc(-c2n[nH]/c(=N\c3ccc([O-])cc3)c3ccccc23)cc1OC (optimized conformer: 72.53376366171851 kcal/mol)

>  <smiles>  (16) 
COc1ccc(-c2n[nH]c(=Nc3ccc(O)cc3)c3ccccc23)cc1OC

>  <score_type>  (16) 
oracle

>  <origin>  (16) 
adgpu

>  <m_score__min__energy>  (16) 
-10.300000000000001

>  <m_primary>  (16) 
energy

$$$$
16:0
     RDKit          3D

 16 16  0  0  0  0  0  0  0  0999 V2000
   -0.8530   20.2660  -28.7740 N   0  0  0  0  0  0  0  0  0  0  0  0
   -2.0670   20.8560  -28.3160 C   0  0  0  0  0  0  0  0  0  0  0  0
   -2.6880   20.3200  -27.3590 O   0  0  0  0  0  0  0  0  0  0  0  0
   -2.5950   22.0850  -28.9560 C   0  0  0  0  0  0  0  0  0  0  0  0
   -3.7810   22.0480  -29.7100 C   0  0  0  0  0  0  0  0  0  0  0  0
   -4.2760   23.2080  -30.3130 C   0  0  0  0  0  0  0  0  0  0  0  0
   -3.5980   24.4220  -30.1720 C   0  0  0  0  0  0  0  0  0  0  0  0
   -4.1140   25.5640  -30.7830 O   0  0  0  0  0  0  0  0  0  0  0  0
   -2.4120   24.4710  -29.4210 C   0  0  0  0  0  0  0  0  0  0  0  0
   -1.7230   25.6690  -29.2690 O   0  0  0  0  0  0  0  0  0  0  0  0
   -1.9150   23.3100  -28.8190 C   0  0  0  0  0  0  0  0  0  0  0  0
   -0.6650   20.1430  -29.7940 H   0  0  0  0  0  0  0  0  0  0  0  0
   -4.3239   21.0984  -29.8264 H   0  0  0  0  0  0  0  0  0  0  0  0
   -5.2042   23.1651  -30.9017 H   0  0  0  0  0  0  0  0  0  0  0  0
   -3.8610   26.4960  -30.4780 H   0  0  0  0  0  0  0  0  0  0  0  0
   -0.9848   23.3547  -28.2335 H   0  0  0  0  0  0  0  0  0  0  0  0
  1  2  1  0
  2  3  2  0
  2  4  1  0
  4  5  2  0
  5  6  1  0
  6  7  2  0
  7  8  1  0
  7  9  1  0
  9 10  1  0
  9 11  2  0
 11  4  1  0
  1 12  1  0
  5 13  1  0
  6 14  1  0
  8 15  1  0
 11 16  1  0
M  CHG  2   1  -1  10  -1
M  END
>  <UniqueID>  (17) 
17

>  <SMILES>  (17) 
[NH-]C(=O)c1ccc(O)c([O-])c1

>  <Energy>  (17) 
15.177340354691353

>  <Genealogy>  (17) 
[NH-]C(=O)c1ccc(O)c([O-])c1 (protonated)
[NH-]C(=O)c1ccc(O)c([O-])c1 (3D coordinates assigned)
[NH-]C(=O)c1ccc(O)c([O-])c1 (optimized conformer: 15.177340354691353 kcal/mol)

>  <smiles>  (17) 
NC(=O)c1ccc(O)c(O)c1

>  <score_type>  (17) 
oracle

>  <origin>  (17) 
adgpu

>  <m_score__min__energy>  (17) 
-7.75

>  <m_primary>  (17) 
energy

$$$$
17:0
     RDKit          3D

 39 41  0  0  0  0  0  0  0  0999 V2000
   -3.5420   18.3200  -34.5700 C   0  0  0  0  0  0  0  0  0  0  0  0
   -4.6810   17.6550  -35.0280 C   0  0  0  0  0  0  0  0  0  0  0  0
   -5.7350   17.3970  -34.1490 C   0  0  0  0  0  0  0  0  0  0  0  0
   -5.6290   17.8100  -32.8160 C   0  0  0  0  0  0  0  0  0  0  0  0
   -6.9580   17.4840  -31.6620 S   0  0  0  0  0  0  0  0  0  0  0  0
   -7.6880   19.1010  -31.9080 C   0  0  0  0  0  0  0  0  0  0  0  0
   -9.0710   19.2280  -32.0690 C   0  0  0  0  0  0  0  0  0  0  0  0
   -9.6410   20.4890  -32.2520 C   0  0  0  0  0  0  0  0  0  0  0  0
   -8.8320   21.6290  -32.2790 C   0  0  0  0  0  0  0  0  0  0  0  0
   -7.4360   21.5160  -32.1200 C   0  0  0  0  0  0  0  0  0  0  0  0
   -6.5660   22.6680  -32.1380 N   0  0  0  0  0  0  0  0  0  0  0  0
   -6.1080   23.3790  -30.9350 C   0  0  0  0  0  0  0  0  0  0  0  0
   -4.7700   22.7870  -30.4240 C   0  0  0  0  0  0  0  0  0  0  0  0
   -3.5740   23.6720  -30.7990 C   0  0  0  0  0  0  0  0  0  0  0  0
   -3.6910   25.0280  -30.2290 N   0  0  0  0  0  0  0  0  0  0  0  0
   -5.0680   25.5630  -30.1880 C   0  0  0  0  0  0  0  0  0  0  0  0
   -5.9950   24.8960  -31.2120 C   0  0  0  0  0  0  0  0  0  0  0  0
   -6.8750   20.2400  -31.9380 C   0  0  0  0  0  0  0  0  0  0  0  0
   -4.5120   18.4590  -32.3920 N   0  0  0  0  0  0  0  0  0  0  0  0
   -3.4760   18.7200  -33.2320 C   0  0  0  0  0  0  0  0  0  0  0  0
   -2.7059   18.5269  -35.2542 H   0  0  0  0  0  0  0  0  0  0  0  0
   -4.7480   17.3352  -36.0783 H   0  0  0  0  0  0  0  0  0  0  0  0
   -6.6376   16.8755  -34.5001 H   0  0  0  0  0  0  0  0  0  0  0  0
   -9.7106   18.3333  -32.0514 H   0  0  0  0  0  0  0  0  0  0  0  0
  -10.7297   20.5861  -32.3753 H   0  0  0  0  0  0  0  0  0  0  0  0
   -9.2874   22.6196  -32.4251 H   0  0  0  0  0  0  0  0  0  0  0  0
   -6.2700   23.0310  -33.0730 H   0  0  0  0  0  0  0  0  0  0  0  0
   -6.8539   23.2410  -30.1384 H   0  0  0  0  0  0  0  0  0  0  0  0
   -4.8162   22.6965  -29.3287 H   0  0  0  0  0  0  0  0  0  0  0  0
   -4.6289   21.8039  -30.8969 H   0  0  0  0  0  0  0  0  0  0  0  0
   -2.6534   23.2050  -30.4190 H   0  0  0  0  0  0  0  0  0  0  0  0
   -3.5495   23.7645  -31.8948 H   0  0  0  0  0  0  0  0  0  0  0  0
   -3.1010   25.6700  -30.8090 H   0  0  0  0  0  0  0  0  0  0  0  0
   -5.4795   25.3979  -29.1813 H   0  0  0  0  0  0  0  0  0  0  0  0
   -5.0153   26.6333  -30.4365 H   0  0  0  0  0  0  0  0  0  0  0  0
   -6.9942   25.3512  -31.1458 H   0  0  0  0  0  0  0  0  0  0  0  0
   -5.5765   25.0430  -32.2186 H   0  0  0  0  0  0  0  0  0  0  0  0
   -5.7866   20.1356  -31.8180 H   0  0  0  0  0  0  0  0  0  0  0  0
   -2.5850   19.2463  -32.8589 H   0  0  0  0  0  0  0  0  0  0  0  0
  1  2  2  0
  2  3  1  0
  3  4  2  0
  4  5  1  0
  5  6  1  0
  6  7  2  0
  7  8  1  0
  8  9  2  0
  9 10  1  0
 10 11  1  0
 11 12  1  0
 12 13  1  0
 13 14  1  0
 14 15  1  0
 15 16  1  0
 16 17  1  0
 10 18  2  0
  4 19  1  0
 19 20  2  0
 20  1  1  0
 18  6  1  0
 17 12  1  0
  1 21  1  0
  2 22  1  0
  3 23  1  0
  7 24  1  0
  8 25  1  0
  9 26  1  0
 11 27  1  0
 12 28  1  0
 13 29  1  0
 13 30  1  0
 14 31  1  0
 14 32  1  0
 15 33  1  0
 16 34  1  0
 16 35  1  0
 17 36  1  0
 17 37  1  0
 18 38  1  0
 20 39  1  0
M  END
>  <UniqueID>  (18) 
18

>  <SMILES>  (18) 
c1ccc(Sc2cccc(NC3CCNCC3)c2)nc1

>  <Energy>  (18) 
42.901941517889206

>  <Genealogy>  (18) 
c1ccc(Sc2cccc(NC3CCNCC3)c2)nc1 (3D coordinates assigned)
c1ccc(Sc2cccc(NC3CCNCC3)c2)nc1 (nonaromatic ring conformer: 42.901941517889206 kcal/mol)

>  <smiles>  (18) 
c1ccc(Sc2cccc(NC3CCNCC3)c2)nc1

>  <score_type>  (18) 
oracle

>  <origin>  (18) 
adgpu

>  <m_score__min__energy>  (18) 
-8.5899999999999999

>  <m_primary>  (18) 
energy

$$$$
18:0
     RDKit          3D

 41 43  0  0  0  0  0  0  0  0999 V2000
   -1.2330   26.3040  -29.7260 H   0  0  0  0  0  0  0  0  0  0  0  0
   -1.6620   25.6780  -29.0090 N   0  0  0  0  0  0  0  0  0  0  0  0
   -0.9000   24.6540  -28.3780 C   0  0  0  0  0  0  0  0  0  0  0  0
    0.2420   24.3750  -28.8310 O   0  0  0  0  0  0  0  0  0  0  0  0
   -1.4820   23.8890  -27.2480 C   0  0  0  0  0  0  0  0  0  0  0  0
   -0.5180   23.7410  -25.7360 S   0  0  0  0  0  0  0  0  0  0  0  0
   -0.3080   25.5160  -25.5580 C   0  0  0  0  0  0  0  0  0  0  0  0
    0.9690   26.0840  -25.6580 C   0  0  0  0  0  0  0  0  0  0  0  0
    1.8416   25.4419  -25.8488 H   0  0  0  0  0  0  0  0  0  0  0  0
    1.1370   27.4640  -25.5160 C   0  0  0  0  0  0  0  0  0  0  0  0
    2.1420   27.9053  -25.5885 H   0  0  0  0  0  0  0  0  0  0  0  0
    0.0300   28.2840  -25.2820 C   0  0  0  0  0  0  0  0  0  0  0  0
    0.1645   29.3695  -25.1655 H   0  0  0  0  0  0  0  0  0  0  0  0
   -1.2480   27.7250  -25.1960 C   0  0  0  0  0  0  0  0  0  0  0  0
   -2.1193   28.3720  -25.0163 H   0  0  0  0  0  0  0  0  0  0  0  0
   -1.4210   26.3450  -25.3380 C   0  0  0  0  0  0  0  0  0  0  0  0
   -2.6690   25.8170  -25.2650 F   0  0  0  0  0  0  0  0  0  0  0  0
   -2.7250   23.3710  -27.2500 C   0  0  0  0  0  0  0  0  0  0  0  0
   -3.1213   23.0051  -26.2913 H   0  0  0  0  0  0  0  0  0  0  0  0
   -3.6000   23.2540  -28.4350 C   0  0  0  0  0  0  0  0  0  0  0  0
   -3.3400   22.2590  -29.3870 C   0  0  0  0  0  0  0  0  0  0  0  0
   -2.5128   21.5516  -29.2282 H   0  0  0  0  0  0  0  0  0  0  0  0
   -4.1280   22.1620  -30.5380 C   0  0  0  0  0  0  0  0  0  0  0  0
   -3.9356   21.3608  -31.2667 H   0  0  0  0  0  0  0  0  0  0  0  0
   -5.1650   23.0830  -30.7690 C   0  0  0  0  0  0  0  0  0  0  0  0
   -5.9860   23.0080  -31.9030 O   0  0  0  0  0  0  0  0  0  0  0  0
   -7.0900   22.1560  -32.0540 C   0  0  0  0  0  0  0  0  0  0  0  0
   -8.3850   22.5370  -31.6560 C   0  0  0  0  0  0  0  0  0  0  0  0
   -8.5545   23.5343  -31.2239 H   0  0  0  0  0  0  0  0  0  0  0  0
   -9.4570   21.6520  -31.8080 C   0  0  0  0  0  0  0  0  0  0  0  0
  -10.4690   21.9574  -31.5037 H   0  0  0  0  0  0  0  0  0  0  0  0
   -9.2440   20.3800  -32.3460 C   0  0  0  0  0  0  0  0  0  0  0  0
  -10.0889   19.6869  -32.4711 H   0  0  0  0  0  0  0  0  0  0  0  0
   -7.9570   19.9890  -32.7250 C   0  0  0  0  0  0  0  0  0  0  0  0
   -7.7885   18.9854  -33.1426 H   0  0  0  0  0  0  0  0  0  0  0  0
   -6.8830   20.8720  -32.5740 C   0  0  0  0  0  0  0  0  0  0  0  0
   -5.8703   20.5564  -32.8652 H   0  0  0  0  0  0  0  0  0  0  0  0
   -5.4160   24.0830  -29.8220 C   0  0  0  0  0  0  0  0  0  0  0  0
   -6.2374   24.7962  -29.9851 H   0  0  0  0  0  0  0  0  0  0  0  0
   -4.6300   24.1810  -28.6710 C   0  0  0  0  0  0  0  0  0  0  0  0
   -4.8180   24.9870  -27.9464 H   0  0  0  0  0  0  0  0  0  0  0  0
  1  2  1  0
  2  3  1  0
  3  4  2  0
  3  5  1  0
  5  6  1  0
  6  7  1  0
  7  8  2  0
  8  9  1  0
  8 10  1  0
 10 11  1  0
 10 12  2  0
 12 13  1  0
 12 14  1  0
 14 15  1  0
 14 16  2  0
 16 17  1  0
  5 18  2  0
 18 19  1  0
 18 20  1  0
 20 21  2  0
 21 22  1  0
 21 23  1  0
 23 24  1  0
 23 25  2  0
 25 26  1  0
 26 27  1  0
 27 28  2  0
 28 29  1  0
 28 30  1  0
 30 31  1  0
 30 32  2  0
 32 33  1  0
 32 34  1  0
 34 35  1  0
 34 36  2  0
 36 37  1  0
 25 38  1  0
 38 39  1  0
 38 40  2  0
 40 41  1  0
 16  7  1  0
 40 20  1  0
 36 27  1  0
M  CHG  1   2  -1
M  END
>  <UniqueID>  (19) 
19

>  <SMILES>  (19) 
[NH-]C(=O)/C(=C\c1ccc(Oc2ccccc2)cc1)Sc1ccccc1F

>  <Energy>  (19) 
54.062558608999055

>  <Genealogy>  (19) 
[NH-]C(=O)C(=Cc1ccc(Oc2ccccc2)cc1)Sc1ccccc1F (protonated)
[NH-]C(=O)/C(=C\c1ccc(Oc2ccccc2)cc1)Sc1ccccc1F (cis-trans isomerization)
[NH-]C(=O)/C(=C\c1ccc(Oc2ccccc2)cc1)Sc1ccccc1F (3D coordinates assigned)
[NH-]C(=O)/C(=C\c1ccc(Oc2ccccc2)cc1)Sc1ccccc1F (optimized conformer: 54.062558608999055 kcal/mol)

>  <smiles>  (19) 
NC(=O)C(=Cc1ccc(Oc2ccccc2)cc1)Sc1ccccc1F

>  <score_type>  (19) 
oracle

>  <origin>  (19) 
adgpu

>  <m_score__min__energy>  (19) 
-11.02

>  <m_primary>  (19) 
energy

$$$$
19:0
     RDKit          3D

 32 33  0  0  0  0  0  0  0  0999 V2000
   -1.9860   20.4740  -32.4780 N   0  0  0  0  0  0  0  0  0  0  0  0
   -3.2380   21.1010  -32.7600 C   0  0  0  0  0  0  0  0  0  0  0  0
   -3.3910   21.8040  -33.8390 N   0  0  0  0  0  0  0  0  0  0  0  0
   -4.6000   20.9210  -31.6010 S   0  0  0  0  0  0  0  0  0  0  0  0
   -5.8310   20.4370  -32.8780 C   0  0  2  0  0  0  0  0  0  0  0  0
   -7.2330   20.8800  -32.5150 C   0  0  0  0  0  0  0  0  0  0  0  0
   -8.3110   19.9930  -32.6860 C   0  0  0  0  0  0  0  0  0  0  0  0
   -9.6090   20.3790  -32.3360 C   0  0  0  0  0  0  0  0  0  0  0  0
   -9.8430   21.6500  -31.8040 C   0  0  0  0  0  0  0  0  0  0  0  0
   -8.7780   22.5340  -31.6180 C   0  0  0  0  0  0  0  0  0  0  0  0
   -7.4790   22.1540  -31.9660 C   0  0  0  0  0  0  0  0  0  0  0  0
   -5.8060   18.9450  -33.1410 C   0  0  0  0  0  0  0  0  0  0  0  0
   -5.7340   18.4280  -34.4500 C   0  0  0  0  0  0  0  0  0  0  0  0
   -5.6670   17.0480  -34.6630 C   0  0  0  0  0  0  0  0  0  0  0  0
   -5.6570   16.1690  -33.5770 C   0  0  0  0  0  0  0  0  0  0  0  0
   -5.5700   14.4370  -33.8490 Cl  0  0  0  0  0  0  0  0  0  0  0  0
   -5.7100   16.6710  -32.2750 C   0  0  0  0  0  0  0  0  0  0  0  0
   -5.7780   18.0500  -32.0560 C   0  0  0  0  0  0  0  0  0  0  0  0
   -1.8680   19.9090  -31.6070 H   0  0  0  0  0  0  0  0  0  0  0  0
   -1.1780   20.5650  -33.1330 H   0  0  0  0  0  0  0  0  0  0  0  0
   -2.6080   21.9190  -34.5210 H   0  0  0  0  0  0  0  0  0  0  0  0
   -4.3020   22.2710  -34.0450 H   0  0  0  0  0  0  0  0  0  0  0  0
   -5.5398   20.9580  -33.8020 H   0  0  0  0  0  0  0  0  0  0  0  0
   -8.1321   18.9888  -33.0978 H   0  0  0  0  0  0  0  0  0  0  0  0
  -10.4470   19.6811  -32.4797 H   0  0  0  0  0  0  0  0  0  0  0  0
  -10.8647   21.9537  -31.5321 H   0  0  0  0  0  0  0  0  0  0  0  0
   -8.9623   23.5330  -31.1961 H   0  0  0  0  0  0  0  0  0  0  0  0
   -6.6442   22.8532  -31.8105 H   0  0  0  0  0  0  0  0  0  0  0  0
   -5.7305   19.1145  -35.3094 H   0  0  0  0  0  0  0  0  0  0  0  0
   -5.6220   16.6530  -35.6886 H   0  0  0  0  0  0  0  0  0  0  0  0
   -5.6982   15.9796  -31.4195 H   0  0  0  0  0  0  0  0  0  0  0  0
   -5.8099   18.4383  -31.0273 H   0  0  0  0  0  0  0  0  0  0  0  0
  1  2  1  0
  2  3  2  0
  2  4  1  0
  4  5  1  0
  5  6  1  0
  6  7  2  0
  7  8  1  0
  8  9  2  0
  9 10  1  0
 10 11  2  0
  5 12  1  0
 12 13  2  0
 13 14  1  0
 14 15  2  0
 15 16  1  0
 15 17  1  0
 17 18  2  0
 11  6  1  0
 18 12  1  0
  1 19  1  0
  1 20  1  0
  3 21  1  0
  3 22  1  0
  5 23  1  6
  7 24  1  0
  8 25  1  0
  9 26  1  0
 10 27  1  0
 11 28  1  0
 13 29  1  0
 14 30  1  0
 17 31  1  0
 18 32  1  0
M  CHG  1   3   1
M  END
>  <UniqueID>  (20) 
20

>  <SMILES>  (20) 
NC(=[NH2+])S[C@H](c1ccccc1)c1ccc(Cl)cc1

>  <Energy>  (20) 
27.546644655106714

>  <Genealogy>  (20) 
NC(=[NH2+])SC(c1ccccc1)c1ccc(Cl)cc1 (protonated)
NC(=[NH2+])S[C@H](c1ccccc1)c1ccc(Cl)cc1 (chirality)
NC(=[NH2+])S[C@H](c1ccccc1)c1ccc(Cl)cc1 (3D coordinates assigned)
NC(=[NH2+])S[C@H](c1ccccc1)c1ccc(Cl)cc1 (optimized conformer: 27.546644655106714 kcal/mol)

>  <smiles>  (20) 
N=C(N)SC(c1ccccc1)c1ccc(Cl)cc1

>  <score_type>  (20) 
oracle

>  <origin>  (20) 
adgpu

>  <m_score__min__energy>  (20) 
-7.4199999999999999

>  <m_primary>  (20) 
energy

$$$$
20:0
     RDKit          3D

 20 21  0  0  0  0  0  0  0  0999 V2000
   -7.0640   21.0730  -31.3630 H   0  0  0  0  0  0  0  0  0  0  0  0
   -6.0880   21.4430  -31.3420 N   0  0  0  0  0  0  0  0  0  0  0  0
   -5.8410   22.6630  -30.9850 C   0  0  0  0  0  0  0  0  0  0  0  0
   -7.0190   23.7800  -30.5460 S   0  0  0  0  0  0  0  0  0  0  0  0
   -5.9040   25.0220  -30.3090 C   0  0  0  0  0  0  0  0  0  0  0  0
   -6.1375   26.0496  -29.9934 H   0  0  0  0  0  0  0  0  0  0  0  0
   -4.6360   24.5180  -30.5830 C   0  0  0  0  0  0  0  0  0  0  0  0
   -3.4890   25.2970  -30.4690 O   0  0  0  0  0  0  0  0  0  0  0  0
   -4.5970   23.2050  -30.9570 N   0  0  0  0  0  0  0  0  0  0  0  0
   -3.3880   22.5030  -31.2940 C   0  0  0  0  0  0  0  0  0  0  0  0
   -2.3270   22.4470  -30.3720 C   0  0  0  0  0  0  0  0  0  0  0  0
   -2.4249   22.9394  -29.3933 H   0  0  0  0  0  0  0  0  0  0  0  0
   -1.1490   21.7680  -30.6950 C   0  0  0  0  0  0  0  0  0  0  0  0
   -0.3211   21.7303  -29.9717 H   0  0  0  0  0  0  0  0  0  0  0  0
   -1.0210   21.1370  -31.9350 C   0  0  0  0  0  0  0  0  0  0  0  0
   -0.0922   20.6046  -32.1876 H   0  0  0  0  0  0  0  0  0  0  0  0
   -2.0720   21.1820  -32.8540 C   0  0  0  0  0  0  0  0  0  0  0  0
   -1.9701   20.6827  -33.8288 H   0  0  0  0  0  0  0  0  0  0  0  0
   -3.2530   21.8600  -32.5380 C   0  0  0  0  0  0  0  0  0  0  0  0
   -4.2760   21.8670  -33.4300 F   0  0  0  0  0  0  0  0  0  0  0  0
  1  2  1  0
  2  3  2  0
  3  4  1  0
  4  5  1  0
  5  6  1  0
  5  7  2  0
  7  8  1  0
  7  9  1  0
  9 10  1  0
 10 11  2  0
 11 12  1  0
 11 13  1  0
 13 14  1  0
 13 15  2  0
 15 16  1  0
 15 17  1  0
 17 18  1  0
 17 19  2  0
 19 20  1  0
  9  3  1  0
 19 10  1  0
M  CHG  1   8  -1
M  END
>  <UniqueID>  (21) 
21

>  <SMILES>  (21) 
[H]/N=c1\scc([O-])n1-c1ccccc1F

>  <Energy>  (21) 
58.850012477663405

>  <Genealogy>  (21) 
N=c1scc([O-])n1-c1ccccc1F (protonated)
[H]/N=c1\scc([O-])n1-c1ccccc1F (cis-trans isomerization)
[H]/N=c1\scc([O-])n1-c1ccccc1F (3D coordinates assigned)
[H]/N=c1\scc([O-])n1-c1ccccc1F (optimized conformer: 58.850012477663405 kcal/mol)

>  <smiles>  (21) 
N=c1scc(O)n1-c1ccccc1F

>  <score_type>  (21) 
oracle

>  <origin>  (21) 
adgpu

>  <m_score__min__energy>  (21) 
-7.9500000000000002

>  <m_primary>  (21) 
energy

$$$$
21:0
     RDKit          3D

 44 46  0  0  0  0  0  0  0  0999 V2000
   -9.1070   18.5510  -31.8040 C   0  0  0  0  0  0  0  0  0  0  0  0
   -7.6560   18.6710  -32.1660 C   0  0  0  0  0  0  0  0  0  0  0  0
   -6.8700   19.6830  -31.5980 C   0  0  0  0  0  0  0  0  0  0  0  0
   -5.5280   19.8230  -31.9630 C   0  0  0  0  0  0  0  0  0  0  0  0
   -4.9610   18.9600  -32.9100 C   0  0  0  0  0  0  0  0  0  0  0  0
   -3.2800   19.1670  -33.3900 S   0  0  0  0  0  0  0  0  0  0  0  0
   -2.4190   18.2800  -32.5350 O   0  0  0  0  0  0  0  0  0  0  0  0
   -3.0870   18.7910  -34.8330 O   0  0  0  0  0  0  0  0  0  0  0  0
   -2.7980   20.8210  -33.1690 N   0  0  0  0  0  0  0  0  0  0  0  0
   -2.2380   21.3390  -31.9480 C   0  0  0  0  0  0  0  0  0  0  0  0
   -1.1670   20.6620  -31.3460 C   0  0  0  0  0  0  0  0  0  0  0  0
   -0.6060   21.1360  -30.1570 C   0  0  0  0  0  0  0  0  0  0  0  0
   -1.1110   22.2890  -29.5540 C   0  0  0  0  0  0  0  0  0  0  0  0
   -2.1820   22.9760  -30.1380 C   0  0  0  0  0  0  0  0  0  0  0  0
   -2.8200   24.4320  -29.3790 S   0  0  0  0  0  0  0  0  0  0  0  0
   -3.5860   24.0680  -28.1370 O   0  0  0  0  0  0  0  0  0  0  0  0
   -1.6780   25.3250  -28.9850 O   0  0  0  0  0  0  0  0  0  0  0  0
   -3.8540   25.2880  -30.4820 N   0  0  0  0  0  0  0  0  0  0  0  0
   -5.2350   25.2350  -30.0110 C   0  0  0  0  0  0  0  0  0  0  0  0
   -5.9950   24.2530  -30.8380 C   0  0  0  0  0  0  0  0  0  0  0  0
   -7.2270   23.7150  -30.5230 C   0  0  0  0  0  0  0  0  0  0  0  0
   -7.5210   22.8410  -31.5470 C   0  0  0  0  0  0  0  0  0  0  0  0
   -6.4500   22.8980  -32.4180 C   0  0  0  0  0  0  0  0  0  0  0  0
   -5.5550   23.7470  -31.9660 O   0  0  0  0  0  0  0  0  0  0  0  0
   -2.7350   22.5080  -31.3390 C   0  0  0  0  0  0  0  0  0  0  0  0
   -5.7490   17.9550  -33.4880 C   0  0  0  0  0  0  0  0  0  0  0  0
   -7.0910   17.8160  -33.1250 C   0  0  0  0  0  0  0  0  0  0  0  0
   -9.2122   18.5423  -30.7091 H   0  0  0  0  0  0  0  0  0  0  0  0
   -9.6603   19.4064  -32.2188 H   0  0  0  0  0  0  0  0  0  0  0  0
   -9.5123   17.6163  -32.2188 H   0  0  0  0  0  0  0  0  0  0  0  0
   -7.3114   20.3704  -30.8614 H   0  0  0  0  0  0  0  0  0  0  0  0
   -4.9150   20.6134  -31.5052 H   0  0  0  0  0  0  0  0  0  0  0  0
   -2.8790   21.4510  -33.9980 H   0  0  0  0  0  0  0  0  0  0  0  0
   -0.7655   19.7508  -31.8135 H   0  0  0  0  0  0  0  0  0  0  0  0
    0.2357   20.5990  -29.6952 H   0  0  0  0  0  0  0  0  0  0  0  0
   -0.6667   22.6586  -28.6181 H   0  0  0  0  0  0  0  0  0  0  0  0
   -5.2530   24.9210  -28.9569 H   0  0  0  0  0  0  0  0  0  0  0  0
   -5.6956   26.2299  -30.1002 H   0  0  0  0  0  0  0  0  0  0  0  0
   -7.8442   23.9374  -29.6400 H   0  0  0  0  0  0  0  0  0  0  0  0
   -8.4252   22.2231  -31.6501 H   0  0  0  0  0  0  0  0  0  0  0  0
   -6.3602   22.3198  -33.3494 H   0  0  0  0  0  0  0  0  0  0  0  0
   -3.5634   23.0582  -31.8091 H   0  0  0  0  0  0  0  0  0  0  0  0
   -5.3089   17.2730  -34.2304 H   0  0  0  0  0  0  0  0  0  0  0  0
   -7.7070   17.0337  -33.5925 H   0  0  0  0  0  0  0  0  0  0  0  0
  1  2  1  0
  2  3  2  0
  3  4  1  0
  4  5  2  0
  5  6  1  0
  6  7  2  0
  6  8  2  0
  6  9  1  0
  9 10  1  0
 10 11  2  0
 11 12  1  0
 12 13  2  0
 13 14  1  0
 14 15  1  0
 15 16  2  0
 15 17  2  0
 15 18  1  0
 18 19  1  0
 19 20  1  0
 20 21  2  0
 21 22  1  0
 22 23  2  0
 23 24  1  0
 14 25  2  0
  5 26  1  0
 26 27  2  0
 27  2  1  0
 25 10  1  0
 24 20  1  0
  1 28  1  0
  1 29  1  0
  1 30  1  0
  3 31  1  0
  4 32  1  0
  9 33  1  0
 11 34  1  0
 12 35  1  0
 13 36  1  0
 19 37  1  0
 19 38  1  0
 21 39  1  0
 22 40  1  0
 23 41  1  0
 25 42  1  0
 26 43  1  0
 27 44  1  0
M  CHG  1  18  -1
M  END
>  <UniqueID>  (22) 
22

>  <SMILES>  (22) 
Cc1ccc(S(=O)(=O)Nc2cccc(S(=O)(=O)[N-]Cc3ccco3)c2)cc1

>  <Energy>  (22) 
70.04861647910852

>  <Genealogy>  (22) 
Cc1ccc(S(=O)(=O)Nc2cccc(S(=O)(=O)[N-]Cc3ccco3)c2)cc1 (protonated)
Cc1ccc(S(=O)(=O)Nc2cccc(S(=O)(=O)[N-]Cc3ccco3)c2)cc1 (3D coordinates assigned)
Cc1ccc(S(=O)(=O)Nc2cccc(S(=O)(=O)[N-]Cc3ccco3)c2)cc1 (optimized conformer: 70.04861647910852 kcal/mol)

>  <smiles>  (22) 
Cc1ccc(S(=O)(=O)Nc2cccc(S(=O)(=O)NCc3ccco3)c2)cc1

>  <score_type>  (22) 
oracle

>  <origin>  (22) 
adgpu

>  <m_score__min__energy>  (22) 
-11.08

>  <m_primary>  (22) 
energy

$$$$
22:0
     RDKit          3D

 34 36  0  0  0  0  0  0  0  0999 V2000
   -6.4910   25.8080  -29.0250 C   0  0  0  0  0  0  0  0  0  0  0  0
   -6.2600   25.5140  -30.3620 O   0  0  0  0  0  0  0  0  0  0  0  0
   -6.2550   24.2360  -30.8980 C   0  0  0  0  0  0  0  0  0  0  0  0
   -7.4630   23.6500  -31.1540 C   0  0  0  0  0  0  0  0  0  0  0  0
   -7.4200   22.3600  -31.6960 C   0  0  0  0  0  0  0  0  0  0  0  0
   -8.6500   21.7880  -31.9460 C   0  0  0  0  0  0  0  0  0  0  0  0
   -8.6980   20.5240  -32.4770 C   0  0  0  0  0  0  0  0  0  0  0  0
   -7.4900   19.8930  -32.7330 C   0  0  0  0  0  0  0  0  0  0  0  0
   -7.6030   18.6410  -33.2590 N   0  0  0  0  0  0  0  0  0  0  0  0
   -6.4450   18.0120  -33.5140 C   0  0  0  0  0  0  0  0  0  0  0  0
   -6.4990   16.8240  -34.0130 N   0  0  0  0  0  0  0  0  0  0  0  0
   -5.2340   18.5270  -33.2880 N   0  0  0  0  0  0  0  0  0  0  0  0
   -5.1270   19.7730  -32.7630 C   0  0  0  0  0  0  0  0  0  0  0  0
   -3.9340   20.1960  -32.5760 N   0  0  0  0  0  0  0  0  0  0  0  0
   -6.2690   20.4730  -32.4790 C   0  0  0  0  0  0  0  0  0  0  0  0
   -6.2200   21.7310  -31.9500 C   0  0  0  0  0  0  0  0  0  0  0  0
   -5.0290   22.3620  -31.6760 C   0  0  0  0  0  0  0  0  0  0  0  0
   -5.0330   23.6570  -31.1320 C   0  0  0  0  0  0  0  0  0  0  0  0
   -3.8520   24.3250  -30.8420 O   0  0  0  0  0  0  0  0  0  0  0  0
   -3.0340   23.8040  -29.8270 C   0  0  0  0  0  0  0  0  0  0  0  0
   -5.9349   25.1003  -28.3926 H   0  0  0  0  0  0  0  0  0  0  0  0
   -6.1543   26.8332  -28.8115 H   0  0  0  0  0  0  0  0  0  0  0  0
   -7.5668   25.7234  -28.8115 H   0  0  0  0  0  0  0  0  0  0  0  0
   -8.4139   24.1624  -30.9462 H   0  0  0  0  0  0  0  0  0  0  0  0
   -9.5772   22.3364  -31.7232 H   0  0  0  0  0  0  0  0  0  0  0  0
   -9.6573   20.0303  -32.6913 H   0  0  0  0  0  0  0  0  0  0  0  0
   -8.5170   18.1950  -33.4530 H   0  0  0  0  0  0  0  0  0  0  0  0
   -7.4290   16.4070  -34.1960 H   0  0  0  0  0  0  0  0  0  0  0  0
   -4.3780   17.9670  -33.5160 H   0  0  0  0  0  0  0  0  0  0  0  0
   -3.0740   19.6910  -32.7810 H   0  0  0  0  0  0  0  0  0  0  0  0
   -4.0756   21.8537  -31.8824 H   0  0  0  0  0  0  0  0  0  0  0  0
   -3.4528   24.0707  -28.8454 H   0  0  0  0  0  0  0  0  0  0  0  0
   -2.9866   22.7090  -29.9201 H   0  0  0  0  0  0  0  0  0  0  0  0
   -2.0216   24.2241  -29.9201 H   0  0  0  0  0  0  0  0  0  0  0  0
  1  2  1  0
  2  3  1  0
  3  4  2  0
  4  5  1  0
  5  6  2  0
  6  7  1  0
  7  8  2  0
  8  9  1  0
  9 10  1  0
 10 11  2  3
 10 12  1  0
 12 13  1  0
 13 14  2  3
 13 15  1  0
 15 16  2  0
 16 17  1  0
 17 18  2  0
 18 19  1  0
 19 20  1  0
 18  3  1  0
 16  5  1  0
 15  8  1  0
  1 21  1  0
  1 22  1  0
  1 23  1  0
  4 24  1  0
  6 25  1  0
  7 26  1  0
  9 27  1  0
 11 28  1  0
 12 29  1  0
 14 30  1  0
 17 31  1  0
 20 32  1  0
 20 33  1  0
 20 34  1  0
M  END
>  <smiles>  (23) 
COc1cc2ccc3[nH]c(=N)[nH]c(=N)c3c2cc1OC

>  <score_type>  (23) 
oracle

>  <origin>  (23) 
adgpu

>  <m_score__min__energy>  (23) 
-7.1100000000000003

>  <m_primary>  (23) 
energy

$$$$
23:0
     RDKit          3D

 37 38  0  0  0  0  0  0  0  0999 V2000
   -9.4460   21.5500  -30.8490 C   0  0  0  0  0  0  0  0  0  0  0  0
   -8.3820   20.9150  -31.6960 C   0  0  0  0  0  0  0  0  0  0  0  0
   -7.4010   21.7070  -32.3050 C   0  0  0  0  0  0  0  0  0  0  0  0
   -6.3870   21.1170  -33.0630 C   0  0  0  0  0  0  0  0  0  0  0  0
   -6.3290   19.7170  -33.2120 C   0  0  0  0  0  0  0  0  0  0  0  0
   -5.3250   19.0840  -33.9670 O   0  0  0  0  0  0  0  0  0  0  0  0
   -3.9350   19.0430  -33.6430 C   0  0  0  0  0  0  0  0  0  0  0  0
   -3.6810   19.6940  -32.2780 C   0  0  0  0  0  0  0  0  0  0  0  0
   -3.2030   21.1490  -32.4030 C   0  0  0  0  0  0  0  0  0  0  0  0
   -2.5350   21.7980  -30.8260 S   0  0  0  0  0  0  0  0  0  0  0  0
   -3.4860   23.3200  -30.8390 C   0  0  0  0  0  0  0  0  0  0  0  0
   -4.5790   23.5230  -31.5950 N   0  0  0  0  0  0  0  0  0  0  0  0
   -5.0100   24.7320  -31.2560 N   0  0  0  0  0  0  0  0  0  0  0  0
   -4.2240   25.2510  -30.3230 N   0  0  0  0  0  0  0  0  0  0  0  0
   -3.2610   24.3880  -30.0560 N   0  0  0  0  0  0  0  0  0  0  0  0
   -2.2700   24.5450  -29.0000 C   0  0  0  0  0  0  0  0  0  0  0  0
   -7.3100   18.9190  -32.5930 C   0  0  0  0  0  0  0  0  0  0  0  0
   -7.2600   17.4220  -32.7280 C   0  0  0  0  0  0  0  0  0  0  0  0
   -8.3240   19.5210  -31.8300 C   0  0  0  0  0  0  0  0  0  0  0  0
   -9.2034   21.4052  -29.7859 H   0  0  0  0  0  0  0  0  0  0  0  0
   -9.4969   22.6263  -31.0702 H   0  0  0  0  0  0  0  0  0  0  0  0
  -10.4175   21.0839  -31.0702 H   0  0  0  0  0  0  0  0  0  0  0  0
   -7.4291   22.8002  -32.1858 H   0  0  0  0  0  0  0  0  0  0  0  0
   -5.6284   21.7497  -33.5470 H   0  0  0  0  0  0  0  0  0  0  0  0
   -3.6016   17.9952  -33.6117 H   0  0  0  0  0  0  0  0  0  0  0  0
   -3.3748   19.5971  -34.4106 H   0  0  0  0  0  0  0  0  0  0  0  0
   -4.6164   19.6779  -31.6994 H   0  0  0  0  0  0  0  0  0  0  0  0
   -2.8868   19.1219  -31.7761 H   0  0  0  0  0  0  0  0  0  0  0  0
   -2.4143   21.1979  -33.1682 H   0  0  0  0  0  0  0  0  0  0  0  0
   -4.0704   21.7659  -32.6807 H   0  0  0  0  0  0  0  0  0  0  0  0
   -2.7631   24.4669  -28.0198 H   0  0  0  0  0  0  0  0  0  0  0  0
   -1.5087   23.7563  -29.0914 H   0  0  0  0  0  0  0  0  0  0  0  0
   -1.7898   25.5304  -29.0914 H   0  0  0  0  0  0  0  0  0  0  0  0
   -7.2447   16.9640  -31.7280 H   0  0  0  0  0  0  0  0  0  0  0  0
   -8.1470   17.0736  -33.2774 H   0  0  0  0  0  0  0  0  0  0  0  0
   -6.3517   17.1335  -33.2774 H   0  0  0  0  0  0  0  0  0  0  0  0
   -9.0787   18.8934  -31.3336 H   0  0  0  0  0  0  0  0  0  0  0  0
  1  2  1  0
  2  3  2  0
  3  4  1  0
  4  5  2  0
  5  6  1  0
  6  7  1  0
  7  8  1  0
  8  9  1  0
  9 10  1  0
 10 11  1  0
 11 12  2  0
 12 13  1  0
 13 14  2  0
 14 15  1  0
 15 16  1  0
  5 17  1  0
 17 18  1  0
 17 19  2  0
 19  2  1  0
 15 11  1  0
  1 20  1  0
  1 21  1  0
  1 22  1  0
  3 23  1  0
  4 24  1  0
  7 25  1  0
  7 26  1  0
  8 27  1  0
  8 28  1  0
  9 29  1  0
  9 30  1  0
 16 31  1  0
 16 32  1  0
 16 33  1  0
 18 34  1  0
 18 35  1  0
 18 36  1  0
 19 37  1  0
M  END
>  <UniqueID>  (24) 
23

>  <SMILES>  (24) 
Cc1ccc(OCCCSc2nnnn2C)c(C)c1

>  <Energy>  (24) 
71.01760014036986

>  <Genealogy>  (24) 
Cc1ccc(OCCCSc2nnnn2C)c(C)c1 (3D coordinates assigned)
Cc1ccc(OCCCSc2nnnn2C)c(C)c1 (optimized conformer: 71.01760014036986 kcal/mol)

>  <smiles>  (24) 
Cc1ccc(OCCCSc2nnnn2C)c(C)c1

>  <score_type>  (24) 
oracle

>  <origin>  (24) 
adgpu

>  <m_score__min__energy>  (24) 
-7.8200000000000003

>  <m_primary>  (24) 
energy

$$$$
24:0
     RDKit          3D

 26 28  0  0  0  0  0  0  0  0999 V2000
   -9.2140   22.0180  -31.2210 C   0  0  0  0  0  0  0  0  0  0  0  0
   -7.7530   21.9580  -31.5890 C   0  0  0  0  0  0  0  0  0  0  0  0
   -7.2790   20.8690  -32.3380 C   0  0  0  0  0  0  0  0  0  0  0  0
   -5.9220   20.7910  -32.6930 C   0  0  0  0  0  0  0  0  0  0  0  0
   -5.3810   19.6620  -33.4800 C   0  0  0  0  0  0  0  0  0  0  0  0
   -6.0880   18.7640  -34.2790 C   0  0  0  0  0  0  0  0  0  0  0  0
   -5.2730   17.8060  -34.8960 C   0  0  0  0  0  0  0  0  0  0  0  0
   -3.9260   17.9370  -34.5900 C   0  0  0  0  0  0  0  0  0  0  0  0
   -3.7500   19.2460  -33.5540 S   0  0  0  0  0  0  0  0  0  0  0  0
   -5.0740   21.7810  -32.3010 N   0  0  0  0  0  0  0  0  0  0  0  0
   -5.4890   22.8510  -31.5770 C   0  0  0  0  0  0  0  0  0  0  0  0
   -4.5920   23.8070  -31.2190 N   0  0  0  0  0  0  0  0  0  0  0  0
   -4.9570   24.8960  -30.4930 C   0  0  0  0  0  0  0  0  0  0  0  0
   -6.2830   25.0600  -30.0950 C   0  0  0  0  0  0  0  0  0  0  0  0
   -7.2310   24.0960  -30.4480 C   0  0  0  0  0  0  0  0  0  0  0  0
   -6.8460   22.9700  -31.1980 C   0  0  0  0  0  0  0  0  0  0  0  0
   -9.3164   22.0222  -30.1258 H   0  0  0  0  0  0  0  0  0  0  0  0
   -9.6589   22.9352  -31.6344 H   0  0  0  0  0  0  0  0  0  0  0  0
   -9.7326   21.1404  -31.6344 H   0  0  0  0  0  0  0  0  0  0  0  0
   -7.9730   20.0738  -32.6480 H   0  0  0  0  0  0  0  0  0  0  0  0
   -7.1792   18.8040  -34.4118 H   0  0  0  0  0  0  0  0  0  0  0  0
   -5.6647   17.0225  -35.5614 H   0  0  0  0  0  0  0  0  0  0  0  0
   -3.1142   17.2945  -34.9618 H   0  0  0  0  0  0  0  0  0  0  0  0
   -4.2045   25.6500  -30.2187 H   0  0  0  0  0  0  0  0  0  0  0  0
   -6.5806   25.9412  -29.5078 H   0  0  0  0  0  0  0  0  0  0  0  0
   -8.2796   24.2178  -30.1390 H   0  0  0  0  0  0  0  0  0  0  0  0
  1  2  1  0
  2  3  2  0
  3  4  1  0
  4  5  1  0
  5  6  2  0
  6  7  1  0
  7  8  2  0
  8  9  1  0
  4 10  2  0
 10 11  1  0
 11 12  2  0
 12 13  1  0
 13 14  2  0
 14 15  1  0
 15 16  2  0
 16  2  1  0
  9  5  1  0
 16 11  1  0
  1 17  1  0
  1 18  1  0
  1 19  1  0
  3 20  1  0
  6 21  1  0
  7 22  1  0
  8 23  1  0
 13 24  1  0
 14 25  1  0
 15 26  1  0
M  END
>  <UniqueID>  (25) 
24

>  <SMILES>  (25) 
Cc1cc(-c2cccs2)nc2ncccc12

>  <Energy>  (25) 
60.70363725638872

>  <Genealogy>  (25) 
Cc1cc(-c2cccs2)nc2ncccc12 (3D coordinates assigned)
Cc1cc(-c2cccs2)nc2ncccc12 (optimized conformer: 60.70363725638872 kcal/mol)

>  <smiles>  (25) 
Cc1cc(-c2cccs2)nc2ncccc12

>  <score_type>  (25) 
oracle

>  <origin>  (25) 
adgpu

>  <m_score__min__energy>  (25) 
-7.1299999999999999

>  <m_primary>  (25) 
energy

$$$$
25:0
     RDKit          3D

 37 39  0  0  0  0  0  0  0  0999 V2000
   -2.5130   24.9600  -29.3200 N   0  0  0  0  0  0  0  0  0  0  0  0
   -1.9560   23.6560  -29.1070 C   0  0  0  0  0  0  0  0  0  0  0  0
   -0.8910   23.5020  -28.2080 C   0  0  0  0  0  0  0  0  0  0  0  0
   -0.3970   22.2300  -27.9190 C   0  0  0  0  0  0  0  0  0  0  0  0
   -0.9670   21.1170  -28.5370 C   0  0  0  0  0  0  0  0  0  0  0  0
   -1.9890   21.2790  -29.4180 N   0  0  0  0  0  0  0  0  0  0  0  0
   -2.4930   22.5070  -29.7280 C   0  0  0  0  0  0  0  0  0  0  0  0
   -3.5590   22.6000  -30.6840 N   0  0  0  0  0  0  0  0  0  0  0  0
   -3.3900   22.0540  -32.0390 C   0  0  0  0  0  0  0  0  0  0  0  0
   -4.5750   21.1430  -32.3930 C   0  0  0  0  0  0  0  0  0  0  0  0
   -5.8600   21.7480  -32.0010 N   0  0  0  0  0  0  0  0  0  0  0  0
   -7.0750   20.9940  -32.1550 C   0  0  0  0  0  0  0  0  0  0  0  0
   -7.0310   19.6380  -32.5240 C   0  0  0  0  0  0  0  0  0  0  0  0
   -8.2150   18.9060  -32.6640 C   0  0  0  0  0  0  0  0  0  0  0  0
   -9.4500   19.5190  -32.4330 C   0  0  0  0  0  0  0  0  0  0  0  0
   -9.5040   20.8640  -32.0560 C   0  0  0  0  0  0  0  0  0  0  0  0
   -8.3230   21.6000  -31.9170 C   0  0  0  0  0  0  0  0  0  0  0  0
   -5.8810   23.0800  -31.3820 C   0  0  0  0  0  0  0  0  0  0  0  0
   -4.8560   23.1310  -30.2470 C   0  0  0  0  0  0  0  0  0  0  0  0
   -3.4040   25.2570  -28.8640 H   0  0  0  0  0  0  0  0  0  0  0  0
   -1.9870   25.6780  -29.8670 H   0  0  0  0  0  0  0  0  0  0  0  0
   -0.4442   24.3861  -27.7297 H   0  0  0  0  0  0  0  0  0  0  0  0
    0.4348   22.1057  -27.2100 H   0  0  0  0  0  0  0  0  0  0  0  0
   -0.5895   20.1087  -28.3114 H   0  0  0  0  0  0  0  0  0  0  0  0
   -3.3394   22.8822  -32.7612 H   0  0  0  0  0  0  0  0  0  0  0  0
   -2.4607   21.4667  -32.0770 H   0  0  0  0  0  0  0  0  0  0  0  0
   -4.5791   20.9684  -33.4791 H   0  0  0  0  0  0  0  0  0  0  0  0
   -4.4581   20.1972  -31.8436 H   0  0  0  0  0  0  0  0  0  0  0  0
   -6.0614   19.1505  -32.7034 H   0  0  0  0  0  0  0  0  0  0  0  0
   -8.1741   17.8463  -32.9563 H   0  0  0  0  0  0  0  0  0  0  0  0
  -10.3798   18.9426  -32.5480 H   0  0  0  0  0  0  0  0  0  0  0  0
  -10.4760   21.3437  -31.8686 H   0  0  0  0  0  0  0  0  0  0  0  0
   -8.3696   22.6581  -31.6201 H   0  0  0  0  0  0  0  0  0  0  0  0
   -5.6299   23.8393  -32.1372 H   0  0  0  0  0  0  0  0  0  0  0  0
   -6.8846   23.2814  -30.9792 H   0  0  0  0  0  0  0  0  0  0  0  0
   -4.7272   24.1751  -29.9255 H   0  0  0  0  0  0  0  0  0  0  0  0
   -5.2245   22.5136  -29.4145 H   0  0  0  0  0  0  0  0  0  0  0  0
  1  2  1  0
  2  3  2  0
  3  4  1  0
  4  5  2  0
  5  6  1  0
  6  7  2  0
  7  8  1  0
  8  9  1  0
  9 10  1  0
 10 11  1  0
 11 12  1  0
 12 13  2  0
 13 14  1  0
 14 15  2  0
 15 16  1  0
 16 17  2  0
 11 18  1  0
 18 19  1  0
  7  2  1  0
 19  8  1  0
 17 12  1  0
  1 20  1  0
  1 21  1  0
  3 22  1  0
  4 23  1  0
  5 24  1  0
  9 25  1  0
  9 26  1  0
 10 27  1  0
 10 28  1  0
 13 29  1  0
 14 30  1  0
 15 31  1  0
 16 32  1  0
 17 33  1  0
 18 34  1  0
 18 35  1  0
 19 36  1  0
 19 37  1  0
M  END
>  <UniqueID>  (26) 
25

>  <SMILES>  (26) 
Nc1cccnc1N1CCN(c2ccccc2)CC1

>  <Energy>  (26) 
49.078310819165914

>  <Genealogy>  (26) 
Nc1cccnc1N1CCN(c2ccccc2)CC1 (3D coordinates assigned)
Nc1cccnc1N1CCN(c2ccccc2)CC1 (nonaromatic ring conformer: 49.078310819165914 kcal/mol)

>  <smiles>  (26) 
Nc1cccnc1N1CCN(c2ccccc2)CC1

>  <score_type>  (26) 
oracle

>  <origin>  (26) 
adgpu

>  <m_score__min__energy>  (26) 
-7.21

>  <m_primary>  (26) 
energy

$$$$
26:0
     RDKit          3D

 42 44  0  0  0  0  0  0  0  0999 V2000
   -7.3560   22.7240  -32.0230 C   0  0  0  0  0  0  0  0  0  0  0  0
   -7.1310   23.7050  -31.0170 O   0  0  0  0  0  0  0  0  0  0  0  0
   -5.8530   24.0410  -30.5610 C   0  0  0  0  0  0  0  0  0  0  0  0
   -5.3460   23.4320  -29.4150 C   0  0  0  0  0  0  0  0  0  0  0  0
   -4.0710   23.7730  -28.9670 C   0  0  0  0  0  0  0  0  0  0  0  0
   -3.3210   24.7240  -29.6820 C   0  0  0  0  0  0  0  0  0  0  0  0
   -2.1230   25.0890  -29.3280 N   0  0  0  0  0  0  0  0  0  0  0  0
   -1.2240   24.5000  -27.9610 S   0  0  0  0  0  0  0  0  0  0  0  0
    0.1150   25.1820  -27.9260 O   0  0  0  0  0  0  0  0  0  0  0  0
   -1.9730   24.8300  -26.7010 O   0  0  0  0  0  0  0  0  0  0  0  0
   -0.9720   22.7620  -28.1010 C   0  0  0  0  0  0  0  0  0  0  0  0
   -1.1400   22.1190  -29.3330 C   0  0  0  0  0  0  0  0  0  0  0  0
   -0.9300   20.7410  -29.4420 C   0  0  0  0  0  0  0  0  0  0  0  0
   -0.5380   19.9910  -28.3190 C   0  0  0  0  0  0  0  0  0  0  0  0
   -0.3390   18.5690  -28.3970 N   0  0  0  0  0  0  0  0  0  0  0  0
    0.8870   17.9100  -28.0250 C   0  0  0  0  0  0  0  0  0  0  0  0
    1.8290   18.5750  -27.5140 O   0  0  0  0  0  0  0  0  0  0  0  0
    1.0670   16.4510  -28.2240 C   0  0  0  0  0  0  0  0  0  0  0  0
    1.0830   15.9220  -29.5270 C   0  0  0  0  0  0  0  0  0  0  0  0
    1.2550   14.5500  -29.7350 C   0  0  0  0  0  0  0  0  0  0  0  0
    1.4230   13.6910  -28.6460 C   0  0  0  0  0  0  0  0  0  0  0  0
    1.6410   11.9710  -28.9080 Cl  0  0  0  0  0  0  0  0  0  0  0  0
    1.4220   14.2070  -27.3460 C   0  0  0  0  0  0  0  0  0  0  0  0
    1.2490   15.5780  -27.1340 C   0  0  0  0  0  0  0  0  0  0  0  0
   -0.4020   20.6370  -27.0810 C   0  0  0  0  0  0  0  0  0  0  0  0
   -0.6110   22.0150  -26.9730 C   0  0  0  0  0  0  0  0  0  0  0  0
   -3.8710   25.2850  -30.7920 N   0  0  0  0  0  0  0  0  0  0  0  0
   -5.0920   24.9580  -31.2190 N   0  0  0  0  0  0  0  0  0  0  0  0
   -7.5779   21.7566  -31.5487 H   0  0  0  0  0  0  0  0  0  0  0  0
   -8.2074   23.0293  -32.6490 H   0  0  0  0  0  0  0  0  0  0  0  0
   -6.4566   22.6277  -32.6490 H   0  0  0  0  0  0  0  0  0  0  0  0
   -5.9462   22.6892  -28.8691 H   0  0  0  0  0  0  0  0  0  0  0  0
   -3.6555   23.3031  -28.0634 H   0  0  0  0  0  0  0  0  0  0  0  0
   -1.4382   22.6998  -30.2183 H   0  0  0  0  0  0  0  0  0  0  0  0
   -1.0722   20.2409  -30.4114 H   0  0  0  0  0  0  0  0  0  0  0  0
   -1.1570   17.9950  -28.6950 H   0  0  0  0  0  0  0  0  0  0  0  0
    0.9592   16.5931  -30.3897 H   0  0  0  0  0  0  0  0  0  0  0  0
    1.2580   14.1461  -30.7582 H   0  0  0  0  0  0  0  0  0  0  0  0
    1.5577   13.5322  -26.4880 H   0  0  0  0  0  0  0  0  0  0  0  0
    1.2551   15.9775  -26.1091 H   0  0  0  0  0  0  0  0  0  0  0  0
   -0.1288   20.0548  -26.1886 H   0  0  0  0  0  0  0  0  0  0  0  0
   -0.4916   22.5136  -25.9998 H   0  0  0  0  0  0  0  0  0  0  0  0
  1  2  1  0
  2  3  1  0
  3  4  1  0
  4  5  2  0
  5  6  1  0
  6  7  2  3
  7  8  1  0
  8  9  2  0
  8 10  2  0
  8 11  1  0
 11 12  2  0
 12 13  1  0
 13 14  2  0
 14 15  1  0
 15 16  1  0
 16 17  2  0
 16 18  1  0
 18 19  2  0
 19 20  1  0
 20 21  2  0
 21 22  1  0
 21 23  1  0
 23 24  2  0
 14 25  1  0
 25 26  2  0
  6 27  1  0
 27 28  1  0
 28  3  2  0
 26 11  1  0
 24 18  1  0
  1 29  1  0
  1 30  1  0
  1 31  1  0
  4 32  1  0
  5 33  1  0
 12 34  1  0
 13 35  1  0
 15 36  1  0
 19 37  1  0
 20 38  1  0
 23 39  1  0
 24 40  1  0
 25 41  1  0
 26 42  1  0
M  CHG  1  27  -1
M  END
>  <UniqueID>  (27) 
26

>  <SMILES>  (27) 
COc1ccc(=NS(=O)(=O)c2ccc(NC(=O)c3ccc(Cl)cc3)cc2)[n-]n1

>  <Energy>  (27) 
55.93019843953754

>  <Genealogy>  (27) 
COc1ccc(=NS(=O)(=O)c2ccc(NC(=O)c3ccc(Cl)cc3)cc2)[n-]n1 (protonated)
COc1ccc(=NS(=O)(=O)c2ccc(NC(=O)c3ccc(Cl)cc3)cc2)[n-]n1 (3D coordinates assigned)
COc1ccc(=NS(=O)(=O)c2ccc(NC(=O)c3ccc(Cl)cc3)cc2)[n-]n1 (optimized conformer: 55.93019843953754 kcal/mol)

>  <smiles>  (27) 
COc1ccc(=NS(=O)(=O)c2ccc(NC(=O)c3ccc(Cl)cc3)cc2)[nH]n1

>  <score_type>  (27) 
oracle

>  <origin>  (27) 
adgpu

>  <m_score__min__energy>  (27) 
-9.8300000000000001

>  <m_primary>  (27) 
energy

$$$$
27:0
     RDKit          3D

 51 54  0  0  0  0  0  0  0  0999 V2000
   -2.7830   14.1070  -32.4510 C   0  0  0  0  0  0  0  0  0  0  0  0
   -1.8980   15.1690  -32.7840 O   0  0  0  0  0  0  0  0  0  0  0  0
   -2.3470   16.4480  -33.1200 C   0  0  0  0  0  0  0  0  0  0  0  0
   -1.5000   17.3650  -33.6590 N   0  0  0  0  0  0  0  0  0  0  0  0
   -1.9460   18.6070  -33.9840 C   0  0  0  0  0  0  0  0  0  0  0  0
   -1.0210   19.6070  -34.5720 C   0  0  0  0  0  0  0  0  0  0  0  0
   -0.1120   19.2370  -35.5800 C   0  0  0  0  0  0  0  0  0  0  0  0
    0.7610   20.1800  -36.1320 C   0  0  0  0  0  0  0  0  0  0  0  0
    0.7550   21.5020  -35.6760 C   0  0  0  0  0  0  0  0  0  0  0  0
    1.6410   22.4510  -36.2860 N   0  0  0  0  0  0  0  0  0  0  0  0
    1.3840   23.8510  -36.4510 C   0  0  0  0  0  0  0  0  0  0  0  0
    2.3230   24.5930  -36.8450 O   0  0  0  0  0  0  0  0  0  0  0  0
    0.0930   24.4050  -36.1440 N   0  0  0  0  0  0  0  0  0  0  0  0
   -0.2510   25.7910  -36.3150 C   0  0  0  0  0  0  0  0  0  0  0  0
   -1.2200   26.1440  -37.2670 C   0  0  0  0  0  0  0  0  0  0  0  0
   -1.5890   27.4800  -37.4390 C   0  0  0  0  0  0  0  0  0  0  0  0
   -1.0060   28.4740  -36.6500 C   0  0  0  0  0  0  0  0  0  0  0  0
   -0.0590   28.1320  -35.6800 C   0  0  0  0  0  0  0  0  0  0  0  0
    0.6510   29.3780  -34.6700 Cl  0  0  0  0  0  0  0  0  0  0  0  0
    0.3130   26.7930  -35.5060 C   0  0  0  0  0  0  0  0  0  0  0  0
   -0.1680   21.8870  -34.6910 C   0  0  0  0  0  0  0  0  0  0  0  0
   -1.0420   20.9460  -34.1370 C   0  0  0  0  0  0  0  0  0  0  0  0
   -3.2490   18.9230  -33.7630 N   0  0  0  0  0  0  0  0  0  0  0  0
   -4.1060   18.0160  -33.2230 C   0  0  0  0  0  0  0  0  0  0  0  0
   -5.4880   18.3630  -32.9930 N   0  0  0  0  0  0  0  0  0  0  0  0
   -6.3690   17.4240  -32.2850 C   0  0  0  0  0  0  0  0  0  0  0  0
   -7.5610   18.1650  -31.6700 C   0  0  0  0  0  0  0  0  0  0  0  0
   -8.1980   18.9790  -32.6340 O   0  0  0  0  0  0  0  0  0  0  0  0
   -7.3200   20.0140  -33.0300 C   0  0  0  0  0  0  0  0  0  0  0  0
   -6.1070   19.4460  -33.7710 C   0  0  0  0  0  0  0  0  0  0  0  0
   -3.6440   16.7770  -32.9040 N   0  0  0  0  0  0  0  0  0  0  0  0
   -2.8557   14.0197  -31.3569 H   0  0  0  0  0  0  0  0  0  0  0  0
   -3.7789   14.3148  -32.8693 H   0  0  0  0  0  0  0  0  0  0  0  0
   -2.3990   13.1649  -32.8693 H   0  0  0  0  0  0  0  0  0  0  0  0
   -0.0877   18.1969  -35.9371 H   0  0  0  0  0  0  0  0  0  0  0  0
    1.4565   19.8800  -36.9296 H   0  0  0  0  0  0  0  0  0  0  0  0
   -0.6700   23.7580  -35.8440 H   0  0  0  0  0  0  0  0  0  0  0  0
   -1.6919   25.3633  -37.8817 H   0  0  0  0  0  0  0  0  0  0  0  0
   -2.3395   27.7496  -38.1966 H   0  0  0  0  0  0  0  0  0  0  0  0
   -1.2921   29.5266  -36.7918 H   0  0  0  0  0  0  0  0  0  0  0  0
    1.0489   26.5244  -34.7338 H   0  0  0  0  0  0  0  0  0  0  0  0
   -0.2041   22.9333  -34.3534 H   0  0  0  0  0  0  0  0  0  0  0  0
   -1.7515   21.2545  -33.3551 H   0  0  0  0  0  0  0  0  0  0  0  0
   -6.7391   16.6697  -32.9950 H   0  0  0  0  0  0  0  0  0  0  0  0
   -5.7978   16.9393  -31.4795 H   0  0  0  0  0  0  0  0  0  0  0  0
   -8.2830   17.4298  -31.2851 H   0  0  0  0  0  0  0  0  0  0  0  0
   -7.1949   18.8057  -30.8542 H   0  0  0  0  0  0  0  0  0  0  0  0
   -7.8564   20.7069  -33.6949 H   0  0  0  0  0  0  0  0  0  0  0  0
   -6.9682   20.5405  -32.1305 H   0  0  0  0  0  0  0  0  0  0  0  0
   -6.4304   19.0521  -34.7458 H   0  0  0  0  0  0  0  0  0  0  0  0
   -5.3687   20.2491  -33.9120 H   0  0  0  0  0  0  0  0  0  0  0  0
  1  2  1  0
  2  3  1  0
  3  4  2  0
  4  5  1  0
  5  6  1  0
  6  7  2  0
  7  8  1  0
  8  9  2  0
  9 10  1  0
 10 11  1  0
 11 12  2  0
 11 13  1  0
 13 14  1  0
 14 15  2  0
 15 16  1  0
 16 17  2  0
 17 18  1  0
 18 19  1  0
 18 20  2  0
  9 21  1  0
 21 22  2  0
  5 23  2  0
 23 24  1  0
 24 25  1  0
 25 26  1  0
 26 27  1  0
 27 28  1  0
 28 29  1  0
 29 30  1  0
 24 31  2  0
 31  3  1  0
 22  6  1  0
 30 25  1  0
 20 14  1  0
  1 32  1  0
  1 33  1  0
  1 34  1  0
  7 35  1  0
  8 36  1  0
 13 37  1  0
 15 38  1  0
 16 39  1  0
 17 40  1  0
 20 41  1  0
 21 42  1  0
 22 43  1  0
 26 44  1  0
 26 45  1  0
 27 46  1  0
 27 47  1  0
 29 48  1  0
 29 49  1  0
 30 50  1  0
 30 51  1  0
M  CHG  1  10  -1
M  END
>  <UniqueID>  (28) 
27

>  <SMILES>  (28) 
COc1nc(-c2ccc([N-]C(=O)Nc3cccc(Cl)c3)cc2)nc(N2CCOCC2)n1

>  <Energy>  (28) 
64.12265399205174

>  <Genealogy>  (28) 
COc1nc(-c2ccc([N-]C(=O)Nc3cccc(Cl)c3)cc2)nc(N2CCOCC2)n1 (protonated)
COc1nc(-c2ccc([N-]C(=O)Nc3cccc(Cl)c3)cc2)nc(N2CCOCC2)n1 (3D coordinates assigned)
COc1nc(-c2ccc([N-]C(=O)Nc3cccc(Cl)c3)cc2)nc(N2CCOCC2)n1 (nonaromatic ring conformer: 64.12265399205174 kcal/mol)

>  <smiles>  (28) 
COc1nc(-c2ccc(NC(=O)Nc3cccc(Cl)c3)cc2)nc(N2CCOCC2)n1

>  <score_type>  (28) 
oracle

>  <origin>  (28) 
adgpu

>  <m_score__min__energy>  (28) 
-9.0899999999999999

>  <m_primary>  (28) 
energy

$$$$
28:0
     RDKit          3D

 33 35  0  0  0  0  0  0  0  0999 V2000
   -4.5900   24.5900  -31.1750 O   0  0  0  0  0  0  0  0  0  0  0  0
   -5.0800   23.6780  -30.4550 C   0  0  0  0  0  0  0  0  0  0  0  0
   -4.5380   23.4240  -29.1470 N   0  0  0  0  0  0  0  0  0  0  0  0
   -3.2680   23.9250  -28.6950 C   0  0  0  0  0  0  0  0  0  0  0  0
   -2.0990   23.7490  -29.4570 C   0  0  0  0  0  0  0  0  0  0  0  0
   -0.8710   24.2090  -28.9770 C   0  0  0  0  0  0  0  0  0  0  0  0
   -0.7920   24.8430  -27.7360 C   0  0  0  0  0  0  0  0  0  0  0  0
   -1.9500   25.0330  -26.9610 C   0  0  0  0  0  0  0  0  0  0  0  0
   -1.8590   25.6620  -25.5930 C   0  0  0  0  0  0  0  0  0  0  0  0
   -1.0970   26.8180  -25.6360 F   0  0  0  0  0  0  0  0  0  0  0  0
   -1.2720   24.7670  -24.7190 F   0  0  0  0  0  0  0  0  0  0  0  0
   -3.1180   25.9930  -25.1240 F   0  0  0  0  0  0  0  0  0  0  0  0
   -3.1780   24.5420  -27.4370 C   0  0  0  0  0  0  0  0  0  0  0  0
   -6.2380   22.9000  -30.9460 C   0  0  0  0  0  0  0  0  0  0  0  0
   -7.4800   23.5120  -31.1880 C   0  0  0  0  0  0  0  0  0  0  0  0
   -8.5220   22.7670  -31.6440 N   0  0  0  0  0  0  0  0  0  0  0  0
   -8.3870   21.4360  -31.8750 C   0  0  0  0  0  0  0  0  0  0  0  0
   -9.4670   20.6790  -32.3450 C   0  0  0  0  0  0  0  0  0  0  0  0
   -9.3070   19.3090  -32.5770 C   0  0  0  0  0  0  0  0  0  0  0  0
   -8.0710   18.6930  -32.3390 C   0  0  0  0  0  0  0  0  0  0  0  0
   -6.9890   19.4450  -31.8690 C   0  0  0  0  0  0  0  0  0  0  0  0
   -7.1440   20.8160  -31.6370 C   0  0  0  0  0  0  0  0  0  0  0  0
   -6.1060   21.5640  -31.1800 N   0  0  0  0  0  0  0  0  0  0  0  0
   -5.1370   22.9250  -28.4520 H   0  0  0  0  0  0  0  0  0  0  0  0
   -2.1522   23.2473  -30.4345 H   0  0  0  0  0  0  0  0  0  0  0  0
    0.0386   24.0710  -29.5799 H   0  0  0  0  0  0  0  0  0  0  0  0
    0.1807   25.1957  -27.3624 H   0  0  0  0  0  0  0  0  0  0  0  0
   -4.0803   24.6424  -26.8159 H   0  0  0  0  0  0  0  0  0  0  0  0
   -7.6085   24.5897  -31.0091 H   0  0  0  0  0  0  0  0  0  0  0  0
  -10.4384   21.1603  -32.5312 H   0  0  0  0  0  0  0  0  0  0  0  0
  -10.1542   18.7131  -32.9475 H   0  0  0  0  0  0  0  0  0  0  0  0
   -7.9512   17.6150  -32.5223 H   0  0  0  0  0  0  0  0  0  0  0  0
   -6.0195   18.9600  -31.6824 H   0  0  0  0  0  0  0  0  0  0  0  0
  1  2  2  0
  2  3  1  0
  3  4  1  0
  4  5  2  0
  5  6  1  0
  6  7  2  0
  7  8  1  0
  8  9  1  0
  9 10  1  0
  9 11  1  0
  9 12  1  0
  8 13  2  0
  2 14  1  0
 14 15  2  0
 15 16  1  0
 16 17  2  0
 17 18  1  0
 18 19  2  0
 19 20  1  0
 20 21  2  0
 21 22  1  0
 22 23  2  0
 13  4  1  0
 23 14  1  0
 22 17  1  0
  3 24  1  0
  5 25  1  0
  6 26  1  0
  7 27  1  0
 13 28  1  0
 15 29  1  0
 18 30  1  0
 19 31  1  0
 20 32  1  0
 21 33  1  0
M  END
>  <UniqueID>  (29) 
28

>  <SMILES>  (29) 
O=C(Nc1cccc(C(F)(F)F)c1)c1cnc2ccccc2n1

>  <Energy>  (29) 
43.96661147479016

>  <Genealogy>  (29) 
O=C(Nc1cccc(C(F)(F)F)c1)c1cnc2ccccc2n1 (3D coordinates assigned)
O=C(Nc1cccc(C(F)(F)F)c1)c1cnc2ccccc2n1 (optimized conformer: 43.96661147479016 kcal/mol)

>  <smiles>  (29) 
O=C(Nc1cccc(C(F)(F)F)c1)c1cnc2ccccc2n1

>  <score_type>  (29) 
oracle

>  <origin>  (29) 
adgpu

>  <m_score__min__energy>  (29) 
-7.4800000000000004

>  <m_primary>  (29) 
energy

$$$$
29:0
     RDKit          3D

 35 37  0  0  0  0  0  0  0  0999 V2000
   -0.8950   26.2270  -24.5380 C   0  0  0  0  0  0  0  0  0  0  0  0
   -0.6630   25.2720  -25.5690 O   0  0  0  0  0  0  0  0  0  0  0  0
   -1.5780   24.9660  -26.5890 C   0  0  0  0  0  0  0  0  0  0  0  0
   -2.9570   24.8380  -26.3420 C   0  0  0  0  0  0  0  0  0  0  0  0
   -3.8370   24.5330  -27.3810 C   0  0  0  0  0  0  0  0  0  0  0  0
   -3.3580   24.3490  -28.6870 C   0  0  0  0  0  0  0  0  0  0  0  0
   -4.2920   24.0250  -29.7880 C   0  0  0  0  0  0  0  0  0  0  0  0
   -4.4880   24.8100  -30.8650 N   0  0  0  0  0  0  0  0  0  0  0  0
   -5.3690   24.1810  -31.5810 O   0  0  0  0  0  0  0  0  0  0  0  0
   -5.7100   23.0600  -30.9910 C   0  0  0  0  0  0  0  0  0  0  0  0
   -6.7000   22.1020  -31.5470 C   0  0  0  0  0  0  0  0  0  0  0  0
   -8.0480   22.2460  -31.1680 C   0  0  0  0  0  0  0  0  0  0  0  0
   -9.0260   21.3770  -31.6570 C   0  0  0  0  0  0  0  0  0  0  0  0
   -8.6750   20.3510  -32.5320 C   0  0  0  0  0  0  0  0  0  0  0  0
   -7.3450   20.1900  -32.9210 C   0  0  0  0  0  0  0  0  0  0  0  0
   -6.3510   21.0530  -32.4390 C   0  0  0  0  0  0  0  0  0  0  0  0
   -4.7040   20.7610  -32.9920 Cl  0  0  0  0  0  0  0  0  0  0  0  0
   -5.0460   22.9070  -29.8280 N   0  0  0  0  0  0  0  0  0  0  0  0
   -1.9820   24.4760  -28.9350 C   0  0  0  0  0  0  0  0  0  0  0  0
   -1.0880   24.7840  -27.8910 C   0  0  0  0  0  0  0  0  0  0  0  0
    0.2930   24.9180  -28.1070 O   0  0  0  0  0  0  0  0  0  0  0  0
    1.2910   24.1280  -27.4700 C   0  0  0  0  0  0  0  0  0  0  0  0
   -0.7775   25.7434  -23.5570 H   0  0  0  0  0  0  0  0  0  0  0  0
   -0.1706   27.0496  -24.6304 H   0  0  0  0  0  0  0  0  0  0  0  0
   -1.9161   26.6256  -24.6304 H   0  0  0  0  0  0  0  0  0  0  0  0
   -3.3444   24.9794  -25.3222 H   0  0  0  0  0  0  0  0  0  0  0  0
   -4.9132   24.4362  -27.1749 H   0  0  0  0  0  0  0  0  0  0  0  0
   -8.3348   23.0532  -30.4779 H   0  0  0  0  0  0  0  0  0  0  0  0
  -10.0750   21.5028  -31.3509 H   0  0  0  0  0  0  0  0  0  0  0  0
   -9.4468   19.6678  -32.9161 H   0  0  0  0  0  0  0  0  0  0  0  0
   -7.0738   19.3785  -33.6123 H   0  0  0  0  0  0  0  0  0  0  0  0
   -1.5978   24.3334  -29.9558 H   0  0  0  0  0  0  0  0  0  0  0  0
    1.1842   24.2126  -26.3785 H   0  0  0  0  0  0  0  0  0  0  0  0
    1.1726   23.0762  -27.7696 H   0  0  0  0  0  0  0  0  0  0  0  0
    2.2875   24.4847  -27.7696 H   0  0  0  0  0  0  0  0  0  0  0  0
  1  2  1  0
  2  3  1  0
  3  4  2  0
  4  5  1  0
  5  6  2  0
  6  7  1  0
  7  8  2  0
  8  9  1  0
  9 10  1  0
 10 11  1  0
 11 12  2  0
 12 13  1  0
 13 14  2  0
 14 15  1  0
 15 16  2  0
 16 17  1  0
 10 18  2  0
  6 19  1  0
 19 20  2  0
 20 21  1  0
 21 22  1  0
 20  3  1  0
 18  7  1  0
 16 11  1  0
  1 23  1  0
  1 24  1  0
  1 25  1  0
  4 26  1  0
  5 27  1  0
 12 28  1  0
 13 29  1  0
 14 30  1  0
 15 31  1  0
 19 32  1  0
 22 33  1  0
 22 34  1  0
 22 35  1  0
M  END
>  <UniqueID>  (30) 
29

>  <SMILES>  (30) 
COc1ccc(-c2noc(-c3ccccc3Cl)n2)cc1OC

>  <Energy>  (30) 
73.54158382189657

>  <Genealogy>  (30) 
COc1ccc(-c2noc(-c3ccccc3Cl)n2)cc1OC (3D coordinates assigned)
COc1ccc(-c2noc(-c3ccccc3Cl)n2)cc1OC (optimized conformer: 73.54158382189657 kcal/mol)

>  <smiles>  (30) 
COc1ccc(-c2noc(-c3ccccc3Cl)n2)cc1OC

>  <score_type>  (30) 
oracle

>  <origin>  (30) 
adgpu

>  <m_score__min__energy>  (30) 
-8.2899999999999991

>  <m_primary>  (30) 
energy

$$$$
30:0
     RDKit          3D

 34 36  0  0  0  0  0  0  0  0999 V2000
   -1.9950   22.1430  -34.1930 H   0  0  0  0  0  0  0  0  0  0  0  0
   -2.4000   21.9170  -33.2930 O   0  0  0  0  0  0  0  0  0  0  0  0
   -3.6040   21.2240  -33.1980 C   0  0  0  0  0  0  0  0  0  0  0  0
   -4.8050   21.7610  -32.7620 C   0  0  0  0  0  0  0  0  0  0  0  0
   -4.9940   23.1120  -32.3250 N   0  0  0  0  0  0  0  0  0  0  0  0
   -4.7560   23.4780  -31.1320 N   0  0  0  0  0  0  0  0  0  0  0  0
   -4.9490   24.8300  -30.7130 C   0  0  0  0  0  0  0  0  0  0  0  0
   -4.0060   25.6550  -30.8460 O   0  0  0  0  0  0  0  0  0  0  0  0
   -6.2470   25.2810  -30.1190 C   0  0  0  0  0  0  0  0  0  0  0  0
   -6.1762   25.2564  -29.0216 H   0  0  0  0  0  0  0  0  0  0  0  0
   -6.4645   26.3074  -30.4495 H   0  0  0  0  0  0  0  0  0  0  0  0
   -7.0541   24.6106  -30.4495 H   0  0  0  0  0  0  0  0  0  0  0  0
   -5.7360   20.7360  -32.8420 C   0  0  0  0  0  0  0  0  0  0  0  0
   -7.0950   20.6800  -32.5200 C   0  0  0  0  0  0  0  0  0  0  0  0
   -7.6255   21.5677  -32.1450 H   0  0  0  0  0  0  0  0  0  0  0  0
   -7.7640   19.4540  -32.6900 C   0  0  0  0  0  0  0  0  0  0  0  0
   -9.4700   19.3320  -32.3000 Cl  0  0  0  0  0  0  0  0  0  0  0  0
   -7.0690   18.3200  -33.1610 C   0  0  0  0  0  0  0  0  0  0  0  0
   -7.6017   17.3653  -33.2824 H   0  0  0  0  0  0  0  0  0  0  0  0
   -5.7030   18.4000  -33.4760 C   0  0  0  0  0  0  0  0  0  0  0  0
   -5.1540   17.5176  -33.8366 H   0  0  0  0  0  0  0  0  0  0  0  0
   -5.0590   19.6320  -33.3190 C   0  0  0  0  0  0  0  0  0  0  0  0
   -3.7560   19.9230  -33.5420 N   0  0  0  0  0  0  0  0  0  0  0  0
   -2.7310   19.0530  -34.0510 C   0  0  0  0  0  0  0  0  0  0  0  0
   -3.0340   17.7240  -34.3870 C   0  0  0  0  0  0  0  0  0  0  0  0
   -4.0615   17.3497  -34.2683 H   0  0  0  0  0  0  0  0  0  0  0  0
   -2.0350   16.8740  -34.8720 C   0  0  0  0  0  0  0  0  0  0  0  0
   -2.2792   15.8350  -35.1381 H   0  0  0  0  0  0  0  0  0  0  0  0
   -0.7270   17.3430  -35.0190 C   0  0  0  0  0  0  0  0  0  0  0  0
    0.0569   16.6741  -35.4038 H   0  0  0  0  0  0  0  0  0  0  0  0
   -0.4140   18.6630  -34.6770 C   0  0  0  0  0  0  0  0  0  0  0  0
    1.2310   19.2470  -34.8520 Cl  0  0  0  0  0  0  0  0  0  0  0  0
   -1.4110   19.5150  -34.1910 C   0  0  0  0  0  0  0  0  0  0  0  0
   -1.1611   20.5507  -33.9173 H   0  0  0  0  0  0  0  0  0  0  0  0
  1  2  1  0
  2  3  1  0
  3  4  2  0
  4  5  1  0
  5  6  2  0
  6  7  1  0
  7  8  2  0
  7  9  1  0
  9 10  1  0
  9 11  1  0
  9 12  1  0
  4 13  1  0
 13 14  2  0
 14 15  1  0
 14 16  1  0
 16 17  1  0
 16 18  2  0
 18 19  1  0
 18 20  1  0
 20 21  1  0
 20 22  2  0
 22 23  1  0
 23 24  1  0
 24 25  2  0
 25 26  1  0
 25 27  1  0
 27 28  1  0
 27 29  2  0
 29 30  1  0
 29 31  1  0
 31 32  1  0
 31 33  2  0
 33 34  1  0
 23  3  1  0
 33 24  1  0
 22 13  1  0
M  END
>  <UniqueID>  (31) 
30

>  <SMILES>  (31) 
CC(=O)/N=N/c1c(O)n(-c2cccc(Cl)c2)c2ccc(Cl)cc12

>  <Energy>  (31) 
75.9895800242414

>  <Genealogy>  (31) 
CC(=O)/N=N/c1c(O)n(-c2cccc(Cl)c2)c2ccc(Cl)cc12 (cis-trans isomerization)
CC(=O)/N=N/c1c(O)n(-c2cccc(Cl)c2)c2ccc(Cl)cc12 (3D coordinates assigned)
CC(=O)/N=N/c1c(O)n(-c2cccc(Cl)c2)c2ccc(Cl)cc12 (optimized conformer: 75.9895800242414 kcal/mol)

>  <smiles>  (31) 
CC(=O)N=Nc1c(O)n(-c2cccc(Cl)c2)c2ccc(Cl)cc12

>  <score_type>  (31) 
oracle

>  <origin>  (31) 
adgpu

>  <m_score__min__energy>  (31) 
-8.7200000000000006

>  <m_primary>  (31) 
energy

$$$$
31:0
     RDKit          3D

 42 45  0  0  0  0  0  0  0  0999 V2000
   -4.4660   20.1680  -32.3260 H   0  0  0  0  0  0  0  0  0  0  0  0
   -4.7710   21.0710  -31.9010 N   0  0  0  0  0  0  0  0  0  0  0  0
   -6.0040   21.4830  -31.8390 C   0  0  0  0  0  0  0  0  0  0  0  0
   -6.2820   22.7460  -31.2580 C   0  0  0  0  0  0  0  0  0  0  0  0
   -5.2180   23.6080  -30.6820 C   0  0  0  0  0  0  0  0  0  0  0  0
   -4.5490   23.3230  -29.5450 N   0  0  0  0  0  0  0  0  0  0  0  0
   -3.7120   24.3780  -29.4470 C   0  0  0  0  0  0  0  0  0  0  0  0
   -2.7370   24.5560  -28.3490 C   0  0  0  0  0  0  0  0  0  0  0  0
   -3.1780   24.7810  -27.0330 C   0  0  0  0  0  0  0  0  0  0  0  0
   -4.2558   24.8243  -26.8175 H   0  0  0  0  0  0  0  0  0  0  0  0
   -2.2550   24.9500  -25.9970 C   0  0  0  0  0  0  0  0  0  0  0  0
   -2.6085   25.1251  -24.9702 H   0  0  0  0  0  0  0  0  0  0  0  0
   -0.8830   24.8970  -26.2630 C   0  0  0  0  0  0  0  0  0  0  0  0
    0.2730   25.1080  -24.9620 Cl  0  0  0  0  0  0  0  0  0  0  0  0
   -0.4350   24.6740  -27.5690 C   0  0  0  0  0  0  0  0  0  0  0  0
    0.6438   24.6316  -27.7795 H   0  0  0  0  0  0  0  0  0  0  0  0
   -1.3550   24.5050  -28.6070 C   0  0  0  0  0  0  0  0  0  0  0  0
   -0.9964   24.3310  -29.6323 H   0  0  0  0  0  0  0  0  0  0  0  0
   -3.8650   25.2480  -30.4650 N   0  0  0  0  0  0  0  0  0  0  0  0
   -4.8030   24.7380  -31.2030 O   0  0  0  0  0  0  0  0  0  0  0  0
   -7.6100   23.1980  -31.2370 C   0  0  0  0  0  0  0  0  0  0  0  0
   -7.8475   24.1760  -30.7929 H   0  0  0  0  0  0  0  0  0  0  0  0
   -8.6260   22.4190  -31.7730 C   0  0  0  0  0  0  0  0  0  0  0  0
   -9.6652   22.7795  -31.7604 H   0  0  0  0  0  0  0  0  0  0  0  0
   -8.3220   21.1800  -32.3260 C   0  0  0  0  0  0  0  0  0  0  0  0
   -9.1271   20.5626  -32.7510 H   0  0  0  0  0  0  0  0  0  0  0  0
   -7.0360   20.7200  -32.3480 N   0  0  0  0  0  0  0  0  0  0  0  0
   -6.8130   19.4120  -32.9070 C   0  0  0  0  0  0  0  0  0  0  0  0
   -7.2800   18.2710  -32.2410 C   0  0  0  0  0  0  0  0  0  0  0  0
   -7.8289   18.3759  -31.2935 H   0  0  0  0  0  0  0  0  0  0  0  0
   -7.0510   17.0000  -32.7760 C   0  0  0  0  0  0  0  0  0  0  0  0
   -7.4237   16.1088  -32.2498 H   0  0  0  0  0  0  0  0  0  0  0  0
   -6.3450   16.8560  -33.9860 C   0  0  0  0  0  0  0  0  0  0  0  0
   -6.0910   15.6030  -34.5640 O   0  0  0  0  0  0  0  0  0  0  0  0
   -6.8410   14.4240  -34.2900 C   0  0  0  0  0  0  0  0  0  0  0  0
   -6.9270   14.2888  -33.2017 H   0  0  0  0  0  0  0  0  0  0  0  0
   -7.8455   14.5183  -34.7283 H   0  0  0  0  0  0  0  0  0  0  0  0
   -6.3299   13.5541  -34.7283 H   0  0  0  0  0  0  0  0  0  0  0  0
   -5.8740   17.9990  -34.6430 C   0  0  0  0  0  0  0  0  0  0  0  0
   -5.3204   17.8963  -35.5880 H   0  0  0  0  0  0  0  0  0  0  0  0
   -6.1020   19.2700  -34.1070 C   0  0  0  0  0  0  0  0  0  0  0  0
   -5.7224   20.1612  -34.6283 H   0  0  0  0  0  0  0  0  0  0  0  0
  1  2  1  0
  2  3  2  0
  3  4  1  0
  4  5  1  0
  5  6  2  0
  6  7  1  0
  7  8  1  0
  8  9  2  0
  9 10  1  0
  9 11  1  0
 11 12  1  0
 11 13  2  0
 13 14  1  0
 13 15  1  0
 15 16  1  0
 15 17  2  0
 17 18  1  0
  7 19  2  0
 19 20  1  0
  4 21  2  0
 21 22  1  0
 21 23  1  0
 23 24  1  0
 23 25  2  0
 25 26  1  0
 25 27  1  0
 27 28  1  0
 28 29  2  0
 29 30  1  0
 29 31  1  0
 31 32  1  0
 31 33  2  0
 33 34  1  0
 34 35  1  0
 35 36  1  0
 35 37  1  0
 35 38  1  0
 33 39  1  0
 39 40  1  0
 39 41  2  0
 41 42  1  0
 27  3  1  0
 41 28  1  0
 20  5  1  0
 17  8  1  0
M  END
>  <UniqueID>  (32) 
31

>  <SMILES>  (32) 
[H]/N=c1/c(-c2nc(-c3ccc(Cl)cc3)no2)cccn1-c1ccc(OC)cc1

>  <Energy>  (32) 
93.29473468529676

>  <Genealogy>  (32) 
[H]/N=c1/c(-c2nc(-c3ccc(Cl)cc3)no2)cccn1-c1ccc(OC)cc1 (cis-trans isomerization)
[H]/N=c1/c(-c2nc(-c3ccc(Cl)cc3)no2)cccn1-c1ccc(OC)cc1 (3D coordinates assigned)
[H]/N=c1/c(-c2nc(-c3ccc(Cl)cc3)no2)cccn1-c1ccc(OC)cc1 (optimized conformer: 93.29473468529676 kcal/mol)

>  <smiles>  (32) 
COc1ccc(-n2cccc(-c3nc(-c4ccc(Cl)cc4)no3)c2=N)cc1

>  <score_type>  (32) 
oracle

>  <origin>  (32) 
adgpu

>  <m_score__min__energy>  (32) 
-9.3900000000000006

>  <m_primary>  (32) 
energy

$$$$
32:0
     RDKit          3D

 37 39  0  0  0  0  0  0  0  0999 V2000
   -1.9410   24.1780  -27.9630 F   0  0  0  0  0  0  0  0  0  0  0  0
   -2.6540   23.8150  -29.0580 C   0  0  0  0  0  0  0  0  0  0  0  0
   -2.1970   22.7810  -29.8780 C   0  0  0  0  0  0  0  0  0  0  0  0
   -2.9330   22.4020  -31.0030 C   0  0  0  0  0  0  0  0  0  0  0  0
   -4.1430   23.0490  -31.3160 C   0  0  0  0  0  0  0  0  0  0  0  0
   -4.9050   22.6540  -32.4700 N   0  0  0  0  0  0  0  0  0  0  0  0
   -5.2830   21.2680  -32.7440 C   0  0  0  0  0  0  0  0  0  0  0  0
   -6.7680   21.0870  -32.5230 C   0  0  0  0  0  0  0  0  0  0  0  0
   -7.5100   22.1730  -32.0240 C   0  0  0  0  0  0  0  0  0  0  0  0
   -8.8680   22.0350  -31.7340 C   0  0  0  0  0  0  0  0  0  0  0  0
   -9.5020   20.8080  -31.9220 C   0  0  0  0  0  0  0  0  0  0  0  0
   -8.7810   19.7150  -32.4020 C   0  0  0  0  0  0  0  0  0  0  0  0
   -7.4160   19.8370  -32.7110 C   0  0  0  0  0  0  0  0  0  0  0  0
   -6.7020   18.6400  -33.2050 C   0  0  0  0  0  0  0  0  0  0  0  0
   -6.5990   17.4880  -32.4090 C   0  0  0  0  0  0  0  0  0  0  0  0
   -5.9170   16.3630  -32.8860 C   0  0  0  0  0  0  0  0  0  0  0  0
   -5.3200   16.3880  -34.1490 C   0  0  0  0  0  0  0  0  0  0  0  0
   -5.3950   17.5410  -34.9350 C   0  0  0  0  0  0  0  0  0  0  0  0
   -6.0760   18.6680  -34.4630 C   0  0  0  0  0  0  0  0  0  0  0  0
   -4.5880   24.1050  -30.4940 C   0  0  0  0  0  0  0  0  0  0  0  0
   -6.1050   24.9360  -30.8110 Cl  0  0  0  0  0  0  0  0  0  0  0  0
   -3.8440   24.4770  -29.3670 C   0  0  0  0  0  0  0  0  0  0  0  0
   -1.2561   22.2643  -29.6376 H   0  0  0  0  0  0  0  0  0  0  0  0
   -2.5641   21.5918  -31.6491 H   0  0  0  0  0  0  0  0  0  0  0  0
   -5.3730   23.3930  -33.0420 H   0  0  0  0  0  0  0  0  0  0  0  0
   -5.0368   21.0221  -33.7875 H   0  0  0  0  0  0  0  0  0  0  0  0
   -4.7315   20.6009  -32.0651 H   0  0  0  0  0  0  0  0  0  0  0  0
   -7.0144   23.1414  -31.8607 H   0  0  0  0  0  0  0  0  0  0  0  0
   -9.4391   22.8960  -31.3564 H   0  0  0  0  0  0  0  0  0  0  0  0
  -10.5723   20.7017  -31.6915 H   0  0  0  0  0  0  0  0  0  0  0  0
   -9.2862   18.7477  -32.5400 H   0  0  0  0  0  0  0  0  0  0  0  0
   -7.0554   17.4697  -31.4083 H   0  0  0  0  0  0  0  0  0  0  0  0
   -5.8508   15.4572  -32.2654 H   0  0  0  0  0  0  0  0  0  0  0  0
   -4.7908   15.4999  -34.5247 H   0  0  0  0  0  0  0  0  0  0  0  0
   -4.9180   17.5624  -35.9260 H   0  0  0  0  0  0  0  0  0  0  0  0
   -6.1217   19.5787  -35.0782 H   0  0  0  0  0  0  0  0  0  0  0  0
   -4.1989   25.2946  -28.7223 H   0  0  0  0  0  0  0  0  0  0  0  0
  1  2  1  0
  2  3  2  0
  3  4  1  0
  4  5  2  0
  5  6  1  0
  6  7  1  0
  7  8  1  0
  8  9  2  0
  9 10  1  0
 10 11  2  0
 11 12  1  0
 12 13  2  0
 13 14  1  0
 14 15  2  0
 15 16  1  0
 16 17  2  0
 17 18  1  0
 18 19  2  0
  5 20  1  0
 20 21  1  0
 20 22  2  0
 22  2  1  0
 13  8  1  0
 19 14  1  0
  3 23  1  0
  4 24  1  0
  6 25  1  0
  7 26  1  0
  7 27  1  0
  9 28  1  0
 10 29  1  0
 11 30  1  0
 12 31  1  0
 15 32  1  0
 16 33  1  0
 17 34  1  0
 18 35  1  0
 19 36  1  0
 22 37  1  0
M  END
>  <UniqueID>  (33) 
32

>  <SMILES>  (33) 
Fc1ccc(NCc2ccccc2-c2ccccc2)c(Cl)c1

>  <Energy>  (33) 
46.62289104630914

>  <Genealogy>  (33) 
Fc1ccc(NCc2ccccc2-c2ccccc2)c(Cl)c1 (3D coordinates assigned)
Fc1ccc(NCc2ccccc2-c2ccccc2)c(Cl)c1 (optimized conformer: 46.62289104630914 kcal/mol)

>  <smiles>  (33) 
Fc1ccc(NCc2ccccc2-c2ccccc2)c(Cl)c1

>  <score_type>  (33) 
oracle

>  <origin>  (33) 
adgpu

>  <m_score__min__energy>  (33) 
-8.4900000000000002

>  <m_primary>  (33) 
energy

$$$$
33:0
     RDKit          3D

 23 24  0  0  0  0  0  0  0  0999 V2000
   -3.8150   25.2610  -30.1210 N   0  0  0  0  0  0  0  0  0  0  0  0
   -4.7320   24.2690  -30.6010 C   0  0  0  0  0  0  0  0  0  0  0  0
   -4.2550   23.1920  -31.3590 C   0  0  0  0  0  0  0  0  0  0  0  0
   -5.1360   22.2070  -31.8330 C   0  0  0  0  0  0  0  0  0  0  0  0
   -4.6370   21.0620  -32.6370 C   0  0  0  0  0  0  0  0  0  0  0  0
   -3.2940   21.0100  -33.0530 C   0  0  0  0  0  0  0  0  0  0  0  0
   -2.8270   19.9310  -33.8100 C   0  0  0  0  0  0  0  0  0  0  0  0
   -3.6920   18.8930  -34.1600 C   0  0  0  0  0  0  0  0  0  0  0  0
   -5.0300   18.9310  -33.7520 C   0  0  0  0  0  0  0  0  0  0  0  0
   -6.1140   17.6220  -34.1870 Cl  0  0  0  0  0  0  0  0  0  0  0  0
   -5.5010   20.0090  -32.9950 C   0  0  0  0  0  0  0  0  0  0  0  0
   -6.5010   22.3320  -31.5300 C   0  0  0  0  0  0  0  0  0  0  0  0
   -6.9470   23.3850  -30.7950 N   0  0  0  0  0  0  0  0  0  0  0  0
   -6.1100   24.3460  -30.3260 C   0  0  0  0  0  0  0  0  0  0  0  0
   -6.7970   25.6620  -29.3850 Cl  0  0  0  0  0  0  0  0  0  0  0  0
   -3.0980   25.6720  -30.7610 H   0  0  0  0  0  0  0  0  0  0  0  0
   -3.8330   25.5990  -29.1350 H   0  0  0  0  0  0  0  0  0  0  0  0
   -3.1810   23.1173  -31.5848 H   0  0  0  0  0  0  0  0  0  0  0  0
   -2.6062   21.8242  -32.7807 H   0  0  0  0  0  0  0  0  0  0  0  0
   -1.7752   19.9002  -34.1305 H   0  0  0  0  0  0  0  0  0  0  0  0
   -3.3222   18.0457  -34.7561 H   0  0  0  0  0  0  0  0  0  0  0  0
   -6.5538   20.0344  -32.6771 H   0  0  0  0  0  0  0  0  0  0  0  0
   -7.2131   21.5743  -31.8890 H   0  0  0  0  0  0  0  0  0  0  0  0
  1  2  1  0
  2  3  2  0
  3  4  1  0
  4  5  1  0
  5  6  2  0
  6  7  1  0
  7  8  2  0
  8  9  1  0
  9 10  1  0
  9 11  2  0
  4 12  2  0
 12 13  1  0
 13 14  2  0
 14 15  1  0
 14  2  1  0
 11  5  1  0
  1 16  1  0
  1 17  1  0
  3 18  1  0
  6 19  1  0
  7 20  1  0
  8 21  1  0
 11 22  1  0
 12 23  1  0
M  END
>  <UniqueID>  (34) 
33

>  <SMILES>  (34) 
Nc1cc(-c2cccc(Cl)c2)cnc1Cl

>  <Energy>  (34) 
29.980890966737398

>  <Genealogy>  (34) 
Nc1cc(-c2cccc(Cl)c2)cnc1Cl (3D coordinates assigned)
Nc1cc(-c2cccc(Cl)c2)cnc1Cl (optimized conformer: 29.980890966737398 kcal/mol)

>  <smiles>  (34) 
Nc1cc(-c2cccc(Cl)c2)cnc1Cl

>  <score_type>  (34) 
oracle

>  <origin>  (34) 
adgpu

>  <m_score__min__energy>  (34) 
-6.9100000000000001

>  <m_primary>  (34) 
energy

$$$$
34:0
     RDKit          3D

 26 27  0  0  0  0  0  0  0  0999 V2000
   -1.9540   24.9550  -28.2100 C   0  0  0  0  0  0  0  0  0  0  0  0
   -2.7470   25.2980  -29.3420 O   0  0  0  0  0  0  0  0  0  0  0  0
   -3.7810   24.5000  -29.8560 C   0  0  0  0  0  0  0  0  0  0  0  0
   -5.1280   24.9060  -29.8390 C   0  0  0  0  0  0  0  0  0  0  0  0
   -6.1220   24.0740  -30.3620 C   0  0  0  0  0  0  0  0  0  0  0  0
   -5.7920   22.8240  -30.9130 C   0  0  0  0  0  0  0  0  0  0  0  0
   -6.8480   21.9400  -31.4700 C   0  0  0  0  0  0  0  0  0  0  0  0
   -8.2080   22.2710  -31.3270 C   0  0  0  0  0  0  0  0  0  0  0  0
   -9.2000   21.4370  -31.8520 C   0  0  0  0  0  0  0  0  0  0  0  0
   -8.8470   20.2650  -32.5260 C   0  0  0  0  0  0  0  0  0  0  0  0
   -9.8130   19.4600  -33.0340 F   0  0  0  0  0  0  0  0  0  0  0  0
   -7.4990   19.9250  -32.6750 C   0  0  0  0  0  0  0  0  0  0  0  0
   -7.1550   18.7900  -33.3330 F   0  0  0  0  0  0  0  0  0  0  0  0
   -6.5050   20.7560  -32.1510 C   0  0  0  0  0  0  0  0  0  0  0  0
   -4.4440   22.4240  -30.9280 C   0  0  0  0  0  0  0  0  0  0  0  0
   -3.4510   23.2550  -30.4030 C   0  0  0  0  0  0  0  0  0  0  0  0
   -2.5065   25.1940  -27.2893 H   0  0  0  0  0  0  0  0  0  0  0  0
   -1.7280   23.8787  -28.2331 H   0  0  0  0  0  0  0  0  0  0  0  0
   -1.0149   25.5274  -28.2331 H   0  0  0  0  0  0  0  0  0  0  0  0
   -5.4001   25.8826  -29.4122 H   0  0  0  0  0  0  0  0  0  0  0  0
   -7.1722   24.4007  -30.3421 H   0  0  0  0  0  0  0  0  0  0  0  0
   -8.4930   23.1926  -30.7983 H   0  0  0  0  0  0  0  0  0  0  0  0
  -10.2605   21.7041  -31.7342 H   0  0  0  0  0  0  0  0  0  0  0  0
   -5.4462   20.4831  -32.2715 H   0  0  0  0  0  0  0  0  0  0  0  0
   -4.1690   21.4489  -31.3565 H   0  0  0  0  0  0  0  0  0  0  0  0
   -2.4009   22.9278  -30.4198 H   0  0  0  0  0  0  0  0  0  0  0  0
  1  2  1  0
  2  3  1  0
  3  4  2  0
  4  5  1  0
  5  6  2  0
  6  7  1  0
  7  8  2  0
  8  9  1  0
  9 10  2  0
 10 11  1  0
 10 12  1  0
 12 13  1  0
 12 14  2  0
  6 15  1  0
 15 16  2  0
 16  3  1  0
 14  7  1  0
  1 17  1  0
  1 18  1  0
  1 19  1  0
  4 20  1  0
  5 21  1  0
  8 22  1  0
  9 23  1  0
 14 24  1  0
 15 25  1  0
 16 26  1  0
M  END
>  <UniqueID>  (35) 
34

>  <SMILES>  (35) 
COc1ccc(-c2ccc(F)c(F)c2)cc1

>  <Energy>  (35) 
31.496657965623424

>  <Genealogy>  (35) 
COc1ccc(-c2ccc(F)c(F)c2)cc1 (3D coordinates assigned)
COc1ccc(-c2ccc(F)c(F)c2)cc1 (optimized conformer: 31.496657965623424 kcal/mol)

>  <smiles>  (35) 
COc1ccc(-c2ccc(F)c(F)c2)cc1

>  <score_type>  (35) 
oracle

>  <origin>  (35) 
adgpu

>  <m_score__min__energy>  (35) 
-6.71

>  <m_primary>  (35) 
energy

$$$$
35:0
     RDKit          3D

 42 44  0  0  0  0  0  0  0  0999 V2000
   -0.9390   20.9640  -33.3910 C   0  0  0  0  0  0  0  0  0  0  0  0
   -2.3520   21.1650  -32.9450 C   0  0  0  0  0  0  0  0  0  0  0  0
   -2.7780   22.2670  -32.3000 N   0  0  0  0  0  0  0  0  0  0  0  0
   -4.0920   22.0240  -32.0970 C   0  0  0  0  0  0  0  0  0  0  0  0
   -5.0070   22.9610  -31.4130 C   0  0  0  0  0  0  0  0  0  0  0  0
   -6.3880   22.9140  -31.6720 C   0  0  0  0  0  0  0  0  0  0  0  0
   -7.2560   23.8020  -31.0290 C   0  0  0  0  0  0  0  0  0  0  0  0
   -6.7560   24.7410  -30.1230 C   0  0  0  0  0  0  0  0  0  0  0  0
   -5.3840   24.7950  -29.8610 C   0  0  0  0  0  0  0  0  0  0  0  0
   -4.5110   23.9120  -30.5020 C   0  0  0  0  0  0  0  0  0  0  0  0
   -4.4700   20.8590  -32.5760 O   0  0  0  0  0  0  0  0  0  0  0  0
   -3.4150   20.2960  -33.1110 C   0  0  0  0  0  0  0  0  0  0  0  0
   -3.4210   18.9690  -33.7620 C   0  0  0  0  0  0  0  0  0  0  0  0
   -2.5020   18.6710  -34.5750 O   0  0  0  0  0  0  0  0  0  0  0  0
   -4.4650   18.0070  -33.4720 N   0  0  2  0  0  0  0  0  0  0  0  0
   -3.9800   16.6520  -33.7870 C   0  0  0  0  0  0  0  0  0  0  0  0
   -5.6860   18.3470  -34.2370 C   0  0  0  0  0  0  0  0  0  0  0  0
   -6.8270   18.7390  -33.3270 C   0  0  0  0  0  0  0  0  0  0  0  0
   -7.3890   17.8010  -32.4420 C   0  0  0  0  0  0  0  0  0  0  0  0
   -8.4240   18.1790  -31.5810 C   0  0  0  0  0  0  0  0  0  0  0  0
   -8.9050   19.4910  -31.5970 C   0  0  0  0  0  0  0  0  0  0  0  0
   -8.3500   20.4290  -32.4730 C   0  0  0  0  0  0  0  0  0  0  0  0
   -7.3140   20.0570  -33.3330 C   0  0  0  0  0  0  0  0  0  0  0  0
   -0.2863   20.8711  -32.5105 H   0  0  0  0  0  0  0  0  0  0  0  0
   -0.8721   20.0473  -33.9953 H   0  0  0  0  0  0  0  0  0  0  0  0
   -0.6191   21.8257  -33.9953 H   0  0  0  0  0  0  0  0  0  0  0  0
   -6.7873   22.1759  -32.3832 H   0  0  0  0  0  0  0  0  0  0  0  0
   -8.3354   23.7612  -31.2370 H   0  0  0  0  0  0  0  0  0  0  0  0
   -7.4412   25.4368  -29.6166 H   0  0  0  0  0  0  0  0  0  0  0  0
   -4.9904   25.5347  -29.1482 H   0  0  0  0  0  0  0  0  0  0  0  0
   -3.4320   23.9605  -30.2937 H   0  0  0  0  0  0  0  0  0  0  0  0
   -4.6890   18.0370  -32.4490 H   0  0  0  0  0  0  0  0  0  0  0  0
   -3.7846   16.1060  -32.8523 H   0  0  0  0  0  0  0  0  0  0  0  0
   -4.7423   16.1165  -34.3720 H   0  0  0  0  0  0  0  0  0  0  0  0
   -3.0510   16.7218  -34.3720 H   0  0  0  0  0  0  0  0  0  0  0  0
   -5.4621   19.1879  -34.9098 H   0  0  0  0  0  0  0  0  0  0  0  0
   -5.9924   17.4566  -34.8057 H   0  0  0  0  0  0  0  0  0  0  0  0
   -7.0132   16.7673  -32.4272 H   0  0  0  0  0  0  0  0  0  0  0  0
   -8.8602   17.4425  -30.8901 H   0  0  0  0  0  0  0  0  0  0  0  0
   -9.7205   19.7859  -30.9202 H   0  0  0  0  0  0  0  0  0  0  0  0
   -8.7298   21.4613  -32.4849 H   0  0  0  0  0  0  0  0  0  0  0  0
   -6.8776   20.7990  -34.0178 H   0  0  0  0  0  0  0  0  0  0  0  0
  1  2  1  0
  2  3  1  0
  3  4  2  0
  4  5  1  0
  5  6  2  0
  6  7  1  0
  7  8  2  0
  8  9  1  0
  9 10  2  0
  4 11  1  0
 11 12  1  0
 12 13  1  0
 13 14  2  0
 13 15  1  0
 15 16  1  0
 15 17  1  0
 17 18  1  0
 18 19  2  0
 19 20  1  0
 20 21  2  0
 21 22  1  0
 22 23  2  0
 12  2  2  0
 23 18  1  0
 10  5  1  0
  1 24  1  0
  1 25  1  0
  1 26  1  0
  6 27  1  0
  7 28  1  0
  8 29  1  0
  9 30  1  0
 10 31  1  0
 15 32  1  1
 16 33  1  0
 16 34  1  0
 16 35  1  0
 17 36  1  0
 17 37  1  0
 19 38  1  0
 20 39  1  0
 21 40  1  0
 22 41  1  0
 23 42  1  0
M  CHG  1  15   1
M  END
>  <UniqueID>  (36) 
35

>  <SMILES>  (36) 
Cc1nc(-c2ccccc2)oc1C(=O)[N@H+](C)Cc1ccccc1

>  <Energy>  (36) 
74.97714826244042

>  <Genealogy>  (36) 
Cc1nc(-c2ccccc2)oc1C(=O)[NH+](C)Cc1ccccc1 (protonated)
Cc1nc(-c2ccccc2)oc1C(=O)[N@H+](C)Cc1ccccc1 (chirality)
Cc1nc(-c2ccccc2)oc1C(=O)[N@H+](C)Cc1ccccc1 (3D coordinates assigned)
Cc1nc(-c2ccccc2)oc1C(=O)[N@H+](C)Cc1ccccc1 (optimized conformer: 74.97714826244042 kcal/mol)

>  <smiles>  (36) 
Cc1nc(-c2ccccc2)oc1C(=O)N(C)Cc1ccccc1

>  <score_type>  (36) 
oracle

>  <origin>  (36) 
adgpu

>  <m_score__min__energy>  (36) 
-7.29

>  <m_primary>  (36) 
energy

$$$$
36:0
     RDKit          3D

 50 53  0  0  1  0  0  0  0  0999 V2000
   -1.6580   25.7300  -25.1820 C   0  0  0  0  0  0  0  0  0  0  0  0
   -2.3410   25.2870  -26.4240 C   0  0  0  0  0  0  0  0  0  0  0  0
   -1.6290   25.2380  -27.5890 C   0  0  0  0  0  0  0  0  0  0  0  0
   -2.2270   24.8320  -28.7630 C   0  0  0  0  0  0  0  0  0  0  0  0
   -3.5580   24.4560  -28.8400 C   0  0  0  0  0  0  0  0  0  0  0  0
   -4.2760   23.9830  -30.3260 S   0  0  0  0  0  0  0  0  0  0  0  0
   -5.6990   23.5170  -30.0460 O   0  0  0  0  0  0  0  0  0  0  0  0
   -4.4930   25.2700  -31.1470 O   0  0  0  0  0  0  0  0  0  0  0  0
   -3.5050   22.8750  -31.3070 N   0  0  0  0  0  0  0  0  0  0  0  0
   -3.9490   21.9340  -32.0160 C   0  0  0  0  0  0  0  0  0  0  0  0
   -5.2340   21.5930  -32.1480 N   0  0  0  0  0  0  0  0  0  0  0  0
   -5.2810   20.5580  -32.9770 C   0  0  0  0  0  0  0  0  0  0  0  0
   -6.3960   19.8550  -33.4200 C   0  0  0  0  0  0  0  0  0  0  0  0
   -7.5790   20.1920  -33.0150 N   0  0  0  0  0  0  0  0  0  0  0  0
   -6.1690   18.8360  -34.2670 N   0  0  0  0  0  0  0  0  0  0  0  0
   -4.9110   18.5470  -34.6420 C   0  0  0  0  0  0  0  0  0  0  0  0
   -3.8340   19.2170  -34.2220 N   0  0  0  0  0  0  0  0  0  0  0  0
   -3.9980   20.2450  -33.3740 C   0  0  0  0  0  0  0  0  0  0  0  0
   -3.1570   21.1170  -32.7640 N   0  0  0  0  0  0  0  0  0  0  0  0
   -1.7180   21.1570  -32.8930 C   0  0  2  0  0  0  0  0  0  0  0  0
   -1.2540   20.3030  -33.8870 O   0  0  0  0  0  0  0  0  0  0  0  0
    0.1200   20.2710  -33.6580 C   0  0  1  0  0  0  0  0  0  0  0  0
    0.8180   21.5450  -34.0400 C   0  0  0  0  0  0  0  0  0  0  0  0
    0.0530   22.2190  -34.9680 O   0  0  0  0  0  0  0  0  0  0  0  0
    0.1790   19.9900  -32.1830 C   0  0  2  0  0  0  0  0  0  0  0  0
   -0.1400   18.6360  -32.0240 O   0  0  0  0  0  0  0  0  0  0  0  0
   -0.9720   20.8320  -31.6430 C   0  0  1  0  0  0  0  0  0  0  0  0
   -0.4160   21.9340  -31.0010 O   0  0  0  0  0  0  0  0  0  0  0  0
   -4.2570   24.5200  -27.6230 C   0  0  0  0  0  0  0  0  0  0  0  0
   -3.6700   24.9220  -26.4580 C   0  0  0  0  0  0  0  0  0  0  0  0
   -2.2171   25.3674  -24.3068 H   0  0  0  0  0  0  0  0  0  0  0  0
   -0.6368   25.3219  -25.1596 H   0  0  0  0  0  0  0  0  0  0  0  0
   -1.6142   26.8289  -25.1596 H   0  0  0  0  0  0  0  0  0  0  0  0
   -0.5673   25.5256  -27.5903 H   0  0  0  0  0  0  0  0  0  0  0  0
   -1.6198   24.8054  -29.6799 H   0  0  0  0  0  0  0  0  0  0  0  0
   -6.0050   22.0610  -31.6830 H   0  0  0  0  0  0  0  0  0  0  0  0
   -8.4520   19.7030  -33.3120 H   0  0  0  0  0  0  0  0  0  0  0  0
   -6.9860   18.2870  -34.6180 H   0  0  0  0  0  0  0  0  0  0  0  0
   -4.7589   17.7079  -35.3369 H   0  0  0  0  0  0  0  0  0  0  0  0
   -1.5204   22.2076  -33.1524 H   0  0  0  0  0  0  0  0  0  0  0  0
    0.6458   19.5249  -34.2719 H   0  0  0  0  0  0  0  0  0  0  0  0
    0.9520   22.1734  -33.1471 H   0  0  0  0  0  0  0  0  0  0  0  0
    1.8030   21.3125  -34.4710 H   0  0  0  0  0  0  0  0  0  0  0  0
   -0.8990   21.9280  -34.9660 H   0  0  0  0  0  0  0  0  0  0  0  0
    1.1428   20.2049  -31.6983 H   0  0  0  0  0  0  0  0  0  0  0  0
   -0.8370   18.3390  -32.6510 H   0  0  0  0  0  0  0  0  0  0  0  0
   -1.6369   20.3668  -30.9004 H   0  0  0  0  0  0  0  0  0  0  0  0
   -1.0660   22.6530  -30.8490 H   0  0  0  0  0  0  0  0  0  0  0  0
   -5.3193   24.2349  -27.6083 H   0  0  0  0  0  0  0  0  0  0  0  0
   -4.2655   24.9552  -25.5337 H   0  0  0  0  0  0  0  0  0  0  0  0
  1  2  1  0
  2  3  2  0
  3  4  1  0
  4  5  2  0
  5  6  1  0
  6  7  2  0
  6  8  2  0
  6  9  1  0
  9 10  2  0
 10 11  1  0
 11 12  1  0
 12 13  1  0
 13 14  2  3
 13 15  1  0
 15 16  1  0
 16 17  2  0
 17 18  1  0
 18 19  1  0
 19 20  1  0
 20 21  1  0
 21 22  1  0
 22 23  1  0
 23 24  1  0
 22 25  1  0
 25 26  1  0
 25 27  1  0
 27 28  1  0
  5 29  1  0
 29 30  2  0
 30  2  1  0
 19 10  1  0
 27 20  1  0
 18 12  2  0
  1 31  1  0
  1 32  1  0
  1 33  1  0
  3 34  1  0
  4 35  1  0
 11 36  1  0
 14 37  1  0
 15 38  1  0
 16 39  1  0
 20 40  1  6
 22 41  1  6
 23 42  1  0
 23 43  1  0
 24 44  1  0
 25 45  1  1
 26 46  1  0
 27 47  1  1
 28 48  1  0
 29 49  1  0
 30 50  1  0
M  END
>  <smiles>  (37) 
Cc1ccc(S(=O)(=O)N=c2[nH]c3c(=N)[nH]cnc3n2C2OC(CO)C(O)C2O)cc1

>  <score_type>  (37) 
oracle

>  <origin>  (37) 
adgpu

>  <m_score__min__energy>  (37) 
-8.9700000000000006

>  <m_primary>  (37) 
energy

$$$$
37:0
     RDKit          3D

 32 34  0  0  0  0  0  0  0  0999 V2000
   -0.5690   20.3240  -30.4490 N   0  0  0  0  0  0  0  0  0  0  0  0
   -1.2450   21.1480  -30.0000 C   0  0  0  0  0  0  0  0  0  0  0  0
   -2.0880   22.1730  -29.4400 C   0  0  0  0  0  0  0  0  0  0  0  0
   -2.4410   22.1260  -28.0860 C   0  0  0  0  0  0  0  0  0  0  0  0
   -3.2590   23.1200  -27.5440 C   0  0  0  0  0  0  0  0  0  0  0  0
   -3.7240   24.1630  -28.3490 C   0  0  0  0  0  0  0  0  0  0  0  0
   -3.3740   24.2260  -29.7040 C   0  0  0  0  0  0  0  0  0  0  0  0
   -3.8630   25.3010  -30.4650 O   0  0  0  0  0  0  0  0  0  0  0  0
   -5.2310   25.5060  -30.8190 C   0  0  0  0  0  0  0  0  0  0  0  0
   -5.8820   24.2100  -31.1990 C   0  0  0  0  0  0  0  0  0  0  0  0
   -7.2060   23.9400  -30.8220 C   0  0  0  0  0  0  0  0  0  0  0  0
   -7.7970   22.7300  -31.1930 C   0  0  0  0  0  0  0  0  0  0  0  0
   -7.0640   21.7970  -31.9360 C   0  0  0  0  0  0  0  0  0  0  0  0
   -7.6270   20.5740  -32.3290 C   0  0  0  0  0  0  0  0  0  0  0  0
   -6.8690   19.6630  -33.0720 C   0  0  0  0  0  0  0  0  0  0  0  0
   -5.5500   19.9670  -33.4250 C   0  0  0  0  0  0  0  0  0  0  0  0
   -4.9800   21.1840  -33.0360 C   0  0  0  0  0  0  0  0  0  0  0  0
   -5.7320   22.1020  -32.2930 C   0  0  0  0  0  0  0  0  0  0  0  0
   -5.1820   23.2870  -31.9160 N   0  0  0  0  0  0  0  0  0  0  0  0
   -2.5550   23.2170  -30.2500 C   0  0  0  0  0  0  0  0  0  0  0  0
   -2.0745   21.3070  -27.4496 H   0  0  0  0  0  0  0  0  0  0  0  0
   -3.5378   23.0816  -26.4806 H   0  0  0  0  0  0  0  0  0  0  0  0
   -4.3699   24.9407  -27.9155 H   0  0  0  0  0  0  0  0  0  0  0  0
   -5.7647   25.9397  -29.9605 H   0  0  0  0  0  0  0  0  0  0  0  0
   -5.2740   26.1884  -31.6807 H   0  0  0  0  0  0  0  0  0  0  0  0
   -7.7757   24.6773  -30.2373 H   0  0  0  0  0  0  0  0  0  0  0  0
   -8.8350   22.5109  -30.9023 H   0  0  0  0  0  0  0  0  0  0  0  0
   -8.6638   20.3314  -32.0531 H   0  0  0  0  0  0  0  0  0  0  0  0
   -7.3117   18.7042  -33.3798 H   0  0  0  0  0  0  0  0  0  0  0  0
   -4.9592   19.2470  -34.0102 H   0  0  0  0  0  0  0  0  0  0  0  0
   -3.9420   21.4194  -33.3136 H   0  0  0  0  0  0  0  0  0  0  0  0
   -2.2816   23.2491  -31.3150 H   0  0  0  0  0  0  0  0  0  0  0  0
  1  2  3  0
  2  3  1  0
  3  4  2  0
  4  5  1  0
  5  6  2  0
  6  7  1  0
  7  8  1  0
  8  9  1  0
  9 10  1  0
 10 11  2  0
 11 12  1  0
 12 13  2  0
 13 14  1  0
 14 15  2  0
 15 16  1  0
 16 17  2  0
 17 18  1  0
 18 19  2  0
  7 20  2  0
 20  3  1  0
 19 10  1  0
 18 13  1  0
  4 21  1  0
  5 22  1  0
  6 23  1  0
  9 24  1  0
  9 25  1  0
 11 26  1  0
 12 27  1  0
 14 28  1  0
 15 29  1  0
 16 30  1  0
 17 31  1  0
 20 32  1  0
M  END
>  <UniqueID>  (38) 
36

>  <SMILES>  (38) 
N#Cc1cccc(OCc2ccc3ccccc3n2)c1

>  <Energy>  (38) 
36.27300541505114

>  <Genealogy>  (38) 
N#Cc1cccc(OCc2ccc3ccccc3n2)c1 (3D coordinates assigned)
N#Cc1cccc(OCc2ccc3ccccc3n2)c1 (optimized conformer: 36.27300541505114 kcal/mol)

>  <smiles>  (38) 
N#Cc1cccc(OCc2ccc3ccccc3n2)c1

>  <score_type>  (38) 
oracle

>  <origin>  (38) 
adgpu

>  <m_score__min__energy>  (38) 
-8.1899999999999995

>  <m_primary>  (38) 
energy

$$$$
38:0
     RDKit          3D

 53 56  0  0  0  0  0  0  0  0999 V2000
   -2.0100   17.0132  -35.0610 H   0  0  0  0  0  0  0  0  0  0  0  0
   -2.2180   17.3600  -34.0380 C   0  0  0  0  0  0  0  0  0  0  0  0
   -2.8860   16.5960  -33.2310 N   0  0  0  0  0  0  0  0  0  0  0  0
   -3.2980   15.3510  -33.6420 O   0  0  0  0  0  0  0  0  0  0  0  0
   -4.4040   14.7180  -33.0170 C   0  0  0  0  0  0  0  0  0  0  0  0
   -4.2270   14.6644  -31.9327 H   0  0  0  0  0  0  0  0  0  0  0  0
   -4.5178   13.7045  -33.4291 H   0  0  0  0  0  0  0  0  0  0  0  0
   -5.6870   15.5130  -33.2820 C   0  0  2  0  0  0  0  0  0  0  0  0
   -6.5150   14.8025  -33.1420 H   0  0  0  0  0  0  0  0  0  0  0  0
   -5.6490   16.0710  -34.5940 O   0  0  0  0  0  0  0  0  0  0  0  0
   -5.6900   17.4460  -34.5120 C   0  0  0  0  0  0  0  0  0  0  0  0
   -5.6790   18.2010  -35.5210 O   0  0  0  0  0  0  0  0  0  0  0  0
   -5.7930   17.9040  -33.1770 N   0  0  0  0  0  0  0  0  0  0  0  0
   -5.7710   19.2670  -32.7230 C   0  0  0  0  0  0  0  0  0  0  0  0
   -6.7480   19.7430  -31.8340 C   0  0  0  0  0  0  0  0  0  0  0  0
   -7.5384   19.0672  -31.4754 H   0  0  0  0  0  0  0  0  0  0  0  0
   -6.7200   21.0720  -31.4030 C   0  0  0  0  0  0  0  0  0  0  0  0
   -7.4959   21.4414  -30.7163 H   0  0  0  0  0  0  0  0  0  0  0  0
   -5.7070   21.9370  -31.8420 C   0  0  0  0  0  0  0  0  0  0  0  0
   -5.6430   23.2810  -31.3490 N   0  0  0  0  0  0  0  0  0  0  0  0
   -6.8240   24.1480  -31.4350 C   0  0  0  0  0  0  0  0  0  0  0  0
   -6.6640   24.8967  -32.2248 H   0  0  0  0  0  0  0  0  0  0  0  0
   -7.7004   23.5249  -31.6669 H   0  0  0  0  0  0  0  0  0  0  0  0
   -7.0750   24.8700  -30.1010 C   0  0  0  0  0  0  0  0  0  0  0  0
   -7.6522   25.7840  -30.3045 H   0  0  0  0  0  0  0  0  0  0  0  0
   -7.6169   24.1660  -29.4523 H   0  0  0  0  0  0  0  0  0  0  0  0
   -5.7830   25.2660  -29.3550 C   0  0  0  0  0  0  0  0  0  0  0  0
   -5.8985   26.2908  -28.9723 H   0  0  0  0  0  0  0  0  0  0  0  0
   -5.6351   24.5402  -28.5418 H   0  0  0  0  0  0  0  0  0  0  0  0
   -4.5390   25.2150  -30.2500 C   0  0  0  0  0  0  0  0  0  0  0  0
   -4.6513   25.9397  -31.0699 H   0  0  0  0  0  0  0  0  0  0  0  0
   -3.6530   25.4638  -29.6475 H   0  0  0  0  0  0  0  0  0  0  0  0
   -4.3660   23.8090  -30.8370 C   0  0  0  0  0  0  0  0  0  0  0  0
   -3.6397   23.8521  -31.6620 H   0  0  0  0  0  0  0  0  0  0  0  0
   -4.0096   23.1413  -30.0388 H   0  0  0  0  0  0  0  0  0  0  0  0
   -4.7380   21.4690  -32.7410 C   0  0  0  0  0  0  0  0  0  0  0  0
   -3.7580   22.2970  -33.1890 F   0  0  0  0  0  0  0  0  0  0  0  0
   -4.7790   20.1460  -33.1900 C   0  0  0  0  0  0  0  0  0  0  0  0
   -4.0302   19.7907  -33.9133 H   0  0  0  0  0  0  0  0  0  0  0  0
   -5.8510   16.7260  -32.3180 C   0  0  0  0  0  0  0  0  0  0  0  0
   -6.8177   16.6762  -31.7955 H   0  0  0  0  0  0  0  0  0  0  0  0
   -5.0725   16.7435  -31.5410 H   0  0  0  0  0  0  0  0  0  0  0  0
   -1.7310   18.6870  -33.6100 C   0  0  0  0  0  0  0  0  0  0  0  0
   -1.1270   19.5770  -34.5170 C   0  0  0  0  0  0  0  0  0  0  0  0
   -0.9873   19.2779  -35.5663 H   0  0  0  0  0  0  0  0  0  0  0  0
   -0.7030   20.8410  -34.0910 C   0  0  0  0  0  0  0  0  0  0  0  0
   -0.1500   21.7030  -34.9720 F   0  0  0  0  0  0  0  0  0  0  0  0
   -0.8750   21.2250  -32.7590 C   0  0  0  0  0  0  0  0  0  0  0  0
   -0.5269   22.2125  -32.4220 H   0  0  0  0  0  0  0  0  0  0  0  0
   -1.4890   20.3550  -31.8550 C   0  0  0  0  0  0  0  0  0  0  0  0
   -1.6830   20.7410  -30.5690 F   0  0  0  0  0  0  0  0  0  0  0  0
   -1.9130   19.0900  -32.2760 C   0  0  0  0  0  0  0  0  0  0  0  0
   -2.3916   18.4069  -31.5588 H   0  0  0  0  0  0  0  0  0  0  0  0
  1  2  1  0
  2  3  2  0
  3  4  1  0
  4  5  1  0
  5  6  1  0
  5  7  1  0
  5  8  1  0
  8  9  1  6
  8 10  1  0
 10 11  1  0
 11 12  2  0
 11 13  1  0
 13 14  1  0
 14 15  2  0
 15 16  1  0
 15 17  1  0
 17 18  1  0
 17 19  2  0
 19 20  1  0
 20 21  1  0
 21 22  1  0
 21 23  1  0
 21 24  1  0
 24 25  1  0
 24 26  1  0
 24 27  1  0
 27 28  1  0
 27 29  1  0
 27 30  1  0
 30 31  1  0
 30 32  1  0
 30 33  1  0
 33 34  1  0
 33 35  1  0
 19 36  1  0
 36 37  1  0
 36 38  2  0
 38 39  1  0
 13 40  1  0
 40 41  1  0
 40 42  1  0
  2 43  1  0
 43 44  2  0
 44 45  1  0
 44 46  1  0
 46 47  1  0
 46 48  2  0
 48 49  1  0
 48 50  1  0
 50 51  1  0
 50 52  2  0
 52 53  1  0
 40  8  1  0
 52 43  1  0
 38 14  1  0
 33 20  1  0
M  END
>  <UniqueID>  (39) 
37

>  <SMILES>  (39) 
O=C1O[C@@H](CO/N=C/c2cc(F)cc(F)c2)CN1c1ccc(N2CCCCC2)c(F)c1

>  <Energy>  (39) 
75.49001706930437

>  <Genealogy>  (39) 
O=C1O[C@@H](CON=Cc2cc(F)cc(F)c2)CN1c1ccc(N2CCCCC2)c(F)c1 (chirality)
O=C1O[C@@H](CO/N=C/c2cc(F)cc(F)c2)CN1c1ccc(N2CCCCC2)c(F)c1 (cis-trans isomerization)
O=C1O[C@@H](CO/N=C/c2cc(F)cc(F)c2)CN1c1ccc(N2CCCCC2)c(F)c1 (3D coordinates assigned)
O=C1O[C@@H](CO/N=C/c2cc(F)cc(F)c2)CN1c1ccc(N2CCCCC2)c(F)c1 (nonaromatic ring conformer: 75.49001706930437 kcal/mol)

>  <smiles>  (39) 
O=C1OC(CON=Cc2cc(F)cc(F)c2)CN1c1ccc(N2CCCCC2)c(F)c1

>  <score_type>  (39) 
oracle

>  <origin>  (39) 
adgpu

>  <m_score__min__energy>  (39) 
-8.8399999999999999

>  <m_primary>  (39) 
energy

$$$$
39:0
     RDKit          3D

 32 34  0  0  0  0  0  0  0  0999 V2000
   -2.0540   21.4120  -34.5840 H   0  0  0  0  0  0  0  0  0  0  0  0
   -2.8120   20.8080  -34.1930 N   0  0  0  0  0  0  0  0  0  0  0  0
   -3.2140   20.9350  -32.9690 C   0  0  0  0  0  0  0  0  0  0  0  0
   -2.6460   21.8680  -32.1590 N   0  0  0  0  0  0  0  0  0  0  0  0
   -3.0390   22.0110  -30.8650 C   0  0  0  0  0  0  0  0  0  0  0  0
   -2.4020   23.0400  -30.0170 C   0  0  0  0  0  0  0  0  0  0  0  0
   -1.1480   22.7260  -29.4730 C   0  0  0  0  0  0  0  0  0  0  0  0
   -0.7635   21.6981  -29.5475 H   0  0  0  0  0  0  0  0  0  0  0  0
   -0.3860   23.7030  -28.8400 C   0  0  0  0  0  0  0  0  0  0  0  0
    0.5939   23.4510  -28.4084 H   0  0  0  0  0  0  0  0  0  0  0  0
   -0.8770   25.0020  -28.7590 C   0  0  0  0  0  0  0  0  0  0  0  0
   -0.2675   25.7925  -28.2970 H   0  0  0  0  0  0  0  0  0  0  0  0
   -2.1080   25.2940  -29.2500 N   0  0  0  0  0  0  0  0  0  0  0  0
   -2.9090   24.3640  -29.8410 C   0  0  0  0  0  0  0  0  0  0  0  0
   -4.1070   24.7520  -30.1940 N   0  0  0  0  0  0  0  0  0  0  0  0
   -5.2290   23.9640  -30.6140 C   0  0  0  0  0  0  0  0  0  0  0  0
   -5.4730   23.7840  -31.9810 C   0  0  0  0  0  0  0  0  0  0  0  0
   -4.7992   24.2377  -32.7228 H   0  0  0  0  0  0  0  0  0  0  0  0
   -6.5710   23.0290  -32.4060 C   0  0  0  0  0  0  0  0  0  0  0  0
   -6.7456   22.8693  -33.4803 H   0  0  0  0  0  0  0  0  0  0  0  0
   -7.4470   22.4770  -31.4660 C   0  0  0  0  0  0  0  0  0  0  0  0
   -8.8170   21.5200  -31.9990 Cl  0  0  0  0  0  0  0  0  0  0  0  0
   -7.2360   22.6960  -30.1000 C   0  0  0  0  0  0  0  0  0  0  0  0
   -7.9331   22.2742  -29.3610 H   0  0  0  0  0  0  0  0  0  0  0  0
   -6.1390   23.4510  -29.6750 C   0  0  0  0  0  0  0  0  0  0  0  0
   -5.9880   23.6438  -28.6026 H   0  0  0  0  0  0  0  0  0  0  0  0
   -4.0770   21.2140  -30.3690 C   0  0  0  0  0  0  0  0  0  0  0  0
   -4.4367   21.3380  -29.3369 H   0  0  0  0  0  0  0  0  0  0  0  0
   -4.6450   20.2600  -31.2110 C   0  0  0  0  0  0  0  0  0  0  0  0
   -5.4514   19.6104  -30.8399 H   0  0  0  0  0  0  0  0  0  0  0  0
   -4.2040   20.1310  -32.4900 N   0  0  0  0  0  0  0  0  0  0  0  0
   -4.6400   19.4090  -33.1080 H   0  0  0  0  0  0  0  0  0  0  0  0
  1  2  1  0
  2  3  2  0
  3  4  1  0
  4  5  2  0
  5  6  1  0
  6  7  2  0
  7  8  1  0
  7  9  1  0
  9 10  1  0
  9 11  2  0
 11 12  1  0
 11 13  1  0
 13 14  1  0
 14 15  2  0
 15 16  1  0
 16 17  2  0
 17 18  1  0
 17 19  1  0
 19 20  1  0
 19 21  2  0
 21 22  1  0
 21 23  1  0
 23 24  1  0
 23 25  2  0
 25 26  1  0
  5 27  1  0
 27 28  1  0
 27 29  2  0
 29 30  1  0
 29 31  1  0
 31 32  1  0
 31  3  1  0
 14  6  1  0
 25 16  1  0
M  CHG  1  13  -1
M  END
>  <UniqueID>  (40) 
38

>  <SMILES>  (40) 
[H]/N=c1\nc(-c2ccc[n-]/c2=N/c2ccc(Cl)cc2)cc[nH]1

>  <Energy>  (40) 
55.88194470696301

>  <Genealogy>  (40) 
N=c1nc(-c2ccc[n-]c2=Nc2ccc(Cl)cc2)cc[nH]1 (protonated)
[H]/N=c1\nc(-c2ccc[n-]/c2=N/c2ccc(Cl)cc2)cc[nH]1 (cis-trans isomerization)
[H]/N=c1\nc(-c2ccc[n-]/c2=N/c2ccc(Cl)cc2)cc[nH]1 (3D coordinates assigned)
[H]/N=c1\nc(-c2ccc[n-]/c2=N/c2ccc(Cl)cc2)cc[nH]1 (optimized conformer: 55.88194470696301 kcal/mol)

>  <smiles>  (40) 
N=c1nc(-c2ccc[nH]c2=Nc2ccc(Cl)cc2)cc[nH]1

>  <score_type>  (40) 
oracle

>  <origin>  (40) 
adgpu

>  <m_score__min__energy>  (40) 
-8.7699999999999996

>  <m_primary>  (40) 
energy

$$$$
40:0
     RDKit          3D

 38 39  0  0  0  0  0  0  0  0999 V2000
   -7.1360   17.4700  -33.0770 C   0  0  0  0  0  0  0  0  0  0  0  0
   -7.2460   18.9040  -32.6510 C   0  0  0  0  0  0  0  0  0  0  0  0
   -6.1600   19.7770  -32.8190 C   0  0  0  0  0  0  0  0  0  0  0  0
   -6.2500   21.1040  -32.3900 C   0  0  0  0  0  0  0  0  0  0  0  0
   -7.4250   21.5690  -31.7860 C   0  0  0  0  0  0  0  0  0  0  0  0
   -7.5320   23.2720  -31.2250 S   0  0  0  0  0  0  0  0  0  0  0  0
   -6.3600   23.0860  -29.8300 C   0  0  0  0  0  0  0  0  0  0  0  0
   -5.7560   24.4300  -29.4020 C   0  0  0  0  0  0  0  0  0  0  0  0
   -4.9060   25.0640  -30.4740 C   0  0  0  0  0  0  0  0  0  0  0  0
   -5.4250   25.3320  -31.5900 O   0  0  0  0  0  0  0  0  0  0  0  0
   -3.4850   25.2010  -30.3360 N   0  0  0  0  0  0  0  0  0  0  0  0
   -2.6220   24.4430  -29.4730 C   0  0  0  0  0  0  0  0  0  0  0  0
   -1.9500   25.0740  -28.4140 C   0  0  0  0  0  0  0  0  0  0  0  0
   -1.0930   24.3510  -27.5860 C   0  0  0  0  0  0  0  0  0  0  0  0
   -0.8860   22.9910  -27.8120 C   0  0  0  0  0  0  0  0  0  0  0  0
   -1.5210   22.3490  -28.8800 C   0  0  0  0  0  0  0  0  0  0  0  0
   -1.2260   20.6270  -29.1050 Cl  0  0  0  0  0  0  0  0  0  0  0  0
   -2.3750   23.0760  -29.7390 C   0  0  0  0  0  0  0  0  0  0  0  0
   -3.0670   22.3710  -30.8810 C   0  0  0  0  0  0  0  0  0  0  0  0
   -8.4970   20.6930  -31.5870 C   0  0  0  0  0  0  0  0  0  0  0  0
   -8.4100   19.3660  -32.0160 C   0  0  0  0  0  0  0  0  0  0  0  0
   -7.0866   16.8258  -32.1867 H   0  0  0  0  0  0  0  0  0  0  0  0
   -8.0159   17.1976  -33.6783 H   0  0  0  0  0  0  0  0  0  0  0  0
   -6.2249   17.3350  -33.6783 H   0  0  0  0  0  0  0  0  0  0  0  0
   -5.2342   19.4153  -33.2903 H   0  0  0  0  0  0  0  0  0  0  0  0
   -5.3966   21.7844  -32.5269 H   0  0  0  0  0  0  0  0  0  0  0  0
   -6.8940   22.6481  -28.9738 H   0  0  0  0  0  0  0  0  0  0  0  0
   -5.5379   22.4350  -30.1621 H   0  0  0  0  0  0  0  0  0  0  0  0
   -6.5764   25.1190  -29.1524 H   0  0  0  0  0  0  0  0  0  0  0  0
   -5.1038   24.2364  -28.5376 H   0  0  0  0  0  0  0  0  0  0  0  0
   -2.1012   26.1489  -28.2361 H   0  0  0  0  0  0  0  0  0  0  0  0
   -0.5795   24.8540  -26.7534 H   0  0  0  0  0  0  0  0  0  0  0  0
   -0.2204   22.4205  -27.1475 H   0  0  0  0  0  0  0  0  0  0  0  0
   -3.7845   21.6401  -30.4798 H   0  0  0  0  0  0  0  0  0  0  0  0
   -3.6013   23.1088  -31.4976 H   0  0  0  0  0  0  0  0  0  0  0  0
   -2.3194   21.8505  -31.4976 H   0  0  0  0  0  0  0  0  0  0  0  0
   -9.4117   21.0499  -31.0911 H   0  0  0  0  0  0  0  0  0  0  0  0
   -9.2559   18.6813  -31.8558 H   0  0  0  0  0  0  0  0  0  0  0  0
  1  2  1  0
  2  3  2  0
  3  4  1  0
  4  5  2  0
  5  6  1  0
  6  7  1  0
  7  8  1  0
  8  9  1  0
  9 10  2  0
  9 11  1  0
 11 12  1  0
 12 13  2  0
 13 14  1  0
 14 15  2  0
 15 16  1  0
 16 17  1  0
 16 18  2  0
 18 19  1  0
  5 20  1  0
 20 21  2  0
 21  2  1  0
 18 12  1  0
  1 22  1  0
  1 23  1  0
  1 24  1  0
  3 25  1  0
  4 26  1  0
  7 27  1  0
  7 28  1  0
  8 29  1  0
  8 30  1  0
 13 31  1  0
 14 32  1  0
 15 33  1  0
 19 34  1  0
 19 35  1  0
 19 36  1  0
 20 37  1  0
 21 38  1  0
M  CHG  1  11  -1
M  END
>  <UniqueID>  (41) 
39

>  <SMILES>  (41) 
Cc1ccc(SCCC(=O)[N-]c2cccc(Cl)c2C)cc1

>  <Energy>  (41) 
39.72209678661967

>  <Genealogy>  (41) 
Cc1ccc(SCCC(=O)[N-]c2cccc(Cl)c2C)cc1 (protonated)
Cc1ccc(SCCC(=O)[N-]c2cccc(Cl)c2C)cc1 (3D coordinates assigned)
Cc1ccc(SCCC(=O)[N-]c2cccc(Cl)c2C)cc1 (optimized conformer: 39.72209678661967 kcal/mol)

>  <smiles>  (41) 
Cc1ccc(SCCC(=O)Nc2cccc(Cl)c2C)cc1

>  <score_type>  (41) 
oracle

>  <origin>  (41) 
adgpu

>  <m_score__min__energy>  (41) 
-10.25

>  <m_primary>  (41) 
energy

$$$$
41:0
     RDKit          3D

 36 39  0  0  0  0  0  0  0  0999 V2000
   -4.3660   19.9380  -33.4740 C   0  0  0  0  0  0  0  0  0  0  0  0
   -5.7740   20.3210  -33.1480 C   0  0  0  0  0  0  0  0  0  0  0  0
   -6.8480   19.7850  -33.7590 N   0  0  0  0  0  0  0  0  0  0  0  0
   -7.9040   20.3400  -33.2360 O   0  0  0  0  0  0  0  0  0  0  0  0
   -7.5760   21.2080  -32.3060 C   0  0  0  0  0  0  0  0  0  0  0  0
   -8.5690   22.0030  -31.5220 C   0  0  0  0  0  0  0  0  0  0  0  0
   -6.1950   21.2410  -32.2010 C   0  0  0  0  0  0  0  0  0  0  0  0
   -5.3680   22.0640  -31.2930 C   0  0  0  0  0  0  0  0  0  0  0  0
   -5.7020   23.4050  -31.0460 C   0  0  0  0  0  0  0  0  0  0  0  0
   -4.9200   24.1830  -30.1870 C   0  0  0  0  0  0  0  0  0  0  0  0
   -3.7900   23.6340  -29.5580 C   0  0  0  0  0  0  0  0  0  0  0  0
   -2.9630   24.4570  -28.6490 C   0  0  0  0  0  0  0  0  0  0  0  0
   -1.9900   25.3000  -29.0940 N   0  0  0  0  0  0  0  0  0  0  0  0
   -1.5120   25.8250  -27.9580 C   0  0  0  0  0  0  0  0  0  0  0  0
   -0.4900   26.7610  -27.8140 C   0  0  0  0  0  0  0  0  0  0  0  0
   -0.1590   27.1680  -26.5070 C   0  0  0  0  0  0  0  0  0  0  0  0
   -0.8490   26.6350  -25.3950 C   0  0  0  0  0  0  0  0  0  0  0  0
   -1.8770   25.6920  -25.5810 C   0  0  0  0  0  0  0  0  0  0  0  0
   -2.1760   25.3130  -26.8870 C   0  0  0  0  0  0  0  0  0  0  0  0
   -3.1070   24.4380  -27.2950 N   0  0  0  0  0  0  0  0  0  0  0  0
   -3.4570   22.2910  -29.8060 C   0  0  0  0  0  0  0  0  0  0  0  0
   -4.2390   21.5140  -30.6650 C   0  0  0  0  0  0  0  0  0  0  0  0
   -3.8025   19.7847  -32.5418 H   0  0  0  0  0  0  0  0  0  0  0  0
   -4.3655   19.0071  -34.0600 H   0  0  0  0  0  0  0  0  0  0  0  0
   -3.8941   20.7404  -34.0600 H   0  0  0  0  0  0  0  0  0  0  0  0
   -8.3879   21.8580  -30.4467 H   0  0  0  0  0  0  0  0  0  0  0  0
   -8.4637   23.0693  -31.7711 H   0  0  0  0  0  0  0  0  0  0  0  0
   -9.5864   21.6670  -31.7711 H   0  0  0  0  0  0  0  0  0  0  0  0
   -6.5848   23.8465  -31.5315 H   0  0  0  0  0  0  0  0  0  0  0  0
   -5.1915   25.2328  -30.0022 H   0  0  0  0  0  0  0  0  0  0  0  0
    0.0388   27.1671  -28.6889 H   0  0  0  0  0  0  0  0  0  0  0  0
    0.6419   27.9056  -26.3508 H   0  0  0  0  0  0  0  0  0  0  0  0
   -0.5812   26.9589  -24.3785 H   0  0  0  0  0  0  0  0  0  0  0  0
   -2.4245   25.2696  -24.7255 H   0  0  0  0  0  0  0  0  0  0  0  0
   -2.5747   21.8485  -29.3205 H   0  0  0  0  0  0  0  0  0  0  0  0
   -3.9681   20.4641  -30.8504 H   0  0  0  0  0  0  0  0  0  0  0  0
  1  2  1  0
  2  3  2  0
  3  4  1  0
  4  5  1  0
  5  6  1  0
  5  7  2  0
  7  8  1  0
  8  9  2  0
  9 10  1  0
 10 11  2  0
 11 12  1  0
 12 13  2  0
 13 14  1  0
 14 15  2  0
 15 16  1  0
 16 17  2  0
 17 18  1  0
 18 19  2  0
 19 20  1  0
 11 21  1  0
 21 22  2  0
  7  2  1  0
 22  8  1  0
 20 12  1  0
 19 14  1  0
  1 23  1  0
  1 24  1  0
  1 25  1  0
  6 26  1  0
  6 27  1  0
  6 28  1  0
  9 29  1  0
 10 30  1  0
 15 31  1  0
 16 32  1  0
 17 33  1  0
 18 34  1  0
 21 35  1  0
 22 36  1  0
M  CHG  1  20  -1
M  END
>  <UniqueID>  (42) 
40

>  <SMILES>  (42) 
Cc1noc(C)c1-c1ccc(-c2nc3ccccc3[n-]2)cc1

>  <Energy>  (42) 
109.54224825461856

>  <Genealogy>  (42) 
Cc1noc(C)c1-c1ccc(-c2nc3ccccc3[n-]2)cc1 (protonated)
Cc1noc(C)c1-c1ccc(-c2nc3ccccc3[n-]2)cc1 (3D coordinates assigned)
Cc1noc(C)c1-c1ccc(-c2nc3ccccc3[n-]2)cc1 (optimized conformer: 109.54224825461856 kcal/mol)

>  <smiles>  (42) 
Cc1noc(C)c1-c1ccc(-c2nc3ccccc3[nH]2)cc1

>  <score_type>  (42) 
oracle

>  <origin>  (42) 
adgpu

>  <m_score__min__energy>  (42) 
-8.5399999999999991

>  <m_primary>  (42) 
energy

$$$$
42:0
     RDKit          3D

 54 57  0  0  0  0  0  0  0  0999 V2000
    2.3510   16.5320  -27.0970 C   0  0  0  0  0  0  0  0  0  0  0  0
    0.8720   16.4180  -27.4520 C   0  0  0  0  0  0  0  0  0  0  0  0
    0.2930   17.7710  -27.7670 C   0  0  0  0  0  0  0  0  0  0  0  0
   -0.8740   18.2100  -27.1210 C   0  0  0  0  0  0  0  0  0  0  0  0
   -1.4290   19.4530  -27.4360 C   0  0  0  0  0  0  0  0  0  0  0  0
   -0.8300   20.2650  -28.4080 C   0  0  0  0  0  0  0  0  0  0  0  0
   -1.4170   21.5800  -28.7410 C   0  0  0  0  0  0  0  0  0  0  0  0
   -2.6180   21.6360  -29.4830 C   0  0  0  0  0  0  0  0  0  0  0  0
   -3.2660   20.4660  -29.8970 O   0  0  0  0  0  0  0  0  0  0  0  0
   -3.1910   22.8770  -29.8110 C   0  0  0  0  0  0  0  0  0  0  0  0
   -4.4480   22.9310  -30.5960 C   0  0  0  0  0  0  0  0  0  0  0  0
   -5.3100   24.0310  -30.4770 C   0  0  0  0  0  0  0  0  0  0  0  0
   -6.4940   24.0810  -31.2150 C   0  0  0  0  0  0  0  0  0  0  0  0
   -6.8280   23.0340  -32.0780 C   0  0  0  0  0  0  0  0  0  0  0  0
   -5.9770   21.9230  -32.2130 C   0  0  0  0  0  0  0  0  0  0  0  0
   -6.3260   20.8110  -33.1260 C   0  0  0  0  0  0  0  0  0  0  0  0
   -5.4260   20.2410  -33.8020 O   0  0  0  0  0  0  0  0  0  0  0  0
   -7.6570   20.3940  -33.2380 O   0  0  0  0  0  0  0  0  0  0  0  0
   -8.2670   19.5160  -32.3000 C   0  0  0  0  0  0  0  0  0  0  0  0
   -4.7860   21.8810  -31.4660 C   0  0  0  0  0  0  0  0  0  0  0  0
   -2.5700   24.0690  -29.4000 C   0  0  0  0  0  0  0  0  0  0  0  0
   -3.1340   25.2950  -29.7490 O   0  0  0  0  0  0  0  0  0  0  0  0
   -1.3760   24.0290  -28.6560 C   0  0  0  0  0  0  0  0  0  0  0  0
   -0.7540   25.2230  -28.2400 C   0  0  0  0  0  0  0  0  0  0  0  0
    0.4390   25.1920  -27.5080 C   0  0  0  0  0  0  0  0  0  0  0  0
    1.0700   26.4690  -27.0370 C   0  0  0  0  0  0  0  0  0  0  0  0
    1.0000   23.9590  -27.1590 C   0  0  0  0  0  0  0  0  0  0  0  0
    0.3990   22.7680  -27.5630 C   0  0  0  0  0  0  0  0  0  0  0  0
   -0.7920   22.7800  -28.3210 C   0  0  0  0  0  0  0  0  0  0  0  0
    0.3270   19.8250  -29.0640 C   0  0  0  0  0  0  0  0  0  0  0  0
    0.8840   18.5820  -28.7490 C   0  0  0  0  0  0  0  0  0  0  0  0
    2.4659   16.5409  -26.0031 H   0  0  0  0  0  0  0  0  0  0  0  0
    2.8959   15.6732  -27.5160 H   0  0  0  0  0  0  0  0  0  0  0  0
    2.7579   17.4642  -27.5160 H   0  0  0  0  0  0  0  0  0  0  0  0
    0.7610   15.7648  -28.3301 H   0  0  0  0  0  0  0  0  0  0  0  0
    0.3338   15.9956  -26.5906 H   0  0  0  0  0  0  0  0  0  0  0  0
   -1.3534   17.5724  -26.3636 H   0  0  0  0  0  0  0  0  0  0  0  0
   -2.3382   19.7948  -26.9197 H   0  0  0  0  0  0  0  0  0  0  0  0
   -3.0840   20.0110  -30.7830 H   0  0  0  0  0  0  0  0  0  0  0  0
   -5.0520   24.8580  -29.7991 H   0  0  0  0  0  0  0  0  0  0  0  0
   -7.1656   24.9467  -31.1169 H   0  0  0  0  0  0  0  0  0  0  0  0
   -7.7630   23.0793  -32.6556 H   0  0  0  0  0  0  0  0  0  0  0  0
   -8.0340   19.8514  -31.2786 H   0  0  0  0  0  0  0  0  0  0  0  0
   -9.3570   19.5212  -32.4480 H   0  0  0  0  0  0  0  0  0  0  0  0
   -7.8818   18.4963  -32.4480 H   0  0  0  0  0  0  0  0  0  0  0  0
   -4.1122   21.0171  -31.5640 H   0  0  0  0  0  0  0  0  0  0  0  0
   -1.2112   26.1909  -28.4934 H   0  0  0  0  0  0  0  0  0  0  0  0
    1.0800   26.4892  -25.9372 H   0  0  0  0  0  0  0  0  0  0  0  0
    2.1015   26.5292  -27.4142 H   0  0  0  0  0  0  0  0  0  0  0  0
    0.4911   27.3249  -27.4142 H   0  0  0  0  0  0  0  0  0  0  0  0
    1.9228   23.9291  -26.5610 H   0  0  0  0  0  0  0  0  0  0  0  0
    0.8583   21.8071  -27.2879 H   0  0  0  0  0  0  0  0  0  0  0  0
    0.7985   20.4593  -29.8291 H   0  0  0  0  0  0  0  0  0  0  0  0
    1.7884   18.2382  -29.2723 H   0  0  0  0  0  0  0  0  0  0  0  0
  1  2  1  0
  2  3  1  0
  3  4  2  0
  4  5  1  0
  5  6  2  0
  6  7  1  0
  7  8  2  0
  8  9  1  0
  8 10  1  0
 10 11  1  0
 11 12  2  0
 12 13  1  0
 13 14  2  0
 14 15  1  0
 15 16  1  0
 16 17  2  0
 16 18  1  0
 18 19  1  0
 15 20  2  0
 10 21  2  0
 21 22  1  0
 21 23  1  0
 23 24  2  0
 24 25  1  0
 25 26  1  0
 25 27  2  0
 27 28  1  0
 28 29  2  0
  6 30  1  0
 30 31  2  0
 31  3  1  0
 29  7  1  0
 20 11  1  0
 29 23  1  0
  1 32  1  0
  1 33  1  0
  1 34  1  0
  2 35  1  0
  2 36  1  0
  4 37  1  0
  5 38  1  0
  9 39  1  0
 12 40  1  0
 13 41  1  0
 14 42  1  0
 19 43  1  0
 19 44  1  0
 19 45  1  0
 20 46  1  0
 24 47  1  0
 26 48  1  0
 26 49  1  0
 26 50  1  0
 27 51  1  0
 28 52  1  0
 30 53  1  0
 31 54  1  0
M  CHG  1  22  -1
M  END
>  <UniqueID>  (43) 
41

>  <SMILES>  (43) 
CCc1ccc(-c2c(O)c(-c3cccc(C(=O)OC)c3)c([O-])c3cc(C)ccc23)cc1

>  <Energy>  (43) 
74.71661815418663

>  <Genealogy>  (43) 
CCc1ccc(-c2c(O)c(-c3cccc(C(=O)OC)c3)c([O-])c3cc(C)ccc23)cc1 (protonated)
CCc1ccc(-c2c(O)c(-c3cccc(C(=O)OC)c3)c([O-])c3cc(C)ccc23)cc1 (3D coordinates assigned)
CCc1ccc(-c2c(O)c(-c3cccc(C(=O)OC)c3)c([O-])c3cc(C)ccc23)cc1 (optimized conformer: 74.71661815418663 kcal/mol)

>  <smiles>  (43) 
CCc1ccc(-c2c(O)c(-c3cccc(C(=O)OC)c3)c(O)c3cc(C)ccc23)cc1

>  <score_type>  (43) 
oracle

>  <origin>  (43) 
adgpu

>  <m_score__min__energy>  (43) 
-11.140000000000001

>  <m_primary>  (43) 
energy

$$$$
43:0
     RDKit          3D

 32 33  0  0  0  0  0  0  0  0999 V2000
   -4.8770   26.4210  -31.0030 H   0  0  0  0  0  0  0  0  0  0  0  0
   -4.2620   25.6040  -30.7920 N   0  0  0  0  0  0  0  0  0  0  0  0
   -4.6680   24.3690  -30.8230 C   0  0  0  0  0  0  0  0  0  0  0  0
   -3.7240   23.3530  -30.5060 C   0  0  0  0  0  0  0  0  0  0  0  0
   -2.6990   23.6090  -29.7250 N   0  0  0  0  0  0  0  0  0  0  0  0
   -2.3710   24.8110  -28.9610 C   0  0  0  0  0  0  0  0  0  0  0  0
   -2.4314   24.5895  -27.8852 H   0  0  0  0  0  0  0  0  0  0  0  0
   -1.3509   25.1376  -29.2114 H   0  0  0  0  0  0  0  0  0  0  0  0
   -3.0838   25.6105  -29.2114 H   0  0  0  0  0  0  0  0  0  0  0  0
   -3.7390   22.0580  -31.0730 C   0  0  0  0  0  0  0  0  0  0  0  0
   -2.4470   21.2560  -31.0550 C   0  0  0  0  0  0  0  0  0  0  0  0
   -2.1459   21.0691  -30.0136 H   0  0  0  0  0  0  0  0  0  0  0  0
   -2.6040   20.2963  -31.5692 H   0  0  0  0  0  0  0  0  0  0  0  0
   -1.6566   21.8225  -31.5692 H   0  0  0  0  0  0  0  0  0  0  0  0
   -4.8580   21.3670  -31.5490 C   0  0  0  0  0  0  0  0  0  0  0  0
   -4.6483   20.4047  -32.0389 H   0  0  0  0  0  0  0  0  0  0  0  0
   -6.2020   21.7300  -31.4880 C   0  0  0  0  0  0  0  0  0  0  0  0
   -7.2070   20.6750  -31.7840 C   0  0  0  0  0  0  0  0  0  0  0  0
   -8.5480   21.0150  -32.0450 C   0  0  0  0  0  0  0  0  0  0  0  0
   -8.8575   22.0705  -32.0319 H   0  0  0  0  0  0  0  0  0  0  0  0
   -9.4890   20.0170  -32.3210 C   0  0  0  0  0  0  0  0  0  0  0  0
  -10.5349   20.2893  -32.5256 H   0  0  0  0  0  0  0  0  0  0  0  0
   -9.1010   18.6740  -32.3370 C   0  0  0  0  0  0  0  0  0  0  0  0
   -9.8416   17.8903  -32.5546 H   0  0  0  0  0  0  0  0  0  0  0  0
   -7.7740   18.3270  -32.0770 C   0  0  0  0  0  0  0  0  0  0  0  0
   -7.4706   17.2698  -32.0901 H   0  0  0  0  0  0  0  0  0  0  0  0
   -6.8300   19.3200  -31.8000 C   0  0  0  0  0  0  0  0  0  0  0  0
   -5.7864   19.0402  -31.5934 H   0  0  0  0  0  0  0  0  0  0  0  0
   -6.6930   23.0090  -31.2410 C   0  0  0  0  0  0  0  0  0  0  0  0
   -7.7819   23.0991  -31.1139 H   0  0  0  0  0  0  0  0  0  0  0  0
   -5.9780   24.1540  -31.1400 N   0  0  0  0  0  0  0  0  0  0  0  0
   -6.5750   25.0080  -31.2320 H   0  0  0  0  0  0  0  0  0  0  0  0
  1  2  1  0
  2  3  2  0
  3  4  1  0
  4  5  2  0
  5  6  1  0
  6  7  1  0
  6  8  1  0
  6  9  1  0
  4 10  1  0
 10 11  1  0
 11 12  1  0
 11 13  1  0
 11 14  1  0
 10 15  2  0
 15 16  1  0
 15 17  1  0
 17 18  1  0
 18 19  2  0
 19 20  1  0
 19 21  1  0
 21 22  1  0
 21 23  2  0
 23 24  1  0
 23 25  1  0
 25 26  1  0
 25 27  2  0
 27 28  1  0
 17 29  2  0
 29 30  1  0
 29 31  1  0
 31 32  1  0
 31  3  1  0
 27 18  1  0
M  END
>  <UniqueID>  (44) 
42

>  <SMILES>  (44) 
[H]/N=c1\[nH]cc(-c2ccccc2)cc(C)\c1=N\C

>  <Energy>  (44) 
79.95324697909805

>  <Genealogy>  (44) 
[H]/N=c1\[nH]cc(-c2ccccc2)cc(C)\c1=N\C (cis-trans isomerization)
[H]/N=c1\[nH]cc(-c2ccccc2)cc(C)\c1=N\C (3D coordinates assigned)
[H]/N=c1\[nH]cc(-c2ccccc2)cc(C)\c1=N\C (optimized conformer: 79.95324697909805 kcal/mol)

>  <smiles>  (44) 
CN=c1c(C)cc(-c2ccccc2)c[nH]c1=N

>  <score_type>  (44) 
oracle

>  <origin>  (44) 
adgpu

>  <m_score__min__energy>  (44) 
-7.0800000000000001

>  <m_primary>  (44) 
energy

$$$$
44:0
     RDKit          3D

 31 33  0  0  0  0  0  0  0  0999 V2000
   -6.1160   25.7090  -30.0270 C   0  0  0  0  0  0  0  0  0  0  0  0
   -5.6130   24.4410  -30.5830 N   0  0  0  0  0  0  0  0  0  0  0  0
   -6.4930   23.5440  -31.1450 C   0  0  0  0  0  0  0  0  0  0  0  0
   -7.7280   23.7900  -31.2180 O   0  0  0  0  0  0  0  0  0  0  0  0
   -5.9940   22.3450  -31.6280 C   0  0  0  0  0  0  0  0  0  0  0  0
   -6.6660   21.3290  -32.1960 N   0  0  0  0  0  0  0  0  0  0  0  0
   -5.7360   20.3770  -32.4650 C   0  0  0  0  0  0  0  0  0  0  0  0
   -6.0440   19.0690  -33.0940 C   0  0  0  0  0  0  0  0  0  0  0  0
   -6.9560   18.1820  -32.4960 C   0  0  0  0  0  0  0  0  0  0  0  0
   -7.2320   16.9550  -33.1050 C   0  0  0  0  0  0  0  0  0  0  0  0
   -6.6230   16.6190  -34.2720 N   0  0  0  0  0  0  0  0  0  0  0  0
   -5.7370   17.4540  -34.8770 C   0  0  0  0  0  0  0  0  0  0  0  0
   -5.4330   18.6900  -34.3030 C   0  0  0  0  0  0  0  0  0  0  0  0
   -4.4690   20.8030  -32.0580 C   0  0  0  0  0  0  0  0  0  0  0  0
   -4.6700   22.0660  -31.5310 C   0  0  0  0  0  0  0  0  0  0  0  0
   -3.7810   22.9340  -30.9730 N   0  0  0  0  0  0  0  0  0  0  0  0
   -2.3620   22.5670  -30.8560 C   0  0  0  0  0  0  0  0  0  0  0  0
   -4.2710   24.1230  -30.4700 C   0  0  0  0  0  0  0  0  0  0  0  0
   -3.4840   24.9260  -29.8930 O   0  0  0  0  0  0  0  0  0  0  0  0
   -6.0969   25.6608  -28.9282 H   0  0  0  0  0  0  0  0  0  0  0  0
   -5.4785   26.5377  -30.3688 H   0  0  0  0  0  0  0  0  0  0  0  0
   -7.1482   25.8754  -30.3688 H   0  0  0  0  0  0  0  0  0  0  0  0
   -7.6960   21.2840  -32.3620 H   0  0  0  0  0  0  0  0  0  0  0  0
   -7.4508   18.4530  -31.5517 H   0  0  0  0  0  0  0  0  0  0  0  0
   -7.9445   16.2591  -32.6381 H   0  0  0  0  0  0  0  0  0  0  0  0
   -5.2583   17.1551  -35.8212 H   0  0  0  0  0  0  0  0  0  0  0  0
   -4.7177   19.3655  -34.7949 H   0  0  0  0  0  0  0  0  0  0  0  0
   -3.5193   20.2540  -32.1390 H   0  0  0  0  0  0  0  0  0  0  0  0
   -2.0880   22.4961  -29.7930 H   0  0  0  0  0  0  0  0  0  0  0  0
   -2.1931   21.5956  -31.3437 H   0  0  0  0  0  0  0  0  0  0  0  0
   -1.7433   23.3347  -31.3437 H   0  0  0  0  0  0  0  0  0  0  0  0
  1  2  1  0
  2  3  1  0
  3  4  2  0
  3  5  1  0
  5  6  1  0
  6  7  1  0
  7  8  1  0
  8  9  2  0
  9 10  1  0
 10 11  2  0
 11 12  1  0
 12 13  2  0
  7 14  2  0
 14 15  1  0
 15 16  1  0
 16 17  1  0
 16 18  1  0
 18 19  2  0
 18  2  1  0
 15  5  2  0
 13  8  1  0
  1 20  1  0
  1 21  1  0
  1 22  1  0
  6 23  1  0
  9 24  1  0
 10 25  1  0
 12 26  1  0
 13 27  1  0
 14 28  1  0
 17 29  1  0
 17 30  1  0
 17 31  1  0
M  END
>  <UniqueID>  (45) 
43

>  <SMILES>  (45) 
Cn1c(=O)c2[nH]c(-c3ccncc3)cc2n(C)c1=O

>  <Energy>  (45) 
77.92954635808157

>  <Genealogy>  (45) 
Cn1c(=O)c2[nH]c(-c3ccncc3)cc2n(C)c1=O (3D coordinates assigned)
Cn1c(=O)c2[nH]c(-c3ccncc3)cc2n(C)c1=O (optimized conformer: 77.92954635808157 kcal/mol)

>  <smiles>  (45) 
Cn1c(=O)c2[nH]c(-c3ccncc3)cc2n(C)c1=O

>  <score_type>  (45) 
oracle

>  <origin>  (45) 
adgpu

>  <m_score__min__energy>  (45) 
-6.5

>  <m_primary>  (45) 
energy

$$$$
45:0
     RDKit          3D

 17 18  0  0  0  0  0  0  0  0999 V2000
   -0.8530   25.9710  -26.8670 C   0  0  0  0  0  0  0  0  0  0  0  0
   -0.8710   26.5560  -28.1170 C   0  0  0  0  0  0  0  0  0  0  0  0
   -1.6030   25.8330  -28.9340 O   0  0  0  0  0  0  0  0  0  0  0  0
   -2.0610   24.7960  -28.2740 C   0  0  0  0  0  0  0  0  0  0  0  0
   -2.9610   23.7590  -28.8650 C   0  0  0  0  0  0  0  0  0  0  0  0
   -4.0330   24.4040  -29.6140 N   0  0  0  0  0  0  0  0  0  0  0  0
   -5.3180   24.5430  -29.2540 C   0  0  0  0  0  0  0  0  0  0  0  0
   -6.0050   25.1210  -30.2570 N   0  0  0  0  0  0  0  0  0  0  0  0
   -5.1180   25.3170  -31.2240 N   0  0  0  0  0  0  0  0  0  0  0  0
   -3.9270   24.8780  -30.8410 N   0  0  0  0  0  0  0  0  0  0  0  0
   -1.6240   24.8330  -26.9650 C   0  0  0  0  0  0  0  0  0  0  0  0
   -0.3288   26.3390  -25.9727 H   0  0  0  0  0  0  0  0  0  0  0  0
   -0.3511   27.4867  -28.3881 H   0  0  0  0  0  0  0  0  0  0  0  0
   -2.3804   23.1138  -29.5407 H   0  0  0  0  0  0  0  0  0  0  0  0
   -3.3964   23.1529  -28.0569 H   0  0  0  0  0  0  0  0  0  0  0  0
   -5.7442   24.2326  -28.2886 H   0  0  0  0  0  0  0  0  0  0  0  0
   -1.8446   24.1073  -26.1684 H   0  0  0  0  0  0  0  0  0  0  0  0
  1  2  2  0
  2  3  1  0
  3  4  1  0
  4  5  1  0
  5  6  1  0
  6  7  1  0
  7  8  2  0
  8  9  1  0
  9 10  2  0
  4 11  2  0
 11  1  1  0
 10  6  1  0
  1 12  1  0
  2 13  1  0
  5 14  1  0
  5 15  1  0
  7 16  1  0
 11 17  1  0
M  END
>  <UniqueID>  (46) 
44

>  <SMILES>  (46) 
c1coc(Cn2cnnn2)c1

>  <Energy>  (46) 
80.67291788957863

>  <Genealogy>  (46) 
c1coc(Cn2cnnn2)c1 (3D coordinates assigned)
c1coc(Cn2cnnn2)c1 (optimized conformer: 80.67291788957863 kcal/mol)

>  <smiles>  (46) 
c1coc(Cn2cnnn2)c1

>  <score_type>  (46) 
oracle

>  <origin>  (46) 
adgpu

>  <m_score__min__energy>  (46) 
-5.71

>  <m_primary>  (46) 
energy

$$$$
46:0
     RDKit          3D

 28 30  0  0  0  0  0  0  0  0999 V2000
   -5.1130   20.2120  -32.6460 Cl  0  0  0  0  0  0  0  0  0  0  0  0
   -6.8020   20.6120  -32.3430 C   0  0  0  0  0  0  0  0  0  0  0  0
   -7.7580   19.6700  -32.7430 C   0  0  0  0  0  0  0  0  0  0  0  0
   -9.1170   19.9090  -32.5410 C   0  0  0  0  0  0  0  0  0  0  0  0
   -9.5330   21.0920  -31.9370 C   0  0  0  0  0  0  0  0  0  0  0  0
   -8.5930   22.0420  -31.5320 C   0  0  0  0  0  0  0  0  0  0  0  0
   -7.2130   21.8240  -31.7270 C   0  0  0  0  0  0  0  0  0  0  0  0
   -6.2320   22.8560  -31.2850 C   0  0  0  0  0  0  0  0  0  0  0  0
   -5.9250   24.0550  -31.9040 C   0  0  0  0  0  0  0  0  0  0  0  0
   -4.9870   24.6980  -31.1840 N   0  0  0  0  0  0  0  0  0  0  0  0
   -4.7570   23.8630  -30.1490 C   0  0  0  0  0  0  0  0  0  0  0  0
   -3.7880   24.1380  -29.0680 C   0  0  0  0  0  0  0  0  0  0  0  0
   -2.4140   24.2070  -29.3540 C   0  0  0  0  0  0  0  0  0  0  0  0
   -1.4920   24.4670  -28.3350 C   0  0  0  0  0  0  0  0  0  0  0  0
   -1.9340   24.6630  -27.0230 C   0  0  0  0  0  0  0  0  0  0  0  0
   -3.2980   24.5970  -26.7300 C   0  0  0  0  0  0  0  0  0  0  0  0
   -4.2230   24.3350  -27.7460 C   0  0  0  0  0  0  0  0  0  0  0  0
   -5.4910   22.7760  -30.2070 O   0  0  0  0  0  0  0  0  0  0  0  0
   -7.4342   18.7335  -33.2206 H   0  0  0  0  0  0  0  0  0  0  0  0
   -9.8600   19.1628  -32.8589 H   0  0  0  0  0  0  0  0  0  0  0  0
  -10.6053   21.2791  -31.7782 H   0  0  0  0  0  0  0  0  0  0  0  0
   -8.9332   22.9727  -31.0545 H   0  0  0  0  0  0  0  0  0  0  0  0
   -6.3761   24.4242  -32.8368 H   0  0  0  0  0  0  0  0  0  0  0  0
   -2.0616   24.0557  -30.3850 H   0  0  0  0  0  0  0  0  0  0  0  0
   -0.4177   24.5174  -28.5660 H   0  0  0  0  0  0  0  0  0  0  0  0
   -1.2082   24.8690  -26.2225 H   0  0  0  0  0  0  0  0  0  0  0  0
   -3.6456   24.7514  -25.6979 H   0  0  0  0  0  0  0  0  0  0  0  0
   -5.2960   24.2829  -27.5093 H   0  0  0  0  0  0  0  0  0  0  0  0
  1  2  1  0
  2  3  2  0
  3  4  1  0
  4  5  2  0
  5  6  1  0
  6  7  2  0
  7  8  1  0
  8  9  2  0
  9 10  1  0
 10 11  2  0
 11 12  1  0
 12 13  2  0
 13 14  1  0
 14 15  2  0
 15 16  1  0
 16 17  2  0
 11 18  1  0
  7  2  1  0
 18  8  1  0
 17 12  1  0
  3 19  1  0
  4 20  1  0
  5 21  1  0
  6 22  1  0
  9 23  1  0
 13 24  1  0
 14 25  1  0
 15 26  1  0
 16 27  1  0
 17 28  1  0
M  END
>  <UniqueID>  (47) 
45

>  <SMILES>  (47) 
Clc1ccccc1-c1cnc(-c2ccccc2)o1

>  <Energy>  (47) 
64.57250489242107

>  <Genealogy>  (47) 
Clc1ccccc1-c1cnc(-c2ccccc2)o1 (3D coordinates assigned)
Clc1ccccc1-c1cnc(-c2ccccc2)o1 (optimized conformer: 64.57250489242107 kcal/mol)

>  <smiles>  (47) 
Clc1ccccc1-c1cnc(-c2ccccc2)o1

>  <score_type>  (47) 
oracle

>  <origin>  (47) 
adgpu

>  <m_score__min__energy>  (47) 
-7.4400000000000004

>  <m_primary>  (47) 
energy

$$$$
47:0
     RDKit          3D

 23 23  0  0  0  0  0  0  0  0999 V2000
   -4.1901   21.7404  -28.5730 H   0  0  0  0  0  0  0  0  0  0  0  0
   -3.5710   22.6490  -28.6080 C   0  0  0  0  0  0  0  0  0  0  0  0
   -3.6220   23.4980  -29.7210 C   0  0  0  0  0  0  0  0  0  0  0  0
   -4.5390   23.2020  -30.8750 C   0  0  0  0  0  0  0  0  0  0  0  0
   -3.9316   22.9834  -31.7656 H   0  0  0  0  0  0  0  0  0  0  0  0
   -5.1649   22.3395  -30.6022 H   0  0  0  0  0  0  0  0  0  0  0  0
   -5.4660   24.3860  -31.1840 C   0  0  0  0  0  0  0  0  0  0  0  0
   -5.8023   24.3089  -32.2285 H   0  0  0  0  0  0  0  0  0  0  0  0
   -6.3141   24.3411  -30.4849 H   0  0  0  0  0  0  0  0  0  0  0  0
   -4.8000   25.6750  -30.9980 N   0  0  0  0  0  0  0  0  0  0  0  0
   -4.6250   25.8280  -29.9780 H   0  0  0  0  0  0  0  0  0  0  0  0
   -3.8750   25.6570  -31.4860 H   0  0  0  0  0  0  0  0  0  0  0  0
   -2.8590   24.6260  -29.7420 N   0  0  0  0  0  0  0  0  0  0  0  0
   -2.0260   24.9650  -28.7220 C   0  0  0  0  0  0  0  0  0  0  0  0
   -1.3290   26.0610  -28.8260 N   0  0  0  0  0  0  0  0  0  0  0  0
   -0.3900   26.5800  -27.8350 C   0  0  0  0  0  0  0  0  0  0  0  0
   -0.7701   26.3699  -26.8244 H   0  0  0  0  0  0  0  0  0  0  0  0
    0.5881   26.0944  -27.9671 H   0  0  0  0  0  0  0  0  0  0  0  0
   -0.2808   27.6666  -27.9671 H   0  0  0  0  0  0  0  0  0  0  0  0
   -1.9490   24.1240  -27.5920 C   0  0  0  0  0  0  0  0  0  0  0  0
   -1.2812   24.3780  -26.7556 H   0  0  0  0  0  0  0  0  0  0  0  0
   -2.7270   22.9680  -27.5450 C   0  0  0  0  0  0  0  0  0  0  0  0
   -2.6749   22.3064  -26.6677 H   0  0  0  0  0  0  0  0  0  0  0  0
  1  2  1  0
  2  3  2  0
  3  4  1  0
  4  5  1  0
  4  6  1  0
  4  7  1  0
  7  8  1  0
  7  9  1  0
  7 10  1  0
 10 11  1  0
 10 12  1  0
  3 13  1  0
 13 14  1  0
 14 15  2  0
 15 16  1  0
 16 17  1  0
 16 18  1  0
 16 19  1  0
 14 20  1  0
 20 21  1  0
 20 22  2  0
 22 23  1  0
 22  2  1  0
M  CHG  1  13  -1
M  END
>  <UniqueID>  (48) 
46

>  <SMILES>  (48) 
C/N=c1\cccc(CCN)[n-]1

>  <Energy>  (48) 
19.08163197034223

>  <Genealogy>  (48) 
CN=c1cccc(CCN)[n-]1 (protonated)
C/N=c1\cccc(CCN)[n-]1 (cis-trans isomerization)
C/N=c1\cccc(CCN)[n-]1 (3D coordinates assigned)
C/N=c1\cccc(CCN)[n-]1 (optimized conformer: 19.08163197034223 kcal/mol)

>  <smiles>  (48) 
CN=c1cccc(CCN)[nH]1

>  <score_type>  (48) 
oracle

>  <origin>  (48) 
adgpu

>  <m_score__min__energy>  (48) 
-6.54

>  <m_primary>  (48) 
energy

$$$$
