0:0
     RDKit          3D

 49 52  0  0  0  0  0  0  0  0999 V2000
   -7.2310   23.4270  -30.1440 C   0  0  0  0  0  0  0  0  0  0  0  0
   -6.6190   22.5080  -31.1690 C   0  0  0  0  0  0  0  0  0  0  0  0
   -7.4440   21.6150  -31.8620 C   0  0  0  0  0  0  0  0  0  0  0  0
   -6.8850   20.7750  -32.8230 C   0  0  0  0  0  0  0  0  0  0  0  0
   -7.6180   19.9760  -33.4640 O   0  0  0  0  0  0  0  0  0  0  0  0
   -5.5820   20.8080  -33.0680 O   0  0  0  0  0  0  0  0  0  0  0  0
   -4.7430   21.6200  -32.4280 C   0  0  0  0  0  0  0  0  0  0  0  0
   -3.2870   21.5410  -32.7820 C   0  0  0  0  0  0  0  0  0  0  0  0
   -5.2330   22.5180  -31.4480 C   0  0  0  0  0  0  0  0  0  0  0  0
   -4.3170   23.4330  -30.7300 C   0  0  0  0  0  0  0  0  0  0  0  0
   -4.3110   24.6600  -31.0180 O   0  0  0  0  0  0  0  0  0  0  0  0
   -3.4060   22.9160  -29.7490 N   0  0  0  0  0  0  0  0  0  0  0  0
   -2.7420   23.7240  -28.7620 C   0  0  0  0  0  0  0  0  0  0  0  0
   -1.3780   24.0180  -28.9160 C   0  0  0  0  0  0  0  0  0  0  0  0
   -0.7050   24.7800  -27.9580 C   0  0  0  0  0  0  0  0  0  0  0  0
   -1.3840   25.2450  -26.8230 C   0  0  0  0  0  0  0  0  0  0  0  0
   -0.6890   26.0280  -25.8360 N   0  0  0  0  0  0  0  0  0  0  0  0
   -0.2550   25.4520  -24.6660 C   0  0  0  0  0  0  0  0  0  0  0  0
   -0.4780   23.9950  -24.3720 C   0  0  0  0  0  0  0  0  0  0  0  0
    0.3900   26.2040  -23.7370 N   0  0  0  0  0  0  0  0  0  0  0  0
    0.6350   27.5220  -23.9320 C   0  0  0  0  0  0  0  0  0  0  0  0
    1.3050   28.2630  -22.9510 C   0  0  0  0  0  0  0  0  0  0  0  0
    1.5590   29.6220  -23.1530 C   0  0  0  0  0  0  0  0  0  0  0  0
    1.1440   30.2450  -24.3340 C   0  0  0  0  0  0  0  0  0  0  0  0
    0.4730   29.5120  -25.3180 C   0  0  0  0  0  0  0  0  0  0  0  0
    0.2130   28.1420  -25.1230 C   0  0  0  0  0  0  0  0  0  0  0  0
   -0.4580   27.3590  -26.0760 C   0  0  0  0  0  0  0  0  0  0  0  0
   -0.8550   27.8860  -27.1550 O   0  0  0  0  0  0  0  0  0  0  0  0
   -2.7400   24.9390  -26.6550 C   0  0  0  0  0  0  0  0  0  0  0  0
   -3.4150   24.1780  -27.6130 C   0  0  0  0  0  0  0  0  0  0  0  0
   -6.9888   23.0634  -29.1345 H   0  0  0  0  0  0  0  0  0  0  0  0
   -6.8279   24.4421  -30.2746 H   0  0  0  0  0  0  0  0  0  0  0  0
   -8.3230   23.4465  -30.2746 H   0  0  0  0  0  0  0  0  0  0  0  0
   -8.5227   21.5766  -31.6503 H   0  0  0  0  0  0  0  0  0  0  0  0
   -2.6869   21.5084  -31.8607 H   0  0  0  0  0  0  0  0  0  0  0  0
   -3.1020   20.6315  -33.3724 H   0  0  0  0  0  0  0  0  0  0  0  0
   -3.0047   22.4251  -33.3724 H   0  0  0  0  0  0  0  0  0  0  0  0
   -3.1550   21.9020  -29.8060 H   0  0  0  0  0  0  0  0  0  0  0  0
   -0.8353   23.6457  -29.7974 H   0  0  0  0  0  0  0  0  0  0  0  0
    0.3607   25.0159  -28.0945 H   0  0  0  0  0  0  0  0  0  0  0  0
   -0.5017   23.8401  -23.2832 H   0  0  0  0  0  0  0  0  0  0  0  0
   -1.4356   23.6752  -24.8088 H   0  0  0  0  0  0  0  0  0  0  0  0
    0.3401   23.4034  -24.8088 H   0  0  0  0  0  0  0  0  0  0  0  0
    1.6316   27.7750  -22.0208 H   0  0  0  0  0  0  0  0  0  0  0  0
    2.0863   30.2027  -22.3818 H   0  0  0  0  0  0  0  0  0  0  0  0
    1.3459   31.3151  -24.4896 H   0  0  0  0  0  0  0  0  0  0  0  0
    0.1480   30.0063  -26.2454 H   0  0  0  0  0  0  0  0  0  0  0  0
   -3.2764   25.2993  -25.7648 H   0  0  0  0  0  0  0  0  0  0  0  0
   -4.4775   23.9328  -27.4681 H   0  0  0  0  0  0  0  0  0  0  0  0
  1  2  1  0
  2  3  2  0
  3  4  1  0
  4  5  2  0
  4  6  1  0
  6  7  1  0
  7  8  1  0
  7  9  2  0
  9 10  1  0
 10 11  2  0
 10 12  1  0
 12 13  1  0
 13 14  2  0
 14 15  1  0
 15 16  2  0
 16 17  1  0
 17 18  1  0
 18 19  1  0
 18 20  2  0
 20 21  1  0
 21 22  2  0
 22 23  1  0
 23 24  2  0
 24 25  1  0
 25 26  2  0
 26 27  1  0
 27 28  2  0
 16 29  1  0
 29 30  2  0
  9  2  1  0
 30 13  1  0
 27 17  1  0
 26 21  1  0
  1 31  1  0
  1 32  1  0
  1 33  1  0
  3 34  1  0
  8 35  1  0
  8 36  1  0
  8 37  1  0
 12 38  1  0
 14 39  1  0
 15 40  1  0
 19 41  1  0
 19 42  1  0
 19 43  1  0
 22 44  1  0
 23 45  1  0
 24 46  1  0
 25 47  1  0
 29 48  1  0
 30 49  1  0
M  END
>  <UniqueID>  (1) 
1

>  <SMILES>  (1) 
Cc1cc(=O)oc(C)c1C(=O)Nc1ccc(-n2c(C)nc3ccccc3c2=O)cc1

>  <Energy>  (1) 
78.16775487555209

>  <Genealogy>  (1) 
Cc1cc(=O)oc(C)c1C(=O)Nc1ccc(-n2c(C)nc3ccccc3c2=O)cc1 (3D coordinates assigned)
Cc1cc(=O)oc(C)c1C(=O)Nc1ccc(-n2c(C)nc3ccccc3c2=O)cc1 (optimized conformer: 78.16775487555209 kcal/mol)

>  <smiles>  (1) 
Cc1cc(=O)oc(C)c1C(=O)Nc1ccc(-n2c(C)nc3ccccc3c2=O)cc1

>  <score_type>  (1) 
oracle

>  <origin>  (1) 
adgpu

>  <m_score__min__energy>  (1) 
-8.4499999999999993

>  <m_primary>  (1) 
energy

$$$$
1:0
     RDKit          3D

 52 55  0  0  0  0  0  0  0  0999 V2000
   -6.0660   17.5320  -34.2920 C   0  0  0  0  0  0  0  0  0  0  0  0
   -6.1670   18.9290  -34.5490 O   0  0  0  0  0  0  0  0  0  0  0  0
   -5.7000   19.9290  -33.6820 C   0  0  0  0  0  0  0  0  0  0  0  0
   -6.5690   20.7990  -32.9950 C   0  0  0  0  0  0  0  0  0  0  0  0
   -6.0570   21.7810  -32.1420 C   0  0  0  0  0  0  0  0  0  0  0  0
   -4.6680   21.9130  -31.9590 C   0  0  0  0  0  0  0  0  0  0  0  0
   -4.1020   22.9440  -31.0590 C   0  0  0  0  0  0  0  0  0  0  0  0
   -3.3110   22.7470  -29.9420 C   0  0  0  0  0  0  0  0  0  0  0  0
   -3.0620   24.0290  -29.4800 C   0  0  0  0  0  0  0  0  0  0  0  0
   -2.2540   24.4150  -28.2970 C   0  0  0  0  0  0  0  0  0  0  0  0
   -2.1220   23.5540  -27.1920 C   0  0  0  0  0  0  0  0  0  0  0  0
   -1.3580   23.9340  -26.0870 C   0  0  0  0  0  0  0  0  0  0  0  0
   -0.7130   25.1750  -26.0630 C   0  0  0  0  0  0  0  0  0  0  0  0
    0.0700   25.5300  -24.9160 N   0  0  0  0  0  0  0  0  0  0  0  0
   -0.5830   25.8030  -23.6360 C   0  0  0  0  0  0  0  0  0  0  0  0
    0.0180   27.0560  -22.9670 C   0  0  0  0  0  0  0  0  0  0  0  0
    1.4630   27.2820  -23.2630 N   0  0  0  0  0  0  0  0  0  0  0  0
    1.6480   28.4020  -24.2070 C   0  0  0  0  0  0  0  0  0  0  0  0
    2.1630   26.0620  -23.7270 C   0  0  0  0  0  0  0  0  0  0  0  0
    1.5300   25.4900  -25.0030 C   0  0  0  0  0  0  0  0  0  0  0  0
   -0.8370   26.0490  -27.1600 C   0  0  0  0  0  0  0  0  0  0  0  0
   -0.1950   27.3310  -27.1610 N   0  0  0  0  0  0  0  0  0  0  0  0
   -1.6070   25.6630  -28.2670 C   0  0  0  0  0  0  0  0  0  0  0  0
   -3.6750   24.9160  -30.2890 N   0  0  0  0  0  0  0  0  0  0  0  0
   -4.2840   24.2350  -31.2160 O   0  0  0  0  0  0  0  0  0  0  0  0
   -3.8070   21.0420  -32.6460 C   0  0  0  0  0  0  0  0  0  0  0  0
   -4.3210   20.0620  -33.4990 C   0  0  0  0  0  0  0  0  0  0  0  0
   -6.0535   17.3590  -33.2058 H   0  0  0  0  0  0  0  0  0  0  0  0
   -6.9291   17.0142  -34.7359 H   0  0  0  0  0  0  0  0  0  0  0  0
   -5.1374   17.1437  -34.7359 H   0  0  0  0  0  0  0  0  0  0  0  0
   -7.6566   20.7052  -33.1305 H   0  0  0  0  0  0  0  0  0  0  0  0
   -6.7445   22.4551  -31.6102 H   0  0  0  0  0  0  0  0  0  0  0  0
   -2.9609   21.7940  -29.5187 H   0  0  0  0  0  0  0  0  0  0  0  0
   -2.6240   22.5752  -27.1988 H   0  0  0  0  0  0  0  0  0  0  0  0
   -1.2625   23.2525  -25.2289 H   0  0  0  0  0  0  0  0  0  0  0  0
   -1.6572   25.9666  -23.8075 H   0  0  0  0  0  0  0  0  0  0  0  0
   -0.4267   24.9408  -22.9711 H   0  0  0  0  0  0  0  0  0  0  0  0
   -0.5454   27.9346  -23.3142 H   0  0  0  0  0  0  0  0  0  0  0  0
   -0.0582   26.8981  -21.8811 H   0  0  0  0  0  0  0  0  0  0  0  0
    1.9280   27.5720  -22.3700 H   0  0  0  0  0  0  0  0  0  0  0  0
    1.8020   29.3344  -23.6440 H   0  0  0  0  0  0  0  0  0  0  0  0
    2.5260   28.2067  -24.8401 H   0  0  0  0  0  0  0  0  0  0  0  0
    0.7538   28.4994  -24.8401 H   0  0  0  0  0  0  0  0  0  0  0  0
    3.2144   26.3116  -23.9325 H   0  0  0  0  0  0  0  0  0  0  0  0
    2.0835   25.3015  -22.9362 H   0  0  0  0  0  0  0  0  0  0  0  0
    1.8571   26.0863  -25.8675 H   0  0  0  0  0  0  0  0  0  0  0  0
    1.8498   24.4440  -25.1194 H   0  0  0  0  0  0  0  0  0  0  0  0
    0.8310   27.4120  -26.9830 H   0  0  0  0  0  0  0  0  0  0  0  0
   -0.7250   28.2100  -27.3470 H   0  0  0  0  0  0  0  0  0  0  0  0
   -1.7061   26.3461  -29.1235 H   0  0  0  0  0  0  0  0  0  0  0  0
   -2.7190   21.1320  -32.5115 H   0  0  0  0  0  0  0  0  0  0  0  0
   -3.6335   19.3886  -34.0317 H   0  0  0  0  0  0  0  0  0  0  0  0
  1  2  1  0
  2  3  1  0
  3  4  2  0
  4  5  1  0
  5  6  2  0
  6  7  1  0
  7  8  2  0
  8  9  1  0
  9 10  1  0
 10 11  2  0
 11 12  1  0
 12 13  2  0
 13 14  1  0
 14 15  1  0
 15 16  1  0
 16 17  1  0
 17 18  1  0
 17 19  1  0
 19 20  1  0
 13 21  1  0
 21 22  1  0
 21 23  2  0
  9 24  2  0
 24 25  1  0
  6 26  1  0
 26 27  2  0
 27  3  1  0
 25  7  1  0
 23 10  1  0
 20 14  1  0
  1 28  1  0
  1 29  1  0
  1 30  1  0
  4 31  1  0
  5 32  1  0
  8 33  1  0
 11 34  1  0
 12 35  1  0
 15 36  1  0
 15 37  1  0
 16 38  1  0
 16 39  1  0
 17 40  1  0
 18 41  1  0
 18 42  1  0
 18 43  1  0
 19 44  1  0
 19 45  1  0
 20 46  1  0
 20 47  1  0
 22 48  1  0
 22 49  1  0
 23 50  1  0
 26 51  1  0
 27 52  1  0
M  CHG  1  17   1
M  END
>  <UniqueID>  (2) 
2

>  <SMILES>  (2) 
COc1ccc(-c2cc(-c3ccc(N4CC[NH+](C)CC4)c(N)c3)no2)cc1

>  <Energy>  (2) 
100.09533751391434

>  <Genealogy>  (2) 
COc1ccc(-c2cc(-c3ccc(N4CC[NH+](C)CC4)c(N)c3)no2)cc1 (protonated)
COc1ccc(-c2cc(-c3ccc(N4CC[NH+](C)CC4)c(N)c3)no2)cc1 (3D coordinates assigned)
COc1ccc(-c2cc(-c3ccc(N4CC[NH+](C)CC4)c(N)c3)no2)cc1 (nonaromatic ring conformer: 100.09533751391434 kcal/mol)

>  <smiles>  (2) 
COc1ccc(-c2cc(-c3ccc(N4CCN(C)CC4)c(N)c3)no2)cc1

>  <score_type>  (2) 
oracle

>  <origin>  (2) 
adgpu

>  <m_score__min__energy>  (2) 
-8.7799999999999994

>  <m_primary>  (2) 
energy

$$$$
2:0
     RDKit          3D

 35 36  0  0  0  0  0  0  0  0999 V2000
   -4.2340   14.8530  -35.1250 N   0  0  0  0  0  0  0  0  0  0  0  0
   -5.6240   14.8830  -34.0980 S   0  0  0  0  0  0  0  0  0  0  0  0
   -5.2950   14.2280  -32.7860 O   0  0  0  0  0  0  0  0  0  0  0  0
   -6.7370   14.1270  -34.7690 O   0  0  0  0  0  0  0  0  0  0  0  0
   -6.1170   16.5480  -33.8120 C   0  0  0  0  0  0  0  0  0  0  0  0
   -5.5440   17.5870  -34.5580 C   0  0  0  0  0  0  0  0  0  0  0  0
   -5.9280   18.9120  -34.3290 C   0  0  0  0  0  0  0  0  0  0  0  0
   -6.8700   19.2160  -33.3390 C   0  0  0  0  0  0  0  0  0  0  0  0
   -7.2590   20.5830  -33.1490 N   0  0  0  0  0  0  0  0  0  0  0  0
   -6.6830   21.4980  -32.2080 C   0  0  0  0  0  0  0  0  0  0  0  0
   -7.3180   21.7620  -31.1520 O   0  0  0  0  0  0  0  0  0  0  0  0
   -5.4560   22.1830  -32.5050 N   0  0  0  0  0  0  0  0  0  0  0  0
   -4.6370   22.8280  -31.5160 C   0  0  0  0  0  0  0  0  0  0  0  0
   -5.0500   24.0120  -30.8780 C   0  0  0  0  0  0  0  0  0  0  0  0
   -4.2450   24.6070  -29.9010 C   0  0  0  0  0  0  0  0  0  0  0  0
   -3.0240   24.0240  -29.5420 C   0  0  0  0  0  0  0  0  0  0  0  0
   -2.0170   24.7620  -28.3010 S   0  0  0  0  0  0  0  0  0  0  0  0
   -1.1830   26.1210  -28.9660 N   0  0  0  0  0  0  0  0  0  0  0  0
   -2.8740   25.2100  -27.1500 O   0  0  0  0  0  0  0  0  0  0  0  0
   -1.0160   23.7610  -27.7950 O   0  0  0  0  0  0  0  0  0  0  0  0
   -2.6210   22.8290  -30.1550 C   0  0  0  0  0  0  0  0  0  0  0  0
   -3.4250   22.2340  -31.1300 C   0  0  0  0  0  0  0  0  0  0  0  0
   -7.4580   18.1710  -32.6050 C   0  0  0  0  0  0  0  0  0  0  0  0
   -7.0750   16.8470  -32.8340 C   0  0  0  0  0  0  0  0  0  0  0  0
   -4.2620   15.7240  -35.7020 H   0  0  0  0  0  0  0  0  0  0  0  0
   -4.7900   17.3595  -35.3259 H   0  0  0  0  0  0  0  0  0  0  0  0
   -5.4871   19.7205  -34.9306 H   0  0  0  0  0  0  0  0  0  0  0  0
   -5.1910   22.2900  -33.5100 H   0  0  0  0  0  0  0  0  0  0  0  0
   -6.0115   24.4725  -31.1491 H   0  0  0  0  0  0  0  0  0  0  0  0
   -4.5727   25.5367  -29.4129 H   0  0  0  0  0  0  0  0  0  0  0  0
   -1.2300   26.0270  -30.0050 H   0  0  0  0  0  0  0  0  0  0  0  0
   -1.6691   22.3588  -29.8673 H   0  0  0  0  0  0  0  0  0  0  0  0
   -3.1057   21.2918  -31.5994 H   0  0  0  0  0  0  0  0  0  0  0  0
   -8.2228   18.3967  -31.8473 H   0  0  0  0  0  0  0  0  0  0  0  0
   -7.5273   16.0361  -32.2442 H   0  0  0  0  0  0  0  0  0  0  0  0
  1  2  1  0
  2  3  2  0
  2  4  2  0
  2  5  1  0
  5  6  2  0
  6  7  1  0
  7  8  2  0
  8  9  1  0
  9 10  1  0
 10 11  2  0
 10 12  1  0
 12 13  1  0
 13 14  2  0
 14 15  1  0
 15 16  2  0
 16 17  1  0
 17 18  1  0
 17 19  2  0
 17 20  2  0
 16 21  1  0
 21 22  2  0
  8 23  1  0
 23 24  2  0
 24  5  1  0
 22 13  1  0
  1 25  1  0
  6 26  1  0
  7 27  1  0
 12 28  1  0
 14 29  1  0
 15 30  1  0
 18 31  1  0
 21 32  1  0
 22 33  1  0
 23 34  1  0
 24 35  1  0
M  CHG  3   1  -1   9  -1  18  -1
M  END
>  <UniqueID>  (3) 
3

>  <SMILES>  (3) 
[NH-]S(=O)(=O)c1ccc([N-]C(=O)Nc2ccc(S([NH-])(=O)=O)cc2)cc1

>  <Energy>  (3) 
42.025559657580246

>  <Genealogy>  (3) 
[NH-]S(=O)(=O)c1ccc([N-]C(=O)Nc2ccc(S([NH-])(=O)=O)cc2)cc1 (protonated)
[NH-]S(=O)(=O)c1ccc([N-]C(=O)Nc2ccc(S([NH-])(=O)=O)cc2)cc1 (3D coordinates assigned)
[NH-]S(=O)(=O)c1ccc([N-]C(=O)Nc2ccc(S([NH-])(=O)=O)cc2)cc1 (optimized conformer: 42.025559657580246 kcal/mol)

>  <smiles>  (3) 
NS(=O)(=O)c1ccc(NC(=O)Nc2ccc(S(N)(=O)=O)cc2)cc1

>  <score_type>  (3) 
oracle

>  <origin>  (3) 
adgpu

>  <m_score__min__energy>  (3) 
-9.5399999999999991

>  <m_primary>  (3) 
energy

$$$$
3:0
     RDKit          3D

 43 46  0  0  0  0  0  0  0  0999 V2000
   -0.0900   23.0290  -24.7490 C   0  0  0  0  0  0  0  0  0  0  0  0
    0.2860   23.0070  -26.2380 C   0  0  0  0  0  0  0  0  0  0  0  0
   -0.8480   23.2750  -27.1500 N   0  0  0  0  0  0  0  0  0  0  0  0
   -0.4200   23.6740  -28.5130 C   0  0  0  0  0  0  0  0  0  0  0  0
   -1.4690   23.3680  -29.6010 C   0  0  0  0  0  0  0  0  0  0  0  0
   -2.8340   23.4410  -29.0640 N   0  0  0  0  0  0  0  0  0  0  0  0
   -3.9070   23.7990  -29.9520 C   0  0  0  0  0  0  0  0  0  0  0  0
   -4.3420   25.0910  -30.0100 N   0  0  0  0  0  0  0  0  0  0  0  0
   -5.3610   25.4670  -30.8410 C   0  0  0  0  0  0  0  0  0  0  0  0
   -5.9820   24.5460  -31.6320 N   0  0  0  0  0  0  0  0  0  0  0  0
   -5.5810   23.2500  -31.5900 C   0  0  0  0  0  0  0  0  0  0  0  0
   -6.1590   22.2120  -32.3240 C   0  0  0  0  0  0  0  0  0  0  0  0
   -5.5700   20.9690  -32.0510 C   0  0  0  0  0  0  0  0  0  0  0  0
   -5.9440   19.6620  -32.6500 C   0  0  0  0  0  0  0  0  0  0  0  0
   -5.3810   19.2310  -33.8680 C   0  0  0  0  0  0  0  0  0  0  0  0
   -5.7430   18.0000  -34.4220 C   0  0  0  0  0  0  0  0  0  0  0  0
   -6.6680   17.1820  -33.7710 C   0  0  0  0  0  0  0  0  0  0  0  0
   -7.0170   15.9880  -34.3110 F   0  0  0  0  0  0  0  0  0  0  0  0
   -7.2370   17.5970  -32.5660 C   0  0  0  0  0  0  0  0  0  0  0  0
   -6.8800   18.8280  -32.0070 C   0  0  0  0  0  0  0  0  0  0  0  0
   -4.3420   21.2000  -30.9000 S   0  0  0  0  0  0  0  0  0  0  0  0
   -4.5490   22.8600  -30.7620 C   0  0  0  0  0  0  0  0  0  0  0  0
   -3.1490   22.7790  -27.7890 C   0  0  0  0  0  0  0  0  0  0  0  0
   -1.8830   22.2290  -27.1310 C   0  0  0  0  0  0  0  0  0  0  0  0
    0.8239   22.9755  -24.1392 H   0  0  0  0  0  0  0  0  0  0  0  0
   -0.6292   23.9602  -24.5207 H   0  0  0  0  0  0  0  0  0  0  0  0
   -0.7341   22.1670  -24.5207 H   0  0  0  0  0  0  0  0  0  0  0  0
    1.0572   23.7720  -26.4112 H   0  0  0  0  0  0  0  0  0  0  0  0
    0.6400   21.9898  -26.4614 H   0  0  0  0  0  0  0  0  0  0  0  0
   -0.2234   24.7563  -28.5134 H   0  0  0  0  0  0  0  0  0  0  0  0
    0.4782   23.0869  -28.7551 H   0  0  0  0  0  0  0  0  0  0  0  0
   -1.3648   24.1006  -30.4149 H   0  0  0  0  0  0  0  0  0  0  0  0
   -1.2965   22.3466  -29.9712 H   0  0  0  0  0  0  0  0  0  0  0  0
   -5.6816   26.5188  -30.8715 H   0  0  0  0  0  0  0  0  0  0  0  0
   -6.9845   22.3537  -33.0370 H   0  0  0  0  0  0  0  0  0  0  0  0
   -4.6505   19.8689  -34.3870 H   0  0  0  0  0  0  0  0  0  0  0  0
   -5.2977   17.6748  -35.3738 H   0  0  0  0  0  0  0  0  0  0  0  0
   -7.9683   16.9539  -32.0546 H   0  0  0  0  0  0  0  0  0  0  0  0
   -7.3337   19.1479  -31.0574 H   0  0  0  0  0  0  0  0  0  0  0  0
   -3.6193   23.5072  -27.1119 H   0  0  0  0  0  0  0  0  0  0  0  0
   -3.8333   21.9411  -27.9883 H   0  0  0  0  0  0  0  0  0  0  0  0
   -2.1007   21.9427  -26.0915 H   0  0  0  0  0  0  0  0  0  0  0  0
   -1.5303   21.3432  -27.6796 H   0  0  0  0  0  0  0  0  0  0  0  0
  1  2  1  0
  2  3  1  0
  3  4  1  0
  4  5  1  0
  5  6  1  0
  6  7  1  0
  7  8  2  0
  8  9  1  0
  9 10  2  0
 10 11  1  0
 11 12  1  0
 12 13  2  0
 13 14  1  0
 14 15  2  0
 15 16  1  0
 16 17  2  0
 17 18  1  0
 17 19  1  0
 19 20  2  0
 13 21  1  0
 21 22  1  0
  6 23  1  0
 23 24  1  0
 24  3  1  0
 22  7  1  0
 22 11  2  0
 20 14  1  0
  1 25  1  0
  1 26  1  0
  1 27  1  0
  2 28  1  0
  2 29  1  0
  4 30  1  0
  4 31  1  0
  5 32  1  0
  5 33  1  0
  9 34  1  0
 12 35  1  0
 15 36  1  0
 16 37  1  0
 19 38  1  0
 20 39  1  0
 23 40  1  0
 23 41  1  0
 24 42  1  0
 24 43  1  0
M  END
>  <UniqueID>  (4) 
4

>  <SMILES>  (4) 
CCN1CCN(c2ncnc3cc(-c4ccc(F)cc4)sc23)CC1

>  <Energy>  (4) 
93.01203908238239

>  <Genealogy>  (4) 
CCN1CCN(c2ncnc3cc(-c4ccc(F)cc4)sc23)CC1 (3D coordinates assigned)
CCN1CCN(c2ncnc3cc(-c4ccc(F)cc4)sc23)CC1 (nonaromatic ring conformer: 93.01203908238239 kcal/mol)

>  <smiles>  (4) 
CCN1CCN(c2ncnc3cc(-c4ccc(F)cc4)sc23)CC1

>  <score_type>  (4) 
oracle

>  <origin>  (4) 
adgpu

>  <m_score__min__energy>  (4) 
-7.6500000000000004

>  <m_primary>  (4) 
energy

$$$$
4:0
     RDKit          3D

 44 46  0  0  0  0  0  0  0  0999 V2000
   -2.2960   25.6810  -25.9350 C   0  0  0  0  0  0  0  0  0  0  0  0
   -0.8720   25.8490  -26.2160 N   0  0  0  0  0  0  0  0  0  0  0  0
   -0.4650   25.0670  -27.7150 S   0  0  0  0  0  0  0  0  0  0  0  0
    1.0310   24.9920  -27.8360 O   0  0  0  0  0  0  0  0  0  0  0  0
   -1.0000   25.9090  -28.8390 O   0  0  0  0  0  0  0  0  0  0  0  0
   -1.1270   23.4210  -27.7890 C   0  0  0  0  0  0  0  0  0  0  0  0
   -0.8120   22.5220  -26.7560 C   0  0  0  0  0  0  0  0  0  0  0  0
   -1.3500   21.2330  -26.7460 C   0  0  0  0  0  0  0  0  0  0  0  0
   -2.2050   20.8240  -27.7700 C   0  0  0  0  0  0  0  0  0  0  0  0
   -2.5060   21.6950  -28.8170 C   0  0  0  0  0  0  0  0  0  0  0  0
   -1.9560   22.9840  -28.8520 C   0  0  0  0  0  0  0  0  0  0  0  0
   -2.2360   23.8160  -29.9840 N   0  0  0  0  0  0  0  0  0  0  0  0
   -3.5620   24.0410  -30.4930 C   0  0  0  0  0  0  0  0  0  0  0  0
   -4.2880   23.0250  -31.1400 C   0  0  0  0  0  0  0  0  0  0  0  0
   -5.5820   23.2920  -31.6310 C   0  0  0  0  0  0  0  0  0  0  0  0
   -6.2910   22.3990  -32.2670 N   0  0  0  0  0  0  0  0  0  0  0  0
   -5.9600   21.0160  -32.4750 C   0  0  0  0  0  0  0  0  0  0  0  0
   -6.7940   20.0030  -31.9690 C   0  0  0  0  0  0  0  0  0  0  0  0
   -6.4910   18.6590  -32.1990 C   0  0  0  0  0  0  0  0  0  0  0  0
   -5.3690   18.3140  -32.9530 C   0  0  0  0  0  0  0  0  0  0  0  0
   -4.5510   19.3130  -33.4870 C   0  0  0  0  0  0  0  0  0  0  0  0
   -4.8440   20.6670  -33.2620 C   0  0  0  0  0  0  0  0  0  0  0  0
   -3.9930   21.6760  -33.8190 N   0  0  0  0  0  0  0  0  0  0  0  0
   -6.1120   24.5760  -31.4710 C   0  0  0  0  0  0  0  0  0  0  0  0
   -5.3670   25.5570  -30.8140 C   0  0  0  0  0  0  0  0  0  0  0  0
   -4.1250   25.2700  -30.3450 N   0  0  0  0  0  0  0  0  0  0  0  0
   -2.4553   25.6622  -24.8468 H   0  0  0  0  0  0  0  0  0  0  0  0
   -2.8576   26.5191  -26.3734 H   0  0  0  0  0  0  0  0  0  0  0  0
   -2.6472   24.7352  -26.3734 H   0  0  0  0  0  0  0  0  0  0  0  0
   -0.3290   25.3920  -25.4500 H   0  0  0  0  0  0  0  0  0  0  0  0
   -0.1354   22.8363  -25.9477 H   0  0  0  0  0  0  0  0  0  0  0  0
   -1.0993   20.5395  -25.9298 H   0  0  0  0  0  0  0  0  0  0  0  0
   -2.6417   19.8146  -27.7516 H   0  0  0  0  0  0  0  0  0  0  0  0
   -3.1805   21.3678  -29.6219 H   0  0  0  0  0  0  0  0  0  0  0  0
   -1.4620   24.4160  -30.3480 H   0  0  0  0  0  0  0  0  0  0  0  0
   -3.8472   22.0247  -31.2625 H   0  0  0  0  0  0  0  0  0  0  0  0
   -7.6896   20.2705  -31.3891 H   0  0  0  0  0  0  0  0  0  0  0  0
   -7.1379   17.8715  -31.7851 H   0  0  0  0  0  0  0  0  0  0  0  0
   -5.1282   17.2549  -33.1272 H   0  0  0  0  0  0  0  0  0  0  0  0
   -3.6718   19.0365  -34.0875 H   0  0  0  0  0  0  0  0  0  0  0  0
   -3.0540   21.4440  -34.2130 H   0  0  0  0  0  0  0  0  0  0  0  0
   -4.2990   22.6750  -33.8470 H   0  0  0  0  0  0  0  0  0  0  0  0
   -7.1128   24.8124  -31.8616 H   0  0  0  0  0  0  0  0  0  0  0  0
   -5.7867   26.5644  -30.6759 H   0  0  0  0  0  0  0  0  0  0  0  0
  1  2  1  0
  2  3  1  0
  3  4  2  0
  3  5  2  0
  3  6  1  0
  6  7  2  0
  7  8  1  0
  8  9  2  0
  9 10  1  0
 10 11  2  0
 11 12  1  0
 12 13  1  0
 13 14  2  0
 14 15  1  0
 15 16  2  3
 16 17  1  0
 17 18  2  0
 18 19  1  0
 19 20  2  0
 20 21  1  0
 21 22  2  0
 22 23  1  0
 15 24  1  0
 24 25  2  0
 25 26  1  0
 11  6  1  0
 26 13  1  0
 22 17  1  0
  1 27  1  0
  1 28  1  0
  1 29  1  0
  2 30  1  0
  7 31  1  0
  8 32  1  0
  9 33  1  0
 10 34  1  0
 12 35  1  0
 14 36  1  0
 18 37  1  0
 19 38  1  0
 20 39  1  0
 21 40  1  0
 23 41  1  0
 23 42  1  0
 24 43  1  0
 25 44  1  0
M  CHG  1  26  -1
M  END
>  <UniqueID>  (5) 
5

>  <SMILES>  (5) 
CNS(=O)(=O)c1ccccc1Nc1cc(=Nc2ccccc2N)cc[n-]1

>  <Energy>  (5) 
61.60040363530823

>  <Genealogy>  (5) 
CNS(=O)(=O)c1ccccc1Nc1cc(=Nc2ccccc2N)cc[n-]1 (protonated)
CNS(=O)(=O)c1ccccc1Nc1cc(=Nc2ccccc2N)cc[n-]1 (3D coordinates assigned)
CNS(=O)(=O)c1ccccc1Nc1cc(=Nc2ccccc2N)cc[n-]1 (optimized conformer: 61.60040363530823 kcal/mol)

>  <smiles>  (5) 
CNS(=O)(=O)c1ccccc1Nc1cc(=Nc2ccccc2N)cc[nH]1

>  <score_type>  (5) 
oracle

>  <origin>  (5) 
adgpu

>  <m_score__min__energy>  (5) 
-10.81

>  <m_primary>  (5) 
energy

$$$$
5:0
     RDKit          3D

 33 35  0  0  0  0  0  0  0  0999 V2000
   -0.9250   20.3410  -34.8920 N   0  0  0  0  0  0  0  0  0  0  0  0
   -1.3540   20.8630  -33.6320 C   0  0  0  0  0  0  0  0  0  0  0  0
   -2.6990   21.2100  -33.4330 C   0  0  0  0  0  0  0  0  0  0  0  0
   -3.1180   21.7220  -32.2010 C   0  0  0  0  0  0  0  0  0  0  0  0
   -2.1960   21.8930  -31.1620 C   0  0  0  0  0  0  0  0  0  0  0  0
   -2.7340   22.5530  -29.5850 S   0  0  0  0  0  0  0  0  0  0  0  0
   -4.1360   23.3830  -30.3190 C   0  0  0  0  0  0  0  0  0  0  0  0
   -4.1200   24.6610  -30.7420 N   0  0  0  0  0  0  0  0  0  0  0  0
   -5.3290   24.9050  -31.2210 N   0  0  0  0  0  0  0  0  0  0  0  0
   -6.0300   23.7640  -31.0740 C   0  0  0  0  0  0  0  0  0  0  0  0
   -7.4640   23.6040  -31.4620 C   0  0  0  0  0  0  0  0  0  0  0  0
   -7.7160   22.1940  -31.9180 C   0  0  0  0  0  0  0  0  0  0  0  0
   -6.7370   21.5020  -32.6510 C   0  0  0  0  0  0  0  0  0  0  0  0
   -6.9580   20.1780  -33.0450 C   0  0  0  0  0  0  0  0  0  0  0  0
   -8.1510   19.5350  -32.7020 C   0  0  0  0  0  0  0  0  0  0  0  0
   -9.1230   20.2130  -31.9610 C   0  0  0  0  0  0  0  0  0  0  0  0
   -8.9050   21.5370  -31.5660 C   0  0  0  0  0  0  0  0  0  0  0  0
   -5.3050   22.8260  -30.5160 O   0  0  0  0  0  0  0  0  0  0  0  0
   -0.8540   21.5450  -31.3560 C   0  0  0  0  0  0  0  0  0  0  0  0
   -0.4340   21.0330  -32.5870 C   0  0  0  0  0  0  0  0  0  0  0  0
   -0.3050   19.5010  -34.9390 H   0  0  0  0  0  0  0  0  0  0  0  0
   -1.2250   20.7880  -35.7870 H   0  0  0  0  0  0  0  0  0  0  0  0
   -3.4257   21.0789  -34.2483 H   0  0  0  0  0  0  0  0  0  0  0  0
   -4.1737   21.9907  -32.0483 H   0  0  0  0  0  0  0  0  0  0  0  0
   -8.1035   23.8269  -30.5952 H   0  0  0  0  0  0  0  0  0  0  0  0
   -7.6966   24.2975  -32.2836 H   0  0  0  0  0  0  0  0  0  0  0  0
   -5.7941   22.0028  -32.9158 H   0  0  0  0  0  0  0  0  0  0  0  0
   -6.1923   19.6423  -33.6253 H   0  0  0  0  0  0  0  0  0  0  0  0
   -8.3248   18.4950  -33.0154 H   0  0  0  0  0  0  0  0  0  0  0  0
  -10.0599   19.7051  -31.6883 H   0  0  0  0  0  0  0  0  0  0  0  0
   -9.6689   22.0655  -30.9769 H   0  0  0  0  0  0  0  0  0  0  0  0
   -0.1292   21.6746  -30.5388 H   0  0  0  0  0  0  0  0  0  0  0  0
    0.6217   20.7625  -32.7367 H   0  0  0  0  0  0  0  0  0  0  0  0
  1  2  1  0
  2  3  2  0
  3  4  1  0
  4  5  2  0
  5  6  1  0
  6  7  1  0
  7  8  2  0
  8  9  1  0
  9 10  2  0
 10 11  1  0
 11 12  1  0
 12 13  2  0
 13 14  1  0
 14 15  2  0
 15 16  1  0
 16 17  2  0
 10 18  1  0
  5 19  1  0
 19 20  2  0
 20  2  1  0
 18  7  1  0
 17 12  1  0
  1 21  1  0
  1 22  1  0
  3 23  1  0
  4 24  1  0
 11 25  1  0
 11 26  1  0
 13 27  1  0
 14 28  1  0
 15 29  1  0
 16 30  1  0
 17 31  1  0
 19 32  1  0
 20 33  1  0
M  END
>  <UniqueID>  (6) 
6

>  <SMILES>  (6) 
Nc1ccc(Sc2nnc(Cc3ccccc3)o2)cc1

>  <Energy>  (6) 
63.196552555730705

>  <Genealogy>  (6) 
Nc1ccc(Sc2nnc(Cc3ccccc3)o2)cc1 (3D coordinates assigned)
Nc1ccc(Sc2nnc(Cc3ccccc3)o2)cc1 (optimized conformer: 63.196552555730705 kcal/mol)

>  <smiles>  (6) 
Nc1ccc(Sc2nnc(Cc3ccccc3)o2)cc1

>  <score_type>  (6) 
oracle

>  <origin>  (6) 
adgpu

>  <m_score__min__energy>  (6) 
-8.0800000000000001

>  <m_primary>  (6) 
energy

$$$$
6:0
     RDKit          3D

 44 46  0  0  0  0  0  0  0  0999 V2000
    0.1270   26.8480  -23.3540 C   0  0  0  0  0  0  0  0  0  0  0  0
   -1.0220   27.1480  -24.1410 O   0  0  0  0  0  0  0  0  0  0  0  0
   -1.2280   26.6850  -25.4490 C   0  0  0  0  0  0  0  0  0  0  0  0
   -2.1520   25.6540  -25.6520 C   0  0  0  0  0  0  0  0  0  0  0  0
   -2.3900   25.1570  -26.9370 C   0  0  0  0  0  0  0  0  0  0  0  0
   -1.6920   25.6700  -28.0350 C   0  0  0  0  0  0  0  0  0  0  0  0
   -1.9820   25.1580  -29.3430 N   0  0  0  0  0  0  0  0  0  0  0  0
   -2.4570   23.8420  -29.6570 C   0  0  0  0  0  0  0  0  0  0  0  0
   -1.7840   23.1250  -30.4440 O   0  0  0  0  0  0  0  0  0  0  0  0
   -3.7570   23.3150  -29.1130 C   0  0  0  0  0  0  0  0  0  0  0  0
   -4.7970   23.3590  -30.1460 N   0  0  0  0  0  0  0  0  0  0  0  0
   -5.4410   22.2270  -30.4450 N   0  0  0  0  0  0  0  0  0  0  0  0
   -6.4030   22.1610  -31.4050 C   0  0  0  0  0  0  0  0  0  0  0  0
   -7.0740   20.9160  -31.6890 N   0  0  0  0  0  0  0  0  0  0  0  0
   -6.4310   19.8180  -32.0630 N   0  0  0  0  0  0  0  0  0  0  0  0
   -7.3440   18.8470  -32.2490 C   0  0  0  0  0  0  0  0  0  0  0  0
   -7.0030   17.4410  -32.6110 C   0  0  0  0  0  0  0  0  0  0  0  0
   -8.6070   19.3240  -31.9660 C   0  0  0  0  0  0  0  0  0  0  0  0
   -8.4010   20.6450  -31.6210 C   0  0  0  0  0  0  0  0  0  0  0  0
   -9.4840   21.6000  -31.2170 C   0  0  0  0  0  0  0  0  0  0  0  0
   -6.7290   23.3280  -32.1070 C   0  0  0  0  0  0  0  0  0  0  0  0
   -6.0600   24.5110  -31.8140 C   0  0  0  0  0  0  0  0  0  0  0  0
   -5.0800   24.5160  -30.8220 C   0  0  0  0  0  0  0  0  0  0  0  0
   -4.4640   25.5860  -30.5620 O   0  0  0  0  0  0  0  0  0  0  0  0
   -0.7840   26.7240  -27.8420 C   0  0  0  0  0  0  0  0  0  0  0  0
   -0.5450   27.2230  -26.5580 C   0  0  0  0  0  0  0  0  0  0  0  0
   -0.1316   26.9155  -22.2870 H   0  0  0  0  0  0  0  0  0  0  0  0
    0.4730   25.8294  -23.5837 H   0  0  0  0  0  0  0  0  0  0  0  0
    0.9268   27.5674  -23.5837 H   0  0  0  0  0  0  0  0  0  0  0  0
   -2.6953   25.2313  -24.7940 H   0  0  0  0  0  0  0  0  0  0  0  0
   -3.1308   24.3575  -27.0853 H   0  0  0  0  0  0  0  0  0  0  0  0
   -3.6172   22.2750  -28.7831 H   0  0  0  0  0  0  0  0  0  0  0  0
   -4.0694   23.9412  -28.2643 H   0  0  0  0  0  0  0  0  0  0  0  0
   -6.8598   16.8507  -31.6939 H   0  0  0  0  0  0  0  0  0  0  0  0
   -7.8217   17.0059  -33.2030 H   0  0  0  0  0  0  0  0  0  0  0  0
   -6.0760   17.4293  -33.2030 H   0  0  0  0  0  0  0  0  0  0  0  0
   -9.5605   18.7769  -32.0060 H   0  0  0  0  0  0  0  0  0  0  0  0
   -9.5392   21.6487  -30.1195 H   0  0  0  0  0  0  0  0  0  0  0  0
   -9.2596   22.5996  -31.6176 H   0  0  0  0  0  0  0  0  0  0  0  0
  -10.4477   21.2523  -31.6176 H   0  0  0  0  0  0  0  0  0  0  0  0
   -7.5078   23.3089  -32.8836 H   0  0  0  0  0  0  0  0  0  0  0  0
   -6.3016   25.4349  -32.3599 H   0  0  0  0  0  0  0  0  0  0  0  0
   -0.2585   27.1589  -28.7050 H   0  0  0  0  0  0  0  0  0  0  0  0
    0.1788   28.0385  -26.4129 H   0  0  0  0  0  0  0  0  0  0  0  0
  1  2  1  0
  2  3  1  0
  3  4  2  0
  4  5  1  0
  5  6  2  0
  6  7  1  0
  7  8  1  0
  8  9  2  0
  8 10  1  0
 10 11  1  0
 11 12  1  0
 12 13  2  0
 13 14  1  0
 14 15  1  0
 15 16  2  0
 16 17  1  0
 16 18  1  0
 18 19  2  0
 19 20  1  0
 13 21  1  0
 21 22  2  0
 22 23  1  0
 23 24  2  0
  6 25  1  0
 25 26  2  0
 26  3  1  0
 23 11  1  0
 19 14  1  0
  1 27  1  0
  1 28  1  0
  1 29  1  0
  4 30  1  0
  5 31  1  0
 10 32  1  0
 10 33  1  0
 17 34  1  0
 17 35  1  0
 17 36  1  0
 18 37  1  0
 20 38  1  0
 20 39  1  0
 20 40  1  0
 21 41  1  0
 22 42  1  0
 25 43  1  0
 26 44  1  0
M  CHG  1   7  -1
M  END
>  <UniqueID>  (7) 
7

>  <SMILES>  (7) 
COc1ccc([N-]C(=O)Cn2nc(-n3nc(C)cc3C)ccc2=O)cc1

>  <Energy>  (7) 
80.66247559102588

>  <Genealogy>  (7) 
COc1ccc([N-]C(=O)Cn2nc(-n3nc(C)cc3C)ccc2=O)cc1 (protonated)
COc1ccc([N-]C(=O)Cn2nc(-n3nc(C)cc3C)ccc2=O)cc1 (3D coordinates assigned)
COc1ccc([N-]C(=O)Cn2nc(-n3nc(C)cc3C)ccc2=O)cc1 (optimized conformer: 80.66247559102588 kcal/mol)

>  <smiles>  (7) 
COc1ccc(NC(=O)Cn2nc(-n3nc(C)cc3C)ccc2=O)cc1

>  <score_type>  (7) 
oracle

>  <origin>  (7) 
adgpu

>  <m_score__min__energy>  (7) 
-10.49

>  <m_primary>  (7) 
energy

$$$$
7:0
     RDKit          3D

 55 58  0  0  0  0  0  0  0  0999 V2000
   -5.2440   25.6330  -30.6320 C   0  0  0  0  0  0  0  0  0  0  0  0
   -3.8700   25.2980  -30.4660 O   0  0  0  0  0  0  0  0  0  0  0  0
   -3.4030   24.2130  -29.7080 C   0  0  0  0  0  0  0  0  0  0  0  0
   -3.0010   24.3560  -28.3660 C   0  0  0  0  0  0  0  0  0  0  0  0
   -2.5340   23.2550  -27.6460 C   0  0  0  0  0  0  0  0  0  0  0  0
   -2.4460   21.9990  -28.2550 C   0  0  0  0  0  0  0  0  0  0  0  0
   -1.8290   20.6090  -27.3560 S   0  0  0  0  0  0  0  0  0  0  0  0
   -1.5570   21.0190  -25.9360 O   0  0  0  0  0  0  0  0  0  0  0  0
   -2.8760   19.5290  -27.3360 O   0  0  0  0  0  0  0  0  0  0  0  0
   -0.3570   19.9840  -28.0640 N   0  0  0  0  0  0  0  0  0  0  0  0
   -0.0970   20.5760  -29.3950 C   0  0  0  0  0  0  0  0  0  0  0  0
   -0.4050   19.5880  -30.5360 C   0  0  0  0  0  0  0  0  0  0  0  0
    0.3450   18.3840  -30.4530 O   0  0  0  0  0  0  0  0  0  0  0  0
    0.6170   17.9660  -29.1200 C   0  0  0  0  0  0  0  0  0  0  0  0
   -0.3750   18.5090  -28.0800 C   0  0  0  0  0  0  0  0  0  0  0  0
   -2.8460   21.8500  -29.5880 C   0  0  0  0  0  0  0  0  0  0  0  0
   -3.3430   22.9470  -30.3130 C   0  0  0  0  0  0  0  0  0  0  0  0
   -3.7330   22.8130  -31.6900 N   0  0  0  0  0  0  0  0  0  0  0  0
   -4.4540   21.7130  -32.2570 C   0  0  0  0  0  0  0  0  0  0  0  0
   -3.8140   20.8180  -32.8710 O   0  0  0  0  0  0  0  0  0  0  0  0
   -5.9290   21.6490  -32.2120 C   0  0  0  0  0  0  0  0  0  0  0  0
   -6.7580   22.7120  -31.9120 C   0  0  0  0  0  0  0  0  0  0  0  0
   -8.0330   22.2120  -32.0990 C   0  0  0  0  0  0  0  0  0  0  0  0
   -9.3000   22.9890  -31.9750 C   0  0  0  0  0  0  0  0  0  0  0  0
   -7.9720   20.9290  -32.5050 N   0  0  0  0  0  0  0  0  0  0  0  0
   -6.6940   20.5870  -32.5620 N   0  0  0  0  0  0  0  0  0  0  0  0
   -6.2610   19.2560  -32.8860 C   0  0  0  0  0  0  0  0  0  0  0  0
   -6.1430   18.2730  -31.8880 C   0  0  0  0  0  0  0  0  0  0  0  0
   -5.7500   16.9730  -32.2210 C   0  0  0  0  0  0  0  0  0  0  0  0
   -5.4870   16.6400  -33.5520 C   0  0  0  0  0  0  0  0  0  0  0  0
   -5.6220   17.6060  -34.5530 C   0  0  0  0  0  0  0  0  0  0  0  0
   -6.0140   18.9070  -34.2240 C   0  0  0  0  0  0  0  0  0  0  0  0
   -5.7153   25.7479  -29.6447 H   0  0  0  0  0  0  0  0  0  0  0  0
   -5.3263   26.5775  -31.1898 H   0  0  0  0  0  0  0  0  0  0  0  0
   -5.7518   24.8324  -31.1898 H   0  0  0  0  0  0  0  0  0  0  0  0
   -3.0554   25.3421  -27.8817 H   0  0  0  0  0  0  0  0  0  0  0  0
   -2.2338   23.3758  -26.5947 H   0  0  0  0  0  0  0  0  0  0  0  0
   -0.7296   21.4676  -29.5168 H   0  0  0  0  0  0  0  0  0  0  0  0
    0.9706   20.8353  -29.4489 H   0  0  0  0  0  0  0  0  0  0  0  0
   -1.4752   19.3361  -30.5007 H   0  0  0  0  0  0  0  0  0  0  0  0
   -0.1269   20.0814  -31.4790 H   0  0  0  0  0  0  0  0  0  0  0  0
    0.5840   16.8669  -29.0886 H   0  0  0  0  0  0  0  0  0  0  0  0
    1.6064   18.3678  -28.8561 H   0  0  0  0  0  0  0  0  0  0  0  0
   -1.3882   18.1628  -28.3320 H   0  0  0  0  0  0  0  0  0  0  0  0
   -0.0826   18.1405  -27.0857 H   0  0  0  0  0  0  0  0  0  0  0  0
   -2.7708   20.8654  -30.0727 H   0  0  0  0  0  0  0  0  0  0  0  0
   -6.4695   23.7254  -31.5963 H   0  0  0  0  0  0  0  0  0  0  0  0
   -9.5380   23.1349  -30.9110 H   0  0  0  0  0  0  0  0  0  0  0  0
   -9.1787   23.9682  -32.4613 H   0  0  0  0  0  0  0  0  0  0  0  0
  -10.1178   22.4369  -32.4613 H   0  0  0  0  0  0  0  0  0  0  0  0
   -6.3608   18.5276  -30.8403 H   0  0  0  0  0  0  0  0  0  0  0  0
   -5.6478   16.2115  -31.4338 H   0  0  0  0  0  0  0  0  0  0  0  0
   -5.1738   15.6181  -33.8120 H   0  0  0  0  0  0  0  0  0  0  0  0
   -5.4195   17.3422  -35.6015 H   0  0  0  0  0  0  0  0  0  0  0  0
   -6.1295   19.6609  -35.0167 H   0  0  0  0  0  0  0  0  0  0  0  0
  1  2  1  0
  2  3  1  0
  3  4  2  0
  4  5  1  0
  5  6  2  0
  6  7  1  0
  7  8  2  0
  7  9  2  0
  7 10  1  0
 10 11  1  0
 11 12  1  0
 12 13  1  0
 13 14  1  0
 14 15  1  0
  6 16  1  0
 16 17  2  0
 17 18  1  0
 18 19  1  0
 19 20  2  0
 19 21  1  0
 21 22  2  0
 22 23  1  0
 23 24  1  0
 23 25  2  0
 25 26  1  0
 26 27  1  0
 27 28  2  0
 28 29  1  0
 29 30  2  0
 30 31  1  0
 31 32  2  0
 17  3  1  0
 26 21  1  0
 32 27  1  0
 15 10  1  0
  1 33  1  0
  1 34  1  0
  1 35  1  0
  4 36  1  0
  5 37  1  0
 11 38  1  0
 11 39  1  0
 12 40  1  0
 12 41  1  0
 14 42  1  0
 14 43  1  0
 15 44  1  0
 15 45  1  0
 16 46  1  0
 22 47  1  0
 24 48  1  0
 24 49  1  0
 24 50  1  0
 28 51  1  0
 29 52  1  0
 30 53  1  0
 31 54  1  0
 32 55  1  0
M  CHG  1  18  -1
M  END
>  <UniqueID>  (8) 
8

>  <SMILES>  (8) 
COc1ccc(S(=O)(=O)N2CCOCC2)cc1[N-]C(=O)c1cc(C)nn1-c1ccccc1

>  <Energy>  (8) 
108.00713725362542

>  <Genealogy>  (8) 
COc1ccc(S(=O)(=O)N2CCOCC2)cc1[N-]C(=O)c1cc(C)nn1-c1ccccc1 (protonated)
COc1ccc(S(=O)(=O)N2CCOCC2)cc1[N-]C(=O)c1cc(C)nn1-c1ccccc1 (3D coordinates assigned)
COc1ccc(S(=O)(=O)N2CCOCC2)cc1[N-]C(=O)c1cc(C)nn1-c1ccccc1 (nonaromatic ring conformer: 108.00713725362542 kcal/mol)

>  <smiles>  (8) 
COc1ccc(S(=O)(=O)N2CCOCC2)cc1NC(=O)c1cc(C)nn1-c1ccccc1

>  <score_type>  (8) 
oracle

>  <origin>  (8) 
adgpu

>  <m_score__min__energy>  (8) 
-10.93

>  <m_primary>  (8) 
energy

$$$$
8:0
     RDKit          3D

 57 60  0  0  0  0  0  0  0  0999 V2000
   -0.4170   19.9600  -30.7000 O   0  0  0  0  0  0  0  0  0  0  0  0
   -0.7370   20.4030  -29.5630 C   0  0  0  0  0  0  0  0  0  0  0  0
   -0.8280   19.4990  -28.4470 N   0  0  0  0  0  0  0  0  0  0  0  0
   -0.1610   18.2260  -28.3950 C   0  0  0  0  0  0  0  0  0  0  0  0
   -0.0280   17.5160  -27.1880 C   0  0  0  0  0  0  0  0  0  0  0  0
    0.6050   16.2690  -27.1680 C   0  0  0  0  0  0  0  0  0  0  0  0
    1.1030   15.7110  -28.3540 C   0  0  0  0  0  0  0  0  0  0  0  0
    1.8900   14.1350  -28.3490 S   0  0  0  0  0  0  0  0  0  0  0  0
    1.8030   13.5070  -29.7130 O   0  0  0  0  0  0  0  0  0  0  0  0
    1.1770   13.2520  -27.3620 O   0  0  0  0  0  0  0  0  0  0  0  0
    3.5650   14.3190  -27.8760 N   0  0  0  0  0  0  0  0  0  0  0  0
    3.6860   14.3610  -26.4140 C   0  0  0  0  0  0  0  0  0  0  0  0
    3.6640   15.8180  -25.9770 C   0  0  0  0  0  0  0  0  0  0  0  0
    3.9260   16.6250  -27.2350 C   0  0  0  0  0  0  0  0  0  0  0  0
    4.0950   15.6020  -28.3490 C   0  0  0  0  0  0  0  0  0  0  0  0
    0.9510   16.4050  -29.5590 C   0  0  0  0  0  0  0  0  0  0  0  0
    0.3180   17.6500  -29.5820 C   0  0  0  0  0  0  0  0  0  0  0  0
   -1.0660   21.8410  -29.4050 C   0  0  0  0  0  0  0  0  0  0  0  0
   -0.0920   22.7600  -28.9750 C   0  0  0  0  0  0  0  0  0  0  0  0
   -0.4120   24.1130  -28.8330 C   0  0  0  0  0  0  0  0  0  0  0  0
   -1.6990   24.5690  -29.1210 C   0  0  0  0  0  0  0  0  0  0  0  0
   -1.9960   25.9180  -28.9680 O   0  0  0  0  0  0  0  0  0  0  0  0
   -2.6810   23.6660  -29.5620 C   0  0  0  0  0  0  0  0  0  0  0  0
   -4.3130   24.2360  -29.9180 S   0  0  0  0  0  0  0  0  0  0  0  0
   -4.2680   25.3720  -30.9020 O   0  0  0  0  0  0  0  0  0  0  0  0
   -4.9420   24.7250  -28.6420 O   0  0  0  0  0  0  0  0  0  0  0  0
   -5.2540   22.9220  -30.5810 N   0  0  0  0  0  0  0  0  0  0  0  0
   -5.4010   23.0560  -32.0490 C   0  0  0  0  0  0  0  0  0  0  0  0
   -6.8170   23.5030  -32.4540 C   0  0  0  0  0  0  0  0  0  0  0  0
   -7.8320   22.6210  -32.0000 O   0  0  0  0  0  0  0  0  0  0  0  0
   -7.5650   22.0450  -30.7260 C   0  0  0  0  0  0  0  0  0  0  0  0
   -6.5470   22.8260  -29.8790 C   0  0  0  0  0  0  0  0  0  0  0  0
   -2.3580   22.3080  -29.7040 C   0  0  0  0  0  0  0  0  0  0  0  0
   -1.5030   19.7290  -27.6830 H   0  0  0  0  0  0  0  0  0  0  0  0
   -0.4239   17.9437  -26.2551 H   0  0  0  0  0  0  0  0  0  0  0  0
    0.7125   15.7241  -26.2185 H   0  0  0  0  0  0  0  0  0  0  0  0
    2.8442   13.8218  -25.9550 H   0  0  0  0  0  0  0  0  0  0  0  0
    4.6245   13.8832  -26.0965 H   0  0  0  0  0  0  0  0  0  0  0  0
    2.6829   16.0767  -25.5521 H   0  0  0  0  0  0  0  0  0  0  0  0
    4.4148   16.0212  -25.1992 H   0  0  0  0  0  0  0  0  0  0  0  0
    3.0758   17.2892  -27.4493 H   0  0  0  0  0  0  0  0  0  0  0  0
    4.8150   17.2644  -27.1309 H   0  0  0  0  0  0  0  0  0  0  0  0
    3.5405   15.9279  -29.2413 H   0  0  0  0  0  0  0  0  0  0  0  0
    5.1578   15.5001  -28.6138 H   0  0  0  0  0  0  0  0  0  0  0  0
    1.3321   15.9679  -30.4937 H   0  0  0  0  0  0  0  0  0  0  0  0
    0.1941   18.1825  -30.5365 H   0  0  0  0  0  0  0  0  0  0  0  0
    0.9268   22.4121  -28.7493 H   0  0  0  0  0  0  0  0  0  0  0  0
    0.3557   24.8232  -28.4920 H   0  0  0  0  0  0  0  0  0  0  0  0
   -4.6774   23.8013  -32.4107 H   0  0  0  0  0  0  0  0  0  0  0  0
   -5.2177   22.0686  -32.4979 H   0  0  0  0  0  0  0  0  0  0  0  0
   -7.0041   24.5001  -32.0287 H   0  0  0  0  0  0  0  0  0  0  0  0
   -6.8564   23.5092  -33.5533 H   0  0  0  0  0  0  0  0  0  0  0  0
   -8.5107   21.9929  -30.1665 H   0  0  0  0  0  0  0  0  0  0  0  0
   -7.1243   21.0549  -30.9142 H   0  0  0  0  0  0  0  0  0  0  0  0
   -6.9332   23.8389  -29.6923 H   0  0  0  0  0  0  0  0  0  0  0  0
   -6.3957   22.2955  -28.9273 H   0  0  0  0  0  0  0  0  0  0  0  0
   -3.1245   21.6005  -30.0533 H   0  0  0  0  0  0  0  0  0  0  0  0
  1  2  2  0
  2  3  1  0
  3  4  1  0
  4  5  2  0
  5  6  1  0
  6  7  2  0
  7  8  1  0
  8  9  2  0
  8 10  2  0
  8 11  1  0
 11 12  1  0
 12 13  1  0
 13 14  1  0
 14 15  1  0
  7 16  1  0
 16 17  2  0
  2 18  1  0
 18 19  2  0
 19 20  1  0
 20 21  2  0
 21 22  1  0
 21 23  1  0
 23 24  1  0
 24 25  2  0
 24 26  2  0
 24 27  1  0
 27 28  1  0
 28 29  1  0
 29 30  1  0
 30 31  1  0
 31 32  1  0
 23 33  2  0
 17  4  1  0
 33 18  1  0
 15 11  1  0
 32 27  1  0
  3 34  1  0
  5 35  1  0
  6 36  1  0
 12 37  1  0
 12 38  1  0
 13 39  1  0
 13 40  1  0
 14 41  1  0
 14 42  1  0
 15 43  1  0
 15 44  1  0
 16 45  1  0
 17 46  1  0
 19 47  1  0
 20 48  1  0
 28 49  1  0
 28 50  1  0
 29 51  1  0
 29 52  1  0
 31 53  1  0
 31 54  1  0
 32 55  1  0
 32 56  1  0
 33 57  1  0
M  CHG  1  22  -1
M  END
>  <UniqueID>  (9) 
9

>  <SMILES>  (9) 
O=C(Nc1ccc(S(=O)(=O)N2CCCC2)cc1)c1ccc([O-])c(S(=O)(=O)N2CCOCC2)c1

>  <Energy>  (9) 
78.71850965200542

>  <Genealogy>  (9) 
O=C(Nc1ccc(S(=O)(=O)N2CCCC2)cc1)c1ccc([O-])c(S(=O)(=O)N2CCOCC2)c1 (protonated)
O=C(Nc1ccc(S(=O)(=O)N2CCCC2)cc1)c1ccc([O-])c(S(=O)(=O)N2CCOCC2)c1 (3D coordinates assigned)
O=C(Nc1ccc(S(=O)(=O)N2CCCC2)cc1)c1ccc([O-])c(S(=O)(=O)N2CCOCC2)c1 (nonaromatic ring conformer: 78.71850965200542 kcal/mol)

>  <smiles>  (9) 
O=C(Nc1ccc(S(=O)(=O)N2CCCC2)cc1)c1ccc(O)c(S(=O)(=O)N2CCOCC2)c1

>  <score_type>  (9) 
oracle

>  <origin>  (9) 
adgpu

>  <m_score__min__energy>  (9) 
-11.1

>  <m_primary>  (9) 
energy

$$$$
9:0
     RDKit          3D

 41 43  0  0  0  0  0  0  0  0999 V2000
   -8.3532   17.6774  -33.3729 H   0  0  0  0  0  0  0  0  0  0  0  0
   -7.8120   18.5790  -33.0500 C   0  0  0  0  0  0  0  0  0  0  0  0
   -8.5840   19.7270  -32.5390 C   0  0  0  0  0  0  0  0  0  0  0  0
   -9.8430   19.6790  -32.5930 O   0  0  0  0  0  0  0  0  0  0  0  0
   -7.9430   20.8910  -31.9850 N   0  0  0  0  0  0  0  0  0  0  0  0
   -6.6290   20.7370  -31.3520 C   0  0  0  0  0  0  0  0  0  0  0  0
   -6.0100   20.0770  -31.9775 H   0  0  0  0  0  0  0  0  0  0  0  0
   -6.7855   20.3098  -30.3505 H   0  0  0  0  0  0  0  0  0  0  0  0
   -5.9150   22.0590  -31.1850 C   0  0  0  0  0  0  0  0  0  0  0  0
   -4.5890   22.0570  -30.7250 C   0  0  0  0  0  0  0  0  0  0  0  0
   -4.0845   21.1018  -30.5173 H   0  0  0  0  0  0  0  0  0  0  0  0
   -3.9050   23.2600  -30.5290 C   0  0  0  0  0  0  0  0  0  0  0  0
   -2.5910   23.2410  -30.0750 O   0  0  0  0  0  0  0  0  0  0  0  0
   -4.5420   24.4770  -30.7880 C   0  0  0  0  0  0  0  0  0  0  0  0
   -3.8620   25.6750  -30.6010 O   0  0  0  0  0  0  0  0  0  0  0  0
   -5.8640   24.4920  -31.2400 C   0  0  0  0  0  0  0  0  0  0  0  0
   -6.3579   25.4517  -31.4523 H   0  0  0  0  0  0  0  0  0  0  0  0
   -6.5660   23.2910  -31.4250 C   0  0  0  0  0  0  0  0  0  0  0  0
   -7.9720   23.3380  -31.9680 C   0  0  0  0  0  0  0  0  0  0  0  0
   -7.9284   23.4564  -33.0607 H   0  0  0  0  0  0  0  0  0  0  0  0
   -8.4922   24.1868  -31.5000 H   0  0  0  0  0  0  0  0  0  0  0  0
   -8.7470   22.0650  -31.6390 C   0  0  0  0  0  0  0  0  0  0  0  0
   -9.6838   22.0487  -32.2152 H   0  0  0  0  0  0  0  0  0  0  0  0
   -8.9733   22.0457  -30.5627 H   0  0  0  0  0  0  0  0  0  0  0  0
   -6.4750   18.5950  -33.1350 C   0  0  0  0  0  0  0  0  0  0  0  0
   -5.9468   19.5012  -32.8037 H   0  0  0  0  0  0  0  0  0  0  0  0
   -5.6640   17.4640  -33.6490 C   0  0  0  0  0  0  0  0  0  0  0  0
   -6.2550   16.1930  -33.7090 C   0  0  0  0  0  0  0  0  0  0  0  0
   -7.2938   16.0588  -33.3731 H   0  0  0  0  0  0  0  0  0  0  0  0
   -5.5370   15.0970  -34.1910 C   0  0  0  0  0  0  0  0  0  0  0  0
   -6.1220   13.8730  -34.2310 F   0  0  0  0  0  0  0  0  0  0  0  0
   -4.2200   15.2580  -34.6300 C   0  0  0  0  0  0  0  0  0  0  0  0
   -3.5130   14.1590  -35.1050 O   0  0  0  0  0  0  0  0  0  0  0  0
   -3.6140   16.5200  -34.5970 C   0  0  0  0  0  0  0  0  0  0  0  0
   -2.2930   16.6380  -35.0590 O   0  0  0  0  0  0  0  0  0  0  0  0
   -1.1720   15.9770  -34.4790 C   0  0  0  0  0  0  0  0  0  0  0  0
   -1.2472   16.0213  -33.3825 H   0  0  0  0  0  0  0  0  0  0  0  0
   -1.1579   14.9260  -34.8034 H   0  0  0  0  0  0  0  0  0  0  0  0
   -0.2455   16.4733  -34.8034 H   0  0  0  0  0  0  0  0  0  0  0  0
   -4.3420   17.6250  -34.1090 C   0  0  0  0  0  0  0  0  0  0  0  0
   -3.8741   18.6203  -34.0874 H   0  0  0  0  0  0  0  0  0  0  0  0
  1  2  1  0
  2  3  1  0
  3  4  2  0
  3  5  1  0
  5  6  1  0
  6  7  1  0
  6  8  1  0
  6  9  1  0
  9 10  2  0
 10 11  1  0
 10 12  1  0
 12 13  1  0
 12 14  2  0
 14 15  1  0
 14 16  1  0
 16 17  1  0
 16 18  2  0
 18 19  1  0
 19 20  1  0
 19 21  1  0
 19 22  1  0
 22 23  1  0
 22 24  1  0
  2 25  2  0
 25 26  1  0
 25 27  1  0
 27 28  2  0
 28 29  1  0
 28 30  1  0
 30 31  1  0
 30 32  2  0
 32 33  1  0
 32 34  1  0
 34 35  1  0
 35 36  1  0
 36 37  1  0
 36 38  1  0
 36 39  1  0
 34 40  2  0
 40 41  1  0
 22  5  1  0
 40 27  1  0
 18  9  1  0
M  CHG  3  13  -1  15  -1  33  -1
M  END
>  <UniqueID>  (10) 
10

>  <SMILES>  (10) 
COc1cc(/C=C/C(=O)N2CCc3cc([O-])c([O-])cc3C2)cc(F)c1[O-]

>  <Energy>  (10) 
50.1128200768895

>  <Genealogy>  (10) 
COc1cc(C=CC(=O)N2CCc3cc([O-])c([O-])cc3C2)cc(F)c1[O-] (protonated)
COc1cc(/C=C/C(=O)N2CCc3cc([O-])c([O-])cc3C2)cc(F)c1[O-] (cis-trans isomerization)
COc1cc(/C=C/C(=O)N2CCc3cc([O-])c([O-])cc3C2)cc(F)c1[O-] (3D coordinates assigned)
COc1cc(/C=C/C(=O)N2CCc3cc([O-])c([O-])cc3C2)cc(F)c1[O-] (nonaromatic ring conformer: 50.1128200768895 kcal/mol)

>  <smiles>  (10) 
COc1cc(C=CC(=O)N2CCc3cc(O)c(O)cc3C2)cc(F)c1O

>  <score_type>  (10) 
oracle

>  <origin>  (10) 
adgpu

>  <m_score__min__energy>  (10) 
-11.630000000000001

>  <m_primary>  (10) 
energy

$$$$
10:0
     RDKit          3D

 48 51  0  0  0  0  0  0  0  0999 V2000
   -2.9780   22.1680  -31.8890 H   0  0  0  0  0  0  0  0  0  0  0  0
   -3.7950   22.8130  -31.8440 N   0  0  0  0  0  0  0  0  0  0  0  0
   -5.0230   22.3970  -31.8100 C   0  0  0  0  0  0  0  0  0  0  0  0
   -5.3850   21.0830  -31.8160 N   0  0  0  0  0  0  0  0  0  0  0  0
   -4.5150   19.9040  -31.8750 C   0  0  0  0  0  0  0  0  0  0  0  0
   -3.5255   20.2020  -32.2520 H   0  0  0  0  0  0  0  0  0  0  0  0
   -4.4217   19.4780  -30.8651 H   0  0  0  0  0  0  0  0  0  0  0  0
   -5.1030   18.8640  -32.7920 C   0  0  0  0  0  0  0  0  0  0  0  0
   -5.6140   17.6670  -32.2630 C   0  0  0  0  0  0  0  0  0  0  0  0
   -5.5749   17.4867  -31.1786 H   0  0  0  0  0  0  0  0  0  0  0  0
   -6.1720   16.7040  -33.1090 C   0  0  0  0  0  0  0  0  0  0  0  0
   -6.5706   15.7687  -32.6891 H   0  0  0  0  0  0  0  0  0  0  0  0
   -6.2240   16.9280  -34.4870 C   0  0  0  0  0  0  0  0  0  0  0  0
   -6.6649   16.1699  -35.1511 H   0  0  0  0  0  0  0  0  0  0  0  0
   -5.7160   18.1150  -35.0220 C   0  0  0  0  0  0  0  0  0  0  0  0
   -5.7552   18.2895  -36.1074 H   0  0  0  0  0  0  0  0  0  0  0  0
   -5.1580   19.0810  -34.1790 C   0  0  0  0  0  0  0  0  0  0  0  0
   -4.7605   20.0147  -34.6035 H   0  0  0  0  0  0  0  0  0  0  0  0
   -6.7350   21.1180  -31.7560 C   0  0  0  0  0  0  0  0  0  0  0  0
   -7.6410   20.0540  -31.7080 C   0  0  0  0  0  0  0  0  0  0  0  0
   -7.2948   19.0107  -31.7493 H   0  0  0  0  0  0  0  0  0  0  0  0
   -9.0110   20.3620  -31.6050 C   0  0  0  0  0  0  0  0  0  0  0  0
   -9.7518   19.5497  -31.5671 H   0  0  0  0  0  0  0  0  0  0  0  0
   -9.4410   21.7050  -31.5500 C   0  0  0  0  0  0  0  0  0  0  0  0
  -10.5144   21.9314  -31.4689 H   0  0  0  0  0  0  0  0  0  0  0  0
   -8.5080   22.7560  -31.5980 C   0  0  0  0  0  0  0  0  0  0  0  0
   -8.8317   23.8063  -31.5528 H   0  0  0  0  0  0  0  0  0  0  0  0
   -7.1570   22.4210  -31.7050 C   0  0  0  0  0  0  0  0  0  0  0  0
   -6.0860   23.2410  -31.7330 N   0  0  0  0  0  0  0  0  0  0  0  0
   -6.0640   24.6970  -31.5680 C   0  0  0  0  0  0  0  0  0  0  0  0
   -5.5173   25.1441  -32.4113 H   0  0  0  0  0  0  0  0  0  0  0  0
   -7.1031   25.0570  -31.5401 H   0  0  0  0  0  0  0  0  0  0  0  0
   -5.3780   25.1040  -30.2570 C   0  0  0  0  0  0  0  0  0  0  0  0
   -5.5556   26.1746  -30.0776 H   0  0  0  0  0  0  0  0  0  0  0  0
   -5.7996   24.4965  -29.4426 H   0  0  0  0  0  0  0  0  0  0  0  0
   -3.9340   24.8630  -30.3120 N   0  0  0  0  0  0  0  0  0  0  0  0
   -3.4880   24.9300  -31.2550 H   0  0  0  0  0  0  0  0  0  0  0  0
   -3.1640   24.2820  -29.2420 C   0  0  0  0  0  0  0  0  0  0  0  0
   -1.9410   24.8700  -28.8800 C   0  0  0  0  0  0  0  0  0  0  0  0
   -1.6130   25.7953  -29.3762 H   0  0  0  0  0  0  0  0  0  0  0  0
   -1.1370   24.2900  -27.8950 C   0  0  0  0  0  0  0  0  0  0  0  0
   -0.1753   24.7525  -27.6282 H   0  0  0  0  0  0  0  0  0  0  0  0
   -1.5530   23.1240  -27.2490 C   0  0  0  0  0  0  0  0  0  0  0  0
   -0.7690   22.5570  -26.2990 F   0  0  0  0  0  0  0  0  0  0  0  0
   -2.7810   22.5460  -27.5770 C   0  0  0  0  0  0  0  0  0  0  0  0
   -3.1132   21.6338  -27.0597 H   0  0  0  0  0  0  0  0  0  0  0  0
   -3.5900   23.1230  -28.5610 C   0  0  0  0  0  0  0  0  0  0  0  0
   -4.5627   22.6709  -28.8048 H   0  0  0  0  0  0  0  0  0  0  0  0
  1  2  1  0
  2  3  2  0
  3  4  1  0
  4  5  1  0
  5  6  1  0
  5  7  1  0
  5  8  1  0
  8  9  2  0
  9 10  1  0
  9 11  1  0
 11 12  1  0
 11 13  2  0
 13 14  1  0
 13 15  1  0
 15 16  1  0
 15 17  2  0
 17 18  1  0
  4 19  1  0
 19 20  2  0
 20 21  1  0
 20 22  1  0
 22 23  1  0
 22 24  2  0
 24 25  1  0
 24 26  1  0
 26 27  1  0
 26 28  2  0
 28 29  1  0
 29 30  1  0
 30 31  1  0
 30 32  1  0
 30 33  1  0
 33 34  1  0
 33 35  1  0
 33 36  1  0
 36 37  1  0
 36 38  1  0
 38 39  2  0
 39 40  1  0
 39 41  1  0
 41 42  1  0
 41 43  2  0
 43 44  1  0
 43 45  1  0
 45 46  1  0
 45 47  2  0
 47 48  1  0
 29  3  1  0
 47 38  1  0
 17  8  1  0
 28 19  1  0
M  END
>  <UniqueID>  (11) 
11

>  <SMILES>  (11) 
[H]/N=c1/n(CCNc2ccc(F)cc2)c2ccccc2n1Cc1ccccc1

>  <Energy>  (11) 
88.05491303118212

>  <Genealogy>  (11) 
[H]/N=c1/n(CCNc2ccc(F)cc2)c2ccccc2n1Cc1ccccc1 (cis-trans isomerization)
[H]/N=c1/n(CCNc2ccc(F)cc2)c2ccccc2n1Cc1ccccc1 (3D coordinates assigned)
[H]/N=c1/n(CCNc2ccc(F)cc2)c2ccccc2n1Cc1ccccc1 (optimized conformer: 88.05491303118212 kcal/mol)

>  <smiles>  (11) 
N=c1n(CCNc2ccc(F)cc2)c2ccccc2n1Cc1ccccc1

>  <score_type>  (11) 
oracle

>  <origin>  (11) 
adgpu

>  <m_score__min__energy>  (11) 
-8.7899999999999991

>  <m_primary>  (11) 
energy

$$$$
11:0
     RDKit          3D

 37 39  0  0  1  0  0  0  0  0999 V2000
   -4.2360   25.6370  -30.8320 O   0  0  0  0  0  0  0  0  0  0  0  0
   -5.3830   25.2490  -30.5120 C   0  0  0  0  0  0  0  0  0  0  0  0
   -5.9780   24.0010  -30.9750 C   0  0  0  0  0  0  0  0  0  0  0  0
   -7.3670   23.8830  -30.8720 C   0  0  0  0  0  0  0  0  0  0  0  0
   -7.9610   22.7480  -31.2870 N   0  0  0  0  0  0  0  0  0  0  0  0
   -7.2390   21.7290  -31.7990 C   0  0  0  0  0  0  0  0  0  0  0  0
   -7.9010   20.6860  -32.1690 N   0  0  0  0  0  0  0  0  0  0  0  0
   -7.1650   19.5940  -32.7120 C   0  0  0  0  0  0  0  0  0  0  0  0
   -6.4740   19.6690  -33.9040 C   0  0  0  0  0  0  0  0  0  0  0  0
   -5.7760   18.5470  -34.3640 C   0  0  0  0  0  0  0  0  0  0  0  0
   -5.7950   17.3710  -33.6050 C   0  0  0  0  0  0  0  0  0  0  0  0
   -5.1080   16.2270  -34.0350 O   0  0  0  0  0  0  0  0  0  0  0  0
   -6.4830   17.2900  -32.4140 C   0  0  0  0  0  0  0  0  0  0  0  0
   -7.1750   18.4200  -31.9710 C   0  0  0  0  0  0  0  0  0  0  0  0
   -5.9020   21.8360  -31.9010 N   0  0  0  0  0  0  0  0  0  0  0  0
   -5.2500   22.9580  -31.4970 C   0  0  0  0  0  0  0  0  0  0  0  0
   -3.9760   23.0830  -31.5840 N   0  0  0  0  0  0  0  0  0  0  0  0
   -3.1910   22.0240  -32.1190 C   0  0  0  0  0  0  0  0  0  0  0  0
   -3.3630   21.5240  -33.3940 C   0  0  0  0  0  0  0  0  0  0  0  0
   -2.5330   20.4890  -33.7990 C   0  0  0  0  0  0  0  0  0  0  0  0
   -1.5580   19.9510  -32.9840 C   0  0  0  0  0  0  0  0  0  0  0  0
   -1.4260   20.4860  -31.7150 C   0  0  0  0  0  0  0  0  0  0  0  0
   -2.2160   21.5020  -31.2720 C   0  0  0  0  0  0  0  0  0  0  0  0
   -1.9710   22.1110  -29.6500 Cl  0  0  0  0  0  0  0  0  0  0  0  0
   -5.9769   25.8878  -29.8417 H   0  0  0  0  0  0  0  0  0  0  0  0
   -7.9670   24.7065  -30.4574 H   0  0  0  0  0  0  0  0  0  0  0  0
   -9.0150   22.6710  -31.2040 H   0  0  0  0  0  0  0  0  0  0  0  0
   -6.4719   20.6018  -34.4870 H   0  0  0  0  0  0  0  0  0  0  0  0
   -5.2186   18.5886  -35.3114 H   0  0  0  0  0  0  0  0  0  0  0  0
   -5.5810   15.3510  -33.9170 H   0  0  0  0  0  0  0  0  0  0  0  0
   -6.4873   16.3597  -31.8271 H   0  0  0  0  0  0  0  0  0  0  0  0
   -7.7340   18.3790  -31.0245 H   0  0  0  0  0  0  0  0  0  0  0  0
   -5.3490   21.0430  -32.2980 H   0  0  0  0  0  0  0  0  0  0  0  0
   -4.1321   21.9324  -34.0661 H   0  0  0  0  0  0  0  0  0  0  0  0
   -2.6572   20.0799  -34.8125 H   0  0  0  0  0  0  0  0  0  0  0  0
   -0.9121   19.1303  -33.3292 H   0  0  0  0  0  0  0  0  0  0  0  0
   -0.6577   20.0771  -31.0423 H   0  0  0  0  0  0  0  0  0  0  0  0
  1  2  2  0
  2  3  1  0
  3  4  2  0
  4  5  1  0
  5  6  1  0
  6  7  2  0
  7  8  1  0
  8  9  2  0
  9 10  1  0
 10 11  2  0
 11 12  1  0
 11 13  1  0
 13 14  2  0
  6 15  1  0
 15 16  1  0
 16 17  2  0
 17 18  1  0
 18 19  2  0
 19 20  1  0
 20 21  2  0
 21 22  1  0
 22 23  2  0
 23 24  1  0
 16  3  1  0
 23 18  1  0
 14  8  1  0
  2 25  1  0
  4 26  1  0
  5 27  1  0
  9 28  1  0
 10 29  1  0
 12 30  1  0
 13 31  1  0
 14 32  1  0
 15 33  1  0
 19 34  1  0
 20 35  1  0
 21 36  1  0
 22 37  1  0
M  END
>  <smiles>  (12) 
O=Cc1c[nH]c(=Nc2ccc(O)cc2)[nH]c1=Nc1ccccc1Cl

>  <score_type>  (12) 
oracle

>  <origin>  (12) 
adgpu

>  <m_score__min__energy>  (12) 
-8.25

>  <m_primary>  (12) 
energy

$$$$
12:0
     RDKit          3D

 50 52  0  0  0  0  0  0  0  0999 V2000
   -0.0020   22.7210  -24.2290 C   0  0  0  0  0  0  0  0  0  0  0  0
   -0.0540   23.1210  -25.5940 O   0  0  0  0  0  0  0  0  0  0  0  0
   -1.2370   23.3950  -26.2970 C   0  0  0  0  0  0  0  0  0  0  0  0
   -1.8110   22.4680  -27.1870 C   0  0  0  0  0  0  0  0  0  0  0  0
   -2.9900   22.7780  -27.8710 C   0  0  0  0  0  0  0  0  0  0  0  0
   -3.6140   24.0240  -27.6860 C   0  0  0  0  0  0  0  0  0  0  0  0
   -4.8200   24.3810  -28.3850 N   0  0  0  0  0  0  0  0  0  0  0  0
   -4.8790   24.7520  -30.0800 S   0  0  0  0  0  0  0  0  0  0  0  0
   -5.7750   25.9400  -30.2930 O   0  0  0  0  0  0  0  0  0  0  0  0
   -3.4970   25.0890  -30.5640 O   0  0  0  0  0  0  0  0  0  0  0  0
   -5.4680   23.3550  -30.9770 C   0  0  0  0  0  0  0  0  0  0  0  0
   -6.8290   23.2510  -31.2880 C   0  0  0  0  0  0  0  0  0  0  0  0
   -7.3030   22.1600  -32.0200 C   0  0  0  0  0  0  0  0  0  0  0  0
   -6.4250   21.1370  -32.4150 C   0  0  0  0  0  0  0  0  0  0  0  0
   -5.0480   21.2750  -32.1570 C   0  0  0  0  0  0  0  0  0  0  0  0
   -4.5790   22.3680  -31.4210 C   0  0  0  0  0  0  0  0  0  0  0  0
   -4.1280   20.3470  -32.6690 O   0  0  0  0  0  0  0  0  0  0  0  0
   -4.5080   19.1520  -33.3680 C   0  0  0  0  0  0  0  0  0  0  0  0
   -4.6640   18.0100  -32.3460 C   0  0  0  0  0  0  0  0  0  0  0  0
   -3.3880   18.7960  -34.3550 C   0  0  0  0  0  0  0  0  0  0  0  0
   -5.8310   19.3780  -34.1440 C   0  0  0  0  0  0  0  0  0  0  0  0
   -6.8570   19.9680  -33.2220 C   0  0  0  0  0  0  0  0  0  0  0  0
   -8.0200   19.3820  -33.1210 N   0  0  0  0  0  0  0  0  0  0  0  0
   -9.0380   19.6040  -32.1360 C   0  0  0  0  0  0  0  0  0  0  0  0
   -9.9560   20.7870  -32.2070 C   0  0  0  0  0  0  0  0  0  0  0  0
   -9.0920   18.8470  -31.1310 O   0  0  0  0  0  0  0  0  0  0  0  0
   -3.0460   24.9420  -26.7910 C   0  0  0  0  0  0  0  0  0  0  0  0
   -1.8670   24.6340  -26.1040 C   0  0  0  0  0  0  0  0  0  0  0  0
   -1.1830   25.8170  -24.9990 Cl  0  0  0  0  0  0  0  0  0  0  0  0
   -0.1168   23.6042  -23.5835 H   0  0  0  0  0  0  0  0  0  0  0  0
   -0.8151   22.0090  -24.0243 H   0  0  0  0  0  0  0  0  0  0  0  0
    0.9662   22.2406  -24.0243 H   0  0  0  0  0  0  0  0  0  0  0  0
   -1.3283   21.4924  -27.3455 H   0  0  0  0  0  0  0  0  0  0  0  0
   -3.4324   22.0421  -28.5585 H   0  0  0  0  0  0  0  0  0  0  0  0
   -5.7000   24.5230  -27.8400 H   0  0  0  0  0  0  0  0  0  0  0  0
   -7.5282   24.0320  -30.9544 H   0  0  0  0  0  0  0  0  0  0  0  0
   -8.3682   22.1016  -32.2883 H   0  0  0  0  0  0  0  0  0  0  0  0
   -3.5069   22.4528  -31.1898 H   0  0  0  0  0  0  0  0  0  0  0  0
   -4.6080   18.4199  -31.3268 H   0  0  0  0  0  0  0  0  0  0  0  0
   -5.6376   17.5189  -32.4907 H   0  0  0  0  0  0  0  0  0  0  0  0
   -3.8578   17.2758  -32.4907 H   0  0  0  0  0  0  0  0  0  0  0  0
   -2.4848   18.5089  -33.7966 H   0  0  0  0  0  0  0  0  0  0  0  0
   -3.7103   17.9560  -34.9879 H   0  0  0  0  0  0  0  0  0  0  0  0
   -3.1662   19.6679  -34.9879 H   0  0  0  0  0  0  0  0  0  0  0  0
   -5.6514   20.0675  -34.9820 H   0  0  0  0  0  0  0  0  0  0  0  0
   -6.1971   18.4162  -34.5326 H   0  0  0  0  0  0  0  0  0  0  0  0
  -10.2106   21.1152  -31.1884 H   0  0  0  0  0  0  0  0  0  0  0  0
   -9.4559   21.6076  -32.7423 H   0  0  0  0  0  0  0  0  0  0  0  0
  -10.8750   20.5063  -32.7423 H   0  0  0  0  0  0  0  0  0  0  0  0
   -3.5328   25.9148  -26.6274 H   0  0  0  0  0  0  0  0  0  0  0  0
  1  2  1  0
  2  3  1  0
  3  4  2  0
  4  5  1  0
  5  6  2  0
  6  7  1  0
  7  8  1  0
  8  9  2  0
  8 10  2  0
  8 11  1  0
 11 12  2  0
 12 13  1  0
 13 14  2  0
 14 15  1  0
 15 16  2  0
 15 17  1  0
 17 18  1  0
 18 19  1  0
 18 20  1  0
 18 21  1  0
 21 22  1  0
 22 23  2  3
 23 24  1  0
 24 25  1  0
 24 26  2  0
  6 27  1  0
 27 28  2  0
 28 29  1  0
 28  3  1  0
 16 11  1  0
 22 14  1  0
  1 30  1  0
  1 31  1  0
  1 32  1  0
  4 33  1  0
  5 34  1  0
  7 35  1  0
 12 36  1  0
 13 37  1  0
 16 38  1  0
 19 39  1  0
 19 40  1  0
 19 41  1  0
 20 42  1  0
 20 43  1  0
 20 44  1  0
 21 45  1  0
 21 46  1  0
 25 47  1  0
 25 48  1  0
 25 49  1  0
 27 50  1  0
M  END
>  <UniqueID>  (13) 
12

>  <SMILES>  (13) 
COc1ccc(NS(=O)(=O)c2ccc3c(c2)OC(C)(C)CC3=NC(C)=O)cc1Cl

>  <Energy>  (13) 
62.287201646994035

>  <Genealogy>  (13) 
COc1ccc(NS(=O)(=O)c2ccc3c(c2)OC(C)(C)CC3=NC(C)=O)cc1Cl (3D coordinates assigned)
COc1ccc(NS(=O)(=O)c2ccc3c(c2)OC(C)(C)CC3=NC(C)=O)cc1Cl (nonaromatic ring conformer: 62.287201646994035 kcal/mol)

>  <smiles>  (13) 
COc1ccc(NS(=O)(=O)c2ccc3c(c2)OC(C)(C)CC3=NC(C)=O)cc1Cl

>  <score_type>  (13) 
oracle

>  <origin>  (13) 
adgpu

>  <m_score__min__energy>  (13) 
-10.109999999999999

>  <m_primary>  (13) 
energy

$$$$
13:0
     RDKit          3D

 39 41  0  0  0  0  0  0  0  0999 V2000
    0.9340   27.1860  -23.3440 C   0  0  0  0  0  0  0  0  0  0  0  0
    0.0630   26.7200  -24.4730 C   0  0  0  0  0  0  0  0  0  0  0  0
   -0.0570   27.4900  -25.6390 C   0  0  0  0  0  0  0  0  0  0  0  0
   -0.8410   27.0380  -26.7050 C   0  0  0  0  0  0  0  0  0  0  0  0
   -1.5160   25.8070  -26.6190 C   0  0  0  0  0  0  0  0  0  0  0  0
   -2.3080   25.3090  -27.7110 N   0  0  0  0  0  0  0  0  0  0  0  0
   -1.7640   24.5800  -28.8260 C   0  0  0  0  0  0  0  0  0  0  0  0
   -0.5190   24.5430  -29.0120 O   0  0  0  0  0  0  0  0  0  0  0  0
   -2.6160   23.9190  -29.7680 N   0  0  0  0  0  0  0  0  0  0  0  0
   -4.2740   24.3330  -30.0520 S   0  0  0  0  0  0  0  0  0  0  0  0
   -4.3300   25.6080  -30.8480 O   0  0  0  0  0  0  0  0  0  0  0  0
   -4.9600   24.5490  -28.7330 O   0  0  0  0  0  0  0  0  0  0  0  0
   -5.0880   23.0310  -30.9150 C   0  0  0  0  0  0  0  0  0  0  0  0
   -4.3620   22.1960  -31.7750 C   0  0  0  0  0  0  0  0  0  0  0  0
   -4.9970   21.1460  -32.4440 C   0  0  0  0  0  0  0  0  0  0  0  0
   -6.3690   20.9220  -32.2610 C   0  0  0  0  0  0  0  0  0  0  0  0
   -7.0170   19.8680  -32.9230 C   0  0  0  0  0  0  0  0  0  0  0  0
   -8.3850   19.6560  -32.7320 C   0  0  0  0  0  0  0  0  0  0  0  0
   -9.1160   20.4920  -31.8840 C   0  0  0  0  0  0  0  0  0  0  0  0
   -8.4830   21.5460  -31.2180 C   0  0  0  0  0  0  0  0  0  0  0  0
   -7.1080   21.7690  -31.4000 C   0  0  0  0  0  0  0  0  0  0  0  0
   -6.4610   22.8200  -30.7340 C   0  0  0  0  0  0  0  0  0  0  0  0
   -1.3580   25.0210  -25.4690 C   0  0  0  0  0  0  0  0  0  0  0  0
   -0.5770   25.4730  -24.4010 C   0  0  0  0  0  0  0  0  0  0  0  0
    0.4587   26.9317  -22.3851 H   0  0  0  0  0  0  0  0  0  0  0  0
    1.9147   26.6921  -23.4095 H   0  0  0  0  0  0  0  0  0  0  0  0
    1.0673   28.2759  -23.4095 H   0  0  0  0  0  0  0  0  0  0  0  0
    0.4679   28.4537  -25.7153 H   0  0  0  0  0  0  0  0  0  0  0  0
   -0.9303   27.6484  -27.6157 H   0  0  0  0  0  0  0  0  0  0  0  0
   -3.3100   25.5960  -27.7420 H   0  0  0  0  0  0  0  0  0  0  0  0
   -3.2859   22.3680  -31.9244 H   0  0  0  0  0  0  0  0  0  0  0  0
   -4.4192   20.4939  -33.1155 H   0  0  0  0  0  0  0  0  0  0  0  0
   -6.4473   19.2076  -33.5933 H   0  0  0  0  0  0  0  0  0  0  0  0
   -8.8885   18.8274  -33.2515 H   0  0  0  0  0  0  0  0  0  0  0  0
  -10.1929   20.3204  -31.7399 H   0  0  0  0  0  0  0  0  0  0  0  0
   -9.0623   22.2012  -30.5509 H   0  0  0  0  0  0  0  0  0  0  0  0
   -7.0338   23.4811  -30.0670 H   0  0  0  0  0  0  0  0  0  0  0  0
   -1.8526   24.0405  -25.4064 H   0  0  0  0  0  0  0  0  0  0  0  0
   -0.4638   24.8495  -23.5018 H   0  0  0  0  0  0  0  0  0  0  0  0
  1  2  1  0
  2  3  2  0
  3  4  1  0
  4  5  2  0
  5  6  1  0
  6  7  1  0
  7  8  2  0
  7  9  1  0
  9 10  1  0
 10 11  2  0
 10 12  2  0
 10 13  1  0
 13 14  2  0
 14 15  1  0
 15 16  2  0
 16 17  1  0
 17 18  2  0
 18 19  1  0
 19 20  2  0
 20 21  1  0
 21 22  2  0
  5 23  1  0
 23 24  2  0
 24  2  1  0
 22 13  1  0
 21 16  1  0
  1 25  1  0
  1 26  1  0
  1 27  1  0
  3 28  1  0
  4 29  1  0
  6 30  1  0
 14 31  1  0
 15 32  1  0
 17 33  1  0
 18 34  1  0
 19 35  1  0
 20 36  1  0
 22 37  1  0
 23 38  1  0
 24 39  1  0
M  CHG  1   9  -1
M  END
>  <UniqueID>  (14) 
13

>  <SMILES>  (14) 
Cc1ccc(NC(=O)[N-]S(=O)(=O)c2ccc3ccccc3c2)cc1

>  <Energy>  (14) 
49.08208403497055

>  <Genealogy>  (14) 
Cc1ccc(NC(=O)[N-]S(=O)(=O)c2ccc3ccccc3c2)cc1 (protonated)
Cc1ccc(NC(=O)[N-]S(=O)(=O)c2ccc3ccccc3c2)cc1 (3D coordinates assigned)
Cc1ccc(NC(=O)[N-]S(=O)(=O)c2ccc3ccccc3c2)cc1 (optimized conformer: 49.08208403497055 kcal/mol)

>  <smiles>  (14) 
Cc1ccc(NC(=O)NS(=O)(=O)c2ccc3ccccc3c2)cc1

>  <score_type>  (14) 
oracle

>  <origin>  (14) 
adgpu

>  <m_score__min__energy>  (14) 
-10.869999999999999

>  <m_primary>  (14) 
energy

$$$$
14:0
     RDKit          3D

 43 46  0  0  0  0  0  0  0  0999 V2000
   -6.0480   18.6800  -34.1080 C   0  0  0  0  0  0  0  0  0  0  0  0
   -6.9820   19.2800  -33.1000 C   0  0  0  0  0  0  0  0  0  0  0  0
   -8.1210   18.5820  -32.6690 C   0  0  0  0  0  0  0  0  0  0  0  0
   -8.9920   19.1610  -31.7430 C   0  0  0  0  0  0  0  0  0  0  0  0
   -8.7360   20.4410  -31.2430 C   0  0  0  0  0  0  0  0  0  0  0  0
   -7.5990   21.1490  -31.6620 C   0  0  0  0  0  0  0  0  0  0  0  0
   -7.3520   22.5460  -31.1620 C   0  0  0  0  0  0  0  0  0  0  0  0
   -6.3970   23.5260  -32.3750 S   0  0  0  0  0  0  0  0  0  0  0  0
   -4.9820   23.7710  -31.2950 C   0  0  0  0  0  0  0  0  0  0  0  0
   -4.6020   24.9810  -30.8440 N   0  0  0  0  0  0  0  0  0  0  0  0
   -3.4840   24.8020  -30.1580 N   0  0  0  0  0  0  0  0  0  0  0  0
   -3.1970   23.4860  -30.2050 C   0  0  0  0  0  0  0  0  0  0  0  0
   -1.9680   22.8910  -29.5810 C   0  0  0  0  0  0  0  0  0  0  0  0
   -1.2800   23.8980  -28.7790 N   0  0  0  0  0  0  0  0  0  0  0  0
   -0.0130   24.2650  -28.9470 N   0  0  0  0  0  0  0  0  0  0  0  0
    0.3540   25.1560  -28.0260 N   0  0  0  0  0  0  0  0  0  0  0  0
   -0.7290   25.3430  -27.2490 C   0  0  0  0  0  0  0  0  0  0  0  0
   -0.8720   26.1580  -26.1310 C   0  0  0  0  0  0  0  0  0  0  0  0
   -2.1210   26.1490  -25.4780 C   0  0  0  0  0  0  0  0  0  0  0  0
   -3.1740   25.3320  -25.9540 C   0  0  0  0  0  0  0  0  0  0  0  0
   -2.9910   24.5180  -27.0890 C   0  0  0  0  0  0  0  0  0  0  0  0
   -1.7440   24.5630  -27.7090 C   0  0  0  0  0  0  0  0  0  0  0  0
   -4.1360   22.8030  -30.8920 N   0  0  0  0  0  0  0  0  0  0  0  0
   -4.1640   21.3810  -31.2300 C   0  0  0  0  0  0  0  0  0  0  0  0
   -6.7240   20.5620  -32.5910 C   0  0  0  0  0  0  0  0  0  0  0  0
   -5.2330   18.1565  -33.5867 H   0  0  0  0  0  0  0  0  0  0  0  0
   -6.5983   17.9660  -34.7384 H   0  0  0  0  0  0  0  0  0  0  0  0
   -5.6275   19.4773  -34.7384 H   0  0  0  0  0  0  0  0  0  0  0  0
   -8.3284   17.5757  -33.0618 H   0  0  0  0  0  0  0  0  0  0  0  0
   -9.8815   18.6083  -31.4065 H   0  0  0  0  0  0  0  0  0  0  0  0
   -9.4282   20.8950  -30.5186 H   0  0  0  0  0  0  0  0  0  0  0  0
   -8.3190   23.0393  -30.9844 H   0  0  0  0  0  0  0  0  0  0  0  0
   -6.7703   22.4838  -30.2305 H   0  0  0  0  0  0  0  0  0  0  0  0
   -2.2579   22.0477  -28.9370 H   0  0  0  0  0  0  0  0  0  0  0  0
   -1.2936   22.5382  -30.3751 H   0  0  0  0  0  0  0  0  0  0  0  0
   -0.0430   26.7848  -25.7707 H   0  0  0  0  0  0  0  0  0  0  0  0
   -2.2785   26.7816  -24.5920 H   0  0  0  0  0  0  0  0  0  0  0  0
   -4.1431   25.3326  -25.4335 H   0  0  0  0  0  0  0  0  0  0  0  0
   -3.7979   23.8745  -27.4695 H   0  0  0  0  0  0  0  0  0  0  0  0
   -4.1757   20.7846  -30.3058 H   0  0  0  0  0  0  0  0  0  0  0  0
   -5.0666   21.1619  -31.8193 H   0  0  0  0  0  0  0  0  0  0  0  0
   -3.2707   21.1265  -31.8193 H   0  0  0  0  0  0  0  0  0  0  0  0
   -5.8302   21.1112  -32.9218 H   0  0  0  0  0  0  0  0  0  0  0  0
  1  2  1  0
  2  3  2  0
  3  4  1  0
  4  5  2  0
  5  6  1  0
  6  7  1  0
  7  8  1  0
  8  9  1  0
  9 10  2  0
 10 11  1  0
 11 12  2  0
 12 13  1  0
 13 14  1  0
 14 15  1  0
 15 16  2  0
 16 17  1  0
 17 18  2  0
 18 19  1  0
 19 20  2  0
 20 21  1  0
 21 22  2  0
 12 23  1  0
 23 24  1  0
  6 25  2  0
 25  2  1  0
 23  9  1  0
 22 14  1  0
 22 17  1  0
  1 26  1  0
  1 27  1  0
  1 28  1  0
  3 29  1  0
  4 30  1  0
  5 31  1  0
  7 32  1  0
  7 33  1  0
 13 34  1  0
 13 35  1  0
 18 36  1  0
 19 37  1  0
 20 38  1  0
 21 39  1  0
 24 40  1  0
 24 41  1  0
 24 42  1  0
 25 43  1  0
M  END
>  <UniqueID>  (15) 
14

>  <SMILES>  (15) 
Cc1cccc(CSc2nnc(Cn3nnc4ccccc43)n2C)c1

>  <Energy>  (15) 
115.57798297009433

>  <Genealogy>  (15) 
Cc1cccc(CSc2nnc(Cn3nnc4ccccc43)n2C)c1 (3D coordinates assigned)
Cc1cccc(CSc2nnc(Cn3nnc4ccccc43)n2C)c1 (optimized conformer: 115.57798297009433 kcal/mol)

>  <smiles>  (15) 
Cc1cccc(CSc2nnc(Cn3nnc4ccccc43)n2C)c1

>  <score_type>  (15) 
oracle

>  <origin>  (15) 
adgpu

>  <m_score__min__energy>  (15) 
-10.48

>  <m_primary>  (15) 
energy

$$$$
15:0
     RDKit          3D

 61 65  0  0  0  0  0  0  0  0999 V2000
   -2.0999   17.7682  -35.2470 H   0  0  0  0  0  0  0  0  0  0  0  0
   -2.5460   18.4680  -34.5250 C   0  0  0  0  0  0  0  0  0  0  0  0
   -2.0140   19.6530  -34.3960 N   0  0  0  0  0  0  0  0  0  0  0  0
   -2.3830   20.6180  -33.3990 C   0  0  0  0  0  0  0  0  0  0  0  0
   -3.4730   21.4650  -33.6290 C   0  0  0  0  0  0  0  0  0  0  0  0
   -3.9845   21.4496  -34.6027 H   0  0  0  0  0  0  0  0  0  0  0  0
   -3.9130   22.3310  -32.6230 C   0  0  0  0  0  0  0  0  0  0  0  0
   -4.7880   22.9742  -32.7981 H   0  0  0  0  0  0  0  0  0  0  0  0
   -3.2430   22.3830  -31.3910 C   0  0  0  0  0  0  0  0  0  0  0  0
   -3.8010   23.4460  -30.1010 S   0  0  0  0  0  0  0  0  0  0  0  0
   -3.8380   24.8790  -30.5570 O   0  0  0  0  0  0  0  0  0  0  0  0
   -5.1950   23.0430  -29.7140 O   0  0  0  0  0  0  0  0  0  0  0  0
   -2.7690   23.2950  -28.7120 N   0  0  0  0  0  0  0  0  0  0  0  0
   -1.9260   24.1840  -28.2620 C   0  0  0  0  0  0  0  0  0  0  0  0
   -1.1640   23.8840  -27.1120 C   0  0  0  0  0  0  0  0  0  0  0  0
   -1.3140   22.5630  -26.4030 C   0  0  0  0  0  0  0  0  0  0  0  0
   -1.2954   22.7264  -25.3154 H   0  0  0  0  0  0  0  0  0  0  0  0
   -2.2704   22.1004  -26.6880 H   0  0  0  0  0  0  0  0  0  0  0  0
   -0.4856   21.8977  -26.6880 H   0  0  0  0  0  0  0  0  0  0  0  0
   -0.2510   24.8360  -26.6320 C   0  0  0  0  0  0  0  0  0  0  0  0
    0.3468   24.6168  -25.7350 H   0  0  0  0  0  0  0  0  0  0  0  0
   -0.0970   26.0620  -27.2880 C   0  0  0  0  0  0  0  0  0  0  0  0
    0.8350   27.1060  -26.7490 C   0  0  0  0  0  0  0  0  0  0  0  0
    0.8146   27.0832  -25.6494 H   0  0  0  0  0  0  0  0  0  0  0  0
    1.8570   26.9022  -27.1011 H   0  0  0  0  0  0  0  0  0  0  0  0
    0.5170   28.0984  -27.1011 H   0  0  0  0  0  0  0  0  0  0  0  0
   -0.8850   26.3280  -28.4130 C   0  0  0  0  0  0  0  0  0  0  0  0
   -0.7914   27.2952  -28.9284 H   0  0  0  0  0  0  0  0  0  0  0  0
   -1.7670   25.3990  -28.8750 N   0  0  0  0  0  0  0  0  0  0  0  0
   -2.3220   25.6610  -29.7150 H   0  0  0  0  0  0  0  0  0  0  0  0
   -2.1200   21.5730  -31.1820 C   0  0  0  0  0  0  0  0  0  0  0  0
   -1.5734   21.6289  -30.2290 H   0  0  0  0  0  0  0  0  0  0  0  0
   -1.6920   20.6950  -32.1790 C   0  0  0  0  0  0  0  0  0  0  0  0
   -0.8097   20.0607  -32.0083 H   0  0  0  0  0  0  0  0  0  0  0  0
   -3.7270   18.0210  -33.7410 C   0  0  0  0  0  0  0  0  0  0  0  0
   -4.7810   18.9200  -33.5360 C   0  0  0  0  0  0  0  0  0  0  0  0
   -4.7598   19.8970  -34.0411 H   0  0  0  0  0  0  0  0  0  0  0  0
   -5.8340   18.6120  -32.7240 N   0  0  0  0  0  0  0  0  0  0  0  0
   -6.8020   19.6420  -32.4460 C   0  0  0  0  0  0  0  0  0  0  0  0
   -8.1660   19.4190  -32.6940 C   0  0  0  0  0  0  0  0  0  0  0  0
   -8.4914   18.4733  -33.1521 H   0  0  0  0  0  0  0  0  0  0  0  0
   -9.1120   20.3920  -32.3620 C   0  0  0  0  0  0  0  0  0  0  0  0
  -10.1781   20.2135  -32.5660 H   0  0  0  0  0  0  0  0  0  0  0  0
   -8.7060   21.5920  -31.7710 C   0  0  0  0  0  0  0  0  0  0  0  0
   -9.4523   22.3549  -31.5047 H   0  0  0  0  0  0  0  0  0  0  0  0
   -7.3510   21.8210  -31.5190 C   0  0  0  0  0  0  0  0  0  0  0  0
   -7.0313   22.7672  -31.0580 H   0  0  0  0  0  0  0  0  0  0  0  0
   -6.4000   20.8510  -31.8510 C   0  0  0  0  0  0  0  0  0  0  0  0
   -5.3349   21.0342  -31.6462 H   0  0  0  0  0  0  0  0  0  0  0  0
   -5.9270   17.3790  -32.1340 C   0  0  0  0  0  0  0  0  0  0  0  0
   -6.9200   17.1040  -31.4040 O   0  0  0  0  0  0  0  0  0  0  0  0
   -4.9260   16.4110  -32.3540 C   0  0  0  0  0  0  0  0  0  0  0  0
   -4.9990   15.1410  -31.7500 C   0  0  0  0  0  0  0  0  0  0  0  0
   -5.8624   14.8864  -31.1178 H   0  0  0  0  0  0  0  0  0  0  0  0
   -3.9850   14.2030  -31.9470 C   0  0  0  0  0  0  0  0  0  0  0  0
   -4.0525   13.2138  -31.4706 H   0  0  0  0  0  0  0  0  0  0  0  0
   -2.8880   14.5160  -32.7450 C   0  0  0  0  0  0  0  0  0  0  0  0
   -2.0900   13.7739  -32.8953 H   0  0  0  0  0  0  0  0  0  0  0  0
   -2.7970   15.7700  -33.3560 C   0  0  0  0  0  0  0  0  0  0  0  0
   -1.9279   16.0075  -33.9870 H   0  0  0  0  0  0  0  0  0  0  0  0
   -3.8110   16.7340  -33.1700 C   0  0  0  0  0  0  0  0  0  0  0  0
  1  2  1  0
  2  3  2  3
  3  4  1  0
  4  5  2  0
  5  6  1  0
  5  7  1  0
  7  8  1  0
  7  9  2  0
  9 10  1  0
 10 11  2  0
 10 12  2  0
 10 13  1  0
 13 14  2  0
 14 15  1  0
 15 16  1  0
 16 17  1  0
 16 18  1  0
 16 19  1  0
 15 20  2  0
 20 21  1  0
 20 22  1  0
 22 23  1  0
 23 24  1  0
 23 25  1  0
 23 26  1  0
 22 27  2  0
 27 28  1  0
 27 29  1  0
 29 30  1  0
  9 31  1  0
 31 32  1  0
 31 33  2  0
 33 34  1  0
  2 35  1  0
 35 36  2  0
 36 37  1  0
 36 38  1  0
 38 39  1  0
 39 40  2  0
 40 41  1  0
 40 42  1  0
 42 43  1  0
 42 44  2  0
 44 45  1  0
 44 46  1  0
 46 47  1  0
 46 48  2  0
 48 49  1  0
 38 50  1  0
 50 51  2  0
 50 52  1  0
 52 53  2  0
 53 54  1  0
 53 55  1  0
 55 56  1  0
 55 57  2  0
 57 58  1  0
 57 59  1  0
 59 60  1  0
 59 61  2  0
 33  4  1  0
 61 35  1  0
 29 14  1  0
 48 39  1  0
 61 52  1  0
M  END
>  <UniqueID>  (16) 
15

>  <SMILES>  (16) 
Cc1c[nH]/c(=N\S(=O)(=O)c2ccc(N=Cc3cn(-c4ccccc4)c(=O)c4ccccc34)cc2)c(C)c1

>  <Energy>  (16) 
99.46513241542536

>  <Genealogy>  (16) 
Cc1c[nH]/c(=N\S(=O)(=O)c2ccc(N=Cc3cn(-c4ccccc4)c(=O)c4ccccc34)cc2)c(C)c1 (cis-trans isomerization)
Cc1c[nH]/c(=N\S(=O)(=O)c2ccc(N=Cc3cn(-c4ccccc4)c(=O)c4ccccc34)cc2)c(C)c1 (3D coordinates assigned)
Cc1c[nH]/c(=N\S(=O)(=O)c2ccc(N=Cc3cn(-c4ccccc4)c(=O)c4ccccc34)cc2)c(C)c1 (optimized conformer: 99.46513241542536 kcal/mol)

>  <smiles>  (16) 
Cc1c[nH]c(=NS(=O)(=O)c2ccc(N=Cc3cn(-c4ccccc4)c(=O)c4ccccc34)cc2)c(C)c1

>  <score_type>  (16) 
oracle

>  <origin>  (16) 
adgpu

>  <m_score__min__energy>  (16) 
-11.31

>  <m_primary>  (16) 
energy

$$$$
16:0
     RDKit          3D

 64 68  0  0  0  0  0  0  0  0999 V2000
   -3.8920   24.9150  -30.0920 C   0  0  0  0  0  0  0  0  0  0  0  0
   -4.7060   24.4410  -31.2000 N   0  0  0  0  0  0  0  0  0  0  0  0
   -4.9650   23.0540  -31.4420 C   0  0  0  0  0  0  0  0  0  0  0  0
   -4.0020   22.2390  -31.5040 O   0  0  0  0  0  0  0  0  0  0  0  0
   -6.3540   22.5680  -31.6440 C   0  0  0  0  0  0  0  0  0  0  0  0
   -7.3890   23.5090  -31.8100 C   0  0  0  0  0  0  0  0  0  0  0  0
   -8.7100   23.0940  -31.9780 C   0  0  0  0  0  0  0  0  0  0  0  0
   -9.0200   21.7350  -31.9730 C   0  0  0  0  0  0  0  0  0  0  0  0
   -8.0060   20.7850  -31.8310 C   0  0  0  0  0  0  0  0  0  0  0  0
   -6.6620   21.1850  -31.6920 C   0  0  0  0  0  0  0  0  0  0  0  0
   -5.6050   20.2140  -31.6250 N   0  0  0  0  0  0  0  0  0  0  0  0
   -5.2690   18.9890  -32.8080 S   0  0  0  0  0  0  0  0  0  0  0  0
   -6.2740   19.0960  -33.9200 O   0  0  0  0  0  0  0  0  0  0  0  0
   -5.4010   17.6250  -32.1910 O   0  0  0  0  0  0  0  0  0  0  0  0
   -3.6550   19.2230  -33.4720 C   0  0  0  0  0  0  0  0  0  0  0  0
   -3.1380   20.5100  -33.6800 C   0  0  0  0  0  0  0  0  0  0  0  0
   -1.8450   20.6760  -34.1900 C   0  0  0  0  0  0  0  0  0  0  0  0
   -1.0520   19.5560  -34.4890 C   0  0  0  0  0  0  0  0  0  0  0  0
    0.2760   19.7210  -35.0150 N   0  0  0  0  0  0  0  0  0  0  0  0
    0.9430   18.8630  -35.8210 C   0  0  0  0  0  0  0  0  0  0  0  0
    0.4710   17.5990  -36.1700 O   0  0  0  0  0  0  0  0  0  0  0  0
    2.1400   19.4060  -36.2510 C   0  0  0  0  0  0  0  0  0  0  0  0
    2.2090   20.6520  -35.6590 C   0  0  0  0  0  0  0  0  0  0  0  0
    3.2040   21.6430  -35.9380 N   0  0  0  0  0  0  0  0  0  0  0  0
    2.9460   23.0550  -35.9490 C   0  0  0  0  0  0  0  0  0  0  0  0
    1.7330   23.5670  -36.4380 C   0  0  0  0  0  0  0  0  0  0  0  0
    1.4690   24.9400  -36.3710 C   0  0  0  0  0  0  0  0  0  0  0  0
    2.4060   25.8140  -35.7920 C   0  0  0  0  0  0  0  0  0  0  0  0
    2.1750   27.1930  -35.6970 O   0  0  0  0  0  0  0  0  0  0  0  0
    0.9430   27.8320  -35.9090 C   0  0  0  0  0  0  0  0  0  0  0  0
    0.6730   28.5700  -37.0770 C   0  0  0  0  0  0  0  0  0  0  0  0
   -0.5760   29.1800  -37.2530 C   0  0  0  0  0  0  0  0  0  0  0  0
   -1.5620   29.0500  -36.2710 C   0  0  0  0  0  0  0  0  0  0  0  0
   -1.3130   28.2880  -35.1250 C   0  0  0  0  0  0  0  0  0  0  0  0
   -0.0660   27.6790  -34.9480 C   0  0  0  0  0  0  0  0  0  0  0  0
    3.6220   25.3040  -35.3290 C   0  0  0  0  0  0  0  0  0  0  0  0
    3.8840   23.9330  -35.3900 C   0  0  0  0  0  0  0  0  0  0  0  0
    1.0480   20.8240  -34.9270 C   0  0  0  0  0  0  0  0  0  0  0  0
    0.6690   21.9930  -34.2700 O   0  0  0  0  0  0  0  0  0  0  0  0
   -1.5790   18.2690  -34.2900 C   0  0  0  0  0  0  0  0  0  0  0  0
   -2.8720   18.1060  -33.7860 C   0  0  0  0  0  0  0  0  0  0  0  0
   -4.3696   24.6369  -29.1409 H   0  0  0  0  0  0  0  0  0  0  0  0
   -2.8934   24.4572  -30.1485 H   0  0  0  0  0  0  0  0  0  0  0  0
   -3.7973   26.0095  -30.1485 H   0  0  0  0  0  0  0  0  0  0  0  0
   -7.1527   24.5833  -31.8071 H   0  0  0  0  0  0  0  0  0  0  0  0
   -9.5074   23.8394  -32.1145 H   0  0  0  0  0  0  0  0  0  0  0  0
  -10.0653   21.4101  -32.0811 H   0  0  0  0  0  0  0  0  0  0  0  0
   -8.2590   19.7145  -31.8276 H   0  0  0  0  0  0  0  0  0  0  0  0
   -3.7506   21.3920  -33.4416 H   0  0  0  0  0  0  0  0  0  0  0  0
   -1.4482   21.6882  -34.3573 H   0  0  0  0  0  0  0  0  0  0  0  0
   -0.2470   17.4900  -36.8780 H   0  0  0  0  0  0  0  0  0  0  0  0
    2.8795   18.9440  -36.9216 H   0  0  0  0  0  0  0  0  0  0  0  0
    4.1710   21.3130  -36.1530 H   0  0  0  0  0  0  0  0  0  0  0  0
    0.9876   22.8864  -36.8753 H   0  0  0  0  0  0  0  0  0  0  0  0
    0.5250   25.3367  -36.7728 H   0  0  0  0  0  0  0  0  0  0  0  0
    1.4453   28.6681  -37.8542 H   0  0  0  0  0  0  0  0  0  0  0  0
   -0.7806   29.7613  -38.1642 H   0  0  0  0  0  0  0  0  0  0  0  0
   -2.5346   29.5474  -36.3996 H   0  0  0  0  0  0  0  0  0  0  0  0
   -2.0973   28.1676  -34.3632 H   0  0  0  0  0  0  0  0  0  0  0  0
    0.1241   27.0757  -34.0481 H   0  0  0  0  0  0  0  0  0  0  0  0
    4.3780   25.9867  -34.9137 H   0  0  0  0  0  0  0  0  0  0  0  0
    4.8331   23.5402  -34.9965 H   0  0  0  0  0  0  0  0  0  0  0  0
   -0.9706   17.3851  -34.5322 H   0  0  0  0  0  0  0  0  0  0  0  0
   -3.2768   17.0944  -33.6352 H   0  0  0  0  0  0  0  0  0  0  0  0
  1  2  1  0
  2  3  1  0
  3  4  2  0
  3  5  1  0
  5  6  2  0
  6  7  1  0
  7  8  2  0
  8  9  1  0
  9 10  2  0
 10 11  1  0
 11 12  1  0
 12 13  2  0
 12 14  2  0
 12 15  1  0
 15 16  2  0
 16 17  1  0
 17 18  2  0
 18 19  1  0
 19 20  1  0
 20 21  1  0
 20 22  2  0
 22 23  1  0
 23 24  1  0
 24 25  1  0
 25 26  2  0
 26 27  1  0
 27 28  2  0
 28 29  1  0
 29 30  1  0
 30 31  2  0
 31 32  1  0
 32 33  2  0
 33 34  1  0
 34 35  2  0
 28 36  1  0
 36 37  2  0
 23 38  2  0
 38 39  1  0
 18 40  1  0
 40 41  2  0
 10  5  1  0
 41 15  1  0
 38 19  1  0
 37 25  1  0
 35 30  1  0
  1 42  1  0
  1 43  1  0
  1 44  1  0
  6 45  1  0
  7 46  1  0
  8 47  1  0
  9 48  1  0
 16 49  1  0
 17 50  1  0
 21 51  1  0
 22 52  1  0
 24 53  1  0
 26 54  1  0
 27 55  1  0
 31 56  1  0
 32 57  1  0
 33 58  1  0
 34 59  1  0
 35 60  1  0
 36 61  1  0
 37 62  1  0
 40 63  1  0
 41 64  1  0
M  CHG  3   2  -1  11  -1  39  -1
M  END
>  <UniqueID>  (17) 
16

>  <SMILES>  (17) 
C[N-]C(=O)c1ccccc1[N-]S(=O)(=O)c1ccc(-n2c(O)cc(Nc3ccc(Oc4ccccc4)cc3)c2[O-])cc1

>  <Energy>  (17) 
122.3675012669511

>  <Genealogy>  (17) 
C[N-]C(=O)c1ccccc1[N-]S(=O)(=O)c1ccc(-n2c(O)cc(Nc3ccc(Oc4ccccc4)cc3)c2[O-])cc1 (protonated)
C[N-]C(=O)c1ccccc1[N-]S(=O)(=O)c1ccc(-n2c(O)cc(Nc3ccc(Oc4ccccc4)cc3)c2[O-])cc1 (3D coordinates assigned)
C[N-]C(=O)c1ccccc1[N-]S(=O)(=O)c1ccc(-n2c(O)cc(Nc3ccc(Oc4ccccc4)cc3)c2[O-])cc1 (optimized conformer: 122.3675012669511 kcal/mol)

>  <smiles>  (17) 
CNC(=O)c1ccccc1NS(=O)(=O)c1ccc(-n2c(O)cc(Nc3ccc(Oc4ccccc4)cc3)c2O)cc1

>  <score_type>  (17) 
oracle

>  <origin>  (17) 
adgpu

>  <m_score__min__energy>  (17) 
-11.09

>  <m_primary>  (17) 
energy

$$$$
17:0
     RDKit          3D

 52 55  0  0  0  0  0  0  0  0999 V2000
   -1.8030   21.3320  -32.1380 C   0  0  0  0  0  0  0  0  0  0  0  0
   -2.9820   21.6420  -32.8720 O   0  0  0  0  0  0  0  0  0  0  0  0
   -4.0120   20.7290  -33.1420 C   0  0  0  0  0  0  0  0  0  0  0  0
   -3.6940   19.5540  -33.8330 C   0  0  0  0  0  0  0  0  0  0  0  0
   -4.6840   18.6140  -34.1270 C   0  0  0  0  0  0  0  0  0  0  0  0
   -6.0060   18.8440  -33.7390 C   0  0  0  0  0  0  0  0  0  0  0  0
   -6.3480   20.0260  -33.0640 C   0  0  0  0  0  0  0  0  0  0  0  0
   -7.7510   20.2700  -32.6760 C   0  0  0  0  0  0  0  0  0  0  0  0
   -8.6950   19.3120  -32.6400 N   0  0  0  0  0  0  0  0  0  0  0  0
   -9.8500   19.8390  -32.2670 N   0  0  0  0  0  0  0  0  0  0  0  0
   -9.6590   21.1570  -32.0650 C   0  0  0  0  0  0  0  0  0  0  0  0
   -8.3370   21.4750  -32.3150 C   0  0  0  0  0  0  0  0  0  0  0  0
   -7.7610   22.8620  -32.3420 C   0  0  0  0  0  0  0  0  0  0  0  0
   -7.4030   23.2850  -30.9880 N   0  0  0  0  0  0  0  0  0  0  0  0
   -6.0490   23.4370  -30.5200 C   0  0  0  0  0  0  0  0  0  0  0  0
   -5.4380   24.6990  -30.5900 C   0  0  0  0  0  0  0  0  0  0  0  0
   -4.1240   24.8780  -30.1470 C   0  0  0  0  0  0  0  0  0  0  0  0
   -3.4050   23.7980  -29.6180 C   0  0  0  0  0  0  0  0  0  0  0  0
   -1.7540   24.0100  -29.0470 S   0  0  0  0  0  0  0  0  0  0  0  0
   -1.6040   23.3040  -27.7280 O   0  0  0  0  0  0  0  0  0  0  0  0
   -0.7680   23.4270  -30.0200 O   0  0  0  0  0  0  0  0  0  0  0  0
   -1.4160   25.6970  -28.8300 N   0  0  0  0  0  0  0  0  0  0  0  0
   -1.2100   26.3450  -27.5670 C   0  0  0  0  0  0  0  0  0  0  0  0
   -1.8130   25.7960  -26.4260 C   0  0  0  0  0  0  0  0  0  0  0  0
   -1.6420   26.3990  -25.1760 C   0  0  0  0  0  0  0  0  0  0  0  0
   -0.8660   27.5540  -25.0550 C   0  0  0  0  0  0  0  0  0  0  0  0
   -0.2620   28.1110  -26.1850 C   0  0  0  0  0  0  0  0  0  0  0  0
   -0.4260   27.5080  -27.4370 C   0  0  0  0  0  0  0  0  0  0  0  0
   -4.0120   22.5390  -29.5350 C   0  0  0  0  0  0  0  0  0  0  0  0
   -5.3250   22.3570  -29.9770 C   0  0  0  0  0  0  0  0  0  0  0  0
   -5.3440   20.9550  -32.7470 C   0  0  0  0  0  0  0  0  0  0  0  0
   -2.0166   21.3882  -31.0604 H   0  0  0  0  0  0  0  0  0  0  0  0
   -1.4689   20.3155  -32.3931 H   0  0  0  0  0  0  0  0  0  0  0  0
   -1.0121   22.0527  -32.3931 H   0  0  0  0  0  0  0  0  0  0  0  0
   -2.6560   19.3696  -34.1470 H   0  0  0  0  0  0  0  0  0  0  0  0
   -4.4223   17.6909  -34.6650 H   0  0  0  0  0  0  0  0  0  0  0  0
   -6.7813   18.0965  -33.9631 H   0  0  0  0  0  0  0  0  0  0  0  0
   -8.5600   18.2990  -32.8590 H   0  0  0  0  0  0  0  0  0  0  0  0
  -10.4350   21.8701  -31.7498 H   0  0  0  0  0  0  0  0  0  0  0  0
   -6.8616   22.8700  -32.9753 H   0  0  0  0  0  0  0  0  0  0  0  0
   -8.5118   23.5554  -32.7487 H   0  0  0  0  0  0  0  0  0  0  0  0
   -8.1840   23.5850  -30.3600 H   0  0  0  0  0  0  0  0  0  0  0  0
   -5.9977   25.5541  -30.9968 H   0  0  0  0  0  0  0  0  0  0  0  0
   -3.6532   25.8699  -30.2140 H   0  0  0  0  0  0  0  0  0  0  0  0
   -2.4241   24.8857  -26.5149 H   0  0  0  0  0  0  0  0  0  0  0  0
   -2.1196   25.9629  -24.2862 H   0  0  0  0  0  0  0  0  0  0  0  0
   -0.7304   28.0250  -24.0702 H   0  0  0  0  0  0  0  0  0  0  0  0
    0.3432   29.0247  -26.0904 H   0  0  0  0  0  0  0  0  0  0  0  0
    0.0591   27.9438  -28.3229 H   0  0  0  0  0  0  0  0  0  0  0  0
   -3.4520   21.6883  -29.1194 H   0  0  0  0  0  0  0  0  0  0  0  0
   -5.7957   21.3657  -29.9007 H   0  0  0  0  0  0  0  0  0  0  0  0
   -5.6002   21.8659  -32.1860 H   0  0  0  0  0  0  0  0  0  0  0  0
  1  2  1  0
  2  3  1  0
  3  4  2  0
  4  5  1  0
  5  6  2  0
  6  7  1  0
  7  8  1  0
  8  9  1  0
  9 10  1  0
 10 11  2  0
 11 12  1  0
 12 13  1  0
 13 14  1  0
 14 15  1  0
 15 16  2  0
 16 17  1  0
 17 18  2  0
 18 19  1  0
 19 20  2  0
 19 21  2  0
 19 22  1  0
 22 23  1  0
 23 24  2  0
 24 25  1  0
 25 26  2  0
 26 27  1  0
 27 28  2  0
 18 29  1  0
 29 30  2  0
  7 31  2  0
 31  3  1  0
 12  8  2  0
 30 15  1  0
 28 23  1  0
  1 32  1  0
  1 33  1  0
  1 34  1  0
  4 35  1  0
  5 36  1  0
  6 37  1  0
  9 38  1  0
 11 39  1  0
 13 40  1  0
 13 41  1  0
 14 42  1  0
 16 43  1  0
 17 44  1  0
 24 45  1  0
 25 46  1  0
 26 47  1  0
 27 48  1  0
 28 49  1  0
 29 50  1  0
 30 51  1  0
 31 52  1  0
M  CHG  1  22  -1
M  END
>  <UniqueID>  (18) 
17

>  <SMILES>  (18) 
COc1cccc(-c2[nH]ncc2CNc2ccc(S(=O)(=O)[N-]c3ccccc3)cc2)c1

>  <Energy>  (18) 
91.63446856057146

>  <Genealogy>  (18) 
COc1cccc(-c2[nH]ncc2CNc2ccc(S(=O)(=O)[N-]c3ccccc3)cc2)c1 (protonated)
COc1cccc(-c2[nH]ncc2CNc2ccc(S(=O)(=O)[N-]c3ccccc3)cc2)c1 (3D coordinates assigned)
COc1cccc(-c2[nH]ncc2CNc2ccc(S(=O)(=O)[N-]c3ccccc3)cc2)c1 (optimized conformer: 91.63446856057146 kcal/mol)

>  <smiles>  (18) 
COc1cccc(-c2[nH]ncc2CNc2ccc(S(=O)(=O)Nc3ccccc3)cc2)c1

>  <score_type>  (18) 
oracle

>  <origin>  (18) 
adgpu

>  <m_score__min__energy>  (18) 
-10.710000000000001

>  <m_primary>  (18) 
energy

$$$$
18:0
     RDKit          3D

 45 47  0  0  0  0  0  0  0  0999 V2000
   -3.1100   19.8660  -27.4350 C   0  0  0  0  0  0  0  0  0  0  0  0
   -2.7500   21.2990  -27.6870 C   0  0  0  0  0  0  0  0  0  0  0  0
   -1.4090   21.6830  -27.8170 C   0  0  0  0  0  0  0  0  0  0  0  0
   -1.0780   23.0120  -28.0860 C   0  0  0  0  0  0  0  0  0  0  0  0
   -2.0850   23.9760  -28.2600 C   0  0  0  0  0  0  0  0  0  0  0  0
   -1.7120   25.4020  -28.5580 C   0  0  0  0  0  0  0  0  0  0  0  0
   -3.4380   23.5890  -28.1560 C   0  0  0  0  0  0  0  0  0  0  0  0
   -4.4880   24.5470  -28.3370 N   0  0  0  0  0  0  0  0  0  0  0  0
   -5.0300   24.9840  -29.9250 S   0  0  0  0  0  0  0  0  0  0  0  0
   -5.8190   26.2600  -29.8410 O   0  0  0  0  0  0  0  0  0  0  0  0
   -3.8400   25.2130  -30.8130 O   0  0  0  0  0  0  0  0  0  0  0  0
   -6.0460   23.7200  -30.6150 C   0  0  0  0  0  0  0  0  0  0  0  0
   -5.6760   23.1050  -31.8190 C   0  0  0  0  0  0  0  0  0  0  0  0
   -6.4490   22.0650  -32.3430 C   0  0  0  0  0  0  0  0  0  0  0  0
   -7.5920   21.6220  -31.6680 C   0  0  0  0  0  0  0  0  0  0  0  0
   -8.3680   20.5590  -32.2420 N   0  0  0  0  0  0  0  0  0  0  0  0
   -8.1100   19.1540  -32.1120 C   0  0  0  0  0  0  0  0  0  0  0  0
   -8.7960   18.4910  -31.2890 O   0  0  0  0  0  0  0  0  0  0  0  0
   -7.1070   18.4540  -32.9510 C   0  0  0  0  0  0  0  0  0  0  0  0
   -6.2740   19.1860  -33.8120 C   0  0  0  0  0  0  0  0  0  0  0  0
   -5.3290   18.5170  -34.5940 C   0  0  0  0  0  0  0  0  0  0  0  0
   -5.2110   17.1660  -34.5120 N   0  0  0  0  0  0  0  0  0  0  0  0
   -5.9930   16.4310  -33.6790 C   0  0  0  0  0  0  0  0  0  0  0  0
   -6.9510   17.0600  -32.8790 C   0  0  0  0  0  0  0  0  0  0  0  0
   -7.9780   22.2610  -30.4760 C   0  0  0  0  0  0  0  0  0  0  0  0
   -7.2010   23.2950  -29.9480 C   0  0  0  0  0  0  0  0  0  0  0  0
   -3.7590   22.2560  -27.8590 C   0  0  0  0  0  0  0  0  0  0  0  0
   -3.1556   19.6846  -26.3510 H   0  0  0  0  0  0  0  0  0  0  0  0
   -4.0904   19.6497  -27.8845 H   0  0  0  0  0  0  0  0  0  0  0  0
   -2.3482   19.2121  -27.8845 H   0  0  0  0  0  0  0  0  0  0  0  0
   -0.6122   20.9327  -27.7064 H   0  0  0  0  0  0  0  0  0  0  0  0
   -0.0210   23.3067  -28.1623 H   0  0  0  0  0  0  0  0  0  0  0  0
   -1.5690   25.9485  -27.6141 H   0  0  0  0  0  0  0  0  0  0  0  0
   -0.7781   25.4230  -29.1389 H   0  0  0  0  0  0  0  0  0  0  0  0
   -2.5160   25.8776  -29.1389 H   0  0  0  0  0  0  0  0  0  0  0  0
   -4.6950   25.2170  -27.5640 H   0  0  0  0  0  0  0  0  0  0  0  0
   -4.7751   23.4417  -32.3528 H   0  0  0  0  0  0  0  0  0  0  0  0
   -6.1570   21.5917  -33.2921 H   0  0  0  0  0  0  0  0  0  0  0  0
   -6.3649   20.2807  -33.8706 H   0  0  0  0  0  0  0  0  0  0  0  0
   -4.6798   19.0848  -35.2768 H   0  0  0  0  0  0  0  0  0  0  0  0
   -5.8719   15.3386  -33.6341 H   0  0  0  0  0  0  0  0  0  0  0  0
   -7.5787   16.4672  -32.1974 H   0  0  0  0  0  0  0  0  0  0  0  0
   -8.8953   21.9454  -29.9574 H   0  0  0  0  0  0  0  0  0  0  0  0
   -7.4979   23.7769  -29.0048 H   0  0  0  0  0  0  0  0  0  0  0  0
   -4.8135   21.9590  -27.7601 H   0  0  0  0  0  0  0  0  0  0  0  0
  1  2  1  0
  2  3  2  0
  3  4  1  0
  4  5  2  0
  5  6  1  0
  5  7  1  0
  7  8  1  0
  8  9  1  0
  9 10  2  0
  9 11  2  0
  9 12  1  0
 12 13  2  0
 13 14  1  0
 14 15  2  0
 15 16  1  0
 16 17  1  0
 17 18  2  0
 17 19  1  0
 19 20  2  0
 20 21  1  0
 21 22  2  0
 22 23  1  0
 23 24  2  0
 15 25  1  0
 25 26  2  0
  7 27  2  0
 27  2  1  0
 26 12  1  0
 24 19  1  0
  1 28  1  0
  1 29  1  0
  1 30  1  0
  3 31  1  0
  4 32  1  0
  6 33  1  0
  6 34  1  0
  6 35  1  0
  8 36  1  0
 13 37  1  0
 14 38  1  0
 20 39  1  0
 21 40  1  0
 23 41  1  0
 24 42  1  0
 25 43  1  0
 26 44  1  0
 27 45  1  0
M  CHG  1  16  -1
M  END
>  <UniqueID>  (19) 
18

>  <SMILES>  (19) 
Cc1ccc(C)c(NS(=O)(=O)c2ccc([N-]C(=O)c3ccncc3)cc2)c1

>  <Energy>  (19) 
59.23909954076916

>  <Genealogy>  (19) 
Cc1ccc(C)c(NS(=O)(=O)c2ccc([N-]C(=O)c3ccncc3)cc2)c1 (protonated)
Cc1ccc(C)c(NS(=O)(=O)c2ccc([N-]C(=O)c3ccncc3)cc2)c1 (3D coordinates assigned)
Cc1ccc(C)c(NS(=O)(=O)c2ccc([N-]C(=O)c3ccncc3)cc2)c1 (optimized conformer: 59.23909954076916 kcal/mol)

>  <smiles>  (19) 
Cc1ccc(C)c(NS(=O)(=O)c2ccc(NC(=O)c3ccncc3)cc2)c1

>  <score_type>  (19) 
oracle

>  <origin>  (19) 
adgpu

>  <m_score__min__energy>  (19) 
-11.630000000000001

>  <m_primary>  (19) 
energy

$$$$
19:0
     RDKit          3D

 37 40  0  0  0  0  0  0  0  0999 V2000
   -8.0330   22.0940  -31.9790 C   0  0  0  0  0  0  0  0  0  0  0  0
   -8.2820   20.6240  -32.0750 C   0  0  0  0  0  0  0  0  0  0  0  0
   -9.4660   20.0330  -31.7970 N   0  0  0  0  0  0  0  0  0  0  0  0
   -9.3140   18.7260  -31.9910 N   0  0  0  0  0  0  0  0  0  0  0  0
   -8.0400   18.5510  -32.3850 C   0  0  0  0  0  0  0  0  0  0  0  0
   -7.4210   17.3460  -32.7000 C   0  0  0  0  0  0  0  0  0  0  0  0
   -6.0710   17.3940  -33.0880 C   0  0  0  0  0  0  0  0  0  0  0  0
   -5.3840   18.6330  -33.1640 C   0  0  0  0  0  0  0  0  0  0  0  0
   -3.9610   18.6900  -33.5600 C   0  0  0  0  0  0  0  0  0  0  0  0
   -3.3020   17.7690  -34.3500 C   0  0  0  0  0  0  0  0  0  0  0  0
   -2.0530   18.2050  -34.5950 N   0  0  0  0  0  0  0  0  0  0  0  0
   -1.8820   19.3670  -33.9820 N   0  0  0  0  0  0  0  0  0  0  0  0
   -3.0220   19.6890  -33.3390 C   0  0  0  0  0  0  0  0  0  0  0  0
   -3.1520   20.8910  -32.4900 C   0  0  0  0  0  0  0  0  0  0  0  0
   -2.3620   21.0200  -31.3370 C   0  0  0  0  0  0  0  0  0  0  0  0
   -2.4830   22.1450  -30.5160 C   0  0  0  0  0  0  0  0  0  0  0  0
   -3.4040   23.1530  -30.8350 C   0  0  0  0  0  0  0  0  0  0  0  0
   -3.5680   24.5650  -29.7970 S   0  0  0  0  0  0  0  0  0  0  0  0
   -2.0030   25.0990  -29.2960 N   0  0  0  0  0  0  0  0  0  0  0  0
   -4.2570   25.6720  -30.5450 O   0  0  0  0  0  0  0  0  0  0  0  0
   -4.3920   24.2150  -28.5890 O   0  0  0  0  0  0  0  0  0  0  0  0
   -4.2150   23.0150  -31.9680 C   0  0  0  0  0  0  0  0  0  0  0  0
   -4.0950   21.8900  -32.7880 C   0  0  0  0  0  0  0  0  0  0  0  0
   -6.0710   19.8120  -32.8160 C   0  0  0  0  0  0  0  0  0  0  0  0
   -7.3730   19.7080  -32.4460 N   0  0  0  0  0  0  0  0  0  0  0  0
   -7.9830   22.3891  -30.9205 H   0  0  0  0  0  0  0  0  0  0  0  0
   -7.0808   22.3376  -32.4729 H   0  0  0  0  0  0  0  0  0  0  0  0
   -8.8519   22.6376  -32.4729 H   0  0  0  0  0  0  0  0  0  0  0  0
   -7.9668   16.3924  -32.6475 H   0  0  0  0  0  0  0  0  0  0  0  0
   -5.5419   16.4618  -33.3352 H   0  0  0  0  0  0  0  0  0  0  0  0
   -3.7310   16.8265  -34.7209 H   0  0  0  0  0  0  0  0  0  0  0  0
   -1.6421   20.2298  -31.0774 H   0  0  0  0  0  0  0  0  0  0  0  0
   -1.8546   22.2396  -29.6182 H   0  0  0  0  0  0  0  0  0  0  0  0
   -1.6160   25.6770  -30.0740 H   0  0  0  0  0  0  0  0  0  0  0  0
   -4.9499   23.7957  -32.2137 H   0  0  0  0  0  0  0  0  0  0  0  0
   -4.7419   21.7855  -33.6715 H   0  0  0  0  0  0  0  0  0  0  0  0
   -5.5670   20.7894  -32.8432 H   0  0  0  0  0  0  0  0  0  0  0  0
  1  2  1  0
  2  3  2  0
  3  4  1  0
  4  5  2  0
  5  6  1  0
  6  7  2  0
  7  8  1  0
  8  9  1  0
  9 10  2  0
 10 11  1  0
 11 12  1  0
 12 13  2  0
 13 14  1  0
 14 15  2  0
 15 16  1  0
 16 17  2  0
 17 18  1  0
 18 19  1  0
 18 20  2  0
 18 21  2  0
 17 22  1  0
 22 23  2  0
  8 24  2  0
 24 25  1  0
 25  2  1  0
 25  5  1  0
 13  9  1  0
 23 14  1  0
  1 26  1  0
  1 27  1  0
  1 28  1  0
  6 29  1  0
  7 30  1  0
 10 31  1  0
 15 32  1  0
 16 33  1  0
 19 34  1  0
 22 35  1  0
 23 36  1  0
 24 37  1  0
M  CHG  2  11  -1  19  -1
M  END
>  <UniqueID>  (20) 
19

>  <SMILES>  (20) 
Cc1nnc2ccc(-c3c[n-]nc3-c3ccc(S([NH-])(=O)=O)cc3)cn12

>  <Energy>  (20) 
118.42226264699538

>  <Genealogy>  (20) 
Cc1nnc2ccc(-c3c[n-]nc3-c3ccc(S([NH-])(=O)=O)cc3)cn12 (protonated)
Cc1nnc2ccc(-c3c[n-]nc3-c3ccc(S([NH-])(=O)=O)cc3)cn12 (3D coordinates assigned)
Cc1nnc2ccc(-c3c[n-]nc3-c3ccc(S([NH-])(=O)=O)cc3)cn12 (optimized conformer: 118.42226264699538 kcal/mol)

>  <smiles>  (20) 
Cc1nnc2ccc(-c3c[nH]nc3-c3ccc(S(N)(=O)=O)cc3)cn12

>  <score_type>  (20) 
oracle

>  <origin>  (20) 
adgpu

>  <m_score__min__energy>  (20) 
-11.48

>  <m_primary>  (20) 
energy

$$$$
20:0
     RDKit          3D

 27 28  0  0  0  0  0  0  0  0999 V2000
   -0.9070   24.6100  -29.1040 N   0  0  0  0  0  0  0  0  0  0  0  0
   -1.3670   23.2230  -29.0830 C   0  0  0  0  0  0  0  0  0  0  0  0
   -1.5450   22.6860  -30.5060 C   0  0  0  0  0  0  0  0  0  0  0  0
   -2.9780   22.3400  -30.7960 C   0  0  0  0  0  0  0  0  0  0  0  0
   -3.4580   21.0810  -31.1380 C   0  0  0  0  0  0  0  0  0  0  0  0
   -4.8010   21.1060  -31.2700 N   0  0  0  0  0  0  0  0  0  0  0  0
   -5.1820   22.3700  -31.0070 C   0  0  0  0  0  0  0  0  0  0  0  0
   -6.4830   22.8890  -31.0030 C   0  0  0  0  0  0  0  0  0  0  0  0
   -7.5980   22.1080  -31.3020 O   0  0  0  0  0  0  0  0  0  0  0  0
   -6.6490   24.2480  -30.6840 C   0  0  0  0  0  0  0  0  0  0  0  0
   -5.5350   25.0640  -30.3730 C   0  0  0  0  0  0  0  0  0  0  0  0
   -5.7360   26.4430  -30.0510 N   0  0  0  0  0  0  0  0  0  0  0  0
   -4.2350   24.5110  -30.3840 C   0  0  0  0  0  0  0  0  0  0  0  0
   -3.1260   25.2950  -30.0830 O   0  0  0  0  0  0  0  0  0  0  0  0
   -4.0940   23.1570  -30.7080 C   0  0  0  0  0  0  0  0  0  0  0  0
   -1.5790   25.1890  -28.5490 H   0  0  0  0  0  0  0  0  0  0  0  0
   -0.9740   24.9520  -30.0900 H   0  0  0  0  0  0  0  0  0  0  0  0
   -0.6256   22.6054  -28.5549 H   0  0  0  0  0  0  0  0  0  0  0  0
   -2.3378   23.1819  -28.5673 H   0  0  0  0  0  0  0  0  0  0  0  0
   -1.2123   23.4533  -31.2205 H   0  0  0  0  0  0  0  0  0  0  0  0
   -0.9452   21.7691  -30.6032 H   0  0  0  0  0  0  0  0  0  0  0  0
   -2.8307   20.1888  -31.2811 H   0  0  0  0  0  0  0  0  0  0  0  0
   -5.4070   20.2930  -31.5170 H   0  0  0  0  0  0  0  0  0  0  0  0
   -8.2580   21.8110  -30.5940 H   0  0  0  0  0  0  0  0  0  0  0  0
   -7.6591   24.6835  -30.6760 H   0  0  0  0  0  0  0  0  0  0  0  0
   -4.9610   27.1380  -30.1330 H   0  0  0  0  0  0  0  0  0  0  0  0
   -6.6680   26.7840  -29.7240 H   0  0  0  0  0  0  0  0  0  0  0  0
  1  2  1  0
  2  3  1  0
  3  4  1  0
  4  5  2  0
  5  6  1  0
  6  7  1  0
  7  8  2  0
  8  9  1  0
  8 10  1  0
 10 11  2  0
 11 12  1  0
 11 13  1  0
 13 14  1  0
 13 15  2  0
 15  4  1  0
 15  7  1  0
  1 16  1  0
  1 17  1  0
  2 18  1  0
  2 19  1  0
  3 20  1  0
  3 21  1  0
  5 22  1  0
  6 23  1  0
  9 24  1  0
 10 25  1  0
 12 26  1  0
 12 27  1  0
M  CHG  1  14  -1
M  END
>  <UniqueID>  (21) 
20

>  <SMILES>  (21) 
NCCc1c[nH]c2c(O)cc(N)c([O-])c12

>  <Energy>  (21) 
56.41827018256824

>  <Genealogy>  (21) 
NCCc1c[nH]c2c(O)cc(N)c([O-])c12 (protonated)
NCCc1c[nH]c2c(O)cc(N)c([O-])c12 (3D coordinates assigned)
NCCc1c[nH]c2c(O)cc(N)c([O-])c12 (optimized conformer: 56.41827018256824 kcal/mol)

>  <smiles>  (21) 
NCCc1c[nH]c2c(O)cc(N)c(O)c12

>  <score_type>  (21) 
oracle

>  <origin>  (21) 
adgpu

>  <m_score__min__energy>  (21) 
-7.5300000000000002

>  <m_primary>  (21) 
energy

$$$$
21:0
     RDKit          3D

 47 49  0  0  0  0  0  0  0  0999 V2000
   -0.8610   21.4040  -30.7640 C   0  0  0  0  0  0  0  0  0  0  0  0
   -0.7280   21.8360  -29.4140 O   0  0  0  0  0  0  0  0  0  0  0  0
   -1.1960   21.1200  -28.3010 C   0  0  0  0  0  0  0  0  0  0  0  0
   -2.0930   20.0400  -28.4320 C   0  0  0  0  0  0  0  0  0  0  0  0
   -2.5490   19.3600  -27.3010 C   0  0  0  0  0  0  0  0  0  0  0  0
   -2.1180   19.7460  -26.0320 C   0  0  0  0  0  0  0  0  0  0  0  0
   -1.2240   20.8090  -25.8900 C   0  0  0  0  0  0  0  0  0  0  0  0
   -0.7610   21.5070  -27.0220 C   0  0  0  0  0  0  0  0  0  0  0  0
    0.1430   22.6170  -26.9060 N   0  0  0  0  0  0  0  0  0  0  0  0
   -0.0810   24.1600  -27.6640 S   0  0  0  0  0  0  0  0  0  0  0  0
    0.6340   24.1770  -28.9850 O   0  0  0  0  0  0  0  0  0  0  0  0
    0.4910   25.2340  -26.7820 O   0  0  0  0  0  0  0  0  0  0  0  0
   -1.8000   24.4110  -27.9380 C   0  0  0  0  0  0  0  0  0  0  0  0
   -2.6980   24.4720  -26.8620 C   0  0  0  0  0  0  0  0  0  0  0  0
   -4.0710   24.5480  -27.1010 C   0  0  0  0  0  0  0  0  0  0  0  0
   -4.5560   24.5500  -28.4110 C   0  0  0  0  0  0  0  0  0  0  0  0
   -3.6630   24.5040  -29.4960 C   0  0  0  0  0  0  0  0  0  0  0  0
   -4.1250   24.4640  -30.8500 N   0  0  0  0  0  0  0  0  0  0  0  0
   -5.5850   23.6610  -31.3260 S   0  0  0  0  0  0  0  0  0  0  0  0
   -6.4240   23.3680  -30.1150 O   0  0  0  0  0  0  0  0  0  0  0  0
   -6.3610   24.5500  -32.2560 O   0  0  0  0  0  0  0  0  0  0  0  0
   -5.1490   22.1850  -32.1800 C   0  0  0  0  0  0  0  0  0  0  0  0
   -6.1220   21.2370  -32.5250 C   0  0  0  0  0  0  0  0  0  0  0  0
   -5.7470   20.0390  -33.1430 C   0  0  0  0  0  0  0  0  0  0  0  0
   -4.3940   19.7710  -33.4050 C   0  0  0  0  0  0  0  0  0  0  0  0
   -3.9960   18.4950  -34.0850 C   0  0  0  0  0  0  0  0  0  0  0  0
   -3.4270   20.7320  -33.0790 C   0  0  0  0  0  0  0  0  0  0  0  0
   -3.8010   21.9270  -32.4600 C   0  0  0  0  0  0  0  0  0  0  0  0
   -2.2870   24.4550  -29.2500 C   0  0  0  0  0  0  0  0  0  0  0  0
   -1.1846   20.3528  -30.7824 H   0  0  0  0  0  0  0  0  0  0  0  0
   -1.6090   22.0270  -31.2763 H   0  0  0  0  0  0  0  0  0  0  0  0
    0.1078   21.4984  -31.2763 H   0  0  0  0  0  0  0  0  0  0  0  0
   -2.4354   19.7315  -29.4308 H   0  0  0  0  0  0  0  0  0  0  0  0
   -3.2491   18.5187  -27.4110 H   0  0  0  0  0  0  0  0  0  0  0  0
   -2.4828   19.2123  -25.1420 H   0  0  0  0  0  0  0  0  0  0  0  0
   -0.8792   21.1031  -24.8877 H   0  0  0  0  0  0  0  0  0  0  0  0
   -2.3198   24.4599  -25.8291 H   0  0  0  0  0  0  0  0  0  0  0  0
   -4.7727   24.6065  -26.2559 H   0  0  0  0  0  0  0  0  0  0  0  0
   -5.6400   24.5877  -28.5943 H   0  0  0  0  0  0  0  0  0  0  0  0
   -7.1823   21.4352  -32.3095 H   0  0  0  0  0  0  0  0  0  0  0  0
   -6.5155   19.3041  -33.4247 H   0  0  0  0  0  0  0  0  0  0  0  0
   -3.7587   17.7341  -33.3269 H   0  0  0  0  0  0  0  0  0  0  0  0
   -4.8261   18.1400  -34.7134 H   0  0  0  0  0  0  0  0  0  0  0  0
   -3.1113   18.6749  -34.7134 H   0  0  0  0  0  0  0  0  0  0  0  0
   -2.3685   20.5441  -33.3118 H   0  0  0  0  0  0  0  0  0  0  0  0
   -3.0340   22.6683  -32.1914 H   0  0  0  0  0  0  0  0  0  0  0  0
   -1.5817   24.4510  -30.0941 H   0  0  0  0  0  0  0  0  0  0  0  0
  1  2  1  0
  2  3  1  0
  3  4  2  0
  4  5  1  0
  5  6  2  0
  6  7  1  0
  7  8  2  0
  8  9  1  0
  9 10  1  0
 10 11  2  0
 10 12  2  0
 10 13  1  0
 13 14  2  0
 14 15  1  0
 15 16  2  0
 16 17  1  0
 17 18  1  0
 18 19  1  0
 19 20  2  0
 19 21  2  0
 19 22  1  0
 22 23  2  0
 23 24  1  0
 24 25  2  0
 25 26  1  0
 25 27  1  0
 27 28  2  0
 17 29  2  0
  8  3  1  0
 29 13  1  0
 28 22  1  0
  1 30  1  0
  1 31  1  0
  1 32  1  0
  4 33  1  0
  5 34  1  0
  6 35  1  0
  7 36  1  0
 14 37  1  0
 15 38  1  0
 16 39  1  0
 23 40  1  0
 24 41  1  0
 26 42  1  0
 26 43  1  0
 26 44  1  0
 27 45  1  0
 28 46  1  0
 29 47  1  0
M  CHG  2   9  -1  18  -1
M  END
>  <UniqueID>  (22) 
21

>  <SMILES>  (22) 
COc1ccccc1[N-]S(=O)(=O)c1cccc([N-]S(=O)(=O)c2ccc(C)cc2)c1

>  <Energy>  (22) 
53.52977596917616

>  <Genealogy>  (22) 
COc1ccccc1[N-]S(=O)(=O)c1cccc([N-]S(=O)(=O)c2ccc(C)cc2)c1 (protonated)
COc1ccccc1[N-]S(=O)(=O)c1cccc([N-]S(=O)(=O)c2ccc(C)cc2)c1 (3D coordinates assigned)
COc1ccccc1[N-]S(=O)(=O)c1cccc([N-]S(=O)(=O)c2ccc(C)cc2)c1 (optimized conformer: 53.52977596917616 kcal/mol)

>  <smiles>  (22) 
COc1ccccc1NS(=O)(=O)c1cccc(NS(=O)(=O)c2ccc(C)cc2)c1

>  <score_type>  (22) 
oracle

>  <origin>  (22) 
adgpu

>  <m_score__min__energy>  (22) 
-10.98

>  <m_primary>  (22) 
energy

$$$$
22:0
     RDKit          3D

 38 40  0  0  0  0  0  0  0  0999 V2000
   -5.3580   26.4920  -30.4740 O   0  0  0  0  0  0  0  0  0  0  0  0
   -4.9530   25.3050  -30.5850 C   0  0  0  0  0  0  0  0  0  0  0  0
   -3.5470   25.0470  -30.4680 N   0  0  0  0  0  0  0  0  0  0  0  0
   -2.8850   24.4540  -29.3420 C   0  0  0  0  0  0  0  0  0  0  0  0
   -1.6580   24.9370  -28.8590 C   0  0  0  0  0  0  0  0  0  0  0  0
   -1.0440   24.3150  -27.7710 C   0  0  0  0  0  0  0  0  0  0  0  0
   -1.6550   23.2050  -27.1830 C   0  0  0  0  0  0  0  0  0  0  0  0
   -2.8310   22.7350  -27.6760 N   0  0  0  0  0  0  0  0  0  0  0  0
   -3.4490   23.3250  -28.7350 C   0  0  0  0  0  0  0  0  0  0  0  0
   -5.9280   24.2290  -30.8840 C   0  0  0  0  0  0  0  0  0  0  0  0
   -6.6880   23.6390  -29.8580 C   0  0  0  0  0  0  0  0  0  0  0  0
   -7.6030   22.6240  -30.1500 C   0  0  0  0  0  0  0  0  0  0  0  0
   -7.7690   22.1800  -31.4680 C   0  0  0  0  0  0  0  0  0  0  0  0
   -8.9110   20.8910  -31.8320 S   0  0  0  0  0  0  0  0  0  0  0  0
   -9.0800   20.0170  -30.6200 O   0  0  0  0  0  0  0  0  0  0  0  0
  -10.2390   21.4890  -32.2020 O   0  0  0  0  0  0  0  0  0  0  0  0
   -8.2940   19.9550  -33.1530 N   0  0  0  0  0  0  0  0  0  0  0  0
   -7.1940   19.0390  -33.0740 C   0  0  0  0  0  0  0  0  0  0  0  0
   -7.2130   18.0520  -32.0780 C   0  0  0  0  0  0  0  0  0  0  0  0
   -6.1600   17.1390  -31.9650 C   0  0  0  0  0  0  0  0  0  0  0  0
   -5.0800   17.2040  -32.8480 C   0  0  0  0  0  0  0  0  0  0  0  0
   -5.0510   18.1830  -33.8460 C   0  0  0  0  0  0  0  0  0  0  0  0
   -6.1030   19.0990  -33.9610 C   0  0  0  0  0  0  0  0  0  0  0  0
   -6.9950   22.7460  -32.4900 C   0  0  0  0  0  0  0  0  0  0  0  0
   -6.0800   23.7620  -32.2010 C   0  0  0  0  0  0  0  0  0  0  0  0
   -1.1812   25.8050  -29.3379 H   0  0  0  0  0  0  0  0  0  0  0  0
   -0.0885   24.6950  -27.3804 H   0  0  0  0  0  0  0  0  0  0  0  0
   -1.1840   22.7110  -26.3204 H   0  0  0  0  0  0  0  0  0  0  0  0
   -4.3954   22.9135  -29.1158 H   0  0  0  0  0  0  0  0  0  0  0  0
   -6.5613   23.9786  -28.8194 H   0  0  0  0  0  0  0  0  0  0  0  0
   -8.1956   22.1717  -29.3411 H   0  0  0  0  0  0  0  0  0  0  0  0
   -8.0620   17.9957  -31.3809 H   0  0  0  0  0  0  0  0  0  0  0  0
   -6.1823   16.3689  -31.1799 H   0  0  0  0  0  0  0  0  0  0  0  0
   -4.2522   16.4851  -32.7584 H   0  0  0  0  0  0  0  0  0  0  0  0
   -4.2003   18.2333  -34.5416 H   0  0  0  0  0  0  0  0  0  0  0  0
   -6.0770   19.8681  -34.7470 H   0  0  0  0  0  0  0  0  0  0  0  0
   -7.1082   22.3890  -33.5243 H   0  0  0  0  0  0  0  0  0  0  0  0
   -5.4750   24.1989  -33.0091 H   0  0  0  0  0  0  0  0  0  0  0  0
  1  2  2  0
  2  3  1  0
  3  4  1  0
  4  5  2  0
  5  6  1  0
  6  7  2  0
  7  8  1  0
  8  9  2  0
  2 10  1  0
 10 11  2  0
 11 12  1  0
 12 13  2  0
 13 14  1  0
 14 15  2  0
 14 16  2  0
 14 17  1  0
 17 18  1  0
 18 19  2  0
 19 20  1  0
 20 21  2  0
 21 22  1  0
 22 23  2  0
 13 24  1  0
 24 25  2  0
  9  4  1  0
 25 10  1  0
 23 18  1  0
  5 26  1  0
  6 27  1  0
  7 28  1  0
  9 29  1  0
 11 30  1  0
 12 31  1  0
 19 32  1  0
 20 33  1  0
 21 34  1  0
 22 35  1  0
 23 36  1  0
 24 37  1  0
 25 38  1  0
M  CHG  2   3  -1  17  -1
M  END
>  <UniqueID>  (23) 
22

>  <SMILES>  (23) 
O=C([N-]c1cccnc1)c1ccc(S(=O)(=O)[N-]c2ccccc2)cc1

>  <Energy>  (23) 
52.808738793504254

>  <Genealogy>  (23) 
O=C([N-]c1cccnc1)c1ccc(S(=O)(=O)[N-]c2ccccc2)cc1 (protonated)
O=C([N-]c1cccnc1)c1ccc(S(=O)(=O)[N-]c2ccccc2)cc1 (3D coordinates assigned)
O=C([N-]c1cccnc1)c1ccc(S(=O)(=O)[N-]c2ccccc2)cc1 (optimized conformer: 52.808738793504254 kcal/mol)

>  <smiles>  (23) 
O=C(Nc1cccnc1)c1ccc(S(=O)(=O)Nc2ccccc2)cc1

>  <score_type>  (23) 
oracle

>  <origin>  (23) 
adgpu

>  <m_score__min__energy>  (23) 
-10.42

>  <m_primary>  (23) 
energy

$$$$
23:0
     RDKit          3D

 53 54  0  0  0  0  0  0  0  0999 V2000
   -2.6330   22.6600  -27.4610 C   0  0  0  0  0  0  0  0  0  0  0  0
   -3.0470   24.0390  -27.7460 N   0  0  0  0  0  0  0  0  0  0  0  0
   -2.6550   24.9220  -26.6380 C   0  0  0  0  0  0  0  0  0  0  0  0
   -2.2790   24.5800  -29.2170 S   0  0  0  0  0  0  0  0  0  0  0  0
   -1.3740   23.4910  -29.7280 O   0  0  0  0  0  0  0  0  0  0  0  0
   -1.4660   25.8140  -28.9360 O   0  0  0  0  0  0  0  0  0  0  0  0
   -3.4890   24.9340  -30.4090 N   0  0  0  0  0  0  0  0  0  0  0  0
   -4.6060   24.0960  -30.7380 C   0  0  0  0  0  0  0  0  0  0  0  0
   -5.7730   24.7000  -31.2220 C   0  0  0  0  0  0  0  0  0  0  0  0
   -6.8950   23.9300  -31.5350 C   0  0  0  0  0  0  0  0  0  0  0  0
   -6.8650   22.5360  -31.3760 C   0  0  0  0  0  0  0  0  0  0  0  0
   -8.0680   21.7070  -31.7540 C   0  0  0  0  0  0  0  0  0  0  0  0
   -7.6930   20.6110  -32.7530 C   0  0  0  0  0  0  0  0  0  0  0  0
   -8.6000   19.4630  -32.6050 N   0  0  0  0  0  0  0  0  0  0  0  0
   -8.0360   18.4650  -31.6870 C   0  0  0  0  0  0  0  0  0  0  0  0
   -6.9510   17.6210  -32.3820 C   0  0  1  0  0  0  0  0  0  0  0  0
   -7.2080   17.5900  -33.7620 O   0  0  0  0  0  0  0  0  0  0  0  0
   -5.5440   18.1950  -32.1610 C   0  0  0  0  0  0  0  0  0  0  0  0
   -5.0970   18.8600  -33.3400 O   0  0  0  0  0  0  0  0  0  0  0  0
   -3.8780   19.5420  -33.4540 C   0  0  0  0  0  0  0  0  0  0  0  0
   -2.7560   18.8280  -33.8940 C   0  0  0  0  0  0  0  0  0  0  0  0
   -1.5150   19.4630  -34.0220 C   0  0  0  0  0  0  0  0  0  0  0  0
   -1.3890   20.8220  -33.7160 C   0  0  0  0  0  0  0  0  0  0  0  0
   -0.1580   21.4530  -33.8470 O   0  0  0  0  0  0  0  0  0  0  0  0
   -2.5040   21.5440  -33.2790 C   0  0  0  0  0  0  0  0  0  0  0  0
   -3.7440   20.9090  -33.1420 C   0  0  0  0  0  0  0  0  0  0  0  0
   -5.6930   21.9250  -30.9030 C   0  0  0  0  0  0  0  0  0  0  0  0
   -4.5700   22.6990  -30.5830 C   0  0  0  0  0  0  0  0  0  0  0  0
   -2.5875   22.5084  -26.3725 H   0  0  0  0  0  0  0  0  0  0  0  0
   -3.3608   21.9608  -27.8985 H   0  0  0  0  0  0  0  0  0  0  0  0
   -1.6404   22.4773  -27.8985 H   0  0  0  0  0  0  0  0  0  0  0  0
   -2.8744   24.4278  -25.6801 H   0  0  0  0  0  0  0  0  0  0  0  0
   -1.5778   25.1350  -26.7024 H   0  0  0  0  0  0  0  0  0  0  0  0
   -3.2195   25.8639  -26.7024 H   0  0  0  0  0  0  0  0  0  0  0  0
   -5.8061   25.7912  -31.3569 H   0  0  0  0  0  0  0  0  0  0  0  0
   -7.8071   24.4186  -31.9081 H   0  0  0  0  0  0  0  0  0  0  0  0
   -8.4812   21.2402  -30.8477 H   0  0  0  0  0  0  0  0  0  0  0  0
   -8.8119   22.3670  -32.2241 H   0  0  0  0  0  0  0  0  0  0  0  0
   -7.7720   21.0080  -33.7758 H   0  0  0  0  0  0  0  0  0  0  0  0
   -6.6612   20.2831  -32.5584 H   0  0  0  0  0  0  0  0  0  0  0  0
   -8.7030   19.0190  -33.5500 H   0  0  0  0  0  0  0  0  0  0  0  0
   -7.5908   18.9820  -30.8241 H   0  0  0  0  0  0  0  0  0  0  0  0
   -8.8446   17.7941  -31.3615 H   0  0  0  0  0  0  0  0  0  0  0  0
   -6.9834   16.6113  -31.9468 H   0  0  0  0  0  0  0  0  0  0  0  0
   -7.1720   18.5290  -34.0850 H   0  0  0  0  0  0  0  0  0  0  0  0
   -5.5699   18.9113  -31.3266 H   0  0  0  0  0  0  0  0  0  0  0  0
   -4.8519   17.3729  -31.9262 H   0  0  0  0  0  0  0  0  0  0  0  0
   -2.8508   17.7602  -34.1408 H   0  0  0  0  0  0  0  0  0  0  0  0
   -0.6384   18.8929  -34.3634 H   0  0  0  0  0  0  0  0  0  0  0  0
   -2.4064   22.6138  -33.0423 H   0  0  0  0  0  0  0  0  0  0  0  0
   -4.6162   21.4792  -32.7897 H   0  0  0  0  0  0  0  0  0  0  0  0
   -5.6562   20.8322  -30.7829 H   0  0  0  0  0  0  0  0  0  0  0  0
   -3.6571   22.2122  -30.2093 H   0  0  0  0  0  0  0  0  0  0  0  0
  1  2  1  0
  2  3  1  0
  2  4  1  0
  4  5  2  0
  4  6  2  0
  4  7  1  0
  7  8  1  0
  8  9  2  0
  9 10  1  0
 10 11  2  0
 11 12  1  0
 12 13  1  0
 13 14  1  0
 14 15  1  0
 15 16  1  0
 16 17  1  0
 16 18  1  0
 18 19  1  0
 19 20  1  0
 20 21  2  0
 21 22  1  0
 22 23  2  0
 23 24  1  0
 23 25  1  0
 25 26  2  0
 11 27  1  0
 27 28  2  0
 28  8  1  0
 26 20  1  0
  1 29  1  0
  1 30  1  0
  1 31  1  0
  3 32  1  0
  3 33  1  0
  3 34  1  0
  9 35  1  0
 10 36  1  0
 12 37  1  0
 12 38  1  0
 13 39  1  0
 13 40  1  0
 14 41  1  0
 15 42  1  0
 15 43  1  0
 16 44  1  1
 17 45  1  0
 18 46  1  0
 18 47  1  0
 21 48  1  0
 22 49  1  0
 25 50  1  0
 26 51  1  0
 27 52  1  0
 28 53  1  0
M  CHG  2   7  -1  24  -1
M  END
>  <UniqueID>  (24) 
23

>  <SMILES>  (24) 
CN(C)S(=O)(=O)[N-]c1ccc(CCNC[C@@H](O)COc2ccc([O-])cc2)cc1

>  <Energy>  (24) 
41.25401497841084

>  <Genealogy>  (24) 
CN(C)S(=O)(=O)[N-]c1ccc(CCNCC(O)COc2ccc([O-])cc2)cc1 (protonated)
CN(C)S(=O)(=O)[N-]c1ccc(CCNC[C@@H](O)COc2ccc([O-])cc2)cc1 (chirality)
CN(C)S(=O)(=O)[N-]c1ccc(CCNC[C@@H](O)COc2ccc([O-])cc2)cc1 (3D coordinates assigned)
CN(C)S(=O)(=O)[N-]c1ccc(CCNC[C@@H](O)COc2ccc([O-])cc2)cc1 (optimized conformer: 41.25401497841084 kcal/mol)

>  <smiles>  (24) 
CN(C)S(=O)(=O)Nc1ccc(CCNCC(O)COc2ccc(O)cc2)cc1

>  <score_type>  (24) 
oracle

>  <origin>  (24) 
adgpu

>  <m_score__min__energy>  (24) 
-10.859999999999999

>  <m_primary>  (24) 
energy

$$$$
24:0
     RDKit          3D

 58 61  0  0  0  0  0  0  0  0999 V2000
    3.6250   16.5140  -30.4410 C   0  0  0  0  0  0  0  0  0  0  0  0
    2.6700   15.5910  -31.0390 N   0  0  0  0  0  0  0  0  0  0  0  0
    1.2690   15.8470  -31.2020 C   0  0  0  0  0  0  0  0  0  0  0  0
    0.4450   14.9970  -30.7720 O   0  0  0  0  0  0  0  0  0  0  0  0
    0.7550   17.0890  -31.8060 C   0  0  0  0  0  0  0  0  0  0  0  0
   -0.6220   17.3450  -31.8900 C   0  0  0  0  0  0  0  0  0  0  0  0
   -1.0690   18.5570  -32.4430 C   0  0  0  0  0  0  0  0  0  0  0  0
   -2.4330   18.8570  -32.5670 O   0  0  0  0  0  0  0  0  0  0  0  0
   -3.0410   20.0530  -32.1550 C   0  0  0  0  0  0  0  0  0  0  0  0
   -3.6620   20.1760  -30.9000 C   0  0  0  0  0  0  0  0  0  0  0  0
   -4.2310   21.3920  -30.5110 C   0  0  0  0  0  0  0  0  0  0  0  0
   -4.1630   22.5080  -31.3530 C   0  0  0  0  0  0  0  0  0  0  0  0
   -4.7650   23.7380  -30.9210 N   0  0  0  0  0  0  0  0  0  0  0  0
   -4.0670   24.9030  -30.4690 C   0  0  0  0  0  0  0  0  0  0  0  0
   -4.5590   26.0370  -30.7090 O   0  0  0  0  0  0  0  0  0  0  0  0
   -2.8870   24.7760  -29.6650 N   0  0  0  0  0  0  0  0  0  0  0  0
   -2.1940   23.5640  -29.3300 C   0  0  0  0  0  0  0  0  0  0  0  0
   -2.5660   22.8810  -28.1680 C   0  0  0  0  0  0  0  0  0  0  0  0
   -1.9380   21.6830  -27.8150 C   0  0  0  0  0  0  0  0  0  0  0  0
   -0.9310   21.1360  -28.6300 C   0  0  0  0  0  0  0  0  0  0  0  0
   -0.2680   19.8590  -28.2590 C   0  0  0  0  0  0  0  0  0  0  0  0
    1.0610   19.5990  -28.6360 C   0  0  0  0  0  0  0  0  0  0  0  0
    1.6710   18.3940  -28.2810 C   0  0  0  0  0  0  0  0  0  0  0  0
    0.9490   17.4420  -27.5460 C   0  0  0  0  0  0  0  0  0  0  0  0
    1.5640   16.1570  -27.1490 C   0  0  0  0  0  0  0  0  0  0  0  0
    1.8230   15.9340  -25.9340 O   0  0  0  0  0  0  0  0  0  0  0  0
    1.8680   15.1580  -28.1330 N   0  0  0  0  0  0  0  0  0  0  0  0
    2.4530   13.8730  -27.7650 C   0  0  0  0  0  0  0  0  0  0  0  0
   -0.3370   17.7150  -27.1880 N   0  0  0  0  0  0  0  0  0  0  0  0
   -0.9530   18.8780  -27.5230 C   0  0  0  0  0  0  0  0  0  0  0  0
   -0.5740   21.8130  -29.8110 C   0  0  0  0  0  0  0  0  0  0  0  0
   -1.2050   23.0110  -30.1630 C   0  0  0  0  0  0  0  0  0  0  0  0
   -3.5530   22.3830  -32.6130 C   0  0  0  0  0  0  0  0  0  0  0  0
   -2.9850   21.1660  -33.0040 C   0  0  0  0  0  0  0  0  0  0  0  0
   -2.3940   21.0620  -34.2200 F   0  0  0  0  0  0  0  0  0  0  0  0
   -0.1310   19.4770  -32.9210 C   0  0  0  0  0  0  0  0  0  0  0  0
    1.2310   19.2000  -32.7950 C   0  0  0  0  0  0  0  0  0  0  0  0
    1.6400   18.0290  -32.2390 N   0  0  0  0  0  0  0  0  0  0  0  0
    3.5592   16.4504  -29.3448 H   0  0  0  0  0  0  0  0  0  0  0  0
    4.6427   16.2485  -30.7633 H   0  0  0  0  0  0  0  0  0  0  0  0
    3.3943   17.5401  -30.7633 H   0  0  0  0  0  0  0  0  0  0  0  0
   -1.3466   16.6020  -31.5255 H   0  0  0  0  0  0  0  0  0  0  0  0
   -3.7004   19.3114  -30.2210 H   0  0  0  0  0  0  0  0  0  0  0  0
   -4.7355   21.4724  -29.5368 H   0  0  0  0  0  0  0  0  0  0  0  0
   -3.3599   23.2900  -27.5259 H   0  0  0  0  0  0  0  0  0  0  0  0
   -2.2341   21.1637  -26.8916 H   0  0  0  0  0  0  0  0  0  0  0  0
    1.6230   20.3480  -29.2132 H   0  0  0  0  0  0  0  0  0  0  0  0
    2.7114   18.1925  -28.5759 H   0  0  0  0  0  0  0  0  0  0  0  0
    1.6670   15.3380  -29.1430 H   0  0  0  0  0  0  0  0  0  0  0  0
    2.4916   13.7881  -26.6690 H   0  0  0  0  0  0  0  0  0  0  0  0
    1.8368   13.0589  -28.1743 H   0  0  0  0  0  0  0  0  0  0  0  0
    3.4716   13.8032  -28.1743 H   0  0  0  0  0  0  0  0  0  0  0  0
   -1.9947   19.0529  -27.2161 H   0  0  0  0  0  0  0  0  0  0  0  0
    0.2080   21.3966  -30.4630 H   0  0  0  0  0  0  0  0  0  0  0  0
   -0.9262   23.5229  -31.0959 H   0  0  0  0  0  0  0  0  0  0  0  0
   -3.5221   23.2459  -33.2946 H   0  0  0  0  0  0  0  0  0  0  0  0
   -0.4643   20.4129  -33.3932 H   0  0  0  0  0  0  0  0  0  0  0  0
    1.9747   19.9305  -33.1462 H   0  0  0  0  0  0  0  0  0  0  0  0
  1  2  1  0
  2  3  1  0
  3  4  2  0
  3  5  1  0
  5  6  2  0
  6  7  1  0
  7  8  1  0
  8  9  1  0
  9 10  2  0
 10 11  1  0
 11 12  2  0
 12 13  1  0
 13 14  1  0
 14 15  2  0
 14 16  1  0
 16 17  1  0
 17 18  2  0
 18 19  1  0
 19 20  2  0
 20 21  1  0
 21 22  2  0
 22 23  1  0
 23 24  2  0
 24 25  1  0
 25 26  2  0
 25 27  1  0
 27 28  1  0
 24 29  1  0
 29 30  2  0
 20 31  1  0
 31 32  2  0
 12 33  1  0
 33 34  2  0
 34 35  1  0
  7 36  2  0
 36 37  1  0
 37 38  2  0
 38  5  1  0
 34  9  1  0
 32 17  1  0
 30 21  1  0
  1 39  1  0
  1 40  1  0
  1 41  1  0
  6 42  1  0
 10 43  1  0
 11 44  1  0
 18 45  1  0
 19 46  1  0
 22 47  1  0
 23 48  1  0
 27 49  1  0
 28 50  1  0
 28 51  1  0
 28 52  1  0
 30 53  1  0
 31 54  1  0
 32 55  1  0
 33 56  1  0
 36 57  1  0
 37 58  1  0
M  CHG  3   2  -1  13  -1  16  -1
M  END
>  <UniqueID>  (25) 
24

>  <SMILES>  (25) 
C[N-]C(=O)c1cc(Oc2ccc([N-]C(=O)[N-]c3ccc(-c4ccc(C(=O)NC)nc4)cc3)cc2F)ccn1

>  <Energy>  (25) 
83.05581969744411

>  <Genealogy>  (25) 
C[N-]C(=O)c1cc(Oc2ccc([N-]C(=O)[N-]c3ccc(-c4ccc(C(=O)NC)nc4)cc3)cc2F)ccn1 (protonated)
C[N-]C(=O)c1cc(Oc2ccc([N-]C(=O)[N-]c3ccc(-c4ccc(C(=O)NC)nc4)cc3)cc2F)ccn1 (3D coordinates assigned)
C[N-]C(=O)c1cc(Oc2ccc([N-]C(=O)[N-]c3ccc(-c4ccc(C(=O)NC)nc4)cc3)cc2F)ccn1 (optimized conformer: 83.05581969744411 kcal/mol)

>  <smiles>  (25) 
CNC(=O)c1ccc(-c2ccc(NC(=O)Nc3ccc(Oc4ccnc(C(=O)NC)c4)c(F)c3)cc2)cn1

>  <score_type>  (25) 
oracle

>  <origin>  (25) 
adgpu

>  <m_score__min__energy>  (25) 
-11.789999999999999

>  <m_primary>  (25) 
energy

$$$$
25:0
     RDKit          3D

 39 41  0  0  0  0  0  0  0  0999 V2000
   -1.6030   25.7910  -28.7910 O   0  0  0  0  0  0  0  0  0  0  0  0
   -2.4330   24.8770  -29.0390 C   0  0  0  0  0  0  0  0  0  0  0  0
   -3.1660   24.9240  -30.2670 N   0  0  0  0  0  0  0  0  0  0  0  0
   -4.4090   24.2590  -30.5380 C   0  0  0  0  0  0  0  0  0  0  0  0
   -4.3830   22.9110  -30.9160 C   0  0  0  0  0  0  0  0  0  0  0  0
   -5.5730   22.2220  -31.1680 C   0  0  0  0  0  0  0  0  0  0  0  0
   -6.8060   22.8740  -31.0310 C   0  0  0  0  0  0  0  0  0  0  0  0
   -8.3040   22.0010  -31.3210 S   0  0  0  0  0  0  0  0  0  0  0  0
   -9.1500   22.7500  -32.3140 O   0  0  0  0  0  0  0  0  0  0  0  0
   -9.0840   21.8810  -30.0410 O   0  0  0  0  0  0  0  0  0  0  0  0
   -7.9250   20.4010  -31.9440 C   0  0  0  0  0  0  0  0  0  0  0  0
   -8.5930   19.2720  -31.4460 C   0  0  0  0  0  0  0  0  0  0  0  0
   -8.3050   18.0040  -31.9570 C   0  0  0  0  0  0  0  0  0  0  0  0
   -7.3540   17.8560  -32.9710 C   0  0  0  0  0  0  0  0  0  0  0  0
   -6.6930   18.9780  -33.4780 C   0  0  0  0  0  0  0  0  0  0  0  0
   -6.9790   20.2490  -32.9690 C   0  0  0  0  0  0  0  0  0  0  0  0
   -6.8390   24.2120  -30.6180 C   0  0  0  0  0  0  0  0  0  0  0  0
   -5.6490   24.9010  -30.3660 C   0  0  0  0  0  0  0  0  0  0  0  0
   -2.6430   23.8100  -28.1050 N   0  0  0  0  0  0  0  0  0  0  0  0
   -2.1620   22.4620  -28.2150 C   0  0  0  0  0  0  0  0  0  0  0  0
   -1.2590   22.1540  -29.2410 C   0  0  0  0  0  0  0  0  0  0  0  0
   -0.7810   20.8500  -29.3950 C   0  0  0  0  0  0  0  0  0  0  0  0
   -1.2150   19.8390  -28.5340 C   0  0  0  0  0  0  0  0  0  0  0  0
   -2.1350   20.1290  -27.5220 C   0  0  0  0  0  0  0  0  0  0  0  0
   -2.7000   18.8520  -26.4600 Cl  0  0  0  0  0  0  0  0  0  0  0  0
   -2.6150   21.4350  -27.3650 C   0  0  0  0  0  0  0  0  0  0  0  0
   -3.4191   22.3903  -31.0154 H   0  0  0  0  0  0  0  0  0  0  0  0
   -5.5415   21.1660  -31.4744 H   0  0  0  0  0  0  0  0  0  0  0  0
   -9.3452   19.3855  -30.6514 H   0  0  0  0  0  0  0  0  0  0  0  0
   -8.8273   17.1207  -31.5609 H   0  0  0  0  0  0  0  0  0  0  0  0
   -7.1261   16.8565  -33.3697 H   0  0  0  0  0  0  0  0  0  0  0  0
   -5.9471   18.8615  -34.2781 H   0  0  0  0  0  0  0  0  0  0  0  0
   -6.4612   21.1313  -33.3732 H   0  0  0  0  0  0  0  0  0  0  0  0
   -7.8050   24.7226  -30.4915 H   0  0  0  0  0  0  0  0  0  0  0  0
   -5.6823   25.9486  -30.0321 H   0  0  0  0  0  0  0  0  0  0  0  0
   -0.9242   22.9437  -29.9297 H   0  0  0  0  0  0  0  0  0  0  0  0
   -0.0622   20.6193  -30.1950 H   0  0  0  0  0  0  0  0  0  0  0  0
   -0.8327   18.8144  -28.6524 H   0  0  0  0  0  0  0  0  0  0  0  0
   -3.3477   21.6591  -26.5758 H   0  0  0  0  0  0  0  0  0  0  0  0
  1  2  2  0
  2  3  1  0
  3  4  1  0
  4  5  2  0
  5  6  1  0
  6  7  2  0
  7  8  1  0
  8  9  2  0
  8 10  2  0
  8 11  1  0
 11 12  2  0
 12 13  1  0
 13 14  2  0
 14 15  1  0
 15 16  2  0
  7 17  1  0
 17 18  2  0
  2 19  1  0
 19 20  1  0
 20 21  2  0
 21 22  1  0
 22 23  2  0
 23 24  1  0
 24 25  1  0
 24 26  2  0
 18  4  1  0
 26 20  1  0
 16 11  1  0
  5 27  1  0
  6 28  1  0
 12 29  1  0
 13 30  1  0
 14 31  1  0
 15 32  1  0
 16 33  1  0
 17 34  1  0
 18 35  1  0
 21 36  1  0
 22 37  1  0
 23 38  1  0
 26 39  1  0
M  CHG  2   3  -1  19  -1
M  END
>  <UniqueID>  (26) 
25

>  <SMILES>  (26) 
O=C([N-]c1ccc(S(=O)(=O)c2ccccc2)cc1)[N-]c1cccc(Cl)c1

>  <Energy>  (26) 
50.63221307506974

>  <Genealogy>  (26) 
O=C([N-]c1ccc(S(=O)(=O)c2ccccc2)cc1)[N-]c1cccc(Cl)c1 (protonated)
O=C([N-]c1ccc(S(=O)(=O)c2ccccc2)cc1)[N-]c1cccc(Cl)c1 (3D coordinates assigned)
O=C([N-]c1ccc(S(=O)(=O)c2ccccc2)cc1)[N-]c1cccc(Cl)c1 (optimized conformer: 50.63221307506974 kcal/mol)

>  <smiles>  (26) 
O=C(Nc1ccc(S(=O)(=O)c2ccccc2)cc1)Nc1cccc(Cl)c1

>  <score_type>  (26) 
oracle

>  <origin>  (26) 
adgpu

>  <m_score__min__energy>  (26) 
-12.77

>  <m_primary>  (26) 
energy

$$$$
26:0
     RDKit          3D

 47 49  0  0  0  0  0  0  0  0999 V2000
   -6.5010   17.0790  -33.5320 C   0  0  0  0  0  0  0  0  0  0  0  0
   -6.5260   18.4640  -33.8630 O   0  0  0  0  0  0  0  0  0  0  0  0
   -7.1240   19.4610  -33.0780 C   0  0  0  0  0  0  0  0  0  0  0  0
   -8.3830   19.2710  -32.4750 C   0  0  0  0  0  0  0  0  0  0  0  0
   -8.9750   20.2950  -31.7320 C   0  0  0  0  0  0  0  0  0  0  0  0
   -8.3250   21.5200  -31.5880 C   0  0  0  0  0  0  0  0  0  0  0  0
   -7.0760   21.7220  -32.1780 C   0  0  0  0  0  0  0  0  0  0  0  0
   -6.4570   20.6940  -32.9060 C   0  0  0  0  0  0  0  0  0  0  0  0
   -5.1540   20.9280  -33.4650 N   0  0  0  0  0  0  0  0  0  0  0  0
   -3.7480   20.0530  -32.9430 S   0  0  0  0  0  0  0  0  0  0  0  0
   -2.8260   19.8470  -34.1110 O   0  0  0  0  0  0  0  0  0  0  0  0
   -4.1710   18.7130  -32.4080 O   0  0  0  0  0  0  0  0  0  0  0  0
   -2.8900   20.9730  -31.7090 C   0  0  0  0  0  0  0  0  0  0  0  0
   -1.8590   20.3850  -30.9620 C   0  0  0  0  0  0  0  0  0  0  0  0
   -1.2360   21.1050  -29.9420 C   0  0  0  0  0  0  0  0  0  0  0  0
   -1.6410   22.4110  -29.6540 C   0  0  0  0  0  0  0  0  0  0  0  0
   -2.6740   23.0120  -30.3940 C   0  0  0  0  0  0  0  0  0  0  0  0
   -3.1220   24.3890  -30.0860 C   0  0  0  0  0  0  0  0  0  0  0  0
   -4.2230   24.7970  -30.5420 O   0  0  0  0  0  0  0  0  0  0  0  0
   -2.3190   25.2900  -29.3150 N   0  0  0  0  0  0  0  0  0  0  0  0
   -1.5810   24.9580  -28.1280 C   0  0  0  0  0  0  0  0  0  0  0  0
   -0.1730   24.9320  -28.1340 C   0  0  0  0  0  0  0  0  0  0  0  0
    0.5330   24.5990  -26.9760 C   0  0  0  0  0  0  0  0  0  0  0  0
   -0.1540   24.2730  -25.8070 C   0  0  0  0  0  0  0  0  0  0  0  0
   -1.5500   24.2720  -25.7930 C   0  0  0  0  0  0  0  0  0  0  0  0
   -2.2740   24.6010  -26.9520 C   0  0  0  0  0  0  0  0  0  0  0  0
   -3.7770   24.6090  -26.9210 C   0  0  0  0  0  0  0  0  0  0  0  0
   -3.2810   22.2910  -31.4340 C   0  0  0  0  0  0  0  0  0  0  0  0
   -6.4989   16.9634  -32.4381 H   0  0  0  0  0  0  0  0  0  0  0  0
   -7.3904   16.5857  -33.9511 H   0  0  0  0  0  0  0  0  0  0  0  0
   -5.5944   16.6181  -33.9511 H   0  0  0  0  0  0  0  0  0  0  0  0
   -8.9038   18.3089  -32.5902 H   0  0  0  0  0  0  0  0  0  0  0  0
   -9.9555   20.1347  -31.2598 H   0  0  0  0  0  0  0  0  0  0  0  0
   -8.7966   22.3278  -31.0092 H   0  0  0  0  0  0  0  0  0  0  0  0
   -6.5730   22.6945  -32.0715 H   0  0  0  0  0  0  0  0  0  0  0  0
   -4.9830   21.8280  -33.9660 H   0  0  0  0  0  0  0  0  0  0  0  0
   -1.5410   19.3549  -31.1805 H   0  0  0  0  0  0  0  0  0  0  0  0
   -0.4232   20.6429  -29.3625 H   0  0  0  0  0  0  0  0  0  0  0  0
   -1.1494   22.9711  -28.8449 H   0  0  0  0  0  0  0  0  0  0  0  0
    0.3742   25.1755  -29.0567 H   0  0  0  0  0  0  0  0  0  0  0  0
    1.6329   24.5938  -26.9860 H   0  0  0  0  0  0  0  0  0  0  0  0
    0.4047   24.0163  -24.8949 H   0  0  0  0  0  0  0  0  0  0  0  0
   -2.0869   24.0120  -24.8688 H   0  0  0  0  0  0  0  0  0  0  0  0
   -4.1222   24.6108  -25.8766 H   0  0  0  0  0  0  0  0  0  0  0  0
   -4.1495   25.5091  -27.4319 H   0  0  0  0  0  0  0  0  0  0  0  0
   -4.1591   23.7129  -27.4319 H   0  0  0  0  0  0  0  0  0  0  0  0
   -4.0696   22.7636  -32.0380 H   0  0  0  0  0  0  0  0  0  0  0  0
  1  2  1  0
  2  3  1  0
  3  4  2  0
  4  5  1  0
  5  6  2  0
  6  7  1  0
  7  8  2  0
  8  9  1  0
  9 10  1  0
 10 11  2  0
 10 12  2  0
 10 13  1  0
 13 14  2  0
 14 15  1  0
 15 16  2  0
 16 17  1  0
 17 18  1  0
 18 19  2  0
 18 20  1  0
 20 21  1  0
 21 22  2  0
 22 23  1  0
 23 24  2  0
 24 25  1  0
 25 26  2  0
 26 27  1  0
 17 28  2  0
  8  3  1  0
 28 13  1  0
 26 21  1  0
  1 29  1  0
  1 30  1  0
  1 31  1  0
  4 32  1  0
  5 33  1  0
  6 34  1  0
  7 35  1  0
  9 36  1  0
 14 37  1  0
 15 38  1  0
 16 39  1  0
 22 40  1  0
 23 41  1  0
 24 42  1  0
 25 43  1  0
 27 44  1  0
 27 45  1  0
 27 46  1  0
 28 47  1  0
M  CHG  1  20  -1
M  END
>  <UniqueID>  (27) 
26

>  <SMILES>  (27) 
COc1ccccc1NS(=O)(=O)c1cccc(C(=O)[N-]c2ccccc2C)c1

>  <Energy>  (27) 
57.50659898771671

>  <Genealogy>  (27) 
COc1ccccc1NS(=O)(=O)c1cccc(C(=O)[N-]c2ccccc2C)c1 (protonated)
COc1ccccc1NS(=O)(=O)c1cccc(C(=O)[N-]c2ccccc2C)c1 (3D coordinates assigned)
COc1ccccc1NS(=O)(=O)c1cccc(C(=O)[N-]c2ccccc2C)c1 (optimized conformer: 57.50659898771671 kcal/mol)

>  <smiles>  (27) 
COc1ccccc1NS(=O)(=O)c1cccc(C(=O)Nc2ccccc2C)c1

>  <score_type>  (27) 
oracle

>  <origin>  (27) 
adgpu

>  <m_score__min__energy>  (27) 
-10.81

>  <m_primary>  (27) 
energy

$$$$
27:0
     RDKit          3D

 47 50  0  0  0  0  0  0  0  0999 V2000
    0.2250   23.4360  -23.3060 H   0  0  0  0  0  0  0  0  0  0  0  0
   -0.0600   22.7990  -24.0400 O   0  0  0  0  0  0  0  0  0  0  0  0
    0.0360   23.1490  -25.3860 C   0  0  0  0  0  0  0  0  0  0  0  0
    1.2700   23.5460  -25.9080 C   0  0  0  0  0  0  0  0  0  0  0  0
    2.1556   23.5823  -25.2565 H   0  0  0  0  0  0  0  0  0  0  0  0
    1.3810   23.8970  -27.2560 C   0  0  0  0  0  0  0  0  0  0  0  0
    2.3528   24.2131  -27.6630 H   0  0  0  0  0  0  0  0  0  0  0  0
    0.2590   23.8470  -28.0880 C   0  0  0  0  0  0  0  0  0  0  0  0
    0.3529   24.1182  -29.1499 H   0  0  0  0  0  0  0  0  0  0  0  0
   -0.9890   23.4520  -27.5750 C   0  0  0  0  0  0  0  0  0  0  0  0
   -2.1450   23.4170  -28.4280 N   0  0  0  0  0  0  0  0  0  0  0  0
   -2.9940   22.3830  -28.6070 C   0  0  0  0  0  0  0  0  0  0  0  0
   -2.8690   21.1490  -27.9800 O   0  0  0  0  0  0  0  0  0  0  0  0
   -4.0210   22.7220  -29.4670 C   0  0  0  0  0  0  0  0  0  0  0  0
   -4.8462   22.0760  -29.8013 H   0  0  0  0  0  0  0  0  0  0  0  0
   -3.7980   24.0430  -29.8220 C   0  0  0  0  0  0  0  0  0  0  0  0
   -4.6550   24.8510  -30.7120 C   0  0  0  0  0  0  0  0  0  0  0  0
   -4.7920   26.0810  -30.4770 O   0  0  0  0  0  0  0  0  0  0  0  0
   -5.3630   24.2780  -31.8210 N   0  0  0  0  0  0  0  0  0  0  0  0
   -5.7330   22.9000  -31.9640 C   0  0  0  0  0  0  0  0  0  0  0  0
   -6.9510   22.4650  -31.4270 C   0  0  0  0  0  0  0  0  0  0  0  0
   -7.6276   23.1884  -30.9485 H   0  0  0  0  0  0  0  0  0  0  0  0
   -7.3110   21.1170  -31.4960 C   0  0  0  0  0  0  0  0  0  0  0  0
   -8.2665   20.7821  -31.0661 H   0  0  0  0  0  0  0  0  0  0  0  0
   -6.4590   20.1900  -32.1110 C   0  0  0  0  0  0  0  0  0  0  0  0
   -6.8710   18.4780  -32.1120 S   0  0  0  0  0  0  0  0  0  0  0  0
   -6.4000   17.8650  -30.8240 O   0  0  0  0  0  0  0  0  0  0  0  0
   -8.3570   18.2920  -32.2290 O   0  0  0  0  0  0  0  0  0  0  0  0
   -6.0910   17.6740  -33.4420 N   0  0  0  0  0  0  0  0  0  0  0  0
   -5.4500   16.5420  -33.3970 C   0  0  0  0  0  0  0  0  0  0  0  0
   -4.9180   16.0540  -34.5520 N   0  0  0  0  0  0  0  0  0  0  0  0
   -4.2460   14.8730  -34.6020 C   0  0  0  0  0  0  0  0  0  0  0  0
   -3.8292   14.5175  -35.5559 H   0  0  0  0  0  0  0  0  0  0  0  0
   -4.0850   14.1120  -33.4440 C   0  0  0  0  0  0  0  0  0  0  0  0
   -3.5470   13.1532  -33.4786 H   0  0  0  0  0  0  0  0  0  0  0  0
   -4.6140   14.5810  -32.2420 C   0  0  0  0  0  0  0  0  0  0  0  0
   -4.4965   13.9902  -31.3216 H   0  0  0  0  0  0  0  0  0  0  0  0
   -5.2930   15.8010  -32.2070 C   0  0  0  0  0  0  0  0  0  0  0  0
   -5.7020   16.1809  -31.2592 H   0  0  0  0  0  0  0  0  0  0  0  0
   -5.2650   20.6300  -32.6980 C   0  0  0  0  0  0  0  0  0  0  0  0
   -4.6076   19.9119  -33.2100 H   0  0  0  0  0  0  0  0  0  0  0  0
   -4.9080   21.9800  -32.6340 C   0  0  0  0  0  0  0  0  0  0  0  0
   -3.9777   22.3238  -33.1098 H   0  0  0  0  0  0  0  0  0  0  0  0
   -2.6270   24.4260  -29.1830 C   0  0  0  0  0  0  0  0  0  0  0  0
   -1.9900   25.6530  -29.3290 O   0  0  0  0  0  0  0  0  0  0  0  0
   -1.0930   23.1040  -26.2180 C   0  0  0  0  0  0  0  0  0  0  0  0
   -2.0646   22.7946  -25.8055 H   0  0  0  0  0  0  0  0  0  0  0  0
  1  2  1  0
  2  3  1  0
  3  4  2  0
  4  5  1  0
  4  6  1  0
  6  7  1  0
  6  8  2  0
  8  9  1  0
  8 10  1  0
 10 11  1  0
 11 12  1  0
 12 13  1  0
 12 14  2  0
 14 15  1  0
 14 16  1  0
 16 17  1  0
 17 18  2  0
 17 19  1  0
 19 20  1  0
 20 21  2  0
 21 22  1  0
 21 23  1  0
 23 24  1  0
 23 25  2  0
 25 26  1  0
 26 27  2  0
 26 28  2  0
 26 29  1  0
 29 30  2  0
 30 31  1  0
 31 32  1  0
 32 33  1  0
 32 34  2  0
 34 35  1  0
 34 36  1  0
 36 37  1  0
 36 38  2  0
 38 39  1  0
 25 40  1  0
 40 41  1  0
 40 42  2  0
 42 43  1  0
 16 44  2  0
 44 45  1  0
 10 46  2  0
 46 47  1  0
 46  3  1  0
 44 11  1  0
 42 20  1  0
 38 30  1  0
M  CHG  4  13  -1  19  -1  31  -1  45  -1
M  END
>  <UniqueID>  (28) 
27

>  <SMILES>  (28) 
O=C([N-]c1ccc(S(=O)(=O)/N=c2\cccc[n-]2)cc1)c1cc([O-])n(-c2cccc(O)c2)c1[O-]

>  <Energy>  (28) 
95.56852861676175

>  <Genealogy>  (28) 
O=C([N-]c1ccc(S(=O)(=O)N=c2cccc[n-]2)cc1)c1cc([O-])n(-c2cccc(O)c2)c1[O-] (protonated)
O=C([N-]c1ccc(S(=O)(=O)/N=c2\cccc[n-]2)cc1)c1cc([O-])n(-c2cccc(O)c2)c1[O-] (cis-trans isomerization)
O=C([N-]c1ccc(S(=O)(=O)/N=c2\cccc[n-]2)cc1)c1cc([O-])n(-c2cccc(O)c2)c1[O-] (3D coordinates assigned)
O=C([N-]c1ccc(S(=O)(=O)/N=c2\cccc[n-]2)cc1)c1cc([O-])n(-c2cccc(O)c2)c1[O-] (optimized conformer: 95.56852861676175 kcal/mol)

>  <smiles>  (28) 
O=C(Nc1ccc(S(=O)(=O)N=c2cccc[nH]2)cc1)c1cc(O)n(-c2cccc(O)c2)c1O

>  <score_type>  (28) 
oracle

>  <origin>  (28) 
adgpu

>  <m_score__min__energy>  (28) 
-13.85

>  <m_primary>  (28) 
energy

$$$$
28:0
     RDKit          3D

 35 37  0  0  0  0  0  0  0  0999 V2000
   -7.0801   17.9418  -33.3178 H   0  0  0  0  0  0  0  0  0  0  0  0
   -7.0530   18.9140  -32.8040 C   0  0  0  0  0  0  0  0  0  0  0  0
   -8.2380   19.5490  -32.4170 C   0  0  0  0  0  0  0  0  0  0  0  0
   -9.5630   18.9230  -32.7110 C   0  0  0  0  0  0  0  0  0  0  0  0
  -10.0725   18.6823  -31.7663 H   0  0  0  0  0  0  0  0  0  0  0  0
  -10.1795   19.6251  -33.2915 H   0  0  0  0  0  0  0  0  0  0  0  0
   -9.4122   18.0009  -33.2915 H   0  0  0  0  0  0  0  0  0  0  0  0
   -8.1800   20.7520  -31.7840 N   0  0  0  0  0  0  0  0  0  0  0  0
   -6.9900   21.3460  -31.5070 C   0  0  0  0  0  0  0  0  0  0  0  0
   -6.9820   22.5080  -30.9190 N   0  0  0  0  0  0  0  0  0  0  0  0
   -5.8210   23.2520  -30.5130 C   0  0  0  0  0  0  0  0  0  0  0  0
   -5.6520   24.6110  -30.8430 C   0  0  0  0  0  0  0  0  0  0  0  0
   -6.4301   25.1367  -31.4159 H   0  0  0  0  0  0  0  0  0  0  0  0
   -4.4990   25.2940  -30.4450 C   0  0  0  0  0  0  0  0  0  0  0  0
   -4.3813   26.3602  -30.6886 H   0  0  0  0  0  0  0  0  0  0  0  0
   -3.4950   24.6250  -29.7380 C   0  0  0  0  0  0  0  0  0  0  0  0
   -2.3500   25.3060  -29.3430 O   0  0  0  0  0  0  0  0  0  0  0  0
   -3.6410   23.2670  -29.4380 C   0  0  0  0  0  0  0  0  0  0  0  0
   -2.8477   22.7370  -28.8905 H   0  0  0  0  0  0  0  0  0  0  0  0
   -4.7940   22.5820  -29.8330 C   0  0  0  0  0  0  0  0  0  0  0  0
   -4.8962   21.5100  -29.6088 H   0  0  0  0  0  0  0  0  0  0  0  0
   -5.8330   20.7400  -31.8890 N   0  0  0  0  0  0  0  0  0  0  0  0
   -5.8370   19.5370  -32.5260 C   0  0  0  0  0  0  0  0  0  0  0  0
   -4.6120   18.8980  -32.9190 N   0  0  0  0  0  0  0  0  0  0  0  0
   -3.5480   19.4890  -33.3810 C   0  0  0  0  0  0  0  0  0  0  0  0
   -3.4210   20.8190  -33.5640 N   0  0  0  0  0  0  0  0  0  0  0  0
   -2.2030   21.0310  -34.0340 N   0  0  0  0  0  0  0  0  0  0  0  0
   -1.8170   21.9760  -34.2560 H   0  0  0  0  0  0  0  0  0  0  0  0
   -1.5610   19.8550  -34.1610 C   0  0  0  0  0  0  0  0  0  0  0  0
   -0.1390   19.7110  -34.5920 C   0  0  0  0  0  0  0  0  0  0  0  0
    0.5082   19.6455  -33.7049 H   0  0  0  0  0  0  0  0  0  0  0  0
   -0.0292   18.7971  -35.1943 H   0  0  0  0  0  0  0  0  0  0  0  0
    0.1518   20.5843  -35.1943 H   0  0  0  0  0  0  0  0  0  0  0  0
   -2.3890   18.8330  -33.7390 C   0  0  0  0  0  0  0  0  0  0  0  0
   -2.1752   17.7547  -33.6983 H   0  0  0  0  0  0  0  0  0  0  0  0
  1  2  1  0
  2  3  1  0
  3  4  1  0
  4  5  1  0
  4  6  1  0
  4  7  1  0
  3  8  2  0
  8  9  1  0
  9 10  2  0
 10 11  1  0
 11 12  2  0
 12 13  1  0
 12 14  1  0
 14 15  1  0
 14 16  2  0
 16 17  1  0
 16 18  1  0
 18 19  1  0
 18 20  2  0
 20 21  1  0
  9 22  1  0
 22 23  1  0
 23 24  1  0
 24 25  2  0
 25 26  1  0
 26 27  1  0
 27 28  1  0
 27 29  1  0
 29 30  1  0
 30 31  1  0
 30 32  1  0
 30 33  1  0
 29 34  2  0
 34 35  1  0
 23  2  2  0
 34 25  1  0
 20 11  1  0
M  CHG  3  17  -1  22  -1  26  -1
M  END
>  <UniqueID>  (29) 
28

>  <SMILES>  (29) 
Cc1cc(/N=c2/cc(C)[nH][n-]2)[n-]/c(=N\c2ccc([O-])cc2)n1

>  <Energy>  (29) 
73.44617348924851

>  <Genealogy>  (29) 
Cc1cc(N=c2cc(C)[nH][n-]2)[n-]c(=Nc2ccc([O-])cc2)n1 (protonated)
Cc1cc(/N=c2/cc(C)[nH][n-]2)[n-]/c(=N\c2ccc([O-])cc2)n1 (cis-trans isomerization)
Cc1cc(/N=c2/cc(C)[nH][n-]2)[n-]/c(=N\c2ccc([O-])cc2)n1 (3D coordinates assigned)
Cc1cc(/N=c2/cc(C)[nH][n-]2)[n-]/c(=N\c2ccc([O-])cc2)n1 (optimized conformer: 73.44617348924851 kcal/mol)

>  <smiles>  (29) 
Cc1cc(N=c2cc(C)[nH][nH]2)[nH]c(=Nc2ccc(O)cc2)n1

>  <score_type>  (29) 
oracle

>  <origin>  (29) 
adgpu

>  <m_score__min__energy>  (29) 
-10.550000000000001

>  <m_primary>  (29) 
energy

$$$$
29:0
     RDKit          3D

 64 67  0  0  0  0  0  0  0  0999 V2000
   -5.3580   15.6130  -33.6740 C   0  0  0  0  0  0  0  0  0  0  0  0
   -6.5510   16.3810  -34.2240 C   0  0  0  0  0  0  0  0  0  0  0  0
   -6.8120   17.5610  -33.4070 N   0  0  0  0  0  0  0  0  0  0  0  0
   -7.8310   17.6780  -32.5680 N   0  0  0  0  0  0  0  0  0  0  0  0
   -7.6670   18.8630  -31.9380 C   0  0  0  0  0  0  0  0  0  0  0  0
   -6.5410   19.4940  -32.3470 N   0  0  0  0  0  0  0  0  0  0  0  0
   -6.0050   20.7330  -31.8490 C   0  0  0  0  0  0  0  0  0  0  0  0
   -4.6750   20.8110  -31.3960 C   0  0  0  0  0  0  0  0  0  0  0  0
   -4.1790   22.0000  -30.8510 C   0  0  0  0  0  0  0  0  0  0  0  0
   -5.0020   23.1300  -30.7560 C   0  0  0  0  0  0  0  0  0  0  0  0
   -4.4020   24.5900  -29.9760 S   0  0  0  0  0  0  0  0  0  0  0  0
   -4.2150   25.6610  -31.0130 O   0  0  0  0  0  0  0  0  0  0  0  0
   -5.3800   25.0930  -28.9540 O   0  0  0  0  0  0  0  0  0  0  0  0
   -2.8690   24.2440  -29.2420 N   0  0  0  0  0  0  0  0  0  0  0  0
   -2.3480   24.9290  -28.0950 C   0  0  0  0  0  0  0  0  0  0  0  0
   -1.1980   25.7150  -28.2430 C   0  0  0  0  0  0  0  0  0  0  0  0
   -0.6510   26.3830  -27.1420 C   0  0  0  0  0  0  0  0  0  0  0  0
   -1.2800   26.3160  -25.8860 C   0  0  0  0  0  0  0  0  0  0  0  0
   -0.7460   27.0920  -24.7050 C   0  0  0  0  0  0  0  0  0  0  0  0
    0.7230   26.7200  -24.3810 C   0  0  0  0  0  0  0  0  0  0  0  0
    0.8810   25.3850  -23.7670 N   0  0  0  0  0  0  0  0  0  0  0  0
    0.9780   24.2600  -24.7180 C   0  0  0  0  0  0  0  0  0  0  0  0
   -0.2020   23.2570  -24.6440 C   0  0  2  0  0  0  0  0  0  0  0  0
    0.0140   22.3640  -23.5820 O   0  0  0  0  0  0  0  0  0  0  0  0
   -0.3530   22.4620  -25.9210 C   0  0  0  0  0  0  0  0  0  0  0  0
   -1.2180   21.3560  -25.9860 C   0  0  0  0  0  0  0  0  0  0  0  0
   -1.3750   20.6590  -27.1840 C   0  0  0  0  0  0  0  0  0  0  0  0
   -0.6620   21.0680  -28.3130 C   0  0  0  0  0  0  0  0  0  0  0  0
    0.1810   22.1300  -28.2370 N   0  0  0  0  0  0  0  0  0  0  0  0
    0.3500   22.8300  -27.0820 C   0  0  0  0  0  0  0  0  0  0  0  0
   -2.4400   25.5350  -25.7430 C   0  0  0  0  0  0  0  0  0  0  0  0
   -2.9660   24.8430  -26.8350 C   0  0  0  0  0  0  0  0  0  0  0  0
   -6.3230   23.0630  -31.2220 C   0  0  0  0  0  0  0  0  0  0  0  0
   -6.8240   21.8710  -31.7570 C   0  0  0  0  0  0  0  0  0  0  0  0
   -6.0310   18.6450  -33.2600 C   0  0  0  0  0  0  0  0  0  0  0  0
   -4.9690   18.8450  -33.9100 O   0  0  0  0  0  0  0  0  0  0  0  0
   -5.3857   15.6308  -32.5745 H   0  0  0  0  0  0  0  0  0  0  0  0
   -5.3991   14.5713  -34.0250 H   0  0  0  0  0  0  0  0  0  0  0  0
   -4.4268   16.0817  -34.0250 H   0  0  0  0  0  0  0  0  0  0  0  0
   -6.3365   16.6943  -35.2564 H   0  0  0  0  0  0  0  0  0  0  0  0
   -7.4367   15.7289  -34.2051 H   0  0  0  0  0  0  0  0  0  0  0  0
   -8.3623   19.2647  -31.1862 H   0  0  0  0  0  0  0  0  0  0  0  0
   -4.0203   19.9302  -31.4710 H   0  0  0  0  0  0  0  0  0  0  0  0
   -3.1391   22.0480  -30.4957 H   0  0  0  0  0  0  0  0  0  0  0  0
   -0.7223   25.8076  -29.2305 H   0  0  0  0  0  0  0  0  0  0  0  0
    0.2759   26.9636  -27.2595 H   0  0  0  0  0  0  0  0  0  0  0  0
   -0.7978   28.1667  -24.9337 H   0  0  0  0  0  0  0  0  0  0  0  0
   -1.3609   26.8412  -23.8281 H   0  0  0  0  0  0  0  0  0  0  0  0
    1.3002   26.7412  -25.3171 H   0  0  0  0  0  0  0  0  0  0  0  0
    1.0837   27.4544  -23.6458 H   0  0  0  0  0  0  0  0  0  0  0  0
    0.0600   25.2140  -23.1360 H   0  0  0  0  0  0  0  0  0  0  0  0
    1.7370   25.4000  -23.1650 H   0  0  0  0  0  0  0  0  0  0  0  0
    1.0156   24.6728  -25.7369 H   0  0  0  0  0  0  0  0  0  0  0  0
    1.8852   23.6987  -24.4497 H   0  0  0  0  0  0  0  0  0  0  0  0
   -1.1228   23.8387  -24.4902 H   0  0  0  0  0  0  0  0  0  0  0  0
    0.2430   22.9100  -22.7840 H   0  0  0  0  0  0  0  0  0  0  0  0
   -1.7723   21.0394  -25.0902 H   0  0  0  0  0  0  0  0  0  0  0  0
   -2.0540   19.7953  -27.2390 H   0  0  0  0  0  0  0  0  0  0  0  0
   -0.7833   20.5296  -29.2645 H   0  0  0  0  0  0  0  0  0  0  0  0
    1.0392   23.6870  -27.0566 H   0  0  0  0  0  0  0  0  0  0  0  0
   -2.9366   25.4688  -24.7637 H   0  0  0  0  0  0  0  0  0  0  0  0
   -3.8687   24.2271  -26.7092 H   0  0  0  0  0  0  0  0  0  0  0  0
   -6.9686   23.9519  -31.1667 H   0  0  0  0  0  0  0  0  0  0  0  0
   -7.8655   21.8246  -32.1077 H   0  0  0  0  0  0  0  0  0  0  0  0
  1  2  1  0
  2  3  1  0
  3  4  1  0
  4  5  2  0
  5  6  1  0
  6  7  1  0
  7  8  2  0
  8  9  1  0
  9 10  2  0
 10 11  1  0
 11 12  2  0
 11 13  2  0
 11 14  1  0
 14 15  1  0
 15 16  2  0
 16 17  1  0
 17 18  2  0
 18 19  1  0
 19 20  1  0
 20 21  1  0
 21 22  1  0
 22 23  1  0
 23 24  1  0
 23 25  1  0
 25 26  2  0
 26 27  1  0
 27 28  2  0
 28 29  1  0
 29 30  2  0
 18 31  1  0
 31 32  2  0
 10 33  1  0
 33 34  2  0
  6 35  1  0
 35 36  2  0
 35  3  1  0
 34  7  1  0
 32 15  1  0
 30 25  1  0
  1 37  1  0
  1 38  1  0
  1 39  1  0
  2 40  1  0
  2 41  1  0
  5 42  1  0
  8 43  1  0
  9 44  1  0
 16 45  1  0
 17 46  1  0
 19 47  1  0
 19 48  1  0
 20 49  1  0
 20 50  1  0
 21 51  1  0
 21 52  1  0
 22 53  1  0
 22 54  1  0
 23 55  1  1
 24 56  1  0
 26 57  1  0
 27 58  1  0
 28 59  1  0
 30 60  1  0
 31 61  1  0
 32 62  1  0
 33 63  1  0
 34 64  1  0
M  CHG  2  14  -1  21   1
M  END
>  <UniqueID>  (30) 
29

>  <SMILES>  (30) 
CCn1ncn(-c2ccc(S(=O)(=O)[N-]c3ccc(CC[NH2+]C[C@H](O)c4cccnc4)cc3)cc2)c1=O

>  <Energy>  (30) 
113.6160801386253

>  <Genealogy>  (30) 
CCn1ncn(-c2ccc(S(=O)(=O)[N-]c3ccc(CC[NH2+]CC(O)c4cccnc4)cc3)cc2)c1=O (protonated)
CCn1ncn(-c2ccc(S(=O)(=O)[N-]c3ccc(CC[NH2+]C[C@H](O)c4cccnc4)cc3)cc2)c1=O (chirality)
CCn1ncn(-c2ccc(S(=O)(=O)[N-]c3ccc(CC[NH2+]C[C@H](O)c4cccnc4)cc3)cc2)c1=O (3D coordinates assigned)
CCn1ncn(-c2ccc(S(=O)(=O)[N-]c3ccc(CC[NH2+]C[C@H](O)c4cccnc4)cc3)cc2)c1=O (optimized conformer: 113.6160801386253 kcal/mol)

>  <smiles>  (30) 
CCn1ncn(-c2ccc(S(=O)(=O)Nc3ccc(CCNCC(O)c4cccnc4)cc3)cc2)c1=O

>  <score_type>  (30) 
oracle

>  <origin>  (30) 
adgpu

>  <m_score__min__energy>  (30) 
-11.9

>  <m_primary>  (30) 
energy

$$$$
30:0
     RDKit          3D

 59 62  0  0  0  0  0  0  0  0999 V2000
   -0.4860   26.0960  -24.0160 C   0  0  0  0  0  0  0  0  0  0  0  0
   -0.8800   26.4370  -25.3860 N   0  0  0  0  0  0  0  0  0  0  0  0
   -0.5130   27.8240  -25.6990 C   0  0  0  0  0  0  0  0  0  0  0  0
   -0.1350   25.3380  -26.5220 S   0  0  0  0  0  0  0  0  0  0  0  0
    0.7310   24.3540  -25.7870 O   0  0  0  0  0  0  0  0  0  0  0  0
    0.7400   26.1160  -27.4590 O   0  0  0  0  0  0  0  0  0  0  0  0
   -1.3440   24.4490  -27.4510 C   0  0  0  0  0  0  0  0  0  0  0  0
   -1.6800   23.1350  -27.0980 C   0  0  0  0  0  0  0  0  0  0  0  0
   -2.6310   22.4330  -27.8440 C   0  0  0  0  0  0  0  0  0  0  0  0
   -3.2550   23.0390  -28.9370 C   0  0  0  0  0  0  0  0  0  0  0  0
   -2.9330   24.3520  -29.2980 C   0  0  0  0  0  0  0  0  0  0  0  0
   -3.5420   24.9170  -30.4640 N   0  0  0  0  0  0  0  0  0  0  0  0
   -4.9380   25.2180  -30.6250 C   0  0  0  0  0  0  0  0  0  0  0  0
   -5.3750   26.3590  -30.3090 O   0  0  0  0  0  0  0  0  0  0  0  0
   -5.8640   24.1870  -31.1510 C   0  0  0  0  0  0  0  0  0  0  0  0
   -5.5040   23.4050  -32.2640 C   0  0  0  0  0  0  0  0  0  0  0  0
   -6.3290   22.3620  -32.6940 C   0  0  0  0  0  0  0  0  0  0  0  0
   -7.5220   22.0730  -32.0140 C   0  0  0  0  0  0  0  0  0  0  0  0
   -8.3390   20.8480  -32.3640 C   0  0  0  0  0  0  0  0  0  0  0  0
   -7.8810   19.6180  -31.6710 N   0  0  0  0  0  0  0  0  0  0  0  0
   -8.5240   18.3620  -32.1530 C   0  0  0  0  0  0  0  0  0  0  0  0
   -7.5490   17.2650  -32.6330 C   0  0  0  0  0  0  0  0  0  0  0  0
   -6.3090   17.8490  -33.2440 C   0  0  0  0  0  0  0  0  0  0  0  0
   -5.7080   17.2810  -34.3780 C   0  0  0  0  0  0  0  0  0  0  0  0
   -4.5190   17.8170  -34.8810 C   0  0  0  0  0  0  0  0  0  0  0  0
   -3.9130   18.9020  -34.2380 C   0  0  0  0  0  0  0  0  0  0  0  0
   -4.4990   19.4580  -33.0950 C   0  0  0  0  0  0  0  0  0  0  0  0
   -5.7100   18.9440  -32.6110 C   0  0  0  0  0  0  0  0  0  0  0  0
   -6.4210   19.5490  -31.4300 C   0  0  0  0  0  0  0  0  0  0  0  0
   -7.9160   22.8970  -30.9500 C   0  0  0  0  0  0  0  0  0  0  0  0
   -7.0900   23.9370  -30.5150 C   0  0  0  0  0  0  0  0  0  0  0  0
   -1.9640   25.0520  -28.5560 C   0  0  0  0  0  0  0  0  0  0  0  0
   -1.1204   26.6451  -23.3046 H   0  0  0  0  0  0  0  0  0  0  0  0
   -0.6087   25.0144  -23.8576 H   0  0  0  0  0  0  0  0  0  0  0  0
    0.5668   26.3726  -23.8576 H   0  0  0  0  0  0  0  0  0  0  0  0
   -1.9170   26.3360  -25.4720 H   0  0  0  0  0  0  0  0  0  0  0  0
   -0.3648   28.3840  -24.7639 H   0  0  0  0  0  0  0  0  0  0  0  0
    0.4186   27.8337  -26.2838 H   0  0  0  0  0  0  0  0  0  0  0  0
   -1.3179   28.2932  -26.2838 H   0  0  0  0  0  0  0  0  0  0  0  0
   -1.1955   22.6563  -26.2342 H   0  0  0  0  0  0  0  0  0  0  0  0
   -2.8890   21.3995  -27.5694 H   0  0  0  0  0  0  0  0  0  0  0  0
   -4.0041   22.4806  -29.5175 H   0  0  0  0  0  0  0  0  0  0  0  0
   -4.5666   23.6161  -32.7995 H   0  0  0  0  0  0  0  0  0  0  0  0
   -6.0413   21.7638  -33.5711 H   0  0  0  0  0  0  0  0  0  0  0  0
   -9.3865   21.0359  -32.0856 H   0  0  0  0  0  0  0  0  0  0  0  0
   -8.2211   20.6760  -33.4441 H   0  0  0  0  0  0  0  0  0  0  0  0
   -9.1222   17.9480  -31.3280 H   0  0  0  0  0  0  0  0  0  0  0  0
   -9.1222   18.6439  -33.0321 H   0  0  0  0  0  0  0  0  0  0  0  0
   -7.2625   16.6422  -31.7727 H   0  0  0  0  0  0  0  0  0  0  0  0
   -8.0596   16.6668  -33.4020 H   0  0  0  0  0  0  0  0  0  0  0  0
   -6.1725   16.4142  -34.8709 H   0  0  0  0  0  0  0  0  0  0  0  0
   -4.0596   17.3857  -35.7826 H   0  0  0  0  0  0  0  0  0  0  0  0
   -2.9742   19.3188  -34.6316 H   0  0  0  0  0  0  0  0  0  0  0  0
   -4.0102   20.2966  -32.5775 H   0  0  0  0  0  0  0  0  0  0  0  0
   -6.2316   18.9308  -30.5401 H   0  0  0  0  0  0  0  0  0  0  0  0
   -6.0414   20.5699  -31.2762 H   0  0  0  0  0  0  0  0  0  0  0  0
   -8.8824   22.7235  -30.4540 H   0  0  0  0  0  0  0  0  0  0  0  0
   -7.4031   24.5646  -29.6676 H   0  0  0  0  0  0  0  0  0  0  0  0
   -1.6908   26.0779  -28.8438 H   0  0  0  0  0  0  0  0  0  0  0  0
  1  2  1  0
  2  3  1  0
  2  4  1  0
  4  5  2  0
  4  6  2  0
  4  7  1  0
  7  8  2  0
  8  9  1  0
  9 10  2  0
 10 11  1  0
 11 12  1  0
 12 13  1  0
 13 14  2  0
 13 15  1  0
 15 16  2  0
 16 17  1  0
 17 18  2  0
 18 19  1  0
 19 20  1  0
 20 21  1  0
 21 22  1  0
 22 23  1  0
 23 24  2  0
 24 25  1  0
 25 26  2  0
 26 27  1  0
 27 28  2  0
 28 29  1  0
 18 30  1  0
 30 31  2  0
 11 32  2  0
 32  7  1  0
 31 15  1  0
 29 20  1  0
 28 23  1  0
  1 33  1  0
  1 34  1  0
  1 35  1  0
  2 36  1  0
  3 37  1  0
  3 38  1  0
  3 39  1  0
  8 40  1  0
  9 41  1  0
 10 42  1  0
 16 43  1  0
 17 44  1  0
 19 45  1  0
 19 46  1  0
 21 47  1  0
 21 48  1  0
 22 49  1  0
 22 50  1  0
 24 51  1  0
 25 52  1  0
 26 53  1  0
 27 54  1  0
 29 55  1  0
 29 56  1  0
 30 57  1  0
 31 58  1  0
 32 59  1  0
M  CHG  2   2   1  12  -1
M  END
>  <UniqueID>  (31) 
30

>  <SMILES>  (31) 
C[NH+](C)S(=O)(=O)c1cccc([N-]C(=O)c2ccc(CN3CCc4ccccc4C3)cc2)c1

>  <Energy>  (31) 
74.73844530881468

>  <Genealogy>  (31) 
C[NH+](C)S(=O)(=O)c1cccc([N-]C(=O)c2ccc(CN3CCc4ccccc4C3)cc2)c1 (protonated)
C[NH+](C)S(=O)(=O)c1cccc([N-]C(=O)c2ccc(CN3CCc4ccccc4C3)cc2)c1 (3D coordinates assigned)
C[NH+](C)S(=O)(=O)c1cccc([N-]C(=O)c2ccc(CN3CCc4ccccc4C3)cc2)c1 (nonaromatic ring conformer: 74.73844530881468 kcal/mol)

>  <smiles>  (31) 
CN(C)S(=O)(=O)c1cccc(NC(=O)c2ccc(CN3CCc4ccccc4C3)cc2)c1

>  <score_type>  (31) 
oracle

>  <origin>  (31) 
adgpu

>  <m_score__min__energy>  (31) 
-12.119999999999999

>  <m_primary>  (31) 
energy

$$$$
31:0
     RDKit          3D

 42 45  0  0  0  0  0  0  0  0999 V2000
   -3.8000   16.1400  -35.2950 C   0  0  0  0  0  0  0  0  0  0  0  0
   -4.3190   17.3730  -34.6370 C   0  0  0  0  0  0  0  0  0  0  0  0
   -3.5500   18.4230  -34.1770 C   0  0  0  0  0  0  0  0  0  0  0  0
   -4.4420   19.3310  -33.6420 C   0  0  0  0  0  0  0  0  0  0  0  0
   -4.0760   20.6160  -33.0130 C   0  0  0  0  0  0  0  0  0  0  0  0
   -3.2060   21.3420  -33.5670 O   0  0  0  0  0  0  0  0  0  0  0  0
   -4.7400   21.0770  -31.8270 N   0  0  0  0  0  0  0  0  0  0  0  0
   -4.1700   22.0250  -30.9100 C   0  0  0  0  0  0  0  0  0  0  0  0
   -3.4270   21.5630  -29.8160 C   0  0  0  0  0  0  0  0  0  0  0  0
   -2.8440   22.4640  -28.9210 C   0  0  0  0  0  0  0  0  0  0  0  0
   -2.9810   23.8530  -29.1070 C   0  0  0  0  0  0  0  0  0  0  0  0
   -2.3590   24.8090  -28.1530 C   0  0  0  0  0  0  0  0  0  0  0  0
   -2.5300   24.8280  -26.7640 C   0  0  0  0  0  0  0  0  0  0  0  0
   -1.7620   25.8840  -26.3350 C   0  0  0  0  0  0  0  0  0  0  0  0
   -1.5390   26.3920  -25.0570 C   0  0  0  0  0  0  0  0  0  0  0  0
   -0.6850   27.5040  -24.9340 C   0  0  0  0  0  0  0  0  0  0  0  0
   -0.0840   28.0730  -26.0800 C   0  0  0  0  0  0  0  0  0  0  0  0
   -0.3310   27.5360  -27.3560 C   0  0  0  0  0  0  0  0  0  0  0  0
   -1.1810   26.4340  -27.4440 C   0  0  0  0  0  0  0  0  0  0  0  0
   -1.5460   25.7860  -28.5200 O   0  0  0  0  0  0  0  0  0  0  0  0
   -3.7110   24.3170  -30.2230 C   0  0  0  0  0  0  0  0  0  0  0  0
   -3.8670   25.6780  -30.4630 O   0  0  0  0  0  0  0  0  0  0  0  0
   -4.2920   23.4090  -31.1150 C   0  0  0  0  0  0  0  0  0  0  0  0
   -5.7010   18.7590  -33.7870 C   0  0  0  0  0  0  0  0  0  0  0  0
   -7.0130   19.3190  -33.3400 C   0  0  0  0  0  0  0  0  0  0  0  0
   -5.5900   17.5970  -34.3910 O   0  0  0  0  0  0  0  0  0  0  0  0
   -3.4948   15.4149  -34.5262 H   0  0  0  0  0  0  0  0  0  0  0  0
   -4.5889   15.6992  -35.9221 H   0  0  0  0  0  0  0  0  0  0  0  0
   -2.9333   16.3961  -35.9221 H   0  0  0  0  0  0  0  0  0  0  0  0
   -2.4551   18.5168  -34.2264 H   0  0  0  0  0  0  0  0  0  0  0  0
   -5.7360   20.7940  -31.6880 H   0  0  0  0  0  0  0  0  0  0  0  0
   -3.3014   20.4814  -29.6601 H   0  0  0  0  0  0  0  0  0  0  0  0
   -2.2718   22.0840  -28.0618 H   0  0  0  0  0  0  0  0  0  0  0  0
   -3.1424   24.1492  -26.1522 H   0  0  0  0  0  0  0  0  0  0  0  0
   -2.0142   25.9394  -24.1742 H   0  0  0  0  0  0  0  0  0  0  0  0
   -0.4842   27.9325  -23.9410 H   0  0  0  0  0  0  0  0  0  0  0  0
    0.5817   28.9421  -25.9729 H   0  0  0  0  0  0  0  0  0  0  0  0
    0.1309   27.9707  -28.2547 H   0  0  0  0  0  0  0  0  0  0  0  0
   -4.8502   23.7831  -31.9859 H   0  0  0  0  0  0  0  0  0  0  0  0
   -7.0496   19.3346  -32.2407 H   0  0  0  0  0  0  0  0  0  0  0  0
   -7.1248   20.3433  -33.7252 H   0  0  0  0  0  0  0  0  0  0  0  0
   -7.8300   18.6912  -33.7252 H   0  0  0  0  0  0  0  0  0  0  0  0
  1  2  1  0
  2  3  2  0
  3  4  1  0
  4  5  1  0
  5  6  2  0
  5  7  1  0
  7  8  1  0
  8  9  2  0
  9 10  1  0
 10 11  2  0
 11 12  1  0
 12 13  2  0
 13 14  1  0
 14 15  2  0
 15 16  1  0
 16 17  2  0
 17 18  1  0
 18 19  2  0
 19 20  1  0
 11 21  1  0
 21 22  1  0
 21 23  2  0
  4 24  2  0
 24 25  1  0
 24 26  1  0
 26  2  1  0
 23  8  1  0
 20 12  1  0
 19 14  1  0
  1 27  1  0
  1 28  1  0
  1 29  1  0
  3 30  1  0
  7 31  1  0
  9 32  1  0
 10 33  1  0
 13 34  1  0
 15 35  1  0
 16 36  1  0
 17 37  1  0
 18 38  1  0
 23 39  1  0
 25 40  1  0
 25 41  1  0
 25 42  1  0
M  CHG  1  22  -1
M  END
>  <UniqueID>  (32) 
31

>  <SMILES>  (32) 
Cc1cc(C(=O)Nc2ccc(-c3cc4ccccc4o3)c([O-])c2)c(C)o1

>  <Energy>  (32) 
111.9450444395778

>  <Genealogy>  (32) 
Cc1cc(C(=O)Nc2ccc(-c3cc4ccccc4o3)c([O-])c2)c(C)o1 (protonated)
Cc1cc(C(=O)Nc2ccc(-c3cc4ccccc4o3)c([O-])c2)c(C)o1 (3D coordinates assigned)
Cc1cc(C(=O)Nc2ccc(-c3cc4ccccc4o3)c([O-])c2)c(C)o1 (optimized conformer: 111.9450444395778 kcal/mol)

>  <smiles>  (32) 
Cc1cc(C(=O)Nc2ccc(-c3cc4ccccc4o3)c(O)c2)c(C)o1

>  <score_type>  (32) 
oracle

>  <origin>  (32) 
adgpu

>  <m_score__min__energy>  (32) 
-11.859999999999999

>  <m_primary>  (32) 
energy

$$$$
32:0
     RDKit          3D

 38 40  0  0  0  0  0  0  0  0999 V2000
   -1.7300   21.1490  -27.1640 C   0  0  0  0  0  0  0  0  0  0  0  0
   -2.3440   22.2250  -28.0200 C   0  0  0  0  0  0  0  0  0  0  0  0
   -3.2510   23.1280  -27.4440 C   0  0  0  0  0  0  0  0  0  0  0  0
   -3.8350   24.1380  -28.2100 C   0  0  0  0  0  0  0  0  0  0  0  0
   -3.5250   24.2670  -29.5730 C   0  0  0  0  0  0  0  0  0  0  0  0
   -4.1160   25.2940  -30.3950 N   0  0  0  0  0  0  0  0  0  0  0  0
   -5.5290   25.3420  -30.7710 C   0  0  0  0  0  0  0  0  0  0  0  0
   -5.9760   24.0130  -31.3040 C   0  0  0  0  0  0  0  0  0  0  0  0
   -5.0810   23.2040  -31.9320 N   0  0  0  0  0  0  0  0  0  0  0  0
   -5.4440   21.9980  -32.4350 C   0  0  0  0  0  0  0  0  0  0  0  0
   -4.5790   21.2860  -33.0120 O   0  0  0  0  0  0  0  0  0  0  0  0
   -6.7710   21.5610  -32.3070 C   0  0  0  0  0  0  0  0  0  0  0  0
   -7.2070   20.3210  -32.8100 C   0  0  0  0  0  0  0  0  0  0  0  0
   -8.5410   19.9330  -32.6570 C   0  0  0  0  0  0  0  0  0  0  0  0
   -9.4470   20.7720  -32.0030 C   0  0  0  0  0  0  0  0  0  0  0  0
   -9.0250   22.0060  -31.4980 C   0  0  0  0  0  0  0  0  0  0  0  0
   -7.6890   22.4090  -31.6460 C   0  0  0  0  0  0  0  0  0  0  0  0
   -7.2700   23.6110  -31.1570 N   0  0  0  0  0  0  0  0  0  0  0  0
   -2.6080   23.3760  -30.1500 C   0  0  0  0  0  0  0  0  0  0  0  0
   -2.0080   22.3580  -29.3870 C   0  0  0  0  0  0  0  0  0  0  0  0
   -1.0380   21.4150  -30.0490 C   0  0  0  0  0  0  0  0  0  0  0  0
   -1.8727   21.3990  -26.1023 H   0  0  0  0  0  0  0  0  0  0  0  0
   -2.2145   20.1858  -27.3822 H   0  0  0  0  0  0  0  0  0  0  0  0
   -0.6543   21.0761  -27.3822 H   0  0  0  0  0  0  0  0  0  0  0  0
   -3.5043   23.0387  -26.3773 H   0  0  0  0  0  0  0  0  0  0  0  0
   -4.5432   24.8379  -27.7424 H   0  0  0  0  0  0  0  0  0  0  0  0
   -3.4950   26.0380  -30.7880 H   0  0  0  0  0  0  0  0  0  0  0  0
   -6.1305   25.5982  -29.8864 H   0  0  0  0  0  0  0  0  0  0  0  0
   -5.6632   26.1028  -31.5540 H   0  0  0  0  0  0  0  0  0  0  0  0
   -6.4971   19.6564  -33.3241 H   0  0  0  0  0  0  0  0  0  0  0  0
   -8.8788   18.9639  -33.0528 H   0  0  0  0  0  0  0  0  0  0  0  0
  -10.4955   20.4609  -31.8850 H   0  0  0  0  0  0  0  0  0  0  0  0
   -9.7422   22.6624  -30.9834 H   0  0  0  0  0  0  0  0  0  0  0  0
   -7.9480   24.2390  -30.6670 H   0  0  0  0  0  0  0  0  0  0  0  0
   -2.3542   23.4749  -31.2157 H   0  0  0  0  0  0  0  0  0  0  0  0
   -0.4750   20.8677  -29.2786 H   0  0  0  0  0  0  0  0  0  0  0  0
   -1.5913   20.7003  -30.6759 H   0  0  0  0  0  0  0  0  0  0  0  0
   -0.3392   21.9883  -30.6759 H   0  0  0  0  0  0  0  0  0  0  0  0
  1  2  1  0
  2  3  2  0
  3  4  1  0
  4  5  2  0
  5  6  1  0
  6  7  1  0
  7  8  1  0
  8  9  2  0
  9 10  1  0
 10 11  2  0
 10 12  1  0
 12 13  2  0
 13 14  1  0
 14 15  2  0
 15 16  1  0
 16 17  2  0
 17 18  1  0
  5 19  1  0
 19 20  2  0
 20 21  1  0
 20  2  1  0
 18  8  1  0
 17 12  1  0
  1 22  1  0
  1 23  1  0
  1 24  1  0
  3 25  1  0
  4 26  1  0
  6 27  1  0
  7 28  1  0
  7 29  1  0
 13 30  1  0
 14 31  1  0
 15 32  1  0
 16 33  1  0
 18 34  1  0
 19 35  1  0
 21 36  1  0
 21 37  1  0
 21 38  1  0
M  END
>  <UniqueID>  (33) 
32

>  <SMILES>  (33) 
Cc1ccc(NCc2nc(=O)c3ccccc3[nH]2)cc1C

>  <Energy>  (33) 
43.69544091642675

>  <Genealogy>  (33) 
Cc1ccc(NCc2nc(=O)c3ccccc3[nH]2)cc1C (3D coordinates assigned)
Cc1ccc(NCc2nc(=O)c3ccccc3[nH]2)cc1C (optimized conformer: 43.69544091642675 kcal/mol)

>  <smiles>  (33) 
Cc1ccc(NCc2nc(=O)c3ccccc3[nH]2)cc1C

>  <score_type>  (33) 
oracle

>  <origin>  (33) 
adgpu

>  <m_score__min__energy>  (33) 
-8.3100000000000005

>  <m_primary>  (33) 
energy

$$$$
33:0
     RDKit          3D

 55 59  0  0  0  0  0  0  0  0999 V2000
   -3.3780   20.5251  -33.0208 H   0  0  0  0  0  0  0  0  0  0  0  0
   -2.7260   19.6530  -33.1770 C   0  0  0  0  0  0  0  0  0  0  0  0
   -3.2830   18.4350  -33.1570 C   0  0  0  0  0  0  0  0  0  0  0  0
   -2.6409   17.5594  -33.3333 H   0  0  0  0  0  0  0  0  0  0  0  0
   -4.7190   18.2180  -32.9090 C   0  0  0  0  0  0  0  0  0  0  0  0
   -5.7430   19.1460  -32.8220 C   0  0  0  0  0  0  0  0  0  0  0  0
   -5.7880   20.5400  -32.9030 C   0  0  0  0  0  0  0  0  0  0  0  0
   -4.8845   21.1248  -33.1304 H   0  0  0  0  0  0  0  0  0  0  0  0
   -7.0280   21.1730  -32.6840 C   0  0  0  0  0  0  0  0  0  0  0  0
   -7.1130   22.6020  -32.7360 N   0  0  0  0  0  0  0  0  0  0  0  0
   -7.3720   23.0340  -33.6520 H   0  0  0  0  0  0  0  0  0  0  0  0
   -6.6510   23.4560  -31.6730 C   0  0  0  0  0  0  0  0  0  0  0  0
   -7.5850   24.0580  -30.8160 C   0  0  0  0  0  0  0  0  0  0  0  0
   -8.6551   23.8287  -30.9266 H   0  0  0  0  0  0  0  0  0  0  0  0
   -7.1650   24.9460  -29.8240 C   0  0  0  0  0  0  0  0  0  0  0  0
   -7.9017   25.3919  -29.1395 H   0  0  0  0  0  0  0  0  0  0  0  0
   -5.8120   25.2700  -29.6980 C   0  0  0  0  0  0  0  0  0  0  0  0
   -5.4873   25.9733  -28.9170 H   0  0  0  0  0  0  0  0  0  0  0  0
   -4.8680   24.7030  -30.5620 C   0  0  0  0  0  0  0  0  0  0  0  0
   -3.4890   25.0810  -30.4350 N   0  0  0  0  0  0  0  0  0  0  0  0
   -2.6010   24.7250  -29.3630 C   0  0  0  0  0  0  0  0  0  0  0  0
   -1.7870   25.5880  -28.9420 O   0  0  0  0  0  0  0  0  0  0  0  0
   -2.5840   23.3640  -28.7810 C   0  0  0  0  0  0  0  0  0  0  0  0
   -3.0420   22.3060  -29.5060 N   0  0  0  0  0  0  0  0  0  0  0  0
   -3.0720   21.0490  -28.9930 C   0  0  0  0  0  0  0  0  0  0  0  0
   -3.4423   20.2104  -29.6009 H   0  0  0  0  0  0  0  0  0  0  0  0
   -2.6280   20.8300  -27.6850 C   0  0  0  0  0  0  0  0  0  0  0  0
   -2.6270   19.4560  -27.1000 C   0  0  0  0  0  0  0  0  0  0  0  0
   -2.6271   19.5249  -26.0022 H   0  0  0  0  0  0  0  0  0  0  0  0
   -3.5248   18.9148  -27.4335 H   0  0  0  0  0  0  0  0  0  0  0  0
   -1.7285   18.9162  -27.4335 H   0  0  0  0  0  0  0  0  0  0  0  0
   -2.1360   21.8760  -26.9690 N   0  0  0  0  0  0  0  0  0  0  0  0
   -2.1030   23.1330  -27.4840 C   0  0  0  0  0  0  0  0  0  0  0  0
   -1.7012   23.9649  -26.8869 H   0  0  0  0  0  0  0  0  0  0  0  0
   -5.2870   23.7590  -31.5160 C   0  0  0  0  0  0  0  0  0  0  0  0
   -4.5405   23.2526  -32.1456 H   0  0  0  0  0  0  0  0  0  0  0  0
   -8.1800   20.4020  -32.3880 C   0  0  0  0  0  0  0  0  0  0  0  0
   -9.1471   20.9029  -32.2337 H   0  0  0  0  0  0  0  0  0  0  0  0
   -8.0960   19.0010  -32.2900 C   0  0  0  0  0  0  0  0  0  0  0  0
   -8.9812   18.3940  -32.0491 H   0  0  0  0  0  0  0  0  0  0  0  0
   -6.8560   18.4090  -32.5080 C   0  0  0  0  0  0  0  0  0  0  0  0
   -6.5460   17.1050  -32.3940 N   0  0  0  0  0  0  0  0  0  0  0  0
   -5.2450   17.0010  -32.6330 N   0  0  0  0  0  0  0  0  0  0  0  0
   -4.7200   16.1000  -32.6030 H   0  0  0  0  0  0  0  0  0  0  0  0
   -1.2790   19.8910  -33.3980 C   0  0  0  0  0  0  0  0  0  0  0  0
   -0.2910   19.4700  -32.4810 C   0  0  0  0  0  0  0  0  0  0  0  0
   -0.5850   18.9244  -31.5722 H   0  0  0  0  0  0  0  0  0  0  0  0
    1.0590   19.7430  -32.7220 C   0  0  0  0  0  0  0  0  0  0  0  0
    1.8230   19.4051  -32.0064 H   0  0  0  0  0  0  0  0  0  0  0  0
    1.4400   20.4430  -33.8680 C   0  0  0  0  0  0  0  0  0  0  0  0
    2.5032   20.6535  -34.0557 H   0  0  0  0  0  0  0  0  0  0  0  0
    0.4720   20.8760  -34.7760 C   0  0  0  0  0  0  0  0  0  0  0  0
    0.7733   21.4305  -35.6770 H   0  0  0  0  0  0  0  0  0  0  0  0
   -0.8800   20.6060  -34.5420 C   0  0  0  0  0  0  0  0  0  0  0  0
   -1.6379   20.9556  -35.2585 H   0  0  0  0  0  0  0  0  0  0  0  0
  1  2  1  0
  2  3  2  0
  3  4  1  0
  3  5  1  0
  5  6  2  0
  6  7  1  0
  7  8  1  0
  7  9  2  0
  9 10  1  0
 10 11  1  0
 10 12  1  0
 12 13  2  0
 13 14  1  0
 13 15  1  0
 15 16  1  0
 15 17  2  0
 17 18  1  0
 17 19  1  0
 19 20  1  0
 20 21  1  0
 21 22  2  0
 21 23  1  0
 23 24  2  0
 24 25  1  0
 25 26  1  0
 25 27  2  0
 27 28  1  0
 28 29  1  0
 28 30  1  0
 28 31  1  0
 27 32  1  0
 32 33  2  0
 33 34  1  0
 19 35  2  0
 35 36  1  0
  9 37  1  0
 37 38  1  0
 37 39  2  0
 39 40  1  0
 39 41  1  0
 41 42  2  0
 42 43  1  0
 43 44  1  0
  2 45  1  0
 45 46  2  0
 46 47  1  0
 46 48  1  0
 48 49  1  0
 48 50  2  0
 50 51  1  0
 50 52  1  0
 52 53  1  0
 52 54  2  0
 54 55  1  0
 43  5  1  0
 54 45  1  0
 41  6  1  0
 35 12  1  0
 33 23  1  0
M  CHG  1  20  -1
M  END
>  <UniqueID>  (34) 
33

>  <SMILES>  (34) 
Cc1cnc(C(=O)[N-]c2cccc(Nc3ccc4n[nH]c(/C=C/c5ccccc5)c4c3)c2)cn1

>  <Energy>  (34) 
113.87773570225349

>  <Genealogy>  (34) 
Cc1cnc(C(=O)[N-]c2cccc(Nc3ccc4n[nH]c(C=Cc5ccccc5)c4c3)c2)cn1 (protonated)
Cc1cnc(C(=O)[N-]c2cccc(Nc3ccc4n[nH]c(/C=C/c5ccccc5)c4c3)c2)cn1 (cis-trans isomerization)
Cc1cnc(C(=O)[N-]c2cccc(Nc3ccc4n[nH]c(/C=C/c5ccccc5)c4c3)c2)cn1 (3D coordinates assigned)
Cc1cnc(C(=O)[N-]c2cccc(Nc3ccc4n[nH]c(/C=C/c5ccccc5)c4c3)c2)cn1 (optimized conformer: 113.87773570225349 kcal/mol)

>  <smiles>  (34) 
Cc1cnc(C(=O)Nc2cccc(Nc3ccc4n[nH]c(C=Cc5ccccc5)c4c3)c2)cn1

>  <score_type>  (34) 
oracle

>  <origin>  (34) 
adgpu

>  <m_score__min__energy>  (34) 
-12.19

>  <m_primary>  (34) 
energy

$$$$
34:0
     RDKit          3D

 43 45  0  0  0  0  0  0  0  0999 V2000
   -8.6100   18.6720  -31.2530 C   0  0  0  0  0  0  0  0  0  0  0  0
   -9.1150   19.9270  -32.4030 S   0  0  0  0  0  0  0  0  0  0  0  0
   -9.8610   20.9940  -31.6550 O   0  0  0  0  0  0  0  0  0  0  0  0
  -10.0020   19.3170  -33.4510 O   0  0  0  0  0  0  0  0  0  0  0  0
   -7.7050   20.6080  -33.1420 N   0  0  0  0  0  0  0  0  0  0  0  0
   -6.7850   21.5010  -32.4980 C   0  0  0  0  0  0  0  0  0  0  0  0
   -7.2420   22.5680  -31.7050 C   0  0  0  0  0  0  0  0  0  0  0  0
   -6.3390   23.4800  -31.1560 C   0  0  0  0  0  0  0  0  0  0  0  0
   -4.9670   23.3430  -31.3830 C   0  0  0  0  0  0  0  0  0  0  0  0
   -4.0750   24.3280  -30.8390 N   0  0  0  0  0  0  0  0  0  0  0  0
   -3.7120   24.4860  -29.4580 C   0  0  0  0  0  0  0  0  0  0  0  0
   -4.5790   24.9200  -28.6540 O   0  0  0  0  0  0  0  0  0  0  0  0
   -2.3830   24.0800  -28.9420 C   0  0  0  0  0  0  0  0  0  0  0  0
   -2.1130   22.7230  -28.6880 C   0  0  0  0  0  0  0  0  0  0  0  0
   -0.8660   22.3290  -28.1970 C   0  0  0  0  0  0  0  0  0  0  0  0
    0.1250   23.2830  -27.9510 C   0  0  0  0  0  0  0  0  0  0  0  0
    1.3630   22.8870  -27.4540 O   0  0  0  0  0  0  0  0  0  0  0  0
   -0.1280   24.6340  -28.2070 C   0  0  0  0  0  0  0  0  0  0  0  0
   -1.3750   25.0350  -28.7000 C   0  0  0  0  0  0  0  0  0  0  0  0
   -1.5940   26.3840  -28.9640 O   0  0  0  0  0  0  0  0  0  0  0  0
   -4.5060   22.2910  -32.1910 C   0  0  0  0  0  0  0  0  0  0  0  0
   -5.3970   21.3460  -32.7170 C   0  0  0  0  0  0  0  0  0  0  0  0
   -4.8650   20.2980  -33.4840 O   0  0  0  0  0  0  0  0  0  0  0  0
   -5.3140   18.9690  -33.4750 C   0  0  0  0  0  0  0  0  0  0  0  0
   -5.7270   18.3110  -34.6500 C   0  0  0  0  0  0  0  0  0  0  0  0
   -6.1720   16.9870  -34.5980 C   0  0  0  0  0  0  0  0  0  0  0  0
   -6.2240   16.3130  -33.3760 C   0  0  0  0  0  0  0  0  0  0  0  0
   -5.8440   16.9690  -32.2010 C   0  0  0  0  0  0  0  0  0  0  0  0
   -5.3890   18.2910  -32.2520 C   0  0  0  0  0  0  0  0  0  0  0  0
   -8.7565   19.0360  -30.2254 H   0  0  0  0  0  0  0  0  0  0  0  0
   -9.2136   17.7660  -31.4106 H   0  0  0  0  0  0  0  0  0  0  0  0
   -7.5471   18.4365  -31.4106 H   0  0  0  0  0  0  0  0  0  0  0  0
   -8.3192   22.6851  -31.5157 H   0  0  0  0  0  0  0  0  0  0  0  0
   -6.7101   24.3125  -30.5402 H   0  0  0  0  0  0  0  0  0  0  0  0
   -2.8892   21.9669  -28.8773 H   0  0  0  0  0  0  0  0  0  0  0  0
   -0.6636   21.2652  -28.0035 H   0  0  0  0  0  0  0  0  0  0  0  0
    0.6550   25.3837  -28.0205 H   0  0  0  0  0  0  0  0  0  0  0  0
   -3.4320   22.2077  -32.4138 H   0  0  0  0  0  0  0  0  0  0  0  0
   -5.6992   18.8417  -35.6131 H   0  0  0  0  0  0  0  0  0  0  0  0
   -6.4817   16.4751  -35.5211 H   0  0  0  0  0  0  0  0  0  0  0  0
   -6.5635   15.2674  -33.3378 H   0  0  0  0  0  0  0  0  0  0  0  0
   -5.9029   16.4451  -31.2356 H   0  0  0  0  0  0  0  0  0  0  0  0
   -5.0881   18.8013  -31.3251 H   0  0  0  0  0  0  0  0  0  0  0  0
  1  2  1  0
  2  3  2  0
  2  4  2  0
  2  5  1  0
  5  6  1  0
  6  7  2  0
  7  8  1  0
  8  9  2  0
  9 10  1  0
 10 11  1  0
 11 12  2  0
 11 13  1  0
 13 14  2  0
 14 15  1  0
 15 16  2  0
 16 17  1  0
 16 18  1  0
 18 19  2  0
 19 20  1  0
  9 21  1  0
 21 22  2  0
 22 23  1  0
 23 24  1  0
 24 25  2  0
 25 26  1  0
 26 27  2  0
 27 28  1  0
 28 29  2  0
 22  6  1  0
 29 24  1  0
 19 13  1  0
  1 30  1  0
  1 31  1  0
  1 32  1  0
  7 33  1  0
  8 34  1  0
 14 35  1  0
 15 36  1  0
 18 37  1  0
 21 38  1  0
 25 39  1  0
 26 40  1  0
 27 41  1  0
 28 42  1  0
 29 43  1  0
M  CHG  4   5  -1  10  -1  17  -1  20  -1
M  END
>  <UniqueID>  (35) 
34

>  <SMILES>  (35) 
CS(=O)(=O)[N-]c1ccc([N-]C(=O)c2ccc([O-])cc2[O-])cc1Oc1ccccc1

>  <Energy>  (35) 
60.03327310741889

>  <Genealogy>  (35) 
CS(=O)(=O)[N-]c1ccc([N-]C(=O)c2ccc([O-])cc2[O-])cc1Oc1ccccc1 (protonated)
CS(=O)(=O)[N-]c1ccc([N-]C(=O)c2ccc([O-])cc2[O-])cc1Oc1ccccc1 (3D coordinates assigned)
CS(=O)(=O)[N-]c1ccc([N-]C(=O)c2ccc([O-])cc2[O-])cc1Oc1ccccc1 (optimized conformer: 60.03327310741889 kcal/mol)

>  <smiles>  (35) 
CS(=O)(=O)Nc1ccc(NC(=O)c2ccc(O)cc2O)cc1Oc1ccccc1

>  <score_type>  (35) 
oracle

>  <origin>  (35) 
adgpu

>  <m_score__min__energy>  (35) 
-12.789999999999999

>  <m_primary>  (35) 
energy

$$$$
35:0
     RDKit          3D

 51 54  0  0  0  0  0  0  0  0999 V2000
   -1.6150   20.3540  -31.8840 C   0  0  0  0  0  0  0  0  0  0  0  0
   -2.5990   21.4530  -31.6460 C   0  0  0  0  0  0  0  0  0  0  0  0
   -2.4440   22.4000  -30.7000 N   0  0  0  0  0  0  0  0  0  0  0  0
   -3.5560   23.1570  -30.8060 C   0  0  0  0  0  0  0  0  0  0  0  0
   -3.8750   24.5590  -29.7300 S   0  0  0  0  0  0  0  0  0  0  0  0
   -2.5300   24.1160  -28.6240 C   0  0  0  0  0  0  0  0  0  0  0  0
   -2.6320   22.9670  -27.8290 C   0  0  0  0  0  0  0  0  0  0  0  0
   -1.5560   22.5620  -27.0200 C   0  0  0  0  0  0  0  0  0  0  0  0
   -1.6050   21.3440  -26.2640 N   0  0  0  0  0  0  0  0  0  0  0  0
   -2.0200   19.8080  -26.9590 S   0  0  0  0  0  0  0  0  0  0  0  0
   -3.1240   19.9750  -27.9660 O   0  0  0  0  0  0  0  0  0  0  0  0
   -2.4790   18.8680  -25.8760 O   0  0  0  0  0  0  0  0  0  0  0  0
   -0.6100   19.1400  -27.7770 C   0  0  0  0  0  0  0  0  0  0  0  0
   -0.1630   17.8470  -27.4630 C   0  0  0  0  0  0  0  0  0  0  0  0
    0.9550   17.3150  -28.1060 C   0  0  0  0  0  0  0  0  0  0  0  0
    1.6330   18.0710  -29.0690 C   0  0  0  0  0  0  0  0  0  0  0  0
    1.1820   19.3530  -29.3970 C   0  0  0  0  0  0  0  0  0  0  0  0
    0.0620   19.8870  -28.7540 C   0  0  0  0  0  0  0  0  0  0  0  0
   -0.4100   23.3690  -26.9540 C   0  0  0  0  0  0  0  0  0  0  0  0
   -0.3180   24.5320  -27.7220 C   0  0  0  0  0  0  0  0  0  0  0  0
   -1.3700   24.9010  -28.5670 C   0  0  0  0  0  0  0  0  0  0  0  0
   -1.2540   26.0480  -29.3470 O   0  0  0  0  0  0  0  0  0  0  0  0
   -4.4010   22.7250  -31.7700 N   0  0  0  0  0  0  0  0  0  0  0  0
   -5.6370   23.3700  -32.2160 C   0  0  0  0  0  0  0  0  0  0  0  0
   -6.8080   22.4900  -31.9130 C   0  0  0  0  0  0  0  0  0  0  0  0
   -7.6260   22.5800  -30.8070 C   0  0  0  0  0  0  0  0  0  0  0  0
   -8.5250   21.5430  -30.9270 C   0  0  0  0  0  0  0  0  0  0  0  0
   -8.2020   20.8850  -32.0940 C   0  0  0  0  0  0  0  0  0  0  0  0
   -7.1720   21.4730  -32.6590 O   0  0  0  0  0  0  0  0  0  0  0  0
   -3.7940   21.6490  -32.3110 C   0  0  0  0  0  0  0  0  0  0  0  0
   -4.3660   20.7940  -33.4030 C   0  0  0  0  0  0  0  0  0  0  0  0
   -1.2633   19.9613  -30.9186 H   0  0  0  0  0  0  0  0  0  0  0  0
   -2.0978   19.5467  -32.4543 H   0  0  0  0  0  0  0  0  0  0  0  0
   -0.7595   20.7450  -32.4543 H   0  0  0  0  0  0  0  0  0  0  0  0
   -3.5607   22.3775  -27.8379 H   0  0  0  0  0  0  0  0  0  0  0  0
   -1.2350   21.3400  -25.2850 H   0  0  0  0  0  0  0  0  0  0  0  0
   -0.6960   17.2512  -26.7074 H   0  0  0  0  0  0  0  0  0  0  0  0
    1.3034   16.3020  -27.8562 H   0  0  0  0  0  0  0  0  0  0  0  0
    2.5212   17.6563  -29.5681 H   0  0  0  0  0  0  0  0  0  0  0  0
    1.7092   19.9420  -30.1619 H   0  0  0  0  0  0  0  0  0  0  0  0
   -0.2926   20.8950  -29.0151 H   0  0  0  0  0  0  0  0  0  0  0  0
    0.4216   23.0838  -26.2929 H   0  0  0  0  0  0  0  0  0  0  0  0
    0.5837   25.1592  -27.6623 H   0  0  0  0  0  0  0  0  0  0  0  0
   -5.7570   24.3300  -31.6925 H   0  0  0  0  0  0  0  0  0  0  0  0
   -5.5845   23.5424  -33.3011 H   0  0  0  0  0  0  0  0  0  0  0  0
   -7.5722   23.3238  -29.9983 H   0  0  0  0  0  0  0  0  0  0  0  0
   -9.3381   21.2906  -30.2305 H   0  0  0  0  0  0  0  0  0  0  0  0
   -8.7260   20.0032  -32.4913 H   0  0  0  0  0  0  0  0  0  0  0  0
   -4.9256   19.9576  -32.9588 H   0  0  0  0  0  0  0  0  0  0  0  0
   -5.0424   21.3982  -34.0255 H   0  0  0  0  0  0  0  0  0  0  0  0
   -3.5494   20.3993  -34.0255 H   0  0  0  0  0  0  0  0  0  0  0  0
  1  2  1  0
  2  3  1  0
  3  4  2  0
  4  5  1  0
  5  6  1  0
  6  7  2  0
  7  8  1  0
  8  9  1  0
  9 10  1  0
 10 11  2  0
 10 12  2  0
 10 13  1  0
 13 14  2  0
 14 15  1  0
 15 16  2  0
 16 17  1  0
 17 18  2  0
  8 19  2  0
 19 20  1  0
 20 21  2  0
 21 22  1  0
  4 23  1  0
 23 24  1  0
 24 25  1  0
 25 26  2  0
 26 27  1  0
 27 28  2  0
 28 29  1  0
 23 30  1  0
 30 31  1  0
 30  2  2  0
 21  6  1  0
 29 25  1  0
 18 13  1  0
  1 32  1  0
  1 33  1  0
  1 34  1  0
  7 35  1  0
  9 36  1  0
 14 37  1  0
 15 38  1  0
 16 39  1  0
 17 40  1  0
 18 41  1  0
 19 42  1  0
 20 43  1  0
 24 44  1  0
 24 45  1  0
 26 46  1  0
 27 47  1  0
 28 48  1  0
 31 49  1  0
 31 50  1  0
 31 51  1  0
M  CHG  1  22  -1
M  END
>  <UniqueID>  (36) 
35

>  <SMILES>  (36) 
Cc1nc(Sc2cc(NS(=O)(=O)c3ccccc3)ccc2[O-])n(Cc2ccco2)c1C

>  <Energy>  (36) 
107.06541877063988

>  <Genealogy>  (36) 
Cc1nc(Sc2cc(NS(=O)(=O)c3ccccc3)ccc2[O-])n(Cc2ccco2)c1C (protonated)
Cc1nc(Sc2cc(NS(=O)(=O)c3ccccc3)ccc2[O-])n(Cc2ccco2)c1C (3D coordinates assigned)
Cc1nc(Sc2cc(NS(=O)(=O)c3ccccc3)ccc2[O-])n(Cc2ccco2)c1C (optimized conformer: 107.06541877063988 kcal/mol)

>  <smiles>  (36) 
Cc1nc(Sc2cc(NS(=O)(=O)c3ccccc3)ccc2O)n(Cc2ccco2)c1C

>  <score_type>  (36) 
oracle

>  <origin>  (36) 
adgpu

>  <m_score__min__energy>  (36) 
-13.220000000000001

>  <m_primary>  (36) 
energy

$$$$
36:0
     RDKit          3D

 37 39  0  0  0  0  0  0  0  0999 V2000
   -2.8120   20.2490  -27.3130 C   0  0  0  0  0  0  0  0  0  0  0  0
   -2.0100   20.9270  -28.1410 C   0  0  0  0  0  0  0  0  0  0  0  0
   -0.6650   20.3560  -28.4950 C   0  0  0  0  0  0  0  0  0  0  0  0
   -2.4820   22.1690  -28.8040 C   0  0  0  0  0  0  0  0  0  0  0  0
   -3.6850   22.1500  -29.5290 C   0  0  0  0  0  0  0  0  0  0  0  0
   -4.1530   23.3030  -30.1820 C   0  0  0  0  0  0  0  0  0  0  0  0
   -5.4170   23.2380  -30.9500 C   0  0  0  0  0  0  0  0  0  0  0  0
   -5.6940   24.1630  -31.7580 O   0  0  0  0  0  0  0  0  0  0  0  0
   -6.3260   22.1350  -30.8300 N   0  0  0  0  0  0  0  0  0  0  0  0
   -6.3720   20.9790  -31.6790 C   0  0  0  0  0  0  0  0  0  0  0  0
   -7.5950   20.3060  -31.9560 C   0  0  0  0  0  0  0  0  0  0  0  0
   -7.6160   19.1810  -32.8000 C   0  0  0  0  0  0  0  0  0  0  0  0
   -6.4110   18.7670  -33.3580 C   0  0  0  0  0  0  0  0  0  0  0  0
   -6.2030   17.7380  -34.1930 N   0  0  0  0  0  0  0  0  0  0  0  0
   -4.8640   17.8090  -34.4150 C   0  0  0  0  0  0  0  0  0  0  0  0
   -4.1530   16.8820  -35.3410 C   0  0  0  0  0  0  0  0  0  0  0  0
   -4.2370   18.8350  -33.7820 N   0  0  0  0  0  0  0  0  0  0  0  0
   -5.2440   19.4200  -33.1150 C   0  0  0  0  0  0  0  0  0  0  0  0
   -5.1800   20.5370  -32.2860 C   0  0  0  0  0  0  0  0  0  0  0  0
   -3.4180   24.4990  -30.0750 C   0  0  0  0  0  0  0  0  0  0  0  0
   -3.8880   25.6750  -30.6530 O   0  0  0  0  0  0  0  0  0  0  0  0
   -2.2130   24.5220  -29.3660 C   0  0  0  0  0  0  0  0  0  0  0  0
   -1.4810   25.7020  -29.2840 O   0  0  0  0  0  0  0  0  0  0  0  0
   -1.7380   23.3630  -28.7400 C   0  0  0  0  0  0  0  0  0  0  0  0
   -0.5170   23.4040  -28.0740 O   0  0  0  0  0  0  0  0  0  0  0  0
   -3.7984   20.6564  -27.0465 H   0  0  0  0  0  0  0  0  0  0  0  0
   -2.4853   19.2839  -26.8984 H   0  0  0  0  0  0  0  0  0  0  0  0
   -0.1122   20.1213  -27.5734 H   0  0  0  0  0  0  0  0  0  0  0  0
   -0.8003   19.4377  -29.0853 H   0  0  0  0  0  0  0  0  0  0  0  0
   -0.0984   21.0912  -29.0853 H   0  0  0  0  0  0  0  0  0  0  0  0
   -4.2689   21.2195  -29.5864 H   0  0  0  0  0  0  0  0  0  0  0  0
   -8.5312   20.6685  -31.5065 H   0  0  0  0  0  0  0  0  0  0  0  0
   -8.5538   18.6465  -33.0117 H   0  0  0  0  0  0  0  0  0  0  0  0
   -3.5861   16.1428  -34.7560 H   0  0  0  0  0  0  0  0  0  0  0  0
   -4.8868   16.3630  -35.9751 H   0  0  0  0  0  0  0  0  0  0  0  0
   -3.4615   17.4562  -35.9751 H   0  0  0  0  0  0  0  0  0  0  0  0
   -4.2275   21.0585  -32.1104 H   0  0  0  0  0  0  0  0  0  0  0  0
  1  2  2  0
  2  3  1  0
  2  4  1  0
  4  5  2  0
  5  6  1  0
  6  7  1  0
  7  8  2  0
  7  9  1  0
  9 10  1  0
 10 11  2  0
 11 12  1  0
 12 13  2  0
 13 14  1  0
 14 15  1  0
 15 16  1  0
 15 17  2  0
 17 18  1  0
 18 19  2  0
  6 20  2  0
 20 21  1  0
 20 22  1  0
 22 23  1  0
 22 24  2  0
 24 25  1  0
 24  4  1  0
 19 10  1  0
 18 13  1  0
  1 26  1  0
  1 27  1  0
  3 28  1  0
  3 29  1  0
  3 30  1  0
  5 31  1  0
 11 32  1  0
 12 33  1  0
 16 34  1  0
 16 35  1  0
 16 36  1  0
 19 37  1  0
M  CHG  5   9  -1  14  -1  21  -1  23  -1  25  -1
M  END
>  <UniqueID>  (37) 
36

>  <SMILES>  (37) 
C=C(C)c1cc(C(=O)[N-]c2ccc3[n-]c(C)nc3c2)c([O-])c([O-])c1[O-]

>  <Energy>  (37) 
85.64799956233855

>  <Genealogy>  (37) 
C=C(C)c1cc(C(=O)[N-]c2ccc3[n-]c(C)nc3c2)c([O-])c([O-])c1[O-] (protonated)
C=C(C)c1cc(C(=O)[N-]c2ccc3[n-]c(C)nc3c2)c([O-])c([O-])c1[O-] (3D coordinates assigned)
C=C(C)c1cc(C(=O)[N-]c2ccc3[n-]c(C)nc3c2)c([O-])c([O-])c1[O-] (optimized conformer: 85.64799956233855 kcal/mol)

>  <smiles>  (37) 
C=C(C)c1cc(C(=O)Nc2ccc3[nH]c(C)nc3c2)c(O)c(O)c1O

>  <score_type>  (37) 
oracle

>  <origin>  (37) 
adgpu

>  <m_score__min__energy>  (37) 
-14.69

>  <m_primary>  (37) 
energy

$$$$
37:0
     RDKit          3D

 44 46  0  0  0  0  0  0  0  0999 V2000
   -0.1709   22.9575  -30.0388 H   0  0  0  0  0  0  0  0  0  0  0  0
   -0.6900   23.6030  -29.3150 C   0  0  0  0  0  0  0  0  0  0  0  0
    0.0160   24.5000  -28.5780 N   0  0  0  0  0  0  0  0  0  0  0  0
   -0.5900   25.3110  -27.6720 C   0  0  0  0  0  0  0  0  0  0  0  0
    0.0088   26.0251  -27.0876 H   0  0  0  0  0  0  0  0  0  0  0  0
   -1.9720   25.2400  -27.4810 C   0  0  0  0  0  0  0  0  0  0  0  0
   -2.4607   25.8826  -26.7338 H   0  0  0  0  0  0  0  0  0  0  0  0
   -2.7330   24.3450  -28.2470 C   0  0  0  0  0  0  0  0  0  0  0  0
   -4.2200   24.2310  -28.0070 C   0  0  0  0  0  0  0  0  0  0  0  0
   -4.6937   25.1938  -28.2491 H   0  0  0  0  0  0  0  0  0  0  0  0
   -4.3745   23.9662  -26.9506 H   0  0  0  0  0  0  0  0  0  0  0  0
   -4.8290   23.1850  -28.8290 N   0  0  0  0  0  0  0  0  0  0  0  0
   -5.4290   23.1890  -29.9930 C   0  0  0  0  0  0  0  0  0  0  0  0
   -5.7990   21.9320  -30.4890 C   0  0  0  0  0  0  0  0  0  0  0  0
   -5.6147   21.0337  -29.8814 H   0  0  0  0  0  0  0  0  0  0  0  0
   -6.3990   21.8030  -31.7450 C   0  0  0  0  0  0  0  0  0  0  0  0
   -6.7830   20.4660  -32.2570 C   0  0  0  0  0  0  0  0  0  0  0  0
   -8.0600   19.9820  -31.9370 C   0  0  0  0  0  0  0  0  0  0  0  0
   -8.7502   20.6099  -31.3545 H   0  0  0  0  0  0  0  0  0  0  0  0
   -8.4620   18.7160  -32.3490 C   0  0  0  0  0  0  0  0  0  0  0  0
   -9.4701   18.3529  -32.1002 H   0  0  0  0  0  0  0  0  0  0  0  0
   -7.5930   17.9070  -33.0750 C   0  0  0  0  0  0  0  0  0  0  0  0
   -7.9160   16.9024  -33.3857 H   0  0  0  0  0  0  0  0  0  0  0  0
   -6.3080   18.3600  -33.4150 C   0  0  0  0  0  0  0  0  0  0  0  0
   -5.4050   17.4460  -34.2030 C   0  0  0  0  0  0  0  0  0  0  0  0
   -4.8043   16.8379  -33.5106 H   0  0  0  0  0  0  0  0  0  0  0  0
   -6.0148   16.7853  -34.8367 H   0  0  0  0  0  0  0  0  0  0  0  0
   -4.7369   18.0477  -34.8367 H   0  0  0  0  0  0  0  0  0  0  0  0
   -5.9060   19.6710  -33.0460 C   0  0  0  0  0  0  0  0  0  0  0  0
   -4.5530   20.2030  -33.4720 C   0  0  0  0  0  0  0  0  0  0  0  0
   -3.9541   20.4385  -32.5799 H   0  0  0  0  0  0  0  0  0  0  0  0
   -4.0326   19.4426  -34.0727 H   0  0  0  0  0  0  0  0  0  0  0  0
   -4.6899   21.1143  -34.0727 H   0  0  0  0  0  0  0  0  0  0  0  0
   -6.6640   22.9150  -32.4790 N   0  0  0  0  0  0  0  0  0  0  0  0
   -7.1210   22.8240  -33.4150 H   0  0  0  0  0  0  0  0  0  0  0  0
   -6.3460   24.1570  -32.0330 C   0  0  0  0  0  0  0  0  0  0  0  0
   -6.5786   25.0318  -32.6580 H   0  0  0  0  0  0  0  0  0  0  0  0
   -5.7230   24.3450  -30.7830 C   0  0  0  0  0  0  0  0  0  0  0  0
   -5.4790   25.7680  -30.3520 C   0  0  0  0  0  0  0  0  0  0  0  0
   -5.4698   25.8219  -29.2534 H   0  0  0  0  0  0  0  0  0  0  0  0
   -4.5093   26.1087  -30.7440 H   0  0  0  0  0  0  0  0  0  0  0  0
   -6.2798   26.4123  -30.7440 H   0  0  0  0  0  0  0  0  0  0  0  0
   -2.0750   23.4990  -29.1550 C   0  0  0  0  0  0  0  0  0  0  0  0
   -2.6456   22.7597  -29.7362 H   0  0  0  0  0  0  0  0  0  0  0  0
  1  2  1  0
  2  3  2  0
  3  4  1  0
  4  5  1  0
  4  6  2  0
  6  7  1  0
  6  8  1  0
  8  9  1  0
  9 10  1  0
  9 11  1  0
  9 12  1  0
 12 13  2  0
 13 14  1  0
 14 15  1  0
 14 16  2  0
 16 17  1  0
 17 18  2  0
 18 19  1  0
 18 20  1  0
 20 21  1  0
 20 22  2  0
 22 23  1  0
 22 24  1  0
 24 25  1  0
 25 26  1  0
 25 27  1  0
 25 28  1  0
 24 29  2  0
 29 30  1  0
 30 31  1  0
 30 32  1  0
 30 33  1  0
 16 34  1  0
 34 35  1  0
 34 36  1  0
 36 37  1  0
 36 38  2  0
 38 39  1  0
 39 40  1  0
 39 41  1  0
 39 42  1  0
  8 43  2  0
 43 44  1  0
 43  2  1  0
 38 13  1  0
 29 17  1  0
M  END
>  <UniqueID>  (38) 
37

>  <SMILES>  (38) 
Cc1cccc(-c2c/c(=N/Cc3ccncc3)c(C)c[nH]2)c1C

>  <Energy>  (38) 
68.19829587781737

>  <Genealogy>  (38) 
Cc1cccc(-c2c/c(=N/Cc3ccncc3)c(C)c[nH]2)c1C (cis-trans isomerization)
Cc1cccc(-c2c/c(=N/Cc3ccncc3)c(C)c[nH]2)c1C (3D coordinates assigned)
Cc1cccc(-c2c/c(=N/Cc3ccncc3)c(C)c[nH]2)c1C (optimized conformer: 68.19829587781737 kcal/mol)

>  <smiles>  (38) 
Cc1cccc(-c2cc(=NCc3ccncc3)c(C)c[nH]2)c1C

>  <score_type>  (38) 
oracle

>  <origin>  (38) 
adgpu

>  <m_score__min__energy>  (38) 
-8.4800000000000004

>  <m_primary>  (38) 
energy

$$$$
38:0
     RDKit          3D

 44 46  0  0  0  0  0  0  0  0999 V2000
   -1.9750   25.2610  -28.6160 O   0  0  0  0  0  0  0  0  0  0  0  0
   -2.9970   24.2320  -28.2170 S   0  0  0  0  0  0  0  0  0  0  0  0
   -3.6140   24.6340  -26.9060 O   0  0  0  0  0  0  0  0  0  0  0  0
   -4.2910   24.2010  -29.4150 C   0  0  0  0  0  0  0  0  0  0  0  0
   -4.1690   23.4260  -30.5790 C   0  0  0  0  0  0  0  0  0  0  0  0
   -5.2100   23.3930  -31.5120 C   0  0  0  0  0  0  0  0  0  0  0  0
   -6.3770   24.1290  -31.2860 C   0  0  0  0  0  0  0  0  0  0  0  0
   -6.5050   24.8980  -30.1260 C   0  0  0  0  0  0  0  0  0  0  0  0
   -5.4660   24.9330  -29.1910 C   0  0  0  0  0  0  0  0  0  0  0  0
   -2.2140   22.6450  -28.0760 C   0  0  0  0  0  0  0  0  0  0  0  0
   -2.9790   21.5070  -28.3890 C   0  0  0  0  0  0  0  0  0  0  0  0
   -2.4600   20.2250  -28.2220 C   0  0  0  0  0  0  0  0  0  0  0  0
   -1.1690   20.0560  -27.7300 C   0  0  0  0  0  0  0  0  0  0  0  0
   -0.4710   18.2970  -27.4650 Br  0  0  0  0  0  0  0  0  0  0  0  0
   -0.3840   21.1710  -27.4350 C   0  0  0  0  0  0  0  0  0  0  0  0
   -0.8680   22.4750  -27.6420 C   0  0  0  0  0  0  0  0  0  0  0  0
    0.2230   23.8410  -27.2950 S   0  0  0  0  0  0  0  0  0  0  0  0
    1.4740   23.3550  -26.6160 O   0  0  0  0  0  0  0  0  0  0  0  0
    0.5940   24.4850  -28.6020 O   0  0  0  0  0  0  0  0  0  0  0  0
   -0.5250   25.0340  -26.2540 N   0  0  0  0  0  0  0  0  0  0  0  0
    0.0640   26.3620  -26.5230 C   0  0  0  0  0  0  0  0  0  0  0  0
   -0.6900   27.4720  -25.7620 C   0  0  0  0  0  0  0  0  0  0  0  0
   -1.3450   26.9640  -24.4690 C   0  0  0  0  0  0  0  0  0  0  0  0
   -0.5280   25.8300  -23.8490 C   0  0  0  0  0  0  0  0  0  0  0  0
   -0.3600   24.6460  -24.8290 C   0  0  0  0  0  0  0  0  0  0  0  0
   -3.2530   22.8437  -30.7575 H   0  0  0  0  0  0  0  0  0  0  0  0
   -5.1106   22.7873  -32.4248 H   0  0  0  0  0  0  0  0  0  0  0  0
   -7.1947   24.1028  -32.0214 H   0  0  0  0  0  0  0  0  0  0  0  0
   -7.4238   25.4761  -29.9485 H   0  0  0  0  0  0  0  0  0  0  0  0
   -5.5705   25.5364  -28.2772 H   0  0  0  0  0  0  0  0  0  0  0  0
   -4.0028   21.6312  -28.7715 H   0  0  0  0  0  0  0  0  0  0  0  0
   -3.0703   19.3466  -28.4789 H   0  0  0  0  0  0  0  0  0  0  0  0
    0.6302   21.0277  -27.0339 H   0  0  0  0  0  0  0  0  0  0  0  0
   -1.5420   25.0750  -26.4940 H   0  0  0  0  0  0  0  0  0  0  0  0
    1.1164   26.3591  -26.2030 H   0  0  0  0  0  0  0  0  0  0  0  0
   -0.0134   26.5651  -27.6013 H   0  0  0  0  0  0  0  0  0  0  0  0
    0.0228   28.2696  -25.5056 H   0  0  0  0  0  0  0  0  0  0  0  0
   -1.4922   27.8393  -26.4189 H   0  0  0  0  0  0  0  0  0  0  0  0
   -1.4121   27.7937  -23.7499 H   0  0  0  0  0  0  0  0  0  0  0  0
   -2.3475   26.5815  -24.7112 H   0  0  0  0  0  0  0  0  0  0  0  0
    0.4670   26.2135  -23.5790 H   0  0  0  0  0  0  0  0  0  0  0  0
   -1.0643   25.4666  -22.9600 H   0  0  0  0  0  0  0  0  0  0  0  0
    0.6469   24.2235  -24.6966 H   0  0  0  0  0  0  0  0  0  0  0  0
   -1.1497   23.9164  -24.5966 H   0  0  0  0  0  0  0  0  0  0  0  0
  1  2  2  0
  2  3  2  0
  2  4  1  0
  4  5  2  0
  5  6  1  0
  6  7  2  0
  7  8  1  0
  8  9  2  0
  2 10  1  0
 10 11  2  0
 11 12  1  0
 12 13  2  0
 13 14  1  0
 13 15  1  0
 15 16  2  0
 16 17  1  0
 17 18  2  0
 17 19  2  0
 17 20  1  0
 20 21  1  0
 21 22  1  0
 22 23  1  0
 23 24  1  0
 24 25  1  0
  9  4  1  0
 16 10  1  0
 25 20  1  0
  5 26  1  0
  6 27  1  0
  7 28  1  0
  8 29  1  0
  9 30  1  0
 11 31  1  0
 12 32  1  0
 15 33  1  0
 20 34  1  0
 21 35  1  0
 21 36  1  0
 22 37  1  0
 22 38  1  0
 23 39  1  0
 23 40  1  0
 24 41  1  0
 24 42  1  0
 25 43  1  0
 25 44  1  0
M  CHG  1  20   1
M  END
>  <UniqueID>  (39) 
38

>  <SMILES>  (39) 
O=S(=O)(c1ccccc1)c1ccc(Br)cc1S(=O)(=O)[NH+]1CCCCC1

>  <Energy>  (39) 
56.39318374463804

>  <Genealogy>  (39) 
O=S(=O)(c1ccccc1)c1ccc(Br)cc1S(=O)(=O)[NH+]1CCCCC1 (protonated)
O=S(=O)(c1ccccc1)c1ccc(Br)cc1S(=O)(=O)[NH+]1CCCCC1 (3D coordinates assigned)
O=S(=O)(c1ccccc1)c1ccc(Br)cc1S(=O)(=O)[NH+]1CCCCC1 (nonaromatic ring conformer: 56.39318374463804 kcal/mol)

>  <smiles>  (39) 
O=S(=O)(c1ccccc1)c1ccc(Br)cc1S(=O)(=O)N1CCCCC1

>  <score_type>  (39) 
oracle

>  <origin>  (39) 
adgpu

>  <m_score__min__energy>  (39) 
-8.8499999999999996

>  <m_primary>  (39) 
energy

$$$$
39:0
     RDKit          3D

 41 43  0  0  0  0  0  0  0  0999 V2000
   -4.7433   15.2348  -34.4180 H   0  0  0  0  0  0  0  0  0  0  0  0
   -5.2370   16.1990  -34.2270 C   0  0  0  0  0  0  0  0  0  0  0  0
   -4.7860   17.3550  -34.8700 C   0  0  0  0  0  0  0  0  0  0  0  0
   -3.9412   17.2987  -35.5723 H   0  0  0  0  0  0  0  0  0  0  0  0
   -5.4070   18.5830  -34.6220 C   0  0  0  0  0  0  0  0  0  0  0  0
   -5.0568   19.4882  -35.1397 H   0  0  0  0  0  0  0  0  0  0  0  0
   -6.4780   18.6660  -33.7130 C   0  0  0  0  0  0  0  0  0  0  0  0
   -7.1520   19.9120  -33.4630 N   0  0  0  0  0  0  0  0  0  0  0  0
   -8.0910   20.0560  -33.8980 H   0  0  0  0  0  0  0  0  0  0  0  0
   -6.6160   20.9750  -32.6570 C   0  0  0  0  0  0  0  0  0  0  0  0
   -7.4570   22.0220  -32.2470 C   0  0  0  0  0  0  0  0  0  0  0  0
   -8.5128   22.0278  -32.5557 H   0  0  0  0  0  0  0  0  0  0  0  0
   -6.9610   23.0570  -31.4490 C   0  0  0  0  0  0  0  0  0  0  0  0
   -7.6246   23.8791  -31.1427 H   0  0  0  0  0  0  0  0  0  0  0  0
   -5.6220   23.0510  -31.0380 C   0  0  0  0  0  0  0  0  0  0  0  0
   -4.9870   24.3590  -30.0450 S   0  0  0  0  0  0  0  0  0  0  0  0
   -6.1240   25.0160  -29.3160 O   0  0  0  0  0  0  0  0  0  0  0  0
   -4.2920   25.3810  -30.9010 O   0  0  0  0  0  0  0  0  0  0  0  0
   -3.8570   23.7290  -28.8920 N   0  0  0  0  0  0  0  0  0  0  0  0
   -2.6850   24.2520  -28.7120 C   0  0  0  0  0  0  0  0  0  0  0  0
   -2.2240   25.2970  -29.3610 O   0  0  0  0  0  0  0  0  0  0  0  0
   -1.0240   25.5820  -28.9470 N   0  0  0  0  0  0  0  0  0  0  0  0
   -0.4400   26.3710  -29.3060 H   0  0  0  0  0  0  0  0  0  0  0  0
   -0.6880   24.6970  -27.9880 C   0  0  0  0  0  0  0  0  0  0  0  0
    0.6200   24.6890  -27.2630 C   0  0  0  0  0  0  0  0  0  0  0  0
    0.4379   24.6901  -26.1782 H   0  0  0  0  0  0  0  0  0  0  0  0
    1.1866   23.7874  -27.5388 H   0  0  0  0  0  0  0  0  0  0  0  0
    1.1976   25.5836  -27.5388 H   0  0  0  0  0  0  0  0  0  0  0  0
   -1.7310   23.8030  -27.8210 C   0  0  0  0  0  0  0  0  0  0  0  0
   -1.8470   22.6920  -26.8260 C   0  0  0  0  0  0  0  0  0  0  0  0
   -1.8038   23.1058  -25.8077 H   0  0  0  0  0  0  0  0  0  0  0  0
   -2.8045   22.1699  -26.9693 H   0  0  0  0  0  0  0  0  0  0  0  0
   -1.0180   21.9834  -26.9693 H   0  0  0  0  0  0  0  0  0  0  0  0
   -4.7870   21.9920  -31.4170 C   0  0  0  0  0  0  0  0  0  0  0  0
   -3.7386   21.9749  -31.0845 H   0  0  0  0  0  0  0  0  0  0  0  0
   -5.2810   20.9570  -32.2160 C   0  0  0  0  0  0  0  0  0  0  0  0
   -4.6218   20.1239  -32.5013 H   0  0  0  0  0  0  0  0  0  0  0  0
   -6.9390   17.4950  -33.0910 C   0  0  0  0  0  0  0  0  0  0  0  0
   -7.7957   17.5425  -32.4027 H   0  0  0  0  0  0  0  0  0  0  0  0
   -6.3160   16.2690  -33.3410 C   0  0  0  0  0  0  0  0  0  0  0  0
   -6.6752   15.3580  -32.8399 H   0  0  0  0  0  0  0  0  0  0  0  0
  1  2  1  0
  2  3  2  0
  3  4  1  0
  3  5  1  0
  5  6  1  0
  5  7  2  0
  7  8  1  0
  8  9  1  0
  8 10  1  0
 10 11  2  0
 11 12  1  0
 11 13  1  0
 13 14  1  0
 13 15  2  0
 15 16  1  0
 16 17  2  0
 16 18  2  0
 16 19  1  0
 19 20  2  0
 20 21  1  0
 21 22  1  0
 22 23  1  0
 22 24  1  0
 24 25  1  0
 25 26  1  0
 25 27  1  0
 25 28  1  0
 24 29  2  0
 29 30  1  0
 30 31  1  0
 30 32  1  0
 30 33  1  0
 15 34  1  0
 34 35  1  0
 34 36  2  0
 36 37  1  0
  7 38  1  0
 38 39  1  0
 38 40  2  0
 40 41  1  0
 40  2  1  0
 36 10  1  0
 29 20  1  0
M  END
>  <UniqueID>  (40) 
39

>  <SMILES>  (40) 
Cc1[nH]o/c(=N\S(=O)(=O)c2ccc(Nc3ccccc3)cc2)c1C

>  <Energy>  (40) 
81.19896127682337

>  <Genealogy>  (40) 
Cc1[nH]o/c(=N\S(=O)(=O)c2ccc(Nc3ccccc3)cc2)c1C (cis-trans isomerization)
Cc1[nH]o/c(=N\S(=O)(=O)c2ccc(Nc3ccccc3)cc2)c1C (3D coordinates assigned)
Cc1[nH]o/c(=N\S(=O)(=O)c2ccc(Nc3ccccc3)cc2)c1C (optimized conformer: 81.19896127682337 kcal/mol)

>  <smiles>  (40) 
Cc1[nH]oc(=NS(=O)(=O)c2ccc(Nc3ccccc3)cc2)c1C

>  <score_type>  (40) 
oracle

>  <origin>  (40) 
adgpu

>  <m_score__min__energy>  (40) 
-10.32

>  <m_primary>  (40) 
energy

$$$$
40:0
     RDKit          3D

 33 34  0  0  0  0  0  0  0  0999 V2000
   -6.7650   19.9080  -32.9640 C   0  0  0  0  0  0  0  0  0  0  0  0
   -5.9080   21.0380  -33.0960 O   0  0  0  0  0  0  0  0  0  0  0  0
   -5.9980   22.1970  -32.3110 C   0  0  0  0  0  0  0  0  0  0  0  0
   -7.2710   22.6530  -31.9470 C   0  0  0  0  0  0  0  0  0  0  0  0
   -7.4140   23.7930  -31.1530 C   0  0  0  0  0  0  0  0  0  0  0  0
   -6.2860   24.4930  -30.7220 C   0  0  0  0  0  0  0  0  0  0  0  0
   -5.0060   24.0710  -31.0980 C   0  0  0  0  0  0  0  0  0  0  0  0
   -3.8690   24.7920  -30.6020 N   0  0  0  0  0  0  0  0  0  0  0  0
   -3.1800   24.5480  -29.3710 C   0  0  0  0  0  0  0  0  0  0  0  0
   -3.6540   23.6980  -28.5710 O   0  0  0  0  0  0  0  0  0  0  0  0
   -1.9930   25.2840  -29.0260 N   0  0  0  0  0  0  0  0  0  0  0  0
   -1.2960   25.1170  -27.7800 C   0  0  0  0  0  0  0  0  0  0  0  0
   -1.4680   26.0400  -26.7340 C   0  0  0  0  0  0  0  0  0  0  0  0
   -0.7600   25.8900  -25.5420 C   0  0  0  0  0  0  0  0  0  0  0  0
    0.1260   24.8230  -25.4040 C   0  0  0  0  0  0  0  0  0  0  0  0
    0.2950   23.9430  -26.4240 N   0  0  0  0  0  0  0  0  0  0  0  0
   -0.3810   24.0580  -27.6000 C   0  0  0  0  0  0  0  0  0  0  0  0
   -0.1500   23.0360  -28.6720 C   0  0  0  0  0  0  0  0  0  0  0  0
   -4.8620   22.9080  -31.8750 C   0  0  0  0  0  0  0  0  0  0  0  0
   -6.9275   19.6937  -31.8974 H   0  0  0  0  0  0  0  0  0  0  0  0
   -7.7303   20.1215  -33.4463 H   0  0  0  0  0  0  0  0  0  0  0  0
   -6.2990   19.0361  -33.4463 H   0  0  0  0  0  0  0  0  0  0  0  0
   -8.1643   22.1097  -32.2887 H   0  0  0  0  0  0  0  0  0  0  0  0
   -8.4178   24.1400  -30.8667 H   0  0  0  0  0  0  0  0  0  0  0  0
   -6.4039   25.3809  -30.0835 H   0  0  0  0  0  0  0  0  0  0  0  0
   -1.6070   25.9690  -29.7110 H   0  0  0  0  0  0  0  0  0  0  0  0
   -2.1634   26.8835  -26.8561 H   0  0  0  0  0  0  0  0  0  0  0  0
   -0.8994   26.6065  -24.7191 H   0  0  0  0  0  0  0  0  0  0  0  0
    0.6889   24.6937  -24.4678 H   0  0  0  0  0  0  0  0  0  0  0  0
    0.0700   22.0626  -28.2093 H   0  0  0  0  0  0  0  0  0  0  0  0
   -1.0513   22.9497  -29.2967 H   0  0  0  0  0  0  0  0  0  0  0  0
    0.7008   23.3457  -29.2967 H   0  0  0  0  0  0  0  0  0  0  0  0
   -3.8569   22.5511  -32.1441 H   0  0  0  0  0  0  0  0  0  0  0  0
  1  2  1  0
  2  3  1  0
  3  4  2  0
  4  5  1  0
  5  6  2  0
  6  7  1  0
  7  8  1  0
  8  9  1  0
  9 10  2  0
  9 11  1  0
 11 12  1  0
 12 13  2  0
 13 14  1  0
 14 15  2  0
 15 16  1  0
 16 17  2  0
 17 18  1  0
  7 19  2  0
 19  3  1  0
 17 12  1  0
  1 20  1  0
  1 21  1  0
  1 22  1  0
  4 23  1  0
  5 24  1  0
  6 25  1  0
 11 26  1  0
 13 27  1  0
 14 28  1  0
 15 29  1  0
 18 30  1  0
 18 31  1  0
 18 32  1  0
 19 33  1  0
M  CHG  1   8  -1
M  END
>  <UniqueID>  (41) 
40

>  <SMILES>  (41) 
COc1cccc([N-]C(=O)Nc2cccnc2C)c1

>  <Energy>  (41) 
40.55655299510458

>  <Genealogy>  (41) 
COc1cccc([N-]C(=O)Nc2cccnc2C)c1 (protonated)
COc1cccc([N-]C(=O)Nc2cccnc2C)c1 (3D coordinates assigned)
COc1cccc([N-]C(=O)Nc2cccnc2C)c1 (optimized conformer: 40.55655299510458 kcal/mol)

>  <smiles>  (41) 
COc1cccc(NC(=O)Nc2cccnc2C)c1

>  <score_type>  (41) 
oracle

>  <origin>  (41) 
adgpu

>  <m_score__min__energy>  (41) 
-7.8099999999999996

>  <m_primary>  (41) 
energy

$$$$
41:0
     RDKit          3D

 42 44  0  0  0  0  0  0  0  0999 V2000
   -2.7100   16.4230  -35.1420 C   0  0  0  0  0  0  0  0  0  0  0  0
   -4.1140   16.2770  -35.3340 O   0  0  0  0  0  0  0  0  0  0  0  0
   -5.0890   16.9710  -34.6020 C   0  0  0  0  0  0  0  0  0  0  0  0
   -5.8900   16.3440  -33.6270 C   0  0  0  0  0  0  0  0  0  0  0  0
   -6.8500   17.0800  -32.9240 C   0  0  0  0  0  0  0  0  0  0  0  0
   -7.0160   18.4480  -33.1800 C   0  0  0  0  0  0  0  0  0  0  0  0
   -8.2320   19.3820  -32.3150 S   0  0  0  0  0  0  0  0  0  0  0  0
   -9.3680   19.7450  -33.2320 O   0  0  0  0  0  0  0  0  0  0  0  0
   -8.7830   18.5530  -31.1890 O   0  0  0  0  0  0  0  0  0  0  0  0
   -7.4930   20.8520  -31.6950 C   0  0  0  0  0  0  0  0  0  0  0  0
   -8.3020   21.9340  -31.3250 C   0  0  0  0  0  0  0  0  0  0  0  0
   -7.7230   23.1140  -30.8490 C   0  0  0  0  0  0  0  0  0  0  0  0
   -6.3320   23.2230  -30.7240 C   0  0  0  0  0  0  0  0  0  0  0  0
   -5.7760   24.4590  -30.2550 N   0  0  0  0  0  0  0  0  0  0  0  0
   -4.3820   24.7780  -30.1370 C   0  0  0  0  0  0  0  0  0  0  0  0
   -3.8720   25.6420  -30.9000 O   0  0  0  0  0  0  0  0  0  0  0  0
   -3.5360   24.0510  -29.1530 C   0  0  0  0  0  0  0  0  0  0  0  0
   -4.0200   22.8710  -28.5540 C   0  0  0  0  0  0  0  0  0  0  0  0
   -3.2450   22.1720  -27.6240 C   0  0  0  0  0  0  0  0  0  0  0  0
   -1.9780   22.6380  -27.2770 C   0  0  0  0  0  0  0  0  0  0  0  0
   -1.4820   23.8060  -27.8580 C   0  0  0  0  0  0  0  0  0  0  0  0
   -2.2470   24.5140  -28.7910 C   0  0  0  0  0  0  0  0  0  0  0  0
   -1.7140   25.6730  -29.3470 O   0  0  0  0  0  0  0  0  0  0  0  0
   -5.5190   22.1460  -31.1230 C   0  0  0  0  0  0  0  0  0  0  0  0
   -6.0990   20.9670  -31.6020 C   0  0  0  0  0  0  0  0  0  0  0  0
   -6.2260   19.0720  -34.1540 C   0  0  0  0  0  0  0  0  0  0  0  0
   -5.2670   18.3350  -34.8580 C   0  0  0  0  0  0  0  0  0  0  0  0
   -2.4877   16.4461  -34.0650 H   0  0  0  0  0  0  0  0  0  0  0  0
   -2.1862   15.5745  -35.6064 H   0  0  0  0  0  0  0  0  0  0  0  0
   -2.3720   17.3611  -35.6064 H   0  0  0  0  0  0  0  0  0  0  0  0
   -5.7601   15.2719  -33.4178 H   0  0  0  0  0  0  0  0  0  0  0  0
   -7.4763   16.5836  -32.1682 H   0  0  0  0  0  0  0  0  0  0  0  0
   -9.3959   21.8550  -31.4092 H   0  0  0  0  0  0  0  0  0  0  0  0
   -8.3644   23.9632  -30.5706 H   0  0  0  0  0  0  0  0  0  0  0  0
   -5.0189   22.4957  -28.8212 H   0  0  0  0  0  0  0  0  0  0  0  0
   -3.6360   21.2520  -27.1649 H   0  0  0  0  0  0  0  0  0  0  0  0
   -1.3695   22.0856  -26.5458 H   0  0  0  0  0  0  0  0  0  0  0  0
   -0.4827   24.1724  -27.5804 H   0  0  0  0  0  0  0  0  0  0  0  0
   -4.4243   22.2317  -31.0580 H   0  0  0  0  0  0  0  0  0  0  0  0
   -5.4586   20.1263  -31.9071 H   0  0  0  0  0  0  0  0  0  0  0  0
   -6.3596   20.1431  -34.3659 H   0  0  0  0  0  0  0  0  0  0  0  0
   -4.6478   18.8323  -35.6191 H   0  0  0  0  0  0  0  0  0  0  0  0
  1  2  1  0
  2  3  1  0
  3  4  2  0
  4  5  1  0
  5  6  2  0
  6  7  1  0
  7  8  2  0
  7  9  2  0
  7 10  1  0
 10 11  2  0
 11 12  1  0
 12 13  2  0
 13 14  1  0
 14 15  1  0
 15 16  2  0
 15 17  1  0
 17 18  2  0
 18 19  1  0
 19 20  2  0
 20 21  1  0
 21 22  2  0
 22 23  1  0
 13 24  1  0
 24 25  2  0
  6 26  1  0
 26 27  2  0
 27  3  1  0
 25 10  1  0
 22 17  1  0
  1 28  1  0
  1 29  1  0
  1 30  1  0
  4 31  1  0
  5 32  1  0
 11 33  1  0
 12 34  1  0
 18 35  1  0
 19 36  1  0
 20 37  1  0
 21 38  1  0
 24 39  1  0
 25 40  1  0
 26 41  1  0
 27 42  1  0
M  CHG  2  14  -1  23  -1
M  END
>  <UniqueID>  (42) 
41

>  <SMILES>  (42) 
COc1ccc(S(=O)(=O)c2ccc([N-]C(=O)c3ccccc3[O-])cc2)cc1

>  <Energy>  (42) 
52.38106946818215

>  <Genealogy>  (42) 
COc1ccc(S(=O)(=O)c2ccc([N-]C(=O)c3ccccc3[O-])cc2)cc1 (protonated)
COc1ccc(S(=O)(=O)c2ccc([N-]C(=O)c3ccccc3[O-])cc2)cc1 (3D coordinates assigned)
COc1ccc(S(=O)(=O)c2ccc([N-]C(=O)c3ccccc3[O-])cc2)cc1 (optimized conformer: 52.38106946818215 kcal/mol)

>  <smiles>  (42) 
COc1ccc(S(=O)(=O)c2ccc(NC(=O)c3ccccc3O)cc2)cc1

>  <score_type>  (42) 
oracle

>  <origin>  (42) 
adgpu

>  <m_score__min__energy>  (42) 
-13.449999999999999

>  <m_primary>  (42) 
energy

$$$$
42:0
     RDKit          3D

 52 55  0  0  0  0  0  0  0  0999 V2000
   -1.2200   26.4400  -28.0910 C   0  0  0  0  0  0  0  0  0  0  0  0
   -1.6100   25.4190  -29.0510 N   0  0  0  0  0  0  0  0  0  0  0  0
   -0.8940   24.1900  -29.2100 C   0  0  0  0  0  0  0  0  0  0  0  0
    0.2160   24.0340  -28.6300 O   0  0  0  0  0  0  0  0  0  0  0  0
   -1.4490   23.1050  -30.0520 C   0  0  0  0  0  0  0  0  0  0  0  0
   -0.6090   22.1480  -30.6420 C   0  0  0  0  0  0  0  0  0  0  0  0
   -1.1450   21.1320  -31.4360 C   0  0  0  0  0  0  0  0  0  0  0  0
   -2.5320   21.0740  -31.6410 C   0  0  0  0  0  0  0  0  0  0  0  0
   -3.1580   20.0230  -32.4660 C   0  0  0  0  0  0  0  0  0  0  0  0
   -2.6840   18.7390  -32.6870 C   0  0  0  0  0  0  0  0  0  0  0  0
   -3.6060   18.1420  -33.5240 C   0  0  0  0  0  0  0  0  0  0  0  0
   -3.5830   16.7390  -33.9810 C   0  0  0  0  0  0  0  0  0  0  0  0
   -2.4840   16.2820  -34.7270 C   0  0  0  0  0  0  0  0  0  0  0  0
   -2.4150   14.9510  -35.1400 C   0  0  0  0  0  0  0  0  0  0  0  0
   -3.4450   14.0670  -34.8230 C   0  0  0  0  0  0  0  0  0  0  0  0
   -4.5550   14.5130  -34.1000 C   0  0  0  0  0  0  0  0  0  0  0  0
   -4.6400   15.8560  -33.6810 C   0  0  0  0  0  0  0  0  0  0  0  0
   -5.7610   16.3440  -32.9880 O   0  0  0  0  0  0  0  0  0  0  0  0
   -5.7790   16.6620  -31.6000 C   0  0  0  0  0  0  0  0  0  0  0  0
   -4.5960   19.0870  -33.7370 C   0  0  0  0  0  0  0  0  0  0  0  0
   -6.1130   18.8650  -34.6660 S   0  0  0  0  0  0  0  0  0  0  0  0
   -7.1050   19.6490  -33.3960 C   0  0  0  0  0  0  0  0  0  0  0  0
   -8.0940   18.9200  -32.7260 C   0  0  0  0  0  0  0  0  0  0  0  0
   -8.8760   19.5370  -31.7460 C   0  0  0  0  0  0  0  0  0  0  0  0
   -8.6810   20.8920  -31.4340 C   0  0  0  0  0  0  0  0  0  0  0  0
   -9.4920   21.5430  -30.3530 C   0  0  0  0  0  0  0  0  0  0  0  0
   -7.6710   21.6130  -32.0910 C   0  0  0  0  0  0  0  0  0  0  0  0
   -6.8890   20.9930  -33.0700 C   0  0  0  0  0  0  0  0  0  0  0  0
   -4.2960   20.1950  -33.1020 O   0  0  0  0  0  0  0  0  0  0  0  0
   -3.3290   22.0120  -31.0610 N   0  0  0  0  0  0  0  0  0  0  0  0
   -2.8300   23.0100  -30.2850 C   0  0  0  0  0  0  0  0  0  0  0  0
   -1.3659   26.0580  -27.0698 H   0  0  0  0  0  0  0  0  0  0  0  0
   -0.1606   26.6965  -28.2386 H   0  0  0  0  0  0  0  0  0  0  0  0
   -1.8386   27.3375  -28.2386 H   0  0  0  0  0  0  0  0  0  0  0  0
    0.4775   22.1985  -30.4781 H   0  0  0  0  0  0  0  0  0  0  0  0
   -0.4849   20.3827  -31.8973 H   0  0  0  0  0  0  0  0  0  0  0  0
   -1.7658   18.2898  -32.2807 H   0  0  0  0  0  0  0  0  0  0  0  0
   -1.6727   16.9778  -34.9872 H   0  0  0  0  0  0  0  0  0  0  0  0
   -1.5468   14.5989  -35.7164 H   0  0  0  0  0  0  0  0  0  0  0  0
   -3.3842   13.0162  -35.1425 H   0  0  0  0  0  0  0  0  0  0  0  0
   -5.3668   13.8118  -33.8566 H   0  0  0  0  0  0  0  0  0  0  0  0
   -5.7265   15.7347  -31.0107 H   0  0  0  0  0  0  0  0  0  0  0  0
   -4.9155   17.2992  -31.3586 H   0  0  0  0  0  0  0  0  0  0  0  0
   -6.7089   17.1977  -31.3586 H   0  0  0  0  0  0  0  0  0  0  0  0
   -8.2560   17.8600  -32.9711 H   0  0  0  0  0  0  0  0  0  0  0  0
   -9.6476   18.9587  -31.2167 H   0  0  0  0  0  0  0  0  0  0  0  0
   -9.1074   21.2343  -29.3698 H   0  0  0  0  0  0  0  0  0  0  0  0
   -9.4194   22.6365  -30.4483 H   0  0  0  0  0  0  0  0  0  0  0  0
  -10.5439   21.2356  -30.4483 H   0  0  0  0  0  0  0  0  0  0  0  0
   -7.4947   22.6681  -31.8348 H   0  0  0  0  0  0  0  0  0  0  0  0
   -6.1019   21.5628  -33.5855 H   0  0  0  0  0  0  0  0  0  0  0  0
   -3.5122   23.7475  -29.8370 H   0  0  0  0  0  0  0  0  0  0  0  0
  1  2  1  0
  2  3  1  0
  3  4  2  0
  3  5  1  0
  5  6  2  0
  6  7  1  0
  7  8  2  0
  8  9  1  0
  9 10  2  0
 10 11  1  0
 11 12  1  0
 12 13  2  0
 13 14  1  0
 14 15  2  0
 15 16  1  0
 16 17  2  0
 17 18  1  0
 18 19  1  0
 11 20  2  0
 20 21  1  0
 21 22  1  0
 22 23  2  0
 23 24  1  0
 24 25  2  0
 25 26  1  0
 25 27  1  0
 27 28  2  0
 20 29  1  0
  8 30  1  0
 30 31  2  0
 31  5  1  0
 29  9  1  0
 17 12  1  0
 28 22  1  0
  1 32  1  0
  1 33  1  0
  1 34  1  0
  6 35  1  0
  7 36  1  0
 10 37  1  0
 13 38  1  0
 14 39  1  0
 15 40  1  0
 16 41  1  0
 19 42  1  0
 19 43  1  0
 19 44  1  0
 23 45  1  0
 24 46  1  0
 26 47  1  0
 26 48  1  0
 26 49  1  0
 27 50  1  0
 28 51  1  0
 31 52  1  0
M  CHG  1   2  -1
M  END
>  <UniqueID>  (43) 
42

>  <SMILES>  (43) 
C[N-]C(=O)c1ccc(-c2cc(-c3ccccc3OC)c(Sc3ccc(C)cc3)o2)nc1

>  <Energy>  (43) 
81.00163469407136

>  <Genealogy>  (43) 
C[N-]C(=O)c1ccc(-c2cc(-c3ccccc3OC)c(Sc3ccc(C)cc3)o2)nc1 (protonated)
C[N-]C(=O)c1ccc(-c2cc(-c3ccccc3OC)c(Sc3ccc(C)cc3)o2)nc1 (3D coordinates assigned)
C[N-]C(=O)c1ccc(-c2cc(-c3ccccc3OC)c(Sc3ccc(C)cc3)o2)nc1 (optimized conformer: 81.00163469407136 kcal/mol)

>  <smiles>  (43) 
CNC(=O)c1ccc(-c2cc(-c3ccccc3OC)c(Sc3ccc(C)cc3)o2)nc1

>  <score_type>  (43) 
oracle

>  <origin>  (43) 
adgpu

>  <m_score__min__energy>  (43) 
-9.7699999999999996

>  <m_primary>  (43) 
energy

$$$$
43:0
     RDKit          3D

 31 32  0  0  0  0  0  0  0  0999 V2000
   -6.4014   16.4327  -33.0495 H   0  0  0  0  0  0  0  0  0  0  0  0
   -6.5280   17.5240  -33.1050 C   0  0  0  0  0  0  0  0  0  0  0  0
   -7.2780   18.1700  -32.1720 N   0  0  0  0  0  0  0  0  0  0  0  0
   -7.4650   19.5180  -32.1930 C   0  0  0  0  0  0  0  0  0  0  0  0
   -8.2020   20.0540  -31.2640 N   0  0  0  0  0  0  0  0  0  0  0  0
   -8.5910   21.7400  -31.0950 S   0  0  0  0  0  0  0  0  0  0  0  0
   -9.5030   21.9180  -29.9130 O   0  0  0  0  0  0  0  0  0  0  0  0
   -9.3030   22.2050  -32.3340 O   0  0  0  0  0  0  0  0  0  0  0  0
   -7.1220   22.6890  -30.8940 C   0  0  0  0  0  0  0  0  0  0  0  0
   -7.1930   24.0720  -30.6870 C   0  0  0  0  0  0  0  0  0  0  0  0
   -8.1723   24.5720  -30.6550 H   0  0  0  0  0  0  0  0  0  0  0  0
   -6.0240   24.8190  -30.5210 C   0  0  0  0  0  0  0  0  0  0  0  0
   -6.0880   25.9064  -30.3680 H   0  0  0  0  0  0  0  0  0  0  0  0
   -4.7710   24.1930  -30.5480 C   0  0  0  0  0  0  0  0  0  0  0  0
   -3.5950   25.0010  -30.3910 N   0  0  0  0  0  0  0  0  0  0  0  0
   -2.6420   24.9220  -29.3240 C   0  0  0  0  0  0  0  0  0  0  0  0
   -1.5960   25.6250  -29.3370 O   0  0  0  0  0  0  0  0  0  0  0  0
   -2.8360   23.9140  -28.2430 C   0  0  0  0  0  0  0  0  0  0  0  0
   -2.7416   24.4046  -27.2630 H   0  0  0  0  0  0  0  0  0  0  0  0
   -3.8367   23.4666  -28.3342 H   0  0  0  0  0  0  0  0  0  0  0  0
   -2.0728   23.1271  -28.3342 H   0  0  0  0  0  0  0  0  0  0  0  0
   -4.7000   22.8090  -30.7870 C   0  0  0  0  0  0  0  0  0  0  0  0
   -3.7202   22.3121  -30.8420 H   0  0  0  0  0  0  0  0  0  0  0  0
   -5.8700   22.0620  -30.9550 C   0  0  0  0  0  0  0  0  0  0  0  0
   -5.8076   20.9787  -31.1356 H   0  0  0  0  0  0  0  0  0  0  0  0
   -6.8610   20.2760  -33.2170 C   0  0  0  0  0  0  0  0  0  0  0  0
   -6.9970   21.3670  -33.2529 H   0  0  0  0  0  0  0  0  0  0  0  0
   -6.0890   19.6310  -34.1850 C   0  0  0  0  0  0  0  0  0  0  0  0
   -5.6148   20.2137  -34.9885 H   0  0  0  0  0  0  0  0  0  0  0  0
   -5.9190   18.2460  -34.1330 C   0  0  0  0  0  0  0  0  0  0  0  0
   -4.9520   17.4240  -35.3430 Cl  0  0  0  0  0  0  0  0  0  0  0  0
  1  2  1  0
  2  3  1  0
  3  4  1  0
  4  5  2  0
  5  6  1  0
  6  7  2  0
  6  8  2  0
  6  9  1  0
  9 10  2  0
 10 11  1  0
 10 12  1  0
 12 13  1  0
 12 14  2  0
 14 15  1  0
 15 16  1  0
 16 17  2  0
 16 18  1  0
 18 19  1  0
 18 20  1  0
 18 21  1  0
 14 22  1  0
 22 23  1  0
 22 24  2  0
 24 25  1  0
  4 26  1  0
 26 27  1  0
 26 28  2  0
 28 29  1  0
 28 30  1  0
 30 31  1  0
 30  2  2  0
 24  9  1  0
M  CHG  2   3  -1  15  -1
M  END
>  <UniqueID>  (44) 
43

>  <SMILES>  (44) 
CC(=O)[N-]c1ccc(S(=O)(=O)/N=c2\ccc(Cl)c[n-]2)cc1

>  <Energy>  (44) 
39.06209782632535

>  <Genealogy>  (44) 
CC(=O)[N-]c1ccc(S(=O)(=O)N=c2ccc(Cl)c[n-]2)cc1 (protonated)
CC(=O)[N-]c1ccc(S(=O)(=O)/N=c2\ccc(Cl)c[n-]2)cc1 (cis-trans isomerization)
CC(=O)[N-]c1ccc(S(=O)(=O)/N=c2\ccc(Cl)c[n-]2)cc1 (3D coordinates assigned)
CC(=O)[N-]c1ccc(S(=O)(=O)/N=c2\ccc(Cl)c[n-]2)cc1 (optimized conformer: 39.06209782632535 kcal/mol)

>  <smiles>  (44) 
CC(=O)Nc1ccc(S(=O)(=O)N=c2ccc(Cl)c[nH]2)cc1

>  <score_type>  (44) 
oracle

>  <origin>  (44) 
adgpu

>  <m_score__min__energy>  (44) 
-10.15

>  <m_primary>  (44) 
energy

$$$$
44:0
     RDKit          3D

 48 50  0  0  0  0  0  0  0  0999 V2000
   -3.6629   22.6045  -31.6209 H   0  0  0  0  0  0  0  0  0  0  0  0
   -4.6350   23.0540  -31.3700 C   0  0  0  0  0  0  0  0  0  0  0  0
   -5.8150   22.4170  -31.7580 C   0  0  0  0  0  0  0  0  0  0  0  0
   -5.7675   21.4715  -32.3181 H   0  0  0  0  0  0  0  0  0  0  0  0
   -7.0630   22.9770  -31.4370 C   0  0  0  0  0  0  0  0  0  0  0  0
   -8.3120   22.3640  -31.9460 C   0  0  0  0  0  0  0  0  0  0  0  0
   -9.2510   23.1030  -32.3450 O   0  0  0  0  0  0  0  0  0  0  0  0
   -8.5070   20.9420  -31.9340 N   0  0  0  0  0  0  0  0  0  0  0  0
   -7.7960   20.0440  -32.5670 C   0  0  0  0  0  0  0  0  0  0  0  0
   -8.0480   18.6740  -32.3310 C   0  0  0  0  0  0  0  0  0  0  0  0
   -9.0960   18.2320  -31.3430 C   0  0  0  0  0  0  0  0  0  0  0  0
   -8.7244   18.3887  -30.3196 H   0  0  0  0  0  0  0  0  0  0  0  0
  -10.0134   18.8198  -31.4940 H   0  0  0  0  0  0  0  0  0  0  0  0
   -9.3154   17.1647  -31.4940 H   0  0  0  0  0  0  0  0  0  0  0  0
   -7.2600   17.7150  -32.9860 C   0  0  0  0  0  0  0  0  0  0  0  0
   -7.4260   16.6447  -32.7939 H   0  0  0  0  0  0  0  0  0  0  0  0
   -6.2680   18.1150  -33.8790 C   0  0  0  0  0  0  0  0  0  0  0  0
   -5.6461   17.3658  -34.3908 H   0  0  0  0  0  0  0  0  0  0  0  0
   -6.0720   19.4740  -34.1170 C   0  0  0  0  0  0  0  0  0  0  0  0
   -5.3004   19.7983  -34.8308 H   0  0  0  0  0  0  0  0  0  0  0  0
   -6.8290   20.4020  -33.4720 N   0  0  0  0  0  0  0  0  0  0  0  0
   -6.6610   21.4010  -33.7230 H   0  0  0  0  0  0  0  0  0  0  0  0
   -7.1070   24.1450  -30.6600 C   0  0  0  0  0  0  0  0  0  0  0  0
   -8.0777   24.5607  -30.3518 H   0  0  0  0  0  0  0  0  0  0  0  0
   -5.9220   24.7840  -30.2750 C   0  0  0  0  0  0  0  0  0  0  0  0
   -5.9661   25.6987  -29.6657 H   0  0  0  0  0  0  0  0  0  0  0  0
   -4.6820   24.2640  -30.6620 C   0  0  0  0  0  0  0  0  0  0  0  0
   -3.4920   25.0080  -30.3710 N   0  0  0  0  0  0  0  0  0  0  0  0
   -2.4440   24.6360  -29.0410 S   0  0  0  0  0  0  0  0  0  0  0  0
   -3.2320   24.6820  -27.7620 O   0  0  0  0  0  0  0  0  0  0  0  0
   -1.3460   25.6590  -28.9660 O   0  0  0  0  0  0  0  0  0  0  0  0
   -1.7320   23.0270  -29.2880 C   0  0  0  0  0  0  0  0  0  0  0  0
   -1.6700   22.5060  -30.5920 C   0  0  0  0  0  0  0  0  0  0  0  0
   -2.1316   23.0620  -31.4213 H   0  0  0  0  0  0  0  0  0  0  0  0
   -1.0280   21.2880  -30.8490 C   0  0  0  0  0  0  0  0  0  0  0  0
   -0.9750   20.7390  -32.2440 C   0  0  0  0  0  0  0  0  0  0  0  0
   -0.8694   19.6448  -32.2037 H   0  0  0  0  0  0  0  0  0  0  0  0
   -1.9024   20.9985  -32.7756 H   0  0  0  0  0  0  0  0  0  0  0  0
   -0.1144   21.1711  -32.7756 H   0  0  0  0  0  0  0  0  0  0  0  0
   -0.4870   20.5580  -29.7870 C   0  0  0  0  0  0  0  0  0  0  0  0
   -0.0066   19.5872  -29.9790 H   0  0  0  0  0  0  0  0  0  0  0  0
   -0.5530   21.0540  -28.4850 C   0  0  0  0  0  0  0  0  0  0  0  0
   -0.1239   20.4700  -27.6574 H   0  0  0  0  0  0  0  0  0  0  0  0
   -1.1620   22.2920  -28.2200 C   0  0  0  0  0  0  0  0  0  0  0  0
   -1.2110   22.7910  -26.7980 C   0  0  0  0  0  0  0  0  0  0  0  0
   -1.1273   21.9390  -26.1073 H   0  0  0  0  0  0  0  0  0  0  0  0
   -0.3769   23.4868  -26.6246 H   0  0  0  0  0  0  0  0  0  0  0  0
   -2.1646   23.3113  -26.6246 H   0  0  0  0  0  0  0  0  0  0  0  0
  1  2  1  0
  2  3  2  0
  3  4  1  0
  3  5  1  0
  5  6  1  0
  6  7  2  0
  6  8  1  0
  8  9  2  0
  9 10  1  0
 10 11  1  0
 11 12  1  0
 11 13  1  0
 11 14  1  0
 10 15  2  0
 15 16  1  0
 15 17  1  0
 17 18  1  0
 17 19  2  0
 19 20  1  0
 19 21  1  0
 21 22  1  0
  5 23  2  0
 23 24  1  0
 23 25  1  0
 25 26  1  0
 25 27  2  0
 27 28  1  0
 28 29  1  0
 29 30  2  0
 29 31  2  0
 29 32  1  0
 32 33  2  0
 33 34  1  0
 33 35  1  0
 35 36  1  0
 36 37  1  0
 36 38  1  0
 36 39  1  0
 35 40  2  0
 40 41  1  0
 40 42  1  0
 42 43  1  0
 42 44  2  0
 44 45  1  0
 45 46  1  0
 45 47  1  0
 45 48  1  0
 27  2  1  0
 44 32  1  0
 21  9  1  0
M  CHG  1  28  -1
M  END
>  <UniqueID>  (45) 
44

>  <SMILES>  (45) 
Cc1ccc(C)c(S(=O)(=O)[N-]c2ccc(C(=O)/N=c3\[nH]cccc3C)cc2)c1

>  <Energy>  (45) 
63.217475902827566

>  <Genealogy>  (45) 
Cc1ccc(C)c(S(=O)(=O)[N-]c2ccc(C(=O)N=c3[nH]cccc3C)cc2)c1 (protonated)
Cc1ccc(C)c(S(=O)(=O)[N-]c2ccc(C(=O)/N=c3\[nH]cccc3C)cc2)c1 (cis-trans isomerization)
Cc1ccc(C)c(S(=O)(=O)[N-]c2ccc(C(=O)/N=c3\[nH]cccc3C)cc2)c1 (3D coordinates assigned)
Cc1ccc(C)c(S(=O)(=O)[N-]c2ccc(C(=O)/N=c3\[nH]cccc3C)cc2)c1 (optimized conformer: 63.217475902827566 kcal/mol)

>  <smiles>  (45) 
Cc1ccc(C)c(S(=O)(=O)Nc2ccc(C(=O)N=c3[nH]cccc3C)cc2)c1

>  <score_type>  (45) 
oracle

>  <origin>  (45) 
adgpu

>  <m_score__min__energy>  (45) 
-11.74

>  <m_primary>  (45) 
energy

$$$$
45:0
     RDKit          3D

 38 40  0  0  0  0  0  0  0  0999 V2000
   -4.2780   22.5720  -33.0910 O   0  0  0  0  0  0  0  0  0  0  0  0
   -5.0100   22.9350  -32.1310 C   0  0  0  0  0  0  0  0  0  0  0  0
   -4.5090   23.9220  -31.2170 N   0  0  0  0  0  0  0  0  0  0  0  0
   -3.4460   23.8320  -30.4670 C   0  0  0  0  0  0  0  0  0  0  0  0
   -2.6800   22.6510  -30.3690 C   0  0  0  0  0  0  0  0  0  0  0  0
   -1.5580   22.6270  -29.5390 C   0  0  0  0  0  0  0  0  0  0  0  0
   -1.2100   23.7600  -28.8040 C   0  0  0  0  0  0  0  0  0  0  0  0
    0.1920   23.7380  -27.7500 Cl  0  0  0  0  0  0  0  0  0  0  0  0
   -1.9990   24.9070  -28.9080 C   0  0  0  0  0  0  0  0  0  0  0  0
   -3.0850   24.9140  -29.7240 N   0  0  0  0  0  0  0  0  0  0  0  0
   -6.3280   22.2860  -31.9320 C   0  0  0  0  0  0  0  0  0  0  0  0
   -7.4880   23.0600  -31.7500 C   0  0  0  0  0  0  0  0  0  0  0  0
   -8.7300   22.4420  -31.5930 C   0  0  0  0  0  0  0  0  0  0  0  0
   -8.8300   21.0500  -31.6200 C   0  0  0  0  0  0  0  0  0  0  0  0
   -7.6830   20.2660  -31.7950 C   0  0  0  0  0  0  0  0  0  0  0  0
   -7.8330   18.5150  -31.8990 S   0  0  0  0  0  0  0  0  0  0  0  0
   -6.9880   17.8380  -30.8560 O   0  0  0  0  0  0  0  0  0  0  0  0
   -9.2710   18.1360  -31.6830 O   0  0  0  0  0  0  0  0  0  0  0  0
   -7.3340   17.9800  -33.4700 N   0  0  0  0  0  0  0  0  0  0  0  0
   -5.9760   17.7310  -33.8630 C   0  0  0  0  0  0  0  0  0  0  0  0
   -5.5180   16.4450  -34.2040 C   0  0  0  0  0  0  0  0  0  0  0  0
   -4.1800   16.2470  -34.5610 C   0  0  0  0  0  0  0  0  0  0  0  0
   -3.2950   17.3270  -34.5920 C   0  0  0  0  0  0  0  0  0  0  0  0
   -1.9990   17.1320  -34.9410 F   0  0  0  0  0  0  0  0  0  0  0  0
   -3.7460   18.6080  -34.2620 C   0  0  0  0  0  0  0  0  0  0  0  0
   -5.0820   18.8090  -33.9000 C   0  0  0  0  0  0  0  0  0  0  0  0
   -6.4330   20.8850  -31.9360 C   0  0  0  0  0  0  0  0  0  0  0  0
   -2.9648   21.7564  -30.9421 H   0  0  0  0  0  0  0  0  0  0  0  0
   -0.9483   21.7145  -29.4646 H   0  0  0  0  0  0  0  0  0  0  0  0
   -1.7411   25.8058  -28.3287 H   0  0  0  0  0  0  0  0  0  0  0  0
   -7.4164   24.1575  -31.7313 H   0  0  0  0  0  0  0  0  0  0  0  0
   -9.6325   23.0539  -31.4476 H   0  0  0  0  0  0  0  0  0  0  0  0
   -9.8118   20.5679  -31.5036 H   0  0  0  0  0  0  0  0  0  0  0  0
   -6.2138   15.5932  -34.1898 H   0  0  0  0  0  0  0  0  0  0  0  0
   -3.8241   15.2384  -34.8179 H   0  0  0  0  0  0  0  0  0  0  0  0
   -3.0495   19.4591  -34.2870 H   0  0  0  0  0  0  0  0  0  0  0  0
   -5.4328   19.8194  -33.6429 H   0  0  0  0  0  0  0  0  0  0  0  0
   -5.5284   20.2697  -32.0505 H   0  0  0  0  0  0  0  0  0  0  0  0
  1  2  2  0
  2  3  1  0
  3  4  2  3
  4  5  1  0
  5  6  2  0
  6  7  1  0
  7  8  1  0
  7  9  2  0
  9 10  1  0
  2 11  1  0
 11 12  2  0
 12 13  1  0
 13 14  2  0
 14 15  1  0
 15 16  1  0
 16 17  2  0
 16 18  2  0
 16 19  1  0
 19 20  1  0
 20 21  2  0
 21 22  1  0
 22 23  2  0
 23 24  1  0
 23 25  1  0
 25 26  2  0
 15 27  2  0
 10  4  1  0
 27 11  1  0
 26 20  1  0
  5 28  1  0
  6 29  1  0
  9 30  1  0
 12 31  1  0
 13 32  1  0
 14 33  1  0
 21 34  1  0
 22 35  1  0
 25 36  1  0
 26 37  1  0
 27 38  1  0
M  CHG  2  10  -1  19  -1
M  END
>  <UniqueID>  (46) 
45

>  <SMILES>  (46) 
O=C(N=c1ccc(Cl)c[n-]1)c1cccc(S(=O)(=O)[N-]c2ccc(F)cc2)c1

>  <Energy>  (46) 
54.81672221381329

>  <Genealogy>  (46) 
O=C(N=c1ccc(Cl)c[n-]1)c1cccc(S(=O)(=O)[N-]c2ccc(F)cc2)c1 (protonated)
O=C(N=c1ccc(Cl)c[n-]1)c1cccc(S(=O)(=O)[N-]c2ccc(F)cc2)c1 (3D coordinates assigned)
O=C(N=c1ccc(Cl)c[n-]1)c1cccc(S(=O)(=O)[N-]c2ccc(F)cc2)c1 (optimized conformer: 54.81672221381329 kcal/mol)

>  <smiles>  (46) 
O=C(N=c1ccc(Cl)c[nH]1)c1cccc(S(=O)(=O)Nc2ccc(F)cc2)c1

>  <score_type>  (46) 
oracle

>  <origin>  (46) 
adgpu

>  <m_score__min__energy>  (46) 
-11.07

>  <m_primary>  (46) 
energy

$$$$
46:0
     RDKit          3D

 41 43  0  0  0  0  0  0  0  0999 V2000
   -4.3460   24.5400  -28.7520 O   0  0  0  0  0  0  0  0  0  0  0  0
   -3.4220   24.5350  -29.6100 C   0  0  0  0  0  0  0  0  0  0  0  0
   -3.6520   24.0090  -30.9230 N   0  0  0  0  0  0  0  0  0  0  0  0
   -3.3480   22.6830  -31.3810 C   0  0  0  0  0  0  0  0  0  0  0  0
   -2.0610   22.1780  -31.1670 C   0  0  0  0  0  0  0  0  0  0  0  0
   -1.7210   20.8960  -31.6040 C   0  0  0  0  0  0  0  0  0  0  0  0
   -2.6610   20.1170  -32.2840 C   0  0  0  0  0  0  0  0  0  0  0  0
   -3.9380   20.6210  -32.5510 C   0  0  0  0  0  0  0  0  0  0  0  0
   -4.8500   19.8110  -33.2430 O   0  0  0  0  0  0  0  0  0  0  0  0
   -6.1660   19.5410  -32.8410 C   0  0  0  0  0  0  0  0  0  0  0  0
   -6.5850   18.2090  -32.7610 C   0  0  0  0  0  0  0  0  0  0  0  0
   -7.8850   17.9010  -32.3590 C   0  0  0  0  0  0  0  0  0  0  0  0
   -8.7870   18.9230  -32.0520 C   0  0  0  0  0  0  0  0  0  0  0  0
   -8.4020   20.2700  -32.1750 C   0  0  0  0  0  0  0  0  0  0  0  0
   -9.3600   21.3770  -31.8120 C   0  0  0  0  0  0  0  0  0  0  0  0
  -10.6170   21.1340  -32.3340 F   0  0  0  0  0  0  0  0  0  0  0  0
   -9.4530   21.4620  -30.4350 F   0  0  0  0  0  0  0  0  0  0  0  0
   -8.9120   22.5890  -32.3090 F   0  0  0  0  0  0  0  0  0  0  0  0
   -7.0830   20.5720  -32.5580 C   0  0  0  0  0  0  0  0  0  0  0  0
   -4.2850   21.9040  -32.0860 C   0  0  0  0  0  0  0  0  0  0  0  0
   -2.1230   25.0470  -29.2820 N   0  0  0  0  0  0  0  0  0  0  0  0
   -1.7140   25.4320  -27.9590 C   0  0  0  0  0  0  0  0  0  0  0  0
   -0.8030   26.4840  -27.7470 C   0  0  0  0  0  0  0  0  0  0  0  0
   -0.4410   26.8520  -26.4480 C   0  0  0  0  0  0  0  0  0  0  0  0
   -0.9920   26.1860  -25.3490 C   0  0  0  0  0  0  0  0  0  0  0  0
   -0.5370   26.6520  -23.7200 Cl  0  0  0  0  0  0  0  0  0  0  0  0
   -1.9150   25.1550  -25.5510 C   0  0  0  0  0  0  0  0  0  0  0  0
   -2.2800   24.7860  -26.8490 C   0  0  0  0  0  0  0  0  0  0  0  0
   -1.3112   22.7954  -30.6506 H   0  0  0  0  0  0  0  0  0  0  0  0
   -0.7130   20.4992  -31.4129 H   0  0  0  0  0  0  0  0  0  0  0  0
   -2.3949   19.1011  -32.6113 H   0  0  0  0  0  0  0  0  0  0  0  0
   -5.8854   17.3995  -33.0165 H   0  0  0  0  0  0  0  0  0  0  0  0
   -8.2009   16.8501  -32.2835 H   0  0  0  0  0  0  0  0  0  0  0  0
   -9.8030   18.6728  -31.7125 H   0  0  0  0  0  0  0  0  0  0  0  0
   -6.7648   21.6220  -32.6372 H   0  0  0  0  0  0  0  0  0  0  0  0
   -5.2938   22.2998  -32.2747 H   0  0  0  0  0  0  0  0  0  0  0  0
   -1.4700   25.2400  -30.0760 H   0  0  0  0  0  0  0  0  0  0  0  0
   -0.3741   27.0188  -28.6073 H   0  0  0  0  0  0  0  0  0  0  0  0
    0.2795   27.6680  -26.2899 H   0  0  0  0  0  0  0  0  0  0  0  0
   -2.3543   24.6338  -24.6876 H   0  0  0  0  0  0  0  0  0  0  0  0
   -3.0164   23.9832  -27.0016 H   0  0  0  0  0  0  0  0  0  0  0  0
  1  2  2  0
  2  3  1  0
  3  4  1  0
  4  5  2  0
  5  6  1  0
  6  7  2  0
  7  8  1  0
  8  9  1  0
  9 10  1  0
 10 11  2  0
 11 12  1  0
 12 13  2  0
 13 14  1  0
 14 15  1  0
 15 16  1  0
 15 17  1  0
 15 18  1  0
 14 19  2  0
  8 20  2  0
  2 21  1  0
 21 22  1  0
 22 23  2  0
 23 24  1  0
 24 25  2  0
 25 26  1  0
 25 27  1  0
 27 28  2  0
 20  4  1  0
 28 22  1  0
 19 10  1  0
  5 29  1  0
  6 30  1  0
  7 31  1  0
 11 32  1  0
 12 33  1  0
 13 34  1  0
 19 35  1  0
 20 36  1  0
 21 37  1  0
 23 38  1  0
 24 39  1  0
 27 40  1  0
 28 41  1  0
M  CHG  1   3  -1
M  END
>  <UniqueID>  (47) 
46

>  <SMILES>  (47) 
O=C([N-]c1cccc(Oc2cccc(C(F)(F)F)c2)c1)Nc1ccc(Cl)cc1

>  <Energy>  (47) 
57.20051744368719

>  <Genealogy>  (47) 
O=C([N-]c1cccc(Oc2cccc(C(F)(F)F)c2)c1)Nc1ccc(Cl)cc1 (protonated)
O=C([N-]c1cccc(Oc2cccc(C(F)(F)F)c2)c1)Nc1ccc(Cl)cc1 (3D coordinates assigned)
O=C([N-]c1cccc(Oc2cccc(C(F)(F)F)c2)c1)Nc1ccc(Cl)cc1 (optimized conformer: 57.20051744368719 kcal/mol)

>  <smiles>  (47) 
O=C(Nc1ccc(Cl)cc1)Nc1cccc(Oc2cccc(C(F)(F)F)c2)c1

>  <score_type>  (47) 
oracle

>  <origin>  (47) 
adgpu

>  <m_score__min__energy>  (47) 
-10.41

>  <m_primary>  (47) 
energy

$$$$
47:0
     RDKit          3D

 50 52  0  0  0  0  0  0  0  0999 V2000
   -1.1560   23.7710  -26.3480 C   0  0  0  0  0  0  0  0  0  0  0  0
   -1.6740   24.2700  -27.6580 C   0  0  0  0  0  0  0  0  0  0  0  0
   -1.2560   25.4170  -28.2280 N   0  0  0  0  0  0  0  0  0  0  0  0
   -1.9140   25.5490  -29.3420 O   0  0  0  0  0  0  0  0  0  0  0  0
   -2.7420   24.5480  -29.5360 C   0  0  0  0  0  0  0  0  0  0  0  0
   -3.5100   24.5000  -30.5870 N   0  0  0  0  0  0  0  0  0  0  0  0
   -4.6910   23.3180  -31.0580 S   0  0  0  0  0  0  0  0  0  0  0  0
   -5.6530   23.9250  -32.0400 O   0  0  0  0  0  0  0  0  0  0  0  0
   -5.4580   22.9120  -29.8320 O   0  0  0  0  0  0  0  0  0  0  0  0
   -3.9290   21.8720  -31.7080 C   0  0  0  0  0  0  0  0  0  0  0  0
   -4.3790   21.3220  -32.9140 C   0  0  0  0  0  0  0  0  0  0  0  0
   -3.7920   20.1570  -33.4160 C   0  0  0  0  0  0  0  0  0  0  0  0
   -2.7670   19.5140  -32.7110 C   0  0  0  0  0  0  0  0  0  0  0  0
   -2.2120   18.3080  -33.2570 N   0  0  0  0  0  0  0  0  0  0  0  0
   -2.8640   17.3700  -34.1240 C   0  0  0  0  0  0  0  0  0  0  0  0
   -2.6260   17.3590  -35.3630 O   0  0  0  0  0  0  0  0  0  0  0  0
   -3.8180   16.3680  -33.5420 C   0  0  0  0  0  0  0  0  0  0  0  0
   -4.9430   17.0310  -32.7290 C   0  0  0  0  0  0  0  0  0  0  0  0
   -6.2990   17.5950  -33.7600 S   0  0  0  0  0  0  0  0  0  0  0  0
   -5.7410   18.2600  -34.9890 O   0  0  0  0  0  0  0  0  0  0  0  0
   -7.1160   16.4070  -34.1890 O   0  0  0  0  0  0  0  0  0  0  0  0
   -7.3400   18.7160  -32.8860 C   0  0  0  0  0  0  0  0  0  0  0  0
   -8.2720   18.2230  -31.9610 C   0  0  0  0  0  0  0  0  0  0  0  0
   -9.0770   19.1060  -31.2370 C   0  0  0  0  0  0  0  0  0  0  0  0
   -8.9600   20.4830  -31.4360 C   0  0  0  0  0  0  0  0  0  0  0  0
   -8.0380   20.9800  -32.3620 C   0  0  0  0  0  0  0  0  0  0  0  0
   -7.2260   20.1010  -33.0830 C   0  0  0  0  0  0  0  0  0  0  0  0
   -2.2950   20.0860  -31.5170 C   0  0  0  0  0  0  0  0  0  0  0  0
   -2.8840   21.2500  -31.0120 C   0  0  0  0  0  0  0  0  0  0  0  0
   -2.6230   23.6570  -28.4660 C   0  0  0  0  0  0  0  0  0  0  0  0
   -3.3400   22.3780  -28.1470 C   0  0  0  0  0  0  0  0  0  0  0  0
   -1.6836   24.2793  -25.5275 H   0  0  0  0  0  0  0  0  0  0  0  0
   -1.3247   22.6864  -26.2762 H   0  0  0  0  0  0  0  0  0  0  0  0
   -0.0784   23.9801  -26.2762 H   0  0  0  0  0  0  0  0  0  0  0  0
   -5.1961   21.8075  -33.4677 H   0  0  0  0  0  0  0  0  0  0  0  0
   -4.1384   19.7414  -34.3737 H   0  0  0  0  0  0  0  0  0  0  0  0
   -4.2686   15.7913  -34.3632 H   0  0  0  0  0  0  0  0  0  0  0  0
   -3.2482   15.7206  -32.8592 H   0  0  0  0  0  0  0  0  0  0  0  0
   -5.3316   16.3004  -32.0043 H   0  0  0  0  0  0  0  0  0  0  0  0
   -4.5168   17.9124  -32.2275 H   0  0  0  0  0  0  0  0  0  0  0  0
   -8.3694   17.1384  -31.8052 H   0  0  0  0  0  0  0  0  0  0  0  0
   -9.8038   18.7159  -30.5093 H   0  0  0  0  0  0  0  0  0  0  0  0
   -9.5934   21.1770  -30.8640 H   0  0  0  0  0  0  0  0  0  0  0  0
   -7.9518   22.0647  -32.5231 H   0  0  0  0  0  0  0  0  0  0  0  0
   -6.4964   20.4948  -33.8059 H   0  0  0  0  0  0  0  0  0  0  0  0
   -1.4592   19.6165  -30.9776 H   0  0  0  0  0  0  0  0  0  0  0  0
   -2.5253   21.6788  -30.0646 H   0  0  0  0  0  0  0  0  0  0  0  0
   -3.4074   22.2578  -27.0557 H   0  0  0  0  0  0  0  0  0  0  0  0
   -4.3525   22.4085  -28.5757 H   0  0  0  0  0  0  0  0  0  0  0  0
   -2.7857   21.5301  -28.5757 H   0  0  0  0  0  0  0  0  0  0  0  0
  1  2  1  0
  2  3  1  0
  3  4  1  0
  4  5  1  0
  5  6  2  3
  6  7  1  0
  7  8  2  0
  7  9  2  0
  7 10  1  0
 10 11  2  0
 11 12  1  0
 12 13  2  0
 13 14  1  0
 14 15  1  0
 15 16  2  0
 15 17  1  0
 17 18  1  0
 18 19  1  0
 19 20  2  0
 19 21  2  0
 19 22  1  0
 22 23  2  0
 23 24  1  0
 24 25  2  0
 25 26  1  0
 26 27  2  0
 13 28  1  0
 28 29  2  0
  5 30  1  0
 30 31  1  0
 30  2  2  0
 29 10  1  0
 27 22  1  0
  1 32  1  0
  1 33  1  0
  1 34  1  0
 11 35  1  0
 12 36  1  0
 17 37  1  0
 17 38  1  0
 18 39  1  0
 18 40  1  0
 23 41  1  0
 24 42  1  0
 25 43  1  0
 26 44  1  0
 27 45  1  0
 28 46  1  0
 29 47  1  0
 31 48  1  0
 31 49  1  0
 31 50  1  0
M  CHG  2   3  -1  14  -1
M  END
>  <UniqueID>  (48) 
47

>  <SMILES>  (48) 
Cc1[n-]oc(=NS(=O)(=O)c2ccc([N-]C(=O)CCS(=O)(=O)c3ccccc3)cc2)c1C

>  <Energy>  (48) 
87.28177331954582

>  <Genealogy>  (48) 
Cc1[n-]oc(=NS(=O)(=O)c2ccc([N-]C(=O)CCS(=O)(=O)c3ccccc3)cc2)c1C (protonated)
Cc1[n-]oc(=NS(=O)(=O)c2ccc([N-]C(=O)CCS(=O)(=O)c3ccccc3)cc2)c1C (3D coordinates assigned)
Cc1[n-]oc(=NS(=O)(=O)c2ccc([N-]C(=O)CCS(=O)(=O)c3ccccc3)cc2)c1C (optimized conformer: 87.28177331954582 kcal/mol)

>  <smiles>  (48) 
Cc1[nH]oc(=NS(=O)(=O)c2ccc(NC(=O)CCS(=O)(=O)c3ccccc3)cc2)c1C

>  <score_type>  (48) 
oracle

>  <origin>  (48) 
adgpu

>  <m_score__min__energy>  (48) 
-11.76

>  <m_primary>  (48) 
energy

$$$$
48:0
     RDKit          3D

 59 61  0  0  0  0  0  0  0  0999 V2000
    0.0540   27.0700  -23.3440 C   0  0  0  0  0  0  0  0  0  0  0  0
   -0.8710   26.1100  -24.0900 C   0  0  0  0  0  0  0  0  0  0  0  0
   -1.1400   26.5910  -25.4540 N   0  0  0  0  0  0  0  0  0  0  0  0
   -1.2360   28.0400  -25.6960 C   0  0  0  0  0  0  0  0  0  0  0  0
   -0.0570   28.5300  -26.5320 C   0  0  0  0  0  0  0  0  0  0  0  0
   -1.2990   25.6490  -26.5400 C   0  0  0  0  0  0  0  0  0  0  0  0
   -0.2750   25.4620  -27.4820 C   0  0  0  0  0  0  0  0  0  0  0  0
   -0.4390   24.5680  -28.5410 C   0  0  0  0  0  0  0  0  0  0  0  0
   -1.6300   23.8490  -28.6890 C   0  0  0  0  0  0  0  0  0  0  0  0
   -1.7660   22.9570  -29.8060 N   0  0  0  0  0  0  0  0  0  0  0  0
   -2.8160   23.0980  -30.7750 C   0  0  0  0  0  0  0  0  0  0  0  0
   -3.4790   24.1700  -30.8240 O   0  0  0  0  0  0  0  0  0  0  0  0
   -3.1140   22.0090  -31.7380 C   0  0  0  0  0  0  0  0  0  0  0  0
   -2.1300   21.5420  -32.6280 C   0  0  0  0  0  0  0  0  0  0  0  0
   -2.4170   20.5060  -33.5210 C   0  0  0  0  0  0  0  0  0  0  0  0
   -3.6840   19.9200  -33.5320 C   0  0  0  0  0  0  0  0  0  0  0  0
   -4.6740   20.3640  -32.6440 C   0  0  0  0  0  0  0  0  0  0  0  0
   -6.2710   19.6140  -32.6450 S   0  0  0  0  0  0  0  0  0  0  0  0
   -6.6300   19.2230  -34.0520 O   0  0  0  0  0  0  0  0  0  0  0  0
   -6.2320   18.3620  -31.8120 O   0  0  0  0  0  0  0  0  0  0  0  0
   -7.4950   20.6900  -32.0160 N   0  0  0  0  0  0  0  0  0  0  0  0
   -8.8250   20.3030  -32.5070 C   0  0  0  0  0  0  0  0  0  0  0  0
   -9.8950   21.2460  -31.9190 C   0  0  0  0  0  0  0  0  0  0  0  0
   -9.3250   22.3390  -31.2210 O   0  0  0  0  0  0  0  0  0  0  0  0
   -8.3900   23.0020  -32.0480 C   0  0  0  0  0  0  0  0  0  0  0  0
   -7.2000   22.0830  -32.3900 C   0  0  0  0  0  0  0  0  0  0  0  0
   -4.3850   21.4060  -31.7520 C   0  0  0  0  0  0  0  0  0  0  0  0
   -2.6510   23.9860  -27.7190 C   0  0  0  0  0  0  0  0  0  0  0  0
   -3.9210   23.1800  -27.7880 C   0  0  0  0  0  0  0  0  0  0  0  0
   -2.4830   24.9020  -26.6690 C   0  0  0  0  0  0  0  0  0  0  0  0
   -0.0754   26.9357  -22.2599 H   0  0  0  0  0  0  0  0  0  0  0  0
    1.0985   26.8596  -23.6175 H   0  0  0  0  0  0  0  0  0  0  0  0
   -0.1950   28.1060  -23.6175 H   0  0  0  0  0  0  0  0  0  0  0  0
   -0.3938   25.1204  -24.1450 H   0  0  0  0  0  0  0  0  0  0  0  0
   -1.8248   26.0479  -23.5456 H   0  0  0  0  0  0  0  0  0  0  0  0
   -2.1721   28.2547  -26.2323 H   0  0  0  0  0  0  0  0  0  0  0  0
   -1.2213   28.5606  -24.7271 H   0  0  0  0  0  0  0  0  0  0  0  0
    0.7509   28.8658  -25.8652 H   0  0  0  0  0  0  0  0  0  0  0  0
    0.3087   27.7093  -27.1667 H   0  0  0  0  0  0  0  0  0  0  0  0
   -0.3807   29.3681  -27.1667 H   0  0  0  0  0  0  0  0  0  0  0  0
    0.6649   26.0251  -27.3845 H   0  0  0  0  0  0  0  0  0  0  0  0
    0.3760   24.4273  -29.2663 H   0  0  0  0  0  0  0  0  0  0  0  0
   -0.9540   22.3400  -30.0370 H   0  0  0  0  0  0  0  0  0  0  0  0
   -1.1278   21.9953  -32.6211 H   0  0  0  0  0  0  0  0  0  0  0  0
   -1.6425   20.1514  -34.2170 H   0  0  0  0  0  0  0  0  0  0  0  0
   -3.9063   19.1075  -34.2394 H   0  0  0  0  0  0  0  0  0  0  0  0
   -8.8426   20.3704  -33.6048 H   0  0  0  0  0  0  0  0  0  0  0  0
   -9.0406   19.2704  -32.1950 H   0  0  0  0  0  0  0  0  0  0  0  0
  -10.5133   21.6354  -32.7412 H   0  0  0  0  0  0  0  0  0  0  0  0
  -10.4963   20.6668  -31.2028 H   0  0  0  0  0  0  0  0  0  0  0  0
   -8.8879   23.3067  -32.9803 H   0  0  0  0  0  0  0  0  0  0  0  0
   -8.0081   23.8809  -31.5079 H   0  0  0  0  0  0  0  0  0  0  0  0
   -7.0041   22.1330  -33.4713 H   0  0  0  0  0  0  0  0  0  0  0  0
   -6.3179   22.4216  -31.8267 H   0  0  0  0  0  0  0  0  0  0  0  0
   -5.1607   21.7562  -31.0551 H   0  0  0  0  0  0  0  0  0  0  0  0
   -4.2704   22.9583  -26.7688 H   0  0  0  0  0  0  0  0  0  0  0  0
   -4.6915   23.7548  -28.3228 H   0  0  0  0  0  0  0  0  0  0  0  0
   -3.7289   22.2381  -28.3228 H   0  0  0  0  0  0  0  0  0  0  0  0
   -3.2910   25.0377  -25.9350 H   0  0  0  0  0  0  0  0  0  0  0  0
  1  2  1  0
  2  3  1  0
  3  4  1  0
  4  5  1  0
  3  6  1  0
  6  7  2  0
  7  8  1  0
  8  9  2  0
  9 10  1  0
 10 11  1  0
 11 12  2  0
 11 13  1  0
 13 14  2  0
 14 15  1  0
 15 16  2  0
 16 17  1  0
 17 18  1  0
 18 19  2  0
 18 20  2  0
 18 21  1  0
 21 22  1  0
 22 23  1  0
 23 24  1  0
 24 25  1  0
 25 26  1  0
 17 27  2  0
  9 28  1  0
 28 29  1  0
 28 30  2  0
 30  6  1  0
 27 13  1  0
 26 21  1  0
  1 31  1  0
  1 32  1  0
  1 33  1  0
  2 34  1  0
  2 35  1  0
  4 36  1  0
  4 37  1  0
  5 38  1  0
  5 39  1  0
  5 40  1  0
  7 41  1  0
  8 42  1  0
 10 43  1  0
 14 44  1  0
 15 45  1  0
 16 46  1  0
 22 47  1  0
 22 48  1  0
 23 49  1  0
 23 50  1  0
 25 51  1  0
 25 52  1  0
 26 53  1  0
 26 54  1  0
 27 55  1  0
 29 56  1  0
 29 57  1  0
 29 58  1  0
 30 59  1  0
M  END
>  <UniqueID>  (49) 
48

>  <SMILES>  (49) 
CCN(CC)c1ccc(NC(=O)c2cccc(S(=O)(=O)N3CCOCC3)c2)c(C)c1

>  <Energy>  (49) 
71.67125708644319

>  <Genealogy>  (49) 
CCN(CC)c1ccc(NC(=O)c2cccc(S(=O)(=O)N3CCOCC3)c2)c(C)c1 (3D coordinates assigned)
CCN(CC)c1ccc(NC(=O)c2cccc(S(=O)(=O)N3CCOCC3)c2)c(C)c1 (nonaromatic ring conformer: 71.67125708644319 kcal/mol)

>  <smiles>  (49) 
CCN(CC)c1ccc(NC(=O)c2cccc(S(=O)(=O)N3CCOCC3)c2)c(C)c1

>  <score_type>  (49) 
oracle

>  <origin>  (49) 
adgpu

>  <m_score__min__energy>  (49) 
-9.6999999999999993

>  <m_primary>  (49) 
energy

$$$$
49:0
     RDKit          3D

 40 43  0  0  0  0  0  0  0  0999 V2000
   -9.1430   18.9130  -32.3510 C   0  0  0  0  0  0  0  0  0  0  0  0
   -7.9730   19.4000  -32.9990 O   0  0  0  0  0  0  0  0  0  0  0  0
   -7.0660   20.3050  -32.4250 C   0  0  0  0  0  0  0  0  0  0  0  0
   -5.7090   20.1780  -32.7390 C   0  0  0  0  0  0  0  0  0  0  0  0
   -4.7680   21.0540  -32.1930 C   0  0  0  0  0  0  0  0  0  0  0  0
   -5.1710   22.0770  -31.3200 C   0  0  0  0  0  0  0  0  0  0  0  0
   -4.2000   22.9760  -30.7510 N   0  0  0  0  0  0  0  0  0  0  0  0
   -4.2240   24.3360  -30.7020 C   0  0  0  0  0  0  0  0  0  0  0  0
   -5.1460   25.0310  -31.2040 O   0  0  0  0  0  0  0  0  0  0  0  0
   -3.1480   24.8910  -30.0830 N   0  0  0  0  0  0  0  0  0  0  0  0
   -2.4250   23.8090  -29.7340 C   0  0  0  0  0  0  0  0  0  0  0  0
   -1.2140   23.7350  -29.0460 C   0  0  0  0  0  0  0  0  0  0  0  0
   -0.4800   24.9270  -28.5840 C   0  0  0  0  0  0  0  0  0  0  0  0
   -0.9710   26.2270  -28.8980 N   0  0  0  0  0  0  0  0  0  0  0  0
    0.5810   24.8100  -27.9120 O   0  0  0  0  0  0  0  0  0  0  0  0
   -0.7130   22.4870  -28.8010 N   0  0  0  0  0  0  0  0  0  0  0  0
   -1.3600   21.3420  -29.2020 C   0  0  0  0  0  0  0  0  0  0  0  0
   -0.7810   20.0000  -28.9170 C   0  0  0  0  0  0  0  0  0  0  0  0
   -1.0710   19.3650  -27.6910 C   0  0  0  0  0  0  0  0  0  0  0  0
   -0.5440   18.1040  -27.3970 C   0  0  0  0  0  0  0  0  0  0  0  0
    0.2780   17.4560  -28.3180 C   0  0  0  0  0  0  0  0  0  0  0  0
    0.5780   18.0670  -29.5350 C   0  0  0  0  0  0  0  0  0  0  0  0
    0.0590   19.3300  -29.8420 C   0  0  0  0  0  0  0  0  0  0  0  0
    0.3930   19.9030  -31.0640 O   0  0  0  0  0  0  0  0  0  0  0  0
   -2.5490   21.4420  -29.8740 N   0  0  0  0  0  0  0  0  0  0  0  0
   -3.0470   22.6730  -30.1350 C   0  0  0  0  0  0  0  0  0  0  0  0
   -6.5330   22.2060  -31.0030 C   0  0  0  0  0  0  0  0  0  0  0  0
   -7.4740   21.3290  -31.5490 C   0  0  0  0  0  0  0  0  0  0  0  0
   -9.0085   18.9690  -31.2607 H   0  0  0  0  0  0  0  0  0  0  0  0
  -10.0075   19.5260  -32.6458 H   0  0  0  0  0  0  0  0  0  0  0  0
   -9.3172   17.8676  -32.6458 H   0  0  0  0  0  0  0  0  0  0  0  0
   -5.3799   19.3811  -33.4221 H   0  0  0  0  0  0  0  0  0  0  0  0
   -3.7041   20.9416  -32.4487 H   0  0  0  0  0  0  0  0  0  0  0  0
   -1.9970   26.4140  -28.9550 H   0  0  0  0  0  0  0  0  0  0  0  0
   -1.7191   19.8678  -26.9581 H   0  0  0  0  0  0  0  0  0  0  0  0
   -0.7785   17.6218  -26.4365 H   0  0  0  0  0  0  0  0  0  0  0  0
    0.6898   16.4630  -28.0847 H   0  0  0  0  0  0  0  0  0  0  0  0
    1.2272   17.5527  -30.2589 H   0  0  0  0  0  0  0  0  0  0  0  0
   -6.8615   23.0032  -30.3199 H   0  0  0  0  0  0  0  0  0  0  0  0
   -8.5382   21.4391  -31.2933 H   0  0  0  0  0  0  0  0  0  0  0  0
  1  2  1  0
  2  3  1  0
  3  4  2  0
  4  5  1  0
  5  6  2  0
  6  7  1  0
  7  8  1  0
  8  9  2  0
  8 10  1  0
 10 11  1  0
 11 12  2  0
 12 13  1  0
 13 14  1  0
 13 15  2  0
 12 16  1  0
 16 17  2  0
 17 18  1  0
 18 19  2  0
 19 20  1  0
 20 21  2  0
 21 22  1  0
 22 23  2  0
 23 24  1  0
 17 25  1  0
 25 26  2  0
  6 27  1  0
 27 28  2  0
 28  3  1  0
 26  7  1  0
 26 11  1  0
 23 18  1  0
  1 29  1  0
  1 30  1  0
  1 31  1  0
  4 32  1  0
  5 33  1  0
 14 34  1  0
 19 35  1  0
 20 36  1  0
 21 37  1  0
 22 38  1  0
 27 39  1  0
 28 40  1  0
M  CHG  3  10  -1  14  -1  24  -1
M  END
>  <UniqueID>  (50) 
49

>  <SMILES>  (50) 
COc1ccc(-n2c(=O)[n-]c3c(C([NH-])=O)nc(-c4ccccc4[O-])nc32)cc1

>  <Energy>  (50) 
93.67286053778614

>  <Genealogy>  (50) 
COc1ccc(-n2c(=O)[n-]c3c(C([NH-])=O)nc(-c4ccccc4[O-])nc32)cc1 (protonated)
COc1ccc(-n2c(=O)[n-]c3c(C([NH-])=O)nc(-c4ccccc4[O-])nc32)cc1 (3D coordinates assigned)
COc1ccc(-n2c(=O)[n-]c3c(C([NH-])=O)nc(-c4ccccc4[O-])nc32)cc1 (optimized conformer: 93.67286053778614 kcal/mol)

>  <smiles>  (50) 
COc1ccc(-n2c(=O)[nH]c3c(C(N)=O)nc(-c4ccccc4O)nc32)cc1

>  <score_type>  (50) 
oracle

>  <origin>  (50) 
adgpu

>  <m_score__min__energy>  (50) 
-12.5

>  <m_primary>  (50) 
energy

$$$$
