0:0
     RDKit          3D

 52 55  0  0  0  0  0  0  0  0999 V2000
   -5.6340   24.7140  -30.9740 C   0  0  0  0  0  0  0  0  0  0  0  0
   -4.2540   24.4290  -30.4830 C   0  0  0  0  0  0  0  0  0  0  0  0
   -3.5050   25.2890  -29.7520 N   0  0  0  0  0  0  0  0  0  0  0  0
   -2.3240   24.7270  -29.5000 N   0  0  0  0  0  0  0  0  0  0  0  0
   -2.3270   23.5130  -30.0770 C   0  0  0  0  0  0  0  0  0  0  0  0
   -1.3060   22.5700  -30.0880 C   0  0  0  0  0  0  0  0  0  0  0  0
   -1.5340   21.3630  -30.7780 C   0  0  0  0  0  0  0  0  0  0  0  0
   -2.7680   21.1270  -31.4440 C   0  0  0  0  0  0  0  0  0  0  0  0
   -2.9820   19.8690  -32.1990 C   0  0  0  0  0  0  0  0  0  0  0  0
   -1.9360   18.9430  -32.3430 C   0  0  0  0  0  0  0  0  0  0  0  0
   -2.1360   17.7570  -33.0470 C   0  0  0  0  0  0  0  0  0  0  0  0
   -3.3820   17.4650  -33.6150 C   0  0  0  0  0  0  0  0  0  0  0  0
   -3.5260   16.2540  -34.3680 N   0  0  0  0  0  0  0  0  0  0  0  0
   -2.9690   16.1630  -35.7190 C   0  0  0  0  0  0  0  0  0  0  0  0
   -1.8470   15.1170  -35.7260 C   0  0  0  0  0  0  0  0  0  0  0  0
   -2.3170   13.8820  -35.2150 O   0  0  0  0  0  0  0  0  0  0  0  0
   -2.6730   14.0230  -33.8480 C   0  0  0  0  0  0  0  0  0  0  0  0
   -3.8480   14.9980  -33.6860 C   0  0  0  0  0  0  0  0  0  0  0  0
   -4.4510   18.3840  -33.4710 C   0  0  0  0  0  0  0  0  0  0  0  0
   -6.0680   18.0850  -34.1450 S   0  0  0  0  0  0  0  0  0  0  0  0
   -6.3290   16.6090  -34.2620 O   0  0  0  0  0  0  0  0  0  0  0  0
   -6.1130   18.6600  -35.5340 O   0  0  0  0  0  0  0  0  0  0  0  0
   -7.3350   18.7980  -33.1670 N   0  0  0  0  0  0  0  0  0  0  0  0
   -7.3230   18.2310  -31.8150 C   0  0  0  0  0  0  0  0  0  0  0  0
   -7.2010   20.2580  -33.1150 C   0  0  0  0  0  0  0  0  0  0  0  0
   -4.2330   19.5840  -32.7740 C   0  0  0  0  0  0  0  0  0  0  0  0
   -3.7830   22.1140  -31.4020 C   0  0  0  0  0  0  0  0  0  0  0  0
   -3.5160   23.2900  -30.7070 C   0  0  0  0  0  0  0  0  0  0  0  0
   -6.3073   24.8530  -30.1153 H   0  0  0  0  0  0  0  0  0  0  0  0
   -5.6243   25.6291  -31.5843 H   0  0  0  0  0  0  0  0  0  0  0  0
   -5.9877   23.8699  -31.5843 H   0  0  0  0  0  0  0  0  0  0  0  0
   -0.3516   22.7598  -29.5750 H   0  0  0  0  0  0  0  0  0  0  0  0
   -0.7479   20.5939  -30.8018 H   0  0  0  0  0  0  0  0  0  0  0  0
   -0.9529   19.1551  -31.8974 H   0  0  0  0  0  0  0  0  0  0  0  0
   -1.3065   17.0430  -33.1576 H   0  0  0  0  0  0  0  0  0  0  0  0
   -3.7581   15.8624  -36.4240 H   0  0  0  0  0  0  0  0  0  0  0  0
   -2.5677   17.1411  -36.0227 H   0  0  0  0  0  0  0  0  0  0  0  0
   -1.4944   14.9712  -36.7577 H   0  0  0  0  0  0  0  0  0  0  0  0
   -1.0232   15.4745  -35.0907 H   0  0  0  0  0  0  0  0  0  0  0  0
   -2.9627   13.0401  -33.4480 H   0  0  0  0  0  0  0  0  0  0  0  0
   -1.8073   14.4212  -33.2985 H   0  0  0  0  0  0  0  0  0  0  0  0
   -4.7542   14.5598  -34.1296 H   0  0  0  0  0  0  0  0  0  0  0  0
   -4.0248   15.1911  -32.6176 H   0  0  0  0  0  0  0  0  0  0  0  0
   -8.2530   18.5710  -33.6100 H   0  0  0  0  0  0  0  0  0  0  0  0
   -7.3402   19.0453  -31.0757 H   0  0  0  0  0  0  0  0  0  0  0  0
   -8.2078   17.5921  -31.6775 H   0  0  0  0  0  0  0  0  0  0  0  0
   -6.4119   17.6301  -31.6775 H   0  0  0  0  0  0  0  0  0  0  0  0
   -7.1709   20.5863  -32.0656 H   0  0  0  0  0  0  0  0  0  0  0  0
   -6.2714   20.5591  -33.6202 H   0  0  0  0  0  0  0  0  0  0  0  0
   -8.0602   20.7233  -33.6202 H   0  0  0  0  0  0  0  0  0  0  0  0
   -5.0527   20.3111  -32.6767 H   0  0  0  0  0  0  0  0  0  0  0  0
   -4.7500   21.9564  -31.9020 H   0  0  0  0  0  0  0  0  0  0  0  0
  1  2  1  0
  2  3  1  0
  3  4  1  0
  4  5  2  0
  5  6  1  0
  6  7  2  0
  7  8  1  0
  8  9  1  0
  9 10  2  0
 10 11  1  0
 11 12  2  0
 12 13  1  0
 13 14  1  0
 14 15  1  0
 15 16  1  0
 16 17  1  0
 17 18  1  0
 12 19  1  0
 19 20  1  0
 20 21  2  0
 20 22  2  0
 20 23  1  0
 23 24  1  0
 23 25  1  0
 19 26  2  0
  8 27  2  0
 27 28  1  0
 28  2  2  0
 28  5  1  0
 26  9  1  0
 18 13  1  0
  1 29  1  0
  1 30  1  0
  1 31  1  0
  6 32  1  0
  7 33  1  0
 10 34  1  0
 11 35  1  0
 14 36  1  0
 14 37  1  0
 15 38  1  0
 15 39  1  0
 17 40  1  0
 17 41  1  0
 18 42  1  0
 18 43  1  0
 23 44  1  0
 24 45  1  0
 24 46  1  0
 24 47  1  0
 25 48  1  0
 25 49  1  0
 25 50  1  0
 26 51  1  0
 27 52  1  0
M  CHG  2   3  -1  23   1
M  END
>  <UniqueID>  (1) 
1

>  <SMILES>  (1) 
Cc1[n-]nc2ccc(-c3ccc(N4CCOCC4)c(S(=O)(=O)[NH+](C)C)c3)cc12

>  <Energy>  (1) 
104.00605481052371

>  <Genealogy>  (1) 
Cc1[n-]nc2ccc(-c3ccc(N4CCOCC4)c(S(=O)(=O)[NH+](C)C)c3)cc12 (protonated)
Cc1[n-]nc2ccc(-c3ccc(N4CCOCC4)c(S(=O)(=O)[NH+](C)C)c3)cc12 (3D coordinates assigned)
Cc1[n-]nc2ccc(-c3ccc(N4CCOCC4)c(S(=O)(=O)[NH+](C)C)c3)cc12 (nonaromatic ring conformer: 104.00605481052371 kcal/mol)

>  <smiles>  (1) 
Cc1[nH]nc2ccc(-c3ccc(N4CCOCC4)c(S(=O)(=O)N(C)C)c3)cc12

>  <score_type>  (1) 
oracle

>  <origin>  (1) 
adgpu

>  <m_score__min__energy>  (1) 
-9.5

>  <m_primary>  (1) 
energy

$$$$
1:0
     RDKit          3D

 45 48  0  0  0  0  0  0  0  0999 V2000
   -3.0120   21.7630  -33.4560 O   0  0  0  0  0  0  0  0  0  0  0  0
   -3.3190   20.5610  -33.2110 C   0  0  0  0  0  0  0  0  0  0  0  0
   -4.4130   20.2720  -32.3270 N   0  0  0  0  0  0  0  0  0  0  0  0
   -5.3950   21.2530  -31.9560 C   0  0  0  0  0  0  0  0  0  0  0  0
   -4.9670   22.4710  -31.4080 C   0  0  0  0  0  0  0  0  0  0  0  0
   -5.8920   23.4500  -31.0260 C   0  0  0  0  0  0  0  0  0  0  0  0
   -5.3160   24.9760  -30.3590 S   0  0  0  0  0  0  0  0  0  0  0  0
   -5.8590   25.1990  -28.9750 O   0  0  0  0  0  0  0  0  0  0  0  0
   -5.7740   26.0970  -31.2490 O   0  0  0  0  0  0  0  0  0  0  0  0
   -3.5820   24.9700  -30.2990 N   0  0  0  0  0  0  0  0  0  0  0  0
   -2.7910   24.2910  -29.3120 C   0  0  0  0  0  0  0  0  0  0  0  0
   -3.1660   23.0390  -28.7870 C   0  0  0  0  0  0  0  0  0  0  0  0
   -2.3720   22.4130  -27.8210 C   0  0  0  0  0  0  0  0  0  0  0  0
   -1.1970   23.0250  -27.3740 C   0  0  0  0  0  0  0  0  0  0  0  0
   -0.8180   24.2680  -27.8890 C   0  0  0  0  0  0  0  0  0  0  0  0
   -1.6130   24.9030  -28.8510 C   0  0  0  0  0  0  0  0  0  0  0  0
   -1.2300   26.1450  -29.3440 O   0  0  0  0  0  0  0  0  0  0  0  0
   -7.2630   23.2090  -31.1720 C   0  0  0  0  0  0  0  0  0  0  0  0
   -7.7120   21.9850  -31.6880 C   0  0  0  0  0  0  0  0  0  0  0  0
   -9.0810   21.7090  -31.8070 C   0  0  0  0  0  0  0  0  0  0  0  0
   -9.5020   20.4710  -32.2940 C   0  0  0  0  0  0  0  0  0  0  0  0
   -8.5500   19.5170  -32.6580 C   0  0  0  0  0  0  0  0  0  0  0  0
   -7.2240   19.7970  -32.5430 N   0  0  0  0  0  0  0  0  0  0  0  0
   -6.7760   20.9980  -32.0810 C   0  0  0  0  0  0  0  0  0  0  0  0
   -2.5200   19.4670  -33.8130 C   0  0  0  0  0  0  0  0  0  0  0  0
   -3.0950   18.2030  -34.0630 C   0  0  0  0  0  0  0  0  0  0  0  0
   -2.3340   17.1810  -34.6400 C   0  0  0  0  0  0  0  0  0  0  0  0
   -0.9960   17.4050  -34.9720 C   0  0  0  0  0  0  0  0  0  0  0  0
   -0.4180   18.6550  -34.7390 C   0  0  0  0  0  0  0  0  0  0  0  0
   -1.1740   19.6830  -34.1670 C   0  0  0  0  0  0  0  0  0  0  0  0
   -4.3830   19.3820  -31.7800 H   0  0  0  0  0  0  0  0  0  0  0  0
   -3.8912   22.6594  -31.2767 H   0  0  0  0  0  0  0  0  0  0  0  0
   -4.0874   22.5515  -29.1384 H   0  0  0  0  0  0  0  0  0  0  0  0
   -2.6724   21.4371  -27.4119 H   0  0  0  0  0  0  0  0  0  0  0  0
   -0.5713   22.5287  -26.6176 H   0  0  0  0  0  0  0  0  0  0  0  0
    0.1070   24.7485  -27.5377 H   0  0  0  0  0  0  0  0  0  0  0  0
   -7.9900   23.9817  -30.8813 H   0  0  0  0  0  0  0  0  0  0  0  0
   -9.8228   22.4676  -31.5168 H   0  0  0  0  0  0  0  0  0  0  0  0
  -10.5750   20.2486  -32.3903 H   0  0  0  0  0  0  0  0  0  0  0  0
   -8.8730   18.5368  -33.0386 H   0  0  0  0  0  0  0  0  0  0  0  0
   -4.1480   18.0202  -33.8026 H   0  0  0  0  0  0  0  0  0  0  0  0
   -2.7903   16.1988  -34.8327 H   0  0  0  0  0  0  0  0  0  0  0  0
   -0.3972   16.5967  -35.4171 H   0  0  0  0  0  0  0  0  0  0  0  0
    0.6344   18.8312  -35.0061 H   0  0  0  0  0  0  0  0  0  0  0  0
   -0.7143   20.6670  -33.9924 H   0  0  0  0  0  0  0  0  0  0  0  0
  1  2  2  0
  2  3  1  0
  3  4  1  0
  4  5  2  0
  5  6  1  0
  6  7  1  0
  7  8  2  0
  7  9  2  0
  7 10  1  0
 10 11  1  0
 11 12  2  0
 12 13  1  0
 13 14  2  0
 14 15  1  0
 15 16  2  0
 16 17  1  0
  6 18  2  0
 18 19  1  0
 19 20  2  0
 20 21  1  0
 21 22  2  0
 22 23  1  0
 23 24  2  0
  2 25  1  0
 25 26  2  0
 26 27  1  0
 27 28  2  0
 28 29  1  0
 29 30  2  0
 24  4  1  0
 30 25  1  0
 16 11  1  0
 24 19  1  0
  3 31  1  0
  5 32  1  0
 12 33  1  0
 13 34  1  0
 14 35  1  0
 15 36  1  0
 18 37  1  0
 20 38  1  0
 21 39  1  0
 22 40  1  0
 26 41  1  0
 27 42  1  0
 28 43  1  0
 29 44  1  0
 30 45  1  0
M  CHG  2  10  -1  17  -1
M  END
>  <UniqueID>  (2) 
2

>  <SMILES>  (2) 
O=C(Nc1cc(S(=O)(=O)[N-]c2ccccc2[O-])cc2cccnc12)c1ccccc1

>  <Energy>  (2) 
63.85360309635334

>  <Genealogy>  (2) 
O=C(Nc1cc(S(=O)(=O)[N-]c2ccccc2[O-])cc2cccnc12)c1ccccc1 (protonated)
O=C(Nc1cc(S(=O)(=O)[N-]c2ccccc2[O-])cc2cccnc12)c1ccccc1 (3D coordinates assigned)
O=C(Nc1cc(S(=O)(=O)[N-]c2ccccc2[O-])cc2cccnc12)c1ccccc1 (optimized conformer: 63.85360309635334 kcal/mol)

>  <smiles>  (2) 
O=C(Nc1cc(S(=O)(=O)Nc2ccccc2O)cc2cccnc12)c1ccccc1

>  <score_type>  (2) 
oracle

>  <origin>  (2) 
adgpu

>  <m_score__min__energy>  (2) 
-14.880000000000001

>  <m_primary>  (2) 
energy

$$$$
2:0
     RDKit          3D

 43 45  0  0  0  0  0  0  0  0999 V2000
   -5.1730   17.7980  -35.1580 H   0  0  0  0  0  0  0  0  0  0  0  0
   -4.2060   17.9420  -35.3280 O   0  0  0  0  0  0  0  0  0  0  0  0
   -3.6990   18.5720  -34.1850 C   0  0  0  0  0  0  0  0  0  0  0  0
   -3.3483   19.5803  -34.4503 H   0  0  0  0  0  0  0  0  0  0  0  0
   -2.8628   17.9785  -33.7868 H   0  0  0  0  0  0  0  0  0  0  0  0
   -4.7930   18.6800  -33.1160 C   0  0  1  0  0  0  0  0  0  0  0  0
   -4.3348   19.2199  -32.2743 H   0  0  0  0  0  0  0  0  0  0  0  0
   -5.9010   19.3850  -33.6340 O   0  0  0  0  0  0  0  0  0  0  0  0
   -7.0750   18.7320  -33.1940 C   0  0  2  0  0  0  0  0  0  0  0  0
   -7.5782   18.2599  -34.0507 H   0  0  0  0  0  0  0  0  0  0  0  0
   -8.0220   19.6980  -32.6230 N   0  0  0  0  0  0  0  0  0  0  0  0
   -9.3550   19.7380  -32.7990 C   0  0  0  0  0  0  0  0  0  0  0  0
   -9.9524   19.0120  -33.3701 H   0  0  0  0  0  0  0  0  0  0  0  0
   -9.8430   20.8460  -32.1400 C   0  0  0  0  0  0  0  0  0  0  0  0
  -10.9017   21.1413  -32.0966 H   0  0  0  0  0  0  0  0  0  0  0  0
   -8.8260   21.5140  -31.5560 N   0  0  0  0  0  0  0  0  0  0  0  0
   -7.7340   20.7840  -31.8770 C   0  0  0  0  0  0  0  0  0  0  0  0
   -6.5240   21.1010  -31.5210 N   0  0  0  0  0  0  0  0  0  0  0  0
   -6.1810   22.2680  -30.7110 C   0  0  0  0  0  0  0  0  0  0  0  0
   -6.0250   21.9520  -29.6690 H   0  0  0  0  0  0  0  0  0  0  0  0
   -7.0048   22.9947  -30.7681 H   0  0  0  0  0  0  0  0  0  0  0  0
   -4.9020   22.9280  -31.2340 C   0  0  0  0  0  0  0  0  0  0  0  0
   -5.1200   23.9699  -31.5115 H   0  0  0  0  0  0  0  0  0  0  0  0
   -4.5464   22.3676  -32.1112 H   0  0  0  0  0  0  0  0  0  0  0  0
   -3.8260   22.9110  -30.1760 C   0  0  0  0  0  0  0  0  0  0  0  0
   -3.5360   21.7130  -29.5020 C   0  0  0  0  0  0  0  0  0  0  0  0
   -4.0768   20.7921  -29.7658 H   0  0  0  0  0  0  0  0  0  0  0  0
   -2.5640   21.6850  -28.4980 C   0  0  0  0  0  0  0  0  0  0  0  0
   -2.1720   20.0490  -27.5930 Br  0  0  0  0  0  0  0  0  0  0  0  0
   -1.8830   22.8540  -28.1510 C   0  0  0  0  0  0  0  0  0  0  0  0
   -1.1167   22.8284  -27.3622 H   0  0  0  0  0  0  0  0  0  0  0  0
   -2.1720   24.0570  -28.8030 C   0  0  0  0  0  0  0  0  0  0  0  0
   -1.2330   25.6460  -28.3000 Br  0  0  0  0  0  0  0  0  0  0  0  0
   -3.1470   24.0900  -29.8120 C   0  0  0  0  0  0  0  0  0  0  0  0
   -3.4390   25.2940  -30.4460 O   0  0  0  0  0  0  0  0  0  0  0  0
   -6.7020   17.6330  -32.1940 C   0  0  2  0  0  0  0  0  0  0  0  0
   -7.3703   16.7613  -32.2539 H   0  0  0  0  0  0  0  0  0  0  0  0
   -6.8140   18.0550  -30.8540 O   0  0  0  0  0  0  0  0  0  0  0  0
   -6.7180   19.0420  -30.8250 H   0  0  0  0  0  0  0  0  0  0  0  0
   -5.2690   17.3320  -32.5590 C   0  0  1  0  0  0  0  0  0  0  0  0
   -4.6416   16.9661  -31.7329 H   0  0  0  0  0  0  0  0  0  0  0  0
   -5.2460   16.3260  -33.5430 O   0  0  0  0  0  0  0  0  0  0  0  0
   -4.3340   16.3240  -33.9330 H   0  0  0  0  0  0  0  0  0  0  0  0
  1  2  1  0
  2  3  1  0
  3  4  1  0
  3  5  1  0
  3  6  1  0
  6  7  1  1
  6  8  1  0
  8  9  1  0
  9 10  1  6
  9 11  1  0
 11 12  1  0
 12 13  1  0
 12 14  2  0
 14 15  1  0
 14 16  1  0
 16 17  1  0
 17 18  2  0
 18 19  1  0
 19 20  1  0
 19 21  1  0
 19 22  1  0
 22 23  1  0
 22 24  1  0
 22 25  1  0
 25 26  2  0
 26 27  1  0
 26 28  1  0
 28 29  1  0
 28 30  2  0
 30 31  1  0
 30 32  1  0
 32 33  1  0
 32 34  2  0
 34 35  1  0
  9 36  1  0
 36 37  1  1
 36 38  1  0
 38 39  1  0
 36 40  1  0
 40 41  1  1
 40 42  1  0
 42 43  1  0
 40  6  1  0
 17 11  1  0
 34 25  1  0
M  CHG  2  16  -1  35  -1
M  END
>  <UniqueID>  (3) 
3

>  <SMILES>  (3) 
[O-]c1c(Br)cc(Br)cc1CC/N=c1\[n-]ccn1[C@H]1O[C@H](CO)C(O)C1O

>  <Energy>  (3) 
75.21760766575753

>  <Genealogy>  (3) 
[O-]c1c(Br)cc(Br)cc1CCN=c1[n-]ccn1C1OC(CO)C(O)C1O (protonated)
[O-]c1c(Br)cc(Br)cc1CCN=c1[n-]ccn1[C@H]1O[C@H](CO)C(O)C1O (chirality)
[O-]c1c(Br)cc(Br)cc1CC/N=c1\[n-]ccn1[C@H]1O[C@H](CO)C(O)C1O (cis-trans isomerization)
[O-]c1c(Br)cc(Br)cc1CC/N=c1\[n-]ccn1[C@H]1O[C@H](CO)C(O)C1O (3D coordinates assigned)
[O-]c1c(Br)cc(Br)cc1CC/N=c1\[n-]ccn1[C@H]1O[C@H](CO)C(O)C1O (nonaromatic ring conformer: 75.21760766575753 kcal/mol)

>  <smiles>  (3) 
OCC1OC(n2cc[nH]c2=NCCc2cc(Br)cc(Br)c2O)C(O)C1O

>  <score_type>  (3) 
oracle

>  <origin>  (3) 
adgpu

>  <m_score__min__energy>  (3) 
-10.23

>  <m_primary>  (3) 
energy

$$$$
3:0
     RDKit          3D

 57 60  0  0  0  0  0  0  0  0999 V2000
   -4.2400   23.3900  -27.7980 C   0  0  0  0  0  0  0  0  0  0  0  0
   -3.5540   22.4810  -28.7840 C   0  0  0  0  0  0  0  0  0  0  0  0
   -2.6200   21.5460  -28.3040 C   0  0  0  0  0  0  0  0  0  0  0  0
   -1.9390   20.6870  -29.1830 C   0  0  0  0  0  0  0  0  0  0  0  0
   -0.9390   19.7180  -28.6680 C   0  0  0  0  0  0  0  0  0  0  0  0
    0.3110   19.5670  -29.2850 C   0  0  0  0  0  0  0  0  0  0  0  0
    1.2110   18.6760  -28.7970 N   0  0  0  0  0  0  0  0  0  0  0  0
    0.9290   17.9070  -27.7080 C   0  0  0  0  0  0  0  0  0  0  0  0
    1.9010   16.9630  -27.2110 N   0  0  0  0  0  0  0  0  0  0  0  0
    1.4590   15.6490  -26.7220 C   0  0  0  0  0  0  0  0  0  0  0  0
    2.6120   14.6420  -26.7630 C   0  0  0  0  0  0  0  0  0  0  0  0
    3.7610   15.1670  -26.1270 O   0  0  0  0  0  0  0  0  0  0  0  0
    4.2450   16.2700  -26.8680 C   0  0  0  0  0  0  0  0  0  0  0  0
    3.2430   17.4290  -26.8350 C   0  0  0  0  0  0  0  0  0  0  0  0
   -0.2800   18.0390  -27.0970 N   0  0  0  0  0  0  0  0  0  0  0  0
   -1.2080   18.9210  -27.5470 C   0  0  0  0  0  0  0  0  0  0  0  0
   -2.2140   20.7630  -30.5570 C   0  0  0  0  0  0  0  0  0  0  0  0
   -3.1520   21.6720  -31.0420 C   0  0  0  0  0  0  0  0  0  0  0  0
   -3.8370   22.5310  -30.1700 C   0  0  0  0  0  0  0  0  0  0  0  0
   -4.9870   23.6880  -30.8580 S   0  0  0  0  0  0  0  0  0  0  0  0
   -6.1300   23.9110  -29.9080 O   0  0  0  0  0  0  0  0  0  0  0  0
   -4.3080   25.0080  -31.0910 O   0  0  0  0  0  0  0  0  0  0  0  0
   -5.6080   23.0850  -32.3570 N   0  0  0  0  0  0  0  0  0  0  0  0
   -6.2970   21.8340  -32.3830 C   0  0  0  0  0  0  0  0  0  0  0  0
   -5.8060   20.6310  -32.8460 C   0  0  0  0  0  0  0  0  0  0  0  0
   -4.4640   20.3930  -33.4570 C   0  0  0  0  0  0  0  0  0  0  0  0
   -6.7800   19.7000  -32.7740 N   0  0  0  0  0  0  0  0  0  0  0  0
   -7.8550   20.2810  -32.2600 N   0  0  0  0  0  0  0  0  0  0  0  0
   -9.1080   19.5780  -32.0120 C   0  0  0  0  0  0  0  0  0  0  0  0
   -7.5960   21.5800  -31.9940 C   0  0  0  0  0  0  0  0  0  0  0  0
   -8.5690   22.5510  -31.4020 C   0  0  0  0  0  0  0  0  0  0  0  0
   -3.9981   23.0694  -26.7739 H   0  0  0  0  0  0  0  0  0  0  0  0
   -3.8945   24.4232  -27.9500 H   0  0  0  0  0  0  0  0  0  0  0  0
   -5.3284   23.3412  -27.9500 H   0  0  0  0  0  0  0  0  0  0  0  0
   -2.4194   21.4861  -27.2241 H   0  0  0  0  0  0  0  0  0  0  0  0
    0.5631   20.1729  -30.1678 H   0  0  0  0  0  0  0  0  0  0  0  0
    1.1039   15.7498  -25.6858 H   0  0  0  0  0  0  0  0  0  0  0  0
    0.6474   15.2848  -27.3691 H   0  0  0  0  0  0  0  0  0  0  0  0
    2.3041   13.7203  -26.2476 H   0  0  0  0  0  0  0  0  0  0  0  0
    2.8572   14.4297  -27.8141 H   0  0  0  0  0  0  0  0  0  0  0  0
    5.1987   16.6053  -26.4344 H   0  0  0  0  0  0  0  0  0  0  0  0
    4.3885   15.9574  -27.9128 H   0  0  0  0  0  0  0  0  0  0  0  0
    3.2085   17.8483  -25.8186 H   0  0  0  0  0  0  0  0  0  0  0  0
    3.5657   18.1975  -27.5528 H   0  0  0  0  0  0  0  0  0  0  0  0
   -2.1748   19.0107  -27.0301 H   0  0  0  0  0  0  0  0  0  0  0  0
   -1.6847   20.0996  -31.2568 H   0  0  0  0  0  0  0  0  0  0  0  0
   -3.3578   21.7165  -32.1217 H   0  0  0  0  0  0  0  0  0  0  0  0
   -5.8300   23.7840  -33.1000 H   0  0  0  0  0  0  0  0  0  0  0  0
   -3.7168   20.2605  -32.6606 H   0  0  0  0  0  0  0  0  0  0  0  0
   -4.5003   19.4873  -34.0802 H   0  0  0  0  0  0  0  0  0  0  0  0
   -4.1866   21.2560  -34.0802 H   0  0  0  0  0  0  0  0  0  0  0  0
   -9.2693   19.4875  -30.9277 H   0  0  0  0  0  0  0  0  0  0  0  0
   -9.9395   20.1413  -32.4606 H   0  0  0  0  0  0  0  0  0  0  0  0
   -9.0606   18.5748  -32.4606 H   0  0  0  0  0  0  0  0  0  0  0  0
   -8.5170   22.4991  -30.3045 H   0  0  0  0  0  0  0  0  0  0  0  0
   -8.3181   23.5695  -31.7332 H   0  0  0  0  0  0  0  0  0  0  0  0
   -9.5870   22.2980  -31.7332 H   0  0  0  0  0  0  0  0  0  0  0  0
  1  2  1  0
  2  3  2  0
  3  4  1  0
  4  5  1  0
  5  6  2  0
  6  7  1  0
  7  8  2  0
  8  9  1  0
  9 10  1  0
 10 11  1  0
 11 12  1  0
 12 13  1  0
 13 14  1  0
  8 15  1  0
 15 16  2  0
  4 17  2  0
 17 18  1  0
 18 19  2  0
 19 20  1  0
 20 21  2  0
 20 22  2  0
 20 23  1  0
 23 24  1  0
 24 25  1  0
 25 26  1  0
 25 27  2  0
 27 28  1  0
 28 29  1  0
 28 30  1  0
 30 31  1  0
 19  2  1  0
 30 24  2  0
 16  5  1  0
 14  9  1  0
  1 32  1  0
  1 33  1  0
  1 34  1  0
  3 35  1  0
  6 36  1  0
 10 37  1  0
 10 38  1  0
 11 39  1  0
 11 40  1  0
 13 41  1  0
 13 42  1  0
 14 43  1  0
 14 44  1  0
 16 45  1  0
 17 46  1  0
 18 47  1  0
 23 48  1  0
 26 49  1  0
 26 50  1  0
 26 51  1  0
 29 52  1  0
 29 53  1  0
 29 54  1  0
 31 55  1  0
 31 56  1  0
 31 57  1  0
M  END
>  <UniqueID>  (4) 
4

>  <SMILES>  (4) 
Cc1cc(-c2cnc(N3CCOCC3)nc2)ccc1S(=O)(=O)Nc1c(C)nn(C)c1C

>  <Energy>  (4) 
104.23308444679073

>  <Genealogy>  (4) 
Cc1cc(-c2cnc(N3CCOCC3)nc2)ccc1S(=O)(=O)Nc1c(C)nn(C)c1C (3D coordinates assigned)
Cc1cc(-c2cnc(N3CCOCC3)nc2)ccc1S(=O)(=O)Nc1c(C)nn(C)c1C (nonaromatic ring conformer: 104.23308444679073 kcal/mol)

>  <smiles>  (4) 
Cc1cc(-c2cnc(N3CCOCC3)nc2)ccc1S(=O)(=O)Nc1c(C)nn(C)c1C

>  <score_type>  (4) 
oracle

>  <origin>  (4) 
adgpu

>  <m_score__min__energy>  (4) 
-9.1099999999999994

>  <m_primary>  (4) 
energy

$$$$
4:0
     RDKit          3D

 60 63  0  0  0  0  0  0  0  0999 V2000
   -4.0040   25.3350  -30.1860 O   0  0  0  0  0  0  0  0  0  0  0  0
   -3.4760   24.2240  -30.4630 C   0  0  0  0  0  0  0  0  0  0  0  0
   -3.9890   23.4280  -31.5370 N   0  0  0  0  0  0  0  0  0  0  0  0
   -5.2920   22.8290  -31.6180 C   0  0  0  0  0  0  0  0  0  0  0  0
   -6.4600   23.5480  -31.3140 C   0  0  0  0  0  0  0  0  0  0  0  0
   -7.7060   22.9150  -31.3670 C   0  0  0  0  0  0  0  0  0  0  0  0
   -7.7930   21.5640  -31.7100 C   0  0  0  0  0  0  0  0  0  0  0  0
   -6.6330   20.8350  -32.0010 C   0  0  0  0  0  0  0  0  0  0  0  0
   -6.7410   19.1300  -32.4480 S   0  0  0  0  0  0  0  0  0  0  0  0
   -8.1570   18.8120  -32.8470 O   0  0  0  0  0  0  0  0  0  0  0  0
   -6.3920   18.2820  -31.2560 O   0  0  0  0  0  0  0  0  0  0  0  0
   -5.6590   18.7410  -33.7650 N   0  0  0  0  0  0  0  0  0  0  0  0
   -4.2630   18.6810  -33.2810 C   0  0  0  0  0  0  0  0  0  0  0  0
   -3.3600   17.9380  -34.2700 C   0  0  0  0  0  0  0  0  0  0  0  0
   -3.8080   16.4740  -34.4320 C   0  0  0  0  0  0  0  0  0  0  0  0
   -5.3100   16.2760  -34.1550 C   0  0  0  0  0  0  0  0  0  0  0  0
   -6.1130   17.5370  -34.5080 C   0  0  0  0  0  0  0  0  0  0  0  0
   -5.3850   21.4700  -31.9410 C   0  0  0  0  0  0  0  0  0  0  0  0
   -2.3350   23.7170  -29.6690 C   0  0  0  0  0  0  0  0  0  0  0  0
   -2.0930   22.3310  -29.6630 C   0  0  0  0  0  0  0  0  0  0  0  0
   -1.0620   21.7850  -28.8890 C   0  0  0  0  0  0  0  0  0  0  0  0
   -0.7600   20.0490  -28.9170 S   0  0  0  0  0  0  0  0  0  0  0  0
   -1.7360   19.3550  -28.0050 O   0  0  0  0  0  0  0  0  0  0  0  0
    0.6320   19.7860  -28.4110 O   0  0  0  0  0  0  0  0  0  0  0  0
   -0.9140   19.4390  -30.5460 N   0  0  0  0  0  0  0  0  0  0  0  0
   -0.0600   18.2540  -30.7180 C   0  0  0  0  0  0  0  0  0  0  0  0
   -0.1130   17.7830  -32.1750 C   0  0  0  0  0  0  0  0  0  0  0  0
    0.3060   18.8130  -33.0510 O   0  0  0  0  0  0  0  0  0  0  0  0
   -0.5600   19.9250  -32.9290 C   0  0  0  0  0  0  0  0  0  0  0  0
   -0.5200   20.4870  -31.5010 C   0  0  0  0  0  0  0  0  0  0  0  0
   -0.2590   22.6250  -28.1140 C   0  0  0  0  0  0  0  0  0  0  0  0
   -0.4820   24.0020  -28.1130 C   0  0  0  0  0  0  0  0  0  0  0  0
   -1.4960   24.5630  -28.8990 C   0  0  0  0  0  0  0  0  0  0  0  0
   -1.6110   25.9550  -28.9180 O   0  0  0  0  0  0  0  0  0  0  0  0
   -6.3945   24.6098  -31.0340 H   0  0  0  0  0  0  0  0  0  0  0  0
   -8.6199   23.4827  -31.1379 H   0  0  0  0  0  0  0  0  0  0  0  0
   -8.7754   21.0710  -31.7517 H   0  0  0  0  0  0  0  0  0  0  0  0
   -3.8848   19.7058  -33.1514 H   0  0  0  0  0  0  0  0  0  0  0  0
   -4.2511   18.1367  -32.3252 H   0  0  0  0  0  0  0  0  0  0  0  0
   -3.4081   18.4394  -35.2479 H   0  0  0  0  0  0  0  0  0  0  0  0
   -2.3308   17.9491  -33.8820 H   0  0  0  0  0  0  0  0  0  0  0  0
   -3.5953   16.1532  -35.4625 H   0  0  0  0  0  0  0  0  0  0  0  0
   -3.2532   15.8742  -33.6955 H   0  0  0  0  0  0  0  0  0  0  0  0
   -5.6784   15.4351  -34.7610 H   0  0  0  0  0  0  0  0  0  0  0  0
   -5.4413   16.0694  -33.0826 H   0  0  0  0  0  0  0  0  0  0  0  0
   -6.0073   17.7296  -35.5858 H   0  0  0  0  0  0  0  0  0  0  0  0
   -7.1595   17.3508  -34.2250 H   0  0  0  0  0  0  0  0  0  0  0  0
   -4.4705   20.8954  -32.1496 H   0  0  0  0  0  0  0  0  0  0  0  0
   -2.7222   21.6676  -30.2745 H   0  0  0  0  0  0  0  0  0  0  0  0
    0.9769   18.5098  -30.4544 H   0  0  0  0  0  0  0  0  0  0  0  0
   -0.4211   17.4479  -30.0624 H   0  0  0  0  0  0  0  0  0  0  0  0
    0.5496   16.9135  -32.2974 H   0  0  0  0  0  0  0  0  0  0  0  0
   -1.1502   17.5111  -32.4205 H   0  0  0  0  0  0  0  0  0  0  0  0
   -0.2447   20.7078  -33.6345 H   0  0  0  0  0  0  0  0  0  0  0  0
   -1.5869   19.6011  -33.1539 H   0  0  0  0  0  0  0  0  0  0  0  0
    0.5002   20.8276  -31.2702 H   0  0  0  0  0  0  0  0  0  0  0  0
   -1.2179   21.3336  -31.4223 H   0  0  0  0  0  0  0  0  0  0  0  0
    0.5510   22.1998  -27.5032 H   0  0  0  0  0  0  0  0  0  0  0  0
    0.1456   24.6543  -27.4879 H   0  0  0  0  0  0  0  0  0  0  0  0
   -2.4950   26.4400  -28.9650 H   0  0  0  0  0  0  0  0  0  0  0  0
  1  2  2  0
  2  3  1  0
  3  4  1  0
  4  5  2  0
  5  6  1  0
  6  7  2  0
  7  8  1  0
  8  9  1  0
  9 10  2  0
  9 11  2  0
  9 12  1  0
 12 13  1  0
 13 14  1  0
 14 15  1  0
 15 16  1  0
 16 17  1  0
  8 18  2  0
  2 19  1  0
 19 20  2  0
 20 21  1  0
 21 22  1  0
 22 23  2  0
 22 24  2  0
 22 25  1  0
 25 26  1  0
 26 27  1  0
 27 28  1  0
 28 29  1  0
 29 30  1  0
 21 31  2  0
 31 32  1  0
 32 33  2  0
 33 34  1  0
 18  4  1  0
 33 19  1  0
 17 12  1  0
 30 25  1  0
  5 35  1  0
  6 36  1  0
  7 37  1  0
 13 38  1  0
 13 39  1  0
 14 40  1  0
 14 41  1  0
 15 42  1  0
 15 43  1  0
 16 44  1  0
 16 45  1  0
 17 46  1  0
 17 47  1  0
 18 48  1  0
 20 49  1  0
 26 50  1  0
 26 51  1  0
 27 52  1  0
 27 53  1  0
 29 54  1  0
 29 55  1  0
 30 56  1  0
 30 57  1  0
 31 58  1  0
 32 59  1  0
 34 60  1  0
M  CHG  1   3  -1
M  END
>  <UniqueID>  (5) 
5

>  <SMILES>  (5) 
O=C([N-]c1cccc(S(=O)(=O)N2CCCCC2)c1)c1cc(S(=O)(=O)N2CCOCC2)ccc1O

>  <Energy>  (5) 
75.71138395817329

>  <Genealogy>  (5) 
O=C([N-]c1cccc(S(=O)(=O)N2CCCCC2)c1)c1cc(S(=O)(=O)N2CCOCC2)ccc1O (protonated)
O=C([N-]c1cccc(S(=O)(=O)N2CCCCC2)c1)c1cc(S(=O)(=O)N2CCOCC2)ccc1O (3D coordinates assigned)
O=C([N-]c1cccc(S(=O)(=O)N2CCCCC2)c1)c1cc(S(=O)(=O)N2CCOCC2)ccc1O (nonaromatic ring conformer: 75.71138395817329 kcal/mol)

>  <smiles>  (5) 
O=C(Nc1cccc(S(=O)(=O)N2CCCCC2)c1)c1cc(S(=O)(=O)N2CCOCC2)ccc1O

>  <score_type>  (5) 
oracle

>  <origin>  (5) 
adgpu

>  <m_score__min__energy>  (5) 
-11.539999999999999

>  <m_primary>  (5) 
energy

$$$$
5:0
     RDKit          3D

 44 47  0  0  0  0  0  0  0  0999 V2000
   -4.0090   21.6110  -33.8370 O   0  0  0  0  0  0  0  0  0  0  0  0
   -3.1800   21.7050  -32.8930 C   0  0  0  0  0  0  0  0  0  0  0  0
   -1.8270   21.2960  -33.1240 N   0  0  0  0  0  0  0  0  0  0  0  0
   -1.0510   20.4450  -32.2670 C   0  0  0  0  0  0  0  0  0  0  0  0
   -0.0850   19.5950  -32.8480 C   0  0  0  0  0  0  0  0  0  0  0  0
    0.7220   18.7680  -32.0480 C   0  0  0  0  0  0  0  0  0  0  0  0
    0.5540   18.8150  -30.6650 C   0  0  0  0  0  0  0  0  0  0  0  0
   -0.3840   19.6570  -30.0850 C   0  0  0  0  0  0  0  0  0  0  0  0
   -1.1870   20.4950  -30.8630 C   0  0  0  0  0  0  0  0  0  0  0  0
   -0.3450   19.5240  -28.7660 C   0  0  0  0  0  0  0  0  0  0  0  0
   -1.1250   20.2770  -27.7290 C   0  0  0  0  0  0  0  0  0  0  0  0
   -1.2610   21.7120  -28.1280 C   0  0  0  0  0  0  0  0  0  0  0  0
   -0.1640   22.5160  -28.1630 N   0  0  0  0  0  0  0  0  0  0  0  0
   -0.2580   23.8130  -28.5560 C   0  0  0  0  0  0  0  0  0  0  0  0
    0.7710   24.5380  -28.5750 O   0  0  0  0  0  0  0  0  0  0  0  0
   -1.4970   24.3330  -28.9390 C   0  0  0  0  0  0  0  0  0  0  0  0
   -1.6250   25.6570  -29.3460 O   0  0  0  0  0  0  0  0  0  0  0  0
   -2.6110   23.4930  -28.9070 C   0  0  0  0  0  0  0  0  0  0  0  0
   -2.4720   22.2030  -28.5070 N   0  0  0  0  0  0  0  0  0  0  0  0
    0.7090   18.5440  -28.5560 C   0  0  0  0  0  0  0  0  0  0  0  0
    1.1140   18.1210  -27.4420 O   0  0  0  0  0  0  0  0  0  0  0  0
    1.2400   18.1240  -29.8090 N   0  0  0  0  0  0  0  0  0  0  0  0
   -3.5930   22.1860  -31.6030 N   0  0  0  0  0  0  0  0  0  0  0  0
   -4.8480   22.8420  -31.3580 C   0  0  0  0  0  0  0  0  0  0  0  0
   -4.8480   24.1420  -30.8350 C   0  0  0  0  0  0  0  0  0  0  0  0
   -6.0530   24.8030  -30.5880 C   0  0  0  0  0  0  0  0  0  0  0  0
   -6.0420   26.0720  -30.1100 F   0  0  0  0  0  0  0  0  0  0  0  0
   -7.2690   24.1620  -30.8370 C   0  0  0  0  0  0  0  0  0  0  0  0
   -7.2910   22.8390  -31.3110 C   0  0  0  0  0  0  0  0  0  0  0  0
   -8.6010   22.1540  -31.6080 C   0  0  0  0  0  0  0  0  0  0  0  0
   -9.4540   23.0060  -32.2870 F   0  0  0  0  0  0  0  0  0  0  0  0
   -9.1960   21.7750  -30.4190 F   0  0  0  0  0  0  0  0  0  0  0  0
   -8.4030   21.0290  -32.3900 F   0  0  0  0  0  0  0  0  0  0  0  0
   -6.0720   22.1900  -31.5850 C   0  0  0  0  0  0  0  0  0  0  0  0
    0.0376   19.5798  -33.9410 H   0  0  0  0  0  0  0  0  0  0  0  0
    1.4683   18.0997  -32.5023 H   0  0  0  0  0  0  0  0  0  0  0  0
   -1.9089   21.1783  -30.3919 H   0  0  0  0  0  0  0  0  0  0  0  0
   -2.1255   19.8304  -27.6312 H   0  0  0  0  0  0  0  0  0  0  0  0
   -0.5934   20.2200  -26.7677 H   0  0  0  0  0  0  0  0  0  0  0  0
   -3.5986   23.8749  -29.2049 H   0  0  0  0  0  0  0  0  0  0  0  0
   -2.8970   22.1810  -30.8240 H   0  0  0  0  0  0  0  0  0  0  0  0
   -3.8938   24.6444  -30.6179 H   0  0  0  0  0  0  0  0  0  0  0  0
   -8.2146   24.6957  -30.6611 H   0  0  0  0  0  0  0  0  0  0  0  0
   -6.0778   21.1635  -31.9803 H   0  0  0  0  0  0  0  0  0  0  0  0
  1  2  2  0
  2  3  1  0
  3  4  1  0
  4  5  1  0
  5  6  2  0
  6  7  1  0
  7  8  1  0
  8  9  1  0
  8 10  2  0
 10 11  1  0
 11 12  1  0
 12 13  2  0
 13 14  1  0
 14 15  2  0
 14 16  1  0
 16 17  1  0
 16 18  2  0
 18 19  1  0
 10 20  1  0
 20 21  2  0
 20 22  1  0
  2 23  1  0
 23 24  1  0
 24 25  2  0
 25 26  1  0
 26 27  1  0
 26 28  2  0
 28 29  1  0
 29 30  1  0
 30 31  1  0
 30 32  1  0
 30 33  1  0
 29 34  2  0
  9  4  2  0
 19 12  1  0
 34 24  1  0
 22  7  2  0
  5 35  1  0
  6 36  1  0
  9 37  1  0
 11 38  1  0
 11 39  1  0
 18 40  1  0
 23 41  1  0
 25 42  1  0
 28 43  1  0
 34 44  1  0
M  CHG  3   3  -1  17  -1  19  -1
M  END
>  <UniqueID>  (6) 
6

>  <SMILES>  (6) 
O=C([N-]c1ccc2c(c1)=C(Cc1nc(=O)c([O-])c[n-]1)C(=O)N=2)Nc1cc(F)cc(C(F)(F)F)c1

>  <Energy>  (6) 
88.58742528885934

>  <Genealogy>  (6) 
O=C([N-]c1ccc2c(c1)=C(Cc1nc(=O)c([O-])c[n-]1)C(=O)N=2)Nc1cc(F)cc(C(F)(F)F)c1 (protonated)
O=C([N-]c1ccc2c(c1)=C(Cc1nc(=O)c([O-])c[n-]1)C(=O)N=2)Nc1cc(F)cc(C(F)(F)F)c1 (3D coordinates assigned)
O=C([N-]c1ccc2c(c1)=C(Cc1nc(=O)c([O-])c[n-]1)C(=O)N=2)Nc1cc(F)cc(C(F)(F)F)c1 (nonaromatic ring conformer: 88.58742528885934 kcal/mol)

>  <smiles>  (6) 
O=C(Nc1cc(F)cc(C(F)(F)F)c1)Nc1ccc2c(c1)=C(Cc1nc(=O)c(O)c[nH]1)C(=O)N=2

>  <score_type>  (6) 
oracle

>  <origin>  (6) 
adgpu

>  <m_score__min__energy>  (6) 
-11.859999999999999

>  <m_primary>  (6) 
energy

$$$$
6:0
     RDKit          3D

 28 29  0  0  0  0  0  0  0  0999 V2000
   -0.5060   23.5060  -26.1880 C   0  0  0  0  0  0  0  0  0  0  0  0
   -1.3730   23.8610  -27.3590 C   0  0  0  0  0  0  0  0  0  0  0  0
   -2.6550   23.3200  -27.4950 C   0  0  0  0  0  0  0  0  0  0  0  0
   -3.4380   23.6840  -28.5420 N   0  0  0  0  0  0  0  0  0  0  0  0
   -3.0030   24.5840  -29.4670 C   0  0  0  0  0  0  0  0  0  0  0  0
   -3.7500   24.9200  -30.4740 N   0  0  0  0  0  0  0  0  0  0  0  0
   -5.3470   24.2930  -30.7490 S   0  0  0  0  0  0  0  0  0  0  0  0
   -6.0380   24.1350  -29.4230 O   0  0  0  0  0  0  0  0  0  0  0  0
   -6.1090   25.2790  -31.5860 O   0  0  0  0  0  0  0  0  0  0  0  0
   -5.2870   22.7410  -31.6000 C   0  0  0  0  0  0  0  0  0  0  0  0
   -4.0680   22.3000  -32.1390 C   0  0  0  0  0  0  0  0  0  0  0  0
   -3.9910   21.0790  -32.8100 C   0  0  0  0  0  0  0  0  0  0  0  0
   -5.1290   20.2870  -32.9590 C   0  0  0  0  0  0  0  0  0  0  0  0
   -6.3570   20.7150  -32.4420 C   0  0  0  0  0  0  0  0  0  0  0  0
   -7.5180   19.8780  -32.6230 C   0  0  0  0  0  0  0  0  0  0  0  0
   -8.4480   19.2060  -32.7680 N   0  0  0  0  0  0  0  0  0  0  0  0
   -6.4460   21.9490  -31.7640 C   0  0  0  0  0  0  0  0  0  0  0  0
   -8.0100   22.4930  -31.1450 Cl  0  0  0  0  0  0  0  0  0  0  0  0
   -1.7670   25.1330  -29.3420 N   0  0  0  0  0  0  0  0  0  0  0  0
   -0.9510   24.7970  -28.3090 C   0  0  0  0  0  0  0  0  0  0  0  0
   -1.0434   23.7261  -25.2538 H   0  0  0  0  0  0  0  0  0  0  0  0
   -0.2596   22.4346  -26.2256 H   0  0  0  0  0  0  0  0  0  0  0  0
    0.4210   24.0969  -26.2256 H   0  0  0  0  0  0  0  0  0  0  0  0
   -3.0291   22.5991  -26.7531 H   0  0  0  0  0  0  0  0  0  0  0  0
   -3.1669   22.9216  -32.0315 H   0  0  0  0  0  0  0  0  0  0  0  0
   -3.0294   20.7401  -33.2228 H   0  0  0  0  0  0  0  0  0  0  0  0
   -5.0613   19.3230  -33.4845 H   0  0  0  0  0  0  0  0  0  0  0  0
    0.0422   25.2613  -28.2196 H   0  0  0  0  0  0  0  0  0  0  0  0
  1  2  1  0
  2  3  1  0
  3  4  2  0
  4  5  1  0
  5  6  2  3
  6  7  1  0
  7  8  2  0
  7  9  2  0
  7 10  1  0
 10 11  2  0
 11 12  1  0
 12 13  2  0
 13 14  1  0
 14 15  1  0
 15 16  3  0
 14 17  2  0
 17 18  1  0
  5 19  1  0
 19 20  1  0
 20  2  2  0
 17 10  1  0
  1 21  1  0
  1 22  1  0
  1 23  1  0
  3 24  1  0
 11 25  1  0
 12 26  1  0
 13 27  1  0
 20 28  1  0
M  CHG  1  19  -1
M  END
>  <UniqueID>  (7) 
7

>  <SMILES>  (7) 
Cc1cnc(=NS(=O)(=O)c2cccc(C#N)c2Cl)[n-]c1

>  <Energy>  (7) 
34.52440040077662

>  <Genealogy>  (7) 
Cc1cnc(=NS(=O)(=O)c2cccc(C#N)c2Cl)[n-]c1 (protonated)
Cc1cnc(=NS(=O)(=O)c2cccc(C#N)c2Cl)[n-]c1 (3D coordinates assigned)
Cc1cnc(=NS(=O)(=O)c2cccc(C#N)c2Cl)[n-]c1 (optimized conformer: 34.52440040077662 kcal/mol)

>  <smiles>  (7) 
Cc1cnc(=NS(=O)(=O)c2cccc(C#N)c2Cl)[nH]c1

>  <score_type>  (7) 
oracle

>  <origin>  (7) 
adgpu

>  <m_score__min__energy>  (7) 
-9.3399999999999999

>  <m_primary>  (7) 
energy

$$$$
7:0
     RDKit          3D

 38 40  0  0  0  0  0  0  0  0999 V2000
   -3.8550   25.0690  -30.5350 O   0  0  0  0  0  0  0  0  0  0  0  0
   -3.9590   23.9320  -29.9980 C   0  0  0  0  0  0  0  0  0  0  0  0
   -3.1130   23.5860  -28.8890 N   0  0  0  0  0  0  0  0  0  0  0  0
   -1.8710   24.2420  -28.5970 C   0  0  0  0  0  0  0  0  0  0  0  0
   -0.6410   23.6370  -28.5030 C   0  0  0  0  0  0  0  0  0  0  0  0
    0.2870   24.5860  -28.2780 N   0  0  0  0  0  0  0  0  0  0  0  0
   -0.3130   25.7680  -28.2390 N   0  0  0  0  0  0  0  0  0  0  0  0
   -1.6330   25.5910  -28.4370 C   0  0  0  0  0  0  0  0  0  0  0  0
   -4.9890   22.9860  -30.4930 C   0  0  0  0  0  0  0  0  0  0  0  0
   -6.3500   23.3420  -30.4600 C   0  0  0  0  0  0  0  0  0  0  0  0
   -7.3270   22.4580  -30.9280 C   0  0  0  0  0  0  0  0  0  0  0  0
   -6.9610   21.2080  -31.4410 C   0  0  0  0  0  0  0  0  0  0  0  0
   -8.1980   20.0910  -32.0250 S   0  0  0  0  0  0  0  0  0  0  0  0
   -8.8560   19.4280  -30.8470 O   0  0  0  0  0  0  0  0  0  0  0  0
   -9.2490   20.8650  -32.7710 O   0  0  0  0  0  0  0  0  0  0  0  0
   -7.5260   18.8680  -33.0740 N   0  0  0  0  0  0  0  0  0  0  0  0
   -6.4900   19.4470  -33.9450 C   0  0  0  0  0  0  0  0  0  0  0  0
   -5.7340   18.3360  -34.7030 C   0  0  0  0  0  0  0  0  0  0  0  0
   -6.3970   17.0930  -34.5830 O   0  0  0  0  0  0  0  0  0  0  0  0
   -6.3990   16.6780  -33.2270 C   0  0  0  0  0  0  0  0  0  0  0  0
   -6.9670   17.7620  -32.2840 C   0  0  0  0  0  0  0  0  0  0  0  0
   -5.6070   20.8520  -31.4910 C   0  0  0  0  0  0  0  0  0  0  0  0
   -4.6280   21.7340  -31.0230 C   0  0  0  0  0  0  0  0  0  0  0  0
   -3.4410   22.8580  -28.2160 H   0  0  0  0  0  0  0  0  0  0  0  0
   -0.4470   22.5582  -28.5960 H   0  0  0  0  0  0  0  0  0  0  0  0
   -2.3921   26.3866  -28.4662 H   0  0  0  0  0  0  0  0  0  0  0  0
   -6.6477   24.3236  -30.0628 H   0  0  0  0  0  0  0  0  0  0  0  0
   -8.3880   22.7461  -30.8929 H   0  0  0  0  0  0  0  0  0  0  0  0
   -6.9650   20.1219  -34.6723 H   0  0  0  0  0  0  0  0  0  0  0  0
   -5.7731   20.0021  -33.3222 H   0  0  0  0  0  0  0  0  0  0  0  0
   -5.6700   18.6073  -35.7671 H   0  0  0  0  0  0  0  0  0  0  0  0
   -4.7290   18.2383  -34.2665 H   0  0  0  0  0  0  0  0  0  0  0  0
   -7.0148   15.7711  -33.1353 H   0  0  0  0  0  0  0  0  0  0  0  0
   -5.3568   16.4868  -32.9316 H   0  0  0  0  0  0  0  0  0  0  0  0
   -7.7588   17.3234  -31.6589 H   0  0  0  0  0  0  0  0  0  0  0  0
   -6.1586   18.1458  -31.6443 H   0  0  0  0  0  0  0  0  0  0  0  0
   -5.3126   19.8743  -31.9002 H   0  0  0  0  0  0  0  0  0  0  0  0
   -3.5673   21.4465  -31.0697 H   0  0  0  0  0  0  0  0  0  0  0  0
  1  2  2  0
  2  3  1  0
  3  4  1  0
  4  5  1  0
  5  6  2  0
  6  7  1  0
  7  8  1  0
  2  9  1  0
  9 10  2  0
 10 11  1  0
 11 12  2  0
 12 13  1  0
 13 14  2  0
 13 15  2  0
 13 16  1  0
 16 17  1  0
 17 18  1  0
 18 19  1  0
 19 20  1  0
 20 21  1  0
 12 22  1  0
 22 23  2  0
  8  4  2  0
 23  9  1  0
 21 16  1  0
  3 24  1  0
  5 25  1  0
  8 26  1  0
 10 27  1  0
 11 28  1  0
 17 29  1  0
 17 30  1  0
 18 31  1  0
 18 32  1  0
 20 33  1  0
 20 34  1  0
 21 35  1  0
 21 36  1  0
 22 37  1  0
 23 38  1  0
M  CHG  1   7  -1
M  END
>  <UniqueID>  (8) 
8

>  <SMILES>  (8) 
O=C(Nc1cn[n-]c1)c1ccc(S(=O)(=O)N2CCOCC2)cc1

>  <Energy>  (8) 
80.85181676311389

>  <Genealogy>  (8) 
O=C(Nc1cn[n-]c1)c1ccc(S(=O)(=O)N2CCOCC2)cc1 (protonated)
O=C(Nc1cn[n-]c1)c1ccc(S(=O)(=O)N2CCOCC2)cc1 (3D coordinates assigned)
O=C(Nc1cn[n-]c1)c1ccc(S(=O)(=O)N2CCOCC2)cc1 (nonaromatic ring conformer: 80.85181676311389 kcal/mol)

>  <smiles>  (8) 
O=C(Nc1cn[nH]c1)c1ccc(S(=O)(=O)N2CCOCC2)cc1

>  <score_type>  (8) 
oracle

>  <origin>  (8) 
adgpu

>  <m_score__min__energy>  (8) 
-9.8100000000000005

>  <m_primary>  (8) 
energy

$$$$
8:0
     RDKit          3D

 45 47  0  0  0  0  0  0  0  0999 V2000
    0.1280   23.2200  -28.5920 C   0  0  0  0  0  0  0  0  0  0  0  0
   -1.3230   23.5620  -28.6110 C   0  0  0  0  0  0  0  0  0  0  0  0
   -2.1170   23.7750  -27.4980 C   0  0  0  0  0  0  0  0  0  0  0  0
   -3.3360   24.1510  -28.0230 C   0  0  0  0  0  0  0  0  0  0  0  0
   -4.5330   24.5520  -27.2150 C   0  0  0  0  0  0  0  0  0  0  0  0
   -3.2520   24.1390  -29.3740 N   0  0  0  0  0  0  0  0  0  0  0  0
   -4.2700   24.4980  -30.3210 C   0  0  0  0  0  0  0  0  0  0  0  0
   -4.2350   25.6400  -30.8510 O   0  0  0  0  0  0  0  0  0  0  0  0
   -5.3280   23.5420  -30.7200 C   0  0  0  0  0  0  0  0  0  0  0  0
   -6.6180   24.0030  -31.0310 C   0  0  0  0  0  0  0  0  0  0  0  0
   -7.6170   23.1050  -31.4190 C   0  0  0  0  0  0  0  0  0  0  0  0
   -7.3350   21.7360  -31.5130 C   0  0  0  0  0  0  0  0  0  0  0  0
   -8.5870   20.5970  -31.9980 S   0  0  0  0  0  0  0  0  0  0  0  0
   -9.7140   21.3310  -32.6720 O   0  0  0  0  0  0  0  0  0  0  0  0
   -9.1120   19.9070  -30.7700 O   0  0  0  0  0  0  0  0  0  0  0  0
   -7.9180   19.4200  -33.1030 N   0  0  0  0  0  0  0  0  0  0  0  0
   -7.6320   18.1380  -32.4100 C   0  0  0  0  0  0  0  0  0  0  0  0
   -6.1410   17.9420  -32.0970 C   0  0  0  0  0  0  0  0  0  0  0  0
   -5.2930   17.9880  -33.3780 C   0  0  0  0  0  0  0  0  0  0  0  0
   -5.8870   18.9190  -34.4510 C   0  0  0  0  0  0  0  0  0  0  0  0
   -6.7620   20.0050  -33.8170 C   0  0  0  0  0  0  0  0  0  0  0  0
   -6.0480   21.2720  -31.2130 C   0  0  0  0  0  0  0  0  0  0  0  0
   -5.0490   22.1690  -30.8270 C   0  0  0  0  0  0  0  0  0  0  0  0
   -2.0230   23.8100  -29.7350 N   0  0  0  0  0  0  0  0  0  0  0  0
    0.4720   23.1389  -27.5503 H   0  0  0  0  0  0  0  0  0  0  0  0
    0.2852   22.2602  -29.1058 H   0  0  0  0  0  0  0  0  0  0  0  0
    0.6973   24.0086  -29.1058 H   0  0  0  0  0  0  0  0  0  0  0  0
   -1.8400   23.6690  -26.4387 H   0  0  0  0  0  0  0  0  0  0  0  0
   -4.2957   24.4725  -26.1438 H   0  0  0  0  0  0  0  0  0  0  0  0
   -4.8056   25.5905  -27.4541 H   0  0  0  0  0  0  0  0  0  0  0  0
   -5.3762   23.8873  -27.4541 H   0  0  0  0  0  0  0  0  0  0  0  0
   -6.8437   25.0778  -30.9689 H   0  0  0  0  0  0  0  0  0  0  0  0
   -8.6268   23.4744  -31.6510 H   0  0  0  0  0  0  0  0  0  0  0  0
   -8.1938   18.1182  -31.4645 H   0  0  0  0  0  0  0  0  0  0  0  0
   -7.9349   17.3249  -33.0861 H   0  0  0  0  0  0  0  0  0  0  0  0
   -5.8089   18.7412  -31.4181 H   0  0  0  0  0  0  0  0  0  0  0  0
   -6.0104   16.9555  -31.6283 H   0  0  0  0  0  0  0  0  0  0  0  0
   -4.2853   18.3460  -33.1203 H   0  0  0  0  0  0  0  0  0  0  0  0
   -5.2688   16.9712  -33.7970 H   0  0  0  0  0  0  0  0  0  0  0  0
   -5.0663   19.3974  -35.0055 H   0  0  0  0  0  0  0  0  0  0  0  0
   -6.5123   18.3177  -35.1274 H   0  0  0  0  0  0  0  0  0  0  0  0
   -6.1553   20.5817  -33.1033 H   0  0  0  0  0  0  0  0  0  0  0  0
   -7.1435   20.6536  -34.6194 H   0  0  0  0  0  0  0  0  0  0  0  0
   -5.8230   20.1974  -31.2816 H   0  0  0  0  0  0  0  0  0  0  0  0
   -4.0374   21.7981  -30.6054 H   0  0  0  0  0  0  0  0  0  0  0  0
  1  2  1  0
  2  3  1  0
  3  4  2  0
  4  5  1  0
  4  6  1  0
  6  7  1  0
  7  8  2  0
  7  9  1  0
  9 10  2  0
 10 11  1  0
 11 12  2  0
 12 13  1  0
 13 14  2  0
 13 15  2  0
 13 16  1  0
 16 17  1  0
 17 18  1  0
 18 19  1  0
 19 20  1  0
 20 21  1  0
 12 22  1  0
 22 23  2  0
  6 24  1  0
 24  2  2  0
 23  9  1  0
 21 16  1  0
  1 25  1  0
  1 26  1  0
  1 27  1  0
  3 28  1  0
  5 29  1  0
  5 30  1  0
  5 31  1  0
 10 32  1  0
 11 33  1  0
 17 34  1  0
 17 35  1  0
 18 36  1  0
 18 37  1  0
 19 38  1  0
 19 39  1  0
 20 40  1  0
 20 41  1  0
 21 42  1  0
 21 43  1  0
 22 44  1  0
 23 45  1  0
M  END
>  <UniqueID>  (9) 
9

>  <SMILES>  (9) 
Cc1cc(C)n(C(=O)c2ccc(S(=O)(=O)N3CCCCC3)cc2)n1

>  <Energy>  (9) 
84.78154460982581

>  <Genealogy>  (9) 
Cc1cc(C)n(C(=O)c2ccc(S(=O)(=O)N3CCCCC3)cc2)n1 (3D coordinates assigned)
Cc1cc(C)n(C(=O)c2ccc(S(=O)(=O)N3CCCCC3)cc2)n1 (nonaromatic ring conformer: 84.78154460982581 kcal/mol)

>  <smiles>  (9) 
Cc1cc(C)n(C(=O)c2ccc(S(=O)(=O)N3CCCCC3)cc2)n1

>  <score_type>  (9) 
oracle

>  <origin>  (9) 
adgpu

>  <m_score__min__energy>  (9) 
-9.5099999999999998

>  <m_primary>  (9) 
energy

$$$$
9:0
     RDKit          3D

 47 49  0  0  0  0  0  0  0  0999 V2000
   -0.9410   19.1750  -31.7470 C   0  0  0  0  0  0  0  0  0  0  0  0
   -1.9040   20.2790  -31.6610 N   0  0  0  0  0  0  0  0  0  0  0  0
   -1.2330   21.5580  -31.9230 C   0  0  0  0  0  0  0  0  0  0  0  0
   -3.1910   20.0350  -32.8170 S   0  0  0  0  0  0  0  0  0  0  0  0
   -3.6360   18.5990  -32.7780 O   0  0  0  0  0  0  0  0  0  0  0  0
   -2.6790   20.3240  -34.2000 O   0  0  0  0  0  0  0  0  0  0  0  0
   -4.5730   21.0810  -32.4800 C   0  0  0  0  0  0  0  0  0  0  0  0
   -5.8420   20.7510  -32.9710 C   0  0  0  0  0  0  0  0  0  0  0  0
   -6.9330   21.5850  -32.7130 C   0  0  0  0  0  0  0  0  0  0  0  0
   -6.7630   22.7570  -31.9700 C   0  0  0  0  0  0  0  0  0  0  0  0
   -7.8630   23.5710  -31.7220 O   0  0  0  0  0  0  0  0  0  0  0  0
   -5.4900   23.1030  -31.4810 C   0  0  0  0  0  0  0  0  0  0  0  0
   -5.2570   24.5920  -30.5630 S   0  0  0  0  0  0  0  0  0  0  0  0
   -5.9750   25.7190  -31.2510 O   0  0  0  0  0  0  0  0  0  0  0  0
   -5.8210   24.4200  -29.1820 O   0  0  0  0  0  0  0  0  0  0  0  0
   -3.5670   24.9640  -30.4380 N   0  0  0  0  0  0  0  0  0  0  0  0
   -2.6850   24.2520  -29.5670 C   0  0  0  0  0  0  0  0  0  0  0  0
   -3.0070   22.9400  -29.1960 C   0  0  0  0  0  0  0  0  0  0  0  0
   -2.1580   22.2140  -28.3500 C   0  0  0  0  0  0  0  0  0  0  0  0
   -0.9760   22.8060  -27.8730 C   0  0  0  0  0  0  0  0  0  0  0  0
   -0.6660   24.1270  -28.2230 C   0  0  0  0  0  0  0  0  0  0  0  0
   -1.5250   24.8560  -29.0510 C   0  0  0  0  0  0  0  0  0  0  0  0
   -1.2320   26.1840  -29.3370 O   0  0  0  0  0  0  0  0  0  0  0  0
   -0.0730   22.0000  -26.9840 C   0  0  0  0  0  0  0  0  0  0  0  0
   -0.9200   21.2440  -25.9570 C   0  0  0  0  0  0  0  0  0  0  0  0
   -2.0090   20.3550  -26.6040 C   0  0  0  0  0  0  0  0  0  0  0  0
   -2.4380   20.7660  -28.0340 C   0  0  0  0  0  0  0  0  0  0  0  0
   -4.4040   22.2520  -31.7290 C   0  0  0  0  0  0  0  0  0  0  0  0
   -0.6604   18.8534  -30.7332 H   0  0  0  0  0  0  0  0  0  0  0  0
   -1.3972   18.3317  -32.2861 H   0  0  0  0  0  0  0  0  0  0  0  0
   -0.0435   19.5124  -32.2861 H   0  0  0  0  0  0  0  0  0  0  0  0
   -0.9794   22.0414  -30.9680 H   0  0  0  0  0  0  0  0  0  0  0  0
   -0.3131   21.3783  -32.4987 H   0  0  0  0  0  0  0  0  0  0  0  0
   -1.9037   22.2128  -32.4987 H   0  0  0  0  0  0  0  0  0  0  0  0
   -5.9804   19.8331  -33.5612 H   0  0  0  0  0  0  0  0  0  0  0  0
   -7.9292   21.3185  -33.0959 H   0  0  0  0  0  0  0  0  0  0  0  0
   -3.9317   22.4770  -29.5710 H   0  0  0  0  0  0  0  0  0  0  0  0
    0.2564   24.5921  -27.8450 H   0  0  0  0  0  0  0  0  0  0  0  0
    0.4958   21.2812  -27.5922 H   0  0  0  0  0  0  0  0  0  0  0  0
    0.6269   22.6703  -26.4636 H   0  0  0  0  0  0  0  0  0  0  0  0
   -0.2554   20.6036  -25.3586 H   0  0  0  0  0  0  0  0  0  0  0  0
   -1.4342   21.9952  -25.3395 H   0  0  0  0  0  0  0  0  0  0  0  0
   -1.6248   19.3252  -26.6476 H   0  0  0  0  0  0  0  0  0  0  0  0
   -2.9045   20.4661  -25.9749 H   0  0  0  0  0  0  0  0  0  0  0  0
   -1.8925   20.1398  -28.7553 H   0  0  0  0  0  0  0  0  0  0  0  0
   -3.5267   20.6236  -28.1001 H   0  0  0  0  0  0  0  0  0  0  0  0
   -3.4105   22.5056  -31.3306 H   0  0  0  0  0  0  0  0  0  0  0  0
  1  2  1  0
  2  3  1  0
  2  4  1  0
  4  5  2  0
  4  6  2  0
  4  7  1  0
  7  8  2  0
  8  9  1  0
  9 10  2  0
 10 11  1  0
 10 12  1  0
 12 13  1  0
 13 14  2  0
 13 15  2  0
 13 16  1  0
 16 17  1  0
 17 18  2  0
 18 19  1  0
 19 20  2  0
 20 21  1  0
 21 22  2  0
 22 23  1  0
 20 24  1  0
 24 25  1  0
 25 26  1  0
 26 27  1  0
 12 28  2  0
 28  7  1  0
 22 17  1  0
 27 19  1  0
  1 29  1  0
  1 30  1  0
  1 31  1  0
  3 32  1  0
  3 33  1  0
  3 34  1  0
  8 35  1  0
  9 36  1  0
 18 37  1  0
 21 38  1  0
 24 39  1  0
 24 40  1  0
 25 41  1  0
 25 42  1  0
 26 43  1  0
 26 44  1  0
 27 45  1  0
 27 46  1  0
 28 47  1  0
M  CHG  3  11  -1  16  -1  23  -1
M  END
>  <UniqueID>  (10) 
10

>  <SMILES>  (10) 
CN(C)S(=O)(=O)c1ccc([O-])c(S(=O)(=O)[N-]c2cc3c(cc2[O-])CCCC3)c1

>  <Energy>  (10) 
58.924872497737894

>  <Genealogy>  (10) 
CN(C)S(=O)(=O)c1ccc([O-])c(S(=O)(=O)[N-]c2cc3c(cc2[O-])CCCC3)c1 (protonated)
CN(C)S(=O)(=O)c1ccc([O-])c(S(=O)(=O)[N-]c2cc3c(cc2[O-])CCCC3)c1 (3D coordinates assigned)
CN(C)S(=O)(=O)c1ccc([O-])c(S(=O)(=O)[N-]c2cc3c(cc2[O-])CCCC3)c1 (nonaromatic ring conformer: 58.924872497737894 kcal/mol)

>  <smiles>  (10) 
CN(C)S(=O)(=O)c1ccc(O)c(S(=O)(=O)Nc2cc3c(cc2O)CCCC3)c1

>  <score_type>  (10) 
oracle

>  <origin>  (10) 
adgpu

>  <m_score__min__energy>  (10) 
-15.52

>  <m_primary>  (10) 
energy

$$$$
10:0
     RDKit          3D

 59 62  0  0  0  0  0  0  0  0999 V2000
   -5.8730   25.6940  -30.9360 O   0  0  0  0  0  0  0  0  0  0  0  0
   -4.9900   24.7950  -30.8720 C   0  0  0  0  0  0  0  0  0  0  0  0
   -3.7180   25.0730  -30.2720 N   0  0  0  0  0  0  0  0  0  0  0  0
   -3.0860   24.3130  -29.2330 C   0  0  0  0  0  0  0  0  0  0  0  0
   -3.8510   23.3810  -28.5220 C   0  0  0  0  0  0  0  0  0  0  0  0
   -3.2800   22.6460  -27.4790 C   0  0  0  0  0  0  0  0  0  0  0  0
   -1.9450   22.8530  -27.1250 C   0  0  0  0  0  0  0  0  0  0  0  0
   -1.1750   23.8040  -27.8070 C   0  0  0  0  0  0  0  0  0  0  0  0
    0.4950   24.1080  -27.3240 S   0  0  0  0  0  0  0  0  0  0  0  0
    1.2910   24.5160  -28.5320 O   0  0  0  0  0  0  0  0  0  0  0  0
    1.0920   22.8380  -26.7860 O   0  0  0  0  0  0  0  0  0  0  0  0
    0.6080   25.3580  -26.1010 N   0  0  0  0  0  0  0  0  0  0  0  0
    0.2090   26.6640  -26.6350 C   0  0  0  0  0  0  0  0  0  0  0  0
   -1.2310   26.9360  -26.2220 C   0  0  0  0  0  0  0  0  0  0  0  0
   -1.5680   25.8880  -25.1790 C   0  0  0  0  0  0  0  0  0  0  0  0
   -0.2940   25.0820  -24.9790 C   0  0  0  0  0  0  0  0  0  0  0  0
   -1.7470   24.5310  -28.8620 C   0  0  0  0  0  0  0  0  0  0  0  0
   -5.2290   23.4920  -31.5240 C   0  0  0  0  0  0  0  0  0  0  0  0
   -4.1250   22.6860  -31.8500 C   0  0  0  0  0  0  0  0  0  0  0  0
   -4.3050   21.4130  -32.4040 C   0  0  0  0  0  0  0  0  0  0  0  0
   -2.8990   20.4300  -32.8120 S   0  0  0  0  0  0  0  0  0  0  0  0
   -3.3740   19.1180  -33.3690 O   0  0  0  0  0  0  0  0  0  0  0  0
   -2.0740   21.1260  -33.8600 O   0  0  0  0  0  0  0  0  0  0  0  0
   -1.9410   20.1500  -31.3810 N   0  0  0  0  0  0  0  0  0  0  0  0
   -1.4600   21.4400  -30.8380 C   0  0  0  0  0  0  0  0  0  0  0  0
   -0.3380   21.2630  -29.7920 C   0  0  0  0  0  0  0  0  0  0  0  0
   -0.2800   19.8270  -29.2640 C   0  0  0  0  0  0  0  0  0  0  0  0
   -0.0880   18.8250  -30.4150 C   0  0  0  0  0  0  0  0  0  0  0  0
   -0.8130   19.2610  -31.7020 C   0  0  0  0  0  0  0  0  0  0  0  0
   -5.5990   20.9410  -32.6490 C   0  0  0  0  0  0  0  0  0  0  0  0
   -6.7040   21.7400  -32.3510 C   0  0  0  0  0  0  0  0  0  0  0  0
   -6.5340   23.0200  -31.8090 C   0  0  0  0  0  0  0  0  0  0  0  0
   -7.6750   23.7990  -31.6050 O   0  0  0  0  0  0  0  0  0  0  0  0
   -4.9077   23.2261  -28.7855 H   0  0  0  0  0  0  0  0  0  0  0  0
   -3.8832   21.9034  -26.9362 H   0  0  0  0  0  0  0  0  0  0  0  0
   -1.4969   22.2677  -26.3085 H   0  0  0  0  0  0  0  0  0  0  0  0
    0.8657   27.4473  -26.2286 H   0  0  0  0  0  0  0  0  0  0  0  0
    0.2927   26.6640  -27.7318 H   0  0  0  0  0  0  0  0  0  0  0  0
   -1.3224   27.9452  -25.7941 H   0  0  0  0  0  0  0  0  0  0  0  0
   -1.9148   26.8850  -27.0821 H   0  0  0  0  0  0  0  0  0  0  0  0
   -1.8700   26.3681  -24.2365 H   0  0  0  0  0  0  0  0  0  0  0  0
   -2.4055   25.2508  -25.4995 H   0  0  0  0  0  0  0  0  0  0  0  0
    0.1871   25.3757  -24.0344 H   0  0  0  0  0  0  0  0  0  0  0  0
   -0.5284   24.0081  -24.9373 H   0  0  0  0  0  0  0  0  0  0  0  0
   -1.1445   25.2760  -29.4023 H   0  0  0  0  0  0  0  0  0  0  0  0
   -3.1067   23.0600  -31.6676 H   0  0  0  0  0  0  0  0  0  0  0  0
   -1.0745   22.0499  -31.6683 H   0  0  0  0  0  0  0  0  0  0  0  0
   -2.3090   21.9275  -30.3364 H   0  0  0  0  0  0  0  0  0  0  0  0
    0.6269   21.5110  -30.2583 H   0  0  0  0  0  0  0  0  0  0  0  0
   -0.5490   21.9324  -28.9450 H   0  0  0  0  0  0  0  0  0  0  0  0
    0.5624   19.7352  -28.5626 H   0  0  0  0  0  0  0  0  0  0  0  0
   -1.2295   19.6010  -28.7567 H   0  0  0  0  0  0  0  0  0  0  0  0
    0.9872   18.7348  -30.6288 H   0  0  0  0  0  0  0  0  0  0  0  0
   -0.5186   17.8639  -30.0975 H   0  0  0  0  0  0  0  0  0  0  0  0
   -0.1052   19.7947  -32.3533 H   0  0  0  0  0  0  0  0  0  0  0  0
   -1.1986   18.3670  -32.2139 H   0  0  0  0  0  0  0  0  0  0  0  0
   -5.7458   19.9385  -33.0772 H   0  0  0  0  0  0  0  0  0  0  0  0
   -7.7183   21.3605  -32.5438 H   0  0  0  0  0  0  0  0  0  0  0  0
   -7.6540   24.7050  -31.1550 H   0  0  0  0  0  0  0  0  0  0  0  0
  1  2  2  0
  2  3  1  0
  3  4  1  0
  4  5  2  0
  5  6  1  0
  6  7  2  0
  7  8  1  0
  8  9  1  0
  9 10  2  0
  9 11  2  0
  9 12  1  0
 12 13  1  0
 13 14  1  0
 14 15  1  0
 15 16  1  0
  8 17  2  0
  2 18  1  0
 18 19  2  0
 19 20  1  0
 20 21  1  0
 21 22  2  0
 21 23  2  0
 21 24  1  0
 24 25  1  0
 25 26  1  0
 26 27  1  0
 27 28  1  0
 28 29  1  0
 20 30  2  0
 30 31  1  0
 31 32  2  0
 32 33  1  0
 17  4  1  0
 32 18  1  0
 16 12  1  0
 29 24  1  0
  5 34  1  0
  6 35  1  0
  7 36  1  0
 13 37  1  0
 13 38  1  0
 14 39  1  0
 14 40  1  0
 15 41  1  0
 15 42  1  0
 16 43  1  0
 16 44  1  0
 17 45  1  0
 19 46  1  0
 25 47  1  0
 25 48  1  0
 26 49  1  0
 26 50  1  0
 27 51  1  0
 27 52  1  0
 28 53  1  0
 28 54  1  0
 29 55  1  0
 29 56  1  0
 30 57  1  0
 31 58  1  0
 33 59  1  0
M  CHG  1   3  -1
M  END
>  <UniqueID>  (11) 
11

>  <SMILES>  (11) 
O=C([N-]c1cccc(S(=O)(=O)N2CCCC2)c1)c1cc(S(=O)(=O)N2CCCCC2)ccc1O

>  <Energy>  (11) 
72.18884916418966

>  <Genealogy>  (11) 
O=C([N-]c1cccc(S(=O)(=O)N2CCCC2)c1)c1cc(S(=O)(=O)N2CCCCC2)ccc1O (protonated)
O=C([N-]c1cccc(S(=O)(=O)N2CCCC2)c1)c1cc(S(=O)(=O)N2CCCCC2)ccc1O (3D coordinates assigned)
O=C([N-]c1cccc(S(=O)(=O)N2CCCC2)c1)c1cc(S(=O)(=O)N2CCCCC2)ccc1O (nonaromatic ring conformer: 72.18884916418966 kcal/mol)

>  <smiles>  (11) 
O=C(Nc1cccc(S(=O)(=O)N2CCCC2)c1)c1cc(S(=O)(=O)N2CCCCC2)ccc1O

>  <score_type>  (11) 
oracle

>  <origin>  (11) 
adgpu

>  <m_score__min__energy>  (11) 
-11.640000000000001

>  <m_primary>  (11) 
energy

$$$$
11:0
     RDKit          3D

 60 63  0  0  0  0  0  0  0  0999 V2000
   -5.5840   24.9380  -28.7700 O   0  0  0  0  0  0  0  0  0  0  0  0
   -5.1520   24.8760  -30.2050 S   0  0  0  0  0  0  0  0  0  0  0  0
   -5.7250   26.0610  -30.9300 O   0  0  0  0  0  0  0  0  0  0  0  0
   -3.4230   24.9330  -30.2870 N   0  0  0  0  0  0  0  0  0  0  0  0
   -2.5360   24.3450  -29.3220 C   0  0  0  0  0  0  0  0  0  0  0  0
   -2.7050   23.0310  -28.8640 C   0  0  0  0  0  0  0  0  0  0  0  0
   -1.7940   22.4620  -27.9640 C   0  0  0  0  0  0  0  0  0  0  0  0
   -2.0420   20.8190  -27.3760 S   0  0  0  0  0  0  0  0  0  0  0  0
   -3.5110   20.5090  -27.3740 O   0  0  0  0  0  0  0  0  0  0  0  0
   -1.5440   20.7230  -25.9620 O   0  0  0  0  0  0  0  0  0  0  0  0
   -1.2050   19.6510  -28.3630 N   0  0  0  0  0  0  0  0  0  0  0  0
   -0.2370   18.8960  -27.5400 C   0  0  0  0  0  0  0  0  0  0  0  0
    0.7090   18.0290  -28.3940 C   0  0  0  0  0  0  0  0  0  0  0  0
    0.2370   17.9200  -29.8480 C   0  0  0  0  0  0  0  0  0  0  0  0
    0.0510   19.3130  -30.4720 C   0  0  0  0  0  0  0  0  0  0  0  0
   -0.5230   20.3330  -29.4740 C   0  0  0  0  0  0  0  0  0  0  0  0
   -0.7140   23.2260  -27.5010 C   0  0  0  0  0  0  0  0  0  0  0  0
   -0.5340   24.5350  -27.9550 C   0  0  0  0  0  0  0  0  0  0  0  0
   -1.4350   25.0890  -28.8710 C   0  0  0  0  0  0  0  0  0  0  0  0
   -1.2270   26.3820  -29.3340 O   0  0  0  0  0  0  0  0  0  0  0  0
   -5.7200   23.3980  -30.9760 C   0  0  0  0  0  0  0  0  0  0  0  0
   -4.8600   22.6180  -31.7510 C   0  0  0  0  0  0  0  0  0  0  0  0
   -5.3360   21.4780  -32.4090 C   0  0  0  0  0  0  0  0  0  0  0  0
   -6.6850   21.1210  -32.3060 C   0  0  0  0  0  0  0  0  0  0  0  0
   -7.2980   19.7000  -33.1450 S   0  0  0  0  0  0  0  0  0  0  0  0
   -6.8500   19.7660  -34.5800 O   0  0  0  0  0  0  0  0  0  0  0  0
   -8.8020   19.6880  -33.0920 O   0  0  0  0  0  0  0  0  0  0  0  0
   -6.6610   18.2580  -32.3760 N   0  0  0  0  0  0  0  0  0  0  0  0
   -7.2340   17.0210  -32.9560 C   0  0  0  0  0  0  0  0  0  0  0  0
   -6.2740   16.3270  -33.9390 C   0  0  0  0  0  0  0  0  0  0  0  0
   -5.5090   17.2890  -34.6340 O   0  0  0  0  0  0  0  0  0  0  0  0
   -4.5900   17.9200  -33.7560 C   0  0  0  0  0  0  0  0  0  0  0  0
   -5.1850   18.2490  -32.3650 C   0  0  0  0  0  0  0  0  0  0  0  0
   -7.5460   21.8950  -31.5160 C   0  0  0  0  0  0  0  0  0  0  0  0
   -7.0610   23.0240  -30.8540 C   0  0  0  0  0  0  0  0  0  0  0  0
   -3.5632   22.4393  -29.2153 H   0  0  0  0  0  0  0  0  0  0  0  0
    0.3657   19.6099  -26.9593 H   0  0  0  0  0  0  0  0  0  0  0  0
   -0.8078   18.2231  -26.8832 H   0  0  0  0  0  0  0  0  0  0  0  0
    1.7124   18.4795  -28.3798 H   0  0  0  0  0  0  0  0  0  0  0  0
    0.7197   17.0162  -27.9648 H   0  0  0  0  0  0  0  0  0  0  0  0
    0.9866   17.3626  -30.4289 H   0  0  0  0  0  0  0  0  0  0  0  0
   -0.7301   17.3962  -29.8645 H   0  0  0  0  0  0  0  0  0  0  0  0
    1.0281   19.6753  -30.8241 H   0  0  0  0  0  0  0  0  0  0  0  0
   -0.6662   19.2154  -31.3003 H   0  0  0  0  0  0  0  0  0  0  0  0
    0.2978   20.9450  -29.0718 H   0  0  0  0  0  0  0  0  0  0  0  0
   -1.2524   20.9673  -29.9989 H   0  0  0  0  0  0  0  0  0  0  0  0
   -0.0062   22.7939  -26.7783 H   0  0  0  0  0  0  0  0  0  0  0  0
    0.3167   25.1305  -27.5921 H   0  0  0  0  0  0  0  0  0  0  0  0
   -3.8012   22.9011  -31.8452 H   0  0  0  0  0  0  0  0  0  0  0  0
   -4.6488   20.8621  -33.0077 H   0  0  0  0  0  0  0  0  0  0  0  0
   -7.4656   16.3230  -32.1380 H   0  0  0  0  0  0  0  0  0  0  0  0
   -8.1372   17.3038  -33.5167 H   0  0  0  0  0  0  0  0  0  0  0  0
   -5.5999   15.6614  -33.3799 H   0  0  0  0  0  0  0  0  0  0  0  0
   -6.8615   15.7438  -34.6634 H   0  0  0  0  0  0  0  0  0  0  0  0
   -3.7281   17.2510  -33.6158 H   0  0  0  0  0  0  0  0  0  0  0  0
   -4.3072   18.8767  -34.2195 H   0  0  0  0  0  0  0  0  0  0  0  0
   -4.8410   17.4920  -31.6449 H   0  0  0  0  0  0  0  0  0  0  0  0
   -4.8440   19.2559  -32.0823 H   0  0  0  0  0  0  0  0  0  0  0  0
   -8.6046   21.6125  -31.4177 H   0  0  0  0  0  0  0  0  0  0  0  0
   -7.7401   23.6245  -30.2309 H   0  0  0  0  0  0  0  0  0  0  0  0
  1  2  2  0
  2  3  2  0
  2  4  1  0
  4  5  1  0
  5  6  2  0
  6  7  1  0
  7  8  1  0
  8  9  2  0
  8 10  2  0
  8 11  1  0
 11 12  1  0
 12 13  1  0
 13 14  1  0
 14 15  1  0
 15 16  1  0
  7 17  2  0
 17 18  1  0
 18 19  2  0
 19 20  1  0
  2 21  1  0
 21 22  2  0
 22 23  1  0
 23 24  2  0
 24 25  1  0
 25 26  2  0
 25 27  2  0
 25 28  1  0
 28 29  1  0
 29 30  1  0
 30 31  1  0
 31 32  1  0
 32 33  1  0
 24 34  1  0
 34 35  2  0
 19  5  1  0
 35 21  1  0
 16 11  1  0
 33 28  1  0
  6 36  1  0
 12 37  1  0
 12 38  1  0
 13 39  1  0
 13 40  1  0
 14 41  1  0
 14 42  1  0
 15 43  1  0
 15 44  1  0
 16 45  1  0
 16 46  1  0
 17 47  1  0
 18 48  1  0
 22 49  1  0
 23 50  1  0
 29 51  1  0
 29 52  1  0
 30 53  1  0
 30 54  1  0
 32 55  1  0
 32 56  1  0
 33 57  1  0
 33 58  1  0
 34 59  1  0
 35 60  1  0
M  CHG  2   4  -1  20  -1
M  END
>  <UniqueID>  (12) 
12

>  <SMILES>  (12) 
O=S(=O)([N-]c1cc(S(=O)(=O)N2CCCCC2)ccc1[O-])c1ccc(S(=O)(=O)N2CCOCC2)cc1

>  <Energy>  (12) 
78.20954673270899

>  <Genealogy>  (12) 
O=S(=O)([N-]c1cc(S(=O)(=O)N2CCCCC2)ccc1[O-])c1ccc(S(=O)(=O)N2CCOCC2)cc1 (protonated)
O=S(=O)([N-]c1cc(S(=O)(=O)N2CCCCC2)ccc1[O-])c1ccc(S(=O)(=O)N2CCOCC2)cc1 (3D coordinates assigned)
O=S(=O)([N-]c1cc(S(=O)(=O)N2CCCCC2)ccc1[O-])c1ccc(S(=O)(=O)N2CCOCC2)cc1 (nonaromatic ring conformer: 78.20954673270899 kcal/mol)

>  <smiles>  (12) 
O=S(=O)(Nc1cc(S(=O)(=O)N2CCCCC2)ccc1O)c1ccc(S(=O)(=O)N2CCOCC2)cc1

>  <score_type>  (12) 
oracle

>  <origin>  (12) 
adgpu

>  <m_score__min__energy>  (12) 
-15.949999999999999

>  <m_primary>  (12) 
energy

$$$$
12:0
     RDKit          3D

 51 53  0  0  0  0  0  0  0  0999 V2000
   -3.6910   18.6720  -26.3180 C   0  0  0  0  0  0  0  0  0  0  0  0
   -2.3940   19.2450  -26.1890 O   0  0  0  0  0  0  0  0  0  0  0  0
   -1.5250   19.5000  -27.2640 C   0  0  0  0  0  0  0  0  0  0  0  0
   -0.3150   18.7960  -27.4250 C   0  0  0  0  0  0  0  0  0  0  0  0
    0.5260   19.0740  -28.5040 C   0  0  0  0  0  0  0  0  0  0  0  0
    0.1690   20.0480  -29.4370 C   0  0  0  0  0  0  0  0  0  0  0  0
   -1.0280   20.7520  -29.2900 C   0  0  0  0  0  0  0  0  0  0  0  0
   -1.8770   20.4970  -28.1970 C   0  0  0  0  0  0  0  0  0  0  0  0
   -3.1230   21.2000  -28.0550 N   0  0  0  0  0  0  0  0  0  0  0  0
   -3.2850   22.6010  -28.3110 C   0  0  0  0  0  0  0  0  0  0  0  0
   -2.2780   23.3470  -28.4510 O   0  0  0  0  0  0  0  0  0  0  0  0
   -4.6030   23.1600  -28.3440 N   0  0  0  0  0  0  0  0  0  0  0  0
   -5.3280   23.4440  -29.5470 C   0  0  0  0  0  0  0  0  0  0  0  0
   -6.4330   22.6420  -29.8600 C   0  0  0  0  0  0  0  0  0  0  0  0
   -7.2020   22.9020  -31.0010 C   0  0  0  0  0  0  0  0  0  0  0  0
   -8.5890   21.8870  -31.3940 S   0  0  0  0  0  0  0  0  0  0  0  0
   -9.4930   22.6450  -32.3270 O   0  0  0  0  0  0  0  0  0  0  0  0
   -9.3570   21.5640  -30.1420 O   0  0  0  0  0  0  0  0  0  0  0  0
   -8.0490   20.4170  -32.1650 N   0  0  0  0  0  0  0  0  0  0  0  0
   -6.5940   20.4920  -32.4240 C   0  0  0  0  0  0  0  0  0  0  0  0
   -5.9830   19.1180  -32.7800 C   0  0  0  0  0  0  0  0  0  0  0  0
   -7.0600   18.1090  -33.1850 C   0  0  0  0  0  0  0  0  0  0  0  0
   -8.1090   17.9440  -32.0720 C   0  0  0  0  0  0  0  0  0  0  0  0
   -8.3740   19.2600  -31.3150 C   0  0  0  0  0  0  0  0  0  0  0  0
   -6.8490   23.9570  -31.8470 C   0  0  0  0  0  0  0  0  0  0  0  0
   -5.7300   24.7430  -31.5630 C   0  0  0  0  0  0  0  0  0  0  0  0
   -4.9500   24.4870  -30.4250 C   0  0  0  0  0  0  0  0  0  0  0  0
   -3.7520   25.2460  -30.2180 N   0  0  0  0  0  0  0  0  0  0  0  0
   -4.1110   18.4865  -25.3184 H   0  0  0  0  0  0  0  0  0  0  0  0
   -4.3450   19.3650  -26.8676 H   0  0  0  0  0  0  0  0  0  0  0  0
   -3.6191   17.7219  -26.8676 H   0  0  0  0  0  0  0  0  0  0  0  0
   -0.0314   18.0226  -26.6960 H   0  0  0  0  0  0  0  0  0  0  0  0
    1.4718   18.5242  -28.6188 H   0  0  0  0  0  0  0  0  0  0  0  0
    0.8310   20.2615  -30.2891 H   0  0  0  0  0  0  0  0  0  0  0  0
   -1.3094   21.5116  -30.0342 H   0  0  0  0  0  0  0  0  0  0  0  0
   -3.9530   20.6800  -27.6900 H   0  0  0  0  0  0  0  0  0  0  0  0
   -6.6990   21.8004  -29.2036 H   0  0  0  0  0  0  0  0  0  0  0  0
   -6.4204   21.1828  -33.2623 H   0  0  0  0  0  0  0  0  0  0  0  0
   -6.1088   20.8439  -31.5017 H   0  0  0  0  0  0  0  0  0  0  0  0
   -5.2810   19.2459  -33.6172 H   0  0  0  0  0  0  0  0  0  0  0  0
   -5.4668   18.7305  -31.8893 H   0  0  0  0  0  0  0  0  0  0  0  0
   -7.5586   18.4630  -34.0994 H   0  0  0  0  0  0  0  0  0  0  0  0
   -6.5792   17.1352  -33.3599 H   0  0  0  0  0  0  0  0  0  0  0  0
   -9.0515   17.5999  -32.5230 H   0  0  0  0  0  0  0  0  0  0  0  0
   -7.7183   17.2135  -31.3483 H   0  0  0  0  0  0  0  0  0  0  0  0
   -9.4355   19.3066  -31.0302 H   0  0  0  0  0  0  0  0  0  0  0  0
   -7.7394   19.2883  -30.4170 H   0  0  0  0  0  0  0  0  0  0  0  0
   -7.4550   24.1692  -32.7402 H   0  0  0  0  0  0  0  0  0  0  0  0
   -5.4581   25.5690  -32.2366 H   0  0  0  0  0  0  0  0  0  0  0  0
   -3.1580   25.0800  -29.3750 H   0  0  0  0  0  0  0  0  0  0  0  0
   -3.4910   26.0420  -30.8400 H   0  0  0  0  0  0  0  0  0  0  0  0
  1  2  1  0
  2  3  1  0
  3  4  2  0
  4  5  1  0
  5  6  2  0
  6  7  1  0
  7  8  2  0
  8  9  1  0
  9 10  1  0
 10 11  2  0
 10 12  1  0
 12 13  1  0
 13 14  2  0
 14 15  1  0
 15 16  1  0
 16 17  2  0
 16 18  2  0
 16 19  1  0
 19 20  1  0
 20 21  1  0
 21 22  1  0
 22 23  1  0
 23 24  1  0
 15 25  2  0
 25 26  1  0
 26 27  2  0
 27 28  1  0
  8  3  1  0
 27 13  1  0
 24 19  1  0
  1 29  1  0
  1 30  1  0
  1 31  1  0
  4 32  1  0
  5 33  1  0
  6 34  1  0
  7 35  1  0
  9 36  1  0
 14 37  1  0
 20 38  1  0
 20 39  1  0
 21 40  1  0
 21 41  1  0
 22 42  1  0
 22 43  1  0
 23 44  1  0
 23 45  1  0
 24 46  1  0
 24 47  1  0
 25 48  1  0
 26 49  1  0
 28 50  1  0
 28 51  1  0
M  CHG  1  12  -1
M  END
>  <UniqueID>  (13) 
13

>  <SMILES>  (13) 
COc1ccccc1NC(=O)[N-]c1cc(S(=O)(=O)N2CCCCC2)ccc1N

>  <Energy>  (13) 
63.98355875034018

>  <Genealogy>  (13) 
COc1ccccc1NC(=O)[N-]c1cc(S(=O)(=O)N2CCCCC2)ccc1N (protonated)
COc1ccccc1NC(=O)[N-]c1cc(S(=O)(=O)N2CCCCC2)ccc1N (3D coordinates assigned)
COc1ccccc1NC(=O)[N-]c1cc(S(=O)(=O)N2CCCCC2)ccc1N (nonaromatic ring conformer: 63.98355875034018 kcal/mol)

>  <smiles>  (13) 
COc1ccccc1NC(=O)Nc1cc(S(=O)(=O)N2CCCCC2)ccc1N

>  <score_type>  (13) 
oracle

>  <origin>  (13) 
adgpu

>  <m_score__min__energy>  (13) 
-10.99

>  <m_primary>  (13) 
energy

$$$$
13:0
     RDKit          3D

 48 50  0  0  0  0  0  0  0  0999 V2000
   -3.8710   25.2090  -30.7520 N   0  0  0  0  0  0  0  0  0  0  0  0
   -5.3300   25.0330  -29.8450 S   0  0  0  0  0  0  0  0  0  0  0  0
   -5.0010   24.6670  -28.4250 O   0  0  0  0  0  0  0  0  0  0  0  0
   -6.0780   26.3370  -29.8460 O   0  0  0  0  0  0  0  0  0  0  0  0
   -6.3250   23.7730  -30.5690 C   0  0  0  0  0  0  0  0  0  0  0  0
   -7.0960   22.9270  -29.7600 C   0  0  0  0  0  0  0  0  0  0  0  0
   -7.8920   21.9350  -30.3380 C   0  0  0  0  0  0  0  0  0  0  0  0
   -7.9400   21.7880  -31.7340 C   0  0  0  0  0  0  0  0  0  0  0  0
   -8.7680   20.6990  -32.3520 C   0  0  0  0  0  0  0  0  0  0  0  0
   -8.0150   20.0880  -33.4440 N   0  0  0  0  0  0  0  0  0  0  0  0
   -6.9730   18.8480  -32.8190 S   0  0  0  0  0  0  0  0  0  0  0  0
   -7.2690   18.6210  -31.3620 O   0  0  0  0  0  0  0  0  0  0  0  0
   -7.2270   17.5680  -33.5630 O   0  0  0  0  0  0  0  0  0  0  0  0
   -5.2860   19.3120  -33.0350 C   0  0  0  0  0  0  0  0  0  0  0  0
   -4.3720   18.3870  -33.5550 C   0  0  0  0  0  0  0  0  0  0  0  0
   -3.0370   18.7490  -33.7500 C   0  0  0  0  0  0  0  0  0  0  0  0
   -2.6060   20.0460  -33.4350 C   0  0  0  0  0  0  0  0  0  0  0  0
   -0.9200   20.5020  -33.6570 S   0  0  0  0  0  0  0  0  0  0  0  0
   -0.8570   21.8780  -34.2600 O   0  0  0  0  0  0  0  0  0  0  0  0
   -0.2510   19.5370  -34.5980 O   0  0  0  0  0  0  0  0  0  0  0  0
   -0.1160   20.5090  -32.1080 N   0  0  0  0  0  0  0  0  0  0  0  0
   -0.7070   21.4980  -31.2070 C   0  0  0  0  0  0  0  0  0  0  0  0
   -0.4590   20.9970  -29.7930 C   0  0  0  0  0  0  0  0  0  0  0  0
   -0.1730   19.5090  -29.9360 C   0  0  0  0  0  0  0  0  0  0  0  0
   -0.2620   19.2230  -31.4280 C   0  0  0  0  0  0  0  0  0  0  0  0
   -3.5190   20.9700  -32.9140 C   0  0  0  0  0  0  0  0  0  0  0  0
   -4.8550   20.6080  -32.7180 C   0  0  0  0  0  0  0  0  0  0  0  0
   -7.1600   22.6310  -32.5410 C   0  0  0  0  0  0  0  0  0  0  0  0
   -6.3630   23.6230  -31.9610 C   0  0  0  0  0  0  0  0  0  0  0  0
   -3.9120   26.1430  -31.2180 H   0  0  0  0  0  0  0  0  0  0  0  0
   -7.0743   23.0445  -28.6665 H   0  0  0  0  0  0  0  0  0  0  0  0
   -8.4841   21.2657  -29.6966 H   0  0  0  0  0  0  0  0  0  0  0  0
   -9.0003   19.9372  -31.5933 H   0  0  0  0  0  0  0  0  0  0  0  0
   -9.7066   21.1217  -32.7399 H   0  0  0  0  0  0  0  0  0  0  0  0
   -4.7069   17.3710  -33.8110 H   0  0  0  0  0  0  0  0  0  0  0  0
   -2.3223   18.0154  -34.1514 H   0  0  0  0  0  0  0  0  0  0  0  0
   -0.2288   22.4779  -31.3522 H   0  0  0  0  0  0  0  0  0  0  0  0
   -1.7825   21.6213  -31.4023 H   0  0  0  0  0  0  0  0  0  0  0  0
    0.4038   21.5137  -29.3474 H   0  0  0  0  0  0  0  0  0  0  0  0
   -1.3197   21.1868  -29.1348 H   0  0  0  0  0  0  0  0  0  0  0  0
    0.8324   19.2721  -29.5578 H   0  0  0  0  0  0  0  0  0  0  0  0
   -0.8829   18.8983  -29.3589 H   0  0  0  0  0  0  0  0  0  0  0  0
    0.5438   18.5389  -31.7323 H   0  0  0  0  0  0  0  0  0  0  0  0
   -1.2187   18.7445  -31.6843 H   0  0  0  0  0  0  0  0  0  0  0  0
   -3.1838   21.9858  -32.6575 H   0  0  0  0  0  0  0  0  0  0  0  0
   -5.5691   21.3410  -32.3145 H   0  0  0  0  0  0  0  0  0  0  0  0
   -7.1757   22.5108  -33.6343 H   0  0  0  0  0  0  0  0  0  0  0  0
   -5.7638   24.2879  -32.6004 H   0  0  0  0  0  0  0  0  0  0  0  0
  1  2  1  0
  2  3  2  0
  2  4  2  0
  2  5  1  0
  5  6  2  0
  6  7  1  0
  7  8  2  0
  8  9  1  0
  9 10  1  0
 10 11  1  0
 11 12  2  0
 11 13  2  0
 11 14  1  0
 14 15  2  0
 15 16  1  0
 16 17  2  0
 17 18  1  0
 18 19  2  0
 18 20  2  0
 18 21  1  0
 21 22  1  0
 22 23  1  0
 23 24  1  0
 24 25  1  0
 17 26  1  0
 26 27  2  0
  8 28  1  0
 28 29  2  0
 29  5  1  0
 27 14  1  0
 25 21  1  0
  1 30  1  0
  6 31  1  0
  7 32  1  0
  9 33  1  0
  9 34  1  0
 15 35  1  0
 16 36  1  0
 22 37  1  0
 22 38  1  0
 23 39  1  0
 23 40  1  0
 24 41  1  0
 24 42  1  0
 25 43  1  0
 25 44  1  0
 26 45  1  0
 27 46  1  0
 28 47  1  0
 29 48  1  0
M  CHG  2   1  -1  10  -1
M  END
>  <UniqueID>  (14) 
14

>  <SMILES>  (14) 
[NH-]S(=O)(=O)c1ccc(C[N-]S(=O)(=O)c2ccc(S(=O)(=O)N3CCCC3)cc2)cc1

>  <Energy>  (14) 
46.899363625617035

>  <Genealogy>  (14) 
[NH-]S(=O)(=O)c1ccc(C[N-]S(=O)(=O)c2ccc(S(=O)(=O)N3CCCC3)cc2)cc1 (protonated)
[NH-]S(=O)(=O)c1ccc(C[N-]S(=O)(=O)c2ccc(S(=O)(=O)N3CCCC3)cc2)cc1 (3D coordinates assigned)
[NH-]S(=O)(=O)c1ccc(C[N-]S(=O)(=O)c2ccc(S(=O)(=O)N3CCCC3)cc2)cc1 (nonaromatic ring conformer: 46.899363625617035 kcal/mol)

>  <smiles>  (14) 
NS(=O)(=O)c1ccc(CNS(=O)(=O)c2ccc(S(=O)(=O)N3CCCC3)cc2)cc1

>  <score_type>  (14) 
oracle

>  <origin>  (14) 
adgpu

>  <m_score__min__energy>  (14) 
-12.24

>  <m_primary>  (14) 
energy

$$$$
14:0
     RDKit          3D

 54 56  0  0  0  0  0  0  0  0999 V2000
   -6.8220   18.7450  -33.2410 C   0  0  0  0  0  0  0  0  0  0  0  0
   -7.8190   19.8960  -33.0600 C   0  0  0  0  0  0  0  0  0  0  0  0
   -9.0800   19.4230  -32.3270 C   0  0  0  0  0  0  0  0  0  0  0  0
   -7.1780   21.0680  -32.3420 C   0  0  0  0  0  0  0  0  0  0  0  0
   -7.8830   21.7970  -31.3660 C   0  0  0  0  0  0  0  0  0  0  0  0
   -7.2810   22.8750  -30.7130 C   0  0  0  0  0  0  0  0  0  0  0  0
   -5.9650   23.2430  -31.0240 C   0  0  0  0  0  0  0  0  0  0  0  0
   -5.2080   24.6200  -30.2310 S   0  0  0  0  0  0  0  0  0  0  0  0
   -4.2420   25.3030  -31.1600 O   0  0  0  0  0  0  0  0  0  0  0  0
   -6.2710   25.6050  -29.8380 O   0  0  0  0  0  0  0  0  0  0  0  0
   -4.3660   24.0910  -28.8140 N   0  0  0  0  0  0  0  0  0  0  0  0
   -3.0500   24.5400  -28.4900 C   0  0  0  0  0  0  0  0  0  0  0  0
   -2.4240   25.2910  -29.2870 O   0  0  0  0  0  0  0  0  0  0  0  0
   -2.4690   24.1660  -27.2350 N   0  0  0  0  0  0  0  0  0  0  0  0
   -1.1990   24.6600  -26.7820 C   0  0  0  0  0  0  0  0  0  0  0  0
   -1.0740   25.1950  -25.4890 C   0  0  0  0  0  0  0  0  0  0  0  0
    0.1360   25.7560  -25.0700 C   0  0  0  0  0  0  0  0  0  0  0  0
    1.2240   25.8030  -25.9420 C   0  0  0  0  0  0  0  0  0  0  0  0
    1.1100   25.2800  -27.2330 C   0  0  0  0  0  0  0  0  0  0  0  0
   -0.0870   24.6900  -27.6560 C   0  0  0  0  0  0  0  0  0  0  0  0
   -0.1440   24.1600  -28.9540 O   0  0  0  0  0  0  0  0  0  0  0  0
   -0.6030   22.8740  -29.2780 C   0  0  0  0  0  0  0  0  0  0  0  0
   -0.4640   21.8550  -28.3310 C   0  0  0  0  0  0  0  0  0  0  0  0
   -0.8940   20.5610  -28.6230 C   0  0  0  0  0  0  0  0  0  0  0  0
   -1.4740   20.2750  -29.8610 C   0  0  0  0  0  0  0  0  0  0  0  0
   -1.6410   21.2870  -30.8240 C   0  0  0  0  0  0  0  0  0  0  0  0
   -2.2770   20.9690  -32.1270 C   0  0  0  0  0  0  0  0  0  0  0  0
   -1.8850   21.6260  -33.3360 N   0  0  0  0  0  0  0  0  0  0  0  0
   -3.1730   20.0850  -32.1820 O   0  0  0  0  0  0  0  0  0  0  0  0
   -1.2160   22.5940  -30.5130 C   0  0  0  0  0  0  0  0  0  0  0  0
   -5.2600   22.5270  -31.9980 C   0  0  0  0  0  0  0  0  0  0  0  0
   -5.8590   21.4470  -32.6510 C   0  0  0  0  0  0  0  0  0  0  0  0
   -6.5035   18.3773  -32.2544 H   0  0  0  0  0  0  0  0  0  0  0  0
   -7.3026   17.9280  -33.7992 H   0  0  0  0  0  0  0  0  0  0  0  0
   -5.9448   19.1041  -33.7992 H   0  0  0  0  0  0  0  0  0  0  0  0
   -8.1197   20.2397  -34.0607 H   0  0  0  0  0  0  0  0  0  0  0  0
   -8.9173   19.4840  -31.2408 H   0  0  0  0  0  0  0  0  0  0  0  0
   -9.9291   20.0638  -32.6072 H   0  0  0  0  0  0  0  0  0  0  0  0
   -9.2982   18.3819  -32.6072 H   0  0  0  0  0  0  0  0  0  0  0  0
   -8.9164   21.5155  -31.1155 H   0  0  0  0  0  0  0  0  0  0  0  0
   -7.8419   23.4372  -29.9518 H   0  0  0  0  0  0  0  0  0  0  0  0
   -3.0670   23.6340  -26.5630 H   0  0  0  0  0  0  0  0  0  0  0  0
   -1.9331   25.1723  -24.8024 H   0  0  0  0  0  0  0  0  0  0  0  0
    0.2303   26.1608  -24.0516 H   0  0  0  0  0  0  0  0  0  0  0  0
    2.1727   26.2522  -25.6130 H   0  0  0  0  0  0  0  0  0  0  0  0
    1.9665   25.3323  -27.9213 H   0  0  0  0  0  0  0  0  0  0  0  0
   -0.0137   22.0748  -27.3518 H   0  0  0  0  0  0  0  0  0  0  0  0
   -0.7760   19.7626  -27.8756 H   0  0  0  0  0  0  0  0  0  0  0  0
   -1.8031   19.2496  -30.0850 H   0  0  0  0  0  0  0  0  0  0  0  0
   -2.3810   21.4070  -34.2290 H   0  0  0  0  0  0  0  0  0  0  0  0
   -1.0640   22.2640  -33.3800 H   0  0  0  0  0  0  0  0  0  0  0  0
   -1.3650   23.4033  -31.2430 H   0  0  0  0  0  0  0  0  0  0  0  0
   -4.2292   22.8160  -32.2507 H   0  0  0  0  0  0  0  0  0  0  0  0
   -5.2949   20.8887  -33.4126 H   0  0  0  0  0  0  0  0  0  0  0  0
  1  2  1  0
  2  3  1  0
  2  4  1  0
  4  5  2  0
  5  6  1  0
  6  7  2  0
  7  8  1  0
  8  9  2  0
  8 10  2  0
  8 11  1  0
 11 12  1  0
 12 13  2  0
 12 14  1  0
 14 15  1  0
 15 16  2  0
 16 17  1  0
 17 18  2  0
 18 19  1  0
 19 20  2  0
 20 21  1  0
 21 22  1  0
 22 23  2  0
 23 24  1  0
 24 25  2  0
 25 26  1  0
 26 27  1  0
 27 28  1  0
 27 29  2  0
 26 30  2  0
  7 31  1  0
 31 32  2  0
 32  4  1  0
 20 15  1  0
 30 22  1  0
  1 33  1  0
  1 34  1  0
  1 35  1  0
  2 36  1  0
  3 37  1  0
  3 38  1  0
  3 39  1  0
  5 40  1  0
  6 41  1  0
 14 42  1  0
 16 43  1  0
 17 44  1  0
 18 45  1  0
 19 46  1  0
 23 47  1  0
 24 48  1  0
 25 49  1  0
 28 50  1  0
 28 51  1  0
 30 52  1  0
 31 53  1  0
 32 54  1  0
M  CHG  1  11  -1
M  END
>  <UniqueID>  (15) 
15

>  <SMILES>  (15) 
CC(C)c1ccc(S(=O)(=O)[N-]C(=O)Nc2ccccc2Oc2cccc(C(N)=O)c2)cc1

>  <Energy>  (15) 
64.81885795887348

>  <Genealogy>  (15) 
CC(C)c1ccc(S(=O)(=O)[N-]C(=O)Nc2ccccc2Oc2cccc(C(N)=O)c2)cc1 (protonated)
CC(C)c1ccc(S(=O)(=O)[N-]C(=O)Nc2ccccc2Oc2cccc(C(N)=O)c2)cc1 (3D coordinates assigned)
CC(C)c1ccc(S(=O)(=O)[N-]C(=O)Nc2ccccc2Oc2cccc(C(N)=O)c2)cc1 (optimized conformer: 64.81885795887348 kcal/mol)

>  <smiles>  (15) 
CC(C)c1ccc(S(=O)(=O)NC(=O)Nc2ccccc2Oc2cccc(C(N)=O)c2)cc1

>  <score_type>  (15) 
oracle

>  <origin>  (15) 
adgpu

>  <m_score__min__energy>  (15) 
-11.630000000000001

>  <m_primary>  (15) 
energy

$$$$
15:0
     RDKit          3D

 77 81  0  0  0  0  0  0  0  0999 V2000
   -3.8150   15.7640  -35.6880 O   0  0  0  0  0  0  0  0  0  0  0  0
   -3.5870   16.4590  -34.6630 C   0  0  0  0  0  0  0  0  0  0  0  0
   -2.2460   16.5060  -34.1630 N   0  0  0  0  0  0  0  0  0  0  0  0
   -1.2400   17.4790  -34.4950 C   0  0  0  0  0  0  0  0  0  0  0  0
   -0.1040   17.1350  -35.2530 C   0  0  0  0  0  0  0  0  0  0  0  0
    0.8390   18.1070  -35.5880 C   0  0  0  0  0  0  0  0  0  0  0  0
    0.6580   19.4290  -35.1770 C   0  0  0  0  0  0  0  0  0  0  0  0
   -0.4770   19.7860  -34.4460 C   0  0  0  0  0  0  0  0  0  0  0  0
   -1.4400   18.8160  -34.1210 C   0  0  0  0  0  0  0  0  0  0  0  0
   -2.5890   19.1610  -33.3980 O   0  0  0  0  0  0  0  0  0  0  0  0
   -2.7730   20.3720  -32.7070 C   0  0  0  0  0  0  0  0  0  0  0  0
   -3.7080   21.3380  -33.1090 C   0  0  0  0  0  0  0  0  0  0  0  0
   -3.9240   22.4720  -32.3310 C   0  0  0  0  0  0  0  0  0  0  0  0
   -3.2490   22.6510  -31.1110 C   0  0  0  0  0  0  0  0  0  0  0  0
   -3.7400   24.0140  -30.0830 S   0  0  0  0  0  0  0  0  0  0  0  0
   -4.6260   24.9470  -30.8530 O   0  0  0  0  0  0  0  0  0  0  0  0
   -4.4830   23.4960  -28.8870 O   0  0  0  0  0  0  0  0  0  0  0  0
   -2.3500   24.9000  -29.5170 N   0  0  0  0  0  0  0  0  0  0  0  0
   -2.1580   24.7440  -28.0710 C   0  0  0  0  0  0  0  0  0  0  0  0
   -1.0510   25.6730  -27.5150 C   0  0  0  0  0  0  0  0  0  0  0  0
   -1.4880   26.6930  -26.5310 N   0  0  0  0  0  0  0  0  0  0  0  0
   -1.9520   26.1460  -25.2480 C   0  0  0  0  0  0  0  0  0  0  0  0
   -1.0400   26.6780  -24.1460 C   0  0  0  0  0  0  0  0  0  0  0  0
    0.0450   27.4680  -24.8510 C   0  0  0  0  0  0  0  0  0  0  0  0
   -0.5000   27.7360  -26.2400 C   0  0  0  0  0  0  0  0  0  0  0  0
   -2.2410   21.7180  -30.7320 C   0  0  0  0  0  0  0  0  0  0  0  0
   -1.4650   21.8290  -29.4280 C   0  0  0  0  0  0  0  0  0  0  0  0
   -2.3180   22.0110  -28.3530 F   0  0  0  0  0  0  0  0  0  0  0  0
   -0.5930   22.9050  -29.4450 F   0  0  0  0  0  0  0  0  0  0  0  0
   -0.7210   20.6780  -29.2380 F   0  0  0  0  0  0  0  0  0  0  0  0
   -2.0340   20.5840  -31.5430 C   0  0  0  0  0  0  0  0  0  0  0  0
   -4.6930   17.2310  -34.0470 C   0  0  0  0  0  0  0  0  0  0  0  0
   -5.2440   18.3470  -34.6960 C   0  0  0  0  0  0  0  0  0  0  0  0
   -6.2730   19.0790  -34.0990 C   0  0  0  0  0  0  0  0  0  0  0  0
   -6.7790   18.6930  -32.8510 C   0  0  0  0  0  0  0  0  0  0  0  0
   -8.0420   19.6580  -32.0920 S   0  0  0  0  0  0  0  0  0  0  0  0
   -8.6650   18.9030  -30.9490 O   0  0  0  0  0  0  0  0  0  0  0  0
   -9.1040   19.9470  -33.1180 O   0  0  0  0  0  0  0  0  0  0  0  0
   -7.3490   21.1520  -31.5120 N   0  0  0  0  0  0  0  0  0  0  0  0
   -8.1530   21.6760  -30.3960 C   0  0  0  0  0  0  0  0  0  0  0  0
   -7.5880   23.0290  -29.9480 C   0  0  0  0  0  0  0  0  0  0  0  0
   -7.5860   23.9510  -31.0200 O   0  0  0  0  0  0  0  0  0  0  0  0
   -6.7680   23.4680  -32.0680 C   0  0  0  0  0  0  0  0  0  0  0  0
   -7.3040   22.1360  -32.6040 C   0  0  0  0  0  0  0  0  0  0  0  0
   -6.2520   17.5680  -32.2080 C   0  0  0  0  0  0  0  0  0  0  0  0
   -5.2200   16.8380  -32.8030 C   0  0  0  0  0  0  0  0  0  0  0  0
    0.0404   16.0954  -35.5823 H   0  0  0  0  0  0  0  0  0  0  0  0
    1.7264   17.8315  -36.1768 H   0  0  0  0  0  0  0  0  0  0  0  0
    1.4106   20.1905  -35.4294 H   0  0  0  0  0  0  0  0  0  0  0  0
   -0.6173   20.8284  -34.1241 H   0  0  0  0  0  0  0  0  0  0  0  0
   -4.2726   21.1986  -34.0427 H   0  0  0  0  0  0  0  0  0  0  0  0
   -4.6331   23.2390  -32.6759 H   0  0  0  0  0  0  0  0  0  0  0  0
   -3.1044   24.9796  -27.5622 H   0  0  0  0  0  0  0  0  0  0  0  0
   -1.8463   23.7055  -27.8859 H   0  0  0  0  0  0  0  0  0  0  0  0
   -0.2939   25.0400  -27.0291 H   0  0  0  0  0  0  0  0  0  0  0  0
   -0.6780   26.2391  -28.3812 H   0  0  0  0  0  0  0  0  0  0  0  0
   -2.9880   26.4644  -25.0602 H   0  0  0  0  0  0  0  0  0  0  0  0
   -1.9209   25.0467  -25.2697 H   0  0  0  0  0  0  0  0  0  0  0  0
   -1.6049   27.3291  -23.4627 H   0  0  0  0  0  0  0  0  0  0  0  0
   -0.6177   25.8617  -23.5416 H   0  0  0  0  0  0  0  0  0  0  0  0
    0.2389   28.4135  -24.3233 H   0  0  0  0  0  0  0  0  0  0  0  0
    0.9990   26.9212  -24.8813 H   0  0  0  0  0  0  0  0  0  0  0  0
   -0.9779   28.7262  -26.2720 H   0  0  0  0  0  0  0  0  0  0  0  0
    0.3097   27.7231  -26.9845 H   0  0  0  0  0  0  0  0  0  0  0  0
   -1.2707   19.8478  -31.2508 H   0  0  0  0  0  0  0  0  0  0  0  0
   -4.8623   18.6476  -35.6829 H   0  0  0  0  0  0  0  0  0  0  0  0
   -6.6870   19.9607  -34.6100 H   0  0  0  0  0  0  0  0  0  0  0  0
   -9.1951   21.8046  -30.7239 H   0  0  0  0  0  0  0  0  0  0  0  0
   -8.1171   20.9679  -29.5550 H   0  0  0  0  0  0  0  0  0  0  0  0
   -8.2085   23.4265  -29.1313 H   0  0  0  0  0  0  0  0  0  0  0  0
   -6.5528   22.8834  -29.6057 H   0  0  0  0  0  0  0  0  0  0  0  0
   -6.7533   24.2057  -32.8838 H   0  0  0  0  0  0  0  0  0  0  0  0
   -5.7516   23.3091  -31.6786 H   0  0  0  0  0  0  0  0  0  0  0  0
   -8.3169   22.2836  -33.0069 H   0  0  0  0  0  0  0  0  0  0  0  0
   -6.6424   21.7686  -33.4023 H   0  0  0  0  0  0  0  0  0  0  0  0
   -6.6512   17.2573  -31.2312 H   0  0  0  0  0  0  0  0  0  0  0  0
   -4.8165   15.9495  -32.2952 H   0  0  0  0  0  0  0  0  0  0  0  0
  1  2  2  0
  2  3  1  0
  3  4  1  0
  4  5  2  0
  5  6  1  0
  6  7  2  0
  7  8  1  0
  8  9  2  0
  9 10  1  0
 10 11  1  0
 11 12  2  0
 12 13  1  0
 13 14  2  0
 14 15  1  0
 15 16  2  0
 15 17  2  0
 15 18  1  0
 18 19  1  0
 19 20  1  0
 20 21  1  0
 21 22  1  0
 22 23  1  0
 23 24  1  0
 24 25  1  0
 14 26  1  0
 26 27  1  0
 27 28  1  0
 27 29  1  0
 27 30  1  0
 26 31  2  0
  2 32  1  0
 32 33  2  0
 33 34  1  0
 34 35  2  0
 35 36  1  0
 36 37  2  0
 36 38  2  0
 36 39  1  0
 39 40  1  0
 40 41  1  0
 41 42  1  0
 42 43  1  0
 43 44  1  0
 35 45  1  0
 45 46  2  0
  9  4  1  0
 31 11  1  0
 46 32  1  0
 25 21  1  0
 44 39  1  0
  5 47  1  0
  6 48  1  0
  7 49  1  0
  8 50  1  0
 12 51  1  0
 13 52  1  0
 19 53  1  0
 19 54  1  0
 20 55  1  0
 20 56  1  0
 22 57  1  0
 22 58  1  0
 23 59  1  0
 23 60  1  0
 24 61  1  0
 24 62  1  0
 25 63  1  0
 25 64  1  0
 31 65  1  0
 33 66  1  0
 34 67  1  0
 40 68  1  0
 40 69  1  0
 41 70  1  0
 41 71  1  0
 43 72  1  0
 43 73  1  0
 44 74  1  0
 44 75  1  0
 45 76  1  0
 46 77  1  0
M  CHG  2   3  -1  18  -1
M  END
>  <UniqueID>  (16) 
16

>  <SMILES>  (16) 
O=C([N-]c1ccccc1Oc1ccc(S(=O)(=O)[N-]CCN2CCCC2)c(C(F)(F)F)c1)c1ccc(S(=O)(=O)N2CCOCC2)cc1

>  <Energy>  (16) 
107.85704496159303

>  <Genealogy>  (16) 
O=C([N-]c1ccccc1Oc1ccc(S(=O)(=O)[N-]CCN2CCCC2)c(C(F)(F)F)c1)c1ccc(S(=O)(=O)N2CCOCC2)cc1 (protonated)
O=C([N-]c1ccccc1Oc1ccc(S(=O)(=O)[N-]CCN2CCCC2)c(C(F)(F)F)c1)c1ccc(S(=O)(=O)N2CCOCC2)cc1 (3D coordinates assigned)
O=C([N-]c1ccccc1Oc1ccc(S(=O)(=O)[N-]CCN2CCCC2)c(C(F)(F)F)c1)c1ccc(S(=O)(=O)N2CCOCC2)cc1 (nonaromatic ring conformer: 107.85704496159303 kcal/mol)

>  <smiles>  (16) 
O=C(Nc1ccccc1Oc1ccc(S(=O)(=O)NCCN2CCCC2)c(C(F)(F)F)c1)c1ccc(S(=O)(=O)N2CCOCC2)cc1

>  <score_type>  (16) 
oracle

>  <origin>  (16) 
adgpu

>  <m_score__min__energy>  (16) 
-13.31

>  <m_primary>  (16) 
energy

$$$$
16:0
     RDKit          3D

 52 55  0  0  0  0  0  0  0  0999 V2000
    0.7410   27.2660  -23.3950 C   0  0  0  0  0  0  0  0  0  0  0  0
   -0.6380   27.0640  -24.0340 C   0  0  0  0  0  0  0  0  0  0  0  0
   -0.8440   28.0060  -25.2470 C   0  0  0  0  0  0  0  0  0  0  0  0
   -0.6160   27.2700  -26.5720 C   0  0  0  0  0  0  0  0  0  0  0  0
   -1.5760   26.1550  -26.7510 N   0  0  0  0  0  0  0  0  0  0  0  0
   -0.9840   25.0490  -27.9700 S   0  0  0  0  0  0  0  0  0  0  0  0
   -1.3060   25.6100  -29.3260 O   0  0  0  0  0  0  0  0  0  0  0  0
    0.5070   24.9040  -27.8410 O   0  0  0  0  0  0  0  0  0  0  0  0
   -1.7030   23.4430  -27.7390 C   0  0  0  0  0  0  0  0  0  0  0  0
   -0.8420   22.3450  -27.5920 C   0  0  0  0  0  0  0  0  0  0  0  0
   -1.3530   21.0520  -27.4920 C   0  0  0  0  0  0  0  0  0  0  0  0
   -2.7300   20.8570  -27.5600 C   0  0  0  0  0  0  0  0  0  0  0  0
   -3.5580   21.9190  -27.7260 N   0  0  0  0  0  0  0  0  0  0  0  0
   -3.0950   23.1970  -27.8240 C   0  0  0  0  0  0  0  0  0  0  0  0
   -4.0800   24.2810  -28.0090 C   0  0  0  0  0  0  0  0  0  0  0  0
   -4.9790   24.3130  -29.0030 C   0  0  0  0  0  0  0  0  0  0  0  0
   -5.0090   23.3740  -30.1490 C   0  0  0  0  0  0  0  0  0  0  0  0
   -3.8640   23.1160  -30.9170 C   0  0  0  0  0  0  0  0  0  0  0  0
   -3.9300   22.2490  -32.0070 C   0  0  0  0  0  0  0  0  0  0  0  0
   -5.1420   21.6430  -32.3630 C   0  0  0  0  0  0  0  0  0  0  0  0
   -5.1780   20.7870  -33.4630 O   0  0  0  0  0  0  0  0  0  0  0  0
   -6.3130   21.9110  -31.6170 C   0  0  0  0  0  0  0  0  0  0  0  0
   -7.5760   21.2990  -31.9700 N   0  0  0  0  0  0  0  0  0  0  0  0
   -8.8240   21.7770  -31.7920 C   0  0  0  0  0  0  0  0  0  0  0  0
   -9.7250   20.8940  -32.2590 N   0  0  0  0  0  0  0  0  0  0  0  0
   -9.0110   19.8780  -32.7230 N   0  0  0  0  0  0  0  0  0  0  0  0
   -7.7210   20.1190  -32.5490 N   0  0  0  0  0  0  0  0  0  0  0  0
   -6.2270   22.7860  -30.5150 C   0  0  0  0  0  0  0  0  0  0  0  0
   -1.9190   25.4360  -25.4980 C   0  0  0  0  0  0  0  0  0  0  0  0
   -0.8430   25.5790  -24.4110 C   0  0  0  0  0  0  0  0  0  0  0  0
    0.6431   27.2517  -22.2995 H   0  0  0  0  0  0  0  0  0  0  0  0
    1.4148   26.4570  -23.7135 H   0  0  0  0  0  0  0  0  0  0  0  0
    1.1544   28.2343  -23.7135 H   0  0  0  0  0  0  0  0  0  0  0  0
   -1.4067   27.3321  -23.2943 H   0  0  0  0  0  0  0  0  0  0  0  0
   -1.8723   28.3960  -25.2266 H   0  0  0  0  0  0  0  0  0  0  0  0
   -0.1140   28.8258  -25.1764 H   0  0  0  0  0  0  0  0  0  0  0  0
   -0.7381   27.9823  -27.4013 H   0  0  0  0  0  0  0  0  0  0  0  0
    0.4004   26.8494  -26.5606 H   0  0  0  0  0  0  0  0  0  0  0  0
    0.2456   22.5059  -27.5554 H   0  0  0  0  0  0  0  0  0  0  0  0
   -0.6759   20.1951  -27.3608 H   0  0  0  0  0  0  0  0  0  0  0  0
   -3.1465   19.8421  -27.4792 H   0  0  0  0  0  0  0  0  0  0  0  0
   -4.0760   25.1120  -27.2883 H   0  0  0  0  0  0  0  0  0  0  0  0
   -5.7521   25.0946  -28.9651 H   0  0  0  0  0  0  0  0  0  0  0  0
   -2.9104   23.5995  -30.6584 H   0  0  0  0  0  0  0  0  0  0  0  0
   -3.0227   22.0390  -32.5924 H   0  0  0  0  0  0  0  0  0  0  0  0
   -6.0530   20.4730  -33.8670 H   0  0  0  0  0  0  0  0  0  0  0  0
   -9.0693   22.7460  -31.3327 H   0  0  0  0  0  0  0  0  0  0  0  0
   -7.1323   23.0111  -29.9321 H   0  0  0  0  0  0  0  0  0  0  0  0
   -2.8656   25.8400  -25.1097 H   0  0  0  0  0  0  0  0  0  0  0  0
   -1.9993   24.3667  -25.7433 H   0  0  0  0  0  0  0  0  0  0  0  0
   -1.1568   25.0199  -23.5171 H   0  0  0  0  0  0  0  0  0  0  0  0
    0.1056   25.1794  -24.7990 H   0  0  0  0  0  0  0  0  0  0  0  0
  1  2  1  0
  2  3  1  0
  3  4  1  0
  4  5  1  0
  5  6  1  0
  6  7  2  0
  6  8  2  0
  6  9  1  0
  9 10  2  0
 10 11  1  0
 11 12  2  0
 12 13  1  0
 13 14  2  0
 14 15  1  0
 15 16  2  3
 16 17  1  0
 17 18  2  0
 18 19  1  0
 19 20  2  0
 20 21  1  0
 20 22  1  0
 22 23  1  0
 23 24  1  0
 24 25  2  0
 25 26  1  0
 26 27  2  0
 22 28  2  0
  5 29  1  0
 29 30  1  0
 30  2  1  0
 14  9  1  0
 28 17  1  0
 27 23  1  0
  1 31  1  0
  1 32  1  0
  1 33  1  0
  2 34  1  0
  3 35  1  0
  3 36  1  0
  4 37  1  0
  4 38  1  0
 10 39  1  0
 11 40  1  0
 12 41  1  0
 15 42  1  0
 16 43  1  0
 18 44  1  0
 19 45  1  0
 21 46  1  0
 24 47  1  0
 28 48  1  0
 29 49  1  0
 29 50  1  0
 30 51  1  0
 30 52  1  0
M  END
>  <UniqueID>  (17) 
17

>  <SMILES>  (17) 
CC1CCN(S(=O)(=O)c2cccnc2C=Cc2ccc(O)c(-n3cnnn3)c2)CC1

>  <Energy>  (17) 
115.96171086888276

>  <Genealogy>  (17) 
CC1CCN(S(=O)(=O)c2cccnc2C=Cc2ccc(O)c(-n3cnnn3)c2)CC1 (3D coordinates assigned)
CC1CCN(S(=O)(=O)c2cccnc2C=Cc2ccc(O)c(-n3cnnn3)c2)CC1 (nonaromatic ring conformer: 115.96171086888276 kcal/mol)

>  <smiles>  (17) 
CC1CCN(S(=O)(=O)c2cccnc2C=Cc2ccc(O)c(-n3cnnn3)c2)CC1

>  <score_type>  (17) 
oracle

>  <origin>  (17) 
adgpu

>  <m_score__min__energy>  (17) 
-10.300000000000001

>  <m_primary>  (17) 
energy

$$$$
17:0
     RDKit          3D

 33 34  0  0  0  0  0  0  0  0999 V2000
    1.4250   14.6140  -27.2220 C   0  0  0  0  0  0  0  0  0  0  0  0
    1.5220   16.1400  -27.1530 C   0  0  0  0  0  0  0  0  0  0  0  0
    2.9060   16.5970  -26.6830 C   0  0  0  0  0  0  0  0  0  0  0  0
    1.0410   16.9330  -28.7420 S   0  0  0  0  0  0  0  0  0  0  0  0
    0.3760   18.4530  -28.0640 C   0  0  0  0  0  0  0  0  0  0  0  0
   -0.9050   18.4950  -27.6180 N   0  0  0  0  0  0  0  0  0  0  0  0
   -1.4370   19.6360  -27.1110 C   0  0  0  0  0  0  0  0  0  0  0  0
   -2.6270   19.6290  -26.6970 O   0  0  0  0  0  0  0  0  0  0  0  0
   -0.6610   20.8080  -27.0530 C   0  0  0  0  0  0  0  0  0  0  0  0
   -1.2050   22.0830  -26.4490 C   0  0  0  0  0  0  0  0  0  0  0  0
   -1.8320   22.9450  -27.5130 C   0  0  0  0  0  0  0  0  0  0  0  0
   -2.8640   22.4390  -28.3200 C   0  0  0  0  0  0  0  0  0  0  0  0
   -3.4230   23.2270  -29.3300 C   0  0  0  0  0  0  0  0  0  0  0  0
   -2.9520   24.5250  -29.5480 C   0  0  0  0  0  0  0  0  0  0  0  0
   -3.5110   25.3040  -30.5540 O   0  0  0  0  0  0  0  0  0  0  0  0
   -1.9200   25.0360  -28.7530 C   0  0  0  0  0  0  0  0  0  0  0  0
   -1.4460   26.3260  -28.9660 O   0  0  0  0  0  0  0  0  0  0  0  0
   -1.3600   24.2490  -27.7410 C   0  0  0  0  0  0  0  0  0  0  0  0
    0.6590   20.7410  -27.5340 C   0  0  0  0  0  0  0  0  0  0  0  0
    1.4850   21.8580  -27.5100 O   0  0  0  0  0  0  0  0  0  0  0  0
    1.1410   19.5730  -28.0310 N   0  0  0  0  0  0  0  0  0  0  0  0
    1.3988   14.2018  -26.2025 H   0  0  0  0  0  0  0  0  0  0  0  0
    0.5069   14.3287  -27.7565 H   0  0  0  0  0  0  0  0  0  0  0  0
    2.2996   14.2148  -27.7565 H   0  0  0  0  0  0  0  0  0  0  0  0
    0.7958   16.4756  -26.3981 H   0  0  0  0  0  0  0  0  0  0  0  0
    2.9351   16.6066  -25.5834 H   0  0  0  0  0  0  0  0  0  0  0  0
    3.6701   15.9035  -27.0640 H   0  0  0  0  0  0  0  0  0  0  0  0
    3.1069   17.6092  -27.0640 H   0  0  0  0  0  0  0  0  0  0  0  0
   -1.9639   21.8307  -25.6937 H   0  0  0  0  0  0  0  0  0  0  0  0
   -0.3769   22.6379  -25.9838 H   0  0  0  0  0  0  0  0  0  0  0  0
   -3.2346   21.4163  -28.1562 H   0  0  0  0  0  0  0  0  0  0  0  0
   -4.2347   22.8252  -29.9542 H   0  0  0  0  0  0  0  0  0  0  0  0
   -0.5463   24.6528  -27.1207 H   0  0  0  0  0  0  0  0  0  0  0  0
  1  2  1  0
  2  3  1  0
  2  4  1  0
  4  5  1  0
  5  6  2  0
  6  7  1  0
  7  8  2  0
  7  9  1  0
  9 10  1  0
 10 11  1  0
 11 12  2  0
 12 13  1  0
 13 14  2  0
 14 15  1  0
 14 16  1  0
 16 17  1  0
 16 18  2  0
  9 19  2  0
 19 20  1  0
 19 21  1  0
 21  5  1  0
 18 11  1  0
  1 22  1  0
  1 23  1  0
  1 24  1  0
  2 25  1  0
  3 26  1  0
  3 27  1  0
  3 28  1  0
 10 29  1  0
 10 30  1  0
 12 31  1  0
 13 32  1  0
 18 33  1  0
M  CHG  4  15  -1  17  -1  20  -1  21  -1
M  END
>  <UniqueID>  (18) 
18

>  <SMILES>  (18) 
CC(C)Sc1nc(=O)c(Cc2ccc([O-])c([O-])c2)c([O-])[n-]1

>  <Energy>  (18) 
28.76350676937106

>  <Genealogy>  (18) 
CC(C)Sc1nc(=O)c(Cc2ccc([O-])c([O-])c2)c([O-])[n-]1 (protonated)
CC(C)Sc1nc(=O)c(Cc2ccc([O-])c([O-])c2)c([O-])[n-]1 (3D coordinates assigned)
CC(C)Sc1nc(=O)c(Cc2ccc([O-])c([O-])c2)c([O-])[n-]1 (optimized conformer: 28.76350676937106 kcal/mol)

>  <smiles>  (18) 
CC(C)Sc1nc(=O)c(Cc2ccc(O)c(O)c2)c(O)[nH]1

>  <score_type>  (18) 
oracle

>  <origin>  (18) 
adgpu

>  <m_score__min__energy>  (18) 
-12.289999999999999

>  <m_primary>  (18) 
energy

$$$$
18:0
     RDKit          3D

 50 52  0  0  0  0  0  0  0  0999 V2000
   -3.0000   20.4980  -33.1470 C   0  0  0  0  0  0  0  0  0  0  0  0
   -4.2330   21.2490  -32.7390 C   0  0  0  0  0  0  0  0  0  0  0  0
   -5.5020   20.7760  -33.0920 C   0  0  0  0  0  0  0  0  0  0  0  0
   -6.6470   21.4600  -32.6810 C   0  0  0  0  0  0  0  0  0  0  0  0
   -6.5460   22.6200  -31.8950 C   0  0  0  0  0  0  0  0  0  0  0  0
   -7.8090   23.3360  -31.4890 C   0  0  0  0  0  0  0  0  0  0  0  0
   -5.2650   23.1020  -31.5300 C   0  0  0  0  0  0  0  0  0  0  0  0
   -5.0640   24.5550  -30.5370 S   0  0  0  0  0  0  0  0  0  0  0  0
   -5.6910   24.3230  -29.1920 O   0  0  0  0  0  0  0  0  0  0  0  0
   -5.7200   25.7220  -31.2210 O   0  0  0  0  0  0  0  0  0  0  0  0
   -3.3790   24.9070  -30.3270 N   0  0  0  0  0  0  0  0  0  0  0  0
   -2.6100   24.6000  -29.1560 C   0  0  0  0  0  0  0  0  0  0  0  0
   -3.0250   23.6390  -28.2170 C   0  0  0  0  0  0  0  0  0  0  0  0
   -2.2430   23.3740  -27.0890 C   0  0  0  0  0  0  0  0  0  0  0  0
   -1.0440   24.0670  -26.8820 C   0  0  0  0  0  0  0  0  0  0  0  0
   -0.0530   23.7030  -25.4700 S   0  0  0  0  0  0  0  0  0  0  0  0
    1.3700   23.5130  -25.9160 O   0  0  0  0  0  0  0  0  0  0  0  0
   -0.5280   22.4280  -24.8280 O   0  0  0  0  0  0  0  0  0  0  0  0
   -0.1390   25.0170  -24.3230 N   0  0  0  0  0  0  0  0  0  0  0  0
    1.1470   25.7500  -24.3000 C   0  0  0  0  0  0  0  0  0  0  0  0
    0.9880   27.1440  -23.6840 C   0  0  0  0  0  0  0  0  0  0  0  0
    0.0250   28.0110  -24.5150 C   0  0  0  0  0  0  0  0  0  0  0  0
   -0.9900   27.1730  -25.3120 C   0  0  0  0  0  0  0  0  0  0  0  0
   -1.3300   25.8680  -24.5770 C   0  0  0  0  0  0  0  0  0  0  0  0
   -0.6260   25.0200  -27.8190 C   0  0  0  0  0  0  0  0  0  0  0  0
   -1.4060   25.2850  -28.9480 C   0  0  0  0  0  0  0  0  0  0  0  0
   -4.1210   22.4000  -31.9470 C   0  0  0  0  0  0  0  0  0  0  0  0
   -2.4578   20.1677  -32.2487 H   0  0  0  0  0  0  0  0  0  0  0  0
   -3.2863   19.6207  -33.7457 H   0  0  0  0  0  0  0  0  0  0  0  0
   -2.3519   21.1549  -33.7457 H   0  0  0  0  0  0  0  0  0  0  0  0
   -5.5973   19.8615  -33.6958 H   0  0  0  0  0  0  0  0  0  0  0  0
   -7.6390   21.0869  -32.9756 H   0  0  0  0  0  0  0  0  0  0  0  0
   -7.8732   23.3724  -30.3915 H   0  0  0  0  0  0  0  0  0  0  0  0
   -7.7947   24.3603  -31.8896 H   0  0  0  0  0  0  0  0  0  0  0  0
   -8.6806   22.7977  -31.8896 H   0  0  0  0  0  0  0  0  0  0  0  0
   -3.9681   23.0940  -28.3706 H   0  0  0  0  0  0  0  0  0  0  0  0
   -2.5710   22.6177  -26.3607 H   0  0  0  0  0  0  0  0  0  0  0  0
    1.8742   25.1774  -23.7056 H   0  0  0  0  0  0  0  0  0  0  0  0
    1.4953   25.8685  -25.3367 H   0  0  0  0  0  0  0  0  0  0  0  0
    0.5901   27.0425  -22.6635 H   0  0  0  0  0  0  0  0  0  0  0  0
    1.9731   27.6332  -23.6683 H   0  0  0  0  0  0  0  0  0  0  0  0
   -0.5256   28.6769  -23.8343 H   0  0  0  0  0  0  0  0  0  0  0  0
    0.6287   28.5784  -25.2385 H   0  0  0  0  0  0  0  0  0  0  0  0
   -1.9110   27.7588  -25.4481 H   0  0  0  0  0  0  0  0  0  0  0  0
   -0.5449   26.9193  -26.2854 H   0  0  0  0  0  0  0  0  0  0  0  0
   -1.7930   26.1200  -23.6115 H   0  0  0  0  0  0  0  0  0  0  0  0
   -2.0119   25.2951  -25.2226 H   0  0  0  0  0  0  0  0  0  0  0  0
    0.3191   25.5617  -27.6660 H   0  0  0  0  0  0  0  0  0  0  0  0
   -1.0721   26.0367  -29.6783 H   0  0  0  0  0  0  0  0  0  0  0  0
   -3.1250   22.7585  -31.6480 H   0  0  0  0  0  0  0  0  0  0  0  0
  1  2  1  0
  2  3  2  0
  3  4  1  0
  4  5  2  0
  5  6  1  0
  5  7  1  0
  7  8  1  0
  8  9  2  0
  8 10  2  0
  8 11  1  0
 11 12  1  0
 12 13  2  0
 13 14  1  0
 14 15  2  0
 15 16  1  0
 16 17  2  0
 16 18  2  0
 16 19  1  0
 19 20  1  0
 20 21  1  0
 21 22  1  0
 22 23  1  0
 23 24  1  0
 15 25  1  0
 25 26  2  0
  7 27  2  0
 27  2  1  0
 26 12  1  0
 24 19  1  0
  1 28  1  0
  1 29  1  0
  1 30  1  0
  3 31  1  0
  4 32  1  0
  6 33  1  0
  6 34  1  0
  6 35  1  0
 13 36  1  0
 14 37  1  0
 20 38  1  0
 20 39  1  0
 21 40  1  0
 21 41  1  0
 22 42  1  0
 22 43  1  0
 23 44  1  0
 23 45  1  0
 24 46  1  0
 24 47  1  0
 25 48  1  0
 26 49  1  0
 27 50  1  0
M  CHG  1  11  -1
M  END
>  <UniqueID>  (19) 
19

>  <SMILES>  (19) 
Cc1ccc(C)c(S(=O)(=O)[N-]c2ccc(S(=O)(=O)N3CCCCC3)cc2)c1

>  <Energy>  (19) 
60.81208611735791

>  <Genealogy>  (19) 
Cc1ccc(C)c(S(=O)(=O)[N-]c2ccc(S(=O)(=O)N3CCCCC3)cc2)c1 (protonated)
Cc1ccc(C)c(S(=O)(=O)[N-]c2ccc(S(=O)(=O)N3CCCCC3)cc2)c1 (3D coordinates assigned)
Cc1ccc(C)c(S(=O)(=O)[N-]c2ccc(S(=O)(=O)N3CCCCC3)cc2)c1 (nonaromatic ring conformer: 60.81208611735791 kcal/mol)

>  <smiles>  (19) 
Cc1ccc(C)c(S(=O)(=O)Nc2ccc(S(=O)(=O)N3CCCCC3)cc2)c1

>  <score_type>  (19) 
oracle

>  <origin>  (19) 
adgpu

>  <m_score__min__energy>  (19) 
-11.699999999999999

>  <m_primary>  (19) 
energy

$$$$
19:0
     RDKit          3D

 61 64  0  0  0  0  0  0  0  0999 V2000
   -4.2120   23.0980  -31.8910 O   0  0  0  0  0  0  0  0  0  0  0  0
   -3.0720   22.7570  -31.4800 C   0  0  0  0  0  0  0  0  0  0  0  0
   -2.1600   22.1430  -32.3980 N   0  0  0  0  0  0  0  0  0  0  0  0
   -2.3490   20.8530  -32.9970 C   0  0  0  0  0  0  0  0  0  0  0  0
   -3.6380   20.3180  -33.1740 C   0  0  0  0  0  0  0  0  0  0  0  0
   -3.8060   19.0190  -33.6720 C   0  0  0  0  0  0  0  0  0  0  0  0
   -5.4230   18.3260  -33.8170 S   0  0  0  0  0  0  0  0  0  0  0  0
   -6.0760   18.8490  -35.0670 O   0  0  0  0  0  0  0  0  0  0  0  0
   -5.3130   16.8310  -33.9390 O   0  0  0  0  0  0  0  0  0  0  0  0
   -6.4160   18.7180  -32.4310 N   0  0  0  0  0  0  0  0  0  0  0  0
   -7.7060   17.9980  -32.5020 C   0  0  0  0  0  0  0  0  0  0  0  0
   -8.7460   18.6210  -31.5660 C   0  0  0  0  0  0  0  0  0  0  0  0
   -9.0520   20.0750  -31.9690 C   0  0  0  0  0  0  0  0  0  0  0  0
   -7.8820   20.7460  -32.7110 C   0  0  0  0  0  0  0  0  0  0  0  0
   -6.5320   20.1860  -32.2400 C   0  0  0  0  0  0  0  0  0  0  0  0
   -2.6780   18.2640  -34.0220 C   0  0  0  0  0  0  0  0  0  0  0  0
   -1.3970   18.7930  -33.8550 C   0  0  0  0  0  0  0  0  0  0  0  0
   -1.2300   20.0790  -33.3310 C   0  0  0  0  0  0  0  0  0  0  0  0
    0.0520   20.5830  -33.1460 O   0  0  0  0  0  0  0  0  0  0  0  0
   -2.7230   22.9240  -30.0500 C   0  0  0  0  0  0  0  0  0  0  0  0
   -2.3040   21.8080  -29.3050 C   0  0  0  0  0  0  0  0  0  0  0  0
   -2.0420   21.9220  -27.9330 C   0  0  0  0  0  0  0  0  0  0  0  0
   -1.6290   20.4900  -26.9850 S   0  0  0  0  0  0  0  0  0  0  0  0
   -2.7290   19.4770  -27.1370 O   0  0  0  0  0  0  0  0  0  0  0  0
   -1.5530   20.8670  -25.5310 O   0  0  0  0  0  0  0  0  0  0  0  0
   -0.1150   19.7590  -27.4750 N   0  0  0  0  0  0  0  0  0  0  0  0
    0.6390   20.5810  -28.4450 C   0  0  0  0  0  0  0  0  0  0  0  0
    0.2170   20.3600  -29.9110 C   0  0  0  0  0  0  0  0  0  0  0  0
   -0.1970   18.9160  -30.2240 C   0  0  0  0  0  0  0  0  0  0  0  0
    0.3170   17.9410  -29.1720 C   0  0  0  0  0  0  0  0  0  0  0  0
   -0.2470   18.3180  -27.7980 C   0  0  0  0  0  0  0  0  0  0  0  0
   -2.1950   23.1630  -27.3030 C   0  0  0  0  0  0  0  0  0  0  0  0
   -2.5880   24.2820  -28.0400 C   0  0  0  0  0  0  0  0  0  0  0  0
   -2.8590   24.1680  -29.4070 C   0  0  0  0  0  0  0  0  0  0  0  0
   -3.2540   25.2980  -30.1160 O   0  0  0  0  0  0  0  0  0  0  0  0
   -4.5203   20.9237  -32.9197 H   0  0  0  0  0  0  0  0  0  0  0  0
   -8.0830   18.0401  -33.5345 H   0  0  0  0  0  0  0  0  0  0  0  0
   -7.5389   16.9566  -32.1896 H   0  0  0  0  0  0  0  0  0  0  0  0
   -9.6733   18.0314  -31.6157 H   0  0  0  0  0  0  0  0  0  0  0  0
   -8.3418   18.6191  -30.5430 H   0  0  0  0  0  0  0  0  0  0  0  0
   -9.9341   20.0796  -32.6262 H   0  0  0  0  0  0  0  0  0  0  0  0
   -9.2293   20.6450  -31.0450 H   0  0  0  0  0  0  0  0  0  0  0  0
   -7.9895   20.5631  -33.7904 H   0  0  0  0  0  0  0  0  0  0  0  0
   -7.9059   21.8246  -32.4963 H   0  0  0  0  0  0  0  0  0  0  0  0
   -5.7300   20.6783  -32.8096 H   0  0  0  0  0  0  0  0  0  0  0  0
   -6.4506   20.3856  -31.1613 H   0  0  0  0  0  0  0  0  0  0  0  0
   -2.8028   17.2501  -34.4301 H   0  0  0  0  0  0  0  0  0  0  0  0
   -0.5164   18.1968  -34.1363 H   0  0  0  0  0  0  0  0  0  0  0  0
   -2.1805   20.8355  -29.8039 H   0  0  0  0  0  0  0  0  0  0  0  0
    0.4834   21.6410  -28.1957 H   0  0  0  0  0  0  0  0  0  0  0  0
    1.6941   20.2797  -28.3672 H   0  0  0  0  0  0  0  0  0  0  0  0
   -0.6348   21.0205  -30.1303 H   0  0  0  0  0  0  0  0  0  0  0  0
    1.0946   20.5846  -30.5349 H   0  0  0  0  0  0  0  0  0  0  0  0
   -1.2951   18.8592  -30.2563 H   0  0  0  0  0  0  0  0  0  0  0  0
    0.2413   18.6364  -31.1934 H   0  0  0  0  0  0  0  0  0  0  0  0
   -0.0033   16.9211  -29.4313 H   0  0  0  0  0  0  0  0  0  0  0  0
    1.4156   17.9864  -29.1395 H   0  0  0  0  0  0  0  0  0  0  0  0
   -1.3145   18.0535  -27.7762 H   0  0  0  0  0  0  0  0  0  0  0  0
    0.3375   17.7653  -27.0477 H   0  0  0  0  0  0  0  0  0  0  0  0
   -2.0049   23.2568  -26.2236 H   0  0  0  0  0  0  0  0  0  0  0  0
   -2.6849   25.2583  -27.5426 H   0  0  0  0  0  0  0  0  0  0  0  0
  1  2  2  0
  2  3  1  0
  3  4  1  0
  4  5  2  0
  5  6  1  0
  6  7  1  0
  7  8  2  0
  7  9  2  0
  7 10  1  0
 10 11  1  0
 11 12  1  0
 12 13  1  0
 13 14  1  0
 14 15  1  0
  6 16  2  0
 16 17  1  0
 17 18  2  0
 18 19  1  0
  2 20  1  0
 20 21  2  0
 21 22  1  0
 22 23  1  0
 23 24  2  0
 23 25  2  0
 23 26  1  0
 26 27  1  0
 27 28  1  0
 28 29  1  0
 29 30  1  0
 30 31  1  0
 22 32  2  0
 32 33  1  0
 33 34  2  0
 34 35  1  0
 18  4  1  0
 34 20  1  0
 15 10  1  0
 31 26  1  0
  5 36  1  0
 11 37  1  0
 11 38  1  0
 12 39  1  0
 12 40  1  0
 13 41  1  0
 13 42  1  0
 14 43  1  0
 14 44  1  0
 15 45  1  0
 15 46  1  0
 16 47  1  0
 17 48  1  0
 21 49  1  0
 27 50  1  0
 27 51  1  0
 28 52  1  0
 28 53  1  0
 29 54  1  0
 29 55  1  0
 30 56  1  0
 30 57  1  0
 31 58  1  0
 31 59  1  0
 32 60  1  0
 33 61  1  0
M  CHG  3   3  -1  19  -1  35  -1
M  END
>  <UniqueID>  (20) 
20

>  <SMILES>  (20) 
O=C([N-]c1cc(S(=O)(=O)N2CCCCC2)ccc1[O-])c1cc(S(=O)(=O)N2CCCCC2)ccc1[O-]

>  <Energy>  (20) 
78.96897742066253

>  <Genealogy>  (20) 
O=C([N-]c1cc(S(=O)(=O)N2CCCCC2)ccc1[O-])c1cc(S(=O)(=O)N2CCCCC2)ccc1[O-] (protonated)
O=C([N-]c1cc(S(=O)(=O)N2CCCCC2)ccc1[O-])c1cc(S(=O)(=O)N2CCCCC2)ccc1[O-] (3D coordinates assigned)
O=C([N-]c1cc(S(=O)(=O)N2CCCCC2)ccc1[O-])c1cc(S(=O)(=O)N2CCCCC2)ccc1[O-] (nonaromatic ring conformer: 78.96897742066253 kcal/mol)

>  <smiles>  (20) 
O=C(Nc1cc(S(=O)(=O)N2CCCCC2)ccc1O)c1cc(S(=O)(=O)N2CCCCC2)ccc1O

>  <score_type>  (20) 
oracle

>  <origin>  (20) 
adgpu

>  <m_score__min__energy>  (20) 
-15.25

>  <m_primary>  (20) 
energy

$$$$
20:0
     RDKit          3D

 45 47  0  0  0  0  0  0  0  0999 V2000
   -5.6750   25.3020  -28.8320 O   0  0  0  0  0  0  0  0  0  0  0  0
   -5.2970   25.0460  -30.2630 S   0  0  0  0  0  0  0  0  0  0  0  0
   -5.7270   26.2290  -31.0860 O   0  0  0  0  0  0  0  0  0  0  0  0
   -3.5780   24.8580  -30.3740 N   0  0  0  0  0  0  0  0  0  0  0  0
   -2.8110   23.8100  -29.7630 C   0  0  0  0  0  0  0  0  0  0  0  0
   -2.2700   22.7520  -30.5180 C   0  0  0  0  0  0  0  0  0  0  0  0
   -1.5050   21.7590  -29.8990 C   0  0  0  0  0  0  0  0  0  0  0  0
   -1.2680   21.8110  -28.5240 C   0  0  0  0  0  0  0  0  0  0  0  0
   -1.8080   22.8490  -27.7630 C   0  0  0  0  0  0  0  0  0  0  0  0
   -2.5810   23.8460  -28.3700 C   0  0  0  0  0  0  0  0  0  0  0  0
   -3.1110   24.8610  -27.5740 O   0  0  0  0  0  0  0  0  0  0  0  0
   -6.0930   23.5750  -30.8090 C   0  0  0  0  0  0  0  0  0  0  0  0
   -5.7550   23.0280  -32.0520 C   0  0  0  0  0  0  0  0  0  0  0  0
   -6.3750   21.8580  -32.4990 C   0  0  0  0  0  0  0  0  0  0  0  0
   -7.3450   21.2270  -31.7090 C   0  0  0  0  0  0  0  0  0  0  0  0
   -8.1120   19.7360  -32.2630 S   0  0  0  0  0  0  0  0  0  0  0  0
   -9.0670   20.0560  -33.3780 O   0  0  0  0  0  0  0  0  0  0  0  0
   -8.9020   19.1360  -31.1330 O   0  0  0  0  0  0  0  0  0  0  0  0
   -6.9290   18.5740  -32.8230 N   0  0  0  0  0  0  0  0  0  0  0  0
   -6.4730   18.9190  -34.1870 C   0  0  0  0  0  0  0  0  0  0  0  0
   -5.1650   18.2020  -34.5380 C   0  0  0  0  0  0  0  0  0  0  0  0
   -4.0280   18.6330  -33.5940 C   0  0  0  0  0  0  0  0  0  0  0  0
   -4.5400   19.1060  -32.2220 C   0  0  0  0  0  0  0  0  0  0  0  0
   -5.8380   18.3820  -31.8320 C   0  0  0  0  0  0  0  0  0  0  0  0
   -7.6960   21.7840  -30.4710 C   0  0  0  0  0  0  0  0  0  0  0  0
   -7.0670   22.9480  -30.0210 C   0  0  0  0  0  0  0  0  0  0  0  0
   -2.4504   22.7064  -31.6021 H   0  0  0  0  0  0  0  0  0  0  0  0
   -1.0888   20.9347  -30.4967 H   0  0  0  0  0  0  0  0  0  0  0  0
   -0.6564   21.0347  -28.0410 H   0  0  0  0  0  0  0  0  0  0  0  0
   -1.6250   22.8839  -26.6789 H   0  0  0  0  0  0  0  0  0  0  0  0
   -3.8850   25.4410  -27.8720 H   0  0  0  0  0  0  0  0  0  0  0  0
   -4.9982   23.5210  -32.6798 H   0  0  0  0  0  0  0  0  0  0  0  0
   -6.1004   21.4308  -33.4748 H   0  0  0  0  0  0  0  0  0  0  0  0
   -7.2482   18.6229  -34.9090 H   0  0  0  0  0  0  0  0  0  0  0  0
   -6.2947   20.0037  -34.2281 H   0  0  0  0  0  0  0  0  0  0  0  0
   -5.3149   17.1160  -34.4479 H   0  0  0  0  0  0  0  0  0  0  0  0
   -4.8850   18.4687  -35.5678 H   0  0  0  0  0  0  0  0  0  0  0  0
   -3.3540   17.7771  -33.4418 H   0  0  0  0  0  0  0  0  0  0  0  0
   -3.5098   19.4813  -34.0649 H   0  0  0  0  0  0  0  0  0  0  0  0
   -3.7720   18.8995  -31.4620 H   0  0  0  0  0  0  0  0  0  0  0  0
   -4.7478   20.1846  -32.2813 H   0  0  0  0  0  0  0  0  0  0  0  0
   -5.6272   17.3058  -31.7465 H   0  0  0  0  0  0  0  0  0  0  0  0
   -6.1802   18.8099  -30.8781 H   0  0  0  0  0  0  0  0  0  0  0  0
   -8.4684   21.3036  -29.8525 H   0  0  0  0  0  0  0  0  0  0  0  0
   -7.3379   23.3738  -29.0436 H   0  0  0  0  0  0  0  0  0  0  0  0
  1  2  2  0
  2  3  2  0
  2  4  1  0
  4  5  1  0
  5  6  2  0
  6  7  1  0
  7  8  2  0
  8  9  1  0
  9 10  2  0
 10 11  1  0
  2 12  1  0
 12 13  2  0
 13 14  1  0
 14 15  2  0
 15 16  1  0
 16 17  2  0
 16 18  2  0
 16 19  1  0
 19 20  1  0
 20 21  1  0
 21 22  1  0
 22 23  1  0
 23 24  1  0
 15 25  1  0
 25 26  2  0
 10  5  1  0
 26 12  1  0
 24 19  1  0
  6 27  1  0
  7 28  1  0
  8 29  1  0
  9 30  1  0
 11 31  1  0
 13 32  1  0
 14 33  1  0
 20 34  1  0
 20 35  1  0
 21 36  1  0
 21 37  1  0
 22 38  1  0
 22 39  1  0
 23 40  1  0
 23 41  1  0
 24 42  1  0
 24 43  1  0
 25 44  1  0
 26 45  1  0
M  CHG  1   4  -1
M  END
>  <UniqueID>  (21) 
21

>  <SMILES>  (21) 
O=S(=O)([N-]c1ccccc1O)c1ccc(S(=O)(=O)N2CCCCC2)cc1

>  <Energy>  (21) 
54.633607234423145

>  <Genealogy>  (21) 
O=S(=O)([N-]c1ccccc1O)c1ccc(S(=O)(=O)N2CCCCC2)cc1 (protonated)
O=S(=O)([N-]c1ccccc1O)c1ccc(S(=O)(=O)N2CCCCC2)cc1 (3D coordinates assigned)
O=S(=O)([N-]c1ccccc1O)c1ccc(S(=O)(=O)N2CCCCC2)cc1 (nonaromatic ring conformer: 54.633607234423145 kcal/mol)

>  <smiles>  (21) 
O=S(=O)(Nc1ccccc1O)c1ccc(S(=O)(=O)N2CCCCC2)cc1

>  <score_type>  (21) 
oracle

>  <origin>  (21) 
adgpu

>  <m_score__min__energy>  (21) 
-12.02

>  <m_primary>  (21) 
energy

$$$$
21:0
     RDKit          3D

 44 46  0  0  0  0  0  0  0  0999 V2000
   -5.2860   18.4790  -32.0110 O   0  0  0  0  0  0  0  0  0  0  0  0
   -5.5240   19.7070  -32.8450 S   0  0  0  0  0  0  0  0  0  0  0  0
   -5.4610   19.3200  -34.2970 O   0  0  0  0  0  0  0  0  0  0  0  0
   -7.1240   20.3290  -32.4490 C   0  0  0  0  0  0  0  0  0  0  0  0
   -8.2680   19.5360  -32.6260 C   0  0  0  0  0  0  0  0  0  0  0  0
   -9.5340   20.0590  -32.3470 C   0  0  0  0  0  0  0  0  0  0  0  0
   -9.6630   21.3740  -31.8880 C   0  0  0  0  0  0  0  0  0  0  0  0
   -8.5260   22.1640  -31.7050 C   0  0  0  0  0  0  0  0  0  0  0  0
   -7.2580   21.6430  -31.9810 C   0  0  0  0  0  0  0  0  0  0  0  0
   -4.2980   20.9090  -32.4980 N   0  0  0  0  0  0  0  0  0  0  0  0
   -3.1830   20.8070  -33.4660 C   0  0  0  0  0  0  0  0  0  0  0  0
   -2.1710   19.7920  -33.0040 C   0  0  0  0  0  0  0  0  0  0  0  0
   -2.4140   18.4190  -33.1640 C   0  0  0  0  0  0  0  0  0  0  0  0
   -1.4630   17.4820  -32.7500 C   0  0  0  0  0  0  0  0  0  0  0  0
   -0.2700   17.9080  -32.1600 C   0  0  0  0  0  0  0  0  0  0  0  0
   -0.0280   19.2760  -31.9740 C   0  0  0  0  0  0  0  0  0  0  0  0
    1.1550   19.7130  -31.3810 O   0  0  0  0  0  0  0  0  0  0  0  0
   -0.9810   20.2130  -32.3870 C   0  0  0  0  0  0  0  0  0  0  0  0
   -3.8160   20.7350  -31.1150 C   0  0  0  0  0  0  0  0  0  0  0  0
   -3.3230   22.0490  -30.5650 C   0  0  0  0  0  0  0  0  0  0  0  0
   -2.2860   22.0650  -29.6180 C   0  0  0  0  0  0  0  0  0  0  0  0
   -1.8350   23.2780  -29.0890 C   0  0  0  0  0  0  0  0  0  0  0  0
   -2.4150   24.4820  -29.5010 C   0  0  0  0  0  0  0  0  0  0  0  0
   -1.9630   25.6850  -28.9710 O   0  0  0  0  0  0  0  0  0  0  0  0
   -3.4490   24.4740  -30.4450 C   0  0  0  0  0  0  0  0  0  0  0  0
   -4.0290   25.6670  -30.8570 O   0  0  0  0  0  0  0  0  0  0  0  0
   -3.9020   23.2600  -30.9770 C   0  0  0  0  0  0  0  0  0  0  0  0
   -8.1684   18.5010  -32.9849 H   0  0  0  0  0  0  0  0  0  0  0  0
  -10.4294   19.4360  -32.4885 H   0  0  0  0  0  0  0  0  0  0  0  0
  -10.6597   21.7858  -31.6712 H   0  0  0  0  0  0  0  0  0  0  0  0
   -8.6280   23.1978  -31.3432 H   0  0  0  0  0  0  0  0  0  0  0  0
   -6.3640   22.2659  -31.8304 H   0  0  0  0  0  0  0  0  0  0  0  0
   -3.5809   20.5011  -34.4448 H   0  0  0  0  0  0  0  0  0  0  0  0
   -2.6910   21.7877  -33.5448 H   0  0  0  0  0  0  0  0  0  0  0  0
   -3.3569   18.0788  -33.6171 H   0  0  0  0  0  0  0  0  0  0  0  0
   -1.6540   16.4076  -32.8888 H   0  0  0  0  0  0  0  0  0  0  0  0
    0.4799   17.1690  -31.8412 H   0  0  0  0  0  0  0  0  0  0  0  0
    1.3430   19.5580  -30.3980 H   0  0  0  0  0  0  0  0  0  0  0  0
   -0.7976   21.2859  -32.2278 H   0  0  0  0  0  0  0  0  0  0  0  0
   -4.6399   20.3648  -30.4872 H   0  0  0  0  0  0  0  0  0  0  0  0
   -2.9871   20.0119  -31.1127 H   0  0  0  0  0  0  0  0  0  0  0  0
   -1.8272   21.1201  -29.2914 H   0  0  0  0  0  0  0  0  0  0  0  0
   -1.0226   23.2854  -28.3475 H   0  0  0  0  0  0  0  0  0  0  0  0
   -4.7135   23.2553  -31.7196 H   0  0  0  0  0  0  0  0  0  0  0  0
  1  2  2  0
  2  3  2  0
  2  4  1  0
  4  5  2  0
  5  6  1  0
  6  7  2  0
  7  8  1  0
  8  9  2  0
  2 10  1  0
 10 11  1  0
 11 12  1  0
 12 13  2  0
 13 14  1  0
 14 15  2  0
 15 16  1  0
 16 17  1  0
 16 18  2  0
 10 19  1  0
 19 20  1  0
 20 21  2  0
 21 22  1  0
 22 23  2  0
 23 24  1  0
 23 25  1  0
 25 26  1  0
 25 27  2  0
  9  4  1  0
 18 12  1  0
 27 20  1  0
  5 28  1  0
  6 29  1  0
  7 30  1  0
  8 31  1  0
  9 32  1  0
 11 33  1  0
 11 34  1  0
 13 35  1  0
 14 36  1  0
 15 37  1  0
 17 38  1  0
 18 39  1  0
 19 40  1  0
 19 41  1  0
 21 42  1  0
 22 43  1  0
 27 44  1  0
M  CHG  2  24  -1  26  -1
M  END
>  <UniqueID>  (22) 
22

>  <SMILES>  (22) 
O=S(=O)(c1ccccc1)N(Cc1cccc(O)c1)Cc1ccc([O-])c([O-])c1

>  <Energy>  (22) 
42.766395499892226

>  <Genealogy>  (22) 
O=S(=O)(c1ccccc1)N(Cc1cccc(O)c1)Cc1ccc([O-])c([O-])c1 (protonated)
O=S(=O)(c1ccccc1)N(Cc1cccc(O)c1)Cc1ccc([O-])c([O-])c1 (3D coordinates assigned)
O=S(=O)(c1ccccc1)N(Cc1cccc(O)c1)Cc1ccc([O-])c([O-])c1 (optimized conformer: 42.766395499892226 kcal/mol)

>  <smiles>  (22) 
O=S(=O)(c1ccccc1)N(Cc1cccc(O)c1)Cc1ccc(O)c(O)c1

>  <score_type>  (22) 
oracle

>  <origin>  (22) 
adgpu

>  <m_score__min__energy>  (22) 
-14.19

>  <m_primary>  (22) 
energy

$$$$
22:0
     RDKit          3D

 59 62  0  0  0  0  0  0  0  0999 V2000
   -9.2400   19.8370  -32.3800 C   0  0  0  0  0  0  0  0  0  0  0  0
   -8.2560   20.6860  -32.9610 O   0  0  0  0  0  0  0  0  0  0  0  0
   -7.5870   21.7150  -32.2790 C   0  0  0  0  0  0  0  0  0  0  0  0
   -8.2850   22.7110  -31.5680 C   0  0  0  0  0  0  0  0  0  0  0  0
   -7.5920   23.7130  -30.8860 C   0  0  0  0  0  0  0  0  0  0  0  0
   -6.1930   23.7430  -30.9100 C   0  0  0  0  0  0  0  0  0  0  0  0
   -5.2980   24.9840  -30.0330 S   0  0  0  0  0  0  0  0  0  0  0  0
   -5.4500   24.7690  -28.5540 O   0  0  0  0  0  0  0  0  0  0  0  0
   -5.8430   26.3400  -30.3800 O   0  0  0  0  0  0  0  0  0  0  0  0
   -3.6150   24.9100  -30.4340 N   0  0  0  0  0  0  0  0  0  0  0  0
   -2.7220   24.0610  -29.7140 C   0  0  0  0  0  0  0  0  0  0  0  0
   -3.0180   22.6990  -29.5850 C   0  0  0  0  0  0  0  0  0  0  0  0
   -2.1400   21.8480  -28.9010 C   0  0  0  0  0  0  0  0  0  0  0  0
   -0.9620   22.3610  -28.3390 C   0  0  0  0  0  0  0  0  0  0  0  0
   -0.6630   23.7250  -28.4690 C   0  0  0  0  0  0  0  0  0  0  0  0
   -1.5400   24.5790  -29.1490 C   0  0  0  0  0  0  0  0  0  0  0  0
   -1.2170   25.9320  -29.2520 O   0  0  0  0  0  0  0  0  0  0  0  0
   -0.0350   21.4170  -27.6250 C   0  0  0  0  0  0  0  0  0  0  0  0
   -0.8340   20.4690  -26.7160 C   0  0  0  0  0  0  0  0  0  0  0  0
   -2.0880   19.8430  -27.3870 C   0  0  0  0  0  0  0  0  0  0  0  0
   -2.3980   20.3690  -28.8020 C   0  0  0  0  0  0  0  0  0  0  0  0
   -5.4950   22.7650  -31.6240 C   0  0  0  0  0  0  0  0  0  0  0  0
   -6.1790   21.7470  -32.3010 C   0  0  0  0  0  0  0  0  0  0  0  0
   -5.2780   20.4750  -33.1350 S   0  0  0  0  0  0  0  0  0  0  0  0
   -6.0680   20.0560  -34.3430 O   0  0  0  0  0  0  0  0  0  0  0  0
   -3.9450   21.0140  -33.5760 O   0  0  0  0  0  0  0  0  0  0  0  0
   -5.0340   19.0920  -32.0890 N   0  0  0  0  0  0  0  0  0  0  0  0
   -4.0580   18.1350  -32.6750 C   0  0  0  0  0  0  0  0  0  0  0  0
   -4.7110   16.8630  -33.2330 C   0  0  0  0  0  0  0  0  0  0  0  0
   -5.5260   16.1340  -32.1500 C   0  0  0  0  0  0  0  0  0  0  0  0
   -6.1630   17.0990  -31.1340 C   0  0  0  0  0  0  0  0  0  0  0  0
   -6.3400   18.4940  -31.7400 C   0  0  0  0  0  0  0  0  0  0  0  0
   -9.1730   19.8948  -31.2836 H   0  0  0  0  0  0  0  0  0  0  0  0
  -10.2404   20.1601  -32.7038 H   0  0  0  0  0  0  0  0  0  0  0  0
   -9.0670   18.8001  -32.7038 H   0  0  0  0  0  0  0  0  0  0  0  0
   -9.3848   22.6992  -31.5500 H   0  0  0  0  0  0  0  0  0  0  0  0
   -8.1474   24.4813  -30.3280 H   0  0  0  0  0  0  0  0  0  0  0  0
   -3.9432   22.2954  -30.0222 H   0  0  0  0  0  0  0  0  0  0  0  0
    0.2648   24.1259  -28.0348 H   0  0  0  0  0  0  0  0  0  0  0  0
   -1.2740   26.4370  -30.1280 H   0  0  0  0  0  0  0  0  0  0  0  0
    0.5216   20.8251  -28.3665 H   0  0  0  0  0  0  0  0  0  0  0  0
    0.6633   22.0007  -27.0071 H   0  0  0  0  0  0  0  0  0  0  0  0
   -0.1683   19.6520  -26.4008 H   0  0  0  0  0  0  0  0  0  0  0  0
   -1.1979   21.0745  -25.8728 H   0  0  0  0  0  0  0  0  0  0  0  0
   -1.9334   18.7559  -27.4529 H   0  0  0  0  0  0  0  0  0  0  0  0
   -2.9463   20.1237  -26.7588 H   0  0  0  0  0  0  0  0  0  0  0  0
   -1.7596   19.8440  -29.5279 H   0  0  0  0  0  0  0  0  0  0  0  0
   -3.4611   20.1856  -29.0168 H   0  0  0  0  0  0  0  0  0  0  0  0
   -4.3958   22.7950  -31.6547 H   0  0  0  0  0  0  0  0  0  0  0  0
   -3.5229   18.6397  -33.4929 H   0  0  0  0  0  0  0  0  0  0  0  0
   -3.3818   17.8242  -31.8650 H   0  0  0  0  0  0  0  0  0  0  0  0
   -5.3803   17.1373  -34.0617 H   0  0  0  0  0  0  0  0  0  0  0  0
   -3.9158   16.1885  -33.5833 H   0  0  0  0  0  0  0  0  0  0  0  0
   -6.3265   15.5597  -32.6392 H   0  0  0  0  0  0  0  0  0  0  0  0
   -4.8345   15.4803  -31.5982 H   0  0  0  0  0  0  0  0  0  0  0  0
   -7.1472   16.7089  -30.8353 H   0  0  0  0  0  0  0  0  0  0  0  0
   -5.4988   17.1776  -30.2607 H   0  0  0  0  0  0  0  0  0  0  0  0
   -6.9537   18.4154  -32.6495 H   0  0  0  0  0  0  0  0  0  0  0  0
   -6.8318   19.1383  -30.9963 H   0  0  0  0  0  0  0  0  0  0  0  0
  1  2  1  0
  2  3  1  0
  3  4  2  0
  4  5  1  0
  5  6  2  0
  6  7  1  0
  7  8  2  0
  7  9  2  0
  7 10  1  0
 10 11  1  0
 11 12  2  0
 12 13  1  0
 13 14  2  0
 14 15  1  0
 15 16  2  0
 16 17  1  0
 14 18  1  0
 18 19  1  0
 19 20  1  0
 20 21  1  0
  6 22  1  0
 22 23  2  0
 23 24  1  0
 24 25  2  0
 24 26  2  0
 24 27  1  0
 27 28  1  0
 28 29  1  0
 29 30  1  0
 30 31  1  0
 31 32  1  0
 23  3  1  0
 32 27  1  0
 16 11  1  0
 21 13  1  0
  1 33  1  0
  1 34  1  0
  1 35  1  0
  4 36  1  0
  5 37  1  0
 12 38  1  0
 15 39  1  0
 17 40  1  0
 18 41  1  0
 18 42  1  0
 19 43  1  0
 19 44  1  0
 20 45  1  0
 20 46  1  0
 21 47  1  0
 21 48  1  0
 22 49  1  0
 28 50  1  0
 28 51  1  0
 29 52  1  0
 29 53  1  0
 30 54  1  0
 30 55  1  0
 31 56  1  0
 31 57  1  0
 32 58  1  0
 32 59  1  0
M  CHG  1  10  -1
M  END
>  <UniqueID>  (23) 
23

>  <SMILES>  (23) 
COc1ccc(S(=O)(=O)[N-]c2cc3c(cc2O)CCCC3)cc1S(=O)(=O)N1CCCCC1

>  <Energy>  (23) 
76.05905106399294

>  <Genealogy>  (23) 
COc1ccc(S(=O)(=O)[N-]c2cc3c(cc2O)CCCC3)cc1S(=O)(=O)N1CCCCC1 (protonated)
COc1ccc(S(=O)(=O)[N-]c2cc3c(cc2O)CCCC3)cc1S(=O)(=O)N1CCCCC1 (3D coordinates assigned)
COc1ccc(S(=O)(=O)[N-]c2cc3c(cc2O)CCCC3)cc1S(=O)(=O)N1CCCCC1 (nonaromatic ring conformer: 76.05905106399294 kcal/mol)

>  <smiles>  (23) 
COc1ccc(S(=O)(=O)Nc2cc3c(cc2O)CCCC3)cc1S(=O)(=O)N1CCCCC1

>  <score_type>  (23) 
oracle

>  <origin>  (23) 
adgpu

>  <m_score__min__energy>  (23) 
-13

>  <m_primary>  (23) 
energy

$$$$
23:0
     RDKit          3D

 43 45  0  0  0  0  0  0  0  0999 V2000
   -4.8670   21.0760  -30.9120 O   0  0  0  0  0  0  0  0  0  0  0  0
   -4.1850   22.4010  -31.1080 S   0  0  0  0  0  0  0  0  0  0  0  0
   -3.7090   22.4970  -32.5300 O   0  0  0  0  0  0  0  0  0  0  0  0
   -2.8000   22.5530  -30.0320 C   0  0  0  0  0  0  0  0  0  0  0  0
   -2.8900   23.3650  -28.8920 C   0  0  0  0  0  0  0  0  0  0  0  0
   -1.8020   23.4810  -28.0230 C   0  0  0  0  0  0  0  0  0  0  0  0
   -0.6170   22.7870  -28.2880 C   0  0  0  0  0  0  0  0  0  0  0  0
    0.8690   22.9430  -27.0970 Br  0  0  0  0  0  0  0  0  0  0  0  0
   -0.5220   21.9770  -29.4250 C   0  0  0  0  0  0  0  0  0  0  0  0
   -1.6090   21.8600  -30.2950 C   0  0  0  0  0  0  0  0  0  0  0  0
   -5.3360   23.6850  -30.7670 C   0  0  0  0  0  0  0  0  0  0  0  0
   -5.1020   25.0380  -30.6690 C   0  0  0  0  0  0  0  0  0  0  0  0
   -3.8720   25.6660  -30.8150 O   0  0  0  0  0  0  0  0  0  0  0  0
   -6.2500   25.6890  -30.4070 N   0  0  0  0  0  0  0  0  0  0  0  0
   -7.1850   24.7830  -30.3420 O   0  0  0  0  0  0  0  0  0  0  0  0
   -6.6920   23.5820  -30.5490 C   0  0  0  0  0  0  0  0  0  0  0  0
   -7.4600   22.3730  -30.5490 N   0  0  0  0  0  0  0  0  0  0  0  0
   -8.7390   22.2610  -31.2420 C   0  0  0  0  0  0  0  0  0  0  0  0
   -8.7470   21.0840  -32.2450 C   0  0  0  0  0  0  0  0  0  0  0  0
   -7.5720   20.1690  -32.2040 N   0  0  0  0  0  0  0  0  0  0  0  0
   -7.8780   18.8140  -31.7070 C   0  0  0  0  0  0  0  0  0  0  0  0
   -6.5770   17.9960  -31.5320 C   0  0  0  0  0  0  0  0  0  0  0  0
   -5.4630   18.5830  -32.1870 O   0  0  0  0  0  0  0  0  0  0  0  0
   -5.8150   18.9550  -33.5040 C   0  0  0  0  0  0  0  0  0  0  0  0
   -6.8370   20.1120  -33.4900 C   0  0  0  0  0  0  0  0  0  0  0  0
   -3.8205   23.9125  -28.6812 H   0  0  0  0  0  0  0  0  0  0  0  0
   -1.8775   24.1186  -27.1298 H   0  0  0  0  0  0  0  0  0  0  0  0
    0.4100   21.4315  -29.6342 H   0  0  0  0  0  0  0  0  0  0  0  0
   -1.5307   21.2229  -31.1883 H   0  0  0  0  0  0  0  0  0  0  0  0
   -7.1080   21.5420  -30.0240 H   0  0  0  0  0  0  0  0  0  0  0  0
   -9.5340   22.1010  -30.4988 H   0  0  0  0  0  0  0  0  0  0  0  0
   -8.9058   23.1913  -31.8048 H   0  0  0  0  0  0  0  0  0  0  0  0
   -9.6464   20.4823  -32.0474 H   0  0  0  0  0  0  0  0  0  0  0  0
   -8.7193   21.5496  -33.2412 H   0  0  0  0  0  0  0  0  0  0  0  0
   -6.9130   20.6010  -31.5100 H   0  0  0  0  0  0  0  0  0  0  0  0
   -8.3906   18.8912  -30.7368 H   0  0  0  0  0  0  0  0  0  0  0  0
   -8.5240   18.3042  -32.4369 H   0  0  0  0  0  0  0  0  0  0  0  0
   -6.3523   17.9195  -30.4579 H   0  0  0  0  0  0  0  0  0  0  0  0
   -6.7444   17.0084  -31.9866 H   0  0  0  0  0  0  0  0  0  0  0  0
   -4.9113   19.2780  -34.0416 H   0  0  0  0  0  0  0  0  0  0  0  0
   -6.2691   18.0883  -34.0067 H   0  0  0  0  0  0  0  0  0  0  0  0
   -6.3037   21.0624  -33.6399 H   0  0  0  0  0  0  0  0  0  0  0  0
   -7.5645   19.9410  -34.2972 H   0  0  0  0  0  0  0  0  0  0  0  0
  1  2  2  0
  2  3  2  0
  2  4  1  0
  4  5  2  0
  5  6  1  0
  6  7  2  0
  7  8  1  0
  7  9  1  0
  9 10  2  0
  2 11  1  0
 11 12  1  0
 12 13  1  0
 12 14  2  0
 14 15  1  0
 15 16  1  0
 16 17  1  0
 17 18  1  0
 18 19  1  0
 19 20  1  0
 20 21  1  0
 21 22  1  0
 22 23  1  0
 23 24  1  0
 24 25  1  0
 10  4  1  0
 16 11  2  0
 25 20  1  0
  5 26  1  0
  6 27  1  0
  9 28  1  0
 10 29  1  0
 17 30  1  0
 18 31  1  0
 18 32  1  0
 19 33  1  0
 19 34  1  0
 20 35  1  0
 21 36  1  0
 21 37  1  0
 22 38  1  0
 22 39  1  0
 24 40  1  0
 24 41  1  0
 25 42  1  0
 25 43  1  0
M  CHG  2  13  -1  20   1
M  END
>  <UniqueID>  (24) 
24

>  <SMILES>  (24) 
O=S(=O)(c1ccc(Br)cc1)c1c([O-])noc1NCC[NH+]1CCOCC1

>  <Energy>  (24) 
90.29604004743231

>  <Genealogy>  (24) 
O=S(=O)(c1ccc(Br)cc1)c1c([O-])noc1NCC[NH+]1CCOCC1 (protonated)
O=S(=O)(c1ccc(Br)cc1)c1c([O-])noc1NCC[NH+]1CCOCC1 (3D coordinates assigned)
O=S(=O)(c1ccc(Br)cc1)c1c([O-])noc1NCC[NH+]1CCOCC1 (nonaromatic ring conformer: 90.29604004743231 kcal/mol)

>  <smiles>  (24) 
O=S(=O)(c1ccc(Br)cc1)c1c(O)noc1NCCN1CCOCC1

>  <score_type>  (24) 
oracle

>  <origin>  (24) 
adgpu

>  <m_score__min__energy>  (24) 
-10.66

>  <m_primary>  (24) 
energy

$$$$
24:0
     RDKit          3D

 23 24  0  0  0  0  0  0  0  0999 V2000
   -1.9060   21.9570  -30.7490 N   0  0  0  0  0  0  0  0  0  0  0  0
   -3.1800   21.3780  -31.7690 S   0  0  0  0  0  0  0  0  0  0  0  0
   -2.9480   21.9230  -33.1510 O   0  0  0  0  0  0  0  0  0  0  0  0
   -3.1300   19.8770  -31.8060 O   0  0  0  0  0  0  0  0  0  0  0  0
   -4.7740   21.9010  -31.1830 C   0  0  0  0  0  0  0  0  0  0  0  0
   -5.9250   21.3160  -31.7370 C   0  0  0  0  0  0  0  0  0  0  0  0
   -7.1950   21.6520  -31.2650 C   0  0  0  0  0  0  0  0  0  0  0  0
   -7.3340   22.5800  -30.2360 C   0  0  0  0  0  0  0  0  0  0  0  0
   -6.2050   23.1830  -29.6810 C   0  0  0  0  0  0  0  0  0  0  0  0
   -4.9170   22.8650  -30.1490 C   0  0  0  0  0  0  0  0  0  0  0  0
   -3.7590   23.5770  -29.5630 C   0  0  0  0  0  0  0  0  0  0  0  0
   -2.9450   23.0610  -28.6250 N   0  0  0  0  0  0  0  0  0  0  0  0
   -2.0250   24.0300  -28.4350 C   0  0  0  0  0  0  0  0  0  0  0  0
   -1.0800   23.9170  -27.6120 O   0  0  0  0  0  0  0  0  0  0  0  0
   -2.1970   25.1300  -29.1980 N   0  0  0  0  0  0  0  0  0  0  0  0
   -3.2950   24.8270  -29.9090 C   0  0  0  0  0  0  0  0  0  0  0  0
   -3.8670   25.6810  -30.8430 O   0  0  0  0  0  0  0  0  0  0  0  0
   -2.0400   22.9870  -30.6310 H   0  0  0  0  0  0  0  0  0  0  0  0
   -2.0220   21.5120  -29.8130 H   0  0  0  0  0  0  0  0  0  0  0  0
   -5.8242   20.5845  -32.5524 H   0  0  0  0  0  0  0  0  0  0  0  0
   -8.0869   21.1833  -31.7063 H   0  0  0  0  0  0  0  0  0  0  0  0
   -8.3352   22.8379  -29.8604 H   0  0  0  0  0  0  0  0  0  0  0  0
   -6.3232   23.9151  -28.8686 H   0  0  0  0  0  0  0  0  0  0  0  0
  1  2  1  0
  2  3  2  0
  2  4  2  0
  2  5  1  0
  5  6  2  0
  6  7  1  0
  7  8  2  0
  8  9  1  0
  9 10  2  0
 10 11  1  0
 11 12  1  0
 12 13  1  0
 13 14  2  0
 13 15  1  0
 15 16  1  0
 16 17  1  0
 10  5  1  0
 16 11  2  0
  1 18  1  0
  1 19  1  0
  6 20  1  0
  7 21  1  0
  8 22  1  0
  9 23  1  0
M  CHG  3  12  -1  15  -1  17  -1
M  END
>  <UniqueID>  (25) 
25

>  <SMILES>  (25) 
NS(=O)(=O)c1ccccc1-c1[n-]c(=O)[n-]c1[O-]

>  <Energy>  (25) 
59.538548183557374

>  <Genealogy>  (25) 
NS(=O)(=O)c1ccccc1-c1[n-]c(=O)[n-]c1[O-] (protonated)
NS(=O)(=O)c1ccccc1-c1[n-]c(=O)[n-]c1[O-] (3D coordinates assigned)
NS(=O)(=O)c1ccccc1-c1[n-]c(=O)[n-]c1[O-] (optimized conformer: 59.538548183557374 kcal/mol)

>  <smiles>  (25) 
NS(=O)(=O)c1ccccc1-c1[nH]c(=O)[nH]c1O

>  <score_type>  (25) 
oracle

>  <origin>  (25) 
adgpu

>  <m_score__min__energy>  (25) 
-11.32

>  <m_primary>  (25) 
energy

$$$$
25:0
     RDKit          3D

 38 40  0  0  0  0  0  0  0  0999 V2000
   -9.1400   18.7400  -31.8720 C   0  0  0  0  0  0  0  0  0  0  0  0
   -8.8690   20.2240  -32.1020 C   0  0  0  0  0  0  0  0  0  0  0  0
   -7.4450   20.4520  -32.4250 N   0  0  0  0  0  0  0  0  0  0  0  0
   -6.7990   19.4630  -33.1170 C   0  0  0  0  0  0  0  0  0  0  0  0
   -5.4550   19.5800  -33.4770 C   0  0  0  0  0  0  0  0  0  0  0  0
   -4.6750   18.2910  -34.4000 S   0  0  0  0  0  0  0  0  0  0  0  0
   -5.3890   18.1110  -35.7110 O   0  0  0  0  0  0  0  0  0  0  0  0
   -3.2430   18.6420  -34.6920 O   0  0  0  0  0  0  0  0  0  0  0  0
   -4.7250   16.8030  -33.4610 C   0  0  0  0  0  0  0  0  0  0  0  0
   -5.2960   16.8080  -32.1810 C   0  0  0  0  0  0  0  0  0  0  0  0
   -5.3570   15.6270  -31.4340 C   0  0  0  0  0  0  0  0  0  0  0  0
   -4.8530   14.4360  -31.9660 C   0  0  0  0  0  0  0  0  0  0  0  0
   -4.2880   14.4250  -33.2450 C   0  0  0  0  0  0  0  0  0  0  0  0
   -4.2260   15.6050  -33.9940 C   0  0  0  0  0  0  0  0  0  0  0  0
   -4.7530   20.7370  -33.1290 C   0  0  0  0  0  0  0  0  0  0  0  0
   -3.5450   20.8640  -33.4720 O   0  0  0  0  0  0  0  0  0  0  0  0
   -5.3950   21.7490  -32.3950 C   0  0  0  0  0  0  0  0  0  0  0  0
   -4.6990   22.9140  -32.0160 C   0  0  0  0  0  0  0  0  0  0  0  0
   -5.3340   23.9120  -31.2720 C   0  0  0  0  0  0  0  0  0  0  0  0
   -4.6470   25.0640  -30.8940 O   0  0  0  0  0  0  0  0  0  0  0  0
   -6.6670   23.7550  -30.9000 C   0  0  0  0  0  0  0  0  0  0  0  0
   -7.3760   22.6110  -31.2690 C   0  0  0  0  0  0  0  0  0  0  0  0
   -6.7610   21.5880  -32.0330 C   0  0  0  0  0  0  0  0  0  0  0  0
   -9.1770   18.5372  -30.7915 H   0  0  0  0  0  0  0  0  0  0  0  0
  -10.1027   18.4679  -32.3294 H   0  0  0  0  0  0  0  0  0  0  0  0
   -8.3356   18.1452  -32.3294 H   0  0  0  0  0  0  0  0  0  0  0  0
   -9.4900   20.5790  -32.9377 H   0  0  0  0  0  0  0  0  0  0  0  0
   -9.1151   20.7747  -31.1822 H   0  0  0  0  0  0  0  0  0  0  0  0
   -7.3522   18.5541  -33.3962 H   0  0  0  0  0  0  0  0  0  0  0  0
   -5.6972   17.7430  -31.7628 H   0  0  0  0  0  0  0  0  0  0  0  0
   -5.8015   15.6351  -30.4279 H   0  0  0  0  0  0  0  0  0  0  0  0
   -4.9010   13.5075  -31.3781 H   0  0  0  0  0  0  0  0  0  0  0  0
   -3.8919   13.4876  -33.6627 H   0  0  0  0  0  0  0  0  0  0  0  0
   -3.7855   15.5935  -35.0019 H   0  0  0  0  0  0  0  0  0  0  0  0
   -3.6460   23.0391  -32.3085 H   0  0  0  0  0  0  0  0  0  0  0  0
   -4.2270   25.6790  -31.5810 H   0  0  0  0  0  0  0  0  0  0  0  0
   -7.1649   24.5390  -30.3106 H   0  0  0  0  0  0  0  0  0  0  0  0
   -8.4268   22.5018  -30.9626 H   0  0  0  0  0  0  0  0  0  0  0  0
  1  2  1  0
  2  3  1  0
  3  4  1  0
  4  5  2  0
  5  6  1  0
  6  7  2  0
  6  8  2  0
  6  9  1  0
  9 10  2  0
 10 11  1  0
 11 12  2  0
 12 13  1  0
 13 14  2  0
  5 15  1  0
 15 16  2  0
 15 17  1  0
 17 18  2  0
 18 19  1  0
 19 20  1  0
 19 21  2  0
 21 22  1  0
 22 23  2  0
 23  3  1  0
 14  9  1  0
 23 17  1  0
  1 24  1  0
  1 25  1  0
  1 26  1  0
  2 27  1  0
  2 28  1  0
  4 29  1  0
 10 30  1  0
 11 31  1  0
 12 32  1  0
 13 33  1  0
 14 34  1  0
 18 35  1  0
 20 36  1  0
 21 37  1  0
 22 38  1  0
M  END
>  <UniqueID>  (26) 
26

>  <SMILES>  (26) 
CCn1cc(S(=O)(=O)c2ccccc2)c(=O)c2cc(O)ccc21

>  <Energy>  (26) 
50.15261567262007

>  <Genealogy>  (26) 
CCn1cc(S(=O)(=O)c2ccccc2)c(=O)c2cc(O)ccc21 (3D coordinates assigned)
CCn1cc(S(=O)(=O)c2ccccc2)c(=O)c2cc(O)ccc21 (optimized conformer: 50.15261567262007 kcal/mol)

>  <smiles>  (26) 
CCn1cc(S(=O)(=O)c2ccccc2)c(=O)c2cc(O)ccc21

>  <score_type>  (26) 
oracle

>  <origin>  (26) 
adgpu

>  <m_score__min__energy>  (26) 
-8.5800000000000001

>  <m_primary>  (26) 
energy

$$$$
26:0
     RDKit          3D

 41 44  0  0  0  0  0  0  0  0999 V2000
   -1.2440   21.5010  -26.9410 C   0  0  0  0  0  0  0  0  0  0  0  0
   -1.8770   22.5090  -27.8650 C   0  0  0  0  0  0  0  0  0  0  0  0
   -2.9930   22.1120  -28.6170 C   0  0  0  0  0  0  0  0  0  0  0  0
   -3.6270   23.0040  -29.4790 C   0  0  0  0  0  0  0  0  0  0  0  0
   -3.1500   24.3130  -29.6200 C   0  0  0  0  0  0  0  0  0  0  0  0
   -3.8050   25.2680  -30.4680 N   0  0  0  0  0  0  0  0  0  0  0  0
   -5.1950   25.3010  -30.8170 C   0  0  0  0  0  0  0  0  0  0  0  0
   -6.0070   25.9880  -30.1450 O   0  0  0  0  0  0  0  0  0  0  0  0
   -5.6800   24.5590  -31.9410 N   0  0  0  0  0  0  0  0  0  0  0  0
   -6.4880   23.3750  -31.8880 C   0  0  0  0  0  0  0  0  0  0  0  0
   -7.8970   23.4390  -31.6870 C   0  0  0  0  0  0  0  0  0  0  0  0
   -8.6710   22.2630  -31.6600 C   0  0  0  0  0  0  0  0  0  0  0  0
   -8.0110   21.0550  -31.8530 C   0  0  0  0  0  0  0  0  0  0  0  0
   -8.4530   19.7570  -31.8960 C   0  0  0  0  0  0  0  0  0  0  0  0
   -7.3840   18.9580  -32.1300 N   0  0  0  0  0  0  0  0  0  0  0  0
   -6.2900   19.7080  -32.2380 N   0  0  0  0  0  0  0  0  0  0  0  0
   -6.6680   20.9860  -32.0700 C   0  0  0  0  0  0  0  0  0  0  0  0
   -5.8690   22.1260  -32.1030 C   0  0  0  0  0  0  0  0  0  0  0  0
   -2.0410   24.7290  -28.8670 C   0  0  0  0  0  0  0  0  0  0  0  0
   -1.6130   26.0470  -28.9840 O   0  0  0  0  0  0  0  0  0  0  0  0
   -1.3740   23.8280  -28.0060 C   0  0  0  0  0  0  0  0  0  0  0  0
    0.0520   24.3770  -27.0850 S   0  0  0  0  0  0  0  0  0  0  0  0
    1.1920   24.6740  -28.0180 O   0  0  0  0  0  0  0  0  0  0  0  0
    0.5050   23.2790  -26.1650 O   0  0  0  0  0  0  0  0  0  0  0  0
   -0.2690   25.8460  -26.1040 C   0  0  0  0  0  0  0  0  0  0  0  0
   -0.7750   25.6380  -24.6840 C   0  0  0  0  0  0  0  0  0  0  0  0
   -1.7400   26.0530  -25.7800 C   0  0  0  0  0  0  0  0  0  0  0  0
   -1.4282   21.7943  -25.8969 H   0  0  0  0  0  0  0  0  0  0  0  0
   -1.6815   20.5088  -27.1258 H   0  0  0  0  0  0  0  0  0  0  0  0
   -0.1603   21.4641  -27.1258 H   0  0  0  0  0  0  0  0  0  0  0  0
   -3.3721   21.0835  -28.5248 H   0  0  0  0  0  0  0  0  0  0  0  0
   -4.5075   22.6782  -30.0522 H   0  0  0  0  0  0  0  0  0  0  0  0
   -8.3845   24.4157  -31.5517 H   0  0  0  0  0  0  0  0  0  0  0  0
   -9.7576   22.2990  -31.4924 H   0  0  0  0  0  0  0  0  0  0  0  0
   -9.4928   19.4234  -31.7637 H   0  0  0  0  0  0  0  0  0  0  0  0
   -4.7876   22.0546  -32.2911 H   0  0  0  0  0  0  0  0  0  0  0  0
    0.5465   26.4415  -26.5403 H   0  0  0  0  0  0  0  0  0  0  0  0
   -0.8260   24.6237  -24.2614 H   0  0  0  0  0  0  0  0  0  0  0  0
   -0.5031   26.0363  -23.6954 H   0  0  0  0  0  0  0  0  0  0  0  0
   -2.4903   25.3393  -26.1510 H   0  0  0  0  0  0  0  0  0  0  0  0
   -2.4568   26.8766  -25.9135 H   0  0  0  0  0  0  0  0  0  0  0  0
  1  2  1  0
  2  3  2  0
  3  4  1  0
  4  5  2  0
  5  6  1  0
  6  7  1  0
  7  8  2  0
  7  9  1  0
  9 10  1  0
 10 11  1  0
 11 12  2  0
 12 13  1  0
 13 14  2  0
 14 15  1  0
 15 16  1  0
 16 17  2  0
 17 18  1  0
  5 19  1  0
 19 20  1  0
 19 21  2  0
 21 22  1  0
 22 23  2  0
 22 24  2  0
 22 25  1  0
 25 26  1  0
 26 27  1  0
 21  2  1  0
 27 25  1  0
 18 10  2  0
 17 13  1  0
  1 28  1  0
  1 29  1  0
  1 30  1  0
  3 31  1  0
  4 32  1  0
 11 33  1  0
 12 34  1  0
 14 35  1  0
 18 36  1  0
 25 37  1  0
 26 38  1  0
 26 39  1  0
 27 40  1  0
 27 41  1  0
M  CHG  4   6  -1   9  -1  15  -1  20  -1
M  END
>  <UniqueID>  (27) 
27

>  <SMILES>  (27) 
Cc1ccc([N-]C(=O)[N-]c2ccc3c[n-]nc3c2)c([O-])c1S(=O)(=O)C1CC1

>  <Energy>  (27) 
356.00736909683445

>  <Genealogy>  (27) 
Cc1ccc([N-]C(=O)[N-]c2ccc3c[n-]nc3c2)c([O-])c1S(=O)(=O)C1CC1 (protonated)
Cc1ccc([N-]C(=O)[N-]c2ccc3c[n-]nc3c2)c([O-])c1S(=O)(=O)C1CC1 (3D coordinates assigned)
Cc1ccc([N-]C(=O)[N-]c2ccc3c[n-]nc3c2)c([O-])c1S(=O)(=O)C1CC1 (nonaromatic ring conformer: 356.00736909683445 kcal/mol)

>  <smiles>  (27) 
Cc1ccc(NC(=O)Nc2ccc3c[nH]nc3c2)c(O)c1S(=O)(=O)C1CC1

>  <score_type>  (27) 
oracle

>  <origin>  (27) 
adgpu

>  <m_score__min__energy>  (27) 
-14.710000000000001

>  <m_primary>  (27) 
energy

$$$$
27:0
     RDKit          3D

 35 37  0  0  0  0  0  0  0  0999 V2000
   -6.9280   24.1100  -29.6780 O   0  0  0  0  0  0  0  0  0  0  0  0
   -6.6170   23.3620  -30.6430 C   0  0  0  0  0  0  0  0  0  0  0  0
   -7.6550   22.4780  -31.2560 C   0  0  0  0  0  0  0  0  0  0  0  0
   -6.9660   21.5740  -32.6830 S   0  0  0  0  0  0  0  0  0  0  0  0
   -7.6900   19.9950  -32.2220 C   0  0  0  0  0  0  0  0  0  0  0  0
   -8.8720   19.8700  -31.5930 N   0  0  0  0  0  0  0  0  0  0  0  0
   -9.0860   18.5630  -31.5170 N   0  0  0  0  0  0  0  0  0  0  0  0
   -8.0820   17.9060  -32.0800 N   0  0  0  0  0  0  0  0  0  0  0  0
   -7.1960   18.7800  -32.5230 N   0  0  0  0  0  0  0  0  0  0  0  0
   -5.9830   18.4370  -33.2140 C   0  0  0  0  0  0  0  0  0  0  0  0
   -4.8580   19.2770  -33.1360 C   0  0  0  0  0  0  0  0  0  0  0  0
   -3.6720   18.9400  -33.8010 C   0  0  0  0  0  0  0  0  0  0  0  0
   -2.5560   19.7700  -33.7280 O   0  0  0  0  0  0  0  0  0  0  0  0
   -3.6030   17.7570  -34.5420 C   0  0  0  0  0  0  0  0  0  0  0  0
   -4.7110   16.9090  -34.6170 C   0  0  0  0  0  0  0  0  0  0  0  0
   -5.8980   17.2430  -33.9550 C   0  0  0  0  0  0  0  0  0  0  0  0
   -6.9930   16.3920  -34.0530 O   0  0  0  0  0  0  0  0  0  0  0  0
   -5.2640   23.2830  -31.1060 N   0  0  0  0  0  0  0  0  0  0  0  0
   -4.0790   23.3170  -30.2960 C   0  0  0  0  0  0  0  0  0  0  0  0
   -3.6120   22.1750  -29.6160 C   0  0  0  0  0  0  0  0  0  0  0  0
   -2.4660   22.2510  -28.8190 C   0  0  0  0  0  0  0  0  0  0  0  0
   -1.7860   23.4630  -28.6800 C   0  0  0  0  0  0  0  0  0  0  0  0
   -2.2560   24.6070  -29.3310 C   0  0  0  0  0  0  0  0  0  0  0  0
   -1.5820   25.8130  -29.1800 O   0  0  0  0  0  0  0  0  0  0  0  0
   -3.4030   24.5370  -30.1320 C   0  0  0  0  0  0  0  0  0  0  0  0
   -3.8680   25.6820  -30.7720 O   0  0  0  0  0  0  0  0  0  0  0  0
   -8.0040   21.7549  -30.5041 H   0  0  0  0  0  0  0  0  0  0  0  0
   -8.4928   23.1013  -31.6017 H   0  0  0  0  0  0  0  0  0  0  0  0
   -4.9096   20.2055  -32.5485 H   0  0  0  0  0  0  0  0  0  0  0  0
   -2.6090   20.6920  -33.3090 H   0  0  0  0  0  0  0  0  0  0  0  0
   -2.6736   17.4927  -35.0677 H   0  0  0  0  0  0  0  0  0  0  0  0
   -4.6502   15.9767  -35.1977 H   0  0  0  0  0  0  0  0  0  0  0  0
   -4.1506   21.2208  -29.7124 H   0  0  0  0  0  0  0  0  0  0  0  0
   -2.0987   21.3535  -28.2998 H   0  0  0  0  0  0  0  0  0  0  0  0
   -0.8803   23.5172  -28.0580 H   0  0  0  0  0  0  0  0  0  0  0  0
  1  2  2  0
  2  3  1  0
  3  4  1  0
  4  5  1  0
  5  6  2  0
  6  7  1  0
  7  8  2  0
  8  9  1  0
  9 10  1  0
 10 11  2  0
 11 12  1  0
 12 13  1  0
 12 14  2  0
 14 15  1  0
 15 16  2  0
 16 17  1  0
  2 18  1  0
 18 19  1  0
 19 20  2  0
 20 21  1  0
 21 22  2  0
 22 23  1  0
 23 24  1  0
 23 25  2  0
 25 26  1  0
  9  5  1  0
 16 10  1  0
 25 19  1  0
  3 27  1  0
  3 28  1  0
 11 29  1  0
 13 30  1  0
 14 31  1  0
 15 32  1  0
 20 33  1  0
 21 34  1  0
 22 35  1  0
M  CHG  4  17  -1  18  -1  24  -1  26  -1
M  END
>  <UniqueID>  (28) 
28

>  <SMILES>  (28) 
O=C(CSc1nnnn1-c1cc(O)ccc1[O-])[N-]c1cccc([O-])c1[O-]

>  <Energy>  (28) 
82.4274755306274

>  <Genealogy>  (28) 
O=C(CSc1nnnn1-c1cc(O)ccc1[O-])[N-]c1cccc([O-])c1[O-] (protonated)
O=C(CSc1nnnn1-c1cc(O)ccc1[O-])[N-]c1cccc([O-])c1[O-] (3D coordinates assigned)
O=C(CSc1nnnn1-c1cc(O)ccc1[O-])[N-]c1cccc([O-])c1[O-] (optimized conformer: 82.4274755306274 kcal/mol)

>  <smiles>  (28) 
O=C(CSc1nnnn1-c1cc(O)ccc1O)Nc1cccc(O)c1O

>  <score_type>  (28) 
oracle

>  <origin>  (28) 
adgpu

>  <m_score__min__energy>  (28) 
-14.300000000000001

>  <m_primary>  (28) 
energy

$$$$
28:0
     RDKit          3D

 51 54  0  0  0  0  0  0  0  0999 V2000
   -1.2200   25.4820  -28.7760 C   0  0  0  0  0  0  0  0  0  0  0  0
   -0.6970   24.6570  -27.6310 C   0  0  0  0  0  0  0  0  0  0  0  0
    0.2740   25.2080  -26.7810 C   0  0  0  0  0  0  0  0  0  0  0  0
    0.7730   24.4740  -25.7060 C   0  0  0  0  0  0  0  0  0  0  0  0
    0.2990   23.1880  -25.4550 C   0  0  0  0  0  0  0  0  0  0  0  0
   -0.6970   22.6250  -26.2680 C   0  0  0  0  0  0  0  0  0  0  0  0
   -1.1810   21.2300  -25.9810 C   0  0  0  0  0  0  0  0  0  0  0  0
   -1.1950   23.3590  -27.3680 C   0  0  0  0  0  0  0  0  0  0  0  0
   -2.2060   22.7880  -28.2140 N   0  0  0  0  0  0  0  0  0  0  0  0
   -1.8790   21.6720  -29.1020 C   0  0  0  0  0  0  0  0  0  0  0  0
   -2.6670   21.8320  -30.4040 C   0  0  0  0  0  0  0  0  0  0  0  0
   -4.1350   21.8890  -30.1840 N   0  0  0  0  0  0  0  0  0  0  0  0
   -4.9110   22.8600  -31.4210 S   0  0  0  0  0  0  0  0  0  0  0  0
   -4.7950   24.3160  -31.0660 O   0  0  0  0  0  0  0  0  0  0  0  0
   -4.1910   22.6510  -32.7250 O   0  0  0  0  0  0  0  0  0  0  0  0
   -6.6190   22.4270  -31.6410 C   0  0  0  0  0  0  0  0  0  0  0  0
   -7.5660   23.4560  -31.7690 C   0  0  0  0  0  0  0  0  0  0  0  0
   -8.9120   23.1630  -32.0010 C   0  0  0  0  0  0  0  0  0  0  0  0
   -9.3360   21.8390  -32.1030 C   0  0  0  0  0  0  0  0  0  0  0  0
   -8.4140   20.7950  -31.9600 C   0  0  0  0  0  0  0  0  0  0  0  0
   -8.8210   19.4580  -32.0560 C   0  0  0  0  0  0  0  0  0  0  0  0
   -7.8860   18.4330  -31.9040 C   0  0  0  0  0  0  0  0  0  0  0  0
   -6.5520   18.7560  -31.6510 C   0  0  0  0  0  0  0  0  0  0  0  0
   -6.1690   20.0570  -31.5630 N   0  0  0  0  0  0  0  0  0  0  0  0
   -7.0490   21.0840  -31.7170 C   0  0  0  0  0  0  0  0  0  0  0  0
   -4.5540   22.3140  -28.8210 C   0  0  0  0  0  0  0  0  0  0  0  0
   -3.5770   23.2960  -28.1550 C   0  0  0  0  0  0  0  0  0  0  0  0
   -1.7699   26.3494  -28.3819 H   0  0  0  0  0  0  0  0  0  0  0  0
   -0.3776   25.8307  -29.3915 H   0  0  0  0  0  0  0  0  0  0  0  0
   -1.8948   24.8689  -29.3915 H   0  0  0  0  0  0  0  0  0  0  0  0
    0.6445   26.2274  -26.9644 H   0  0  0  0  0  0  0  0  0  0  0  0
    1.5433   24.9114  -25.0539 H   0  0  0  0  0  0  0  0  0  0  0  0
    0.7084   22.6098  -24.6135 H   0  0  0  0  0  0  0  0  0  0  0  0
   -1.2341   21.0769  -24.8930 H   0  0  0  0  0  0  0  0  0  0  0  0
   -2.1799   21.0909  -26.4201 H   0  0  0  0  0  0  0  0  0  0  0  0
   -0.4829   20.5021  -26.4201 H   0  0  0  0  0  0  0  0  0  0  0  0
   -0.8007   21.6759  -29.3194 H   0  0  0  0  0  0  0  0  0  0  0  0
   -2.1435   20.7197  -28.6191 H   0  0  0  0  0  0  0  0  0  0  0  0
   -2.3487   22.7632  -30.8955 H   0  0  0  0  0  0  0  0  0  0  0  0
   -2.4592   20.9502  -31.0279 H   0  0  0  0  0  0  0  0  0  0  0  0
   -4.5040   20.9180  -30.3220 H   0  0  0  0  0  0  0  0  0  0  0  0
   -7.2443   24.5046  -31.6856 H   0  0  0  0  0  0  0  0  0  0  0  0
   -9.6406   23.9807  -32.1037 H   0  0  0  0  0  0  0  0  0  0  0  0
  -10.3954   21.6143  -32.2959 H   0  0  0  0  0  0  0  0  0  0  0  0
   -9.8763   19.2163  -32.2510 H   0  0  0  0  0  0  0  0  0  0  0  0
   -8.1974   17.3810  -31.9828 H   0  0  0  0  0  0  0  0  0  0  0  0
   -5.8086   17.9554  -31.5225 H   0  0  0  0  0  0  0  0  0  0  0  0
   -5.5383   22.7994  -28.8953 H   0  0  0  0  0  0  0  0  0  0  0  0
   -4.5795   21.4099  -28.1949 H   0  0  0  0  0  0  0  0  0  0  0  0
   -3.6258   24.2628  -28.6774 H   0  0  0  0  0  0  0  0  0  0  0  0
   -3.8629   23.4152  -27.0995 H   0  0  0  0  0  0  0  0  0  0  0  0
  1  2  1  0
  2  3  2  0
  3  4  1  0
  4  5  2  0
  5  6  1  0
  6  7  1  0
  6  8  2  0
  8  9  1  0
  9 10  1  0
 10 11  1  0
 11 12  1  0
 12 13  1  0
 13 14  2  0
 13 15  2  0
 13 16  1  0
 16 17  2  0
 17 18  1  0
 18 19  2  0
 19 20  1  0
 20 21  2  0
 21 22  1  0
 22 23  2  0
 23 24  1  0
 24 25  2  0
 12 26  1  0
 26 27  1  0
  8  2  1  0
 27  9  1  0
 25 16  1  0
 25 20  1  0
  1 28  1  0
  1 29  1  0
  1 30  1  0
  3 31  1  0
  4 32  1  0
  5 33  1  0
  7 34  1  0
  7 35  1  0
  7 36  1  0
 10 37  1  0
 10 38  1  0
 11 39  1  0
 11 40  1  0
 12 41  1  0
 17 42  1  0
 18 43  1  0
 19 44  1  0
 21 45  1  0
 22 46  1  0
 23 47  1  0
 26 48  1  0
 26 49  1  0
 27 50  1  0
 27 51  1  0
M  CHG  1  12   1
M  END
>  <UniqueID>  (29) 
29

>  <SMILES>  (29) 
Cc1cccc(C)c1N1CC[NH+](S(=O)(=O)c2cccc3cccnc23)CC1

>  <Energy>  (29) 
66.68950058365317

>  <Genealogy>  (29) 
Cc1cccc(C)c1N1CC[NH+](S(=O)(=O)c2cccc3cccnc23)CC1 (protonated)
Cc1cccc(C)c1N1CC[NH+](S(=O)(=O)c2cccc3cccnc23)CC1 (3D coordinates assigned)
Cc1cccc(C)c1N1CC[NH+](S(=O)(=O)c2cccc3cccnc23)CC1 (nonaromatic ring conformer: 66.68950058365317 kcal/mol)

>  <smiles>  (29) 
Cc1cccc(C)c1N1CCN(S(=O)(=O)c2cccc3cccnc23)CC1

>  <score_type>  (29) 
oracle

>  <origin>  (29) 
adgpu

>  <m_score__min__energy>  (29) 
-8.2400000000000002

>  <m_primary>  (29) 
energy

$$$$
29:0
     RDKit          3D

 51 54  0  0  0  0  0  0  0  0999 V2000
   -0.8050   20.6430  -34.3020 C   0  0  0  0  0  0  0  0  0  0  0  0
   -2.1700   20.5280  -33.7110 C   0  0  0  0  0  0  0  0  0  0  0  0
   -2.6910   21.5580  -32.9960 N   0  0  0  0  0  0  0  0  0  0  0  0
   -3.9410   21.4960  -32.4630 C   0  0  0  0  0  0  0  0  0  0  0  0
   -4.4550   22.6480  -31.6780 C   0  0  0  0  0  0  0  0  0  0  0  0
   -5.8200   22.9890  -31.6730 C   0  0  0  0  0  0  0  0  0  0  0  0
   -6.2610   24.0400  -30.9320 N   0  0  0  0  0  0  0  0  0  0  0  0
   -5.4170   24.7980  -30.1860 C   0  0  0  0  0  0  0  0  0  0  0  0
   -4.0450   24.5080  -30.1620 C   0  0  0  0  0  0  0  0  0  0  0  0
   -3.1230   25.2680  -29.3670 N   0  0  0  0  0  0  0  0  0  0  0  0
   -1.8160   24.8430  -28.9570 C   0  0  0  0  0  0  0  0  0  0  0  0
   -0.8160   25.4990  -29.3530 O   0  0  0  0  0  0  0  0  0  0  0  0
   -1.6160   23.6930  -28.0430 C   0  0  0  0  0  0  0  0  0  0  0  0
   -1.9860   22.3940  -28.4290 C   0  0  0  0  0  0  0  0  0  0  0  0
   -1.7840   21.3160  -27.5660 C   0  0  0  0  0  0  0  0  0  0  0  0
   -1.2260   21.5230  -26.3030 C   0  0  0  0  0  0  0  0  0  0  0  0
   -0.8860   22.8190  -25.8790 C   0  0  0  0  0  0  0  0  0  0  0  0
   -0.2400   23.0340  -24.5320 C   0  0  0  0  0  0  0  0  0  0  0  0
    1.1240   23.1740  -24.7000 F   0  0  0  0  0  0  0  0  0  0  0  0
   -0.7400   24.1740  -23.9250 F   0  0  0  0  0  0  0  0  0  0  0  0
   -0.4840   21.9580  -23.6970 F   0  0  0  0  0  0  0  0  0  0  0  0
   -1.0680   23.8980  -26.7630 C   0  0  0  0  0  0  0  0  0  0  0  0
   -3.5760   23.4140  -30.8940 C   0  0  0  0  0  0  0  0  0  0  0  0
   -4.7170   20.3470  -32.6830 C   0  0  0  0  0  0  0  0  0  0  0  0
   -4.1800   19.3000  -33.4460 C   0  0  0  0  0  0  0  0  0  0  0  0
   -4.9370   18.1020  -33.6970 N   0  0  0  0  0  0  0  0  0  0  0  0
   -6.4020   18.1510  -33.7630 C   0  0  0  0  0  0  0  0  0  0  0  0
   -6.9820   16.7690  -33.4480 C   0  0  0  0  0  0  0  0  0  0  0  0
   -6.3940   15.7790  -34.2720 O   0  0  0  0  0  0  0  0  0  0  0  0
   -5.0160   15.6650  -33.9720 C   0  0  0  0  0  0  0  0  0  0  0  0
   -4.2730   16.9560  -34.3270 C   0  0  0  0  0  0  0  0  0  0  0  0
   -2.9160   19.4160  -33.9350 N   0  0  0  0  0  0  0  0  0  0  0  0
   -0.0601   20.7058  -33.4950 H   0  0  0  0  0  0  0  0  0  0  0  0
   -0.5988   19.7590  -34.9234 H   0  0  0  0  0  0  0  0  0  0  0  0
   -0.7496   21.5490  -34.9234 H   0  0  0  0  0  0  0  0  0  0  0  0
   -6.5332   22.4028  -32.2711 H   0  0  0  0  0  0  0  0  0  0  0  0
   -5.8101   25.6413  -29.5992 H   0  0  0  0  0  0  0  0  0  0  0  0
   -2.4378   22.2254  -29.4177 H   0  0  0  0  0  0  0  0  0  0  0  0
   -2.0652   20.3005  -27.8817 H   0  0  0  0  0  0  0  0  0  0  0  0
   -1.0514   20.6662  -25.6356 H   0  0  0  0  0  0  0  0  0  0  0  0
   -0.7790   24.9124  -26.4506 H   0  0  0  0  0  0  0  0  0  0  0  0
   -2.5088   23.1501  -30.8561 H   0  0  0  0  0  0  0  0  0  0  0  0
   -5.7308   20.2691  -32.2633 H   0  0  0  0  0  0  0  0  0  0  0  0
   -6.7764   18.8801  -33.0293 H   0  0  0  0  0  0  0  0  0  0  0  0
   -6.7101   18.4521  -34.7751 H   0  0  0  0  0  0  0  0  0  0  0  0
   -6.7832   16.5259  -32.3938 H   0  0  0  0  0  0  0  0  0  0  0  0
   -8.0653   16.7888  -33.6378 H   0  0  0  0  0  0  0  0  0  0  0  0
   -4.8965   15.4642  -32.8971 H   0  0  0  0  0  0  0  0  0  0  0  0
   -4.5933   14.8407  -34.5652 H   0  0  0  0  0  0  0  0  0  0  0  0
   -3.2359   16.8913  -33.9660 H   0  0  0  0  0  0  0  0  0  0  0  0
   -4.2783   17.0890  -35.4189 H   0  0  0  0  0  0  0  0  0  0  0  0
  1  2  1  0
  2  3  2  0
  3  4  1  0
  4  5  1  0
  5  6  2  0
  6  7  1  0
  7  8  2  0
  8  9  1  0
  9 10  1  0
 10 11  1  0
 11 12  2  0
 11 13  1  0
 13 14  2  0
 14 15  1  0
 15 16  2  0
 16 17  1  0
 17 18  1  0
 18 19  1  0
 18 20  1  0
 18 21  1  0
 17 22  2  0
  9 23  2  0
  4 24  2  0
 24 25  1  0
 25 26  1  0
 26 27  1  0
 27 28  1  0
 28 29  1  0
 29 30  1  0
 30 31  1  0
 25 32  2  0
 32  2  1  0
 23  5  1  0
 31 26  1  0
 22 13  1  0
  1 33  1  0
  1 34  1  0
  1 35  1  0
  6 36  1  0
  8 37  1  0
 14 38  1  0
 15 39  1  0
 16 40  1  0
 22 41  1  0
 23 42  1  0
 24 43  1  0
 27 44  1  0
 27 45  1  0
 28 46  1  0
 28 47  1  0
 30 48  1  0
 30 49  1  0
 31 50  1  0
 31 51  1  0
M  CHG  1  10  -1
M  END
>  <UniqueID>  (30) 
30

>  <SMILES>  (30) 
Cc1nc(-c2cncc([N-]C(=O)c3cccc(C(F)(F)F)c3)c2)cc(N2CCOCC2)n1

>  <Energy>  (30) 
70.35389991510564

>  <Genealogy>  (30) 
Cc1nc(-c2cncc([N-]C(=O)c3cccc(C(F)(F)F)c3)c2)cc(N2CCOCC2)n1 (protonated)
Cc1nc(-c2cncc([N-]C(=O)c3cccc(C(F)(F)F)c3)c2)cc(N2CCOCC2)n1 (3D coordinates assigned)
Cc1nc(-c2cncc([N-]C(=O)c3cccc(C(F)(F)F)c3)c2)cc(N2CCOCC2)n1 (nonaromatic ring conformer: 70.35389991510564 kcal/mol)

>  <smiles>  (30) 
Cc1nc(-c2cncc(NC(=O)c3cccc(C(F)(F)F)c3)c2)cc(N2CCOCC2)n1

>  <score_type>  (30) 
oracle

>  <origin>  (30) 
adgpu

>  <m_score__min__energy>  (30) 
-10.82

>  <m_primary>  (30) 
energy

$$$$
30:0
     RDKit          3D

 51 54  0  0  0  0  0  0  0  0999 V2000
   -1.8620   22.7490  -29.8910 O   0  0  0  0  0  0  0  0  0  0  0  0
   -2.7010   22.6050  -30.8220 C   0  0  0  0  0  0  0  0  0  0  0  0
   -2.4600   21.5680  -31.8570 C   0  0  0  0  0  0  0  0  0  0  0  0
   -1.2700   21.5550  -32.6080 C   0  0  0  0  0  0  0  0  0  0  0  0
   -1.0600   20.5710  -33.5740 C   0  0  0  0  0  0  0  0  0  0  0  0
   -2.0470   19.6100  -33.7940 C   0  0  0  0  0  0  0  0  0  0  0  0
   -3.1990   19.6370  -33.0740 N   0  0  0  0  0  0  0  0  0  0  0  0
   -3.4270   20.5850  -32.1260 C   0  0  0  0  0  0  0  0  0  0  0  0
   -3.9000   23.4830  -30.8580 C   0  0  0  0  0  0  0  0  0  0  0  0
   -5.0880   23.0160  -31.4460 C   0  0  0  0  0  0  0  0  0  0  0  0
   -6.2390   23.8210  -31.4830 C   0  0  0  0  0  0  0  0  0  0  0  0
   -7.4680   23.3630  -32.0660 N   0  0  0  0  0  0  0  0  0  0  0  0
   -8.4800   22.1130  -31.4130 S   0  0  0  0  0  0  0  0  0  0  0  0
   -9.9040   22.3670  -31.8230 O   0  0  0  0  0  0  0  0  0  0  0  0
   -8.3990   22.1430  -29.9110 O   0  0  0  0  0  0  0  0  0  0  0  0
   -7.9820   20.5390  -32.0340 C   0  0  0  0  0  0  0  0  0  0  0  0
   -8.6460   19.3820  -31.6080 C   0  0  0  0  0  0  0  0  0  0  0  0
   -8.2750   18.1310  -32.1110 C   0  0  0  0  0  0  0  0  0  0  0  0
   -7.2500   18.0290  -33.0630 C   0  0  0  0  0  0  0  0  0  0  0  0
   -6.8420   16.6820  -33.6070 C   0  0  0  0  0  0  0  0  0  0  0  0
   -5.3540   16.6380  -33.8400 C   0  0  0  0  0  0  0  0  0  0  0  0
   -4.8170   17.0940  -35.0570 C   0  0  0  0  0  0  0  0  0  0  0  0
   -3.4440   17.0110  -35.3000 C   0  0  0  0  0  0  0  0  0  0  0  0
   -2.5960   16.4610  -34.3380 C   0  0  0  0  0  0  0  0  0  0  0  0
   -1.2320   16.3710  -34.5970 O   0  0  0  0  0  0  0  0  0  0  0  0
   -3.1240   15.9940  -33.1230 C   0  0  0  0  0  0  0  0  0  0  0  0
   -4.4960   16.0810  -32.8760 C   0  0  0  0  0  0  0  0  0  0  0  0
   -6.5820   19.1900  -33.4840 C   0  0  0  0  0  0  0  0  0  0  0  0
   -6.9420   20.4370  -32.9690 C   0  0  0  0  0  0  0  0  0  0  0  0
   -6.1930   25.1040  -30.9290 C   0  0  0  0  0  0  0  0  0  0  0  0
   -5.0150   25.5840  -30.3540 C   0  0  0  0  0  0  0  0  0  0  0  0
   -3.8670   24.7830  -30.3200 C   0  0  0  0  0  0  0  0  0  0  0  0
   -2.7110   25.2860  -29.7290 O   0  0  0  0  0  0  0  0  0  0  0  0
   -0.5028   22.3235  -32.4326 H   0  0  0  0  0  0  0  0  0  0  0  0
   -0.1266   20.5530  -34.1558 H   0  0  0  0  0  0  0  0  0  0  0  0
   -1.8922   18.8283  -34.5523 H   0  0  0  0  0  0  0  0  0  0  0  0
   -4.3741   20.5821  -31.5665 H   0  0  0  0  0  0  0  0  0  0  0  0
   -5.1171   22.0070  -31.8830 H   0  0  0  0  0  0  0  0  0  0  0  0
   -9.4626   19.4575  -30.8749 H   0  0  0  0  0  0  0  0  0  0  0  0
   -8.7886   17.2242  -31.7590 H   0  0  0  0  0  0  0  0  0  0  0  0
   -7.1189   15.9003  -32.8843 H   0  0  0  0  0  0  0  0  0  0  0  0
   -7.3580   16.5125  -34.5636 H   0  0  0  0  0  0  0  0  0  0  0  0
   -5.4826   17.5189  -35.8228 H   0  0  0  0  0  0  0  0  0  0  0  0
   -3.0309   17.3795  -36.2505 H   0  0  0  0  0  0  0  0  0  0  0  0
   -0.7290   15.4980  -34.4860 H   0  0  0  0  0  0  0  0  0  0  0  0
   -2.4560   15.5591  -32.3649 H   0  0  0  0  0  0  0  0  0  0  0  0
   -4.9063   15.7125  -31.9242 H   0  0  0  0  0  0  0  0  0  0  0  0
   -5.7708   19.1169  -34.2234 H   0  0  0  0  0  0  0  0  0  0  0  0
   -6.4086   21.3412  -33.2975 H   0  0  0  0  0  0  0  0  0  0  0  0
   -7.0909   25.7392  -30.9464 H   0  0  0  0  0  0  0  0  0  0  0  0
   -4.9885   26.5967  -29.9254 H   0  0  0  0  0  0  0  0  0  0  0  0
  1  2  2  0
  2  3  1  0
  3  4  2  0
  4  5  1  0
  5  6  2  0
  6  7  1  0
  7  8  2  0
  2  9  1  0
  9 10  2  0
 10 11  1  0
 11 12  1  0
 12 13  1  0
 13 14  2  0
 13 15  2  0
 13 16  1  0
 16 17  2  0
 17 18  1  0
 18 19  2  0
 19 20  1  0
 20 21  1  0
 21 22  2  0
 22 23  1  0
 23 24  2  0
 24 25  1  0
 24 26  1  0
 26 27  2  0
 19 28  1  0
 28 29  2  0
 11 30  2  0
 30 31  1  0
 31 32  2  0
 32 33  1  0
  8  3  1  0
 32  9  1  0
 29 16  1  0
 27 21  1  0
  4 34  1  0
  5 35  1  0
  6 36  1  0
  8 37  1  0
 10 38  1  0
 17 39  1  0
 18 40  1  0
 20 41  1  0
 20 42  1  0
 22 43  1  0
 23 44  1  0
 25 45  1  0
 26 46  1  0
 27 47  1  0
 28 48  1  0
 29 49  1  0
 30 50  1  0
 31 51  1  0
M  CHG  2  12  -1  33  -1
M  END
>  <UniqueID>  (31) 
31

>  <SMILES>  (31) 
O=C(c1cccnc1)c1cc([N-]S(=O)(=O)c2ccc(Cc3ccc(O)cc3)cc2)ccc1[O-]

>  <Energy>  (31) 
64.595612775773

>  <Genealogy>  (31) 
O=C(c1cccnc1)c1cc([N-]S(=O)(=O)c2ccc(Cc3ccc(O)cc3)cc2)ccc1[O-] (protonated)
O=C(c1cccnc1)c1cc([N-]S(=O)(=O)c2ccc(Cc3ccc(O)cc3)cc2)ccc1[O-] (3D coordinates assigned)
O=C(c1cccnc1)c1cc([N-]S(=O)(=O)c2ccc(Cc3ccc(O)cc3)cc2)ccc1[O-] (optimized conformer: 64.595612775773 kcal/mol)

>  <smiles>  (31) 
O=C(c1cccnc1)c1cc(NS(=O)(=O)c2ccc(Cc3ccc(O)cc3)cc2)ccc1O

>  <score_type>  (31) 
oracle

>  <origin>  (31) 
adgpu

>  <m_score__min__energy>  (31) 
-12.73

>  <m_primary>  (31) 
energy

$$$$
31:0
     RDKit          3D

 49 51  0  0  0  0  0  0  0  0999 V2000
   -1.6130   25.5900  -30.0890 H   0  0  0  0  0  0  0  0  0  0  0  0
   -2.1740   25.2940  -29.2590 N   0  0  0  0  0  0  0  0  0  0  0  0
   -2.7850   23.7140  -29.6020 S   0  0  0  0  0  0  0  0  0  0  0  0
   -2.6900   22.8580  -28.3700 O   0  0  0  0  0  0  0  0  0  0  0  0
   -1.9520   23.0980  -30.6910 O   0  0  0  0  0  0  0  0  0  0  0  0
   -4.4750   23.8310  -30.1060 C   0  0  0  0  0  0  0  0  0  0  0  0
   -5.2410   24.9420  -29.7190 C   0  0  0  0  0  0  0  0  0  0  0  0
   -4.7829   25.7382  -29.1138 H   0  0  0  0  0  0  0  0  0  0  0  0
   -6.5810   25.0420  -30.0980 C   0  0  0  0  0  0  0  0  0  0  0  0
   -7.1777   25.9106  -29.7826 H   0  0  0  0  0  0  0  0  0  0  0  0
   -7.1640   24.0420  -30.8760 C   0  0  0  0  0  0  0  0  0  0  0  0
   -8.2183   24.1254  -31.1786 H   0  0  0  0  0  0  0  0  0  0  0  0
   -6.4100   22.9350  -31.2710 C   0  0  0  0  0  0  0  0  0  0  0  0
   -6.8706   22.1561  -31.8965 H   0  0  0  0  0  0  0  0  0  0  0  0
   -5.0650   22.8080  -30.8750 C   0  0  0  0  0  0  0  0  0  0  0  0
   -4.2660   21.6900  -31.2930 N   0  0  0  0  0  0  0  0  0  0  0  0
   -3.6970   21.4810  -32.5900 C   0  0  0  0  0  0  0  0  0  0  0  0
   -3.9250   22.3250  -33.4960 O   0  0  0  0  0  0  0  0  0  0  0  0
   -2.7500   20.4280  -32.8090 N   0  0  0  0  0  0  0  0  0  0  0  0
   -2.9640   19.2280  -33.2730 C   0  0  0  0  0  0  0  0  0  0  0  0
   -1.9510   18.3810  -33.6590 C   0  0  0  0  0  0  0  0  0  0  0  0
   -0.8663   18.5455  -33.5798 H   0  0  0  0  0  0  0  0  0  0  0  0
   -2.6090   17.2720  -34.1710 C   0  0  0  0  0  0  0  0  0  0  0  0
   -1.9870   16.0050  -34.7340 C   0  0  0  0  0  0  0  0  0  0  0  0
   -1.7470   15.0090  -33.5830 C   0  0  0  0  0  0  0  0  0  0  0  0
   -1.8714   15.5251  -32.6196 H   0  0  0  0  0  0  0  0  0  0  0  0
   -2.4723   14.1850  -33.6539 H   0  0  0  0  0  0  0  0  0  0  0  0
   -0.7260   14.6058  -33.6539 H   0  0  0  0  0  0  0  0  0  0  0  0
   -0.6430   16.3610  -35.3940 C   0  0  0  0  0  0  0  0  0  0  0  0
    0.1071   16.5597  -34.6143 H   0  0  0  0  0  0  0  0  0  0  0  0
   -0.3078   15.5207  -36.0197 H   0  0  0  0  0  0  0  0  0  0  0  0
   -0.7677   17.2571  -36.0197 H   0  0  0  0  0  0  0  0  0  0  0  0
   -2.9040   15.3390  -35.7830 C   0  0  0  0  0  0  0  0  0  0  0  0
   -3.6917   14.7669  -35.2710 H   0  0  0  0  0  0  0  0  0  0  0  0
   -3.3645   16.1146  -36.4126 H   0  0  0  0  0  0  0  0  0  0  0  0
   -2.3089   14.6612  -36.4126 H   0  0  0  0  0  0  0  0  0  0  0  0
   -3.9420   17.4440  -34.0410 N   0  0  0  0  0  0  0  0  0  0  0  0
   -4.1620   18.6310  -33.4960 N   0  0  0  0  0  0  0  0  0  0  0  0
   -5.4690   19.0120  -33.0460 C   0  0  0  0  0  0  0  0  0  0  0  0
   -6.1000   18.3100  -32.0050 C   0  0  0  0  0  0  0  0  0  0  0  0
   -5.5787   17.4775  -31.5098 H   0  0  0  0  0  0  0  0  0  0  0  0
   -7.3890   18.6670  -31.5970 C   0  0  0  0  0  0  0  0  0  0  0  0
   -7.8728   18.1269  -30.7698 H   0  0  0  0  0  0  0  0  0  0  0  0
   -8.0630   19.7090  -32.2390 C   0  0  0  0  0  0  0  0  0  0  0  0
   -9.0741   19.9932  -31.9122 H   0  0  0  0  0  0  0  0  0  0  0  0
   -7.4530   20.3910  -33.2970 C   0  0  0  0  0  0  0  0  0  0  0  0
   -7.9881   21.2047  -33.8085 H   0  0  0  0  0  0  0  0  0  0  0  0
   -6.1630   20.0380  -33.7040 C   0  0  0  0  0  0  0  0  0  0  0  0
   -5.6900   20.5674  -34.5443 H   0  0  0  0  0  0  0  0  0  0  0  0
  1  2  1  0
  2  3  1  0
  3  4  2  0
  3  5  2  0
  3  6  1  0
  6  7  2  0
  7  8  1  0
  7  9  1  0
  9 10  1  0
  9 11  2  0
 11 12  1  0
 11 13  1  0
 13 14  1  0
 13 15  2  0
 15 16  1  0
 16 17  1  0
 17 18  2  0
 17 19  1  0
 19 20  2  0
 20 21  1  0
 21 22  1  0
 21 23  2  0
 23 24  1  0
 24 25  1  0
 25 26  1  0
 25 27  1  0
 25 28  1  0
 24 29  1  0
 29 30  1  0
 29 31  1  0
 29 32  1  0
 24 33  1  0
 33 34  1  0
 33 35  1  0
 33 36  1  0
 23 37  1  0
 37 38  1  0
 38 39  1  0
 39 40  2  0
 40 41  1  0
 40 42  1  0
 42 43  1  0
 42 44  2  0
 44 45  1  0
 44 46  1  0
 46 47  1  0
 46 48  2  0
 48 49  1  0
 15  6  1  0
 38 20  1  0
 48 39  1  0
M  CHG  3   2  -1  16  -1  37  -1
M  END
>  <UniqueID>  (32) 
32

>  <SMILES>  (32) 
CC(C)(C)c1c/c(=N/C(=O)[N-]c2ccccc2S([NH-])(=O)=O)n(-c2ccccc2)[n-]1

>  <Energy>  (32) 
97.58887643185099

>  <Genealogy>  (32) 
CC(C)(C)c1cc(=NC(=O)[N-]c2ccccc2S([NH-])(=O)=O)n(-c2ccccc2)[n-]1 (protonated)
CC(C)(C)c1c/c(=N/C(=O)[N-]c2ccccc2S([NH-])(=O)=O)n(-c2ccccc2)[n-]1 (cis-trans isomerization)
CC(C)(C)c1c/c(=N/C(=O)[N-]c2ccccc2S([NH-])(=O)=O)n(-c2ccccc2)[n-]1 (3D coordinates assigned)
CC(C)(C)c1c/c(=N/C(=O)[N-]c2ccccc2S([NH-])(=O)=O)n(-c2ccccc2)[n-]1 (optimized conformer: 97.58887643185099 kcal/mol)

>  <smiles>  (32) 
CC(C)(C)c1cc(=NC(=O)Nc2ccccc2S(N)(=O)=O)n(-c2ccccc2)[nH]1

>  <score_type>  (32) 
oracle

>  <origin>  (32) 
adgpu

>  <m_score__min__energy>  (32) 
-10.92

>  <m_primary>  (32) 
energy

$$$$
32:0
     RDKit          3D

 46 48  0  0  0  0  0  0  0  0999 V2000
   -3.7860   24.2390  -29.0970 O   0  0  0  0  0  0  0  0  0  0  0  0
   -4.6740   23.9560  -30.2760 S   0  0  0  0  0  0  0  0  0  0  0  0
   -4.6730   25.1580  -31.1810 O   0  0  0  0  0  0  0  0  0  0  0  0
   -6.2900   23.6460  -29.7170 N   0  0  0  0  0  0  0  0  0  0  0  0
   -7.2390   23.8270  -30.8170 C   0  0  0  0  0  0  0  0  0  0  0  0
   -7.8010   22.4930  -31.2210 C   0  0  0  0  0  0  0  0  0  0  0  0
   -9.1300   22.3920  -31.6650 C   0  0  0  0  0  0  0  0  0  0  0  0
   -9.6440   21.1580  -32.0740 C   0  0  0  0  0  0  0  0  0  0  0  0
   -8.8330   20.0200  -32.0540 C   0  0  0  0  0  0  0  0  0  0  0  0
   -7.5050   20.1150  -31.6280 C   0  0  0  0  0  0  0  0  0  0  0  0
   -6.9870   21.3480  -31.2170 C   0  0  0  0  0  0  0  0  0  0  0  0
   -4.0610   22.5420  -31.1270 C   0  0  0  0  0  0  0  0  0  0  0  0
   -3.3540   21.5610  -30.4180 C   0  0  0  0  0  0  0  0  0  0  0  0
   -2.8860   20.4190  -31.0730 C   0  0  0  0  0  0  0  0  0  0  0  0
   -3.1210   20.2470  -32.4440 C   0  0  0  0  0  0  0  0  0  0  0  0
   -2.5650   18.8000  -33.2820 S   0  0  0  0  0  0  0  0  0  0  0  0
   -1.9330   19.2100  -34.5840 O   0  0  0  0  0  0  0  0  0  0  0  0
   -1.5380   18.0810  -32.4490 O   0  0  0  0  0  0  0  0  0  0  0  0
   -3.9270   17.7480  -33.5830 N   0  0  0  0  0  0  0  0  0  0  0  0
   -4.6230   18.1200  -34.8370 C   0  0  0  0  0  0  0  0  0  0  0  0
   -5.9560   18.8410  -34.5700 C   0  0  0  0  0  0  0  0  0  0  0  0
   -6.8620   18.0720  -33.7910 O   0  0  0  0  0  0  0  0  0  0  0  0
   -6.2280   17.2620  -32.8070 C   0  0  0  0  0  0  0  0  0  0  0  0
   -4.8200   17.7370  -32.4100 C   0  0  0  0  0  0  0  0  0  0  0  0
   -3.8310   21.2250  -33.1530 C   0  0  0  0  0  0  0  0  0  0  0  0
   -4.2990   22.3690  -32.4980 C   0  0  0  0  0  0  0  0  0  0  0  0
   -6.5000   24.3620  -28.9840 H   0  0  0  0  0  0  0  0  0  0  0  0
   -8.0573   24.4855  -30.4902 H   0  0  0  0  0  0  0  0  0  0  0  0
   -6.7220   24.2812  -31.6751 H   0  0  0  0  0  0  0  0  0  0  0  0
   -9.7686   23.2873  -31.6909 H   0  0  0  0  0  0  0  0  0  0  0  0
  -10.6881   21.0826  -32.4120 H   0  0  0  0  0  0  0  0  0  0  0  0
   -9.2398   19.0492  -32.3736 H   0  0  0  0  0  0  0  0  0  0  0  0
   -6.8665   19.2193  -31.6159 H   0  0  0  0  0  0  0  0  0  0  0  0
   -5.9393   21.4211  -30.8898 H   0  0  0  0  0  0  0  0  0  0  0  0
   -3.1669   21.6907  -29.3418 H   0  0  0  0  0  0  0  0  0  0  0  0
   -2.3316   19.6528  -30.5112 H   0  0  0  0  0  0  0  0  0  0  0  0
   -3.9704   18.7864  -35.4201 H   0  0  0  0  0  0  0  0  0  0  0  0
   -4.8443   17.1940  -35.3879 H   0  0  0  0  0  0  0  0  0  0  0  0
   -5.7451   19.7794  -34.0362 H   0  0  0  0  0  0  0  0  0  0  0  0
   -6.4327   19.0187  -35.5453 H   0  0  0  0  0  0  0  0  0  0  0  0
   -6.8578   17.2586  -31.9052 H   0  0  0  0  0  0  0  0  0  0  0  0
   -6.1108   16.2617  -33.2492 H   0  0  0  0  0  0  0  0  0  0  0  0
   -4.8849   18.7538  -31.9953 H   0  0  0  0  0  0  0  0  0  0  0  0
   -4.4108   17.0455  -31.6588 H   0  0  0  0  0  0  0  0  0  0  0  0
   -4.0210   21.0927  -34.2284 H   0  0  0  0  0  0  0  0  0  0  0  0
   -4.8548   23.1344  -33.0595 H   0  0  0  0  0  0  0  0  0  0  0  0
  1  2  2  0
  2  3  2  0
  2  4  1  0
  4  5  1  0
  5  6  1  0
  6  7  2  0
  7  8  1  0
  8  9  2  0
  9 10  1  0
 10 11  2  0
  2 12  1  0
 12 13  2  0
 13 14  1  0
 14 15  2  0
 15 16  1  0
 16 17  2  0
 16 18  2  0
 16 19  1  0
 19 20  1  0
 20 21  1  0
 21 22  1  0
 22 23  1  0
 23 24  1  0
 15 25  1  0
 25 26  2  0
 11  6  1  0
 26 12  1  0
 24 19  1  0
  4 27  1  0
  5 28  1  0
  5 29  1  0
  7 30  1  0
  8 31  1  0
  9 32  1  0
 10 33  1  0
 11 34  1  0
 13 35  1  0
 14 36  1  0
 20 37  1  0
 20 38  1  0
 21 39  1  0
 21 40  1  0
 23 41  1  0
 23 42  1  0
 24 43  1  0
 24 44  1  0
 25 45  1  0
 26 46  1  0
M  END
>  <UniqueID>  (33) 
33

>  <SMILES>  (33) 
O=S(=O)(NCc1ccccc1)c1ccc(S(=O)(=O)N2CCOCC2)cc1

>  <Energy>  (33) 
56.391212969627674

>  <Genealogy>  (33) 
O=S(=O)(NCc1ccccc1)c1ccc(S(=O)(=O)N2CCOCC2)cc1 (3D coordinates assigned)
O=S(=O)(NCc1ccccc1)c1ccc(S(=O)(=O)N2CCOCC2)cc1 (nonaromatic ring conformer: 56.391212969627674 kcal/mol)

>  <smiles>  (33) 
O=S(=O)(NCc1ccccc1)c1ccc(S(=O)(=O)N2CCOCC2)cc1

>  <score_type>  (33) 
oracle

>  <origin>  (33) 
adgpu

>  <m_score__min__energy>  (33) 
-10.23

>  <m_primary>  (33) 
energy

$$$$
33:0
     RDKit          3D

 56 59  0  0  0  0  0  0  0  0999 V2000
   -5.7220   26.1050  -30.7060 O   0  0  0  0  0  0  0  0  0  0  0  0
   -4.9610   25.1010  -30.6970 C   0  0  0  0  0  0  0  0  0  0  0  0
   -3.6090   25.2850  -30.2560 N   0  0  0  0  0  0  0  0  0  0  0  0
   -2.8710   24.4820  -29.3220 C   0  0  0  0  0  0  0  0  0  0  0  0
   -3.5060   23.6470  -28.3870 C   0  0  0  0  0  0  0  0  0  0  0  0
   -2.7470   22.8920  -27.4890 C   0  0  0  0  0  0  0  0  0  0  0  0
   -1.3470   22.9820  -27.4960 C   0  0  0  0  0  0  0  0  0  0  0  0
   -0.3810   22.0190  -26.3740 S   0  0  0  0  0  0  0  0  0  0  0  0
    1.0540   22.4610  -26.4540 O   0  0  0  0  0  0  0  0  0  0  0  0
   -0.8620   22.2640  -24.9710 O   0  0  0  0  0  0  0  0  0  0  0  0
   -0.4910   20.3040  -26.7180 N   0  0  0  0  0  0  0  0  0  0  0  0
   -0.2910   20.0260  -28.1460 C   0  0  0  0  0  0  0  0  0  0  0  0
   -1.6460   19.7520  -28.7860 C   0  0  0  0  0  0  0  0  0  0  0  0
   -2.6490   19.7550  -27.6520 C   0  0  0  0  0  0  0  0  0  0  0  0
   -1.8210   19.7880  -26.3810 C   0  0  0  0  0  0  0  0  0  0  0  0
   -0.7170   23.8440  -28.4020 C   0  0  0  0  0  0  0  0  0  0  0  0
   -1.4750   24.5870  -29.3090 C   0  0  0  0  0  0  0  0  0  0  0  0
   -5.4710   23.8060  -31.2180 C   0  0  0  0  0  0  0  0  0  0  0  0
   -6.8570   23.6040  -31.3480 C   0  0  0  0  0  0  0  0  0  0  0  0
   -7.3550   22.4110  -31.8760 C   0  0  0  0  0  0  0  0  0  0  0  0
   -6.4780   21.4000  -32.2720 C   0  0  0  0  0  0  0  0  0  0  0  0
   -5.0960   21.5750  -32.1400 C   0  0  0  0  0  0  0  0  0  0  0  0
   -3.9980   20.2610  -32.5740 S   0  0  0  0  0  0  0  0  0  0  0  0
   -3.2740   20.6360  -33.8370 O   0  0  0  0  0  0  0  0  0  0  0  0
   -2.9740   20.0920  -31.4870 O   0  0  0  0  0  0  0  0  0  0  0  0
   -4.8360   18.7370  -32.7810 N   0  0  0  0  0  0  0  0  0  0  0  0
   -5.7510   18.4770  -31.6580 C   0  0  0  0  0  0  0  0  0  0  0  0
   -6.4500   17.1140  -31.8500 C   0  0  0  0  0  0  0  0  0  0  0  0
   -6.1850   16.5470  -33.1200 O   0  0  0  0  0  0  0  0  0  0  0  0
   -6.4980   17.4820  -34.1340 C   0  0  0  0  0  0  0  0  0  0  0  0
   -5.5700   18.7100  -34.0590 C   0  0  0  0  0  0  0  0  0  0  0  0
   -4.5950   22.7850  -31.6350 C   0  0  0  0  0  0  0  0  0  0  0  0
   -4.6041   23.5875  -28.3619 H   0  0  0  0  0  0  0  0  0  0  0  0
   -3.2493   22.2243  -26.7736 H   0  0  0  0  0  0  0  0  0  0  0  0
    0.1777   20.8955  -28.6300 H   0  0  0  0  0  0  0  0  0  0  0  0
    0.3646   19.1513  -28.2688 H   0  0  0  0  0  0  0  0  0  0  0  0
   -1.8907   20.5383  -29.5152 H   0  0  0  0  0  0  0  0  0  0  0  0
   -1.6508   18.7941  -29.3268 H   0  0  0  0  0  0  0  0  0  0  0  0
   -3.2959   20.6426  -27.7129 H   0  0  0  0  0  0  0  0  0  0  0  0
   -3.3087   18.8755  -27.6874 H   0  0  0  0  0  0  0  0  0  0  0  0
   -2.2998   20.4460  -25.6409 H   0  0  0  0  0  0  0  0  0  0  0  0
   -1.7409   18.7784  -25.9517 H   0  0  0  0  0  0  0  0  0  0  0  0
    0.3791   23.9361  -28.3991 H   0  0  0  0  0  0  0  0  0  0  0  0
   -0.9716   25.2599  -30.0187 H   0  0  0  0  0  0  0  0  0  0  0  0
   -7.5549   24.3929  -31.0309 H   0  0  0  0  0  0  0  0  0  0  0  0
   -8.4407   22.2677  -31.9800 H   0  0  0  0  0  0  0  0  0  0  0  0
   -6.8745   20.4626  -32.6892 H   0  0  0  0  0  0  0  0  0  0  0  0
   -5.1795   18.4639  -30.7182 H   0  0  0  0  0  0  0  0  0  0  0  0
   -6.5118   19.2706  -31.6215 H   0  0  0  0  0  0  0  0  0  0  0  0
   -6.0944   16.4217  -31.0726 H   0  0  0  0  0  0  0  0  0  0  0  0
   -7.5349   17.2795  -31.7757 H   0  0  0  0  0  0  0  0  0  0  0  0
   -6.3791   17.0008  -35.1160 H   0  0  0  0  0  0  0  0  0  0  0  0
   -7.5358   17.8180  -33.9924 H   0  0  0  0  0  0  0  0  0  0  0  0
   -4.8483   18.6673  -34.8880 H   0  0  0  0  0  0  0  0  0  0  0  0
   -6.1842   19.6197  -34.1310 H   0  0  0  0  0  0  0  0  0  0  0  0
   -3.5079   22.9373  -31.5642 H   0  0  0  0  0  0  0  0  0  0  0  0
  1  2  2  0
  2  3  1  0
  3  4  1  0
  4  5  2  0
  5  6  1  0
  6  7  2  0
  7  8  1  0
  8  9  2  0
  8 10  2  0
  8 11  1  0
 11 12  1  0
 12 13  1  0
 13 14  1  0
 14 15  1  0
  7 16  1  0
 16 17  2  0
  2 18  1  0
 18 19  2  0
 19 20  1  0
 20 21  2  0
 21 22  1  0
 22 23  1  0
 23 24  2  0
 23 25  2  0
 23 26  1  0
 26 27  1  0
 27 28  1  0
 28 29  1  0
 29 30  1  0
 30 31  1  0
 22 32  2  0
 17  4  1  0
 32 18  1  0
 15 11  1  0
 31 26  1  0
  5 33  1  0
  6 34  1  0
 12 35  1  0
 12 36  1  0
 13 37  1  0
 13 38  1  0
 14 39  1  0
 14 40  1  0
 15 41  1  0
 15 42  1  0
 16 43  1  0
 17 44  1  0
 19 45  1  0
 20 46  1  0
 21 47  1  0
 27 48  1  0
 27 49  1  0
 28 50  1  0
 28 51  1  0
 30 52  1  0
 30 53  1  0
 31 54  1  0
 31 55  1  0
 32 56  1  0
M  CHG  1   3  -1
M  END
>  <UniqueID>  (34) 
34

>  <SMILES>  (34) 
O=C([N-]c1ccc(S(=O)(=O)N2CCCC2)cc1)c1cccc(S(=O)(=O)N2CCOCC2)c1

>  <Energy>  (34) 
69.7839663904279

>  <Genealogy>  (34) 
O=C([N-]c1ccc(S(=O)(=O)N2CCCC2)cc1)c1cccc(S(=O)(=O)N2CCOCC2)c1 (protonated)
O=C([N-]c1ccc(S(=O)(=O)N2CCCC2)cc1)c1cccc(S(=O)(=O)N2CCOCC2)c1 (3D coordinates assigned)
O=C([N-]c1ccc(S(=O)(=O)N2CCCC2)cc1)c1cccc(S(=O)(=O)N2CCOCC2)c1 (nonaromatic ring conformer: 69.7839663904279 kcal/mol)

>  <smiles>  (34) 
O=C(Nc1ccc(S(=O)(=O)N2CCCC2)cc1)c1cccc(S(=O)(=O)N2CCOCC2)c1

>  <score_type>  (34) 
oracle

>  <origin>  (34) 
adgpu

>  <m_score__min__energy>  (34) 
-12.550000000000001

>  <m_primary>  (34) 
energy

$$$$
34:0
     RDKit          3D

 33 34  0  0  0  0  0  0  0  0999 V2000
   -6.6710   17.8030  -32.6750 C   0  0  0  0  0  0  0  0  0  0  0  0
   -6.5560   19.2540  -32.3090 C   0  0  0  0  0  0  0  0  0  0  0  0
   -5.4600   20.0030  -32.7460 C   0  0  0  0  0  0  0  0  0  0  0  0
   -5.3530   21.3690  -32.4400 C   0  0  0  0  0  0  0  0  0  0  0  0
   -4.1470   22.1050  -32.9680 C   0  0  0  0  0  0  0  0  0  0  0  0
   -6.3550   21.9920  -31.6510 C   0  0  0  0  0  0  0  0  0  0  0  0
   -6.1850   23.7310  -31.1610 S   0  0  0  0  0  0  0  0  0  0  0  0
   -4.6920   23.4780  -30.1870 C   0  0  0  0  0  0  0  0  0  0  0  0
   -4.4710   22.2480  -29.5510 C   0  0  0  0  0  0  0  0  0  0  0  0
   -3.3170   22.0470  -28.7820 C   0  0  0  0  0  0  0  0  0  0  0  0
   -3.1060   20.7880  -28.1160 C   0  0  0  0  0  0  0  0  0  0  0  0
   -2.9360   19.7770  -27.5820 N   0  0  0  0  0  0  0  0  0  0  0  0
   -2.3690   23.0700  -28.6670 C   0  0  0  0  0  0  0  0  0  0  0  0
   -2.5650   24.2820  -29.3320 C   0  0  0  0  0  0  0  0  0  0  0  0
   -3.7160   24.4840  -30.1030 C   0  0  0  0  0  0  0  0  0  0  0  0
   -3.8640   25.6760  -30.8040 O   0  0  0  0  0  0  0  0  0  0  0  0
   -7.5060   21.2490  -31.2850 C   0  0  0  0  0  0  0  0  0  0  0  0
   -8.6460   21.8590  -30.5140 C   0  0  0  0  0  0  0  0  0  0  0  0
   -7.5830   19.8850  -31.6030 C   0  0  0  0  0  0  0  0  0  0  0  0
   -6.7191   17.1964  -31.7586 H   0  0  0  0  0  0  0  0  0  0  0  0
   -7.5844   17.6455  -33.2673 H   0  0  0  0  0  0  0  0  0  0  0  0
   -5.7938   17.5036  -33.2673 H   0  0  0  0  0  0  0  0  0  0  0  0
   -4.6708   19.5158  -33.3375 H   0  0  0  0  0  0  0  0  0  0  0  0
   -3.5439   22.4730  -32.1249 H   0  0  0  0  0  0  0  0  0  0  0  0
   -3.5409   21.4227  -33.5821 H   0  0  0  0  0  0  0  0  0  0  0  0
   -4.4766   22.9560  -33.5821 H   0  0  0  0  0  0  0  0  0  0  0  0
   -5.2069   21.4372  -29.6562 H   0  0  0  0  0  0  0  0  0  0  0  0
   -1.4692   22.9192  -28.0525 H   0  0  0  0  0  0  0  0  0  0  0  0
   -1.8129   25.0805  -29.2499 H   0  0  0  0  0  0  0  0  0  0  0  0
   -8.4553   21.7570  -29.4355 H   0  0  0  0  0  0  0  0  0  0  0  0
   -8.7341   22.9248  -30.7716 H   0  0  0  0  0  0  0  0  0  0  0  0
   -9.5816   21.3410  -30.7716 H   0  0  0  0  0  0  0  0  0  0  0  0
   -8.4641   19.3044  -31.2922 H   0  0  0  0  0  0  0  0  0  0  0  0
  1  2  1  0
  2  3  2  0
  3  4  1  0
  4  5  1  0
  4  6  2  0
  6  7  1  0
  7  8  1  0
  8  9  2  0
  9 10  1  0
 10 11  1  0
 11 12  3  0
 10 13  2  0
 13 14  1  0
 14 15  2  0
 15 16  1  0
  6 17  1  0
 17 18  1  0
 17 19  2  0
 19  2  1  0
 15  8  1  0
  1 20  1  0
  1 21  1  0
  1 22  1  0
  3 23  1  0
  5 24  1  0
  5 25  1  0
  5 26  1  0
  9 27  1  0
 13 28  1  0
 14 29  1  0
 18 30  1  0
 18 31  1  0
 18 32  1  0
 19 33  1  0
M  CHG  1  16  -1
M  END
>  <UniqueID>  (35) 
35

>  <SMILES>  (35) 
Cc1cc(C)c(Sc2cc(C#N)ccc2[O-])c(C)c1

>  <Energy>  (35) 
31.75497583603728

>  <Genealogy>  (35) 
Cc1cc(C)c(Sc2cc(C#N)ccc2[O-])c(C)c1 (protonated)
Cc1cc(C)c(Sc2cc(C#N)ccc2[O-])c(C)c1 (3D coordinates assigned)
Cc1cc(C)c(Sc2cc(C#N)ccc2[O-])c(C)c1 (optimized conformer: 31.75497583603728 kcal/mol)

>  <smiles>  (35) 
Cc1cc(C)c(Sc2cc(C#N)ccc2O)c(C)c1

>  <score_type>  (35) 
oracle

>  <origin>  (35) 
adgpu

>  <m_score__min__energy>  (35) 
-10.74

>  <m_primary>  (35) 
energy

$$$$
35:0
     RDKit          3D

 38 39  0  0  0  0  0  0  0  0999 V2000
   -5.9230   14.0020  -34.2240 C   0  0  0  0  0  0  0  0  0  0  0  0
   -6.6790   15.2040  -34.3280 O   0  0  0  0  0  0  0  0  0  0  0  0
   -6.2790   16.4390  -33.7960 C   0  0  0  0  0  0  0  0  0  0  0  0
   -5.7640   17.4060  -34.6690 C   0  0  0  0  0  0  0  0  0  0  0  0
   -5.3620   18.6550  -34.1880 C   0  0  0  0  0  0  0  0  0  0  0  0
   -5.4830   18.9570  -32.8270 C   0  0  0  0  0  0  0  0  0  0  0  0
   -4.9570   20.5570  -32.2070 S   0  0  0  0  0  0  0  0  0  0  0  0
   -6.6110   21.0680  -31.6990 C   0  0  0  0  0  0  0  0  0  0  0  0
   -7.6920   20.6440  -32.4870 C   0  0  0  0  0  0  0  0  0  0  0  0
   -8.9940   21.0410  -32.1840 C   0  0  0  0  0  0  0  0  0  0  0  0
   -9.2290   21.8870  -31.1030 C   0  0  0  0  0  0  0  0  0  0  0  0
   -8.1650   22.3390  -30.3220 C   0  0  0  0  0  0  0  0  0  0  0  0
   -6.8450   21.9310  -30.5970 C   0  0  0  0  0  0  0  0  0  0  0  0
   -5.7240   22.4610  -29.7210 C   0  0  0  0  0  0  0  0  0  0  0  0
   -5.7160   24.0040  -29.6440 C   0  0  1  0  0  0  0  0  0  0  0  0
   -5.0030   24.4410  -28.4410 N   0  0  0  0  0  0  0  0  0  0  0  0
   -5.0600   24.6080  -30.8560 C   0  0  0  0  0  0  0  0  0  0  0  0
   -3.8620   25.3670  -30.7140 N   0  0  0  0  0  0  0  0  0  0  0  0
   -5.5710   24.4540  -31.9980 O   0  0  0  0  0  0  0  0  0  0  0  0
   -5.9650   17.9870  -31.9430 C   0  0  0  0  0  0  0  0  0  0  0  0
   -6.3730   16.7380  -32.4220 C   0  0  0  0  0  0  0  0  0  0  0  0
   -5.7686   13.7566  -33.1629 H   0  0  0  0  0  0  0  0  0  0  0  0
   -6.4684   13.1822  -34.7144 H   0  0  0  0  0  0  0  0  0  0  0  0
   -4.9479   14.1386  -34.7144 H   0  0  0  0  0  0  0  0  0  0  0  0
   -5.6753   17.1803  -35.7419 H   0  0  0  0  0  0  0  0  0  0  0  0
   -4.9493   19.4028  -34.8812 H   0  0  0  0  0  0  0  0  0  0  0  0
   -7.5103   19.9911  -33.3534 H   0  0  0  0  0  0  0  0  0  0  0  0
   -9.8347   20.6862  -32.7983 H   0  0  0  0  0  0  0  0  0  0  0  0
  -10.2563   22.1997  -30.8643 H   0  0  0  0  0  0  0  0  0  0  0  0
   -8.3590   23.0219  -29.4817 H   0  0  0  0  0  0  0  0  0  0  0  0
   -5.8484   22.0573  -28.7054 H   0  0  0  0  0  0  0  0  0  0  0  0
   -4.7704   22.1425  -30.1674 H   0  0  0  0  0  0  0  0  0  0  0  0
   -6.7612   24.3447  -29.6050 H   0  0  0  0  0  0  0  0  0  0  0  0
   -4.3810   25.2440  -28.6960 H   0  0  0  0  0  0  0  0  0  0  0  0
   -5.6990   24.8260  -27.7640 H   0  0  0  0  0  0  0  0  0  0  0  0
   -3.5090   25.6370  -29.7680 H   0  0  0  0  0  0  0  0  0  0  0  0
   -6.0235   18.2070  -30.8668 H   0  0  0  0  0  0  0  0  0  0  0  0
   -6.7688   15.9860  -31.7235 H   0  0  0  0  0  0  0  0  0  0  0  0
  1  2  1  0
  2  3  1  0
  3  4  2  0
  4  5  1  0
  5  6  2  0
  6  7  1  0
  7  8  1  0
  8  9  2  0
  9 10  1  0
 10 11  2  0
 11 12  1  0
 12 13  2  0
 13 14  1  0
 14 15  1  0
 15 16  1  0
 15 17  1  0
 17 18  1  0
 17 19  2  0
  6 20  1  0
 20 21  2  0
 21  3  1  0
 13  8  1  0
  1 22  1  0
  1 23  1  0
  1 24  1  0
  4 25  1  0
  5 26  1  0
  9 27  1  0
 10 28  1  0
 11 29  1  0
 12 30  1  0
 14 31  1  0
 14 32  1  0
 15 33  1  1
 16 34  1  0
 16 35  1  0
 18 36  1  0
 20 37  1  0
 21 38  1  0
M  CHG  1  18  -1
M  END
>  <UniqueID>  (36) 
36

>  <SMILES>  (36) 
COc1ccc(Sc2ccccc2C[C@@H](N)C([NH-])=O)cc1

>  <Energy>  (36) 
32.06171840695646

>  <Genealogy>  (36) 
COc1ccc(Sc2ccccc2CC(N)C([NH-])=O)cc1 (protonated)
COc1ccc(Sc2ccccc2C[C@@H](N)C([NH-])=O)cc1 (chirality)
COc1ccc(Sc2ccccc2C[C@@H](N)C([NH-])=O)cc1 (3D coordinates assigned)
COc1ccc(Sc2ccccc2C[C@@H](N)C([NH-])=O)cc1 (optimized conformer: 32.06171840695646 kcal/mol)

>  <smiles>  (36) 
COc1ccc(Sc2ccccc2CC(N)C(N)=O)cc1

>  <score_type>  (36) 
oracle

>  <origin>  (36) 
adgpu

>  <m_score__min__energy>  (36) 
-10.699999999999999

>  <m_primary>  (36) 
energy

$$$$
36:0
     RDKit          3D

 32 33  0  0  0  0  0  0  0  0999 V2000
   -9.3410   21.8550  -31.6340 C   0  0  0  0  0  0  0  0  0  0  0  0
   -8.1110   21.0860  -32.0190 C   0  0  0  0  0  0  0  0  0  0  0  0
   -8.1610   19.6900  -32.1440 C   0  0  0  0  0  0  0  0  0  0  0  0
   -7.0210   18.9690  -32.5320 C   0  0  0  0  0  0  0  0  0  0  0  0
   -7.0870   17.4790  -32.6960 C   0  0  0  0  0  0  0  0  0  0  0  0
   -5.8380   19.6600  -32.8330 C   0  0  0  0  0  0  0  0  0  0  0  0
   -5.7850   21.0520  -32.7190 C   0  0  0  0  0  0  0  0  0  0  0  0
   -4.2660   21.9290  -33.0950 S   0  0  0  0  0  0  0  0  0  0  0  0
   -3.9980   22.4030  -31.3790 C   0  0  0  0  0  0  0  0  0  0  0  0
   -4.7480   23.4590  -30.8440 C   0  0  0  0  0  0  0  0  0  0  0  0
   -4.5760   23.8510  -29.5110 C   0  0  0  0  0  0  0  0  0  0  0  0
   -5.3510   24.9240  -28.9690 N   0  0  0  0  0  0  0  0  0  0  0  0
   -3.6390   23.1840  -28.7090 C   0  0  0  0  0  0  0  0  0  0  0  0
   -2.8800   22.1380  -29.2380 C   0  0  0  0  0  0  0  0  0  0  0  0
   -3.0500   21.7430  -30.5710 C   0  0  0  0  0  0  0  0  0  0  0  0
   -2.2420   20.6670  -31.0910 C   0  0  0  0  0  0  0  0  0  0  0  0
   -1.5930   19.8050  -31.5080 N   0  0  0  0  0  0  0  0  0  0  0  0
   -6.9220   21.7650  -32.3240 C   0  0  0  0  0  0  0  0  0  0  0  0
   -9.4159   21.9018  -30.5376 H   0  0  0  0  0  0  0  0  0  0  0  0
   -9.2782   22.8749  -32.0411 H   0  0  0  0  0  0  0  0  0  0  0  0
  -10.2304   21.3518  -32.0411 H   0  0  0  0  0  0  0  0  0  0  0  0
   -9.1003   19.1564  -31.9365 H   0  0  0  0  0  0  0  0  0  0  0  0
   -7.1081   17.0016  -31.7052 H   0  0  0  0  0  0  0  0  0  0  0  0
   -7.9979   17.2113  -33.2515 H   0  0  0  0  0  0  0  0  0  0  0  0
   -6.2034   17.1318  -33.2515 H   0  0  0  0  0  0  0  0  0  0  0  0
   -4.9474   19.1035  -33.1604 H   0  0  0  0  0  0  0  0  0  0  0  0
   -5.4782   23.9845  -31.4769 H   0  0  0  0  0  0  0  0  0  0  0  0
   -6.2630   24.7400  -28.4960 H   0  0  0  0  0  0  0  0  0  0  0  0
   -5.0180   25.9120  -29.0390 H   0  0  0  0  0  0  0  0  0  0  0  0
   -3.5014   23.4856  -27.6601 H   0  0  0  0  0  0  0  0  0  0  0  0
   -2.1443   21.6213  -28.6041 H   0  0  0  0  0  0  0  0  0  0  0  0
   -6.8835   22.8620  -32.2523 H   0  0  0  0  0  0  0  0  0  0  0  0
  1  2  1  0
  2  3  2  0
  3  4  1  0
  4  5  1  0
  4  6  2  0
  6  7  1  0
  7  8  1  0
  8  9  1  0
  9 10  2  0
 10 11  1  0
 11 12  1  0
 11 13  2  0
 13 14  1  0
 14 15  2  0
 15 16  1  0
 16 17  3  0
  7 18  2  0
 18  2  1  0
 15  9  1  0
  1 19  1  0
  1 20  1  0
  1 21  1  0
  3 22  1  0
  5 23  1  0
  5 24  1  0
  5 25  1  0
  6 26  1  0
 10 27  1  0
 12 28  1  0
 12 29  1  0
 13 30  1  0
 14 31  1  0
 18 32  1  0
M  END
>  <UniqueID>  (37) 
37

>  <SMILES>  (37) 
Cc1cc(C)cc(Sc2cc(N)ccc2C#N)c1

>  <Energy>  (37) 
24.986578226037164

>  <Genealogy>  (37) 
Cc1cc(C)cc(Sc2cc(N)ccc2C#N)c1 (3D coordinates assigned)
Cc1cc(C)cc(Sc2cc(N)ccc2C#N)c1 (optimized conformer: 24.986578226037164 kcal/mol)

>  <smiles>  (37) 
Cc1cc(C)cc(Sc2cc(N)ccc2C#N)c1

>  <score_type>  (37) 
oracle

>  <origin>  (37) 
adgpu

>  <m_score__min__energy>  (37) 
-7.0899999999999999

>  <m_primary>  (37) 
energy

$$$$
37:0
     RDKit          3D

 43 45  0  0  0  0  0  0  0  0999 V2000
   -1.0470   18.8060  -34.3180 C   0  0  0  0  0  0  0  0  0  0  0  0
   -2.4540   18.9570  -33.8200 C   0  0  0  0  0  0  0  0  0  0  0  0
   -3.5220   18.3600  -34.5100 C   0  0  0  0  0  0  0  0  0  0  0  0
   -4.8330   18.5150  -34.0490 C   0  0  0  0  0  0  0  0  0  0  0  0
   -5.0910   19.2610  -32.8920 C   0  0  0  0  0  0  0  0  0  0  0  0
   -6.7500   19.4820  -32.3390 S   0  0  0  0  0  0  0  0  0  0  0  0
   -6.9820   18.6040  -31.1410 O   0  0  0  0  0  0  0  0  0  0  0  0
   -7.7160   19.0820  -33.4190 O   0  0  0  0  0  0  0  0  0  0  0  0
   -7.0060   21.1720  -31.9250 C   0  0  0  0  0  0  0  0  0  0  0  0
   -8.2860   21.7400  -31.9800 C   0  0  0  0  0  0  0  0  0  0  0  0
   -8.4740   23.0780  -31.6210 C   0  0  0  0  0  0  0  0  0  0  0  0
   -7.3900   23.8500  -31.1950 C   0  0  0  0  0  0  0  0  0  0  0  0
   -6.1080   23.2860  -31.1350 C   0  0  0  0  0  0  0  0  0  0  0  0
   -4.7480   24.2340  -30.5400 S   0  0  0  0  0  0  0  0  0  0  0  0
   -4.8170   24.3700  -29.0450 O   0  0  0  0  0  0  0  0  0  0  0  0
   -4.7960   25.5990  -31.1650 O   0  0  0  0  0  0  0  0  0  0  0  0
   -3.2530   23.4680  -30.9700 N   0  0  0  0  0  0  0  0  0  0  0  0
   -2.1850   23.1610  -30.0600 C   0  0  0  0  0  0  0  0  0  0  0  0
   -1.5680   21.8940  -30.0470 C   0  0  0  0  0  0  0  0  0  0  0  0
   -0.5190   21.6280  -29.1640 C   0  0  0  0  0  0  0  0  0  0  0  0
   -0.0840   22.6130  -28.2770 C   0  0  0  0  0  0  0  0  0  0  0  0
   -0.6930   23.8690  -28.2740 C   0  0  0  0  0  0  0  0  0  0  0  0
   -1.7370   24.1510  -29.1620 C   0  0  0  0  0  0  0  0  0  0  0  0
   -2.3130   25.4220  -29.1380 O   0  0  0  0  0  0  0  0  0  0  0  0
   -5.9180   21.9530  -31.5180 C   0  0  0  0  0  0  0  0  0  0  0  0
   -4.0220   19.8150  -32.1730 C   0  0  0  0  0  0  0  0  0  0  0  0
   -2.7110   19.6600  -32.6330 C   0  0  0  0  0  0  0  0  0  0  0  0
   -0.3608   18.7324  -33.4614 H   0  0  0  0  0  0  0  0  0  0  0  0
   -0.9701   17.8944  -34.9289 H   0  0  0  0  0  0  0  0  0  0  0  0
   -0.7784   19.6805  -34.9289 H   0  0  0  0  0  0  0  0  0  0  0  0
   -3.3263   17.7683  -35.4164 H   0  0  0  0  0  0  0  0  0  0  0  0
   -5.6651   18.0491  -34.5973 H   0  0  0  0  0  0  0  0  0  0  0  0
   -9.1433   21.1327  -32.3058 H   0  0  0  0  0  0  0  0  0  0  0  0
   -9.4780   23.5243  -31.6740 H   0  0  0  0  0  0  0  0  0  0  0  0
   -7.5426   24.9005  -30.9067 H   0  0  0  0  0  0  0  0  0  0  0  0
   -1.9146   21.1100  -30.7363 H   0  0  0  0  0  0  0  0  0  0  0  0
   -0.0350   20.6402  -29.1680 H   0  0  0  0  0  0  0  0  0  0  0  0
    0.7394   22.3997  -27.5795 H   0  0  0  0  0  0  0  0  0  0  0  0
   -0.3503   24.6413  -27.5697 H   0  0  0  0  0  0  0  0  0  0  0  0
   -3.0990   25.6740  -29.7250 H   0  0  0  0  0  0  0  0  0  0  0  0
   -4.9083   21.5170  -31.4990 H   0  0  0  0  0  0  0  0  0  0  0  0
   -4.2155   20.3728  -31.2449 H   0  0  0  0  0  0  0  0  0  0  0  0
   -1.8762   20.0915  -32.0613 H   0  0  0  0  0  0  0  0  0  0  0  0
  1  2  1  0
  2  3  2  0
  3  4  1  0
  4  5  2  0
  5  6  1  0
  6  7  2  0
  6  8  2  0
  6  9  1  0
  9 10  2  0
 10 11  1  0
 11 12  2  0
 12 13  1  0
 13 14  1  0
 14 15  2  0
 14 16  2  0
 14 17  1  0
 17 18  1  0
 18 19  2  0
 19 20  1  0
 20 21  2  0
 21 22  1  0
 22 23  2  0
 23 24  1  0
 13 25  2  0
  5 26  1  0
 26 27  2  0
 27  2  1  0
 25  9  1  0
 23 18  1  0
  1 28  1  0
  1 29  1  0
  1 30  1  0
  3 31  1  0
  4 32  1  0
 10 33  1  0
 11 34  1  0
 12 35  1  0
 19 36  1  0
 20 37  1  0
 21 38  1  0
 22 39  1  0
 24 40  1  0
 25 41  1  0
 26 42  1  0
 27 43  1  0
M  CHG  1  17  -1
M  END
>  <UniqueID>  (38) 
38

>  <SMILES>  (38) 
Cc1ccc(S(=O)(=O)c2cccc(S(=O)(=O)[N-]c3ccccc3O)c2)cc1

>  <Energy>  (38) 
45.82990206256289

>  <Genealogy>  (38) 
Cc1ccc(S(=O)(=O)c2cccc(S(=O)(=O)[N-]c3ccccc3O)c2)cc1 (protonated)
Cc1ccc(S(=O)(=O)c2cccc(S(=O)(=O)[N-]c3ccccc3O)c2)cc1 (3D coordinates assigned)
Cc1ccc(S(=O)(=O)c2cccc(S(=O)(=O)[N-]c3ccccc3O)c2)cc1 (optimized conformer: 45.82990206256289 kcal/mol)

>  <smiles>  (38) 
Cc1ccc(S(=O)(=O)c2cccc(S(=O)(=O)Nc3ccccc3O)c2)cc1

>  <score_type>  (38) 
oracle

>  <origin>  (38) 
adgpu

>  <m_score__min__energy>  (38) 
-11.630000000000001

>  <m_primary>  (38) 
energy

$$$$
38:0
     RDKit          3D

 36 37  0  0  0  0  0  0  0  0999 V2000
   -0.4500   24.0450  -24.6990 C   0  0  0  0  0  0  0  0  0  0  0  0
   -0.4930   23.3560  -25.9430 O   0  0  0  0  0  0  0  0  0  0  0  0
   -1.2740   23.7470  -27.0430 C   0  0  0  0  0  0  0  0  0  0  0  0
   -2.6810   23.7290  -27.0030 C   0  0  0  0  0  0  0  0  0  0  0  0
   -3.4250   24.1160  -28.1190 C   0  0  0  0  0  0  0  0  0  0  0  0
   -2.7760   24.5140  -29.2970 C   0  0  0  0  0  0  0  0  0  0  0  0
   -3.5100   24.9180  -30.4610 N   0  0  0  0  0  0  0  0  0  0  0  0
   -4.9370   24.9770  -30.5770 C   0  0  0  0  0  0  0  0  0  0  0  0
   -5.5190   26.0700  -30.3500 O   0  0  0  0  0  0  0  0  0  0  0  0
   -5.7440   23.8060  -30.9870 C   0  0  0  0  0  0  0  0  0  0  0  0
   -7.1430   23.8930  -30.9220 C   0  0  0  0  0  0  0  0  0  0  0  0
   -7.9350   22.8340  -31.3650 C   0  0  0  0  0  0  0  0  0  0  0  0
   -7.3240   21.7010  -31.8990 C   0  0  0  0  0  0  0  0  0  0  0  0
   -5.9700   21.6350  -31.9810 N   0  0  0  0  0  0  0  0  0  0  0  0
   -5.1660   22.6380  -31.5340 C   0  0  0  0  0  0  0  0  0  0  0  0
   -3.3890   22.4670  -31.7600 S   0  0  0  0  0  0  0  0  0  0  0  0
   -3.1840   21.2780  -30.3950 C   0  0  0  0  0  0  0  0  0  0  0  0
   -1.3790   24.5630  -29.3300 C   0  0  0  0  0  0  0  0  0  0  0  0
   -0.6200   24.1680  -28.2110 C   0  0  0  0  0  0  0  0  0  0  0  0
    0.7840   24.1780  -28.2220 O   0  0  0  0  0  0  0  0  0  0  0  0
    1.5910   24.9500  -27.3380 C   0  0  0  0  0  0  0  0  0  0  0  0
   -0.4954   23.3175  -23.8752 H   0  0  0  0  0  0  0  0  0  0  0  0
    0.4857   24.6192  -24.6300 H   0  0  0  0  0  0  0  0  0  0  0  0
   -1.3071   24.7310  -24.6300 H   0  0  0  0  0  0  0  0  0  0  0  0
   -3.1975   23.4079  -26.0864 H   0  0  0  0  0  0  0  0  0  0  0  0
   -4.5241   24.1088  -28.0744 H   0  0  0  0  0  0  0  0  0  0  0  0
   -7.6171   24.8005  -30.5199 H   0  0  0  0  0  0  0  0  0  0  0  0
   -9.0311   22.8924  -31.2936 H   0  0  0  0  0  0  0  0  0  0  0  0
   -7.9383   20.8604  -32.2540 H   0  0  0  0  0  0  0  0  0  0  0  0
   -3.2748   21.8044  -29.4334 H   0  0  0  0  0  0  0  0  0  0  0  0
   -3.9618   20.5032  -30.4637 H   0  0  0  0  0  0  0  0  0  0  0  0
   -2.1916   20.8084  -30.4637 H   0  0  0  0  0  0  0  0  0  0  0  0
   -0.8677   24.9134  -30.2387 H   0  0  0  0  0  0  0  0  0  0  0  0
    1.3336   24.7038  -26.2973 H   0  0  0  0  0  0  0  0  0  0  0  0
    2.6522   24.7222  -27.5170 H   0  0  0  0  0  0  0  0  0  0  0  0
    1.4105   26.0202  -27.5170 H   0  0  0  0  0  0  0  0  0  0  0  0
  1  2  1  0
  2  3  1  0
  3  4  2  0
  4  5  1  0
  5  6  2  0
  6  7  1  0
  7  8  1  0
  8  9  2  0
  8 10  1  0
 10 11  2  0
 11 12  1  0
 12 13  2  0
 13 14  1  0
 14 15  2  0
 15 16  1  0
 16 17  1  0
  6 18  1  0
 18 19  2  0
 19 20  1  0
 20 21  1  0
 19  3  1  0
 15 10  1  0
  1 22  1  0
  1 23  1  0
  1 24  1  0
  4 25  1  0
  5 26  1  0
 11 27  1  0
 12 28  1  0
 13 29  1  0
 17 30  1  0
 17 31  1  0
 17 32  1  0
 18 33  1  0
 21 34  1  0
 21 35  1  0
 21 36  1  0
M  CHG  1   7  -1
M  END
>  <UniqueID>  (39) 
39

>  <SMILES>  (39) 
COc1ccc([N-]C(=O)c2cccnc2SC)cc1OC

>  <Energy>  (39) 
42.41520409217931

>  <Genealogy>  (39) 
COc1ccc([N-]C(=O)c2cccnc2SC)cc1OC (protonated)
COc1ccc([N-]C(=O)c2cccnc2SC)cc1OC (3D coordinates assigned)
COc1ccc([N-]C(=O)c2cccnc2SC)cc1OC (optimized conformer: 42.41520409217931 kcal/mol)

>  <smiles>  (39) 
COc1ccc(NC(=O)c2cccnc2SC)cc1OC

>  <score_type>  (39) 
oracle

>  <origin>  (39) 
adgpu

>  <m_score__min__energy>  (39) 
-8.0199999999999996

>  <m_primary>  (39) 
energy

$$$$
39:0
     RDKit          3D

 47 49  0  0  0  0  0  0  0  0999 V2000
   -1.2160   26.1570  -28.9800 N   0  0  0  0  0  0  0  0  0  0  0  0
   -0.8250   24.6110  -28.3150 S   0  0  0  0  0  0  0  0  0  0  0  0
    0.6650   24.5000  -28.1530 O   0  0  0  0  0  0  0  0  0  0  0  0
   -1.4690   24.4660  -26.9640 O   0  0  0  0  0  0  0  0  0  0  0  0
   -1.4080   23.3440  -29.3900 C   0  0  0  0  0  0  0  0  0  0  0  0
   -0.5560   22.3050  -29.7870 C   0  0  0  0  0  0  0  0  0  0  0  0
   -1.0180   21.3090  -30.6520 C   0  0  0  0  0  0  0  0  0  0  0  0
   -2.3300   21.3490  -31.1490 C   0  0  0  0  0  0  0  0  0  0  0  0
   -2.7850   20.3020  -32.0220 N   0  0  0  0  0  0  0  0  0  0  0  0
   -2.2390   20.0400  -33.3220 C   0  0  0  0  0  0  0  0  0  0  0  0
   -1.2040   20.6430  -33.7150 O   0  0  0  0  0  0  0  0  0  0  0  0
   -2.8940   19.0920  -34.1740 N   0  0  0  0  0  0  0  0  0  0  0  0
   -4.2230   18.5720  -34.0110 C   0  0  0  0  0  0  0  0  0  0  0  0
   -4.5560   17.3710  -34.6480 C   0  0  0  0  0  0  0  0  0  0  0  0
   -5.8460   16.8460  -34.5370 C   0  0  0  0  0  0  0  0  0  0  0  0
   -6.8180   17.5250  -33.8000 C   0  0  0  0  0  0  0  0  0  0  0  0
   -6.5050   18.7360  -33.1700 C   0  0  0  0  0  0  0  0  0  0  0  0
   -7.7500   19.6130  -32.2840 S   0  0  0  0  0  0  0  0  0  0  0  0
   -8.3440   18.7210  -31.2270 O   0  0  0  0  0  0  0  0  0  0  0  0
   -8.8400   20.0090  -33.2390 O   0  0  0  0  0  0  0  0  0  0  0  0
   -7.0610   21.0400  -31.5530 N   0  0  0  0  0  0  0  0  0  0  0  0
   -8.0130   21.6250  -30.5910 C   0  0  0  0  0  0  0  0  0  0  0  0
   -7.5650   23.0350  -30.1590 C   0  0  0  0  0  0  0  0  0  0  0  0
   -6.2260   23.2800  -30.5390 O   0  0  0  0  0  0  0  0  0  0  0  0
   -6.1230   23.2910  -31.9520 C   0  0  0  0  0  0  0  0  0  0  0  0
   -6.7220   22.0210  -32.5940 C   0  0  0  0  0  0  0  0  0  0  0  0
   -5.2120   19.2660  -33.2880 C   0  0  0  0  0  0  0  0  0  0  0  0
   -3.1870   22.3850  -30.7360 C   0  0  0  0  0  0  0  0  0  0  0  0
   -2.7240   23.3800  -29.8690 C   0  0  0  0  0  0  0  0  0  0  0  0
   -1.2340   26.0460  -30.0180 H   0  0  0  0  0  0  0  0  0  0  0  0
    0.4794   22.2730  -29.4169 H   0  0  0  0  0  0  0  0  0  0  0  0
   -0.3481   20.4874  -30.9455 H   0  0  0  0  0  0  0  0  0  0  0  0
   -3.4850   19.6190  -31.6500 H   0  0  0  0  0  0  0  0  0  0  0  0
   -3.7976   16.8373  -35.2395 H   0  0  0  0  0  0  0  0  0  0  0  0
   -6.0963   15.8957  -35.0313 H   0  0  0  0  0  0  0  0  0  0  0  0
   -7.8322   17.1078  -33.7139 H   0  0  0  0  0  0  0  0  0  0  0  0
   -9.0051   21.6911  -31.0616 H   0  0  0  0  0  0  0  0  0  0  0  0
   -8.0514   20.9810  -29.7000 H   0  0  0  0  0  0  0  0  0  0  0  0
   -8.2167   23.7815  -30.6365 H   0  0  0  0  0  0  0  0  0  0  0  0
   -7.6366   23.1050  -29.0636 H   0  0  0  0  0  0  0  0  0  0  0  0
   -6.6600   24.1697  -32.3388 H   0  0  0  0  0  0  0  0  0  0  0  0
   -5.0545   23.3265  -32.2109 H   0  0  0  0  0  0  0  0  0  0  0  0
   -7.6318   22.2894  -33.1510 H   0  0  0  0  0  0  0  0  0  0  0  0
   -5.9814   21.5795  -33.2770 H   0  0  0  0  0  0  0  0  0  0  0  0
   -4.9693   20.2283  -32.8135 H   0  0  0  0  0  0  0  0  0  0  0  0
   -4.2259   22.4128  -31.0965 H   0  0  0  0  0  0  0  0  0  0  0  0
   -3.3963   24.1946  -29.5618 H   0  0  0  0  0  0  0  0  0  0  0  0
  1  2  1  0
  2  3  2  0
  2  4  2  0
  2  5  1  0
  5  6  2  0
  6  7  1  0
  7  8  2  0
  8  9  1  0
  9 10  1  0
 10 11  2  0
 10 12  1  0
 12 13  1  0
 13 14  2  0
 14 15  1  0
 15 16  2  0
 16 17  1  0
 17 18  1  0
 18 19  2  0
 18 20  2  0
 18 21  1  0
 21 22  1  0
 22 23  1  0
 23 24  1  0
 24 25  1  0
 25 26  1  0
 17 27  2  0
  8 28  1  0
 28 29  2  0
 29  5  1  0
 27 13  1  0
 26 21  1  0
  1 30  1  0
  6 31  1  0
  7 32  1  0
  9 33  1  0
 14 34  1  0
 15 35  1  0
 16 36  1  0
 22 37  1  0
 22 38  1  0
 23 39  1  0
 23 40  1  0
 25 41  1  0
 25 42  1  0
 26 43  1  0
 26 44  1  0
 27 45  1  0
 28 46  1  0
 29 47  1  0
M  CHG  2   1  -1  12  -1
M  END
>  <UniqueID>  (40) 
40

>  <SMILES>  (40) 
[NH-]S(=O)(=O)c1ccc(NC(=O)[N-]c2cccc(S(=O)(=O)N3CCOCC3)c2)cc1

>  <Energy>  (40) 
61.8305771209182

>  <Genealogy>  (40) 
[NH-]S(=O)(=O)c1ccc(NC(=O)[N-]c2cccc(S(=O)(=O)N3CCOCC3)c2)cc1 (protonated)
[NH-]S(=O)(=O)c1ccc(NC(=O)[N-]c2cccc(S(=O)(=O)N3CCOCC3)c2)cc1 (3D coordinates assigned)
[NH-]S(=O)(=O)c1ccc(NC(=O)[N-]c2cccc(S(=O)(=O)N3CCOCC3)c2)cc1 (nonaromatic ring conformer: 61.8305771209182 kcal/mol)

>  <smiles>  (40) 
NS(=O)(=O)c1ccc(NC(=O)Nc2cccc(S(=O)(=O)N3CCOCC3)c2)cc1

>  <score_type>  (40) 
oracle

>  <origin>  (40) 
adgpu

>  <m_score__min__energy>  (40) 
-11.970000000000001

>  <m_primary>  (40) 
energy

$$$$
40:0
     RDKit          3D

 49 51  0  0  0  0  0  0  0  0999 V2000
   -3.1277   19.9000  -29.7241 H   0  0  0  0  0  0  0  0  0  0  0  0
   -3.1480   20.4440  -30.6800 C   0  0  0  0  0  0  0  0  0  0  0  0
   -2.1340   20.2880  -31.5710 N   0  0  0  0  0  0  0  0  0  0  0  0
   -2.1280   20.9400  -32.7630 C   0  0  0  0  0  0  0  0  0  0  0  0
   -1.2938   20.7929  -33.4648 H   0  0  0  0  0  0  0  0  0  0  0  0
   -3.1780   21.7960  -33.0990 C   0  0  0  0  0  0  0  0  0  0  0  0
   -3.1832   22.3073  -34.0729 H   0  0  0  0  0  0  0  0  0  0  0  0
   -4.2270   22.0020  -32.1900 C   0  0  0  0  0  0  0  0  0  0  0  0
   -5.3810   22.8990  -32.5740 C   0  0  0  0  0  0  0  0  0  0  0  0
   -5.7312   22.5997  -33.5729 H   0  0  0  0  0  0  0  0  0  0  0  0
   -4.9994   23.9302  -32.5432 H   0  0  0  0  0  0  0  0  0  0  0  0
   -6.5650   22.8470  -31.6200 C   0  0  0  0  0  0  0  0  0  0  0  0
   -6.6620   23.5730  -30.5510 N   0  0  0  0  0  0  0  0  0  0  0  0
   -5.5190   24.7250  -29.9680 S   0  0  0  0  0  0  0  0  0  0  0  0
   -6.1930   25.6710  -29.0140 O   0  0  0  0  0  0  0  0  0  0  0  0
   -5.0050   25.5170  -31.1350 O   0  0  0  0  0  0  0  0  0  0  0  0
   -4.1430   23.9310  -29.2070 C   0  0  0  0  0  0  0  0  0  0  0  0
   -4.3330   23.0480  -28.1370 C   0  0  0  0  0  0  0  0  0  0  0  0
   -5.3481   22.8524  -27.7610 H   0  0  0  0  0  0  0  0  0  0  0  0
   -3.2360   22.4140  -27.5450 C   0  0  0  0  0  0  0  0  0  0  0  0
   -3.3908   21.7226  -26.7036 H   0  0  0  0  0  0  0  0  0  0  0  0
   -1.9380   22.6570  -28.0210 C   0  0  0  0  0  0  0  0  0  0  0  0
   -0.7570   22.0060  -27.3630 C   0  0  0  0  0  0  0  0  0  0  0  0
   -0.8667   22.0665  -26.2702 H   0  0  0  0  0  0  0  0  0  0  0  0
   -0.7028   20.9506  -27.6682 H   0  0  0  0  0  0  0  0  0  0  0  0
    0.1643   22.5237  -27.6682 H   0  0  0  0  0  0  0  0  0  0  0  0
   -1.7480   23.5660  -29.0720 C   0  0  0  0  0  0  0  0  0  0  0  0
   -0.7314   23.7816  -29.4327 H   0  0  0  0  0  0  0  0  0  0  0  0
   -2.8450   24.1990  -29.6630 C   0  0  0  0  0  0  0  0  0  0  0  0
   -2.6893   24.9094  -30.4882 H   0  0  0  0  0  0  0  0  0  0  0  0
   -7.7350   21.9580  -31.9690 C   0  0  0  0  0  0  0  0  0  0  0  0
   -8.4131   21.8983  -31.1050 H   0  0  0  0  0  0  0  0  0  0  0  0
   -8.2578   22.3870  -32.8366 H   0  0  0  0  0  0  0  0  0  0  0  0
   -7.2660   20.5750  -32.3240 C   0  0  0  0  0  0  0  0  0  0  0  0
   -6.5600   20.3560  -33.5160 C   0  0  0  0  0  0  0  0  0  0  0  0
   -6.3104   21.2058  -34.1683 H   0  0  0  0  0  0  0  0  0  0  0  0
   -6.1720   19.0630  -33.8790 C   0  0  0  0  0  0  0  0  0  0  0  0
   -5.6292   18.9004  -34.8218 H   0  0  0  0  0  0  0  0  0  0  0  0
   -6.4700   17.9700  -33.0490 C   0  0  0  0  0  0  0  0  0  0  0  0
   -6.1010   16.5690  -33.4680 C   0  0  0  0  0  0  0  0  0  0  0  0
   -7.2420   15.9030  -33.8790 F   0  0  0  0  0  0  0  0  0  0  0  0
   -5.5300   15.8770  -32.4150 F   0  0  0  0  0  0  0  0  0  0  0  0
   -5.1930   16.5940  -34.5130 F   0  0  0  0  0  0  0  0  0  0  0  0
   -7.2040   18.1890  -31.8700 C   0  0  0  0  0  0  0  0  0  0  0  0
   -7.4748   17.3371  -31.2289 H   0  0  0  0  0  0  0  0  0  0  0  0
   -7.5920   19.4820  -31.5070 C   0  0  0  0  0  0  0  0  0  0  0  0
   -8.1557   19.6433  -30.5763 H   0  0  0  0  0  0  0  0  0  0  0  0
   -4.2160   21.2940  -30.9760 C   0  0  0  0  0  0  0  0  0  0  0  0
   -5.0449   21.4088  -30.2620 H   0  0  0  0  0  0  0  0  0  0  0  0
  1  2  1  0
  2  3  2  0
  3  4  1  0
  4  5  1  0
  4  6  2  0
  6  7  1  0
  6  8  1  0
  8  9  1  0
  9 10  1  0
  9 11  1  0
  9 12  1  0
 12 13  2  0
 13 14  1  0
 14 15  2  0
 14 16  2  0
 14 17  1  0
 17 18  2  0
 18 19  1  0
 18 20  1  0
 20 21  1  0
 20 22  2  0
 22 23  1  0
 23 24  1  0
 23 25  1  0
 23 26  1  0
 22 27  1  0
 27 28  1  0
 27 29  2  0
 29 30  1  0
 12 31  1  0
 31 32  1  0
 31 33  1  0
 31 34  1  0
 34 35  2  0
 35 36  1  0
 35 37  1  0
 37 38  1  0
 37 39  2  0
 39 40  1  0
 40 41  1  0
 40 42  1  0
 40 43  1  0
 39 44  1  0
 44 45  1  0
 44 46  2  0
 46 47  1  0
  8 48  2  0
 48 49  1  0
 48  2  1  0
 29 17  1  0
 46 34  1  0
M  END
>  <UniqueID>  (41) 
41

>  <SMILES>  (41) 
Cc1ccc(S(=O)(=O)/N=C(\Cc2ccncc2)Cc2ccc(C(F)(F)F)cc2)cc1

>  <Energy>  (41) 
52.43240422994963

>  <Genealogy>  (41) 
Cc1ccc(S(=O)(=O)/N=C(\Cc2ccncc2)Cc2ccc(C(F)(F)F)cc2)cc1 (cis-trans isomerization)
Cc1ccc(S(=O)(=O)/N=C(\Cc2ccncc2)Cc2ccc(C(F)(F)F)cc2)cc1 (3D coordinates assigned)
Cc1ccc(S(=O)(=O)/N=C(\Cc2ccncc2)Cc2ccc(C(F)(F)F)cc2)cc1 (optimized conformer: 52.43240422994963 kcal/mol)

>  <smiles>  (41) 
Cc1ccc(S(=O)(=O)N=C(Cc2ccncc2)Cc2ccc(C(F)(F)F)cc2)cc1

>  <score_type>  (41) 
oracle

>  <origin>  (41) 
adgpu

>  <m_score__min__energy>  (41) 
-9.1199999999999992

>  <m_primary>  (41) 
energy

$$$$
41:0
     RDKit          3D

 68 71  0  0  0  0  0  0  0  0999 V2000
    0.1000   26.2350  -26.5460 C   0  0  0  0  0  0  0  0  0  0  0  0
   -1.0970   25.6180  -27.2090 C   0  0  0  0  0  0  0  0  0  0  0  0
   -2.1080   25.0210  -26.4400 C   0  0  0  0  0  0  0  0  0  0  0  0
   -3.2340   24.4760  -27.0640 C   0  0  0  0  0  0  0  0  0  0  0  0
   -3.3470   24.5450  -28.4590 C   0  0  0  0  0  0  0  0  0  0  0  0
   -4.3820   24.0200  -29.0470 N   0  0  0  0  0  0  0  0  0  0  0  0
   -4.6180   24.0230  -30.7690 S   0  0  0  0  0  0  0  0  0  0  0  0
   -4.9210   25.4250  -31.2250 O   0  0  0  0  0  0  0  0  0  0  0  0
   -3.3490   23.5670  -31.4350 O   0  0  0  0  0  0  0  0  0  0  0  0
   -5.9730   22.9650  -31.2100 C   0  0  0  0  0  0  0  0  0  0  0  0
   -7.2870   23.3830  -30.9410 C   0  0  0  0  0  0  0  0  0  0  0  0
   -8.3730   22.5680  -31.2750 C   0  0  0  0  0  0  0  0  0  0  0  0
   -8.1640   21.3280  -31.8860 C   0  0  0  0  0  0  0  0  0  0  0  0
   -6.8640   20.9000  -32.1660 C   0  0  0  0  0  0  0  0  0  0  0  0
   -5.7630   21.7090  -31.8340 C   0  0  0  0  0  0  0  0  0  0  0  0
   -4.4110   21.2180  -32.1420 C   0  0  0  0  0  0  0  0  0  0  0  0
   -3.6110   20.6710  -31.1290 C   0  0  0  0  0  0  0  0  0  0  0  0
   -2.3450   20.1660  -31.4300 C   0  0  0  0  0  0  0  0  0  0  0  0
   -1.8580   20.2150  -32.7480 C   0  0  0  0  0  0  0  0  0  0  0  0
   -0.5020   19.6350  -33.0880 C   0  0  0  0  0  0  0  0  0  0  0  0
   -0.4960   18.1580  -33.2570 N   0  0  0  0  0  0  0  0  0  0  0  0
   -0.5000   17.4610  -31.9590 C   0  0  0  0  0  0  0  0  0  0  0  0
   -1.5710   17.6320  -34.1350 C   0  0  0  0  0  0  0  0  0  0  0  0
   -2.5970   16.7780  -33.3580 C   0  0  0  0  0  0  0  0  0  0  0  0
   -4.0420   17.3320  -33.3350 C   0  0  0  0  0  0  0  0  0  0  0  0
   -5.0530   16.3270  -32.7210 C   0  0  0  0  0  0  0  0  0  0  0  0
   -6.5160   16.6150  -33.1210 C   0  0  0  0  0  0  0  0  0  0  0  0
   -6.7420   18.1020  -33.4210 C   0  0  0  0  0  0  0  0  0  0  0  0
   -5.8680   18.5860  -34.5950 C   0  0  0  0  0  0  0  0  0  0  0  0
   -4.5200   17.8390  -34.7080 C   0  0  0  0  0  0  0  0  0  0  0  0
   -2.6460   20.8070  -33.7510 C   0  0  0  0  0  0  0  0  0  0  0  0
   -3.9170   21.3010  -33.4490 C   0  0  0  0  0  0  0  0  0  0  0  0
   -2.3630   25.1490  -29.1850 N   0  0  0  0  0  0  0  0  0  0  0  0
   -1.2580   25.6850  -28.5990 C   0  0  0  0  0  0  0  0  0  0  0  0
   -0.0148   26.1758  -25.4536 H   0  0  0  0  0  0  0  0  0  0  0  0
    1.0075   25.6923  -26.8493 H   0  0  0  0  0  0  0  0  0  0  0  0
    0.1845   27.2890  -26.8493 H   0  0  0  0  0  0  0  0  0  0  0  0
   -2.0142   24.9819  -25.3447 H   0  0  0  0  0  0  0  0  0  0  0  0
   -4.0235   23.9977  -26.4658 H   0  0  0  0  0  0  0  0  0  0  0  0
   -7.4628   24.3586  -30.4641 H   0  0  0  0  0  0  0  0  0  0  0  0
   -9.3972   22.9043  -31.0559 H   0  0  0  0  0  0  0  0  0  0  0  0
   -9.0219   20.6904  -32.1459 H   0  0  0  0  0  0  0  0  0  0  0  0
   -6.7009   19.9251  -32.6487 H   0  0  0  0  0  0  0  0  0  0  0  0
   -3.9820   20.6397  -30.0939 H   0  0  0  0  0  0  0  0  0  0  0  0
   -1.7260   19.7281  -30.6331 H   0  0  0  0  0  0  0  0  0  0  0  0
   -0.1575   20.0912  -34.0278 H   0  0  0  0  0  0  0  0  0  0  0  0
    0.1596   19.8586  -32.2381 H   0  0  0  0  0  0  0  0  0  0  0  0
   -0.4958   18.2012  -31.1453 H   0  0  0  0  0  0  0  0  0  0  0  0
   -1.4017   16.8359  -31.8813 H   0  0  0  0  0  0  0  0  0  0  0  0
    0.3945   16.8255  -31.8813 H   0  0  0  0  0  0  0  0  0  0  0  0
   -2.0957   18.4803  -34.5988 H   0  0  0  0  0  0  0  0  0  0  0  0
   -1.1015   16.9873  -34.8926 H   0  0  0  0  0  0  0  0  0  0  0  0
   -2.6241   15.7790  -33.8176 H   0  0  0  0  0  0  0  0  0  0  0  0
   -2.2575   16.7749  -32.3117 H   0  0  0  0  0  0  0  0  0  0  0  0
   -4.0054   18.2091  -32.6721 H   0  0  0  0  0  0  0  0  0  0  0  0
   -4.7902   15.3146  -33.0617 H   0  0  0  0  0  0  0  0  0  0  0  0
   -4.9879   16.4249  -31.6273 H   0  0  0  0  0  0  0  0  0  0  0  0
   -6.7615   16.0292  -34.0191 H   0  0  0  0  0  0  0  0  0  0  0  0
   -7.1630   16.3342  -32.2769 H   0  0  0  0  0  0  0  0  0  0  0  0
   -7.8005   18.2572  -33.6769 H   0  0  0  0  0  0  0  0  0  0  0  0
   -6.4642   18.6784  -32.5263 H   0  0  0  0  0  0  0  0  0  0  0  0
   -6.4278   18.4377  -35.5302 H   0  0  0  0  0  0  0  0  0  0  0  0
   -5.6366   19.6456  -34.4111 H   0  0  0  0  0  0  0  0  0  0  0  0
   -4.6424   16.9799  -35.3840 H   0  0  0  0  0  0  0  0  0  0  0  0
   -3.7677   18.5395  -35.0995 H   0  0  0  0  0  0  0  0  0  0  0  0
   -2.2596   20.8814  -34.7782 H   0  0  0  0  0  0  0  0  0  0  0  0
   -4.5311   21.7563  -34.2400 H   0  0  0  0  0  0  0  0  0  0  0  0
   -0.4898   26.1718  -29.2178 H   0  0  0  0  0  0  0  0  0  0  0  0
  1  2  1  0
  2  3  1  0
  3  4  2  0
  4  5  1  0
  5  6  2  3
  6  7  1  0
  7  8  2  0
  7  9  2  0
  7 10  1  0
 10 11  2  0
 11 12  1  0
 12 13  2  0
 13 14  1  0
 14 15  2  0
 15 16  1  0
 16 17  2  0
 17 18  1  0
 18 19  2  0
 19 20  1  0
 20 21  1  0
 21 22  1  0
 21 23  1  0
 23 24  1  0
 24 25  1  0
 25 26  1  0
 26 27  1  0
 27 28  1  0
 28 29  1  0
 29 30  1  0
 19 31  1  0
 31 32  2  0
  5 33  1  0
 33 34  1  0
 34  2  2  0
 15 10  1  0
 32 16  1  0
 30 25  1  0
  1 35  1  0
  1 36  1  0
  1 37  1  0
  3 38  1  0
  4 39  1  0
 11 40  1  0
 12 41  1  0
 13 42  1  0
 14 43  1  0
 17 44  1  0
 18 45  1  0
 20 46  1  0
 20 47  1  0
 22 48  1  0
 22 49  1  0
 22 50  1  0
 23 51  1  0
 23 52  1  0
 24 53  1  0
 24 54  1  0
 25 55  1  0
 26 56  1  0
 26 57  1  0
 27 58  1  0
 27 59  1  0
 28 60  1  0
 28 61  1  0
 29 62  1  0
 29 63  1  0
 30 64  1  0
 30 65  1  0
 31 66  1  0
 32 67  1  0
 34 68  1  0
M  CHG  1  33  -1
M  END
>  <UniqueID>  (42) 
42

>  <SMILES>  (42) 
Cc1ccc(=NS(=O)(=O)c2ccccc2-c2ccc(CN(C)CCC3CCCCC3)cc2)[n-]c1

>  <Energy>  (42) 
86.36623229964927

>  <Genealogy>  (42) 
Cc1ccc(=NS(=O)(=O)c2ccccc2-c2ccc(CN(C)CCC3CCCCC3)cc2)[n-]c1 (protonated)
Cc1ccc(=NS(=O)(=O)c2ccccc2-c2ccc(CN(C)CCC3CCCCC3)cc2)[n-]c1 (3D coordinates assigned)
Cc1ccc(=NS(=O)(=O)c2ccccc2-c2ccc(CN(C)CCC3CCCCC3)cc2)[n-]c1 (nonaromatic ring conformer: 86.36623229964927 kcal/mol)

>  <smiles>  (42) 
Cc1ccc(=NS(=O)(=O)c2ccccc2-c2ccc(CN(C)CCC3CCCCC3)cc2)[nH]c1

>  <score_type>  (42) 
oracle

>  <origin>  (42) 
adgpu

>  <m_score__min__energy>  (42) 
-11.91

>  <m_primary>  (42) 
energy

$$$$
42:0
     RDKit          3D

 48 50  0  0  0  0  0  0  0  0999 V2000
   -6.2570   24.9470  -30.8520 H   0  0  0  0  0  0  0  0  0  0  0  0
   -7.1340   24.5210  -31.1210 O   0  0  0  0  0  0  0  0  0  0  0  0
   -7.3020   23.1410  -31.2420 C   0  0  0  0  0  0  0  0  0  0  0  0
   -8.5620   22.6580  -31.6140 C   0  0  0  0  0  0  0  0  0  0  0  0
   -9.4017   23.3588  -31.7316 H   0  0  0  0  0  0  0  0  0  0  0  0
   -8.7620   21.2950  -31.8370 C   0  0  0  0  0  0  0  0  0  0  0  0
   -9.7586   20.9272  -32.1225 H   0  0  0  0  0  0  0  0  0  0  0  0
   -7.7000   20.3940  -31.6990 C   0  0  0  0  0  0  0  0  0  0  0  0
   -7.9410   18.6760  -32.0260 S   0  0  0  0  0  0  0  0  0  0  0  0
   -7.4280   17.8730  -30.8620 O   0  0  0  0  0  0  0  0  0  0  0  0
   -9.4120   18.4010  -32.1680 O   0  0  0  0  0  0  0  0  0  0  0  0
   -7.1180   18.1800  -33.4870 N   0  0  0  0  0  0  0  0  0  0  0  0
   -6.3180   19.2890  -34.0660 C   0  0  0  0  0  0  0  0  0  0  0  0
   -6.4804   19.3079  -35.1538 H   0  0  0  0  0  0  0  0  0  0  0  0
   -6.6505   20.2209  -33.5855 H   0  0  0  0  0  0  0  0  0  0  0  0
   -4.8120   19.1450  -33.7980 C   0  0  0  0  0  0  0  0  0  0  0  0
   -4.2810   19.9826  -34.2739 H   0  0  0  0  0  0  0  0  0  0  0  0
   -4.6492   19.1512  -32.7101 H   0  0  0  0  0  0  0  0  0  0  0  0
   -4.2710   17.8200  -34.3650 C   0  0  0  0  0  0  0  0  0  0  0  0
   -3.9502   17.9871  -35.4038 H   0  0  0  0  0  0  0  0  0  0  0  0
   -3.4338   17.5032  -33.7257 H   0  0  0  0  0  0  0  0  0  0  0  0
   -5.3200   16.6920  -34.3490 C   0  0  0  0  0  0  0  0  0  0  0  0
   -5.8248   16.6563  -35.3257 H   0  0  0  0  0  0  0  0  0  0  0  0
   -4.8079   15.7401  -34.1449 H   0  0  0  0  0  0  0  0  0  0  0  0
   -6.3640   16.9290  -33.2540 C   0  0  0  0  0  0  0  0  0  0  0  0
   -7.0681   16.0840  -33.2423 H   0  0  0  0  0  0  0  0  0  0  0  0
   -5.8406   17.0153  -32.2904 H   0  0  0  0  0  0  0  0  0  0  0  0
   -6.4420   20.8680  -31.3000 C   0  0  0  0  0  0  0  0  0  0  0  0
   -5.6051   20.1627  -31.1901 H   0  0  0  0  0  0  0  0  0  0  0  0
   -6.2390   22.2280  -31.0400 C   0  0  0  0  0  0  0  0  0  0  0  0
   -4.9400   22.6450  -30.5950 N   0  0  0  0  0  0  0  0  0  0  0  0
   -4.6560   22.9190  -29.3580 C   0  0  0  0  0  0  0  0  0  0  0  0
   -5.4366   22.8243  -28.5888 H   0  0  0  0  0  0  0  0  0  0  0  0
   -3.2970   23.3570  -28.9680 C   0  0  0  0  0  0  0  0  0  0  0  0
   -2.5330   22.6100  -28.0510 C   0  0  0  0  0  0  0  0  0  0  0  0
   -2.9496   21.6889  -27.6174 H   0  0  0  0  0  0  0  0  0  0  0  0
   -1.2510   23.0280  -27.6870 C   0  0  0  0  0  0  0  0  0  0  0  0
   -0.6654   22.4352  -26.9689 H   0  0  0  0  0  0  0  0  0  0  0  0
   -0.7050   24.2030  -28.2340 C   0  0  0  0  0  0  0  0  0  0  0  0
    0.5780   24.6630  -27.9010 O   0  0  0  0  0  0  0  0  0  0  0  0
    1.1280   24.6320  -26.5880 C   0  0  0  0  0  0  0  0  0  0  0  0
    0.3148   24.6778  -25.8487 H   0  0  0  0  0  0  0  0  0  0  0  0
    1.6965   23.7004  -26.4505 H   0  0  0  0  0  0  0  0  0  0  0  0
    1.7976   25.4938  -26.4505 H   0  0  0  0  0  0  0  0  0  0  0  0
   -1.4610   24.9460  -29.1460 C   0  0  0  0  0  0  0  0  0  0  0  0
   -1.0405   25.8658  -29.5786 H   0  0  0  0  0  0  0  0  0  0  0  0
   -2.7470   24.5330  -29.5150 C   0  0  0  0  0  0  0  0  0  0  0  0
   -3.4670   25.2990  -30.4260 O   0  0  0  0  0  0  0  0  0  0  0  0
  1  2  1  0
  2  3  1  0
  3  4  2  0
  4  5  1  0
  4  6  1  0
  6  7  1  0
  6  8  2  0
  8  9  1  0
  9 10  2  0
  9 11  2  0
  9 12  1  0
 12 13  1  0
 13 14  1  0
 13 15  1  0
 13 16  1  0
 16 17  1  0
 16 18  1  0
 16 19  1  0
 19 20  1  0
 19 21  1  0
 19 22  1  0
 22 23  1  0
 22 24  1  0
 22 25  1  0
 25 26  1  0
 25 27  1  0
  8 28  1  0
 28 29  1  0
 28 30  2  0
 30 31  1  0
 31 32  2  0
 32 33  1  0
 32 34  1  0
 34 35  2  0
 35 36  1  0
 35 37  1  0
 37 38  1  0
 37 39  2  0
 39 40  1  0
 40 41  1  0
 41 42  1  0
 41 43  1  0
 41 44  1  0
 39 45  1  0
 45 46  1  0
 45 47  2  0
 47 48  1  0
 30  3  1  0
 47 34  1  0
 25 12  1  0
M  CHG  1  48  -1
M  END
>  <UniqueID>  (43) 
43

>  <SMILES>  (43) 
COc1ccc(/C=N/c2cc(S(=O)(=O)N3CCCCC3)ccc2O)c([O-])c1

>  <Energy>  (43) 
60.855072827801116

>  <Genealogy>  (43) 
COc1ccc(C=Nc2cc(S(=O)(=O)N3CCCCC3)ccc2O)c([O-])c1 (protonated)
COc1ccc(/C=N/c2cc(S(=O)(=O)N3CCCCC3)ccc2O)c([O-])c1 (cis-trans isomerization)
COc1ccc(/C=N/c2cc(S(=O)(=O)N3CCCCC3)ccc2O)c([O-])c1 (3D coordinates assigned)
COc1ccc(/C=N/c2cc(S(=O)(=O)N3CCCCC3)ccc2O)c([O-])c1 (nonaromatic ring conformer: 60.855072827801116 kcal/mol)

>  <smiles>  (43) 
COc1ccc(C=Nc2cc(S(=O)(=O)N3CCCCC3)ccc2O)c(O)c1

>  <score_type>  (43) 
oracle

>  <origin>  (43) 
adgpu

>  <m_score__min__energy>  (43) 
-12.279999999999999

>  <m_primary>  (43) 
energy

$$$$
43:0
     RDKit          3D

 61 65  0  0  0  0  0  0  0  0999 V2000
   -6.0290   14.9670  -34.0990 C   0  0  0  0  0  0  0  0  0  0  0  0
   -6.0090   16.3760  -33.6080 C   0  0  0  0  0  0  0  0  0  0  0  0
   -7.1150   17.1720  -33.3950 C   0  0  0  0  0  0  0  0  0  0  0  0
   -6.5890   18.3870  -33.0010 C   0  0  0  0  0  0  0  0  0  0  0  0
   -7.3880   19.5450  -32.5500 C   0  0  0  0  0  0  0  0  0  0  0  0
   -8.7810   19.5630  -32.7270 C   0  0  0  0  0  0  0  0  0  0  0  0
   -9.5270   20.6700  -32.3170 C   0  0  0  0  0  0  0  0  0  0  0  0
   -8.8920   21.7660  -31.7280 C   0  0  0  0  0  0  0  0  0  0  0  0
   -7.5000   21.7650  -31.5430 C   0  0  0  0  0  0  0  0  0  0  0  0
   -6.8430   22.8960  -30.9390 N   0  0  0  0  0  0  0  0  0  0  0  0
   -6.2090   22.7760  -29.6190 C   0  0  0  0  0  0  0  0  0  0  0  0
   -4.7390   23.2260  -29.6770 C   0  0  0  0  0  0  0  0  0  0  0  0
   -4.4810   24.3750  -30.6830 C   0  0  0  0  0  0  0  0  0  0  0  0
   -3.4900   25.2920  -30.1290 N   0  0  0  0  0  0  0  0  0  0  0  0
   -2.3850   24.8800  -29.3160 C   0  0  0  0  0  0  0  0  0  0  0  0
   -2.1480   25.4660  -28.2280 O   0  0  0  0  0  0  0  0  0  0  0  0
   -1.5730   23.7640  -29.6960 N   0  0  0  0  0  0  0  0  0  0  0  0
   -1.4450   22.5260  -28.9830 C   0  0  0  0  0  0  0  0  0  0  0  0
   -2.2830   22.1980  -27.9010 C   0  0  0  0  0  0  0  0  0  0  0  0
   -2.1370   20.9710  -27.2470 C   0  0  0  0  0  0  0  0  0  0  0  0
   -1.1700   20.0590  -27.6750 C   0  0  0  0  0  0  0  0  0  0  0  0
   -1.0270   18.8700  -27.0370 F   0  0  0  0  0  0  0  0  0  0  0  0
   -0.3550   20.3660  -28.7670 C   0  0  0  0  0  0  0  0  0  0  0  0
   -0.4970   21.5920  -29.4230 C   0  0  0  0  0  0  0  0  0  0  0  0
   -5.7730   25.1380  -31.0250 C   0  0  0  0  0  0  0  0  0  0  0  0
   -6.8030   24.1840  -31.6470 C   0  0  0  0  0  0  0  0  0  0  0  0
   -6.7530   20.6560  -31.9730 C   0  0  0  0  0  0  0  0  0  0  0  0
   -5.2360   18.2990  -33.0140 N   0  0  0  0  0  0  0  0  0  0  0  0
   -4.2760   19.3420  -32.7680 C   0  0  0  0  0  0  0  0  0  0  0  0
   -4.0360   19.8130  -31.4650 C   0  0  0  0  0  0  0  0  0  0  0  0
   -3.1150   20.8410  -31.2440 C   0  0  0  0  0  0  0  0  0  0  0  0
   -2.4440   21.4240  -32.3190 C   0  0  0  0  0  0  0  0  0  0  0  0
   -2.6950   20.9810  -33.6200 C   0  0  0  0  0  0  0  0  0  0  0  0
   -3.6100   19.9480  -33.8460 C   0  0  0  0  0  0  0  0  0  0  0  0
   -4.8820   17.0790  -33.3870 N   0  0  0  0  0  0  0  0  0  0  0  0
   -6.0388   14.2796  -33.2403 H   0  0  0  0  0  0  0  0  0  0  0  0
   -6.9295   14.8041  -34.7093 H   0  0  0  0  0  0  0  0  0  0  0  0
   -5.1334   14.7786  -34.7093 H   0  0  0  0  0  0  0  0  0  0  0  0
   -8.1746   16.9010  -33.5122 H   0  0  0  0  0  0  0  0  0  0  0  0
   -9.2861   18.7025  -33.1900 H   0  0  0  0  0  0  0  0  0  0  0  0
  -10.6179   20.6790  -32.4583 H   0  0  0  0  0  0  0  0  0  0  0  0
   -9.4857   22.6347  -31.4073 H   0  0  0  0  0  0  0  0  0  0  0  0
   -6.7514   23.4070  -28.8995 H   0  0  0  0  0  0  0  0  0  0  0  0
   -6.2434   21.7222  -29.3054 H   0  0  0  0  0  0  0  0  0  0  0  0
   -4.4402   23.5676  -28.6750 H   0  0  0  0  0  0  0  0  0  0  0  0
   -4.1504   22.3613  -30.0173 H   0  0  0  0  0  0  0  0  0  0  0  0
   -4.1026   23.9328  -31.6164 H   0  0  0  0  0  0  0  0  0  0  0  0
   -3.0544   22.9085  -27.5692 H   0  0  0  0  0  0  0  0  0  0  0  0
   -2.7852   20.7235  -26.3935 H   0  0  0  0  0  0  0  0  0  0  0  0
    0.3989   19.6426  -29.1109 H   0  0  0  0  0  0  0  0  0  0  0  0
    0.1390   21.8253  -30.2897 H   0  0  0  0  0  0  0  0  0  0  0  0
   -6.1909   25.5751  -30.1062 H   0  0  0  0  0  0  0  0  0  0  0  0
   -5.5393   25.9343  -31.7470 H   0  0  0  0  0  0  0  0  0  0  0  0
   -7.7980   24.6504  -31.5965 H   0  0  0  0  0  0  0  0  0  0  0  0
   -6.5110   23.9946  -32.6905 H   0  0  0  0  0  0  0  0  0  0  0  0
   -5.6592   20.6581  -31.8564 H   0  0  0  0  0  0  0  0  0  0  0  0
   -4.5759   19.3701  -30.6151 H   0  0  0  0  0  0  0  0  0  0  0  0
   -2.9189   21.1911  -30.2198 H   0  0  0  0  0  0  0  0  0  0  0  0
   -1.7182   22.2315  -32.1426 H   0  0  0  0  0  0  0  0  0  0  0  0
   -2.1716   21.4459  -34.4685 H   0  0  0  0  0  0  0  0  0  0  0  0
   -3.8092   19.6083  -34.8731 H   0  0  0  0  0  0  0  0  0  0  0  0
  1  2  1  0
  2  3  1  0
  3  4  2  0
  4  5  1  0
  5  6  2  0
  6  7  1  0
  7  8  2  0
  8  9  1  0
  9 10  1  0
 10 11  1  0
 11 12  1  0
 12 13  1  0
 13 14  1  0
 14 15  1  0
 15 16  2  0
 15 17  1  0
 17 18  1  0
 18 19  2  0
 19 20  1  0
 20 21  2  0
 21 22  1  0
 21 23  1  0
 23 24  2  0
 13 25  1  0
 25 26  1  0
  9 27  2  0
  4 28  1  0
 28 29  1  0
 29 30  2  0
 30 31  1  0
 31 32  2  0
 32 33  1  0
 33 34  2  0
 28 35  1  0
 35  2  2  0
 27  5  1  0
 34 29  1  0
 26 10  1  0
 24 18  1  0
  1 36  1  0
  1 37  1  0
  1 38  1  0
  3 39  1  0
  6 40  1  0
  7 41  1  0
  8 42  1  0
 11 43  1  0
 11 44  1  0
 12 45  1  0
 12 46  1  0
 13 47  1  0
 19 48  1  0
 20 49  1  0
 23 50  1  0
 24 51  1  0
 25 52  1  0
 25 53  1  0
 26 54  1  0
 26 55  1  0
 27 56  1  0
 30 57  1  0
 31 58  1  0
 32 59  1  0
 33 60  1  0
 34 61  1  0
M  CHG  2  14  -1  17  -1
M  END
>  <UniqueID>  (44) 
44

>  <SMILES>  (44) 
Cc1cc(-c2cccc(N3CCC([N-]C(=O)[N-]c4ccc(F)cc4)CC3)c2)n(-c2ccccc2)n1

>  <Energy>  (44) 
111.5207782504656

>  <Genealogy>  (44) 
Cc1cc(-c2cccc(N3CCC([N-]C(=O)[N-]c4ccc(F)cc4)CC3)c2)n(-c2ccccc2)n1 (protonated)
Cc1cc(-c2cccc(N3CCC([N-]C(=O)[N-]c4ccc(F)cc4)CC3)c2)n(-c2ccccc2)n1 (3D coordinates assigned)
Cc1cc(-c2cccc(N3CCC([N-]C(=O)[N-]c4ccc(F)cc4)CC3)c2)n(-c2ccccc2)n1 (nonaromatic ring conformer: 111.5207782504656 kcal/mol)

>  <smiles>  (44) 
Cc1cc(-c2cccc(N3CCC(NC(=O)Nc4ccc(F)cc4)CC3)c2)n(-c2ccccc2)n1

>  <score_type>  (44) 
oracle

>  <origin>  (44) 
adgpu

>  <m_score__min__energy>  (44) 
-14.18

>  <m_primary>  (44) 
energy

$$$$
44:0
     RDKit          3D

 48 50  0  0  0  0  0  0  0  0999 V2000
   -1.1650   21.3920  -27.2720 C   0  0  0  0  0  0  0  0  0  0  0  0
   -1.8100   22.4550  -28.1210 C   0  0  0  0  0  0  0  0  0  0  0  0
   -2.8800   22.0790  -28.9510 C   0  0  0  0  0  0  0  0  0  0  0  0
   -3.5360   23.0190  -29.7420 C   0  0  0  0  0  0  0  0  0  0  0  0
   -3.1530   24.3590  -29.7120 C   0  0  0  0  0  0  0  0  0  0  0  0
   -3.8640   25.2910  -30.5380 N   0  0  0  0  0  0  0  0  0  0  0  0
   -5.2140   25.1330  -30.9930 C   0  0  0  0  0  0  0  0  0  0  0  0
   -6.1420   25.8040  -30.4690 O   0  0  0  0  0  0  0  0  0  0  0  0
   -5.5410   24.1390  -31.9690 N   0  0  0  0  0  0  0  0  0  0  0  0
   -6.4950   23.0800  -31.8090 C   0  0  0  0  0  0  0  0  0  0  0  0
   -7.5560   23.1720  -30.8930 C   0  0  0  0  0  0  0  0  0  0  0  0
   -8.4510   22.1120  -30.7470 C   0  0  0  0  0  0  0  0  0  0  0  0
   -8.2900   20.9460  -31.4990 C   0  0  0  0  0  0  0  0  0  0  0  0
   -7.2190   20.8240  -32.4020 C   0  0  0  0  0  0  0  0  0  0  0  0
   -7.0390   19.5810  -33.1910 C   0  0  0  0  0  0  0  0  0  0  0  0
   -7.9500   18.4930  -33.0480 N   0  0  0  0  0  0  0  0  0  0  0  0
   -6.0770   19.4740  -33.9980 O   0  0  0  0  0  0  0  0  0  0  0  0
   -6.3200   21.8990  -32.5420 C   0  0  0  0  0  0  0  0  0  0  0  0
   -2.0500   24.7480  -28.9290 C   0  0  0  0  0  0  0  0  0  0  0  0
   -1.6050   26.0670  -28.9720 O   0  0  0  0  0  0  0  0  0  0  0  0
   -1.3730   23.8080  -28.1230 C   0  0  0  0  0  0  0  0  0  0  0  0
   -0.0110   24.4020  -27.1370 S   0  0  0  0  0  0  0  0  0  0  0  0
    0.5800   25.6000  -27.8280 O   0  0  0  0  0  0  0  0  0  0  0  0
    1.0780   23.3810  -26.9650 O   0  0  0  0  0  0  0  0  0  0  0  0
   -0.6090   24.8800  -25.5660 N   0  0  0  0  0  0  0  0  0  0  0  0
    0.4650   25.5400  -24.8000 C   0  0  0  0  0  0  0  0  0  0  0  0
   -0.1260   26.3970  -23.6680 C   0  0  0  0  0  0  0  0  0  0  0  0
   -1.0040   27.4260  -24.1110 O   0  0  0  0  0  0  0  0  0  0  0  0
   -1.5500   27.1970  -25.4020 C   0  0  0  0  0  0  0  0  0  0  0  0
   -1.8290   25.7110  -25.6870 C   0  0  0  0  0  0  0  0  0  0  0  0
   -1.3113   21.6331  -26.2088 H   0  0  0  0  0  0  0  0  0  0  0  0
   -1.6241   20.4172  -27.4935 H   0  0  0  0  0  0  0  0  0  0  0  0
   -0.0884   21.3490  -27.4935 H   0  0  0  0  0  0  0  0  0  0  0  0
   -3.2037   21.0280  -28.9762 H   0  0  0  0  0  0  0  0  0  0  0  0
   -4.3623   22.7018  -30.3951 H   0  0  0  0  0  0  0  0  0  0  0  0
   -7.6815   24.0827  -30.2890 H   0  0  0  0  0  0  0  0  0  0  0  0
   -9.2869   22.1947  -30.0368 H   0  0  0  0  0  0  0  0  0  0  0  0
   -9.0053   20.1182  -31.3842 H   0  0  0  0  0  0  0  0  0  0  0  0
   -8.8740   18.4990  -33.5360 H   0  0  0  0  0  0  0  0  0  0  0  0
   -5.4704   21.8103  -33.2351 H   0  0  0  0  0  0  0  0  0  0  0  0
    1.1238   24.7731  -24.3666 H   0  0  0  0  0  0  0  0  0  0  0  0
    1.0351   26.1921  -25.4780 H   0  0  0  0  0  0  0  0  0  0  0  0
   -0.6850   25.7350  -22.9903 H   0  0  0  0  0  0  0  0  0  0  0  0
    0.7212   26.8959  -23.1748 H   0  0  0  0  0  0  0  0  0  0  0  0
   -2.4958   27.7525  -25.4852 H   0  0  0  0  0  0  0  0  0  0  0  0
   -0.8053   27.5367  -26.1369 H   0  0  0  0  0  0  0  0  0  0  0  0
   -2.5783   25.3470  -24.9687 H   0  0  0  0  0  0  0  0  0  0  0  0
   -2.1932   25.6279  -26.7216 H   0  0  0  0  0  0  0  0  0  0  0  0
  1  2  1  0
  2  3  2  0
  3  4  1  0
  4  5  2  0
  5  6  1  0
  6  7  1  0
  7  8  2  0
  7  9  1  0
  9 10  1  0
 10 11  2  0
 11 12  1  0
 12 13  2  0
 13 14  1  0
 14 15  1  0
 15 16  1  0
 15 17  2  0
 14 18  2  0
  5 19  1  0
 19 20  1  0
 19 21  2  0
 21 22  1  0
 22 23  2  0
 22 24  2  0
 22 25  1  0
 25 26  1  0
 26 27  1  0
 27 28  1  0
 28 29  1  0
 29 30  1  0
 21  2  1  0
 30 25  1  0
 18 10  1  0
  1 31  1  0
  1 32  1  0
  1 33  1  0
  3 34  1  0
  4 35  1  0
 11 36  1  0
 12 37  1  0
 13 38  1  0
 16 39  1  0
 18 40  1  0
 26 41  1  0
 26 42  1  0
 27 43  1  0
 27 44  1  0
 29 45  1  0
 29 46  1  0
 30 47  1  0
 30 48  1  0
M  CHG  4   6  -1   9  -1  16  -1  20  -1
M  END
>  <UniqueID>  (45) 
45

>  <SMILES>  (45) 
Cc1ccc([N-]C(=O)[N-]c2cccc(C([NH-])=O)c2)c([O-])c1S(=O)(=O)N1CCOCC1

>  <Energy>  (45) 
74.97963060990702

>  <Genealogy>  (45) 
Cc1ccc([N-]C(=O)[N-]c2cccc(C([NH-])=O)c2)c([O-])c1S(=O)(=O)N1CCOCC1 (protonated)
Cc1ccc([N-]C(=O)[N-]c2cccc(C([NH-])=O)c2)c([O-])c1S(=O)(=O)N1CCOCC1 (3D coordinates assigned)
Cc1ccc([N-]C(=O)[N-]c2cccc(C([NH-])=O)c2)c([O-])c1S(=O)(=O)N1CCOCC1 (nonaromatic ring conformer: 74.97963060990702 kcal/mol)

>  <smiles>  (45) 
Cc1ccc(NC(=O)Nc2cccc(C(N)=O)c2)c(O)c1S(=O)(=O)N1CCOCC1

>  <score_type>  (45) 
oracle

>  <origin>  (45) 
adgpu

>  <m_score__min__energy>  (45) 
-14.970000000000001

>  <m_primary>  (45) 
energy

$$$$
45:0
     RDKit          3D

 55 57  0  0  0  0  0  0  0  0999 V2000
   -3.5740   15.9090  -34.6640 C   0  0  0  0  0  0  0  0  0  0  0  0
   -3.1270   17.2950  -34.2830 C   0  0  0  0  0  0  0  0  0  0  0  0
   -1.8030   17.6740  -34.5630 C   0  0  0  0  0  0  0  0  0  0  0  0
   -1.3420   18.9490  -34.2380 C   0  0  0  0  0  0  0  0  0  0  0  0
   -2.1870   19.8700  -33.6170 C   0  0  0  0  0  0  0  0  0  0  0  0
   -1.6770   21.1740  -33.3040 N   0  0  0  0  0  0  0  0  0  0  0  0
   -0.4920   21.4590  -32.5500 C   0  0  0  0  0  0  0  0  0  0  0  0
    0.6290   21.5530  -33.1190 O   0  0  0  0  0  0  0  0  0  0  0  0
   -0.5890   21.6530  -31.0700 C   0  0  0  0  0  0  0  0  0  0  0  0
   -1.8380   20.9550  -30.5230 C   0  0  0  0  0  0  0  0  0  0  0  0
   -2.5490   21.7820  -29.4410 C   0  0  0  0  0  0  0  0  0  0  0  0
   -3.4010   22.8420  -30.0320 N   0  0  0  0  0  0  0  0  0  0  0  0
   -4.5040   22.4730  -30.7680 C   0  0  0  0  0  0  0  0  0  0  0  0
   -4.7980   21.2560  -30.9270 O   0  0  0  0  0  0  0  0  0  0  0  0
   -5.3230   23.4380  -31.3540 C   0  0  0  0  0  0  0  0  0  0  0  0
   -5.0070   24.7760  -31.1810 C   0  0  0  0  0  0  0  0  0  0  0  0
   -3.9200   25.1210  -30.4530 N   0  0  0  0  0  0  0  0  0  0  0  0
   -3.1170   24.1860  -29.8790 C   0  0  0  0  0  0  0  0  0  0  0  0
   -1.8270   24.7290  -29.0180 S   0  0  0  0  0  0  0  0  0  0  0  0
   -3.5250   19.5200  -33.3740 C   0  0  0  0  0  0  0  0  0  0  0  0
   -4.0080   18.2430  -33.7030 C   0  0  0  0  0  0  0  0  0  0  0  0
   -5.7070   17.8710  -33.3380 S   0  0  0  0  0  0  0  0  0  0  0  0
   -6.4900   17.8120  -34.6210 O   0  0  0  0  0  0  0  0  0  0  0  0
   -5.8040   16.5250  -32.6750 O   0  0  0  0  0  0  0  0  0  0  0  0
   -6.3870   19.1000  -32.2940 N   0  0  0  0  0  0  0  0  0  0  0  0
   -6.7560   20.2900  -33.1000 C   0  0  0  0  0  0  0  0  0  0  0  0
   -7.7660   21.1780  -32.3660 C   0  0  0  0  0  0  0  0  0  0  0  0
   -9.0830   20.4210  -32.1130 C   0  0  0  0  0  0  0  0  0  0  0  0
   -8.8880   18.8970  -32.0420 C   0  0  0  0  0  0  0  0  0  0  0  0
   -7.5030   18.5430  -31.4800 C   0  0  0  0  0  0  0  0  0  0  0  0
   -3.7634   15.3216  -33.7535 H   0  0  0  0  0  0  0  0  0  0  0  0
   -4.4974   15.9720  -35.2585 H   0  0  0  0  0  0  0  0  0  0  0  0
   -2.7878   15.4206  -35.2585 H   0  0  0  0  0  0  0  0  0  0  0  0
   -1.1224   16.9562  -35.0442 H   0  0  0  0  0  0  0  0  0  0  0  0
   -0.3050   19.2311  -34.4727 H   0  0  0  0  0  0  0  0  0  0  0  0
    0.3043   21.2279  -30.5890 H   0  0  0  0  0  0  0  0  0  0  0  0
   -0.6571   22.7294  -30.8540 H   0  0  0  0  0  0  0  0  0  0  0  0
   -2.5387   20.7842  -31.3536 H   0  0  0  0  0  0  0  0  0  0  0  0
   -1.5171   20.0088  -30.0629 H   0  0  0  0  0  0  0  0  0  0  0  0
   -3.1799   21.1126  -28.8378 H   0  0  0  0  0  0  0  0  0  0  0  0
   -1.7811   22.2661  -28.8197 H   0  0  0  0  0  0  0  0  0  0  0  0
   -6.2038   23.1422  -31.9428 H   0  0  0  0  0  0  0  0  0  0  0  0
   -5.6378   25.5551  -31.6340 H   0  0  0  0  0  0  0  0  0  0  0  0
   -4.2043   20.2563  -32.9196 H   0  0  0  0  0  0  0  0  0  0  0  0
   -5.6280   19.3880  -31.6340 H   0  0  0  0  0  0  0  0  0  0  0  0
   -5.8487   20.8767  -33.3062 H   0  0  0  0  0  0  0  0  0  0  0  0
   -7.2199   19.9418  -34.0347 H   0  0  0  0  0  0  0  0  0  0  0  0
   -7.3381   21.4883  -31.4013 H   0  0  0  0  0  0  0  0  0  0  0  0
   -7.9809   22.0566  -32.9920 H   0  0  0  0  0  0  0  0  0  0  0  0
   -9.5095   20.7659  -31.1595 H   0  0  0  0  0  0  0  0  0  0  0  0
   -9.7543   20.6308  -32.9587 H   0  0  0  0  0  0  0  0  0  0  0  0
   -9.6615   18.4657  -31.3896 H   0  0  0  0  0  0  0  0  0  0  0  0
   -8.9679   18.4865  -33.0594 H   0  0  0  0  0  0  0  0  0  0  0  0
   -7.4260   18.9435  -30.4584 H   0  0  0  0  0  0  0  0  0  0  0  0
   -7.4098   17.4471  -31.4985 H   0  0  0  0  0  0  0  0  0  0  0  0
  1  2  1  0
  2  3  2  0
  3  4  1  0
  4  5  2  0
  5  6  1  0
  6  7  1  0
  7  8  2  0
  7  9  1  0
  9 10  1  0
 10 11  1  0
 11 12  1  0
 12 13  1  0
 13 14  2  0
 13 15  1  0
 15 16  2  0
 16 17  1  0
 17 18  1  0
 18 19  2  0
  5 20  1  0
 20 21  2  0
 21 22  1  0
 22 23  2  0
 22 24  2  0
 22 25  1  0
 25 26  1  0
 26 27  1  0
 27 28  1  0
 28 29  1  0
 29 30  1  0
 21  2  1  0
 30 25  1  0
 18 12  1  0
  1 31  1  0
  1 32  1  0
  1 33  1  0
  3 34  1  0
  4 35  1  0
  9 36  1  0
  9 37  1  0
 10 38  1  0
 10 39  1  0
 11 40  1  0
 11 41  1  0
 15 42  1  0
 16 43  1  0
 20 44  1  0
 25 45  1  0
 26 46  1  0
 26 47  1  0
 27 48  1  0
 27 49  1  0
 28 50  1  0
 28 51  1  0
 29 52  1  0
 29 53  1  0
 30 54  1  0
 30 55  1  0
M  CHG  3   6  -1  17  -1  25   1
M  END
>  <UniqueID>  (46) 
46

>  <SMILES>  (46) 
Cc1ccc([N-]C(=O)CCCn2c(=O)cc[n-]c2=S)cc1S(=O)(=O)[NH+]1CCCCC1

>  <Energy>  (46) 
67.47512057739027

>  <Genealogy>  (46) 
Cc1ccc([N-]C(=O)CCCn2c(=O)cc[n-]c2=S)cc1S(=O)(=O)[NH+]1CCCCC1 (protonated)
Cc1ccc([N-]C(=O)CCCn2c(=O)cc[n-]c2=S)cc1S(=O)(=O)[NH+]1CCCCC1 (3D coordinates assigned)
Cc1ccc([N-]C(=O)CCCn2c(=O)cc[n-]c2=S)cc1S(=O)(=O)[NH+]1CCCCC1 (nonaromatic ring conformer: 67.47512057739027 kcal/mol)

>  <smiles>  (46) 
Cc1ccc(NC(=O)CCCn2c(=O)cc[nH]c2=S)cc1S(=O)(=O)N1CCCCC1

>  <score_type>  (46) 
oracle

>  <origin>  (46) 
adgpu

>  <m_score__min__energy>  (46) 
-11.98

>  <m_primary>  (46) 
energy

$$$$
46:0
     RDKit          3D

 38 40  0  0  0  0  0  0  0  0999 V2000
   -1.7900   21.0130  -26.6830 N   0  0  0  0  0  0  0  0  0  0  0  0
   -0.8730   20.5330  -27.6760 C   0  0  0  0  0  0  0  0  0  0  0  0
   -0.0450   19.4440  -27.3640 C   0  0  0  0  0  0  0  0  0  0  0  0
    0.8340   18.9120  -28.3220 C   0  0  0  0  0  0  0  0  0  0  0  0
    1.6830   17.7930  -28.0280 N   0  0  0  0  0  0  0  0  0  0  0  0
    1.3170   16.6260  -27.2800 C   0  0  0  0  0  0  0  0  0  0  0  0
    0.0960   16.3420  -27.1600 O   0  0  0  0  0  0  0  0  0  0  0  0
    2.3360   15.6960  -26.7410 C   0  0  0  0  0  0  0  0  0  0  0  0
    3.6760   16.1200  -26.6770 C   0  0  0  0  0  0  0  0  0  0  0  0
    4.6710   15.2600  -26.2100 C   0  0  0  0  0  0  0  0  0  0  0  0
    4.3440   13.9650  -25.8060 C   0  0  0  0  0  0  0  0  0  0  0  0
    3.0190   13.5310  -25.8600 C   0  0  0  0  0  0  0  0  0  0  0  0
    2.0070   14.3880  -26.3120 C   0  0  0  0  0  0  0  0  0  0  0  0
    0.6910   13.9190  -26.2920 O   0  0  0  0  0  0  0  0  0  0  0  0
    0.8440   19.4450  -29.6130 C   0  0  0  0  0  0  0  0  0  0  0  0
    0.0310   20.5330  -29.9350 C   0  0  0  0  0  0  0  0  0  0  0  0
   -0.8190   21.1000  -28.9720 C   0  0  0  0  0  0  0  0  0  0  0  0
   -1.6200   22.2900  -29.3410 C   0  0  0  0  0  0  0  0  0  0  0  0
   -1.1940   23.5770  -28.9730 C   0  0  0  0  0  0  0  0  0  0  0  0
   -1.9400   24.7010  -29.3420 C   0  0  0  0  0  0  0  0  0  0  0  0
   -1.5110   25.9680  -28.9660 O   0  0  0  0  0  0  0  0  0  0  0  0
   -3.1140   24.5470  -30.0900 C   0  0  0  0  0  0  0  0  0  0  0  0
   -3.8560   25.6650  -30.4550 O   0  0  0  0  0  0  0  0  0  0  0  0
   -3.5380   23.2690  -30.4710 C   0  0  0  0  0  0  0  0  0  0  0  0
   -4.7010   23.1120  -31.2160 O   0  0  0  0  0  0  0  0  0  0  0  0
   -2.7910   22.1440  -30.1020 C   0  0  0  0  0  0  0  0  0  0  0  0
   -2.2260   21.9570  -26.7760 H   0  0  0  0  0  0  0  0  0  0  0  0
   -1.9960   20.4740  -25.8140 H   0  0  0  0  0  0  0  0  0  0  0  0
   -0.0846   19.0017  -26.3576 H   0  0  0  0  0  0  0  0  0  0  0  0
    3.9417   17.1381  -26.9978 H   0  0  0  0  0  0  0  0  0  0  0  0
    5.7148   15.6036  -26.1603 H   0  0  0  0  0  0  0  0  0  0  0  0
    5.1308   13.2863  -25.4450 H   0  0  0  0  0  0  0  0  0  0  0  0
    2.7669   12.5076  -25.5451 H   0  0  0  0  0  0  0  0  0  0  0  0
   -0.1100   14.5230  -26.1670 H   0  0  0  0  0  0  0  0  0  0  0  0
    1.4968   19.0045  -30.3810 H   0  0  0  0  0  0  0  0  0  0  0  0
    0.0565   20.9500  -30.9526 H   0  0  0  0  0  0  0  0  0  0  0  0
   -0.2686   23.7015  -28.3914 H   0  0  0  0  0  0  0  0  0  0  0  0
   -3.1228   21.1413  -30.4095 H   0  0  0  0  0  0  0  0  0  0  0  0
  1  2  1  0
  2  3  2  0
  3  4  1  0
  4  5  1  0
  5  6  1  0
  6  7  2  0
  6  8  1  0
  8  9  2  0
  9 10  1  0
 10 11  2  0
 11 12  1  0
 12 13  2  0
 13 14  1  0
  4 15  2  0
 15 16  1  0
 16 17  2  0
 17 18  1  0
 18 19  2  0
 19 20  1  0
 20 21  1  0
 20 22  2  0
 22 23  1  0
 22 24  1  0
 24 25  1  0
 24 26  2  0
 17  2  1  0
 26 18  1  0
 13  8  1  0
  1 27  1  0
  1 28  1  0
  3 29  1  0
  9 30  1  0
 10 31  1  0
 11 32  1  0
 12 33  1  0
 14 34  1  0
 15 35  1  0
 16 36  1  0
 19 37  1  0
 26 38  1  0
M  CHG  4   5  -1  21  -1  23  -1  25  -1
M  END
>  <UniqueID>  (47) 
47

>  <SMILES>  (47) 
Nc1cc([N-]C(=O)c2ccccc2O)ccc1-c1cc([O-])c([O-])c([O-])c1

>  <Energy>  (47) 
58.230678501846526

>  <Genealogy>  (47) 
Nc1cc([N-]C(=O)c2ccccc2O)ccc1-c1cc([O-])c([O-])c([O-])c1 (protonated)
Nc1cc([N-]C(=O)c2ccccc2O)ccc1-c1cc([O-])c([O-])c([O-])c1 (3D coordinates assigned)
Nc1cc([N-]C(=O)c2ccccc2O)ccc1-c1cc([O-])c([O-])c([O-])c1 (optimized conformer: 58.230678501846526 kcal/mol)

>  <smiles>  (47) 
Nc1cc(NC(=O)c2ccccc2O)ccc1-c1cc(O)c(O)c(O)c1

>  <score_type>  (47) 
oracle

>  <origin>  (47) 
adgpu

>  <m_score__min__energy>  (47) 
-11.869999999999999

>  <m_primary>  (47) 
energy

$$$$
47:0
     RDKit          3D

 57 60  0  0  0  0  0  0  0  0999 V2000
   -1.0380   26.6000  -26.7110 C   0  0  0  0  0  0  0  0  0  0  0  0
   -0.9460   25.1410  -27.0790 C   0  0  0  0  0  0  0  0  0  0  0  0
   -0.6250   24.1820  -26.0940 C   0  0  0  0  0  0  0  0  0  0  0  0
   -0.5680   22.8260  -26.4170 C   0  0  0  0  0  0  0  0  0  0  0  0
   -0.8360   22.4080  -27.7180 C   0  0  0  0  0  0  0  0  0  0  0  0
   -1.1630   23.3460  -28.7220 C   0  0  0  0  0  0  0  0  0  0  0  0
   -1.4650   22.8630  -30.0920 C   0  0  0  0  0  0  0  0  0  0  0  0
   -2.4880   23.3110  -30.6910 O   0  0  0  0  0  0  0  0  0  0  0  0
   -0.6260   21.8900  -30.7350 N   0  0  0  0  0  0  0  0  0  0  0  0
   -0.9080   21.3330  -32.0330 C   0  0  0  0  0  0  0  0  0  0  0  0
   -2.1440   20.7170  -32.3140 C   0  0  0  0  0  0  0  0  0  0  0  0
   -2.3650   20.1100  -33.5550 C   0  0  0  0  0  0  0  0  0  0  0  0
   -1.3560   20.1010  -34.5210 C   0  0  0  0  0  0  0  0  0  0  0  0
   -0.1180   20.7060  -34.2530 C   0  0  0  0  0  0  0  0  0  0  0  0
    1.1640   20.6340  -35.4630 S   0  0  0  0  0  0  0  0  0  0  0  0
    0.5970   20.7850  -36.8520 O   0  0  0  0  0  0  0  0  0  0  0  0
    1.8360   19.2930  -35.3450 O   0  0  0  0  0  0  0  0  0  0  0  0
    2.3530   21.8730  -35.1830 N   0  0  0  0  0  0  0  0  0  0  0  0
    2.1760   23.2420  -35.5970 C   0  0  0  0  0  0  0  0  0  0  0  0
    3.1720   24.1830  -35.7730 C   0  0  0  0  0  0  0  0  0  0  0  0
    4.6330   23.9480  -35.5640 C   0  0  0  0  0  0  0  0  0  0  0  0
    2.5930   25.3920  -36.0180 N   0  0  0  0  0  0  0  0  0  0  0  0
    3.3060   26.6660  -36.1850 C   0  0  0  0  0  0  0  0  0  0  0  0
    1.2710   25.2320  -36.0620 N   0  0  0  0  0  0  0  0  0  0  0  0
    0.2940   26.2800  -36.2620 C   0  0  0  0  0  0  0  0  0  0  0  0
   -0.4050   26.3840  -37.4810 C   0  0  0  0  0  0  0  0  0  0  0  0
   -1.3900   27.3670  -37.6560 C   0  0  0  0  0  0  0  0  0  0  0  0
   -1.6820   28.2510  -36.6120 C   0  0  0  0  0  0  0  0  0  0  0  0
   -0.9800   28.1660  -35.4010 C   0  0  0  0  0  0  0  0  0  0  0  0
    0.0110   27.1900  -35.2290 C   0  0  0  0  0  0  0  0  0  0  0  0
    0.9970   23.9330  -35.8060 C   0  0  0  0  0  0  0  0  0  0  0  0
   -0.1640   23.4370  -35.8110 O   0  0  0  0  0  0  0  0  0  0  0  0
    0.1030   21.3200  -33.0080 C   0  0  0  0  0  0  0  0  0  0  0  0
   -1.2440   24.7190  -28.3890 C   0  0  0  0  0  0  0  0  0  0  0  0
   -1.6520   25.6640  -29.3430 O   0  0  0  0  0  0  0  0  0  0  0  0
   -1.0444   26.7022  -25.6158 H   0  0  0  0  0  0  0  0  0  0  0  0
   -0.1720   27.1377  -27.1244 H   0  0  0  0  0  0  0  0  0  0  0  0
   -1.9647   27.0247  -27.1244 H   0  0  0  0  0  0  0  0  0  0  0  0
   -0.4182   24.5065  -25.0635 H   0  0  0  0  0  0  0  0  0  0  0  0
   -0.3113   22.0869  -25.6438 H   0  0  0  0  0  0  0  0  0  0  0  0
   -0.7926   21.3372  -27.9661 H   0  0  0  0  0  0  0  0  0  0  0  0
    0.2700   21.6000  -30.2730 H   0  0  0  0  0  0  0  0  0  0  0  0
   -2.9390   20.7134  -31.5538 H   0  0  0  0  0  0  0  0  0  0  0  0
   -3.3353   19.6388  -33.7705 H   0  0  0  0  0  0  0  0  0  0  0  0
   -1.5320   19.6187  -35.4939 H   0  0  0  0  0  0  0  0  0  0  0  0
    4.8483   23.9134  -34.4858 H   0  0  0  0  0  0  0  0  0  0  0  0
    4.9204   22.9921  -36.0262 H   0  0  0  0  0  0  0  0  0  0  0  0
    5.2057   24.7656  -36.0262 H   0  0  0  0  0  0  0  0  0  0  0  0
    3.5415   27.0867  -35.1963 H   0  0  0  0  0  0  0  0  0  0  0  0
    4.2389   26.4938  -36.7419 H   0  0  0  0  0  0  0  0  0  0  0  0
    2.6714   27.3711  -36.7419 H   0  0  0  0  0  0  0  0  0  0  0  0
   -0.1763   25.6886  -38.3020 H   0  0  0  0  0  0  0  0  0  0  0  0
   -1.9310   27.4425  -38.6108 H   0  0  0  0  0  0  0  0  0  0  0  0
   -2.4636   29.0141  -36.7411 H   0  0  0  0  0  0  0  0  0  0  0  0
   -1.2076   28.8669  -34.5843 H   0  0  0  0  0  0  0  0  0  0  0  0
    0.5690   27.1360  -34.2826 H   0  0  0  0  0  0  0  0  0  0  0  0
    1.0732   21.7930  -32.7961 H   0  0  0  0  0  0  0  0  0  0  0  0
  1  2  1  0
  2  3  2  0
  3  4  1  0
  4  5  2  0
  5  6  1  0
  6  7  1  0
  7  8  2  0
  7  9  1  0
  9 10  1  0
 10 11  2  0
 11 12  1  0
 12 13  2  0
 13 14  1  0
 14 15  1  0
 15 16  2  0
 15 17  2  0
 15 18  1  0
 18 19  1  0
 19 20  2  0
 20 21  1  0
 20 22  1  0
 22 23  1  0
 22 24  1  0
 24 25  1  0
 25 26  2  0
 26 27  1  0
 27 28  2  0
 28 29  1  0
 29 30  2  0
 24 31  1  0
 31 32  2  0
 14 33  2  0
  6 34  2  0
 34 35  1  0
 34  2  1  0
 33 10  1  0
 31 19  1  0
 30 25  1  0
  1 36  1  0
  1 37  1  0
  1 38  1  0
  3 39  1  0
  4 40  1  0
  5 41  1  0
  9 42  1  0
 11 43  1  0
 12 44  1  0
 13 45  1  0
 21 46  1  0
 21 47  1  0
 21 48  1  0
 23 49  1  0
 23 50  1  0
 23 51  1  0
 26 52  1  0
 27 53  1  0
 28 54  1  0
 29 55  1  0
 30 56  1  0
 33 57  1  0
M  CHG  2  18  -1  35  -1
M  END
>  <UniqueID>  (48) 
48

>  <SMILES>  (48) 
Cc1cccc(C(=O)Nc2cccc(S(=O)(=O)[N-]c3c(C)n(C)n(-c4ccccc4)c3=O)c2)c1[O-]

>  <Energy>  (48) 
116.91926268710561

>  <Genealogy>  (48) 
Cc1cccc(C(=O)Nc2cccc(S(=O)(=O)[N-]c3c(C)n(C)n(-c4ccccc4)c3=O)c2)c1[O-] (protonated)
Cc1cccc(C(=O)Nc2cccc(S(=O)(=O)[N-]c3c(C)n(C)n(-c4ccccc4)c3=O)c2)c1[O-] (3D coordinates assigned)
Cc1cccc(C(=O)Nc2cccc(S(=O)(=O)[N-]c3c(C)n(C)n(-c4ccccc4)c3=O)c2)c1[O-] (optimized conformer: 116.91926268710561 kcal/mol)

>  <smiles>  (48) 
Cc1cccc(C(=O)Nc2cccc(S(=O)(=O)Nc3c(C)n(C)n(-c4ccccc4)c3=O)c2)c1O

>  <score_type>  (48) 
oracle

>  <origin>  (48) 
adgpu

>  <m_score__min__energy>  (48) 
-13.77

>  <m_primary>  (48) 
energy

$$$$
48:0
     RDKit          3D

 58 61  0  0  0  0  0  0  0  0999 V2000
    4.3108   22.5115  -37.3165 H   0  0  0  0  0  0  0  0  0  0  0  0
    3.3750   22.8460  -36.8450 C   0  0  0  0  0  0  0  0  0  0  0  0
    2.8440   24.0760  -36.9720 N   0  0  0  0  0  0  0  0  0  0  0  0
    1.7300   24.1190  -36.2620 N   0  0  0  0  0  0  0  0  0  0  0  0
    0.8840   25.2820  -36.1980 C   0  0  0  0  0  0  0  0  0  0  0  0
   -0.2570   25.3620  -37.0140 C   0  0  0  0  0  0  0  0  0  0  0  0
   -0.4942   24.5394  -37.7047 H   0  0  0  0  0  0  0  0  0  0  0  0
   -1.0930   26.4820  -36.9530 C   0  0  0  0  0  0  0  0  0  0  0  0
   -1.9904   26.5336  -37.5871 H   0  0  0  0  0  0  0  0  0  0  0  0
   -0.7880   27.5360  -36.0860 C   0  0  0  0  0  0  0  0  0  0  0  0
   -1.4487   28.4140  -36.0347 H   0  0  0  0  0  0  0  0  0  0  0  0
    0.3550   27.4750  -35.2850 C   0  0  0  0  0  0  0  0  0  0  0  0
    0.5965   28.3073  -34.6075 H   0  0  0  0  0  0  0  0  0  0  0  0
    1.1920   26.3570  -35.3440 C   0  0  0  0  0  0  0  0  0  0  0  0
    2.0965   26.3174  -34.7193 H   0  0  0  0  0  0  0  0  0  0  0  0
    1.5260   22.9190  -35.6740 C   0  0  0  0  0  0  0  0  0  0  0  0
    0.4580   22.6650  -34.9710 N   0  0  0  0  0  0  0  0  0  0  0  0
    0.1490   21.5250  -34.1670 C   0  0  0  0  0  0  0  0  0  0  0  0
    1.0760   20.8230  -33.6870 O   0  0  0  0  0  0  0  0  0  0  0  0
   -1.2090   21.2050  -33.8440 N   0  0  0  0  0  0  0  0  0  0  0  0
   -1.8500   19.9400  -34.0580 C   0  0  0  0  0  0  0  0  0  0  0  0
   -1.1380   18.8080  -34.4920 C   0  0  0  0  0  0  0  0  0  0  0  0
   -0.0587   18.8823  -34.6913 H   0  0  0  0  0  0  0  0  0  0  0  0
   -1.7970   17.5890  -34.6710 C   0  0  0  0  0  0  0  0  0  0  0  0
   -1.2318   16.7023  -34.9941 H   0  0  0  0  0  0  0  0  0  0  0  0
   -3.1710   17.4930  -34.4410 C   0  0  0  0  0  0  0  0  0  0  0  0
   -3.6825   16.5270  -34.5645 H   0  0  0  0  0  0  0  0  0  0  0  0
   -3.8990   18.6260  -34.0530 C   0  0  0  0  0  0  0  0  0  0  0  0
   -5.6390   18.5070  -33.7900 S   0  0  0  0  0  0  0  0  0  0  0  0
   -6.3560   19.2630  -34.8740 O   0  0  0  0  0  0  0  0  0  0  0  0
   -6.0390   17.0600  -33.8810 O   0  0  0  0  0  0  0  0  0  0  0  0
   -6.0430   19.1510  -32.2100 N   0  0  0  0  0  0  0  0  0  0  0  0
   -5.1570   19.0940  -31.6510 H   0  0  0  0  0  0  0  0  0  0  0  0
   -7.0320   18.2940  -31.5180 C   0  0  0  0  0  0  0  0  0  0  0  0
   -6.6860   17.2508  -31.5632 H   0  0  0  0  0  0  0  0  0  0  0  0
   -7.1130   18.6520  -30.4811 H   0  0  0  0  0  0  0  0  0  0  0  0
   -8.4350   18.3750  -32.1480 C   0  0  0  0  0  0  0  0  0  0  0  0
   -8.4547   17.7361  -33.0432 H   0  0  0  0  0  0  0  0  0  0  0  0
   -9.1566   18.0399  -31.3884 H   0  0  0  0  0  0  0  0  0  0  0  0
   -8.8290   19.8070  -32.5580 C   0  0  0  0  0  0  0  0  0  0  0  0
   -8.7668   19.8925  -33.6529 H   0  0  0  0  0  0  0  0  0  0  0  0
   -9.8529   19.9923  -32.2013 H   0  0  0  0  0  0  0  0  0  0  0  0
   -7.9140   20.8560  -31.9290 C   0  0  0  0  0  0  0  0  0  0  0  0
   -8.1981   21.8510  -32.3022 H   0  0  0  0  0  0  0  0  0  0  0  0
   -8.0257   20.8072  -30.8358 H   0  0  0  0  0  0  0  0  0  0  0  0
   -6.4390   20.5880  -32.2830 C   0  0  0  0  0  0  0  0  0  0  0  0
   -6.2605   20.9432  -33.3087 H   0  0  0  0  0  0  0  0  0  0  0  0
   -5.8330   21.1209  -31.5355 H   0  0  0  0  0  0  0  0  0  0  0  0
   -3.2350   19.8470  -33.8690 C   0  0  0  0  0  0  0  0  0  0  0  0
   -3.8063   20.7394  -33.5738 H   0  0  0  0  0  0  0  0  0  0  0  0
    2.5730   22.0650  -36.0360 C   0  0  0  0  0  0  0  0  0  0  0  0
    2.7930   20.3200  -35.8760 S   0  0  0  0  0  0  0  0  0  0  0  0
    3.6490   19.8420  -37.0140 O   0  0  0  0  0  0  0  0  0  0  0  0
    1.4840   19.5890  -35.9490 O   0  0  0  0  0  0  0  0  0  0  0  0
    3.6330   19.9470  -34.3490 C   0  0  0  0  0  0  0  0  0  0  0  0
    2.9937   20.2309  -33.5000 H   0  0  0  0  0  0  0  0  0  0  0  0
    3.8474   18.8691  -34.3023 H   0  0  0  0  0  0  0  0  0  0  0  0
    4.5764   20.5108  -34.3023 H   0  0  0  0  0  0  0  0  0  0  0  0
  1  2  1  0
  2  3  1  0
  3  4  1  0
  4  5  1  0
  5  6  2  0
  6  7  1  0
  6  8  1  0
  8  9  1  0
  8 10  2  0
 10 11  1  0
 10 12  1  0
 12 13  1  0
 12 14  2  0
 14 15  1  0
  4 16  1  0
 16 17  2  0
 17 18  1  0
 18 19  2  0
 18 20  1  0
 20 21  1  0
 21 22  2  0
 22 23  1  0
 22 24  1  0
 24 25  1  0
 24 26  2  0
 26 27  1  0
 26 28  1  0
 28 29  1  0
 29 30  2  0
 29 31  2  0
 29 32  1  0
 32 33  1  0
 32 34  1  0
 34 35  1  0
 34 36  1  0
 34 37  1  0
 37 38  1  0
 37 39  1  0
 37 40  1  0
 40 41  1  0
 40 42  1  0
 40 43  1  0
 43 44  1  0
 43 45  1  0
 43 46  1  0
 46 47  1  0
 46 48  1  0
 28 49  2  0
 49 50  1  0
 16 51  1  0
 51 52  1  0
 52 53  2  0
 52 54  2  0
 52 55  1  0
 55 56  1  0
 55 57  1  0
 55 58  1  0
 51  2  2  0
 14  5  1  0
 49 21  1  0
 46 32  1  0
M  CHG  3   3  -1  20  -1  32   1
M  END
>  <UniqueID>  (49) 
49

>  <SMILES>  (49) 
CS(=O)(=O)c1c[n-]n(-c2ccccc2)/c1=N/C(=O)[N-]c1cccc(S(=O)(=O)[NH+]2CCCCC2)c1

>  <Energy>  (49) 
118.18116948966446

>  <Genealogy>  (49) 
CS(=O)(=O)c1c[n-]n(-c2ccccc2)c1=NC(=O)[N-]c1cccc(S(=O)(=O)[NH+]2CCCCC2)c1 (protonated)
CS(=O)(=O)c1c[n-]n(-c2ccccc2)/c1=N/C(=O)[N-]c1cccc(S(=O)(=O)[NH+]2CCCCC2)c1 (cis-trans isomerization)
CS(=O)(=O)c1c[n-]n(-c2ccccc2)/c1=N/C(=O)[N-]c1cccc(S(=O)(=O)[NH+]2CCCCC2)c1 (3D coordinates assigned)
CS(=O)(=O)c1c[n-]n(-c2ccccc2)/c1=N/C(=O)[N-]c1cccc(S(=O)(=O)[NH+]2CCCCC2)c1 (nonaromatic ring conformer: 118.18116948966446 kcal/mol)

>  <smiles>  (49) 
CS(=O)(=O)c1c[nH]n(-c2ccccc2)c1=NC(=O)Nc1cccc(S(=O)(=O)N2CCCCC2)c1

>  <score_type>  (49) 
oracle

>  <origin>  (49) 
adgpu

>  <m_score__min__energy>  (49) 
-11.66

>  <m_primary>  (49) 
energy

$$$$
