0:0
     RDKit          3D

 56 59  0  0  0  0  0  0  0  0999 V2000
   -6.5270   17.7740  -30.9740 C   0  0  0  0  0  0  0  0  0  0  0  0
   -6.0320   18.0490  -32.3710 C   0  0  0  0  0  0  0  0  0  0  0  0
   -4.9630   17.2900  -32.8770 C   0  0  0  0  0  0  0  0  0  0  0  0
   -4.4680   17.5120  -34.1680 C   0  0  0  0  0  0  0  0  0  0  0  0
   -3.3530   16.7360  -34.6420 N   0  0  0  0  0  0  0  0  0  0  0  0
   -2.4210   16.0570  -33.7820 C   0  0  0  0  0  0  0  0  0  0  0  0
   -2.6860   14.7390  -33.3670 C   0  0  0  0  0  0  0  0  0  0  0  0
   -1.8320   14.0910  -32.4740 C   0  0  0  0  0  0  0  0  0  0  0  0
   -0.7090   14.7510  -31.9770 C   0  0  0  0  0  0  0  0  0  0  0  0
   -0.4380   16.0630  -32.3690 C   0  0  0  0  0  0  0  0  0  0  0  0
   -1.2900   16.7320  -33.2660 C   0  0  0  0  0  0  0  0  0  0  0  0
   -0.9560   18.1150  -33.6880 C   0  0  0  0  0  0  0  0  0  0  0  0
    0.2520   18.4400  -33.8440 O   0  0  0  0  0  0  0  0  0  0  0  0
   -1.9650   19.1220  -33.8470 N   0  0  0  0  0  0  0  0  0  0  0  0
   -2.2440   20.1930  -32.9350 C   0  0  0  0  0  0  0  0  0  0  0  0
   -3.2030   21.1510  -33.2860 C   0  0  0  0  0  0  0  0  0  0  0  0
   -3.5040   22.2020  -32.4170 C   0  0  0  0  0  0  0  0  0  0  0  0
   -2.8630   22.2960  -31.1750 C   0  0  0  0  0  0  0  0  0  0  0  0
   -3.2240   23.6340  -30.0880 S   0  0  0  0  0  0  0  0  0  0  0  0
   -3.9460   24.7160  -30.8410 O   0  0  0  0  0  0  0  0  0  0  0  0
   -1.9450   24.2010  -29.5390 O   0  0  0  0  0  0  0  0  0  0  0  0
   -4.2430   23.0550  -28.7480 C   0  0  0  0  0  0  0  0  0  0  0  0
   -3.7350   21.8660  -28.2600 F   0  0  0  0  0  0  0  0  0  0  0  0
   -5.5320   22.8510  -29.2020 F   0  0  0  0  0  0  0  0  0  0  0  0
   -4.2560   23.9970  -27.7370 F   0  0  0  0  0  0  0  0  0  0  0  0
   -1.9170   21.3290  -30.8110 C   0  0  0  0  0  0  0  0  0  0  0  0
   -1.6160   20.2770  -31.6790 C   0  0  0  0  0  0  0  0  0  0  0  0
   -5.0390   18.5250  -34.9550 C   0  0  0  0  0  0  0  0  0  0  0  0
   -6.1120   19.2740  -34.4710 C   0  0  0  0  0  0  0  0  0  0  0  0
   -6.6260   19.0420  -33.1870 C   0  0  0  0  0  0  0  0  0  0  0  0
   -7.7850   19.8410  -32.7280 C   0  0  0  0  0  0  0  0  0  0  0  0
   -9.0990   19.4190  -32.7090 C   0  0  0  0  0  0  0  0  0  0  0  0
   -9.8070   20.5130  -32.2520 C   0  0  0  0  0  0  0  0  0  0  0  0
   -8.9610   21.5340  -32.0100 N   0  0  0  0  0  0  0  0  0  0  0  0
   -7.7370   21.1180  -32.2940 N   0  0  0  0  0  0  0  0  0  0  0  0
   -6.5550   21.9640  -32.1660 C   0  0  0  0  0  0  0  0  0  0  0  0
   -5.8072   18.1739  -30.2446 H   0  0  0  0  0  0  0  0  0  0  0  0
   -7.5037   18.2588  -30.8290 H   0  0  0  0  0  0  0  0  0  0  0  0
   -6.6313   16.6886  -30.8290 H   0  0  0  0  0  0  0  0  0  0  0  0
   -4.5081   16.5095  -32.2493 H   0  0  0  0  0  0  0  0  0  0  0  0
   -3.1910   16.6870  -35.6740 H   0  0  0  0  0  0  0  0  0  0  0  0
   -3.5741   14.2149  -33.7499 H   0  0  0  0  0  0  0  0  0  0  0  0
   -2.0450   13.0580  -32.1617 H   0  0  0  0  0  0  0  0  0  0  0  0
   -0.0357   14.2372  -31.2751 H   0  0  0  0  0  0  0  0  0  0  0  0
    0.4496   16.5781  -31.9729 H   0  0  0  0  0  0  0  0  0  0  0  0
   -3.7227   21.0753  -34.2525 H   0  0  0  0  0  0  0  0  0  0  0  0
   -4.2471   22.9587  -32.7089 H   0  0  0  0  0  0  0  0  0  0  0  0
   -1.4092   21.3985  -29.8377 H   0  0  0  0  0  0  0  0  0  0  0  0
   -0.8852   19.5114  -31.3794 H   0  0  0  0  0  0  0  0  0  0  0  0
   -4.6381   18.7292  -35.9588 H   0  0  0  0  0  0  0  0  0  0  0  0
   -6.5596   20.0549  -35.1033 H   0  0  0  0  0  0  0  0  0  0  0  0
   -9.4937   18.4326  -32.9939 H   0  0  0  0  0  0  0  0  0  0  0  0
  -10.8969   20.5462  -32.1073 H   0  0  0  0  0  0  0  0  0  0  0  0
   -6.3320   22.1236  -31.1007 H   0  0  0  0  0  0  0  0  0  0  0  0
   -5.6983   21.4727  -32.6504 H   0  0  0  0  0  0  0  0  0  0  0  0
   -6.7437   22.9334  -32.6504 H   0  0  0  0  0  0  0  0  0  0  0  0
  1  2  1  0
  2  3  2  0
  3  4  1  0
  4  5  1  0
  5  6  1  0
  6  7  2  0
  7  8  1  0
  8  9  2  0
  9 10  1  0
 10 11  2  0
 11 12  1  0
 12 13  2  0
 12 14  1  0
 14 15  1  0
 15 16  2  0
 16 17  1  0
 17 18  2  0
 18 19  1  0
 19 20  2  0
 19 21  2  0
 19 22  1  0
 22 23  1  0
 22 24  1  0
 22 25  1  0
 18 26  1  0
 26 27  2  0
  4 28  2  0
 28 29  1  0
 29 30  2  0
 30 31  1  0
 31 32  2  0
 32 33  1  0
 33 34  2  0
 34 35  1  0
 35 36  1  0
 30  2  1  0
 35 31  1  0
 11  6  1  0
 27 15  1  0
  1 37  1  0
  1 38  1  0
  1 39  1  0
  3 40  1  0
  5 41  1  0
  7 42  1  0
  8 43  1  0
  9 44  1  0
 10 45  1  0
 16 46  1  0
 17 47  1  0
 26 48  1  0
 27 49  1  0
 28 50  1  0
 29 51  1  0
 32 52  1  0
 33 53  1  0
 36 54  1  0
 36 55  1  0
 36 56  1  0
M  CHG  1  14  -1
M  END
>  <UniqueID>  (1) 
1

>  <SMILES>  (1) 
Cc1cc(Nc2ccccc2C(=O)[N-]c2ccc(S(=O)(=O)C(F)(F)F)cc2)ccc1-c1ccnn1C

>  <Energy>  (1) 
107.05273556488976

>  <Genealogy>  (1) 
Cc1cc(Nc2ccccc2C(=O)[N-]c2ccc(S(=O)(=O)C(F)(F)F)cc2)ccc1-c1ccnn1C (protonated)
Cc1cc(Nc2ccccc2C(=O)[N-]c2ccc(S(=O)(=O)C(F)(F)F)cc2)ccc1-c1ccnn1C (3D coordinates assigned)
Cc1cc(Nc2ccccc2C(=O)[N-]c2ccc(S(=O)(=O)C(F)(F)F)cc2)ccc1-c1ccnn1C (optimized conformer: 107.05273556488976 kcal/mol)

>  <smiles>  (1) 
Cc1cc(Nc2ccccc2C(=O)Nc2ccc(S(=O)(=O)C(F)(F)F)cc2)ccc1-c1ccnn1C

>  <score_type>  (1) 
oracle

>  <origin>  (1) 
adgpu

>  <m_score__min__energy>  (1) 
-10.52

>  <m_primary>  (1) 
energy

$$$$
1:0
     RDKit          3D

 42 43  0  0  0  0  0  0  0  0999 V2000
    0.7540   20.3750  -35.7350 C   0  0  0  0  0  0  0  0  0  0  0  0
    0.3080   21.5820  -34.9800 C   0  0  0  0  0  0  0  0  0  0  0  0
    0.7470   22.7160  -35.3070 O   0  0  0  0  0  0  0  0  0  0  0  0
   -0.5280   21.4210  -33.8270 N   0  0  0  0  0  0  0  0  0  0  0  0
   -1.7830   20.7270  -33.7730 C   0  0  0  0  0  0  0  0  0  0  0  0
   -2.8940   21.3880  -33.2340 C   0  0  0  0  0  0  0  0  0  0  0  0
   -4.1310   20.7430  -33.1510 C   0  0  0  0  0  0  0  0  0  0  0  0
   -4.2670   19.4200  -33.5930 C   0  0  0  0  0  0  0  0  0  0  0  0
   -5.8310   18.6140  -33.5390 S   0  0  0  0  0  0  0  0  0  0  0  0
   -5.9190   17.6400  -34.6780 O   0  0  0  0  0  0  0  0  0  0  0  0
   -5.9780   17.8510  -32.2500 O   0  0  0  0  0  0  0  0  0  0  0  0
   -7.1190   19.7740  -33.6850 N   0  0  0  0  0  0  0  0  0  0  0  0
   -8.1530   19.5620  -32.6670 C   0  0  0  0  0  0  0  0  0  0  0  0
   -8.8910   20.8680  -32.3470 C   0  0  0  0  0  0  0  0  0  0  0  0
   -7.9720   21.8880  -31.7250 C   0  0  0  0  0  0  0  0  0  0  0  0
   -7.9280   22.0430  -30.3310 C   0  0  0  0  0  0  0  0  0  0  0  0
   -7.0980   23.0090  -29.7550 C   0  0  0  0  0  0  0  0  0  0  0  0
   -6.3050   23.8310  -30.5650 C   0  0  0  0  0  0  0  0  0  0  0  0
   -5.2720   25.0590  -29.8410 S   0  0  0  0  0  0  0  0  0  0  0  0
   -3.8600   25.2710  -30.8130 N   0  0  0  0  0  0  0  0  0  0  0  0
   -6.0150   26.3620  -29.7490 O   0  0  0  0  0  0  0  0  0  0  0  0
   -4.8700   24.6360  -28.4560 O   0  0  0  0  0  0  0  0  0  0  0  0
   -6.3590   23.6910  -31.9580 C   0  0  0  0  0  0  0  0  0  0  0  0
   -7.1890   22.7240  -32.5360 C   0  0  0  0  0  0  0  0  0  0  0  0
   -3.1540   18.7470  -34.1110 C   0  0  0  0  0  0  0  0  0  0  0  0
   -1.9160   19.3920  -34.1950 C   0  0  0  0  0  0  0  0  0  0  0  0
    1.0455   19.5861  -35.0261 H   0  0  0  0  0  0  0  0  0  0  0  0
   -0.0698   20.0132  -36.3678 H   0  0  0  0  0  0  0  0  0  0  0  0
    1.6151   20.6358  -36.3678 H   0  0  0  0  0  0  0  0  0  0  0  0
   -2.7922   22.4222  -32.8734 H   0  0  0  0  0  0  0  0  0  0  0  0
   -5.0004   21.2752  -32.7376 H   0  0  0  0  0  0  0  0  0  0  0  0
   -8.8771   18.8224  -33.0394 H   0  0  0  0  0  0  0  0  0  0  0  0
   -7.6686   19.2010  -31.7478 H   0  0  0  0  0  0  0  0  0  0  0  0
   -9.3046   21.2816  -33.2786 H   0  0  0  0  0  0  0  0  0  0  0  0
   -9.6916   20.6427  -31.6271 H   0  0  0  0  0  0  0  0  0  0  0  0
   -8.5494   21.4015  -29.6888 H   0  0  0  0  0  0  0  0  0  0  0  0
   -7.0677   23.1239  -28.6614 H   0  0  0  0  0  0  0  0  0  0  0  0
   -3.9070   26.2350  -31.2130 H   0  0  0  0  0  0  0  0  0  0  0  0
   -5.7473   24.3429  -32.5990 H   0  0  0  0  0  0  0  0  0  0  0  0
   -7.2279   22.6187  -33.6303 H   0  0  0  0  0  0  0  0  0  0  0  0
   -3.2537   17.7064  -34.4534 H   0  0  0  0  0  0  0  0  0  0  0  0
   -1.0432   18.8533  -34.5925 H   0  0  0  0  0  0  0  0  0  0  0  0
  1  2  1  0
  2  3  2  0
  2  4  1  0
  4  5  1  0
  5  6  2  0
  6  7  1  0
  7  8  2  0
  8  9  1  0
  9 10  2  0
  9 11  2  0
  9 12  1  0
 12 13  1  0
 13 14  1  0
 14 15  1  0
 15 16  2  0
 16 17  1  0
 17 18  2  0
 18 19  1  0
 19 20  1  0
 19 21  2  0
 19 22  2  0
 18 23  1  0
 23 24  2  0
  8 25  1  0
 25 26  2  0
 26  5  1  0
 24 15  1  0
  1 27  1  0
  1 28  1  0
  1 29  1  0
  6 30  1  0
  7 31  1  0
 13 32  1  0
 13 33  1  0
 14 34  1  0
 14 35  1  0
 16 36  1  0
 17 37  1  0
 20 38  1  0
 23 39  1  0
 24 40  1  0
 25 41  1  0
 26 42  1  0
M  CHG  3   4  -1  12  -1  20  -1
M  END
>  <UniqueID>  (2) 
2

>  <SMILES>  (2) 
CC(=O)[N-]c1ccc(S(=O)(=O)[N-]CCc2ccc(S([NH-])(=O)=O)cc2)cc1

>  <Energy>  (2) 
39.631638614958895

>  <Genealogy>  (2) 
CC(=O)[N-]c1ccc(S(=O)(=O)[N-]CCc2ccc(S([NH-])(=O)=O)cc2)cc1 (protonated)
CC(=O)[N-]c1ccc(S(=O)(=O)[N-]CCc2ccc(S([NH-])(=O)=O)cc2)cc1 (3D coordinates assigned)
CC(=O)[N-]c1ccc(S(=O)(=O)[N-]CCc2ccc(S([NH-])(=O)=O)cc2)cc1 (optimized conformer: 39.631638614958895 kcal/mol)

>  <smiles>  (2) 
CC(=O)Nc1ccc(S(=O)(=O)NCCc2ccc(S(N)(=O)=O)cc2)cc1

>  <score_type>  (2) 
oracle

>  <origin>  (2) 
adgpu

>  <m_score__min__energy>  (2) 
-11.539999999999999

>  <m_primary>  (2) 
energy

$$$$
2:0
     RDKit          3D

 43 45  0  0  0  0  0  0  0  0999 V2000
   -9.1320   21.1670  -31.8990 C   0  0  0  0  0  0  0  0  0  0  0  0
   -8.6430   22.5110  -31.3360 C   0  0  0  0  0  0  0  0  0  0  0  0
   -7.7890   22.2770  -30.0850 C   0  0  0  0  0  0  0  0  0  0  0  0
   -7.8390   23.3110  -32.3840 C   0  0  0  0  0  0  0  0  0  0  0  0
   -6.5280   23.7830  -31.8360 C   0  0  0  0  0  0  0  0  0  0  0  0
   -6.4990   24.7470  -31.0230 O   0  0  0  0  0  0  0  0  0  0  0  0
   -5.3450   23.2060  -32.3120 O   0  0  0  0  0  0  0  0  0  0  0  0
   -4.2580   22.8440  -31.5030 C   0  0  0  0  0  0  0  0  0  0  0  0
   -3.9020   21.4880  -31.3820 C   0  0  0  0  0  0  0  0  0  0  0  0
   -4.6620   20.4180  -32.0650 C   0  0  0  0  0  0  0  0  0  0  0  0
   -5.9270   20.0510  -31.5810 C   0  0  0  0  0  0  0  0  0  0  0  0
   -6.6580   19.0380  -32.2090 C   0  0  0  0  0  0  0  0  0  0  0  0
   -6.1430   18.3880  -33.3350 C   0  0  0  0  0  0  0  0  0  0  0  0
   -6.8900   17.3770  -33.9380 O   0  0  0  0  0  0  0  0  0  0  0  0
   -4.8880   18.7670  -33.8410 C   0  0  0  0  0  0  0  0  0  0  0  0
   -4.3640   18.1410  -34.9660 O   0  0  0  0  0  0  0  0  0  0  0  0
   -4.1570   19.7810  -33.2140 C   0  0  0  0  0  0  0  0  0  0  0  0
   -2.8370   21.1440  -30.6630 O   0  0  0  0  0  0  0  0  0  0  0  0
   -2.0850   22.0210  -30.0090 C   0  0  0  0  0  0  0  0  0  0  0  0
   -0.9830   21.5650  -29.2790 C   0  0  0  0  0  0  0  0  0  0  0  0
   -0.1830   22.4660  -28.5740 C   0  0  0  0  0  0  0  0  0  0  0  0
    0.9100   22.0060  -27.8490 O   0  0  0  0  0  0  0  0  0  0  0  0
   -0.4810   23.8310  -28.5970 C   0  0  0  0  0  0  0  0  0  0  0  0
   -1.5780   24.3060  -29.3230 C   0  0  0  0  0  0  0  0  0  0  0  0
   -1.8370   25.6730  -29.3220 O   0  0  0  0  0  0  0  0  0  0  0  0
   -2.3940   23.4010  -30.0420 C   0  0  0  0  0  0  0  0  0  0  0  0
   -3.5120   23.8050  -30.8000 C   0  0  0  0  0  0  0  0  0  0  0  0
   -3.8640   25.0160  -30.8370 O   0  0  0  0  0  0  0  0  0  0  0  0
   -9.3785   20.4894  -31.0683 H   0  0  0  0  0  0  0  0  0  0  0  0
  -10.0277   21.3320  -32.5158 H   0  0  0  0  0  0  0  0  0  0  0  0
   -8.3397   20.7178  -32.5158 H   0  0  0  0  0  0  0  0  0  0  0  0
   -9.5295   23.1050  -31.0691 H   0  0  0  0  0  0  0  0  0  0  0  0
   -8.4011   22.4447  -29.1866 H   0  0  0  0  0  0  0  0  0  0  0  0
   -7.4138   21.2430  -30.0853 H   0  0  0  0  0  0  0  0  0  0  0  0
   -6.9391   22.9754  -30.0853 H   0  0  0  0  0  0  0  0  0  0  0  0
   -7.6497   22.6669  -33.2554 H   0  0  0  0  0  0  0  0  0  0  0  0
   -8.4298   24.1947  -32.6670 H   0  0  0  0  0  0  0  0  0  0  0  0
   -6.3460   20.5633  -30.7024 H   0  0  0  0  0  0  0  0  0  0  0  0
   -7.6440   18.7506  -31.8150 H   0  0  0  0  0  0  0  0  0  0  0  0
   -6.5640   16.8880  -34.7640 H   0  0  0  0  0  0  0  0  0  0  0  0
   -3.1808   20.0828  -33.6215 H   0  0  0  0  0  0  0  0  0  0  0  0
   -0.7453   20.4912  -29.2602 H   0  0  0  0  0  0  0  0  0  0  0  0
    0.1520   24.5373  -28.0399 H   0  0  0  0  0  0  0  0  0  0  0  0
  1  2  1  0
  2  3  1  0
  2  4  1  0
  4  5  1  0
  5  6  2  0
  5  7  1  0
  7  8  1  0
  8  9  2  0
  9 10  1  0
 10 11  2  0
 11 12  1  0
 12 13  2  0
 13 14  1  0
 13 15  1  0
 15 16  1  0
 15 17  2  0
  9 18  1  0
 18 19  1  0
 19 20  2  0
 20 21  1  0
 21 22  1  0
 21 23  2  0
 23 24  1  0
 24 25  1  0
 24 26  2  0
 26 27  1  0
 27 28  2  0
 27  8  1  0
 17 10  1  0
 26 19  1  0
  1 29  1  0
  1 30  1  0
  1 31  1  0
  2 32  1  0
  3 33  1  0
  3 34  1  0
  3 35  1  0
  4 36  1  0
  4 37  1  0
 11 38  1  0
 12 39  1  0
 14 40  1  0
 17 41  1  0
 20 42  1  0
 23 43  1  0
M  CHG  3  16  -1  22  -1  25  -1
M  END
>  <UniqueID>  (3) 
3

>  <SMILES>  (3) 
CC(C)CC(=O)Oc1c(-c2ccc(O)c([O-])c2)oc2cc([O-])cc([O-])c2c1=O

>  <Energy>  (3) 
55.7152205939981

>  <Genealogy>  (3) 
CC(C)CC(=O)Oc1c(-c2ccc(O)c([O-])c2)oc2cc([O-])cc([O-])c2c1=O (protonated)
CC(C)CC(=O)Oc1c(-c2ccc(O)c([O-])c2)oc2cc([O-])cc([O-])c2c1=O (3D coordinates assigned)
CC(C)CC(=O)Oc1c(-c2ccc(O)c([O-])c2)oc2cc([O-])cc([O-])c2c1=O (optimized conformer: 55.7152205939981 kcal/mol)

>  <smiles>  (3) 
CC(C)CC(=O)Oc1c(-c2ccc(O)c(O)c2)oc2cc(O)cc(O)c2c1=O

>  <score_type>  (3) 
oracle

>  <origin>  (3) 
adgpu

>  <m_score__min__energy>  (3) 
-11.31

>  <m_primary>  (3) 
energy

$$$$
3:0
     RDKit          3D

 40 42  0  0  0  0  0  0  0  0999 V2000
   -1.5810   23.1730  -29.7200 O   0  0  0  0  0  0  0  0  0  0  0  0
   -2.4460   24.0880  -29.6850 C   0  0  0  0  0  0  0  0  0  0  0  0
   -2.1490   25.2920  -28.9650 N   0  0  0  0  0  0  0  0  0  0  0  0
   -1.5350   25.3700  -27.6670 C   0  0  0  0  0  0  0  0  0  0  0  0
   -2.2660   25.7990  -26.5430 C   0  0  0  0  0  0  0  0  0  0  0  0
   -1.6530   25.8800  -25.2900 C   0  0  0  0  0  0  0  0  0  0  0  0
   -0.3140   25.5180  -25.1420 C   0  0  0  0  0  0  0  0  0  0  0  0
    0.4120   25.0610  -26.2440 C   0  0  0  0  0  0  0  0  0  0  0  0
   -0.1910   24.9790  -27.5060 C   0  0  0  0  0  0  0  0  0  0  0  0
    0.5650   24.5180  -28.5830 O   0  0  0  0  0  0  0  0  0  0  0  0
   -3.7210   23.9100  -30.4150 C   0  0  0  0  0  0  0  0  0  0  0  0
   -4.7890   24.8000  -30.2120 C   0  0  0  0  0  0  0  0  0  0  0  0
   -6.0190   24.5800  -30.8330 C   0  0  0  0  0  0  0  0  0  0  0  0
   -6.2020   23.4670  -31.6720 C   0  0  0  0  0  0  0  0  0  0  0  0
   -7.4760   23.1580  -32.2500 N   0  0  0  0  0  0  0  0  0  0  0  0
   -8.5160   21.8870  -31.6920 S   0  0  0  0  0  0  0  0  0  0  0  0
   -9.8790   22.0560  -32.3000 O   0  0  0  0  0  0  0  0  0  0  0  0
   -8.6300   21.9650  -30.1950 O   0  0  0  0  0  0  0  0  0  0  0  0
   -7.8590   20.3290  -32.1920 C   0  0  0  0  0  0  0  0  0  0  0  0
   -6.9030   20.2500  -33.2150 C   0  0  0  0  0  0  0  0  0  0  0  0
   -6.4350   19.0030  -33.6440 C   0  0  0  0  0  0  0  0  0  0  0  0
   -6.9190   17.8330  -33.0530 C   0  0  0  0  0  0  0  0  0  0  0  0
   -7.8650   17.9070  -32.0270 C   0  0  0  0  0  0  0  0  0  0  0  0
   -8.3350   19.1510  -31.5980 C   0  0  0  0  0  0  0  0  0  0  0  0
   -5.1180   22.6190  -31.9290 C   0  0  0  0  0  0  0  0  0  0  0  0
   -3.8840   22.8380  -31.3070 C   0  0  0  0  0  0  0  0  0  0  0  0
   -3.3260   26.0720  -26.6518 H   0  0  0  0  0  0  0  0  0  0  0  0
   -2.2270   26.2297  -24.4192 H   0  0  0  0  0  0  0  0  0  0  0  0
    0.1701   25.5925  -24.1571 H   0  0  0  0  0  0  0  0  0  0  0  0
    1.4638   24.7636  -26.1204 H   0  0  0  0  0  0  0  0  0  0  0  0
    0.1420   24.2110  -29.4500 H   0  0  0  0  0  0  0  0  0  0  0  0
   -4.6547   25.6754  -29.5596 H   0  0  0  0  0  0  0  0  0  0  0  0
   -6.8498   25.2811  -30.6652 H   0  0  0  0  0  0  0  0  0  0  0  0
   -6.5203   21.1700  -33.6810 H   0  0  0  0  0  0  0  0  0  0  0  0
   -5.6856   18.9438  -34.4470 H   0  0  0  0  0  0  0  0  0  0  0  0
   -6.5552   16.8531  -33.3955 H   0  0  0  0  0  0  0  0  0  0  0  0
   -8.2397   16.9857  -31.5570 H   0  0  0  0  0  0  0  0  0  0  0  0
   -9.0810   19.2066  -30.7915 H   0  0  0  0  0  0  0  0  0  0  0  0
   -5.2373   21.7751  -32.6244 H   0  0  0  0  0  0  0  0  0  0  0  0
   -3.0379   22.1674  -31.5177 H   0  0  0  0  0  0  0  0  0  0  0  0
  1  2  2  0
  2  3  1  0
  3  4  1  0
  4  5  2  0
  5  6  1  0
  6  7  2  0
  7  8  1  0
  8  9  2  0
  9 10  1  0
  2 11  1  0
 11 12  2  0
 12 13  1  0
 13 14  2  0
 14 15  1  0
 15 16  1  0
 16 17  2  0
 16 18  2  0
 16 19  1  0
 19 20  2  0
 20 21  1  0
 21 22  2  0
 22 23  1  0
 23 24  2  0
 14 25  1  0
 25 26  2  0
  9  4  1  0
 26 11  1  0
 24 19  1  0
  5 27  1  0
  6 28  1  0
  7 29  1  0
  8 30  1  0
 10 31  1  0
 12 32  1  0
 13 33  1  0
 20 34  1  0
 21 35  1  0
 22 36  1  0
 23 37  1  0
 24 38  1  0
 25 39  1  0
 26 40  1  0
M  CHG  2   3  -1  15  -1
M  END
>  <UniqueID>  (4) 
4

>  <SMILES>  (4) 
O=C([N-]c1ccccc1O)c1ccc([N-]S(=O)(=O)c2ccccc2)cc1

>  <Energy>  (4) 
51.96984250877557

>  <Genealogy>  (4) 
O=C([N-]c1ccccc1O)c1ccc([N-]S(=O)(=O)c2ccccc2)cc1 (protonated)
O=C([N-]c1ccccc1O)c1ccc([N-]S(=O)(=O)c2ccccc2)cc1 (3D coordinates assigned)
O=C([N-]c1ccccc1O)c1ccc([N-]S(=O)(=O)c2ccccc2)cc1 (optimized conformer: 51.96984250877557 kcal/mol)

>  <smiles>  (4) 
O=C(Nc1ccccc1O)c1ccc(NS(=O)(=O)c2ccccc2)cc1

>  <score_type>  (4) 
oracle

>  <origin>  (4) 
adgpu

>  <m_score__min__energy>  (4) 
-12.06

>  <m_primary>  (4) 
energy

$$$$
4:0
     RDKit          3D

 35 37  0  0  0  0  0  0  0  0999 V2000
   -6.0210   25.3230  -29.3130 N   0  0  0  0  0  0  0  0  0  0  0  0
   -4.9530   24.5020  -30.3980 S   0  0  0  0  0  0  0  0  0  0  0  0
   -5.7210   24.0400  -31.6060 O   0  0  0  0  0  0  0  0  0  0  0  0
   -3.8660   25.4410  -30.8470 O   0  0  0  0  0  0  0  0  0  0  0  0
   -4.2390   23.1200  -29.5750 C   0  0  0  0  0  0  0  0  0  0  0  0
   -3.9670   21.9400  -30.2760 C   0  0  0  0  0  0  0  0  0  0  0  0
   -3.4140   20.8360  -29.6190 C   0  0  0  0  0  0  0  0  0  0  0  0
   -3.1110   20.8940  -28.2440 C   0  0  0  0  0  0  0  0  0  0  0  0
   -2.5020   19.7560  -27.4900 C   0  0  0  0  0  0  0  0  0  0  0  0
   -3.1540   19.1200  -26.4940 N   0  0  0  0  0  0  0  0  0  0  0  0
   -2.3690   18.1680  -26.0810 O   0  0  0  0  0  0  0  0  0  0  0  0
   -1.2390   18.1110  -26.7230 N   0  0  0  0  0  0  0  0  0  0  0  0
   -1.2790   19.1060  -27.6280 C   0  0  0  0  0  0  0  0  0  0  0  0
    0.0840   19.4190  -28.7520 S   0  0  0  0  0  0  0  0  0  0  0  0
   -0.0740   21.2000  -28.6010 C   0  0  0  0  0  0  0  0  0  0  0  0
    0.1830   21.8370  -27.3810 C   0  0  0  0  0  0  0  0  0  0  0  0
    0.0480   23.2260  -27.2670 C   0  0  0  0  0  0  0  0  0  0  0  0
   -0.3520   23.9970  -28.3750 C   0  0  0  0  0  0  0  0  0  0  0  0
   -0.5010   25.4260  -28.2640 N   0  0  0  0  0  0  0  0  0  0  0  0
    0.3240   26.1030  -27.6130 O   0  0  0  0  0  0  0  0  0  0  0  0
   -1.5410   26.0700  -28.8940 O   0  0  0  0  0  0  0  0  0  0  0  0
   -0.6100   23.3470  -29.5960 C   0  0  0  0  0  0  0  0  0  0  0  0
   -0.4740   21.9590  -29.7060 C   0  0  0  0  0  0  0  0  0  0  0  0
   -3.4080   22.0860  -27.5470 C   0  0  0  0  0  0  0  0  0  0  0  0
   -3.9630   23.1860  -28.2070 C   0  0  0  0  0  0  0  0  0  0  0  0
   -6.3450   24.6210  -28.6080 H   0  0  0  0  0  0  0  0  0  0  0  0
   -5.4490   26.0280  -28.7930 H   0  0  0  0  0  0  0  0  0  0  0  0
   -4.1897   21.8802  -31.3516 H   0  0  0  0  0  0  0  0  0  0  0  0
   -3.2134   19.9124  -30.1818 H   0  0  0  0  0  0  0  0  0  0  0  0
    0.4924   21.2435  -26.5080 H   0  0  0  0  0  0  0  0  0  0  0  0
    0.2558   23.7181  -26.3054 H   0  0  0  0  0  0  0  0  0  0  0  0
   -0.9214   23.9354  -30.4717 H   0  0  0  0  0  0  0  0  0  0  0  0
   -0.6824   21.4625  -30.6652 H   0  0  0  0  0  0  0  0  0  0  0  0
   -3.1994   22.1496  -26.4688 H   0  0  0  0  0  0  0  0  0  0  0  0
   -4.1833   24.1070  -27.6473 H   0  0  0  0  0  0  0  0  0  0  0  0
  1  2  1  0
  2  3  2  0
  2  4  2  0
  2  5  1  0
  5  6  2  0
  6  7  1  0
  7  8  2  0
  8  9  1  0
  9 10  2  0
 10 11  1  0
 11 12  1  0
 12 13  2  0
 13 14  1  0
 14 15  1  0
 15 16  2  0
 16 17  1  0
 17 18  2  0
 18 19  1  0
 19 20  2  0
 19 21  1  0
 18 22  1  0
 22 23  2  0
  8 24  1  0
 24 25  2  0
 25  5  1  0
 13  9  1  0
 23 15  1  0
  1 26  1  0
  1 27  1  0
  6 28  1  0
  7 29  1  0
 16 30  1  0
 17 31  1  0
 22 32  1  0
 23 33  1  0
 24 34  1  0
 25 35  1  0
M  CHG  2  19   1  21  -1
M  END
>  <UniqueID>  (5) 
5

>  <SMILES>  (5) 
NS(=O)(=O)c1ccc(-c2nonc2Sc2ccc([N+](=O)[O-])cc2)cc1

>  <Energy>  (5) 
74.03974797367879

>  <Genealogy>  (5) 
NS(=O)(=O)c1ccc(-c2nonc2Sc2ccc([N+](=O)[O-])cc2)cc1 (3D coordinates assigned)
NS(=O)(=O)c1ccc(-c2nonc2Sc2ccc([N+](=O)[O-])cc2)cc1 (optimized conformer: 74.03974797367879 kcal/mol)

>  <smiles>  (5) 
NS(=O)(=O)c1ccc(-c2nonc2Sc2ccc([N+](=O)[O-])cc2)cc1

>  <score_type>  (5) 
oracle

>  <origin>  (5) 
adgpu

>  <m_score__min__energy>  (5) 
-9.6699999999999999

>  <m_primary>  (5) 
energy

$$$$
5:0
     RDKit          3D

 48 51  0  0  0  0  0  0  0  0999 V2000
   -3.6920   25.2070  -26.1870 C   0  0  0  0  0  0  0  0  0  0  0  0
   -2.2670   25.1860  -26.1850 O   0  0  0  0  0  0  0  0  0  0  0  0
   -1.4510   26.3270  -26.1180 C   0  0  0  0  0  0  0  0  0  0  0  0
   -1.2550   27.0260  -24.9080 C   0  0  0  0  0  0  0  0  0  0  0  0
   -0.4890   28.1950  -24.8820 C   0  0  0  0  0  0  0  0  0  0  0  0
    0.0800   28.6870  -26.0570 C   0  0  0  0  0  0  0  0  0  0  0  0
   -0.1000   28.0010  -27.2600 C   0  0  0  0  0  0  0  0  0  0  0  0
   -0.8360   26.8080  -27.2970 C   0  0  0  0  0  0  0  0  0  0  0  0
   -0.9960   26.1490  -28.5600 N   0  0  0  0  0  0  0  0  0  0  0  0
   -0.8870   24.7380  -28.7950 C   0  0  0  0  0  0  0  0  0  0  0  0
    0.2460   24.2180  -28.9870 O   0  0  0  0  0  0  0  0  0  0  0  0
   -2.1070   23.9030  -28.8670 C   0  0  0  0  0  0  0  0  0  0  0  0
   -2.1390   22.6300  -28.2700 C   0  0  0  0  0  0  0  0  0  0  0  0
   -3.2850   21.8360  -28.3590 C   0  0  0  0  0  0  0  0  0  0  0  0
   -4.4110   22.3000  -29.0420 C   0  0  0  0  0  0  0  0  0  0  0  0
   -4.4010   23.5690  -29.6350 C   0  0  0  0  0  0  0  0  0  0  0  0
   -5.8040   24.1720  -30.5130 S   0  0  0  0  0  0  0  0  0  0  0  0
   -6.7140   24.9110  -29.5770 O   0  0  0  0  0  0  0  0  0  0  0  0
   -5.3390   25.1190  -31.5840 O   0  0  0  0  0  0  0  0  0  0  0  0
   -6.6710   22.8730  -31.2680 N   0  0  0  0  0  0  0  0  0  0  0  0
   -8.1190   22.6980  -31.1930 C   0  0  0  0  0  0  0  0  0  0  0  0
   -8.4290   21.3900  -31.9620 C   0  0  0  0  0  0  0  0  0  0  0  0
   -7.0880   20.9380  -32.4290 C   0  0  0  0  0  0  0  0  0  0  0  0
   -6.7780   19.8140  -33.1990 C   0  0  0  0  0  0  0  0  0  0  0  0
   -5.4370   19.5890  -33.5480 C   0  0  0  0  0  0  0  0  0  0  0  0
   -4.4350   20.4880  -33.1300 C   0  0  0  0  0  0  0  0  0  0  0  0
   -4.7700   21.6120  -32.3560 C   0  0  0  0  0  0  0  0  0  0  0  0
   -6.1130   21.8050  -32.0140 C   0  0  0  0  0  0  0  0  0  0  0  0
   -3.2520   24.3660  -29.5440 C   0  0  0  0  0  0  0  0  0  0  0  0
   -4.0601   25.2124  -25.1504 H   0  0  0  0  0  0  0  0  0  0  0  0
   -4.0447   26.1104  -26.7061 H   0  0  0  0  0  0  0  0  0  0  0  0
   -4.0711   24.3143  -26.7061 H   0  0  0  0  0  0  0  0  0  0  0  0
   -1.7079   26.6486  -23.9793 H   0  0  0  0  0  0  0  0  0  0  0  0
   -0.3344   28.7285  -23.9325 H   0  0  0  0  0  0  0  0  0  0  0  0
    0.6702   29.6150  -26.0358 H   0  0  0  0  0  0  0  0  0  0  0  0
    0.3392   28.3998  -28.1863 H   0  0  0  0  0  0  0  0  0  0  0  0
   -1.2563   22.2573  -27.7297 H   0  0  0  0  0  0  0  0  0  0  0  0
   -3.3003   20.8415  -27.8892 H   0  0  0  0  0  0  0  0  0  0  0  0
   -5.3080   21.6675  -29.1146 H   0  0  0  0  0  0  0  0  0  0  0  0
   -8.4400   22.6106  -30.1445 H   0  0  0  0  0  0  0  0  0  0  0  0
   -8.6525   23.5570  -31.6259 H   0  0  0  0  0  0  0  0  0  0  0  0
   -8.8873   20.6422  -31.2981 H   0  0  0  0  0  0  0  0  0  0  0  0
   -9.1441   21.5349  -32.7852 H   0  0  0  0  0  0  0  0  0  0  0  0
   -7.5674   19.1206  -33.5246 H   0  0  0  0  0  0  0  0  0  0  0  0
   -5.1673   18.7084  -34.1495 H   0  0  0  0  0  0  0  0  0  0  0  0
   -3.3866   20.3090  -33.4108 H   0  0  0  0  0  0  0  0  0  0  0  0
   -3.9965   22.3217  -32.0275 H   0  0  0  0  0  0  0  0  0  0  0  0
   -3.2442   25.3641  -30.0063 H   0  0  0  0  0  0  0  0  0  0  0  0
  1  2  1  0
  2  3  1  0
  3  4  2  0
  4  5  1  0
  5  6  2  0
  6  7  1  0
  7  8  2  0
  8  9  1  0
  9 10  1  0
 10 11  2  0
 10 12  1  0
 12 13  2  0
 13 14  1  0
 14 15  2  0
 15 16  1  0
 16 17  1  0
 17 18  2  0
 17 19  2  0
 17 20  1  0
 20 21  1  0
 21 22  1  0
 22 23  1  0
 23 24  2  0
 24 25  1  0
 25 26  2  0
 26 27  1  0
 27 28  2  0
 16 29  2  0
  8  3  1  0
 29 12  1  0
 28 20  1  0
 28 23  1  0
  1 30  1  0
  1 31  1  0
  1 32  1  0
  4 33  1  0
  5 34  1  0
  6 35  1  0
  7 36  1  0
 13 37  1  0
 14 38  1  0
 15 39  1  0
 21 40  1  0
 21 41  1  0
 22 42  1  0
 22 43  1  0
 24 44  1  0
 25 45  1  0
 26 46  1  0
 27 47  1  0
 29 48  1  0
M  CHG  1   9  -1
M  END
>  <UniqueID>  (6) 
6

>  <SMILES>  (6) 
COc1ccccc1[N-]C(=O)c1cccc(S(=O)(=O)N2CCc3ccccc32)c1

>  <Energy>  (6) 
73.98963219082312

>  <Genealogy>  (6) 
COc1ccccc1[N-]C(=O)c1cccc(S(=O)(=O)N2CCc3ccccc32)c1 (protonated)
COc1ccccc1[N-]C(=O)c1cccc(S(=O)(=O)N2CCc3ccccc32)c1 (3D coordinates assigned)
COc1ccccc1[N-]C(=O)c1cccc(S(=O)(=O)N2CCc3ccccc32)c1 (nonaromatic ring conformer: 73.98963219082312 kcal/mol)

>  <smiles>  (6) 
COc1ccccc1NC(=O)c1cccc(S(=O)(=O)N2CCc3ccccc32)c1

>  <score_type>  (6) 
oracle

>  <origin>  (6) 
adgpu

>  <m_score__min__energy>  (6) 
-11.93

>  <m_primary>  (6) 
energy

$$$$
6:0
     RDKit          3D

 64 67  0  0  0  0  0  0  0  0999 V2000
   -0.6690   15.9890  -35.9740 O   0  0  0  0  0  0  0  0  0  0  0  0
   -0.6930   16.7400  -34.9630 C   0  0  0  0  0  0  0  0  0  0  0  0
    0.0080   16.3750  -33.7680 N   0  0  0  0  0  0  0  0  0  0  0  0
    0.0940   17.1490  -32.5630 C   0  0  0  0  0  0  0  0  0  0  0  0
    0.3840   18.5240  -32.5790 C   0  0  0  0  0  0  0  0  0  0  0  0
    0.4550   19.2420  -31.3820 C   0  0  0  0  0  0  0  0  0  0  0  0
    0.2450   18.5970  -30.1560 C   0  0  0  0  0  0  0  0  0  0  0  0
    0.2860   19.5110  -28.6470 S   0  0  0  0  0  0  0  0  0  0  0  0
    0.3820   18.5540  -27.4930 O   0  0  0  0  0  0  0  0  0  0  0  0
    1.4920   20.4060  -28.6010 O   0  0  0  0  0  0  0  0  0  0  0  0
   -1.1780   20.4270  -28.4710 N   0  0  0  0  0  0  0  0  0  0  0  0
   -1.3400   21.8450  -28.6300 C   0  0  0  0  0  0  0  0  0  0  0  0
   -0.2840   22.6760  -28.2460 C   0  0  0  0  0  0  0  0  0  0  0  0
   -0.3950   24.0610  -28.3640 C   0  0  0  0  0  0  0  0  0  0  0  0
   -1.5620   24.6380  -28.8730 C   0  0  0  0  0  0  0  0  0  0  0  0
   -1.6310   26.0230  -28.9740 O   0  0  0  0  0  0  0  0  0  0  0  0
   -2.6350   23.8180  -29.2840 C   0  0  0  0  0  0  0  0  0  0  0  0
   -3.8860   24.3950  -29.8420 C   0  0  0  0  0  0  0  0  0  0  0  0
   -5.0100   23.9770  -29.4530 O   0  0  0  0  0  0  0  0  0  0  0  0
   -3.8440   25.4030  -30.7980 O   0  0  0  0  0  0  0  0  0  0  0  0
   -2.5090   22.4200  -29.1600 C   0  0  0  0  0  0  0  0  0  0  0  0
   -0.0150   17.2190  -30.1390 C   0  0  0  0  0  0  0  0  0  0  0  0
   -0.0760   16.5000  -31.3360 C   0  0  0  0  0  0  0  0  0  0  0  0
   -1.4190   17.9720  -35.0330 N   0  0  0  0  0  0  0  0  0  0  0  0
   -2.7330   18.1930  -34.4990 C   0  0  0  0  0  0  0  0  0  0  0  0
   -3.7480   17.3170  -34.8640 C   0  0  0  0  0  0  0  0  0  0  0  0
   -5.0330   17.4740  -34.3580 C   0  0  0  0  0  0  0  0  0  0  0  0
   -5.3550   18.5380  -33.4910 C   0  0  0  0  0  0  0  0  0  0  0  0
   -6.7610   18.5840  -32.9130 C   0  0  0  0  0  0  0  0  0  0  0  0
   -7.4800   17.4390  -33.2130 F   0  0  0  0  0  0  0  0  0  0  0  0
   -6.6890   18.6850  -31.5360 F   0  0  0  0  0  0  0  0  0  0  0  0
   -7.4700   19.6500  -33.4260 F   0  0  0  0  0  0  0  0  0  0  0  0
   -4.3280   19.4740  -33.1430 C   0  0  0  0  0  0  0  0  0  0  0  0
   -4.5890   20.8770  -32.0600 S   0  0  0  0  0  0  0  0  0  0  0  0
   -4.3340   20.5280  -30.6220 O   0  0  0  0  0  0  0  0  0  0  0  0
   -3.5980   21.9480  -32.4250 O   0  0  0  0  0  0  0  0  0  0  0  0
   -6.2530   21.5610  -32.1850 C   0  0  0  0  0  0  0  0  0  0  0  0
   -6.2360   23.0950  -32.3680 C   0  0  0  0  0  0  0  0  0  0  0  0
   -7.5710   23.7730  -31.9890 C   0  0  0  0  0  0  0  0  0  0  0  0
   -8.7610   22.8170  -32.1160 C   0  0  0  0  0  0  0  0  0  0  0  0
   -8.6010   21.5880  -31.1990 C   0  0  0  0  0  0  0  0  0  0  0  0
   -7.1300   21.1690  -30.9840 C   0  0  0  0  0  0  0  0  0  0  0  0
   -3.0270   19.2900  -33.6710 C   0  0  0  0  0  0  0  0  0  0  0  0
   -2.0250   20.2140  -33.3910 O   0  0  0  0  0  0  0  0  0  0  0  0
    0.5557   19.0369  -33.5368 H   0  0  0  0  0  0  0  0  0  0  0  0
    0.6769   20.3192  -31.4025 H   0  0  0  0  0  0  0  0  0  0  0  0
    0.6414   22.2343  -27.8478 H   0  0  0  0  0  0  0  0  0  0  0  0
    0.4419   24.7042  -28.0543 H   0  0  0  0  0  0  0  0  0  0  0  0
   -3.3358   21.7698  -29.4820 H   0  0  0  0  0  0  0  0  0  0  0  0
   -0.1714   16.7024  -29.1805 H   0  0  0  0  0  0  0  0  0  0  0  0
   -0.2591   15.4156  -31.3127 H   0  0  0  0  0  0  0  0  0  0  0  0
   -3.5327   16.4923  -35.5593 H   0  0  0  0  0  0  0  0  0  0  0  0
   -5.8147   16.7533  -34.6398 H   0  0  0  0  0  0  0  0  0  0  0  0
   -6.7010   21.1188  -33.0871 H   0  0  0  0  0  0  0  0  0  0  0  0
   -5.4403   23.5130  -31.7338 H   0  0  0  0  0  0  0  0  0  0  0  0
   -6.0633   23.2926  -33.4362 H   0  0  0  0  0  0  0  0  0  0  0  0
   -7.5075   24.1236  -30.9483 H   0  0  0  0  0  0  0  0  0  0  0  0
   -7.7342   24.6101  -32.6837 H   0  0  0  0  0  0  0  0  0  0  0  0
   -9.6807   23.3527  -31.8380 H   0  0  0  0  0  0  0  0  0  0  0  0
   -8.8109   22.4657  -33.1572 H   0  0  0  0  0  0  0  0  0  0  0  0
   -9.0428   21.8241  -30.2197 H   0  0  0  0  0  0  0  0  0  0  0  0
   -9.1089   20.7466  -31.6930 H   0  0  0  0  0  0  0  0  0  0  0  0
   -6.7444   21.6666  -30.0819 H   0  0  0  0  0  0  0  0  0  0  0  0
   -7.0946   20.0753  -30.8722 H   0  0  0  0  0  0  0  0  0  0  0  0
  1  2  2  0
  2  3  1  0
  3  4  1  0
  4  5  2  0
  5  6  1  0
  6  7  2  0
  7  8  1  0
  8  9  2  0
  8 10  2  0
  8 11  1  0
 11 12  1  0
 12 13  2  0
 13 14  1  0
 14 15  2  0
 15 16  1  0
 15 17  1  0
 17 18  1  0
 18 19  2  0
 18 20  1  0
 17 21  2  0
  7 22  1  0
 22 23  2  0
  2 24  1  0
 24 25  1  0
 25 26  2  0
 26 27  1  0
 27 28  2  0
 28 29  1  0
 29 30  1  0
 29 31  1  0
 29 32  1  0
 28 33  1  0
 33 34  1  0
 34 35  2  0
 34 36  2  0
 34 37  1  0
 37 38  1  0
 38 39  1  0
 39 40  1  0
 40 41  1  0
 41 42  1  0
 33 43  2  0
 43 44  1  0
 23  4  1  0
 43 25  1  0
 21 12  1  0
 42 37  1  0
  5 45  1  0
  6 46  1  0
 13 47  1  0
 14 48  1  0
 21 49  1  0
 22 50  1  0
 23 51  1  0
 26 52  1  0
 27 53  1  0
 37 54  1  0
 38 55  1  0
 38 56  1  0
 39 57  1  0
 39 58  1  0
 40 59  1  0
 40 60  1  0
 41 61  1  0
 41 62  1  0
 42 63  1  0
 42 64  1  0
M  CHG  6   3  -1  11  -1  16  -1  20  -1  24  -1  44  -1
M  END
>  <UniqueID>  (7) 
7

>  <SMILES>  (7) 
O=C([N-]c1ccc(S(=O)(=O)[N-]c2ccc([O-])c(C(=O)[O-])c2)cc1)[N-]c1ccc(C(F)(F)F)c(S(=O)(=O)C2CCCCC2)c1[O-]

>  <Energy>  (7) 
92.8903589822402

>  <Genealogy>  (7) 
O=C([N-]c1ccc(S(=O)(=O)[N-]c2ccc([O-])c(C(=O)[O-])c2)cc1)[N-]c1ccc(C(F)(F)F)c(S(=O)(=O)C2CCCCC2)c1[O-] (protonated)
O=C([N-]c1ccc(S(=O)(=O)[N-]c2ccc([O-])c(C(=O)[O-])c2)cc1)[N-]c1ccc(C(F)(F)F)c(S(=O)(=O)C2CCCCC2)c1[O-] (3D coordinates assigned)
O=C([N-]c1ccc(S(=O)(=O)[N-]c2ccc([O-])c(C(=O)[O-])c2)cc1)[N-]c1ccc(C(F)(F)F)c(S(=O)(=O)C2CCCCC2)c1[O-] (nonaromatic ring conformer: 92.8903589822402 kcal/mol)

>  <smiles>  (7) 
O=C(Nc1ccc(S(=O)(=O)Nc2ccc(O)c(C(=O)O)c2)cc1)Nc1ccc(C(F)(F)F)c(S(=O)(=O)C2CCCCC2)c1O

>  <score_type>  (7) 
oracle

>  <origin>  (7) 
adgpu

>  <m_score__min__energy>  (7) 
-17.510000000000002

>  <m_primary>  (7) 
energy

$$$$
7:0
     RDKit          3D

 55 58  0  0  0  0  0  0  0  0999 V2000
   -0.8880   26.4170  -28.2500 C   0  0  0  0  0  0  0  0  0  0  0  0
   -1.5530   25.3800  -29.0250 N   0  0  0  0  0  0  0  0  0  0  0  0
   -2.1800   24.2440  -28.4210 C   0  0  0  0  0  0  0  0  0  0  0  0
   -2.2160   24.1400  -27.1640 O   0  0  0  0  0  0  0  0  0  0  0  0
   -2.7270   23.1570  -29.2640 C   0  0  0  0  0  0  0  0  0  0  0  0
   -2.1680   21.8750  -29.1300 C   0  0  0  0  0  0  0  0  0  0  0  0
   -2.5650   20.8310  -29.9650 C   0  0  0  0  0  0  0  0  0  0  0  0
   -3.5360   21.0390  -30.9430 C   0  0  0  0  0  0  0  0  0  0  0  0
   -3.8880   19.9680  -31.7790 O   0  0  0  0  0  0  0  0  0  0  0  0
   -3.0270   19.3180  -32.6780 C   0  0  0  0  0  0  0  0  0  0  0  0
   -1.7660   19.8600  -32.9870 C   0  0  0  0  0  0  0  0  0  0  0  0
   -0.9170   19.2180  -33.8950 C   0  0  0  0  0  0  0  0  0  0  0  0
    0.3450   19.7540  -34.1960 C   0  0  0  0  0  0  0  0  0  0  0  0
    1.1840   19.1050  -35.1060 C   0  0  0  0  0  0  0  0  0  0  0  0
    0.7700   17.9220  -35.7230 C   0  0  0  0  0  0  0  0  0  0  0  0
   -0.4850   17.3810  -35.4330 C   0  0  0  0  0  0  0  0  0  0  0  0
   -1.3370   18.0220  -34.5190 C   0  0  0  0  0  0  0  0  0  0  0  0
   -2.6010   17.4920  -34.2270 C   0  0  0  0  0  0  0  0  0  0  0  0
   -3.4600   18.1350  -33.3130 C   0  0  0  0  0  0  0  0  0  0  0  0
   -4.7700   17.6080  -33.0180 N   0  0  0  0  0  0  0  0  0  0  0  0
   -6.2370   18.1470  -33.7760 S   0  0  0  0  0  0  0  0  0  0  0  0
   -7.2310   17.0200  -33.7620 O   0  0  0  0  0  0  0  0  0  0  0  0
   -5.9300   18.5110  -35.2020 O   0  0  0  0  0  0  0  0  0  0  0  0
   -6.9260   19.5250  -32.9000 C   0  0  0  0  0  0  0  0  0  0  0  0
   -6.3570   20.7970  -33.0880 C   0  0  0  0  0  0  0  0  0  0  0  0
   -6.8800   21.9140  -32.4370 C   0  0  0  0  0  0  0  0  0  0  0  0
   -7.9740   21.7770  -31.5840 C   0  0  0  0  0  0  0  0  0  0  0  0
   -8.5390   20.5200  -31.3670 C   0  0  0  0  0  0  0  0  0  0  0  0
   -8.0160   19.3800  -32.0040 C   0  0  0  0  0  0  0  0  0  0  0  0
   -8.6550   18.0430  -31.7380 C   0  0  0  0  0  0  0  0  0  0  0  0
   -4.1040   22.3150  -31.0920 C   0  0  0  0  0  0  0  0  0  0  0  0
   -3.7350   23.3750  -30.2430 C   0  0  0  0  0  0  0  0  0  0  0  0
   -4.4710   24.6540  -30.3690 C   0  0  0  0  0  0  0  0  0  0  0  0
   -3.9020   25.6830  -30.8180 O   0  0  0  0  0  0  0  0  0  0  0  0
   -5.7860   24.7500  -29.9240 O   0  0  0  0  0  0  0  0  0  0  0  0
   -1.0186   26.2134  -27.1769 H   0  0  0  0  0  0  0  0  0  0  0  0
    0.1846   26.4259  -28.4937 H   0  0  0  0  0  0  0  0  0  0  0  0
   -1.3275   27.3955  -28.4937 H   0  0  0  0  0  0  0  0  0  0  0  0
   -1.4075   21.6924  -28.3565 H   0  0  0  0  0  0  0  0  0  0  0  0
   -2.1087   19.8366  -29.8510 H   0  0  0  0  0  0  0  0  0  0  0  0
   -1.4445   20.7976  -32.5101 H   0  0  0  0  0  0  0  0  0  0  0  0
    0.6742   20.6867  -33.7147 H   0  0  0  0  0  0  0  0  0  0  0  0
    2.1732   19.5269  -35.3371 H   0  0  0  0  0  0  0  0  0  0  0  0
    1.4338   17.4152  -36.4389 H   0  0  0  0  0  0  0  0  0  0  0  0
   -0.8069   16.4498  -35.9222 H   0  0  0  0  0  0  0  0  0  0  0  0
   -2.9268   16.5627  -34.7171 H   0  0  0  0  0  0  0  0  0  0  0  0
   -4.8740   16.8560  -32.3000 H   0  0  0  0  0  0  0  0  0  0  0  0
   -5.4903   20.9123  -33.7555 H   0  0  0  0  0  0  0  0  0  0  0  0
   -6.4287   22.9043  -32.5968 H   0  0  0  0  0  0  0  0  0  0  0  0
   -8.3924   22.6614  -31.0812 H   0  0  0  0  0  0  0  0  0  0  0  0
   -9.4014   20.4194  -30.6916 H   0  0  0  0  0  0  0  0  0  0  0  0
   -8.7316   17.8827  -30.6524 H   0  0  0  0  0  0  0  0  0  0  0  0
   -9.6605   18.0220  -32.1836 H   0  0  0  0  0  0  0  0  0  0  0  0
   -8.0398   17.2474  -32.1836 H   0  0  0  0  0  0  0  0  0  0  0  0
   -4.8479   22.4882  -31.8836 H   0  0  0  0  0  0  0  0  0  0  0  0
  1  2  1  0
  2  3  1  0
  3  4  2  0
  3  5  1  0
  5  6  2  0
  6  7  1  0
  7  8  2  0
  8  9  1  0
  9 10  1  0
 10 11  2  0
 11 12  1  0
 12 13  2  0
 13 14  1  0
 14 15  2  0
 15 16  1  0
 16 17  2  0
 17 18  1  0
 18 19  2  0
 19 20  1  0
 20 21  1  0
 21 22  2  0
 21 23  2  0
 21 24  1  0
 24 25  2  0
 25 26  1  0
 26 27  2  0
 27 28  1  0
 28 29  2  0
 29 30  1  0
  8 31  1  0
 31 32  2  0
 32 33  1  0
 33 34  2  0
 33 35  1  0
 32  5  1  0
 19 10  1  0
 29 24  1  0
 17 12  1  0
  1 36  1  0
  1 37  1  0
  1 38  1  0
  6 39  1  0
  7 40  1  0
 11 41  1  0
 13 42  1  0
 14 43  1  0
 15 44  1  0
 16 45  1  0
 18 46  1  0
 20 47  1  0
 25 48  1  0
 26 49  1  0
 27 50  1  0
 28 51  1  0
 30 52  1  0
 30 53  1  0
 30 54  1  0
 31 55  1  0
M  CHG  2   2  -1  35  -1
M  END
>  <UniqueID>  (8) 
8

>  <SMILES>  (8) 
C[N-]C(=O)c1ccc(Oc2cc3ccccc3cc2NS(=O)(=O)c2ccccc2C)cc1C(=O)[O-]

>  <Energy>  (8) 
80.62609689831221

>  <Genealogy>  (8) 
C[N-]C(=O)c1ccc(Oc2cc3ccccc3cc2NS(=O)(=O)c2ccccc2C)cc1C(=O)[O-] (protonated)
C[N-]C(=O)c1ccc(Oc2cc3ccccc3cc2NS(=O)(=O)c2ccccc2C)cc1C(=O)[O-] (3D coordinates assigned)
C[N-]C(=O)c1ccc(Oc2cc3ccccc3cc2NS(=O)(=O)c2ccccc2C)cc1C(=O)[O-] (optimized conformer: 80.62609689831221 kcal/mol)

>  <smiles>  (8) 
CNC(=O)c1ccc(Oc2cc3ccccc3cc2NS(=O)(=O)c2ccccc2C)cc1C(=O)O

>  <score_type>  (8) 
oracle

>  <origin>  (8) 
adgpu

>  <m_score__min__energy>  (8) 
-13.26

>  <m_primary>  (8) 
energy

$$$$
8:0
     RDKit          3D

 59 62  0  0  0  0  0  0  0  0999 V2000
    0.1760   22.9770  -26.5190 C   0  0  0  0  0  0  0  0  0  0  0  0
   -0.8790   23.3050  -27.5430 C   0  0  0  0  0  0  0  0  0  0  0  0
   -1.5050   24.5600  -27.4720 C   0  0  0  0  0  0  0  0  0  0  0  0
   -2.4620   24.9380  -28.4130 C   0  0  0  0  0  0  0  0  0  0  0  0
   -2.8060   24.0770  -29.4640 C   0  0  0  0  0  0  0  0  0  0  0  0
   -3.8190   24.4800  -30.4680 C   0  0  0  0  0  0  0  0  0  0  0  0
   -4.2730   25.6570  -30.4650 O   0  0  0  0  0  0  0  0  0  0  0  0
   -4.2420   23.5500  -31.4760 N   0  0  0  0  0  0  0  0  0  0  0  0
   -5.5630   23.0110  -31.6330 C   0  0  0  0  0  0  0  0  0  0  0  0
   -6.7070   23.7100  -31.2100 C   0  0  0  0  0  0  0  0  0  0  0  0
   -7.9750   23.1420  -31.3670 C   0  0  0  0  0  0  0  0  0  0  0  0
   -8.1110   21.8740  -31.9350 C   0  0  0  0  0  0  0  0  0  0  0  0
   -6.9740   21.1560  -32.3320 C   0  0  0  0  0  0  0  0  0  0  0  0
   -7.1270   19.5620  -33.0690 S   0  0  0  0  0  0  0  0  0  0  0  0
   -6.8680   19.6580  -34.5470 O   0  0  0  0  0  0  0  0  0  0  0  0
   -8.5350   19.0810  -32.8620 O   0  0  0  0  0  0  0  0  0  0  0  0
   -6.0080   18.4530  -32.3060 N   0  0  0  0  0  0  0  0  0  0  0  0
   -6.5190   17.0690  -32.2830 C   0  0  0  0  0  0  0  0  0  0  0  0
   -6.2640   16.3310  -33.6070 C   0  0  0  0  0  0  0  0  0  0  0  0
   -4.8960   16.3750  -33.9530 O   0  0  0  0  0  0  0  0  0  0  0  0
   -4.5070   17.7150  -34.1650 C   0  0  0  0  0  0  0  0  0  0  0  0
   -4.6480   18.5350  -32.8740 C   0  0  0  0  0  0  0  0  0  0  0  0
   -5.7040   21.7270  -32.1720 C   0  0  0  0  0  0  0  0  0  0  0  0
   -2.1720   22.8270  -29.5510 C   0  0  0  0  0  0  0  0  0  0  0  0
   -1.2190   22.4220  -28.6020 C   0  0  0  0  0  0  0  0  0  0  0  0
   -0.4950   20.8050  -28.7950 S   0  0  0  0  0  0  0  0  0  0  0  0
    0.8200   20.7230  -28.0720 O   0  0  0  0  0  0  0  0  0  0  0  0
   -0.2120   20.5850  -30.2550 O   0  0  0  0  0  0  0  0  0  0  0  0
   -1.5340   19.5190  -28.2250 N   0  0  0  0  0  0  0  0  0  0  0  0
   -2.8430   20.0150  -27.8020 C   0  0  0  0  0  0  0  0  0  0  0  0
   -3.3780   19.0180  -26.7830 C   0  0  0  0  0  0  0  0  0  0  0  0
   -2.1740   18.1900  -26.3580 C   0  0  0  0  0  0  0  0  0  0  0  0
   -0.9890   18.8270  -27.0610 C   0  0  0  0  0  0  0  0  0  0  0  0
   -0.2404   23.1065  -25.5091 H   0  0  0  0  0  0  0  0  0  0  0  0
    0.5028   21.9349  -26.6501 H   0  0  0  0  0  0  0  0  0  0  0  0
    1.0360   23.6502  -26.6501 H   0  0  0  0  0  0  0  0  0  0  0  0
   -1.2366   25.2548  -26.6625 H   0  0  0  0  0  0  0  0  0  0  0  0
   -2.9509   25.9199  -28.3298 H   0  0  0  0  0  0  0  0  0  0  0  0
   -6.6044   24.7060  -30.7545 H   0  0  0  0  0  0  0  0  0  0  0  0
   -8.8680   23.6959  -31.0420 H   0  0  0  0  0  0  0  0  0  0  0  0
   -9.1115   21.4376  -32.0713 H   0  0  0  0  0  0  0  0  0  0  0  0
   -6.0194   16.5209  -31.4706 H   0  0  0  0  0  0  0  0  0  0  0  0
   -7.6070   17.1145  -32.1272 H   0  0  0  0  0  0  0  0  0  0  0  0
   -6.5748   15.2813  -33.4998 H   0  0  0  0  0  0  0  0  0  0  0  0
   -6.8434   16.8241  -34.4014 H   0  0  0  0  0  0  0  0  0  0  0  0
   -3.4576   17.7381  -34.4940 H   0  0  0  0  0  0  0  0  0  0  0  0
   -5.1594   18.1539  -34.9343 H   0  0  0  0  0  0  0  0  0  0  0  0
   -3.9309   18.1536  -32.1322 H   0  0  0  0  0  0  0  0  0  0  0  0
   -4.4482   19.5884  -33.1200 H   0  0  0  0  0  0  0  0  0  0  0  0
   -4.8101   21.1609  -32.4727 H   0  0  0  0  0  0  0  0  0  0  0  0
   -2.4272   22.1506  -30.3801 H   0  0  0  0  0  0  0  0  0  0  0  0
   -2.7417   21.0095  -27.3429 H   0  0  0  0  0  0  0  0  0  0  0  0
   -3.5262   20.1116  -28.6587 H   0  0  0  0  0  0  0  0  0  0  0  0
   -3.8077   19.5446  -25.9181 H   0  0  0  0  0  0  0  0  0  0  0  0
   -4.1776   18.3912  -27.2045 H   0  0  0  0  0  0  0  0  0  0  0  0
   -2.0431   18.2305  -25.2666 H   0  0  0  0  0  0  0  0  0  0  0  0
   -2.2890   17.1286  -26.6230 H   0  0  0  0  0  0  0  0  0  0  0  0
   -0.4872   19.5417  -26.3921 H   0  0  0  0  0  0  0  0  0  0  0  0
   -0.2426   18.0739  -27.3538 H   0  0  0  0  0  0  0  0  0  0  0  0
  1  2  1  0
  2  3  2  0
  3  4  1  0
  4  5  2  0
  5  6  1  0
  6  7  2  0
  6  8  1  0
  8  9  1  0
  9 10  2  0
 10 11  1  0
 11 12  2  0
 12 13  1  0
 13 14  1  0
 14 15  2  0
 14 16  2  0
 14 17  1  0
 17 18  1  0
 18 19  1  0
 19 20  1  0
 20 21  1  0
 21 22  1  0
 13 23  2  0
  5 24  1  0
 24 25  2  0
 25 26  1  0
 26 27  2  0
 26 28  2  0
 26 29  1  0
 29 30  1  0
 30 31  1  0
 31 32  1  0
 32 33  1  0
 25  2  1  0
 33 29  1  0
 23  9  1  0
 22 17  1  0
  1 34  1  0
  1 35  1  0
  1 36  1  0
  3 37  1  0
  4 38  1  0
 10 39  1  0
 11 40  1  0
 12 41  1  0
 18 42  1  0
 18 43  1  0
 19 44  1  0
 19 45  1  0
 21 46  1  0
 21 47  1  0
 22 48  1  0
 22 49  1  0
 23 50  1  0
 24 51  1  0
 30 52  1  0
 30 53  1  0
 31 54  1  0
 31 55  1  0
 32 56  1  0
 32 57  1  0
 33 58  1  0
 33 59  1  0
M  CHG  1   8  -1
M  END
>  <UniqueID>  (9) 
9

>  <SMILES>  (9) 
Cc1ccc(C(=O)[N-]c2cccc(S(=O)(=O)N3CCOCC3)c2)cc1S(=O)(=O)N1CCCC1

>  <Energy>  (9) 
74.08884612209616

>  <Genealogy>  (9) 
Cc1ccc(C(=O)[N-]c2cccc(S(=O)(=O)N3CCOCC3)c2)cc1S(=O)(=O)N1CCCC1 (protonated)
Cc1ccc(C(=O)[N-]c2cccc(S(=O)(=O)N3CCOCC3)c2)cc1S(=O)(=O)N1CCCC1 (3D coordinates assigned)
Cc1ccc(C(=O)[N-]c2cccc(S(=O)(=O)N3CCOCC3)c2)cc1S(=O)(=O)N1CCCC1 (nonaromatic ring conformer: 74.08884612209616 kcal/mol)

>  <smiles>  (9) 
Cc1ccc(C(=O)Nc2cccc(S(=O)(=O)N3CCOCC3)c2)cc1S(=O)(=O)N1CCCC1

>  <score_type>  (9) 
oracle

>  <origin>  (9) 
adgpu

>  <m_score__min__energy>  (9) 
-12.24

>  <m_primary>  (9) 
energy

$$$$
9:0
     RDKit          3D

 39 41  0  0  0  0  0  0  0  0999 V2000
   -3.8670   26.4350  -30.0500 H   0  0  0  0  0  0  0  0  0  0  0  0
   -4.2610   25.6040  -30.4730 O   0  0  0  0  0  0  0  0  0  0  0  0
   -3.4940   24.5090  -30.8230 N   0  0  0  0  0  0  0  0  0  0  0  0
   -3.9720   23.3460  -31.1680 C   0  0  0  0  0  0  0  0  0  0  0  0
   -3.0250   22.2310  -31.4510 C   0  0  0  0  0  0  0  0  0  0  0  0
   -2.2540   21.6550  -30.4220 C   0  0  0  0  0  0  0  0  0  0  0  0
   -2.3491   22.0323  -29.3931 H   0  0  0  0  0  0  0  0  0  0  0  0
   -1.3690   20.6080  -30.6970 C   0  0  0  0  0  0  0  0  0  0  0  0
   -0.7701   20.1682  -29.8859 H   0  0  0  0  0  0  0  0  0  0  0  0
   -1.2440   20.1200  -31.9980 C   0  0  0  0  0  0  0  0  0  0  0  0
   -0.5463   19.2965  -32.2103 H   0  0  0  0  0  0  0  0  0  0  0  0
   -2.0020   20.6740  -33.0310 C   0  0  0  0  0  0  0  0  0  0  0  0
   -1.8670   20.1740  -34.3250 O   0  0  0  0  0  0  0  0  0  0  0  0
   -1.9370   20.7790  -35.1350 H   0  0  0  0  0  0  0  0  0  0  0  0
   -2.8910   21.7240  -32.7600 C   0  0  0  0  0  0  0  0  0  0  0  0
   -3.4892   22.1560  -33.5758 H   0  0  0  0  0  0  0  0  0  0  0  0
   -5.4320   23.1250  -31.2750 C   0  0  0  0  0  0  0  0  0  0  0  0
   -6.3260   24.1920  -31.1030 C   0  0  0  0  0  0  0  0  0  0  0  0
   -5.9430   25.1945  -30.8617 H   0  0  0  0  0  0  0  0  0  0  0  0
   -7.7000   23.9860  -31.2370 C   0  0  0  0  0  0  0  0  0  0  0  0
   -8.3966   24.8261  -31.0989 H   0  0  0  0  0  0  0  0  0  0  0  0
   -8.1930   22.7160  -31.5460 C   0  0  0  0  0  0  0  0  0  0  0  0
   -9.2765   22.5624  -31.6571 H   0  0  0  0  0  0  0  0  0  0  0  0
   -7.3120   21.6320  -31.7160 C   0  0  0  0  0  0  0  0  0  0  0  0
   -7.8200   20.2850  -32.0700 C   0  0  0  0  0  0  0  0  0  0  0  0
   -9.0300   20.0120  -31.8360 O   0  0  0  0  0  0  0  0  0  0  0  0
   -6.9600   19.2480  -32.6890 C   0  0  0  0  0  0  0  0  0  0  0  0
   -6.2480   19.5350  -33.8670 C   0  0  0  0  0  0  0  0  0  0  0  0
   -6.3423   20.5262  -34.3346 H   0  0  0  0  0  0  0  0  0  0  0  0
   -5.4210   18.5690  -34.4480 C   0  0  0  0  0  0  0  0  0  0  0  0
   -4.8741   18.7997  -35.3741 H   0  0  0  0  0  0  0  0  0  0  0  0
   -5.2880   17.3120  -33.8550 C   0  0  0  0  0  0  0  0  0  0  0  0
   -4.6411   16.5519  -34.3172 H   0  0  0  0  0  0  0  0  0  0  0  0
   -5.9760   17.0190  -32.6750 C   0  0  0  0  0  0  0  0  0  0  0  0
   -5.8661   16.0303  -32.2055 H   0  0  0  0  0  0  0  0  0  0  0  0
   -6.8050   17.9830  -32.0900 C   0  0  0  0  0  0  0  0  0  0  0  0
   -7.3388   17.7511  -31.1566 H   0  0  0  0  0  0  0  0  0  0  0  0
   -5.9290   21.8510  -31.5940 C   0  0  0  0  0  0  0  0  0  0  0  0
   -5.2294   21.0166  -31.7499 H   0  0  0  0  0  0  0  0  0  0  0  0
  1  2  1  0
  2  3  1  0
  3  4  2  0
  4  5  1  0
  5  6  2  0
  6  7  1  0
  6  8  1  0
  8  9  1  0
  8 10  2  0
 10 11  1  0
 10 12  1  0
 12 13  1  0
 13 14  1  0
 12 15  2  0
 15 16  1  0
  4 17  1  0
 17 18  2  0
 18 19  1  0
 18 20  1  0
 20 21  1  0
 20 22  2  0
 22 23  1  0
 22 24  1  0
 24 25  1  0
 25 26  2  0
 25 27  1  0
 27 28  2  0
 28 29  1  0
 28 30  1  0
 30 31  1  0
 30 32  2  0
 32 33  1  0
 32 34  1  0
 34 35  1  0
 34 36  2  0
 36 37  1  0
 24 38  2  0
 38 39  1  0
 15  5  1  0
 38 17  1  0
 36 27  1  0
M  END
>  <UniqueID>  (10) 
10

>  <SMILES>  (10) 
O=C(c1ccccc1)c1cccc(/C(=N\O)c2cccc(O)c2)c1

>  <Energy>  (10) 
58.10398199024772

>  <Genealogy>  (10) 
O=C(c1ccccc1)c1cccc(/C(=N\O)c2cccc(O)c2)c1 (cis-trans isomerization)
O=C(c1ccccc1)c1cccc(/C(=N\O)c2cccc(O)c2)c1 (3D coordinates assigned)
O=C(c1ccccc1)c1cccc(/C(=N\O)c2cccc(O)c2)c1 (optimized conformer: 58.10398199024772 kcal/mol)

>  <smiles>  (10) 
O=C(c1ccccc1)c1cccc(C(=NO)c2cccc(O)c2)c1

>  <score_type>  (10) 
oracle

>  <origin>  (10) 
adgpu

>  <m_score__min__energy>  (10) 
-9.8000000000000007

>  <m_primary>  (10) 
energy

$$$$
10:0
     RDKit          3D

 64 66  0  0  0  0  0  0  0  0999 V2000
   -6.2930   17.4390  -31.5660 C   0  0  0  0  0  0  0  0  0  0  0  0
   -7.5830   17.9150  -32.2230 C   0  0  0  0  0  0  0  0  0  0  0  0
   -8.0450   19.2570  -31.6410 C   0  0  0  0  0  0  0  0  0  0  0  0
   -7.9240   20.3740  -32.6810 C   0  0  0  0  0  0  0  0  0  0  0  0
   -6.7800   21.2450  -32.3670 N   0  0  0  0  0  0  0  0  0  0  0  0
   -6.9910   22.6440  -31.9640 C   0  0  0  0  0  0  0  0  0  0  0  0
   -7.1830   22.7650  -30.4360 C   0  0  0  0  0  0  0  0  0  0  0  0
   -6.6600   24.0930  -29.8670 C   0  0  0  0  0  0  0  0  0  0  0  0
   -5.9520   24.9400  -30.9260 C   0  0  0  0  0  0  0  0  0  0  0  0
   -5.4420   20.7200  -32.4090 C   0  0  0  0  0  0  0  0  0  0  0  0
   -4.4970   21.0940  -31.4430 C   0  0  0  0  0  0  0  0  0  0  0  0
   -3.1880   20.5860  -31.5360 C   0  0  0  0  0  0  0  0  0  0  0  0
   -2.1620   20.9370  -30.5730 N   0  0  0  0  0  0  0  0  0  0  0  0
   -1.2120   19.9330  -30.0650 C   0  0  0  0  0  0  0  0  0  0  0  0
   -1.5860   19.5260  -28.6660 C   0  0  0  0  0  0  0  0  0  0  0  0
   -0.8520   18.5360  -27.9940 C   0  0  0  0  0  0  0  0  0  0  0  0
   -1.2440   18.1130  -26.7190 C   0  0  0  0  0  0  0  0  0  0  0  0
   -2.3680   18.6730  -26.1090 C   0  0  0  0  0  0  0  0  0  0  0  0
   -3.1180   19.6440  -26.7800 C   0  0  0  0  0  0  0  0  0  0  0  0
   -2.7310   20.0710  -28.0550 C   0  0  0  0  0  0  0  0  0  0  0  0
   -2.0370   22.2800  -30.0700 C   0  0  0  0  0  0  0  0  0  0  0  0
   -3.1530   23.1300  -30.0390 C   0  0  0  0  0  0  0  0  0  0  0  0
   -3.0100   24.4660  -29.6520 C   0  0  0  0  0  0  0  0  0  0  0  0
   -1.7520   24.9630  -29.3030 C   0  0  0  0  0  0  0  0  0  0  0  0
   -1.6070   26.2950  -28.9360 O   0  0  0  0  0  0  0  0  0  0  0  0
   -0.6380   24.1160  -29.3240 C   0  0  0  0  0  0  0  0  0  0  0  0
   -0.7780   22.7780  -29.7020 C   0  0  0  0  0  0  0  0  0  0  0  0
   -2.8940   19.7330  -32.5560 N   0  0  0  0  0  0  0  0  0  0  0  0
   -3.8190   19.3790  -33.4860 C   0  0  0  0  0  0  0  0  0  0  0  0
   -3.4720   18.3910  -34.5500 C   0  0  0  0  0  0  0  0  0  0  0  0
   -5.0830   19.8650  -33.4030 N   0  0  0  0  0  0  0  0  0  0  0  0
   -6.4021   17.4793  -30.4722 H   0  0  0  0  0  0  0  0  0  0  0  0
   -6.0838   16.4045  -31.8758 H   0  0  0  0  0  0  0  0  0  0  0  0
   -5.4620   18.0897  -31.8758 H   0  0  0  0  0  0  0  0  0  0  0  0
   -7.4121   18.0331  -33.3032 H   0  0  0  0  0  0  0  0  0  0  0  0
   -8.3659   17.1665  -32.0314 H   0  0  0  0  0  0  0  0  0  0  0  0
   -9.0954   19.1705  -31.3259 H   0  0  0  0  0  0  0  0  0  0  0  0
   -7.4054   19.5062  -30.7815 H   0  0  0  0  0  0  0  0  0  0  0  0
   -7.7781   19.9286  -33.6761 H   0  0  0  0  0  0  0  0  0  0  0  0
   -8.8449   20.9755  -32.6677 H   0  0  0  0  0  0  0  0  0  0  0  0
   -6.1156   23.2391  -32.2634 H   0  0  0  0  0  0  0  0  0  0  0  0
   -7.9010   23.0144  -32.4587 H   0  0  0  0  0  0  0  0  0  0  0  0
   -8.2568   22.6860  -30.2106 H   0  0  0  0  0  0  0  0  0  0  0  0
   -6.6036   21.9560  -29.9671 H   0  0  0  0  0  0  0  0  0  0  0  0
   -7.5098   24.6653  -29.4665 H   0  0  0  0  0  0  0  0  0  0  0  0
   -5.9280   23.8570  -29.0805 H   0  0  0  0  0  0  0  0  0  0  0  0
   -5.3219   25.6939  -30.4314 H   0  0  0  0  0  0  0  0  0  0  0  0
   -5.3234   24.2916  -31.5540 H   0  0  0  0  0  0  0  0  0  0  0  0
   -6.7016   25.4436  -31.5540 H   0  0  0  0  0  0  0  0  0  0  0  0
   -4.7748   21.7744  -30.6246 H   0  0  0  0  0  0  0  0  0  0  0  0
   -1.2335   19.0487  -30.7188 H   0  0  0  0  0  0  0  0  0  0  0  0
   -0.2015   20.3675  -30.0547 H   0  0  0  0  0  0  0  0  0  0  0  0
    0.0339   18.0914  -28.4710 H   0  0  0  0  0  0  0  0  0  0  0  0
   -0.6651   17.3374  -26.1961 H   0  0  0  0  0  0  0  0  0  0  0  0
   -2.6639   18.3502  -25.0999 H   0  0  0  0  0  0  0  0  0  0  0  0
   -4.0129   20.0724  -26.3051 H   0  0  0  0  0  0  0  0  0  0  0  0
   -3.3229   20.8344  -28.5811 H   0  0  0  0  0  0  0  0  0  0  0  0
   -4.1439   22.7439  -30.3202 H   0  0  0  0  0  0  0  0  0  0  0  0
   -3.8892   25.1265  -29.6223 H   0  0  0  0  0  0  0  0  0  0  0  0
    0.3515   24.5050  -29.0419 H   0  0  0  0  0  0  0  0  0  0  0  0
    0.0995   22.1147  -29.7110 H   0  0  0  0  0  0  0  0  0  0  0  0
   -3.1418   17.4509  -34.0839 H   0  0  0  0  0  0  0  0  0  0  0  0
   -4.3566   18.1994  -35.1751 H   0  0  0  0  0  0  0  0  0  0  0  0
   -2.6618   18.7947  -35.1751 H   0  0  0  0  0  0  0  0  0  0  0  0
  1  2  1  0
  2  3  1  0
  3  4  1  0
  4  5  1  0
  5  6  1  0
  6  7  1  0
  7  8  1  0
  8  9  1  0
  5 10  1  0
 10 11  2  0
 11 12  1  0
 12 13  1  0
 13 14  1  0
 14 15  1  0
 15 16  2  0
 16 17  1  0
 17 18  2  0
 18 19  1  0
 19 20  2  0
 13 21  1  0
 21 22  2  0
 22 23  1  0
 23 24  2  0
 24 25  1  0
 24 26  1  0
 26 27  2  0
 12 28  2  0
 28 29  1  0
 29 30  1  0
 29 31  2  0
 31 10  1  0
 20 15  1  0
 27 21  1  0
  1 32  1  0
  1 33  1  0
  1 34  1  0
  2 35  1  0
  2 36  1  0
  3 37  1  0
  3 38  1  0
  4 39  1  0
  4 40  1  0
  6 41  1  0
  6 42  1  0
  7 43  1  0
  7 44  1  0
  8 45  1  0
  8 46  1  0
  9 47  1  0
  9 48  1  0
  9 49  1  0
 11 50  1  0
 14 51  1  0
 14 52  1  0
 16 53  1  0
 17 54  1  0
 18 55  1  0
 19 56  1  0
 20 57  1  0
 22 58  1  0
 23 59  1  0
 26 60  1  0
 27 61  1  0
 30 62  1  0
 30 63  1  0
 30 64  1  0
M  CHG  1  25  -1
M  END
>  <UniqueID>  (11) 
11

>  <SMILES>  (11) 
CCCCN(CCCC)c1cc(N(Cc2ccccc2)c2ccc([O-])cc2)nc(C)n1

>  <Energy>  (11) 
64.70491385994644

>  <Genealogy>  (11) 
CCCCN(CCCC)c1cc(N(Cc2ccccc2)c2ccc([O-])cc2)nc(C)n1 (protonated)
CCCCN(CCCC)c1cc(N(Cc2ccccc2)c2ccc([O-])cc2)nc(C)n1 (3D coordinates assigned)
CCCCN(CCCC)c1cc(N(Cc2ccccc2)c2ccc([O-])cc2)nc(C)n1 (optimized conformer: 64.70491385994644 kcal/mol)

>  <smiles>  (11) 
CCCCN(CCCC)c1cc(N(Cc2ccccc2)c2ccc(O)cc2)nc(C)n1

>  <score_type>  (11) 
oracle

>  <origin>  (11) 
adgpu

>  <m_score__min__energy>  (11) 
-10.710000000000001

>  <m_primary>  (11) 
energy

$$$$
11:0
     RDKit          3D

 44 47  0  0  0  0  0  0  0  0999 V2000
   -1.3430   23.3250  -28.1610 C   0  0  0  0  0  0  0  0  0  0  0  0
   -2.3760   23.8650  -29.0980 C   0  0  0  0  0  0  0  0  0  0  0  0
   -2.5150   25.1760  -29.3690 N   0  0  0  0  0  0  0  0  0  0  0  0
   -3.5120   25.2910  -30.1950 O   0  0  0  0  0  0  0  0  0  0  0  0
   -4.0370   24.1230  -30.4810 C   0  0  0  0  0  0  0  0  0  0  0  0
   -5.0630   24.0210  -31.2800 N   0  0  0  0  0  0  0  0  0  0  0  0
   -5.9290   22.6150  -31.8140 S   0  0  0  0  0  0  0  0  0  0  0  0
   -7.0170   23.0250  -32.7680 O   0  0  0  0  0  0  0  0  0  0  0  0
   -6.5690   21.9730  -30.6160 O   0  0  0  0  0  0  0  0  0  0  0  0
   -4.8440   21.4340  -32.5390 C   0  0  0  0  0  0  0  0  0  0  0  0
   -3.6850   21.8540  -33.2070 C   0  0  0  0  0  0  0  0  0  0  0  0
   -2.8150   20.9120  -33.7610 C   0  0  0  0  0  0  0  0  0  0  0  0
   -3.0820   19.5440  -33.6370 C   0  0  0  0  0  0  0  0  0  0  0  0
   -2.1920   18.5970  -34.2470 N   0  0  0  0  0  0  0  0  0  0  0  0
   -0.8940   18.5110  -34.0990 C   0  0  0  0  0  0  0  0  0  0  0  0
   -0.1590   19.4810  -33.3840 C   0  0  0  0  0  0  0  0  0  0  0  0
    1.2240   19.3560  -33.2610 C   0  0  0  0  0  0  0  0  0  0  0  0
    1.8730   18.3140  -33.8380 N   0  0  0  0  0  0  0  0  0  0  0  0
    1.2120   17.3650  -34.5510 C   0  0  0  0  0  0  0  0  0  0  0  0
    1.9290   16.3140  -35.1330 C   0  0  0  0  0  0  0  0  0  0  0  0
    1.2620   15.3340  -35.8730 C   0  0  0  0  0  0  0  0  0  0  0  0
    2.1660   14.0180  -36.6000 Cl  0  0  0  0  0  0  0  0  0  0  0  0
   -0.1250   15.4000  -36.0330 C   0  0  0  0  0  0  0  0  0  0  0  0
   -0.8520   16.4450  -35.4560 C   0  0  0  0  0  0  0  0  0  0  0  0
   -0.1940   17.4430  -34.7070 C   0  0  0  0  0  0  0  0  0  0  0  0
   -4.2690   19.1260  -33.0120 C   0  0  0  0  0  0  0  0  0  0  0  0
   -5.1410   20.0680  -32.4590 C   0  0  0  0  0  0  0  0  0  0  0  0
   -3.3220   23.1330  -29.8000 C   0  0  0  0  0  0  0  0  0  0  0  0
   -3.5270   21.6500  -29.6920 C   0  0  0  0  0  0  0  0  0  0  0  0
   -1.6656   23.4936  -27.1230 H   0  0  0  0  0  0  0  0  0  0  0  0
   -1.2179   22.2461  -28.3354 H   0  0  0  0  0  0  0  0  0  0  0  0
   -0.3857   23.8381  -28.3354 H   0  0  0  0  0  0  0  0  0  0  0  0
   -3.4604   22.9272  -33.2950 H   0  0  0  0  0  0  0  0  0  0  0  0
   -1.9152   21.2473  -34.2976 H   0  0  0  0  0  0  0  0  0  0  0  0
   -0.6773   20.3353  -32.9240 H   0  0  0  0  0  0  0  0  0  0  0  0
    1.7924   20.1069  -32.6926 H   0  0  0  0  0  0  0  0  0  0  0  0
    3.0205   16.2589  -35.0078 H   0  0  0  0  0  0  0  0  0  0  0  0
   -0.6466   14.6262  -36.6155 H   0  0  0  0  0  0  0  0  0  0  0  0
   -1.9433   16.4895  -35.5867 H   0  0  0  0  0  0  0  0  0  0  0  0
   -4.5126   18.0547  -32.9578 H   0  0  0  0  0  0  0  0  0  0  0  0
   -6.0630   19.7354  -31.9597 H   0  0  0  0  0  0  0  0  0  0  0  0
   -3.5669   21.3617  -28.6312 H   0  0  0  0  0  0  0  0  0  0  0  0
   -4.4719   21.3738  -30.1828 H   0  0  0  0  0  0  0  0  0  0  0  0
   -2.6925   21.1278  -30.1828 H   0  0  0  0  0  0  0  0  0  0  0  0
  1  2  1  0
  2  3  1  0
  3  4  1  0
  4  5  1  0
  5  6  2  3
  6  7  1  0
  7  8  2  0
  7  9  2  0
  7 10  1  0
 10 11  2  0
 11 12  1  0
 12 13  2  0
 13 14  1  0
 14 15  2  3
 15 16  1  0
 16 17  2  0
 17 18  1  0
 18 19  1  0
 19 20  2  0
 20 21  1  0
 21 22  1  0
 21 23  2  0
 23 24  1  0
 24 25  2  0
 13 26  1  0
 26 27  2  0
  5 28  1  0
 28 29  1  0
 28  2  2  0
 27 10  1  0
 25 15  1  0
 25 19  1  0
  1 30  1  0
  1 31  1  0
  1 32  1  0
 11 33  1  0
 12 34  1  0
 16 35  1  0
 17 36  1  0
 20 37  1  0
 23 38  1  0
 24 39  1  0
 26 40  1  0
 27 41  1  0
 29 42  1  0
 29 43  1  0
 29 44  1  0
M  CHG  2   3  -1  18  -1
M  END
>  <UniqueID>  (12) 
12

>  <SMILES>  (12) 
Cc1[n-]oc(=NS(=O)(=O)c2ccc(N=c3cc[n-]c4cc(Cl)ccc34)cc2)c1C

>  <Energy>  (12) 
102.22214464854198

>  <Genealogy>  (12) 
Cc1[n-]oc(=NS(=O)(=O)c2ccc(N=c3cc[n-]c4cc(Cl)ccc34)cc2)c1C (protonated)
Cc1[n-]oc(=NS(=O)(=O)c2ccc(N=c3cc[n-]c4cc(Cl)ccc34)cc2)c1C (3D coordinates assigned)
Cc1[n-]oc(=NS(=O)(=O)c2ccc(N=c3cc[n-]c4cc(Cl)ccc34)cc2)c1C (optimized conformer: 102.22214464854198 kcal/mol)

>  <smiles>  (12) 
Cc1[nH]oc(=NS(=O)(=O)c2ccc(N=c3cc[nH]c4cc(Cl)ccc34)cc2)c1C

>  <score_type>  (12) 
oracle

>  <origin>  (12) 
adgpu

>  <m_score__min__energy>  (12) 
-10.92

>  <m_primary>  (12) 
energy

$$$$
12:0
     RDKit          3D

 72 76  0  0  0  0  0  0  0  0999 V2000
   -2.4036   19.1452  -33.2943 H   0  0  0  0  0  0  0  0  0  0  0  0
   -1.6290   19.6980  -33.8460 C   0  0  0  0  0  0  0  0  0  0  0  0
   -1.4770   21.0340  -33.6570 N   0  0  0  0  0  0  0  0  0  0  0  0
   -0.5320   21.7430  -34.3290 C   0  0  0  0  0  0  0  0  0  0  0  0
   -0.4249   22.8245  -34.1589 H   0  0  0  0  0  0  0  0  0  0  0  0
    0.3100   21.0810  -35.2460 C   0  0  0  0  0  0  0  0  0  0  0  0
    1.2780   21.6800  -35.8780 N   0  0  0  0  0  0  0  0  0  0  0  0
    1.6090   23.0780  -35.8660 C   0  0  0  0  0  0  0  0  0  0  0  0
    2.9130   23.4410  -35.7410 N   0  0  0  0  0  0  0  0  0  0  0  0
    3.2990   24.7420  -35.7430 C   0  0  0  0  0  0  0  0  0  0  0  0
    4.3627   24.9985  -35.6299 H   0  0  0  0  0  0  0  0  0  0  0  0
    2.3510   25.7550  -35.8880 C   0  0  0  0  0  0  0  0  0  0  0  0
    2.6633   26.8096  -35.8715 H   0  0  0  0  0  0  0  0  0  0  0  0
    0.9970   25.4240  -36.0550 C   0  0  0  0  0  0  0  0  0  0  0  0
    0.0010   26.4600  -36.2160 N   0  0  0  0  0  0  0  0  0  0  0  0
    0.0640   27.6890  -35.4150 C   0  0  0  0  0  0  0  0  0  0  0  0
    0.4682   27.4541  -34.4193 H   0  0  0  0  0  0  0  0  0  0  0  0
    0.7159   28.4160  -35.9214 H   0  0  0  0  0  0  0  0  0  0  0  0
   -1.3390   28.2920  -35.2640 C   0  0  0  0  0  0  0  0  0  0  0  0
   -1.9643   27.5880  -34.6954 H   0  0  0  0  0  0  0  0  0  0  0  0
   -1.2302   29.2550  -34.7437 H   0  0  0  0  0  0  0  0  0  0  0  0
   -1.9910   28.5600  -36.5600 N   0  0  0  0  0  0  0  0  0  0  0  0
   -1.7770   29.5480  -36.8360 H   0  0  0  0  0  0  0  0  0  0  0  0
   -1.5670   27.6800  -37.6670 C   0  0  0  0  0  0  0  0  0  0  0  0
   -2.4185   27.5381  -38.3488 H   0  0  0  0  0  0  0  0  0  0  0  0
   -0.7179   28.1664  -38.1694 H   0  0  0  0  0  0  0  0  0  0  0  0
   -1.0910   26.3040  -37.1850 C   0  0  0  0  0  0  0  0  0  0  0  0
   -1.9291   25.7758  -36.7070 H   0  0  0  0  0  0  0  0  0  0  0  0
   -0.7278   25.7257  -38.0474 H   0  0  0  0  0  0  0  0  0  0  0  0
    0.6310   24.0670  -36.0610 C   0  0  0  0  0  0  0  0  0  0  0  0
   -0.4193   23.7801  -36.2181 H   0  0  0  0  0  0  0  0  0  0  0  0
    0.1540   19.7410  -35.4160 N   0  0  0  0  0  0  0  0  0  0  0  0
   -0.7930   19.0290  -34.7480 C   0  0  0  0  0  0  0  0  0  0  0  0
   -0.8600   17.5590  -34.9110 C   0  0  0  0  0  0  0  0  0  0  0  0
   -0.4460   17.0030  -36.1320 C   0  0  0  0  0  0  0  0  0  0  0  0
    0.0132   17.6475  -36.8961 H   0  0  0  0  0  0  0  0  0  0  0  0
   -0.6110   15.6440  -36.3850 C   0  0  0  0  0  0  0  0  0  0  0  0
   -0.2797   15.2207  -37.3447 H   0  0  0  0  0  0  0  0  0  0  0  0
   -1.1940   14.8190  -35.4270 C   0  0  0  0  0  0  0  0  0  0  0  0
   -1.3604   13.7552  -35.6520 H   0  0  0  0  0  0  0  0  0  0  0  0
   -1.5720   15.3340  -34.1740 C   0  0  0  0  0  0  0  0  0  0  0  0
   -2.2340   14.5030  -33.2030 N   0  0  0  0  0  0  0  0  0  0  0  0
   -3.6360   14.4500  -32.9090 C   0  0  0  0  0  0  0  0  0  0  0  0
   -4.1660   13.3220  -32.7260 O   0  0  0  0  0  0  0  0  0  0  0  0
   -4.4830   15.6650  -32.8610 C   0  0  0  0  0  0  0  0  0  0  0  0
   -5.2380   15.9470  -31.7150 C   0  0  0  0  0  0  0  0  0  0  0  0
   -5.2056   15.2568  -30.8591 H   0  0  0  0  0  0  0  0  0  0  0  0
   -6.0310   17.0940  -31.6470 C   0  0  0  0  0  0  0  0  0  0  0  0
   -6.6174   17.2938  -30.7381 H   0  0  0  0  0  0  0  0  0  0  0  0
   -6.0920   18.0040  -32.7300 C   0  0  0  0  0  0  0  0  0  0  0  0
   -6.9990   19.2540  -32.7010 C   0  0  0  0  0  0  0  0  0  0  0  0
   -6.6380   20.2240  -31.5470 C   0  0  0  0  0  0  0  0  0  0  0  0
   -6.8219   19.7299  -30.5816 H   0  0  0  0  0  0  0  0  0  0  0  0
   -5.5762   20.5020  -31.6203 H   0  0  0  0  0  0  0  0  0  0  0  0
   -7.2597   21.1285  -31.6203 H   0  0  0  0  0  0  0  0  0  0  0  0
   -8.4620   18.8010  -32.5180 C   0  0  0  0  0  0  0  0  0  0  0  0
   -8.6922   18.7297  -31.4447 H   0  0  0  0  0  0  0  0  0  0  0  0
   -9.1342   19.5331  -32.9894 H   0  0  0  0  0  0  0  0  0  0  0  0
   -8.6029   17.8172  -32.9894 H   0  0  0  0  0  0  0  0  0  0  0  0
   -6.8730   20.0520  -34.0220 C   0  0  0  0  0  0  0  0  0  0  0  0
   -6.7052   21.1149  -33.7937 H   0  0  0  0  0  0  0  0  0  0  0  0
   -6.0250   19.6639  -34.6054 H   0  0  0  0  0  0  0  0  0  0  0  0
   -7.7993   19.9441  -34.6054 H   0  0  0  0  0  0  0  0  0  0  0  0
   -5.3690   17.6760  -33.8990 C   0  0  0  0  0  0  0  0  0  0  0  0
   -5.4398   18.3316  -34.7794 H   0  0  0  0  0  0  0  0  0  0  0  0
   -4.5650   16.5330  -33.9570 C   0  0  0  0  0  0  0  0  0  0  0  0
   -3.9927   16.3141  -34.8705 H   0  0  0  0  0  0  0  0  0  0  0  0
   -1.3930   16.7130  -33.9040 C   0  0  0  0  0  0  0  0  0  0  0  0
   -1.8050   17.2740  -32.5640 C   0  0  0  0  0  0  0  0  0  0  0  0
   -1.3603   16.6684  -31.7606 H   0  0  0  0  0  0  0  0  0  0  0  0
   -1.4535   18.3128  -32.4776 H   0  0  0  0  0  0  0  0  0  0  0  0
   -2.9013   17.2495  -32.4776 H   0  0  0  0  0  0  0  0  0  0  0  0
  1  2  1  0
  2  3  1  0
  3  4  2  0
  4  5  1  0
  4  6  1  0
  6  7  2  0
  7  8  1  0
  8  9  2  0
  9 10  1  0
 10 11  1  0
 10 12  2  0
 12 13  1  0
 12 14  1  0
 14 15  1  0
 15 16  1  0
 16 17  1  0
 16 18  1  0
 16 19  1  0
 19 20  1  0
 19 21  1  0
 19 22  1  0
 22 23  1  0
 22 24  1  0
 24 25  1  0
 24 26  1  0
 24 27  1  0
 27 28  1  0
 27 29  1  0
 14 30  2  0
 30 31  1  0
  6 32  1  0
 32 33  1  0
 33 34  1  0
 34 35  2  0
 35 36  1  0
 35 37  1  0
 37 38  1  0
 37 39  2  0
 39 40  1  0
 39 41  1  0
 41 42  1  0
 42 43  1  0
 43 44  2  0
 43 45  1  0
 45 46  2  0
 46 47  1  0
 46 48  1  0
 48 49  1  0
 48 50  2  0
 50 51  1  0
 51 52  1  0
 52 53  1  0
 52 54  1  0
 52 55  1  0
 51 56  1  0
 56 57  1  0
 56 58  1  0
 56 59  1  0
 51 60  1  0
 60 61  1  0
 60 62  1  0
 60 63  1  0
 50 64  1  0
 64 65  1  0
 64 66  2  0
 66 67  1  0
 41 68  2  0
 68 69  1  0
 69 70  1  0
 69 71  1  0
 69 72  1  0
 33  2  2  0
 68 34  1  0
 30  8  1  0
 66 45  1  0
 27 15  1  0
M  CHG  2  32  -1  42  -1
M  END
>  <UniqueID>  (13) 
13

>  <SMILES>  (13) 
Cc1c([N-]C(=O)c2ccc(C(C)(C)C)cc2)cccc1-c1cnc/c(=N\c2cc(N3CCNCC3)ccn2)[n-]1

>  <Energy>  (13) 
114.17530636236364

>  <Genealogy>  (13) 
Cc1c([N-]C(=O)c2ccc(C(C)(C)C)cc2)cccc1-c1cncc(=Nc2cc(N3CCNCC3)ccn2)[n-]1 (protonated)
Cc1c([N-]C(=O)c2ccc(C(C)(C)C)cc2)cccc1-c1cnc/c(=N\c2cc(N3CCNCC3)ccn2)[n-]1 (cis-trans isomerization)
Cc1c([N-]C(=O)c2ccc(C(C)(C)C)cc2)cccc1-c1cnc/c(=N\c2cc(N3CCNCC3)ccn2)[n-]1 (3D coordinates assigned)
Cc1c([N-]C(=O)c2ccc(C(C)(C)C)cc2)cccc1-c1cnc/c(=N\c2cc(N3CCNCC3)ccn2)[n-]1 (nonaromatic ring conformer: 114.17530636236364 kcal/mol)

>  <smiles>  (13) 
Cc1c(NC(=O)c2ccc(C(C)(C)C)cc2)cccc1-c1cncc(=Nc2cc(N3CCNCC3)ccn2)[nH]1

>  <score_type>  (13) 
oracle

>  <origin>  (13) 
adgpu

>  <m_score__min__energy>  (13) 
-11.4

>  <m_primary>  (13) 
energy

$$$$
13:0
     RDKit          3D

 39 41  0  0  0  0  0  0  0  0999 V2000
   -3.8600   25.2860  -30.4780 O   0  0  0  0  0  0  0  0  0  0  0  0
   -4.3170   24.5460  -29.5650 C   0  0  0  0  0  0  0  0  0  0  0  0
   -5.7350   24.3880  -29.4010 N   0  0  0  0  0  0  0  0  0  0  0  0
   -6.6950   24.8130  -30.4190 C   0  0  0  0  0  0  0  0  0  0  0  0
   -6.4060   24.1290  -31.7590 C   0  0  0  0  0  0  0  0  0  0  0  0
   -7.1260   22.8110  -31.8740 C   0  0  0  0  0  0  0  0  0  0  0  0
   -6.4390   21.6610  -32.3010 C   0  0  0  0  0  0  0  0  0  0  0  0
   -7.1230   20.4520  -32.4620 C   0  0  0  0  0  0  0  0  0  0  0  0
   -8.4940   20.3820  -32.2010 C   0  0  0  0  0  0  0  0  0  0  0  0
   -9.1850   21.5230  -31.7820 C   0  0  0  0  0  0  0  0  0  0  0  0
   -8.5060   22.7350  -31.6220 C   0  0  0  0  0  0  0  0  0  0  0  0
   -3.3880   23.8280  -28.6810 C   0  0  0  0  0  0  0  0  0  0  0  0
   -2.5660   24.4010  -27.7310 C   0  0  0  0  0  0  0  0  0  0  0  0
   -1.8710   23.3570  -27.1580 C   0  0  0  0  0  0  0  0  0  0  0  0
   -2.3130   22.2080  -27.7960 C   0  0  0  0  0  0  0  0  0  0  0  0
   -1.8680   20.8180  -27.5450 C   0  0  0  0  0  0  0  0  0  0  0  0
   -2.6970   19.8850  -26.8940 C   0  0  0  0  0  0  0  0  0  0  0  0
   -2.2520   18.5790  -26.6690 C   0  0  0  0  0  0  0  0  0  0  0  0
   -0.9780   18.1890  -27.0880 C   0  0  0  0  0  0  0  0  0  0  0  0
   -0.1440   19.1060  -27.7350 C   0  0  0  0  0  0  0  0  0  0  0  0
    1.4560   18.6160  -28.2610 Cl  0  0  0  0  0  0  0  0  0  0  0  0
   -0.5870   20.4140  -27.9620 C   0  0  0  0  0  0  0  0  0  0  0  0
   -3.2160   22.5270  -28.6970 O   0  0  0  0  0  0  0  0  0  0  0  0
   -6.0910   23.8010  -28.6140 H   0  0  0  0  0  0  0  0  0  0  0  0
   -7.7105   24.5474  -30.0902 H   0  0  0  0  0  0  0  0  0  0  0  0
   -6.6081   25.9014  -30.5529 H   0  0  0  0  0  0  0  0  0  0  0  0
   -6.7358   24.7886  -32.5752 H   0  0  0  0  0  0  0  0  0  0  0  0
   -5.3246   23.9376  -31.8220 H   0  0  0  0  0  0  0  0  0  0  0  0
   -5.3601   21.7125  -32.5091 H   0  0  0  0  0  0  0  0  0  0  0  0
   -6.5809   19.5545  -32.7947 H   0  0  0  0  0  0  0  0  0  0  0  0
   -9.0296   19.4293  -32.3252 H   0  0  0  0  0  0  0  0  0  0  0  0
  -10.2645   21.4672  -31.5779 H   0  0  0  0  0  0  0  0  0  0  0  0
   -9.0542   23.6318  -31.2978 H   0  0  0  0  0  0  0  0  0  0  0  0
   -2.4828   25.4694  -27.4827 H   0  0  0  0  0  0  0  0  0  0  0  0
   -1.1191   23.4224  -26.3578 H   0  0  0  0  0  0  0  0  0  0  0  0
   -3.7012   20.1854  -26.5603 H   0  0  0  0  0  0  0  0  0  0  0  0
   -2.9071   17.8564  -26.1605 H   0  0  0  0  0  0  0  0  0  0  0  0
   -0.6308   17.1607  -26.9090 H   0  0  0  0  0  0  0  0  0  0  0  0
    0.0725   21.1324  -28.4710 H   0  0  0  0  0  0  0  0  0  0  0  0
  1  2  2  0
  2  3  1  0
  3  4  1  0
  4  5  1  0
  5  6  1  0
  6  7  2  0
  7  8  1  0
  8  9  2  0
  9 10  1  0
 10 11  2  0
  2 12  1  0
 12 13  2  0
 13 14  1  0
 14 15  2  0
 15 16  1  0
 16 17  2  0
 17 18  1  0
 18 19  2  0
 19 20  1  0
 20 21  1  0
 20 22  2  0
 15 23  1  0
 11  6  1  0
 23 12  1  0
 22 16  1  0
  3 24  1  0
  4 25  1  0
  4 26  1  0
  5 27  1  0
  5 28  1  0
  7 29  1  0
  8 30  1  0
  9 31  1  0
 10 32  1  0
 11 33  1  0
 13 34  1  0
 14 35  1  0
 17 36  1  0
 18 37  1  0
 19 38  1  0
 22 39  1  0
M  END
>  <UniqueID>  (14) 
14

>  <SMILES>  (14) 
O=C(NCCc1ccccc1)c1ccc(-c2cccc(Cl)c2)o1

>  <Energy>  (14) 
62.32641348967228

>  <Genealogy>  (14) 
O=C(NCCc1ccccc1)c1ccc(-c2cccc(Cl)c2)o1 (3D coordinates assigned)
O=C(NCCc1ccccc1)c1ccc(-c2cccc(Cl)c2)o1 (optimized conformer: 62.32641348967228 kcal/mol)

>  <smiles>  (14) 
O=C(NCCc1ccccc1)c1ccc(-c2cccc(Cl)c2)o1

>  <score_type>  (14) 
oracle

>  <origin>  (14) 
adgpu

>  <m_score__min__energy>  (14) 
-8.9299999999999997

>  <m_primary>  (14) 
energy

$$$$
14:0
     RDKit          3D

 42 44  0  0  0  0  0  0  0  0999 V2000
   -5.1740   18.1800  -35.0590 O   0  0  0  0  0  0  0  0  0  0  0  0
   -5.6530   18.6950  -33.7310 S   0  0  0  0  0  0  0  0  0  0  0  0
   -6.2060   17.5490  -32.9310 O   0  0  0  0  0  0  0  0  0  0  0  0
   -6.9060   19.8680  -33.9860 N   0  0  0  0  0  0  0  0  0  0  0  0
   -7.4230   20.6940  -32.9270 C   0  0  0  0  0  0  0  0  0  0  0  0
   -6.8700   21.9660  -32.6880 C   0  0  0  0  0  0  0  0  0  0  0  0
   -7.3510   22.7700  -31.6540 C   0  0  0  0  0  0  0  0  0  0  0  0
   -8.3840   22.3140  -30.8360 C   0  0  0  0  0  0  0  0  0  0  0  0
   -8.9430   21.0540  -31.0540 C   0  0  0  0  0  0  0  0  0  0  0  0
   -8.4830   20.2380  -32.1030 C   0  0  0  0  0  0  0  0  0  0  0  0
   -9.1250   18.8920  -32.3140 C   0  0  0  0  0  0  0  0  0  0  0  0
   -8.4340   17.9250  -31.5740 O   0  0  0  0  0  0  0  0  0  0  0  0
   -4.2960   19.4450  -32.8960 C   0  0  0  0  0  0  0  0  0  0  0  0
   -4.5360   20.3310  -31.8380 C   0  0  0  0  0  0  0  0  0  0  0  0
   -3.4670   20.9140  -31.1520 C   0  0  0  0  0  0  0  0  0  0  0  0
   -2.1430   20.6290  -31.5290 C   0  0  0  0  0  0  0  0  0  0  0  0
   -1.0440   21.1810  -30.8550 O   0  0  0  0  0  0  0  0  0  0  0  0
   -1.1160   22.0970  -29.7960 C   0  0  0  0  0  0  0  0  0  0  0  0
   -0.8610   21.7190  -28.4650 C   0  0  0  0  0  0  0  0  0  0  0  0
   -0.9610   22.6590  -27.4340 C   0  0  0  0  0  0  0  0  0  0  0  0
   -1.3260   23.9770  -27.7220 C   0  0  0  0  0  0  0  0  0  0  0  0
   -1.6000   24.3550  -29.0390 C   0  0  0  0  0  0  0  0  0  0  0  0
   -1.9720   25.6640  -29.3240 O   0  0  0  0  0  0  0  0  0  0  0  0
   -1.5020   23.4160  -30.0720 C   0  0  0  0  0  0  0  0  0  0  0  0
   -1.9080   19.7310  -32.5770 C   0  0  0  0  0  0  0  0  0  0  0  0
   -2.9770   19.1460  -33.2620 C   0  0  0  0  0  0  0  0  0  0  0  0
   -7.2000   20.0350  -34.9720 H   0  0  0  0  0  0  0  0  0  0  0  0
   -6.0494   22.3304  -33.3235 H   0  0  0  0  0  0  0  0  0  0  0  0
   -6.9145   23.7653  -31.4839 H   0  0  0  0  0  0  0  0  0  0  0  0
   -8.7585   22.9476  -30.0185 H   0  0  0  0  0  0  0  0  0  0  0  0
   -9.7510   20.6957  -30.3992 H   0  0  0  0  0  0  0  0  0  0  0  0
  -10.1728   18.9291  -31.9811 H   0  0  0  0  0  0  0  0  0  0  0  0
   -9.0890   18.6316  -33.3821 H   0  0  0  0  0  0  0  0  0  0  0  0
   -7.6200   17.7060  -32.0970 H   0  0  0  0  0  0  0  0  0  0  0  0
   -5.5695   20.5688  -31.5460 H   0  0  0  0  0  0  0  0  0  0  0  0
   -3.6624   21.5987  -30.3136 H   0  0  0  0  0  0  0  0  0  0  0  0
   -0.5819   20.6803  -28.2343 H   0  0  0  0  0  0  0  0  0  0  0  0
   -0.7523   22.3607  -26.3960 H   0  0  0  0  0  0  0  0  0  0  0  0
   -1.3976   24.7172  -26.9114 H   0  0  0  0  0  0  0  0  0  0  0  0
   -1.7291   23.7146  -31.1061 H   0  0  0  0  0  0  0  0  0  0  0  0
   -0.8751   19.4840  -32.8634 H   0  0  0  0  0  0  0  0  0  0  0  0
   -2.7821   18.4491  -34.0905 H   0  0  0  0  0  0  0  0  0  0  0  0
  1  2  2  0
  2  3  2  0
  2  4  1  0
  4  5  1  0
  5  6  2  0
  6  7  1  0
  7  8  2  0
  8  9  1  0
  9 10  2  0
 10 11  1  0
 11 12  1  0
  2 13  1  0
 13 14  2  0
 14 15  1  0
 15 16  2  0
 16 17  1  0
 17 18  1  0
 18 19  2  0
 19 20  1  0
 20 21  2  0
 21 22  1  0
 22 23  1  0
 22 24  2  0
 16 25  1  0
 25 26  2  0
 10  5  1  0
 26 13  1  0
 24 18  1  0
  4 27  1  0
  6 28  1  0
  7 29  1  0
  8 30  1  0
  9 31  1  0
 11 32  1  0
 11 33  1  0
 12 34  1  0
 14 35  1  0
 15 36  1  0
 19 37  1  0
 20 38  1  0
 21 39  1  0
 24 40  1  0
 25 41  1  0
 26 42  1  0
M  CHG  1  23  -1
M  END
>  <UniqueID>  (15) 
15

>  <SMILES>  (15) 
O=S(=O)(Nc1ccccc1CO)c1ccc(Oc2cccc([O-])c2)cc1

>  <Energy>  (15) 
54.96369324713669

>  <Genealogy>  (15) 
O=S(=O)(Nc1ccccc1CO)c1ccc(Oc2cccc([O-])c2)cc1 (protonated)
O=S(=O)(Nc1ccccc1CO)c1ccc(Oc2cccc([O-])c2)cc1 (3D coordinates assigned)
O=S(=O)(Nc1ccccc1CO)c1ccc(Oc2cccc([O-])c2)cc1 (optimized conformer: 54.96369324713669 kcal/mol)

>  <smiles>  (15) 
O=S(=O)(Nc1ccccc1CO)c1ccc(Oc2cccc(O)c2)cc1

>  <score_type>  (15) 
oracle

>  <origin>  (15) 
adgpu

>  <m_score__min__energy>  (15) 
-10.789999999999999

>  <m_primary>  (15) 
energy

$$$$
15:0
     RDKit          3D

 39 41  0  0  0  0  0  0  0  0999 V2000
   -7.4440   20.0620  -33.1270 C   0  0  0  0  0  0  0  0  0  0  0  0
   -6.8460   21.2070  -32.3520 C   0  0  0  0  0  0  0  0  0  0  0  0
   -5.4550   21.4010  -32.3740 C   0  0  0  0  0  0  0  0  0  0  0  0
   -4.8730   22.4500  -31.6620 C   0  0  0  0  0  0  0  0  0  0  0  0
   -5.6710   23.3250  -30.9180 C   0  0  0  0  0  0  0  0  0  0  0  0
   -4.9330   24.6390  -30.0070 S   0  0  0  0  0  0  0  0  0  0  0  0
   -3.8690   25.2980  -30.8400 O   0  0  0  0  0  0  0  0  0  0  0  0
   -5.9760   25.6630  -29.6600 O   0  0  0  0  0  0  0  0  0  0  0  0
   -4.2120   23.9780  -28.5160 C   0  0  0  0  0  0  0  0  0  0  0  0
   -2.7850   24.4040  -28.3960 C   0  0  0  0  0  0  0  0  0  0  0  0
   -1.7370   24.1320  -29.2710 C   0  0  0  0  0  0  0  0  0  0  0  0
   -0.5740   24.6100  -28.7620 N   0  0  0  0  0  0  0  0  0  0  0  0
   -0.8650   25.1650  -27.5960 N   0  0  0  0  0  0  0  0  0  0  0  0
   -0.0080   25.7570  -26.7240 C   0  0  0  0  0  0  0  0  0  0  0  0
    1.4620   25.8360  -27.0140 C   0  0  0  0  0  0  0  0  0  0  0  0
   -0.5400   26.2390  -25.5150 C   0  0  0  0  0  0  0  0  0  0  0  0
   -1.9200   26.1030  -25.2760 C   0  0  0  0  0  0  0  0  0  0  0  0
   -2.7280   25.5050  -26.1990 N   0  0  0  0  0  0  0  0  0  0  0  0
   -2.1750   25.0490  -27.3480 C   0  0  0  0  0  0  0  0  0  0  0  0
   -7.0570   23.1340  -30.8760 C   0  0  0  0  0  0  0  0  0  0  0  0
   -7.6570   22.0780  -31.5850 C   0  0  0  0  0  0  0  0  0  0  0  0
   -9.1510   21.9040  -31.5240 C   0  0  0  0  0  0  0  0  0  0  0  0
   -7.8366   19.3104  -32.4263 H   0  0  0  0  0  0  0  0  0  0  0  0
   -8.2622   20.4356  -33.7603 H   0  0  0  0  0  0  0  0  0  0  0  0
   -6.6699   19.6040  -33.7603 H   0  0  0  0  0  0  0  0  0  0  0  0
   -4.8188   20.7196  -32.9579 H   0  0  0  0  0  0  0  0  0  0  0  0
   -3.7821   22.5895  -31.6858 H   0  0  0  0  0  0  0  0  0  0  0  0
   -4.7751   24.3472  -27.6462 H   0  0  0  0  0  0  0  0  0  0  0  0
   -4.2551   22.8795  -28.5547 H   0  0  0  0  0  0  0  0  0  0  0  0
   -1.8371   23.6073  -30.2326 H   0  0  0  0  0  0  0  0  0  0  0  0
    2.0214   25.8661  -26.0673 H   0  0  0  0  0  0  0  0  0  0  0  0
    1.7694   24.9531  -27.5936 H   0  0  0  0  0  0  0  0  0  0  0  0
    1.6730   26.7468  -27.5936 H   0  0  0  0  0  0  0  0  0  0  0  0
    0.1122   26.7148  -24.7679 H   0  0  0  0  0  0  0  0  0  0  0  0
   -2.3510   26.4818  -24.3375 H   0  0  0  0  0  0  0  0  0  0  0  0
   -7.6831   23.8166  -30.2826 H   0  0  0  0  0  0  0  0  0  0  0  0
   -9.4732   21.8665  -30.4729 H   0  0  0  0  0  0  0  0  0  0  0  0
   -9.6397   22.7513  -32.0273 H   0  0  0  0  0  0  0  0  0  0  0  0
   -9.4319   20.9671  -32.0273 H   0  0  0  0  0  0  0  0  0  0  0  0
  1  2  1  0
  2  3  2  0
  3  4  1  0
  4  5  2  0
  5  6  1  0
  6  7  2  0
  6  8  2  0
  6  9  1  0
  9 10  1  0
 10 11  1  0
 11 12  2  0
 12 13  1  0
 13 14  1  0
 14 15  1  0
 14 16  2  0
 16 17  1  0
 17 18  2  0
 18 19  1  0
  5 20  1  0
 20 21  2  0
 21 22  1  0
 21  2  1  0
 19 10  2  0
 19 13  1  0
  1 23  1  0
  1 24  1  0
  1 25  1  0
  3 26  1  0
  4 27  1  0
  9 28  1  0
  9 29  1  0
 11 30  1  0
 15 31  1  0
 15 32  1  0
 15 33  1  0
 16 34  1  0
 17 35  1  0
 20 36  1  0
 22 37  1  0
 22 38  1  0
 22 39  1  0
M  END
>  <UniqueID>  (16) 
16

>  <SMILES>  (16) 
Cc1ccc(S(=O)(=O)Cc2cnn3c(C)ccnc23)cc1C

>  <Energy>  (16) 
74.24632662855612

>  <Genealogy>  (16) 
Cc1ccc(S(=O)(=O)Cc2cnn3c(C)ccnc23)cc1C (3D coordinates assigned)
Cc1ccc(S(=O)(=O)Cc2cnn3c(C)ccnc23)cc1C (optimized conformer: 74.24632662855612 kcal/mol)

>  <smiles>  (16) 
Cc1ccc(S(=O)(=O)Cc2cnn3c(C)ccnc23)cc1C

>  <score_type>  (16) 
oracle

>  <origin>  (16) 
adgpu

>  <m_score__min__energy>  (16) 
-8.9900000000000002

>  <m_primary>  (16) 
energy

$$$$
16:0
     RDKit          3D

 35 37  0  0  0  0  0  0  0  0999 V2000
   -8.8940   24.2700  -31.5480 H   0  0  0  0  0  0  0  0  0  0  0  0
   -8.5940   23.3410  -31.9170 N   0  0  0  0  0  0  0  0  0  0  0  0
   -7.4810   22.7550  -31.5980 C   0  0  0  0  0  0  0  0  0  0  0  0
   -7.2080   21.5430  -32.1480 N   0  0  0  0  0  0  0  0  0  0  0  0
   -6.0660   20.8510  -31.8890 C   0  0  0  0  0  0  0  0  0  0  0  0
   -5.8540   19.5330  -32.5380 C   0  0  0  0  0  0  0  0  0  0  0  0
   -5.8140   19.4030  -33.9400 C   0  0  0  0  0  0  0  0  0  0  0  0
   -5.9349   20.2935  -34.5743 H   0  0  0  0  0  0  0  0  0  0  0  0
   -5.6220   18.1520  -34.5310 C   0  0  0  0  0  0  0  0  0  0  0  0
   -5.5873   18.0626  -35.6268 H   0  0  0  0  0  0  0  0  0  0  0  0
   -5.4740   17.0150  -33.7350 C   0  0  0  0  0  0  0  0  0  0  0  0
   -5.3184   16.0328  -34.2052 H   0  0  0  0  0  0  0  0  0  0  0  0
   -5.5230   17.1210  -32.3400 C   0  0  0  0  0  0  0  0  0  0  0  0
   -5.3740   15.9540  -31.5260 N   0  0  0  0  0  0  0  0  0  0  0  0
   -5.6540   15.9650  -30.5190 H   0  0  0  0  0  0  0  0  0  0  0  0
   -4.9860   15.0700  -31.9230 H   0  0  0  0  0  0  0  0  0  0  0  0
   -5.7160   18.3770  -31.7460 C   0  0  0  0  0  0  0  0  0  0  0  0
   -5.7600   18.4597  -30.6500 H   0  0  0  0  0  0  0  0  0  0  0  0
   -5.1300   21.3920  -30.9970 C   0  0  0  0  0  0  0  0  0  0  0  0
   -4.2069   20.8391  -30.7686 H   0  0  0  0  0  0  0  0  0  0  0  0
   -5.3670   22.6360  -30.3950 C   0  0  0  0  0  0  0  0  0  0  0  0
   -4.3590   23.1710  -29.4450 C   0  0  0  0  0  0  0  0  0  0  0  0
   -4.3220   22.7060  -28.1190 C   0  0  0  0  0  0  0  0  0  0  0  0
   -5.0345   21.9358  -27.7886 H   0  0  0  0  0  0  0  0  0  0  0  0
   -3.3840   23.2180  -27.2190 C   0  0  0  0  0  0  0  0  0  0  0  0
   -3.3566   22.8460  -26.1842 H   0  0  0  0  0  0  0  0  0  0  0  0
   -2.4810   24.2010  -27.6300 C   0  0  0  0  0  0  0  0  0  0  0  0
   -1.7408   24.5992  -26.9204 H   0  0  0  0  0  0  0  0  0  0  0  0
   -2.5180   24.6790  -28.9440 C   0  0  0  0  0  0  0  0  0  0  0  0
   -1.6240   25.6620  -29.3500 O   0  0  0  0  0  0  0  0  0  0  0  0
   -3.4550   24.1690  -29.8490 C   0  0  0  0  0  0  0  0  0  0  0  0
   -3.4845   24.5502  -30.8804 H   0  0  0  0  0  0  0  0  0  0  0  0
   -6.5520   23.3410  -30.7050 C   0  0  0  0  0  0  0  0  0  0  0  0
   -6.7880   24.6590  -30.1500 C   0  0  0  0  0  0  0  0  0  0  0  0
   -6.9760   25.7110  -29.7080 N   0  0  0  0  0  0  0  0  0  0  0  0
  1  2  1  0
  2  3  2  0
  3  4  1  0
  4  5  1  0
  5  6  1  0
  6  7  2  0
  7  8  1  0
  7  9  1  0
  9 10  1  0
  9 11  2  0
 11 12  1  0
 11 13  1  0
 13 14  1  0
 14 15  1  0
 14 16  1  0
 13 17  2  0
 17 18  1  0
  5 19  2  0
 19 20  1  0
 19 21  1  0
 21 22  1  0
 22 23  2  0
 23 24  1  0
 23 25  1  0
 25 26  1  0
 25 27  2  0
 27 28  1  0
 27 29  1  0
 29 30  1  0
 29 31  2  0
 31 32  1  0
 21 33  2  0
 33 34  1  0
 34 35  3  0
 33  3  1  0
 17  6  1  0
 31 22  1  0
M  CHG  2   4  -1  30  -1
M  END
>  <UniqueID>  (17) 
17

>  <SMILES>  (17) 
[H]/N=c1/[n-]c(-c2cccc(N)c2)cc(-c2cccc([O-])c2)c1C#N

>  <Energy>  (17) 
51.12023287251367

>  <Genealogy>  (17) 
N#Cc1c(-c2cccc([O-])c2)cc(-c2cccc(N)c2)[n-]c1=N (protonated)
[H]/N=c1/[n-]c(-c2cccc(N)c2)cc(-c2cccc([O-])c2)c1C#N (cis-trans isomerization)
[H]/N=c1/[n-]c(-c2cccc(N)c2)cc(-c2cccc([O-])c2)c1C#N (3D coordinates assigned)
[H]/N=c1/[n-]c(-c2cccc(N)c2)cc(-c2cccc([O-])c2)c1C#N (optimized conformer: 51.12023287251367 kcal/mol)

>  <smiles>  (17) 
N#Cc1c(-c2cccc(O)c2)cc(-c2cccc(N)c2)[nH]c1=N

>  <score_type>  (17) 
oracle

>  <origin>  (17) 
adgpu

>  <m_score__min__energy>  (17) 
-11.279999999999999

>  <m_primary>  (17) 
energy

$$$$
17:0
     RDKit          3D

 28 30  0  0  0  0  0  0  0  0999 V2000
   -3.8800   25.3040  -30.6250 O   0  0  0  0  0  0  0  0  0  0  0  0
   -4.7740   24.4200  -30.6940 C   0  0  0  0  0  0  0  0  0  0  0  0
   -5.8330   24.3680  -29.8500 N   0  0  0  0  0  0  0  0  0  0  0  0
   -6.5060   23.2920  -30.2850 C   0  0  0  0  0  0  0  0  0  0  0  0
   -7.6930   22.7540  -29.7950 C   0  0  0  0  0  0  0  0  0  0  0  0
   -8.2020   21.6100  -30.4370 C   0  0  0  0  0  0  0  0  0  0  0  0
   -7.5160   21.0340  -31.5370 C   0  0  0  0  0  0  0  0  0  0  0  0
   -8.1800   19.6190  -32.3430 S   0  0  0  0  0  0  0  0  0  0  0  0
   -8.9750   18.7970  -31.3670 O   0  0  0  0  0  0  0  0  0  0  0  0
   -9.1030   20.0480  -33.4510 O   0  0  0  0  0  0  0  0  0  0  0  0
   -6.8590   18.6600  -32.9990 C   0  0  0  0  0  0  0  0  0  0  0  0
   -6.5030   17.4450  -32.3960 C   0  0  0  0  0  0  0  0  0  0  0  0
   -5.4660   16.6750  -32.9310 C   0  0  0  0  0  0  0  0  0  0  0  0
   -4.7860   17.1090  -34.0720 C   0  0  0  0  0  0  0  0  0  0  0  0
   -5.1450   18.3150  -34.6820 C   0  0  0  0  0  0  0  0  0  0  0  0
   -6.1820   19.0880  -34.1500 C   0  0  0  0  0  0  0  0  0  0  0  0
   -6.3190   21.6150  -32.0070 C   0  0  0  0  0  0  0  0  0  0  0  0
   -5.8470   22.7460  -31.3480 C   0  0  0  0  0  0  0  0  0  0  0  0
   -4.7710   23.4530  -31.5950 O   0  0  0  0  0  0  0  0  0  0  0  0
   -6.0670   25.0090  -29.0600 H   0  0  0  0  0  0  0  0  0  0  0  0
   -8.2135   23.2064  -28.9380 H   0  0  0  0  0  0  0  0  0  0  0  0
   -9.1403   21.1583  -30.0827 H   0  0  0  0  0  0  0  0  0  0  0  0
   -7.0402   17.0975  -31.5012 H   0  0  0  0  0  0  0  0  0  0  0  0
   -5.1847   15.7253  -32.4526 H   0  0  0  0  0  0  0  0  0  0  0  0
   -3.9690   16.5025  -34.4900 H   0  0  0  0  0  0  0  0  0  0  0  0
   -4.6112   18.6561  -35.5813 H   0  0  0  0  0  0  0  0  0  0  0  0
   -6.4670   20.0332  -34.6352 H   0  0  0  0  0  0  0  0  0  0  0  0
   -5.7778   21.1886  -32.8645 H   0  0  0  0  0  0  0  0  0  0  0  0
  1  2  2  0
  2  3  1  0
  3  4  1  0
  4  5  2  0
  5  6  1  0
  6  7  2  0
  7  8  1  0
  8  9  2  0
  8 10  2  0
  8 11  1  0
 11 12  2  0
 12 13  1  0
 13 14  2  0
 14 15  1  0
 15 16  2  0
  7 17  1  0
 17 18  2  0
 18 19  1  0
 19  2  1  0
 18  4  1  0
 16 11  1  0
  3 20  1  0
  5 21  1  0
  6 22  1  0
 12 23  1  0
 13 24  1  0
 14 25  1  0
 15 26  1  0
 16 27  1  0
 17 28  1  0
M  END
>  <UniqueID>  (18) 
18

>  <SMILES>  (18) 
O=c1[nH]c2ccc(S(=O)(=O)c3ccccc3)cc2o1

>  <Energy>  (18) 
72.74783574955357

>  <Genealogy>  (18) 
O=c1[nH]c2ccc(S(=O)(=O)c3ccccc3)cc2o1 (3D coordinates assigned)
O=c1[nH]c2ccc(S(=O)(=O)c3ccccc3)cc2o1 (optimized conformer: 72.74783574955357 kcal/mol)

>  <smiles>  (18) 
O=c1[nH]c2ccc(S(=O)(=O)c3ccccc3)cc2o1

>  <score_type>  (18) 
oracle

>  <origin>  (18) 
adgpu

>  <m_score__min__energy>  (18) 
-8.3900000000000006

>  <m_primary>  (18) 
energy

$$$$
18:0
     RDKit          3D

 49 51  0  0  0  0  0  0  0  0999 V2000
   -0.0720   18.3550  -30.9090 C   0  0  0  0  0  0  0  0  0  0  0  0
   -0.5030   18.9190  -29.6740 O   0  0  0  0  0  0  0  0  0  0  0  0
   -0.9730   20.2320  -29.5240 C   0  0  0  0  0  0  0  0  0  0  0  0
   -0.8190   21.1210  -30.5930 C   0  0  0  0  0  0  0  0  0  0  0  0
   -1.2680   22.4410  -30.4900 C   0  0  0  0  0  0  0  0  0  0  0  0
   -1.8730   22.8890  -29.3100 C   0  0  0  0  0  0  0  0  0  0  0  0
   -2.4180   24.5580  -29.1790 S   0  0  0  0  0  0  0  0  0  0  0  0
   -1.2490   25.5040  -29.2360 O   0  0  0  0  0  0  0  0  0  0  0  0
   -3.1260   24.7360  -27.8660 O   0  0  0  0  0  0  0  0  0  0  0  0
   -3.5110   24.9310  -30.4710 N   0  0  0  0  0  0  0  0  0  0  0  0
   -4.7130   24.2080  -30.7710 C   0  0  0  0  0  0  0  0  0  0  0  0
   -5.9770   24.8160  -30.7390 C   0  0  0  0  0  0  0  0  0  0  0  0
   -7.1190   24.0810  -31.0580 C   0  0  0  0  0  0  0  0  0  0  0  0
   -7.0250   22.7280  -31.4190 C   0  0  0  0  0  0  0  0  0  0  0  0
   -8.2900   21.9740  -31.7420 C   0  0  0  0  0  0  0  0  0  0  0  0
   -5.7550   22.1010  -31.4260 C   0  0  0  0  0  0  0  0  0  0  0  0
   -5.5630   20.3840  -31.8260 S   0  0  0  0  0  0  0  0  0  0  0  0
   -4.4670   19.8130  -30.9690 O   0  0  0  0  0  0  0  0  0  0  0  0
   -6.8380   19.6440  -31.5290 O   0  0  0  0  0  0  0  0  0  0  0  0
   -5.1600   20.2170  -33.5220 N   0  0  0  0  0  0  0  0  0  0  0  0
   -3.7650   19.7840  -33.7120 C   0  0  0  0  0  0  0  0  0  0  0  0
   -3.5670   18.2820  -33.3940 C   0  0  0  0  0  0  0  0  0  0  0  0
   -4.7740   17.5410  -33.3720 O   0  0  0  0  0  0  0  0  0  0  0  0
   -5.5990   17.9230  -34.4500 C   0  0  0  0  0  0  0  0  0  0  0  0
   -6.1250   19.3540  -34.2380 C   0  0  0  0  0  0  0  0  0  0  0  0
   -4.6140   22.8550  -31.1100 C   0  0  0  0  0  0  0  0  0  0  0  0
   -2.0360   22.0030  -28.2370 C   0  0  0  0  0  0  0  0  0  0  0  0
   -1.5900   20.6830  -28.3400 C   0  0  0  0  0  0  0  0  0  0  0  0
    0.5849   17.4954  -30.7101 H   0  0  0  0  0  0  0  0  0  0  0  0
   -0.9477   18.0217  -31.4853 H   0  0  0  0  0  0  0  0  0  0  0  0
    0.4796   19.1124  -31.4853 H   0  0  0  0  0  0  0  0  0  0  0  0
   -0.3406   20.7786  -31.5225 H   0  0  0  0  0  0  0  0  0  0  0  0
   -1.1454   23.1296  -31.3390 H   0  0  0  0  0  0  0  0  0  0  0  0
   -6.0679   25.8765  -30.4613 H   0  0  0  0  0  0  0  0  0  0  0  0
   -8.1050   24.5677  -31.0262 H   0  0  0  0  0  0  0  0  0  0  0  0
   -8.7885   21.6769  -30.8075 H   0  0  0  0  0  0  0  0  0  0  0  0
   -8.9621   22.6190  -32.3271 H   0  0  0  0  0  0  0  0  0  0  0  0
   -8.0424   21.0760  -32.3271 H   0  0  0  0  0  0  0  0  0  0  0  0
   -3.4780   19.9648  -34.7584 H   0  0  0  0  0  0  0  0  0  0  0  0
   -3.1364   20.3605  -33.0174 H   0  0  0  0  0  0  0  0  0  0  0  0
   -2.9074   17.8487  -34.1603 H   0  0  0  0  0  0  0  0  0  0  0  0
   -3.1339   18.2213  -32.3847 H   0  0  0  0  0  0  0  0  0  0  0  0
   -5.0180   17.8843  -35.3833 H   0  0  0  0  0  0  0  0  0  0  0  0
   -6.4532   17.2325  -34.5095 H   0  0  0  0  0  0  0  0  0  0  0  0
   -6.3349   19.8010  -35.2209 H   0  0  0  0  0  0  0  0  0  0  0  0
   -7.0323   19.2862  -33.6198 H   0  0  0  0  0  0  0  0  0  0  0  0
   -3.6252   22.3734  -31.1294 H   0  0  0  0  0  0  0  0  0  0  0  0
   -2.5170   22.3480  -27.3098 H   0  0  0  0  0  0  0  0  0  0  0  0
   -1.7210   19.9929  -27.4935 H   0  0  0  0  0  0  0  0  0  0  0  0
  1  2  1  0
  2  3  1  0
  3  4  2  0
  4  5  1  0
  5  6  2  0
  6  7  1  0
  7  8  2  0
  7  9  2  0
  7 10  1  0
 10 11  1  0
 11 12  2  0
 12 13  1  0
 13 14  2  0
 14 15  1  0
 14 16  1  0
 16 17  1  0
 17 18  2  0
 17 19  2  0
 17 20  1  0
 20 21  1  0
 21 22  1  0
 22 23  1  0
 23 24  1  0
 24 25  1  0
 16 26  2  0
  6 27  1  0
 27 28  2  0
 28  3  1  0
 26 11  1  0
 25 20  1  0
  1 29  1  0
  1 30  1  0
  1 31  1  0
  4 32  1  0
  5 33  1  0
 12 34  1  0
 13 35  1  0
 15 36  1  0
 15 37  1  0
 15 38  1  0
 21 39  1  0
 21 40  1  0
 22 41  1  0
 22 42  1  0
 24 43  1  0
 24 44  1  0
 25 45  1  0
 25 46  1  0
 26 47  1  0
 27 48  1  0
 28 49  1  0
M  CHG  1  10  -1
M  END
>  <UniqueID>  (19) 
19

>  <SMILES>  (19) 
COc1ccc(S(=O)(=O)[N-]c2ccc(C)c(S(=O)(=O)N3CCOCC3)c2)cc1

>  <Energy>  (19) 
64.33849719494899

>  <Genealogy>  (19) 
COc1ccc(S(=O)(=O)[N-]c2ccc(C)c(S(=O)(=O)N3CCOCC3)c2)cc1 (protonated)
COc1ccc(S(=O)(=O)[N-]c2ccc(C)c(S(=O)(=O)N3CCOCC3)c2)cc1 (3D coordinates assigned)
COc1ccc(S(=O)(=O)[N-]c2ccc(C)c(S(=O)(=O)N3CCOCC3)c2)cc1 (nonaromatic ring conformer: 64.33849719494899 kcal/mol)

>  <smiles>  (19) 
COc1ccc(S(=O)(=O)Nc2ccc(C)c(S(=O)(=O)N3CCOCC3)c2)cc1

>  <score_type>  (19) 
oracle

>  <origin>  (19) 
adgpu

>  <m_score__min__energy>  (19) 
-10.34

>  <m_primary>  (19) 
energy

$$$$
19:0
     RDKit          3D

 48 51  0  0  0  0  0  0  0  0999 V2000
   -9.3870   22.5180  -31.9100 C   0  0  0  0  0  0  0  0  0  0  0  0
   -9.7010   21.1300  -31.9650 O   0  0  0  0  0  0  0  0  0  0  0  0
   -8.7630   20.1150  -32.2050 C   0  0  0  0  0  0  0  0  0  0  0  0
   -8.9860   18.7770  -31.8290 C   0  0  0  0  0  0  0  0  0  0  0  0
   -8.0230   17.8010  -32.0940 C   0  0  0  0  0  0  0  0  0  0  0  0
   -6.8310   18.1470  -32.7340 C   0  0  0  0  0  0  0  0  0  0  0  0
   -6.5910   19.4780  -33.1090 C   0  0  0  0  0  0  0  0  0  0  0  0
   -5.3180   19.8380  -33.8250 C   0  0  0  0  0  0  0  0  0  0  0  0
   -4.5580   20.8110  -33.0440 N   0  0  0  0  0  0  0  0  0  0  0  0
   -3.3470   20.4600  -32.3530 C   0  0  0  0  0  0  0  0  0  0  0  0
   -2.7890   19.3560  -32.5970 O   0  0  0  0  0  0  0  0  0  0  0  0
   -2.7330   21.3830  -31.3700 C   0  0  0  0  0  0  0  0  0  0  0  0
   -1.3530   21.6560  -31.3950 C   0  0  0  0  0  0  0  0  0  0  0  0
   -0.7840   22.5350  -30.4690 C   0  0  0  0  0  0  0  0  0  0  0  0
   -1.5880   23.1640  -29.5030 C   0  0  0  0  0  0  0  0  0  0  0  0
   -1.0640   24.0560  -28.5520 C   0  0  0  0  0  0  0  0  0  0  0  0
    0.1720   24.3220  -28.5510 O   0  0  0  0  0  0  0  0  0  0  0  0
   -1.8950   24.6460  -27.6320 N   0  0  0  0  0  0  0  0  0  0  0  0
   -1.3550   25.5580  -26.6550 C   0  0  0  0  0  0  0  0  0  0  0  0
   -1.3300   25.2000  -25.2970 C   0  0  0  0  0  0  0  0  0  0  0  0
   -0.8090   26.0820  -24.3450 C   0  0  0  0  0  0  0  0  0  0  0  0
   -0.3080   27.3240  -24.7430 C   0  0  0  0  0  0  0  0  0  0  0  0
   -0.3260   27.6860  -26.0930 C   0  0  0  0  0  0  0  0  0  0  0  0
   -0.8470   26.8080  -27.0490 C   0  0  0  0  0  0  0  0  0  0  0  0
   -0.8450   27.1650  -28.3580 F   0  0  0  0  0  0  0  0  0  0  0  0
   -3.2370   24.3650  -27.6380 C   0  0  0  0  0  0  0  0  0  0  0  0
   -4.0080   24.8890  -26.7890 O   0  0  0  0  0  0  0  0  0  0  0  0
   -3.7530   23.5070  -28.5540 N   0  0  0  0  0  0  0  0  0  0  0  0
   -2.9700   22.9040  -29.4800 C   0  0  0  0  0  0  0  0  0  0  0  0
   -3.5360   22.0230  -30.4090 C   0  0  0  0  0  0  0  0  0  0  0  0
   -7.5650   20.4540  -32.8460 C   0  0  0  0  0  0  0  0  0  0  0  0
   -9.3150   22.8363  -30.8595 H   0  0  0  0  0  0  0  0  0  0  0  0
   -8.4257   22.6967  -32.4140 H   0  0  0  0  0  0  0  0  0  0  0  0
  -10.1777   23.0931  -32.4140 H   0  0  0  0  0  0  0  0  0  0  0  0
   -9.9229   18.4990  -31.3242 H   0  0  0  0  0  0  0  0  0  0  0  0
   -8.2038   16.7571  -31.7979 H   0  0  0  0  0  0  0  0  0  0  0  0
   -6.0776   17.3737  -32.9449 H   0  0  0  0  0  0  0  0  0  0  0  0
   -4.7113   18.9313  -33.9656 H   0  0  0  0  0  0  0  0  0  0  0  0
   -5.5676   20.2779  -34.8018 H   0  0  0  0  0  0  0  0  0  0  0  0
   -4.8960   21.7990  -33.0320 H   0  0  0  0  0  0  0  0  0  0  0  0
   -0.7158   21.1731  -32.1505 H   0  0  0  0  0  0  0  0  0  0  0  0
    0.2973   22.7352  -30.4965 H   0  0  0  0  0  0  0  0  0  0  0  0
   -1.7218   24.2219  -24.9811 H   0  0  0  0  0  0  0  0  0  0  0  0
   -0.7936   25.7978  -23.2825 H   0  0  0  0  0  0  0  0  0  0  0  0
    0.1009   28.0175  -23.9934 H   0  0  0  0  0  0  0  0  0  0  0  0
    0.0705   28.6637  -26.4043 H   0  0  0  0  0  0  0  0  0  0  0  0
   -4.6186   21.8295  -30.3872 H   0  0  0  0  0  0  0  0  0  0  0  0
   -7.3852   21.4967  -33.1468 H   0  0  0  0  0  0  0  0  0  0  0  0
  1  2  1  0
  2  3  1  0
  3  4  2  0
  4  5  1  0
  5  6  2  0
  6  7  1  0
  7  8  1  0
  8  9  1  0
  9 10  1  0
 10 11  2  0
 10 12  1  0
 12 13  2  0
 13 14  1  0
 14 15  2  0
 15 16  1  0
 16 17  2  0
 16 18  1  0
 18 19  1  0
 19 20  2  0
 20 21  1  0
 21 22  2  0
 22 23  1  0
 23 24  2  0
 24 25  1  0
 18 26  1  0
 26 27  2  0
 26 28  1  0
 28 29  1  0
 29 30  2  0
  7 31  2  0
 31  3  1  0
 30 12  1  0
 29 15  1  0
 24 19  1  0
  1 32  1  0
  1 33  1  0
  1 34  1  0
  4 35  1  0
  5 36  1  0
  6 37  1  0
  8 38  1  0
  8 39  1  0
  9 40  1  0
 13 41  1  0
 14 42  1  0
 20 43  1  0
 21 44  1  0
 22 45  1  0
 23 46  1  0
 30 47  1  0
 31 48  1  0
M  CHG  1  28  -1
M  END
>  <UniqueID>  (20) 
20

>  <SMILES>  (20) 
COc1cccc(CNC(=O)c2ccc3c(=O)n(-c4ccccc4F)c(=O)[n-]c3c2)c1

>  <Energy>  (20) 
67.11601178284997

>  <Genealogy>  (20) 
COc1cccc(CNC(=O)c2ccc3c(=O)n(-c4ccccc4F)c(=O)[n-]c3c2)c1 (protonated)
COc1cccc(CNC(=O)c2ccc3c(=O)n(-c4ccccc4F)c(=O)[n-]c3c2)c1 (3D coordinates assigned)
COc1cccc(CNC(=O)c2ccc3c(=O)n(-c4ccccc4F)c(=O)[n-]c3c2)c1 (optimized conformer: 67.11601178284997 kcal/mol)

>  <smiles>  (20) 
COc1cccc(CNC(=O)c2ccc3c(=O)n(-c4ccccc4F)c(=O)[nH]c3c2)c1

>  <score_type>  (20) 
oracle

>  <origin>  (20) 
adgpu

>  <m_score__min__energy>  (20) 
-9.4000000000000004

>  <m_primary>  (20) 
energy

$$$$
20:0
     RDKit          3D

 45 47  0  0  0  0  0  0  0  0999 V2000
   -1.2100   20.0820  -27.6060 C   0  0  0  0  0  0  0  0  0  0  0  0
   -1.6850   21.3530  -28.2530 C   0  0  0  0  0  0  0  0  0  0  0  0
   -2.2730   22.3600  -27.4710 C   0  0  0  0  0  0  0  0  0  0  0  0
   -2.7380   23.5360  -28.0620 C   0  0  0  0  0  0  0  0  0  0  0  0
   -2.6270   23.7230  -29.4500 C   0  0  0  0  0  0  0  0  0  0  0  0
   -3.1010   24.9190  -30.0840 N   0  0  0  0  0  0  0  0  0  0  0  0
   -4.4680   25.1940  -30.4250 C   0  0  0  0  0  0  0  0  0  0  0  0
   -4.8510   26.3930  -30.4700 O   0  0  0  0  0  0  0  0  0  0  0  0
   -5.4110   24.1080  -30.7810 C   0  0  0  0  0  0  0  0  0  0  0  0
   -4.9460   22.9890  -31.4960 C   0  0  0  0  0  0  0  0  0  0  0  0
   -5.8070   21.9300  -31.8050 C   0  0  0  0  0  0  0  0  0  0  0  0
   -5.1950   20.5050  -32.6440 S   0  0  0  0  0  0  0  0  0  0  0  0
   -4.6840   19.5110  -31.6370 O   0  0  0  0  0  0  0  0  0  0  0  0
   -4.0500   20.9220  -33.5250 O   0  0  0  0  0  0  0  0  0  0  0  0
   -6.4790   19.8070  -33.6100 N   0  0  0  0  0  0  0  0  0  0  0  0
   -7.5960   19.3130  -32.7730 C   0  0  0  0  0  0  0  0  0  0  0  0
   -7.5330   17.7940  -32.5300 C   0  0  0  0  0  0  0  0  0  0  0  0
   -6.1930   17.3570  -32.4970 O   0  0  0  0  0  0  0  0  0  0  0  0
   -5.6120   17.4590  -33.7850 C   0  0  0  0  0  0  0  0  0  0  0  0
   -5.9720   18.7700  -34.5250 C   0  0  0  0  0  0  0  0  0  0  0  0
   -7.1490   21.9930  -31.4170 C   0  0  0  0  0  0  0  0  0  0  0  0
   -7.6300   23.1120  -30.7340 C   0  0  0  0  0  0  0  0  0  0  0  0
   -6.7700   24.1710  -30.4100 C   0  0  0  0  0  0  0  0  0  0  0  0
   -7.2580   25.2700  -29.7050 O   0  0  0  0  0  0  0  0  0  0  0  0
   -2.0120   22.7360  -30.2280 C   0  0  0  0  0  0  0  0  0  0  0  0
   -1.5520   21.5510  -29.6420 C   0  0  0  0  0  0  0  0  0  0  0  0
   -0.8210   20.3300  -30.6780 Cl  0  0  0  0  0  0  0  0  0  0  0  0
   -1.2504   20.1901  -26.5121 H   0  0  0  0  0  0  0  0  0  0  0  0
   -1.8573   19.2485  -27.9162 H   0  0  0  0  0  0  0  0  0  0  0  0
   -0.1747   19.8773  -27.9162 H   0  0  0  0  0  0  0  0  0  0  0  0
   -2.3680   22.2211  -26.3839 H   0  0  0  0  0  0  0  0  0  0  0  0
   -3.1932   24.3195  -27.4384 H   0  0  0  0  0  0  0  0  0  0  0  0
   -3.8943   22.9461  -31.8156 H   0  0  0  0  0  0  0  0  0  0  0  0
   -7.5603   19.8262  -31.8007 H   0  0  0  0  0  0  0  0  0  0  0  0
   -8.5317   19.5237  -33.3115 H   0  0  0  0  0  0  0  0  0  0  0  0
   -8.0142   17.5604  -31.5688 H   0  0  0  0  0  0  0  0  0  0  0  0
   -8.0562   17.2794  -33.3494 H   0  0  0  0  0  0  0  0  0  0  0  0
   -4.5183   17.4090  -33.6781 H   0  0  0  0  0  0  0  0  0  0  0  0
   -6.0119   16.6290  -34.3860 H   0  0  0  0  0  0  0  0  0  0  0  0
   -5.0709   19.1515  -35.0276 H   0  0  0  0  0  0  0  0  0  0  0  0
   -6.7685   18.5405  -35.2482 H   0  0  0  0  0  0  0  0  0  0  0  0
   -7.8274   21.1591  -31.6504 H   0  0  0  0  0  0  0  0  0  0  0  0
   -8.6910   23.1630  -30.4482 H   0  0  0  0  0  0  0  0  0  0  0  0
   -6.6380   25.9850  -29.3400 H   0  0  0  0  0  0  0  0  0  0  0  0
   -1.8889   22.8927  -31.3098 H   0  0  0  0  0  0  0  0  0  0  0  0
  1  2  1  0
  2  3  2  0
  3  4  1  0
  4  5  2  0
  5  6  1  0
  6  7  1  0
  7  8  2  0
  7  9  1  0
  9 10  2  0
 10 11  1  0
 11 12  1  0
 12 13  2  0
 12 14  2  0
 12 15  1  0
 15 16  1  0
 16 17  1  0
 17 18  1  0
 18 19  1  0
 19 20  1  0
 11 21  2  0
 21 22  1  0
 22 23  2  0
 23 24  1  0
  5 25  1  0
 25 26  2  0
 26 27  1  0
 26  2  1  0
 23  9  1  0
 20 15  1  0
  1 28  1  0
  1 29  1  0
  1 30  1  0
  3 31  1  0
  4 32  1  0
 10 33  1  0
 16 34  1  0
 16 35  1  0
 17 36  1  0
 17 37  1  0
 19 38  1  0
 19 39  1  0
 20 40  1  0
 20 41  1  0
 21 42  1  0
 22 43  1  0
 24 44  1  0
 25 45  1  0
M  CHG  1   6  -1
M  END
>  <UniqueID>  (21) 
21

>  <SMILES>  (21) 
Cc1ccc([N-]C(=O)c2cc(S(=O)(=O)N3CCOCC3)ccc2O)cc1Cl

>  <Energy>  (21) 
61.35300984513107

>  <Genealogy>  (21) 
Cc1ccc([N-]C(=O)c2cc(S(=O)(=O)N3CCOCC3)ccc2O)cc1Cl (protonated)
Cc1ccc([N-]C(=O)c2cc(S(=O)(=O)N3CCOCC3)ccc2O)cc1Cl (3D coordinates assigned)
Cc1ccc([N-]C(=O)c2cc(S(=O)(=O)N3CCOCC3)ccc2O)cc1Cl (nonaromatic ring conformer: 61.35300984513107 kcal/mol)

>  <smiles>  (21) 
Cc1ccc(NC(=O)c2cc(S(=O)(=O)N3CCOCC3)ccc2O)cc1Cl

>  <score_type>  (21) 
oracle

>  <origin>  (21) 
adgpu

>  <m_score__min__energy>  (21) 
-11.029999999999999

>  <m_primary>  (21) 
energy

$$$$
21:0
     RDKit          3D

 44 46  0  0  0  0  0  0  0  0999 V2000
   -6.1620   17.8470  -31.5880 C   0  0  0  0  0  0  0  0  0  0  0  0
   -6.1400   19.2680  -31.5230 O   0  0  0  0  0  0  0  0  0  0  0  0
   -7.2620   20.0920  -31.7060 C   0  0  0  0  0  0  0  0  0  0  0  0
   -8.5030   19.5760  -32.1340 C   0  0  0  0  0  0  0  0  0  0  0  0
   -9.6050   20.4210  -32.2830 C   0  0  0  0  0  0  0  0  0  0  0  0
   -9.4880   21.7830  -32.0040 C   0  0  0  0  0  0  0  0  0  0  0  0
   -8.2640   22.3080  -31.5830 C   0  0  0  0  0  0  0  0  0  0  0  0
   -7.1460   21.4710  -31.4430 C   0  0  0  0  0  0  0  0  0  0  0  0
   -5.8590   22.0500  -31.0000 C   0  0  0  0  0  0  0  0  0  0  0  0
   -5.8170   22.7460  -29.7840 C   0  0  0  0  0  0  0  0  0  0  0  0
   -4.6190   23.2880  -29.3160 C   0  0  0  0  0  0  0  0  0  0  0  0
   -3.4390   23.1540  -30.0660 C   0  0  0  0  0  0  0  0  0  0  0  0
   -2.1870   23.6790  -29.5890 N   0  0  0  0  0  0  0  0  0  0  0  0
   -1.5760   23.2890  -28.3470 C   0  0  0  0  0  0  0  0  0  0  0  0
   -1.4210   21.9220  -28.0570 C   0  0  0  0  0  0  0  0  0  0  0  0
   -0.9100   21.5100  -26.8260 C   0  0  0  0  0  0  0  0  0  0  0  0
   -0.5620   22.4560  -25.8630 C   0  0  0  0  0  0  0  0  0  0  0  0
   -0.7170   23.8180  -26.1310 C   0  0  0  0  0  0  0  0  0  0  0  0
   -1.2190   24.2560  -27.3720 C   0  0  0  0  0  0  0  0  0  0  0  0
   -1.3190   25.7150  -27.6310 C   0  0  0  0  0  0  0  0  0  0  0  0
   -1.2220   26.2170  -28.9630 N   0  0  0  0  0  0  0  0  0  0  0  0
   -1.5180   26.5250  -26.6870 O   0  0  0  0  0  0  0  0  0  0  0  0
   -3.4760   22.4550  -31.2810 C   0  0  0  0  0  0  0  0  0  0  0  0
   -4.6790   21.9210  -31.7710 C   0  0  0  0  0  0  0  0  0  0  0  0
   -4.6730   21.1960  -33.0920 C   0  0  0  0  0  0  0  0  0  0  0  0
   -6.1684   17.4334  -30.5687 H   0  0  0  0  0  0  0  0  0  0  0  0
   -7.0653   17.5184  -32.1228 H   0  0  0  0  0  0  0  0  0  0  0  0
   -5.2693   17.4905  -32.1228 H   0  0  0  0  0  0  0  0  0  0  0  0
   -8.6034   18.5024  -32.3516 H   0  0  0  0  0  0  0  0  0  0  0  0
  -10.5682   20.0114  -32.6214 H   0  0  0  0  0  0  0  0  0  0  0  0
  -10.3603   22.4438  -32.1157 H   0  0  0  0  0  0  0  0  0  0  0  0
   -8.1759   23.3816  -31.3603 H   0  0  0  0  0  0  0  0  0  0  0  0
   -6.7369   22.8662  -29.1930 H   0  0  0  0  0  0  0  0  0  0  0  0
   -4.5988   23.8228  -28.3550 H   0  0  0  0  0  0  0  0  0  0  0  0
   -1.7190   24.4290  -30.1470 H   0  0  0  0  0  0  0  0  0  0  0  0
   -1.7054   21.1702  -28.8079 H   0  0  0  0  0  0  0  0  0  0  0  0
   -0.7816   20.4381  -26.6151 H   0  0  0  0  0  0  0  0  0  0  0  0
   -0.1648   22.1293  -24.8906 H   0  0  0  0  0  0  0  0  0  0  0  0
   -0.4438   24.5574  -25.3638 H   0  0  0  0  0  0  0  0  0  0  0  0
   -1.6090   25.6780  -29.7700 H   0  0  0  0  0  0  0  0  0  0  0  0
   -2.5493   22.3230  -31.8588 H   0  0  0  0  0  0  0  0  0  0  0  0
   -4.6640   20.1105  -32.9144 H   0  0  0  0  0  0  0  0  0  0  0  0
   -5.5734   21.4667  -33.6629 H   0  0  0  0  0  0  0  0  0  0  0  0
   -3.7772   21.4816  -33.6629 H   0  0  0  0  0  0  0  0  0  0  0  0
  1  2  1  0
  2  3  1  0
  3  4  2  0
  4  5  1  0
  5  6  2  0
  6  7  1  0
  7  8  2  0
  8  9  1  0
  9 10  2  0
 10 11  1  0
 11 12  2  0
 12 13  1  0
 13 14  1  0
 14 15  2  0
 15 16  1  0
 16 17  2  0
 17 18  1  0
 18 19  2  0
 19 20  1  0
 20 21  1  0
 20 22  2  0
 12 23  1  0
 23 24  2  0
 24 25  1  0
  8  3  1  0
 24  9  1  0
 19 14  1  0
  1 26  1  0
  1 27  1  0
  1 28  1  0
  4 29  1  0
  5 30  1  0
  6 31  1  0
  7 32  1  0
 10 33  1  0
 11 34  1  0
 13 35  1  0
 15 36  1  0
 16 37  1  0
 17 38  1  0
 18 39  1  0
 21 40  1  0
 23 41  1  0
 25 42  1  0
 25 43  1  0
 25 44  1  0
M  CHG  1  21  -1
M  END
>  <UniqueID>  (22) 
22

>  <SMILES>  (22) 
COc1ccccc1-c1ccc(Nc2ccccc2C([NH-])=O)cc1C

>  <Energy>  (22) 
62.65493729203244

>  <Genealogy>  (22) 
COc1ccccc1-c1ccc(Nc2ccccc2C([NH-])=O)cc1C (protonated)
COc1ccccc1-c1ccc(Nc2ccccc2C([NH-])=O)cc1C (3D coordinates assigned)
COc1ccccc1-c1ccc(Nc2ccccc2C([NH-])=O)cc1C (optimized conformer: 62.65493729203244 kcal/mol)

>  <smiles>  (22) 
COc1ccccc1-c1ccc(Nc2ccccc2C(N)=O)cc1C

>  <score_type>  (22) 
oracle

>  <origin>  (22) 
adgpu

>  <m_score__min__energy>  (22) 
-10.470000000000001

>  <m_primary>  (22) 
energy

$$$$
22:0
     RDKit          3D

 29 30  0  0  0  0  0  0  0  0999 V2000
   -4.8290   24.5230  -28.4870 N   0  0  0  0  0  0  0  0  0  0  0  0
   -5.1670   24.9540  -30.1280 S   0  0  0  0  0  0  0  0  0  0  0  0
   -3.8740   25.2890  -30.8190 O   0  0  0  0  0  0  0  0  0  0  0  0
   -6.0720   26.1540  -30.1560 O   0  0  0  0  0  0  0  0  0  0  0  0
   -5.9540   23.6110  -30.9480 C   0  0  0  0  0  0  0  0  0  0  0  0
   -5.2150   22.7570  -31.7770 C   0  0  0  0  0  0  0  0  0  0  0  0
   -5.8450   21.6960  -32.4370 C   0  0  0  0  0  0  0  0  0  0  0  0
   -7.2290   21.4930  -32.2890 C   0  0  0  0  0  0  0  0  0  0  0  0
   -7.9090   20.4150  -32.9490 N   0  0  0  0  0  0  0  0  0  0  0  0
   -8.2790   19.1610  -32.3600 C   0  0  0  0  0  0  0  0  0  0  0  0
   -9.4640   18.9960  -31.9720 O   0  0  0  0  0  0  0  0  0  0  0  0
   -7.3300   18.0990  -32.1730 N   0  0  0  0  0  0  0  0  0  0  0  0
   -6.3290   17.7860  -32.9480 C   0  0  0  0  0  0  0  0  0  0  0  0
   -6.1100   18.3960  -34.2010 C   0  0  0  0  0  0  0  0  0  0  0  0
   -5.0450   18.0150  -34.9540 N   0  0  0  0  0  0  0  0  0  0  0  0
   -4.1890   17.0500  -34.5290 C   0  0  0  0  0  0  0  0  0  0  0  0
   -4.4120   16.4290  -33.3020 C   0  0  0  0  0  0  0  0  0  0  0  0
   -5.4750   16.8070  -32.5460 N   0  0  0  0  0  0  0  0  0  0  0  0
   -7.9590   22.3360  -31.4430 C   0  0  0  0  0  0  0  0  0  0  0  0
   -7.3290   23.3950  -30.7840 C   0  0  0  0  0  0  0  0  0  0  0  0
   -5.7160   24.1530  -28.0790 H   0  0  0  0  0  0  0  0  0  0  0  0
   -4.6080   25.4080  -27.9780 H   0  0  0  0  0  0  0  0  0  0  0  0
   -4.1354   22.9211  -31.9096 H   0  0  0  0  0  0  0  0  0  0  0  0
   -5.2563   21.0189  -33.0733 H   0  0  0  0  0  0  0  0  0  0  0  0
   -6.7963   19.1744  -34.5658 H   0  0  0  0  0  0  0  0  0  0  0  0
   -3.3270   16.7612  -35.1483 H   0  0  0  0  0  0  0  0  0  0  0  0
   -3.7328   15.6392  -32.9485 H   0  0  0  0  0  0  0  0  0  0  0  0
   -9.0354   22.1638  -31.2960 H   0  0  0  0  0  0  0  0  0  0  0  0
   -7.9146   24.0617  -30.1340 H   0  0  0  0  0  0  0  0  0  0  0  0
  1  2  1  0
  2  3  2  0
  2  4  2  0
  2  5  1  0
  5  6  2  0
  6  7  1  0
  7  8  2  0
  8  9  1  0
  9 10  1  0
 10 11  2  0
 10 12  1  0
 12 13  2  3
 13 14  1  0
 14 15  2  0
 15 16  1  0
 16 17  2  0
 17 18  1  0
  8 19  1  0
 19 20  2  0
 20  5  1  0
 18 13  1  0
  1 21  1  0
  1 22  1  0
  6 23  1  0
  7 24  1  0
 14 25  1  0
 16 26  1  0
 17 27  1  0
 19 28  1  0
 20 29  1  0
M  CHG  2   9  -1  18  -1
M  END
>  <UniqueID>  (23) 
23

>  <SMILES>  (23) 
NS(=O)(=O)c1ccc([N-]C(=O)N=c2cncc[n-]2)cc1

>  <Energy>  (23) 
41.677504478846835

>  <Genealogy>  (23) 
NS(=O)(=O)c1ccc([N-]C(=O)N=c2cncc[n-]2)cc1 (protonated)
NS(=O)(=O)c1ccc([N-]C(=O)N=c2cncc[n-]2)cc1 (3D coordinates assigned)
NS(=O)(=O)c1ccc([N-]C(=O)N=c2cncc[n-]2)cc1 (optimized conformer: 41.677504478846835 kcal/mol)

>  <smiles>  (23) 
NS(=O)(=O)c1ccc(NC(=O)N=c2cncc[nH]2)cc1

>  <score_type>  (23) 
oracle

>  <origin>  (23) 
adgpu

>  <m_score__min__energy>  (23) 
-9.6999999999999993

>  <m_primary>  (23) 
energy

$$$$
23:0
     RDKit          3D

 46 48  0  0  0  0  0  0  0  0999 V2000
   -0.8636   24.7387  -24.6211 H   0  0  0  0  0  0  0  0  0  0  0  0
   -0.7760   24.3000  -25.6260 C   0  0  0  0  0  0  0  0  0  0  0  0
   -1.4880   24.8540  -26.6950 C   0  0  0  0  0  0  0  0  0  0  0  0
   -2.1495   25.7161  -26.5243 H   0  0  0  0  0  0  0  0  0  0  0  0
   -1.3620   24.3150  -27.9830 C   0  0  0  0  0  0  0  0  0  0  0  0
   -2.1480   24.8660  -29.0520 N   0  0  0  0  0  0  0  0  0  0  0  0
   -3.3790   24.5710  -29.3710 C   0  0  0  0  0  0  0  0  0  0  0  0
   -4.0880   23.5190  -28.7530 C   0  0  0  0  0  0  0  0  0  0  0  0
   -3.6117   22.9202  -27.9627 H   0  0  0  0  0  0  0  0  0  0  0  0
   -5.3960   23.2430  -29.1500 C   0  0  0  0  0  0  0  0  0  0  0  0
   -5.9556   22.4287  -28.6664 H   0  0  0  0  0  0  0  0  0  0  0  0
   -5.9990   23.9990  -30.1620 C   0  0  0  0  0  0  0  0  0  0  0  0
   -7.3930   23.6880  -30.6370 C   0  0  0  0  0  0  0  0  0  0  0  0
   -7.8283   24.5857  -31.1002 H   0  0  0  0  0  0  0  0  0  0  0  0
   -8.0049   23.3760  -29.7778 H   0  0  0  0  0  0  0  0  0  0  0  0
   -7.3590   22.5940  -31.6290 N   0  0  0  0  0  0  0  0  0  0  0  0
   -8.7280   22.2330  -32.0320 C   0  0  0  0  0  0  0  0  0  0  0  0
   -9.3435   22.0707  -31.1349 H   0  0  0  0  0  0  0  0  0  0  0  0
   -9.1607   23.0477  -32.6311 H   0  0  0  0  0  0  0  0  0  0  0  0
   -8.7027   21.3108  -32.6311 H   0  0  0  0  0  0  0  0  0  0  0  0
   -6.6490   21.4120  -31.0930 C   0  0  0  0  0  0  0  0  0  0  0  0
   -7.2928   20.9030  -30.3606 H   0  0  0  0  0  0  0  0  0  0  0  0
   -5.7175   21.7422  -30.6100 H   0  0  0  0  0  0  0  0  0  0  0  0
   -6.3130   20.4600  -32.2030 C   0  0  0  0  0  0  0  0  0  0  0  0
   -5.2190   20.4970  -33.0480 C   0  0  0  0  0  0  0  0  0  0  0  0
   -4.1320   21.5210  -33.0530 C   0  0  0  0  0  0  0  0  0  0  0  0
   -3.8626   21.7748  -32.0171 H   0  0  0  0  0  0  0  0  0  0  0  0
   -3.2505   21.1175  -33.5728 H   0  0  0  0  0  0  0  0  0  0  0  0
   -4.4822   22.4250  -33.5728 H   0  0  0  0  0  0  0  0  0  0  0  0
   -5.3110   19.4920  -33.9410 N   0  0  0  0  0  0  0  0  0  0  0  0
   -6.4050   18.8390  -33.6710 O   0  0  0  0  0  0  0  0  0  0  0  0
   -7.0380   19.3720  -32.6500 C   0  0  0  0  0  0  0  0  0  0  0  0
   -8.3260   18.8590  -32.0970 C   0  0  0  0  0  0  0  0  0  0  0  0
   -8.2854   18.8752  -30.9979 H   0  0  0  0  0  0  0  0  0  0  0  0
   -9.1532   19.4963  -32.4428 H   0  0  0  0  0  0  0  0  0  0  0  0
   -8.4885   17.8275  -32.4428 H   0  0  0  0  0  0  0  0  0  0  0  0
   -5.2590   25.0220  -30.7660 C   0  0  0  0  0  0  0  0  0  0  0  0
   -5.7124   25.6230  -31.5680 H   0  0  0  0  0  0  0  0  0  0  0  0
   -3.9830   25.2790  -30.3690 N   0  0  0  0  0  0  0  0  0  0  0  0
   -3.4590   26.0480  -30.8460 H   0  0  0  0  0  0  0  0  0  0  0  0
   -0.5620   23.1760  -28.1780 C   0  0  0  0  0  0  0  0  0  0  0  0
   -0.4956   22.7171  -29.1755 H   0  0  0  0  0  0  0  0  0  0  0  0
    0.1500   22.6240  -27.1080 C   0  0  0  0  0  0  0  0  0  0  0  0
    0.7912   21.7449  -27.2694 H   0  0  0  0  0  0  0  0  0  0  0  0
    0.0470   23.1890  -25.8340 C   0  0  0  0  0  0  0  0  0  0  0  0
    0.7340   22.6520  -24.7960 F   0  0  0  0  0  0  0  0  0  0  0  0
  1  2  1  0
  2  3  2  0
  3  4  1  0
  3  5  1  0
  5  6  1  0
  6  7  2  0
  7  8  1  0
  8  9  1  0
  8 10  2  0
 10 11  1  0
 10 12  1  0
 12 13  1  0
 13 14  1  0
 13 15  1  0
 13 16  1  0
 16 17  1  0
 17 18  1  0
 17 19  1  0
 17 20  1  0
 16 21  1  0
 21 22  1  0
 21 23  1  0
 21 24  1  0
 24 25  1  0
 25 26  1  0
 26 27  1  0
 26 28  1  0
 26 29  1  0
 25 30  2  0
 30 31  1  0
 31 32  1  0
 32 33  1  0
 33 34  1  0
 33 35  1  0
 33 36  1  0
 12 37  2  0
 37 38  1  0
 37 39  1  0
 39 40  1  0
  5 41  2  0
 41 42  1  0
 41 43  1  0
 43 44  1  0
 43 45  2  0
 45 46  1  0
 45  2  1  0
 39  7  1  0
 32 24  2  0
M  END
>  <UniqueID>  (24) 
24

>  <SMILES>  (24) 
Cc1noc(C)c1CN(C)Cc1cc/c(=N\c2ccc(F)cc2)[nH]c1

>  <Energy>  (24) 
84.50940695575923

>  <Genealogy>  (24) 
Cc1noc(C)c1CN(C)Cc1cc/c(=N\c2ccc(F)cc2)[nH]c1 (cis-trans isomerization)
Cc1noc(C)c1CN(C)Cc1cc/c(=N\c2ccc(F)cc2)[nH]c1 (3D coordinates assigned)
Cc1noc(C)c1CN(C)Cc1cc/c(=N\c2ccc(F)cc2)[nH]c1 (optimized conformer: 84.50940695575923 kcal/mol)

>  <smiles>  (24) 
Cc1noc(C)c1CN(C)Cc1ccc(=Nc2ccc(F)cc2)[nH]c1

>  <score_type>  (24) 
oracle

>  <origin>  (24) 
adgpu

>  <m_score__min__energy>  (24) 
-9.3900000000000006

>  <m_primary>  (24) 
energy

$$$$
24:0
     RDKit          3D

 44 46  0  0  0  0  0  0  0  0999 V2000
   -4.1610   23.8070  -28.4190 O   0  0  0  0  0  0  0  0  0  0  0  0
   -2.9630   24.1370  -28.6380 C   0  0  0  0  0  0  0  0  0  0  0  0
   -2.3430   23.7860  -29.8870 N   0  0  0  0  0  0  0  0  0  0  0  0
   -2.7970   22.7150  -30.7310 C   0  0  0  0  0  0  0  0  0  0  0  0
   -1.8880   21.7280  -31.1410 C   0  0  0  0  0  0  0  0  0  0  0  0
   -2.3100   20.6720  -31.9530 C   0  0  0  0  0  0  0  0  0  0  0  0
   -3.6450   20.5810  -32.3500 C   0  0  0  0  0  0  0  0  0  0  0  0
   -4.5720   21.5440  -31.9250 C   0  0  0  0  0  0  0  0  0  0  0  0
   -6.2600   21.4480  -32.4220 S   0  0  0  0  0  0  0  0  0  0  0  0
   -6.8300   22.8310  -32.5680 O   0  0  0  0  0  0  0  0  0  0  0  0
   -6.3190   20.7690  -33.7620 O   0  0  0  0  0  0  0  0  0  0  0  0
   -7.1920   20.5220  -31.2640 N   0  0  0  0  0  0  0  0  0  0  0  0
   -8.4760   21.1730  -30.9360 C   0  0  0  0  0  0  0  0  0  0  0  0
   -9.5090   21.0630  -32.0720 C   0  0  0  0  0  0  0  0  0  0  0  0
   -9.4950   19.6940  -32.7730 C   0  0  0  0  0  0  0  0  0  0  0  0
   -8.7500   18.6400  -31.9530 C   0  0  0  0  0  0  0  0  0  0  0  0
   -7.3090   19.0960  -31.6620 C   0  0  0  0  0  0  0  0  0  0  0  0
   -4.1460   22.6060  -31.1150 C   0  0  0  0  0  0  0  0  0  0  0  0
   -2.2380   24.9490  -27.6330 C   0  0  0  0  0  0  0  0  0  0  0  0
   -2.3430   24.6180  -26.2690 C   0  0  0  0  0  0  0  0  0  0  0  0
   -1.6750   25.3730  -25.3010 C   0  0  0  0  0  0  0  0  0  0  0  0
   -0.8890   26.4610  -25.6810 C   0  0  0  0  0  0  0  0  0  0  0  0
   -0.7620   26.7920  -27.0310 C   0  0  0  0  0  0  0  0  0  0  0  0
   -1.4230   26.0400  -28.0100 C   0  0  0  0  0  0  0  0  0  0  0  0
   -1.2380   26.3700  -29.3480 O   0  0  0  0  0  0  0  0  0  0  0  0
   -1.5910   24.4140  -30.2510 H   0  0  0  0  0  0  0  0  0  0  0  0
   -0.8370   21.7858  -30.8214 H   0  0  0  0  0  0  0  0  0  0  0  0
   -1.5876   19.9098  -32.2805 H   0  0  0  0  0  0  0  0  0  0  0  0
   -3.9705   19.7531  -32.9970 H   0  0  0  0  0  0  0  0  0  0  0  0
   -8.8916   20.6965  -30.0359 H   0  0  0  0  0  0  0  0  0  0  0  0
   -8.2733   22.2422  -30.7756 H   0  0  0  0  0  0  0  0  0  0  0  0
  -10.5113   21.2298  -31.6505 H   0  0  0  0  0  0  0  0  0  0  0  0
   -9.2470   21.8194  -32.8265 H   0  0  0  0  0  0  0  0  0  0  0  0
  -10.5325   19.3604  -32.9221 H   0  0  0  0  0  0  0  0  0  0  0  0
   -8.9729   19.8091  -33.7344 H   0  0  0  0  0  0  0  0  0  0  0  0
   -9.2784   18.4832  -31.0010 H   0  0  0  0  0  0  0  0  0  0  0  0
   -8.7152   17.7034  -32.5288 H   0  0  0  0  0  0  0  0  0  0  0  0
   -6.9087   18.4759  -30.8464 H   0  0  0  0  0  0  0  0  0  0  0  0
   -6.7451   18.9815  -32.5995 H   0  0  0  0  0  0  0  0  0  0  0  0
   -4.8722   23.3599  -30.7771 H   0  0  0  0  0  0  0  0  0  0  0  0
   -2.9561   23.7577  -25.9623 H   0  0  0  0  0  0  0  0  0  0  0  0
   -1.7692   25.1088  -24.2374 H   0  0  0  0  0  0  0  0  0  0  0  0
   -0.3694   27.0579  -24.9170 H   0  0  0  0  0  0  0  0  0  0  0  0
   -0.1390   27.6487  -27.3276 H   0  0  0  0  0  0  0  0  0  0  0  0
  1  2  2  0
  2  3  1  0
  3  4  1  0
  4  5  2  0
  5  6  1  0
  6  7  2  0
  7  8  1  0
  8  9  1  0
  9 10  2  0
  9 11  2  0
  9 12  1  0
 12 13  1  0
 13 14  1  0
 14 15  1  0
 15 16  1  0
 16 17  1  0
  8 18  2  0
  2 19  1  0
 19 20  2  0
 20 21  1  0
 21 22  2  0
 22 23  1  0
 23 24  2  0
 24 25  1  0
 18  4  1  0
 24 19  1  0
 17 12  1  0
  3 26  1  0
  5 27  1  0
  6 28  1  0
  7 29  1  0
 13 30  1  0
 13 31  1  0
 14 32  1  0
 14 33  1  0
 15 34  1  0
 15 35  1  0
 16 36  1  0
 16 37  1  0
 17 38  1  0
 17 39  1  0
 18 40  1  0
 20 41  1  0
 21 42  1  0
 22 43  1  0
 23 44  1  0
M  CHG  1  25  -1
M  END
>  <UniqueID>  (25) 
25

>  <SMILES>  (25) 
O=C(Nc1cccc(S(=O)(=O)N2CCCCC2)c1)c1ccccc1[O-]

>  <Energy>  (25) 
59.68028493599578

>  <Genealogy>  (25) 
O=C(Nc1cccc(S(=O)(=O)N2CCCCC2)c1)c1ccccc1[O-] (protonated)
O=C(Nc1cccc(S(=O)(=O)N2CCCCC2)c1)c1ccccc1[O-] (3D coordinates assigned)
O=C(Nc1cccc(S(=O)(=O)N2CCCCC2)c1)c1ccccc1[O-] (nonaromatic ring conformer: 59.68028493599578 kcal/mol)

>  <smiles>  (25) 
O=C(Nc1cccc(S(=O)(=O)N2CCCCC2)c1)c1ccccc1O

>  <score_type>  (25) 
oracle

>  <origin>  (25) 
adgpu

>  <m_score__min__energy>  (25) 
-12.609999999999999

>  <m_primary>  (25) 
energy

$$$$
25:0
     RDKit          3D

 68 71  0  0  0  0  0  0  0  0999 V2000
   -0.4810   19.0350  -27.4210 C   0  0  0  0  0  0  0  0  0  0  0  0
   -0.0780   17.5630  -27.4600 C   0  0  0  0  0  0  0  0  0  0  0  0
    1.5490   17.3610  -28.1980 S   0  0  0  0  0  0  0  0  0  0  0  0
    2.1660   16.1080  -27.6400 O   0  0  0  0  0  0  0  0  0  0  0  0
    2.4050   18.5330  -27.7890 O   0  0  0  0  0  0  0  0  0  0  0  0
    1.5240   17.2240  -29.9540 N   0  0  0  0  0  0  0  0  0  0  0  0
    0.1460   17.1260  -30.4870 C   0  0  0  0  0  0  0  0  0  0  0  0
   -0.4470   18.4610  -30.9960 C   0  0  0  0  0  0  0  0  0  0  0  0
    0.2580   19.6550  -30.4950 N   0  0  0  0  0  0  0  0  0  0  0  0
   -0.4670   20.9030  -30.3270 C   0  0  0  0  0  0  0  0  0  0  0  0
   -1.4980   21.2610  -31.2150 C   0  0  0  0  0  0  0  0  0  0  0  0
   -2.2390   22.4270  -31.0200 C   0  0  0  0  0  0  0  0  0  0  0  0
   -1.9650   23.2860  -29.9480 C   0  0  0  0  0  0  0  0  0  0  0  0
   -2.8610   24.4480  -29.7290 C   0  0  0  0  0  0  0  0  0  0  0  0
   -2.7300   25.1890  -28.7190 O   0  0  0  0  0  0  0  0  0  0  0  0
   -3.9110   24.7110  -30.6630 N   0  0  0  0  0  0  0  0  0  0  0  0
   -5.0010   23.8130  -30.9260 C   0  0  0  0  0  0  0  0  0  0  0  0
   -5.0120   23.1000  -32.1350 C   0  0  0  0  0  0  0  0  0  0  0  0
   -5.9840   22.1230  -32.3730 C   0  0  0  0  0  0  0  0  0  0  0  0
   -6.9510   21.8420  -31.4000 C   0  0  0  0  0  0  0  0  0  0  0  0
   -8.1080   20.5350  -31.6400 S   0  0  0  0  0  0  0  0  0  0  0  0
   -9.0610   20.4950  -30.4760 O   0  0  0  0  0  0  0  0  0  0  0  0
   -8.8850   20.7420  -32.9130 O   0  0  0  0  0  0  0  0  0  0  0  0
   -7.2590   19.0250  -31.7380 N   0  0  0  0  0  0  0  0  0  0  0  0
   -6.5470   18.6960  -32.7740 C   0  0  0  0  0  0  0  0  0  0  0  0
   -6.4050   19.4330  -33.8530 O   0  0  0  0  0  0  0  0  0  0  0  0
   -5.6330   18.8430  -34.7220 N   0  0  0  0  0  0  0  0  0  0  0  0
   -5.2650   17.6640  -34.1780 C   0  0  0  0  0  0  0  0  0  0  0  0
   -4.3580   16.6850  -34.8530 C   0  0  0  0  0  0  0  0  0  0  0  0
   -5.8210   17.5380  -32.9150 C   0  0  0  0  0  0  0  0  0  0  0  0
   -5.6980   16.3890  -31.9620 C   0  0  0  0  0  0  0  0  0  0  0  0
   -6.9570   22.5670  -30.2000 C   0  0  0  0  0  0  0  0  0  0  0  0
   -5.9870   23.5450  -29.9600 C   0  0  0  0  0  0  0  0  0  0  0  0
   -0.9060   22.9600  -29.0610 C   0  0  0  0  0  0  0  0  0  0  0  0
   -0.5730   23.8170  -27.8670 C   0  0  0  0  0  0  0  0  0  0  0  0
   -0.1700   21.7780  -29.2640 C   0  0  0  0  0  0  0  0  0  0  0  0
    1.7300   19.6590  -30.4330 C   0  0  0  0  0  0  0  0  0  0  0  0
    2.3170   18.2620  -30.6370 C   0  0  0  0  0  0  0  0  0  0  0  0
   -0.5708   19.3630  -26.3749 H   0  0  0  0  0  0  0  0  0  0  0  0
    0.2850   19.6385  -27.9300 H   0  0  0  0  0  0  0  0  0  0  0  0
   -1.4476   19.1642  -27.9300 H   0  0  0  0  0  0  0  0  0  0  0  0
   -0.0593   17.1677  -26.4337 H   0  0  0  0  0  0  0  0  0  0  0  0
   -0.8107   17.0147  -28.0703 H   0  0  0  0  0  0  0  0  0  0  0  0
    1.9950   16.3130  -30.1620 H   0  0  0  0  0  0  0  0  0  0  0  0
    0.1525   16.4127  -31.3243 H   0  0  0  0  0  0  0  0  0  0  0  0
   -0.4890   16.8037  -29.6486 H   0  0  0  0  0  0  0  0  0  0  0  0
   -0.3985   18.4653  -32.0949 H   0  0  0  0  0  0  0  0  0  0  0  0
   -1.4791   18.5171  -30.6197 H   0  0  0  0  0  0  0  0  0  0  0  0
   -1.7229   20.6127  -32.0747 H   0  0  0  0  0  0  0  0  0  0  0  0
   -3.0511   22.6756  -31.7191 H   0  0  0  0  0  0  0  0  0  0  0  0
   -4.2509   23.3111  -32.9006 H   0  0  0  0  0  0  0  0  0  0  0  0
   -5.9889   21.5743  -33.3263 H   0  0  0  0  0  0  0  0  0  0  0  0
   -3.8175   16.1016  -34.0930 H   0  0  0  0  0  0  0  0  0  0  0  0
   -4.9535   16.0063  -35.4812 H   0  0  0  0  0  0  0  0  0  0  0  0
   -3.6358   17.2271  -35.4812 H   0  0  0  0  0  0  0  0  0  0  0  0
   -5.7381   16.7638  -30.9286 H   0  0  0  0  0  0  0  0  0  0  0  0
   -6.5258   15.6841  -32.1288 H   0  0  0  0  0  0  0  0  0  0  0  0
   -4.7397   15.8753  -32.1288 H   0  0  0  0  0  0  0  0  0  0  0  0
   -7.7292   22.3653  -29.4430 H   0  0  0  0  0  0  0  0  0  0  0  0
   -5.9952   24.1058  -29.0137 H   0  0  0  0  0  0  0  0  0  0  0  0
   -0.7896   23.2596  -26.9437 H   0  0  0  0  0  0  0  0  0  0  0  0
    0.4940   24.0832  -27.8929 H   0  0  0  0  0  0  0  0  0  0  0  0
   -1.1803   24.7338  -27.8929 H   0  0  0  0  0  0  0  0  0  0  0  0
    0.6543   21.5323  -28.5783 H   0  0  0  0  0  0  0  0  0  0  0  0
    2.1165   20.3246  -31.2189 H   0  0  0  0  0  0  0  0  0  0  0  0
    2.0264   20.0088  -29.4331 H   0  0  0  0  0  0  0  0  0  0  0  0
    2.3395   18.0402  -31.7142 H   0  0  0  0  0  0  0  0  0  0  0  0
    3.3296   18.2532  -30.2074 H   0  0  0  0  0  0  0  0  0  0  0  0
  1  2  1  0
  2  3  1  0
  3  4  2  0
  3  5  2  0
  3  6  1  0
  6  7  1  0
  7  8  1  0
  8  9  1  0
  9 10  1  0
 10 11  2  0
 11 12  1  0
 12 13  2  0
 13 14  1  0
 14 15  2  0
 14 16  1  0
 16 17  1  0
 17 18  2  0
 18 19  1  0
 19 20  2  0
 20 21  1  0
 21 22  2  0
 21 23  2  0
 21 24  1  0
 24 25  2  3
 25 26  1  0
 26 27  1  0
 27 28  1  0
 28 29  1  0
 28 30  2  0
 30 31  1  0
 20 32  1  0
 32 33  2  0
 13 34  1  0
 34 35  1  0
 34 36  2  0
  9 37  1  0
 37 38  1  0
 38  6  1  0
 36 10  1  0
 33 17  1  0
 30 25  1  0
  1 39  1  0
  1 40  1  0
  1 41  1  0
  2 42  1  0
  2 43  1  0
  6 44  1  0
  7 45  1  0
  7 46  1  0
  8 47  1  0
  8 48  1  0
 11 49  1  0
 12 50  1  0
 18 51  1  0
 19 52  1  0
 29 53  1  0
 29 54  1  0
 29 55  1  0
 31 56  1  0
 31 57  1  0
 31 58  1  0
 32 59  1  0
 33 60  1  0
 35 61  1  0
 35 62  1  0
 35 63  1  0
 36 64  1  0
 37 65  1  0
 37 66  1  0
 38 67  1  0
 38 68  1  0
M  CHG  3   6   1  16  -1  27  -1
M  END
>  <UniqueID>  (26) 
26

>  <SMILES>  (26) 
CCS(=O)(=O)[NH+]1CCN(c2ccc(C(=O)[N-]c3ccc(S(=O)(=O)N=c4o[n-]c(C)c4C)cc3)c(C)c2)CC1

>  <Energy>  (26) 
120.66214738758741

>  <Genealogy>  (26) 
CCS(=O)(=O)[NH+]1CCN(c2ccc(C(=O)[N-]c3ccc(S(=O)(=O)N=c4o[n-]c(C)c4C)cc3)c(C)c2)CC1 (protonated)
CCS(=O)(=O)[NH+]1CCN(c2ccc(C(=O)[N-]c3ccc(S(=O)(=O)N=c4o[n-]c(C)c4C)cc3)c(C)c2)CC1 (3D coordinates assigned)
CCS(=O)(=O)[NH+]1CCN(c2ccc(C(=O)[N-]c3ccc(S(=O)(=O)N=c4o[n-]c(C)c4C)cc3)c(C)c2)CC1 (nonaromatic ring conformer: 120.66214738758741 kcal/mol)

>  <smiles>  (26) 
CCS(=O)(=O)N1CCN(c2ccc(C(=O)Nc3ccc(S(=O)(=O)N=c4o[nH]c(C)c4C)cc3)c(C)c2)CC1

>  <score_type>  (26) 
oracle

>  <origin>  (26) 
adgpu

>  <m_score__min__energy>  (26) 
-11.880000000000001

>  <m_primary>  (26) 
energy

$$$$
26:0
     RDKit          3D

 54 57  0  0  0  0  0  0  0  0999 V2000
   -0.8410   25.2980  -29.2430 N   0  0  0  0  0  0  0  0  0  0  0  0
   -1.9740   25.0130  -28.4120 C   0  0  0  0  0  0  0  0  0  0  0  0
   -2.0300   25.5500  -27.1170 C   0  0  0  0  0  0  0  0  0  0  0  0
   -3.1210   25.2820  -26.2880 C   0  0  0  0  0  0  0  0  0  0  0  0
   -4.1600   24.4680  -26.7410 C   0  0  0  0  0  0  0  0  0  0  0  0
   -4.1180   23.9290  -28.0280 C   0  0  0  0  0  0  0  0  0  0  0  0
   -3.0360   24.2120  -28.8840 C   0  0  0  0  0  0  0  0  0  0  0  0
   -2.9650   23.6580  -30.2080 N   0  0  0  0  0  0  0  0  0  0  0  0
   -1.9910   22.7280  -30.7000 C   0  0  0  0  0  0  0  0  0  0  0  0
   -0.8390   22.6770  -30.1900 O   0  0  0  0  0  0  0  0  0  0  0  0
   -2.3700   21.7840  -31.7680 C   0  0  0  0  0  0  0  0  0  0  0  0
   -3.6430   21.1900  -31.7990 C   0  0  0  0  0  0  0  0  0  0  0  0
   -3.9730   20.3160  -32.8410 C   0  0  0  0  0  0  0  0  0  0  0  0
   -5.2840   19.7290  -32.9010 N   0  0  0  0  0  0  0  0  0  0  0  0
   -6.1190   19.6840  -31.6950 C   0  0  0  0  0  0  0  0  0  0  0  0
   -7.2360   20.6860  -31.8080 C   0  0  0  0  0  0  0  0  0  0  0  0
   -6.9740   22.0610  -31.6790 C   0  0  0  0  0  0  0  0  0  0  0  0
   -8.0210   22.9850  -31.7250 C   0  0  0  0  0  0  0  0  0  0  0  0
   -9.3380   22.5420  -31.8870 C   0  0  0  0  0  0  0  0  0  0  0  0
   -9.6080   21.1760  -32.0010 C   0  0  0  0  0  0  0  0  0  0  0  0
   -8.5610   20.2490  -31.9570 C   0  0  0  0  0  0  0  0  0  0  0  0
   -5.8070   19.2410  -34.1800 C   0  0  0  0  0  0  0  0  0  0  0  0
   -5.7320   17.7400  -34.2250 C   0  0  0  0  0  0  0  0  0  0  0  0
   -4.5280   17.0950  -34.5520 C   0  0  0  0  0  0  0  0  0  0  0  0
   -4.4560   15.6990  -34.5570 C   0  0  0  0  0  0  0  0  0  0  0  0
   -5.5810   14.9370  -34.2250 C   0  0  0  0  0  0  0  0  0  0  0  0
   -6.7800   15.5730  -33.8860 C   0  0  0  0  0  0  0  0  0  0  0  0
   -6.8550   16.9690  -33.8820 C   0  0  0  0  0  0  0  0  0  0  0  0
   -3.0290   20.0450  -33.8370 C   0  0  0  0  0  0  0  0  0  0  0  0
   -1.7700   20.6440  -33.7690 C   0  0  0  0  0  0  0  0  0  0  0  0
   -1.4730   21.4910  -32.7490 N   0  0  0  0  0  0  0  0  0  0  0  0
   -0.7260   24.8220  -30.1650 H   0  0  0  0  0  0  0  0  0  0  0  0
   -0.1080   25.9820  -28.9520 H   0  0  0  0  0  0  0  0  0  0  0  0
   -1.2096   26.1858  -26.7527 H   0  0  0  0  0  0  0  0  0  0  0  0
   -3.1616   25.7129  -25.2767 H   0  0  0  0  0  0  0  0  0  0  0  0
   -5.0139   24.2506  -26.0825 H   0  0  0  0  0  0  0  0  0  0  0  0
   -4.9348   23.2794  -28.3756 H   0  0  0  0  0  0  0  0  0  0  0  0
   -4.3759   21.4106  -31.0089 H   0  0  0  0  0  0  0  0  0  0  0  0
   -6.5436   18.6755  -31.5827 H   0  0  0  0  0  0  0  0  0  0  0  0
   -5.5016   19.9272  -30.8177 H   0  0  0  0  0  0  0  0  0  0  0  0
   -5.9403   22.4110  -31.5413 H   0  0  0  0  0  0  0  0  0  0  0  0
   -7.8097   24.0607  -31.6338 H   0  0  0  0  0  0  0  0  0  0  0  0
  -10.1618   23.2699  -31.9247 H   0  0  0  0  0  0  0  0  0  0  0  0
  -10.6444   20.8291  -32.1254 H   0  0  0  0  0  0  0  0  0  0  0  0
   -8.7774   19.1737  -32.0395 H   0  0  0  0  0  0  0  0  0  0  0  0
   -6.8548   19.5572  -34.2899 H   0  0  0  0  0  0  0  0  0  0  0  0
   -5.2044   19.6582  -35.0002 H   0  0  0  0  0  0  0  0  0  0  0  0
   -3.6385   17.6905  -34.8051 H   0  0  0  0  0  0  0  0  0  0  0  0
   -3.5130   15.1988  -34.8225 H   0  0  0  0  0  0  0  0  0  0  0  0
   -5.5230   13.8385  -34.2305 H   0  0  0  0  0  0  0  0  0  0  0  0
   -7.6644   14.9743  -33.6224 H   0  0  0  0  0  0  0  0  0  0  0  0
   -7.7976   17.4659  -33.6090 H   0  0  0  0  0  0  0  0  0  0  0  0
   -3.2765   19.3660  -34.6663 H   0  0  0  0  0  0  0  0  0  0  0  0
   -1.0174   20.4300  -34.5422 H   0  0  0  0  0  0  0  0  0  0  0  0
  1  2  1  0
  2  3  2  0
  3  4  1  0
  4  5  2  0
  5  6  1  0
  6  7  2  0
  7  8  1  0
  8  9  1  0
  9 10  2  0
  9 11  1  0
 11 12  2  0
 12 13  1  0
 13 14  1  0
 14 15  1  0
 15 16  1  0
 16 17  2  0
 17 18  1  0
 18 19  2  0
 19 20  1  0
 20 21  2  0
 14 22  1  0
 22 23  1  0
 23 24  2  0
 24 25  1  0
 25 26  2  0
 26 27  1  0
 27 28  2  0
 13 29  2  0
 29 30  1  0
 30 31  2  0
  7  2  1  0
 31 11  1  0
 21 16  1  0
 28 23  1  0
  1 32  1  0
  1 33  1  0
  3 34  1  0
  4 35  1  0
  5 36  1  0
  6 37  1  0
 12 38  1  0
 15 39  1  0
 15 40  1  0
 17 41  1  0
 18 42  1  0
 19 43  1  0
 20 44  1  0
 21 45  1  0
 22 46  1  0
 22 47  1  0
 24 48  1  0
 25 49  1  0
 26 50  1  0
 27 51  1  0
 28 52  1  0
 29 53  1  0
 30 54  1  0
M  CHG  1   8  -1
M  END
>  <UniqueID>  (27) 
27

>  <SMILES>  (27) 
Nc1ccccc1[N-]C(=O)c1cc(N(Cc2ccccc2)Cc2ccccc2)ccn1

>  <Energy>  (27) 
63.36754418064874

>  <Genealogy>  (27) 
Nc1ccccc1[N-]C(=O)c1cc(N(Cc2ccccc2)Cc2ccccc2)ccn1 (protonated)
Nc1ccccc1[N-]C(=O)c1cc(N(Cc2ccccc2)Cc2ccccc2)ccn1 (3D coordinates assigned)
Nc1ccccc1[N-]C(=O)c1cc(N(Cc2ccccc2)Cc2ccccc2)ccn1 (optimized conformer: 63.36754418064874 kcal/mol)

>  <smiles>  (27) 
Nc1ccccc1NC(=O)c1cc(N(Cc2ccccc2)Cc2ccccc2)ccn1

>  <score_type>  (27) 
oracle

>  <origin>  (27) 
adgpu

>  <m_score__min__energy>  (27) 
-10.75

>  <m_primary>  (27) 
energy

$$$$
27:0
     RDKit          3D

 37 38  0  0  0  0  0  0  0  0999 V2000
   -2.9310   19.8660  -33.6280 C   0  0  0  0  0  0  0  0  0  0  0  0
   -3.7370   18.7850  -34.0820 O   0  0  0  0  0  0  0  0  0  0  0  0
   -3.6060   17.4560  -33.6500 C   0  0  0  0  0  0  0  0  0  0  0  0
   -2.3500   16.9120  -33.3110 C   0  0  0  0  0  0  0  0  0  0  0  0
   -2.2450   15.5950  -32.8610 C   0  0  0  0  0  0  0  0  0  0  0  0
   -3.3850   14.8010  -32.7500 C   0  0  0  0  0  0  0  0  0  0  0  0
   -4.6350   15.3220  -33.0850 C   0  0  0  0  0  0  0  0  0  0  0  0
   -4.7580   16.6450  -33.5360 C   0  0  0  0  0  0  0  0  0  0  0  0
   -6.3860   17.2670  -33.8490 S   0  0  0  0  0  0  0  0  0  0  0  0
   -7.1620   16.2190  -34.5960 O   0  0  0  0  0  0  0  0  0  0  0  0
   -6.3640   18.5250  -34.6690 O   0  0  0  0  0  0  0  0  0  0  0  0
   -7.1690   17.5850  -32.3370 N   0  0  0  0  0  0  0  0  0  0  0  0
   -7.7650   18.8470  -32.0360 C   0  0  0  0  0  0  0  0  0  0  0  0
   -8.5840   18.9350  -31.0850 O   0  0  0  0  0  0  0  0  0  0  0  0
   -7.4420   20.0090  -32.8090 N   0  0  0  0  0  0  0  0  0  0  0  0
   -6.8840   21.2090  -32.2460 C   0  0  0  0  0  0  0  0  0  0  0  0
   -7.7390   22.2630  -31.8970 C   0  0  0  0  0  0  0  0  0  0  0  0
   -7.2220   23.4730  -31.4280 C   0  0  0  0  0  0  0  0  0  0  0  0
   -5.8340   23.6560  -31.3010 C   0  0  0  0  0  0  0  0  0  0  0  0
   -5.2870   24.9440  -30.8150 C   0  0  0  0  0  0  0  0  0  0  0  0
   -3.8800   25.1820  -30.8200 N   0  0  0  0  0  0  0  0  0  0  0  0
   -6.0600   25.8450  -30.3910 O   0  0  0  0  0  0  0  0  0  0  0  0
   -4.9760   22.5990  -31.6490 C   0  0  0  0  0  0  0  0  0  0  0  0
   -5.4940   21.3880  -32.1180 C   0  0  0  0  0  0  0  0  0  0  0  0
   -2.9211   19.8793  -32.5281 H   0  0  0  0  0  0  0  0  0  0  0  0
   -1.9043   19.7404  -34.0024 H   0  0  0  0  0  0  0  0  0  0  0  0
   -3.3444   20.8141  -34.0024 H   0  0  0  0  0  0  0  0  0  0  0  0
   -1.4452   17.5309  -33.4020 H   0  0  0  0  0  0  0  0  0  0  0  0
   -1.2608   15.1830  -32.5935 H   0  0  0  0  0  0  0  0  0  0  0  0
   -3.2991   13.7624  -32.3979 H   0  0  0  0  0  0  0  0  0  0  0  0
   -5.5313   14.6907  -32.9949 H   0  0  0  0  0  0  0  0  0  0  0  0
   -7.4860   19.9190  -33.8490 H   0  0  0  0  0  0  0  0  0  0  0  0
   -8.8274   22.1364  -31.9933 H   0  0  0  0  0  0  0  0  0  0  0  0
   -7.9068   24.2896  -31.1557 H   0  0  0  0  0  0  0  0  0  0  0  0
   -3.4870   26.0640  -31.2190 H   0  0  0  0  0  0  0  0  0  0  0  0
   -3.8876   22.7254  -31.5516 H   0  0  0  0  0  0  0  0  0  0  0  0
   -4.8105   20.5697  -32.3887 H   0  0  0  0  0  0  0  0  0  0  0  0
  1  2  1  0
  2  3  1  0
  3  4  2  0
  4  5  1  0
  5  6  2  0
  6  7  1  0
  7  8  2  0
  8  9  1  0
  9 10  2  0
  9 11  2  0
  9 12  1  0
 12 13  1  0
 13 14  2  0
 13 15  1  0
 15 16  1  0
 16 17  2  0
 17 18  1  0
 18 19  2  0
 19 20  1  0
 20 21  1  0
 20 22  2  0
 19 23  1  0
 23 24  2  0
  8  3  1  0
 24 16  1  0
  1 25  1  0
  1 26  1  0
  1 27  1  0
  4 28  1  0
  5 29  1  0
  6 30  1  0
  7 31  1  0
 15 32  1  0
 17 33  1  0
 18 34  1  0
 21 35  1  0
 23 36  1  0
 24 37  1  0
M  CHG  2  12  -1  21  -1
M  END
>  <UniqueID>  (28) 
28

>  <SMILES>  (28) 
COc1ccccc1S(=O)(=O)[N-]C(=O)Nc1ccc(C([NH-])=O)cc1

>  <Energy>  (28) 
42.11887281911219

>  <Genealogy>  (28) 
COc1ccccc1S(=O)(=O)[N-]C(=O)Nc1ccc(C([NH-])=O)cc1 (protonated)
COc1ccccc1S(=O)(=O)[N-]C(=O)Nc1ccc(C([NH-])=O)cc1 (3D coordinates assigned)
COc1ccccc1S(=O)(=O)[N-]C(=O)Nc1ccc(C([NH-])=O)cc1 (optimized conformer: 42.11887281911219 kcal/mol)

>  <smiles>  (28) 
COc1ccccc1S(=O)(=O)NC(=O)Nc1ccc(C(N)=O)cc1

>  <score_type>  (28) 
oracle

>  <origin>  (28) 
adgpu

>  <m_score__min__energy>  (28) 
-10.33

>  <m_primary>  (28) 
energy

$$$$
28:0
     RDKit          3D

 52 54  0  0  0  0  0  0  0  0999 V2000
   -2.4320   13.4230  -31.7400 C   0  0  0  0  0  0  0  0  0  0  0  0
   -3.9420   13.2170  -31.7290 C   0  0  0  0  0  0  0  0  0  0  0  0
   -4.6450   14.2180  -32.6560 C   0  0  0  0  0  0  0  0  0  0  0  0
   -4.3620   13.9560  -34.1410 C   0  0  0  0  0  0  0  0  0  0  0  0
   -4.1990   15.2050  -34.9070 N   0  0  0  0  0  0  0  0  0  0  0  0
   -3.2630   15.2450  -36.0420 C   0  0  0  0  0  0  0  0  0  0  0  0
   -2.6590   13.8650  -36.3280 C   0  0  0  0  0  0  0  0  0  0  0  0
   -1.5520   13.5560  -35.4150 C   0  0  0  0  0  0  0  0  0  0  0  0
   -0.6790   13.3120  -34.6940 N   0  0  0  0  0  0  0  0  0  0  0  0
   -4.6590   16.4510  -34.3520 C   0  0  0  0  0  0  0  0  0  0  0  0
   -6.0260   16.7970  -34.4140 C   0  0  0  0  0  0  0  0  0  0  0  0
   -6.4790   18.0060  -33.8450 C   0  0  0  0  0  0  0  0  0  0  0  0
   -5.6070   18.8480  -33.2200 N   0  0  0  0  0  0  0  0  0  0  0  0
   -4.2980   18.5030  -33.1380 C   0  0  0  0  0  0  0  0  0  0  0  0
   -3.8050   17.3510  -33.6920 C   0  0  0  0  0  0  0  0  0  0  0  0
   -2.4300   17.4370  -33.4810 C   0  0  0  0  0  0  0  0  0  0  0  0
   -1.3640   16.4710  -33.8810 C   0  0  0  0  0  0  0  0  0  0  0  0
   -2.1590   18.5870  -32.8170 N   0  0  0  0  0  0  0  0  0  0  0  0
   -3.3000   19.2340  -32.6070 N   0  0  0  0  0  0  0  0  0  0  0  0
   -3.3810   20.5160  -31.9570 C   0  0  0  0  0  0  0  0  0  0  0  0
   -2.2070   21.2420  -31.6950 C   0  0  0  0  0  0  0  0  0  0  0  0
   -2.2670   22.4880  -31.0650 C   0  0  0  0  0  0  0  0  0  0  0  0
   -3.5030   23.0250  -30.6810 C   0  0  0  0  0  0  0  0  0  0  0  0
   -3.5860   24.5900  -29.8790 S   0  0  0  0  0  0  0  0  0  0  0  0
   -2.0150   25.0480  -29.3230 N   0  0  0  0  0  0  0  0  0  0  0  0
   -4.0970   25.6200  -30.8470 O   0  0  0  0  0  0  0  0  0  0  0  0
   -4.5130   24.5130  -28.6980 O   0  0  0  0  0  0  0  0  0  0  0  0
   -4.6750   22.2960  -30.9170 C   0  0  0  0  0  0  0  0  0  0  0  0
   -4.6160   21.0490  -31.5470 C   0  0  0  0  0  0  0  0  0  0  0  0
   -2.0613   13.4736  -30.7056 H   0  0  0  0  0  0  0  0  0  0  0  0
   -1.9510   12.5822  -32.2612 H   0  0  0  0  0  0  0  0  0  0  0  0
   -2.1938   14.3620  -32.2612 H   0  0  0  0  0  0  0  0  0  0  0  0
   -4.1673   12.1949  -32.0676 H   0  0  0  0  0  0  0  0  0  0  0  0
   -4.3079   13.3751  -30.7038 H   0  0  0  0  0  0  0  0  0  0  0  0
   -5.7300   14.1499  -32.4880 H   0  0  0  0  0  0  0  0  0  0  0  0
   -4.2561   15.2189  -32.4171 H   0  0  0  0  0  0  0  0  0  0  0  0
   -3.4381   13.3652  -34.2264 H   0  0  0  0  0  0  0  0  0  0  0  0
   -5.2241   13.4148  -34.5581 H   0  0  0  0  0  0  0  0  0  0  0  0
   -3.8020   15.5906  -36.9365 H   0  0  0  0  0  0  0  0  0  0  0  0
   -2.4428   15.9319  -35.7860 H   0  0  0  0  0  0  0  0  0  0  0  0
   -3.4422   13.1018  -36.2095 H   0  0  0  0  0  0  0  0  0  0  0  0
   -2.2648   13.8699  -37.3549 H   0  0  0  0  0  0  0  0  0  0  0  0
   -6.7405   16.1218  -34.9076 H   0  0  0  0  0  0  0  0  0  0  0  0
   -7.5447   18.2717  -33.9060 H   0  0  0  0  0  0  0  0  0  0  0  0
   -0.8964   16.0472  -32.9800 H   0  0  0  0  0  0  0  0  0  0  0  0
   -1.8083   15.6615  -34.4788 H   0  0  0  0  0  0  0  0  0  0  0  0
   -0.6021   16.9926  -34.4788 H   0  0  0  0  0  0  0  0  0  0  0  0
   -1.2319   20.8259  -31.9884 H   0  0  0  0  0  0  0  0  0  0  0  0
   -1.3411   23.0489  -30.8700 H   0  0  0  0  0  0  0  0  0  0  0  0
   -1.6120   25.6920  -30.0400 H   0  0  0  0  0  0  0  0  0  0  0  0
   -5.6469   22.7063  -30.6053 H   0  0  0  0  0  0  0  0  0  0  0  0
   -5.5416   20.4813  -31.7230 H   0  0  0  0  0  0  0  0  0  0  0  0
  1  2  1  0
  2  3  1  0
  3  4  1  0
  4  5  1  0
  5  6  1  0
  6  7  1  0
  7  8  1  0
  8  9  3  0
  5 10  1  0
 10 11  2  0
 11 12  1  0
 12 13  2  0
 13 14  1  0
 14 15  2  0
 15 16  1  0
 16 17  1  0
 16 18  2  0
 18 19  1  0
 19 20  1  0
 20 21  2  0
 21 22  1  0
 22 23  2  0
 23 24  1  0
 24 25  1  0
 24 26  2  0
 24 27  2  0
 23 28  1  0
 28 29  2  0
 15 10  1  0
 29 20  1  0
 19 14  1  0
  1 30  1  0
  1 31  1  0
  1 32  1  0
  2 33  1  0
  2 34  1  0
  3 35  1  0
  3 36  1  0
  4 37  1  0
  4 38  1  0
  6 39  1  0
  6 40  1  0
  7 41  1  0
  7 42  1  0
 11 43  1  0
 12 44  1  0
 17 45  1  0
 17 46  1  0
 17 47  1  0
 21 48  1  0
 22 49  1  0
 25 50  1  0
 28 51  1  0
 29 52  1  0
M  CHG  1  25  -1
M  END
>  <UniqueID>  (29) 
29

>  <SMILES>  (29) 
CCCCN(CCC#N)c1ccnc2c1c(C)nn2-c1ccc(S([NH-])(=O)=O)cc1

>  <Energy>  (29) 
92.32138285637001

>  <Genealogy>  (29) 
CCCCN(CCC#N)c1ccnc2c1c(C)nn2-c1ccc(S([NH-])(=O)=O)cc1 (protonated)
CCCCN(CCC#N)c1ccnc2c1c(C)nn2-c1ccc(S([NH-])(=O)=O)cc1 (3D coordinates assigned)
CCCCN(CCC#N)c1ccnc2c1c(C)nn2-c1ccc(S([NH-])(=O)=O)cc1 (optimized conformer: 92.32138285637001 kcal/mol)

>  <smiles>  (29) 
CCCCN(CCC#N)c1ccnc2c1c(C)nn2-c1ccc(S(N)(=O)=O)cc1

>  <score_type>  (29) 
oracle

>  <origin>  (29) 
adgpu

>  <m_score__min__energy>  (29) 
-8.8300000000000001

>  <m_primary>  (29) 
energy

$$$$
29:0
     RDKit          3D

 27 29  0  0  0  0  0  0  0  0999 V2000
   -3.8540   25.6590  -30.4560 O   0  0  0  0  0  0  0  0  0  0  0  0
   -4.3750   24.4300  -30.8450 C   0  0  0  0  0  0  0  0  0  0  0  0
   -5.6960   24.3370  -31.2810 C   0  0  0  0  0  0  0  0  0  0  0  0
   -6.2240   23.1020  -31.6730 C   0  0  0  0  0  0  0  0  0  0  0  0
   -5.4310   21.9320  -31.6340 C   0  0  0  0  0  0  0  0  0  0  0  0
   -5.9530   20.5890  -32.0450 C   0  0  0  0  0  0  0  0  0  0  0  0
   -7.2280   20.1120  -31.6680 C   0  0  0  0  0  0  0  0  0  0  0  0
   -7.6530   18.8490  -32.0850 C   0  0  0  0  0  0  0  0  0  0  0  0
   -6.8180   18.0550  -32.8760 C   0  0  0  0  0  0  0  0  0  0  0  0
   -7.2160   16.7820  -33.3110 C   0  0  0  0  0  0  0  0  0  0  0  0
   -6.3540   16.0120  -34.1020 C   0  0  0  0  0  0  0  0  0  0  0  0
   -6.7490   14.7520  -34.5330 O   0  0  0  0  0  0  0  0  0  0  0  0
   -5.0970   16.5110  -34.4600 C   0  0  0  0  0  0  0  0  0  0  0  0
   -4.6940   17.7800  -34.0290 C   0  0  0  0  0  0  0  0  0  0  0  0
   -5.5500   18.5540  -33.2370 C   0  0  0  0  0  0  0  0  0  0  0  0
   -5.1640   19.7870  -32.8170 N   0  0  0  0  0  0  0  0  0  0  0  0
   -4.0950   22.0500  -31.1890 C   0  0  0  0  0  0  0  0  0  0  0  0
   -3.5760   23.2880  -30.8000 C   0  0  0  0  0  0  0  0  0  0  0  0
   -6.3257   25.2382  -31.3170 H   0  0  0  0  0  0  0  0  0  0  0  0
   -7.2676   23.0406  -32.0153 H   0  0  0  0  0  0  0  0  0  0  0  0
   -7.8864   20.7358  -31.0456 H   0  0  0  0  0  0  0  0  0  0  0  0
   -8.6460   18.4786  -31.7906 H   0  0  0  0  0  0  0  0  0  0  0  0
   -8.2045   16.3889  -33.0310 H   0  0  0  0  0  0  0  0  0  0  0  0
   -4.4232   15.9039  -35.0823 H   0  0  0  0  0  0  0  0  0  0  0  0
   -3.7049   18.1690  -34.3125 H   0  0  0  0  0  0  0  0  0  0  0  0
   -3.4553   21.1560  -31.1482 H   0  0  0  0  0  0  0  0  0  0  0  0
   -2.5334   23.3618  -30.4571 H   0  0  0  0  0  0  0  0  0  0  0  0
  1  2  1  0
  2  3  2  0
  3  4  1  0
  4  5  2  0
  5  6  1  0
  6  7  2  0
  7  8  1  0
  8  9  2  0
  9 10  1  0
 10 11  2  0
 11 12  1  0
 11 13  1  0
 13 14  2  0
 14 15  1  0
 15 16  2  0
  5 17  1  0
 17 18  2  0
 18  2  1  0
 16  6  1  0
 15  9  1  0
  3 19  1  0
  4 20  1  0
  7 21  1  0
  8 22  1  0
 10 23  1  0
 13 24  1  0
 14 25  1  0
 17 26  1  0
 18 27  1  0
M  CHG  2   1  -1  12  -1
M  END
>  <UniqueID>  (30) 
30

>  <SMILES>  (30) 
[O-]c1ccc(-c2ccc3cc([O-])ccc3n2)cc1

>  <Energy>  (30) 
38.12215219945283

>  <Genealogy>  (30) 
[O-]c1ccc(-c2ccc3cc([O-])ccc3n2)cc1 (protonated)
[O-]c1ccc(-c2ccc3cc([O-])ccc3n2)cc1 (3D coordinates assigned)
[O-]c1ccc(-c2ccc3cc([O-])ccc3n2)cc1 (optimized conformer: 38.12215219945283 kcal/mol)

>  <smiles>  (30) 
Oc1ccc(-c2ccc3cc(O)ccc3n2)cc1

>  <score_type>  (30) 
oracle

>  <origin>  (30) 
adgpu

>  <m_score__min__energy>  (30) 
-10.06

>  <m_primary>  (30) 
energy

$$$$
30:0
     RDKit          3D

 53 56  0  0  0  0  0  0  0  0999 V2000
   -8.8560   19.4030  -32.6950 C   0  0  0  0  0  0  0  0  0  0  0  0
   -7.5260   19.7700  -32.0270 C   0  0  0  0  0  0  0  0  0  0  0  0
   -6.3770   19.6660  -32.9580 N   0  0  0  0  0  0  0  0  0  0  0  0
   -6.0790   18.2950  -33.4480 C   0  0  0  0  0  0  0  0  0  0  0  0
   -5.5210   18.2160  -34.8800 C   0  0  0  0  0  0  0  0  0  0  0  0
   -5.2000   20.2830  -32.3720 C   0  0  0  0  0  0  0  0  0  0  0  0
   -4.7090   19.8340  -31.3430 O   0  0  0  0  0  0  0  0  0  0  0  0
   -4.6150   21.5390  -32.9680 C   0  0  0  0  0  0  0  0  0  0  0  0
   -3.7720   22.2530  -31.9400 C   0  0  0  0  0  0  0  0  0  0  0  0
   -2.4160   21.9950  -31.6780 C   0  0  0  0  0  0  0  0  0  0  0  0
   -1.4990   21.1230  -32.4440 C   0  0  0  0  0  0  0  0  0  0  0  0
   -0.1780   20.8500  -32.0990 C   0  0  0  0  0  0  0  0  0  0  0  0
    0.4910   20.0500  -33.0330 C   0  0  0  0  0  0  0  0  0  0  0  0
   -0.2880   19.6960  -34.1260 C   0  0  0  0  0  0  0  0  0  0  0  0
   -1.8060   20.3880  -33.9270 S   0  0  0  0  0  0  0  0  0  0  0  0
   -2.0320   22.6110  -30.5400 N   0  0  0  0  0  0  0  0  0  0  0  0
   -3.1090   23.2590  -30.0670 C   0  0  0  0  0  0  0  0  0  0  0  0
   -3.1850   23.9880  -28.8700 C   0  0  0  0  0  0  0  0  0  0  0  0
   -2.0070   24.1860  -27.9980 C   0  0  0  0  0  0  0  0  0  0  0  0
   -1.8080   23.3450  -26.8880 C   0  0  0  0  0  0  0  0  0  0  0  0
   -0.6970   23.5210  -26.0570 C   0  0  0  0  0  0  0  0  0  0  0  0
   -0.4650   22.4760  -24.6680 Cl  0  0  0  0  0  0  0  0  0  0  0  0
    0.2290   24.5330  -26.3320 C   0  0  0  0  0  0  0  0  0  0  0  0
    0.0430   25.3690  -27.4360 C   0  0  0  0  0  0  0  0  0  0  0  0
   -1.0690   25.2010  -28.2680 C   0  0  0  0  0  0  0  0  0  0  0  0
   -1.2430   26.0580  -29.3510 O   0  0  0  0  0  0  0  0  0  0  0  0
   -4.4320   24.5350  -28.5180 C   0  0  0  0  0  0  0  0  0  0  0  0
   -5.5520   24.3550  -29.3470 C   0  0  0  0  0  0  0  0  0  0  0  0
   -5.4590   23.6190  -30.5410 C   0  0  0  0  0  0  0  0  0  0  0  0
   -6.9080   23.4890  -31.5270 Cl  0  0  0  0  0  0  0  0  0  0  0  0
   -4.2060   23.0660  -30.8840 C   0  0  0  0  0  0  0  0  0  0  0  0
   -9.6098   19.1950  -31.9213 H   0  0  0  0  0  0  0  0  0  0  0  0
   -9.1952   20.2411  -33.3215 H   0  0  0  0  0  0  0  0  0  0  0  0
   -8.7174   18.5095  -33.3215 H   0  0  0  0  0  0  0  0  0  0  0  0
   -7.5895   20.8046  -31.6588 H   0  0  0  0  0  0  0  0  0  0  0  0
   -7.3565   19.0587  -31.2052 H   0  0  0  0  0  0  0  0  0  0  0  0
   -6.6280   20.2250  -33.8080 H   0  0  0  0  0  0  0  0  0  0  0  0
   -5.3394   17.8448  -32.7696 H   0  0  0  0  0  0  0  0  0  0  0  0
   -7.0413   17.7623  -33.4664 H   0  0  0  0  0  0  0  0  0  0  0  0
   -4.4325   18.0619  -34.8414 H   0  0  0  0  0  0  0  0  0  0  0  0
   -5.9917   17.3755  -35.4111 H   0  0  0  0  0  0  0  0  0  0  0  0
   -5.7399   19.1541  -35.4111 H   0  0  0  0  0  0  0  0  0  0  0  0
   -3.9888   21.2746  -33.8328 H   0  0  0  0  0  0  0  0  0  0  0  0
   -5.4324   22.2017  -33.2885 H   0  0  0  0  0  0  0  0  0  0  0  0
    0.2949   21.2270  -31.1802 H   0  0  0  0  0  0  0  0  0  0  0  0
    1.5369   19.7315  -32.9120 H   0  0  0  0  0  0  0  0  0  0  0  0
    0.0322   19.0721  -34.9735 H   0  0  0  0  0  0  0  0  0  0  0  0
   -1.0870   22.5650  -30.1020 H   0  0  0  0  0  0  0  0  0  0  0  0
   -2.5306   22.5441  -26.6724 H   0  0  0  0  0  0  0  0  0  0  0  0
    1.1035   24.6706  -25.6791 H   0  0  0  0  0  0  0  0  0  0  0  0
    0.7738   26.1623  -27.6518 H   0  0  0  0  0  0  0  0  0  0  0  0
   -4.5313   25.1091  -27.5850 H   0  0  0  0  0  0  0  0  0  0  0  0
   -6.5167   24.7969  -29.0572 H   0  0  0  0  0  0  0  0  0  0  0  0
  1  2  1  0
  2  3  1  0
  3  4  1  0
  4  5  1  0
  3  6  1  0
  6  7  2  0
  6  8  1  0
  8  9  1  0
  9 10  2  0
 10 11  1  0
 11 12  2  0
 12 13  1  0
 13 14  2  0
 14 15  1  0
 10 16  1  0
 16 17  1  0
 17 18  2  0
 18 19  1  0
 19 20  2  0
 20 21  1  0
 21 22  1  0
 21 23  2  0
 23 24  1  0
 24 25  2  0
 25 26  1  0
 18 27  1  0
 27 28  2  0
 28 29  1  0
 29 30  1  0
 29 31  2  0
 31  9  1  0
 15 11  1  0
 31 17  1  0
 25 19  1  0
  1 32  1  0
  1 33  1  0
  1 34  1  0
  2 35  1  0
  2 36  1  0
  3 37  1  0
  4 38  1  0
  4 39  1  0
  5 40  1  0
  5 41  1  0
  5 42  1  0
  8 43  1  0
  8 44  1  0
 12 45  1  0
 13 46  1  0
 14 47  1  0
 16 48  1  0
 20 49  1  0
 23 50  1  0
 24 51  1  0
 27 52  1  0
 28 53  1  0
M  CHG  2   3   1  26  -1
M  END
>  <UniqueID>  (31) 
31

>  <SMILES>  (31) 
CC[NH+](CC)C(=O)Cc1c(-c2cccs2)[nH]c2c(-c3cc(Cl)ccc3[O-])ccc(Cl)c12

>  <Energy>  (31) 
127.7761114538806

>  <Genealogy>  (31) 
CC[NH+](CC)C(=O)Cc1c(-c2cccs2)[nH]c2c(-c3cc(Cl)ccc3[O-])ccc(Cl)c12 (protonated)
CC[NH+](CC)C(=O)Cc1c(-c2cccs2)[nH]c2c(-c3cc(Cl)ccc3[O-])ccc(Cl)c12 (3D coordinates assigned)
CC[NH+](CC)C(=O)Cc1c(-c2cccs2)[nH]c2c(-c3cc(Cl)ccc3[O-])ccc(Cl)c12 (optimized conformer: 127.7761114538806 kcal/mol)

>  <smiles>  (31) 
CCN(CC)C(=O)Cc1c(-c2cccs2)[nH]c2c(-c3cc(Cl)ccc3O)ccc(Cl)c12

>  <score_type>  (31) 
oracle

>  <origin>  (31) 
adgpu

>  <m_score__min__energy>  (31) 
-12.07

>  <m_primary>  (31) 
energy

$$$$
31:0
     RDKit          3D

 37 39  0  0  0  0  0  0  0  0999 V2000
   -1.9630   21.0030  -34.2110 N   0  0  0  0  0  0  0  0  0  0  0  0
   -1.8890   19.5670  -33.9500 C   0  0  0  0  0  0  0  0  0  0  0  0
   -3.2560   18.9350  -34.0130 C   0  0  0  0  0  0  0  0  0  0  0  0
   -3.4300   17.6900  -34.6350 C   0  0  0  0  0  0  0  0  0  0  0  0
   -4.6890   17.0870  -34.6610 C   0  0  0  0  0  0  0  0  0  0  0  0
   -5.7820   17.7150  -34.0590 C   0  0  0  0  0  0  0  0  0  0  0  0
   -5.6250   18.9570  -33.4180 C   0  0  0  0  0  0  0  0  0  0  0  0
   -6.7840   19.6220  -32.7700 C   0  0  0  0  0  0  0  0  0  0  0  0
   -8.0200   18.9580  -32.6610 C   0  0  0  0  0  0  0  0  0  0  0  0
   -9.1050   19.5800  -32.0400 C   0  0  0  0  0  0  0  0  0  0  0  0
   -8.9740   20.8700  -31.5240 C   0  0  0  0  0  0  0  0  0  0  0  0
   -7.7540   21.5550  -31.6320 C   0  0  0  0  0  0  0  0  0  0  0  0
   -7.5990   22.9350  -31.0450 C   0  0  0  0  0  0  0  0  0  0  0  0
   -6.8650   23.8800  -32.0030 C   0  0  0  0  0  0  0  0  0  0  0  0
   -5.4990   24.2270  -31.4970 C   0  0  0  0  0  0  0  0  0  0  0  0
   -5.1500   25.4360  -31.0210 N   0  0  0  0  0  0  0  0  0  0  0  0
   -3.8970   25.2900  -30.6280 N   0  0  0  0  0  0  0  0  0  0  0  0
   -3.5000   24.0460  -30.8440 N   0  0  0  0  0  0  0  0  0  0  0  0
   -4.4870   23.3490  -31.3850 N   0  0  0  0  0  0  0  0  0  0  0  0
   -6.6620   20.9230  -32.2490 C   0  0  0  0  0  0  0  0  0  0  0  0
   -4.3530   19.5580  -33.3960 C   0  0  0  0  0  0  0  0  0  0  0  0
   -1.2740   21.2460  -34.9610 H   0  0  0  0  0  0  0  0  0  0  0  0
   -2.9180   21.2310  -34.5720 H   0  0  0  0  0  0  0  0  0  0  0  0
   -1.2405   19.0973  -34.7042 H   0  0  0  0  0  0  0  0  0  0  0  0
   -1.4790   19.4151  -32.9406 H   0  0  0  0  0  0  0  0  0  0  0  0
   -2.5715   17.1869  -35.1040 H   0  0  0  0  0  0  0  0  0  0  0  0
   -4.8207   16.1141  -35.1572 H   0  0  0  0  0  0  0  0  0  0  0  0
   -6.7715   17.2352  -34.0865 H   0  0  0  0  0  0  0  0  0  0  0  0
   -8.1321   17.9421  -33.0678 H   0  0  0  0  0  0  0  0  0  0  0  0
  -10.0661   19.0515  -31.9572 H   0  0  0  0  0  0  0  0  0  0  0  0
   -9.8308   21.3520  -31.0305 H   0  0  0  0  0  0  0  0  0  0  0  0
   -8.5970   23.3465  -30.8335 H   0  0  0  0  0  0  0  0  0  0  0  0
   -7.0038   22.8507  -30.1238 H   0  0  0  0  0  0  0  0  0  0  0  0
   -6.7687   23.3903  -32.9833 H   0  0  0  0  0  0  0  0  0  0  0  0
   -7.4482   24.8092  -32.0833 H   0  0  0  0  0  0  0  0  0  0  0  0
   -5.7003   21.4514  -32.3257 H   0  0  0  0  0  0  0  0  0  0  0  0
   -4.2165   20.5254  -32.8905 H   0  0  0  0  0  0  0  0  0  0  0  0
  1  2  1  0
  2  3  1  0
  3  4  2  0
  4  5  1  0
  5  6  2  0
  6  7  1  0
  7  8  1  0
  8  9  2  0
  9 10  1  0
 10 11  2  0
 11 12  1  0
 12 13  1  0
 13 14  1  0
 14 15  1  0
 15 16  1  0
 16 17  2  0
 17 18  1  0
 18 19  1  0
 12 20  2  0
  7 21  2  0
 21  3  1  0
 20  8  1  0
 19 15  2  0
  1 22  1  0
  1 23  1  0
  2 24  1  0
  2 25  1  0
  4 26  1  0
  5 27  1  0
  6 28  1  0
  9 29  1  0
 10 30  1  0
 11 31  1  0
 13 32  1  0
 13 33  1  0
 14 34  1  0
 14 35  1  0
 20 36  1  0
 21 37  1  0
M  CHG  1  18  -1
M  END
>  <UniqueID>  (32) 
32

>  <SMILES>  (32) 
NCc1cccc(-c2cccc(CCc3nn[n-]n3)c2)c1

>  <Energy>  (32) 
77.13653847098166

>  <Genealogy>  (32) 
NCc1cccc(-c2cccc(CCc3nn[n-]n3)c2)c1 (protonated)
NCc1cccc(-c2cccc(CCc3nn[n-]n3)c2)c1 (3D coordinates assigned)
NCc1cccc(-c2cccc(CCc3nn[n-]n3)c2)c1 (optimized conformer: 77.13653847098166 kcal/mol)

>  <smiles>  (32) 
NCc1cccc(-c2cccc(CCc3nn[nH]n3)c2)c1

>  <score_type>  (32) 
oracle

>  <origin>  (32) 
adgpu

>  <m_score__min__energy>  (32) 
-10.83

>  <m_primary>  (32) 
energy

$$$$
32:0
     RDKit          3D

 44 46  0  0  0  0  0  0  0  0999 V2000
   -5.5180   15.3950  -34.1930 C   0  0  0  0  0  0  0  0  0  0  0  0
   -5.8130   16.7730  -33.6920 C   0  0  0  0  0  0  0  0  0  0  0  0
   -5.7170   17.8740  -34.5500 C   0  0  0  0  0  0  0  0  0  0  0  0
   -6.0140   19.1490  -34.0660 C   0  0  0  0  0  0  0  0  0  0  0  0
   -6.4010   19.3200  -32.7300 C   0  0  0  0  0  0  0  0  0  0  0  0
   -6.7440   20.6630  -32.2110 C   0  0  0  0  0  0  0  0  0  0  0  0
   -5.7340   21.4290  -31.6030 C   0  0  0  0  0  0  0  0  0  0  0  0
   -5.9940   22.7260  -31.1280 C   0  0  0  0  0  0  0  0  0  0  0  0
   -4.9120   23.5230  -30.5010 C   0  0  0  0  0  0  0  0  0  0  0  0
   -4.5300   24.5930  -31.0510 O   0  0  0  0  0  0  0  0  0  0  0  0
   -4.2590   23.0670  -29.3040 N   0  0  0  0  0  0  0  0  0  0  0  0
   -3.5160   23.9270  -28.4230 C   0  0  0  0  0  0  0  0  0  0  0  0
   -4.0480   24.3560  -27.1950 C   0  0  0  0  0  0  0  0  0  0  0  0
   -3.2980   25.1730  -26.3440 C   0  0  0  0  0  0  0  0  0  0  0  0
   -1.9930   25.5650  -26.7020 C   0  0  0  0  0  0  0  0  0  0  0  0
   -1.1960   26.3870  -25.8880 O   0  0  0  0  0  0  0  0  0  0  0  0
   -0.7950   26.0840  -24.5540 C   0  0  0  0  0  0  0  0  0  0  0  0
   -0.9280   24.7280  -24.3120 F   0  0  0  0  0  0  0  0  0  0  0  0
   -1.6060   26.7740  -23.6750 F   0  0  0  0  0  0  0  0  0  0  0  0
    0.5170   26.4730  -24.3500 F   0  0  0  0  0  0  0  0  0  0  0  0
   -1.4600   25.1200  -27.9160 C   0  0  0  0  0  0  0  0  0  0  0  0
   -2.2090   24.3020  -28.7670 C   0  0  0  0  0  0  0  0  0  0  0  0
   -7.2840   23.2590  -31.2820 C   0  0  0  0  0  0  0  0  0  0  0  0
   -8.2970   22.5040  -31.8740 C   0  0  0  0  0  0  0  0  0  0  0  0
   -8.0470   21.2020  -32.3300 C   0  0  0  0  0  0  0  0  0  0  0  0
   -9.1330   20.4350  -32.8710 N   0  0  0  0  0  0  0  0  0  0  0  0
   -6.5050   18.1860  -31.9090 C   0  0  0  0  0  0  0  0  0  0  0  0
   -6.2120   16.9540  -32.4030 N   0  0  0  0  0  0  0  0  0  0  0  0
   -5.3730   14.7175  -33.3386 H   0  0  0  0  0  0  0  0  0  0  0  0
   -6.3603   15.0390  -34.8044 H   0  0  0  0  0  0  0  0  0  0  0  0
   -4.6038   15.4150  -34.8044 H   0  0  0  0  0  0  0  0  0  0  0  0
   -5.4100   17.7359  -35.5972 H   0  0  0  0  0  0  0  0  0  0  0  0
   -5.9442   20.0203  -34.7338 H   0  0  0  0  0  0  0  0  0  0  0  0
   -4.7239   21.0064  -31.4973 H   0  0  0  0  0  0  0  0  0  0  0  0
   -4.2260   22.0380  -29.1250 H   0  0  0  0  0  0  0  0  0  0  0  0
   -5.0619   24.0467  -26.9013 H   0  0  0  0  0  0  0  0  0  0  0  0
   -3.7289   25.5115  -25.3902 H   0  0  0  0  0  0  0  0  0  0  0  0
   -0.4408   25.4167  -28.2043 H   0  0  0  0  0  0  0  0  0  0  0  0
   -1.7705   23.9502  -29.7125 H   0  0  0  0  0  0  0  0  0  0  0  0
   -7.4976   24.2801  -30.9331 H   0  0  0  0  0  0  0  0  0  0  0  0
   -9.3030   22.9351  -31.9842 H   0  0  0  0  0  0  0  0  0  0  0  0
   -9.9540   20.1880  -32.2750 H   0  0  0  0  0  0  0  0  0  0  0  0
   -9.1050   20.0420  -33.8370 H   0  0  0  0  0  0  0  0  0  0  0  0
   -6.8248   18.2948  -30.8621 H   0  0  0  0  0  0  0  0  0  0  0  0
  1  2  1  0
  2  3  2  0
  3  4  1  0
  4  5  2  0
  5  6  1  0
  6  7  2  0
  7  8  1  0
  8  9  1  0
  9 10  2  0
  9 11  1  0
 11 12  1  0
 12 13  2  0
 13 14  1  0
 14 15  2  0
 15 16  1  0
 16 17  1  0
 17 18  1  0
 17 19  1  0
 17 20  1  0
 15 21  1  0
 21 22  2  0
  8 23  2  0
 23 24  1  0
 24 25  2  0
 25 26  1  0
  5 27  1  0
 27 28  2  0
 28  2  1  0
 25  6  1  0
 22 12  1  0
  1 29  1  0
  1 30  1  0
  1 31  1  0
  3 32  1  0
  4 33  1  0
  7 34  1  0
 11 35  1  0
 13 36  1  0
 14 37  1  0
 21 38  1  0
 22 39  1  0
 23 40  1  0
 24 41  1  0
 26 42  1  0
 26 43  1  0
 27 44  1  0
M  END
>  <UniqueID>  (33) 
33

>  <SMILES>  (33) 
Cc1ccc(-c2cc(C(=O)Nc3ccc(OC(F)(F)F)cc3)ccc2N)cn1

>  <Energy>  (33) 
59.21362968217949

>  <Genealogy>  (33) 
Cc1ccc(-c2cc(C(=O)Nc3ccc(OC(F)(F)F)cc3)ccc2N)cn1 (3D coordinates assigned)
Cc1ccc(-c2cc(C(=O)Nc3ccc(OC(F)(F)F)cc3)ccc2N)cn1 (optimized conformer: 59.21362968217949 kcal/mol)

>  <smiles>  (33) 
Cc1ccc(-c2cc(C(=O)Nc3ccc(OC(F)(F)F)cc3)ccc2N)cn1

>  <score_type>  (33) 
oracle

>  <origin>  (33) 
adgpu

>  <m_score__min__energy>  (33) 
-8.7699999999999996

>  <m_primary>  (33) 
energy

$$$$
33:0
     RDKit          3D

 43 45  0  0  0  0  0  0  0  0999 V2000
   -5.8210   26.0620  -31.2140 O   0  0  0  0  0  0  0  0  0  0  0  0
   -5.3380   24.9890  -30.2790 S   0  0  0  0  0  0  0  0  0  0  0  0
   -5.9410   25.2150  -28.9220 O   0  0  0  0  0  0  0  0  0  0  0  0
   -3.6090   25.0780  -30.1600 N   0  0  0  0  0  0  0  0  0  0  0  0
   -2.8480   24.4920  -29.0840 C   0  0  0  0  0  0  0  0  0  0  0  0
   -3.2590   23.2970  -28.4600 C   0  0  0  0  0  0  0  0  0  0  0  0
   -2.5080   22.7500  -27.4150 C   0  0  0  0  0  0  0  0  0  0  0  0
   -1.3400   23.3810  -26.9860 C   0  0  0  0  0  0  0  0  0  0  0  0
   -0.9170   24.5600  -27.6010 C   0  0  0  0  0  0  0  0  0  0  0  0
   -1.6630   25.1160  -28.6460 C   0  0  0  0  0  0  0  0  0  0  0  0
   -1.2220   26.2940  -29.2390 O   0  0  0  0  0  0  0  0  0  0  0  0
   -5.8220   23.3960  -30.8520 C   0  0  0  0  0  0  0  0  0  0  0  0
   -7.1780   23.0800  -31.0120 C   0  0  0  0  0  0  0  0  0  0  0  0
   -7.5540   21.8170  -31.4770 C   0  0  0  0  0  0  0  0  0  0  0  0
   -6.5780   20.8560  -31.7790 C   0  0  0  0  0  0  0  0  0  0  0  0
   -7.0520   19.2540  -32.3490 S   0  0  0  0  0  0  0  0  0  0  0  0
   -8.5410   19.2400  -32.5630 O   0  0  0  0  0  0  0  0  0  0  0  0
   -6.7330   18.2380  -31.2880 O   0  0  0  0  0  0  0  0  0  0  0  0
   -6.2530   18.8060  -33.8420 N   0  0  0  0  0  0  0  0  0  0  0  0
   -6.4840   17.3950  -34.2060 C   0  0  0  0  0  0  0  0  0  0  0  0
   -5.5380   16.4160  -33.4730 C   0  0  0  0  0  0  0  0  0  0  0  0
   -4.4980   17.0640  -32.7670 O   0  0  0  0  0  0  0  0  0  0  0  0
   -3.8780   18.0150  -33.6010 C   0  0  0  0  0  0  0  0  0  0  0  0
   -4.8260   19.1950  -33.8680 C   0  0  0  0  0  0  0  0  0  0  0  0
   -5.2230   21.1760  -31.6240 C   0  0  0  0  0  0  0  0  0  0  0  0
   -4.8460   22.4390  -31.1570 C   0  0  0  0  0  0  0  0  0  0  0  0
   -3.1230   25.6650  -30.8730 H   0  0  0  0  0  0  0  0  0  0  0  0
   -4.1760   22.7916  -28.7971 H   0  0  0  0  0  0  0  0  0  0  0  0
   -2.8390   21.8198  -26.9300 H   0  0  0  0  0  0  0  0  0  0  0  0
   -0.7523   22.9489  -26.1626 H   0  0  0  0  0  0  0  0  0  0  0  0
    0.0060   25.0539  -27.2631 H   0  0  0  0  0  0  0  0  0  0  0  0
   -7.9479   23.8277  -30.7710 H   0  0  0  0  0  0  0  0  0  0  0  0
   -8.6193   21.5756  -31.6067 H   0  0  0  0  0  0  0  0  0  0  0  0
   -7.5222   17.1338  -33.9531 H   0  0  0  0  0  0  0  0  0  0  0  0
   -6.2852   17.2978  -35.2835 H   0  0  0  0  0  0  0  0  0  0  0  0
   -6.1312   15.8274  -32.7577 H   0  0  0  0  0  0  0  0  0  0  0  0
   -5.0660   15.7843  -34.2399 H   0  0  0  0  0  0  0  0  0  0  0  0
   -2.9661   18.3868  -33.1108 H   0  0  0  0  0  0  0  0  0  0  0  0
   -3.6252   17.5374  -34.5591 H   0  0  0  0  0  0  0  0  0  0  0  0
   -4.6574   19.9617  -33.0974 H   0  0  0  0  0  0  0  0  0  0  0  0
   -4.6058   19.5727  -34.8774 H   0  0  0  0  0  0  0  0  0  0  0  0
   -4.4525   20.4307  -31.8707 H   0  0  0  0  0  0  0  0  0  0  0  0
   -3.7807   22.6814  -31.0289 H   0  0  0  0  0  0  0  0  0  0  0  0
  1  2  2  0
  2  3  2  0
  2  4  1  0
  4  5  1  0
  5  6  2  0
  6  7  1  0
  7  8  2  0
  8  9  1  0
  9 10  2  0
 10 11  1  0
  2 12  1  0
 12 13  2  0
 13 14  1  0
 14 15  2  0
 15 16  1  0
 16 17  2  0
 16 18  2  0
 16 19  1  0
 19 20  1  0
 20 21  1  0
 21 22  1  0
 22 23  1  0
 23 24  1  0
 15 25  1  0
 25 26  2  0
 10  5  1  0
 26 12  1  0
 24 19  1  0
  4 27  1  0
  6 28  1  0
  7 29  1  0
  8 30  1  0
  9 31  1  0
 13 32  1  0
 14 33  1  0
 20 34  1  0
 20 35  1  0
 21 36  1  0
 21 37  1  0
 23 38  1  0
 23 39  1  0
 24 40  1  0
 24 41  1  0
 25 42  1  0
 26 43  1  0
M  CHG  1  11  -1
M  END
>  <UniqueID>  (34) 
34

>  <SMILES>  (34) 
O=S(=O)(Nc1ccccc1[O-])c1ccc(S(=O)(=O)N2CCOCC2)cc1

>  <Energy>  (34) 
58.432447341245854

>  <Genealogy>  (34) 
O=S(=O)(Nc1ccccc1[O-])c1ccc(S(=O)(=O)N2CCOCC2)cc1 (protonated)
O=S(=O)(Nc1ccccc1[O-])c1ccc(S(=O)(=O)N2CCOCC2)cc1 (3D coordinates assigned)
O=S(=O)(Nc1ccccc1[O-])c1ccc(S(=O)(=O)N2CCOCC2)cc1 (nonaromatic ring conformer: 58.432447341245854 kcal/mol)

>  <smiles>  (34) 
O=S(=O)(Nc1ccccc1O)c1ccc(S(=O)(=O)N2CCOCC2)cc1

>  <score_type>  (34) 
oracle

>  <origin>  (34) 
adgpu

>  <m_score__min__energy>  (34) 
-13.15

>  <m_primary>  (34) 
energy

$$$$
34:0
     RDKit          3D

 28 29  0  0  0  0  0  0  0  0999 V2000
   -3.4930   25.1760  -30.3430 N   0  0  0  0  0  0  0  0  0  0  0  0
   -2.9830   23.9020  -29.9570 C   0  0  0  0  0  0  0  0  0  0  0  0
   -3.6520   22.8680  -30.2210 O   0  0  0  0  0  0  0  0  0  0  0  0
   -1.6910   23.7970  -29.2380 C   0  0  0  0  0  0  0  0  0  0  0  0
   -1.1180   22.5910  -28.8210 C   0  0  0  0  0  0  0  0  0  0  0  0
   -1.5400   21.2640  -29.1670 N   0  0  0  0  0  0  0  0  0  0  0  0
   -0.7840   20.0830  -28.8520 C   0  0  0  0  0  0  0  0  0  0  0  0
   -1.1700   19.2860  -27.7640 C   0  0  0  0  0  0  0  0  0  0  0  0
   -0.4370   18.1440  -27.4280 C   0  0  0  0  0  0  0  0  0  0  0  0
    0.7020   17.7950  -28.1640 C   0  0  0  0  0  0  0  0  0  0  0  0
    1.6190   16.3490  -27.7520 S   0  0  0  0  0  0  0  0  0  0  0  0
    0.6200   15.2790  -26.8340 N   0  0  0  0  0  0  0  0  0  0  0  0
    2.8280   16.7260  -26.9420 O   0  0  0  0  0  0  0  0  0  0  0  0
    2.0760   15.6620  -29.0080 O   0  0  0  0  0  0  0  0  0  0  0  0
    1.0990   18.5950  -29.2430 C   0  0  0  0  0  0  0  0  0  0  0  0
    0.3670   19.7370  -29.5810 C   0  0  0  0  0  0  0  0  0  0  0  0
    0.3140   22.9980  -28.0660 S   0  0  0  0  0  0  0  0  0  0  0  0
    0.2540   24.6530  -28.1910 N   0  0  0  0  0  0  0  0  0  0  0  0
   -0.9010   24.9150  -28.8560 C   0  0  0  0  0  0  0  0  0  0  0  0
   -1.2400   26.1030  -29.1060 O   0  0  0  0  0  0  0  0  0  0  0  0
   -3.1540   25.6510  -31.2090 H   0  0  0  0  0  0  0  0  0  0  0  0
   -2.3820   21.1590  -29.7770 H   0  0  0  0  0  0  0  0  0  0  0  0
   -2.0550   19.5614  -27.1715 H   0  0  0  0  0  0  0  0  0  0  0  0
   -0.7562   17.5172  -26.5823 H   0  0  0  0  0  0  0  0  0  0  0  0
    1.0740   15.1660  -25.9000 H   0  0  0  0  0  0  0  0  0  0  0  0
   -0.2860   15.7730  -26.6700 H   0  0  0  0  0  0  0  0  0  0  0  0
    1.9907   18.3235  -29.8270 H   0  0  0  0  0  0  0  0  0  0  0  0
    0.6932   20.3677  -30.4212 H   0  0  0  0  0  0  0  0  0  0  0  0
  1  2  1  0
  2  3  2  0
  2  4  1  0
  4  5  2  0
  5  6  1  0
  6  7  1  0
  7  8  2  0
  8  9  1  0
  9 10  2  0
 10 11  1  0
 11 12  1  0
 11 13  2  0
 11 14  2  0
 10 15  1  0
 15 16  2  0
  5 17  1  0
 17 18  1  0
 18 19  1  0
 19 20  2  0
 19  4  1  0
 16  7  1  0
  1 21  1  0
  6 22  1  0
  8 23  1  0
  9 24  1  0
 12 25  1  0
 12 26  1  0
 15 27  1  0
 16 28  1  0
M  CHG  2   1  -1  18  -1
M  END
>  <UniqueID>  (35) 
35

>  <SMILES>  (35) 
[NH-]C(=O)c1c(Nc2ccc(S(N)(=O)=O)cc2)s[n-]c1=O

>  <Energy>  (35) 
66.66803789344056

>  <Genealogy>  (35) 
[NH-]C(=O)c1c(Nc2ccc(S(N)(=O)=O)cc2)s[n-]c1=O (protonated)
[NH-]C(=O)c1c(Nc2ccc(S(N)(=O)=O)cc2)s[n-]c1=O (3D coordinates assigned)
[NH-]C(=O)c1c(Nc2ccc(S(N)(=O)=O)cc2)s[n-]c1=O (optimized conformer: 66.66803789344056 kcal/mol)

>  <smiles>  (35) 
NC(=O)c1c(Nc2ccc(S(N)(=O)=O)cc2)s[nH]c1=O

>  <score_type>  (35) 
oracle

>  <origin>  (35) 
adgpu

>  <m_score__min__energy>  (35) 
-9.6300000000000008

>  <m_primary>  (35) 
energy

$$$$
35:0
     RDKit          3D

 63 66  0  0  0  0  0  0  0  0999 V2000
   -0.5080   28.0910  -24.4720 C   0  0  0  0  0  0  0  0  0  0  0  0
   -0.8840   27.1740  -25.5980 C   0  0  0  0  0  0  0  0  0  0  0  0
   -1.8240   26.1510  -25.3990 C   0  0  0  0  0  0  0  0  0  0  0  0
   -2.2050   25.3260  -26.4610 C   0  0  0  0  0  0  0  0  0  0  0  0
   -1.6680   25.5230  -27.7440 C   0  0  0  0  0  0  0  0  0  0  0  0
   -2.0640   24.6570  -28.8260 N   0  0  0  0  0  0  0  0  0  0  0  0
   -3.0960   24.9150  -29.6170 N   0  0  0  0  0  0  0  0  0  0  0  0
   -3.1930   23.9200  -30.5220 C   0  0  0  0  0  0  0  0  0  0  0  0
   -2.1800   22.9960  -30.3140 C   0  0  0  0  0  0  0  0  0  0  0  0
   -1.9640   21.7740  -31.1140 C   0  0  0  0  0  0  0  0  0  0  0  0
   -1.2290   20.8590  -30.6520 O   0  0  0  0  0  0  0  0  0  0  0  0
   -2.5510   21.6290  -32.4100 N   0  0  0  0  0  0  0  0  0  0  0  0
   -3.1170   20.4190  -32.9310 C   0  0  0  0  0  0  0  0  0  0  0  0
   -4.4480   20.1250  -32.6080 C   0  0  0  0  0  0  0  0  0  0  0  0
   -5.0710   18.9800  -33.1160 C   0  0  0  0  0  0  0  0  0  0  0  0
   -6.7450   18.6290  -32.6830 S   0  0  0  0  0  0  0  0  0  0  0  0
   -7.1460   17.3430  -33.3510 O   0  0  0  0  0  0  0  0  0  0  0  0
   -6.8540   18.4390  -31.1940 O   0  0  0  0  0  0  0  0  0  0  0  0
   -7.8120   19.9140  -33.2180 N   0  0  0  0  0  0  0  0  0  0  0  0
   -9.1520   19.8110  -32.5700 C   0  0  0  0  0  0  0  0  0  0  0  0
   -9.4970   20.9920  -31.6430 C   0  0  0  0  0  0  0  0  0  0  0  0
   -8.2990   21.3720  -30.7740 C   0  0  0  0  0  0  0  0  0  0  0  0
   -7.0560   21.7060  -31.6180 C   0  0  0  0  0  0  0  0  0  0  0  0
   -7.1780   21.2460  -33.0830 C   0  0  0  0  0  0  0  0  0  0  0  0
   -4.3500   18.1080  -33.9400 C   0  0  0  0  0  0  0  0  0  0  0  0
   -3.0120   18.3690  -34.2360 C   0  0  0  0  0  0  0  0  0  0  0  0
   -2.3730   19.5120  -33.7250 C   0  0  0  0  0  0  0  0  0  0  0  0
   -0.9630   19.6980  -33.9570 N   0  0  0  0  0  0  0  0  0  0  0  0
   -0.4730   20.8960  -34.6440 C   0  0  0  0  0  0  0  0  0  0  0  0
    0.0050   18.7630  -33.3780 C   0  0  0  0  0  0  0  0  0  0  0  0
   -1.4800   23.5080  -29.2280 C   0  0  0  0  0  0  0  0  0  0  0  0
   -0.4110   23.0140  -28.6810 N   0  0  0  0  0  0  0  0  0  0  0  0
   -0.7240   26.5480  -27.9400 C   0  0  0  0  0  0  0  0  0  0  0  0
   -0.3450   27.3730  -26.8770 C   0  0  0  0  0  0  0  0  0  0  0  0
   -0.7114   27.5949  -23.5116 H   0  0  0  0  0  0  0  0  0  0  0  0
    0.5626   28.3346  -24.5394 H   0  0  0  0  0  0  0  0  0  0  0  0
   -1.0994   29.0160  -24.5394 H   0  0  0  0  0  0  0  0  0  0  0  0
   -2.2631   25.9977  -24.4022 H   0  0  0  0  0  0  0  0  0  0  0  0
   -2.9304   24.5168  -26.2909 H   0  0  0  0  0  0  0  0  0  0  0  0
   -3.9603   23.8516  -31.3072 H   0  0  0  0  0  0  0  0  0  0  0  0
   -5.0096   20.8020  -31.9475 H   0  0  0  0  0  0  0  0  0  0  0  0
   -7.9450   19.7530  -34.2450 H   0  0  0  0  0  0  0  0  0  0  0  0
   -9.9147   19.7589  -33.3609 H   0  0  0  0  0  0  0  0  0  0  0  0
   -9.1301   18.9099  -31.9395 H   0  0  0  0  0  0  0  0  0  0  0  0
   -9.7863   21.8583  -32.2561 H   0  0  0  0  0  0  0  0  0  0  0  0
  -10.3264   20.6919  -30.9858 H   0  0  0  0  0  0  0  0  0  0  0  0
   -8.5641   22.2516  -30.1691 H   0  0  0  0  0  0  0  0  0  0  0  0
   -8.0547   20.5092  -30.1369 H   0  0  0  0  0  0  0  0  0  0  0  0
   -6.9064   22.7957  -31.6047 H   0  0  0  0  0  0  0  0  0  0  0  0
   -6.2050   21.1676  -31.1753 H   0  0  0  0  0  0  0  0  0  0  0  0
   -7.7849   21.9809  -33.6323 H   0  0  0  0  0  0  0  0  0  0  0  0
   -6.1593   21.1696  -33.4910 H   0  0  0  0  0  0  0  0  0  0  0  0
   -4.8396   17.2147  -34.3552 H   0  0  0  0  0  0  0  0  0  0  0  0
   -2.4508   17.6726  -34.8764 H   0  0  0  0  0  0  0  0  0  0  0  0
   -0.1663   21.6458  -33.8999 H   0  0  0  0  0  0  0  0  0  0  0  0
    0.3889   20.6307  -35.2739 H   0  0  0  0  0  0  0  0  0  0  0  0
   -1.2737   21.3108  -35.2739 H   0  0  0  0  0  0  0  0  0  0  0  0
   -0.0475   18.8137  -32.2804 H   0  0  0  0  0  0  0  0  0  0  0  0
   -0.2293   17.7406  -33.7094 H   0  0  0  0  0  0  0  0  0  0  0  0
    1.0186   19.0326  -33.7094 H   0  0  0  0  0  0  0  0  0  0  0  0
    0.0530   22.1360  -28.9920 H   0  0  0  0  0  0  0  0  0  0  0  0
   -0.2817   26.7010  -28.9355 H   0  0  0  0  0  0  0  0  0  0  0  0
    0.3802   28.1829  -27.0449 H   0  0  0  0  0  0  0  0  0  0  0  0
  1  2  1  0
  2  3  2  0
  3  4  1  0
  4  5  2  0
  5  6  1  0
  6  7  1  0
  7  8  1  0
  8  9  2  0
  9 10  1  0
 10 11  2  0
 10 12  1  0
 12 13  1  0
 13 14  2  0
 14 15  1  0
 15 16  1  0
 16 17  2  0
 16 18  2  0
 16 19  1  0
 19 20  1  0
 20 21  1  0
 21 22  1  0
 22 23  1  0
 23 24  1  0
 15 25  2  0
 25 26  1  0
 26 27  2  0
 27 28  1  0
 28 29  1  0
 28 30  1  0
  9 31  1  0
 31 32  2  3
  5 33  1  0
 33 34  2  0
 34  2  1  0
 31  6  1  0
 27 13  1  0
 24 19  1  0
  1 35  1  0
  1 36  1  0
  1 37  1  0
  3 38  1  0
  4 39  1  0
  8 40  1  0
 14 41  1  0
 19 42  1  0
 20 43  1  0
 20 44  1  0
 21 45  1  0
 21 46  1  0
 22 47  1  0
 22 48  1  0
 23 49  1  0
 23 50  1  0
 24 51  1  0
 24 52  1  0
 25 53  1  0
 26 54  1  0
 29 55  1  0
 29 56  1  0
 29 57  1  0
 30 58  1  0
 30 59  1  0
 30 60  1  0
 32 61  1  0
 33 62  1  0
 34 63  1  0
M  CHG  3   7  -1  12  -1  19   1
M  END
>  <UniqueID>  (36) 
36

>  <SMILES>  (36) 
Cc1ccc(-n2[n-]cc(C(=O)[N-]c3cc(S(=O)(=O)[NH+]4CCCCC4)ccc3N(C)C)c2=N)cc1

>  <Energy>  (36) 
119.31138042082688

>  <Genealogy>  (36) 
Cc1ccc(-n2[n-]cc(C(=O)[N-]c3cc(S(=O)(=O)[NH+]4CCCCC4)ccc3N(C)C)c2=N)cc1 (protonated)
Cc1ccc(-n2[n-]cc(C(=O)[N-]c3cc(S(=O)(=O)[NH+]4CCCCC4)ccc3N(C)C)c2=N)cc1 (3D coordinates assigned)
Cc1ccc(-n2[n-]cc(C(=O)[N-]c3cc(S(=O)(=O)[NH+]4CCCCC4)ccc3N(C)C)c2=N)cc1 (nonaromatic ring conformer: 119.31138042082688 kcal/mol)

>  <smiles>  (36) 
Cc1ccc(-n2[nH]cc(C(=O)Nc3cc(S(=O)(=O)N4CCCCC4)ccc3N(C)C)c2=N)cc1

>  <score_type>  (36) 
oracle

>  <origin>  (36) 
adgpu

>  <m_score__min__energy>  (36) 
-10.93

>  <m_primary>  (36) 
energy

$$$$
36:0
     RDKit          3D

 54 56  0  0  0  0  0  0  0  0999 V2000
   -6.4370   17.4390  -33.7530 C   0  0  0  0  0  0  0  0  0  0  0  0
   -6.2330   18.9470  -33.6990 C   0  0  0  0  0  0  0  0  0  0  0  0
   -7.3130   19.7010  -32.4910 S   0  0  0  0  0  0  0  0  0  0  0  0
   -8.6980   19.8270  -33.0590 O   0  0  0  0  0  0  0  0  0  0  0  0
   -7.3920   18.8090  -31.2830 O   0  0  0  0  0  0  0  0  0  0  0  0
   -6.7000   21.2920  -32.0050 C   0  0  0  0  0  0  0  0  0  0  0  0
   -5.3340   21.5550  -32.1820 C   0  0  0  0  0  0  0  0  0  0  0  0
   -4.7800   22.7680  -31.7730 C   0  0  0  0  0  0  0  0  0  0  0  0
   -5.5810   23.7470  -31.1740 C   0  0  0  0  0  0  0  0  0  0  0  0
   -4.9940   25.0490  -30.7760 C   0  0  0  0  0  0  0  0  0  0  0  0
   -5.7270   26.0720  -30.7330 O   0  0  0  0  0  0  0  0  0  0  0  0
   -3.6010   25.1850  -30.4640 N   0  0  0  0  0  0  0  0  0  0  0  0
   -2.9340   24.5280  -29.3760 C   0  0  0  0  0  0  0  0  0  0  0  0
   -1.5450   24.6530  -29.2480 C   0  0  0  0  0  0  0  0  0  0  0  0
   -0.8640   23.9500  -28.2500 C   0  0  0  0  0  0  0  0  0  0  0  0
   -1.5710   23.1390  -27.3530 C   0  0  0  0  0  0  0  0  0  0  0  0
   -0.7110   22.1370  -26.1920 S   0  0  0  0  0  0  0  0  0  0  0  0
    0.6610   21.8090  -26.7110 O   0  0  0  0  0  0  0  0  0  0  0  0
   -1.4530   20.8480  -25.9710 O   0  0  0  0  0  0  0  0  0  0  0  0
   -0.5870   23.0210  -24.7030 N   0  0  0  0  0  0  0  0  0  0  0  0
   -0.1660   22.3030  -23.5020 C   0  0  0  0  0  0  0  0  0  0  0  0
   -0.4260   24.4440  -24.7710 C   0  0  0  0  0  0  0  0  0  0  0  0
    0.8390   25.0170  -24.5670 C   0  0  0  0  0  0  0  0  0  0  0  0
    0.9960   26.4050  -24.6210 C   0  0  0  0  0  0  0  0  0  0  0  0
   -0.1070   27.2270  -24.8710 C   0  0  0  0  0  0  0  0  0  0  0  0
   -1.3700   26.6620  -25.0700 C   0  0  0  0  0  0  0  0  0  0  0  0
   -1.5310   25.2750  -25.0210 C   0  0  0  0  0  0  0  0  0  0  0  0
   -2.9650   23.0500  -27.4490 C   0  0  0  0  0  0  0  0  0  0  0  0
   -3.6460   23.7480  -28.4480 C   0  0  0  0  0  0  0  0  0  0  0  0
   -6.9450   23.4800  -30.9690 C   0  0  0  0  0  0  0  0  0  0  0  0
   -7.5220   22.2770  -31.4040 C   0  0  0  0  0  0  0  0  0  0  0  0
   -8.9350   22.0890  -31.2330 N   0  0  0  0  0  0  0  0  0  0  0  0
   -9.3750   21.5470  -30.1980 O   0  0  0  0  0  0  0  0  0  0  0  0
   -9.7800   22.2560  -32.3050 O   0  0  0  0  0  0  0  0  0  0  0  0
   -6.4911   17.0394  -32.7296 H   0  0  0  0  0  0  0  0  0  0  0  0
   -7.3737   17.2145  -34.2842 H   0  0  0  0  0  0  0  0  0  0  0  0
   -5.5936   16.9737  -34.2842 H   0  0  0  0  0  0  0  0  0  0  0  0
   -5.1881   19.1585  -33.4280 H   0  0  0  0  0  0  0  0  0  0  0  0
   -6.4691   19.3666  -34.6881 H   0  0  0  0  0  0  0  0  0  0  0  0
   -4.6910   20.7948  -32.6495 H   0  0  0  0  0  0  0  0  0  0  0  0
   -3.7066   22.9564  -31.9222 H   0  0  0  0  0  0  0  0  0  0  0  0
   -0.9879   25.3067  -29.9353 H   0  0  0  0  0  0  0  0  0  0  0  0
    0.2298   24.0339  -28.1688 H   0  0  0  0  0  0  0  0  0  0  0  0
   -0.4915   22.8582  -22.6099 H   0  0  0  0  0  0  0  0  0  0  0  0
   -0.6196   21.3009  -23.4960 H   0  0  0  0  0  0  0  0  0  0  0  0
    0.9300   22.2095  -23.4960 H   0  0  0  0  0  0  0  0  0  0  0  0
    1.7076   24.3732  -24.3644 H   0  0  0  0  0  0  0  0  0  0  0  0
    1.9894   26.8514  -24.4665 H   0  0  0  0  0  0  0  0  0  0  0  0
    0.0192   28.3190  -24.9111 H   0  0  0  0  0  0  0  0  0  0  0  0
   -2.2374   27.3096  -25.2652 H   0  0  0  0  0  0  0  0  0  0  0  0
   -2.5256   24.8324  -25.1786 H   0  0  0  0  0  0  0  0  0  0  0  0
   -3.5253   22.4283  -26.7352 H   0  0  0  0  0  0  0  0  0  0  0  0
   -4.7426   23.6875  -28.5092 H   0  0  0  0  0  0  0  0  0  0  0  0
   -7.5713   24.2266  -30.4588 H   0  0  0  0  0  0  0  0  0  0  0  0
  1  2  1  0
  2  3  1  0
  3  4  2  0
  3  5  2  0
  3  6  1  0
  6  7  2  0
  7  8  1  0
  8  9  2  0
  9 10  1  0
 10 11  2  0
 10 12  1  0
 12 13  1  0
 13 14  2  0
 14 15  1  0
 15 16  2  0
 16 17  1  0
 17 18  2  0
 17 19  2  0
 17 20  1  0
 20 21  1  0
 20 22  1  0
 22 23  2  0
 23 24  1  0
 24 25  2  0
 25 26  1  0
 26 27  2  0
 16 28  1  0
 28 29  2  0
  9 30  1  0
 30 31  2  0
 31 32  1  0
 32 33  2  0
 32 34  1  0
 31  6  1  0
 29 13  1  0
 27 22  1  0
  1 35  1  0
  1 36  1  0
  1 37  1  0
  2 38  1  0
  2 39  1  0
  7 40  1  0
  8 41  1  0
 14 42  1  0
 15 43  1  0
 21 44  1  0
 21 45  1  0
 21 46  1  0
 23 47  1  0
 24 48  1  0
 25 49  1  0
 26 50  1  0
 27 51  1  0
 28 52  1  0
 29 53  1  0
 30 54  1  0
M  CHG  3  12  -1  32   1  34  -1
M  END
>  <UniqueID>  (37) 
37

>  <SMILES>  (37) 
CCS(=O)(=O)c1ccc(C(=O)[N-]c2ccc(S(=O)(=O)N(C)c3ccccc3)cc2)cc1[N+](=O)[O-]

>  <Energy>  (37) 
68.55015508854152

>  <Genealogy>  (37) 
CCS(=O)(=O)c1ccc(C(=O)[N-]c2ccc(S(=O)(=O)N(C)c3ccccc3)cc2)cc1[N+](=O)[O-] (protonated)
CCS(=O)(=O)c1ccc(C(=O)[N-]c2ccc(S(=O)(=O)N(C)c3ccccc3)cc2)cc1[N+](=O)[O-] (3D coordinates assigned)
CCS(=O)(=O)c1ccc(C(=O)[N-]c2ccc(S(=O)(=O)N(C)c3ccccc3)cc2)cc1[N+](=O)[O-] (optimized conformer: 68.55015508854152 kcal/mol)

>  <smiles>  (37) 
CCS(=O)(=O)c1ccc(C(=O)Nc2ccc(S(=O)(=O)N(C)c3ccccc3)cc2)cc1[N+](=O)[O-]

>  <score_type>  (37) 
oracle

>  <origin>  (37) 
adgpu

>  <m_score__min__energy>  (37) 
-12.48

>  <m_primary>  (37) 
energy

$$$$
37:0
     RDKit          3D

 37 39  0  0  0  0  0  0  0  0999 V2000
   -6.1710   22.5330  -32.7370 O   0  0  0  0  0  0  0  0  0  0  0  0
   -7.0430   21.7910  -32.2080 C   0  0  0  0  0  0  0  0  0  0  0  0
   -8.0000   22.4130  -31.2300 C   0  0  0  0  0  0  0  0  0  0  0  0
   -7.2030   22.6960  -29.6120 S   0  0  0  0  0  0  0  0  0  0  0  0
   -5.9250   23.7950  -30.2380 C   0  0  0  0  0  0  0  0  0  0  0  0
   -6.1810   24.9560  -30.8640 N   0  0  0  0  0  0  0  0  0  0  0  0
   -4.9910   25.4600  -31.1570 N   0  0  0  0  0  0  0  0  0  0  0  0
   -4.0360   24.6490  -30.7270 N   0  0  0  0  0  0  0  0  0  0  0  0
   -4.5940   23.5960  -30.1550 N   0  0  0  0  0  0  0  0  0  0  0  0
   -3.8690   22.5370  -29.5000 C   0  0  0  0  0  0  0  0  0  0  0  0
   -3.5980   22.6380  -28.1240 C   0  0  0  0  0  0  0  0  0  0  0  0
   -2.8590   21.6530  -27.4680 C   0  0  0  0  0  0  0  0  0  0  0  0
   -2.3590   20.5660  -28.1790 C   0  0  0  0  0  0  0  0  0  0  0  0
   -2.5990   20.4560  -29.5480 C   0  0  0  0  0  0  0  0  0  0  0  0
   -3.3730   21.4210  -30.2250 C   0  0  0  0  0  0  0  0  0  0  0  0
   -3.5970   21.2860  -31.7170 C   0  0  0  0  0  0  0  0  0  0  0  0
   -3.4950   22.5200  -32.3770 O   0  0  0  0  0  0  0  0  0  0  0  0
   -7.0500   20.3390  -32.5290 C   0  0  0  0  0  0  0  0  0  0  0  0
   -7.9660   19.4890  -31.8790 C   0  0  0  0  0  0  0  0  0  0  0  0
   -7.9880   18.1190  -32.1560 C   0  0  0  0  0  0  0  0  0  0  0  0
   -7.0900   17.5770  -33.0760 C   0  0  0  0  0  0  0  0  0  0  0  0
   -6.1700   18.4040  -33.7230 C   0  0  0  0  0  0  0  0  0  0  0  0
   -6.1460   19.7760  -33.4530 C   0  0  0  0  0  0  0  0  0  0  0  0
   -8.3475   23.3762  -31.6318 H   0  0  0  0  0  0  0  0  0  0  0  0
   -8.8455   21.7243  -31.0852 H   0  0  0  0  0  0  0  0  0  0  0  0
   -3.9729   23.5036  -27.5582 H   0  0  0  0  0  0  0  0  0  0  0  0
   -2.6713   21.7357  -26.3873 H   0  0  0  0  0  0  0  0  0  0  0  0
   -1.7737   19.7926  -27.6601 H   0  0  0  0  0  0  0  0  0  0  0  0
   -2.1796   19.6063  -30.1067 H   0  0  0  0  0  0  0  0  0  0  0  0
   -2.8426   20.5994  -32.1288 H   0  0  0  0  0  0  0  0  0  0  0  0
   -4.6147   20.8992  -31.8745 H   0  0  0  0  0  0  0  0  0  0  0  0
   -4.3010   23.0420  -32.1270 H   0  0  0  0  0  0  0  0  0  0  0  0
   -8.6713   19.9075  -31.1459 H   0  0  0  0  0  0  0  0  0  0  0  0
   -8.7142   17.4675  -31.6480 H   0  0  0  0  0  0  0  0  0  0  0  0
   -7.1069   16.4984  -33.2915 H   0  0  0  0  0  0  0  0  0  0  0  0
   -5.4619   17.9752  -34.4473 H   0  0  0  0  0  0  0  0  0  0  0  0
   -5.4165   20.4206  -33.9652 H   0  0  0  0  0  0  0  0  0  0  0  0
  1  2  2  0
  2  3  1  0
  3  4  1  0
  4  5  1  0
  5  6  2  0
  6  7  1  0
  7  8  2  0
  8  9  1  0
  9 10  1  0
 10 11  2  0
 11 12  1  0
 12 13  2  0
 13 14  1  0
 14 15  2  0
 15 16  1  0
 16 17  1  0
  2 18  1  0
 18 19  2  0
 19 20  1  0
 20 21  2  0
 21 22  1  0
 22 23  2  0
  9  5  1  0
 15 10  1  0
 23 18  1  0
  3 24  1  0
  3 25  1  0
 11 26  1  0
 12 27  1  0
 13 28  1  0
 14 29  1  0
 16 30  1  0
 16 31  1  0
 17 32  1  0
 19 33  1  0
 20 34  1  0
 21 35  1  0
 22 36  1  0
 23 37  1  0
M  END
>  <UniqueID>  (38) 
38

>  <SMILES>  (38) 
O=C(CSc1nnnn1-c1ccccc1CO)c1ccccc1

>  <Energy>  (38) 
82.60648809155524

>  <Genealogy>  (38) 
O=C(CSc1nnnn1-c1ccccc1CO)c1ccccc1 (3D coordinates assigned)
O=C(CSc1nnnn1-c1ccccc1CO)c1ccccc1 (optimized conformer: 82.60648809155524 kcal/mol)

>  <smiles>  (38) 
O=C(CSc1nnnn1-c1ccccc1CO)c1ccccc1

>  <score_type>  (38) 
oracle

>  <origin>  (38) 
adgpu

>  <m_score__min__energy>  (38) 
-9.9000000000000004

>  <m_primary>  (38) 
energy

$$$$
38:0
     RDKit          3D

 56 59  0  0  0  0  0  0  0  0999 V2000
   -6.2040   17.2750  -33.7420 C   0  0  0  0  0  0  0  0  0  0  0  0
   -6.8570   18.3390  -32.8990 C   0  0  0  0  0  0  0  0  0  0  0  0
   -8.1220   18.0780  -32.3460 C   0  0  0  0  0  0  0  0  0  0  0  0
   -8.7600   19.0310  -31.5550 C   0  0  0  0  0  0  0  0  0  0  0  0
   -8.1550   20.2630  -31.3180 C   0  0  0  0  0  0  0  0  0  0  0  0
   -6.8970   20.5540  -31.8600 C   0  0  0  0  0  0  0  0  0  0  0  0
   -6.3300   21.8520  -31.6200 N   0  0  0  0  0  0  0  0  0  0  0  0
   -6.7810   22.9390  -32.3080 C   0  0  0  0  0  0  0  0  0  0  0  0
   -6.2410   24.1940  -32.0450 C   0  0  0  0  0  0  0  0  0  0  0  0
   -5.2520   24.3250  -31.0720 C   0  0  0  0  0  0  0  0  0  0  0  0
   -4.7620   25.4620  -30.8370 O   0  0  0  0  0  0  0  0  0  0  0  0
   -4.8230   23.1810  -30.3720 C   0  0  0  0  0  0  0  0  0  0  0  0
   -3.7880   23.2310  -29.3100 C   0  0  0  0  0  0  0  0  0  0  0  0
   -3.2260   22.1700  -28.9230 O   0  0  0  0  0  0  0  0  0  0  0  0
   -3.4470   24.4850  -28.6940 N   0  0  0  0  0  0  0  0  0  0  0  0
   -2.2730   24.6890  -27.8890 C   0  0  0  0  0  0  0  0  0  0  0  0
   -1.3280   25.6480  -28.2810 C   0  0  0  0  0  0  0  0  0  0  0  0
   -0.1670   25.8490  -27.5280 C   0  0  0  0  0  0  0  0  0  0  0  0
    0.0730   25.0900  -26.3710 C   0  0  0  0  0  0  0  0  0  0  0  0
    1.3110   25.2950  -25.5840 C   0  0  0  0  0  0  0  0  0  0  0  0
    2.1460   24.3560  -25.4830 O   0  0  0  0  0  0  0  0  0  0  0  0
    1.5680   26.5380  -24.9070 N   0  0  0  0  0  0  0  0  0  0  0  0
    1.5320   27.8050  -25.6500 C   0  0  0  0  0  0  0  0  0  0  0  0
    1.1320   28.9850  -24.7320 C   0  0  0  0  0  0  0  0  0  0  0  0
    1.0650   28.6420  -23.3580 O   0  0  0  0  0  0  0  0  0  0  0  0
    2.2170   27.9210  -22.9800 C   0  0  0  0  0  0  0  0  0  0  0  0
    2.1420   26.5070  -23.5580 C   0  0  0  0  0  0  0  0  0  0  0  0
   -0.8580   24.1030  -26.0000 C   0  0  0  0  0  0  0  0  0  0  0  0
   -2.0180   23.9030  -26.7520 C   0  0  0  0  0  0  0  0  0  0  0  0
   -5.3930   21.9820  -30.6770 N   0  0  0  0  0  0  0  0  0  0  0  0
   -6.2100   19.5710  -32.6180 C   0  0  0  0  0  0  0  0  0  0  0  0
   -4.8180   19.8450  -33.1410 C   0  0  0  0  0  0  0  0  0  0  0  0
   -5.7415   16.5214  -33.0877 H   0  0  0  0  0  0  0  0  0  0  0  0
   -6.9623   16.7935  -34.3769 H   0  0  0  0  0  0  0  0  0  0  0  0
   -5.4314   17.7331  -34.3769 H   0  0  0  0  0  0  0  0  0  0  0  0
   -8.6129   17.1128  -32.5393 H   0  0  0  0  0  0  0  0  0  0  0  0
   -9.7443   18.8099  -31.1164 H   0  0  0  0  0  0  0  0  0  0  0  0
   -8.6696   21.0135  -30.7000 H   0  0  0  0  0  0  0  0  0  0  0  0
   -7.5683   22.8244  -33.0676 H   0  0  0  0  0  0  0  0  0  0  0  0
   -6.5920   25.0760  -32.6008 H   0  0  0  0  0  0  0  0  0  0  0  0
   -4.1350   25.2700  -28.7550 H   0  0  0  0  0  0  0  0  0  0  0  0
   -1.5013   26.2465  -29.1875 H   0  0  0  0  0  0  0  0  0  0  0  0
    0.5641   26.6076  -27.8444 H   0  0  0  0  0  0  0  0  0  0  0  0
    2.5288   28.0013  -26.0718 H   0  0  0  0  0  0  0  0  0  0  0  0
    0.7812   27.7173  -26.4491 H   0  0  0  0  0  0  0  0  0  0  0  0
    1.8751   29.7868  -24.8537 H   0  0  0  0  0  0  0  0  0  0  0  0
    0.1219   29.2987  -25.0342 H   0  0  0  0  0  0  0  0  0  0  0  0
    3.1121   28.4293  -23.3679 H   0  0  0  0  0  0  0  0  0  0  0  0
    2.2741   27.8675  -21.8828 H   0  0  0  0  0  0  0  0  0  0  0  0
    3.1546   26.0798  -23.6043 H   0  0  0  0  0  0  0  0  0  0  0  0
    1.5016   25.8896  -22.9109 H   0  0  0  0  0  0  0  0  0  0  0  0
   -0.6710   23.4836  -25.1104 H   0  0  0  0  0  0  0  0  0  0  0  0
   -2.7363   23.1256  -26.4525 H   0  0  0  0  0  0  0  0  0  0  0  0
   -4.1285   19.9807  -32.2947 H   0  0  0  0  0  0  0  0  0  0  0  0
   -4.4830   18.9956  -33.7544 H   0  0  0  0  0  0  0  0  0  0  0  0
   -4.8299   20.7580  -33.7544 H   0  0  0  0  0  0  0  0  0  0  0  0
  1  2  1  0
  2  3  2  0
  3  4  1  0
  4  5  2  0
  5  6  1  0
  6  7  1  0
  7  8  1  0
  8  9  2  0
  9 10  1  0
 10 11  2  0
 10 12  1  0
 12 13  1  0
 13 14  2  0
 13 15  1  0
 15 16  1  0
 16 17  2  0
 17 18  1  0
 18 19  2  0
 19 20  1  0
 20 21  2  0
 20 22  1  0
 22 23  1  0
 23 24  1  0
 24 25  1  0
 25 26  1  0
 26 27  1  0
 19 28  1  0
 28 29  2  0
 12 30  2  0
  6 31  2  0
 31 32  1  0
 31  2  1  0
 30  7  1  0
 29 16  1  0
 27 22  1  0
  1 33  1  0
  1 34  1  0
  1 35  1  0
  3 36  1  0
  4 37  1  0
  5 38  1  0
  8 39  1  0
  9 40  1  0
 15 41  1  0
 17 42  1  0
 18 43  1  0
 23 44  1  0
 23 45  1  0
 24 46  1  0
 24 47  1  0
 26 48  1  0
 26 49  1  0
 27 50  1  0
 27 51  1  0
 28 52  1  0
 29 53  1  0
 32 54  1  0
 32 55  1  0
 32 56  1  0
M  END
>  <UniqueID>  (39) 
39

>  <SMILES>  (39) 
Cc1cccc(-n2ccc(=O)c(C(=O)Nc3ccc(C(=O)N4CCOCC4)cc3)n2)c1C

>  <Energy>  (39) 
84.72383006577961

>  <Genealogy>  (39) 
Cc1cccc(-n2ccc(=O)c(C(=O)Nc3ccc(C(=O)N4CCOCC4)cc3)n2)c1C (3D coordinates assigned)
Cc1cccc(-n2ccc(=O)c(C(=O)Nc3ccc(C(=O)N4CCOCC4)cc3)n2)c1C (nonaromatic ring conformer: 84.72383006577961 kcal/mol)

>  <smiles>  (39) 
Cc1cccc(-n2ccc(=O)c(C(=O)Nc3ccc(C(=O)N4CCOCC4)cc3)n2)c1C

>  <score_type>  (39) 
oracle

>  <origin>  (39) 
adgpu

>  <m_score__min__energy>  (39) 
-9.9900000000000002

>  <m_primary>  (39) 
energy

$$$$
39:0
     RDKit          3D

 32 33  0  0  0  0  0  0  0  0999 V2000
   -6.4810   25.6780  -29.3690 C   0  0  0  0  0  0  0  0  0  0  0  0
   -6.2940   25.1890  -30.6940 O   0  0  0  0  0  0  0  0  0  0  0  0
   -5.6700   23.9730  -31.0150 C   0  0  0  0  0  0  0  0  0  0  0  0
   -6.3960   22.8800  -31.5300 C   0  0  0  0  0  0  0  0  0  0  0  0
   -5.7380   21.7010  -31.8920 C   0  0  0  0  0  0  0  0  0  0  0  0
   -6.6500   20.3500  -32.5400 Cl  0  0  0  0  0  0  0  0  0  0  0  0
   -4.3520   21.6030  -31.7530 C   0  0  0  0  0  0  0  0  0  0  0  0
   -3.6250   22.6770  -31.2350 C   0  0  0  0  0  0  0  0  0  0  0  0
   -4.2760   23.8500  -30.8360 C   0  0  0  0  0  0  0  0  0  0  0  0
   -3.4900   24.9300  -30.3160 N   0  0  0  0  0  0  0  0  0  0  0  0
   -2.5460   24.8460  -29.2400 C   0  0  0  0  0  0  0  0  0  0  0  0
   -1.4770   25.5070  -29.3240 O   0  0  0  0  0  0  0  0  0  0  0  0
   -2.7560   23.9090  -28.0660 C   0  0  0  0  0  0  0  0  0  0  0  0
   -1.8860   24.3120  -26.8800 C   0  0  0  0  0  0  0  0  0  0  0  0
   -2.7330   25.2520  -26.0340 C   0  0  0  0  0  0  0  0  0  0  0  0
   -4.1910   24.9370  -26.3600 C   0  0  0  0  0  0  0  0  0  0  0  0
   -4.1910   23.9700  -27.5420 C   0  0  0  0  0  0  0  0  0  0  0  0
   -6.1846   24.9029  -28.6469 H   0  0  0  0  0  0  0  0  0  0  0  0
   -5.8625   26.5751  -29.2185 H   0  0  0  0  0  0  0  0  0  0  0  0
   -7.5403   25.9335  -29.2185 H   0  0  0  0  0  0  0  0  0  0  0  0
   -7.4871   22.9553  -31.6478 H   0  0  0  0  0  0  0  0  0  0  0  0
   -3.8330   20.6802  -32.0514 H   0  0  0  0  0  0  0  0  0  0  0  0
   -2.5318   22.6004  -31.1398 H   0  0  0  0  0  0  0  0  0  0  0  0
   -2.5062   22.9062  -28.4427 H   0  0  0  0  0  0  0  0  0  0  0  0
   -1.6021   23.4242  -26.2959 H   0  0  0  0  0  0  0  0  0  0  0  0
   -0.9561   24.7976  -27.2109 H   0  0  0  0  0  0  0  0  0  0  0  0
   -2.5375   25.0809  -24.9651 H   0  0  0  0  0  0  0  0  0  0  0  0
   -2.4960   26.3039  -26.2514 H   0  0  0  0  0  0  0  0  0  0  0  0
   -4.6790   24.4705  -25.4915 H   0  0  0  0  0  0  0  0  0  0  0  0
   -4.7430   25.8558  -26.6073 H   0  0  0  0  0  0  0  0  0  0  0  0
   -4.5167   22.9718  -27.2141 H   0  0  0  0  0  0  0  0  0  0  0  0
   -4.8829   24.3083  -28.3274 H   0  0  0  0  0  0  0  0  0  0  0  0
  1  2  1  0
  2  3  1  0
  3  4  2  0
  4  5  1  0
  5  6  1  0
  5  7  2  0
  7  8  1  0
  8  9  2  0
  9 10  1  0
 10 11  1  0
 11 12  2  0
 11 13  1  0
 13 14  1  0
 14 15  1  0
 15 16  1  0
 16 17  1  0
  9  3  1  0
 17 13  1  0
  1 18  1  0
  1 19  1  0
  1 20  1  0
  4 21  1  0
  7 22  1  0
  8 23  1  0
 13 24  1  0
 14 25  1  0
 14 26  1  0
 15 27  1  0
 15 28  1  0
 16 29  1  0
 16 30  1  0
 17 31  1  0
 17 32  1  0
M  CHG  1  10  -1
M  END
>  <UniqueID>  (40) 
40

>  <SMILES>  (40) 
COc1cc(Cl)ccc1[N-]C(=O)C1CCCC1

>  <Energy>  (40) 
36.89898403975848

>  <Genealogy>  (40) 
COc1cc(Cl)ccc1[N-]C(=O)C1CCCC1 (protonated)
COc1cc(Cl)ccc1[N-]C(=O)C1CCCC1 (3D coordinates assigned)
COc1cc(Cl)ccc1[N-]C(=O)C1CCCC1 (nonaromatic ring conformer: 36.89898403975848 kcal/mol)

>  <smiles>  (40) 
COc1cc(Cl)ccc1NC(=O)C1CCCC1

>  <score_type>  (40) 
oracle

>  <origin>  (40) 
adgpu

>  <m_score__min__energy>  (40) 
-8.7699999999999996

>  <m_primary>  (40) 
energy

$$$$
40:0
     RDKit          3D

 42 44  0  0  0  0  0  0  0  0999 V2000
   -0.1720   23.1130  -28.3660 C   0  0  0  0  0  0  0  0  0  0  0  0
   -0.5780   23.2670  -29.7230 O   0  0  0  0  0  0  0  0  0  0  0  0
   -1.5660   22.4920  -30.3540 C   0  0  0  0  0  0  0  0  0  0  0  0
   -1.2680   21.2440  -30.9300 C   0  0  0  0  0  0  0  0  0  0  0  0
   -2.2640   20.5010  -31.5690 C   0  0  0  0  0  0  0  0  0  0  0  0
   -3.5750   20.9900  -31.6520 C   0  0  0  0  0  0  0  0  0  0  0  0
   -4.6120   20.1890  -32.3390 C   0  0  0  0  0  0  0  0  0  0  0  0
   -5.5500   19.3480  -31.7630 C   0  0  0  0  0  0  0  0  0  0  0  0
   -6.2490   18.8560  -32.8440 C   0  0  0  0  0  0  0  0  0  0  0  0
   -7.4280   17.9450  -32.7800 C   0  0  0  0  0  0  0  0  0  0  0  0
   -5.7670   19.3880  -33.9820 N   0  0  0  0  0  0  0  0  0  0  0  0
   -4.7870   20.1730  -33.6430 O   0  0  0  0  0  0  0  0  0  0  0  0
   -3.8750   22.2380  -31.0780 C   0  0  0  0  0  0  0  0  0  0  0  0
   -2.8840   22.9820  -30.4180 C   0  0  0  0  0  0  0  0  0  0  0  0
   -3.3120   24.5450  -29.7080 S   0  0  0  0  0  0  0  0  0  0  0  0
   -4.1360   24.3490  -28.4670 O   0  0  0  0  0  0  0  0  0  0  0  0
   -2.0470   25.2700  -29.3460 O   0  0  0  0  0  0  0  0  0  0  0  0
   -4.2090   25.5120  -30.8440 N   0  0  0  0  0  0  0  0  0  0  0  0
   -5.6190   25.6090  -30.4590 C   0  0  0  0  0  0  0  0  0  0  0  0
   -6.3490   24.3340  -30.7840 C   0  0  0  0  0  0  0  0  0  0  0  0
   -6.9180   23.5660  -29.7550 C   0  0  0  0  0  0  0  0  0  0  0  0
   -7.5960   22.3790  -30.0520 C   0  0  0  0  0  0  0  0  0  0  0  0
   -7.7120   21.9520  -31.3780 C   0  0  0  0  0  0  0  0  0  0  0  0
   -7.1520   22.7120  -32.4080 C   0  0  0  0  0  0  0  0  0  0  0  0
   -6.4740   23.9000  -32.1150 C   0  0  0  0  0  0  0  0  0  0  0  0
   -0.9911   23.4237  -27.7007 H   0  0  0  0  0  0  0  0  0  0  0  0
    0.0757   22.0585  -28.1748 H   0  0  0  0  0  0  0  0  0  0  0  0
    0.7128   23.7380  -28.1748 H   0  0  0  0  0  0  0  0  0  0  0  0
   -0.2425   20.8496  -30.8770 H   0  0  0  0  0  0  0  0  0  0  0  0
   -2.0172   19.5242  -32.0106 H   0  0  0  0  0  0  0  0  0  0  0  0
   -5.7010   19.1257  -30.6963 H   0  0  0  0  0  0  0  0  0  0  0  0
   -7.6827   17.7482  -31.7281 H   0  0  0  0  0  0  0  0  0  0  0  0
   -8.2846   18.4181  -33.2823 H   0  0  0  0  0  0  0  0  0  0  0  0
   -7.1863   16.9967  -33.2823 H   0  0  0  0  0  0  0  0  0  0  0  0
   -4.8981   22.6361  -31.1468 H   0  0  0  0  0  0  0  0  0  0  0  0
   -5.6856   25.7974  -29.3773 H   0  0  0  0  0  0  0  0  0  0  0  0
   -6.0823   26.4341  -31.0198 H   0  0  0  0  0  0  0  0  0  0  0  0
   -6.8301   23.8995  -28.7105 H   0  0  0  0  0  0  0  0  0  0  0  0
   -8.0382   21.7811  -29.2414 H   0  0  0  0  0  0  0  0  0  0  0  0
   -8.2441   21.0178  -31.6105 H   0  0  0  0  0  0  0  0  0  0  0  0
   -7.2444   22.3756  -33.4512 H   0  0  0  0  0  0  0  0  0  0  0  0
   -6.0371   24.4967  -32.9293 H   0  0  0  0  0  0  0  0  0  0  0  0
  1  2  1  0
  2  3  1  0
  3  4  2  0
  4  5  1  0
  5  6  2  0
  6  7  1  0
  7  8  2  0
  8  9  1  0
  9 10  1  0
  9 11  2  0
 11 12  1  0
  6 13  1  0
 13 14  2  0
 14 15  1  0
 15 16  2  0
 15 17  2  0
 15 18  1  0
 18 19  1  0
 19 20  1  0
 20 21  2  0
 21 22  1  0
 22 23  2  0
 23 24  1  0
 24 25  2  0
 14  3  1  0
 25 20  1  0
 12  7  1  0
  1 26  1  0
  1 27  1  0
  1 28  1  0
  4 29  1  0
  5 30  1  0
  8 31  1  0
 10 32  1  0
 10 33  1  0
 10 34  1  0
 13 35  1  0
 19 36  1  0
 19 37  1  0
 21 38  1  0
 22 39  1  0
 23 40  1  0
 24 41  1  0
 25 42  1  0
M  CHG  1  18  -1
M  END
>  <UniqueID>  (41) 
41

>  <SMILES>  (41) 
COc1ccc(-c2cc(C)no2)cc1S(=O)(=O)[N-]Cc1ccccc1

>  <Energy>  (41) 
73.20414482996333

>  <Genealogy>  (41) 
COc1ccc(-c2cc(C)no2)cc1S(=O)(=O)[N-]Cc1ccccc1 (protonated)
COc1ccc(-c2cc(C)no2)cc1S(=O)(=O)[N-]Cc1ccccc1 (3D coordinates assigned)
COc1ccc(-c2cc(C)no2)cc1S(=O)(=O)[N-]Cc1ccccc1 (optimized conformer: 73.20414482996333 kcal/mol)

>  <smiles>  (41) 
COc1ccc(-c2cc(C)no2)cc1S(=O)(=O)NCc1ccccc1

>  <score_type>  (41) 
oracle

>  <origin>  (41) 
adgpu

>  <m_score__min__energy>  (41) 
-9.8200000000000003

>  <m_primary>  (41) 
energy

$$$$
41:0
     RDKit          3D

 52 55  0  0  0  0  0  0  0  0999 V2000
   -5.2880   15.9790  -32.7570 C   0  0  0  0  0  0  0  0  0  0  0  0
   -5.9940   17.3090  -32.7650 C   0  0  0  0  0  0  0  0  0  0  0  0
   -6.8090   17.6620  -31.6790 C   0  0  0  0  0  0  0  0  0  0  0  0
   -7.4720   18.8900  -31.6540 C   0  0  0  0  0  0  0  0  0  0  0  0
   -7.3380   19.7890  -32.7230 C   0  0  0  0  0  0  0  0  0  0  0  0
   -7.9850   21.0700  -32.7270 N   0  0  0  0  0  0  0  0  0  0  0  0
   -8.0070   22.0190  -31.6530 C   0  0  0  0  0  0  0  0  0  0  0  0
   -9.0980   22.3150  -31.0940 O   0  0  0  0  0  0  0  0  0  0  0  0
   -6.7570   22.6980  -31.2360 C   0  0  0  0  0  0  0  0  0  0  0  0
   -6.8050   23.9000  -30.5070 C   0  0  0  0  0  0  0  0  0  0  0  0
   -5.6280   24.5400  -30.1110 C   0  0  0  0  0  0  0  0  0  0  0  0
   -4.3740   23.9920  -30.4350 C   0  0  0  0  0  0  0  0  0  0  0  0
   -3.1430   24.6270  -30.0410 N   0  0  0  0  0  0  0  0  0  0  0  0
   -2.0340   23.9110  -29.4140 C   0  0  0  0  0  0  0  0  0  0  0  0
   -1.6820   24.5410  -28.1430 N   0  0  0  0  0  0  0  0  0  0  0  0
   -1.5580   23.9270  -26.9460 C   0  0  0  0  0  0  0  0  0  0  0  0
   -1.8120   22.5780  -26.7290 O   0  0  0  0  0  0  0  0  0  0  0  0
   -1.1300   24.8250  -25.9880 C   0  0  0  0  0  0  0  0  0  0  0  0
   -0.9680   26.0290  -26.6250 C   0  0  0  0  0  0  0  0  0  0  0  0
   -1.3010   25.8220  -27.9490 C   0  0  0  0  0  0  0  0  0  0  0  0
   -1.2430   26.7820  -28.9530 O   0  0  0  0  0  0  0  0  0  0  0  0
   -0.4580   27.2670  -25.9600 C   0  0  0  0  0  0  0  0  0  0  0  0
   -0.2780   27.0660  -24.4690 C   0  0  0  0  0  0  0  0  0  0  0  0
   -0.4380   25.8790  -23.8410 C   0  0  0  0  0  0  0  0  0  0  0  0
   -0.8260   24.5940  -24.5440 C   0  0  0  0  0  0  0  0  0  0  0  0
   -4.3260   22.7910  -31.1570 C   0  0  0  0  0  0  0  0  0  0  0  0
   -5.5020   22.1490  -31.5560 C   0  0  0  0  0  0  0  0  0  0  0  0
   -6.5000   19.4580  -33.7940 C   0  0  0  0  0  0  0  0  0  0  0  0
   -5.8210   18.2270  -33.8280 C   0  0  0  0  0  0  0  0  0  0  0  0
   -4.9510   17.8990  -35.0130 C   0  0  0  0  0  0  0  0  0  0  0  0
   -5.1187   15.6600  -31.7180 H   0  0  0  0  0  0  0  0  0  0  0  0
   -5.9081   15.2316  -33.2736 H   0  0  0  0  0  0  0  0  0  0  0  0
   -4.3215   16.0738  -33.2736 H   0  0  0  0  0  0  0  0  0  0  0  0
   -6.9268   16.9631  -30.8377 H   0  0  0  0  0  0  0  0  0  0  0  0
   -8.1025   19.1543  -30.7922 H   0  0  0  0  0  0  0  0  0  0  0  0
   -7.7787   24.3403  -30.2462 H   0  0  0  0  0  0  0  0  0  0  0  0
   -5.6825   25.4795  -29.5415 H   0  0  0  0  0  0  0  0  0  0  0  0
   -3.0350   25.6520  -30.2210 H   0  0  0  0  0  0  0  0  0  0  0  0
   -2.3312   22.8676  -29.2325 H   0  0  0  0  0  0  0  0  0  0  0  0
   -1.1620   23.9415  -30.0839 H   0  0  0  0  0  0  0  0  0  0  0  0
    0.5119   27.5366  -26.4034 H   0  0  0  0  0  0  0  0  0  0  0  0
   -1.1962   28.0682  -26.1123 H   0  0  0  0  0  0  0  0  0  0  0  0
   -0.0002   27.9390  -23.8601 H   0  0  0  0  0  0  0  0  0  0  0  0
   -0.2766   25.8443  -22.7535 H   0  0  0  0  0  0  0  0  0  0  0  0
    0.0061   23.8789  -24.4647 H   0  0  0  0  0  0  0  0  0  0  0  0
   -1.7322   24.1990  -24.0615 H   0  0  0  0  0  0  0  0  0  0  0  0
   -3.3517   22.3488  -31.4124 H   0  0  0  0  0  0  0  0  0  0  0  0
   -5.4456   21.2086  -32.1238 H   0  0  0  0  0  0  0  0  0  0  0  0
   -6.3706   20.1713  -34.6213 H   0  0  0  0  0  0  0  0  0  0  0  0
   -3.9758   17.5313  -34.6613 H   0  0  0  0  0  0  0  0  0  0  0  0
   -5.4378   17.1227  -35.6216 H   0  0  0  0  0  0  0  0  0  0  0  0
   -4.8041   18.8035  -35.6216 H   0  0  0  0  0  0  0  0  0  0  0  0
  1  2  1  0
  2  3  2  0
  3  4  1  0
  4  5  2  0
  5  6  1  0
  6  7  1  0
  7  8  2  0
  7  9  1  0
  9 10  2  0
 10 11  1  0
 11 12  2  0
 12 13  1  0
 13 14  1  0
 14 15  1  0
 15 16  1  0
 16 17  1  0
 16 18  2  0
 18 19  1  0
 19 20  2  0
 20 21  1  0
 19 22  1  0
 22 23  1  0
 23 24  2  0
 24 25  1  0
 12 26  1  0
 26 27  2  0
  5 28  1  0
 28 29  2  0
 29 30  1  0
 29  2  1  0
 27  9  1  0
 20 15  1  0
 25 18  1  0
  1 31  1  0
  1 32  1  0
  1 33  1  0
  3 34  1  0
  4 35  1  0
 10 36  1  0
 11 37  1  0
 13 38  1  0
 14 39  1  0
 14 40  1  0
 22 41  1  0
 22 42  1  0
 23 43  1  0
 24 44  1  0
 25 45  1  0
 25 46  1  0
 26 47  1  0
 27 48  1  0
 28 49  1  0
 30 50  1  0
 30 51  1  0
 30 52  1  0
M  CHG  3   6  -1  17  -1  21  -1
M  END
>  <UniqueID>  (42) 
42

>  <SMILES>  (42) 
Cc1ccc([N-]C(=O)c2ccc(NCn3c([O-])c4c(c3[O-])CC=CC4)cc2)cc1C

>  <Energy>  (42) 
92.1073922926474

>  <Genealogy>  (42) 
Cc1ccc([N-]C(=O)c2ccc(NCn3c([O-])c4c(c3[O-])CC=CC4)cc2)cc1C (protonated)
Cc1ccc([N-]C(=O)c2ccc(NCn3c([O-])c4c(c3[O-])CC=CC4)cc2)cc1C (3D coordinates assigned)
Cc1ccc([N-]C(=O)c2ccc(NCn3c([O-])c4c(c3[O-])CC=CC4)cc2)cc1C (nonaromatic ring conformer: 92.1073922926474 kcal/mol)

>  <smiles>  (42) 
Cc1ccc(NC(=O)c2ccc(NCn3c(O)c4c(c3O)CC=CC4)cc2)cc1C

>  <score_type>  (42) 
oracle

>  <origin>  (42) 
adgpu

>  <m_score__min__energy>  (42) 
-12.890000000000001

>  <m_primary>  (42) 
energy

$$$$
42:0
     RDKit          3D

 59 63  0  0  0  0  0  0  0  0999 V2000
   -8.8950   23.6270  -31.9800 N   0  0  0  0  0  0  0  0  0  0  0  0
   -7.7600   23.4510  -31.8520 C   0  0  0  0  0  0  0  0  0  0  0  0
   -6.3410   23.2300  -31.6890 C   0  0  0  0  0  0  0  0  0  0  0  0
   -5.6060   24.0760  -30.8510 C   0  0  0  0  0  0  0  0  0  0  0  0
   -4.2220   23.9070  -30.6940 C   0  0  0  0  0  0  0  0  0  0  0  0
   -3.5070   24.7990  -29.8250 N   0  0  0  0  0  0  0  0  0  0  0  0
   -3.3590   24.6290  -28.4130 C   0  0  0  0  0  0  0  0  0  0  0  0
   -4.2550   24.0390  -27.7450 O   0  0  0  0  0  0  0  0  0  0  0  0
   -2.2070   25.1820  -27.7650 N   0  0  0  0  0  0  0  0  0  0  0  0
   -2.0570   25.2380  -26.3360 C   0  0  0  0  0  0  0  0  0  0  0  0
   -3.0690   25.3040  -25.5840 O   0  0  0  0  0  0  0  0  0  0  0  0
   -0.7090   25.2920  -25.7390 C   0  0  0  0  0  0  0  0  0  0  0  0
   -0.1910   24.1760  -25.0630 C   0  0  0  0  0  0  0  0  0  0  0  0
    1.0980   24.2100  -24.5270 C   0  0  0  0  0  0  0  0  0  0  0  0
    1.8900   25.3530  -24.6840 C   0  0  0  0  0  0  0  0  0  0  0  0
    3.6160   25.3140  -24.1880 S   0  0  0  0  0  0  0  0  0  0  0  0
    3.7350   27.0740  -23.8390 C   0  0  0  0  0  0  0  0  0  0  0  0
    4.3060   27.9510  -24.7730 C   0  0  0  0  0  0  0  0  0  0  0  0
    4.2820   29.3360  -24.5440 C   0  0  0  0  0  0  0  0  0  0  0  0
    3.6970   29.8430  -23.3770 C   0  0  0  0  0  0  0  0  0  0  0  0
    3.1350   28.9660  -22.4400 C   0  0  0  0  0  0  0  0  0  0  0  0
    3.1560   27.5880  -22.6700 C   0  0  0  0  0  0  0  0  0  0  0  0
    1.3660   26.4760  -25.3370 C   0  0  0  0  0  0  0  0  0  0  0  0
    0.0680   26.4530  -25.8490 C   0  0  0  0  0  0  0  0  0  0  0  0
   -3.5760   22.8730  -31.4080 C   0  0  0  0  0  0  0  0  0  0  0  0
   -4.3110   22.0180  -32.2360 C   0  0  0  0  0  0  0  0  0  0  0  0
   -5.6940   22.1860  -32.3660 C   0  0  0  0  0  0  0  0  0  0  0  0
   -6.4120   21.3300  -33.1950 O   0  0  0  0  0  0  0  0  0  0  0  0
   -6.7740   19.9880  -32.9500 C   0  0  0  0  0  0  0  0  0  0  0  0
   -7.9400   19.8490  -32.1840 C   0  0  0  0  0  0  0  0  0  0  0  0
   -8.4040   18.6000  -31.7820 C   0  0  0  0  0  0  0  0  0  0  0  0
   -7.7020   17.4530  -32.1200 C   0  0  0  0  0  0  0  0  0  0  0  0
   -6.5410   17.5390  -32.8960 C   0  0  0  0  0  0  0  0  0  0  0  0
   -5.8580   16.3550  -33.2320 C   0  0  0  0  0  0  0  0  0  0  0  0
   -4.7200   16.4000  -34.0330 C   0  0  0  0  0  0  0  0  0  0  0  0
   -4.2620   17.6170  -34.5270 C   0  0  0  0  0  0  0  0  0  0  0  0
   -4.9220   18.8020  -34.2020 C   0  0  0  0  0  0  0  0  0  0  0  0
   -6.0640   18.8060  -33.3580 C   0  0  0  0  0  0  0  0  0  0  0  0
   -6.1196   24.8835  -30.3086 H   0  0  0  0  0  0  0  0  0  0  0  0
   -3.1090   25.6720  -30.2350 H   0  0  0  0  0  0  0  0  0  0  0  0
   -1.3990   25.4450  -28.3710 H   0  0  0  0  0  0  0  0  0  0  0  0
   -0.8042   23.2692  -24.9549 H   0  0  0  0  0  0  0  0  0  0  0  0
    1.4905   23.3390  -23.9818 H   0  0  0  0  0  0  0  0  0  0  0  0
    4.7731   27.5532  -25.6860 H   0  0  0  0  0  0  0  0  0  0  0  0
    4.7228   30.0230  -25.2814 H   0  0  0  0  0  0  0  0  0  0  0  0
    3.6788   30.9279  -23.1963 H   0  0  0  0  0  0  0  0  0  0  0  0
    2.6767   29.3628  -21.5221 H   0  0  0  0  0  0  0  0  0  0  0  0
    2.7161   26.9029  -21.9303 H   0  0  0  0  0  0  0  0  0  0  0  0
    1.9812   27.3812  -25.4469 H   0  0  0  0  0  0  0  0  0  0  0  0
   -0.3455   27.3467  -26.3392 H   0  0  0  0  0  0  0  0  0  0  0  0
   -2.4883   22.7395  -31.3122 H   0  0  0  0  0  0  0  0  0  0  0  0
   -3.8012   21.2128  -32.7854 H   0  0  0  0  0  0  0  0  0  0  0  0
   -8.5018   20.7491  -31.8937 H   0  0  0  0  0  0  0  0  0  0  0  0
   -9.3306   18.5225  -31.1943 H   0  0  0  0  0  0  0  0  0  0  0  0
   -8.0595   16.4711  -31.7765 H   0  0  0  0  0  0  0  0  0  0  0  0
   -6.2258   15.3876  -32.8593 H   0  0  0  0  0  0  0  0  0  0  0  0
   -4.1822   15.4716  -34.2756 H   0  0  0  0  0  0  0  0  0  0  0  0
   -3.3751   17.6450  -35.1771 H   0  0  0  0  0  0  0  0  0  0  0  0
   -4.5498   19.7541  -34.6083 H   0  0  0  0  0  0  0  0  0  0  0  0
  1  2  3  0
  2  3  1  0
  3  4  2  0
  4  5  1  0
  5  6  1  0
  6  7  1  0
  7  8  2  0
  7  9  1  0
  9 10  1  0
 10 11  2  0
 10 12  1  0
 12 13  2  0
 13 14  1  0
 14 15  2  0
 15 16  1  0
 16 17  1  0
 17 18  2  0
 18 19  1  0
 19 20  2  0
 20 21  1  0
 21 22  2  0
 15 23  1  0
 23 24  2  0
  5 25  2  0
 25 26  1  0
 26 27  2  0
 27 28  1  0
 28 29  1  0
 29 30  2  0
 30 31  1  0
 31 32  2  0
 32 33  1  0
 33 34  2  0
 34 35  1  0
 35 36  2  0
 36 37  1  0
 37 38  2  0
 27  3  1  0
 38 29  1  0
 24 12  1  0
 38 33  1  0
 22 17  1  0
  4 39  1  0
  6 40  1  0
  9 41  1  0
 13 42  1  0
 14 43  1  0
 18 44  1  0
 19 45  1  0
 20 46  1  0
 21 47  1  0
 22 48  1  0
 23 49  1  0
 24 50  1  0
 25 51  1  0
 26 52  1  0
 30 53  1  0
 31 54  1  0
 32 55  1  0
 34 56  1  0
 35 57  1  0
 36 58  1  0
 37 59  1  0
M  END
>  <UniqueID>  (43) 
43

>  <SMILES>  (43) 
N#Cc1cc(NC(=O)NC(=O)c2ccc(Sc3ccccc3)cc2)ccc1Oc1cccc2ccccc12

>  <Energy>  (43) 
94.130574277029

>  <Genealogy>  (43) 
N#Cc1cc(NC(=O)NC(=O)c2ccc(Sc3ccccc3)cc2)ccc1Oc1cccc2ccccc12 (3D coordinates assigned)
N#Cc1cc(NC(=O)NC(=O)c2ccc(Sc3ccccc3)cc2)ccc1Oc1cccc2ccccc12 (optimized conformer: 94.130574277029 kcal/mol)

>  <smiles>  (43) 
N#Cc1cc(NC(=O)NC(=O)c2ccc(Sc3ccccc3)cc2)ccc1Oc1cccc2ccccc12

>  <score_type>  (43) 
oracle

>  <origin>  (43) 
adgpu

>  <m_score__min__energy>  (43) 
-10.6

>  <m_primary>  (43) 
energy

$$$$
43:0
     RDKit          3D

 33 35  0  0  0  0  0  0  0  0999 V2000
   -9.4820   18.9730  -32.5980 C   0  0  0  0  0  0  0  0  0  0  0  0
   -8.5000   20.0460  -32.2340 C   0  0  0  0  0  0  0  0  0  0  0  0
   -7.1360   19.8830  -32.5180 C   0  0  0  0  0  0  0  0  0  0  0  0
   -6.2150   20.8660  -32.1430 C   0  0  0  0  0  0  0  0  0  0  0  0
   -6.6400   22.0110  -31.4580 C   0  0  0  0  0  0  0  0  0  0  0  0
   -5.6660   23.0010  -31.0960 N   0  0  0  0  0  0  0  0  0  0  0  0
   -4.2410   22.8620  -31.1770 C   0  0  0  0  0  0  0  0  0  0  0  0
   -3.7510   22.2220  -32.1460 O   0  0  0  0  0  0  0  0  0  0  0  0
   -3.3360   23.4000  -30.1310 C   0  0  0  0  0  0  0  0  0  0  0  0
   -3.1760   24.7910  -29.9820 C   0  0  0  0  0  0  0  0  0  0  0  0
   -3.8630   25.6760  -30.8060 O   0  0  0  0  0  0  0  0  0  0  0  0
   -2.3610   25.2880  -29.0170 N   0  0  0  0  0  0  0  0  0  0  0  0
   -1.6730   24.4840  -28.1660 C   0  0  0  0  0  0  0  0  0  0  0  0
   -0.8510   25.0490  -27.1850 C   0  0  0  0  0  0  0  0  0  0  0  0
   -0.1370   24.2270  -26.3100 C   0  0  0  0  0  0  0  0  0  0  0  0
   -0.2410   22.8380  -26.4110 C   0  0  0  0  0  0  0  0  0  0  0  0
   -1.0580   22.2610  -27.3880 C   0  0  0  0  0  0  0  0  0  0  0  0
   -1.7830   23.0800  -28.2760 C   0  0  0  0  0  0  0  0  0  0  0  0
   -2.6150   22.5400  -29.2760 C   0  0  0  0  0  0  0  0  0  0  0  0
   -2.7020   21.2880  -29.4180 O   0  0  0  0  0  0  0  0  0  0  0  0
   -8.0080   22.1800  -31.1810 C   0  0  0  0  0  0  0  0  0  0  0  0
   -8.9280   21.1970  -31.5550 C   0  0  0  0  0  0  0  0  0  0  0  0
   -9.8921   18.5249  -31.6809 H   0  0  0  0  0  0  0  0  0  0  0  0
  -10.2997   19.4098  -33.1900 H   0  0  0  0  0  0  0  0  0  0  0  0
   -8.9746   18.1971  -33.1900 H   0  0  0  0  0  0  0  0  0  0  0  0
   -6.7894   18.9778  -33.0381 H   0  0  0  0  0  0  0  0  0  0  0  0
   -5.1501   20.7391  -32.3876 H   0  0  0  0  0  0  0  0  0  0  0  0
   -0.7668   26.1427  -27.1026 H   0  0  0  0  0  0  0  0  0  0  0  0
    0.5084   24.6746  -25.5399 H   0  0  0  0  0  0  0  0  0  0  0  0
    0.3224   22.1950  -25.7188 H   0  0  0  0  0  0  0  0  0  0  0  0
   -1.1348   21.1663  -27.4634 H   0  0  0  0  0  0  0  0  0  0  0  0
   -8.3552   23.0891  -30.6682 H   0  0  0  0  0  0  0  0  0  0  0  0
   -9.9939   21.3262  -31.3158 H   0  0  0  0  0  0  0  0  0  0  0  0
  1  2  1  0
  2  3  2  0
  3  4  1  0
  4  5  2  0
  5  6  1  0
  6  7  1  0
  7  8  2  0
  7  9  1  0
  9 10  2  0
 10 11  1  0
 10 12  1  0
 12 13  1  0
 13 14  2  0
 14 15  1  0
 15 16  2  0
 16 17  1  0
 17 18  2  0
 18 19  1  0
 19 20  2  0
  5 21  1  0
 21 22  2  0
 22  2  1  0
 19  9  1  0
 18 13  1  0
  1 23  1  0
  1 24  1  0
  1 25  1  0
  3 26  1  0
  4 27  1  0
 14 28  1  0
 15 29  1  0
 16 30  1  0
 17 31  1  0
 21 32  1  0
 22 33  1  0
M  CHG  3   6  -1  11  -1  12  -1
M  END
>  <UniqueID>  (44) 
44

>  <SMILES>  (44) 
Cc1ccc([N-]C(=O)c2c([O-])[n-]c3ccccc3c2=O)cc1

>  <Energy>  (44) 
49.29932527484964

>  <Genealogy>  (44) 
Cc1ccc([N-]C(=O)c2c([O-])[n-]c3ccccc3c2=O)cc1 (protonated)
Cc1ccc([N-]C(=O)c2c([O-])[n-]c3ccccc3c2=O)cc1 (3D coordinates assigned)
Cc1ccc([N-]C(=O)c2c([O-])[n-]c3ccccc3c2=O)cc1 (optimized conformer: 49.29932527484964 kcal/mol)

>  <smiles>  (44) 
Cc1ccc(NC(=O)c2c(O)[nH]c3ccccc3c2=O)cc1

>  <score_type>  (44) 
oracle

>  <origin>  (44) 
adgpu

>  <m_score__min__energy>  (44) 
-12.529999999999999

>  <m_primary>  (44) 
energy

$$$$
44:0
     RDKit          3D

 47 50  0  0  0  0  0  0  0  0999 V2000
   -0.8910   24.9230  -26.0990 C   0  0  0  0  0  0  0  0  0  0  0  0
   -0.6100   25.1130  -27.8440 S   0  0  0  0  0  0  0  0  0  0  0  0
   -0.6600   26.5710  -28.2050 O   0  0  0  0  0  0  0  0  0  0  0  0
    0.7480   24.5740  -28.1960 O   0  0  0  0  0  0  0  0  0  0  0  0
   -1.8490   24.2340  -28.7350 C   0  0  0  0  0  0  0  0  0  0  0  0
   -3.2040   24.4770  -28.4810 C   0  0  0  0  0  0  0  0  0  0  0  0
   -4.1890   23.7910  -29.1960 C   0  0  0  0  0  0  0  0  0  0  0  0
   -3.8330   22.8510  -30.1830 C   0  0  0  0  0  0  0  0  0  0  0  0
   -4.8780   22.1210  -30.9430 C   0  0  0  0  0  0  0  0  0  0  0  0
   -6.1240   22.6500  -31.0820 N   0  0  0  0  0  0  0  0  0  0  0  0
   -7.0960   21.9980  -31.7700 C   0  0  0  0  0  0  0  0  0  0  0  0
   -6.8320   20.7510  -32.3490 C   0  0  0  0  0  0  0  0  0  0  0  0
   -5.5330   20.2230  -32.2120 C   0  0  0  0  0  0  0  0  0  0  0  0
   -5.1630   18.9720  -32.8000 N   0  0  0  0  0  0  0  0  0  0  0  0
   -4.0630   18.9160  -33.7620 C   0  0  0  0  0  0  0  0  0  0  0  0
   -4.3280   17.8020  -34.7800 C   0  0  0  0  0  0  0  0  0  0  0  0
   -4.6300   16.5830  -34.1260 O   0  0  0  0  0  0  0  0  0  0  0  0
   -5.8510   16.7080  -33.4190 C   0  0  0  0  0  0  0  0  0  0  0  0
   -5.7200   17.7220  -32.2800 C   0  0  0  0  0  0  0  0  0  0  0  0
   -4.5990   20.9170  -31.5110 N   0  0  0  0  0  0  0  0  0  0  0  0
   -7.9230   20.0690  -33.1330 C   0  0  0  0  0  0  0  0  0  0  0  0
   -9.4890   19.9700  -32.1830 S   0  0  0  0  0  0  0  0  0  0  0  0
   -9.5140   21.6270  -31.3770 C   0  0  0  0  0  0  0  0  0  0  0  0
   -8.4590   22.6020  -31.8980 C   0  0  0  0  0  0  0  0  0  0  0  0
   -2.4690   22.6190  -30.4360 C   0  0  0  0  0  0  0  0  0  0  0  0
   -1.4850   23.3070  -29.7190 C   0  0  0  0  0  0  0  0  0  0  0  0
   -0.1056   25.4540  -25.5412 H   0  0  0  0  0  0  0  0  0  0  0  0
   -1.8737   25.3427  -25.8380 H   0  0  0  0  0  0  0  0  0  0  0  0
   -0.8676   23.8547  -25.8380 H   0  0  0  0  0  0  0  0  0  0  0  0
   -3.4945   25.2112  -27.7152 H   0  0  0  0  0  0  0  0  0  0  0  0
   -5.2510   23.9865  -28.9865 H   0  0  0  0  0  0  0  0  0  0  0  0
   -3.9852   19.8801  -34.2860 H   0  0  0  0  0  0  0  0  0  0  0  0
   -3.1224   18.7094  -33.2304 H   0  0  0  0  0  0  0  0  0  0  0  0
   -5.1779   18.0899  -35.4162 H   0  0  0  0  0  0  0  0  0  0  0  0
   -3.4235   17.6598  -35.3896 H   0  0  0  0  0  0  0  0  0  0  0  0
   -6.6360   17.0443  -34.1123 H   0  0  0  0  0  0  0  0  0  0  0  0
   -6.1113   15.7290  -32.9904 H   0  0  0  0  0  0  0  0  0  0  0  0
   -6.7119   17.9155  -31.8456 H   0  0  0  0  0  0  0  0  0  0  0  0
   -5.0523   17.3179  -31.5048 H   0  0  0  0  0  0  0  0  0  0  0  0
   -8.1036   20.6360  -34.0582 H   0  0  0  0  0  0  0  0  0  0  0  0
   -7.5933   19.0432  -33.3543 H   0  0  0  0  0  0  0  0  0  0  0  0
  -10.5056   22.0739  -31.5414 H   0  0  0  0  0  0  0  0  0  0  0  0
   -9.2876   21.4606  -30.3135 H   0  0  0  0  0  0  0  0  0  0  0  0
   -8.6605   22.8255  -32.9561 H   0  0  0  0  0  0  0  0  0  0  0  0
   -8.5003   23.5285  -31.3065 H   0  0  0  0  0  0  0  0  0  0  0  0
   -2.1736   21.8898  -31.2048 H   0  0  0  0  0  0  0  0  0  0  0  0
   -0.4216   23.1192  -29.9288 H   0  0  0  0  0  0  0  0  0  0  0  0
  1  2  1  0
  2  3  2  0
  2  4  2  0
  2  5  1  0
  5  6  2  0
  6  7  1  0
  7  8  2  0
  8  9  1  0
  9 10  2  0
 10 11  1  0
 11 12  2  0
 12 13  1  0
 13 14  1  0
 14 15  1  0
 15 16  1  0
 16 17  1  0
 17 18  1  0
 18 19  1  0
 13 20  2  0
 12 21  1  0
 21 22  1  0
 22 23  1  0
 23 24  1  0
  8 25  1  0
 25 26  2  0
 26  5  1  0
 20  9  1  0
 24 11  1  0
 19 14  1  0
  1 27  1  0
  1 28  1  0
  1 29  1  0
  6 30  1  0
  7 31  1  0
 15 32  1  0
 15 33  1  0
 16 34  1  0
 16 35  1  0
 18 36  1  0
 18 37  1  0
 19 38  1  0
 19 39  1  0
 21 40  1  0
 21 41  1  0
 23 42  1  0
 23 43  1  0
 24 44  1  0
 24 45  1  0
 25 46  1  0
 26 47  1  0
M  END
>  <UniqueID>  (45) 
45

>  <SMILES>  (45) 
CS(=O)(=O)c1ccc(-c2nc3c(c(N4CCOCC4)n2)CSCC3)cc1

>  <Energy>  (45) 
59.53481164383826

>  <Genealogy>  (45) 
CS(=O)(=O)c1ccc(-c2nc3c(c(N4CCOCC4)n2)CSCC3)cc1 (3D coordinates assigned)
CS(=O)(=O)c1ccc(-c2nc3c(c(N4CCOCC4)n2)CSCC3)cc1 (nonaromatic ring conformer: 59.53481164383826 kcal/mol)

>  <smiles>  (45) 
CS(=O)(=O)c1ccc(-c2nc3c(c(N4CCOCC4)n2)CSCC3)cc1

>  <score_type>  (45) 
oracle

>  <origin>  (45) 
adgpu

>  <m_score__min__energy>  (45) 
-8.9399999999999995

>  <m_primary>  (45) 
energy

$$$$
45:0
     RDKit          3D

 52 55  0  0  0  0  0  0  0  0999 V2000
   -0.8550   27.1820  -23.9280 C   0  0  0  0  0  0  0  0  0  0  0  0
   -0.8470   26.1010  -24.9700 C   0  0  0  0  0  0  0  0  0  0  0  0
   -0.3820   24.8130  -24.6600 C   0  0  0  0  0  0  0  0  0  0  0  0
   -0.4120   23.8040  -25.6270 C   0  0  0  0  0  0  0  0  0  0  0  0
   -0.8970   24.0740  -26.9080 C   0  0  0  0  0  0  0  0  0  0  0  0
   -1.3470   25.3580  -27.2410 C   0  0  0  0  0  0  0  0  0  0  0  0
   -1.8370   25.5890  -28.5710 N   0  0  0  0  0  0  0  0  0  0  0  0
   -2.6610   24.7060  -29.3430 C   0  0  0  0  0  0  0  0  0  0  0  0
   -2.3580   23.4890  -29.4630 O   0  0  0  0  0  0  0  0  0  0  0  0
   -3.8470   25.2240  -29.9640 N   0  0  0  0  0  0  0  0  0  0  0  0
   -4.8960   24.4090  -30.5150 C   0  0  0  0  0  0  0  0  0  0  0  0
   -4.5740   23.4040  -31.4390 C   0  0  0  0  0  0  0  0  0  0  0  0
   -5.5780   22.6140  -32.0050 C   0  0  0  0  0  0  0  0  0  0  0  0
   -6.9260   22.8310  -31.6690 C   0  0  0  0  0  0  0  0  0  0  0  0
   -7.9600   22.0470  -32.2000 O   0  0  0  0  0  0  0  0  0  0  0  0
   -7.9790   20.6440  -32.2370 C   0  0  0  0  0  0  0  0  0  0  0  0
   -9.0580   19.9720  -31.6570 C   0  0  0  0  0  0  0  0  0  0  0  0
   -9.1130   18.5790  -31.7120 C   0  0  0  0  0  0  0  0  0  0  0  0
   -8.1240   17.8830  -32.3310 N   0  0  0  0  0  0  0  0  0  0  0  0
   -7.0550   18.4980  -32.9150 C   0  0  0  0  0  0  0  0  0  0  0  0
   -6.0230   17.6720  -33.5920 C   0  0  0  0  0  0  0  0  0  0  0  0
   -5.7320   16.3810  -33.1230 C   0  0  0  0  0  0  0  0  0  0  0  0
   -4.7730   15.5950  -33.7630 C   0  0  0  0  0  0  0  0  0  0  0  0
   -4.0920   16.1050  -34.8770 C   0  0  0  0  0  0  0  0  0  0  0  0
   -3.0860   15.3010  -35.5940 C   0  0  0  0  0  0  0  0  0  0  0  0
   -3.4190   13.9920  -36.0500 N   0  0  0  0  0  0  0  0  0  0  0  0
   -1.9280   15.7560  -35.8020 O   0  0  0  0  0  0  0  0  0  0  0  0
   -4.3710   17.3650  -35.3090 N   0  0  0  0  0  0  0  0  0  0  0  0
   -5.3010   18.1500  -34.7010 C   0  0  0  0  0  0  0  0  0  0  0  0
   -6.9780   19.9020  -32.8870 C   0  0  0  0  0  0  0  0  0  0  0  0
   -7.2480   23.8340  -30.7500 C   0  0  0  0  0  0  0  0  0  0  0  0
   -6.2460   24.6310  -30.1900 C   0  0  0  0  0  0  0  0  0  0  0  0
   -1.3480   26.3640  -26.2550 C   0  0  0  0  0  0  0  0  0  0  0  0
   -0.8516   26.7263  -22.9268 H   0  0  0  0  0  0  0  0  0  0  0  0
    0.0385   27.8125  -24.0469 H   0  0  0  0  0  0  0  0  0  0  0  0
   -1.7577   27.7992  -24.0469 H   0  0  0  0  0  0  0  0  0  0  0  0
    0.0068   24.5974  -23.6539 H   0  0  0  0  0  0  0  0  0  0  0  0
   -0.0525   22.7947  -25.3780 H   0  0  0  0  0  0  0  0  0  0  0  0
   -0.9260   23.2728  -27.6611 H   0  0  0  0  0  0  0  0  0  0  0  0
   -3.9130   26.2600  -30.0830 H   0  0  0  0  0  0  0  0  0  0  0  0
   -3.5238   23.2366  -31.7200 H   0  0  0  0  0  0  0  0  0  0  0  0
   -5.3125   21.8185  -32.7168 H   0  0  0  0  0  0  0  0  0  0  0  0
   -9.8595   20.5380  -31.1598 H   0  0  0  0  0  0  0  0  0  0  0  0
   -9.9578   18.0438  -31.2538 H   0  0  0  0  0  0  0  0  0  0  0  0
   -6.2638   15.9863  -32.2447 H   0  0  0  0  0  0  0  0  0  0  0  0
   -4.5528   14.5818  -33.3957 H   0  0  0  0  0  0  0  0  0  0  0  0
   -3.7230   13.8310  -37.0360 H   0  0  0  0  0  0  0  0  0  0  0  0
   -5.4898   19.1656  -35.0791 H   0  0  0  0  0  0  0  0  0  0  0  0
   -6.1366   20.4180  -33.3726 H   0  0  0  0  0  0  0  0  0  0  0  0
   -8.2980   23.9971  -30.4655 H   0  0  0  0  0  0  0  0  0  0  0  0
   -6.5148   25.4366  -29.4910 H   0  0  0  0  0  0  0  0  0  0  0  0
   -1.7439   27.3622  -26.4933 H   0  0  0  0  0  0  0  0  0  0  0  0
  1  2  1  0
  2  3  2  0
  3  4  1  0
  4  5  2  0
  5  6  1  0
  6  7  1  0
  7  8  1  0
  8  9  2  0
  8 10  1  0
 10 11  1  0
 11 12  2  0
 12 13  1  0
 13 14  2  0
 14 15  1  0
 15 16  1  0
 16 17  2  0
 17 18  1  0
 18 19  2  0
 19 20  1  0
 20 21  1  0
 21 22  2  0
 22 23  1  0
 23 24  2  0
 24 25  1  0
 25 26  1  0
 25 27  2  0
 24 28  1  0
 28 29  2  0
 20 30  2  0
 14 31  1  0
 31 32  2  0
  6 33  2  0
 33  2  1  0
 32 11  1  0
 30 16  1  0
 29 21  1  0
  1 34  1  0
  1 35  1  0
  1 36  1  0
  3 37  1  0
  4 38  1  0
  5 39  1  0
 10 40  1  0
 12 41  1  0
 13 42  1  0
 17 43  1  0
 18 44  1  0
 22 45  1  0
 23 46  1  0
 26 47  1  0
 29 48  1  0
 30 49  1  0
 31 50  1  0
 32 51  1  0
 33 52  1  0
M  CHG  2   7  -1  26  -1
M  END
>  <UniqueID>  (46) 
46

>  <SMILES>  (46) 
Cc1cccc([N-]C(=O)Nc2ccc(Oc3ccnc(-c4ccc(C([NH-])=O)nc4)c3)cc2)c1

>  <Energy>  (46) 
73.75558181071231

>  <Genealogy>  (46) 
Cc1cccc([N-]C(=O)Nc2ccc(Oc3ccnc(-c4ccc(C([NH-])=O)nc4)c3)cc2)c1 (protonated)
Cc1cccc([N-]C(=O)Nc2ccc(Oc3ccnc(-c4ccc(C([NH-])=O)nc4)c3)cc2)c1 (3D coordinates assigned)
Cc1cccc([N-]C(=O)Nc2ccc(Oc3ccnc(-c4ccc(C([NH-])=O)nc4)c3)cc2)c1 (optimized conformer: 73.75558181071231 kcal/mol)

>  <smiles>  (46) 
Cc1cccc(NC(=O)Nc2ccc(Oc3ccnc(-c4ccc(C(N)=O)nc4)c3)cc2)c1

>  <score_type>  (46) 
oracle

>  <origin>  (46) 
adgpu

>  <m_score__min__energy>  (46) 
-11.300000000000001

>  <m_primary>  (46) 
energy

$$$$
46:0
     RDKit          3D

 38 40  0  0  0  0  0  0  0  0999 V2000
   -1.1296   26.7908  -23.2845 H   0  0  0  0  0  0  0  0  0  0  0  0
   -1.0720   26.4130  -24.3160 C   0  0  0  0  0  0  0  0  0  0  0  0
   -0.8400   25.0560  -24.5510 C   0  0  0  0  0  0  0  0  0  0  0  0
   -0.7105   24.3665  -23.7037 H   0  0  0  0  0  0  0  0  0  0  0  0
   -0.7720   24.5720  -25.8610 C   0  0  0  0  0  0  0  0  0  0  0  0
   -0.5831   23.5033  -26.0401 H   0  0  0  0  0  0  0  0  0  0  0  0
   -0.9440   25.4450  -26.9520 C   0  0  0  0  0  0  0  0  0  0  0  0
   -0.8640   24.9280  -28.3400 C   0  0  0  0  0  0  0  0  0  0  0  0
    0.1050   24.1940  -28.6730 O   0  0  0  0  0  0  0  0  0  0  0  0
   -1.8220   25.2960  -29.3440 N   0  0  0  0  0  0  0  0  0  0  0  0
   -2.9780   24.7290  -29.5390 C   0  0  0  0  0  0  0  0  0  0  0  0
   -3.8520   25.1660  -30.4620 N   0  0  0  0  0  0  0  0  0  0  0  0
   -4.8970   24.3560  -30.4150 N   0  0  0  0  0  0  0  0  0  0  0  0
   -6.1040   24.5400  -31.2140 C   0  0  0  0  0  0  0  0  0  0  0  0
   -5.8537   25.0916  -32.1322 H   0  0  0  0  0  0  0  0  0  0  0  0
   -6.8431   25.1084  -30.6303 H   0  0  0  0  0  0  0  0  0  0  0  0
   -6.6820   23.2010  -31.5780 C   0  0  0  0  0  0  0  0  0  0  0  0
   -5.9260   22.2840  -32.3240 C   0  0  0  0  0  0  0  0  0  0  0  0
   -4.9200   22.5589  -32.6740 H   0  0  0  0  0  0  0  0  0  0  0  0
   -6.4480   21.0210  -32.6240 C   0  0  0  0  0  0  0  0  0  0  0  0
   -5.8495   20.3065  -33.2082 H   0  0  0  0  0  0  0  0  0  0  0  0
   -7.7300   20.6610  -32.1840 C   0  0  0  0  0  0  0  0  0  0  0  0
   -8.2710   19.2920  -32.4720 C   0  0  0  0  0  0  0  0  0  0  0  0
   -8.4764   18.7721  -31.5246 H   0  0  0  0  0  0  0  0  0  0  0  0
   -9.2019   19.3800  -33.0513 H   0  0  0  0  0  0  0  0  0  0  0  0
   -7.5314   18.7198  -33.0513 H   0  0  0  0  0  0  0  0  0  0  0  0
   -8.4720   21.5670  -31.4100 C   0  0  0  0  0  0  0  0  0  0  0  0
   -9.4673   21.2823  -31.0379 H   0  0  0  0  0  0  0  0  0  0  0  0
   -7.9520   22.8290  -31.1100 C   0  0  0  0  0  0  0  0  0  0  0  0
   -8.5405   23.5339  -30.5044 H   0  0  0  0  0  0  0  0  0  0  0  0
   -4.7120   23.4120  -29.4720 C   0  0  0  0  0  0  0  0  0  0  0  0
   -5.4260   22.6171  -29.2105 H   0  0  0  0  0  0  0  0  0  0  0  0
   -3.4770   23.6090  -28.8890 C   0  0  0  0  0  0  0  0  0  0  0  0
   -2.9995   23.0166  -28.0946 H   0  0  0  0  0  0  0  0  0  0  0  0
   -1.1620   26.8130  -26.7030 C   0  0  0  0  0  0  0  0  0  0  0  0
   -1.2788   27.5101  -27.5458 H   0  0  0  0  0  0  0  0  0  0  0  0
   -1.2310   27.2910  -25.3920 C   0  0  0  0  0  0  0  0  0  0  0  0
   -1.4108   28.3602  -25.2062 H   0  0  0  0  0  0  0  0  0  0  0  0
  1  2  1  0
  2  3  2  0
  3  4  1  0
  3  5  1  0
  5  6  1  0
  5  7  2  0
  7  8  1  0
  8  9  2  0
  8 10  1  0
 10 11  2  0
 11 12  1  0
 12 13  1  0
 13 14  1  0
 14 15  1  0
 14 16  1  0
 14 17  1  0
 17 18  2  0
 18 19  1  0
 18 20  1  0
 20 21  1  0
 20 22  2  0
 22 23  1  0
 23 24  1  0
 23 25  1  0
 23 26  1  0
 22 27  1  0
 27 28  1  0
 27 29  2  0
 29 30  1  0
 13 31  1  0
 31 32  1  0
 31 33  2  0
 33 34  1  0
  7 35  1  0
 35 36  1  0
 35 37  2  0
 37 38  1  0
 37  2  1  0
 33 11  1  0
 29 17  1  0
M  CHG  1  12  -1
M  END
>  <UniqueID>  (47) 
47

>  <SMILES>  (47) 
Cc1ccc(Cn2cc/c(=N\C(=O)c3ccccc3)[n-]2)cc1

>  <Energy>  (47) 
76.76213057113236

>  <Genealogy>  (47) 
Cc1ccc(Cn2ccc(=NC(=O)c3ccccc3)[n-]2)cc1 (protonated)
Cc1ccc(Cn2cc/c(=N\C(=O)c3ccccc3)[n-]2)cc1 (cis-trans isomerization)
Cc1ccc(Cn2cc/c(=N\C(=O)c3ccccc3)[n-]2)cc1 (3D coordinates assigned)
Cc1ccc(Cn2cc/c(=N\C(=O)c3ccccc3)[n-]2)cc1 (optimized conformer: 76.76213057113236 kcal/mol)

>  <smiles>  (47) 
Cc1ccc(Cn2ccc(=NC(=O)c3ccccc3)[nH]2)cc1

>  <score_type>  (47) 
oracle

>  <origin>  (47) 
adgpu

>  <m_score__min__energy>  (47) 
-10.640000000000001

>  <m_primary>  (47) 
energy

$$$$
47:0
     RDKit          3D

 41 43  0  0  0  0  0  0  0  0999 V2000
    0.1556   22.5829  -26.5893 H   0  0  0  0  0  0  0  0  0  0  0  0
   -0.6610   22.9490  -27.2290 C   0  0  0  0  0  0  0  0  0  0  0  0
   -1.7180   22.1010  -27.5660 C   0  0  0  0  0  0  0  0  0  0  0  0
   -1.7336   21.0675  -27.1897 H   0  0  0  0  0  0  0  0  0  0  0  0
   -2.7560   22.5620  -28.3800 C   0  0  0  0  0  0  0  0  0  0  0  0
   -3.5889   21.8906  -28.6358 H   0  0  0  0  0  0  0  0  0  0  0  0
   -2.7430   23.8800  -28.8750 C   0  0  0  0  0  0  0  0  0  0  0  0
   -3.8540   24.3600  -29.7330 C   0  0  0  0  0  0  0  0  0  0  0  0
   -4.7970   25.0160  -29.2160 O   0  0  0  0  0  0  0  0  0  0  0  0
   -3.9250   24.0420  -31.1290 N   0  0  0  0  0  0  0  0  0  0  0  0
   -4.5360   22.8780  -31.7040 C   0  0  0  0  0  0  0  0  0  0  0  0
   -5.8560   22.5670  -31.3590 C   0  0  0  0  0  0  0  0  0  0  0  0
   -6.4012   23.2070  -30.6497 H   0  0  0  0  0  0  0  0  0  0  0  0
   -6.4860   21.4470  -31.9110 C   0  0  0  0  0  0  0  0  0  0  0  0
   -7.5190   21.2015  -31.6236 H   0  0  0  0  0  0  0  0  0  0  0  0
   -5.8050   20.6370  -32.8290 C   0  0  0  0  0  0  0  0  0  0  0  0
   -6.6070   19.2300  -33.5220 S   0  0  0  0  0  0  0  0  0  0  0  0
   -8.0640   19.2160  -33.1490 O   0  0  0  0  0  0  0  0  0  0  0  0
   -6.4830   19.2840  -35.0180 O   0  0  0  0  0  0  0  0  0  0  0  0
   -5.8620   17.7790  -32.9390 N   0  0  0  0  0  0  0  0  0  0  0  0
   -4.9820   17.1260  -33.6310 C   0  0  0  0  0  0  0  0  0  0  0  0
   -4.5600   17.4720  -34.8250 O   0  0  0  0  0  0  0  0  0  0  0  0
   -3.6980   16.6050  -35.2760 N   0  0  0  0  0  0  0  0  0  0  0  0
   -3.5590   15.6550  -34.3280 C   0  0  0  0  0  0  0  0  0  0  0  0
   -2.6670   14.4640  -34.4650 C   0  0  0  0  0  0  0  0  0  0  0  0
   -2.3911   14.0957  -33.4659 H   0  0  0  0  0  0  0  0  0  0  0  0
   -3.1955   13.6714  -35.0150 H   0  0  0  0  0  0  0  0  0  0  0  0
   -1.7577   14.7482  -35.0150 H   0  0  0  0  0  0  0  0  0  0  0  0
   -4.3570   15.9630  -33.2420 C   0  0  0  0  0  0  0  0  0  0  0  0
   -4.5950   15.1530  -32.0060 C   0  0  0  0  0  0  0  0  0  0  0  0
   -4.4119   15.7762  -31.1183 H   0  0  0  0  0  0  0  0  0  0  0  0
   -5.6357   14.7969  -31.9957 H   0  0  0  0  0  0  0  0  0  0  0  0
   -3.9123   14.2906  -31.9957 H   0  0  0  0  0  0  0  0  0  0  0  0
   -4.4910   20.9550  -33.1920 C   0  0  0  0  0  0  0  0  0  0  0  0
   -3.9526   20.3225  -33.9132 H   0  0  0  0  0  0  0  0  0  0  0  0
   -3.8610   22.0750  -32.6400 C   0  0  0  0  0  0  0  0  0  0  0  0
   -2.8333   22.3286  -32.9394 H   0  0  0  0  0  0  0  0  0  0  0  0
   -1.6750   24.7310  -28.5230 C   0  0  0  0  0  0  0  0  0  0  0  0
   -1.6200   26.0400  -28.9950 O   0  0  0  0  0  0  0  0  0  0  0  0
   -0.6410   24.2610  -27.7040 C   0  0  0  0  0  0  0  0  0  0  0  0
    0.1904   24.9287  -27.4340 H   0  0  0  0  0  0  0  0  0  0  0  0
  1  2  1  0
  2  3  2  0
  3  4  1  0
  3  5  1  0
  5  6  1  0
  5  7  2  0
  7  8  1  0
  8  9  2  0
  8 10  1  0
 10 11  1  0
 11 12  2  0
 12 13  1  0
 12 14  1  0
 14 15  1  0
 14 16  2  0
 16 17  1  0
 17 18  2  0
 17 19  2  0
 17 20  1  0
 20 21  2  0
 21 22  1  0
 22 23  1  0
 23 24  1  0
 24 25  1  0
 25 26  1  0
 25 27  1  0
 25 28  1  0
 24 29  2  0
 29 30  1  0
 30 31  1  0
 30 32  1  0
 30 33  1  0
 16 34  1  0
 34 35  1  0
 34 36  2  0
 36 37  1  0
  7 38  1  0
 38 39  1  0
 38 40  2  0
 40 41  1  0
 40  2  1  0
 36 11  1  0
 29 21  1  0
M  CHG  3  10  -1  23  -1  39  -1
M  END
>  <UniqueID>  (48) 
48

>  <SMILES>  (48) 
Cc1[n-]o/c(=N\S(=O)(=O)c2ccc([N-]C(=O)c3ccccc3[O-])cc2)c1C

>  <Energy>  (48) 
83.73611978851935

>  <Genealogy>  (48) 
Cc1[n-]oc(=NS(=O)(=O)c2ccc([N-]C(=O)c3ccccc3[O-])cc2)c1C (protonated)
Cc1[n-]o/c(=N\S(=O)(=O)c2ccc([N-]C(=O)c3ccccc3[O-])cc2)c1C (cis-trans isomerization)
Cc1[n-]o/c(=N\S(=O)(=O)c2ccc([N-]C(=O)c3ccccc3[O-])cc2)c1C (3D coordinates assigned)
Cc1[n-]o/c(=N\S(=O)(=O)c2ccc([N-]C(=O)c3ccccc3[O-])cc2)c1C (optimized conformer: 83.73611978851935 kcal/mol)

>  <smiles>  (48) 
Cc1[nH]oc(=NS(=O)(=O)c2ccc(NC(=O)c3ccccc3O)cc2)c1C

>  <score_type>  (48) 
oracle

>  <origin>  (48) 
adgpu

>  <m_score__min__energy>  (48) 
-13.16

>  <m_primary>  (48) 
energy

$$$$
48:0
     RDKit          3D

 33 35  0  0  0  0  0  0  0  0999 V2000
   -2.7080   25.1610  -29.9760 H   0  0  0  0  0  0  0  0  0  0  0  0
   -3.6130   25.2890  -30.4800 N   0  0  0  0  0  0  0  0  0  0  0  0
   -4.4410   24.3280  -30.7530 C   0  0  0  0  0  0  0  0  0  0  0  0
   -5.5670   24.6260  -31.4540 N   0  0  0  0  0  0  0  0  0  0  0  0
   -6.4690   23.6810  -31.8240 C   0  0  0  0  0  0  0  0  0  0  0  0
   -7.3708   23.9740  -32.3816 H   0  0  0  0  0  0  0  0  0  0  0  0
   -6.2570   22.3330  -31.4990 C   0  0  0  0  0  0  0  0  0  0  0  0
   -7.2290   21.2890  -31.9090 C   0  0  0  0  0  0  0  0  0  0  0  0
   -6.7850   20.0120  -32.3050 C   0  0  0  0  0  0  0  0  0  0  0  0
   -5.7085   19.7859  -32.3105 H   0  0  0  0  0  0  0  0  0  0  0  0
   -7.7020   19.0300  -32.6910 C   0  0  0  0  0  0  0  0  0  0  0  0
   -7.3450   18.0365  -33.0000 H   0  0  0  0  0  0  0  0  0  0  0  0
   -9.0700   19.3080  -32.6850 C   0  0  0  0  0  0  0  0  0  0  0  0
   -9.7901   18.5337  -32.9883 H   0  0  0  0  0  0  0  0  0  0  0  0
   -9.5240   20.5690  -32.2940 C   0  0  0  0  0  0  0  0  0  0  0  0
  -10.6022   20.7866  -32.2896 H   0  0  0  0  0  0  0  0  0  0  0  0
   -8.6120   21.5560  -31.9080 C   0  0  0  0  0  0  0  0  0  0  0  0
   -8.9769   22.5474  -31.6016 H   0  0  0  0  0  0  0  0  0  0  0  0
   -5.1050   21.9980  -30.7720 C   0  0  0  0  0  0  0  0  0  0  0  0
   -4.9166   20.9471  -30.5074 H   0  0  0  0  0  0  0  0  0  0  0  0
   -4.1900   22.9860  -30.3780 C   0  0  0  0  0  0  0  0  0  0  0  0
   -3.0160   22.5850  -29.5690 C   0  0  0  0  0  0  0  0  0  0  0  0
   -3.1920   22.1020  -28.2630 C   0  0  0  0  0  0  0  0  0  0  0  0
   -4.2058   22.0015  -27.8482 H   0  0  0  0  0  0  0  0  0  0  0  0
   -2.0840   21.7480  -27.4870 C   0  0  0  0  0  0  0  0  0  0  0  0
   -2.2295   21.3623  -26.4672 H   0  0  0  0  0  0  0  0  0  0  0  0
   -0.7900   21.8830  -28.0040 C   0  0  0  0  0  0  0  0  0  0  0  0
    0.3040   21.5260  -27.2200 O   0  0  0  0  0  0  0  0  0  0  0  0
    0.7470   20.6200  -27.3100 H   0  0  0  0  0  0  0  0  0  0  0  0
   -0.6090   22.3780  -29.3020 C   0  0  0  0  0  0  0  0  0  0  0  0
    0.4063   22.4877  -29.7109 H   0  0  0  0  0  0  0  0  0  0  0  0
   -1.7160   22.7330  -30.0790 C   0  0  0  0  0  0  0  0  0  0  0  0
   -1.5679   23.1299  -31.0941 H   0  0  0  0  0  0  0  0  0  0  0  0
  1  2  1  0
  2  3  2  0
  3  4  1  0
  4  5  1  0
  5  6  1  0
  5  7  2  0
  7  8  1  0
  8  9  2  0
  9 10  1  0
  9 11  1  0
 11 12  1  0
 11 13  2  0
 13 14  1  0
 13 15  1  0
 15 16  1  0
 15 17  2  0
 17 18  1  0
  7 19  1  0
 19 20  1  0
 19 21  2  0
 21 22  1  0
 22 23  2  0
 23 24  1  0
 23 25  1  0
 25 26  1  0
 25 27  2  0
 27 28  1  0
 28 29  1  0
 27 30  1  0
 30 31  1  0
 30 32  2  0
 32 33  1  0
 21  3  1  0
 32 22  1  0
 17  8  1  0
M  CHG  1   4  -1
M  END
>  <UniqueID>  (49) 
49

>  <SMILES>  (49) 
[H]/N=c1/[n-]cc(-c2ccccc2)cc1-c1ccc(O)cc1

>  <Energy>  (49) 
50.59566049689069

>  <Genealogy>  (49) 
N=c1[n-]cc(-c2ccccc2)cc1-c1ccc(O)cc1 (protonated)
[H]/N=c1/[n-]cc(-c2ccccc2)cc1-c1ccc(O)cc1 (cis-trans isomerization)
[H]/N=c1/[n-]cc(-c2ccccc2)cc1-c1ccc(O)cc1 (3D coordinates assigned)
[H]/N=c1/[n-]cc(-c2ccccc2)cc1-c1ccc(O)cc1 (optimized conformer: 50.59566049689069 kcal/mol)

>  <smiles>  (49) 
N=c1[nH]cc(-c2ccccc2)cc1-c1ccc(O)cc1

>  <score_type>  (49) 
oracle

>  <origin>  (49) 
adgpu

>  <m_score__min__energy>  (49) 
-8.8800000000000008

>  <m_primary>  (49) 
energy

$$$$
49:0
     RDKit          3D

 56 59  0  0  0  0  0  0  0  0999 V2000
   -1.7951   26.9554  -23.2328 H   0  0  0  0  0  0  0  0  0  0  0  0
   -1.2970   26.5310  -24.1170 C   0  0  0  0  0  0  0  0  0  0  0  0
   -1.1290   27.3100  -25.2660 C   0  0  0  0  0  0  0  0  0  0  0  0
   -1.4945   28.3473  -25.2847 H   0  0  0  0  0  0  0  0  0  0  0  0
   -0.4970   26.7720  -26.3910 C   0  0  0  0  0  0  0  0  0  0  0  0
   -0.3714   27.3863  -27.2948 H   0  0  0  0  0  0  0  0  0  0  0  0
   -0.0220   25.4510  -26.3720 C   0  0  0  0  0  0  0  0  0  0  0  0
    0.6160   24.8540  -27.5990 C   0  0  0  0  0  0  0  0  0  0  0  0
    1.4329   24.1831  -27.2947 H   0  0  0  0  0  0  0  0  0  0  0  0
    1.0124   25.6637  -28.2293 H   0  0  0  0  0  0  0  0  0  0  0  0
   -0.3790   24.0920  -28.3640 N   0  0  0  0  0  0  0  0  0  0  0  0
   -1.4300   24.6660  -29.0220 C   0  0  0  0  0  0  0  0  0  0  0  0
   -1.6040   26.0470  -29.0710 O   0  0  0  0  0  0  0  0  0  0  0  0
   -2.3190   23.7750  -29.6300 C   0  0  0  0  0  0  0  0  0  0  0  0
   -3.5040   24.1530  -30.4390 C   0  0  0  0  0  0  0  0  0  0  0  0
   -3.9620   25.3200  -30.3280 O   0  0  0  0  0  0  0  0  0  0  0  0
   -4.1710   23.2540  -31.3380 N   0  0  0  0  0  0  0  0  0  0  0  0
   -4.6910   21.9300  -31.0260 C   0  0  0  0  0  0  0  0  0  0  0  0
   -4.5277   21.7125  -29.9602 H   0  0  0  0  0  0  0  0  0  0  0  0
   -4.1707   21.1760  -31.6349 H   0  0  0  0  0  0  0  0  0  0  0  0
   -6.1650   21.8930  -31.3270 C   0  0  0  0  0  0  0  0  0  0  0  0
   -6.8990   23.0900  -31.3520 C   0  0  0  0  0  0  0  0  0  0  0  0
   -6.3970   24.0440  -31.1332 H   0  0  0  0  0  0  0  0  0  0  0  0
   -8.2620   23.0760  -31.6530 C   0  0  0  0  0  0  0  0  0  0  0  0
   -8.8314   24.0171  -31.6637 H   0  0  0  0  0  0  0  0  0  0  0  0
   -8.9030   21.8720  -31.9400 C   0  0  0  0  0  0  0  0  0  0  0  0
   -9.9791   21.8635  -32.1677 H   0  0  0  0  0  0  0  0  0  0  0  0
   -8.1810   20.6760  -31.9390 C   0  0  0  0  0  0  0  0  0  0  0  0
   -8.6902   19.7293  -32.1727 H   0  0  0  0  0  0  0  0  0  0  0  0
   -6.8030   20.6760  -31.6400 C   0  0  0  0  0  0  0  0  0  0  0  0
   -6.0470   19.4930  -31.6460 O   0  0  0  0  0  0  0  0  0  0  0  0
   -6.4280   18.2920  -32.3080 C   0  0  0  0  0  0  0  0  0  0  0  0
   -6.6720   17.5228  -31.5605 H   0  0  0  0  0  0  0  0  0  0  0  0
   -7.3093   18.4841  -32.9376 H   0  0  0  0  0  0  0  0  0  0  0  0
   -5.5971   17.9409  -32.9376 H   0  0  0  0  0  0  0  0  0  0  0  0
   -1.7460   22.2170  -29.3290 S   0  0  0  0  0  0  0  0  0  0  0  0
   -0.4090   22.7380  -28.4460 C   0  0  0  0  0  0  0  0  0  0  0  0
    0.4590   21.9710  -27.8490 N   0  0  0  0  0  0  0  0  0  0  0  0
    0.5230   20.5370  -27.9020 C   0  0  0  0  0  0  0  0  0  0  0  0
   -0.5800   19.7960  -27.4660 C   0  0  0  0  0  0  0  0  0  0  0  0
   -1.4855   20.3164  -27.1206 H   0  0  0  0  0  0  0  0  0  0  0  0
   -0.5400   18.3990  -27.4660 C   0  0  0  0  0  0  0  0  0  0  0  0
   -1.4218   17.8256  -27.1442 H   0  0  0  0  0  0  0  0  0  0  0  0
    0.6210   17.7250  -27.8750 C   0  0  0  0  0  0  0  0  0  0  0  0
    0.6700   16.2260  -27.8970 C   0  0  0  0  0  0  0  0  0  0  0  0
    0.6825   15.8444  -26.8654 H   0  0  0  0  0  0  0  0  0  0  0  0
   -0.2159   15.8378  -28.4209 H   0  0  0  0  0  0  0  0  0  0  0  0
    1.5794   15.8965  -28.4209 H   0  0  0  0  0  0  0  0  0  0  0  0
    1.7380   18.4660  -28.2890 C   0  0  0  0  0  0  0  0  0  0  0  0
    2.6502   17.9456  -28.6164 H   0  0  0  0  0  0  0  0  0  0  0  0
    1.6960   19.8640  -28.2870 C   0  0  0  0  0  0  0  0  0  0  0  0
    2.5841   20.4392  -28.5878 H   0  0  0  0  0  0  0  0  0  0  0  0
   -0.2010   24.6720  -25.2150 C   0  0  0  0  0  0  0  0  0  0  0  0
    0.1573   23.6322  -25.1940 H   0  0  0  0  0  0  0  0  0  0  0  0
   -0.8320   25.2130  -24.0920 C   0  0  0  0  0  0  0  0  0  0  0  0
   -0.9630   24.6012  -23.1873 H   0  0  0  0  0  0  0  0  0  0  0  0
  1  2  1  0
  2  3  2  0
  3  4  1  0
  3  5  1  0
  5  6  1  0
  5  7  2  0
  7  8  1  0
  8  9  1  0
  8 10  1  0
  8 11  1  0
 11 12  1  0
 12 13  1  0
 12 14  2  0
 14 15  1  0
 15 16  2  0
 15 17  1  0
 17 18  1  0
 18 19  1  0
 18 20  1  0
 18 21  1  0
 21 22  2  0
 22 23  1  0
 22 24  1  0
 24 25  1  0
 24 26  2  0
 26 27  1  0
 26 28  1  0
 28 29  1  0
 28 30  2  0
 30 31  1  0
 31 32  1  0
 32 33  1  0
 32 34  1  0
 32 35  1  0
 14 36  1  0
 36 37  1  0
 37 38  2  0
 38 39  1  0
 39 40  2  0
 40 41  1  0
 40 42  1  0
 42 43  1  0
 42 44  2  0
 44 45  1  0
 45 46  1  0
 45 47  1  0
 45 48  1  0
 44 49  1  0
 49 50  1  0
 49 51  2  0
 51 52  1  0
  7 53  1  0
 53 54  1  0
 53 55  2  0
 55 56  1  0
 55  2  1  0
 37 11  1  0
 51 39  1  0
 30 21  1  0
M  CHG  2  13  -1  17  -1
M  END
>  <UniqueID>  (50) 
50

>  <SMILES>  (50) 
COc1ccccc1C[N-]C(=O)c1s/c(=N\c2ccc(C)cc2)n(Cc2ccccc2)c1[O-]

>  <Energy>  (50) 
97.92934715549589

>  <Genealogy>  (50) 
COc1ccccc1C[N-]C(=O)c1sc(=Nc2ccc(C)cc2)n(Cc2ccccc2)c1[O-] (protonated)
COc1ccccc1C[N-]C(=O)c1s/c(=N\c2ccc(C)cc2)n(Cc2ccccc2)c1[O-] (cis-trans isomerization)
COc1ccccc1C[N-]C(=O)c1s/c(=N\c2ccc(C)cc2)n(Cc2ccccc2)c1[O-] (3D coordinates assigned)
COc1ccccc1C[N-]C(=O)c1s/c(=N\c2ccc(C)cc2)n(Cc2ccccc2)c1[O-] (optimized conformer: 97.92934715549589 kcal/mol)

>  <smiles>  (50) 
COc1ccccc1CNC(=O)c1sc(=Nc2ccc(C)cc2)n(Cc2ccccc2)c1O

>  <score_type>  (50) 
oracle

>  <origin>  (50) 
adgpu

>  <m_score__min__energy>  (50) 
-13.380000000000001

>  <m_primary>  (50) 
energy

$$$$
