0:0
     RDKit          3D

 32 32  0  0  1  0  0  0  0  0999 V2000
   -8.4790   19.5380  -32.1530 C   0  0  0  0  0  0  0  0  0  0  0  0
   -7.3620   19.9150  -33.0810 C   0  0  0  0  0  0  0  0  0  0  0  0
   -6.5790   21.0800  -32.4710 C   0  0  0  0  0  0  0  0  0  0  0  0
   -7.5410   22.0620  -31.8890 C   0  0  0  0  0  0  0  0  0  0  0  0
   -7.1400   23.4840  -32.1720 C   0  0  0  0  0  0  0  0  0  0  0  0
   -6.7800   24.1640  -30.8950 C   0  0  0  0  0  0  0  0  0  0  0  0
   -5.4590   24.8190  -30.9890 N   0  0  0  0  0  0  0  0  0  0  0  0
   -4.5700   24.4160  -30.1300 C   0  0  0  0  0  0  0  0  0  0  0  0
   -4.9080   23.4300  -29.2100 C   0  0  0  0  0  0  0  0  0  0  0  0
   -3.9830   22.9680  -28.2700 C   0  0  0  0  0  0  0  0  0  0  0  0
   -2.7590   23.5280  -28.3060 N   0  0  0  0  0  0  0  0  0  0  0  0
   -2.4140   24.4820  -29.1880 C   0  0  0  0  0  0  0  0  0  0  0  0
   -1.2200   24.9480  -29.1360 N   0  0  0  0  0  0  0  0  0  0  0  0
   -3.3150   24.9330  -30.1050 N   0  0  0  0  0  0  0  0  0  0  0  0
   -8.1442   19.6510  -31.1113 H   0  0  0  0  0  0  0  0  0  0  0  0
   -9.3431   20.1943  -32.3337 H   0  0  0  0  0  0  0  0  0  0  0  0
   -8.7687   18.4923  -32.3337 H   0  0  0  0  0  0  0  0  0  0  0  0
   -6.6923   19.0537  -33.2210 H   0  0  0  0  0  0  0  0  0  0  0  0
   -7.7740   20.2143  -34.0561 H   0  0  0  0  0  0  0  0  0  0  0  0
   -5.9136   20.7030  -31.6804 H   0  0  0  0  0  0  0  0  0  0  0  0
   -5.9749   21.5690  -33.2494 H   0  0  0  0  0  0  0  0  0  0  0  0
   -8.5365   21.8817  -32.3209 H   0  0  0  0  0  0  0  0  0  0  0  0
   -7.5477   21.9231  -30.7978 H   0  0  0  0  0  0  0  0  0  0  0  0
   -6.2728   23.4924  -32.8487 H   0  0  0  0  0  0  0  0  0  0  0  0
   -7.9800   24.0140  -32.6447 H   0  0  0  0  0  0  0  0  0  0  0  0
   -7.5415   24.9244  -30.6670 H   0  0  0  0  0  0  0  0  0  0  0  0
   -6.7358   23.4063  -30.0988 H   0  0  0  0  0  0  0  0  0  0  0  0
   -5.9227   23.0055  -29.2223 H   0  0  0  0  0  0  0  0  0  0  0  0
   -4.2412   22.1877  -27.5389 H   0  0  0  0  0  0  0  0  0  0  0  0
   -2.0680   23.1960  -27.6170 H   0  0  0  0  0  0  0  0  0  0  0  0
   -0.8140   25.6790  -29.7450 H   0  0  0  0  0  0  0  0  0  0  0  0
   -3.0570   25.6740  -30.7940 H   0  0  0  0  0  0  0  0  0  0  0  0
  1  2  1  0
  2  3  1  0
  3  4  1  0
  4  5  1  0
  5  6  1  0
  6  7  1  0
  7  8  2  0
  8  9  1  0
  9 10  2  0
 10 11  1  0
 11 12  1  0
 12 13  2  3
 12 14  1  0
 14  8  1  0
  1 15  1  0
  1 16  1  0
  1 17  1  0
  2 18  1  0
  2 19  1  0
  3 20  1  0
  3 21  1  0
  4 22  1  0
  4 23  1  0
  5 24  1  0
  5 25  1  0
  6 26  1  0
  6 27  1  0
  9 28  1  0
 10 29  1  0
 11 30  1  0
 13 31  1  0
 14 32  1  0
M  END
>  <smiles>  (1) 
CCCCCCN=c1cc[nH]c(=N)[nH]1

>  <score_type>  (1) 
oracle

>  <origin>  (1) 
adgpu

>  <m_score__min__energy>  (1) 
-6.1500000000000004

>  <m_primary>  (1) 
energy

$$$$
1:0
     RDKit          3D

 31 33  0  0  0  0  0  0  0  0999 V2000
   -5.1629   26.7477  -30.6232 H   0  0  0  0  0  0  0  0  0  0  0  0
   -4.9960   25.6730  -30.7880 C   0  0  0  0  0  0  0  0  0  0  0  0
   -3.8630   25.0880  -30.3320 N   0  0  0  0  0  0  0  0  0  0  0  0
   -3.5940   23.7750  -30.5520 C   0  0  0  0  0  0  0  0  0  0  0  0
   -2.3810   23.2500  -30.0920 C   0  0  0  0  0  0  0  0  0  0  0  0
   -1.7006   23.8804  -29.5007 H   0  0  0  0  0  0  0  0  0  0  0  0
   -2.0310   21.9310  -30.3800 C   0  0  0  0  0  0  0  0  0  0  0  0
   -0.5040   21.2820  -29.8110 Cl  0  0  0  0  0  0  0  0  0  0  0  0
   -2.8780   21.1430  -31.1590 C   0  0  0  0  0  0  0  0  0  0  0  0
   -2.5864   20.1134  -31.4136 H   0  0  0  0  0  0  0  0  0  0  0  0
   -4.0950   21.6540  -31.6180 C   0  0  0  0  0  0  0  0  0  0  0  0
   -4.7370   21.0320  -32.2590 H   0  0  0  0  0  0  0  0  0  0  0  0
   -4.5130   22.9600  -31.2700 C   0  0  0  0  0  0  0  0  0  0  0  0
   -5.7650   23.5440  -31.6580 C   0  0  0  0  0  0  0  0  0  0  0  0
   -6.7920   22.8920  -32.1430 N   0  0  0  0  0  0  0  0  0  0  0  0
   -7.0340   21.4820  -32.2330 C   0  0  0  0  0  0  0  0  0  0  0  0
   -6.3200   20.7370  -33.1810 C   0  0  0  0  0  0  0  0  0  0  0  0
   -5.5897   21.2385  -33.8331 H   0  0  0  0  0  0  0  0  0  0  0  0
   -6.5300   19.3610  -33.3030 C   0  0  0  0  0  0  0  0  0  0  0  0
   -5.9549   18.7805  -34.0394 H   0  0  0  0  0  0  0  0  0  0  0  0
   -7.4680   18.7230  -32.4920 C   0  0  0  0  0  0  0  0  0  0  0  0
   -7.6195   17.6369  -32.5783 H   0  0  0  0  0  0  0  0  0  0  0  0
   -8.2160   19.4600  -31.5700 C   0  0  0  0  0  0  0  0  0  0  0  0
   -8.9555   18.9510  -30.9344 H   0  0  0  0  0  0  0  0  0  0  0  0
   -8.0290   20.8480  -31.4500 C   0  0  0  0  0  0  0  0  0  0  0  0
   -8.8730   21.6180  -30.4700 C   0  0  0  0  0  0  0  0  0  0  0  0
   -8.5798   21.3505  -29.4441 H   0  0  0  0  0  0  0  0  0  0  0  0
   -8.7227   22.6966  -30.6249 H   0  0  0  0  0  0  0  0  0  0  0  0
   -9.9333   21.3696  -30.6249 H   0  0  0  0  0  0  0  0  0  0  0  0
   -5.9490   24.9190  -31.4640 C   0  0  0  0  0  0  0  0  0  0  0  0
   -6.8561   25.4070  -31.8501 H   0  0  0  0  0  0  0  0  0  0  0  0
  1  2  1  0
  2  3  1  0
  3  4  1  0
  4  5  2  0
  5  6  1  0
  5  7  1  0
  7  8  1  0
  7  9  2  0
  9 10  1  0
  9 11  1  0
 11 12  1  0
 11 13  2  0
 13 14  1  0
 14 15  2  0
 15 16  1  0
 16 17  2  0
 17 18  1  0
 17 19  1  0
 19 20  1  0
 19 21  2  0
 21 22  1  0
 21 23  1  0
 23 24  1  0
 23 25  2  0
 25 26  1  0
 26 27  1  0
 26 28  1  0
 26 29  1  0
 14 30  1  0
 30 31  1  0
 30  2  2  0
 13  4  1  0
 25 16  1  0
M  CHG  1   3  -1
M  END
>  <UniqueID>  (2) 
1

>  <SMILES>  (2) 
Cc1ccccc1/N=c1/cc[n-]c2cc(Cl)ccc12

>  <Energy>  (2) 
57.47171364115501

>  <Genealogy>  (2) 
Cc1ccccc1N=c1cc[n-]c2cc(Cl)ccc12 (protonated)
Cc1ccccc1/N=c1/cc[n-]c2cc(Cl)ccc12 (cis-trans isomerization)
Cc1ccccc1/N=c1/cc[n-]c2cc(Cl)ccc12 (3D coordinates assigned)
Cc1ccccc1/N=c1/cc[n-]c2cc(Cl)ccc12 (optimized conformer: 57.47171364115501 kcal/mol)

>  <smiles>  (2) 
Cc1ccccc1N=c1cc[nH]c2cc(Cl)ccc12

>  <score_type>  (2) 
oracle

>  <origin>  (2) 
adgpu

>  <m_score__min__energy>  (2) 
-9.2799999999999994

>  <m_primary>  (2) 
energy

$$$$
2:0
     RDKit          3D

 30 31  0  0  0  0  0  0  0  0999 V2000
   -5.0070   24.6680  -30.2240 C   0  0  0  0  0  0  0  0  0  0  0  0
   -6.0650   23.7010  -30.6680 C   0  0  0  0  0  0  0  0  0  0  0  0
   -6.2250   23.4050  -32.0300 C   0  0  0  0  0  0  0  0  0  0  0  0
   -7.2350   22.5330  -32.4480 C   0  0  0  0  0  0  0  0  0  0  0  0
   -8.1110   21.9620  -31.5110 C   0  0  0  0  0  0  0  0  0  0  0  0
   -9.1980   21.0180  -31.9540 C   0  0  0  0  0  0  0  0  0  0  0  0
   -8.6870   20.0650  -32.9410 N   0  0  0  0  0  0  0  0  0  0  0  0
   -7.5650   19.1870  -32.7220 C   0  0  0  0  0  0  0  0  0  0  0  0
   -7.5370   18.2650  -31.6560 C   0  0  0  0  0  0  0  0  0  0  0  0
   -6.4300   17.4310  -31.4740 C   0  0  0  0  0  0  0  0  0  0  0  0
   -5.3450   17.5020  -32.3490 C   0  0  0  0  0  0  0  0  0  0  0  0
   -5.3660   18.4070  -33.4130 C   0  0  0  0  0  0  0  0  0  0  0  0
   -6.4700   19.2440  -33.6010 C   0  0  0  0  0  0  0  0  0  0  0  0
   -7.9520   22.2640  -30.1490 C   0  0  0  0  0  0  0  0  0  0  0  0
   -6.9430   23.1360  -29.7310 C   0  0  0  0  0  0  0  0  0  0  0  0
   -4.9750   24.6973  -29.1249 H   0  0  0  0  0  0  0  0  0  0  0  0
   -4.0293   24.3449  -30.6108 H   0  0  0  0  0  0  0  0  0  0  0  0
   -5.2411   25.6708  -30.6108 H   0  0  0  0  0  0  0  0  0  0  0  0
   -5.5531   23.8608  -32.7722 H   0  0  0  0  0  0  0  0  0  0  0  0
   -7.3438   22.2932  -33.5160 H   0  0  0  0  0  0  0  0  0  0  0  0
   -9.5744   20.4657  -31.0804 H   0  0  0  0  0  0  0  0  0  0  0  0
  -10.0078   21.6031  -32.4144 H   0  0  0  0  0  0  0  0  0  0  0  0
   -9.1480   20.0610  -33.8800 H   0  0  0  0  0  0  0  0  0  0  0  0
   -8.3900   18.2015  -30.9644 H   0  0  0  0  0  0  0  0  0  0  0  0
   -6.4140   16.7162  -30.6381 H   0  0  0  0  0  0  0  0  0  0  0  0
   -4.4744   16.8462  -32.2010 H   0  0  0  0  0  0  0  0  0  0  0  0
   -4.5121   18.4612  -34.1044 H   0  0  0  0  0  0  0  0  0  0  0  0
   -6.4816   19.9520  -34.4428 H   0  0  0  0  0  0  0  0  0  0  0  0
   -8.6257   21.8115  -29.4065 H   0  0  0  0  0  0  0  0  0  0  0  0
   -6.8369   23.3801  -28.6637 H   0  0  0  0  0  0  0  0  0  0  0  0
  1  2  1  0
  2  3  2  0
  3  4  1  0
  4  5  2  0
  5  6  1  0
  6  7  1  0
  7  8  1  0
  8  9  2  0
  9 10  1  0
 10 11  2  0
 11 12  1  0
 12 13  2  0
  5 14  1  0
 14 15  2  0
 15  2  1  0
 13  8  1  0
  1 16  1  0
  1 17  1  0
  1 18  1  0
  3 19  1  0
  4 20  1  0
  6 21  1  0
  6 22  1  0
  7 23  1  0
  9 24  1  0
 10 25  1  0
 11 26  1  0
 12 27  1  0
 13 28  1  0
 14 29  1  0
 15 30  1  0
M  END
>  <UniqueID>  (3) 
2

>  <SMILES>  (3) 
Cc1ccc(CNc2ccccc2)cc1

>  <Energy>  (3) 
28.766318375282378

>  <Genealogy>  (3) 
Cc1ccc(CNc2ccccc2)cc1 (3D coordinates assigned)
Cc1ccc(CNc2ccccc2)cc1 (optimized conformer: 28.766318375282378 kcal/mol)

>  <smiles>  (3) 
Cc1ccc(CNc2ccccc2)cc1

>  <score_type>  (3) 
oracle

>  <origin>  (3) 
adgpu

>  <m_score__min__energy>  (3) 
-6.6799999999999997

>  <m_primary>  (3) 
energy

$$$$
3:0
     RDKit          3D

 35 35  0  0  0  0  0  0  0  0999 V2000
   -0.2030   20.9410  -33.1690 C   0  0  0  0  0  0  0  0  0  0  0  0
   -1.6280   21.1460  -32.6400 C   0  0  0  0  0  0  0  0  0  0  0  0
   -2.6570   20.9130  -33.6910 N   0  0  0  0  0  0  0  0  0  0  0  0
   -2.9760   19.4620  -33.7870 C   0  0  0  0  0  0  0  0  0  0  0  0
   -4.4820   19.1920  -33.6990 C   0  0  0  0  0  0  0  0  0  0  0  0
   -3.8890   21.6950  -33.3910 C   0  0  0  0  0  0  0  0  0  0  0  0
   -3.9230   22.1870  -31.9290 C   0  0  0  0  0  0  0  0  0  0  0  0
   -5.1240   23.0540  -31.6240 C   0  0  0  0  0  0  0  0  0  0  0  0
   -4.9480   24.2390  -31.2250 O   0  0  0  0  0  0  0  0  0  0  0  0
   -6.5100   22.5300  -31.7520 C   0  0  0  0  0  0  0  0  0  0  0  0
   -7.5950   23.4250  -31.8370 C   0  0  0  0  0  0  0  0  0  0  0  0
   -8.9040   22.9480  -31.9570 C   0  0  0  0  0  0  0  0  0  0  0  0
   -9.1490   21.5740  -31.9900 C   0  0  0  0  0  0  0  0  0  0  0  0
   -8.0860   20.6730  -31.9020 C   0  0  0  0  0  0  0  0  0  0  0  0
   -8.3970   18.9470  -31.9390 Cl  0  0  0  0  0  0  0  0  0  0  0  0
   -6.7740   21.1450  -31.7830 C   0  0  0  0  0  0  0  0  0  0  0  0
    0.4917   20.8411  -32.3220 H   0  0  0  0  0  0  0  0  0  0  0  0
   -0.1673   20.0285  -33.7822 H   0  0  0  0  0  0  0  0  0  0  0  0
    0.0885   21.8065  -33.7822 H   0  0  0  0  0  0  0  0  0  0  0  0
   -1.8027   20.4440  -31.8113 H   0  0  0  0  0  0  0  0  0  0  0  0
   -1.7172   22.1901  -32.3056 H   0  0  0  0  0  0  0  0  0  0  0  0
   -2.2730   21.2330  -34.6120 H   0  0  0  0  0  0  0  0  0  0  0  0
   -2.6036   19.0806  -34.7492 H   0  0  0  0  0  0  0  0  0  0  0  0
   -2.4923   18.9537  -32.9399 H   0  0  0  0  0  0  0  0  0  0  0  0
   -4.7837   19.1379  -32.6426 H   0  0  0  0  0  0  0  0  0  0  0  0
   -5.0301   20.0062  -34.1956 H   0  0  0  0  0  0  0  0  0  0  0  0
   -4.7131   18.2381  -34.1956 H   0  0  0  0  0  0  0  0  0  0  0  0
   -3.9268   22.5675  -34.0598 H   0  0  0  0  0  0  0  0  0  0  0  0
   -4.7552   21.0350  -33.5463 H   0  0  0  0  0  0  0  0  0  0  0  0
   -3.9460   21.3105  -31.2648 H   0  0  0  0  0  0  0  0  0  0  0  0
   -3.0249   22.8014  -31.7681 H   0  0  0  0  0  0  0  0  0  0  0  0
   -7.4106   24.5091  -31.8087 H   0  0  0  0  0  0  0  0  0  0  0  0
   -9.7424   23.6568  -32.0255 H   0  0  0  0  0  0  0  0  0  0  0  0
  -10.1795   21.2012  -32.0853 H   0  0  0  0  0  0  0  0  0  0  0  0
   -5.9414   20.4295  -31.7130 H   0  0  0  0  0  0  0  0  0  0  0  0
  1  2  1  0
  2  3  1  0
  3  4  1  0
  4  5  1  0
  3  6  1  0
  6  7  1  0
  7  8  1  0
  8  9  2  0
  8 10  1  0
 10 11  2  0
 11 12  1  0
 12 13  2  0
 13 14  1  0
 14 15  1  0
 14 16  2  0
 16 10  1  0
  1 17  1  0
  1 18  1  0
  1 19  1  0
  2 20  1  0
  2 21  1  0
  3 22  1  0
  4 23  1  0
  4 24  1  0
  5 25  1  0
  5 26  1  0
  5 27  1  0
  6 28  1  0
  6 29  1  0
  7 30  1  0
  7 31  1  0
 11 32  1  0
 12 33  1  0
 13 34  1  0
 16 35  1  0
M  CHG  1   3   1
M  END
>  <UniqueID>  (4) 
3

>  <SMILES>  (4) 
CC[NH+](CC)CCC(=O)c1cccc(Cl)c1

>  <Energy>  (4) 
35.794734232781984

>  <Genealogy>  (4) 
CC[NH+](CC)CCC(=O)c1cccc(Cl)c1 (protonated)
CC[NH+](CC)CCC(=O)c1cccc(Cl)c1 (3D coordinates assigned)
CC[NH+](CC)CCC(=O)c1cccc(Cl)c1 (optimized conformer: 35.794734232781984 kcal/mol)

>  <smiles>  (4) 
CCN(CC)CCC(=O)c1cccc(Cl)c1

>  <score_type>  (4) 
oracle

>  <origin>  (4) 
adgpu

>  <m_score__min__energy>  (4) 
-5.8700000000000001

>  <m_primary>  (4) 
energy

$$$$
4:0
     RDKit          3D

 27 29  0  0  0  0  0  0  0  0999 V2000
   -4.1760   20.8660  -33.0870 C   0  0  0  0  0  0  0  0  0  0  0  0
   -4.7710   21.9480  -32.2410 C   0  0  0  0  0  0  0  0  0  0  0  0
   -4.0570   23.0450  -31.8620 N   0  0  0  0  0  0  0  0  0  0  0  0
   -4.9380   23.7350  -31.1160 C   0  0  0  0  0  0  0  0  0  0  0  0
   -4.7580   24.9560  -30.4750 C   0  0  0  0  0  0  0  0  0  0  0  0
   -5.8570   25.4790  -29.7690 C   0  0  0  0  0  0  0  0  0  0  0  0
   -7.0790   24.7640  -29.7390 C   0  0  0  0  0  0  0  0  0  0  0  0
   -7.2000   23.5680  -30.3900 N   0  0  0  0  0  0  0  0  0  0  0  0
   -6.1240   23.0780  -31.0560 C   0  0  0  0  0  0  0  0  0  0  0  0
   -6.0510   21.9450  -31.7710 N   0  0  0  0  0  0  0  0  0  0  0  0
   -7.0890   20.9700  -31.9690 C   0  0  0  0  0  0  0  0  0  0  0  0
   -6.7840   19.5990  -31.9550 C   0  0  0  0  0  0  0  0  0  0  0  0
   -7.7930   18.6480  -32.1420 C   0  0  0  0  0  0  0  0  0  0  0  0
   -9.1140   19.0600  -32.3390 C   0  0  0  0  0  0  0  0  0  0  0  0
   -9.4280   20.4210  -32.3450 C   0  0  0  0  0  0  0  0  0  0  0  0
   -8.4220   21.3740  -32.1590 C   0  0  0  0  0  0  0  0  0  0  0  0
   -3.7478   20.0873  -32.4387 H   0  0  0  0  0  0  0  0  0  0  0  0
   -4.9585   20.4250  -33.7220 H   0  0  0  0  0  0  0  0  0  0  0  0
   -3.3845   21.2905  -33.7220 H   0  0  0  0  0  0  0  0  0  0  0  0
   -3.7974   25.4901  -30.5181 H   0  0  0  0  0  0  0  0  0  0  0  0
   -5.7672   26.4403  -29.2420 H   0  0  0  0  0  0  0  0  0  0  0  0
   -7.9378   25.1743  -29.1874 H   0  0  0  0  0  0  0  0  0  0  0  0
   -5.7461   19.2712  -31.7961 H   0  0  0  0  0  0  0  0  0  0  0  0
   -7.5467   17.5760  -32.1340 H   0  0  0  0  0  0  0  0  0  0  0  0
   -9.9066   18.3122  -32.4894 H   0  0  0  0  0  0  0  0  0  0  0  0
  -10.4687   20.7437  -32.4963 H   0  0  0  0  0  0  0  0  0  0  0  0
   -8.6747   22.4446  -32.1613 H   0  0  0  0  0  0  0  0  0  0  0  0
  1  2  1  0
  2  3  2  0
  3  4  1  0
  4  5  2  0
  5  6  1  0
  6  7  2  0
  7  8  1  0
  8  9  2  0
  9 10  1  0
 10 11  1  0
 11 12  2  0
 12 13  1  0
 13 14  2  0
 14 15  1  0
 15 16  2  0
 10  2  1  0
 16 11  1  0
  9  4  1  0
  1 17  1  0
  1 18  1  0
  1 19  1  0
  5 20  1  0
  6 21  1  0
  7 22  1  0
 12 23  1  0
 13 24  1  0
 14 25  1  0
 15 26  1  0
 16 27  1  0
M  END
>  <UniqueID>  (5) 
4

>  <SMILES>  (5) 
Cc1nc2cccnc2n1-c1ccccc1

>  <Energy>  (5) 
74.06091764171015

>  <Genealogy>  (5) 
Cc1nc2cccnc2n1-c1ccccc1 (3D coordinates assigned)
Cc1nc2cccnc2n1-c1ccccc1 (optimized conformer: 74.06091764171015 kcal/mol)

>  <smiles>  (5) 
Cc1nc2cccnc2n1-c1ccccc1

>  <score_type>  (5) 
oracle

>  <origin>  (5) 
adgpu

>  <m_score__min__energy>  (5) 
-6.5800000000000001

>  <m_primary>  (5) 
energy

$$$$
5:0
     RDKit          3D

 34 35  0  0  0  0  0  0  0  0999 V2000
    1.0830   16.4570  -27.6550 C   0  0  0  0  0  0  0  0  0  0  0  0
   -0.0120   17.1110  -27.0240 O   0  0  0  0  0  0  0  0  0  0  0  0
   -0.6100   18.2900  -27.4940 C   0  0  0  0  0  0  0  0  0  0  0  0
   -1.7190   18.8800  -26.8580 C   0  0  0  0  0  0  0  0  0  0  0  0
   -2.2800   20.0560  -27.3650 C   0  0  0  0  0  0  0  0  0  0  0  0
   -1.7460   20.6640  -28.5150 C   0  0  0  0  0  0  0  0  0  0  0  0
   -2.3410   21.9150  -29.0530 C   0  0  0  0  0  0  0  0  0  0  0  0
   -3.4790   21.8640  -29.8750 C   0  0  0  0  0  0  0  0  0  0  0  0
   -4.0390   23.0370  -30.3840 C   0  0  0  0  0  0  0  0  0  0  0  0
   -3.4720   24.2880  -30.0810 C   0  0  0  0  0  0  0  0  0  0  0  0
   -4.0070   25.4880  -30.5750 O   0  0  0  0  0  0  0  0  0  0  0  0
   -5.3820   25.8500  -30.4990 C   0  0  0  0  0  0  0  0  0  0  0  0
   -2.3360   24.3520  -29.2600 C   0  0  0  0  0  0  0  0  0  0  0  0
   -1.7930   25.6150  -28.9730 O   0  0  0  0  0  0  0  0  0  0  0  0
   -1.0750   25.9360  -27.7860 C   0  0  0  0  0  0  0  0  0  0  0  0
   -1.7750   23.1640  -28.7500 C   0  0  0  0  0  0  0  0  0  0  0  0
   -0.6390   20.0710  -29.1460 C   0  0  0  0  0  0  0  0  0  0  0  0
   -0.0790   18.8950  -28.6380 C   0  0  0  0  0  0  0  0  0  0  0  0
    1.7600   16.0527  -26.8880 H   0  0  0  0  0  0  0  0  0  0  0  0
    0.7072   15.6353  -28.2824 H   0  0  0  0  0  0  0  0  0  0  0  0
    1.6283   17.1775  -28.2824 H   0  0  0  0  0  0  0  0  0  0  0  0
   -2.1460   18.4135  -25.9580 H   0  0  0  0  0  0  0  0  0  0  0  0
   -3.1460   20.5092  -26.8603 H   0  0  0  0  0  0  0  0  0  0  0  0
   -3.9324   20.8921  -30.1195 H   0  0  0  0  0  0  0  0  0  0  0  0
   -4.9301   22.9826  -31.0267 H   0  0  0  0  0  0  0  0  0  0  0  0
   -5.6825   25.9291  -29.4438 H   0  0  0  0  0  0  0  0  0  0  0  0
   -5.5342   26.8188  -30.9972 H   0  0  0  0  0  0  0  0  0  0  0  0
   -5.9915   25.0817  -30.9972 H   0  0  0  0  0  0  0  0  0  0  0  0
   -1.6794   25.6658  -26.9075 H   0  0  0  0  0  0  0  0  0  0  0  0
   -0.1289   25.3752  -27.7668 H   0  0  0  0  0  0  0  0  0  0  0  0
   -0.8621   27.0150  -27.7668 H   0  0  0  0  0  0  0  0  0  0  0  0
   -0.8837   23.2156  -28.1074 H   0  0  0  0  0  0  0  0  0  0  0  0
   -0.2101   20.5355  -30.0461 H   0  0  0  0  0  0  0  0  0  0  0  0
    0.7869   18.4414  -29.1424 H   0  0  0  0  0  0  0  0  0  0  0  0
  1  2  1  0
  2  3  1  0
  3  4  2  0
  4  5  1  0
  5  6  2  0
  6  7  1  0
  7  8  2  0
  8  9  1  0
  9 10  2  0
 10 11  1  0
 11 12  1  0
 10 13  1  0
 13 14  1  0
 14 15  1  0
 13 16  2  0
  6 17  1  0
 17 18  2  0
 18  3  1  0
 16  7  1  0
  1 19  1  0
  1 20  1  0
  1 21  1  0
  4 22  1  0
  5 23  1  0
  8 24  1  0
  9 25  1  0
 12 26  1  0
 12 27  1  0
 12 28  1  0
 15 29  1  0
 15 30  1  0
 15 31  1  0
 16 32  1  0
 17 33  1  0
 18 34  1  0
M  END
>  <UniqueID>  (6) 
5

>  <SMILES>  (6) 
COc1ccc(-c2ccc(OC)c(OC)c2)cc1

>  <Energy>  (6) 
37.933696860903474

>  <Genealogy>  (6) 
COc1ccc(-c2ccc(OC)c(OC)c2)cc1 (3D coordinates assigned)
COc1ccc(-c2ccc(OC)c(OC)c2)cc1 (optimized conformer: 37.933696860903474 kcal/mol)

>  <smiles>  (6) 
COc1ccc(-c2ccc(OC)c(OC)c2)cc1

>  <score_type>  (6) 
oracle

>  <origin>  (6) 
adgpu

>  <m_score__min__energy>  (6) 
-6.5899999999999999

>  <m_primary>  (6) 
energy

$$$$
6:0
     RDKit          3D

 42 45  0  0  0  0  0  0  0  0999 V2000
   -0.4620   25.5840  -28.3410 O   0  0  0  0  0  0  0  0  0  0  0  0
   -1.2640   24.8220  -28.9440 C   0  0  0  0  0  0  0  0  0  0  0  0
   -2.4710   25.2970  -29.3380 N   0  0  0  0  0  0  0  0  0  0  0  0
   -3.3530   24.5020  -29.9890 C   0  0  0  0  0  0  0  0  0  0  0  0
   -4.5950   24.9880  -30.3940 C   0  0  0  0  0  0  0  0  0  0  0  0
   -5.4590   24.1670  -31.0430 N   0  0  0  0  0  0  0  0  0  0  0  0
   -5.1420   22.8680  -31.3070 C   0  0  0  0  0  0  0  0  0  0  0  0
   -6.0750   22.0110  -31.9970 N   0  0  0  0  0  0  0  0  0  0  0  0
   -7.4970   22.3710  -32.1050 C   0  0  0  0  0  0  0  0  0  0  0  0
   -8.4100   21.1310  -31.9870 C   0  0  0  0  0  0  0  0  0  0  0  0
   -7.7780   19.8640  -32.4040 N   0  0  0  0  0  0  0  0  0  0  0  0
   -6.7100   20.0650  -33.3860 C   0  0  0  0  0  0  0  0  0  0  0  0
   -5.5640   20.8660  -32.7630 C   0  0  0  0  0  0  0  0  0  0  0  0
   -3.9300   22.3840  -30.9160 N   0  0  0  0  0  0  0  0  0  0  0  0
   -3.0230   23.1630  -30.2630 C   0  0  0  0  0  0  0  0  0  0  0  0
   -1.8050   22.6650  -29.8670 N   0  0  0  0  0  0  0  0  0  0  0  0
   -1.4250   21.2700  -30.1760 C   0  0  0  0  0  0  0  0  0  0  0  0
   -1.6350   20.3870  -28.9730 C   0  0  0  0  0  0  0  0  0  0  0  0
   -0.6720   19.4230  -28.6230 C   0  0  0  0  0  0  0  0  0  0  0  0
   -0.8520   18.6250  -27.4910 C   0  0  0  0  0  0  0  0  0  0  0  0
   -1.9900   18.7820  -26.6950 C   0  0  0  0  0  0  0  0  0  0  0  0
   -2.9510   19.7390  -27.0330 C   0  0  0  0  0  0  0  0  0  0  0  0
   -2.7740   20.5410  -28.1650 C   0  0  0  0  0  0  0  0  0  0  0  0
   -0.9200   23.4880  -29.2100 C   0  0  0  0  0  0  0  0  0  0  0  0
    0.2070   23.0560  -28.8380 O   0  0  0  0  0  0  0  0  0  0  0  0
   -4.8736   26.0321  -30.1885 H   0  0  0  0  0  0  0  0  0  0  0  0
   -7.7483   23.0768  -31.2996 H   0  0  0  0  0  0  0  0  0  0  0  0
   -7.6618   22.8258  -33.0929 H   0  0  0  0  0  0  0  0  0  0  0  0
   -8.7196   21.0310  -30.9362 H   0  0  0  0  0  0  0  0  0  0  0  0
   -9.2555   21.2987  -32.6703 H   0  0  0  0  0  0  0  0  0  0  0  0
   -7.3710   19.3940  -31.5600 H   0  0  0  0  0  0  0  0  0  0  0  0
   -6.3317   19.0866  -33.7170 H   0  0  0  0  0  0  0  0  0  0  0  0
   -7.1121   20.6220  -34.2451 H   0  0  0  0  0  0  0  0  0  0  0  0
   -4.9914   20.2104  -32.0904 H   0  0  0  0  0  0  0  0  0  0  0  0
   -4.9221   21.2450  -33.5719 H   0  0  0  0  0  0  0  0  0  0  0  0
   -2.0438   20.9020  -31.0076 H   0  0  0  0  0  0  0  0  0  0  0  0
   -0.3612   21.2445  -30.4547 H   0  0  0  0  0  0  0  0  0  0  0  0
    0.2272   19.2971  -29.2440 H   0  0  0  0  0  0  0  0  0  0  0  0
   -0.0963   17.8711  -27.2253 H   0  0  0  0  0  0  0  0  0  0  0  0
   -2.1292   18.1530  -25.8034 H   0  0  0  0  0  0  0  0  0  0  0  0
   -3.8477   19.8615  -26.4078 H   0  0  0  0  0  0  0  0  0  0  0  0
   -3.5305   21.2963  -28.4241 H   0  0  0  0  0  0  0  0  0  0  0  0
  1  2  2  0
  2  3  1  0
  3  4  1  0
  4  5  2  0
  5  6  1  0
  6  7  2  0
  7  8  1  0
  8  9  1  0
  9 10  1  0
 10 11  1  0
 11 12  1  0
 12 13  1  0
  7 14  1  0
 14 15  2  0
 15 16  1  0
 16 17  1  0
 17 18  1  0
 18 19  2  0
 19 20  1  0
 20 21  2  0
 21 22  1  0
 22 23  2  0
 16 24  1  0
 24 25  2  0
 24  2  1  0
 15  4  1  0
 23 18  1  0
 13  8  1  0
  5 26  1  0
  9 27  1  0
  9 28  1  0
 10 29  1  0
 10 30  1  0
 11 31  1  0
 12 32  1  0
 12 33  1  0
 13 34  1  0
 13 35  1  0
 17 36  1  0
 17 37  1  0
 19 38  1  0
 20 39  1  0
 21 40  1  0
 22 41  1  0
 23 42  1  0
M  CHG  1   3  -1
M  END
>  <UniqueID>  (7) 
6

>  <SMILES>  (7) 
O=c1[n-]c2cnc(N3CCNCC3)nc2n(Cc2ccccc2)c1=O

>  <Energy>  (7) 
57.50004263779924

>  <Genealogy>  (7) 
O=c1[n-]c2cnc(N3CCNCC3)nc2n(Cc2ccccc2)c1=O (protonated)
O=c1[n-]c2cnc(N3CCNCC3)nc2n(Cc2ccccc2)c1=O (3D coordinates assigned)
O=c1[n-]c2cnc(N3CCNCC3)nc2n(Cc2ccccc2)c1=O (nonaromatic ring conformer: 57.50004263779924 kcal/mol)

>  <smiles>  (7) 
O=c1[nH]c2cnc(N3CCNCC3)nc2n(Cc2ccccc2)c1=O

>  <score_type>  (7) 
oracle

>  <origin>  (7) 
adgpu

>  <m_score__min__energy>  (7) 
-9.6500000000000004

>  <m_primary>  (7) 
energy

$$$$
7:0
     RDKit          3D

 28 29  0  0  0  0  0  0  0  0999 V2000
   -2.8570   25.2680  -29.3260 N   0  0  0  0  0  0  0  0  0  0  0  0
   -3.8420   24.5780  -30.1020 C   0  0  0  0  0  0  0  0  0  0  0  0
   -5.1380   25.0970  -30.2200 C   0  0  0  0  0  0  0  0  0  0  0  0
   -6.0990   24.4230  -30.9780 C   0  0  0  0  0  0  0  0  0  0  0  0
   -5.7810   23.2250  -31.6290 C   0  0  0  0  0  0  0  0  0  0  0  0
   -6.7840   22.5920  -32.3820 O   0  0  0  0  0  0  0  0  0  0  0  0
   -7.7370   21.6600  -31.8690 C   0  0  0  0  0  0  0  0  0  0  0  0
   -7.4240   20.2630  -32.3360 C   0  0  0  0  0  0  0  0  0  0  0  0
   -8.2470   19.1930  -31.9540 C   0  0  0  0  0  0  0  0  0  0  0  0
   -7.9570   17.8940  -32.3780 C   0  0  0  0  0  0  0  0  0  0  0  0
   -6.8400   17.6470  -33.1830 C   0  0  0  0  0  0  0  0  0  0  0  0
   -6.5090   15.9990  -33.7000 Cl  0  0  0  0  0  0  0  0  0  0  0  0
   -6.0020   18.7110  -33.5600 C   0  0  0  0  0  0  0  0  0  0  0  0
   -4.5850   18.4430  -34.5650 Cl  0  0  0  0  0  0  0  0  0  0  0  0
   -6.2940   20.0120  -33.1320 C   0  0  0  0  0  0  0  0  0  0  0  0
   -4.4790   22.7020  -31.5050 C   0  0  0  0  0  0  0  0  0  0  0  0
   -3.5180   23.3770  -30.7470 C   0  0  0  0  0  0  0  0  0  0  0  0
   -2.0080   25.6730  -29.7800 H   0  0  0  0  0  0  0  0  0  0  0  0
   -2.9700   25.3760  -28.2950 H   0  0  0  0  0  0  0  0  0  0  0  0
   -5.3998   26.0381  -29.7143 H   0  0  0  0  0  0  0  0  0  0  0  0
   -7.1144   24.8373  -31.0640 H   0  0  0  0  0  0  0  0  0  0  0  0
   -7.7118   21.6868  -30.7696 H   0  0  0  0  0  0  0  0  0  0  0  0
   -8.7357   21.9389  -32.2362 H   0  0  0  0  0  0  0  0  0  0  0  0
   -9.1249   19.3778  -31.3175 H   0  0  0  0  0  0  0  0  0  0  0  0
   -8.6101   17.0614  -32.0775 H   0  0  0  0  0  0  0  0  0  0  0  0
   -5.6340   20.8432  -33.4211 H   0  0  0  0  0  0  0  0  0  0  0  0
   -4.2175   21.7586  -32.0067 H   0  0  0  0  0  0  0  0  0  0  0  0
   -2.5027   22.9635  -30.6564 H   0  0  0  0  0  0  0  0  0  0  0  0
  1  2  1  0
  2  3  2  0
  3  4  1  0
  4  5  2  0
  5  6  1  0
  6  7  1  0
  7  8  1  0
  8  9  2  0
  9 10  1  0
 10 11  2  0
 11 12  1  0
 11 13  1  0
 13 14  1  0
 13 15  2  0
  5 16  1  0
 16 17  2  0
 17  2  1  0
 15  8  1  0
  1 18  1  0
  1 19  1  0
  3 20  1  0
  4 21  1  0
  7 22  1  0
  7 23  1  0
  9 24  1  0
 10 25  1  0
 15 26  1  0
 16 27  1  0
 17 28  1  0
M  END
>  <UniqueID>  (8) 
7

>  <SMILES>  (8) 
Nc1ccc(OCc2ccc(Cl)c(Cl)c2)cc1

>  <Energy>  (8) 
28.193279650098347

>  <Genealogy>  (8) 
Nc1ccc(OCc2ccc(Cl)c(Cl)c2)cc1 (3D coordinates assigned)
Nc1ccc(OCc2ccc(Cl)c(Cl)c2)cc1 (optimized conformer: 28.193279650098347 kcal/mol)

>  <smiles>  (8) 
Nc1ccc(OCc2ccc(Cl)c(Cl)c2)cc1

>  <score_type>  (8) 
oracle

>  <origin>  (8) 
adgpu

>  <m_score__min__energy>  (8) 
-7.6299999999999999

>  <m_primary>  (8) 
energy

$$$$
8:0
     RDKit          3D

 49 48  0  0  0  0  0  0  0  0999 V2000
   -6.7670   17.8090  -31.3630 C   0  0  0  0  0  0  0  0  0  0  0  0
   -7.7550   18.1640  -32.4730 C   0  0  0  0  0  0  0  0  0  0  0  0
   -9.0160   18.8770  -31.9510 C   0  0  0  0  0  0  0  0  0  0  0  0
   -9.1160   20.3700  -32.3150 C   0  0  0  0  0  0  0  0  0  0  0  0
   -8.1270   21.2390  -31.5280 C   0  0  0  0  0  0  0  0  0  0  0  0
   -8.2520   22.7200  -31.9220 C   0  0  0  0  0  0  0  0  0  0  0  0
   -7.2490   23.6100  -31.1670 C   0  0  0  0  0  0  0  0  0  0  0  0
   -5.9290   23.7920  -31.9310 C   0  0  0  0  0  0  0  0  0  0  0  0
   -4.9870   24.5940  -31.1220 N   0  0  0  0  0  0  0  0  0  0  0  0
   -5.6670   25.5420  -30.2260 C   0  0  0  0  0  0  0  0  0  0  0  0
   -3.8960   23.7950  -30.4990 C   0  0  0  0  0  0  0  0  0  0  0  0
   -3.9900   22.2510  -30.6260 C   0  0  0  0  0  0  0  0  0  0  0  0
   -3.1280   21.6120  -31.7350 C   0  0  0  0  0  0  0  0  0  0  0  0
   -3.8350   21.4820  -33.0990 C   0  0  0  0  0  0  0  0  0  0  0  0
   -5.0980   20.5990  -33.0780 C   0  0  0  0  0  0  0  0  0  0  0  0
   -4.9000   19.2810  -33.8280 C   0  0  0  0  0  0  0  0  0  0  0  0
   -7.2390   17.9786  -30.3840 H   0  0  0  0  0  0  0  0  0  0  0  0
   -6.4790   16.7512  -31.4529 H   0  0  0  0  0  0  0  0  0  0  0  0
   -5.8716   18.4417  -31.4529 H   0  0  0  0  0  0  0  0  0  0  0  0
   -7.2507   18.8257  -33.1926 H   0  0  0  0  0  0  0  0  0  0  0  0
   -8.0790   17.2216  -32.9388 H   0  0  0  0  0  0  0  0  0  0  0  0
   -9.8954   18.3643  -32.3679 H   0  0  0  0  0  0  0  0  0  0  0  0
   -8.9637   18.8306  -30.8532 H   0  0  0  0  0  0  0  0  0  0  0  0
   -8.9081   20.4850  -33.3890 H   0  0  0  0  0  0  0  0  0  0  0  0
  -10.1312   20.7071  -32.0587 H   0  0  0  0  0  0  0  0  0  0  0  0
   -8.3348   21.1350  -30.4528 H   0  0  0  0  0  0  0  0  0  0  0  0
   -7.1060   20.9019  -31.7602 H   0  0  0  0  0  0  0  0  0  0  0  0
   -8.0672   22.8158  -33.0021 H   0  0  0  0  0  0  0  0  0  0  0  0
   -9.2658   23.0550  -31.6575 H   0  0  0  0  0  0  0  0  0  0  0  0
   -7.7043   24.5989  -31.0099 H   0  0  0  0  0  0  0  0  0  0  0  0
   -7.0161   23.1143  -30.2130 H   0  0  0  0  0  0  0  0  0  0  0  0
   -5.4866   22.8058  -32.1352 H   0  0  0  0  0  0  0  0  0  0  0  0
   -6.1277   24.3134  -32.8790 H   0  0  0  0  0  0  0  0  0  0  0  0
   -5.4683   25.2650  -29.1802 H   0  0  0  0  0  0  0  0  0  0  0  0
   -5.2908   26.5584  -30.4139 H   0  0  0  0  0  0  0  0  0  0  0  0
   -6.7504   25.5115  -30.4139 H   0  0  0  0  0  0  0  0  0  0  0  0
   -2.9491   24.1087  -30.9627 H   0  0  0  0  0  0  0  0  0  0  0  0
   -3.9749   23.9974  -29.4207 H   0  0  0  0  0  0  0  0  0  0  0  0
   -3.6805   21.8144  -29.6650 H   0  0  0  0  0  0  0  0  0  0  0  0
   -5.0337   22.0380  -30.9005 H   0  0  0  0  0  0  0  0  0  0  0  0
   -2.2293   22.2314  -31.8715 H   0  0  0  0  0  0  0  0  0  0  0  0
   -2.8987   20.5888  -31.4026 H   0  0  0  0  0  0  0  0  0  0  0  0
   -4.1243   22.4889  -33.4342 H   0  0  0  0  0  0  0  0  0  0  0  0
   -3.1209   20.9936  -33.7783 H   0  0  0  0  0  0  0  0  0  0  0  0
   -5.3553   20.3752  -32.0322 H   0  0  0  0  0  0  0  0  0  0  0  0
   -5.9036   21.1537  -33.5813 H   0  0  0  0  0  0  0  0  0  0  0  0
   -4.7770   18.4620  -33.1040 H   0  0  0  0  0  0  0  0  0  0  0  0
   -5.7785   19.0830  -34.4597 H   0  0  0  0  0  0  0  0  0  0  0  0
   -4.0021   19.3499  -34.4597 H   0  0  0  0  0  0  0  0  0  0  0  0
  1  2  1  0
  2  3  1  0
  3  4  1  0
  4  5  1  0
  5  6  1  0
  6  7  1  0
  7  8  1  0
  8  9  1  0
  9 10  1  0
  9 11  1  0
 11 12  1  0
 12 13  1  0
 13 14  1  0
 14 15  1  0
 15 16  1  0
  1 17  1  0
  1 18  1  0
  1 19  1  0
  2 20  1  0
  2 21  1  0
  3 22  1  0
  3 23  1  0
  4 24  1  0
  4 25  1  0
  5 26  1  0
  5 27  1  0
  6 28  1  0
  6 29  1  0
  7 30  1  0
  7 31  1  0
  8 32  1  0
  8 33  1  0
 10 34  1  0
 10 35  1  0
 10 36  1  0
 11 37  1  0
 11 38  1  0
 12 39  1  0
 12 40  1  0
 13 41  1  0
 13 42  1  0
 14 43  1  0
 14 44  1  0
 15 45  1  0
 15 46  1  0
 16 47  1  0
 16 48  1  0
 16 49  1  0
M  END
>  <UniqueID>  (9) 
8

>  <SMILES>  (9) 
CCCCCCCCN(C)CCCCCC

>  <Energy>  (9) 
36.18270391204491

>  <Genealogy>  (9) 
CCCCCCCCN(C)CCCCCC (3D coordinates assigned)
CCCCCCCCN(C)CCCCCC (optimized conformer: 36.18270391204491 kcal/mol)

>  <smiles>  (9) 
CCCCCCCCN(C)CCCCCC

>  <score_type>  (9) 
oracle

>  <origin>  (9) 
adgpu

>  <m_score__min__energy>  (9) 
-5.5999999999999996

>  <m_primary>  (9) 
energy

$$$$
9:0
     RDKit          3D

 31 33  0  0  0  0  0  0  0  0999 V2000
   -2.4060   21.3780  -27.1460 F   0  0  0  0  0  0  0  0  0  0  0  0
   -2.1110   22.6170  -27.6130 C   0  0  0  0  0  0  0  0  0  0  0  0
   -1.0180   23.3160  -27.0940 C   0  0  0  0  0  0  0  0  0  0  0  0
   -0.7200   24.5970  -27.5660 C   0  0  0  0  0  0  0  0  0  0  0  0
   -1.5080   25.1790  -28.5650 C   0  0  0  0  0  0  0  0  0  0  0  0
   -1.2340   26.4450  -28.9690 F   0  0  0  0  0  0  0  0  0  0  0  0
   -2.5950   24.4680  -29.1090 C   0  0  0  0  0  0  0  0  0  0  0  0
   -3.4140   25.0140  -30.1070 O   0  0  0  0  0  0  0  0  0  0  0  0
   -4.6960   24.5550  -30.4410 C   0  0  0  0  0  0  0  0  0  0  0  0
   -5.8040   25.3330  -30.0940 C   0  0  0  0  0  0  0  0  0  0  0  0
   -7.0580   24.9140  -30.4010 N   0  0  0  0  0  0  0  0  0  0  0  0
   -7.2860   23.7330  -31.0350 C   0  0  0  0  0  0  0  0  0  0  0  0
   -6.2150   22.8920  -31.3800 C   0  0  0  0  0  0  0  0  0  0  0  0
   -6.4740   21.6020  -32.0680 C   0  0  0  0  0  0  0  0  0  0  0  0
   -7.7270   20.9630  -32.0010 C   0  0  0  0  0  0  0  0  0  0  0  0
   -7.9180   19.7520  -32.6680 C   0  0  0  0  0  0  0  0  0  0  0  0
   -6.8740   19.1860  -33.3990 C   0  0  0  0  0  0  0  0  0  0  0  0
   -5.6480   19.8460  -33.4560 C   0  0  0  0  0  0  0  0  0  0  0  0
   -5.4770   21.0250  -32.8000 N   0  0  0  0  0  0  0  0  0  0  0  0
   -4.9100   23.3200  -31.0760 C   0  0  0  0  0  0  0  0  0  0  0  0
   -2.9010   23.1940  -28.6120 C   0  0  0  0  0  0  0  0  0  0  0  0
   -0.3922   22.8579  -26.3139 H   0  0  0  0  0  0  0  0  0  0  0  0
    0.1362   25.1492  -27.1512 H   0  0  0  0  0  0  0  0  0  0  0  0
   -5.6591   26.2891  -29.5698 H   0  0  0  0  0  0  0  0  0  0  0  0
   -8.3160   23.4341  -31.2794 H   0  0  0  0  0  0  0  0  0  0  0  0
   -8.5494   21.4150  -31.4271 H   0  0  0  0  0  0  0  0  0  0  0  0
   -8.8923   19.2439  -32.6171 H   0  0  0  0  0  0  0  0  0  0  0  0
   -7.0165   18.2301  -33.9243 H   0  0  0  0  0  0  0  0  0  0  0  0
   -4.8173   19.4127  -34.0324 H   0  0  0  0  0  0  0  0  0  0  0  0
   -4.0515   22.6838  -31.3371 H   0  0  0  0  0  0  0  0  0  0  0  0
   -3.7672   22.6450  -29.0099 H   0  0  0  0  0  0  0  0  0  0  0  0
  1  2  1  0
  2  3  2  0
  3  4  1  0
  4  5  2  0
  5  6  1  0
  5  7  1  0
  7  8  1  0
  8  9  1  0
  9 10  2  0
 10 11  1  0
 11 12  2  0
 12 13  1  0
 13 14  1  0
 14 15  2  0
 15 16  1  0
 16 17  2  0
 17 18  1  0
 18 19  2  0
 13 20  2  0
  7 21  2  0
 21  2  1  0
 20  9  1  0
 19 14  1  0
  3 22  1  0
  4 23  1  0
 10 24  1  0
 12 25  1  0
 15 26  1  0
 16 27  1  0
 17 28  1  0
 18 29  1  0
 20 30  1  0
 21 31  1  0
M  END
>  <UniqueID>  (10) 
9

>  <SMILES>  (10) 
Fc1ccc(F)c(Oc2cncc(-c3ccccn3)c2)c1

>  <Energy>  (10) 
46.9642168970282

>  <Genealogy>  (10) 
Fc1ccc(F)c(Oc2cncc(-c3ccccn3)c2)c1 (3D coordinates assigned)
Fc1ccc(F)c(Oc2cncc(-c3ccccn3)c2)c1 (optimized conformer: 46.9642168970282 kcal/mol)

>  <smiles>  (10) 
Fc1ccc(F)c(Oc2cncc(-c3ccccn3)c2)c1

>  <score_type>  (10) 
oracle

>  <origin>  (10) 
adgpu

>  <m_score__min__energy>  (10) 
-7.5899999999999999

>  <m_primary>  (10) 
energy

$$$$
10:0
     RDKit          3D

 20 20  0  0  0  0  0  0  0  0999 V2000
   -7.6810   20.0860  -32.7920 C   0  0  0  0  0  0  0  0  0  0  0  0
   -7.0670   21.3020  -32.1640 C   0  0  0  0  0  0  0  0  0  0  0  0
   -7.8370   22.1340  -31.3360 C   0  0  0  0  0  0  0  0  0  0  0  0
   -7.2560   23.2460  -30.7190 C   0  0  0  0  0  0  0  0  0  0  0  0
   -5.8990   23.5340  -30.9180 C   0  0  0  0  0  0  0  0  0  0  0  0
   -5.1630   24.9240  -30.1260 S   0  0  0  0  0  0  0  0  0  0  0  0
   -4.8290   24.5430  -28.4740 N   0  0  0  0  0  0  0  0  0  0  0  0
   -6.0970   26.1000  -30.1910 O   0  0  0  0  0  0  0  0  0  0  0  0
   -3.8830   25.2890  -30.8250 O   0  0  0  0  0  0  0  0  0  0  0  0
   -5.1230   22.6890  -31.7230 C   0  0  0  0  0  0  0  0  0  0  0  0
   -5.7030   21.5770  -32.3400 C   0  0  0  0  0  0  0  0  0  0  0  0
   -8.0268   19.4012  -32.0037 H   0  0  0  0  0  0  0  0  0  0  0  0
   -8.5350   20.3874  -33.4164 H   0  0  0  0  0  0  0  0  0  0  0  0
   -6.9315   19.5777  -33.4164 H   0  0  0  0  0  0  0  0  0  0  0  0
   -8.9014   21.9102  -31.1720 H   0  0  0  0  0  0  0  0  0  0  0  0
   -7.8660   23.8969  -30.0753 H   0  0  0  0  0  0  0  0  0  0  0  0
   -5.7160   24.1820  -28.0580 H   0  0  0  0  0  0  0  0  0  0  0  0
   -4.6140   25.4440  -27.9910 H   0  0  0  0  0  0  0  0  0  0  0  0
   -4.0538   22.9017  -31.8698 H   0  0  0  0  0  0  0  0  0  0  0  0
   -5.0871   20.9148  -32.9662 H   0  0  0  0  0  0  0  0  0  0  0  0
  1  2  1  0
  2  3  2  0
  3  4  1  0
  4  5  2  0
  5  6  1  0
  6  7  1  0
  6  8  2  0
  6  9  2  0
  5 10  1  0
 10 11  2  0
 11  2  1  0
  1 12  1  0
  1 13  1  0
  1 14  1  0
  3 15  1  0
  4 16  1  0
  7 17  1  0
  7 18  1  0
 10 19  1  0
 11 20  1  0
M  END
>  <UniqueID>  (11) 
10

>  <SMILES>  (11) 
Cc1ccc(S(N)(=O)=O)cc1

>  <Energy>  (11) 
16.02832820903124

>  <Genealogy>  (11) 
Cc1ccc(S(N)(=O)=O)cc1 (3D coordinates assigned)
Cc1ccc(S(N)(=O)=O)cc1 (optimized conformer: 16.02832820903124 kcal/mol)

>  <smiles>  (11) 
Cc1ccc(S(N)(=O)=O)cc1

>  <score_type>  (11) 
oracle

>  <origin>  (11) 
adgpu

>  <m_score__min__energy>  (11) 
-6.6799999999999997

>  <m_primary>  (11) 
energy

$$$$
11:0
     RDKit          3D

 39 40  0  0  0  0  0  0  0  0999 V2000
   -1.6780   19.6600  -27.0480 C   0  0  0  0  0  0  0  0  0  0  0  0
   -0.8680   19.2540  -28.2080 N   0  0  0  0  0  0  0  0  0  0  0  0
   -0.0920   18.0490  -27.8640 C   0  0  0  0  0  0  0  0  0  0  0  0
    0.0220   20.3600  -28.6240 C   0  0  0  0  0  0  0  0  0  0  0  0
   -0.6450   21.2080  -29.7160 C   0  0  0  0  0  0  0  0  0  0  0  0
   -1.9850   20.7010  -30.0210 N   0  0  0  0  0  0  0  0  0  0  0  0
   -3.1040   21.5200  -30.4180 C   0  0  0  0  0  0  0  0  0  0  0  0
   -2.9630   22.9150  -30.4080 C   0  0  0  0  0  0  0  0  0  0  0  0
   -4.0240   23.7430  -30.7830 C   0  0  0  0  0  0  0  0  0  0  0  0
   -3.8580   25.1260  -30.7580 O   0  0  0  0  0  0  0  0  0  0  0  0
   -5.2430   23.1790  -31.1750 C   0  0  0  0  0  0  0  0  0  0  0  0
   -5.4100   21.7850  -31.1980 C   0  0  0  0  0  0  0  0  0  0  0  0
   -6.7070   21.1860  -31.6070 C   0  0  0  0  0  0  0  0  0  0  0  0
   -6.7610   19.8800  -32.1280 C   0  0  0  0  0  0  0  0  0  0  0  0
   -7.9830   19.3200  -32.5100 C   0  0  0  0  0  0  0  0  0  0  0  0
   -9.1630   20.0550  -32.3790 C   0  0  0  0  0  0  0  0  0  0  0  0
   -9.1230   21.3530  -31.8640 C   0  0  0  0  0  0  0  0  0  0  0  0
   -7.9040   21.9170  -31.4780 C   0  0  0  0  0  0  0  0  0  0  0  0
   -4.3320   20.9610  -30.8240 C   0  0  0  0  0  0  0  0  0  0  0  0
   -1.1491   19.3949  -26.1206 H   0  0  0  0  0  0  0  0  0  0  0  0
   -1.8427   20.7472  -27.0782 H   0  0  0  0  0  0  0  0  0  0  0  0
   -2.6476   19.1413  -27.0782 H   0  0  0  0  0  0  0  0  0  0  0  0
   -0.0300   17.9527  -26.7700 H   0  0  0  0  0  0  0  0  0  0  0  0
   -0.5885   17.1612  -28.2827 H   0  0  0  0  0  0  0  0  0  0  0  0
    0.9217   18.1338  -28.2827 H   0  0  0  0  0  0  0  0  0  0  0  0
    0.2386   20.9967  -27.7536 H   0  0  0  0  0  0  0  0  0  0  0  0
    0.9536   19.9341  -29.0249 H   0  0  0  0  0  0  0  0  0  0  0  0
   -0.7235   22.2483  -29.3674 H   0  0  0  0  0  0  0  0  0  0  0  0
   -0.0317   21.1555  -30.6277 H   0  0  0  0  0  0  0  0  0  0  0  0
   -2.1350   19.6710  -29.9190 H   0  0  0  0  0  0  0  0  0  0  0  0
   -2.0061   23.3626  -30.1014 H   0  0  0  0  0  0  0  0  0  0  0  0
   -3.9110   25.6820  -31.6030 H   0  0  0  0  0  0  0  0  0  0  0  0
   -6.0775   23.8332  -31.4676 H   0  0  0  0  0  0  0  0  0  0  0  0
   -5.8351   19.2959  -32.2353 H   0  0  0  0  0  0  0  0  0  0  0  0
   -8.0154   18.2977  -32.9149 H   0  0  0  0  0  0  0  0  0  0  0  0
  -10.1235   19.6122  -32.6812 H   0  0  0  0  0  0  0  0  0  0  0  0
  -10.0526   21.9321  -31.7621 H   0  0  0  0  0  0  0  0  0  0  0  0
   -7.8792   22.9385  -31.0708 H   0  0  0  0  0  0  0  0  0  0  0  0
   -4.4496   19.8676  -30.8490 H   0  0  0  0  0  0  0  0  0  0  0  0
  1  2  1  0
  2  3  1  0
  2  4  1  0
  4  5  1  0
  5  6  1  0
  6  7  1  0
  7  8  2  0
  8  9  1  0
  9 10  1  0
  9 11  2  0
 11 12  1  0
 12 13  1  0
 13 14  2  0
 14 15  1  0
 15 16  2  0
 16 17  1  0
 17 18  2  0
 12 19  2  0
 19  7  1  0
 18 13  1  0
  1 20  1  0
  1 21  1  0
  1 22  1  0
  3 23  1  0
  3 24  1  0
  3 25  1  0
  4 26  1  0
  4 27  1  0
  5 28  1  0
  5 29  1  0
  6 30  1  0
  8 31  1  0
 10 32  1  0
 11 33  1  0
 14 34  1  0
 15 35  1  0
 16 36  1  0
 17 37  1  0
 18 38  1  0
 19 39  1  0
M  END
>  <UniqueID>  (12) 
11

>  <SMILES>  (12) 
CN(C)CCNc1cc(O)cc(-c2ccccc2)c1

>  <Energy>  (12) 
42.279287076260125

>  <Genealogy>  (12) 
CN(C)CCNc1cc(O)cc(-c2ccccc2)c1 (3D coordinates assigned)
CN(C)CCNc1cc(O)cc(-c2ccccc2)c1 (optimized conformer: 42.279287076260125 kcal/mol)

>  <smiles>  (12) 
CN(C)CCNc1cc(O)cc(-c2ccccc2)c1

>  <score_type>  (12) 
oracle

>  <origin>  (12) 
adgpu

>  <m_score__min__energy>  (12) 
-7.3600000000000003

>  <m_primary>  (12) 
energy

$$$$
12:0
     RDKit          3D

 25 26  0  0  0  0  0  0  0  0999 V2000
   -6.0940   18.3350  -34.9370 N   0  0  0  0  0  0  0  0  0  0  0  0
   -5.6400   19.2580  -33.9430 C   0  0  0  0  0  0  0  0  0  0  0  0
   -6.5630   19.9890  -33.1870 C   0  0  0  0  0  0  0  0  0  0  0  0
   -6.1260   20.8940  -32.2130 C   0  0  0  0  0  0  0  0  0  0  0  0
   -7.3360   21.8090  -31.3200 Cl  0  0  0  0  0  0  0  0  0  0  0  0
   -4.7440   21.0760  -31.9870 C   0  0  0  0  0  0  0  0  0  0  0  0
   -4.2750   22.0300  -30.9600 C   0  0  0  0  0  0  0  0  0  0  0  0
   -3.8140   21.5630  -29.7200 C   0  0  0  0  0  0  0  0  0  0  0  0
   -3.3690   22.4660  -28.7500 C   0  0  0  0  0  0  0  0  0  0  0  0
   -3.3810   23.8420  -29.0080 C   0  0  0  0  0  0  0  0  0  0  0  0
   -2.9320   24.7210  -28.0230 O   0  0  0  0  0  0  0  0  0  0  0  0
   -3.8420   24.3140  -30.2490 C   0  0  0  0  0  0  0  0  0  0  0  0
   -3.8600   25.6760  -30.5230 O   0  0  0  0  0  0  0  0  0  0  0  0
   -4.2870   23.4090  -31.2200 C   0  0  0  0  0  0  0  0  0  0  0  0
   -3.8180   20.3370  -32.7520 C   0  0  0  0  0  0  0  0  0  0  0  0
   -2.0810   20.4890  -32.4970 Cl  0  0  0  0  0  0  0  0  0  0  0  0
   -4.2690   19.4360  -33.7220 C   0  0  0  0  0  0  0  0  0  0  0  0
   -6.7610   18.6370  -35.6820 H   0  0  0  0  0  0  0  0  0  0  0  0
   -5.7680   17.3430  -34.9350 H   0  0  0  0  0  0  0  0  0  0  0  0
   -7.6406   19.8513  -33.3596 H   0  0  0  0  0  0  0  0  0  0  0  0
   -3.8027   20.4832  -29.5104 H   0  0  0  0  0  0  0  0  0  0  0  0
   -3.0079   22.0938  -27.7799 H   0  0  0  0  0  0  0  0  0  0  0  0
   -3.3820   25.6140  -27.8550 H   0  0  0  0  0  0  0  0  0  0  0  0
   -4.6475   23.7803  -32.1906 H   0  0  0  0  0  0  0  0  0  0  0  0
   -3.5413   18.8631  -34.3155 H   0  0  0  0  0  0  0  0  0  0  0  0
  1  2  1  0
  2  3  2  0
  3  4  1  0
  4  5  1  0
  4  6  2  0
  6  7  1  0
  7  8  2  0
  8  9  1  0
  9 10  2  0
 10 11  1  0
 10 12  1  0
 12 13  1  0
 12 14  2  0
  6 15  1  0
 15 16  1  0
 15 17  2  0
 17  2  1  0
 14  7  1  0
  1 18  1  0
  1 19  1  0
  3 20  1  0
  8 21  1  0
  9 22  1  0
 11 23  1  0
 14 24  1  0
 17 25  1  0
M  CHG  1  13  -1
M  END
>  <UniqueID>  (13) 
12

>  <SMILES>  (13) 
Nc1cc(Cl)c(-c2ccc(O)c([O-])c2)c(Cl)c1

>  <Energy>  (13) 
34.058254987652745

>  <Genealogy>  (13) 
Nc1cc(Cl)c(-c2ccc(O)c([O-])c2)c(Cl)c1 (protonated)
Nc1cc(Cl)c(-c2ccc(O)c([O-])c2)c(Cl)c1 (3D coordinates assigned)
Nc1cc(Cl)c(-c2ccc(O)c([O-])c2)c(Cl)c1 (optimized conformer: 34.058254987652745 kcal/mol)

>  <smiles>  (13) 
Nc1cc(Cl)c(-c2ccc(O)c(O)c2)c(Cl)c1

>  <score_type>  (13) 
oracle

>  <origin>  (13) 
adgpu

>  <m_score__min__energy>  (13) 
-9.9100000000000001

>  <m_primary>  (13) 
energy

$$$$
13:0
     RDKit          3D

 24 25  0  0  0  0  0  0  0  0999 V2000
   -2.2380   24.9150  -28.6610 C   0  0  0  0  0  0  0  0  0  0  0  0
   -3.1240   25.2710  -29.7180 O   0  0  0  0  0  0  0  0  0  0  0  0
   -4.1960   24.4780  -30.1530 C   0  0  0  0  0  0  0  0  0  0  0  0
   -5.5280   24.9320  -30.1330 C   0  0  0  0  0  0  0  0  0  0  0  0
   -6.5630   24.1040  -30.5790 C   0  0  0  0  0  0  0  0  0  0  0  0
   -6.2890   22.8080  -31.0500 C   0  0  0  0  0  0  0  0  0  0  0  0
   -7.3880   21.9260  -31.5220 C   0  0  0  0  0  0  0  0  0  0  0  0
   -8.7140   22.3830  -31.5750 C   0  0  0  0  0  0  0  0  0  0  0  0
   -9.7030   21.5620  -32.0120 N   0  0  0  0  0  0  0  0  0  0  0  0
   -9.4340   20.2890  -32.4000 C   0  0  0  0  0  0  0  0  0  0  0  0
   -8.1610   19.8190  -32.3570 N   0  0  0  0  0  0  0  0  0  0  0  0
   -7.1400   20.6070  -31.9310 C   0  0  0  0  0  0  0  0  0  0  0  0
   -4.9560   22.3600  -31.0650 C   0  0  0  0  0  0  0  0  0  0  0  0
   -3.9230   23.1900  -30.6220 C   0  0  0  0  0  0  0  0  0  0  0  0
   -2.7240   25.1103  -27.6937 H   0  0  0  0  0  0  0  0  0  0  0  0
   -1.9877   23.8465  -28.7365 H   0  0  0  0  0  0  0  0  0  0  0  0
   -1.3180   25.5133  -28.7365 H   0  0  0  0  0  0  0  0  0  0  0  0
   -5.7561   25.9431  -29.7647 H   0  0  0  0  0  0  0  0  0  0  0  0
   -7.6002   24.4698  -30.5611 H   0  0  0  0  0  0  0  0  0  0  0  0
   -8.9527   23.4100  -31.2614 H   0  0  0  0  0  0  0  0  0  0  0  0
  -10.2485   19.6376  -32.7496 H   0  0  0  0  0  0  0  0  0  0  0  0
   -6.1146   20.2095  -31.9066 H   0  0  0  0  0  0  0  0  0  0  0  0
   -4.7247   21.3479  -31.4285 H   0  0  0  0  0  0  0  0  0  0  0  0
   -2.8851   22.8263  -30.6425 H   0  0  0  0  0  0  0  0  0  0  0  0
  1  2  1  0
  2  3  1  0
  3  4  2  0
  4  5  1  0
  5  6  2  0
  6  7  1  0
  7  8  2  0
  8  9  1  0
  9 10  2  0
 10 11  1  0
 11 12  2  0
  6 13  1  0
 13 14  2  0
 14  3  1  0
 12  7  1  0
  1 15  1  0
  1 16  1  0
  1 17  1  0
  4 18  1  0
  5 19  1  0
  8 20  1  0
 10 21  1  0
 12 22  1  0
 13 23  1  0
 14 24  1  0
M  END
>  <UniqueID>  (14) 
13

>  <SMILES>  (14) 
COc1ccc(-c2cncnc2)cc1

>  <Energy>  (14) 
30.56761728548399

>  <Genealogy>  (14) 
COc1ccc(-c2cncnc2)cc1 (3D coordinates assigned)
COc1ccc(-c2cncnc2)cc1 (optimized conformer: 30.56761728548399 kcal/mol)

>  <smiles>  (14) 
COc1ccc(-c2cncnc2)cc1

>  <score_type>  (14) 
oracle

>  <origin>  (14) 
adgpu

>  <m_score__min__energy>  (14) 
-6.0300000000000002

>  <m_primary>  (14) 
energy

$$$$
14:0
     RDKit          3D

 29 31  0  0  0  0  0  0  0  0999 V2000
   -9.4850   21.5440  -30.9110 C   0  0  0  0  0  0  0  0  0  0  0  0
   -8.6100   22.0650  -31.7670 C   0  0  0  0  0  0  0  0  0  0  0  0
   -7.1670   22.1590  -31.4700 C   0  0  0  0  0  0  0  0  0  0  0  0
   -6.1790   21.2180  -31.7880 C   0  0  0  0  0  0  0  0  0  0  0  0
   -6.3710   19.8750  -32.3780 C   0  0  0  0  0  0  0  0  0  0  0  0
   -7.2330   18.9320  -31.7920 C   0  0  0  0  0  0  0  0  0  0  0  0
   -7.3830   17.6630  -32.3600 C   0  0  0  0  0  0  0  0  0  0  0  0
   -6.6650   17.3190  -33.5100 C   0  0  0  0  0  0  0  0  0  0  0  0
   -6.8530   15.7260  -34.2200 Cl  0  0  0  0  0  0  0  0  0  0  0  0
   -5.7890   18.2440  -34.0860 C   0  0  0  0  0  0  0  0  0  0  0  0
   -5.6360   19.5130  -33.5200 C   0  0  0  0  0  0  0  0  0  0  0  0
   -4.9850   21.6960  -31.4870 O   0  0  0  0  0  0  0  0  0  0  0  0
   -5.1430   22.8990  -30.9920 C   0  0  0  0  0  0  0  0  0  0  0  0
   -4.1450   23.7710  -30.5650 C   0  0  0  0  0  0  0  0  0  0  0  0
   -4.5340   25.0450  -30.1130 C   0  0  0  0  0  0  0  0  0  0  0  0
   -5.8950   25.4160  -30.1110 C   0  0  0  0  0  0  0  0  0  0  0  0
   -6.8820   24.5140  -30.5490 C   0  0  0  0  0  0  0  0  0  0  0  0
   -6.4710   23.2430  -30.9610 C   0  0  0  0  0  0  0  0  0  0  0  0
  -10.5514   21.4950  -31.1762 H   0  0  0  0  0  0  0  0  0  0  0  0
   -9.1421   21.1622  -29.9380 H   0  0  0  0  0  0  0  0  0  0  0  0
   -8.9761   22.4405  -32.7340 H   0  0  0  0  0  0  0  0  0  0  0  0
   -7.7925   19.1936  -30.8818 H   0  0  0  0  0  0  0  0  0  0  0  0
   -8.0671   16.9338  -31.9014 H   0  0  0  0  0  0  0  0  0  0  0  0
   -5.2188   17.9725  -34.9867 H   0  0  0  0  0  0  0  0  0  0  0  0
   -4.9365   20.2323  -33.9709 H   0  0  0  0  0  0  0  0  0  0  0  0
   -3.0862   23.4732  -30.5806 H   0  0  0  0  0  0  0  0  0  0  0  0
   -3.7728   25.7559  -29.7592 H   0  0  0  0  0  0  0  0  0  0  0  0
   -6.1869   26.4183  -29.7643 H   0  0  0  0  0  0  0  0  0  0  0  0
   -7.9440   24.8001  -30.5667 H   0  0  0  0  0  0  0  0  0  0  0  0
  1  2  2  0
  2  3  1  0
  3  4  2  0
  4  5  1  0
  5  6  2  0
  6  7  1  0
  7  8  2  0
  8  9  1  0
  8 10  1  0
 10 11  2  0
  4 12  1  0
 12 13  1  0
 13 14  2  0
 14 15  1  0
 15 16  2  0
 16 17  1  0
 17 18  2  0
 18  3  1  0
 11  5  1  0
 18 13  1  0
  1 19  1  0
  1 20  1  0
  2 21  1  0
  6 22  1  0
  7 23  1  0
 10 24  1  0
 11 25  1  0
 14 26  1  0
 15 27  1  0
 16 28  1  0
 17 29  1  0
M  END
>  <UniqueID>  (15) 
14

>  <SMILES>  (15) 
C=Cc1c(-c2ccc(Cl)cc2)oc2ccccc12

>  <Energy>  (15) 
72.07663797300204

>  <Genealogy>  (15) 
C=Cc1c(-c2ccc(Cl)cc2)oc2ccccc12 (3D coordinates assigned)
C=Cc1c(-c2ccc(Cl)cc2)oc2ccccc12 (optimized conformer: 72.07663797300204 kcal/mol)

>  <smiles>  (15) 
C=Cc1c(-c2ccc(Cl)cc2)oc2ccccc12

>  <score_type>  (15) 
oracle

>  <origin>  (15) 
adgpu

>  <m_score__min__energy>  (15) 
-7.6200000000000001

>  <m_primary>  (15) 
energy

$$$$
15:0
     RDKit          3D

 27 28  0  0  0  0  0  0  0  0999 V2000
   -3.1120   23.8750  -30.3870 O   0  0  0  0  0  0  0  0  0  0  0  0
   -4.2280   24.2070  -30.8360 N   0  0  0  0  0  0  0  0  0  0  0  0
   -4.5760   25.5390  -30.8270 O   0  0  0  0  0  0  0  0  0  0  0  0
   -5.1340   23.2180  -31.3570 C   0  0  0  0  0  0  0  0  0  0  0  0
   -4.6420   22.1040  -32.0630 C   0  0  0  0  0  0  0  0  0  0  0  0
   -5.5200   21.1420  -32.5690 C   0  0  0  0  0  0  0  0  0  0  0  0
   -6.8990   21.2750  -32.3720 C   0  0  0  0  0  0  0  0  0  0  0  0
   -8.0240   20.0340  -33.0130 S   0  0  0  0  0  0  0  0  0  0  0  0
   -6.6930   18.8870  -33.4030 C   0  0  0  0  0  0  0  0  0  0  0  0
   -6.0900   18.9850  -34.6640 C   0  0  0  0  0  0  0  0  0  0  0  0
   -5.1020   18.0780  -35.0510 C   0  0  0  0  0  0  0  0  0  0  0  0
   -4.7090   17.0610  -34.1820 C   0  0  0  0  0  0  0  0  0  0  0  0
   -3.4750   15.9160  -34.6730 Cl  0  0  0  0  0  0  0  0  0  0  0  0
   -5.2970   16.9560  -32.9170 C   0  0  0  0  0  0  0  0  0  0  0  0
   -6.2830   17.8720  -32.5050 C   0  0  0  0  0  0  0  0  0  0  0  0
   -6.8500   17.7540  -31.1880 N   0  0  0  0  0  0  0  0  0  0  0  0
   -6.1390   17.3870  -30.2300 O   0  0  0  0  0  0  0  0  0  0  0  0
   -8.1260   18.2010  -30.9310 O   0  0  0  0  0  0  0  0  0  0  0  0
   -7.3980   22.3800  -31.6770 C   0  0  0  0  0  0  0  0  0  0  0  0
   -6.5230   23.3460  -31.1700 C   0  0  0  0  0  0  0  0  0  0  0  0
   -3.5589   21.9900  -32.2174 H   0  0  0  0  0  0  0  0  0  0  0  0
   -5.1261   20.2777  -33.1238 H   0  0  0  0  0  0  0  0  0  0  0  0
   -6.3979   19.7836  -35.3550 H   0  0  0  0  0  0  0  0  0  0  0  0
   -4.6332   18.1657  -36.0422 H   0  0  0  0  0  0  0  0  0  0  0  0
   -4.9855   16.1492  -32.2373 H   0  0  0  0  0  0  0  0  0  0  0  0
   -8.4823   22.4903  -31.5283 H   0  0  0  0  0  0  0  0  0  0  0  0
   -6.9230   24.2115  -30.6215 H   0  0  0  0  0  0  0  0  0  0  0  0
  1  2  2  0
  2  3  1  0
  2  4  1  0
  4  5  2  0
  5  6  1  0
  6  7  2  0
  7  8  1  0
  8  9  1  0
  9 10  2  0
 10 11  1  0
 11 12  2  0
 12 13  1  0
 12 14  1  0
 14 15  2  0
 15 16  1  0
 16 17  2  0
 16 18  1  0
  7 19  1  0
 19 20  2  0
 20  4  1  0
 15  9  1  0
  5 21  1  0
  6 22  1  0
 10 23  1  0
 11 24  1  0
 14 25  1  0
 19 26  1  0
 20 27  1  0
M  CHG  4   2   1   3  -1  16   1  18  -1
M  END
>  <UniqueID>  (16) 
15

>  <SMILES>  (16) 
O=[N+]([O-])c1ccc(Sc2ccc(Cl)cc2[N+](=O)[O-])cc1

>  <Energy>  (16) 
29.263098144937576

>  <Genealogy>  (16) 
O=[N+]([O-])c1ccc(Sc2ccc(Cl)cc2[N+](=O)[O-])cc1 (3D coordinates assigned)
O=[N+]([O-])c1ccc(Sc2ccc(Cl)cc2[N+](=O)[O-])cc1 (optimized conformer: 29.263098144937576 kcal/mol)

>  <smiles>  (16) 
O=[N+]([O-])c1ccc(Sc2ccc(Cl)cc2[N+](=O)[O-])cc1

>  <score_type>  (16) 
oracle

>  <origin>  (16) 
adgpu

>  <m_score__min__energy>  (16) 
-8.0899999999999999

>  <m_primary>  (16) 
energy

$$$$
16:0
     RDKit          3D

 24 24  0  0  0  0  0  0  0  0999 V2000
   -6.3040   16.6590  -33.8330 C   0  0  0  0  0  0  0  0  0  0  0  0
   -6.8970   17.6060  -32.9510 O   0  0  0  0  0  0  0  0  0  0  0  0
   -6.5170   18.9550  -32.8600 C   0  0  0  0  0  0  0  0  0  0  0  0
   -5.2210   19.3900  -33.1900 C   0  0  0  0  0  0  0  0  0  0  0  0
   -4.8820   20.7410  -33.0870 C   0  0  0  0  0  0  0  0  0  0  0  0
   -5.8260   21.6860  -32.6600 C   0  0  0  0  0  0  0  0  0  0  0  0
   -5.4370   23.0690  -32.5670 N   0  0  0  0  0  0  0  0  0  0  0  0
   -5.0150   23.8770  -31.0890 S   0  0  0  0  0  0  0  0  0  0  0  0
   -5.9250   23.1810  -29.7260 C   0  0  0  0  0  0  0  0  0  0  0  0
   -5.3780   25.3300  -31.2100 O   0  0  0  0  0  0  0  0  0  0  0  0
   -3.5360   23.7690  -30.8450 O   0  0  0  0  0  0  0  0  0  0  0  0
   -7.1190   21.2480  -32.3230 C   0  0  0  0  0  0  0  0  0  0  0  0
   -7.4610   19.8960  -32.4250 C   0  0  0  0  0  0  0  0  0  0  0  0
   -9.0900   19.3890  -31.9980 Cl  0  0  0  0  0  0  0  0  0  0  0  0
   -5.8102   15.8705  -33.2461 H   0  0  0  0  0  0  0  0  0  0  0  0
   -7.0830   16.2107  -34.4672 H   0  0  0  0  0  0  0  0  0  0  0  0
   -5.5606   17.1640  -34.4672 H   0  0  0  0  0  0  0  0  0  0  0  0
   -4.4701   18.6622  -33.5311 H   0  0  0  0  0  0  0  0  0  0  0  0
   -3.8634   21.0673  -33.3436 H   0  0  0  0  0  0  0  0  0  0  0  0
   -5.4660   23.6590  -33.4280 H   0  0  0  0  0  0  0  0  0  0  0  0
   -5.4818   23.5200  -28.7780 H   0  0  0  0  0  0  0  0  0  0  0  0
   -6.9733   23.5099  -29.7790 H   0  0  0  0  0  0  0  0  0  0  0  0
   -5.8821   22.0831  -29.7790 H   0  0  0  0  0  0  0  0  0  0  0  0
   -7.8679   21.9752  -31.9761 H   0  0  0  0  0  0  0  0  0  0  0  0
  1  2  1  0
  2  3  1  0
  3  4  2  0
  4  5  1  0
  5  6  2  0
  6  7  1  0
  7  8  1  0
  8  9  1  0
  8 10  2  0
  8 11  2  0
  6 12  1  0
 12 13  2  0
 13 14  1  0
 13  3  1  0
  1 15  1  0
  1 16  1  0
  1 17  1  0
  4 18  1  0
  5 19  1  0
  7 20  1  0
  9 21  1  0
  9 22  1  0
  9 23  1  0
 12 24  1  0
M  END
>  <UniqueID>  (17) 
16

>  <SMILES>  (17) 
COc1ccc(NS(C)(=O)=O)cc1Cl

>  <Energy>  (17) 
20.629211504891938

>  <Genealogy>  (17) 
COc1ccc(NS(C)(=O)=O)cc1Cl (3D coordinates assigned)
COc1ccc(NS(C)(=O)=O)cc1Cl (optimized conformer: 20.629211504891938 kcal/mol)

>  <smiles>  (17) 
COc1ccc(NS(C)(=O)=O)cc1Cl

>  <score_type>  (17) 
oracle

>  <origin>  (17) 
adgpu

>  <m_score__min__energy>  (17) 
-6.5499999999999998

>  <m_primary>  (17) 
energy

$$$$
17:0
     RDKit          3D

 42 43  0  0  0  0  0  0  0  0999 V2000
   -2.8160   21.0800  -27.6830 C   0  0  0  0  0  0  0  0  0  0  0  0
   -1.6850   22.1070  -27.6270 C   0  0  0  0  0  0  0  0  0  0  0  0
   -2.1660   23.5050  -27.2010 C   0  0  0  0  0  0  0  0  0  0  0  0
   -3.2970   24.0760  -28.0720 C   0  0  0  0  0  0  0  0  0  0  0  0
   -2.7700   24.8980  -29.2080 C   0  0  0  0  0  0  0  0  0  0  0  0
   -1.6600   25.4840  -29.0930 O   0  0  0  0  0  0  0  0  0  0  0  0
   -3.4920   24.9430  -30.4420 N   0  0  0  0  0  0  0  0  0  0  0  0
   -4.7810   24.3510  -30.6430 C   0  0  0  0  0  0  0  0  0  0  0  0
   -5.9160   25.0840  -30.2740 C   0  0  0  0  0  0  0  0  0  0  0  0
   -7.1910   24.5380  -30.4270 C   0  0  0  0  0  0  0  0  0  0  0  0
   -7.3450   23.2610  -30.9670 C   0  0  0  0  0  0  0  0  0  0  0  0
   -6.2240   22.5320  -31.3690 C   0  0  0  0  0  0  0  0  0  0  0  0
   -4.9330   23.0670  -31.2210 C   0  0  0  0  0  0  0  0  0  0  0  0
   -3.7990   22.3470  -31.7400 N   0  0  0  0  0  0  0  0  0  0  0  0
   -2.5550   22.3050  -30.9580 C   0  0  0  0  0  0  0  0  0  0  0  0
   -1.8730   20.9270  -31.0490 C   0  0  0  0  0  0  0  0  0  0  0  0
   -2.1670   20.1720  -32.3600 C   0  0  0  0  0  0  0  0  0  0  0  0
   -2.5310   21.1260  -33.4990 C   0  0  0  0  0  0  0  0  0  0  0  0
   -3.8000   21.9130  -33.1460 C   0  0  0  0  0  0  0  0  0  0  0  0
   -3.1154   20.8081  -26.6600 H   0  0  0  0  0  0  0  0  0  0  0  0
   -3.6770   21.5114  -28.2146 H   0  0  0  0  0  0  0  0  0  0  0  0
   -2.4694   20.1815  -28.2146 H   0  0  0  0  0  0  0  0  0  0  0  0
   -0.9313   21.7600  -26.9048 H   0  0  0  0  0  0  0  0  0  0  0  0
   -1.2695   22.1959  -28.6416 H   0  0  0  0  0  0  0  0  0  0  0  0
   -2.5269   23.4442  -26.1637 H   0  0  0  0  0  0  0  0  0  0  0  0
   -1.3070   24.1826  -27.3150 H   0  0  0  0  0  0  0  0  0  0  0  0
   -3.8862   23.2418  -28.4806 H   0  0  0  0  0  0  0  0  0  0  0  0
   -3.9167   24.7285  -27.4393 H   0  0  0  0  0  0  0  0  0  0  0  0
   -5.8015   26.0970  -29.8608 H   0  0  0  0  0  0  0  0  0  0  0  0
   -8.0760   25.1154  -30.1213 H   0  0  0  0  0  0  0  0  0  0  0  0
   -8.3503   22.8280  -31.0762 H   0  0  0  0  0  0  0  0  0  0  0  0
   -6.3525   21.5304  -31.8052 H   0  0  0  0  0  0  0  0  0  0  0  0
   -1.8654   23.0705  -31.3433 H   0  0  0  0  0  0  0  0  0  0  0  0
   -2.8052   22.4956  -29.9039 H   0  0  0  0  0  0  0  0  0  0  0  0
   -0.7856   21.0724  -30.9691 H   0  0  0  0  0  0  0  0  0  0  0  0
   -2.2777   20.3149  -30.2295 H   0  0  0  0  0  0  0  0  0  0  0  0
   -1.2735   19.5988  -32.6482 H   0  0  0  0  0  0  0  0  0  0  0  0
   -3.0257   19.5071  -32.1850 H   0  0  0  0  0  0  0  0  0  0  0  0
   -1.7012   21.8292  -33.6631 H   0  0  0  0  0  0  0  0  0  0  0  0
   -2.7139   20.5411  -34.4125 H   0  0  0  0  0  0  0  0  0  0  0  0
   -3.8602   22.8007  -33.7928 H   0  0  0  0  0  0  0  0  0  0  0  0
   -4.6663   21.2529  -33.3000 H   0  0  0  0  0  0  0  0  0  0  0  0
  1  2  1  0
  2  3  1  0
  3  4  1  0
  4  5  1  0
  5  6  2  0
  5  7  1  0
  7  8  1  0
  8  9  2  0
  9 10  1  0
 10 11  2  0
 11 12  1  0
 12 13  2  0
 13 14  1  0
 14 15  1  0
 15 16  1  0
 16 17  1  0
 17 18  1  0
 18 19  1  0
 13  8  1  0
 19 14  1  0
  1 20  1  0
  1 21  1  0
  1 22  1  0
  2 23  1  0
  2 24  1  0
  3 25  1  0
  3 26  1  0
  4 27  1  0
  4 28  1  0
  9 29  1  0
 10 30  1  0
 11 31  1  0
 12 32  1  0
 15 33  1  0
 15 34  1  0
 16 35  1  0
 16 36  1  0
 17 37  1  0
 17 38  1  0
 18 39  1  0
 18 40  1  0
 19 41  1  0
 19 42  1  0
M  CHG  1   7  -1
M  END
>  <UniqueID>  (18) 
17

>  <SMILES>  (18) 
CCCCC(=O)[N-]c1ccccc1N1CCCCC1

>  <Energy>  (18) 
43.91900184919551

>  <Genealogy>  (18) 
CCCCC(=O)[N-]c1ccccc1N1CCCCC1 (protonated)
CCCCC(=O)[N-]c1ccccc1N1CCCCC1 (3D coordinates assigned)
CCCCC(=O)[N-]c1ccccc1N1CCCCC1 (nonaromatic ring conformer: 43.91900184919551 kcal/mol)

>  <smiles>  (18) 
CCCCC(=O)Nc1ccccc1N1CCCCC1

>  <score_type>  (18) 
oracle

>  <origin>  (18) 
adgpu

>  <m_score__min__energy>  (18) 
-8.3800000000000008

>  <m_primary>  (18) 
energy

$$$$
18:0
     RDKit          3D

 29 30  0  0  0  0  0  0  0  0999 V2000
   -8.5930   18.5480  -31.4490 C   0  0  0  0  0  0  0  0  0  0  0  0
   -7.7480   19.6750  -31.8570 N   0  0  0  0  0  0  0  0  0  0  0  0
   -8.2590   21.0180  -31.7390 C   0  0  0  0  0  0  0  0  0  0  0  0
   -9.8650   21.2890  -31.9650 S   0  0  0  0  0  0  0  0  0  0  0  0
   -7.3480   22.1390  -31.3870 C   0  0  0  0  0  0  0  0  0  0  0  0
   -7.2650   22.5820  -30.0540 C   0  0  0  0  0  0  0  0  0  0  0  0
   -6.4220   23.6430  -29.7100 C   0  0  0  0  0  0  0  0  0  0  0  0
   -5.6530   24.2730  -30.6900 C   0  0  0  0  0  0  0  0  0  0  0  0
   -5.7260   23.8440  -32.0170 C   0  0  0  0  0  0  0  0  0  0  0  0
   -6.5670   22.7830  -32.3670 C   0  0  0  0  0  0  0  0  0  0  0  0
   -6.4890   19.4390  -32.5280 C   0  0  0  0  0  0  0  0  0  0  0  0
   -5.2680   19.8100  -31.9300 C   0  0  0  0  0  0  0  0  0  0  0  0
   -4.0560   19.5650  -32.5830 C   0  0  0  0  0  0  0  0  0  0  0  0
   -4.0460   18.9490  -33.8370 C   0  0  0  0  0  0  0  0  0  0  0  0
   -5.2490   18.5770  -34.4410 C   0  0  0  0  0  0  0  0  0  0  0  0
   -6.4640   18.8200  -33.7920 C   0  0  0  0  0  0  0  0  0  0  0  0
   -8.6312   18.4971  -30.3508 H   0  0  0  0  0  0  0  0  0  0  0  0
   -9.6094   18.6896  -31.8451 H   0  0  0  0  0  0  0  0  0  0  0  0
   -8.1722   17.6120  -31.8451 H   0  0  0  0  0  0  0  0  0  0  0  0
   -7.8679   22.0898  -29.2767 H   0  0  0  0  0  0  0  0  0  0  0  0
   -6.3646   23.9820  -28.6651 H   0  0  0  0  0  0  0  0  0  0  0  0
   -4.9898   25.1071  -30.4171 H   0  0  0  0  0  0  0  0  0  0  0  0
   -5.1205   24.3419  -32.7887 H   0  0  0  0  0  0  0  0  0  0  0  0
   -6.6191   22.4492  -33.4138 H   0  0  0  0  0  0  0  0  0  0  0  0
   -5.2684   20.2956  -30.9430 H   0  0  0  0  0  0  0  0  0  0  0  0
   -3.1080   19.8580  -32.1082 H   0  0  0  0  0  0  0  0  0  0  0  0
   -3.0911   18.7571  -34.3483 H   0  0  0  0  0  0  0  0  0  0  0  0
   -5.2410   18.0923  -35.4284 H   0  0  0  0  0  0  0  0  0  0  0  0
   -7.4080   18.5249  -34.2734 H   0  0  0  0  0  0  0  0  0  0  0  0
  1  2  1  0
  2  3  1  0
  3  4  2  0
  3  5  1  0
  5  6  2  0
  6  7  1  0
  7  8  2  0
  8  9  1  0
  9 10  2  0
  2 11  1  0
 11 12  2  0
 12 13  1  0
 13 14  2  0
 14 15  1  0
 15 16  2  0
 10  5  1  0
 16 11  1  0
  1 17  1  0
  1 18  1  0
  1 19  1  0
  6 20  1  0
  7 21  1  0
  8 22  1  0
  9 23  1  0
 10 24  1  0
 12 25  1  0
 13 26  1  0
 14 27  1  0
 15 28  1  0
 16 29  1  0
M  END
>  <UniqueID>  (19) 
18

>  <SMILES>  (19) 
CN(C(=S)c1ccccc1)c1ccccc1

>  <Energy>  (19) 
40.074914719512016

>  <Genealogy>  (19) 
CN(C(=S)c1ccccc1)c1ccccc1 (3D coordinates assigned)
CN(C(=S)c1ccccc1)c1ccccc1 (optimized conformer: 40.074914719512016 kcal/mol)

>  <smiles>  (19) 
CN(C(=S)c1ccccc1)c1ccccc1

>  <score_type>  (19) 
oracle

>  <origin>  (19) 
adgpu

>  <m_score__min__energy>  (19) 
-6.4100000000000001

>  <m_primary>  (19) 
energy

$$$$
19:0
     RDKit          3D

 47 50  0  0  0  0  0  0  0  0999 V2000
   -3.8780   26.3450  -30.8350 H   0  0  0  0  0  0  0  0  0  0  0  0
   -3.8900   25.3010  -30.8120 N   0  0  0  0  0  0  0  0  0  0  0  0
   -3.1640   24.6350  -29.9730 C   0  0  0  0  0  0  0  0  0  0  0  0
   -2.3630   25.2900  -29.0850 N   0  0  0  0  0  0  0  0  0  0  0  0
   -1.5960   24.6180  -28.1780 C   0  0  0  0  0  0  0  0  0  0  0  0
   -0.9624   25.1737  -27.4711 H   0  0  0  0  0  0  0  0  0  0  0  0
   -1.6190   23.2180  -28.1510 C   0  0  0  0  0  0  0  0  0  0  0  0
   -1.0197   22.6564  -27.4192 H   0  0  0  0  0  0  0  0  0  0  0  0
   -2.4040   22.5720  -29.0560 N   0  0  0  0  0  0  0  0  0  0  0  0
   -2.6150   21.2480  -29.2340 C   0  0  0  0  0  0  0  0  0  0  0  0
   -1.9400   20.1550  -28.5040 C   0  0  0  0  0  0  0  0  0  0  0  0
   -2.5110   19.6040  -27.3440 C   0  0  0  0  0  0  0  0  0  0  0  0
   -3.4810   19.9754  -26.9819 H   0  0  0  0  0  0  0  0  0  0  0  0
   -1.8520   18.5860  -26.6480 C   0  0  0  0  0  0  0  0  0  0  0  0
   -2.3086   18.1524  -25.7461 H   0  0  0  0  0  0  0  0  0  0  0  0
   -0.6140   18.1190  -27.0970 C   0  0  0  0  0  0  0  0  0  0  0  0
   -0.0992   17.3142  -26.5518 H   0  0  0  0  0  0  0  0  0  0  0  0
   -0.0300   18.6740  -28.2380 C   0  0  0  0  0  0  0  0  0  0  0  0
    0.9466   18.3083  -28.5879 H   0  0  0  0  0  0  0  0  0  0  0  0
   -0.6840   19.6930  -28.9360 C   0  0  0  0  0  0  0  0  0  0  0  0
   -0.2144   20.1354  -29.8269 H   0  0  0  0  0  0  0  0  0  0  0  0
   -3.5560   21.0630  -30.2390 C   0  0  0  0  0  0  0  0  0  0  0  0
   -3.9433   20.1004  -30.6043 H   0  0  0  0  0  0  0  0  0  0  0  0
   -3.9140   22.3230  -30.6940 C   0  0  0  0  0  0  0  0  0  0  0  0
   -4.8730   22.6060  -31.8140 C   0  0  0  0  0  0  0  0  0  0  0  0
   -5.2898   23.6161  -31.6874 H   0  0  0  0  0  0  0  0  0  0  0  0
   -4.3343   22.5357  -32.7705 H   0  0  0  0  0  0  0  0  0  0  0  0
   -5.9740   21.6220  -31.8120 N   0  0  0  0  0  0  0  0  0  0  0  0
   -5.7820   20.6350  -32.8960 C   0  0  0  0  0  0  0  0  0  0  0  0
   -5.5905   21.1719  -33.8368 H   0  0  0  0  0  0  0  0  0  0  0  0
   -4.9303   19.9928  -32.6272 H   0  0  0  0  0  0  0  0  0  0  0  0
   -7.0250   19.7340  -33.0780 C   0  0  0  0  0  0  0  0  0  0  0  0
   -7.5523   20.0314  -33.9964 H   0  0  0  0  0  0  0  0  0  0  0  0
   -6.6903   18.6882  -33.1440 H   0  0  0  0  0  0  0  0  0  0  0  0
   -7.9470   19.8580  -31.9320 N   0  0  0  0  0  0  0  0  0  0  0  0
   -7.4370   19.5820  -31.0570 H   0  0  0  0  0  0  0  0  0  0  0  0
   -9.0870   18.9390  -32.0870 C   0  0  0  0  0  0  0  0  0  0  0  0
   -9.4559   18.6416  -31.0943 H   0  0  0  0  0  0  0  0  0  0  0  0
   -9.8921   19.4436  -32.6413 H   0  0  0  0  0  0  0  0  0  0  0  0
   -8.7647   18.0452  -32.6413 H   0  0  0  0  0  0  0  0  0  0  0  0
   -8.4260   21.2530  -31.7890 C   0  0  0  0  0  0  0  0  0  0  0  0
   -9.1903   21.4455  -32.5563 H   0  0  0  0  0  0  0  0  0  0  0  0
   -8.8386   21.3661  -30.7756 H   0  0  0  0  0  0  0  0  0  0  0  0
   -7.2860   22.2810  -31.9540 C   0  0  0  0  0  0  0  0  0  0  0  0
   -7.3544   22.7410  -32.9508 H   0  0  0  0  0  0  0  0  0  0  0  0
   -7.3845   23.0509  -31.1745 H   0  0  0  0  0  0  0  0  0  0  0  0
   -3.1800   23.2310  -29.9400 C   0  0  0  0  0  0  0  0  0  0  0  0
  1  2  1  0
  2  3  2  0
  3  4  1  0
  4  5  1  0
  5  6  1  0
  5  7  2  0
  7  8  1  0
  7  9  1  0
  9 10  1  0
 10 11  1  0
 11 12  2  0
 12 13  1  0
 12 14  1  0
 14 15  1  0
 14 16  2  0
 16 17  1  0
 16 18  1  0
 18 19  1  0
 18 20  2  0
 20 21  1  0
 10 22  2  0
 22 23  1  0
 22 24  1  0
 24 25  1  0
 25 26  1  0
 25 27  1  0
 25 28  1  0
 28 29  1  0
 29 30  1  0
 29 31  1  0
 29 32  1  0
 32 33  1  0
 32 34  1  0
 32 35  1  0
 35 36  1  0
 35 37  1  0
 37 38  1  0
 37 39  1  0
 37 40  1  0
 35 41  1  0
 41 42  1  0
 41 43  1  0
 41 44  1  0
 44 45  1  0
 44 46  1  0
 24 47  2  0
 47  3  1  0
 47  9  1  0
 20 11  1  0
 44 28  1  0
M  CHG  2   4  -1  35   1
M  END
>  <UniqueID>  (20) 
19

>  <SMILES>  (20) 
[H]/N=c1\[n-]ccn2c(-c3ccccc3)cc(CN3CC[NH+](C)CC3)c12

>  <Energy>  (20) 
96.80105271564057

>  <Genealogy>  (20) 
C[NH+]1CCN(Cc2cc(-c3ccccc3)n3cc[n-]c(=N)c23)CC1 (protonated)
[H]/N=c1\[n-]ccn2c(-c3ccccc3)cc(CN3CC[NH+](C)CC3)c12 (cis-trans isomerization)
[H]/N=c1\[n-]ccn2c(-c3ccccc3)cc(CN3CC[NH+](C)CC3)c12 (3D coordinates assigned)
[H]/N=c1\[n-]ccn2c(-c3ccccc3)cc(CN3CC[NH+](C)CC3)c12 (nonaromatic ring conformer: 96.80105271564057 kcal/mol)

>  <smiles>  (20) 
CN1CCN(Cc2cc(-c3ccccc3)n3cc[nH]c(=N)c23)CC1

>  <score_type>  (20) 
oracle

>  <origin>  (20) 
adgpu

>  <m_score__min__energy>  (20) 
-9.9700000000000006

>  <m_primary>  (20) 
energy

$$$$
20:0
     RDKit          3D

 37 39  0  0  0  0  0  0  0  0999 V2000
   -2.4541   21.8653  -27.7724 H   0  0  0  0  0  0  0  0  0  0  0  0
   -2.8100   22.1970  -28.7590 C   0  0  0  0  0  0  0  0  0  0  0  0
   -3.1620   23.5340  -28.9580 C   0  0  0  0  0  0  0  0  0  0  0  0
   -3.0844   24.2509  -28.1273 H   0  0  0  0  0  0  0  0  0  0  0  0
   -3.6160   23.9670  -30.2190 C   0  0  0  0  0  0  0  0  0  0  0  0
   -3.9860   25.2970  -30.4700 O   0  0  0  0  0  0  0  0  0  0  0  0
   -5.3270   25.7740  -30.4610 C   0  0  0  0  0  0  0  0  0  0  0  0
   -5.6663   25.8947  -29.4216 H   0  0  0  0  0  0  0  0  0  0  0  0
   -5.3745   26.7442  -30.9772 H   0  0  0  0  0  0  0  0  0  0  0  0
   -5.9765   25.0518  -30.9772 H   0  0  0  0  0  0  0  0  0  0  0  0
   -3.7070   23.0430  -31.2660 C   0  0  0  0  0  0  0  0  0  0  0  0
   -4.0559   23.3750  -32.2550 H   0  0  0  0  0  0  0  0  0  0  0  0
   -3.3580   21.6960  -31.0690 C   0  0  0  0  0  0  0  0  0  0  0  0
   -3.4890   20.7450  -32.1450 N   0  0  0  0  0  0  0  0  0  0  0  0
   -2.3710   20.1820  -32.7100 C   0  0  0  0  0  0  0  0  0  0  0  0
   -1.2170   20.5030  -32.3160 O   0  0  0  0  0  0  0  0  0  0  0  0
   -2.5050   19.2470  -33.7440 C   0  0  0  0  0  0  0  0  0  0  0  0
   -1.6108   18.7935  -34.1966 H   0  0  0  0  0  0  0  0  0  0  0  0
   -3.7400   18.9020  -34.1860 N   0  0  0  0  0  0  0  0  0  0  0  0
   -4.8530   19.4500  -33.6390 C   0  0  0  0  0  0  0  0  0  0  0  0
   -6.1270   19.0940  -34.0800 C   0  0  0  0  0  0  0  0  0  0  0  0
   -6.2446   18.3611  -34.8919 H   0  0  0  0  0  0  0  0  0  0  0  0
   -7.2240   19.6550  -33.5040 N   0  0  0  0  0  0  0  0  0  0  0  0
   -8.1730   19.3790  -33.8460 H   0  0  0  0  0  0  0  0  0  0  0  0
   -7.1000   20.5660  -32.4960 C   0  0  0  0  0  0  0  0  0  0  0  0
   -8.1670   21.0910  -31.9660 N   0  0  0  0  0  0  0  0  0  0  0  0
   -8.1630   22.0770  -30.8850 C   0  0  0  0  0  0  0  0  0  0  0  0
   -7.5397   21.7031  -30.0593 H   0  0  0  0  0  0  0  0  0  0  0  0
   -9.1984   22.2308  -30.5470 H   0  0  0  0  0  0  0  0  0  0  0  0
   -7.6050   23.4130  -31.3660 C   0  0  0  0  0  0  0  0  0  0  0  0
   -7.3449   24.0358  -30.4974 H   0  0  0  0  0  0  0  0  0  0  0  0
   -6.7051   23.2371  -31.9737 H   0  0  0  0  0  0  0  0  0  0  0  0
   -8.3627   23.9294  -31.9737 H   0  0  0  0  0  0  0  0  0  0  0  0
   -5.8610   20.9210  -32.0570 N   0  0  0  0  0  0  0  0  0  0  0  0
   -4.7330   20.3900  -32.6020 C   0  0  0  0  0  0  0  0  0  0  0  0
   -2.9080   21.2800  -29.8070 C   0  0  0  0  0  0  0  0  0  0  0  0
   -2.6315   20.2280  -29.6428 H   0  0  0  0  0  0  0  0  0  0  0  0
  1  2  1  0
  2  3  2  0
  3  4  1  0
  3  5  1  0
  5  6  1  0
  6  7  1  0
  7  8  1  0
  7  9  1  0
  7 10  1  0
  5 11  2  0
 11 12  1  0
 11 13  1  0
 13 14  1  0
 14 15  1  0
 15 16  2  0
 15 17  1  0
 17 18  1  0
 17 19  2  0
 19 20  1  0
 20 21  2  0
 21 22  1  0
 21 23  1  0
 23 24  1  0
 23 25  1  0
 25 26  2  0
 26 27  1  0
 27 28  1  0
 27 29  1  0
 27 30  1  0
 30 31  1  0
 30 32  1  0
 30 33  1  0
 25 34  1  0
 34 35  2  0
 13 36  2  0
 36 37  1  0
 36  2  1  0
 35 14  1  0
 35 20  1  0
M  END
>  <UniqueID>  (21) 
20

>  <SMILES>  (21) 
CC/N=c1\nc2c(c[nH]1)ncc(=O)n2-c1cccc(OC)c1

>  <Energy>  (21) 
48.78608861446714

>  <Genealogy>  (21) 
CC/N=c1\nc2c(c[nH]1)ncc(=O)n2-c1cccc(OC)c1 (cis-trans isomerization)
CC/N=c1\nc2c(c[nH]1)ncc(=O)n2-c1cccc(OC)c1 (3D coordinates assigned)
CC/N=c1\nc2c(c[nH]1)ncc(=O)n2-c1cccc(OC)c1 (optimized conformer: 48.78608861446714 kcal/mol)

>  <smiles>  (21) 
CCN=c1nc2c(c[nH]1)ncc(=O)n2-c1cccc(OC)c1

>  <score_type>  (21) 
oracle

>  <origin>  (21) 
adgpu

>  <m_score__min__energy>  (21) 
-7.4699999999999998

>  <m_primary>  (21) 
energy

$$$$
21:0
     RDKit          3D

 23 23  0  0  0  0  0  0  0  0999 V2000
   -6.8670   24.9880  -30.0700 C   0  0  0  0  0  0  0  0  0  0  0  0
   -6.0980   23.8470  -30.5670 N   0  0  0  0  0  0  0  0  0  0  0  0
   -6.7800   22.7000  -31.1100 C   0  0  0  0  0  0  0  0  0  0  0  0
   -6.2350   21.9970  -32.1990 C   0  0  0  0  0  0  0  0  0  0  0  0
   -6.9010   20.8870  -32.7290 C   0  0  0  0  0  0  0  0  0  0  0  0
   -8.1170   20.4720  -32.1810 C   0  0  0  0  0  0  0  0  0  0  0  0
   -8.7610   19.3960  -32.6970 F   0  0  0  0  0  0  0  0  0  0  0  0
   -8.6710   21.1690  -31.1040 C   0  0  0  0  0  0  0  0  0  0  0  0
   -8.0080   22.2780  -30.5720 C   0  0  0  0  0  0  0  0  0  0  0  0
   -4.3600   23.8710  -30.4540 S   0  0  0  0  0  0  0  0  0  0  0  0
   -3.8270   23.1220  -28.9280 C   0  0  0  0  0  0  0  0  0  0  0  0
   -3.7670   23.0820  -31.5880 O   0  0  0  0  0  0  0  0  0  0  0  0
   -3.8670   25.2890  -30.5270 O   0  0  0  0  0  0  0  0  0  0  0  0
   -6.8628   24.9818  -28.9700 H   0  0  0  0  0  0  0  0  0  0  0  0
   -6.4134   25.9220  -30.4331 H   0  0  0  0  0  0  0  0  0  0  0  0
   -7.9030   24.9181  -30.4331 H   0  0  0  0  0  0  0  0  0  0  0  0
   -5.2795   22.3218  -32.6366 H   0  0  0  0  0  0  0  0  0  0  0  0
   -6.4665   20.3400  -33.5787 H   0  0  0  0  0  0  0  0  0  0  0  0
   -9.6302   20.8442  -30.6745 H   0  0  0  0  0  0  0  0  0  0  0  0
   -8.4503   22.8247  -29.7261 H   0  0  0  0  0  0  0  0  0  0  0  0
   -4.2324   23.6916  -28.0788 H   0  0  0  0  0  0  0  0  0  0  0  0
   -4.1915   22.0852  -28.8815 H   0  0  0  0  0  0  0  0  0  0  0  0
   -2.7280   23.1267  -28.8815 H   0  0  0  0  0  0  0  0  0  0  0  0
  1  2  1  0
  2  3  1  0
  3  4  2  0
  4  5  1  0
  5  6  2  0
  6  7  1  0
  6  8  1  0
  8  9  2  0
  2 10  1  0
 10 11  1  0
 10 12  2  0
 10 13  2  0
  9  3  1  0
  1 14  1  0
  1 15  1  0
  1 16  1  0
  4 17  1  0
  5 18  1  0
  8 19  1  0
  9 20  1  0
 11 21  1  0
 11 22  1  0
 11 23  1  0
M  END
>  <UniqueID>  (22) 
21

>  <SMILES>  (22) 
CN(c1ccc(F)cc1)S(C)(=O)=O

>  <Energy>  (22) 
21.44926976753972

>  <Genealogy>  (22) 
CN(c1ccc(F)cc1)S(C)(=O)=O (3D coordinates assigned)
CN(c1ccc(F)cc1)S(C)(=O)=O (optimized conformer: 21.44926976753972 kcal/mol)

>  <smiles>  (22) 
CN(c1ccc(F)cc1)S(C)(=O)=O

>  <score_type>  (22) 
oracle

>  <origin>  (22) 
adgpu

>  <m_score__min__energy>  (22) 
-5.9400000000000004

>  <m_primary>  (22) 
energy

$$$$
22:0
     RDKit          3D

 30 31  0  0  0  0  0  0  0  0999 V2000
   -5.8820   25.9950  -30.0900 O   0  0  0  0  0  0  0  0  0  0  0  0
   -5.2210   25.1070  -30.6680 N   0  0  0  0  0  0  0  0  0  0  0  0
   -3.8650   25.2870  -30.8240 O   0  0  0  0  0  0  0  0  0  0  0  0
   -5.8630   23.9170  -31.1620 C   0  0  0  0  0  0  0  0  0  0  0  0
   -7.2600   23.8380  -31.2230 C   0  0  0  0  0  0  0  0  0  0  0  0
   -7.8850   22.6910  -31.7100 C   0  0  0  0  0  0  0  0  0  0  0  0
   -7.1320   21.5880  -32.1460 C   0  0  0  0  0  0  0  0  0  0  0  0
   -7.8660   20.4170  -32.7620 C   0  0  0  0  0  0  0  0  0  0  0  0
   -7.9750   19.0080  -31.6010 S   0  0  0  0  0  0  0  0  0  0  0  0
   -6.7480   18.0090  -32.4510 C   0  0  0  0  0  0  0  0  0  0  0  0
   -6.0240   17.0390  -31.7450 C   0  0  0  0  0  0  0  0  0  0  0  0
   -5.0550   16.2730  -32.4010 C   0  0  0  0  0  0  0  0  0  0  0  0
   -4.8160   16.4670  -33.7650 C   0  0  0  0  0  0  0  0  0  0  0  0
   -5.5460   17.4260  -34.4750 C   0  0  0  0  0  0  0  0  0  0  0  0
   -6.5140   18.1950  -33.8180 C   0  0  0  0  0  0  0  0  0  0  0  0
   -5.7140   21.6480  -32.0730 C   0  0  0  0  0  0  0  0  0  0  0  0
   -4.8810   20.5590  -32.5070 N   0  0  0  0  0  0  0  0  0  0  0  0
   -4.3640   19.7820  -31.6780 O   0  0  0  0  0  0  0  0  0  0  0  0
   -4.4870   20.4780  -33.8220 O   0  0  0  0  0  0  0  0  0  0  0  0
   -5.1010   22.8170  -31.5920 C   0  0  0  0  0  0  0  0  0  0  0  0
   -7.8694   24.6885  -30.8836 H   0  0  0  0  0  0  0  0  0  0  0  0
   -8.9833   22.6490  -31.7535 H   0  0  0  0  0  0  0  0  0  0  0  0
   -8.8832   20.7357  -33.0337 H   0  0  0  0  0  0  0  0  0  0  0  0
   -7.3076   20.0890  -33.6512 H   0  0  0  0  0  0  0  0  0  0  0  0
   -6.2179   16.8799  -30.6740 H   0  0  0  0  0  0  0  0  0  0  0  0
   -4.4809   15.5179  -31.8440 H   0  0  0  0  0  0  0  0  0  0  0  0
   -4.0531   15.8648  -34.2802 H   0  0  0  0  0  0  0  0  0  0  0  0
   -5.3596   17.5758  -35.5487 H   0  0  0  0  0  0  0  0  0  0  0  0
   -7.0912   18.9462  -34.3770 H   0  0  0  0  0  0  0  0  0  0  0  0
   -4.0032   22.8725  -31.5511 H   0  0  0  0  0  0  0  0  0  0  0  0
  1  2  2  0
  2  3  1  0
  2  4  1  0
  4  5  2  0
  5  6  1  0
  6  7  2  0
  7  8  1  0
  8  9  1  0
  9 10  1  0
 10 11  2  0
 11 12  1  0
 12 13  2  0
 13 14  1  0
 14 15  2  0
  7 16  1  0
 16 17  1  0
 17 18  2  0
 17 19  1  0
 16 20  2  0
 20  4  1  0
 15 10  1  0
  5 21  1  0
  6 22  1  0
  8 23  1  0
  8 24  1  0
 11 25  1  0
 12 26  1  0
 13 27  1  0
 14 28  1  0
 15 29  1  0
 20 30  1  0
M  CHG  4   2   1   3  -1  17   1  19  -1
M  END
>  <UniqueID>  (23) 
22

>  <SMILES>  (23) 
O=[N+]([O-])c1ccc(CSc2ccccc2)c([N+](=O)[O-])c1

>  <Energy>  (23) 
32.83729989459144

>  <Genealogy>  (23) 
O=[N+]([O-])c1ccc(CSc2ccccc2)c([N+](=O)[O-])c1 (3D coordinates assigned)
O=[N+]([O-])c1ccc(CSc2ccccc2)c([N+](=O)[O-])c1 (optimized conformer: 32.83729989459144 kcal/mol)

>  <smiles>  (23) 
O=[N+]([O-])c1ccc(CSc2ccccc2)c([N+](=O)[O-])c1

>  <score_type>  (23) 
oracle

>  <origin>  (23) 
adgpu

>  <m_score__min__energy>  (23) 
-8.5099999999999998

>  <m_primary>  (23) 
energy

$$$$
23:0
     RDKit          3D

 27 29  0  0  0  0  0  0  0  0999 V2000
   -1.2720   23.3520  -29.0370 O   0  0  0  0  0  0  0  0  0  0  0  0
   -1.9030   24.3950  -29.3530 C   0  0  0  0  0  0  0  0  0  0  0  0
   -1.3920   25.6660  -28.9330 N   0  0  0  0  0  0  0  0  0  0  0  0
   -1.2550   26.1170  -27.5780 C   0  0  0  0  0  0  0  0  0  0  0  0
   -1.9770   25.4600  -26.5720 C   0  0  0  0  0  0  0  0  0  0  0  0
   -1.8670   25.8730  -25.2410 C   0  0  0  0  0  0  0  0  0  0  0  0
   -1.0230   26.9330  -24.9030 C   0  0  0  0  0  0  0  0  0  0  0  0
   -0.2800   27.5780  -25.8960 C   0  0  0  0  0  0  0  0  0  0  0  0
   -0.3880   27.1690  -27.2290 C   0  0  0  0  0  0  0  0  0  0  0  0
   -3.1530   24.2630  -30.1250 C   0  0  0  0  0  0  0  0  0  0  0  0
   -3.8890   25.3210  -30.5380 N   0  0  0  0  0  0  0  0  0  0  0  0
   -4.9540   24.8800  -31.2020 N   0  0  0  0  0  0  0  0  0  0  0  0
   -4.8880   23.5380  -31.2160 C   0  0  0  0  0  0  0  0  0  0  0  0
   -5.7760   22.6510  -31.8200 C   0  0  0  0  0  0  0  0  0  0  0  0
   -5.4810   21.2770  -31.7430 C   0  0  0  0  0  0  0  0  0  0  0  0
   -4.3130   20.8300  -31.0860 C   0  0  0  0  0  0  0  0  0  0  0  0
   -3.4320   21.7540  -30.4910 C   0  0  0  0  0  0  0  0  0  0  0  0
   -3.7690   23.1060  -30.5600 C   0  0  0  0  0  0  0  0  0  0  0  0
   -2.6330   24.6158  -26.8310 H   0  0  0  0  0  0  0  0  0  0  0  0
   -2.4466   25.3619  -24.4581 H   0  0  0  0  0  0  0  0  0  0  0  0
   -0.9429   27.2603  -23.8559 H   0  0  0  0  0  0  0  0  0  0  0  0
    0.3903   28.4081  -25.6286 H   0  0  0  0  0  0  0  0  0  0  0  0
    0.2063   27.6710  -28.0067 H   0  0  0  0  0  0  0  0  0  0  0  0
   -6.6763   23.0117  -32.3390 H   0  0  0  0  0  0  0  0  0  0  0  0
   -6.1652   20.5456  -32.1979 H   0  0  0  0  0  0  0  0  0  0  0  0
   -4.0902   19.7538  -31.0388 H   0  0  0  0  0  0  0  0  0  0  0  0
   -2.5110   21.4214  -29.9898 H   0  0  0  0  0  0  0  0  0  0  0  0
  1  2  2  0
  2  3  1  0
  3  4  1  0
  4  5  2  0
  5  6  1  0
  6  7  2  0
  7  8  1  0
  8  9  2  0
  2 10  1  0
 10 11  1  0
 11 12  1  0
 12 13  2  0
 13 14  1  0
 14 15  2  0
 15 16  1  0
 16 17  2  0
 17 18  1  0
  9  4  1  0
 18 10  2  0
 18 13  1  0
  5 19  1  0
  6 20  1  0
  7 21  1  0
  8 22  1  0
  9 23  1  0
 14 24  1  0
 15 25  1  0
 16 26  1  0
 17 27  1  0
M  CHG  2   3  -1  11  -1
M  END
>  <UniqueID>  (24) 
23

>  <SMILES>  (24) 
O=C([N-]c1ccccc1)c1[n-]nc2ccccc12

>  <Energy>  (24) 
74.15727238455507

>  <Genealogy>  (24) 
O=C([N-]c1ccccc1)c1[n-]nc2ccccc12 (protonated)
O=C([N-]c1ccccc1)c1[n-]nc2ccccc12 (3D coordinates assigned)
O=C([N-]c1ccccc1)c1[n-]nc2ccccc12 (optimized conformer: 74.15727238455507 kcal/mol)

>  <smiles>  (24) 
O=C(Nc1ccccc1)c1[nH]nc2ccccc12

>  <score_type>  (24) 
oracle

>  <origin>  (24) 
adgpu

>  <m_score__min__energy>  (24) 
-9.8800000000000008

>  <m_primary>  (24) 
energy

$$$$
24:0
     RDKit          3D

 33 34  0  0  0  0  0  0  0  0999 V2000
   -6.3440   16.6750  -33.6260 C   0  0  0  0  0  0  0  0  0  0  0  0
   -6.8620   18.0150  -33.1890 C   0  0  0  0  0  0  0  0  0  0  0  0
   -6.2040   19.1890  -33.5830 C   0  0  0  0  0  0  0  0  0  0  0  0
   -6.6630   20.4340  -33.1450 C   0  0  0  0  0  0  0  0  0  0  0  0
   -7.7770   20.5250  -32.2940 C   0  0  0  0  0  0  0  0  0  0  0  0
   -8.2340   21.8090  -31.8160 N   0  0  0  0  0  0  0  0  0  0  0  0
   -9.1360   21.8830  -30.6660 C   0  0  0  0  0  0  0  0  0  0  0  0
   -7.6430   23.0480  -32.3420 C   0  0  0  0  0  0  0  0  0  0  0  0
   -6.5700   23.5510  -31.4140 C   0  0  0  0  0  0  0  0  0  0  0  0
   -6.8600   24.5670  -30.4880 C   0  0  0  0  0  0  0  0  0  0  0  0
   -5.8810   25.0030  -29.5900 C   0  0  0  0  0  0  0  0  0  0  0  0
   -4.6090   24.4220  -29.6050 C   0  0  0  0  0  0  0  0  0  0  0  0
   -4.3140   23.4040  -30.5170 C   0  0  0  0  0  0  0  0  0  0  0  0
   -2.7230   22.6670  -30.5250 Cl  0  0  0  0  0  0  0  0  0  0  0  0
   -5.2920   22.9680  -31.4180 C   0  0  0  0  0  0  0  0  0  0  0  0
   -8.4220   19.3440  -31.8890 C   0  0  0  0  0  0  0  0  0  0  0  0
   -7.9640   18.0990  -32.3280 C   0  0  0  0  0  0  0  0  0  0  0  0
   -6.1087   16.0663  -32.7405 H   0  0  0  0  0  0  0  0  0  0  0  0
   -7.1097   16.1647  -34.2288 H   0  0  0  0  0  0  0  0  0  0  0  0
   -5.4342   16.8124  -34.2288 H   0  0  0  0  0  0  0  0  0  0  0  0
   -5.3232   19.1296  -34.2393 H   0  0  0  0  0  0  0  0  0  0  0  0
   -6.1479   21.3503  -33.4692 H   0  0  0  0  0  0  0  0  0  0  0  0
   -8.5497   21.8349  -29.7365 H   0  0  0  0  0  0  0  0  0  0  0  0
   -9.6947   22.8300  -30.6985 H   0  0  0  0  0  0  0  0  0  0  0  0
   -9.8416   21.0397  -30.6985 H   0  0  0  0  0  0  0  0  0  0  0  0
   -7.2035   22.8490  -33.3306 H   0  0  0  0  0  0  0  0  0  0  0  0
   -8.4300   23.8119  -32.4258 H   0  0  0  0  0  0  0  0  0  0  0  0
   -7.8616   25.0214  -30.4694 H   0  0  0  0  0  0  0  0  0  0  0  0
   -6.1114   25.8033  -28.8714 H   0  0  0  0  0  0  0  0  0  0  0  0
   -3.8395   24.7663  -28.8984 H   0  0  0  0  0  0  0  0  0  0  0  0
   -5.0589   22.1650  -32.1327 H   0  0  0  0  0  0  0  0  0  0  0  0
   -9.2943   19.4001  -31.2212 H   0  0  0  0  0  0  0  0  0  0  0  0
   -8.4709   17.1809  -31.9961 H   0  0  0  0  0  0  0  0  0  0  0  0
  1  2  1  0
  2  3  2  0
  3  4  1  0
  4  5  2  0
  5  6  1  0
  6  7  1  0
  6  8  1  0
  8  9  1  0
  9 10  2  0
 10 11  1  0
 11 12  2  0
 12 13  1  0
 13 14  1  0
 13 15  2  0
  5 16  1  0
 16 17  2  0
 17  2  1  0
 15  9  1  0
  1 18  1  0
  1 19  1  0
  1 20  1  0
  3 21  1  0
  4 22  1  0
  7 23  1  0
  7 24  1  0
  7 25  1  0
  8 26  1  0
  8 27  1  0
 10 28  1  0
 11 29  1  0
 12 30  1  0
 15 31  1  0
 16 32  1  0
 17 33  1  0
M  END
>  <UniqueID>  (25) 
24

>  <SMILES>  (25) 
Cc1ccc(N(C)Cc2cccc(Cl)c2)cc1

>  <Energy>  (25) 
33.47457151472364

>  <Genealogy>  (25) 
Cc1ccc(N(C)Cc2cccc(Cl)c2)cc1 (3D coordinates assigned)
Cc1ccc(N(C)Cc2cccc(Cl)c2)cc1 (optimized conformer: 33.47457151472364 kcal/mol)

>  <smiles>  (25) 
Cc1ccc(N(C)Cc2cccc(Cl)c2)cc1

>  <score_type>  (25) 
oracle

>  <origin>  (25) 
adgpu

>  <m_score__min__energy>  (25) 
-7.1399999999999997

>  <m_primary>  (25) 
energy

$$$$
25:0
     RDKit          3D

 48 51  0  0  0  0  0  0  0  0999 V2000
   -4.5900   24.5820  -30.5100 O   0  0  0  0  0  0  0  0  0  0  0  0
   -3.7370   23.6610  -30.6310 C   0  0  0  0  0  0  0  0  0  0  0  0
   -2.6560   23.5240  -29.8310 N   0  0  0  0  0  0  0  0  0  0  0  0
   -2.2810   24.3130  -28.6850 C   0  0  0  0  0  0  0  0  0  0  0  0
   -1.1000   25.0760  -28.7030 C   0  0  0  0  0  0  0  0  0  0  0  0
   -0.7370   25.8430  -27.5920 C   0  0  0  0  0  0  0  0  0  0  0  0
   -1.5460   25.8540  -26.4540 C   0  0  0  0  0  0  0  0  0  0  0  0
   -2.7210   25.0990  -26.4260 C   0  0  0  0  0  0  0  0  0  0  0  0
   -3.0890   24.3320  -27.5350 C   0  0  0  0  0  0  0  0  0  0  0  0
   -2.0090   22.4750  -30.3830 C   0  0  0  0  0  0  0  0  0  0  0  0
   -0.9340   21.9910  -29.9360 O   0  0  0  0  0  0  0  0  0  0  0  0
   -2.6610   21.9940  -31.4640 N   0  0  0  0  0  0  0  0  0  0  0  0
   -2.2410   20.8710  -32.3090 C   0  0  0  0  0  0  0  0  0  0  0  0
   -3.3910   19.9290  -32.5510 C   0  0  0  0  0  0  0  0  0  0  0  0
   -3.5270   19.2820  -33.7910 C   0  0  0  0  0  0  0  0  0  0  0  0
   -4.5650   18.3700  -34.0010 C   0  0  0  0  0  0  0  0  0  0  0  0
   -5.4840   18.1050  -32.9810 C   0  0  0  0  0  0  0  0  0  0  0  0
   -6.7760   16.9480  -33.2410 Cl  0  0  0  0  0  0  0  0  0  0  0  0
   -5.3680   18.7600  -31.7510 C   0  0  0  0  0  0  0  0  0  0  0  0
   -4.3300   19.6730  -31.5380 C   0  0  0  0  0  0  0  0  0  0  0  0
   -3.7650   22.7250  -31.6060 N   0  0  0  0  0  0  0  0  0  0  0  0
   -4.7210   22.6360  -32.7180 C   0  0  0  0  0  0  0  0  0  0  0  0
   -6.0580   23.0640  -32.3000 N   0  0  0  0  0  0  0  0  0  0  0  0
   -7.2080   22.1980  -32.2400 C   0  0  0  0  0  0  0  0  0  0  0  0
   -8.3680   22.6410  -31.5820 C   0  0  0  0  0  0  0  0  0  0  0  0
   -9.5000   21.8230  -31.5100 C   0  0  0  0  0  0  0  0  0  0  0  0
   -9.4860   20.5550  -32.0940 C   0  0  0  0  0  0  0  0  0  0  0  0
   -8.3390   20.1020  -32.7490 C   0  0  0  0  0  0  0  0  0  0  0  0
   -7.2050   20.9160  -32.8210 C   0  0  0  0  0  0  0  0  0  0  0  0
   -0.4581   25.0693  -29.5963 H   0  0  0  0  0  0  0  0  0  0  0  0
    0.1874   26.4388  -27.6144 H   0  0  0  0  0  0  0  0  0  0  0  0
   -1.2583   26.4568  -25.5800 H   0  0  0  0  0  0  0  0  0  0  0  0
   -3.3580   25.1081  -25.5292 H   0  0  0  0  0  0  0  0  0  0  0  0
   -4.0158   23.7401  -27.5077 H   0  0  0  0  0  0  0  0  0  0  0  0
   -1.8827   21.2591  -33.2739 H   0  0  0  0  0  0  0  0  0  0  0  0
   -1.4366   20.3234  -31.7961 H   0  0  0  0  0  0  0  0  0  0  0  0
   -2.8130   19.4944  -34.6004 H   0  0  0  0  0  0  0  0  0  0  0  0
   -4.6592   17.8596  -34.9708 H   0  0  0  0  0  0  0  0  0  0  0  0
   -6.0940   18.5570  -30.9499 H   0  0  0  0  0  0  0  0  0  0  0  0
   -4.2485   20.1933  -30.5722 H   0  0  0  0  0  0  0  0  0  0  0  0
   -4.3776   23.2819  -33.5395 H   0  0  0  0  0  0  0  0  0  0  0  0
   -4.7769   21.5880  -33.0474 H   0  0  0  0  0  0  0  0  0  0  0  0
   -6.1800   24.0730  -32.0560 H   0  0  0  0  0  0  0  0  0  0  0  0
   -8.3857   23.6391  -31.1199 H   0  0  0  0  0  0  0  0  0  0  0  0
  -10.4029   22.1792  -30.9924 H   0  0  0  0  0  0  0  0  0  0  0  0
  -10.3777   19.9134  -32.0382 H   0  0  0  0  0  0  0  0  0  0  0  0
   -8.3278   19.1029  -33.2091 H   0  0  0  0  0  0  0  0  0  0  0  0
   -6.3035   20.5520  -33.3356 H   0  0  0  0  0  0  0  0  0  0  0  0
  1  2  2  0
  2  3  1  0
  3  4  1  0
  4  5  2  0
  5  6  1  0
  6  7  2  0
  7  8  1  0
  8  9  2  0
  3 10  1  0
 10 11  2  0
 10 12  1  0
 12 13  1  0
 13 14  1  0
 14 15  2  0
 15 16  1  0
 16 17  2  0
 17 18  1  0
 17 19  1  0
 19 20  2  0
 12 21  1  0
 21 22  1  0
 22 23  1  0
 23 24  1  0
 24 25  2  0
 25 26  1  0
 26 27  2  0
 27 28  1  0
 28 29  2  0
 21  2  1  0
 29 24  1  0
  9  4  1  0
 20 14  1  0
  5 30  1  0
  6 31  1  0
  7 32  1  0
  8 33  1  0
  9 34  1  0
 13 35  1  0
 13 36  1  0
 15 37  1  0
 16 38  1  0
 19 39  1  0
 20 40  1  0
 22 41  1  0
 22 42  1  0
 23 43  1  0
 25 44  1  0
 26 45  1  0
 27 46  1  0
 28 47  1  0
 29 48  1  0
M  END
>  <UniqueID>  (26) 
25

>  <SMILES>  (26) 
O=c1n(-c2ccccc2)c(=O)n(Cc2ccc(Cl)cc2)n1CNc1ccccc1

>  <Energy>  (26) 
95.66369959499431

>  <Genealogy>  (26) 
O=c1n(-c2ccccc2)c(=O)n(Cc2ccc(Cl)cc2)n1CNc1ccccc1 (3D coordinates assigned)
O=c1n(-c2ccccc2)c(=O)n(Cc2ccc(Cl)cc2)n1CNc1ccccc1 (optimized conformer: 95.66369959499431 kcal/mol)

>  <smiles>  (26) 
O=c1n(-c2ccccc2)c(=O)n(Cc2ccc(Cl)cc2)n1CNc1ccccc1

>  <score_type>  (26) 
oracle

>  <origin>  (26) 
adgpu

>  <m_score__min__energy>  (26) 
-9.0199999999999996

>  <m_primary>  (26) 
energy

$$$$
26:0
     RDKit          3D

 26 27  0  0  0  0  0  0  0  0999 V2000
   -3.0700   24.8220  -27.8650 O   0  0  0  0  0  0  0  0  0  0  0  0
   -2.4070   24.5410  -29.1850 S   0  0  0  0  0  0  0  0  0  0  0  0
   -1.1750   25.3910  -29.3070 O   0  0  0  0  0  0  0  0  0  0  0  0
   -3.5050   24.9470  -30.4660 N   0  0  0  0  0  0  0  0  0  0  0  0
   -4.7420   24.2760  -30.7380 C   0  0  0  0  0  0  0  0  0  0  0  0
   -5.9800   24.7820  -30.3040 C   0  0  0  0  0  0  0  0  0  0  0  0
   -7.1600   24.0880  -30.5850 C   0  0  0  0  0  0  0  0  0  0  0  0
   -7.1230   22.8890  -31.3020 C   0  0  0  0  0  0  0  0  0  0  0  0
   -8.6300   22.0470  -31.6370 Cl  0  0  0  0  0  0  0  0  0  0  0  0
   -5.8890   22.3800  -31.7420 C   0  0  0  0  0  0  0  0  0  0  0  0
   -5.7950   20.8750  -32.6480 Cl  0  0  0  0  0  0  0  0  0  0  0  0
   -4.7090   23.0750  -31.4590 C   0  0  0  0  0  0  0  0  0  0  0  0
   -1.9440   22.8460  -29.3000 C   0  0  0  0  0  0  0  0  0  0  0  0
   -1.3250   22.3640  -30.4630 C   0  0  0  0  0  0  0  0  0  0  0  0
   -0.9640   21.0180  -30.5600 C   0  0  0  0  0  0  0  0  0  0  0  0
   -1.2140   20.1470  -29.4960 C   0  0  0  0  0  0  0  0  0  0  0  0
   -1.8250   20.6240  -28.3320 C   0  0  0  0  0  0  0  0  0  0  0  0
   -2.1880   21.9710  -28.2320 C   0  0  0  0  0  0  0  0  0  0  0  0
   -6.0198   25.7266  -29.7418 H   0  0  0  0  0  0  0  0  0  0  0  0
   -8.1246   24.4882  -30.2394 H   0  0  0  0  0  0  0  0  0  0  0  0
   -3.7450   22.6747  -31.8060 H   0  0  0  0  0  0  0  0  0  0  0  0
   -1.1234   23.0478  -31.3007 H   0  0  0  0  0  0  0  0  0  0  0  0
   -0.4823   20.6431  -31.4751 H   0  0  0  0  0  0  0  0  0  0  0  0
   -0.9304   19.0871  -29.5741 H   0  0  0  0  0  0  0  0  0  0  0  0
   -2.0204   19.9388  -27.4939 H   0  0  0  0  0  0  0  0  0  0  0  0
   -2.6656   22.3444  -27.3141 H   0  0  0  0  0  0  0  0  0  0  0  0
  1  2  2  0
  2  3  2  0
  2  4  1  0
  4  5  1  0
  5  6  2  0
  6  7  1  0
  7  8  2  0
  8  9  1  0
  8 10  1  0
 10 11  1  0
 10 12  2  0
  2 13  1  0
 13 14  2  0
 14 15  1  0
 15 16  2  0
 16 17  1  0
 17 18  2  0
 12  5  1  0
 18 13  1  0
  6 19  1  0
  7 20  1  0
 12 21  1  0
 14 22  1  0
 15 23  1  0
 16 24  1  0
 17 25  1  0
 18 26  1  0
M  CHG  1   4  -1
M  END
>  <UniqueID>  (27) 
26

>  <SMILES>  (27) 
O=S(=O)([N-]c1ccc(Cl)c(Cl)c1)c1ccccc1

>  <Energy>  (27) 
30.665380922978105

>  <Genealogy>  (27) 
O=S(=O)([N-]c1ccc(Cl)c(Cl)c1)c1ccccc1 (protonated)
O=S(=O)([N-]c1ccc(Cl)c(Cl)c1)c1ccccc1 (3D coordinates assigned)
O=S(=O)([N-]c1ccc(Cl)c(Cl)c1)c1ccccc1 (optimized conformer: 30.665380922978105 kcal/mol)

>  <smiles>  (27) 
O=S(=O)(Nc1ccc(Cl)c(Cl)c1)c1ccccc1

>  <score_type>  (27) 
oracle

>  <origin>  (27) 
adgpu

>  <m_score__min__energy>  (27) 
-8.7200000000000006

>  <m_primary>  (27) 
energy

$$$$
27:0
     RDKit          3D

 35 36  0  0  0  0  0  0  0  0999 V2000
   -2.8020   23.7200  -28.2430 C   0  0  0  0  0  0  0  0  0  0  0  0
   -2.6200   24.8870  -29.1630 C   0  0  0  0  0  0  0  0  0  0  0  0
   -1.6480   25.6660  -28.9740 O   0  0  0  0  0  0  0  0  0  0  0  0
   -3.4920   25.1250  -30.2750 N   0  0  0  0  0  0  0  0  0  0  0  0
   -4.6490   24.3570  -30.6330 C   0  0  0  0  0  0  0  0  0  0  0  0
   -5.9190   24.8930  -30.3870 C   0  0  0  0  0  0  0  0  0  0  0  0
   -7.0690   24.1630  -30.7050 C   0  0  0  0  0  0  0  0  0  0  0  0
   -6.9580   22.8800  -31.2560 C   0  0  0  0  0  0  0  0  0  0  0  0
   -8.4020   21.9650  -31.6770 S   0  0  0  0  0  0  0  0  0  0  0  0
   -9.4880   22.8830  -32.1650 O   0  0  0  0  0  0  0  0  0  0  0  0
   -8.8870   21.2350  -30.4580 O   0  0  0  0  0  0  0  0  0  0  0  0
   -8.0360   20.8120  -32.9200 N   0  0  0  0  0  0  0  0  0  0  0  0
   -7.2850   19.6040  -32.7310 C   0  0  0  0  0  0  0  0  0  0  0  0
   -6.2570   19.3070  -33.6330 C   0  0  0  0  0  0  0  0  0  0  0  0
   -5.5070   18.1350  -33.4940 C   0  0  0  0  0  0  0  0  0  0  0  0
   -5.7680   17.2510  -32.4370 C   0  0  0  0  0  0  0  0  0  0  0  0
   -4.9910   15.9740  -32.3100 C   0  0  0  0  0  0  0  0  0  0  0  0
   -6.8060   17.5390  -31.5390 C   0  0  0  0  0  0  0  0  0  0  0  0
   -7.5550   18.7110  -31.6780 C   0  0  0  0  0  0  0  0  0  0  0  0
   -5.6900   22.3260  -31.4670 C   0  0  0  0  0  0  0  0  0  0  0  0
   -4.5410   23.0550  -31.1510 C   0  0  0  0  0  0  0  0  0  0  0  0
   -2.7484   24.0639  -27.1995 H   0  0  0  0  0  0  0  0  0  0  0  0
   -3.7831   23.2577  -28.4268 H   0  0  0  0  0  0  0  0  0  0  0  0
   -2.0083   22.9809  -28.4268 H   0  0  0  0  0  0  0  0  0  0  0  0
   -6.0129   25.8941  -29.9410 H   0  0  0  0  0  0  0  0  0  0  0  0
   -8.0628   24.5975  -30.5219 H   0  0  0  0  0  0  0  0  0  0  0  0
   -6.0373   20.0009  -34.4577 H   0  0  0  0  0  0  0  0  0  0  0  0
   -4.7096   17.9056  -34.2162 H   0  0  0  0  0  0  0  0  0  0  0  0
   -4.8467   15.7369  -31.2456 H   0  0  0  0  0  0  0  0  0  0  0  0
   -5.5455   15.1575  -32.7956 H   0  0  0  0  0  0  0  0  0  0  0  0
   -4.0110   16.0912  -32.7956 H   0  0  0  0  0  0  0  0  0  0  0  0
   -7.0319   16.8390  -30.7211 H   0  0  0  0  0  0  0  0  0  0  0  0
   -8.3586   18.9359  -30.9613 H   0  0  0  0  0  0  0  0  0  0  0  0
   -5.5979   21.3121  -31.8835 H   0  0  0  0  0  0  0  0  0  0  0  0
   -3.5481   22.6084  -31.3082 H   0  0  0  0  0  0  0  0  0  0  0  0
  1  2  1  0
  2  3  2  0
  2  4  1  0
  4  5  1  0
  5  6  2  0
  6  7  1  0
  7  8  2  0
  8  9  1  0
  9 10  2  0
  9 11  2  0
  9 12  1  0
 12 13  1  0
 13 14  2  0
 14 15  1  0
 15 16  2  0
 16 17  1  0
 16 18  1  0
 18 19  2  0
  8 20  1  0
 20 21  2  0
 21  5  1  0
 19 13  1  0
  1 22  1  0
  1 23  1  0
  1 24  1  0
  6 25  1  0
  7 26  1  0
 14 27  1  0
 15 28  1  0
 17 29  1  0
 17 30  1  0
 17 31  1  0
 18 32  1  0
 19 33  1  0
 20 34  1  0
 21 35  1  0
M  CHG  2   4  -1  12  -1
M  END
>  <UniqueID>  (28) 
27

>  <SMILES>  (28) 
CC(=O)[N-]c1ccc(S(=O)(=O)[N-]c2ccc(C)cc2)cc1

>  <Energy>  (28) 
40.64369958880719

>  <Genealogy>  (28) 
CC(=O)[N-]c1ccc(S(=O)(=O)[N-]c2ccc(C)cc2)cc1 (protonated)
CC(=O)[N-]c1ccc(S(=O)(=O)[N-]c2ccc(C)cc2)cc1 (3D coordinates assigned)
CC(=O)[N-]c1ccc(S(=O)(=O)[N-]c2ccc(C)cc2)cc1 (optimized conformer: 40.64369958880719 kcal/mol)

>  <smiles>  (28) 
CC(=O)Nc1ccc(S(=O)(=O)Nc2ccc(C)cc2)cc1

>  <score_type>  (28) 
oracle

>  <origin>  (28) 
adgpu

>  <m_score__min__energy>  (28) 
-10.15

>  <m_primary>  (28) 
energy

$$$$
28:0
     RDKit          3D

 30 32  0  0  0  0  0  0  0  0999 V2000
   -7.9772   24.3487  -31.6747 H   0  0  0  0  0  0  0  0  0  0  0  0
   -6.9370   24.0780  -31.4410 C   0  0  0  0  0  0  0  0  0  0  0  0
   -5.9890   24.9010  -31.0700 O   0  0  0  0  0  0  0  0  0  0  0  0
   -4.9010   24.1870  -30.9020 C   0  0  0  0  0  0  0  0  0  0  0  0
   -3.6650   24.7600  -30.4470 N   0  0  0  0  0  0  0  0  0  0  0  0
   -2.9610   24.4750  -29.3840 C   0  0  0  0  0  0  0  0  0  0  0  0
   -3.2650   23.3930  -28.5300 C   0  0  0  0  0  0  0  0  0  0  0  0
   -4.1295   22.7469  -28.7428 H   0  0  0  0  0  0  0  0  0  0  0  0
   -2.4640   23.1470  -27.4150 C   0  0  0  0  0  0  0  0  0  0  0  0
   -2.7007   22.3101  -26.7415 H   0  0  0  0  0  0  0  0  0  0  0  0
   -1.3620   23.9630  -27.1540 C   0  0  0  0  0  0  0  0  0  0  0  0
   -0.5280   23.7160  -26.0070 C   0  0  0  0  0  0  0  0  0  0  0  0
    0.1430   23.5190  -25.0840 N   0  0  0  0  0  0  0  0  0  0  0  0
   -1.0720   25.0130  -28.0270 C   0  0  0  0  0  0  0  0  0  0  0  0
   -0.2025   25.6596  -27.8375 H   0  0  0  0  0  0  0  0  0  0  0  0
   -1.8620   25.2390  -29.1120 N   0  0  0  0  0  0  0  0  0  0  0  0
   -1.6160   26.0340  -29.7450 H   0  0  0  0  0  0  0  0  0  0  0  0
   -5.0940   22.8720  -31.1350 N   0  0  0  0  0  0  0  0  0  0  0  0
   -6.3940   22.8060  -31.4860 C   0  0  0  0  0  0  0  0  0  0  0  0
   -7.0850   21.5450  -31.8510 C   0  0  0  0  0  0  0  0  0  0  0  0
   -6.4600   20.6300  -32.7200 C   0  0  0  0  0  0  0  0  0  0  0  0
   -5.4619   20.8549  -33.1239 H   0  0  0  0  0  0  0  0  0  0  0  0
   -7.0990   19.4380  -33.0730 C   0  0  0  0  0  0  0  0  0  0  0  0
   -6.6022   18.7293  -33.7519 H   0  0  0  0  0  0  0  0  0  0  0  0
   -8.3660   19.1450  -32.5660 C   0  0  0  0  0  0  0  0  0  0  0  0
   -8.8668   18.2063  -32.8453 H   0  0  0  0  0  0  0  0  0  0  0  0
   -8.9970   20.0430  -31.7050 C   0  0  0  0  0  0  0  0  0  0  0  0
   -9.9955   19.8109  -31.3062 H   0  0  0  0  0  0  0  0  0  0  0  0
   -8.3630   21.2390  -31.3470 C   0  0  0  0  0  0  0  0  0  0  0  0
   -8.8664   21.9432  -30.6682 H   0  0  0  0  0  0  0  0  0  0  0  0
  1  2  1  0
  2  3  1  0
  3  4  1  0
  4  5  1  0
  5  6  2  0
  6  7  1  0
  7  8  1  0
  7  9  2  0
  9 10  1  0
  9 11  1  0
 11 12  1  0
 12 13  3  0
 11 14  2  0
 14 15  1  0
 14 16  1  0
 16 17  1  0
  4 18  2  0
 18 19  1  0
 19 20  1  0
 20 21  2  0
 21 22  1  0
 21 23  1  0
 23 24  1  0
 23 25  2  0
 25 26  1  0
 25 27  1  0
 27 28  1  0
 27 29  2  0
 29 30  1  0
 19  2  2  0
 29 20  1  0
 16  6  1  0
M  END
>  <UniqueID>  (29) 
28

>  <SMILES>  (29) 
N#Cc1cc/c(=N\c2nc(-c3ccccc3)co2)[nH]c1

>  <Energy>  (29) 
71.19014999244064

>  <Genealogy>  (29) 
N#Cc1cc/c(=N\c2nc(-c3ccccc3)co2)[nH]c1 (cis-trans isomerization)
N#Cc1cc/c(=N\c2nc(-c3ccccc3)co2)[nH]c1 (3D coordinates assigned)
N#Cc1cc/c(=N\c2nc(-c3ccccc3)co2)[nH]c1 (optimized conformer: 71.19014999244064 kcal/mol)

>  <smiles>  (29) 
N#Cc1ccc(=Nc2nc(-c3ccccc3)co2)[nH]c1

>  <score_type>  (29) 
oracle

>  <origin>  (29) 
adgpu

>  <m_score__min__energy>  (29) 
-8.4499999999999993

>  <m_primary>  (29) 
energy

$$$$
29:0
     RDKit          3D

 31 33  0  0  0  0  0  0  0  0999 V2000
   -9.4740   19.4750  -32.7230 Cl  0  0  0  0  0  0  0  0  0  0  0  0
   -8.1730   20.4980  -32.1400 C   0  0  0  0  0  0  0  0  0  0  0  0
   -8.4650   21.7010  -31.4940 C   0  0  0  0  0  0  0  0  0  0  0  0
   -7.4290   22.5170  -31.0280 C   0  0  0  0  0  0  0  0  0  0  0  0
   -6.0840   22.1410  -31.2050 C   0  0  0  0  0  0  0  0  0  0  0  0
   -4.9900   23.0140  -30.7070 C   0  0  0  0  0  0  0  0  0  0  0  0
   -4.8770   24.3980  -30.8650 C   0  0  0  0  0  0  0  0  0  0  0  0
   -3.7690   24.9560  -30.3060 N   0  0  0  0  0  0  0  0  0  0  0  0
   -2.9860   24.0390  -29.6970 C   0  0  0  0  0  0  0  0  0  0  0  0
   -1.7510   24.3690  -29.0290 N   0  0  0  0  0  0  0  0  0  0  0  0
   -1.6320   25.6610  -28.3430 C   0  0  0  0  0  0  0  0  0  0  0  0
   -0.5330   25.6040  -27.2770 C   0  0  0  0  0  0  0  0  0  0  0  0
    0.6680   25.0980  -27.8230 O   0  0  0  0  0  0  0  0  0  0  0  0
    0.4840   23.7470  -28.1930 C   0  0  0  0  0  0  0  0  0  0  0  0
   -0.5230   23.6270  -29.3410 C   0  0  0  0  0  0  0  0  0  0  0  0
   -3.6440   22.4950  -29.8300 S   0  0  0  0  0  0  0  0  0  0  0  0
   -5.8040   20.9210  -31.8550 C   0  0  0  0  0  0  0  0  0  0  0  0
   -6.8430   20.1080  -32.3180 C   0  0  0  0  0  0  0  0  0  0  0  0
   -9.5118   22.0075  -31.3513 H   0  0  0  0  0  0  0  0  0  0  0  0
   -7.6676   23.4620  -30.5181 H   0  0  0  0  0  0  0  0  0  0  0  0
   -5.6296   24.9934  -31.4026 H   0  0  0  0  0  0  0  0  0  0  0  0
   -1.3825   26.4397  -29.0787 H   0  0  0  0  0  0  0  0  0  0  0  0
   -2.5896   25.8935  -27.8542 H   0  0  0  0  0  0  0  0  0  0  0  0
   -0.3540   26.6175  -26.8886 H   0  0  0  0  0  0  0  0  0  0  0  0
   -0.8613   24.9366  -26.4666 H   0  0  0  0  0  0  0  0  0  0  0  0
    1.4485   23.3271  -28.5146 H   0  0  0  0  0  0  0  0  0  0  0  0
    0.0948   23.1947  -27.3249 H   0  0  0  0  0  0  0  0  0  0  0  0
   -0.0760   24.0368  -30.2587 H   0  0  0  0  0  0  0  0  0  0  0  0
   -0.7754   22.5658  -29.4827 H   0  0  0  0  0  0  0  0  0  0  0  0
   -4.7597   20.6066  -31.9988 H   0  0  0  0  0  0  0  0  0  0  0  0
   -6.6128   19.1587  -32.8238 H   0  0  0  0  0  0  0  0  0  0  0  0
  1  2  1  0
  2  3  2  0
  3  4  1  0
  4  5  2  0
  5  6  1  0
  6  7  2  0
  7  8  1  0
  8  9  2  0
  9 10  1  0
 10 11  1  0
 11 12  1  0
 12 13  1  0
 13 14  1  0
 14 15  1  0
  9 16  1  0
  5 17  1  0
 17 18  2  0
 18  2  1  0
 16  6  1  0
 15 10  1  0
  3 19  1  0
  4 20  1  0
  7 21  1  0
 11 22  1  0
 11 23  1  0
 12 24  1  0
 12 25  1  0
 14 26  1  0
 14 27  1  0
 15 28  1  0
 15 29  1  0
 17 30  1  0
 18 31  1  0
M  END
>  <UniqueID>  (30) 
29

>  <SMILES>  (30) 
Clc1ccc(-c2cnc(N3CCOCC3)s2)cc1

>  <Energy>  (30) 
66.46107894214951

>  <Genealogy>  (30) 
Clc1ccc(-c2cnc(N3CCOCC3)s2)cc1 (3D coordinates assigned)
Clc1ccc(-c2cnc(N3CCOCC3)s2)cc1 (nonaromatic ring conformer: 66.46107894214951 kcal/mol)

>  <smiles>  (30) 
Clc1ccc(-c2cnc(N3CCOCC3)s2)cc1

>  <score_type>  (30) 
oracle

>  <origin>  (30) 
adgpu

>  <m_score__min__energy>  (30) 
-7.2300000000000004

>  <m_primary>  (30) 
energy

$$$$
30:0
     RDKit          3D

 27 28  0  0  0  0  0  0  0  0999 V2000
   -1.6200   26.1500  -25.2320 C   0  0  0  0  0  0  0  0  0  0  0  0
   -2.5210   25.2410  -25.9950 C   0  0  0  0  0  0  0  0  0  0  0  0
   -3.8650   25.3190  -25.9780 N   0  0  0  0  0  0  0  0  0  0  0  0
   -4.3030   24.3340  -26.7470 N   0  0  0  0  0  0  0  0  0  0  0  0
   -3.2080   23.6950  -27.1950 C   0  0  0  0  0  0  0  0  0  0  0  0
   -3.2520   22.2740  -28.2850 S   0  0  0  0  0  0  0  0  0  0  0  0
   -2.1800   23.0150  -29.5650 C   0  0  0  0  0  0  0  0  0  0  0  0
   -2.4450   24.4890  -29.7060 C   0  0  0  0  0  0  0  0  0  0  0  0
   -1.6200   25.3070  -29.2220 O   0  0  0  0  0  0  0  0  0  0  0  0
   -3.5510   24.9970  -30.4670 N   0  0  0  0  0  0  0  0  0  0  0  0
   -4.8120   24.3510  -30.6870 C   0  0  0  0  0  0  0  0  0  0  0  0
   -6.0140   24.8990  -30.2080 C   0  0  0  0  0  0  0  0  0  0  0  0
   -7.2310   24.2620  -30.4670 C   0  0  0  0  0  0  0  0  0  0  0  0
   -7.2590   23.0850  -31.2190 C   0  0  0  0  0  0  0  0  0  0  0  0
   -6.0700   22.5500  -31.7250 C   0  0  0  0  0  0  0  0  0  0  0  0
   -6.1070   21.0830  -32.6850 Cl  0  0  0  0  0  0  0  0  0  0  0  0
   -4.8510   23.1880  -31.4680 C   0  0  0  0  0  0  0  0  0  0  0  0
   -2.1090   24.2430  -26.7380 O   0  0  0  0  0  0  0  0  0  0  0  0
   -1.7721   25.9965  -24.1534 H   0  0  0  0  0  0  0  0  0  0  0  0
   -0.5735   25.9300  -25.4896 H   0  0  0  0  0  0  0  0  0  0  0  0
   -1.8492   27.1945  -25.4896 H   0  0  0  0  0  0  0  0  0  0  0  0
   -1.1274   22.8645  -29.2833 H   0  0  0  0  0  0  0  0  0  0  0  0
   -2.3961   22.5274  -30.5271 H   0  0  0  0  0  0  0  0  0  0  0  0
   -5.9972   25.8329  -29.6270 H   0  0  0  0  0  0  0  0  0  0  0  0
   -8.1677   24.6880  -30.0782 H   0  0  0  0  0  0  0  0  0  0  0  0
   -8.2162   22.5790  -31.4131 H   0  0  0  0  0  0  0  0  0  0  0  0
   -3.9191   22.7746  -31.8810 H   0  0  0  0  0  0  0  0  0  0  0  0
  1  2  1  0
  2  3  2  0
  3  4  1  0
  4  5  2  0
  5  6  1  0
  6  7  1  0
  7  8  1  0
  8  9  2  0
  8 10  1  0
 10 11  1  0
 11 12  2  0
 12 13  1  0
 13 14  2  0
 14 15  1  0
 15 16  1  0
 15 17  2  0
  5 18  1  0
 18  2  1  0
 17 11  1  0
  1 19  1  0
  1 20  1  0
  1 21  1  0
  7 22  1  0
  7 23  1  0
 12 24  1  0
 13 25  1  0
 14 26  1  0
 17 27  1  0
M  CHG  1  10  -1
M  END
>  <UniqueID>  (31) 
30

>  <SMILES>  (31) 
Cc1nnc(SCC(=O)[N-]c2cccc(Cl)c2)o1

>  <Energy>  (31) 
61.78972784873222

>  <Genealogy>  (31) 
Cc1nnc(SCC(=O)[N-]c2cccc(Cl)c2)o1 (protonated)
Cc1nnc(SCC(=O)[N-]c2cccc(Cl)c2)o1 (3D coordinates assigned)
Cc1nnc(SCC(=O)[N-]c2cccc(Cl)c2)o1 (optimized conformer: 61.78972784873222 kcal/mol)

>  <smiles>  (31) 
Cc1nnc(SCC(=O)Nc2cccc(Cl)c2)o1

>  <score_type>  (31) 
oracle

>  <origin>  (31) 
adgpu

>  <m_score__min__energy>  (31) 
-8.5399999999999991

>  <m_primary>  (31) 
energy

$$$$
31:0
     RDKit          3D

 31 32  0  0  0  0  0  0  0  0999 V2000
   -4.9770   25.6400  -28.7250 H   0  0  0  0  0  0  0  0  0  0  0  0
   -5.8700   25.2940  -29.0540 O   0  0  0  0  0  0  0  0  0  0  0  0
   -5.9760   24.4010  -30.1200 C   0  0  0  0  0  0  0  0  0  0  0  0
   -7.2400   23.9100  -30.4650 C   0  0  0  0  0  0  0  0  0  0  0  0
   -8.1258   24.2433  -29.9045 H   0  0  0  0  0  0  0  0  0  0  0  0
   -7.3880   22.9950  -31.5210 C   0  0  0  0  0  0  0  0  0  0  0  0
   -8.7170   22.4820  -31.9200 C   0  0  0  0  0  0  0  0  0  0  0  0
   -9.5407   23.2083  -31.9826 H   0  0  0  0  0  0  0  0  0  0  0  0
   -9.0000   21.2020  -32.2120 C   0  0  0  0  0  0  0  0  0  0  0  0
  -10.0581   20.9389  -32.3574 H   0  0  0  0  0  0  0  0  0  0  0  0
   -8.0040   20.1170  -32.3540 C   0  0  0  0  0  0  0  0  0  0  0  0
   -7.9780   19.0840  -31.4020 C   0  0  0  0  0  0  0  0  0  0  0  0
   -8.6797   19.1017  -30.5550 H   0  0  0  0  0  0  0  0  0  0  0  0
   -7.0640   18.0340  -31.5270 C   0  0  0  0  0  0  0  0  0  0  0  0
   -7.0385   17.2365  -30.7699 H   0  0  0  0  0  0  0  0  0  0  0  0
   -6.1830   17.9940  -32.6100 C   0  0  0  0  0  0  0  0  0  0  0  0
   -5.4592   17.1707  -32.7009 H   0  0  0  0  0  0  0  0  0  0  0  0
   -6.2220   19.0010  -33.5780 C   0  0  0  0  0  0  0  0  0  0  0  0
   -5.5335   18.9656  -34.4351 H   0  0  0  0  0  0  0  0  0  0  0  0
   -7.1350   20.0540  -33.4590 C   0  0  0  0  0  0  0  0  0  0  0  0
   -7.1738   20.8357  -34.2320 H   0  0  0  0  0  0  0  0  0  0  0  0
   -6.2610   22.6180  -32.2610 C   0  0  0  0  0  0  0  0  0  0  0  0
   -6.3721   21.9338  -33.1151 H   0  0  0  0  0  0  0  0  0  0  0  0
   -4.9960   23.1050  -31.9220 C   0  0  0  0  0  0  0  0  0  0  0  0
   -4.1158   22.7888  -32.5010 H   0  0  0  0  0  0  0  0  0  0  0  0
   -4.8400   23.9980  -30.8440 C   0  0  0  0  0  0  0  0  0  0  0  0
   -3.5830   24.5020  -30.4720 O   0  0  0  0  0  0  0  0  0  0  0  0
   -2.6680   23.8330  -29.6110 C   0  0  0  0  0  0  0  0  0  0  0  0
   -2.9387   24.0309  -28.5634 H   0  0  0  0  0  0  0  0  0  0  0  0
   -2.7092   22.7505  -29.8021 H   0  0  0  0  0  0  0  0  0  0  0  0
   -1.6490   24.2006  -29.8021 H   0  0  0  0  0  0  0  0  0  0  0  0
  1  2  1  0
  2  3  1  0
  3  4  2  0
  4  5  1  0
  4  6  1  0
  6  7  1  0
  7  8  1  0
  7  9  2  0
  9 10  1  0
  9 11  1  0
 11 12  2  0
 12 13  1  0
 12 14  1  0
 14 15  1  0
 14 16  2  0
 16 17  1  0
 16 18  1  0
 18 19  1  0
 18 20  2  0
 20 21  1  0
  6 22  2  0
 22 23  1  0
 22 24  1  0
 24 25  1  0
 24 26  2  0
 26 27  1  0
 27 28  1  0
 28 29  1  0
 28 30  1  0
 28 31  1  0
 26  3  1  0
 20 11  1  0
M  END
>  <UniqueID>  (32) 
31

>  <SMILES>  (32) 
COc1ccc(/C=C\c2ccccc2)cc1O

>  <Energy>  (32) 
40.56477425694033

>  <Genealogy>  (32) 
COc1ccc(/C=C\c2ccccc2)cc1O (cis-trans isomerization)
COc1ccc(/C=C\c2ccccc2)cc1O (3D coordinates assigned)
COc1ccc(/C=C\c2ccccc2)cc1O (optimized conformer: 40.56477425694033 kcal/mol)

>  <smiles>  (32) 
COc1ccc(C=Cc2ccccc2)cc1O

>  <score_type>  (32) 
oracle

>  <origin>  (32) 
adgpu

>  <m_score__min__energy>  (32) 
-8.2599999999999998

>  <m_primary>  (32) 
energy

$$$$
32:0
     RDKit          3D

 32 33  0  0  0  0  0  0  0  0999 V2000
   -8.0880   23.3720  -31.9660 C   0  0  0  0  0  0  0  0  0  0  0  0
   -7.2550   22.3690  -32.5400 O   0  0  0  0  0  0  0  0  0  0  0  0
   -7.4230   20.9880  -32.3520 C   0  0  0  0  0  0  0  0  0  0  0  0
   -8.5960   20.4590  -31.7740 C   0  0  0  0  0  0  0  0  0  0  0  0
   -8.7440   19.0800  -31.6120 C   0  0  0  0  0  0  0  0  0  0  0  0
   -7.7310   18.2140  -32.0180 C   0  0  0  0  0  0  0  0  0  0  0  0
   -6.5640   18.7220  -32.5900 C   0  0  0  0  0  0  0  0  0  0  0  0
   -6.4010   20.1060  -32.7680 C   0  0  0  0  0  0  0  0  0  0  0  0
   -5.1380   20.6200  -33.4280 C   0  0  0  0  0  0  0  0  0  0  0  0
   -4.8590   22.0290  -33.0890 N   0  0  0  0  0  0  0  0  0  0  0  0
   -4.1420   22.1970  -31.8100 C   0  0  0  0  0  0  0  0  0  0  0  0
   -4.6630   23.3520  -31.0020 C   0  0  0  0  0  0  0  0  0  0  0  0
   -4.8590   23.3690  -29.6350 C   0  0  0  0  0  0  0  0  0  0  0  0
   -5.3420   24.6270  -29.3460 C   0  0  0  0  0  0  0  0  0  0  0  0
   -5.4200   25.2940  -30.5510 C   0  0  0  0  0  0  0  0  0  0  0  0
   -5.0130   24.5070  -31.5190 O   0  0  0  0  0  0  0  0  0  0  0  0
   -8.0354   23.3087  -30.8691 H   0  0  0  0  0  0  0  0  0  0  0  0
   -7.7450   24.3647  -32.2928 H   0  0  0  0  0  0  0  0  0  0  0  0
   -9.1268   23.2171  -32.2928 H   0  0  0  0  0  0  0  0  0  0  0  0
   -9.3990   21.1369  -31.4489 H   0  0  0  0  0  0  0  0  0  0  0  0
   -9.6632   18.6762  -31.1625 H   0  0  0  0  0  0  0  0  0  0  0  0
   -7.8513   17.1284  -31.8875 H   0  0  0  0  0  0  0  0  0  0  0  0
   -5.7656   18.0336  -32.9039 H   0  0  0  0  0  0  0  0  0  0  0  0
   -4.2900   20.0025  -33.0969 H   0  0  0  0  0  0  0  0  0  0  0  0
   -5.2802   20.5591  -34.5171 H   0  0  0  0  0  0  0  0  0  0  0  0
   -5.7410   22.5950  -33.1010 H   0  0  0  0  0  0  0  0  0  0  0  0
   -4.2450   22.4140  -33.8430 H   0  0  0  0  0  0  0  0  0  0  0  0
   -4.2539   21.2755  -31.2199 H   0  0  0  0  0  0  0  0  0  0  0  0
   -3.0873   22.4036  -32.0443 H   0  0  0  0  0  0  0  0  0  0  0  0
   -4.6693   22.5500  -28.9255 H   0  0  0  0  0  0  0  0  0  0  0  0
   -5.6111   25.0200  -28.3544 H   0  0  0  0  0  0  0  0  0  0  0  0
   -5.7702   26.3286  -30.6808 H   0  0  0  0  0  0  0  0  0  0  0  0
  1  2  1  0
  2  3  1  0
  3  4  2  0
  4  5  1  0
  5  6  2  0
  6  7  1  0
  7  8  2  0
  8  9  1  0
  9 10  1  0
 10 11  1  0
 11 12  1  0
 12 13  2  0
 13 14  1  0
 14 15  2  0
 15 16  1  0
  8  3  1  0
 16 12  1  0
  1 17  1  0
  1 18  1  0
  1 19  1  0
  4 20  1  0
  5 21  1  0
  6 22  1  0
  7 23  1  0
  9 24  1  0
  9 25  1  0
 10 26  1  0
 10 27  1  0
 11 28  1  0
 11 29  1  0
 13 30  1  0
 14 31  1  0
 15 32  1  0
M  CHG  1  10   1
M  END
>  <UniqueID>  (33) 
32

>  <SMILES>  (33) 
COc1ccccc1C[NH2+]Cc1ccco1

>  <Energy>  (33) 
56.122849959330146

>  <Genealogy>  (33) 
COc1ccccc1C[NH2+]Cc1ccco1 (protonated)
COc1ccccc1C[NH2+]Cc1ccco1 (3D coordinates assigned)
COc1ccccc1C[NH2+]Cc1ccco1 (optimized conformer: 56.122849959330146 kcal/mol)

>  <smiles>  (33) 
COc1ccccc1CNCc1ccco1

>  <score_type>  (33) 
oracle

>  <origin>  (33) 
adgpu

>  <m_score__min__energy>  (33) 
-5.96

>  <m_primary>  (33) 
energy

$$$$
33:0
     RDKit          3D

 38 39  0  0  0  0  0  0  0  0999 V2000
   -5.4690   19.1490  -33.3280 C   0  0  0  0  0  0  0  0  0  0  0  0
   -6.5370   20.1170  -32.9430 C   0  0  0  0  0  0  0  0  0  0  0  0
   -7.8550   19.7960  -32.6840 C   0  0  0  0  0  0  0  0  0  0  0  0
   -8.4300   20.9980  -32.3240 C   0  0  0  0  0  0  0  0  0  0  0  0
   -9.8530   21.1760  -31.8970 C   0  0  0  0  0  0  0  0  0  0  0  0
   -7.4760   21.9600  -32.3400 N   0  0  0  0  0  0  0  0  0  0  0  0
   -7.6320   23.3770  -32.0050 C   0  0  0  0  0  0  0  0  0  0  0  0
   -7.2400   23.6690  -30.5450 C   0  0  0  0  0  0  0  0  0  0  0  0
   -6.1630   24.7560  -30.4030 C   0  0  0  0  0  0  0  0  0  0  0  0
   -4.7790   24.2380  -30.6740 C   0  0  0  0  0  0  0  0  0  0  0  0
   -3.7940   25.0130  -30.5390 O   0  0  0  0  0  0  0  0  0  0  0  0
   -4.5880   22.8660  -31.0600 N   0  0  0  0  0  0  0  0  0  0  0  0
   -3.3220   22.2950  -31.4340 C   0  0  0  0  0  0  0  0  0  0  0  0
   -3.1700   21.7530  -32.7210 C   0  0  0  0  0  0  0  0  0  0  0  0
   -1.9500   21.1970  -33.1170 C   0  0  0  0  0  0  0  0  0  0  0  0
   -0.8640   21.1970  -32.2380 C   0  0  0  0  0  0  0  0  0  0  0  0
    0.3200   20.6590  -32.6230 F   0  0  0  0  0  0  0  0  0  0  0  0
   -0.9940   21.7620  -30.9670 C   0  0  0  0  0  0  0  0  0  0  0  0
   -2.2140   22.3170  -30.5670 C   0  0  0  0  0  0  0  0  0  0  0  0
   -6.3240   21.4280  -32.7210 N   0  0  0  0  0  0  0  0  0  0  0  0
   -5.0082   18.7314  -32.4207 H   0  0  0  0  0  0  0  0  0  0  0  0
   -5.9088   18.3355  -33.9236 H   0  0  0  0  0  0  0  0  0  0  0  0
   -4.7025   19.6664  -33.9236 H   0  0  0  0  0  0  0  0  0  0  0  0
   -8.3361   18.8090  -32.7496 H   0  0  0  0  0  0  0  0  0  0  0  0
   -9.9080   21.1829  -30.7984 H   0  0  0  0  0  0  0  0  0  0  0  0
  -10.2371   22.1292  -32.2893 H   0  0  0  0  0  0  0  0  0  0  0  0
  -10.4600   20.3468  -32.2893 H   0  0  0  0  0  0  0  0  0  0  0  0
   -6.9905   23.9725  -32.6712 H   0  0  0  0  0  0  0  0  0  0  0  0
   -8.6918   23.6425  -32.1328 H   0  0  0  0  0  0  0  0  0  0  0  0
   -8.1389   23.9971  -30.0025 H   0  0  0  0  0  0  0  0  0  0  0  0
   -6.8180   22.7408  -30.1324 H   0  0  0  0  0  0  0  0  0  0  0  0
   -6.3824   25.5644  -31.1160 H   0  0  0  0  0  0  0  0  0  0  0  0
   -6.1867   25.1142  -29.3632 H   0  0  0  0  0  0  0  0  0  0  0  0
   -5.3980   22.2150  -30.9460 H   0  0  0  0  0  0  0  0  0  0  0  0
   -4.0172   21.7662  -33.4224 H   0  0  0  0  0  0  0  0  0  0  0  0
   -1.8451   20.7595  -34.1208 H   0  0  0  0  0  0  0  0  0  0  0  0
   -0.1353   21.7704  -30.2795 H   0  0  0  0  0  0  0  0  0  0  0  0
   -2.3077   22.7727  -29.5702 H   0  0  0  0  0  0  0  0  0  0  0  0
  1  2  1  0
  2  3  1  0
  3  4  2  0
  4  5  1  0
  4  6  1  0
  6  7  1  0
  7  8  1  0
  8  9  1  0
  9 10  1  0
 10 11  2  0
 10 12  1  0
 12 13  1  0
 13 14  2  0
 14 15  1  0
 15 16  2  0
 16 17  1  0
 16 18  1  0
 18 19  2  0
  6 20  1  0
 20  2  2  0
 19 13  1  0
  1 21  1  0
  1 22  1  0
  1 23  1  0
  3 24  1  0
  5 25  1  0
  5 26  1  0
  5 27  1  0
  7 28  1  0
  7 29  1  0
  8 30  1  0
  8 31  1  0
  9 32  1  0
  9 33  1  0
 12 34  1  0
 14 35  1  0
 15 36  1  0
 18 37  1  0
 19 38  1  0
M  END
>  <UniqueID>  (34) 
33

>  <SMILES>  (34) 
Cc1cc(C)n(CCCC(=O)Nc2ccc(F)cc2)n1

>  <Energy>  (34) 
61.66814224041683

>  <Genealogy>  (34) 
Cc1cc(C)n(CCCC(=O)Nc2ccc(F)cc2)n1 (3D coordinates assigned)
Cc1cc(C)n(CCCC(=O)Nc2ccc(F)cc2)n1 (optimized conformer: 61.66814224041683 kcal/mol)

>  <smiles>  (34) 
Cc1cc(C)n(CCCC(=O)Nc2ccc(F)cc2)n1

>  <score_type>  (34) 
oracle

>  <origin>  (34) 
adgpu

>  <m_score__min__energy>  (34) 
-7.0800000000000001

>  <m_primary>  (34) 
energy

$$$$
34:0
     RDKit          3D

 32 34  0  0  0  0  0  0  0  0999 V2000
   -0.4870   22.0130  -30.1560 H   0  0  0  0  0  0  0  0  0  0  0  0
   -1.2860   22.6790  -30.2570 N   0  0  0  0  0  0  0  0  0  0  0  0
   -1.3250   23.7830  -29.5810 C   0  0  0  0  0  0  0  0  0  0  0  0
   -0.3630   24.1600  -28.7180 N   0  0  0  0  0  0  0  0  0  0  0  0
   -0.8410   25.3490  -28.2790 C   0  0  0  0  0  0  0  0  0  0  0  0
   -0.1400   26.2070  -27.3000 C   0  0  0  0  0  0  0  0  0  0  0  0
    1.2460   26.0680  -27.0970 C   0  0  0  0  0  0  0  0  0  0  0  0
    1.8110   25.3198  -27.6723 H   0  0  0  0  0  0  0  0  0  0  0  0
    1.9080   26.8760  -26.1680 C   0  0  0  0  0  0  0  0  0  0  0  0
    2.9914   26.7627  -26.0150 H   0  0  0  0  0  0  0  0  0  0  0  0
    1.1950   27.8280  -25.4330 C   0  0  0  0  0  0  0  0  0  0  0  0
    1.7175   28.4634  -24.7028 H   0  0  0  0  0  0  0  0  0  0  0  0
   -0.1800   27.9720  -25.6260 C   0  0  0  0  0  0  0  0  0  0  0  0
   -0.7400   28.7210  -25.0469 H   0  0  0  0  0  0  0  0  0  0  0  0
   -0.8470   27.1660  -26.5540 C   0  0  0  0  0  0  0  0  0  0  0  0
   -1.9308   27.2831  -26.7010 H   0  0  0  0  0  0  0  0  0  0  0  0
   -2.0250   25.6730  -28.8420 N   0  0  0  0  0  0  0  0  0  0  0  0
   -2.3190   24.6860  -29.6680 N   0  0  0  0  0  0  0  0  0  0  0  0
   -3.5190   24.6200  -30.4580 C   0  0  0  0  0  0  0  0  0  0  0  0
   -4.2390   25.6450  -30.5950 O   0  0  0  0  0  0  0  0  0  0  0  0
   -3.8830   23.4240  -31.1580 N   0  0  0  0  0  0  0  0  0  0  0  0
   -5.2220   22.9770  -31.4140 C   0  0  0  0  0  0  0  0  0  0  0  0
   -5.4170   21.8030  -32.1530 C   0  0  0  0  0  0  0  0  0  0  0  0
   -4.5481   21.2343  -32.5159 H   0  0  0  0  0  0  0  0  0  0  0  0
   -6.7110   21.3500  -32.4320 C   0  0  0  0  0  0  0  0  0  0  0  0
   -6.8573   20.4200  -33.0009 H   0  0  0  0  0  0  0  0  0  0  0  0
   -7.8180   22.0790  -31.9880 C   0  0  0  0  0  0  0  0  0  0  0  0
   -8.8352   21.7179  -32.2001 H   0  0  0  0  0  0  0  0  0  0  0  0
   -7.6330   23.2660  -31.2750 C   0  0  0  0  0  0  0  0  0  0  0  0
   -8.5046   23.8432  -30.9328 H   0  0  0  0  0  0  0  0  0  0  0  0
   -6.3400   23.7210  -30.9960 C   0  0  0  0  0  0  0  0  0  0  0  0
   -6.1971   24.6639  -30.4478 H   0  0  0  0  0  0  0  0  0  0  0  0
  1  2  1  0
  2  3  2  0
  3  4  1  0
  4  5  2  0
  5  6  1  0
  6  7  2  0
  7  8  1  0
  7  9  1  0
  9 10  1  0
  9 11  2  0
 11 12  1  0
 11 13  1  0
 13 14  1  0
 13 15  2  0
 15 16  1  0
  5 17  1  0
 17 18  1  0
 18 19  1  0
 19 20  2  0
 19 21  1  0
 21 22  1  0
 22 23  2  0
 23 24  1  0
 23 25  1  0
 25 26  1  0
 25 27  2  0
 27 28  1  0
 27 29  1  0
 29 30  1  0
 29 31  2  0
 31 32  1  0
 18  3  1  0
 31 22  1  0
 15  6  1  0
M  CHG  2  17  -1  21  -1
M  END
>  <UniqueID>  (35) 
34

>  <SMILES>  (35) 
[H]/N=c1\nc(-c2ccccc2)[n-]n1C(=O)[N-]c1ccccc1

>  <Energy>  (35) 
74.35645727423893

>  <Genealogy>  (35) 
N=c1nc(-c2ccccc2)[n-]n1C(=O)[N-]c1ccccc1 (protonated)
[H]/N=c1\nc(-c2ccccc2)[n-]n1C(=O)[N-]c1ccccc1 (cis-trans isomerization)
[H]/N=c1\nc(-c2ccccc2)[n-]n1C(=O)[N-]c1ccccc1 (3D coordinates assigned)
[H]/N=c1\nc(-c2ccccc2)[n-]n1C(=O)[N-]c1ccccc1 (optimized conformer: 74.35645727423893 kcal/mol)

>  <smiles>  (35) 
N=c1nc(-c2ccccc2)[nH]n1C(=O)Nc1ccccc1

>  <score_type>  (35) 
oracle

>  <origin>  (35) 
adgpu

>  <m_score__min__energy>  (35) 
-9.2799999999999994

>  <m_primary>  (35) 
energy

$$$$
35:0
     RDKit          3D

 57 60  0  0  0  0  0  0  0  0999 V2000
   -1.0430   26.1430  -29.8840 H   0  0  0  0  0  0  0  0  0  0  0  0
   -1.3460   25.6860  -28.9950 N   0  0  0  0  0  0  0  0  0  0  0  0
   -2.3870   24.9170  -28.9510 C   0  0  0  0  0  0  0  0  0  0  0  0
   -3.1150   24.6880  -30.0770 N   0  0  0  0  0  0  0  0  0  0  0  0
   -4.2190   23.8910  -30.0750 C   0  0  0  0  0  0  0  0  0  0  0  0
   -4.9950   23.7060  -31.3480 C   0  0  0  0  0  0  0  0  0  0  0  0
   -6.0466   23.9800  -31.1772 H   0  0  0  0  0  0  0  0  0  0  0  0
   -4.5656   24.3488  -32.1306 H   0  0  0  0  0  0  0  0  0  0  0  0
   -4.9210   22.3050  -31.7790 N   0  0  0  0  0  0  0  0  0  0  0  0
   -5.8730   21.5580  -32.4100 C   0  0  0  0  0  0  0  0  0  0  0  0
   -7.2950   22.0000  -32.6590 C   0  0  0  0  0  0  0  0  0  0  0  0
   -7.3200   23.0997  -32.6580 H   0  0  0  0  0  0  0  0  0  0  0  0
   -7.5964   21.5688  -33.6250 H   0  0  0  0  0  0  0  0  0  0  0  0
   -8.3150   21.4870  -31.6010 C   0  0  0  0  0  0  0  0  0  0  0  0
   -7.9830   22.0420  -30.1990 C   0  0  0  0  0  0  0  0  0  0  0  0
   -8.3876   21.3656  -29.4316 H   0  0  0  0  0  0  0  0  0  0  0  0
   -6.8917   22.1168  -30.0832 H   0  0  0  0  0  0  0  0  0  0  0  0
   -8.4332   23.0390  -30.0832 H   0  0  0  0  0  0  0  0  0  0  0  0
   -9.7550   21.8890  -31.9810 C   0  0  0  0  0  0  0  0  0  0  0  0
  -10.3433   22.0532  -31.0662 H   0  0  0  0  0  0  0  0  0  0  0  0
   -9.7328   22.8153  -32.5739 H   0  0  0  0  0  0  0  0  0  0  0  0
  -10.2157   21.0851  -32.5739 H   0  0  0  0  0  0  0  0  0  0  0  0
   -8.2320   19.9480  -31.5510 C   0  0  0  0  0  0  0  0  0  0  0  0
   -8.2141   19.6156  -30.5026 H   0  0  0  0  0  0  0  0  0  0  0  0
   -9.1082   19.5169  -32.0574 H   0  0  0  0  0  0  0  0  0  0  0  0
   -7.3145   19.6136  -32.0574 H   0  0  0  0  0  0  0  0  0  0  0  0
   -5.4170   20.3470  -32.8250 N   0  0  0  0  0  0  0  0  0  0  0  0
   -4.1290   20.3550  -32.4380 C   0  0  0  0  0  0  0  0  0  0  0  0
   -3.1750   19.3670  -32.6570 C   0  0  0  0  0  0  0  0  0  0  0  0
   -3.4397   18.4222  -33.1543 H   0  0  0  0  0  0  0  0  0  0  0  0
   -1.8610   19.6150  -32.2220 C   0  0  0  0  0  0  0  0  0  0  0  0
   -1.0824   18.8539  -32.3785 H   0  0  0  0  0  0  0  0  0  0  0  0
   -1.5290   20.8420  -31.5810 C   0  0  0  0  0  0  0  0  0  0  0  0
   -0.2250   21.1410  -31.1550 O   0  0  0  0  0  0  0  0  0  0  0  0
    0.4950   20.4250  -30.1530 C   0  0  0  0  0  0  0  0  0  0  0  0
    0.8102   19.4527  -30.5595 H   0  0  0  0  0  0  0  0  0  0  0  0
    1.3739   21.0164  -29.8569 H   0  0  0  0  0  0  0  0  0  0  0  0
   -0.3690   20.1980  -28.9400 C   0  0  0  0  0  0  0  0  0  0  0  0
   -1.0610   21.2740  -28.3580 C   0  0  0  0  0  0  0  0  0  0  0  0
   -0.9728   22.2811  -28.7916 H   0  0  0  0  0  0  0  0  0  0  0  0
   -1.8610   21.0690  -27.2300 C   0  0  0  0  0  0  0  0  0  0  0  0
   -2.3950   21.9156  -26.7739 H   0  0  0  0  0  0  0  0  0  0  0  0
   -1.9830   19.7890  -26.6810 C   0  0  0  0  0  0  0  0  0  0  0  0
   -2.6117   19.6293  -25.7926 H   0  0  0  0  0  0  0  0  0  0  0  0
   -1.3060   18.7120  -27.2610 C   0  0  0  0  0  0  0  0  0  0  0  0
   -1.4043   17.7050  -26.8295 H   0  0  0  0  0  0  0  0  0  0  0  0
   -0.5040   18.9130  -28.3890 C   0  0  0  0  0  0  0  0  0  0  0  0
    0.0226   18.0623  -28.8461 H   0  0  0  0  0  0  0  0  0  0  0  0
   -2.5320   21.8070  -31.3660 C   0  0  0  0  0  0  0  0  0  0  0  0
   -2.3034   22.7559  -30.8587 H   0  0  0  0  0  0  0  0  0  0  0  0
   -3.8240   21.5270  -31.8140 C   0  0  0  0  0  0  0  0  0  0  0  0
   -4.6320   23.2830  -28.8810 C   0  0  0  0  0  0  0  0  0  0  0  0
   -5.5247   22.6404  -28.8640 H   0  0  0  0  0  0  0  0  0  0  0  0
   -3.8980   23.5020  -27.7140 C   0  0  0  0  0  0  0  0  0  0  0  0
   -4.2094   23.0281  -26.7714 H   0  0  0  0  0  0  0  0  0  0  0  0
   -2.7680   24.3230  -27.7430 C   0  0  0  0  0  0  0  0  0  0  0  0
   -2.1850   24.5002  -26.8272 H   0  0  0  0  0  0  0  0  0  0  0  0
  1  2  1  0
  2  3  2  0
  3  4  1  0
  4  5  1  0
  5  6  1  0
  6  7  1  0
  6  8  1  0
  6  9  1  0
  9 10  1  0
 10 11  1  0
 11 12  1  0
 11 13  1  0
 11 14  1  0
 14 15  1  0
 15 16  1  0
 15 17  1  0
 15 18  1  0
 14 19  1  0
 19 20  1  0
 19 21  1  0
 19 22  1  0
 14 23  1  0
 23 24  1  0
 23 25  1  0
 23 26  1  0
 10 27  2  0
 27 28  1  0
 28 29  2  0
 29 30  1  0
 29 31  1  0
 31 32  1  0
 31 33  2  0
 33 34  1  0
 34 35  1  0
 35 36  1  0
 35 37  1  0
 35 38  1  0
 38 39  2  0
 39 40  1  0
 39 41  1  0
 41 42  1  0
 41 43  2  0
 43 44  1  0
 43 45  1  0
 45 46  1  0
 45 47  2  0
 47 48  1  0
 33 49  1  0
 49 50  1  0
 49 51  2  0
  5 52  2  0
 52 53  1  0
 52 54  1  0
 54 55  1  0
 54 56  2  0
 56 57  1  0
 56  3  1  0
 51  9  1  0
 51 28  1  0
 47 38  1  0
M  CHG  1   4  -1
M  END
>  <UniqueID>  (36) 
35

>  <SMILES>  (36) 
[H]/N=c1/cccc(Cn2c(CC(C)(C)C)nc3ccc(OCc4ccccc4)cc32)[n-]1

>  <Energy>  (36) 
90.76336216747659

>  <Genealogy>  (36) 
CC(C)(C)Cc1nc2ccc(OCc3ccccc3)cc2n1Cc1cccc(=N)[n-]1 (protonated)
[H]/N=c1/cccc(Cn2c(CC(C)(C)C)nc3ccc(OCc4ccccc4)cc32)[n-]1 (cis-trans isomerization)
[H]/N=c1/cccc(Cn2c(CC(C)(C)C)nc3ccc(OCc4ccccc4)cc32)[n-]1 (3D coordinates assigned)
[H]/N=c1/cccc(Cn2c(CC(C)(C)C)nc3ccc(OCc4ccccc4)cc32)[n-]1 (optimized conformer: 90.76336216747659 kcal/mol)

>  <smiles>  (36) 
CC(C)(C)Cc1nc2ccc(OCc3ccccc3)cc2n1Cc1cccc(=N)[nH]1

>  <score_type>  (36) 
oracle

>  <origin>  (36) 
adgpu

>  <m_score__min__energy>  (36) 
-11

>  <m_primary>  (36) 
energy

$$$$
36:0
     RDKit          3D

 19 20  0  0  0  0  0  0  0  0999 V2000
   -6.9160   18.9020  -33.3080 F   0  0  0  0  0  0  0  0  0  0  0  0
   -7.4800   19.9900  -32.7240 C   0  0  0  0  0  0  0  0  0  0  0  0
   -8.8650   20.0550  -32.5660 C   0  0  0  0  0  0  0  0  0  0  0  0
   -9.4460   21.1720  -31.9620 C   0  0  0  0  0  0  0  0  0  0  0  0
   -8.6430   22.2250  -31.5130 C   0  0  0  0  0  0  0  0  0  0  0  0
   -7.2450   22.1730  -31.6680 C   0  0  0  0  0  0  0  0  0  0  0  0
   -6.4140   23.2580  -31.2060 N   0  0  0  0  0  0  0  0  0  0  0  0
   -6.7930   24.3220  -30.4730 C   0  0  0  0  0  0  0  0  0  0  0  0
   -5.6870   25.1100  -30.2550 C   0  0  0  0  0  0  0  0  0  0  0  0
   -4.6120   24.5520  -30.8470 N   0  0  0  0  0  0  0  0  0  0  0  0
   -5.0900   23.4250  -31.4150 C   0  0  0  0  0  0  0  0  0  0  0  0
   -6.6720   21.0410  -32.2790 C   0  0  0  0  0  0  0  0  0  0  0  0
   -9.4985   19.2271  -32.9169 H   0  0  0  0  0  0  0  0  0  0  0  0
  -10.5379   21.2236  -31.8392 H   0  0  0  0  0  0  0  0  0  0  0  0
   -9.1072   23.1003  -31.0352 H   0  0  0  0  0  0  0  0  0  0  0  0
   -7.8115   24.5259  -30.1110 H   0  0  0  0  0  0  0  0  0  0  0  0
   -5.6806   26.0509  -29.6852 H   0  0  0  0  0  0  0  0  0  0  0  0
   -4.4690   22.7192  -31.9861 H   0  0  0  0  0  0  0  0  0  0  0  0
   -5.5810   20.9831  -32.4071 H   0  0  0  0  0  0  0  0  0  0  0  0
  1  2  1  0
  2  3  2  0
  3  4  1  0
  4  5  2  0
  5  6  1  0
  6  7  1  0
  7  8  1  0
  8  9  2  0
  9 10  1  0
 10 11  2  0
  6 12  2  0
 12  2  1  0
 11  7  1  0
  3 13  1  0
  4 14  1  0
  5 15  1  0
  8 16  1  0
  9 17  1  0
 11 18  1  0
 12 19  1  0
M  END
>  <UniqueID>  (37) 
36

>  <SMILES>  (37) 
Fc1cccc(-n2ccnc2)c1

>  <Energy>  (37) 
52.24723668018246

>  <Genealogy>  (37) 
Fc1cccc(-n2ccnc2)c1 (3D coordinates assigned)
Fc1cccc(-n2ccnc2)c1 (optimized conformer: 52.24723668018246 kcal/mol)

>  <smiles>  (37) 
Fc1cccc(-n2ccnc2)c1

>  <score_type>  (37) 
oracle

>  <origin>  (37) 
adgpu

>  <m_score__min__energy>  (37) 
-5.46

>  <m_primary>  (37) 
energy

$$$$
37:0
     RDKit          3D

 34 36  0  0  0  0  0  0  0  0999 V2000
   -6.3888   19.2481  -33.7628 H   0  0  0  0  0  0  0  0  0  0  0  0
   -6.9890   19.9020  -33.1130 C   0  0  0  0  0  0  0  0  0  0  0  0
   -8.3280   19.7000  -32.9990 N   0  0  0  0  0  0  0  0  0  0  0  0
   -9.1020   20.4890  -32.2090 C   0  0  0  0  0  0  0  0  0  0  0  0
  -10.1837   20.3022  -32.1380 H   0  0  0  0  0  0  0  0  0  0  0  0
   -8.5260   21.5380  -31.4860 C   0  0  0  0  0  0  0  0  0  0  0  0
   -9.1544   22.1810  -30.8522 H   0  0  0  0  0  0  0  0  0  0  0  0
   -7.1420   21.7690  -31.5710 C   0  0  0  0  0  0  0  0  0  0  0  0
   -6.5300   22.8880  -30.8100 C   0  0  0  0  0  0  0  0  0  0  0  0
   -5.4000   22.6620  -30.0850 N   0  0  0  0  0  0  0  0  0  0  0  0
   -4.7860   23.6470  -29.3780 C   0  0  0  0  0  0  0  0  0  0  0  0
   -3.7150   23.3490  -28.6980 N   0  0  0  0  0  0  0  0  0  0  0  0
   -2.8660   24.2520  -27.9740 C   0  0  0  0  0  0  0  0  0  0  0  0
   -1.7100   24.7440  -28.5920 C   0  0  0  0  0  0  0  0  0  0  0  0
   -1.4406   24.4009  -29.6018 H   0  0  0  0  0  0  0  0  0  0  0  0
   -0.8960   25.6700  -27.9310 C   0  0  0  0  0  0  0  0  0  0  0  0
    0.0156   26.0446  -28.4196 H   0  0  0  0  0  0  0  0  0  0  0  0
   -1.2370   26.1230  -26.6480 C   0  0  0  0  0  0  0  0  0  0  0  0
   -0.3860   27.1470  -25.9560 C   0  0  0  0  0  0  0  0  0  0  0  0
   -0.4837   27.0294  -24.8667 H   0  0  0  0  0  0  0  0  0  0  0  0
    0.6655   27.0071  -26.2470 H   0  0  0  0  0  0  0  0  0  0  0  0
   -0.7160   28.1552  -26.2470 H   0  0  0  0  0  0  0  0  0  0  0  0
   -2.4240   25.6710  -26.0510 C   0  0  0  0  0  0  0  0  0  0  0  0
   -2.7157   26.0462  -25.0590 H   0  0  0  0  0  0  0  0  0  0  0  0
   -3.2370   24.7460  -26.7120 C   0  0  0  0  0  0  0  0  0  0  0  0
   -4.1709   24.4034  -26.2424 H   0  0  0  0  0  0  0  0  0  0  0  0
   -5.3290   24.9030  -29.3670 N   0  0  0  0  0  0  0  0  0  0  0  0
   -4.9250   25.6710  -28.7880 H   0  0  0  0  0  0  0  0  0  0  0  0
   -6.4480   25.1800  -30.0860 C   0  0  0  0  0  0  0  0  0  0  0  0
   -6.8646   26.1980  -30.0794 H   0  0  0  0  0  0  0  0  0  0  0  0
   -7.0700   24.1820  -30.8310 C   0  0  0  0  0  0  0  0  0  0  0  0
   -7.9686   24.4044  -31.4252 H   0  0  0  0  0  0  0  0  0  0  0  0
   -6.3730   20.9380  -32.4070 C   0  0  0  0  0  0  0  0  0  0  0  0
   -5.2899   21.1039  -32.5042 H   0  0  0  0  0  0  0  0  0  0  0  0
  1  2  1  0
  2  3  2  0
  3  4  1  0
  4  5  1  0
  4  6  2  0
  6  7  1  0
  6  8  1  0
  8  9  1  0
  9 10  2  0
 10 11  1  0
 11 12  2  0
 12 13  1  0
 13 14  2  0
 14 15  1  0
 14 16  1  0
 16 17  1  0
 16 18  2  0
 18 19  1  0
 19 20  1  0
 19 21  1  0
 19 22  1  0
 18 23  1  0
 23 24  1  0
 23 25  2  0
 25 26  1  0
 11 27  1  0
 27 28  1  0
 27 29  1  0
 29 30  1  0
 29 31  2  0
 31 32  1  0
  8 33  2  0
 33 34  1  0
 33  2  1  0
 31  9  1  0
 25 13  1  0
M  END
>  <UniqueID>  (38) 
37

>  <SMILES>  (38) 
Cc1ccc(/N=c2/nc(-c3ccncc3)cc[nH]2)cc1

>  <Energy>  (38) 
50.00710407791769

>  <Genealogy>  (38) 
Cc1ccc(/N=c2/nc(-c3ccncc3)cc[nH]2)cc1 (cis-trans isomerization)
Cc1ccc(/N=c2/nc(-c3ccncc3)cc[nH]2)cc1 (3D coordinates assigned)
Cc1ccc(/N=c2/nc(-c3ccncc3)cc[nH]2)cc1 (optimized conformer: 50.00710407791769 kcal/mol)

>  <smiles>  (38) 
Cc1ccc(N=c2nc(-c3ccncc3)cc[nH]2)cc1

>  <score_type>  (38) 
oracle

>  <origin>  (38) 
adgpu

>  <m_score__min__energy>  (38) 
-7.4400000000000004

>  <m_primary>  (38) 
energy

$$$$
38:0
     RDKit          3D

 33 35  0  0  0  0  0  0  0  0999 V2000
   -5.8240   18.0220  -33.9670 Cl  0  0  0  0  0  0  0  0  0  0  0  0
   -6.8140   19.1840  -33.1030 C   0  0  0  0  0  0  0  0  0  0  0  0
   -8.0040   18.7730  -32.4960 C   0  0  0  0  0  0  0  0  0  0  0  0
   -8.7920   19.6970  -31.8070 C   0  0  0  0  0  0  0  0  0  0  0  0
   -8.3930   21.0340  -31.7240 C   0  0  0  0  0  0  0  0  0  0  0  0
   -7.2020   21.4640  -32.3330 C   0  0  0  0  0  0  0  0  0  0  0  0
   -6.8240   22.8510  -32.2350 N   0  0  0  0  0  0  0  0  0  0  0  0
   -6.9830   23.6700  -31.0340 C   0  0  0  0  0  0  0  0  0  0  0  0
   -5.6530   24.1660  -30.5610 C   0  0  0  0  0  0  0  0  0  0  0  0
   -4.9660   23.7180  -29.4520 C   0  0  0  0  0  0  0  0  0  0  0  0
   -3.8130   24.4820  -29.4550 C   0  0  0  0  0  0  0  0  0  0  0  0
   -2.6920   24.4250  -28.4900 C   0  0  0  0  0  0  0  0  0  0  0  0
   -1.3870   24.1740  -28.9540 C   0  0  0  0  0  0  0  0  0  0  0  0
   -0.3170   24.1160  -28.0580 C   0  0  0  0  0  0  0  0  0  0  0  0
   -0.5340   24.3070  -26.6910 C   0  0  0  0  0  0  0  0  0  0  0  0
   -1.8240   24.5570  -26.2190 C   0  0  0  0  0  0  0  0  0  0  0  0
   -2.8990   24.6170  -27.1110 C   0  0  0  0  0  0  0  0  0  0  0  0
   -3.8590   25.3000  -30.4840 O   0  0  0  0  0  0  0  0  0  0  0  0
   -4.9510   25.1390  -31.1710 N   0  0  0  0  0  0  0  0  0  0  0  0
   -6.4110   20.5220  -33.0220 C   0  0  0  0  0  0  0  0  0  0  0  0
   -8.3198   17.7213  -32.5611 H   0  0  0  0  0  0  0  0  0  0  0  0
   -9.7280   19.3724  -31.3289 H   0  0  0  0  0  0  0  0  0  0  0  0
   -9.0170   21.7561  -31.1770 H   0  0  0  0  0  0  0  0  0  0  0  0
   -6.3780   23.3060  -33.0650 H   0  0  0  0  0  0  0  0  0  0  0  0
   -7.6294   24.5297  -31.2645 H   0  0  0  0  0  0  0  0  0  0  0  0
   -7.4375   23.0570  -30.2417 H   0  0  0  0  0  0  0  0  0  0  0  0
   -5.2642   22.9384  -28.7355 H   0  0  0  0  0  0  0  0  0  0  0  0
   -1.2087   24.0226  -30.0288 H   0  0  0  0  0  0  0  0  0  0  0  0
    0.6995   23.9194  -28.4297 H   0  0  0  0  0  0  0  0  0  0  0  0
    0.3104   24.2605  -25.9876 H   0  0  0  0  0  0  0  0  0  0  0  0
   -1.9950   24.7071  -25.1428 H   0  0  0  0  0  0  0  0  0  0  0  0
   -3.9127   24.8155  -26.7328 H   0  0  0  0  0  0  0  0  0  0  0  0
   -5.4720   20.8403  -33.4985 H   0  0  0  0  0  0  0  0  0  0  0  0
  1  2  1  0
  2  3  2  0
  3  4  1  0
  4  5  2  0
  5  6  1  0
  6  7  1  0
  7  8  1  0
  8  9  1  0
  9 10  1  0
 10 11  2  0
 11 12  1  0
 12 13  2  0
 13 14  1  0
 14 15  2  0
 15 16  1  0
 16 17  2  0
 11 18  1  0
 18 19  1  0
  6 20  2  0
 20  2  1  0
 19  9  2  0
 17 12  1  0
  3 21  1  0
  4 22  1  0
  5 23  1  0
  7 24  1  0
  8 25  1  0
  8 26  1  0
 10 27  1  0
 13 28  1  0
 14 29  1  0
 15 30  1  0
 16 31  1  0
 17 32  1  0
 20 33  1  0
M  END
>  <UniqueID>  (39) 
38

>  <SMILES>  (39) 
Clc1cccc(NCc2cc(-c3ccccc3)on2)c1

>  <Energy>  (39) 
65.15480232633355

>  <Genealogy>  (39) 
Clc1cccc(NCc2cc(-c3ccccc3)on2)c1 (3D coordinates assigned)
Clc1cccc(NCc2cc(-c3ccccc3)on2)c1 (optimized conformer: 65.15480232633355 kcal/mol)

>  <smiles>  (39) 
Clc1cccc(NCc2cc(-c3ccccc3)on2)c1

>  <score_type>  (39) 
oracle

>  <origin>  (39) 
adgpu

>  <m_score__min__energy>  (39) 
-9.5500000000000007

>  <m_primary>  (39) 
energy

$$$$
39:0
     RDKit          3D

 25 26  0  0  0  0  0  0  0  0999 V2000
  -10.2400   22.4868  -31.9183 H   0  0  0  0  0  0  0  0  0  0  0  0
   -9.3030   21.9110  -31.8950 C   0  0  0  0  0  0  0  0  0  0  0  0
   -9.3490   20.6590  -32.2560 N   0  0  0  0  0  0  0  0  0  0  0  0
   -8.2420   19.7690  -32.4690 C   0  0  0  0  0  0  0  0  0  0  0  0
   -7.2430   20.0510  -33.4190 C   0  0  0  0  0  0  0  0  0  0  0  0
   -7.2842   20.9855  -33.9978 H   0  0  0  0  0  0  0  0  0  0  0  0
   -6.1980   19.1460  -33.6290 C   0  0  0  0  0  0  0  0  0  0  0  0
   -5.4092   19.3780  -34.3597 H   0  0  0  0  0  0  0  0  0  0  0  0
   -6.1540   17.9470  -32.9120 C   0  0  0  0  0  0  0  0  0  0  0  0
   -5.3260   17.2406  -33.0714 H   0  0  0  0  0  0  0  0  0  0  0  0
   -7.1630   17.6460  -31.9920 C   0  0  0  0  0  0  0  0  0  0  0  0
   -7.1339   16.6978  -31.4351 H   0  0  0  0  0  0  0  0  0  0  0  0
   -8.2100   18.5500  -31.7790 C   0  0  0  0  0  0  0  0  0  0  0  0
   -9.0111   18.3025  -31.0669 H   0  0  0  0  0  0  0  0  0  0  0  0
   -8.0740   22.6090  -31.4560 C   0  0  0  0  0  0  0  0  0  0  0  0
   -7.6090   22.4170  -30.1460 C   0  0  0  0  0  0  0  0  0  0  0  0
   -8.1710   21.7722  -29.4544 H   0  0  0  0  0  0  0  0  0  0  0  0
   -6.4340   23.0420  -29.7160 C   0  0  0  0  0  0  0  0  0  0  0  0
   -6.0825   22.8996  -28.6835 H   0  0  0  0  0  0  0  0  0  0  0  0
   -5.7060   23.8470  -30.5960 C   0  0  0  0  0  0  0  0  0  0  0  0
   -4.7862   24.3442  -30.2542 H   0  0  0  0  0  0  0  0  0  0  0  0
   -6.1470   24.0200  -31.9100 C   0  0  0  0  0  0  0  0  0  0  0  0
   -5.5700   24.6487  -32.6042 H   0  0  0  0  0  0  0  0  0  0  0  0
   -7.3200   23.3960  -32.3450 C   0  0  0  0  0  0  0  0  0  0  0  0
   -7.6542   23.5209  -33.3855 H   0  0  0  0  0  0  0  0  0  0  0  0
  1  2  1  0
  2  3  2  0
  3  4  1  0
  4  5  2  0
  5  6  1  0
  5  7  1  0
  7  8  1  0
  7  9  2  0
  9 10  1  0
  9 11  1  0
 11 12  1  0
 11 13  2  0
 13 14  1  0
  2 15  1  0
 15 16  2  0
 16 17  1  0
 16 18  1  0
 18 19  1  0
 18 20  2  0
 20 21  1  0
 20 22  1  0
 22 23  1  0
 22 24  2  0
 24 25  1  0
 13  4  1  0
 24 15  1  0
M  END
>  <UniqueID>  (40) 
39

>  <SMILES>  (40) 
C(=N\c1ccccc1)\c1ccccc1

>  <Energy>  (40) 
36.89474910270585

>  <Genealogy>  (40) 
C(=N\c1ccccc1)\c1ccccc1 (cis-trans isomerization)
C(=N\c1ccccc1)\c1ccccc1 (3D coordinates assigned)
C(=N\c1ccccc1)\c1ccccc1 (optimized conformer: 36.89474910270585 kcal/mol)

>  <smiles>  (40) 
C(=Nc1ccccc1)c1ccccc1

>  <score_type>  (40) 
oracle

>  <origin>  (40) 
adgpu

>  <m_score__min__energy>  (40) 
-6.4000000000000004

>  <m_primary>  (40) 
energy

$$$$
40:0
     RDKit          3D

 34 35  0  0  0  0  0  0  0  0999 V2000
   -6.4830   16.9730  -34.2180 C   0  0  0  0  0  0  0  0  0  0  0  0
   -6.7820   18.2360  -33.5220 N   0  0  0  0  0  0  0  0  0  0  0  0
   -5.5450   18.9780  -33.2220 C   0  0  0  0  0  0  0  0  0  0  0  0
   -7.6570   18.0560  -32.3340 C   0  0  0  0  0  0  0  0  0  0  0  0
   -8.9130   18.9580  -32.2740 C   0  0  0  0  0  0  0  0  0  0  0  0
   -8.5870   20.3570  -31.9970 N   0  0  0  0  0  0  0  0  0  0  0  0
   -9.4470   21.3930  -31.9680 C   0  0  0  0  0  0  0  0  0  0  0  0
   -8.8510   22.5470  -31.6080 N   0  0  0  0  0  0  0  0  0  0  0  0
   -7.5600   22.2080  -31.3900 C   0  0  0  0  0  0  0  0  0  0  0  0
   -6.5190   23.1750  -30.9630 C   0  0  0  0  0  0  0  0  0  0  0  0
   -6.8630   24.4330  -30.4280 C   0  0  0  0  0  0  0  0  0  0  0  0
   -5.8660   25.3300  -30.0300 C   0  0  0  0  0  0  0  0  0  0  0  0
   -4.5190   24.9840  -30.1610 C   0  0  0  0  0  0  0  0  0  0  0  0
   -4.1660   23.7420  -30.6890 C   0  0  0  0  0  0  0  0  0  0  0  0
   -5.1570   22.8400  -31.0880 C   0  0  0  0  0  0  0  0  0  0  0  0
   -7.3990   20.8530  -31.6180 C   0  0  0  0  0  0  0  0  0  0  0  0
   -6.2957   16.1816  -33.4773 H   0  0  0  0  0  0  0  0  0  0  0  0
   -7.3390   16.6901  -34.8483 H   0  0  0  0  0  0  0  0  0  0  0  0
   -5.5910   17.1039  -34.8483 H   0  0  0  0  0  0  0  0  0  0  0  0
   -7.3270   18.8240  -34.1970 H   0  0  0  0  0  0  0  0  0  0  0  0
   -5.4182   19.0540  -32.1320 H   0  0  0  0  0  0  0  0  0  0  0  0
   -4.6846   18.4468  -33.6550 H   0  0  0  0  0  0  0  0  0  0  0  0
   -5.6086   19.9872  -33.6550 H   0  0  0  0  0  0  0  0  0  0  0  0
   -7.9936   17.0089  -32.3194 H   0  0  0  0  0  0  0  0  0  0  0  0
   -7.0435   18.3436  -31.4674 H   0  0  0  0  0  0  0  0  0  0  0  0
   -9.4336   18.9022  -33.2414 H   0  0  0  0  0  0  0  0  0  0  0  0
   -9.5463   18.5939  -31.4516 H   0  0  0  0  0  0  0  0  0  0  0  0
  -10.5164   21.3070  -32.2110 H   0  0  0  0  0  0  0  0  0  0  0  0
   -7.9221   24.7111  -30.3228 H   0  0  0  0  0  0  0  0  0  0  0  0
   -6.1432   26.3095  -29.6132 H   0  0  0  0  0  0  0  0  0  0  0  0
   -3.7366   25.6909  -29.8478 H   0  0  0  0  0  0  0  0  0  0  0  0
   -3.1048   23.4714  -30.7918 H   0  0  0  0  0  0  0  0  0  0  0  0
   -4.8708   21.8621  -31.5024 H   0  0  0  0  0  0  0  0  0  0  0  0
   -6.4641   20.2838  -31.5082 H   0  0  0  0  0  0  0  0  0  0  0  0
  1  2  1  0
  2  3  1  0
  2  4  1  0
  4  5  1  0
  5  6  1  0
  6  7  1  0
  7  8  2  0
  8  9  1  0
  9 10  1  0
 10 11  2  0
 11 12  1  0
 12 13  2  0
 13 14  1  0
 14 15  2  0
  9 16  2  0
 16  6  1  0
 15 10  1  0
  1 17  1  0
  1 18  1  0
  1 19  1  0
  2 20  1  0
  3 21  1  0
  3 22  1  0
  3 23  1  0
  4 24  1  0
  4 25  1  0
  5 26  1  0
  5 27  1  0
  7 28  1  0
 11 29  1  0
 12 30  1  0
 13 31  1  0
 14 32  1  0
 15 33  1  0
 16 34  1  0
M  CHG  1   2   1
M  END
>  <UniqueID>  (41) 
40

>  <SMILES>  (41) 
C[NH+](C)CCn1cnc(-c2ccccc2)c1

>  <Energy>  (41) 
66.8389769479779

>  <Genealogy>  (41) 
C[NH+](C)CCn1cnc(-c2ccccc2)c1 (protonated)
C[NH+](C)CCn1cnc(-c2ccccc2)c1 (3D coordinates assigned)
C[NH+](C)CCn1cnc(-c2ccccc2)c1 (optimized conformer: 66.8389769479779 kcal/mol)

>  <smiles>  (41) 
CN(C)CCn1cnc(-c2ccccc2)c1

>  <score_type>  (41) 
oracle

>  <origin>  (41) 
adgpu

>  <m_score__min__energy>  (41) 
-5.5899999999999999

>  <m_primary>  (41) 
energy

$$$$
41:0
     RDKit          3D

 36 37  0  0  0  0  0  0  0  0999 V2000
   -1.8880   23.7370  -29.3240 C   0  0  0  0  0  0  0  0  0  0  0  0
   -1.5740   22.5220  -29.7830 C   0  0  0  0  0  0  0  0  0  0  0  0
   -2.2210   21.9430  -31.0110 C   0  0  0  0  0  0  0  0  0  0  0  0
   -3.3540   22.7730  -31.4250 N   0  0  0  0  0  0  0  0  0  0  0  0
   -4.7330   22.3490  -31.3480 C   0  0  0  0  0  0  0  0  0  0  0  0
   -5.1170   21.0890  -31.8450 C   0  0  0  0  0  0  0  0  0  0  0  0
   -6.4550   20.6630  -31.8000 C   0  0  0  0  0  0  0  0  0  0  0  0
   -6.8380   19.3240  -32.3180 C   0  0  0  0  0  0  0  0  0  0  0  0
   -7.9850   18.6060  -32.0150 C   0  0  0  0  0  0  0  0  0  0  0  0
   -7.9710   17.4600  -32.6550 O   0  0  0  0  0  0  0  0  0  0  0  0
   -6.8700   17.3900  -33.3660 C   0  0  0  0  0  0  0  0  0  0  0  0
   -6.4930   16.2210  -34.2120 C   0  0  0  0  0  0  0  0  0  0  0  0
   -6.1160   18.5320  -33.1940 C   0  0  0  0  0  0  0  0  0  0  0  0
   -7.4210   21.5250  -31.2620 C   0  0  0  0  0  0  0  0  0  0  0  0
   -7.0580   22.7770  -30.7680 C   0  0  0  0  0  0  0  0  0  0  0  0
   -5.7200   23.1980  -30.7930 C   0  0  0  0  0  0  0  0  0  0  0  0
   -5.3090   24.7720  -30.0930 S   0  0  0  0  0  0  0  0  0  0  0  0
   -4.8760   24.6060  -28.4260 N   0  0  0  0  0  0  0  0  0  0  0  0
   -4.1420   25.3640  -30.8330 O   0  0  0  0  0  0  0  0  0  0  0  0
   -6.4930   25.6900  -30.2010 O   0  0  0  0  0  0  0  0  0  0  0  0
   -1.3944   24.1288  -28.4224 H   0  0  0  0  0  0  0  0  0  0  0  0
   -2.6400   24.3454  -29.8477 H   0  0  0  0  0  0  0  0  0  0  0  0
   -0.8197   21.9275  -29.2466 H   0  0  0  0  0  0  0  0  0  0  0  0
   -1.4831   21.9029  -31.8258 H   0  0  0  0  0  0  0  0  0  0  0  0
   -2.5832   20.9299  -30.7820 H   0  0  0  0  0  0  0  0  0  0  0  0
   -3.1300   23.7340  -31.7620 H   0  0  0  0  0  0  0  0  0  0  0  0
   -4.3541   20.4248  -32.2772 H   0  0  0  0  0  0  0  0  0  0  0  0
   -8.7851   18.9453  -31.3407 H   0  0  0  0  0  0  0  0  0  0  0  0
   -6.2198   15.3737  -33.5659 H   0  0  0  0  0  0  0  0  0  0  0  0
   -7.3454   15.9379  -34.8470 H   0  0  0  0  0  0  0  0  0  0  0  0
   -5.6358   16.4892  -34.8470 H   0  0  0  0  0  0  0  0  0  0  0  0
   -5.1451   18.7645  -33.6558 H   0  0  0  0  0  0  0  0  0  0  0  0
   -8.4746   21.2106  -31.2294 H   0  0  0  0  0  0  0  0  0  0  0  0
   -7.8297   23.4426  -30.3538 H   0  0  0  0  0  0  0  0  0  0  0  0
   -5.6880   24.1630  -27.9420 H   0  0  0  0  0  0  0  0  0  0  0  0
   -4.7830   25.5710  -28.0360 H   0  0  0  0  0  0  0  0  0  0  0  0
  1  2  2  0
  2  3  1  0
  3  4  1  0
  4  5  1  0
  5  6  2  0
  6  7  1  0
  7  8  1  0
  8  9  2  0
  9 10  1  0
 10 11  1  0
 11 12  1  0
 11 13  2  0
  7 14  2  0
 14 15  1  0
 15 16  2  0
 16 17  1  0
 17 18  1  0
 17 19  2  0
 17 20  2  0
 16  5  1  0
 13  8  1  0
  1 21  1  0
  1 22  1  0
  2 23  1  0
  3 24  1  0
  3 25  1  0
  4 26  1  0
  6 27  1  0
  9 28  1  0
 12 29  1  0
 12 30  1  0
 12 31  1  0
 13 32  1  0
 14 33  1  0
 15 34  1  0
 18 35  1  0
 18 36  1  0
M  END
>  <UniqueID>  (42) 
41

>  <SMILES>  (42) 
C=CCNc1cc(-c2coc(C)c2)ccc1S(N)(=O)=O

>  <Energy>  (42) 
62.16568956753276

>  <Genealogy>  (42) 
C=CCNc1cc(-c2coc(C)c2)ccc1S(N)(=O)=O (3D coordinates assigned)
C=CCNc1cc(-c2coc(C)c2)ccc1S(N)(=O)=O (optimized conformer: 62.16568956753276 kcal/mol)

>  <smiles>  (42) 
C=CCNc1cc(-c2coc(C)c2)ccc1S(N)(=O)=O

>  <score_type>  (42) 
oracle

>  <origin>  (42) 
adgpu

>  <m_score__min__energy>  (42) 
-8.3599999999999994

>  <m_primary>  (42) 
energy

$$$$
42:0
     RDKit          3D

 30 31  0  0  0  0  0  0  0  0999 V2000
   -9.3630   19.3100  -32.3470 C   0  0  0  0  0  0  0  0  0  0  0  0
   -8.5860   20.3630  -32.9100 O   0  0  0  0  0  0  0  0  0  0  0  0
   -7.1830   20.3680  -32.9800 C   0  0  0  0  0  0  0  0  0  0  0  0
   -6.4690   19.3530  -33.6470 C   0  0  0  0  0  0  0  0  0  0  0  0
   -5.0740   19.3870  -33.6990 C   0  0  0  0  0  0  0  0  0  0  0  0
   -4.3760   20.4310  -33.0900 C   0  0  0  0  0  0  0  0  0  0  0  0
   -2.6230   20.4700  -33.1570 Cl  0  0  0  0  0  0  0  0  0  0  0  0
   -5.0730   21.4440  -32.4260 C   0  0  0  0  0  0  0  0  0  0  0  0
   -6.4740   21.4200  -32.3670 C   0  0  0  0  0  0  0  0  0  0  0  0
   -7.3460   22.7040  -31.5270 S   0  0  0  0  0  0  0  0  0  0  0  0
   -8.6510   22.9510  -32.2310 O   0  0  0  0  0  0  0  0  0  0  0  0
   -7.5970   22.2770  -30.1080 O   0  0  0  0  0  0  0  0  0  0  0  0
   -6.4100   24.1660  -31.5270 N   0  0  0  0  0  0  0  0  0  0  0  0
   -5.3100   24.3300  -30.8570 C   0  0  0  0  0  0  0  0  0  0  0  0
   -4.6840   23.4030  -30.0410 C   0  0  0  0  0  0  0  0  0  0  0  0
   -3.5720   24.0900  -29.5880 C   0  0  0  0  0  0  0  0  0  0  0  0
   -2.5200   23.5550  -28.6770 C   0  0  0  0  0  0  0  0  0  0  0  0
   -3.5640   25.2990  -30.1060 O   0  0  0  0  0  0  0  0  0  0  0  0
   -4.6000   25.4700  -30.8720 N   0  0  0  0  0  0  0  0  0  0  0  0
   -9.3196   19.3688  -31.2494 H   0  0  0  0  0  0  0  0  0  0  0  0
  -10.4074   19.4074  -32.6784 H   0  0  0  0  0  0  0  0  0  0  0  0
   -8.9620   18.3408  -32.6784 H   0  0  0  0  0  0  0  0  0  0  0  0
   -7.0139   18.5285  -34.1299 H   0  0  0  0  0  0  0  0  0  0  0  0
   -4.5243   18.5897  -34.2208 H   0  0  0  0  0  0  0  0  0  0  0  0
   -4.5195   22.2650  -31.9468 H   0  0  0  0  0  0  0  0  0  0  0  0
   -4.9945   22.3734  -29.8098 H   0  0  0  0  0  0  0  0  0  0  0  0
   -2.8261   23.7107  -27.6320 H   0  0  0  0  0  0  0  0  0  0  0  0
   -2.3860   22.4792  -28.8634 H   0  0  0  0  0  0  0  0  0  0  0  0
   -1.5717   24.0804  -28.8634 H   0  0  0  0  0  0  0  0  0  0  0  0
   -4.8210   26.3450  -31.3990 H   0  0  0  0  0  0  0  0  0  0  0  0
  1  2  1  0
  2  3  1  0
  3  4  2  0
  4  5  1  0
  5  6  2  0
  6  7  1  0
  6  8  1  0
  8  9  2  0
  9 10  1  0
 10 11  2  0
 10 12  2  0
 10 13  1  0
 13 14  2  3
 14 15  1  0
 15 16  2  0
 16 17  1  0
 16 18  1  0
 18 19  1  0
  9  3  1  0
 19 14  1  0
  1 20  1  0
  1 21  1  0
  1 22  1  0
  4 23  1  0
  5 24  1  0
  8 25  1  0
 15 26  1  0
 17 27  1  0
 17 28  1  0
 17 29  1  0
 19 30  1  0
M  END
>  <UniqueID>  (43) 
42

>  <SMILES>  (43) 
COc1ccc(Cl)cc1S(=O)(=O)N=c1cc(C)o[nH]1

>  <Energy>  (43) 
64.93962839529823

>  <Genealogy>  (43) 
COc1ccc(Cl)cc1S(=O)(=O)N=c1cc(C)o[nH]1 (3D coordinates assigned)
COc1ccc(Cl)cc1S(=O)(=O)N=c1cc(C)o[nH]1 (optimized conformer: 64.93962839529823 kcal/mol)

>  <smiles>  (43) 
COc1ccc(Cl)cc1S(=O)(=O)N=c1cc(C)o[nH]1

>  <score_type>  (43) 
oracle

>  <origin>  (43) 
adgpu

>  <m_score__min__energy>  (43) 
-8.2200000000000006

>  <m_primary>  (43) 
energy

$$$$
43:0
     RDKit          3D

 26 27  0  0  0  0  0  0  0  0999 V2000
   -6.1877   21.7284  -33.4024 H   0  0  0  0  0  0  0  0  0  0  0  0
   -6.2410   20.9490  -32.6280 C   0  0  0  0  0  0  0  0  0  0  0  0
   -6.2310   21.3460  -31.3430 C   0  0  0  0  0  0  0  0  0  0  0  0
   -6.2859   20.5669  -30.5684 H   0  0  0  0  0  0  0  0  0  0  0  0
   -6.1510   22.7630  -30.8920 C   0  0  0  0  0  0  0  0  0  0  0  0
   -7.2740   23.5150  -30.4760 C   0  0  0  0  0  0  0  0  0  0  0  0
   -8.2718   23.0521  -30.4765 H   0  0  0  0  0  0  0  0  0  0  0  0
   -7.1250   24.8430  -30.0640 C   0  0  0  0  0  0  0  0  0  0  0  0
   -8.0054   25.4187  -29.7425 H   0  0  0  0  0  0  0  0  0  0  0  0
   -5.8640   25.4410  -30.0590 C   0  0  0  0  0  0  0  0  0  0  0  0
   -5.7514   26.4858  -29.7338 H   0  0  0  0  0  0  0  0  0  0  0  0
   -4.7460   24.7120  -30.4670 C   0  0  0  0  0  0  0  0  0  0  0  0
   -3.4900   25.3080  -30.4610 O   0  0  0  0  0  0  0  0  0  0  0  0
   -4.8870   23.3840  -30.8800 C   0  0  0  0  0  0  0  0  0  0  0  0
   -4.0000   22.8172  -31.1995 H   0  0  0  0  0  0  0  0  0  0  0  0
   -6.3190   19.5310  -33.0800 C   0  0  0  0  0  0  0  0  0  0  0  0
   -7.1060   18.6390  -32.3260 C   0  0  0  0  0  0  0  0  0  0  0  0
   -7.6372   19.0034  -31.4344 H   0  0  0  0  0  0  0  0  0  0  0  0
   -7.2200   17.2970  -32.6970 C   0  0  0  0  0  0  0  0  0  0  0  0
   -7.8382   16.6128  -32.0972 H   0  0  0  0  0  0  0  0  0  0  0  0
   -6.5520   16.8220  -33.8260 C   0  0  0  0  0  0  0  0  0  0  0  0
   -6.6660   15.4870  -34.1940 O   0  0  0  0  0  0  0  0  0  0  0  0
   -5.7660   17.6910  -34.5860 C   0  0  0  0  0  0  0  0  0  0  0  0
   -5.2377   17.3162  -35.4751 H   0  0  0  0  0  0  0  0  0  0  0  0
   -5.6480   19.0360  -34.2210 C   0  0  0  0  0  0  0  0  0  0  0  0
   -5.0283   19.7136  -34.8266 H   0  0  0  0  0  0  0  0  0  0  0  0
  1  2  1  0
  2  3  2  0
  3  4  1  0
  3  5  1  0
  5  6  2  0
  6  7  1  0
  6  8  1  0
  8  9  1  0
  8 10  2  0
 10 11  1  0
 10 12  1  0
 12 13  1  0
 12 14  2  0
 14 15  1  0
  2 16  1  0
 16 17  2  0
 17 18  1  0
 17 19  1  0
 19 20  1  0
 19 21  2  0
 21 22  1  0
 21 23  1  0
 23 24  1  0
 23 25  2  0
 25 26  1  0
 14  5  1  0
 25 16  1  0
M  CHG  2  13  -1  22  -1
M  END
>  <UniqueID>  (44) 
43

>  <SMILES>  (44) 
[O-]c1ccc(/C=C/c2cccc([O-])c2)cc1

>  <Energy>  (44) 
32.63353301540141

>  <Genealogy>  (44) 
[O-]c1ccc(C=Cc2cccc([O-])c2)cc1 (protonated)
[O-]c1ccc(/C=C/c2cccc([O-])c2)cc1 (cis-trans isomerization)
[O-]c1ccc(/C=C/c2cccc([O-])c2)cc1 (3D coordinates assigned)
[O-]c1ccc(/C=C/c2cccc([O-])c2)cc1 (optimized conformer: 32.63353301540141 kcal/mol)

>  <smiles>  (44) 
Oc1ccc(C=Cc2cccc(O)c2)cc1

>  <score_type>  (44) 
oracle

>  <origin>  (44) 
adgpu

>  <m_score__min__energy>  (44) 
-10.19

>  <m_primary>  (44) 
energy

$$$$
44:0
     RDKit          3D

 30 32  0  0  0  0  0  0  0  0999 V2000
   -9.4820   20.8730  -31.9570 C   0  0  0  0  0  0  0  0  0  0  0  0
   -9.0050   22.1400  -31.6100 C   0  0  0  0  0  0  0  0  0  0  0  0
   -7.6430   22.4340  -31.7290 C   0  0  0  0  0  0  0  0  0  0  0  0
   -6.7470   21.4550  -32.1880 C   0  0  0  0  0  0  0  0  0  0  0  0
   -5.2900   21.7810  -32.3580 C   0  0  0  0  0  0  0  0  0  0  0  0
   -4.9350   22.9040  -31.5000 N   0  0  0  0  0  0  0  0  0  0  0  0
   -5.1850   24.1690  -31.7860 N   0  0  0  0  0  0  0  0  0  0  0  0
   -4.6720   24.9320  -30.8340 N   0  0  0  0  0  0  0  0  0  0  0  0
   -4.0960   24.0710  -29.9680 C   0  0  0  0  0  0  0  0  0  0  0  0
   -3.3820   24.4750  -28.7400 C   0  0  0  0  0  0  0  0  0  0  0  0
   -4.0570   24.5300  -27.5070 C   0  0  0  0  0  0  0  0  0  0  0  0
   -3.3780   24.9130  -26.3450 C   0  0  0  0  0  0  0  0  0  0  0  0
   -2.0220   25.2440  -26.4030 C   0  0  0  0  0  0  0  0  0  0  0  0
   -1.3420   25.1910  -27.6230 C   0  0  0  0  0  0  0  0  0  0  0  0
   -2.0160   24.8100  -28.7860 C   0  0  0  0  0  0  0  0  0  0  0  0
   -4.2460   22.7960  -30.3770 N   0  0  0  0  0  0  0  0  0  0  0  0
   -7.2360   20.1880  -32.5500 C   0  0  0  0  0  0  0  0  0  0  0  0
   -8.5980   19.8990  -32.4280 C   0  0  0  0  0  0  0  0  0  0  0  0
  -10.5532   20.6427  -31.8593 H   0  0  0  0  0  0  0  0  0  0  0  0
   -9.7022   22.9074  -31.2426 H   0  0  0  0  0  0  0  0  0  0  0  0
   -7.2725   23.4348  -31.4623 H   0  0  0  0  0  0  0  0  0  0  0  0
   -4.6846   20.9048  -32.0827 H   0  0  0  0  0  0  0  0  0  0  0  0
   -5.0964   22.0486  -33.4073 H   0  0  0  0  0  0  0  0  0  0  0  0
   -5.1247   24.2704  -27.4560 H   0  0  0  0  0  0  0  0  0  0  0  0
   -3.9127   24.9535  -25.3845 H   0  0  0  0  0  0  0  0  0  0  0  0
   -1.4897   25.5462  -25.4890 H   0  0  0  0  0  0  0  0  0  0  0  0
   -0.2738   25.4498  -27.6676 H   0  0  0  0  0  0  0  0  0  0  0  0
   -1.4756   24.7717  -29.7434 H   0  0  0  0  0  0  0  0  0  0  0  0
   -6.5447   19.4216  -32.9305 H   0  0  0  0  0  0  0  0  0  0  0  0
   -8.9746   18.9028  -32.7033 H   0  0  0  0  0  0  0  0  0  0  0  0
  1  2  2  0
  2  3  1  0
  3  4  2  0
  4  5  1  0
  5  6  1  0
  6  7  1  0
  7  8  2  0
  8  9  1  0
  9 10  1  0
 10 11  2  0
 11 12  1  0
 12 13  2  0
 13 14  1  0
 14 15  2  0
  9 16  2  0
  4 17  1  0
 17 18  2  0
 18  1  1  0
 16  6  1  0
 15 10  1  0
  1 19  1  0
  2 20  1  0
  3 21  1  0
  5 22  1  0
  5 23  1  0
 11 24  1  0
 12 25  1  0
 13 26  1  0
 14 27  1  0
 15 28  1  0
 17 29  1  0
 18 30  1  0
M  END
>  <UniqueID>  (45) 
44

>  <SMILES>  (45) 
c1ccc(Cn2nnc(-c3ccccc3)n2)cc1

>  <Energy>  (45) 
69.78842168481869

>  <Genealogy>  (45) 
c1ccc(Cn2nnc(-c3ccccc3)n2)cc1 (3D coordinates assigned)
c1ccc(Cn2nnc(-c3ccccc3)n2)cc1 (optimized conformer: 69.78842168481869 kcal/mol)

>  <smiles>  (45) 
c1ccc(Cn2nnc(-c3ccccc3)n2)cc1

>  <score_type>  (45) 
oracle

>  <origin>  (45) 
adgpu

>  <m_score__min__energy>  (45) 
-7.75

>  <m_primary>  (45) 
energy

$$$$
45:0
     RDKit          3D

 22 23  0  0  0  0  0  0  0  0999 V2000
   -4.1340   26.1610  -29.8880 H   0  0  0  0  0  0  0  0  0  0  0  0
   -3.8530   25.2950  -30.4030 N   0  0  0  0  0  0  0  0  0  0  0  0
   -4.7160   24.4310  -30.8350 C   0  0  0  0  0  0  0  0  0  0  0  0
   -4.2810   23.3270  -31.4970 N   0  0  0  0  0  0  0  0  0  0  0  0
   -5.1400   22.3860  -31.9730 C   0  0  0  0  0  0  0  0  0  0  0  0
   -4.6420   21.2680  -32.6480 C   0  0  0  0  0  0  0  0  0  0  0  0
   -3.5578   21.1521  -32.7934 H   0  0  0  0  0  0  0  0  0  0  0  0
   -5.5170   20.3000  -33.1370 C   0  0  0  0  0  0  0  0  0  0  0  0
   -5.1204   19.4212  -33.6666 H   0  0  0  0  0  0  0  0  0  0  0  0
   -6.8960   20.4400  -32.9580 C   0  0  0  0  0  0  0  0  0  0  0  0
   -7.5775   19.6701  -33.3489 H   0  0  0  0  0  0  0  0  0  0  0  0
   -7.4210   21.5590  -32.2810 C   0  0  0  0  0  0  0  0  0  0  0  0
   -8.8040   21.7230  -32.0870 O   0  0  0  0  0  0  0  0  0  0  0  0
   -9.4790   21.5060  -30.8520 C   0  0  0  0  0  0  0  0  0  0  0  0
   -8.7965   21.7254  -30.0177 H   0  0  0  0  0  0  0  0  0  0  0  0
  -10.3558   22.1675  -30.7922 H   0  0  0  0  0  0  0  0  0  0  0  0
   -9.8060   20.4574  -30.7922 H   0  0  0  0  0  0  0  0  0  0  0  0
   -6.5350   22.5380  -31.7850 C   0  0  0  0  0  0  0  0  0  0  0  0
   -6.9970   23.6740  -31.1020 C   0  0  0  0  0  0  0  0  0  0  0  0
   -8.0758   23.8173  -30.9417 H   0  0  0  0  0  0  0  0  0  0  0  0
   -6.0900   24.6220  -30.6260 C   0  0  0  0  0  0  0  0  0  0  0  0
   -6.4501   25.5129  -30.0906 H   0  0  0  0  0  0  0  0  0  0  0  0
  1  2  1  0
  2  3  2  0
  3  4  1  0
  4  5  1  0
  5  6  2  0
  6  7  1  0
  6  8  1  0
  8  9  1  0
  8 10  2  0
 10 11  1  0
 10 12  1  0
 12 13  1  0
 13 14  1  0
 14 15  1  0
 14 16  1  0
 14 17  1  0
 12 18  2  0
 18 19  1  0
 19 20  1  0
 19 21  2  0
 21 22  1  0
 21  3  1  0
 18  5  1  0
M  CHG  1   4  -1
M  END
>  <UniqueID>  (46) 
45

>  <SMILES>  (46) 
[H]/N=c1\ccc2c(OC)cccc2[n-]1

>  <Energy>  (46) 
26.25418967092094

>  <Genealogy>  (46) 
COc1cccc2[n-]c(=N)ccc12 (protonated)
[H]/N=c1\ccc2c(OC)cccc2[n-]1 (cis-trans isomerization)
[H]/N=c1\ccc2c(OC)cccc2[n-]1 (3D coordinates assigned)
[H]/N=c1\ccc2c(OC)cccc2[n-]1 (optimized conformer: 26.25418967092094 kcal/mol)

>  <smiles>  (46) 
COc1cccc2[nH]c(=N)ccc12

>  <score_type>  (46) 
oracle

>  <origin>  (46) 
adgpu

>  <m_score__min__energy>  (46) 
-7.7300000000000004

>  <m_primary>  (46) 
energy

$$$$
46:0
     RDKit          3D

 32 33  0  0  0  0  0  0  0  0999 V2000
   -8.5260   20.9650  -31.9310 C   0  0  0  0  0  0  0  0  0  0  0  0
   -8.4450   22.3410  -31.5680 O   0  0  0  0  0  0  0  0  0  0  0  0
   -7.2480   23.0090  -31.2710 C   0  0  0  0  0  0  0  0  0  0  0  0
   -7.2140   24.1810  -30.4990 C   0  0  0  0  0  0  0  0  0  0  0  0
   -6.0010   24.8200  -30.2420 C   0  0  0  0  0  0  0  0  0  0  0  0
   -4.7970   24.3220  -30.7690 C   0  0  0  0  0  0  0  0  0  0  0  0
   -3.5610   24.9860  -30.4700 N   0  0  0  0  0  0  0  0  0  0  0  0
   -2.5790   24.5540  -29.5180 C   0  0  0  0  0  0  0  0  0  0  0  0
   -1.8490   25.4190  -28.9660 O   0  0  0  0  0  0  0  0  0  0  0  0
   -2.4340   23.1310  -29.1360 C   0  0  0  0  0  0  0  0  0  0  0  0
   -3.2630   22.5700  -28.1530 C   0  0  0  0  0  0  0  0  0  0  0  0
   -3.1230   21.2250  -27.8020 C   0  0  0  0  0  0  0  0  0  0  0  0
   -2.1630   20.4450  -28.4470 C   0  0  0  0  0  0  0  0  0  0  0  0
   -1.3740   20.9940  -29.4070 N   0  0  0  0  0  0  0  0  0  0  0  0
   -1.4850   22.3030  -29.7630 C   0  0  0  0  0  0  0  0  0  0  0  0
   -4.8210   23.1250  -31.5330 C   0  0  0  0  0  0  0  0  0  0  0  0
   -3.6830   22.5200  -32.0960 O   0  0  0  0  0  0  0  0  0  0  0  0
   -3.6700   21.4570  -33.0440 C   0  0  0  0  0  0  0  0  0  0  0  0
   -6.0490   22.4860  -31.7640 C   0  0  0  0  0  0  0  0  0  0  0  0
   -8.5624   20.3474  -31.0215 H   0  0  0  0  0  0  0  0  0  0  0  0
   -9.4357   20.7956  -32.5258 H   0  0  0  0  0  0  0  0  0  0  0  0
   -7.6425   20.6901  -32.5258 H   0  0  0  0  0  0  0  0  0  0  0  0
   -8.1484   24.5975  -30.0948 H   0  0  0  0  0  0  0  0  0  0  0  0
   -5.9866   25.7260  -29.6184 H   0  0  0  0  0  0  0  0  0  0  0  0
   -4.0246   23.1902  -27.6577 H   0  0  0  0  0  0  0  0  0  0  0  0
   -3.7641   20.7850  -27.0239 H   0  0  0  0  0  0  0  0  0  0  0  0
   -2.0448   19.3849  -28.1782 H   0  0  0  0  0  0  0  0  0  0  0  0
   -0.8298   22.7154  -30.5444 H   0  0  0  0  0  0  0  0  0  0  0  0
   -3.6582   20.4932  -32.5140 H   0  0  0  0  0  0  0  0  0  0  0  0
   -4.5690   21.5175  -33.6751 H   0  0  0  0  0  0  0  0  0  0  0  0
   -2.7728   21.5394  -33.6751 H   0  0  0  0  0  0  0  0  0  0  0  0
   -6.0684   21.5528  -32.3460 H   0  0  0  0  0  0  0  0  0  0  0  0
  1  2  1  0
  2  3  1  0
  3  4  2  0
  4  5  1  0
  5  6  2  0
  6  7  1  0
  7  8  1  0
  8  9  2  0
  8 10  1  0
 10 11  2  0
 11 12  1  0
 12 13  2  0
 13 14  1  0
 14 15  2  0
  6 16  1  0
 16 17  1  0
 17 18  1  0
 16 19  2  0
 19  3  1  0
 15 10  1  0
  1 20  1  0
  1 21  1  0
  1 22  1  0
  4 23  1  0
  5 24  1  0
 11 25  1  0
 12 26  1  0
 13 27  1  0
 15 28  1  0
 18 29  1  0
 18 30  1  0
 18 31  1  0
 19 32  1  0
M  CHG  1   7  -1
M  END
>  <UniqueID>  (47) 
46

>  <SMILES>  (47) 
COc1ccc([N-]C(=O)c2cccnc2)c(OC)c1

>  <Energy>  (47) 
42.73943564824032

>  <Genealogy>  (47) 
COc1ccc([N-]C(=O)c2cccnc2)c(OC)c1 (protonated)
COc1ccc([N-]C(=O)c2cccnc2)c(OC)c1 (3D coordinates assigned)
COc1ccc([N-]C(=O)c2cccnc2)c(OC)c1 (optimized conformer: 42.73943564824032 kcal/mol)

>  <smiles>  (47) 
COc1ccc(NC(=O)c2cccnc2)c(OC)c1

>  <score_type>  (47) 
oracle

>  <origin>  (47) 
adgpu

>  <m_score__min__energy>  (47) 
-8.4000000000000004

>  <m_primary>  (47) 
energy

$$$$
47:0
     RDKit          3D

 28 30  0  0  0  0  0  0  0  0999 V2000
   -8.4730   22.9650  -31.7010 C   0  0  0  0  0  0  0  0  0  0  0  0
   -7.0750   23.3180  -31.2630 C   0  0  0  0  0  0  0  0  0  0  0  0
   -6.8640   24.5470  -30.6110 C   0  0  0  0  0  0  0  0  0  0  0  0
   -5.5830   24.9310  -30.2150 C   0  0  0  0  0  0  0  0  0  0  0  0
   -4.4970   24.0950  -30.4560 C   0  0  0  0  0  0  0  0  0  0  0  0
   -4.6870   22.8650  -31.0890 C   0  0  0  0  0  0  0  0  0  0  0  0
   -5.9710   22.4520  -31.4910 C   0  0  0  0  0  0  0  0  0  0  0  0
   -6.1220   21.1220  -32.1320 C   0  0  0  0  0  0  0  0  0  0  0  0
   -6.8000   20.0890  -31.5620 N   0  0  0  0  0  0  0  0  0  0  0  0
   -6.6550   19.0990  -32.4590 C   0  0  0  0  0  0  0  0  0  0  0  0
   -7.1580   17.8020  -32.3880 C   0  0  0  0  0  0  0  0  0  0  0  0
   -6.8750   16.9310  -33.4590 C   0  0  0  0  0  0  0  0  0  0  0  0
   -6.1060   17.3760  -34.5590 C   0  0  0  0  0  0  0  0  0  0  0  0
   -5.6130   18.6950  -34.5970 C   0  0  0  0  0  0  0  0  0  0  0  0
   -5.9130   19.5250  -33.5190 C   0  0  0  0  0  0  0  0  0  0  0  0
   -5.5630   20.8010  -33.3280 N   0  0  0  0  0  0  0  0  0  0  0  0
   -9.1054   22.8053  -30.8153 H   0  0  0  0  0  0  0  0  0  0  0  0
   -8.8869   23.7868  -32.3037 H   0  0  0  0  0  0  0  0  0  0  0  0
   -8.4471   22.0452  -32.3037 H   0  0  0  0  0  0  0  0  0  0  0  0
   -7.7177   25.2114  -30.4117 H   0  0  0  0  0  0  0  0  0  0  0  0
   -5.4308   25.8969  -29.7111 H   0  0  0  0  0  0  0  0  0  0  0  0
   -3.4873   24.4036  -30.1474 H   0  0  0  0  0  0  0  0  0  0  0  0
   -3.8226   22.2108  -31.2758 H   0  0  0  0  0  0  0  0  0  0  0  0
   -7.7552   17.4693  -31.5262 H   0  0  0  0  0  0  0  0  0  0  0  0
   -7.2546   15.8988  -33.4392 H   0  0  0  0  0  0  0  0  0  0  0  0
   -5.8915   16.6880  -35.3901 H   0  0  0  0  0  0  0  0  0  0  0  0
   -5.0137   19.0561  -35.4458 H   0  0  0  0  0  0  0  0  0  0  0  0
   -5.0040   21.4090  -33.9680 H   0  0  0  0  0  0  0  0  0  0  0  0
  1  2  1  0
  2  3  2  0
  3  4  1  0
  4  5  2  0
  5  6  1  0
  6  7  2  0
  7  8  1  0
  8  9  2  0
  9 10  1  0
 10 11  2  0
 11 12  1  0
 12 13  2  0
 13 14  1  0
 14 15  2  0
 15 16  1  0
  7  2  1  0
 16  8  1  0
 15 10  1  0
  1 17  1  0
  1 18  1  0
  1 19  1  0
  3 20  1  0
  4 21  1  0
  5 22  1  0
  6 23  1  0
 11 24  1  0
 12 25  1  0
 13 26  1  0
 14 27  1  0
 16 28  1  0
M  END
>  <UniqueID>  (48) 
47

>  <SMILES>  (48) 
Cc1ccccc1-c1nc2ccccc2[nH]1

>  <Energy>  (48) 
71.61706027025554

>  <Genealogy>  (48) 
Cc1ccccc1-c1nc2ccccc2[nH]1 (3D coordinates assigned)
Cc1ccccc1-c1nc2ccccc2[nH]1 (optimized conformer: 71.61706027025554 kcal/mol)

>  <smiles>  (48) 
Cc1ccccc1-c1nc2ccccc2[nH]1

>  <score_type>  (48) 
oracle

>  <origin>  (48) 
adgpu

>  <m_score__min__energy>  (48) 
-6.9299999999999997

>  <m_primary>  (48) 
energy

$$$$
48:0
     RDKit          3D

 30 31  0  0  0  0  0  0  0  0999 V2000
   -3.2530   24.2150  -27.5260 C   0  0  0  0  0  0  0  0  0  0  0  0
   -2.3600   24.8810  -28.5690 C   0  0  0  0  0  0  0  0  0  0  0  0
   -3.1260   25.2950  -29.7010 O   0  0  0  0  0  0  0  0  0  0  0  0
   -4.2020   24.5880  -30.2630 C   0  0  0  0  0  0  0  0  0  0  0  0
   -5.4690   25.1830  -30.2330 C   0  0  0  0  0  0  0  0  0  0  0  0
   -6.5760   24.5240  -30.7760 C   0  0  0  0  0  0  0  0  0  0  0  0
   -6.4360   23.2560  -31.3480 C   0  0  0  0  0  0  0  0  0  0  0  0
   -7.5690   22.6340  -31.8940 O   0  0  0  0  0  0  0  0  0  0  0  0
   -7.7200   21.2550  -32.1000 C   0  0  0  0  0  0  0  0  0  0  0  0
   -8.7370   20.5800  -31.4150 C   0  0  0  0  0  0  0  0  0  0  0  0
   -8.9090   19.2020  -31.5820 C   0  0  0  0  0  0  0  0  0  0  0  0
   -8.0560   18.4880  -32.4270 C   0  0  0  0  0  0  0  0  0  0  0  0
   -7.0250   19.1490  -33.1010 C   0  0  0  0  0  0  0  0  0  0  0  0
   -6.8510   20.5260  -32.9360 C   0  0  0  0  0  0  0  0  0  0  0  0
   -5.1630   22.6640  -31.4020 C   0  0  0  0  0  0  0  0  0  0  0  0
   -4.0540   23.3200  -30.8600 C   0  0  0  0  0  0  0  0  0  0  0  0
   -2.8994   24.4787  -26.5183 H   0  0  0  0  0  0  0  0  0  0  0  0
   -4.2886   24.5631  -27.6539 H   0  0  0  0  0  0  0  0  0  0  0  0
   -3.2147   23.1231  -27.6539 H   0  0  0  0  0  0  0  0  0  0  0  0
   -1.8751   25.7605  -28.1202 H   0  0  0  0  0  0  0  0  0  0  0  0
   -1.6032   24.1551  -28.9012 H   0  0  0  0  0  0  0  0  0  0  0  0
   -5.5944   26.1769  -29.7786 H   0  0  0  0  0  0  0  0  0  0  0  0
   -7.5642   25.0066  -30.7530 H   0  0  0  0  0  0  0  0  0  0  0  0
   -9.4050   21.1366  -30.7413 H   0  0  0  0  0  0  0  0  0  0  0  0
   -9.7165   18.6801  -31.0476 H   0  0  0  0  0  0  0  0  0  0  0  0
   -8.1956   17.4053  -32.5621 H   0  0  0  0  0  0  0  0  0  0  0  0
   -6.3502   18.5850  -33.7617 H   0  0  0  0  0  0  0  0  0  0  0  0
   -6.0333   21.0421  -33.4603 H   0  0  0  0  0  0  0  0  0  0  0  0
   -5.0382   21.6781  -31.8737 H   0  0  0  0  0  0  0  0  0  0  0  0
   -3.0626   22.8450  -30.8996 H   0  0  0  0  0  0  0  0  0  0  0  0
  1  2  1  0
  2  3  1  0
  3  4  1  0
  4  5  2  0
  5  6  1  0
  6  7  2  0
  7  8  1  0
  8  9  1  0
  9 10  2  0
 10 11  1  0
 11 12  2  0
 12 13  1  0
 13 14  2  0
  7 15  1  0
 15 16  2  0
 16  4  1  0
 14  9  1  0
  1 17  1  0
  1 18  1  0
  1 19  1  0
  2 20  1  0
  2 21  1  0
  5 22  1  0
  6 23  1  0
 10 24  1  0
 11 25  1  0
 12 26  1  0
 13 27  1  0
 14 28  1  0
 15 29  1  0
 16 30  1  0
M  END
>  <UniqueID>  (49) 
48

>  <SMILES>  (49) 
CCOc1ccc(Oc2ccccc2)cc1

>  <Energy>  (49) 
34.83785096569301

>  <Genealogy>  (49) 
CCOc1ccc(Oc2ccccc2)cc1 (3D coordinates assigned)
CCOc1ccc(Oc2ccccc2)cc1 (optimized conformer: 34.83785096569301 kcal/mol)

>  <smiles>  (49) 
CCOc1ccc(Oc2ccccc2)cc1

>  <score_type>  (49) 
oracle

>  <origin>  (49) 
adgpu

>  <m_score__min__energy>  (49) 
-6.8300000000000001

>  <m_primary>  (49) 
energy

$$$$
49:0
     RDKit          3D

 35 37  0  0  0  0  0  0  0  0999 V2000
   -2.2280   21.9240  -31.9830 C   0  0  0  0  0  0  0  0  0  0  0  0
   -3.6780   21.8960  -31.6210 C   0  0  0  0  0  0  0  0  0  0  0  0
   -4.5520   21.0200  -32.1530 N   0  0  0  0  0  0  0  0  0  0  0  0
   -5.7290   21.3600  -31.5810 C   0  0  0  0  0  0  0  0  0  0  0  0
   -7.0060   20.6750  -31.8620 C   0  0  0  0  0  0  0  0  0  0  0  0
   -7.0510   19.2780  -32.0200 C   0  0  0  0  0  0  0  0  0  0  0  0
   -8.2660   18.6370  -32.2860 C   0  0  0  0  0  0  0  0  0  0  0  0
   -9.4420   19.3820  -32.3970 C   0  0  0  0  0  0  0  0  0  0  0  0
   -9.4070   20.7700  -32.2420 C   0  0  0  0  0  0  0  0  0  0  0  0
   -8.1950   21.4160  -31.9750 C   0  0  0  0  0  0  0  0  0  0  0  0
   -5.6120   22.3700  -30.7470 O   0  0  0  0  0  0  0  0  0  0  0  0
   -4.3510   22.7250  -30.7360 C   0  0  0  0  0  0  0  0  0  0  0  0
   -3.8260   23.8320  -29.9180 C   0  0  0  0  0  0  0  0  0  0  0  0
   -3.5250   24.9150  -30.4870 O   0  0  0  0  0  0  0  0  0  0  0  0
   -3.7160   23.7180  -28.4930 N   0  0  0  0  0  0  0  0  0  0  0  0
   -2.8660   24.5620  -27.6980 C   0  0  0  0  0  0  0  0  0  0  0  0
   -3.2850   24.9450  -26.4140 C   0  0  0  0  0  0  0  0  0  0  0  0
   -2.4710   25.7550  -25.6160 C   0  0  0  0  0  0  0  0  0  0  0  0
   -1.2270   26.1770  -26.0870 C   0  0  0  0  0  0  0  0  0  0  0  0
   -0.7880   25.7820  -27.3540 C   0  0  0  0  0  0  0  0  0  0  0  0
   -1.5980   24.9720  -28.1580 C   0  0  0  0  0  0  0  0  0  0  0  0
   -1.1230   24.5540  -29.3580 F   0  0  0  0  0  0  0  0  0  0  0  0
   -1.6212   21.9357  -31.0656 H   0  0  0  0  0  0  0  0  0  0  0  0
   -1.9805   21.0305  -32.5749 H   0  0  0  0  0  0  0  0  0  0  0  0
   -2.0152   22.8264  -32.5749 H   0  0  0  0  0  0  0  0  0  0  0  0
   -6.1272   18.6870  -31.9341 H   0  0  0  0  0  0  0  0  0  0  0  0
   -8.2949   17.5442  -32.4079 H   0  0  0  0  0  0  0  0  0  0  0  0
  -10.3959   18.8759  -32.6065 H   0  0  0  0  0  0  0  0  0  0  0  0
  -10.3338   21.3559  -32.3300 H   0  0  0  0  0  0  0  0  0  0  0  0
   -8.1725   22.5090  -31.8529 H   0  0  0  0  0  0  0  0  0  0  0  0
   -4.4110   23.1180  -27.9960 H   0  0  0  0  0  0  0  0  0  0  0  0
   -4.2597   24.6058  -26.0333 H   0  0  0  0  0  0  0  0  0  0  0  0
   -2.8118   26.0600  -24.6156 H   0  0  0  0  0  0  0  0  0  0  0  0
   -0.5916   26.8207  -25.4610 H   0  0  0  0  0  0  0  0  0  0  0  0
    0.1966   26.1086  -27.7200 H   0  0  0  0  0  0  0  0  0  0  0  0
  1  2  1  0
  2  3  1  0
  3  4  2  0
  4  5  1  0
  5  6  2  0
  6  7  1  0
  7  8  2  0
  8  9  1  0
  9 10  2  0
  4 11  1  0
 11 12  1  0
 12 13  1  0
 13 14  2  0
 13 15  1  0
 15 16  1  0
 16 17  2  0
 17 18  1  0
 18 19  2  0
 19 20  1  0
 20 21  2  0
 21 22  1  0
 12  2  2  0
 21 16  1  0
 10  5  1  0
  1 23  1  0
  1 24  1  0
  1 25  1  0
  6 26  1  0
  7 27  1  0
  8 28  1  0
  9 29  1  0
 10 30  1  0
 15 31  1  0
 17 32  1  0
 18 33  1  0
 19 34  1  0
 20 35  1  0
M  END
>  <UniqueID>  (50) 
49

>  <SMILES>  (50) 
Cc1nc(-c2ccccc2)oc1C(=O)Nc1ccccc1F

>  <Energy>  (50) 
72.53199268151793

>  <Genealogy>  (50) 
Cc1nc(-c2ccccc2)oc1C(=O)Nc1ccccc1F (3D coordinates assigned)
Cc1nc(-c2ccccc2)oc1C(=O)Nc1ccccc1F (optimized conformer: 72.53199268151793 kcal/mol)

>  <smiles>  (50) 
Cc1nc(-c2ccccc2)oc1C(=O)Nc1ccccc1F

>  <score_type>  (50) 
oracle

>  <origin>  (50) 
adgpu

>  <m_score__min__energy>  (50) 
-7.8799999999999999

>  <m_primary>  (50) 
energy

$$$$
