0:0
     RDKit          3D

 68 71  0  0  0  0  0  0  0  0999 V2000
   -2.5770   20.0120  -27.0570 C   0  0  0  0  0  0  0  0  0  0  0  0
   -2.0260   21.3240  -27.1490 O   0  0  0  0  0  0  0  0  0  0  0  0
   -2.5350   22.3470  -27.9620 C   0  0  0  0  0  0  0  0  0  0  0  0
   -3.7400   22.1980  -28.6720 C   0  0  0  0  0  0  0  0  0  0  0  0
   -4.2060   23.2150  -29.5180 C   0  0  0  0  0  0  0  0  0  0  0  0
   -5.4070   23.0010  -30.3620 C   0  0  0  0  0  0  0  0  0  0  0  0
   -6.5520   23.0520  -29.8420 O   0  0  0  0  0  0  0  0  0  0  0  0
   -5.2940   22.7990  -31.7780 N   0  0  0  0  0  0  0  0  0  0  0  0
   -4.6790   21.6510  -32.3780 C   0  0  0  0  0  0  0  0  0  0  0  0
   -3.3270   21.6920  -32.7570 C   0  0  0  0  0  0  0  0  0  0  0  0
   -2.7140   20.5750  -33.3340 C   0  0  0  0  0  0  0  0  0  0  0  0
   -1.0110   20.6420  -33.7900 S   0  0  0  0  0  0  0  0  0  0  0  0
   -0.7260   19.5530  -34.7870 O   0  0  0  0  0  0  0  0  0  0  0  0
   -0.7230   21.9630  -34.4510 O   0  0  0  0  0  0  0  0  0  0  0  0
    0.0350   20.4670  -32.4000 N   0  0  0  0  0  0  0  0  0  0  0  0
   -0.4030   21.3410  -31.2750 C   0  0  0  0  0  0  0  0  0  0  0  0
   -0.8450   20.5540  -30.0300 C   0  0  0  0  0  0  0  0  0  0  0  0
    0.2800   19.6160  -29.5640 C   0  0  0  0  0  0  0  0  0  0  0  0
    0.9850   18.8950  -30.7370 C   0  0  0  0  0  0  0  0  0  0  0  0
    0.2060   19.0390  -32.0500 C   0  0  0  0  0  0  0  0  0  0  0  0
   -3.4550   19.4000  -33.5180 C   0  0  0  0  0  0  0  0  0  0  0  0
   -4.7940   19.3430  -33.1260 C   0  0  0  0  0  0  0  0  0  0  0  0
   -5.4160   20.4620  -32.5540 C   0  0  0  0  0  0  0  0  0  0  0  0
   -6.7980   20.3800  -32.1740 N   0  0  0  0  0  0  0  0  0  0  0  0
   -7.6540   21.5630  -32.3360 C   0  0  0  0  0  0  0  0  0  0  0  0
   -9.1100   21.2160  -32.0460 C   0  0  0  0  0  0  0  0  0  0  0  0
   -9.4180   19.9870  -32.6630 O   0  0  0  0  0  0  0  0  0  0  0  0
   -8.8370   18.9280  -31.9270 C   0  0  0  0  0  0  0  0  0  0  0  0
   -7.3240   19.1130  -31.6470 C   0  0  0  0  0  0  0  0  0  0  0  0
   -3.4740   24.4090  -29.6170 C   0  0  0  0  0  0  0  0  0  0  0  0
   -2.2820   24.5920  -28.8890 C   0  0  0  0  0  0  0  0  0  0  0  0
   -1.5640   25.7980  -28.9670 O   0  0  0  0  0  0  0  0  0  0  0  0
   -0.8740   26.4110  -27.8820 C   0  0  0  0  0  0  0  0  0  0  0  0
   -1.7970   23.5350  -28.0750 C   0  0  0  0  0  0  0  0  0  0  0  0
   -0.5820   23.5980  -27.3650 O   0  0  0  0  0  0  0  0  0  0  0  0
   -0.4290   23.5480  -25.9520 C   0  0  0  0  0  0  0  0  0  0  0  0
   -2.6928   19.7363  -25.9984 H   0  0  0  0  0  0  0  0  0  0  0  0
   -3.5597   19.9916  -27.5508 H   0  0  0  0  0  0  0  0  0  0  0  0
   -1.9036   19.2960  -27.5508 H   0  0  0  0  0  0  0  0  0  0  0  0
   -4.3242   21.2724  -28.5624 H   0  0  0  0  0  0  0  0  0  0  0  0
   -2.7446   22.6116  -32.5984 H   0  0  0  0  0  0  0  0  0  0  0  0
    0.4353   21.9958  -30.9948 H   0  0  0  0  0  0  0  0  0  0  0  0
   -1.2752   21.9118  -31.6263 H   0  0  0  0  0  0  0  0  0  0  0  0
   -1.0870   21.2598  -29.2217 H   0  0  0  0  0  0  0  0  0  0  0  0
   -1.7304   19.9523  -30.2830 H   0  0  0  0  0  0  0  0  0  0  0  0
    1.0272   20.2088  -29.0160 H   0  0  0  0  0  0  0  0  0  0  0  0
   -0.1758   18.8437  -28.9270 H   0  0  0  0  0  0  0  0  0  0  0  0
    1.9875   19.3281  -30.8693 H   0  0  0  0  0  0  0  0  0  0  0  0
    1.0439   17.8242  -30.4921 H   0  0  0  0  0  0  0  0  0  0  0  0
    0.7583   18.5329  -32.8555 H   0  0  0  0  0  0  0  0  0  0  0  0
   -0.7872   18.5829  -31.9251 H   0  0  0  0  0  0  0  0  0  0  0  0
   -2.9798   18.5186  -33.9733 H   0  0  0  0  0  0  0  0  0  0  0  0
   -5.3651   18.4135  -33.2669 H   0  0  0  0  0  0  0  0  0  0  0  0
   -7.3234   22.3467  -31.6385 H   0  0  0  0  0  0  0  0  0  0  0  0
   -7.5743   21.9188  -33.3738 H   0  0  0  0  0  0  0  0  0  0  0  0
   -9.2601   21.1316  -30.9596 H   0  0  0  0  0  0  0  0  0  0  0  0
   -9.7669   22.0056  -32.4397 H   0  0  0  0  0  0  0  0  0  0  0  0
   -9.3604   18.8486  -30.9627 H   0  0  0  0  0  0  0  0  0  0  0  0
   -8.9394   18.0201  -32.5395 H   0  0  0  0  0  0  0  0  0  0  0  0
   -7.1626   19.0909  -30.5591 H   0  0  0  0  0  0  0  0  0  0  0  0
   -6.7908   18.2961  -32.1553 H   0  0  0  0  0  0  0  0  0  0  0  0
   -3.8369   25.2139  -30.2731 H   0  0  0  0  0  0  0  0  0  0  0  0
   -1.2869   26.0441  -26.9307 H   0  0  0  0  0  0  0  0  0  0  0  0
    0.1954   26.1597  -27.9387 H   0  0  0  0  0  0  0  0  0  0  0  0
   -0.9976   27.5026  -27.9387 H   0  0  0  0  0  0  0  0  0  0  0  0
   -1.3690   23.8552  -25.4703 H   0  0  0  0  0  0  0  0  0  0  0  0
   -0.1788   22.5214  -25.6464 H   0  0  0  0  0  0  0  0  0  0  0  0
    0.3792   24.2288  -25.6464 H   0  0  0  0  0  0  0  0  0  0  0  0
  1  2  1  0
  2  3  1  0
  3  4  2  0
  4  5  1  0
  5  6  1  0
  6  7  2  0
  6  8  1  0
  8  9  1  0
  9 10  2  0
 10 11  1  0
 11 12  1  0
 12 13  2  0
 12 14  2  0
 12 15  1  0
 15 16  1  0
 16 17  1  0
 17 18  1  0
 18 19  1  0
 19 20  1  0
 11 21  2  0
 21 22  1  0
 22 23  2  0
 23 24  1  0
 24 25  1  0
 25 26  1  0
 26 27  1  0
 27 28  1  0
 28 29  1  0
  5 30  2  0
 30 31  1  0
 31 32  1  0
 32 33  1  0
 31 34  2  0
 34 35  1  0
 35 36  1  0
 34  3  1  0
 23  9  1  0
 29 24  1  0
 20 15  1  0
  1 37  1  0
  1 38  1  0
  1 39  1  0
  4 40  1  0
 10 41  1  0
 16 42  1  0
 16 43  1  0
 17 44  1  0
 17 45  1  0
 18 46  1  0
 18 47  1  0
 19 48  1  0
 19 49  1  0
 20 50  1  0
 20 51  1  0
 21 52  1  0
 22 53  1  0
 25 54  1  0
 25 55  1  0
 26 56  1  0
 26 57  1  0
 28 58  1  0
 28 59  1  0
 29 60  1  0
 29 61  1  0
 30 62  1  0
 33 63  1  0
 33 64  1  0
 33 65  1  0
 36 66  1  0
 36 67  1  0
 36 68  1  0
M  CHG  1   8  -1
M  END
>  <UniqueID>  (1) 
1

>  <SMILES>  (1) 
COc1cc(C(=O)[N-]c2cc(S(=O)(=O)N3CCCCC3)ccc2N2CCOCC2)cc(OC)c1OC

>  <Energy>  (1) 
88.73006402925476

>  <Genealogy>  (1) 
COc1cc(C(=O)[N-]c2cc(S(=O)(=O)N3CCCCC3)ccc2N2CCOCC2)cc(OC)c1OC (protonated)
COc1cc(C(=O)[N-]c2cc(S(=O)(=O)N3CCCCC3)ccc2N2CCOCC2)cc(OC)c1OC (3D coordinates assigned)
COc1cc(C(=O)[N-]c2cc(S(=O)(=O)N3CCCCC3)ccc2N2CCOCC2)cc(OC)c1OC (nonaromatic ring conformer: 88.73006402925476 kcal/mol)

>  <smiles>  (1) 
COc1cc(C(=O)Nc2cc(S(=O)(=O)N3CCCCC3)ccc2N2CCOCC2)cc(OC)c1OC

>  <score_type>  (1) 
oracle

>  <origin>  (1) 
adgpu

>  <m_score__min__energy>  (1) 
-9.8200000000000003

>  <m_primary>  (1) 
energy

$$$$
1:0
     RDKit          3D

 31 32  0  0  0  0  0  0  0  0999 V2000
   -8.2520   18.8880  -31.9810 C   0  0  0  0  0  0  0  0  0  0  0  0
   -9.2810   20.3420  -32.3490 S   0  0  0  0  0  0  0  0  0  0  0  0
   -7.9570   21.5100  -32.0280 C   0  0  0  0  0  0  0  0  0  0  0  0
   -6.6650   21.2530  -32.4990 C   0  0  0  0  0  0  0  0  0  0  0  0
   -5.6310   22.1610  -32.2460 C   0  0  0  0  0  0  0  0  0  0  0  0
   -5.8870   23.3410  -31.5240 C   0  0  0  0  0  0  0  0  0  0  0  0
   -4.8520   24.2890  -31.2220 N   0  0  0  0  0  0  0  0  0  0  0  0
   -3.6400   24.0250  -30.5060 C   0  0  0  0  0  0  0  0  0  0  0  0
   -2.8060   23.1890  -30.9470 O   0  0  0  0  0  0  0  0  0  0  0  0
   -3.3430   24.7920  -29.3310 N   0  0  0  0  0  0  0  0  0  0  0  0
   -2.2270   24.5220  -28.4670 C   0  0  0  0  0  0  0  0  0  0  0  0
   -2.1430   23.2770  -27.8250 C   0  0  0  0  0  0  0  0  0  0  0  0
   -1.0610   22.9830  -26.9900 C   0  0  0  0  0  0  0  0  0  0  0  0
   -0.0450   23.9240  -26.8020 C   0  0  0  0  0  0  0  0  0  0  0  0
    1.0050   23.6350  -25.9950 F   0  0  0  0  0  0  0  0  0  0  0  0
   -0.1060   25.1560  -27.4590 C   0  0  0  0  0  0  0  0  0  0  0  0
   -1.1870   25.4560  -28.2950 C   0  0  0  0  0  0  0  0  0  0  0  0
   -1.1880   26.6330  -28.9710 F   0  0  0  0  0  0  0  0  0  0  0  0
   -7.1780   23.5760  -31.0290 C   0  0  0  0  0  0  0  0  0  0  0  0
   -8.2100   22.6680  -31.2850 C   0  0  0  0  0  0  0  0  0  0  0  0
   -8.1658   18.7662  -30.8912 H   0  0  0  0  0  0  0  0  0  0  0  0
   -8.7171   17.9904  -32.4146 H   0  0  0  0  0  0  0  0  0  0  0  0
   -7.2508   19.0281  -32.4146 H   0  0  0  0  0  0  0  0  0  0  0  0
   -6.4615   20.3349  -33.0696 H   0  0  0  0  0  0  0  0  0  0  0  0
   -4.6152   21.9517  -32.6126 H   0  0  0  0  0  0  0  0  0  0  0  0
   -3.8960   25.6630  -29.1690 H   0  0  0  0  0  0  0  0  0  0  0  0
   -2.9334   22.5278  -27.9797 H   0  0  0  0  0  0  0  0  0  0  0  0
   -1.0093   22.0096  -26.4802 H   0  0  0  0  0  0  0  0  0  0  0  0
    0.6988   25.8925  -27.3183 H   0  0  0  0  0  0  0  0  0  0  0  0
   -7.3799   24.4801  -30.4358 H   0  0  0  0  0  0  0  0  0  0  0  0
   -9.2222   22.8645  -30.9017 H   0  0  0  0  0  0  0  0  0  0  0  0
  1  2  1  0
  2  3  1  0
  3  4  2  0
  4  5  1  0
  5  6  2  0
  6  7  1  0
  7  8  1  0
  8  9  2  0
  8 10  1  0
 10 11  1  0
 11 12  2  0
 12 13  1  0
 13 14  2  0
 14 15  1  0
 14 16  1  0
 16 17  2  0
 17 18  1  0
  6 19  1  0
 19 20  2  0
 20  3  1  0
 17 11  1  0
  1 21  1  0
  1 22  1  0
  1 23  1  0
  4 24  1  0
  5 25  1  0
 10 26  1  0
 12 27  1  0
 13 28  1  0
 16 29  1  0
 19 30  1  0
 20 31  1  0
M  CHG  1   7  -1
M  END
>  <UniqueID>  (2) 
2

>  <SMILES>  (2) 
CSc1ccc([N-]C(=O)Nc2ccc(F)cc2F)cc1

>  <Energy>  (2) 
35.117866979036826

>  <Genealogy>  (2) 
CSc1ccc([N-]C(=O)Nc2ccc(F)cc2F)cc1 (protonated)
CSc1ccc([N-]C(=O)Nc2ccc(F)cc2F)cc1 (3D coordinates assigned)
CSc1ccc([N-]C(=O)Nc2ccc(F)cc2F)cc1 (optimized conformer: 35.117866979036826 kcal/mol)

>  <smiles>  (2) 
CSc1ccc(NC(=O)Nc2ccc(F)cc2F)cc1

>  <score_type>  (2) 
oracle

>  <origin>  (2) 
adgpu

>  <m_score__min__energy>  (2) 
-8.5700000000000003

>  <m_primary>  (2) 
energy

$$$$
2:0
     RDKit          3D

 45 46  0  0  0  0  0  0  0  0999 V2000
   -6.5150   17.3380  -33.0890 C   0  0  0  0  0  0  0  0  0  0  0  0
   -6.5190   18.8040  -32.7770 C   0  0  0  0  0  0  0  0  0  0  0  0
   -5.3890   19.5220  -32.9990 N   0  0  0  0  0  0  0  0  0  0  0  0
   -5.2990   20.8480  -32.7320 C   0  0  0  0  0  0  0  0  0  0  0  0
   -3.7560   21.6410  -33.0220 Cl  0  0  0  0  0  0  0  0  0  0  0  0
   -6.4050   21.5370  -32.1990 C   0  0  0  0  0  0  0  0  0  0  0  0
   -6.2760   22.9700  -31.8500 C   0  0  0  0  0  0  0  0  0  0  0  0
   -5.8640   23.7860  -32.7160 O   0  0  0  0  0  0  0  0  0  0  0  0
   -6.6020   23.4220  -30.5270 N   0  0  0  0  0  0  0  0  0  0  0  0
   -6.4740   24.8200  -30.1180 C   0  0  0  0  0  0  0  0  0  0  0  0
   -5.0010   25.2380  -30.0350 C   0  0  0  0  0  0  0  0  0  0  0  0
   -4.1510   24.1360  -29.4570 C   0  0  0  0  0  0  0  0  0  0  0  0
   -4.2750   23.7790  -28.1080 C   0  0  0  0  0  0  0  0  0  0  0  0
   -3.5180   22.7310  -27.5790 C   0  0  0  0  0  0  0  0  0  0  0  0
   -2.6220   22.0060  -28.3930 C   0  0  0  0  0  0  0  0  0  0  0  0
   -1.8360   20.9130  -27.8460 N   0  0  0  0  0  0  0  0  0  0  0  0
   -2.4770   19.8590  -27.0500 C   0  0  0  0  0  0  0  0  0  0  0  0
   -0.3890   20.8440  -28.0810 C   0  0  0  0  0  0  0  0  0  0  0  0
   -2.5120   22.3670  -29.7510 C   0  0  0  0  0  0  0  0  0  0  0  0
   -3.2700   23.4170  -30.2760 C   0  0  0  0  0  0  0  0  0  0  0  0
   -7.6180   20.8300  -31.9950 C   0  0  0  0  0  0  0  0  0  0  0  0
   -8.8590   21.5320  -31.4850 C   0  0  0  0  0  0  0  0  0  0  0  0
   -7.6590   19.4430  -32.2570 C   0  0  0  0  0  0  0  0  0  0  0  0
   -9.1200   18.4980  -31.9330 Cl  0  0  0  0  0  0  0  0  0  0  0  0
   -6.5134   16.7635  -32.1510 H   0  0  0  0  0  0  0  0  0  0  0  0
   -7.4125   17.0849  -33.6725 H   0  0  0  0  0  0  0  0  0  0  0  0
   -5.6162   17.0898  -33.6725 H   0  0  0  0  0  0  0  0  0  0  0  0
   -6.9460   22.7320  -29.8230 H   0  0  0  0  0  0  0  0  0  0  0  0
   -6.9876   25.4577  -30.8525 H   0  0  0  0  0  0  0  0  0  0  0  0
   -6.9267   24.9356  -29.1222 H   0  0  0  0  0  0  0  0  0  0  0  0
   -4.6389   25.4772  -31.0458 H   0  0  0  0  0  0  0  0  0  0  0  0
   -4.9258   26.1161  -29.3768 H   0  0  0  0  0  0  0  0  0  0  0  0
   -4.9740   24.3283  -27.4602 H   0  0  0  0  0  0  0  0  0  0  0  0
   -3.6215   22.4680  -26.5159 H   0  0  0  0  0  0  0  0  0  0  0  0
   -2.3449   20.0762  -25.9798 H   0  0  0  0  0  0  0  0  0  0  0  0
   -3.5506   19.8222  -27.2869 H   0  0  0  0  0  0  0  0  0  0  0  0
   -2.0158   18.8889  -27.2869 H   0  0  0  0  0  0  0  0  0  0  0  0
    0.1384   20.8189  -27.1160 H   0  0  0  0  0  0  0  0  0  0  0  0
   -0.1532   19.9336  -28.6516 H   0  0  0  0  0  0  0  0  0  0  0  0
   -0.0676   21.7278  -28.6516 H   0  0  0  0  0  0  0  0  0  0  0  0
   -1.8211   21.8155  -30.4055 H   0  0  0  0  0  0  0  0  0  0  0  0
   -3.1745   23.6810  -31.3396 H   0  0  0  0  0  0  0  0  0  0  0  0
   -8.8555   21.5300  -30.3850 H   0  0  0  0  0  0  0  0  0  0  0  0
   -8.8693   22.5697  -31.8498 H   0  0  0  0  0  0  0  0  0  0  0  0
   -9.7537   21.0062  -31.8498 H   0  0  0  0  0  0  0  0  0  0  0  0
  1  2  1  0
  2  3  2  0
  3  4  1  0
  4  5  1  0
  4  6  2  0
  6  7  1  0
  7  8  2  0
  7  9  1  0
  9 10  1  0
 10 11  1  0
 11 12  1  0
 12 13  2  0
 13 14  1  0
 14 15  2  0
 15 16  1  0
 16 17  1  0
 16 18  1  0
 15 19  1  0
 19 20  2  0
  6 21  1  0
 21 22  1  0
 21 23  2  0
 23 24  1  0
 23  2  1  0
 20 12  1  0
  1 25  1  0
  1 26  1  0
  1 27  1  0
  9 28  1  0
 10 29  1  0
 10 30  1  0
 11 31  1  0
 11 32  1  0
 13 33  1  0
 14 34  1  0
 17 35  1  0
 17 36  1  0
 17 37  1  0
 18 38  1  0
 18 39  1  0
 18 40  1  0
 19 41  1  0
 20 42  1  0
 22 43  1  0
 22 44  1  0
 22 45  1  0
M  END
>  <UniqueID>  (3) 
3

>  <SMILES>  (3) 
Cc1nc(Cl)c(C(=O)NCCc2ccc(N(C)C)cc2)c(C)c1Cl

>  <Energy>  (3) 
50.46634888081865

>  <Genealogy>  (3) 
Cc1nc(Cl)c(C(=O)NCCc2ccc(N(C)C)cc2)c(C)c1Cl (3D coordinates assigned)
Cc1nc(Cl)c(C(=O)NCCc2ccc(N(C)C)cc2)c(C)c1Cl (optimized conformer: 50.46634888081865 kcal/mol)

>  <smiles>  (3) 
Cc1nc(Cl)c(C(=O)NCCc2ccc(N(C)C)cc2)c(C)c1Cl

>  <score_type>  (3) 
oracle

>  <origin>  (3) 
adgpu

>  <m_score__min__energy>  (3) 
-8.7699999999999996

>  <m_primary>  (3) 
energy

$$$$
3:0
     RDKit          3D

 52 56  0  0  0  0  0  0  0  0999 V2000
   -2.4330   19.9740  -34.0200 C   0  0  0  0  0  0  0  0  0  0  0  0
   -3.3140   18.8960  -34.1210 C   0  0  0  0  0  0  0  0  0  0  0  0
   -4.5820   18.9600  -33.5240 C   0  0  0  0  0  0  0  0  0  0  0  0
   -5.5210   17.7780  -33.6040 C   0  0  0  0  0  0  0  0  0  0  0  0
   -6.3240   17.6190  -32.3780 N   0  0  0  0  0  0  0  0  0  0  0  0
   -7.7730   17.7990  -32.5940 C   0  0  0  0  0  0  0  0  0  0  0  0
   -8.2520   19.1730  -32.1870 C   0  0  0  0  0  0  0  0  0  0  0  0
   -9.4340   19.7060  -32.7240 C   0  0  0  0  0  0  0  0  0  0  0  0
   -9.8570   20.9780  -32.3320 C   0  0  0  0  0  0  0  0  0  0  0  0
   -9.1240   21.6980  -31.4420 N   0  0  0  0  0  0  0  0  0  0  0  0
   -7.9700   21.2110  -30.9130 C   0  0  0  0  0  0  0  0  0  0  0  0
   -7.5110   19.9430  -31.2770 C   0  0  0  0  0  0  0  0  0  0  0  0
   -4.9600   20.1240  -32.8360 C   0  0  0  0  0  0  0  0  0  0  0  0
   -4.0770   21.2120  -32.7220 C   0  0  0  0  0  0  0  0  0  0  0  0
   -4.4730   22.4290  -31.9690 C   0  0  0  0  0  0  0  0  0  0  0  0
   -5.6720   23.0950  -32.2720 C   0  0  0  0  0  0  0  0  0  0  0  0
   -6.0490   24.2320  -31.5570 C   0  0  0  0  0  0  0  0  0  0  0  0
   -5.2380   24.7180  -30.5300 C   0  0  0  0  0  0  0  0  0  0  0  0
   -4.0330   24.0710  -30.2100 C   0  0  0  0  0  0  0  0  0  0  0  0
   -3.1730   24.5830  -29.1180 C   0  0  0  0  0  0  0  0  0  0  0  0
   -2.0340   25.2910  -29.3440 N   0  0  0  0  0  0  0  0  0  0  0  0
   -1.5930   25.5440  -28.1040 C   0  0  0  0  0  0  0  0  0  0  0  0
   -0.4500   26.2480  -27.7320 C   0  0  0  0  0  0  0  0  0  0  0  0
   -0.1890   26.3880  -26.3550 C   0  0  0  0  0  0  0  0  0  0  0  0
   -1.0700   25.8300  -25.4000 C   0  0  0  0  0  0  0  0  0  0  0  0
   -2.2170   25.1260  -25.8160 C   0  0  0  0  0  0  0  0  0  0  0  0
   -2.4400   25.0070  -27.1850 C   0  0  0  0  0  0  0  0  0  0  0  0
   -3.4560   24.3870  -27.8010 N   0  0  0  0  0  0  0  0  0  0  0  0
   -3.6590   22.9260  -30.9350 C   0  0  0  0  0  0  0  0  0  0  0  0
   -2.8070   21.1240  -33.3220 C   0  0  0  0  0  0  0  0  0  0  0  0
   -1.4409   19.9173  -34.4918 H   0  0  0  0  0  0  0  0  0  0  0  0
   -3.0128   17.9923  -34.6711 H   0  0  0  0  0  0  0  0  0  0  0  0
   -6.2011   17.9233  -34.4563 H   0  0  0  0  0  0  0  0  0  0  0  0
   -4.9112   16.8709  -33.7276 H   0  0  0  0  0  0  0  0  0  0  0  0
   -6.1450   16.6670  -31.9820 H   0  0  0  0  0  0  0  0  0  0  0  0
   -6.0060   18.3110  -31.6610 H   0  0  0  0  0  0  0  0  0  0  0  0
   -7.9916   17.6511  -33.6619 H   0  0  0  0  0  0  0  0  0  0  0  0
   -8.2984   17.0627  -31.9681 H   0  0  0  0  0  0  0  0  0  0  0  0
  -10.0235   19.1256  -33.4490 H   0  0  0  0  0  0  0  0  0  0  0  0
  -10.7860   21.3984  -32.7446 H   0  0  0  0  0  0  0  0  0  0  0  0
   -7.3963   21.8172  -30.1965 H   0  0  0  0  0  0  0  0  0  0  0  0
   -6.5749   19.5504  -30.8532 H   0  0  0  0  0  0  0  0  0  0  0  0
   -5.9594   20.1854  -32.3805 H   0  0  0  0  0  0  0  0  0  0  0  0
   -6.3180   22.7175  -33.0784 H   0  0  0  0  0  0  0  0  0  0  0  0
   -6.9889   24.7475  -31.8034 H   0  0  0  0  0  0  0  0  0  0  0  0
   -5.5443   25.6127  -29.9681 H   0  0  0  0  0  0  0  0  0  0  0  0
    0.2245   26.6791  -28.4865 H   0  0  0  0  0  0  0  0  0  0  0  0
    0.7052   26.9345  -26.0206 H   0  0  0  0  0  0  0  0  0  0  0  0
   -0.8586   25.9463  -24.3268 H   0  0  0  0  0  0  0  0  0  0  0  0
   -2.9116   24.6860  -25.0853 H   0  0  0  0  0  0  0  0  0  0  0  0
   -2.7176   22.4121  -30.6905 H   0  0  0  0  0  0  0  0  0  0  0  0
   -2.1045   21.9666  -33.2406 H   0  0  0  0  0  0  0  0  0  0  0  0
  1  2  2  0
  2  3  1  0
  3  4  1  0
  4  5  1  0
  5  6  1  0
  6  7  1  0
  7  8  2  0
  8  9  1  0
  9 10  2  0
 10 11  1  0
 11 12  2  0
  3 13  2  0
 13 14  1  0
 14 15  1  0
 15 16  2  0
 16 17  1  0
 17 18  2  0
 18 19  1  0
 19 20  1  0
 20 21  2  0
 21 22  1  0
 22 23  2  0
 23 24  1  0
 24 25  2  0
 25 26  1  0
 26 27  2  0
 27 28  1  0
 19 29  2  0
 14 30  2  0
 30  1  1  0
 12  7  1  0
 29 15  1  0
 28 20  1  0
 27 22  1  0
  1 31  1  0
  2 32  1  0
  4 33  1  0
  4 34  1  0
  5 35  1  0
  5 36  1  0
  6 37  1  0
  6 38  1  0
  8 39  1  0
  9 40  1  0
 11 41  1  0
 12 42  1  0
 13 43  1  0
 16 44  1  0
 17 45  1  0
 18 46  1  0
 23 47  1  0
 24 48  1  0
 25 49  1  0
 26 50  1  0
 29 51  1  0
 30 52  1  0
M  CHG  2   5   1  28  -1
M  END
>  <UniqueID>  (4) 
4

>  <SMILES>  (4) 
c1cc(C[NH2+]Cc2ccncc2)cc(-c2cccc(-c3nc4ccccc4[n-]3)c2)c1

>  <Energy>  (4) 
100.06436772144376

>  <Genealogy>  (4) 
c1cc(C[NH2+]Cc2ccncc2)cc(-c2cccc(-c3nc4ccccc4[n-]3)c2)c1 (protonated)
c1cc(C[NH2+]Cc2ccncc2)cc(-c2cccc(-c3nc4ccccc4[n-]3)c2)c1 (3D coordinates assigned)
c1cc(C[NH2+]Cc2ccncc2)cc(-c2cccc(-c3nc4ccccc4[n-]3)c2)c1 (optimized conformer: 100.06436772144376 kcal/mol)

>  <smiles>  (4) 
c1cc(CNCc2ccncc2)cc(-c2cccc(-c3nc4ccccc4[nH]3)c2)c1

>  <score_type>  (4) 
oracle

>  <origin>  (4) 
adgpu

>  <m_score__min__energy>  (4) 
-10.720000000000001

>  <m_primary>  (4) 
energy

$$$$
4:0
     RDKit          3D

 53 56  0  0  0  0  0  0  0  0999 V2000
   -5.6190   26.2540  -28.8360 H   0  0  0  0  0  0  0  0  0  0  0  0
   -6.3880   25.8070  -29.3210 O   0  0  0  0  0  0  0  0  0  0  0  0
   -6.2050   24.6890  -30.1400 C   0  0  0  0  0  0  0  0  0  0  0  0
   -7.3300   23.9610  -30.5380 C   0  0  0  0  0  0  0  0  0  0  0  0
   -8.3312   24.2887  -30.2214 H   0  0  0  0  0  0  0  0  0  0  0  0
   -7.1940   22.8170  -31.3370 C   0  0  0  0  0  0  0  0  0  0  0  0
   -8.6100   21.8670  -31.7790 S   0  0  0  0  0  0  0  0  0  0  0  0
   -9.0490   21.0630  -30.5910 O   0  0  0  0  0  0  0  0  0  0  0  0
   -9.7460   22.7730  -32.1860 O   0  0  0  0  0  0  0  0  0  0  0  0
   -8.2570   20.7940  -33.0940 N   0  0  0  0  0  0  0  0  0  0  0  0
   -7.3540   19.6840  -32.9790 C   0  0  0  0  0  0  0  0  0  0  0  0
   -6.0840   19.7390  -33.5830 C   0  0  0  0  0  0  0  0  0  0  0  0
   -5.7751   20.6402  -34.1329 H   0  0  0  0  0  0  0  0  0  0  0  0
   -5.2140   18.6470  -33.4840 C   0  0  0  0  0  0  0  0  0  0  0  0
   -4.2153   18.7007  -33.9419 H   0  0  0  0  0  0  0  0  0  0  0  0
   -5.6090   17.4800  -32.8020 C   0  0  0  0  0  0  0  0  0  0  0  0
   -4.6770   16.3110  -32.6880 C   0  0  0  0  0  0  0  0  0  0  0  0
   -4.4982   16.0868  -31.6260 H   0  0  0  0  0  0  0  0  0  0  0  0
   -5.1268   15.4344  -33.1772 H   0  0  0  0  0  0  0  0  0  0  0  0
   -3.7222   16.5542  -33.1772 H   0  0  0  0  0  0  0  0  0  0  0  0
   -6.8680   17.4320  -32.1840 C   0  0  0  0  0  0  0  0  0  0  0  0
   -7.1735   16.5276  -31.6374 H   0  0  0  0  0  0  0  0  0  0  0  0
   -7.7420   18.5310  -32.2580 C   0  0  0  0  0  0  0  0  0  0  0  0
   -9.1070   18.4500  -31.6210 C   0  0  0  0  0  0  0  0  0  0  0  0
   -9.0016   18.4563  -30.5261 H   0  0  0  0  0  0  0  0  0  0  0  0
   -9.7106   19.3139  -31.9362 H   0  0  0  0  0  0  0  0  0  0  0  0
   -9.6042   17.5208  -31.9362 H   0  0  0  0  0  0  0  0  0  0  0  0
   -5.9230   22.4170  -31.7580 C   0  0  0  0  0  0  0  0  0  0  0  0
   -5.8127   21.5284  -32.3969 H   0  0  0  0  0  0  0  0  0  0  0  0
   -4.7900   23.1410  -31.3710 C   0  0  0  0  0  0  0  0  0  0  0  0
   -3.7943   22.8252  -31.7156 H   0  0  0  0  0  0  0  0  0  0  0  0
   -4.9190   24.2740  -30.5410 C   0  0  0  0  0  0  0  0  0  0  0  0
   -3.7680   25.0310  -30.1210 N   0  0  0  0  0  0  0  0  0  0  0  0
   -2.6360   24.5430  -29.7080 C   0  0  0  0  0  0  0  0  0  0  0  0
   -1.6030   25.3320  -29.3480 N   0  0  0  0  0  0  0  0  0  0  0  0
   -0.6500   24.4620  -28.9540 C   0  0  0  0  0  0  0  0  0  0  0  0
    0.3514   24.7350  -28.5898 H   0  0  0  0  0  0  0  0  0  0  0  0
   -1.1330   23.1720  -29.0810 C   0  0  0  0  0  0  0  0  0  0  0  0
   -0.4160   21.9070  -28.7740 C   0  0  0  0  0  0  0  0  0  0  0  0
   -0.7970   20.7130  -29.4130 C   0  0  0  0  0  0  0  0  0  0  0  0
   -1.6356   20.7190  -30.1249 H   0  0  0  0  0  0  0  0  0  0  0  0
   -0.1190   19.5190  -29.1510 C   0  0  0  0  0  0  0  0  0  0  0  0
   -0.4298   18.5911  -29.6534 H   0  0  0  0  0  0  0  0  0  0  0  0
    0.9550   19.4990  -28.2510 C   0  0  0  0  0  0  0  0  0  0  0  0
    1.6770   18.2140  -27.9640 C   0  0  0  0  0  0  0  0  0  0  0  0
    1.7562   18.0730  -26.8759 H   0  0  0  0  0  0  0  0  0  0  0  0
    1.1188   17.3739  -28.4029 H   0  0  0  0  0  0  0  0  0  0  0  0
    2.6849   18.2538  -28.4029 H   0  0  0  0  0  0  0  0  0  0  0  0
    1.3180   20.6790  -27.5870 C   0  0  0  0  0  0  0  0  0  0  0  0
    2.1363   20.6633  -26.8521 H   0  0  0  0  0  0  0  0  0  0  0  0
    0.6470   21.8740  -27.8530 C   0  0  0  0  0  0  0  0  0  0  0  0
    0.9519   22.7972  -27.3384 H   0  0  0  0  0  0  0  0  0  0  0  0
   -2.3940   23.2190  -29.5580 N   0  0  0  0  0  0  0  0  0  0  0  0
  1  2  1  0
  2  3  1  0
  3  4  2  0
  4  5  1  0
  4  6  1  0
  6  7  1  0
  7  8  2  0
  7  9  2  0
  7 10  1  0
 10 11  1  0
 11 12  2  0
 12 13  1  0
 12 14  1  0
 14 15  1  0
 14 16  2  0
 16 17  1  0
 17 18  1  0
 17 19  1  0
 17 20  1  0
 16 21  1  0
 21 22  1  0
 21 23  2  0
 23 24  1  0
 24 25  1  0
 24 26  1  0
 24 27  1  0
  6 28  2  0
 28 29  1  0
 28 30  1  0
 30 31  1  0
 30 32  2  0
 32 33  1  0
 33 34  2  0
 34 35  1  0
 35 36  1  0
 36 37  1  0
 36 38  2  0
 38 39  1  0
 39 40  2  0
 40 41  1  0
 40 42  1  0
 42 43  1  0
 42 44  2  0
 44 45  1  0
 45 46  1  0
 45 47  1  0
 45 48  1  0
 44 49  1  0
 49 50  1  0
 49 51  2  0
 51 52  1  0
 38 53  1  0
 32  3  1  0
 53 34  1  0
 23 11  1  0
 51 39  1  0
M  CHG  3  10  -1  35  -1  53  -1
M  END
>  <UniqueID>  (5) 
5

>  <SMILES>  (5) 
Cc1ccc(-c2c[n-]/c(=N/c3ccc(S(=O)(=O)[N-]c4ccc(C)cc4C)cc3O)[n-]2)cc1

>  <Energy>  (5) 
97.88941002357116

>  <Genealogy>  (5) 
Cc1ccc(-c2c[n-]c(=Nc3ccc(S(=O)(=O)[N-]c4ccc(C)cc4C)cc3O)[n-]2)cc1 (protonated)
Cc1ccc(-c2c[n-]/c(=N/c3ccc(S(=O)(=O)[N-]c4ccc(C)cc4C)cc3O)[n-]2)cc1 (cis-trans isomerization)
Cc1ccc(-c2c[n-]/c(=N/c3ccc(S(=O)(=O)[N-]c4ccc(C)cc4C)cc3O)[n-]2)cc1 (3D coordinates assigned)
Cc1ccc(-c2c[n-]/c(=N/c3ccc(S(=O)(=O)[N-]c4ccc(C)cc4C)cc3O)[n-]2)cc1 (optimized conformer: 97.88941002357116 kcal/mol)

>  <smiles>  (5) 
Cc1ccc(-c2c[nH]c(=Nc3ccc(S(=O)(=O)Nc4ccc(C)cc4C)cc3O)[nH]2)cc1

>  <score_type>  (5) 
oracle

>  <origin>  (5) 
adgpu

>  <m_score__min__energy>  (5) 
-12.789999999999999

>  <m_primary>  (5) 
energy

$$$$
5:0
     RDKit          3D

 33 34  0  0  0  0  0  0  0  0999 V2000
   -2.9880   23.1520  -30.5210 O   0  0  0  0  0  0  0  0  0  0  0  0
   -3.1600   24.3100  -30.0490 C   0  0  0  0  0  0  0  0  0  0  0  0
   -3.8800   25.2860  -30.8140 N   0  0  0  0  0  0  0  0  0  0  0  0
   -5.2170   25.7620  -30.4710 C   0  0  0  0  0  0  0  0  0  0  0  0
   -6.2240   24.6070  -30.4270 C   0  0  0  0  0  0  0  0  0  0  0  0
   -5.7890   23.4780  -31.2540 N   0  0  0  0  0  0  0  0  0  0  0  0
   -6.6330   22.3950  -31.6960 C   0  0  0  0  0  0  0  0  0  0  0  0
   -7.9660   22.3450  -31.2510 C   0  0  0  0  0  0  0  0  0  0  0  0
   -8.7990   21.2830  -31.6130 C   0  0  0  0  0  0  0  0  0  0  0  0
   -8.3160   20.2620  -32.4320 C   0  0  0  0  0  0  0  0  0  0  0  0
   -9.1250   19.2270  -32.7720 F   0  0  0  0  0  0  0  0  0  0  0  0
   -7.0000   20.3050  -32.8990 C   0  0  0  0  0  0  0  0  0  0  0  0
   -6.5280   19.3110  -33.6910 F   0  0  0  0  0  0  0  0  0  0  0  0
   -6.1610   21.3650  -32.5370 C   0  0  0  0  0  0  0  0  0  0  0  0
   -2.5710   24.6660  -28.7340 C   0  0  0  0  0  0  0  0  0  0  0  0
   -1.2680   25.1970  -28.6760 C   0  0  0  0  0  0  0  0  0  0  0  0
   -0.7130   25.5910  -27.4550 C   0  0  0  0  0  0  0  0  0  0  0  0
   -1.4500   25.4610  -26.2770 C   0  0  0  0  0  0  0  0  0  0  0  0
   -2.7400   24.9310  -26.3170 C   0  0  0  0  0  0  0  0  0  0  0  0
   -3.3050   24.5340  -27.5340 C   0  0  0  0  0  0  0  0  0  0  0  0
   -4.5620   24.0250  -27.5280 F   0  0  0  0  0  0  0  0  0  0  0  0
   -5.1830   26.2458  -29.4837 H   0  0  0  0  0  0  0  0  0  0  0  0
   -5.5404   26.4760  -31.2427 H   0  0  0  0  0  0  0  0  0  0  0  0
   -6.3310   24.2666  -29.3865 H   0  0  0  0  0  0  0  0  0  0  0  0
   -7.1832   24.9726  -30.8223 H   0  0  0  0  0  0  0  0  0  0  0  0
   -4.8110   23.5200  -31.6230 H   0  0  0  0  0  0  0  0  0  0  0  0
   -8.3570   23.1500  -30.6114 H   0  0  0  0  0  0  0  0  0  0  0  0
   -9.8375   21.2520  -31.2516 H   0  0  0  0  0  0  0  0  0  0  0  0
   -5.1268   21.3954  -32.9105 H   0  0  0  0  0  0  0  0  0  0  0  0
   -0.6813   25.3028  -29.6004 H   0  0  0  0  0  0  0  0  0  0  0  0
    0.3060   26.0041  -27.4226 H   0  0  0  0  0  0  0  0  0  0  0  0
   -1.0141   25.7762  -25.3175 H   0  0  0  0  0  0  0  0  0  0  0  0
   -3.3164   24.8246  -25.3862 H   0  0  0  0  0  0  0  0  0  0  0  0
  1  2  2  0
  2  3  1  0
  3  4  1  0
  4  5  1  0
  5  6  1  0
  6  7  1  0
  7  8  2  0
  8  9  1  0
  9 10  2  0
 10 11  1  0
 10 12  1  0
 12 13  1  0
 12 14  2  0
  2 15  1  0
 15 16  2  0
 16 17  1  0
 17 18  2  0
 18 19  1  0
 19 20  2  0
 20 21  1  0
 14  7  1  0
 20 15  1  0
  4 22  1  0
  4 23  1  0
  5 24  1  0
  5 25  1  0
  6 26  1  0
  8 27  1  0
  9 28  1  0
 14 29  1  0
 16 30  1  0
 17 31  1  0
 18 32  1  0
 19 33  1  0
M  CHG  1   3  -1
M  END
>  <UniqueID>  (6) 
6

>  <SMILES>  (6) 
O=C([N-]CCNc1ccc(F)c(F)c1)c1ccccc1F

>  <Energy>  (6) 
31.205880988527785

>  <Genealogy>  (6) 
O=C([N-]CCNc1ccc(F)c(F)c1)c1ccccc1F (protonated)
O=C([N-]CCNc1ccc(F)c(F)c1)c1ccccc1F (3D coordinates assigned)
O=C([N-]CCNc1ccc(F)c(F)c1)c1ccccc1F (optimized conformer: 31.205880988527785 kcal/mol)

>  <smiles>  (6) 
O=C(NCCNc1ccc(F)c(F)c1)c1ccccc1F

>  <score_type>  (6) 
oracle

>  <origin>  (6) 
adgpu

>  <m_score__min__energy>  (6) 
-8.5999999999999996

>  <m_primary>  (6) 
energy

$$$$
6:0
     RDKit          3D

 64 67  0  0  0  0  0  0  0  0999 V2000
   -1.4480   15.8340  -32.4620 C   0  0  0  0  0  0  0  0  0  0  0  0
   -2.2100   15.3660  -33.7130 C   0  0  1  0  0  0  0  0  0  0  0  0
   -2.8700   13.9870  -33.5020 C   0  0  0  0  0  0  0  0  0  0  0  0
   -4.1800   14.0330  -32.6700 C   0  0  1  0  0  0  0  0  0  0  0  0
   -3.9570   13.5980  -31.2150 C   0  0  0  0  0  0  0  0  0  0  0  0
   -4.8630   15.4110  -32.7370 C   0  0  0  0  0  0  0  0  0  0  0  0
   -4.6310   16.0160  -34.0560 N   0  0  0  0  0  0  0  0  0  0  0  0
   -5.6940   17.3860  -34.2860 S   0  0  0  0  0  0  0  0  0  0  0  0
   -5.7160   17.7720  -35.7410 O   0  0  0  0  0  0  0  0  0  0  0  0
   -7.0940   17.0080  -33.8820 O   0  0  0  0  0  0  0  0  0  0  0  0
   -5.1610   18.7650  -33.3230 C   0  0  0  0  0  0  0  0  0  0  0  0
   -4.1430   19.6050  -33.7920 C   0  0  0  0  0  0  0  0  0  0  0  0
   -3.6750   20.6520  -32.9960 C   0  0  0  0  0  0  0  0  0  0  0  0
   -4.2000   20.8650  -31.7140 C   0  0  0  0  0  0  0  0  0  0  0  0
   -3.6720   21.9290  -30.9040 N   0  0  0  0  0  0  0  0  0  0  0  0
   -2.2830   22.0640  -30.5610 C   0  0  0  0  0  0  0  0  0  0  0  0
   -1.4200   21.3560  -31.1470 O   0  0  0  0  0  0  0  0  0  0  0  0
   -1.8520   23.0850  -29.5740 C   0  0  0  0  0  0  0  0  0  0  0  0
   -0.8640   22.7610  -28.6270 C   0  0  0  0  0  0  0  0  0  0  0  0
   -0.4650   23.6940  -27.6680 C   0  0  0  0  0  0  0  0  0  0  0  0
   -1.0430   24.9630  -27.6400 C   0  0  0  0  0  0  0  0  0  0  0  0
   -2.0250   25.3020  -28.5720 C   0  0  0  0  0  0  0  0  0  0  0  0
   -2.4360   24.3740  -29.5390 C   0  0  0  0  0  0  0  0  0  0  0  0
   -3.4970   24.7260  -30.4320 N   0  0  0  0  0  0  0  0  0  0  0  0
   -5.0960   24.9970  -29.8290 S   0  0  0  0  0  0  0  0  0  0  0  0
   -5.5360   26.3840  -30.2050 O   0  0  0  0  0  0  0  0  0  0  0  0
   -5.0990   24.8840  -28.3280 O   0  0  0  0  0  0  0  0  0  0  0  0
   -6.1990   23.8200  -30.5310 C   0  0  0  0  0  0  0  0  0  0  0  0
   -6.9810   23.0080  -29.6940 C   0  0  0  0  0  0  0  0  0  0  0  0
   -7.8400   22.0500  -30.2440 C   0  0  0  0  0  0  0  0  0  0  0  0
   -7.9210   21.8980  -31.6340 C   0  0  0  0  0  0  0  0  0  0  0  0
   -9.0170   20.7130  -32.3230 Cl  0  0  0  0  0  0  0  0  0  0  0  0
   -7.1270   22.6930  -32.4710 C   0  0  0  0  0  0  0  0  0  0  0  0
   -6.2650   23.6500  -31.9230 C   0  0  0  0  0  0  0  0  0  0  0  0
   -5.2580   20.0520  -31.2670 C   0  0  0  0  0  0  0  0  0  0  0  0
   -5.7300   19.0070  -32.0640 C   0  0  0  0  0  0  0  0  0  0  0  0
   -3.2240   16.4410  -34.2010 C   0  0  0  0  0  0  0  0  0  0  0  0
   -1.9852   15.5040  -31.5606 H   0  0  0  0  0  0  0  0  0  0  0  0
   -0.4368   15.4010  -32.4653 H   0  0  0  0  0  0  0  0  0  0  0  0
   -1.3769   16.9317  -32.4653 H   0  0  0  0  0  0  0  0  0  0  0  0
   -1.4717   15.2376  -34.5183 H   0  0  0  0  0  0  0  0  0  0  0  0
   -2.1522   13.3364  -32.9809 H   0  0  0  0  0  0  0  0  0  0  0  0
   -3.1399   13.6082  -34.4988 H   0  0  0  0  0  0  0  0  0  0  0  0
   -4.8627   13.3043  -33.1313 H   0  0  0  0  0  0  0  0  0  0  0  0
   -4.3522   14.3689  -30.5371 H   0  0  0  0  0  0  0  0  0  0  0  0
   -4.4787   12.6469  -31.0326 H   0  0  0  0  0  0  0  0  0  0  0  0
   -2.8802   13.4664  -31.0326 H   0  0  0  0  0  0  0  0  0  0  0  0
   -4.4454   16.0642  -31.9567 H   0  0  0  0  0  0  0  0  0  0  0  0
   -5.9446   15.2893  -32.5776 H   0  0  0  0  0  0  0  0  0  0  0  0
   -3.7112   19.4393  -34.7900 H   0  0  0  0  0  0  0  0  0  0  0  0
   -2.8863   21.3165  -33.3787 H   0  0  0  0  0  0  0  0  0  0  0  0
   -4.3040   22.7320  -30.6870 H   0  0  0  0  0  0  0  0  0  0  0  0
   -0.4013   21.7632  -28.6420 H   0  0  0  0  0  0  0  0  0  0  0  0
    0.3078   23.4273  -26.9320 H   0  0  0  0  0  0  0  0  0  0  0  0
   -0.7252   25.6961  -26.8840 H   0  0  0  0  0  0  0  0  0  0  0  0
   -2.4793   26.3035  -28.5476 H   0  0  0  0  0  0  0  0  0  0  0  0
   -6.9182   23.1253  -28.6021 H   0  0  0  0  0  0  0  0  0  0  0  0
   -8.4515   21.4164  -29.5848 H   0  0  0  0  0  0  0  0  0  0  0  0
   -7.1812   22.5647  -33.5621 H   0  0  0  0  0  0  0  0  0  0  0  0
   -5.6393   24.2688  -32.5830 H   0  0  0  0  0  0  0  0  0  0  0  0
   -5.7156   20.2406  -30.2847 H   0  0  0  0  0  0  0  0  0  0  0  0
   -6.5516   18.3709  -31.7029 H   0  0  0  0  0  0  0  0  0  0  0  0
   -3.0726   17.3581  -33.6128 H   0  0  0  0  0  0  0  0  0  0  0  0
   -3.0389   16.6050  -35.2728 H   0  0  0  0  0  0  0  0  0  0  0  0
  1  2  1  0
  2  3  1  0
  3  4  1  0
  4  5  1  0
  4  6  1  0
  6  7  1  0
  7  8  1  0
  8  9  2  0
  8 10  2  0
  8 11  1  0
 11 12  2  0
 12 13  1  0
 13 14  2  0
 14 15  1  0
 15 16  1  0
 16 17  2  0
 16 18  1  0
 18 19  2  0
 19 20  1  0
 20 21  2  0
 21 22  1  0
 22 23  2  0
 23 24  1  0
 24 25  1  0
 25 26  2  0
 25 27  2  0
 25 28  1  0
 28 29  2  0
 29 30  1  0
 30 31  2  0
 31 32  1  0
 31 33  1  0
 33 34  2  0
 14 35  1  0
 35 36  2  0
  7 37  1  0
 37  2  1  0
 36 11  1  0
 23 18  1  0
 34 28  1  0
  1 38  1  0
  1 39  1  0
  1 40  1  0
  2 41  1  6
  3 42  1  0
  3 43  1  0
  4 44  1  6
  5 45  1  0
  5 46  1  0
  5 47  1  0
  6 48  1  0
  6 49  1  0
 12 50  1  0
 13 51  1  0
 15 52  1  0
 19 53  1  0
 20 54  1  0
 21 55  1  0
 22 56  1  0
 29 57  1  0
 30 58  1  0
 33 59  1  0
 34 60  1  0
 35 61  1  0
 36 62  1  0
 37 63  1  0
 37 64  1  0
M  CHG  1  24  -1
M  END
>  <UniqueID>  (7) 
7

>  <SMILES>  (7) 
C[C@@H]1C[C@H](C)CN(S(=O)(=O)c2ccc(NC(=O)c3ccccc3[N-]S(=O)(=O)c3ccc(Cl)cc3)cc2)C1

>  <Energy>  (7) 
80.71494478446591

>  <Genealogy>  (7) 
CC1CC(C)CN(S(=O)(=O)c2ccc(NC(=O)c3ccccc3[N-]S(=O)(=O)c3ccc(Cl)cc3)cc2)C1 (protonated)
C[C@@H]1C[C@H](C)CN(S(=O)(=O)c2ccc(NC(=O)c3ccccc3[N-]S(=O)(=O)c3ccc(Cl)cc3)cc2)C1 (chirality)
C[C@@H]1C[C@H](C)CN(S(=O)(=O)c2ccc(NC(=O)c3ccccc3[N-]S(=O)(=O)c3ccc(Cl)cc3)cc2)C1 (3D coordinates assigned)
C[C@@H]1C[C@H](C)CN(S(=O)(=O)c2ccc(NC(=O)c3ccccc3[N-]S(=O)(=O)c3ccc(Cl)cc3)cc2)C1 (nonaromatic ring conformer: 80.71494478446591 kcal/mol)

>  <smiles>  (7) 
CC1CC(C)CN(S(=O)(=O)c2ccc(NC(=O)c3ccccc3NS(=O)(=O)c3ccc(Cl)cc3)cc2)C1

>  <score_type>  (7) 
oracle

>  <origin>  (7) 
adgpu

>  <m_score__min__energy>  (7) 
-11.949999999999999

>  <m_primary>  (7) 
energy

$$$$
7:0
     RDKit          3D

 35 37  0  0  0  0  0  0  0  0999 V2000
   -8.8432   18.4438  -32.1685 H   0  0  0  0  0  0  0  0  0  0  0  0
   -7.8960   18.9990  -32.2360 C   0  0  0  0  0  0  0  0  0  0  0  0
   -6.6930   18.3700  -31.9110 C   0  0  0  0  0  0  0  0  0  0  0  0
   -6.6939   17.3190  -31.5863 H   0  0  0  0  0  0  0  0  0  0  0  0
   -5.4870   19.0720  -31.9970 C   0  0  0  0  0  0  0  0  0  0  0  0
   -4.5428   18.5694  -31.7405 H   0  0  0  0  0  0  0  0  0  0  0  0
   -5.4730   20.4190  -32.4100 C   0  0  0  0  0  0  0  0  0  0  0  0
   -4.1970   21.1670  -32.5020 C   0  0  0  0  0  0  0  0  0  0  0  0
   -3.4300   20.9750  -33.4860 O   0  0  0  0  0  0  0  0  0  0  0  0
   -3.8420   22.1040  -31.4710 N   0  0  0  0  0  0  0  0  0  0  0  0
   -4.4220   23.2430  -31.2160 C   0  0  0  0  0  0  0  0  0  0  0  0
   -5.4890   23.6970  -31.9350 N   0  0  0  0  0  0  0  0  0  0  0  0
   -5.7910   25.1460  -31.2020 S   0  0  0  0  0  0  0  0  0  0  0  0
   -4.6580   25.2490  -30.0110 N   0  0  0  0  0  0  0  0  0  0  0  0
   -4.4930   26.0460  -29.3580 H   0  0  0  0  0  0  0  0  0  0  0  0
   -3.9720   24.0840  -30.1580 C   0  0  0  0  0  0  0  0  0  0  0  0
   -2.9430   23.7660  -29.4230 N   0  0  0  0  0  0  0  0  0  0  0  0
   -2.4480   24.4880  -28.2860 C   0  0  0  0  0  0  0  0  0  0  0  0
   -3.2360   24.5630  -27.1310 C   0  0  0  0  0  0  0  0  0  0  0  0
   -4.2030   24.0400  -27.0945 H   0  0  0  0  0  0  0  0  0  0  0  0
   -2.8020   25.2980  -26.0240 C   0  0  0  0  0  0  0  0  0  0  0  0
   -3.4142   25.3262  -25.1106 H   0  0  0  0  0  0  0  0  0  0  0  0
   -1.5880   26.0000  -26.0740 C   0  0  0  0  0  0  0  0  0  0  0  0
   -1.1040   26.7590  -24.8750 C   0  0  0  0  0  0  0  0  0  0  0  0
   -1.4316   26.2453  -23.9591 H   0  0  0  0  0  0  0  0  0  0  0  0
   -0.0054   26.8114  -24.8931 H   0  0  0  0  0  0  0  0  0  0  0  0
   -1.5200   27.7772  -24.8931 H   0  0  0  0  0  0  0  0  0  0  0  0
   -0.8060   25.9410  -27.2370 C   0  0  0  0  0  0  0  0  0  0  0  0
    0.1537   26.4769  -27.2792 H   0  0  0  0  0  0  0  0  0  0  0  0
   -1.2410   25.2040  -28.3430 C   0  0  0  0  0  0  0  0  0  0  0  0
   -0.6355   25.1850  -29.2612 H   0  0  0  0  0  0  0  0  0  0  0  0
   -6.6930   21.0420  -32.7340 C   0  0  0  0  0  0  0  0  0  0  0  0
   -6.7002   22.0932  -33.0579 H   0  0  0  0  0  0  0  0  0  0  0  0
   -7.8960   20.3340  -32.6470 C   0  0  0  0  0  0  0  0  0  0  0  0
   -8.8442   20.8295  -32.9028 H   0  0  0  0  0  0  0  0  0  0  0  0
  1  2  1  0
  2  3  2  0
  3  4  1  0
  3  5  1  0
  5  6  1  0
  5  7  2  0
  7  8  1  0
  8  9  2  0
  8 10  1  0
 10 11  2  0
 11 12  1  0
 12 13  1  0
 13 14  1  0
 14 15  1  0
 14 16  1  0
 16 17  2  3
 17 18  1  0
 18 19  2  0
 19 20  1  0
 19 21  1  0
 21 22  1  0
 21 23  2  0
 23 24  1  0
 24 25  1  0
 24 26  1  0
 24 27  1  0
 23 28  1  0
 28 29  1  0
 28 30  2  0
 30 31  1  0
  7 32  1  0
 32 33  1  0
 32 34  2  0
 34 35  1  0
 34  2  1  0
 16 11  1  0
 30 18  1  0
M  CHG  1  12  -1
M  END
>  <UniqueID>  (8) 
8

>  <SMILES>  (8) 
Cc1ccc(N=c2[nH]s[n-]/c2=N\C(=O)c2ccccc2)cc1

>  <Energy>  (8) 
85.34263546820284

>  <Genealogy>  (8) 
Cc1ccc(N=c2[nH]s[n-]c2=NC(=O)c2ccccc2)cc1 (protonated)
Cc1ccc(N=c2[nH]s[n-]/c2=N\C(=O)c2ccccc2)cc1 (cis-trans isomerization)
Cc1ccc(N=c2[nH]s[n-]/c2=N\C(=O)c2ccccc2)cc1 (3D coordinates assigned)
Cc1ccc(N=c2[nH]s[n-]/c2=N\C(=O)c2ccccc2)cc1 (optimized conformer: 85.34263546820284 kcal/mol)

>  <smiles>  (8) 
Cc1ccc(N=c2[nH]s[nH]c2=NC(=O)c2ccccc2)cc1

>  <score_type>  (8) 
oracle

>  <origin>  (8) 
adgpu

>  <m_score__min__energy>  (8) 
-8.9199999999999999

>  <m_primary>  (8) 
energy

$$$$
8:0
     RDKit          3D

 37 39  0  0  0  0  0  0  0  0999 V2000
   -2.6880   21.6080  -30.5070 H   0  0  0  0  0  0  0  0  0  0  0  0
   -1.9210   21.9950  -29.9160 N   0  0  0  0  0  0  0  0  0  0  0  0
   -1.9150   23.2150  -29.4760 C   0  0  0  0  0  0  0  0  0  0  0  0
   -0.8950   23.7860  -28.7530 C   0  0  0  0  0  0  0  0  0  0  0  0
    0.6070   22.9970  -28.1670 S   0  0  0  0  0  0  0  0  0  0  0  0
   -0.2550   21.4970  -27.7010 C   0  0  0  0  0  0  0  0  0  0  0  0
    0.0900   20.2760  -28.2930 C   0  0  0  0  0  0  0  0  0  0  0  0
    0.8872   20.2376  -29.0499 H   0  0  0  0  0  0  0  0  0  0  0  0
   -0.5790   19.1050  -27.9220 C   0  0  0  0  0  0  0  0  0  0  0  0
   -0.3046   18.1454  -28.3845 H   0  0  0  0  0  0  0  0  0  0  0  0
   -1.5960   19.1530  -26.9640 C   0  0  0  0  0  0  0  0  0  0  0  0
   -2.1202   18.2311  -26.6720 H   0  0  0  0  0  0  0  0  0  0  0  0
   -1.9470   20.3720  -26.3770 C   0  0  0  0  0  0  0  0  0  0  0  0
   -2.7487   20.4088  -25.6248 H   0  0  0  0  0  0  0  0  0  0  0  0
   -1.2800   21.5450  -26.7450 C   0  0  0  0  0  0  0  0  0  0  0  0
   -1.5591   22.5044  -26.2850 H   0  0  0  0  0  0  0  0  0  0  0  0
   -1.2800   25.1070  -28.6050 C   0  0  0  0  0  0  0  0  0  0  0  0
   -0.5520   26.1660  -27.8460 C   0  0  0  0  0  0  0  0  0  0  0  0
   -0.6719   25.9915  -26.7666 H   0  0  0  0  0  0  0  0  0  0  0  0
    0.5164   26.1347  -28.1060 H   0  0  0  0  0  0  0  0  0  0  0  0
   -0.9639   27.1523  -28.1060 H   0  0  0  0  0  0  0  0  0  0  0  0
   -2.4830   25.2970  -29.1890 N   0  0  0  0  0  0  0  0  0  0  0  0
   -2.8670   24.1450  -29.7180 N   0  0  0  0  0  0  0  0  0  0  0  0
   -4.1210   23.9790  -30.4000 C   0  0  0  0  0  0  0  0  0  0  0  0
   -4.2590   23.0380  -31.4330 C   0  0  0  0  0  0  0  0  0  0  0  0
   -3.3925   22.4362  -31.7445 H   0  0  0  0  0  0  0  0  0  0  0  0
   -5.4930   22.8620  -32.0680 C   0  0  0  0  0  0  0  0  0  0  0  0
   -5.5922   22.1236  -32.8773 H   0  0  0  0  0  0  0  0  0  0  0  0
   -6.6040   23.6230  -31.6770 C   0  0  0  0  0  0  0  0  0  0  0  0
   -7.9360   23.4050  -32.3300 C   0  0  0  0  0  0  0  0  0  0  0  0
   -8.7075   23.2787  -31.5561 H   0  0  0  0  0  0  0  0  0  0  0  0
   -8.1839   24.2745  -32.9565 H   0  0  0  0  0  0  0  0  0  0  0  0
   -7.8938   22.5018  -32.9565 H   0  0  0  0  0  0  0  0  0  0  0  0
   -6.4770   24.5330  -30.6170 C   0  0  0  0  0  0  0  0  0  0  0  0
   -7.3517   25.1108  -30.2839 H   0  0  0  0  0  0  0  0  0  0  0  0
   -5.2440   24.7090  -29.9820 C   0  0  0  0  0  0  0  0  0  0  0  0
   -5.1538   25.4234  -29.1504 H   0  0  0  0  0  0  0  0  0  0  0  0
  1  2  1  0
  2  3  2  0
  3  4  1  0
  4  5  1  0
  5  6  1  0
  6  7  2  0
  7  8  1  0
  7  9  1  0
  9 10  1  0
  9 11  2  0
 11 12  1  0
 11 13  1  0
 13 14  1  0
 13 15  2  0
 15 16  1  0
  4 17  2  0
 17 18  1  0
 18 19  1  0
 18 20  1  0
 18 21  1  0
 17 22  1  0
 22 23  1  0
 23 24  1  0
 24 25  2  0
 25 26  1  0
 25 27  1  0
 27 28  1  0
 27 29  2  0
 29 30  1  0
 30 31  1  0
 30 32  1  0
 30 33  1  0
 29 34  1  0
 34 35  1  0
 34 36  2  0
 36 37  1  0
 23  3  1  0
 36 24  1  0
 15  6  1  0
M  CHG  1  22  -1
M  END
>  <UniqueID>  (9) 
9

>  <SMILES>  (9) 
[H]/N=c1/c(Sc2ccccc2)c(C)[n-]n1-c1ccc(C)cc1

>  <Energy>  (9) 
71.3866325038691

>  <Genealogy>  (9) 
Cc1ccc(-n2[n-]c(C)c(Sc3ccccc3)c2=N)cc1 (protonated)
[H]/N=c1/c(Sc2ccccc2)c(C)[n-]n1-c1ccc(C)cc1 (cis-trans isomerization)
[H]/N=c1/c(Sc2ccccc2)c(C)[n-]n1-c1ccc(C)cc1 (3D coordinates assigned)
[H]/N=c1/c(Sc2ccccc2)c(C)[n-]n1-c1ccc(C)cc1 (optimized conformer: 71.3866325038691 kcal/mol)

>  <smiles>  (9) 
Cc1ccc(-n2[nH]c(C)c(Sc3ccccc3)c2=N)cc1

>  <score_type>  (9) 
oracle

>  <origin>  (9) 
adgpu

>  <m_score__min__energy>  (9) 
-8.7899999999999991

>  <m_primary>  (9) 
energy

$$$$
9:0
     RDKit          3D

 55 56  0  0  0  0  0  0  0  0999 V2000
   -1.6590   20.7140  -30.3800 C   0  0  0  0  0  0  0  0  0  0  0  0
   -0.5260   20.4650  -31.3730 C   0  0  0  0  0  0  0  0  0  0  0  0
   -0.7570   19.1980  -32.2080 C   0  0  0  0  0  0  0  0  0  0  0  0
   -1.3160   19.4950  -33.5400 N   0  0  0  0  0  0  0  0  0  0  0  0
   -1.0720   20.7910  -34.1990 C   0  0  0  0  0  0  0  0  0  0  0  0
   -0.0680   20.6820  -35.3550 C   0  0  0  0  0  0  0  0  0  0  0  0
    0.5570   22.0290  -35.7130 C   0  0  0  0  0  0  0  0  0  0  0  0
   -2.3330   18.6210  -34.0650 C   0  0  0  0  0  0  0  0  0  0  0  0
   -1.9610   17.5480  -34.8130 N   0  0  0  0  0  0  0  0  0  0  0  0
   -2.8790   16.6910  -35.3260 C   0  0  0  0  0  0  0  0  0  0  0  0
   -4.2000   16.8940  -35.0970 N   0  0  0  0  0  0  0  0  0  0  0  0
   -4.6370   17.9530  -34.3660 C   0  0  0  0  0  0  0  0  0  0  0  0
   -6.1130   18.1340  -34.1660 C   0  0  0  0  0  0  0  0  0  0  0  0
   -3.7010   18.8620  -33.8340 C   0  0  0  0  0  0  0  0  0  0  0  0
   -4.1390   20.0340  -33.1120 C   0  0  0  0  0  0  0  0  0  0  0  0
   -4.5090   21.0120  -32.5100 C   0  0  0  0  0  0  0  0  0  0  0  0
   -4.9500   22.1810  -31.7970 C   0  0  0  0  0  0  0  0  0  0  0  0
   -6.3150   22.4170  -31.6200 C   0  0  0  0  0  0  0  0  0  0  0  0
   -6.7460   23.5540  -30.9340 C   0  0  0  0  0  0  0  0  0  0  0  0
   -5.8140   24.4650  -30.4090 C   0  0  0  0  0  0  0  0  0  0  0  0
   -6.3090   25.7040  -29.7130 C   0  0  0  0  0  0  0  0  0  0  0  0
   -4.4340   24.2430  -30.6040 C   0  0  0  0  0  0  0  0  0  0  0  0
   -3.4910   25.2060  -30.1020 N   0  0  0  0  0  0  0  0  0  0  0  0
   -2.1800   24.8820  -29.0140 S   0  0  0  0  0  0  0  0  0  0  0  0
   -2.8040   24.5290  -27.3840 C   0  0  0  0  0  0  0  0  0  0  0  0
   -1.2420   26.0550  -28.9740 O   0  0  0  0  0  0  0  0  0  0  0  0
   -1.4310   23.6770  -29.5100 O   0  0  0  0  0  0  0  0  0  0  0  0
   -4.0120   23.0880  -31.2900 C   0  0  0  0  0  0  0  0  0  0  0  0
   -1.2724   20.6290  -29.3537 H   0  0  0  0  0  0  0  0  0  0  0  0
   -2.0676   21.7234  -30.5355 H   0  0  0  0  0  0  0  0  0  0  0  0
   -2.4532   19.9690  -30.5355 H   0  0  0  0  0  0  0  0  0  0  0  0
   -0.4528   21.3280  -32.0511 H   0  0  0  0  0  0  0  0  0  0  0  0
    0.4025   20.3276  -30.7995 H   0  0  0  0  0  0  0  0  0  0  0  0
    0.2047   18.6796  -32.3364 H   0  0  0  0  0  0  0  0  0  0  0  0
   -1.4849   18.5716  -31.6715 H   0  0  0  0  0  0  0  0  0  0  0  0
   -2.0256   21.1709  -34.5944 H   0  0  0  0  0  0  0  0  0  0  0  0
   -0.6454   21.4728  -33.4486 H   0  0  0  0  0  0  0  0  0  0  0  0
    0.7333   19.9874  -35.0625 H   0  0  0  0  0  0  0  0  0  0  0  0
   -0.6129   20.3197  -36.2392 H   0  0  0  0  0  0  0  0  0  0  0  0
    0.8093   22.5728  -34.7907 H   0  0  0  0  0  0  0  0  0  0  0  0
    1.4706   21.8641  -36.3030 H   0  0  0  0  0  0  0  0  0  0  0  0
   -0.1588   22.6201  -36.3030 H   0  0  0  0  0  0  0  0  0  0  0  0
   -2.5515   15.8307  -35.9282 H   0  0  0  0  0  0  0  0  0  0  0  0
   -6.3365   18.1614  -33.0893 H   0  0  0  0  0  0  0  0  0  0  0  0
   -6.4330   19.0781  -34.6310 H   0  0  0  0  0  0  0  0  0  0  0  0
   -6.6516   17.2952  -34.6310 H   0  0  0  0  0  0  0  0  0  0  0  0
   -7.0518   21.7059  -32.0217 H   0  0  0  0  0  0  0  0  0  0  0  0
   -7.8227   23.7379  -30.8036 H   0  0  0  0  0  0  0  0  0  0  0  0
   -6.2517   25.5605  -28.6239 H   0  0  0  0  0  0  0  0  0  0  0  0
   -5.6845   26.5618  -30.0032 H   0  0  0  0  0  0  0  0  0  0  0  0
   -7.3526   25.8954  -30.0032 H   0  0  0  0  0  0  0  0  0  0  0  0
   -2.1062   24.9237  -26.6308 H   0  0  0  0  0  0  0  0  0  0  0  0
   -3.7879   25.0043  -27.2571 H   0  0  0  0  0  0  0  0  0  0  0  0
   -2.9034   23.4409  -27.2571 H   0  0  0  0  0  0  0  0  0  0  0  0
   -2.9376   22.8971  -31.4285 H   0  0  0  0  0  0  0  0  0  0  0  0
  1  2  1  0
  2  3  1  0
  3  4  1  0
  4  5  1  0
  5  6  1  0
  6  7  1  0
  4  8  1  0
  8  9  2  0
  9 10  1  0
 10 11  2  0
 11 12  1  0
 12 13  1  0
 12 14  2  0
 14 15  1  0
 15 16  3  0
 16 17  1  0
 17 18  2  0
 18 19  1  0
 19 20  2  0
 20 21  1  0
 20 22  1  0
 22 23  1  0
 23 24  1  0
 24 25  1  0
 24 26  2  0
 24 27  2  0
 22 28  2  0
 14  8  1  0
 28 17  1  0
  1 29  1  0
  1 30  1  0
  1 31  1  0
  2 32  1  0
  2 33  1  0
  3 34  1  0
  3 35  1  0
  5 36  1  0
  5 37  1  0
  6 38  1  0
  6 39  1  0
  7 40  1  0
  7 41  1  0
  7 42  1  0
 10 43  1  0
 13 44  1  0
 13 45  1  0
 13 46  1  0
 18 47  1  0
 19 48  1  0
 21 49  1  0
 21 50  1  0
 21 51  1  0
 25 52  1  0
 25 53  1  0
 25 54  1  0
 28 55  1  0
M  CHG  1  23  -1
M  END
>  <UniqueID>  (10) 
10

>  <SMILES>  (10) 
CCCN(CCC)c1ncnc(C)c1C#Cc1ccc(C)c([N-]S(C)(=O)=O)c1

>  <Energy>  (10) 
44.720497190599495

>  <Genealogy>  (10) 
CCCN(CCC)c1ncnc(C)c1C#Cc1ccc(C)c([N-]S(C)(=O)=O)c1 (protonated)
CCCN(CCC)c1ncnc(C)c1C#Cc1ccc(C)c([N-]S(C)(=O)=O)c1 (3D coordinates assigned)
CCCN(CCC)c1ncnc(C)c1C#Cc1ccc(C)c([N-]S(C)(=O)=O)c1 (optimized conformer: 44.720497190599495 kcal/mol)

>  <smiles>  (10) 
CCCN(CCC)c1ncnc(C)c1C#Cc1ccc(C)c(NS(C)(=O)=O)c1

>  <score_type>  (10) 
oracle

>  <origin>  (10) 
adgpu

>  <m_score__min__energy>  (10) 
-10.73

>  <m_primary>  (10) 
energy

$$$$
10:0
     RDKit          3D

 47 50  0  0  0  0  0  0  0  0999 V2000
   -5.9960   25.1160  -30.8430 C   0  0  0  0  0  0  0  0  0  0  0  0
   -5.1590   23.9340  -31.2220 C   0  0  0  0  0  0  0  0  0  0  0  0
   -5.3570   23.2110  -32.3350 N   0  0  0  0  0  0  0  0  0  0  0  0
   -4.3710   22.2930  -32.3390 C   0  0  0  0  0  0  0  0  0  0  0  0
   -4.1360   21.3380  -33.4650 C   0  0  0  0  0  0  0  0  0  0  0  0
   -4.8650   20.0570  -33.2020 C   0  0  0  0  0  0  0  0  0  0  0  0
   -4.3180   18.7780  -33.1880 C   0  0  0  0  0  0  0  0  0  0  0  0
   -5.2500   17.8700  -32.8210 N   0  0  0  0  0  0  0  0  0  0  0  0
   -6.3770   18.5660  -32.5910 C   0  0  0  0  0  0  0  0  0  0  0  0
   -7.6050   18.0670  -32.1590 C   0  0  0  0  0  0  0  0  0  0  0  0
   -8.6510   18.9840  -31.9470 C   0  0  0  0  0  0  0  0  0  0  0  0
   -8.4470   20.3660  -32.1670 C   0  0  0  0  0  0  0  0  0  0  0  0
   -9.7570   21.4980  -31.8880 Cl  0  0  0  0  0  0  0  0  0  0  0  0
   -7.1960   20.8400  -32.6030 C   0  0  0  0  0  0  0  0  0  0  0  0
   -6.1810   19.9050  -32.8070 C   0  0  0  0  0  0  0  0  0  0  0  0
   -3.5420   22.4020  -31.2800 N   0  0  0  0  0  0  0  0  0  0  0  0
   -4.0490   23.4250  -30.5610 C   0  0  0  0  0  0  0  0  0  0  0  0
   -3.4240   23.9150  -29.3130 C   0  0  0  0  0  0  0  0  0  0  0  0
   -2.0430   24.1590  -29.2820 C   0  0  0  0  0  0  0  0  0  0  0  0
   -1.4280   24.6110  -28.1120 C   0  0  0  0  0  0  0  0  0  0  0  0
   -2.1750   24.8180  -26.9350 C   0  0  0  0  0  0  0  0  0  0  0  0
   -1.5370   25.2880  -25.7180 N   0  0  0  0  0  0  0  0  0  0  0  0
   -1.6230   26.7020  -25.3280 C   0  0  0  0  0  0  0  0  0  0  0  0
   -0.7960   24.3590  -24.8560 C   0  0  0  0  0  0  0  0  0  0  0  0
   -3.5590   24.5490  -26.9700 C   0  0  0  0  0  0  0  0  0  0  0  0
   -4.1730   24.0980  -28.1420 C   0  0  0  0  0  0  0  0  0  0  0  0
   -6.0493   25.1912  -29.7469 H   0  0  0  0  0  0  0  0  0  0  0  0
   -5.5439   26.0317  -31.2518 H   0  0  0  0  0  0  0  0  0  0  0  0
   -7.0098   24.9936  -31.2518 H   0  0  0  0  0  0  0  0  0  0  0  0
   -6.0910   23.3550  -33.0650 H   0  0  0  0  0  0  0  0  0  0  0  0
   -4.5025   21.7812  -34.4027 H   0  0  0  0  0  0  0  0  0  0  0  0
   -3.0586   21.1328  -33.5492 H   0  0  0  0  0  0  0  0  0  0  0  0
   -3.2742   18.5391  -33.4400 H   0  0  0  0  0  0  0  0  0  0  0  0
   -5.1130   16.8390  -32.7200 H   0  0  0  0  0  0  0  0  0  0  0  0
   -7.7516   16.9901  -31.9892 H   0  0  0  0  0  0  0  0  0  0  0  0
   -9.6335   18.6237  -31.6080 H   0  0  0  0  0  0  0  0  0  0  0  0
   -7.0240   21.9124  -32.7772 H   0  0  0  0  0  0  0  0  0  0  0  0
   -1.4393   23.9930  -30.1865 H   0  0  0  0  0  0  0  0  0  0  0  0
   -0.3458   24.8081  -28.1093 H   0  0  0  0  0  0  0  0  0  0  0  0
   -1.6277   26.7801  -24.2308 H   0  0  0  0  0  0  0  0  0  0  0  0
   -0.7563   27.2468  -25.7306 H   0  0  0  0  0  0  0  0  0  0  0  0
   -2.5493   27.1377  -25.7306 H   0  0  0  0  0  0  0  0  0  0  0  0
   -0.9906   24.6030  -23.8012 H   0  0  0  0  0  0  0  0  0  0  0  0
   -1.1232   23.3289  -25.0604 H   0  0  0  0  0  0  0  0  0  0  0  0
    0.2811   24.4490  -25.0604 H   0  0  0  0  0  0  0  0  0  0  0  0
   -4.1634   24.6961  -26.0628 H   0  0  0  0  0  0  0  0  0  0  0  0
   -5.2522   23.8850  -28.1456 H   0  0  0  0  0  0  0  0  0  0  0  0
  1  2  1  0
  2  3  1  0
  3  4  1  0
  4  5  1  0
  5  6  1  0
  6  7  2  0
  7  8  1  0
  8  9  1  0
  9 10  2  0
 10 11  1  0
 11 12  2  0
 12 13  1  0
 12 14  1  0
 14 15  2  0
  4 16  2  0
 16 17  1  0
 17 18  1  0
 18 19  2  0
 19 20  1  0
 20 21  2  0
 21 22  1  0
 22 23  1  0
 22 24  1  0
 21 25  1  0
 25 26  2  0
 17  2  2  0
 26 18  1  0
 15  6  1  0
 15  9  1  0
  1 27  1  0
  1 28  1  0
  1 29  1  0
  3 30  1  0
  5 31  1  0
  5 32  1  0
  7 33  1  0
  8 34  1  0
 10 35  1  0
 11 36  1  0
 14 37  1  0
 19 38  1  0
 20 39  1  0
 23 40  1  0
 23 41  1  0
 23 42  1  0
 24 43  1  0
 24 44  1  0
 24 45  1  0
 25 46  1  0
 26 47  1  0
M  END
>  <UniqueID>  (11) 
11

>  <SMILES>  (11) 
Cc1[nH]c(Cc2c[nH]c3ccc(Cl)cc23)nc1-c1ccc(N(C)C)cc1

>  <Energy>  (11) 
113.86164884781523

>  <Genealogy>  (11) 
Cc1[nH]c(Cc2c[nH]c3ccc(Cl)cc23)nc1-c1ccc(N(C)C)cc1 (3D coordinates assigned)
Cc1[nH]c(Cc2c[nH]c3ccc(Cl)cc23)nc1-c1ccc(N(C)C)cc1 (optimized conformer: 113.86164884781523 kcal/mol)

>  <smiles>  (11) 
Cc1[nH]c(Cc2c[nH]c3ccc(Cl)cc23)nc1-c1ccc(N(C)C)cc1

>  <score_type>  (11) 
oracle

>  <origin>  (11) 
adgpu

>  <m_score__min__energy>  (11) 
-9.25

>  <m_primary>  (11) 
energy

$$$$
11:0
     RDKit          3D

 46 50  0  0  0  0  0  0  0  0999 V2000
   -6.8510   16.3640  -33.2410 C   0  0  0  0  0  0  0  0  0  0  0  0
   -6.7590   17.6570  -32.7190 C   0  0  0  0  0  0  0  0  0  0  0  0
   -5.6020   18.4300  -32.9240 C   0  0  0  0  0  0  0  0  0  0  0  0
   -5.5020   19.8030  -32.3690 C   0  0  0  0  0  0  0  0  0  0  0  0
   -6.3320   20.8410  -32.8690 C   0  0  0  0  0  0  0  0  0  0  0  0
   -6.2400   22.1450  -32.3560 C   0  0  0  0  0  0  0  0  0  0  0  0
   -5.3270   22.3840  -31.3340 C   0  0  0  0  0  0  0  0  0  0  0  0
   -4.4990   21.3910  -30.8410 C   0  0  0  0  0  0  0  0  0  0  0  0
   -4.5690   20.0930  -31.3460 C   0  0  0  0  0  0  0  0  0  0  0  0
   -3.5320   21.9320  -29.8160 C   0  0  0  0  0  0  0  0  0  0  0  0
   -3.9700   23.3660  -29.7950 C   0  0  0  0  0  0  0  0  0  0  0  0
   -3.2520   24.5390  -29.7610 C   0  0  0  0  0  0  0  0  0  0  0  0
   -3.8640   25.4360  -30.5710 N   0  0  0  0  0  0  0  0  0  0  0  0
   -4.9060   24.8520  -31.1550 N   0  0  0  0  0  0  0  0  0  0  0  0
   -4.9880   23.6100  -30.6530 C   0  0  0  0  0  0  0  0  0  0  0  0
   -4.5410   17.8810  -33.6650 C   0  0  0  0  0  0  0  0  0  0  0  0
   -4.6340   16.5870  -34.1860 C   0  0  0  0  0  0  0  0  0  0  0  0
   -5.7880   15.8180  -33.9750 C   0  0  0  0  0  0  0  0  0  0  0  0
   -5.8780   14.4160  -34.5370 C   0  0  0  0  0  0  0  0  0  0  0  0
   -4.9750   13.4720  -33.8320 N   0  0  0  0  0  0  0  0  0  0  0  0
   -4.9450   13.7950  -32.3840 C   0  0  0  0  0  0  0  0  0  0  0  0
   -3.6760   13.2310  -31.7210 C   0  0  0  0  0  0  0  0  0  0  0  0
   -2.4640   13.7430  -32.2610 O   0  0  0  0  0  0  0  0  0  0  0  0
   -2.5940   14.2370  -33.5860 C   0  0  0  0  0  0  0  0  0  0  0  0
   -3.6110   13.4490  -34.4300 C   0  0  0  0  0  0  0  0  0  0  0  0
   -7.7625   15.7710  -33.0752 H   0  0  0  0  0  0  0  0  0  0  0  0
   -7.5984   18.0737  -32.1430 H   0  0  0  0  0  0  0  0  0  0  0  0
   -7.0557   20.6210  -33.6677 H   0  0  0  0  0  0  0  0  0  0  0  0
   -6.8718   22.9542  -32.7510 H   0  0  0  0  0  0  0  0  0  0  0  0
   -3.9080   19.3058  -30.9544 H   0  0  0  0  0  0  0  0  0  0  0  0
   -3.6604   21.4494  -28.8359 H   0  0  0  0  0  0  0  0  0  0  0  0
   -2.4683   21.7707  -30.0450 H   0  0  0  0  0  0  0  0  0  0  0  0
   -2.3376   24.7179  -29.1763 H   0  0  0  0  0  0  0  0  0  0  0  0
   -3.6306   18.4741  -33.8362 H   0  0  0  0  0  0  0  0  0  0  0  0
   -3.7971   16.1694  -34.7649 H   0  0  0  0  0  0  0  0  0  0  0  0
   -6.9135   14.0590  -34.4352 H   0  0  0  0  0  0  0  0  0  0  0  0
   -5.5705   14.4541  -35.5924 H   0  0  0  0  0  0  0  0  0  0  0  0
   -5.3770   12.5080  -33.9170 H   0  0  0  0  0  0  0  0  0  0  0  0
   -4.9615   14.8877  -32.2585 H   0  0  0  0  0  0  0  0  0  0  0  0
   -5.8239   13.3395  -31.9043 H   0  0  0  0  0  0  0  0  0  0  0  0
   -3.7077   13.4762  -30.6491 H   0  0  0  0  0  0  0  0  0  0  0  0
   -3.6745   12.1470  -31.9081 H   0  0  0  0  0  0  0  0  0  0  0  0
   -2.9189   15.2868  -33.5373 H   0  0  0  0  0  0  0  0  0  0  0  0
   -1.6132   14.1300  -34.0723 H   0  0  0  0  0  0  0  0  0  0  0  0
   -3.6572   13.8932  -35.4352 H   0  0  0  0  0  0  0  0  0  0  0  0
   -3.2773   12.4016  -34.4706 H   0  0  0  0  0  0  0  0  0  0  0  0
  1  2  2  0
  2  3  1  0
  3  4  1  0
  4  5  2  0
  5  6  1  0
  6  7  2  0
  7  8  1  0
  8  9  2  0
  8 10  1  0
 10 11  1  0
 11 12  2  0
 12 13  1  0
 13 14  1  0
 14 15  2  0
  3 16  2  0
 16 17  1  0
 17 18  2  0
 18 19  1  0
 19 20  1  0
 20 21  1  0
 21 22  1  0
 22 23  1  0
 23 24  1  0
 24 25  1  0
 18  1  1  0
 25 20  1  0
  9  4  1  0
 15 11  1  0
 15  7  1  0
  1 26  1  0
  2 27  1  0
  5 28  1  0
  6 29  1  0
  9 30  1  0
 10 31  1  0
 10 32  1  0
 12 33  1  0
 16 34  1  0
 17 35  1  0
 19 36  1  0
 19 37  1  0
 20 38  1  0
 21 39  1  0
 21 40  1  0
 22 41  1  0
 22 42  1  0
 24 43  1  0
 24 44  1  0
 25 45  1  0
 25 46  1  0
M  CHG  2  13  -1  20   1
M  END
>  <UniqueID>  (12) 
12

>  <SMILES>  (12) 
c1cc(-c2ccc3c(c2)Cc2c[n-]nc2-3)ccc1C[NH+]1CCOCC1

>  <Energy>  (12) 
142.38651004696055

>  <Genealogy>  (12) 
c1cc(-c2ccc3c(c2)Cc2c[n-]nc2-3)ccc1C[NH+]1CCOCC1 (protonated)
c1cc(-c2ccc3c(c2)Cc2c[n-]nc2-3)ccc1C[NH+]1CCOCC1 (3D coordinates assigned)
c1cc(-c2ccc3c(c2)Cc2c[n-]nc2-3)ccc1C[NH+]1CCOCC1 (nonaromatic ring conformer: 142.38651004696055 kcal/mol)

>  <smiles>  (12) 
c1cc(-c2ccc3c(c2)Cc2c[nH]nc2-3)ccc1CN1CCOCC1

>  <score_type>  (12) 
oracle

>  <origin>  (12) 
adgpu

>  <m_score__min__energy>  (12) 
-9.5099999999999998

>  <m_primary>  (12) 
energy

$$$$
12:0
     RDKit          3D

 38 41  0  0  0  0  0  0  0  0999 V2000
   -6.1360   24.1900  -31.0250 C   0  0  0  0  0  0  0  0  0  0  0  0
   -5.0970   24.6450  -30.2220 C   0  0  0  0  0  0  0  0  0  0  0  0
   -3.7600   23.6600  -30.4790 S   0  0  0  0  0  0  0  0  0  0  0  0
   -4.4890   22.6500  -31.6100 C   0  0  0  0  0  0  0  0  0  0  0  0
   -3.8510   21.5090  -32.2790 C   0  0  0  0  0  0  0  0  0  0  0  0
   -4.4100   20.2820  -32.3550 N   0  0  0  0  0  0  0  0  0  0  0  0
   -3.6160   19.4020  -33.0220 C   0  0  0  0  0  0  0  0  0  0  0  0
   -4.0080   17.9600  -33.1970 C   0  0  0  0  0  0  0  0  0  0  0  0
   -4.9850   17.7770  -34.2990 N   0  0  1  0  0  0  0  0  0  0  0  0
   -5.8540   16.5860  -34.1380 C   0  0  0  0  0  0  0  0  0  0  0  0
   -6.7480   16.6710  -32.8900 C   0  0  0  0  0  0  0  0  0  0  0  0
   -7.3530   18.0380  -32.7070 C   0  0  0  0  0  0  0  0  0  0  0  0
   -8.3670   18.2150  -31.7530 C   0  0  0  0  0  0  0  0  0  0  0  0
   -8.9090   19.4820  -31.5260 C   0  0  0  0  0  0  0  0  0  0  0  0
   -8.4410   20.5830  -32.2450 C   0  0  0  0  0  0  0  0  0  0  0  0
   -7.4260   20.4210  -33.1900 C   0  0  0  0  0  0  0  0  0  0  0  0
   -6.8620   19.1560  -33.4160 C   0  0  0  0  0  0  0  0  0  0  0  0
   -5.8110   18.9900  -34.4900 C   0  0  0  0  0  0  0  0  0  0  0  0
   -2.4080   19.9220  -33.4790 C   0  0  0  0  0  0  0  0  0  0  0  0
   -2.3480   21.5420  -33.0340 S   0  0  0  0  0  0  0  0  0  0  0  0
   -5.7990   23.0740  -31.8010 C   0  0  0  0  0  0  0  0  0  0  0  0
   -7.1293   24.6619  -31.0488 H   0  0  0  0  0  0  0  0  0  0  0  0
   -5.1421   25.5033  -29.5355 H   0  0  0  0  0  0  0  0  0  0  0  0
   -3.1059   17.3719  -33.4214 H   0  0  0  0  0  0  0  0  0  0  0  0
   -4.4826   17.6223  -32.2639 H   0  0  0  0  0  0  0  0  0  0  0  0
   -4.4390   17.6440  -35.1840 H   0  0  0  0  0  0  0  0  0  0  0  0
   -6.4966   16.4960  -35.0263 H   0  0  0  0  0  0  0  0  0  0  0  0
   -5.1998   15.7096  -34.0202 H   0  0  0  0  0  0  0  0  0  0  0  0
   -7.5603   15.9357  -32.9870 H   0  0  0  0  0  0  0  0  0  0  0  0
   -6.1181   16.4637  -32.0124 H   0  0  0  0  0  0  0  0  0  0  0  0
   -8.7368   17.3513  -31.1810 H   0  0  0  0  0  0  0  0  0  0  0  0
   -9.7061   19.6124  -30.7793 H   0  0  0  0  0  0  0  0  0  0  0  0
   -8.8722   21.5792  -32.0670 H   0  0  0  0  0  0  0  0  0  0  0  0
   -7.0664   21.2899  -33.7606 H   0  0  0  0  0  0  0  0  0  0  0  0
   -6.3132   18.9235  -35.4664 H   0  0  0  0  0  0  0  0  0  0  0  0
   -5.1404   19.8602  -34.4356 H   0  0  0  0  0  0  0  0  0  0  0  0
   -1.6324   19.3718  -34.0318 H   0  0  0  0  0  0  0  0  0  0  0  0
   -6.5000   22.5826  -32.4918 H   0  0  0  0  0  0  0  0  0  0  0  0
  1  2  2  0
  2  3  1  0
  3  4  1  0
  4  5  1  0
  5  6  2  0
  6  7  1  0
  7  8  1  0
  8  9  1  0
  9 10  1  0
 10 11  1  0
 11 12  1  0
 12 13  2  0
 13 14  1  0
 14 15  2  0
 15 16  1  0
 16 17  2  0
 17 18  1  0
  7 19  2  0
 19 20  1  0
  4 21  2  0
 21  1  1  0
 20  5  1  0
 18  9  1  0
 17 12  1  0
  1 22  1  0
  2 23  1  0
  8 24  1  0
  8 25  1  0
  9 26  1  6
 10 27  1  0
 10 28  1  0
 11 29  1  0
 11 30  1  0
 13 31  1  0
 14 32  1  0
 15 33  1  0
 16 34  1  0
 18 35  1  0
 18 36  1  0
 19 37  1  0
 21 38  1  0
M  CHG  1   9   1
M  END
>  <UniqueID>  (13) 
13

>  <SMILES>  (13) 
c1csc(-c2nc(C[N@H+]3CCc4ccccc4C3)cs2)c1

>  <Energy>  (13) 
101.77911778751306

>  <Genealogy>  (13) 
c1csc(-c2nc(C[NH+]3CCc4ccccc4C3)cs2)c1 (protonated)
c1csc(-c2nc(C[N@H+]3CCc4ccccc4C3)cs2)c1 (chirality)
c1csc(-c2nc(C[N@H+]3CCc4ccccc4C3)cs2)c1 (3D coordinates assigned)
c1csc(-c2nc(C[N@H+]3CCc4ccccc4C3)cs2)c1 (nonaromatic ring conformer: 101.77911778751306 kcal/mol)

>  <smiles>  (13) 
c1csc(-c2nc(CN3CCc4ccccc4C3)cs2)c1

>  <score_type>  (13) 
oracle

>  <origin>  (13) 
adgpu

>  <m_score__min__energy>  (13) 
-7.4299999999999997

>  <m_primary>  (13) 
energy

$$$$
13:0
     RDKit          3D

 45 48  0  0  0  0  0  0  0  0999 V2000
   -2.5310   21.2300  -32.2120 C   0  0  0  0  0  0  0  0  0  0  0  0
   -1.1990   21.5520  -31.9410 C   0  0  0  0  0  0  0  0  0  0  0  0
   -0.7130   21.4820  -30.6320 C   0  0  0  0  0  0  0  0  0  0  0  0
   -1.5510   21.0610  -29.5840 C   0  0  0  0  0  0  0  0  0  0  0  0
   -1.0340   21.0160  -28.1650 C   0  0  0  0  0  0  0  0  0  0  0  0
   -0.2480   22.2790  -27.7470 C   0  0  0  0  0  0  0  0  0  0  0  0
   -1.0840   23.3640  -27.1900 N   0  0  0  0  0  0  0  0  0  0  0  0
   -0.4060   24.6600  -26.9770 C   0  0  0  0  0  0  0  0  0  0  0  0
   -0.8120   25.7430  -27.9980 C   0  0  0  0  0  0  0  0  0  0  0  0
   -1.6710   25.2490  -29.0010 O   0  0  0  0  0  0  0  0  0  0  0  0
   -2.8270   24.7130  -28.3990 C   0  0  1  0  0  0  0  0  0  0  0  0
   -3.8680   24.4680  -29.4530 C   0  0  0  0  0  0  0  0  0  0  0  0
   -4.6990   23.4080  -29.4500 N   0  0  0  0  0  0  0  0  0  0  0  0
   -5.3730   23.5720  -30.6120 C   0  0  0  0  0  0  0  0  0  0  0  0
   -6.4270   22.6520  -31.0870 C   0  0  0  0  0  0  0  0  0  0  0  0
   -6.2550   21.9030  -32.2590 C   0  0  0  0  0  0  0  0  0  0  0  0
   -7.2710   21.0490  -32.6830 C   0  0  0  0  0  0  0  0  0  0  0  0
   -8.4140   20.9560  -31.9560 N   0  0  0  0  0  0  0  0  0  0  0  0
   -8.5880   21.6640  -30.8390 N   0  0  0  0  0  0  0  0  0  0  0  0
   -7.6290   22.5110  -30.3800 C   0  0  0  0  0  0  0  0  0  0  0  0
   -4.9650   24.6620  -31.2950 N   0  0  0  0  0  0  0  0  0  0  0  0
   -4.0160   25.2130  -30.5620 N   0  0  0  0  0  0  0  0  0  0  0  0
   -2.4840   23.4020  -27.6660 C   0  0  0  0  0  0  0  0  0  0  0  0
   -2.9010   20.7750  -29.8630 C   0  0  0  0  0  0  0  0  0  0  0  0
   -3.3830   20.8480  -31.1740 C   0  0  0  0  0  0  0  0  0  0  0  0
   -2.9089   21.2774  -33.2440 H   0  0  0  0  0  0  0  0  0  0  0  0
   -0.5314   21.8611  -32.7588 H   0  0  0  0  0  0  0  0  0  0  0  0
    0.3307   21.7578  -30.4206 H   0  0  0  0  0  0  0  0  0  0  0  0
   -1.8923   20.9014  -27.4867 H   0  0  0  0  0  0  0  0  0  0  0  0
   -0.3344   20.1692  -28.1057 H   0  0  0  0  0  0  0  0  0  0  0  0
    0.4901   21.9881  -26.9850 H   0  0  0  0  0  0  0  0  0  0  0  0
    0.2138   22.6778  -28.6623 H   0  0  0  0  0  0  0  0  0  0  0  0
   -0.6553   25.0216  -25.9685 H   0  0  0  0  0  0  0  0  0  0  0  0
    0.6726   24.4850  -27.1032 H   0  0  0  0  0  0  0  0  0  0  0  0
   -1.3255   26.5559  -27.4636 H   0  0  0  0  0  0  0  0  0  0  0  0
    0.1058   26.0968  -28.4905 H   0  0  0  0  0  0  0  0  0  0  0  0
   -3.2214   25.4280  -27.6619 H   0  0  0  0  0  0  0  0  0  0  0  0
   -5.3248   21.9887  -32.8398 H   0  0  0  0  0  0  0  0  0  0  0  0
   -7.1480   20.4543  -33.6002 H   0  0  0  0  0  0  0  0  0  0  0  0
   -7.7959   23.0843  -29.4561 H   0  0  0  0  0  0  0  0  0  0  0  0
   -3.4830   26.0690  -30.8280 H   0  0  0  0  0  0  0  0  0  0  0  0
   -3.1534   23.2978  -26.7994 H   0  0  0  0  0  0  0  0  0  0  0  0
   -2.6142   22.5770  -28.3819 H   0  0  0  0  0  0  0  0  0  0  0  0
   -3.5805   20.4926  -29.0454 H   0  0  0  0  0  0  0  0  0  0  0  0
   -4.4342   20.6042  -31.3874 H   0  0  0  0  0  0  0  0  0  0  0  0
  1  2  2  0
  2  3  1  0
  3  4  2  0
  4  5  1  0
  5  6  1  0
  6  7  1  0
  7  8  1  0
  8  9  1  0
  9 10  1  0
 10 11  1  0
 11 12  1  0
 12 13  2  0
 13 14  1  0
 14 15  1  0
 15 16  2  0
 16 17  1  0
 17 18  2  0
 18 19  1  0
 19 20  2  0
 14 21  2  0
 21 22  1  0
 11 23  1  0
  4 24  1  0
 24 25  2  0
 25  1  1  0
 23  7  1  0
 22 12  1  0
 20 15  1  0
  1 26  1  0
  2 27  1  0
  3 28  1  0
  5 29  1  0
  5 30  1  0
  6 31  1  0
  6 32  1  0
  8 33  1  0
  8 34  1  0
  9 35  1  0
  9 36  1  0
 11 37  1  1
 16 38  1  0
 17 39  1  0
 20 40  1  0
 22 41  1  0
 23 42  1  0
 23 43  1  0
 24 44  1  0
 25 45  1  0
M  END
>  <UniqueID>  (14) 
14

>  <SMILES>  (14) 
c1ccc(CCN2CCO[C@@H](c3nc(-c4ccnnc4)n[nH]3)C2)cc1

>  <Energy>  (14) 
99.16708435923682

>  <Genealogy>  (14) 
c1ccc(CCN2CCO[C@@H](c3nc(-c4ccnnc4)n[nH]3)C2)cc1 (chirality)
c1ccc(CCN2CCO[C@@H](c3nc(-c4ccnnc4)n[nH]3)C2)cc1 (3D coordinates assigned)
c1ccc(CCN2CCO[C@@H](c3nc(-c4ccnnc4)n[nH]3)C2)cc1 (nonaromatic ring conformer: 99.16708435923682 kcal/mol)

>  <smiles>  (14) 
c1ccc(CCN2CCOC(c3nc(-c4ccnnc4)n[nH]3)C2)cc1

>  <score_type>  (14) 
oracle

>  <origin>  (14) 
adgpu

>  <m_score__min__energy>  (14) 
-8.3499999999999996

>  <m_primary>  (14) 
energy

$$$$
14:0
     RDKit          3D

 31 32  0  0  0  0  0  0  0  0999 V2000
   -5.6060   19.3650  -33.7580 C   0  0  0  0  0  0  0  0  0  0  0  0
   -4.5080   20.5940  -32.9860 S   0  0  0  0  0  0  0  0  0  0  0  0
   -5.8650   21.5430  -32.2870 C   0  0  0  0  0  0  0  0  0  0  0  0
   -7.1730   21.0580  -32.4130 C   0  0  0  0  0  0  0  0  0  0  0  0
   -8.2450   21.7790  -31.8840 C   0  0  0  0  0  0  0  0  0  0  0  0
   -8.0180   22.9950  -31.2370 C   0  0  0  0  0  0  0  0  0  0  0  0
   -6.7160   23.4890  -31.1100 C   0  0  0  0  0  0  0  0  0  0  0  0
   -5.6260   22.7590  -31.6170 C   0  0  0  0  0  0  0  0  0  0  0  0
   -4.2810   23.2530  -31.5200 N   0  0  0  0  0  0  0  0  0  0  0  0
   -3.7800   24.1740  -30.5440 C   0  0  0  0  0  0  0  0  0  0  0  0
   -3.8720   25.4170  -30.7320 O   0  0  0  0  0  0  0  0  0  0  0  0
   -3.1810   23.6620  -29.3450 N   0  0  0  0  0  0  0  0  0  0  0  0
   -2.8270   24.4710  -28.2100 C   0  0  0  0  0  0  0  0  0  0  0  0
   -3.6460   24.5220  -27.0660 C   0  0  0  0  0  0  0  0  0  0  0  0
   -3.2720   25.2960  -25.9630 C   0  0  0  0  0  0  0  0  0  0  0  0
   -2.0730   26.0140  -25.9850 C   0  0  0  0  0  0  0  0  0  0  0  0
   -1.2430   25.9520  -27.1070 C   0  0  0  0  0  0  0  0  0  0  0  0
   -1.6120   25.1790  -28.2130 C   0  0  0  0  0  0  0  0  0  0  0  0
   -0.7940   25.1340  -29.2940 F   0  0  0  0  0  0  0  0  0  0  0  0
   -6.1203   18.7893  -32.9744 H   0  0  0  0  0  0  0  0  0  0  0  0
   -6.3504   19.8798  -34.3831 H   0  0  0  0  0  0  0  0  0  0  0  0
   -5.0109   18.6830  -34.3831 H   0  0  0  0  0  0  0  0  0  0  0  0
   -7.3563   20.1050  -32.9309 H   0  0  0  0  0  0  0  0  0  0  0  0
   -9.2692   21.3887  -31.9770 H   0  0  0  0  0  0  0  0  0  0  0  0
   -8.8644   23.5653  -30.8266 H   0  0  0  0  0  0  0  0  0  0  0  0
   -6.5433   24.4539  -30.6108 H   0  0  0  0  0  0  0  0  0  0  0  0
   -2.9180   22.6510  -29.3360 H   0  0  0  0  0  0  0  0  0  0  0  0
   -4.5852   23.9499  -27.0397 H   0  0  0  0  0  0  0  0  0  0  0  0
   -3.9223   25.3398  -25.0769 H   0  0  0  0  0  0  0  0  0  0  0  0
   -1.7831   26.6276  -25.1193 H   0  0  0  0  0  0  0  0  0  0  0  0
   -0.2967   26.5126  -27.1208 H   0  0  0  0  0  0  0  0  0  0  0  0
  1  2  1  0
  2  3  1  0
  3  4  2  0
  4  5  1  0
  5  6  2  0
  6  7  1  0
  7  8  2  0
  8  9  1  0
  9 10  1  0
 10 11  2  0
 10 12  1  0
 12 13  1  0
 13 14  2  0
 14 15  1  0
 15 16  2  0
 16 17  1  0
 17 18  2  0
 18 19  1  0
  8  3  1  0
 18 13  1  0
  1 20  1  0
  1 21  1  0
  1 22  1  0
  4 23  1  0
  5 24  1  0
  6 25  1  0
  7 26  1  0
 12 27  1  0
 14 28  1  0
 15 29  1  0
 16 30  1  0
 17 31  1  0
M  CHG  1   9  -1
M  END
>  <UniqueID>  (15) 
15

>  <SMILES>  (15) 
CSc1ccccc1[N-]C(=O)Nc1ccccc1F

>  <Energy>  (15) 
34.887214582436265

>  <Genealogy>  (15) 
CSc1ccccc1[N-]C(=O)Nc1ccccc1F (protonated)
CSc1ccccc1[N-]C(=O)Nc1ccccc1F (3D coordinates assigned)
CSc1ccccc1[N-]C(=O)Nc1ccccc1F (optimized conformer: 34.887214582436265 kcal/mol)

>  <smiles>  (15) 
CSc1ccccc1NC(=O)Nc1ccccc1F

>  <score_type>  (15) 
oracle

>  <origin>  (15) 
adgpu

>  <m_score__min__energy>  (15) 
-8.25

>  <m_primary>  (15) 
energy

$$$$
15:0
     RDKit          3D

 26 28  0  0  0  0  0  0  0  0999 V2000
   -4.5970   24.1660  -31.2450 O   0  0  0  0  0  0  0  0  0  0  0  0
   -5.0270   23.1120  -31.7860 C   0  0  0  0  0  0  0  0  0  0  0  0
   -6.3460   23.1090  -32.3350 N   0  0  0  0  0  0  0  0  0  0  0  0
   -7.2440   22.0020  -32.1900 C   0  0  0  0  0  0  0  0  0  0  0  0
   -8.5220   22.2470  -31.6590 C   0  0  0  0  0  0  0  0  0  0  0  0
   -9.4600   21.2190  -31.5540 C   0  0  0  0  0  0  0  0  0  0  0  0
   -9.1400   19.9370  -31.9950 C   0  0  0  0  0  0  0  0  0  0  0  0
   -7.8830   19.6820  -32.5440 C   0  0  0  0  0  0  0  0  0  0  0  0
   -6.9190   20.7030  -32.6440 C   0  0  0  0  0  0  0  0  0  0  0  0
   -5.6230   20.3810  -33.2740 C   0  0  0  0  0  0  0  0  0  0  0  0
   -5.6040   19.5990  -34.2630 O   0  0  0  0  0  0  0  0  0  0  0  0
   -4.3790   20.8200  -32.7170 N   0  0  0  0  0  0  0  0  0  0  0  0
   -3.1680   20.0120  -32.7280 C   0  0  0  0  0  0  0  0  0  0  0  0
   -2.2170   20.7460  -31.7740 C   0  0  0  0  0  0  0  0  0  0  0  0
   -2.9560   21.9290  -31.3600 N   0  0  0  0  0  0  0  0  0  0  0  0
   -4.1350   21.9420  -31.8840 C   0  0  0  0  0  0  0  0  0  0  0  0
   -6.7780   24.0490  -32.4920 H   0  0  0  0  0  0  0  0  0  0  0  0
   -8.7859   23.2604  -31.3224 H   0  0  0  0  0  0  0  0  0  0  0  0
  -10.4517   21.4210  -31.1231 H   0  0  0  0  0  0  0  0  0  0  0  0
   -9.8782   19.1259  -31.9104 H   0  0  0  0  0  0  0  0  0  0  0  0
   -7.6422   18.6706  -32.9032 H   0  0  0  0  0  0  0  0  0  0  0  0
   -3.3749   18.9941  -32.3659 H   0  0  0  0  0  0  0  0  0  0  0  0
   -2.7467   19.8981  -33.7377 H   0  0  0  0  0  0  0  0  0  0  0  0
   -1.9746   20.1156  -30.9058 H   0  0  0  0  0  0  0  0  0  0  0  0
   -1.2585   20.9979  -32.2514 H   0  0  0  0  0  0  0  0  0  0  0  0
   -2.5610   22.6830  -30.7540 H   0  0  0  0  0  0  0  0  0  0  0  0
  1  2  2  0
  2  3  1  0
  3  4  1  0
  4  5  2  0
  5  6  1  0
  6  7  2  0
  7  8  1  0
  8  9  2  0
  9 10  1  0
 10 11  2  0
 10 12  1  0
 12 13  1  0
 13 14  1  0
 14 15  1  0
 15 16  2  0
 16  2  1  0
  9  4  1  0
 16 12  1  0
  3 17  1  0
  5 18  1  0
  6 19  1  0
  7 20  1  0
  8 21  1  0
 13 22  1  0
 13 23  1  0
 14 24  1  0
 14 25  1  0
 15 26  1  0
M  CHG  1  15   1
M  END
>  <UniqueID>  (16) 
16

>  <SMILES>  (16) 
O=C1Nc2ccccc2C(=O)N2CC[NH+]=C12

>  <Energy>  (16) 
55.583093605100565

>  <Genealogy>  (16) 
O=C1Nc2ccccc2C(=O)N2CC[NH+]=C12 (protonated)
O=C1Nc2ccccc2C(=O)N2CC[NH+]=C12 (3D coordinates assigned)
O=C1Nc2ccccc2C(=O)N2CC[NH+]=C12 (nonaromatic ring conformer: 55.583093605100565 kcal/mol)

>  <smiles>  (16) 
O=C1Nc2ccccc2C(=O)N2CCN=C12

>  <score_type>  (16) 
oracle

>  <origin>  (16) 
adgpu

>  <m_score__min__energy>  (16) 
-5.0800000000000001

>  <m_primary>  (16) 
energy

$$$$
16:0
     RDKit          3D

 57 60  0  0  1  0  0  0  0  0999 V2000
   -9.0830   18.2960  -31.6650 C   0  0  0  0  0  0  0  0  0  0  0  0
   -9.1360   19.5640  -32.0390 C   0  0  0  0  0  0  0  0  0  0  0  0
   -7.9380   20.4030  -32.1760 C   0  0  0  0  0  0  0  0  0  0  0  0
   -8.1340   21.6260  -32.3370 O   0  0  0  0  0  0  0  0  0  0  0  0
   -6.6270   19.8850  -32.1340 N   0  0  0  0  0  0  0  0  0  0  0  0
   -5.4240   20.6060  -32.2530 C   0  0  0  0  0  0  0  0  0  0  0  0
   -4.4740   20.1250  -33.1460 C   0  0  0  0  0  0  0  0  0  0  0  0
   -3.2610   20.7390  -33.3480 C   0  0  0  0  0  0  0  0  0  0  0  0
   -2.9260   21.9000  -32.6470 C   0  0  0  0  0  0  0  0  0  0  0  0
   -3.8690   22.4050  -31.7390 C   0  0  0  0  0  0  0  0  0  0  0  0
   -3.5880   23.5930  -31.0450 N   0  0  0  0  0  0  0  0  0  0  0  0
   -2.9500   23.5910  -29.9430 C   0  0  0  0  0  0  0  0  0  0  0  0
   -2.7220   24.7780  -29.3410 N   0  0  0  0  0  0  0  0  0  0  0  0
   -2.0550   24.8630  -28.1740 C   0  0  0  0  0  0  0  0  0  0  0  0
   -1.8580   26.0160  -27.6300 N   0  0  0  0  0  0  0  0  0  0  0  0
   -1.1630   26.2080  -26.3970 C   0  0  0  0  0  0  0  0  0  0  0  0
   -1.5590   25.5870  -25.2320 C   0  0  0  0  0  0  0  0  0  0  0  0
   -0.8140   25.8420  -24.0990 C   0  0  0  0  0  0  0  0  0  0  0  0
    0.2770   26.6860  -24.1530 C   0  0  0  0  0  0  0  0  0  0  0  0
    0.6800   27.3070  -25.2950 C   0  0  0  0  0  0  0  0  0  0  0  0
    1.8340   28.2230  -25.4150 C   0  0  0  0  0  0  0  0  0  0  0  0
    1.3430   29.5570  -25.6370 N   0  0  0  0  0  0  0  0  0  0  0  0
    1.1000   29.8790  -27.0020 C   0  0  0  0  0  0  0  0  0  0  0  0
   -0.1170   30.8000  -27.0060 C   0  0  0  0  0  0  0  0  0  0  0  0
   -0.9060   30.2710  -25.8120 C   0  0  0  0  0  0  0  0  0  0  0  0
    0.2040   29.9040  -24.8510 C   0  0  0  0  0  0  0  0  0  0  0  0
   -0.0610   27.0600  -26.4490 C   0  0  0  0  0  0  0  0  0  0  0  0
   -1.5730   23.7820  -27.5330 N   0  0  0  0  0  0  0  0  0  0  0  0
   -1.7890   22.5700  -28.1190 C   0  0  0  0  0  0  0  0  0  0  0  0
   -2.4690   22.4720  -29.3110 C   0  0  0  0  0  0  0  0  0  0  0  0
   -2.7090   20.8970  -30.0020 Cl  0  0  0  0  0  0  0  0  0  0  0  0
   -5.0920   21.7380  -31.5710 C   0  0  0  0  0  0  0  0  0  0  0  0
  -10.0093   17.7093  -31.5771 H   0  0  0  0  0  0  0  0  0  0  0  0
   -8.1126   17.8285  -31.4419 H   0  0  0  0  0  0  0  0  0  0  0  0
  -10.1184   20.0086  -32.2565 H   0  0  0  0  0  0  0  0  0  0  0  0
   -6.5610   18.8340  -31.9950 H   0  0  0  0  0  0  0  0  0  0  0  0
   -4.7029   19.2127  -33.7163 H   0  0  0  0  0  0  0  0  0  0  0  0
   -2.5475   20.3123  -34.0683 H   0  0  0  0  0  0  0  0  0  0  0  0
   -1.9584   22.4000  -32.8012 H   0  0  0  0  0  0  0  0  0  0  0  0
   -3.0600   25.6710  -29.7630 H   0  0  0  0  0  0  0  0  0  0  0  0
   -2.4312   24.9171  -25.2066 H   0  0  0  0  0  0  0  0  0  0  0  0
   -1.0916   25.3691  -23.1454 H   0  0  0  0  0  0  0  0  0  0  0  0
    0.8474   26.8650  -23.2297 H   0  0  0  0  0  0  0  0  0  0  0  0
    2.4260   28.1959  -24.4883 H   0  0  0  0  0  0  0  0  0  0  0  0
    2.4721   27.9137  -26.2560 H   0  0  0  0  0  0  0  0  0  0  0  0
    1.9706   30.3940  -27.4342 H   0  0  0  0  0  0  0  0  0  0  0  0
    0.9239   28.9755  -27.6042 H   0  0  0  0  0  0  0  0  0  0  0  0
    0.1743   31.8507  -26.8609 H   0  0  0  0  0  0  0  0  0  0  0  0
   -0.6790   30.7948  -27.9516 H   0  0  0  0  0  0  0  0  0  0  0  0
   -1.5624   31.0461  -25.3897 H   0  0  0  0  0  0  0  0  0  0  0  0
   -1.5803   29.4368  -26.0558 H   0  0  0  0  0  0  0  0  0  0  0  0
    0.4400   30.7606  -24.2026 H   0  0  0  0  0  0  0  0  0  0  0  0
   -0.0975   29.0644  -24.2074 H   0  0  0  0  0  0  0  0  0  0  0  0
    0.2231   27.5363  -27.3989 H   0  0  0  0  0  0  0  0  0  0  0  0
   -1.0510   23.8460  -26.6220 H   0  0  0  0  0  0  0  0  0  0  0  0
   -1.4143   21.6577  -27.6319 H   0  0  0  0  0  0  0  0  0  0  0  0
   -5.8180   22.1489  -30.8540 H   0  0  0  0  0  0  0  0  0  0  0  0
  1  2  2  0
  2  3  1  0
  3  4  2  0
  3  5  1  0
  5  6  1  0
  6  7  2  0
  7  8  1  0
  8  9  2  0
  9 10  1  0
 10 11  1  0
 11 12  2  0
 12 13  1  0
 13 14  1  0
 14 15  2  0
 15 16  1  0
 16 17  2  0
 17 18  1  0
 18 19  2  0
 19 20  1  0
 20 21  1  0
 21 22  1  0
 22 23  1  0
 23 24  1  0
 24 25  1  0
 25 26  1  0
 20 27  2  0
 14 28  1  0
 28 29  1  0
 29 30  2  0
 30 31  1  0
 10 32  2  0
 32  6  1  0
 30 12  1  0
 27 16  1  0
 26 22  1  0
  1 33  1  0
  1 34  1  0
  2 35  1  0
  5 36  1  0
  7 37  1  0
  8 38  1  0
  9 39  1  0
 13 40  1  0
 17 41  1  0
 18 42  1  0
 19 43  1  0
 21 44  1  0
 21 45  1  0
 23 46  1  0
 23 47  1  0
 24 48  1  0
 24 49  1  0
 25 50  1  0
 25 51  1  0
 26 52  1  0
 26 53  1  0
 27 54  1  0
 28 55  1  0
 29 56  1  0
 32 57  1  0
M  END
>  <smiles>  (17) 
C=CC(=O)Nc1cccc(N=c2[nH]c(=Nc3cccc(CN4CCCC4)c3)[nH]cc2Cl)c1

>  <score_type>  (17) 
oracle

>  <origin>  (17) 
adgpu

>  <m_score__min__energy>  (17) 
-10.16

>  <m_primary>  (17) 
energy

$$$$
17:0
     RDKit          3D

 56 60  0  0  0  0  0  0  0  0999 V2000
   -5.8350   16.7410  -32.1380 C   0  0  0  0  0  0  0  0  0  0  0  0
   -6.8720   17.1230  -33.1490 C   0  0  0  0  0  0  0  0  0  0  0  0
   -6.8790   16.5400  -34.2650 O   0  0  0  0  0  0  0  0  0  0  0  0
   -7.8310   18.1610  -32.9040 N   0  0  0  0  0  0  0  0  0  0  0  0
   -7.5470   19.5310  -32.5920 C   0  0  0  0  0  0  0  0  0  0  0  0
   -8.5990   20.3680  -32.2030 C   0  0  0  0  0  0  0  0  0  0  0  0
   -8.3560   21.7050  -31.8790 C   0  0  0  0  0  0  0  0  0  0  0  0
   -7.0540   22.2110  -31.9210 C   0  0  0  0  0  0  0  0  0  0  0  0
   -5.9820   21.3750  -32.2720 C   0  0  0  0  0  0  0  0  0  0  0  0
   -4.6390   21.8950  -32.3020 N   0  0  0  0  0  0  0  0  0  0  0  0
   -3.7710   21.5570  -33.4360 C   0  0  0  0  0  0  0  0  0  0  0  0
   -4.1050   22.5890  -31.1520 C   0  0  0  0  0  0  0  0  0  0  0  0
   -3.0730   22.0250  -30.3790 C   0  0  0  0  0  0  0  0  0  0  0  0
   -2.5660   22.7040  -29.2670 C   0  0  0  0  0  0  0  0  0  0  0  0
   -3.0790   23.9590  -28.9050 C   0  0  0  0  0  0  0  0  0  0  0  0
   -2.5500   24.6630  -27.7640 N   0  0  0  0  0  0  0  0  0  0  0  0
   -3.3860   24.9290  -26.7160 C   0  0  0  0  0  0  0  0  0  0  0  0
   -2.9300   25.6150  -25.5940 C   0  0  0  0  0  0  0  0  0  0  0  0
   -1.6010   26.0390  -25.5330 C   0  0  0  0  0  0  0  0  0  0  0  0
   -1.1330   26.7340  -24.4070 C   0  0  0  0  0  0  0  0  0  0  0  0
    0.2070   27.1640  -24.3320 C   0  0  0  0  0  0  0  0  0  0  0  0
    0.7870   27.9210  -23.1480 C   0  0  0  0  0  0  0  0  0  0  0  0
    2.3050   28.0080  -23.0510 C   0  0  0  0  0  0  0  0  0  0  0  0
    1.4930   29.2390  -23.4380 C   0  0  0  0  0  0  0  0  0  0  0  0
    1.0650   26.8840  -25.4050 C   0  0  0  0  0  0  0  0  0  0  0  0
    0.6120   26.1930  -26.5320 C   0  0  0  0  0  0  0  0  0  0  0  0
    1.4930   25.9550  -27.5370 F   0  0  0  0  0  0  0  0  0  0  0  0
   -0.7300   25.7610  -26.6110 C   0  0  0  0  0  0  0  0  0  0  0  0
   -1.2340   25.0570  -27.7290 C   0  0  0  0  0  0  0  0  0  0  0  0
   -0.4700   24.7740  -28.6940 O   0  0  0  0  0  0  0  0  0  0  0  0
   -4.1020   24.5290  -29.6790 C   0  0  0  0  0  0  0  0  0  0  0  0
   -4.6100   23.8510  -30.7890 C   0  0  0  0  0  0  0  0  0  0  0  0
   -6.2330   20.0330  -32.6010 C   0  0  0  0  0  0  0  0  0  0  0  0
   -6.2380   16.8895  -31.1253 H   0  0  0  0  0  0  0  0  0  0  0  0
   -5.5632   15.6837  -32.2731 H   0  0  0  0  0  0  0  0  0  0  0  0
   -4.9422   17.3693  -32.2731 H   0  0  0  0  0  0  0  0  0  0  0  0
   -9.6235   19.9707  -32.1521 H   0  0  0  0  0  0  0  0  0  0  0  0
   -9.1908   22.3605  -31.5904 H   0  0  0  0  0  0  0  0  0  0  0  0
   -6.8684   23.2677  -31.6783 H   0  0  0  0  0  0  0  0  0  0  0  0
   -2.8074   21.1818  -33.0611 H   0  0  0  0  0  0  0  0  0  0  0  0
   -4.2534   20.7810  -34.0485 H   0  0  0  0  0  0  0  0  0  0  0  0
   -3.6016   22.4549  -34.0485 H   0  0  0  0  0  0  0  0  0  0  0  0
   -2.6619   21.0419  -30.6520 H   0  0  0  0  0  0  0  0  0  0  0  0
   -1.7593   22.2513  -28.6717 H   0  0  0  0  0  0  0  0  0  0  0  0
   -4.4336   24.5964  -26.7598 H   0  0  0  0  0  0  0  0  0  0  0  0
   -3.6143   25.8224  -24.7581 H   0  0  0  0  0  0  0  0  0  0  0  0
   -1.8196   26.9454  -23.5740 H   0  0  0  0  0  0  0  0  0  0  0  0
   -0.0195   27.6035  -22.4707 H   0  0  0  0  0  0  0  0  0  0  0  0
    2.7971   27.9602  -22.0684 H   0  0  0  0  0  0  0  0  0  0  0  0
    3.1461   27.4583  -23.4988 H   0  0  0  0  0  0  0  0  0  0  0  0
    1.3993   30.0795  -22.7346 H   0  0  0  0  0  0  0  0  0  0  0  0
    1.5055   29.9457  -24.2808 H   0  0  0  0  0  0  0  0  0  0  0  0
    2.1133   27.2141  -25.3589 H   0  0  0  0  0  0  0  0  0  0  0  0
   -4.5060   25.5160  -29.4094 H   0  0  0  0  0  0  0  0  0  0  0  0
   -5.4131   24.3082  -31.3856 H   0  0  0  0  0  0  0  0  0  0  0  0
   -5.3966   19.3701  -32.8675 H   0  0  0  0  0  0  0  0  0  0  0  0
  1  2  1  0
  2  3  2  0
  2  4  1  0
  4  5  1  0
  5  6  2  0
  6  7  1  0
  7  8  2  0
  8  9  1  0
  9 10  1  0
 10 11  1  0
 10 12  1  0
 12 13  2  0
 13 14  1  0
 14 15  2  0
 15 16  1  0
 16 17  1  0
 17 18  2  0
 18 19  1  0
 19 20  2  0
 20 21  1  0
 21 22  1  0
 22 23  1  0
 23 24  1  0
 21 25  2  0
 25 26  1  0
 26 27  1  0
 26 28  2  0
 28 29  1  0
 29 30  2  0
 15 31  1  0
 31 32  2  0
  9 33  2  0
 33  5  1  0
 32 12  1  0
 29 16  1  0
 28 19  1  0
 24 22  1  0
  1 34  1  0
  1 35  1  0
  1 36  1  0
  6 37  1  0
  7 38  1  0
  8 39  1  0
 11 40  1  0
 11 41  1  0
 11 42  1  0
 13 43  1  0
 14 44  1  0
 17 45  1  0
 18 46  1  0
 20 47  1  0
 22 48  1  0
 23 49  1  0
 23 50  1  0
 24 51  1  0
 24 52  1  0
 25 53  1  0
 31 54  1  0
 32 55  1  0
 33 56  1  0
M  CHG  1   4  -1
M  END
>  <UniqueID>  (18) 
17

>  <SMILES>  (18) 
CC(=O)[N-]c1cccc(N(C)c2ccc(-n3ccc4cc(C5CC5)cc(F)c4c3=O)cc2)c1

>  <Energy>  (18) 
355.2111186667434

>  <Genealogy>  (18) 
CC(=O)[N-]c1cccc(N(C)c2ccc(-n3ccc4cc(C5CC5)cc(F)c4c3=O)cc2)c1 (protonated)
CC(=O)[N-]c1cccc(N(C)c2ccc(-n3ccc4cc(C5CC5)cc(F)c4c3=O)cc2)c1 (3D coordinates assigned)
CC(=O)[N-]c1cccc(N(C)c2ccc(-n3ccc4cc(C5CC5)cc(F)c4c3=O)cc2)c1 (nonaromatic ring conformer: 355.2111186667434 kcal/mol)

>  <smiles>  (18) 
CC(=O)Nc1cccc(N(C)c2ccc(-n3ccc4cc(C5CC5)cc(F)c4c3=O)cc2)c1

>  <score_type>  (18) 
oracle

>  <origin>  (18) 
adgpu

>  <m_score__min__energy>  (18) 
-9.6899999999999995

>  <m_primary>  (18) 
energy

$$$$
18:0
     RDKit          3D

 49 51  0  0  0  0  0  0  0  0999 V2000
   -6.4920   16.7950  -33.5880 C   0  0  0  0  0  0  0  0  0  0  0  0
   -7.3370   17.4070  -32.6200 O   0  0  0  0  0  0  0  0  0  0  0  0
   -7.5360   18.7930  -32.5090 C   0  0  0  0  0  0  0  0  0  0  0  0
   -8.7660   19.2510  -32.0240 C   0  0  0  0  0  0  0  0  0  0  0  0
   -9.0100   20.6210  -31.8900 C   0  0  0  0  0  0  0  0  0  0  0  0
   -8.0200   21.5530  -32.2340 C   0  0  0  0  0  0  0  0  0  0  0  0
   -8.2660   23.0330  -32.0720 C   0  0  0  0  0  0  0  0  0  0  0  0
   -7.0290   23.7910  -32.2670 N   0  0  0  0  0  0  0  0  0  0  0  0
   -6.1330   24.0050  -31.3480 C   0  0  0  0  0  0  0  0  0  0  0  0
   -4.9990   24.6980  -31.5870 N   0  0  0  0  0  0  0  0  0  0  0  0
   -4.2150   24.7980  -30.5160 N   0  0  0  0  0  0  0  0  0  0  0  0
   -4.7210   24.1860  -29.4240 C   0  0  0  0  0  0  0  0  0  0  0  0
   -3.9010   24.1440  -27.8300 S   0  0  0  0  0  0  0  0  0  0  0  0
   -3.5800   22.3410  -27.8530 C   0  0  0  0  0  0  0  0  0  0  0  0
   -2.6460   21.9810  -28.9660 C   0  0  0  0  0  0  0  0  0  0  0  0
   -1.4680   21.6290  -28.6890 O   0  0  0  0  0  0  0  0  0  0  0  0
   -3.0750   22.1100  -30.3320 N   0  0  0  0  0  0  0  0  0  0  0  0
   -2.2990   21.6950  -31.4700 C   0  0  0  0  0  0  0  0  0  0  0  0
   -2.9580   21.3210  -32.6510 C   0  0  0  0  0  0  0  0  0  0  0  0
   -2.2290   20.8850  -33.7580 C   0  0  0  0  0  0  0  0  0  0  0  0
   -0.8280   20.7930  -33.6910 C   0  0  0  0  0  0  0  0  0  0  0  0
   -0.0510   20.3890  -34.8280 N   0  0  0  0  0  0  0  0  0  0  0  0
    0.9030   21.1860  -35.5390 C   0  0  0  0  0  0  0  0  0  0  0  0
    1.9040   20.5780  -36.4720 C   0  0  0  0  0  0  0  0  0  0  0  0
    0.9260   22.4300  -35.3400 O   0  0  0  0  0  0  0  0  0  0  0  0
   -0.1680   21.1770  -32.5180 C   0  0  0  0  0  0  0  0  0  0  0  0
   -0.8960   21.6090  -31.4100 C   0  0  0  0  0  0  0  0  0  0  0  0
   -6.2020   23.4630  -29.7490 S   0  0  0  0  0  0  0  0  0  0  0  0
   -6.7850   21.0990  -32.7230 C   0  0  0  0  0  0  0  0  0  0  0  0
   -6.5450   19.7310  -32.8650 C   0  0  0  0  0  0  0  0  0  0  0  0
   -5.7030   16.2236  -33.0771 H   0  0  0  0  0  0  0  0  0  0  0  0
   -7.0868   16.1168  -34.2175 H   0  0  0  0  0  0  0  0  0  0  0  0
   -6.0331   17.5716  -34.2175 H   0  0  0  0  0  0  0  0  0  0  0  0
   -9.5468   18.5277  -31.7461 H   0  0  0  0  0  0  0  0  0  0  0  0
   -9.9828   20.9696  -31.5131 H   0  0  0  0  0  0  0  0  0  0  0  0
   -9.0090   23.3583  -32.8150 H   0  0  0  0  0  0  0  0  0  0  0  0
   -8.6360   23.2190  -31.0529 H   0  0  0  0  0  0  0  0  0  0  0  0
   -3.1305   22.0426  -26.8944 H   0  0  0  0  0  0  0  0  0  0  0  0
   -4.5335   21.8153  -28.0093 H   0  0  0  0  0  0  0  0  0  0  0  0
   -3.9500   22.6480  -30.5160 H   0  0  0  0  0  0  0  0  0  0  0  0
   -4.0555   21.3718  -32.7044 H   0  0  0  0  0  0  0  0  0  0  0  0
   -2.7525   20.6124  -34.6863 H   0  0  0  0  0  0  0  0  0  0  0  0
    2.7014   20.0937  -35.8893 H   0  0  0  0  0  0  0  0  0  0  0  0
    1.4067   19.8292  -37.1060 H   0  0  0  0  0  0  0  0  0  0  0  0
    2.3392   21.3645  -37.1060 H   0  0  0  0  0  0  0  0  0  0  0  0
    0.9303   21.1378  -32.4700 H   0  0  0  0  0  0  0  0  0  0  0  0
   -0.3704   21.8841  -30.4837 H   0  0  0  0  0  0  0  0  0  0  0  0
   -6.0035   21.8237  -32.9953 H   0  0  0  0  0  0  0  0  0  0  0  0
   -5.5778   19.3830  -33.2566 H   0  0  0  0  0  0  0  0  0  0  0  0
  1  2  1  0
  2  3  1  0
  3  4  2  0
  4  5  1  0
  5  6  2  0
  6  7  1  0
  7  8  1  0
  8  9  2  3
  9 10  1  0
 10 11  1  0
 11 12  2  0
 12 13  1  0
 13 14  1  0
 14 15  1  0
 15 16  2  0
 15 17  1  0
 17 18  1  0
 18 19  2  0
 19 20  1  0
 20 21  2  0
 21 22  1  0
 22 23  1  0
 23 24  1  0
 23 25  2  0
 21 26  1  0
 26 27  2  0
 12 28  1  0
  6 29  1  0
 29 30  2  0
 30  3  1  0
 28  9  1  0
 27 18  1  0
  1 31  1  0
  1 32  1  0
  1 33  1  0
  4 34  1  0
  5 35  1  0
  7 36  1  0
  7 37  1  0
 14 38  1  0
 14 39  1  0
 17 40  1  0
 19 41  1  0
 20 42  1  0
 24 43  1  0
 24 44  1  0
 24 45  1  0
 26 46  1  0
 27 47  1  0
 29 48  1  0
 30 49  1  0
M  CHG  2  10  -1  22  -1
M  END
>  <UniqueID>  (19) 
18

>  <SMILES>  (19) 
COc1ccc(CN=c2[n-]nc(SCC(=O)Nc3ccc([N-]C(C)=O)cc3)s2)cc1

>  <Energy>  (19) 
84.75436802369246

>  <Genealogy>  (19) 
COc1ccc(CN=c2[n-]nc(SCC(=O)Nc3ccc([N-]C(C)=O)cc3)s2)cc1 (protonated)
COc1ccc(CN=c2[n-]nc(SCC(=O)Nc3ccc([N-]C(C)=O)cc3)s2)cc1 (3D coordinates assigned)
COc1ccc(CN=c2[n-]nc(SCC(=O)Nc3ccc([N-]C(C)=O)cc3)s2)cc1 (optimized conformer: 84.75436802369246 kcal/mol)

>  <smiles>  (19) 
COc1ccc(CN=c2[nH]nc(SCC(=O)Nc3ccc(NC(C)=O)cc3)s2)cc1

>  <score_type>  (19) 
oracle

>  <origin>  (19) 
adgpu

>  <m_score__min__energy>  (19) 
-10.51

>  <m_primary>  (19) 
energy

$$$$
19:0
     RDKit          3D

 27 28  0  0  0  0  0  0  0  0999 V2000
   -3.4910   25.2890  -30.5440 O   0  0  0  0  0  0  0  0  0  0  0  0
   -4.5390   24.6500  -30.2590 C   0  0  0  0  0  0  0  0  0  0  0  0
   -5.5910   24.5780  -31.2290 N   0  0  0  0  0  0  0  0  0  0  0  0
   -6.3840   23.4200  -31.5270 C   0  0  0  0  0  0  0  0  0  0  0  0
   -7.7670   23.3940  -31.2640 C   0  0  0  0  0  0  0  0  0  0  0  0
   -8.5150   22.2460  -31.5380 C   0  0  0  0  0  0  0  0  0  0  0  0
   -7.8910   21.1110  -32.0600 C   0  0  0  0  0  0  0  0  0  0  0  0
   -6.5150   21.1190  -32.3010 C   0  0  0  0  0  0  0  0  0  0  0  0
   -5.7590   22.2650  -32.0290 C   0  0  0  0  0  0  0  0  0  0  0  0
   -4.0280   22.2410  -32.3380 Cl  0  0  0  0  0  0  0  0  0  0  0  0
   -4.7120   24.0930  -28.9460 N   0  0  0  0  0  0  0  0  0  0  0  0
   -3.6270   23.8100  -28.0440 C   0  0  0  0  0  0  0  0  0  0  0  0
   -3.0750   24.8100  -27.2240 C   0  0  0  0  0  0  0  0  0  0  0  0
   -2.0030   24.5150  -26.3730 C   0  0  0  0  0  0  0  0  0  0  0  0
   -1.3220   25.7680  -25.3520 Cl  0  0  0  0  0  0  0  0  0  0  0  0
   -1.4680   23.2230  -26.3450 C   0  0  0  0  0  0  0  0  0  0  0  0
   -1.9990   22.2280  -27.1720 C   0  0  0  0  0  0  0  0  0  0  0  0
   -1.3180   20.6120  -27.1450 Cl  0  0  0  0  0  0  0  0  0  0  0  0
   -3.0690   22.5220  -28.0230 C   0  0  0  0  0  0  0  0  0  0  0  0
   -8.2608   24.2813  -30.8410 H   0  0  0  0  0  0  0  0  0  0  0  0
   -9.5974   22.2363  -31.3422 H   0  0  0  0  0  0  0  0  0  0  0  0
   -8.4829   20.2107  -32.2814 H   0  0  0  0  0  0  0  0  0  0  0  0
   -6.0241   20.2217  -32.7058 H   0  0  0  0  0  0  0  0  0  0  0  0
   -5.6880   23.9700  -28.5960 H   0  0  0  0  0  0  0  0  0  0  0  0
   -3.4875   25.8294  -27.2512 H   0  0  0  0  0  0  0  0  0  0  0  0
   -0.6295   22.9895  -25.6724 H   0  0  0  0  0  0  0  0  0  0  0  0
   -3.4759   21.7392  -28.6800 H   0  0  0  0  0  0  0  0  0  0  0  0
  1  2  2  0
  2  3  1  0
  3  4  1  0
  4  5  2  0
  5  6  1  0
  6  7  2  0
  7  8  1  0
  8  9  2  0
  9 10  1  0
  2 11  1  0
 11 12  1  0
 12 13  2  0
 13 14  1  0
 14 15  1  0
 14 16  2  0
 16 17  1  0
 17 18  1  0
 17 19  2  0
  9  4  1  0
 19 12  1  0
  5 20  1  0
  6 21  1  0
  7 22  1  0
  8 23  1  0
 11 24  1  0
 13 25  1  0
 16 26  1  0
 19 27  1  0
M  CHG  1   3  -1
M  END
>  <UniqueID>  (20) 
19

>  <SMILES>  (20) 
O=C([N-]c1ccccc1Cl)Nc1cc(Cl)cc(Cl)c1

>  <Energy>  (20) 
34.91826569616703

>  <Genealogy>  (20) 
O=C([N-]c1ccccc1Cl)Nc1cc(Cl)cc(Cl)c1 (protonated)
O=C([N-]c1ccccc1Cl)Nc1cc(Cl)cc(Cl)c1 (3D coordinates assigned)
O=C([N-]c1ccccc1Cl)Nc1cc(Cl)cc(Cl)c1 (optimized conformer: 34.91826569616703 kcal/mol)

>  <smiles>  (20) 
O=C(Nc1cc(Cl)cc(Cl)c1)Nc1ccccc1Cl

>  <score_type>  (20) 
oracle

>  <origin>  (20) 
adgpu

>  <m_score__min__energy>  (20) 
-9.2300000000000004

>  <m_primary>  (20) 
energy

$$$$
20:0
     RDKit          3D

 56 59  0  0  0  0  0  0  0  0999 V2000
   -6.4140   24.2580  -30.5560 C   0  0  0  0  0  0  0  0  0  0  0  0
   -6.7910   23.7220  -31.8200 O   0  0  0  0  0  0  0  0  0  0  0  0
   -7.4550   22.4970  -32.0020 C   0  0  0  0  0  0  0  0  0  0  0  0
   -8.7990   22.3220  -31.6160 C   0  0  0  0  0  0  0  0  0  0  0  0
   -9.4370   21.0960  -31.8060 C   0  0  0  0  0  0  0  0  0  0  0  0
   -8.7470   20.0330  -32.3830 C   0  0  0  0  0  0  0  0  0  0  0  0
   -7.4160   20.1900  -32.7750 C   0  0  0  0  0  0  0  0  0  0  0  0
   -6.7530   21.4200  -32.5900 C   0  0  0  0  0  0  0  0  0  0  0  0
   -5.3750   21.5950  -32.9780 N   0  0  0  0  0  0  0  0  0  0  0  0
   -4.0990   20.4830  -32.5860 S   0  0  0  0  0  0  0  0  0  0  0  0
   -4.6830   19.3070  -31.8520 O   0  0  0  0  0  0  0  0  0  0  0  0
   -3.4620   19.9980  -33.8580 O   0  0  0  0  0  0  0  0  0  0  0  0
   -2.8700   21.2740  -31.6000 C   0  0  0  0  0  0  0  0  0  0  0  0
   -1.6690   20.6090  -31.3150 C   0  0  0  0  0  0  0  0  0  0  0  0
   -0.6980   21.2270  -30.5290 C   0  0  0  0  0  0  0  0  0  0  0  0
   -0.9210   22.5060  -30.0110 C   0  0  0  0  0  0  0  0  0  0  0  0
   -2.1250   23.1820  -30.2770 C   0  0  0  0  0  0  0  0  0  0  0  0
   -2.3710   24.5310  -29.7150 C   0  0  0  0  0  0  0  0  0  0  0  0
   -3.5070   25.0660  -29.8380 O   0  0  0  0  0  0  0  0  0  0  0  0
   -1.3020   25.2450  -29.0810 N   0  0  0  0  0  0  0  0  0  0  0  0
   -1.2550   25.7130  -27.7240 C   0  0  0  0  0  0  0  0  0  0  0  0
   -0.8510   27.0230  -27.4050 C   0  0  0  0  0  0  0  0  0  0  0  0
   -0.8530   27.4580  -26.0760 C   0  0  0  0  0  0  0  0  0  0  0  0
   -1.2710   26.5990  -25.0580 C   0  0  0  0  0  0  0  0  0  0  0  0
   -1.7050   25.3080  -25.3680 C   0  0  0  0  0  0  0  0  0  0  0  0
   -1.7020   24.8630  -26.6960 C   0  0  0  0  0  0  0  0  0  0  0  0
   -2.1590   23.5410  -26.9980 N   0  0  0  0  0  0  0  0  0  0  0  0
   -1.2940   22.3770  -26.9690 C   0  0  0  0  0  0  0  0  0  0  0  0
   -2.2240   21.1850  -27.1480 C   0  0  0  0  0  0  0  0  0  0  0  0
   -3.5240   21.7540  -27.7150 C   0  0  0  0  0  0  0  0  0  0  0  0
   -3.5340   23.2290  -27.3360 C   0  0  0  0  0  0  0  0  0  0  0  0
   -3.0920   22.5580  -31.0850 C   0  0  0  0  0  0  0  0  0  0  0  0
   -6.8466   23.6429  -29.7532 H   0  0  0  0  0  0  0  0  0  0  0  0
   -5.3174   24.2559  -30.4691 H   0  0  0  0  0  0  0  0  0  0  0  0
   -6.7867   25.2893  -30.4691 H   0  0  0  0  0  0  0  0  0  0  0  0
   -9.3494   23.1588  -31.1612 H   0  0  0  0  0  0  0  0  0  0  0  0
  -10.4859   20.9689  -31.4998 H   0  0  0  0  0  0  0  0  0  0  0  0
   -9.2518   19.0669  -32.5304 H   0  0  0  0  0  0  0  0  0  0  0  0
   -6.8797   19.3456  -33.2326 H   0  0  0  0  0  0  0  0  0  0  0  0
   -5.0990   22.4300  -33.5400 H   0  0  0  0  0  0  0  0  0  0  0  0
   -1.4929   19.5984  -31.7122 H   0  0  0  0  0  0  0  0  0  0  0  0
    0.2472   20.7064  -30.3155 H   0  0  0  0  0  0  0  0  0  0  0  0
   -0.1497   22.9868  -29.3913 H   0  0  0  0  0  0  0  0  0  0  0  0
   -0.5323   27.7077  -28.2047 H   0  0  0  0  0  0  0  0  0  0  0  0
   -0.5245   28.4791  -25.8322 H   0  0  0  0  0  0  0  0  0  0  0  0
   -1.2586   26.9388  -24.0119 H   0  0  0  0  0  0  0  0  0  0  0  0
   -2.0503   24.6385  -24.5664 H   0  0  0  0  0  0  0  0  0  0  0  0
   -0.5607   22.4207  -27.7878 H   0  0  0  0  0  0  0  0  0  0  0  0
   -0.7201   22.3141  -26.0327 H   0  0  0  0  0  0  0  0  0  0  0  0
   -1.7858   20.4589  -27.8485 H   0  0  0  0  0  0  0  0  0  0  0  0
   -2.3931   20.6567  -26.1981 H   0  0  0  0  0  0  0  0  0  0  0  0
   -3.5467   21.6398  -28.8088 H   0  0  0  0  0  0  0  0  0  0  0  0
   -4.4035   21.2281  -27.3150 H   0  0  0  0  0  0  0  0  0  0  0  0
   -3.8724   23.8433  -28.1835 H   0  0  0  0  0  0  0  0  0  0  0  0
   -4.2207   23.4358  -26.5020 H   0  0  0  0  0  0  0  0  0  0  0  0
   -4.0311   23.0826  -31.3148 H   0  0  0  0  0  0  0  0  0  0  0  0
  1  2  1  0
  2  3  1  0
  3  4  2  0
  4  5  1  0
  5  6  2  0
  6  7  1  0
  7  8  2  0
  8  9  1  0
  9 10  1  0
 10 11  2  0
 10 12  2  0
 10 13  1  0
 13 14  2  0
 14 15  1  0
 15 16  2  0
 16 17  1  0
 17 18  1  0
 18 19  2  0
 18 20  1  0
 20 21  1  0
 21 22  2  0
 22 23  1  0
 23 24  2  0
 24 25  1  0
 25 26  2  0
 26 27  1  0
 27 28  1  0
 28 29  1  0
 29 30  1  0
 30 31  1  0
 17 32  2  0
  8  3  1  0
 32 13  1  0
 26 21  1  0
 31 27  1  0
  1 33  1  0
  1 34  1  0
  1 35  1  0
  4 36  1  0
  5 37  1  0
  6 38  1  0
  7 39  1  0
  9 40  1  0
 14 41  1  0
 15 42  1  0
 16 43  1  0
 22 44  1  0
 23 45  1  0
 24 46  1  0
 25 47  1  0
 28 48  1  0
 28 49  1  0
 29 50  1  0
 29 51  1  0
 30 52  1  0
 30 53  1  0
 31 54  1  0
 31 55  1  0
 32 56  1  0
M  CHG  1  20  -1
M  END
>  <UniqueID>  (21) 
20

>  <SMILES>  (21) 
COc1ccccc1NS(=O)(=O)c1cccc(C(=O)[N-]c2ccccc2N2CCCC2)c1

>  <Energy>  (21) 
71.7663808585269

>  <Genealogy>  (21) 
COc1ccccc1NS(=O)(=O)c1cccc(C(=O)[N-]c2ccccc2N2CCCC2)c1 (protonated)
COc1ccccc1NS(=O)(=O)c1cccc(C(=O)[N-]c2ccccc2N2CCCC2)c1 (3D coordinates assigned)
COc1ccccc1NS(=O)(=O)c1cccc(C(=O)[N-]c2ccccc2N2CCCC2)c1 (nonaromatic ring conformer: 71.7663808585269 kcal/mol)

>  <smiles>  (21) 
COc1ccccc1NS(=O)(=O)c1cccc(C(=O)Nc2ccccc2N2CCCC2)c1

>  <score_type>  (21) 
oracle

>  <origin>  (21) 
adgpu

>  <m_score__min__energy>  (21) 
-10.699999999999999

>  <m_primary>  (21) 
energy

$$$$
21:0
     RDKit          3D

 37 39  0  0  0  0  0  0  0  0999 V2000
   -0.4670   23.4680  -26.6630 C   0  0  0  0  0  0  0  0  0  0  0  0
   -1.5070   24.2910  -26.2220 C   0  0  0  0  0  0  0  0  0  0  0  0
   -2.3590   24.9030  -27.1470 C   0  0  0  0  0  0  0  0  0  0  0  0
   -2.1800   24.6830  -28.5260 C   0  0  0  0  0  0  0  0  0  0  0  0
   -3.0020   25.2900  -29.4870 O   0  0  0  0  0  0  0  0  0  0  0  0
   -4.0100   24.6460  -30.2200 C   0  0  0  0  0  0  0  0  0  0  0  0
   -3.8000   23.3990  -30.8330 C   0  0  0  0  0  0  0  0  0  0  0  0
   -4.8240   22.7920  -31.5670 C   0  0  0  0  0  0  0  0  0  0  0  0
   -6.0740   23.4250  -31.7040 C   0  0  0  0  0  0  0  0  0  0  0  0
   -7.1550   22.8250  -32.4450 N   0  0  0  0  0  0  0  0  0  0  0  0
   -8.1860   21.9690  -31.8570 C   0  0  0  0  0  0  0  0  0  0  0  0
   -7.9030   20.5190  -32.1450 C   0  0  0  0  0  0  0  0  0  0  0  0
   -6.8400   20.1440  -32.9810 C   0  0  0  0  0  0  0  0  0  0  0  0
   -6.5970   18.7930  -33.2390 C   0  0  0  0  0  0  0  0  0  0  0  0
   -7.4240   17.8280  -32.6630 C   0  0  0  0  0  0  0  0  0  0  0  0
   -8.4580   18.2040  -31.8640 N   0  0  0  0  0  0  0  0  0  0  0  0
   -8.7140   19.5120  -31.5970 C   0  0  0  0  0  0  0  0  0  0  0  0
   -6.2650   24.6840  -31.1140 C   0  0  0  0  0  0  0  0  0  0  0  0
   -5.2390   25.2890  -30.3820 C   0  0  0  0  0  0  0  0  0  0  0  0
   -1.1230   23.8730  -28.9600 C   0  0  0  0  0  0  0  0  0  0  0  0
   -0.2730   23.2620  -28.0320 C   0  0  0  0  0  0  0  0  0  0  0  0
    0.1982   22.9828  -25.9336 H   0  0  0  0  0  0  0  0  0  0  0  0
   -1.6558   24.4578  -25.1449 H   0  0  0  0  0  0  0  0  0  0  0  0
   -3.1706   25.5575  -26.7964 H   0  0  0  0  0  0  0  0  0  0  0  0
   -2.8256   22.8980  -30.7350 H   0  0  0  0  0  0  0  0  0  0  0  0
   -4.6517   21.8140  -32.0402 H   0  0  0  0  0  0  0  0  0  0  0  0
   -7.2460   23.0510  -33.4620 H   0  0  0  0  0  0  0  0  0  0  0  0
   -8.2055   22.1235  -30.7681 H   0  0  0  0  0  0  0  0  0  0  0  0
   -9.1584   22.2334  -32.2980 H   0  0  0  0  0  0  0  0  0  0  0  0
   -6.1980   20.9143  -33.4332 H   0  0  0  0  0  0  0  0  0  0  0  0
   -5.7623   18.4929  -33.8895 H   0  0  0  0  0  0  0  0  0  0  0  0
   -7.2391   16.7609  -32.8557 H   0  0  0  0  0  0  0  0  0  0  0  0
   -9.5603   19.7829  -30.9487 H   0  0  0  0  0  0  0  0  0  0  0  0
   -7.2302   25.1991  -31.2285 H   0  0  0  0  0  0  0  0  0  0  0  0
   -5.4010   26.2788  -29.9303 H   0  0  0  0  0  0  0  0  0  0  0  0
   -0.9603   23.7164  -30.0366 H   0  0  0  0  0  0  0  0  0  0  0  0
    0.5488   22.6189  -28.3799 H   0  0  0  0  0  0  0  0  0  0  0  0
  1  2  2  0
  2  3  1  0
  3  4  2  0
  4  5  1  0
  5  6  1  0
  6  7  2  0
  7  8  1  0
  8  9  2  0
  9 10  1  0
 10 11  1  0
 11 12  1  0
 12 13  2  0
 13 14  1  0
 14 15  2  0
 15 16  1  0
 16 17  2  0
  9 18  1  0
 18 19  2  0
  4 20  1  0
 20 21  2  0
 21  1  1  0
 19  6  1  0
 17 12  1  0
  1 22  1  0
  2 23  1  0
  3 24  1  0
  7 25  1  0
  8 26  1  0
 10 27  1  0
 11 28  1  0
 11 29  1  0
 13 30  1  0
 14 31  1  0
 15 32  1  0
 17 33  1  0
 18 34  1  0
 19 35  1  0
 20 36  1  0
 21 37  1  0
M  END
>  <UniqueID>  (22) 
21

>  <SMILES>  (22) 
c1ccc(Oc2ccc(NCc3cccnc3)cc2)cc1

>  <Energy>  (22) 
46.23198346972886

>  <Genealogy>  (22) 
c1ccc(Oc2ccc(NCc3cccnc3)cc2)cc1 (3D coordinates assigned)
c1ccc(Oc2ccc(NCc3cccnc3)cc2)cc1 (optimized conformer: 46.23198346972886 kcal/mol)

>  <smiles>  (22) 
c1ccc(Oc2ccc(NCc3cccnc3)cc2)cc1

>  <score_type>  (22) 
oracle

>  <origin>  (22) 
adgpu

>  <m_score__min__energy>  (22) 
-8.0299999999999994

>  <m_primary>  (22) 
energy

$$$$
22:0
     RDKit          3D

 32 34  0  0  0  0  0  0  0  0999 V2000
   -7.1690   15.2530  -34.2050 C   0  0  0  0  0  0  0  0  0  0  0  0
   -6.2960   16.4390  -33.9080 C   0  0  0  0  0  0  0  0  0  0  0  0
   -6.8370   17.5610  -33.2440 C   0  0  0  0  0  0  0  0  0  0  0  0
   -5.9970   18.6370  -32.9890 C   0  0  0  0  0  0  0  0  0  0  0  0
   -6.2490   19.8390  -32.3700 C   0  0  0  0  0  0  0  0  0  0  0  0
   -5.0250   20.5120  -32.4060 C   0  0  0  0  0  0  0  0  0  0  0  0
   -4.7420   21.8630  -31.8680 C   0  0  0  0  0  0  0  0  0  0  0  0
   -5.7090   22.8860  -31.8950 C   0  0  0  0  0  0  0  0  0  0  0  0
   -5.4150   24.1530  -31.3810 C   0  0  0  0  0  0  0  0  0  0  0  0
   -4.1550   24.4140  -30.8370 C   0  0  0  0  0  0  0  0  0  0  0  0
   -3.8660   25.6740  -30.3270 O   0  0  0  0  0  0  0  0  0  0  0  0
   -3.1870   23.4070  -30.8050 C   0  0  0  0  0  0  0  0  0  0  0  0
   -3.4770   22.1390  -31.3180 C   0  0  0  0  0  0  0  0  0  0  0  0
   -4.1140   19.7640  -33.0040 O   0  0  0  0  0  0  0  0  0  0  0  0
   -4.6820   18.6370  -33.3590 C   0  0  0  0  0  0  0  0  0  0  0  0
   -4.0970   17.5520  -34.0190 C   0  0  0  0  0  0  0  0  0  0  0  0
   -2.6470   17.5840  -34.4120 C   0  0  0  0  0  0  0  0  0  0  0  0
   -4.9270   16.4300  -34.2970 C   0  0  0  0  0  0  0  0  0  0  0  0
   -4.4230   15.3040  -34.9540 O   0  0  0  0  0  0  0  0  0  0  0  0
   -7.5036   14.7984  -33.2609 H   0  0  0  0  0  0  0  0  0  0  0  0
   -8.0446   15.5785  -34.7858 H   0  0  0  0  0  0  0  0  0  0  0  0
   -6.5980   14.5137  -34.7858 H   0  0  0  0  0  0  0  0  0  0  0  0
   -7.8932   17.5824  -32.9375 H   0  0  0  0  0  0  0  0  0  0  0  0
   -7.1996   20.1911  -31.9429 H   0  0  0  0  0  0  0  0  0  0  0  0
   -6.7025   22.6873  -32.3233 H   0  0  0  0  0  0  0  0  0  0  0  0
   -6.1774   24.9456  -31.4051 H   0  0  0  0  0  0  0  0  0  0  0  0
   -2.1953   23.6120  -30.3756 H   0  0  0  0  0  0  0  0  0  0  0  0
   -2.7099   21.3511  -31.2913 H   0  0  0  0  0  0  0  0  0  0  0  0
   -2.0220   17.5978  -33.5069 H   0  0  0  0  0  0  0  0  0  0  0  0
   -2.4089   16.6909  -35.0084 H   0  0  0  0  0  0  0  0  0  0  0  0
   -2.4486   18.4867  -35.0084 H   0  0  0  0  0  0  0  0  0  0  0  0
   -3.4560   15.0120  -34.8860 H   0  0  0  0  0  0  0  0  0  0  0  0
  1  2  1  0
  2  3  2  0
  3  4  1  0
  4  5  1  0
  5  6  2  0
  6  7  1  0
  7  8  2  0
  8  9  1  0
  9 10  2  0
 10 11  1  0
 10 12  1  0
 12 13  2  0
  6 14  1  0
 14 15  1  0
 15 16  1  0
 16 17  1  0
 16 18  2  0
 18 19  1  0
 18  2  1  0
 15  4  2  0
 13  7  1  0
  1 20  1  0
  1 21  1  0
  1 22  1  0
  3 23  1  0
  5 24  1  0
  8 25  1  0
  9 26  1  0
 12 27  1  0
 13 28  1  0
 17 29  1  0
 17 30  1  0
 17 31  1  0
 19 32  1  0
M  CHG  1  11  -1
M  END
>  <UniqueID>  (23) 
22

>  <SMILES>  (23) 
Cc1cc2cc(-c3ccc([O-])cc3)oc2c(C)c1O

>  <Energy>  (23) 
69.13279876850156

>  <Genealogy>  (23) 
Cc1cc2cc(-c3ccc([O-])cc3)oc2c(C)c1O (protonated)
Cc1cc2cc(-c3ccc([O-])cc3)oc2c(C)c1O (3D coordinates assigned)
Cc1cc2cc(-c3ccc([O-])cc3)oc2c(C)c1O (optimized conformer: 69.13279876850156 kcal/mol)

>  <smiles>  (23) 
Cc1cc2cc(-c3ccc(O)cc3)oc2c(C)c1O

>  <score_type>  (23) 
oracle

>  <origin>  (23) 
adgpu

>  <m_score__min__energy>  (23) 
-9.0099999999999998

>  <m_primary>  (23) 
energy

$$$$
23:0
     RDKit          3D

 37 38  0  0  0  0  0  0  0  0999 V2000
   -8.9233   23.6276  -30.9946 H   0  0  0  0  0  0  0  0  0  0  0  0
   -8.0580   23.0470  -31.3470 C   0  0  0  0  0  0  0  0  0  0  0  0
   -6.7680   23.5510  -31.1810 C   0  0  0  0  0  0  0  0  0  0  0  0
   -6.6201   24.5227  -30.6870 H   0  0  0  0  0  0  0  0  0  0  0  0
   -5.6560   22.8250  -31.6410 C   0  0  0  0  0  0  0  0  0  0  0  0
   -4.3160   23.3110  -31.4630 N   0  0  0  0  0  0  0  0  0  0  0  0
   -3.8870   24.3080  -30.5290 C   0  0  0  0  0  0  0  0  0  0  0  0
   -3.9400   25.5310  -30.8310 O   0  0  0  0  0  0  0  0  0  0  0  0
   -3.3440   23.8830  -29.2700 N   0  0  0  0  0  0  0  0  0  0  0  0
   -2.4240   24.4960  -28.5870 C   0  0  0  0  0  0  0  0  0  0  0  0
   -1.8270   25.6480  -28.9650 N   0  0  0  0  0  0  0  0  0  0  0  0
   -0.9160   26.0710  -28.0910 N   0  0  0  0  0  0  0  0  0  0  0  0
   -0.7880   25.2700  -27.0050 C   0  0  0  0  0  0  0  0  0  0  0  0
    0.2250   25.4960  -25.8970 C   0  0  0  0  0  0  0  0  0  0  0  0
   -0.3720   26.3880  -24.7900 C   0  0  0  0  0  0  0  0  0  0  0  0
   -0.0998   25.9813  -23.8048 H   0  0  0  0  0  0  0  0  0  0  0  0
    0.0254   27.4091  -24.8877 H   0  0  0  0  0  0  0  0  0  0  0  0
   -1.4674   26.4099  -24.8877 H   0  0  0  0  0  0  0  0  0  0  0  0
    1.4660   26.1870  -26.4880 C   0  0  0  0  0  0  0  0  0  0  0  0
    2.1098   26.5455  -25.6713 H   0  0  0  0  0  0  0  0  0  0  0  0
    2.0247   25.4701  -27.1076 H   0  0  0  0  0  0  0  0  0  0  0  0
    1.1508   27.0395  -27.1076 H   0  0  0  0  0  0  0  0  0  0  0  0
    0.6320   24.1440  -25.2790 C   0  0  0  0  0  0  0  0  0  0  0  0
    0.6090   24.2206  -24.1819 H   0  0  0  0  0  0  0  0  0  0  0  0
   -0.0713   23.3644  -25.6070 H   0  0  0  0  0  0  0  0  0  0  0  0
    1.6488   23.8822  -25.6070 H   0  0  0  0  0  0  0  0  0  0  0  0
   -1.8300   23.9410  -27.1180 S   0  0  0  0  0  0  0  0  0  0  0  0
   -5.8560   21.5640  -32.2340 C   0  0  0  0  0  0  0  0  0  0  0  0
   -4.4720   20.6220  -32.7850 Cl  0  0  0  0  0  0  0  0  0  0  0  0
   -7.1540   21.0530  -32.4030 C   0  0  0  0  0  0  0  0  0  0  0  0
   -7.3100   19.7970  -33.0120 O   0  0  0  0  0  0  0  0  0  0  0  0
   -7.9060   18.6650  -32.3850 C   0  0  0  0  0  0  0  0  0  0  0  0
   -7.8468   18.7775  -31.2924 H   0  0  0  0  0  0  0  0  0  0  0  0
   -8.9604   18.5902  -32.6893 H   0  0  0  0  0  0  0  0  0  0  0  0
   -7.3710   17.7533  -32.6893 H   0  0  0  0  0  0  0  0  0  0  0  0
   -8.2540   21.8080  -31.9590 C   0  0  0  0  0  0  0  0  0  0  0  0
   -9.2744   21.4201  -32.0947 H   0  0  0  0  0  0  0  0  0  0  0  0
  1  2  1  0
  2  3  2  0
  3  4  1  0
  3  5  1  0
  5  6  1  0
  6  7  1  0
  7  8  2  0
  7  9  1  0
  9 10  2  0
 10 11  1  0
 11 12  1  0
 12 13  2  0
 13 14  1  0
 14 15  1  0
 15 16  1  0
 15 17  1  0
 15 18  1  0
 14 19  1  0
 19 20  1  0
 19 21  1  0
 19 22  1  0
 14 23  1  0
 23 24  1  0
 23 25  1  0
 23 26  1  0
 13 27  1  0
  5 28  2  0
 28 29  1  0
 28 30  1  0
 30 31  1  0
 31 32  1  0
 32 33  1  0
 32 34  1  0
 32 35  1  0
 30 36  2  0
 36 37  1  0
 36  2  1  0
 27 10  1  0
M  CHG  2   6  -1  11  -1
M  END
>  <UniqueID>  (24) 
23

>  <SMILES>  (24) 
COc1cccc([N-]C(=O)/N=c2\[n-]nc(C(C)(C)C)s2)c1Cl

>  <Energy>  (24) 
72.80185507936858

>  <Genealogy>  (24) 
COc1cccc([N-]C(=O)N=c2[n-]nc(C(C)(C)C)s2)c1Cl (protonated)
COc1cccc([N-]C(=O)/N=c2\[n-]nc(C(C)(C)C)s2)c1Cl (cis-trans isomerization)
COc1cccc([N-]C(=O)/N=c2\[n-]nc(C(C)(C)C)s2)c1Cl (3D coordinates assigned)
COc1cccc([N-]C(=O)/N=c2\[n-]nc(C(C)(C)C)s2)c1Cl (optimized conformer: 72.80185507936858 kcal/mol)

>  <smiles>  (24) 
COc1cccc(NC(=O)N=c2[nH]nc(C(C)(C)C)s2)c1Cl

>  <score_type>  (24) 
oracle

>  <origin>  (24) 
adgpu

>  <m_score__min__energy>  (24) 
-9.6999999999999993

>  <m_primary>  (24) 
energy

$$$$
24:0
     RDKit          3D

 41 43  0  0  0  0  0  0  0  0999 V2000
   -2.7770   19.2500  -26.6450 C   0  0  0  0  0  0  0  0  0  0  0  0
   -2.0990   20.4960  -26.7670 O   0  0  0  0  0  0  0  0  0  0  0  0
   -1.9080   21.1810  -27.9760 C   0  0  0  0  0  0  0  0  0  0  0  0
   -1.3100   20.4950  -29.0370 C   0  0  0  0  0  0  0  0  0  0  0  0
   -1.0870   21.1230  -30.2670 C   0  0  0  0  0  0  0  0  0  0  0  0
   -0.4890   20.3810  -31.2970 O   0  0  0  0  0  0  0  0  0  0  0  0
   -0.8190   20.5080  -32.6760 C   0  0  0  0  0  0  0  0  0  0  0  0
   -1.4690   22.4670  -30.4320 C   0  0  0  0  0  0  0  0  0  0  0  0
   -2.0950   23.1660  -29.3860 C   0  0  0  0  0  0  0  0  0  0  0  0
   -2.5200   24.5760  -29.5650 C   0  0  0  0  0  0  0  0  0  0  0  0
   -1.8890   25.4920  -28.9720 O   0  0  0  0  0  0  0  0  0  0  0  0
   -3.6010   24.9430  -30.4340 N   0  0  0  0  0  0  0  0  0  0  0  0
   -4.7400   24.1310  -30.7580 C   0  0  0  0  0  0  0  0  0  0  0  0
   -6.0160   24.4220  -30.2570 C   0  0  0  0  0  0  0  0  0  0  0  0
   -7.1030   23.6140  -30.5880 C   0  0  0  0  0  0  0  0  0  0  0  0
   -6.9450   22.5060  -31.4410 C   0  0  0  0  0  0  0  0  0  0  0  0
   -8.0960   21.7080  -31.7780 N   0  0  0  0  0  0  0  0  0  0  0  0
   -8.2190   20.3700  -31.7160 C   0  0  0  0  0  0  0  0  0  0  0  0
   -9.4670   20.0120  -32.0660 N   0  0  0  0  0  0  0  0  0  0  0  0
  -10.0970   21.1490  -32.3300 N   0  0  0  0  0  0  0  0  0  0  0  0
   -9.2740   22.1720  -32.1530 N   0  0  0  0  0  0  0  0  0  0  0  0
   -5.6550   22.2120  -31.9530 C   0  0  0  0  0  0  0  0  0  0  0  0
   -5.4080   21.0210  -32.8410 C   0  0  0  0  0  0  0  0  0  0  0  0
   -4.5730   23.0440  -31.6210 C   0  0  0  0  0  0  0  0  0  0  0  0
   -2.2980   22.5210  -28.1550 C   0  0  0  0  0  0  0  0  0  0  0  0
   -2.9091   19.0072  -25.5803 H   0  0  0  0  0  0  0  0  0  0  0  0
   -3.7618   19.3194  -27.1302 H   0  0  0  0  0  0  0  0  0  0  0  0
   -2.1839   18.4608  -27.1302 H   0  0  0  0  0  0  0  0  0  0  0  0
   -1.0101   19.4452  -28.9027 H   0  0  0  0  0  0  0  0  0  0  0  0
   -1.8416   20.9015  -32.7736 H   0  0  0  0  0  0  0  0  0  0  0  0
   -0.1126   21.1985  -33.1600 H   0  0  0  0  0  0  0  0  0  0  0  0
   -0.7578   19.5221  -33.1600 H   0  0  0  0  0  0  0  0  0  0  0  0
   -1.2759   22.9751  -31.3883 H   0  0  0  0  0  0  0  0  0  0  0  0
   -6.1607   25.2919  -29.5995 H   0  0  0  0  0  0  0  0  0  0  0  0
   -8.0968   23.8456  -30.1771 H   0  0  0  0  0  0  0  0  0  0  0  0
   -7.4194   19.6737  -31.4232 H   0  0  0  0  0  0  0  0  0  0  0  0
   -5.2237   20.1323  -32.2196 H   0  0  0  0  0  0  0  0  0  0  0  0
   -6.2894   20.8480  -33.4760 H   0  0  0  0  0  0  0  0  0  0  0  0
   -4.5305   21.2128  -33.4760 H   0  0  0  0  0  0  0  0  0  0  0  0
   -3.5798   22.8372  -32.0463 H   0  0  0  0  0  0  0  0  0  0  0  0
   -2.7660   23.0683  -27.3235 H   0  0  0  0  0  0  0  0  0  0  0  0
  1  2  1  0
  2  3  1  0
  3  4  2  0
  4  5  1  0
  5  6  1  0
  6  7  1  0
  5  8  2  0
  8  9  1  0
  9 10  1  0
 10 11  2  0
 10 12  1  0
 12 13  1  0
 13 14  2  0
 14 15  1  0
 15 16  2  0
 16 17  1  0
 17 18  1  0
 18 19  2  0
 19 20  1  0
 20 21  2  0
 16 22  1  0
 22 23  1  0
 22 24  2  0
  9 25  2  0
 25  3  1  0
 24 13  1  0
 21 17  1  0
  1 26  1  0
  1 27  1  0
  1 28  1  0
  4 29  1  0
  7 30  1  0
  7 31  1  0
  7 32  1  0
  8 33  1  0
 14 34  1  0
 15 35  1  0
 18 36  1  0
 23 37  1  0
 23 38  1  0
 23 39  1  0
 24 40  1  0
 25 41  1  0
M  CHG  1  12  -1
M  END
>  <UniqueID>  (25) 
24

>  <SMILES>  (25) 
COc1cc(OC)cc(C(=O)[N-]c2ccc(-n3cnnn3)c(C)c2)c1

>  <Energy>  (25) 
92.9824753038038

>  <Genealogy>  (25) 
COc1cc(OC)cc(C(=O)[N-]c2ccc(-n3cnnn3)c(C)c2)c1 (protonated)
COc1cc(OC)cc(C(=O)[N-]c2ccc(-n3cnnn3)c(C)c2)c1 (3D coordinates assigned)
COc1cc(OC)cc(C(=O)[N-]c2ccc(-n3cnnn3)c(C)c2)c1 (optimized conformer: 92.9824753038038 kcal/mol)

>  <smiles>  (25) 
COc1cc(OC)cc(C(=O)Nc2ccc(-n3cnnn3)c(C)c2)c1

>  <score_type>  (25) 
oracle

>  <origin>  (25) 
adgpu

>  <m_score__min__energy>  (25) 
-9.5600000000000005

>  <m_primary>  (25) 
energy

$$$$
25:0
     RDKit          3D

 35 36  0  0  0  0  0  0  0  0999 V2000
   -5.6560   25.6440  -30.2240 C   0  0  0  0  0  0  0  0  0  0  0  0
   -4.9790   24.7100  -31.1410 N   0  0  0  0  0  0  0  0  0  0  0  0
   -4.0900   23.8280  -30.3660 C   0  0  0  0  0  0  0  0  0  0  0  0
   -5.9600   23.9050  -31.9010 C   0  0  0  0  0  0  0  0  0  0  0  0
   -7.2200   23.6490  -31.0610 C   0  0  0  0  0  0  0  0  0  0  0  0
   -8.3550   23.0660  -31.9020 C   0  0  0  0  0  0  0  0  0  0  0  0
   -8.6560   21.7430  -31.4620 O   0  0  0  0  0  0  0  0  0  0  0  0
   -8.0990   20.5770  -32.0100 C   0  0  0  0  0  0  0  0  0  0  0  0
   -8.7790   19.3680  -31.8230 C   0  0  0  0  0  0  0  0  0  0  0  0
   -8.2710   18.1750  -32.3440 C   0  0  0  0  0  0  0  0  0  0  0  0
   -7.0650   18.1780  -33.0650 C   0  0  0  0  0  0  0  0  0  0  0  0
   -6.5110   17.0080  -33.6100 C   0  0  0  0  0  0  0  0  0  0  0  0
   -7.0820   15.8920  -33.4700 O   0  0  0  0  0  0  0  0  0  0  0  0
   -5.3090   17.0840  -34.3160 C   0  0  0  0  0  0  0  0  0  0  0  0
   -4.6880   18.3250  -34.4640 C   0  0  0  0  0  0  0  0  0  0  0  0
   -5.2310   19.4200  -33.9390 O   0  0  0  0  0  0  0  0  0  0  0  0
   -6.3740   19.3970  -33.2580 C   0  0  0  0  0  0  0  0  0  0  0  0
   -6.8910   20.5860  -32.7320 C   0  0  0  0  0  0  0  0  0  0  0  0
   -5.4457   25.3539  -29.1840 H   0  0  0  0  0  0  0  0  0  0  0  0
   -5.2866   26.6648  -30.4017 H   0  0  0  0  0  0  0  0  0  0  0  0
   -6.7410   25.6106  -30.4017 H   0  0  0  0  0  0  0  0  0  0  0  0
   -4.2561   23.9928  -29.2912 H   0  0  0  0  0  0  0  0  0  0  0  0
   -4.3075   22.7786  -30.6140 H   0  0  0  0  0  0  0  0  0  0  0  0
   -3.0424   24.0538  -30.6140 H   0  0  0  0  0  0  0  0  0  0  0  0
   -6.2402   24.4472  -32.8162 H   0  0  0  0  0  0  0  0  0  0  0  0
   -5.5022   22.9377  -32.1552 H   0  0  0  0  0  0  0  0  0  0  0  0
   -6.9734   22.9408  -30.2562 H   0  0  0  0  0  0  0  0  0  0  0  0
   -7.5586   24.6119  -30.6509 H   0  0  0  0  0  0  0  0  0  0  0  0
   -9.2491   23.6978  -31.7958 H   0  0  0  0  0  0  0  0  0  0  0  0
   -8.0445   23.0347  -32.9568 H   0  0  0  0  0  0  0  0  0  0  0  0
   -9.7238   19.3568  -31.2597 H   0  0  0  0  0  0  0  0  0  0  0  0
   -8.8161   17.2321  -32.1894 H   0  0  0  0  0  0  0  0  0  0  0  0
   -4.8580   16.1791  -34.7492 H   0  0  0  0  0  0  0  0  0  0  0  0
   -3.7414   18.3983  -35.0195 H   0  0  0  0  0  0  0  0  0  0  0  0
   -6.3508   21.5322  -32.8835 H   0  0  0  0  0  0  0  0  0  0  0  0
  1  2  1  0
  2  3  1  0
  2  4  1  0
  4  5  1  0
  5  6  1  0
  6  7  1  0
  7  8  1  0
  8  9  2  0
  9 10  1  0
 10 11  2  0
 11 12  1  0
 12 13  2  0
 12 14  1  0
 14 15  2  0
 15 16  1  0
 16 17  1  0
 17 18  2  0
 18  8  1  0
 17 11  1  0
  1 19  1  0
  1 20  1  0
  1 21  1  0
  3 22  1  0
  3 23  1  0
  3 24  1  0
  4 25  1  0
  4 26  1  0
  5 27  1  0
  5 28  1  0
  6 29  1  0
  6 30  1  0
  9 31  1  0
 10 32  1  0
 14 33  1  0
 15 34  1  0
 18 35  1  0
M  END
>  <UniqueID>  (26) 
25

>  <SMILES>  (26) 
CN(C)CCCOc1ccc2c(=O)ccoc2c1

>  <Energy>  (26) 
36.57628114652577

>  <Genealogy>  (26) 
CN(C)CCCOc1ccc2c(=O)ccoc2c1 (3D coordinates assigned)
CN(C)CCCOc1ccc2c(=O)ccoc2c1 (optimized conformer: 36.57628114652577 kcal/mol)

>  <smiles>  (26) 
CN(C)CCCOc1ccc2c(=O)ccoc2c1

>  <score_type>  (26) 
oracle

>  <origin>  (26) 
adgpu

>  <m_score__min__energy>  (26) 
-6.5199999999999996

>  <m_primary>  (26) 
energy

$$$$
26:0
     RDKit          3D

 18 19  0  0  0  0  0  0  0  0999 V2000
   -4.1890   25.6560  -30.8460 O   0  0  0  0  0  0  0  0  0  0  0  0
   -5.0920   24.8000  -30.6640 C   0  0  0  0  0  0  0  0  0  0  0  0
   -5.4690   23.9040  -31.5980 N   0  0  0  0  0  0  0  0  0  0  0  0
   -6.4340   23.2280  -30.9340 C   0  0  0  0  0  0  0  0  0  0  0  0
   -7.2370   22.1470  -31.5440 C   0  0  0  0  0  0  0  0  0  0  0  0
   -8.6360   22.1970  -31.4220 C   0  0  0  0  0  0  0  0  0  0  0  0
   -9.4340   21.1870  -31.9630 C   0  0  0  0  0  0  0  0  0  0  0  0
   -8.8440   20.1200  -32.6420 C   0  0  0  0  0  0  0  0  0  0  0  0
   -7.4570   20.0670  -32.7910 C   0  0  0  0  0  0  0  0  0  0  0  0
   -6.6460   21.0740  -32.2520 C   0  0  0  0  0  0  0  0  0  0  0  0
   -4.7640   20.9840  -32.6160 Br  0  0  0  0  0  0  0  0  0  0  0  0
   -6.6220   23.7160  -29.6930 N   0  0  0  0  0  0  0  0  0  0  0  0
   -5.7750   24.6880  -29.5530 O   0  0  0  0  0  0  0  0  0  0  0  0
   -9.1070   23.0400  -30.8952 H   0  0  0  0  0  0  0  0  0  0  0  0
  -10.5276   21.2323  -31.8540 H   0  0  0  0  0  0  0  0  0  0  0  0
   -9.4725   19.3199  -33.0602 H   0  0  0  0  0  0  0  0  0  0  0  0
   -6.9978   19.2287  -33.3354 H   0  0  0  0  0  0  0  0  0  0  0  0
   -7.3320   23.4300  -28.9830 H   0  0  0  0  0  0  0  0  0  0  0  0
  1  2  2  0
  2  3  1  0
  3  4  2  0
  4  5  1  0
  5  6  2  0
  6  7  1  0
  7  8  2  0
  8  9  1  0
  9 10  2  0
 10 11  1  0
  4 12  1  0
 12 13  1  0
 13  2  1  0
 10  5  1  0
  6 14  1  0
  7 15  1  0
  8 16  1  0
  9 17  1  0
 12 18  1  0
M  END
>  <UniqueID>  (27) 
26

>  <SMILES>  (27) 
O=c1nc(-c2ccccc2Br)[nH]o1

>  <Energy>  (27) 
59.82607095194654

>  <Genealogy>  (27) 
O=c1nc(-c2ccccc2Br)[nH]o1 (3D coordinates assigned)
O=c1nc(-c2ccccc2Br)[nH]o1 (optimized conformer: 59.82607095194654 kcal/mol)

>  <smiles>  (27) 
O=c1nc(-c2ccccc2Br)[nH]o1

>  <score_type>  (27) 
oracle

>  <origin>  (27) 
adgpu

>  <m_score__min__energy>  (27) 
-6.8799999999999999

>  <m_primary>  (27) 
energy

$$$$
27:0
     RDKit          3D

 37 39  0  0  0  0  0  0  0  0999 V2000
   -0.6060   24.7490  -29.3420 O   0  0  0  0  0  0  0  0  0  0  0  0
   -1.9990   24.5970  -28.7940 S   0  0  0  0  0  0  0  0  0  0  0  0
   -2.1920   25.5940  -27.6820 O   0  0  0  0  0  0  0  0  0  0  0  0
   -3.1080   24.9270  -30.0870 N   0  0  0  0  0  0  0  0  0  0  0  0
   -4.3810   24.3010  -30.3020 C   0  0  0  0  0  0  0  0  0  0  0  0
   -5.4890   24.8030  -29.6070 C   0  0  0  0  0  0  0  0  0  0  0  0
   -6.7630   24.2700  -29.8210 C   0  0  0  0  0  0  0  0  0  0  0  0
   -6.9410   23.2250  -30.7310 C   0  0  0  0  0  0  0  0  0  0  0  0
   -5.8350   22.6930  -31.4250 C   0  0  0  0  0  0  0  0  0  0  0  0
   -5.9800   21.6600  -32.3660 O   0  0  0  0  0  0  0  0  0  0  0  0
   -6.8540   20.5710  -32.2360 C   0  0  0  0  0  0  0  0  0  0  0  0
   -6.3820   19.2610  -32.0220 C   0  0  0  0  0  0  0  0  0  0  0  0
   -7.2840   18.2020  -31.8700 C   0  0  0  0  0  0  0  0  0  0  0  0
   -8.6600   18.4380  -31.9610 C   0  0  0  0  0  0  0  0  0  0  0  0
   -9.1340   19.7280  -32.2180 C   0  0  0  0  0  0  0  0  0  0  0  0
   -8.2330   20.7910  -32.3590 C   0  0  0  0  0  0  0  0  0  0  0  0
   -4.5610   23.2410  -31.2130 C   0  0  0  0  0  0  0  0  0  0  0  0
   -2.1840   22.9490  -28.1890 C   0  0  0  0  0  0  0  0  0  0  0  0
   -2.9480   22.0050  -28.8880 C   0  0  0  0  0  0  0  0  0  0  0  0
   -3.0420   20.6910  -28.4160 C   0  0  0  0  0  0  0  0  0  0  0  0
   -2.3700   20.3080  -27.2450 C   0  0  0  0  0  0  0  0  0  0  0  0
   -2.4620   18.6530  -26.6680 Cl  0  0  0  0  0  0  0  0  0  0  0  0
   -1.6100   21.2450  -26.5420 C   0  0  0  0  0  0  0  0  0  0  0  0
   -1.5200   22.5610  -27.0090 C   0  0  0  0  0  0  0  0  0  0  0  0
   -5.3550   25.6236  -28.8868 H   0  0  0  0  0  0  0  0  0  0  0  0
   -7.6267   24.6737  -29.2723 H   0  0  0  0  0  0  0  0  0  0  0  0
   -7.9470   22.8161  -30.9066 H   0  0  0  0  0  0  0  0  0  0  0  0
   -5.2998   19.0698  -31.9742 H   0  0  0  0  0  0  0  0  0  0  0  0
   -6.9115   17.1848  -31.6791 H   0  0  0  0  0  0  0  0  0  0  0  0
   -9.3697   17.6078  -31.8302 H   0  0  0  0  0  0  0  0  0  0  0  0
  -10.2153   19.9082  -32.3095 H   0  0  0  0  0  0  0  0  0  0  0  0
   -8.6093   21.8034  -32.5673 H   0  0  0  0  0  0  0  0  0  0  0  0
   -3.6961   22.8402  -31.7620 H   0  0  0  0  0  0  0  0  0  0  0  0
   -3.4744   22.2971  -29.8086 H   0  0  0  0  0  0  0  0  0  0  0  0
   -3.6460   19.9542  -28.9659 H   0  0  0  0  0  0  0  0  0  0  0  0
   -1.0831   20.9492  -25.6229 H   0  0  0  0  0  0  0  0  0  0  0  0
   -0.9257   23.2987  -26.4499 H   0  0  0  0  0  0  0  0  0  0  0  0
  1  2  2  0
  2  3  2  0
  2  4  1  0
  4  5  1  0
  5  6  2  0
  6  7  1  0
  7  8  2  0
  8  9  1  0
  9 10  1  0
 10 11  1  0
 11 12  2  0
 12 13  1  0
 13 14  2  0
 14 15  1  0
 15 16  2  0
  9 17  2  0
  2 18  1  0
 18 19  2  0
 19 20  1  0
 20 21  2  0
 21 22  1  0
 21 23  1  0
 23 24  2  0
 17  5  1  0
 24 18  1  0
 16 11  1  0
  6 25  1  0
  7 26  1  0
  8 27  1  0
 12 28  1  0
 13 29  1  0
 14 30  1  0
 15 31  1  0
 16 32  1  0
 17 33  1  0
 19 34  1  0
 20 35  1  0
 23 36  1  0
 24 37  1  0
M  CHG  1   4  -1
M  END
>  <UniqueID>  (28) 
27

>  <SMILES>  (28) 
O=S(=O)([N-]c1cccc(Oc2ccccc2)c1)c1ccc(Cl)cc1

>  <Energy>  (28) 
50.898599384230444

>  <Genealogy>  (28) 
O=S(=O)([N-]c1cccc(Oc2ccccc2)c1)c1ccc(Cl)cc1 (protonated)
O=S(=O)([N-]c1cccc(Oc2ccccc2)c1)c1ccc(Cl)cc1 (3D coordinates assigned)
O=S(=O)([N-]c1cccc(Oc2ccccc2)c1)c1ccc(Cl)cc1 (optimized conformer: 50.898599384230444 kcal/mol)

>  <smiles>  (28) 
O=S(=O)(Nc1cccc(Oc2ccccc2)c1)c1ccc(Cl)cc1

>  <score_type>  (28) 
oracle

>  <origin>  (28) 
adgpu

>  <m_score__min__energy>  (28) 
-10.449999999999999

>  <m_primary>  (28) 
energy

$$$$
28:0
     RDKit          3D

 32 34  0  0  0  0  0  0  0  0999 V2000
   -7.8920   18.6630  -32.7220 C   0  0  0  0  0  0  0  0  0  0  0  0
   -6.7580   19.4370  -32.9830 C   0  0  0  0  0  0  0  0  0  0  0  0
   -6.6640   20.7350  -32.4740 C   0  0  0  0  0  0  0  0  0  0  0  0
   -7.7060   21.2690  -31.6970 C   0  0  0  0  0  0  0  0  0  0  0  0
   -7.6240   22.6760  -31.1720 C   0  0  0  0  0  0  0  0  0  0  0  0
   -6.6680   23.7420  -32.3060 S   0  0  0  0  0  0  0  0  0  0  0  0
   -5.3030   23.9790  -31.1720 C   0  0  0  0  0  0  0  0  0  0  0  0
   -4.7150   25.1690  -30.9560 N   0  0  0  0  0  0  0  0  0  0  0  0
   -3.7550   24.9390  -30.0800 N   0  0  0  0  0  0  0  0  0  0  0  0
   -3.7750   23.6260  -29.7780 C   0  0  0  0  0  0  0  0  0  0  0  0
   -2.8510   22.9480  -28.8330 C   0  0  0  0  0  0  0  0  0  0  0  0
   -1.6630   23.5660  -28.3970 C   0  0  0  0  0  0  0  0  0  0  0  0
   -0.8070   22.9080  -27.5070 C   0  0  0  0  0  0  0  0  0  0  0  0
   -1.1250   21.6290  -27.0440 C   0  0  0  0  0  0  0  0  0  0  0  0
   -2.2990   21.0060  -27.4690 C   0  0  0  0  0  0  0  0  0  0  0  0
   -3.1580   21.6590  -28.3580 C   0  0  0  0  0  0  0  0  0  0  0  0
   -4.7500   22.9800  -30.4540 N   0  0  0  0  0  0  0  0  0  0  0  0
   -8.8450   20.4870  -31.4430 C   0  0  0  0  0  0  0  0  0  0  0  0
   -8.9340   19.1880  -31.9530 C   0  0  0  0  0  0  0  0  0  0  0  0
   -7.9643   17.6408  -33.1218 H   0  0  0  0  0  0  0  0  0  0  0  0
   -5.9386   19.0240  -33.5897 H   0  0  0  0  0  0  0  0  0  0  0  0
   -5.7703   21.3415  -32.6825 H   0  0  0  0  0  0  0  0  0  0  0  0
   -8.6413   23.0815  -31.0688 H   0  0  0  0  0  0  0  0  0  0  0  0
   -7.1162   22.6574  -30.1964 H   0  0  0  0  0  0  0  0  0  0  0  0
   -3.1140   25.6770  -29.7160 H   0  0  0  0  0  0  0  0  0  0  0  0
   -1.4063   24.5727  -28.7585 H   0  0  0  0  0  0  0  0  0  0  0  0
    0.1183   23.3989  -27.1712 H   0  0  0  0  0  0  0  0  0  0  0  0
   -0.4503   21.1133  -26.3448 H   0  0  0  0  0  0  0  0  0  0  0  0
   -2.5492   19.9990  -27.1038 H   0  0  0  0  0  0  0  0  0  0  0  0
   -4.0814   21.1613  -28.6890 H   0  0  0  0  0  0  0  0  0  0  0  0
   -9.6692   20.8976  -30.8412 H   0  0  0  0  0  0  0  0  0  0  0  0
   -9.8262   18.5781  -31.7484 H   0  0  0  0  0  0  0  0  0  0  0  0
  1  2  2  0
  2  3  1  0
  3  4  2  0
  4  5  1  0
  5  6  1  0
  6  7  1  0
  7  8  2  0
  8  9  1  0
  9 10  1  0
 10 11  1  0
 11 12  2  0
 12 13  1  0
 13 14  2  0
 14 15  1  0
 15 16  2  0
 10 17  2  0
  4 18  1  0
 18 19  2  0
 19  1  1  0
 17  7  1  0
 16 11  1  0
  1 20  1  0
  2 21  1  0
  3 22  1  0
  5 23  1  0
  5 24  1  0
  9 25  1  0
 12 26  1  0
 13 27  1  0
 14 28  1  0
 15 29  1  0
 16 30  1  0
 18 31  1  0
 19 32  1  0
M  END
>  <UniqueID>  (29) 
28

>  <SMILES>  (29) 
c1ccc(CSc2n[nH]c(-c3ccccc3)n2)cc1

>  <Energy>  (29) 
64.11738550320987

>  <Genealogy>  (29) 
c1ccc(CSc2n[nH]c(-c3ccccc3)n2)cc1 (3D coordinates assigned)
c1ccc(CSc2n[nH]c(-c3ccccc3)n2)cc1 (optimized conformer: 64.11738550320987 kcal/mol)

>  <smiles>  (29) 
c1ccc(CSc2n[nH]c(-c3ccccc3)n2)cc1

>  <score_type>  (29) 
oracle

>  <origin>  (29) 
adgpu

>  <m_score__min__energy>  (29) 
-8.3200000000000003

>  <m_primary>  (29) 
energy

$$$$
29:0
     RDKit          3D

 38 40  0  0  0  0  0  0  0  0999 V2000
   -0.1100   25.7200  -27.3400 C   0  0  0  0  0  0  0  0  0  0  0  0
   -1.5430   25.2910  -27.4460 C   0  0  0  0  0  0  0  0  0  0  0  0
   -2.3760   25.3240  -26.3180 C   0  0  0  0  0  0  0  0  0  0  0  0
   -3.7030   24.8990  -26.4120 C   0  0  0  0  0  0  0  0  0  0  0  0
   -4.2020   24.4190  -27.6250 C   0  0  0  0  0  0  0  0  0  0  0  0
   -3.3700   24.3400  -28.7540 C   0  0  0  0  0  0  0  0  0  0  0  0
   -3.8830   23.8470  -30.0490 C   0  0  0  0  0  0  0  0  0  0  0  0
   -4.7300   24.5600  -30.8200 N   0  0  0  0  0  0  0  0  0  0  0  0
   -4.9990   23.8250  -31.8890 N   0  0  0  0  0  0  0  0  0  0  0  0
   -4.3080   22.6780  -31.7600 C   0  0  0  0  0  0  0  0  0  0  0  0
   -4.3740   21.3470  -32.9620 S   0  0  0  0  0  0  0  0  0  0  0  0
   -5.2340   20.1760  -31.8530 C   0  0  0  0  0  0  0  0  0  0  0  0
   -6.7320   20.3060  -31.9750 C   0  0  0  0  0  0  0  0  0  0  0  0
   -7.3340   21.5590  -31.7620 C   0  0  0  0  0  0  0  0  0  0  0  0
   -8.7160   21.7130  -31.8970 C   0  0  0  0  0  0  0  0  0  0  0  0
   -9.5110   20.6200  -32.2430 C   0  0  0  0  0  0  0  0  0  0  0  0
   -8.9270   19.3700  -32.4590 C   0  0  0  0  0  0  0  0  0  0  0  0
   -7.5430   19.2040  -32.3290 C   0  0  0  0  0  0  0  0  0  0  0  0
   -6.8620   17.6070  -32.6180 Cl  0  0  0  0  0  0  0  0  0  0  0  0
   -3.5790   22.6620  -30.6260 N   0  0  0  0  0  0  0  0  0  0  0  0
   -2.6830   21.6060  -30.1590 C   0  0  0  0  0  0  0  0  0  0  0  0
   -2.0430   24.7900  -28.6590 C   0  0  0  0  0  0  0  0  0  0  0  0
    0.1702   25.8039  -26.2796 H   0  0  0  0  0  0  0  0  0  0  0  0
    0.5331   24.9750  -27.8313 H   0  0  0  0  0  0  0  0  0  0  0  0
    0.0179   26.6958  -27.8313 H   0  0  0  0  0  0  0  0  0  0  0  0
   -1.9829   25.6857  -25.3564 H   0  0  0  0  0  0  0  0  0  0  0  0
   -4.3569   24.9424  -25.5285 H   0  0  0  0  0  0  0  0  0  0  0  0
   -5.2526   24.1010  -27.6966 H   0  0  0  0  0  0  0  0  0  0  0  0
   -4.9405   19.1496  -32.1184 H   0  0  0  0  0  0  0  0  0  0  0  0
   -4.9486   20.4062  -30.8159 H   0  0  0  0  0  0  0  0  0  0  0  0
   -6.7124   22.4239  -31.4872 H   0  0  0  0  0  0  0  0  0  0  0  0
   -9.1779   22.6973  -31.7303 H   0  0  0  0  0  0  0  0  0  0  0  0
  -10.5993   20.7430  -32.3458 H   0  0  0  0  0  0  0  0  0  0  0  0
   -9.5577   18.5114  -32.7327 H   0  0  0  0  0  0  0  0  0  0  0  0
   -2.6726   21.5938  -29.0591 H   0  0  0  0  0  0  0  0  0  0  0  0
   -3.0359   20.6336  -30.5332 H   0  0  0  0  0  0  0  0  0  0  0  0
   -1.6662   21.7958  -30.5332 H   0  0  0  0  0  0  0  0  0  0  0  0
   -1.3893   24.7497  -29.5428 H   0  0  0  0  0  0  0  0  0  0  0  0
  1  2  1  0
  2  3  2  0
  3  4  1  0
  4  5  2  0
  5  6  1  0
  6  7  1  0
  7  8  2  0
  8  9  1  0
  9 10  2  0
 10 11  1  0
 11 12  1  0
 12 13  1  0
 13 14  2  0
 14 15  1  0
 15 16  2  0
 16 17  1  0
 17 18  2  0
 18 19  1  0
 10 20  1  0
 20 21  1  0
  6 22  2  0
 22  2  1  0
 20  7  1  0
 18 13  1  0
  1 23  1  0
  1 24  1  0
  1 25  1  0
  3 26  1  0
  4 27  1  0
  5 28  1  0
 12 29  1  0
 12 30  1  0
 14 31  1  0
 15 32  1  0
 16 33  1  0
 17 34  1  0
 21 35  1  0
 21 36  1  0
 21 37  1  0
 22 38  1  0
M  END
>  <UniqueID>  (30) 
29

>  <SMILES>  (30) 
Cc1cccc(-c2nnc(SCc3ccccc3Cl)n2C)c1

>  <Energy>  (30) 
75.00759721189664

>  <Genealogy>  (30) 
Cc1cccc(-c2nnc(SCc3ccccc3Cl)n2C)c1 (3D coordinates assigned)
Cc1cccc(-c2nnc(SCc3ccccc3Cl)n2C)c1 (optimized conformer: 75.00759721189664 kcal/mol)

>  <smiles>  (30) 
Cc1cccc(-c2nnc(SCc3ccccc3Cl)n2C)c1

>  <score_type>  (30) 
oracle

>  <origin>  (30) 
adgpu

>  <m_score__min__energy>  (30) 
-8.8599999999999994

>  <m_primary>  (30) 
energy

$$$$
30:0
     RDKit          3D

 50 53  0  0  0  0  0  0  0  0999 V2000
    1.9608   18.2996  -30.2635 H   0  0  0  0  0  0  0  0  0  0  0  0
    1.2210   19.0960  -30.0950 C   0  0  0  0  0  0  0  0  0  0  0  0
    0.1430   19.2050  -30.9120 N   0  0  0  0  0  0  0  0  0  0  0  0
   -0.7760   20.1860  -30.7100 C   0  0  0  0  0  0  0  0  0  0  0  0
   -1.9200   20.3030  -31.5800 N   0  0  0  0  0  0  0  0  0  0  0  0
   -2.3940   19.1100  -32.3040 C   0  0  0  0  0  0  0  0  0  0  0  0
   -1.5511   18.6694  -32.8567 H   0  0  0  0  0  0  0  0  0  0  0  0
   -2.7961   18.3979  -31.5683 H   0  0  0  0  0  0  0  0  0  0  0  0
   -3.5090   19.4580  -33.2930 C   0  0  0  0  0  0  0  0  0  0  0  0
   -3.0818   19.9956  -34.1523 H   0  0  0  0  0  0  0  0  0  0  0  0
   -3.9912   18.5326  -33.6410 H   0  0  0  0  0  0  0  0  0  0  0  0
   -4.5050   20.3080  -32.6310 N   0  0  0  0  0  0  0  0  0  0  0  0
   -5.8990   19.9480  -32.6390 C   0  0  0  0  0  0  0  0  0  0  0  0
   -6.2870   18.5990  -32.7020 C   0  0  0  0  0  0  0  0  0  0  0  0
   -5.5206   17.8106  -32.7350 H   0  0  0  0  0  0  0  0  0  0  0  0
   -7.6410   18.2530  -32.7230 C   0  0  0  0  0  0  0  0  0  0  0  0
   -7.9367   17.1945  -32.7687 H   0  0  0  0  0  0  0  0  0  0  0  0
   -8.6200   19.2500  -32.6860 C   0  0  0  0  0  0  0  0  0  0  0  0
   -9.9330   18.9130  -32.7080 F   0  0  0  0  0  0  0  0  0  0  0  0
   -8.2440   20.5950  -32.6300 C   0  0  0  0  0  0  0  0  0  0  0  0
   -9.0142   21.3799  -32.6024 H   0  0  0  0  0  0  0  0  0  0  0  0
   -6.8910   20.9440  -32.6090 C   0  0  0  0  0  0  0  0  0  0  0  0
   -6.6004   22.0041  -32.5688 H   0  0  0  0  0  0  0  0  0  0  0  0
   -4.0660   21.4960  -31.8830 C   0  0  0  0  0  0  0  0  0  0  0  0
   -4.4811   22.3934  -32.3650 H   0  0  0  0  0  0  0  0  0  0  0  0
   -4.4260   21.3999  -30.8480 H   0  0  0  0  0  0  0  0  0  0  0  0
   -2.5350   21.6150  -31.8460 C   0  0  0  0  0  0  0  0  0  0  0  0
   -2.1780   21.9918  -32.8158 H   0  0  0  0  0  0  0  0  0  0  0  0
   -2.2523   22.3093  -31.0410 H   0  0  0  0  0  0  0  0  0  0  0  0
   -0.6020   21.0560  -29.6800 N   0  0  0  0  0  0  0  0  0  0  0  0
    0.4810   20.9600  -28.8630 C   0  0  0  0  0  0  0  0  0  0  0  0
    0.6470   21.7740  -27.8610 N   0  0  0  0  0  0  0  0  0  0  0  0
   -0.1810   22.8990  -27.5180 C   0  0  0  0  0  0  0  0  0  0  0  0
   -0.3460   23.3260  -26.1870 C   0  0  0  0  0  0  0  0  0  0  0  0
    0.1764   22.8013  -25.3735 H   0  0  0  0  0  0  0  0  0  0  0  0
   -1.1720   24.4150  -25.8970 C   0  0  0  0  0  0  0  0  0  0  0  0
   -1.2786   24.7609  -24.8583 H   0  0  0  0  0  0  0  0  0  0  0  0
   -1.8630   25.0660  -26.9220 C   0  0  0  0  0  0  0  0  0  0  0  0
   -2.4922   25.9384  -26.6917 H   0  0  0  0  0  0  0  0  0  0  0  0
   -1.7560   24.6090  -28.2460 C   0  0  0  0  0  0  0  0  0  0  0  0
   -2.4390   25.2610  -29.3250 N   0  0  0  0  0  0  0  0  0  0  0  0
   -3.7230   24.9130  -29.8620 C   0  0  0  0  0  0  0  0  0  0  0  0
   -4.1500   25.5330  -30.8710 O   0  0  0  0  0  0  0  0  0  0  0  0
   -4.5540   23.8060  -29.2860 C   0  0  0  0  0  0  0  0  0  0  0  0
   -4.5180   23.8539  -28.1876 H   0  0  0  0  0  0  0  0  0  0  0  0
   -5.5951   23.9151  -29.6239 H   0  0  0  0  0  0  0  0  0  0  0  0
   -4.1586   22.8367  -29.6239 H   0  0  0  0  0  0  0  0  0  0  0  0
   -0.9030   23.5350  -28.5350 C   0  0  0  0  0  0  0  0  0  0  0  0
   -0.7996   23.1876  -29.5736 H   0  0  0  0  0  0  0  0  0  0  0  0
    1.3860   19.9700  -29.0700 N   0  0  0  0  0  0  0  0  0  0  0  0
  1  2  1  0
  2  3  2  0
  3  4  1  0
  4  5  1  0
  5  6  1  0
  6  7  1  0
  6  8  1  0
  6  9  1  0
  9 10  1  0
  9 11  1  0
  9 12  1  0
 12 13  1  0
 13 14  2  0
 14 15  1  0
 14 16  1  0
 16 17  1  0
 16 18  2  0
 18 19  1  0
 18 20  1  0
 20 21  1  0
 20 22  2  0
 22 23  1  0
 12 24  1  0
 24 25  1  0
 24 26  1  0
 24 27  1  0
 27 28  1  0
 27 29  1  0
  4 30  2  0
 30 31  1  0
 31 32  2  0
 32 33  1  0
 33 34  2  0
 34 35  1  0
 34 36  1  0
 36 37  1  0
 36 38  2  0
 38 39  1  0
 38 40  1  0
 40 41  1  0
 41 42  1  0
 42 43  2  0
 42 44  1  0
 44 45  1  0
 44 46  1  0
 44 47  1  0
 40 48  2  0
 48 49  1  0
 31 50  1  0
 50  2  1  0
 27  5  1  0
 48 33  1  0
 22 13  1  0
M  CHG  2  41  -1  50  -1
M  END
>  <UniqueID>  (31) 
30

>  <SMILES>  (31) 
CC(=O)[N-]c1cccc(/N=c2\nc(N3CCN(c4ccc(F)cc4)CC3)nc[n-]2)c1

>  <Energy>  (31) 
68.4451357857103

>  <Genealogy>  (31) 
CC(=O)[N-]c1cccc(N=c2nc(N3CCN(c4ccc(F)cc4)CC3)nc[n-]2)c1 (protonated)
CC(=O)[N-]c1cccc(/N=c2\nc(N3CCN(c4ccc(F)cc4)CC3)nc[n-]2)c1 (cis-trans isomerization)
CC(=O)[N-]c1cccc(/N=c2\nc(N3CCN(c4ccc(F)cc4)CC3)nc[n-]2)c1 (3D coordinates assigned)
CC(=O)[N-]c1cccc(/N=c2\nc(N3CCN(c4ccc(F)cc4)CC3)nc[n-]2)c1 (nonaromatic ring conformer: 68.4451357857103 kcal/mol)

>  <smiles>  (31) 
CC(=O)Nc1cccc(N=c2nc(N3CCN(c4ccc(F)cc4)CC3)nc[nH]2)c1

>  <score_type>  (31) 
oracle

>  <origin>  (31) 
adgpu

>  <m_score__min__energy>  (31) 
-10.52

>  <m_primary>  (31) 
energy

$$$$
31:0
     RDKit          3D

 43 46  0  0  0  0  0  0  0  0999 V2000
   -9.3560   21.5380  -30.8080 C   0  0  0  0  0  0  0  0  0  0  0  0
   -9.3890   20.6920  -31.9530 O   0  0  0  0  0  0  0  0  0  0  0  0
   -8.3520   19.8250  -32.3270 C   0  0  0  0  0  0  0  0  0  0  0  0
   -8.0950   18.6180  -31.6480 C   0  0  0  0  0  0  0  0  0  0  0  0
   -7.0520   17.7840  -32.0620 C   0  0  0  0  0  0  0  0  0  0  0  0
   -6.2570   18.1430  -33.1600 C   0  0  0  0  0  0  0  0  0  0  0  0
   -4.9760   17.0750  -33.7270 S   0  0  0  0  0  0  0  0  0  0  0  0
   -5.2410   15.6880  -33.2120 O   0  0  0  0  0  0  0  0  0  0  0  0
   -4.9340   17.0390  -35.2290 O   0  0  0  0  0  0  0  0  0  0  0  0
   -3.4420   17.6270  -33.1300 N   0  0  0  0  0  0  0  0  0  0  0  0
   -3.0300   19.0050  -33.1430 C   0  0  0  0  0  0  0  0  0  0  0  0
   -1.8240   19.3530  -33.7700 C   0  0  0  0  0  0  0  0  0  0  0  0
   -1.3770   20.6840  -33.7850 C   0  0  0  0  0  0  0  0  0  0  0  0
   -0.1000   21.0370  -34.4420 C   0  0  0  0  0  0  0  0  0  0  0  0
    0.2190   22.2700  -34.8770 N   0  0  0  0  0  0  0  0  0  0  0  0
    1.4310   22.1430  -35.3910 N   0  0  0  0  0  0  0  0  0  0  0  0
    1.8360   20.8890  -35.2790 N   0  0  0  0  0  0  0  0  0  0  0  0
    0.8980   20.1680  -34.6880 N   0  0  0  0  0  0  0  0  0  0  0  0
   -2.1530   21.6760  -33.1620 C   0  0  0  0  0  0  0  0  0  0  0  0
   -3.3660   21.3470  -32.5390 C   0  0  0  0  0  0  0  0  0  0  0  0
   -4.1660   22.3950  -31.8720 C   0  0  0  0  0  0  0  0  0  0  0  0
   -5.5070   22.3550  -31.7360 N   0  0  0  0  0  0  0  0  0  0  0  0
   -5.7390   23.4990  -31.0610 C   0  0  0  0  0  0  0  0  0  0  0  0
   -7.1020   23.9740  -30.6910 C   0  0  0  0  0  0  0  0  0  0  0  0
   -4.6130   24.1970  -30.8200 N   0  0  0  0  0  0  0  0  0  0  0  0
   -3.6610   23.4780  -31.3320 O   0  0  0  0  0  0  0  0  0  0  0  0
   -3.8050   20.0150  -32.5460 C   0  0  0  0  0  0  0  0  0  0  0  0
   -6.5080   19.3450  -33.8330 C   0  0  0  0  0  0  0  0  0  0  0  0
   -7.5480   20.1790  -33.4170 C   0  0  0  0  0  0  0  0  0  0  0  0
   -9.3800   20.9226  -29.8966 H   0  0  0  0  0  0  0  0  0  0  0  0
   -8.4338   22.1375  -30.8215 H   0  0  0  0  0  0  0  0  0  0  0  0
  -10.2287   22.2075  -30.8215 H   0  0  0  0  0  0  0  0  0  0  0  0
   -8.7177   18.3302  -30.7881 H   0  0  0  0  0  0  0  0  0  0  0  0
   -6.8546   16.8443  -31.5253 H   0  0  0  0  0  0  0  0  0  0  0  0
   -2.8450   16.9230  -32.6400 H   0  0  0  0  0  0  0  0  0  0  0  0
   -1.2205   18.5725  -34.2564 H   0  0  0  0  0  0  0  0  0  0  0  0
   -1.8062   22.7199  -33.1628 H   0  0  0  0  0  0  0  0  0  0  0  0
   -7.1942   24.0061  -29.5953 H   0  0  0  0  0  0  0  0  0  0  0  0
   -7.2634   24.9814  -31.1023 H   0  0  0  0  0  0  0  0  0  0  0  0
   -7.8546   23.2851  -31.1023 H   0  0  0  0  0  0  0  0  0  0  0  0
   -4.7670   19.7574  -32.0789 H   0  0  0  0  0  0  0  0  0  0  0  0
   -5.8841   19.6332  -34.6919 H   0  0  0  0  0  0  0  0  0  0  0  0
   -7.7371   21.1223  -33.9504 H   0  0  0  0  0  0  0  0  0  0  0  0
  1  2  1  0
  2  3  1  0
  3  4  2  0
  4  5  1  0
  5  6  2  0
  6  7  1  0
  7  8  2  0
  7  9  2  0
  7 10  1  0
 10 11  1  0
 11 12  2  0
 12 13  1  0
 13 14  1  0
 14 15  1  0
 15 16  2  0
 16 17  1  0
 17 18  1  0
 13 19  2  0
 19 20  1  0
 20 21  1  0
 21 22  2  0
 22 23  1  0
 23 24  1  0
 23 25  2  0
 25 26  1  0
 20 27  2  0
  6 28  1  0
 28 29  2  0
 29  3  1  0
 27 11  1  0
 18 14  2  0
 26 21  1  0
  1 30  1  0
  1 31  1  0
  1 32  1  0
  4 33  1  0
  5 34  1  0
 10 35  1  0
 12 36  1  0
 19 37  1  0
 24 38  1  0
 24 39  1  0
 24 40  1  0
 27 41  1  0
 28 42  1  0
 29 43  1  0
M  CHG  1  17  -1
M  END
>  <UniqueID>  (32) 
31

>  <SMILES>  (32) 
COc1ccc(S(=O)(=O)Nc2cc(-c3nn[n-]n3)cc(-c3nc(C)no3)c2)cc1

>  <Energy>  (32) 
118.85680581922156

>  <Genealogy>  (32) 
COc1ccc(S(=O)(=O)Nc2cc(-c3nn[n-]n3)cc(-c3nc(C)no3)c2)cc1 (protonated)
COc1ccc(S(=O)(=O)Nc2cc(-c3nn[n-]n3)cc(-c3nc(C)no3)c2)cc1 (3D coordinates assigned)
COc1ccc(S(=O)(=O)Nc2cc(-c3nn[n-]n3)cc(-c3nc(C)no3)c2)cc1 (optimized conformer: 118.85680581922156 kcal/mol)

>  <smiles>  (32) 
COc1ccc(S(=O)(=O)Nc2cc(-c3nn[nH]n3)cc(-c3nc(C)no3)c2)cc1

>  <score_type>  (32) 
oracle

>  <origin>  (32) 
adgpu

>  <m_score__min__energy>  (32) 
-10.15

>  <m_primary>  (32) 
energy

$$$$
32:0
     RDKit          3D

 50 53  0  0  0  0  0  0  0  0999 V2000
   -0.8310   26.7950  -27.9390 C   0  0  0  0  0  0  0  0  0  0  0  0
   -1.5370   26.0340  -28.9660 N   0  0  0  0  0  0  0  0  0  0  0  0
   -2.4030   24.9220  -28.7100 C   0  0  0  0  0  0  0  0  0  0  0  0
   -2.4620   24.4590  -27.5380 O   0  0  0  0  0  0  0  0  0  0  0  0
   -3.2090   24.2850  -29.7660 C   0  0  0  0  0  0  0  0  0  0  0  0
   -4.2520   24.8500  -30.4650 C   0  0  0  0  0  0  0  0  0  0  0  0
   -4.7680   23.9300  -31.2970 N   0  0  0  0  0  0  0  0  0  0  0  0
   -4.0300   22.8220  -31.0630 C   0  0  0  0  0  0  0  0  0  0  0  0
   -4.1960   21.5610  -31.8070 C   0  0  0  0  0  0  0  0  0  0  0  0
   -2.9070   20.5980  -32.3010 S   0  0  0  0  0  0  0  0  0  0  0  0
   -3.8690   19.5650  -33.2150 C   0  0  0  0  0  0  0  0  0  0  0  0
   -3.3890   18.4100  -34.0090 C   0  0  0  0  0  0  0  0  0  0  0  0
   -2.0140   18.1920  -34.2060 C   0  0  0  0  0  0  0  0  0  0  0  0
   -1.5700   17.1070  -34.9700 C   0  0  0  0  0  0  0  0  0  0  0  0
   -2.4960   16.2170  -35.5460 C   0  0  0  0  0  0  0  0  0  0  0  0
   -2.1110   15.1150  -36.3290 O   0  0  0  0  0  0  0  0  0  0  0  0
   -2.8690   14.5410  -37.3960 C   0  0  0  0  0  0  0  0  0  0  0  0
   -1.9980   14.3920  -38.6470 C   0  0  0  0  0  0  0  0  0  0  0  0
   -3.3880   13.1770  -36.9490 C   0  0  0  0  0  0  0  0  0  0  0  0
   -3.8630   16.4330  -35.3440 C   0  0  0  0  0  0  0  0  0  0  0  0
   -4.3100   17.5180  -34.5840 C   0  0  0  0  0  0  0  0  0  0  0  0
   -5.1700   19.9350  -33.1490 N   0  0  0  0  0  0  0  0  0  0  0  0
   -5.3670   21.0330  -32.3680 C   0  0  0  0  0  0  0  0  0  0  0  0
   -6.7320   21.5510  -32.1350 C   0  0  0  0  0  0  0  0  0  0  0  0
   -7.7160   20.7100  -31.5880 C   0  0  0  0  0  0  0  0  0  0  0  0
   -9.0020   21.2000  -31.3390 C   0  0  0  0  0  0  0  0  0  0  0  0
   -9.3110   22.5350  -31.6200 C   0  0  0  0  0  0  0  0  0  0  0  0
   -8.3320   23.3860  -32.1410 C   0  0  0  0  0  0  0  0  0  0  0  0
   -7.0450   22.9000  -32.3890 C   0  0  0  0  0  0  0  0  0  0  0  0
   -3.0670   22.9990  -30.1330 N   0  0  0  0  0  0  0  0  0  0  0  0
   -1.1498   26.4514  -26.9439 H   0  0  0  0  0  0  0  0  0  0  0  0
    0.2527   26.6426  -28.0497 H   0  0  0  0  0  0  0  0  0  0  0  0
   -1.0641   27.8643  -28.0497 H   0  0  0  0  0  0  0  0  0  0  0  0
   -4.6054   25.8863  -30.3594 H   0  0  0  0  0  0  0  0  0  0  0  0
   -1.2822   18.8792  -33.7564 H   0  0  0  0  0  0  0  0  0  0  0  0
   -0.4920   16.9488  -35.1212 H   0  0  0  0  0  0  0  0  0  0  0  0
   -3.7154   15.1982  -37.6443 H   0  0  0  0  0  0  0  0  0  0  0  0
   -0.9545   14.2135  -38.3481 H   0  0  0  0  0  0  0  0  0  0  0  0
   -2.3584   13.5425  -39.2457 H   0  0  0  0  0  0  0  0  0  0  0  0
   -2.0555   15.3130  -39.2457 H   0  0  0  0  0  0  0  0  0  0  0  0
   -3.4047   13.1332  -35.8500 H   0  0  0  0  0  0  0  0  0  0  0  0
   -4.4061   13.0268  -37.3374 H   0  0  0  0  0  0  0  0  0  0  0  0
   -2.7273   12.3880  -37.3374 H   0  0  0  0  0  0  0  0  0  0  0  0
   -4.5944   15.7417  -35.7879 H   0  0  0  0  0  0  0  0  0  0  0  0
   -5.3886   17.6743  -34.4353 H   0  0  0  0  0  0  0  0  0  0  0  0
   -7.4739   19.6626  -31.3549 H   0  0  0  0  0  0  0  0  0  0  0  0
   -9.7718   20.5344  -30.9215 H   0  0  0  0  0  0  0  0  0  0  0  0
  -10.3256   22.9156  -31.4308 H   0  0  0  0  0  0  0  0  0  0  0  0
   -8.5742   24.4373  -32.3557 H   0  0  0  0  0  0  0  0  0  0  0  0
   -6.2723   23.5754  -32.7849 H   0  0  0  0  0  0  0  0  0  0  0  0
  1  2  1  0
  2  3  1  0
  3  4  2  0
  3  5  1  0
  5  6  2  0
  6  7  1  0
  7  8  2  0
  8  9  1  0
  9 10  1  0
 10 11  1  0
 11 12  1  0
 12 13  2  0
 13 14  1  0
 14 15  2  0
 15 16  1  0
 16 17  1  0
 17 18  1  0
 17 19  1  0
 15 20  1  0
 20 21  2  0
 11 22  2  0
 22 23  1  0
 23 24  1  0
 24 25  2  0
 25 26  1  0
 26 27  2  0
 27 28  1  0
 28 29  2  0
  8 30  1  0
 30  5  1  0
 23  9  2  0
 29 24  1  0
 21 12  1  0
  1 31  1  0
  1 32  1  0
  1 33  1  0
  6 34  1  0
 13 35  1  0
 14 36  1  0
 17 37  1  0
 18 38  1  0
 18 39  1  0
 18 40  1  0
 19 41  1  0
 19 42  1  0
 19 43  1  0
 20 44  1  0
 21 45  1  0
 25 46  1  0
 26 47  1  0
 27 48  1  0
 28 49  1  0
 29 50  1  0
M  CHG  2   2  -1  30  -1
M  END
>  <UniqueID>  (33) 
32

>  <SMILES>  (33) 
C[N-]C(=O)c1cnc(-c2sc(-c3ccc(OC(C)C)cc3)nc2-c2ccccc2)[n-]1

>  <Energy>  (33) 
116.7875385871711

>  <Genealogy>  (33) 
C[N-]C(=O)c1cnc(-c2sc(-c3ccc(OC(C)C)cc3)nc2-c2ccccc2)[n-]1 (protonated)
C[N-]C(=O)c1cnc(-c2sc(-c3ccc(OC(C)C)cc3)nc2-c2ccccc2)[n-]1 (3D coordinates assigned)
C[N-]C(=O)c1cnc(-c2sc(-c3ccc(OC(C)C)cc3)nc2-c2ccccc2)[n-]1 (optimized conformer: 116.7875385871711 kcal/mol)

>  <smiles>  (33) 
CNC(=O)c1cnc(-c2sc(-c3ccc(OC(C)C)cc3)nc2-c2ccccc2)[nH]1

>  <score_type>  (33) 
oracle

>  <origin>  (33) 
adgpu

>  <m_score__min__energy>  (33) 
-9.9800000000000004

>  <m_primary>  (33) 
energy

$$$$
33:0
     RDKit          3D

 36 38  0  0  0  0  0  0  0  0999 V2000
   -1.3370   21.9420  -30.8560 C   0  0  0  0  0  0  0  0  0  0  0  0
   -2.0990   22.0070  -29.5720 C   0  0  0  0  0  0  0  0  0  0  0  0
   -2.3570   20.9550  -28.8290 O   0  0  0  0  0  0  0  0  0  0  0  0
   -3.0430   21.3380  -27.7760 C   0  0  0  0  0  0  0  0  0  0  0  0
   -3.2520   22.7010  -27.8240 C   0  0  0  0  0  0  0  0  0  0  0  0
   -2.6390   23.1390  -28.9820 C   0  0  0  0  0  0  0  0  0  0  0  0
   -2.6120   24.5270  -29.4950 C   0  0  0  0  0  0  0  0  0  0  0  0
   -1.6740   25.2950  -29.1580 O   0  0  0  0  0  0  0  0  0  0  0  0
   -3.5920   25.0050  -30.4270 N   0  0  0  0  0  0  0  0  0  0  0  0
   -4.8170   24.3460  -30.7780 C   0  0  0  0  0  0  0  0  0  0  0  0
   -6.0190   24.8290  -30.2560 C   0  0  0  0  0  0  0  0  0  0  0  0
   -7.2280   24.2100  -30.5770 C   0  0  0  0  0  0  0  0  0  0  0  0
   -7.2480   23.0870  -31.4120 C   0  0  0  0  0  0  0  0  0  0  0  0
   -8.7960   22.3340  -31.7740 Cl  0  0  0  0  0  0  0  0  0  0  0  0
   -6.0410   22.5600  -31.9120 C   0  0  0  0  0  0  0  0  0  0  0  0
   -6.0540   21.4170  -32.7860 N   0  0  0  0  0  0  0  0  0  0  0  0
   -6.4710   20.1060  -32.3720 C   0  0  0  0  0  0  0  0  0  0  0  0
   -7.0740   19.9460  -31.2750 O   0  0  0  0  0  0  0  0  0  0  0  0
   -6.2290   18.9460  -33.2400 C   0  0  0  0  0  0  0  0  0  0  0  0
   -6.4880   17.6260  -32.9240 C   0  0  0  0  0  0  0  0  0  0  0  0
   -6.1020   16.8970  -34.0280 C   0  0  0  0  0  0  0  0  0  0  0  0
   -5.6320   17.8130  -34.9480 C   0  0  0  0  0  0  0  0  0  0  0  0
   -5.7200   19.0260  -34.4490 O   0  0  0  0  0  0  0  0  0  0  0  0
   -4.8290   23.1990  -31.5920 C   0  0  0  0  0  0  0  0  0  0  0  0
   -0.2623   21.8503  -30.6403 H   0  0  0  0  0  0  0  0  0  0  0  0
   -1.6703   21.0690  -31.4364 H   0  0  0  0  0  0  0  0  0  0  0  0
   -1.5176   22.8588  -31.4364 H   0  0  0  0  0  0  0  0  0  0  0  0
   -3.3977   20.6717  -26.9758 H   0  0  0  0  0  0  0  0  0  0  0  0
   -3.7958   23.3138  -27.0900 H   0  0  0  0  0  0  0  0  0  0  0  0
   -6.0128   25.7027  -29.5877 H   0  0  0  0  0  0  0  0  0  0  0  0
   -8.1703   24.6069  -30.1715 H   0  0  0  0  0  0  0  0  0  0  0  0
   -5.7910   21.5540  -33.7870 H   0  0  0  0  0  0  0  0  0  0  0  0
   -6.9135   17.2380  -31.9868 H   0  0  0  0  0  0  0  0  0  0  0  0
   -6.1572   15.8053  -34.1514 H   0  0  0  0  0  0  0  0  0  0  0  0
   -5.2430   17.5654  -35.9467 H   0  0  0  0  0  0  0  0  0  0  0  0
   -3.8820   22.7978  -31.9821 H   0  0  0  0  0  0  0  0  0  0  0  0
  1  2  1  0
  2  3  1  0
  3  4  1  0
  4  5  2  0
  5  6  1  0
  6  7  1  0
  7  8  2  0
  7  9  1  0
  9 10  1  0
 10 11  2  0
 11 12  1  0
 12 13  2  0
 13 14  1  0
 13 15  1  0
 15 16  1  0
 16 17  1  0
 17 18  2  0
 17 19  1  0
 19 20  2  0
 20 21  1  0
 21 22  2  0
 22 23  1  0
 15 24  2  0
  6  2  2  0
 24 10  1  0
 23 19  1  0
  1 25  1  0
  1 26  1  0
  1 27  1  0
  4 28  1  0
  5 29  1  0
 11 30  1  0
 12 31  1  0
 16 32  1  0
 20 33  1  0
 21 34  1  0
 22 35  1  0
 24 36  1  0
M  CHG  1   9  -1
M  END
>  <UniqueID>  (34) 
33

>  <SMILES>  (34) 
Cc1occc1C(=O)[N-]c1ccc(Cl)c(NC(=O)c2ccco2)c1

>  <Energy>  (34) 
98.50650645883923

>  <Genealogy>  (34) 
Cc1occc1C(=O)[N-]c1ccc(Cl)c(NC(=O)c2ccco2)c1 (protonated)
Cc1occc1C(=O)[N-]c1ccc(Cl)c(NC(=O)c2ccco2)c1 (3D coordinates assigned)
Cc1occc1C(=O)[N-]c1ccc(Cl)c(NC(=O)c2ccco2)c1 (optimized conformer: 98.50650645883923 kcal/mol)

>  <smiles>  (34) 
Cc1occc1C(=O)Nc1ccc(Cl)c(NC(=O)c2ccco2)c1

>  <score_type>  (34) 
oracle

>  <origin>  (34) 
adgpu

>  <m_score__min__energy>  (34) 
-9.7699999999999996

>  <m_primary>  (34) 
energy

$$$$
34:0
     RDKit          3D

 49 51  0  0  0  0  0  0  0  0999 V2000
   -5.3300   24.5860  -29.0330 C   0  0  0  0  0  0  0  0  0  0  0  0
   -4.7570   24.8360  -30.3980 C   0  0  0  0  0  0  0  0  0  0  0  0
   -3.5910   25.2960  -30.5000 O   0  0  0  0  0  0  0  0  0  0  0  0
   -5.5040   24.5520  -31.5920 N   0  0  0  0  0  0  0  0  0  0  0  0
   -6.2870   23.3650  -31.7610 C   0  0  0  0  0  0  0  0  0  0  0  0
   -7.6680   23.4180  -31.5520 C   0  0  0  0  0  0  0  0  0  0  0  0
   -8.4410   22.2690  -31.6930 C   0  0  0  0  0  0  0  0  0  0  0  0
   -7.8400   21.0520  -32.0140 C   0  0  0  0  0  0  0  0  0  0  0  0
   -6.4420   20.9600  -32.1870 C   0  0  0  0  0  0  0  0  0  0  0  0
   -5.6700   22.1460  -32.1140 C   0  0  0  0  0  0  0  0  0  0  0  0
   -4.1750   22.0890  -32.3130 C   0  0  0  0  0  0  0  0  0  0  0  0
   -3.7800   20.9160  -33.2030 C   0  0  0  0  0  0  0  0  0  0  0  0
   -4.3380   19.6110  -32.6410 C   0  0  0  0  0  0  0  0  0  0  0  0
   -5.7910   19.6870  -32.4470 N   0  0  0  0  0  0  0  0  0  0  0  0
   -6.6450   18.1720  -32.2910 S   0  0  0  0  0  0  0  0  0  0  0  0
   -7.9350   18.2650  -33.0590 O   0  0  0  0  0  0  0  0  0  0  0  0
   -6.9680   17.9140  -30.8430 O   0  0  0  0  0  0  0  0  0  0  0  0
   -5.6370   16.8450  -32.8960 C   0  0  0  0  0  0  0  0  0  0  0  0
   -5.3310   15.7880  -32.0260 C   0  0  0  0  0  0  0  0  0  0  0  0
   -4.4970   14.7350  -32.4260 C   0  0  0  0  0  0  0  0  0  0  0  0
   -4.1620   13.6540  -31.4340 C   0  0  0  0  0  0  0  0  0  0  0  0
   -3.9360   14.7470  -33.7210 C   0  0  0  0  0  0  0  0  0  0  0  0
   -3.0120   13.6530  -34.1860 C   0  0  0  0  0  0  0  0  0  0  0  0
   -4.2790   15.7780  -34.6080 C   0  0  0  0  0  0  0  0  0  0  0  0
   -5.1360   16.8210  -34.2180 C   0  0  0  0  0  0  0  0  0  0  0  0
   -5.4440   17.9180  -35.2040 C   0  0  0  0  0  0  0  0  0  0  0  0
   -4.6057   24.9020  -28.2678 H   0  0  0  0  0  0  0  0  0  0  0  0
   -6.2612   25.1596  -28.9156 H   0  0  0  0  0  0  0  0  0  0  0  0
   -5.5429   23.5132  -28.9156 H   0  0  0  0  0  0  0  0  0  0  0  0
   -8.1450   24.3698  -31.2755 H   0  0  0  0  0  0  0  0  0  0  0  0
   -9.5305   22.3210  -31.5507 H   0  0  0  0  0  0  0  0  0  0  0  0
   -8.4628   20.1532  -32.1338 H   0  0  0  0  0  0  0  0  0  0  0  0
   -3.8401   23.0250  -32.7839 H   0  0  0  0  0  0  0  0  0  0  0  0
   -3.6984   21.9559  -31.3306 H   0  0  0  0  0  0  0  0  0  0  0  0
   -4.1821   21.0766  -34.2142 H   0  0  0  0  0  0  0  0  0  0  0  0
   -2.6826   20.8489  -33.2392 H   0  0  0  0  0  0  0  0  0  0  0  0
   -4.1133   18.7944  -33.3429 H   0  0  0  0  0  0  0  0  0  0  0  0
   -3.8683   19.4272  -31.6635 H   0  0  0  0  0  0  0  0  0  0  0  0
   -5.7537   15.7855  -31.0105 H   0  0  0  0  0  0  0  0  0  0  0  0
   -4.2827   14.0436  -30.4124 H   0  0  0  0  0  0  0  0  0  0  0  0
   -4.8371   12.7983  -31.5823 H   0  0  0  0  0  0  0  0  0  0  0  0
   -3.1213   13.3300  -31.5823 H   0  0  0  0  0  0  0  0  0  0  0  0
   -2.5803   13.1419  -33.3129 H   0  0  0  0  0  0  0  0  0  0  0  0
   -3.5765   12.9294  -34.7924 H   0  0  0  0  0  0  0  0  0  0  0  0
   -2.2042   14.0885  -34.7924 H   0  0  0  0  0  0  0  0  0  0  0  0
   -3.8691   15.7699  -35.6288 H   0  0  0  0  0  0  0  0  0  0  0  0
   -5.7024   18.8383  -34.6597 H   0  0  0  0  0  0  0  0  0  0  0  0
   -4.5625   18.1010  -35.8360 H   0  0  0  0  0  0  0  0  0  0  0  0
   -6.2919   17.6155  -35.8360 H   0  0  0  0  0  0  0  0  0  0  0  0
  1  2  1  0
  2  3  2  0
  2  4  1  0
  4  5  1  0
  5  6  2  0
  6  7  1  0
  7  8  2  0
  8  9  1  0
  9 10  2  0
 10 11  1  0
 11 12  1  0
 12 13  1  0
 13 14  1  0
 14 15  1  0
 15 16  2  0
 15 17  2  0
 15 18  1  0
 18 19  2  0
 19 20  1  0
 20 21  1  0
 20 22  2  0
 22 23  1  0
 22 24  1  0
 24 25  2  0
 25 26  1  0
 10  5  1  0
 25 18  1  0
 14  9  1  0
  1 27  1  0
  1 28  1  0
  1 29  1  0
  6 30  1  0
  7 31  1  0
  8 32  1  0
 11 33  1  0
 11 34  1  0
 12 35  1  0
 12 36  1  0
 13 37  1  0
 13 38  1  0
 19 39  1  0
 21 40  1  0
 21 41  1  0
 21 42  1  0
 23 43  1  0
 23 44  1  0
 23 45  1  0
 24 46  1  0
 26 47  1  0
 26 48  1  0
 26 49  1  0
M  CHG  1   4  -1
M  END
>  <UniqueID>  (35) 
34

>  <SMILES>  (35) 
CC(=O)[N-]c1cccc2c1CCCN2S(=O)(=O)c1cc(C)c(C)cc1C

>  <Energy>  (35) 
61.186646515067004

>  <Genealogy>  (35) 
CC(=O)[N-]c1cccc2c1CCCN2S(=O)(=O)c1cc(C)c(C)cc1C (protonated)
CC(=O)[N-]c1cccc2c1CCCN2S(=O)(=O)c1cc(C)c(C)cc1C (3D coordinates assigned)
CC(=O)[N-]c1cccc2c1CCCN2S(=O)(=O)c1cc(C)c(C)cc1C (nonaromatic ring conformer: 61.186646515067004 kcal/mol)

>  <smiles>  (35) 
CC(=O)Nc1cccc2c1CCCN2S(=O)(=O)c1cc(C)c(C)cc1C

>  <score_type>  (35) 
oracle

>  <origin>  (35) 
adgpu

>  <m_score__min__energy>  (35) 
-10.76

>  <m_primary>  (35) 
energy

$$$$
35:0
     RDKit          3D

 54 57  0  0  0  0  0  0  0  0999 V2000
   -8.4720   23.1910  -31.6880 C   0  0  0  0  0  0  0  0  0  0  0  0
   -7.3780   22.2070  -31.9690 C   0  0  0  0  0  0  0  0  0  0  0  0
   -6.0200   22.4850  -31.9810 C   0  0  0  0  0  0  0  0  0  0  0  0
   -5.4180   23.7790  -31.9920 N   0  0  0  0  0  0  0  0  0  0  0  0
   -4.7490   24.4390  -30.5360 S   0  0  0  0  0  0  0  0  0  0  0  0
   -5.8610   24.8530  -29.6150 O   0  0  0  0  0  0  0  0  0  0  0  0
   -3.9100   25.6430  -30.8640 O   0  0  0  0  0  0  0  0  0  0  0  0
   -3.7710   23.2070  -29.7390 C   0  0  0  0  0  0  0  0  0  0  0  0
   -3.8470   23.0280  -28.3520 C   0  0  0  0  0  0  0  0  0  0  0  0
   -2.9860   22.1350  -27.7110 C   0  0  0  0  0  0  0  0  0  0  0  0
   -2.0460   21.4150  -28.4520 C   0  0  0  0  0  0  0  0  0  0  0  0
   -1.9670   21.5680  -29.8470 C   0  0  0  0  0  0  0  0  0  0  0  0
   -0.9480   20.8170  -30.6180 C   0  0  0  0  0  0  0  0  0  0  0  0
   -0.3790   19.8250  -30.0840 O   0  0  0  0  0  0  0  0  0  0  0  0
   -0.6060   21.1950  -31.9630 N   0  0  0  0  0  0  0  0  0  0  0  0
    0.4860   20.5600  -32.7000 C   0  0  0  0  0  0  0  0  0  0  0  0
    0.6170   21.1570  -34.0670 C   0  0  0  0  0  0  0  0  0  0  0  0
    1.4890   20.7380  -35.0520 C   0  0  0  0  0  0  0  0  0  0  0  0
    1.2570   21.5670  -36.1280 C   0  0  0  0  0  0  0  0  0  0  0  0
    0.2570   22.4320  -35.7350 C   0  0  0  0  0  0  0  0  0  0  0  0
   -0.1050   22.1620  -34.5010 O   0  0  0  0  0  0  0  0  0  0  0  0
   -2.8340   22.4760  -30.4820 C   0  0  0  0  0  0  0  0  0  0  0  0
   -5.4260   21.3250  -32.4230 C   0  0  0  0  0  0  0  0  0  0  0  0
   -4.1950   21.1720  -32.6520 O   0  0  0  0  0  0  0  0  0  0  0  0
   -6.3690   20.3840  -32.6310 N   0  0  0  0  0  0  0  0  0  0  0  0
   -6.1430   19.0720  -33.1760 C   0  0  0  0  0  0  0  0  0  0  0  0
   -6.3460   17.9330  -32.3790 C   0  0  0  0  0  0  0  0  0  0  0  0
   -6.1120   16.6570  -32.8990 C   0  0  0  0  0  0  0  0  0  0  0  0
   -5.6820   16.5100  -34.2210 C   0  0  0  0  0  0  0  0  0  0  0  0
   -5.4880   17.6370  -35.0230 C   0  0  0  0  0  0  0  0  0  0  0  0
   -5.7170   18.9150  -34.5030 C   0  0  0  0  0  0  0  0  0  0  0  0
   -7.5600   20.9240  -32.3760 N   0  0  0  0  0  0  0  0  0  0  0  0
   -8.8490   20.2630  -32.5900 C   0  0  0  0  0  0  0  0  0  0  0  0
   -8.5951   23.3018  -30.6005 H   0  0  0  0  0  0  0  0  0  0  0  0
   -8.2115   24.1647  -32.1286 H   0  0  0  0  0  0  0  0  0  0  0  0
   -9.4127   22.8291  -32.1286 H   0  0  0  0  0  0  0  0  0  0  0  0
   -4.5871   23.5926  -27.7659 H   0  0  0  0  0  0  0  0  0  0  0  0
   -3.0480   21.9984  -26.6213 H   0  0  0  0  0  0  0  0  0  0  0  0
   -1.3619   20.7225  -27.9396 H   0  0  0  0  0  0  0  0  0  0  0  0
   -1.1710   21.9200  -32.4620 H   0  0  0  0  0  0  0  0  0  0  0  0
    1.4270   20.7071  -32.1497 H   0  0  0  0  0  0  0  0  0  0  0  0
    0.2680   19.4866  -32.8014 H   0  0  0  0  0  0  0  0  0  0  0  0
    2.2163   19.9151  -34.9907 H   0  0  0  0  0  0  0  0  0  0  0  0
    1.7661   21.5437  -37.1028 H   0  0  0  0  0  0  0  0  0  0  0  0
   -0.1728   23.2282  -36.3606 H   0  0  0  0  0  0  0  0  0  0  0  0
   -2.7759   22.6135  -31.5718 H   0  0  0  0  0  0  0  0  0  0  0  0
   -6.6908   18.0460  -31.3406 H   0  0  0  0  0  0  0  0  0  0  0  0
   -6.2661   15.7690  -32.2684 H   0  0  0  0  0  0  0  0  0  0  0  0
   -5.4963   15.5059  -34.6300 H   0  0  0  0  0  0  0  0  0  0  0  0
   -5.1548   17.5193  -36.0647 H   0  0  0  0  0  0  0  0  0  0  0  0
   -5.5624   19.8004  -35.1372 H   0  0  0  0  0  0  0  0  0  0  0  0
   -9.3066   20.0283  -31.6176 H   0  0  0  0  0  0  0  0  0  0  0  0
   -9.5142   20.9313  -33.1566 H   0  0  0  0  0  0  0  0  0  0  0  0
   -8.6945   19.3329  -33.1566 H   0  0  0  0  0  0  0  0  0  0  0  0
  1  2  1  0
  2  3  2  0
  3  4  1  0
  4  5  1  0
  5  6  2  0
  5  7  2  0
  5  8  1  0
  8  9  2  0
  9 10  1  0
 10 11  2  0
 11 12  1  0
 12 13  1  0
 13 14  2  0
 13 15  1  0
 15 16  1  0
 16 17  1  0
 17 18  2  0
 18 19  1  0
 19 20  2  0
 20 21  1  0
 12 22  2  0
  3 23  1  0
 23 24  2  0
 23 25  1  0
 25 26  1  0
 26 27  2  0
 27 28  1  0
 28 29  2  0
 29 30  1  0
 30 31  2  0
 25 32  1  0
 32 33  1  0
 32  2  1  0
 22  8  1  0
 31 26  1  0
 21 17  1  0
  1 34  1  0
  1 35  1  0
  1 36  1  0
  9 37  1  0
 10 38  1  0
 11 39  1  0
 15 40  1  0
 16 41  1  0
 16 42  1  0
 18 43  1  0
 19 44  1  0
 20 45  1  0
 22 46  1  0
 27 47  1  0
 28 48  1  0
 29 49  1  0
 30 50  1  0
 31 51  1  0
 33 52  1  0
 33 53  1  0
 33 54  1  0
M  CHG  1   4  -1
M  END
>  <UniqueID>  (36) 
35

>  <SMILES>  (36) 
Cc1c([N-]S(=O)(=O)c2cccc(C(=O)NCc3ccco3)c2)c(=O)n(-c2ccccc2)n1C

>  <Energy>  (36) 
131.19671358665425

>  <Genealogy>  (36) 
Cc1c([N-]S(=O)(=O)c2cccc(C(=O)NCc3ccco3)c2)c(=O)n(-c2ccccc2)n1C (protonated)
Cc1c([N-]S(=O)(=O)c2cccc(C(=O)NCc3ccco3)c2)c(=O)n(-c2ccccc2)n1C (3D coordinates assigned)
Cc1c([N-]S(=O)(=O)c2cccc(C(=O)NCc3ccco3)c2)c(=O)n(-c2ccccc2)n1C (optimized conformer: 131.19671358665425 kcal/mol)

>  <smiles>  (36) 
Cc1c(NS(=O)(=O)c2cccc(C(=O)NCc3ccco3)c2)c(=O)n(-c2ccccc2)n1C

>  <score_type>  (36) 
oracle

>  <origin>  (36) 
adgpu

>  <m_score__min__energy>  (36) 
-11.07

>  <m_primary>  (36) 
energy

$$$$
36:0
     RDKit          3D

 39 41  0  0  0  0  0  0  0  0999 V2000
   -7.5330   25.1020  -28.8350 H   0  0  0  0  0  0  0  0  0  0  0  0
   -6.8420   25.7370  -29.2940 N   0  0  0  0  0  0  0  0  0  0  0  0
   -5.7500   25.2810  -29.8180 C   0  0  0  0  0  0  0  0  0  0  0  0
   -5.3570   23.9620  -29.8450 C   0  0  0  0  0  0  0  0  0  0  0  0
   -5.8851   23.0849  -29.4427 H   0  0  0  0  0  0  0  0  0  0  0  0
   -4.1320   24.0040  -30.5030 C   0  0  0  0  0  0  0  0  0  0  0  0
   -3.2580   22.8410  -30.8090 C   0  0  0  0  0  0  0  0  0  0  0  0
   -3.7590   21.7780  -31.5850 C   0  0  0  0  0  0  0  0  0  0  0  0
   -4.7876   21.8267  -31.9717 H   0  0  0  0  0  0  0  0  0  0  0  0
   -2.9670   20.6610  -31.8710 C   0  0  0  0  0  0  0  0  0  0  0  0
   -3.6230   19.3260  -32.8140 S   0  0  0  0  0  0  0  0  0  0  0  0
   -2.5600   18.2960  -33.0740 O   0  0  0  0  0  0  0  0  0  0  0  0
   -4.1250   19.8590  -34.1250 O   0  0  0  0  0  0  0  0  0  0  0  0
   -4.9400   18.5790  -31.9670 N   0  0  0  0  0  0  0  0  0  0  0  0
   -6.3010   19.0310  -31.9900 C   0  0  0  0  0  0  0  0  0  0  0  0
   -7.3870   18.1370  -32.0200 C   0  0  0  0  0  0  0  0  0  0  0  0
   -7.2039   17.0526  -32.0420 H   0  0  0  0  0  0  0  0  0  0  0  0
   -8.6970   18.6220  -32.0220 C   0  0  0  0  0  0  0  0  0  0  0  0
   -9.5422   17.9183  -32.0425 H   0  0  0  0  0  0  0  0  0  0  0  0
   -8.9370   19.9980  -31.9980 C   0  0  0  0  0  0  0  0  0  0  0  0
   -9.9699   20.3764  -31.9980 H   0  0  0  0  0  0  0  0  0  0  0  0
   -7.8630   20.8950  -31.9740 C   0  0  0  0  0  0  0  0  0  0  0  0
   -8.1100   22.3140  -31.9490 C   0  0  0  0  0  0  0  0  0  0  0  0
   -8.3060   23.4540  -31.9290 N   0  0  0  0  0  0  0  0  0  0  0  0
   -6.5490   20.4100  -31.9720 C   0  0  0  0  0  0  0  0  0  0  0  0
   -5.7060   21.1165  -31.9562 H   0  0  0  0  0  0  0  0  0  0  0  0
   -1.6520   20.6080  -31.4040 C   0  0  0  0  0  0  0  0  0  0  0  0
   -1.0224   19.7367  -31.6371 H   0  0  0  0  0  0  0  0  0  0  0  0
   -1.1340   21.6560  -30.6430 C   0  0  0  0  0  0  0  0  0  0  0  0
   -0.0962   21.6055  -30.2820 H   0  0  0  0  0  0  0  0  0  0  0  0
   -1.9270   22.7790  -30.3320 C   0  0  0  0  0  0  0  0  0  0  0  0
   -1.4260   23.8310  -29.5460 O   0  0  0  0  0  0  0  0  0  0  0  0
   -1.6860   24.0030  -28.1570 C   0  0  0  0  0  0  0  0  0  0  0  0
   -0.9090   23.4890  -27.5721 H   0  0  0  0  0  0  0  0  0  0  0  0
   -1.6794   25.0755  -27.9128 H   0  0  0  0  0  0  0  0  0  0  0  0
   -2.6705   23.5774  -27.9128 H   0  0  0  0  0  0  0  0  0  0  0  0
   -3.8400   25.2820  -30.8360 N   0  0  0  0  0  0  0  0  0  0  0  0
   -4.8310   26.0520  -30.4160 N   0  0  0  0  0  0  0  0  0  0  0  0
   -4.8670   27.0880  -30.5400 H   0  0  0  0  0  0  0  0  0  0  0  0
  1  2  1  0
  2  3  2  0
  3  4  1  0
  4  5  1  0
  4  6  2  0
  6  7  1  0
  7  8  2  0
  8  9  1  0
  8 10  1  0
 10 11  1  0
 11 12  2  0
 11 13  2  0
 11 14  1  0
 14 15  1  0
 15 16  2  0
 16 17  1  0
 16 18  1  0
 18 19  1  0
 18 20  2  0
 20 21  1  0
 20 22  1  0
 22 23  1  0
 23 24  3  0
 22 25  2  0
 25 26  1  0
 10 27  2  0
 27 28  1  0
 27 29  1  0
 29 30  1  0
 29 31  2  0
 31 32  1  0
 32 33  1  0
 33 34  1  0
 33 35  1  0
 33 36  1  0
  6 37  1  0
 37 38  1  0
 38 39  1  0
 38  3  1  0
 31  7  1  0
 25 15  1  0
M  CHG  2  14  -1  37  -1
M  END
>  <UniqueID>  (37) 
36

>  <SMILES>  (37) 
[H]/N=c1\cc(-c2cc(S(=O)(=O)[N-]c3cccc(C#N)c3)ccc2OC)[n-][nH]1

>  <Energy>  (37) 
76.92947768778637

>  <Genealogy>  (37) 
COc1ccc(S(=O)(=O)[N-]c2cccc(C#N)c2)cc1-c1cc(=N)[nH][n-]1 (protonated)
[H]/N=c1\cc(-c2cc(S(=O)(=O)[N-]c3cccc(C#N)c3)ccc2OC)[n-][nH]1 (cis-trans isomerization)
[H]/N=c1\cc(-c2cc(S(=O)(=O)[N-]c3cccc(C#N)c3)ccc2OC)[n-][nH]1 (3D coordinates assigned)
[H]/N=c1\cc(-c2cc(S(=O)(=O)[N-]c3cccc(C#N)c3)ccc2OC)[n-][nH]1 (optimized conformer: 76.92947768778637 kcal/mol)

>  <smiles>  (37) 
COc1ccc(S(=O)(=O)Nc2cccc(C#N)c2)cc1-c1cc(=N)[nH][nH]1

>  <score_type>  (37) 
oracle

>  <origin>  (37) 
adgpu

>  <m_score__min__energy>  (37) 
-10.859999999999999

>  <m_primary>  (37) 
energy

$$$$
37:0
     RDKit          3D

 41 43  0  0  0  0  0  0  0  0999 V2000
   -3.4640   23.8510  -28.1280 O   0  0  0  0  0  0  0  0  0  0  0  0
   -2.8970   24.1690  -29.4850 S   0  0  0  0  0  0  0  0  0  0  0  0
   -1.9050   25.2910  -29.3400 O   0  0  0  0  0  0  0  0  0  0  0  0
   -4.1870   24.6850  -30.5290 N   0  0  0  0  0  0  0  0  0  0  0  0
   -5.2960   23.8650  -30.9130 C   0  0  0  0  0  0  0  0  0  0  0  0
   -5.5540   22.6370  -30.2830 C   0  0  0  0  0  0  0  0  0  0  0  0
   -6.6610   21.8690  -30.6600 C   0  0  0  0  0  0  0  0  0  0  0  0
   -7.5150   22.3090  -31.6900 C   0  0  0  0  0  0  0  0  0  0  0  0
   -8.6790   21.5600  -32.0810 N   0  0  0  0  0  0  0  0  0  0  0  0
   -8.7280   19.8240  -32.1500 S   0  0  0  0  0  0  0  0  0  0  0  0
   -9.8220   19.4070  -33.0960 O   0  0  0  0  0  0  0  0  0  0  0  0
   -9.0300   19.2870  -30.7800 O   0  0  0  0  0  0  0  0  0  0  0  0
   -7.1670   19.1830  -32.6700 C   0  0  0  0  0  0  0  0  0  0  0  0
   -6.5110   19.7620  -33.7670 C   0  0  0  0  0  0  0  0  0  0  0  0
   -5.2760   19.2670  -34.1910 C   0  0  0  0  0  0  0  0  0  0  0  0
   -4.6850   18.1930  -33.5220 C   0  0  0  0  0  0  0  0  0  0  0  0
   -5.3260   17.6150  -32.4230 C   0  0  0  0  0  0  0  0  0  0  0  0
   -6.5620   18.1100  -31.9900 C   0  0  0  0  0  0  0  0  0  0  0  0
   -7.1580   17.5440  -30.9110 F   0  0  0  0  0  0  0  0  0  0  0  0
   -7.2130   23.5060  -32.3590 C   0  0  0  0  0  0  0  0  0  0  0  0
   -6.1090   24.2750  -31.9750 C   0  0  0  0  0  0  0  0  0  0  0  0
   -2.0730   22.7320  -30.0950 C   0  0  0  0  0  0  0  0  0  0  0  0
   -2.4520   22.1780  -31.3270 C   0  0  0  0  0  0  0  0  0  0  0  0
   -1.7940   21.0460  -31.8200 C   0  0  0  0  0  0  0  0  0  0  0  0
   -0.7470   20.4710  -31.0930 C   0  0  0  0  0  0  0  0  0  0  0  0
   -0.3660   21.0190  -29.8650 C   0  0  0  0  0  0  0  0  0  0  0  0
   -1.0290   22.1430  -29.3630 C   0  0  0  0  0  0  0  0  0  0  0  0
   -4.8827   22.2771  -29.4894 H   0  0  0  0  0  0  0  0  0  0  0  0
   -6.8655   20.9165  -30.1493 H   0  0  0  0  0  0  0  0  0  0  0  0
   -9.5830   22.0650  -32.2210 H   0  0  0  0  0  0  0  0  0  0  0  0
   -6.9717   20.6097  -34.2954 H   0  0  0  0  0  0  0  0  0  0  0  0
   -4.7680   19.7237  -35.0532 H   0  0  0  0  0  0  0  0  0  0  0  0
   -3.7142   17.8018  -33.8604 H   0  0  0  0  0  0  0  0  0  0  0  0
   -4.8586   16.7695  -31.8971 H   0  0  0  0  0  0  0  0  0  0  0  0
   -7.8491   23.8417  -33.1913 H   0  0  0  0  0  0  0  0  0  0  0  0
   -5.8790   25.2074  -32.5113 H   0  0  0  0  0  0  0  0  0  0  0  0
   -3.2680   22.6345  -31.9064 H   0  0  0  0  0  0  0  0  0  0  0  0
   -2.1008   20.6076  -32.7811 H   0  0  0  0  0  0  0  0  0  0  0  0
   -0.2234   19.5877  -31.4875 H   0  0  0  0  0  0  0  0  0  0  0  0
    0.4566   20.5654  -29.2927 H   0  0  0  0  0  0  0  0  0  0  0  0
   -0.7322   22.5670  -28.3924 H   0  0  0  0  0  0  0  0  0  0  0  0
  1  2  2  0
  2  3  2  0
  2  4  1  0
  4  5  1  0
  5  6  2  0
  6  7  1  0
  7  8  2  0
  8  9  1  0
  9 10  1  0
 10 11  2  0
 10 12  2  0
 10 13  1  0
 13 14  2  0
 14 15  1  0
 15 16  2  0
 16 17  1  0
 17 18  2  0
 18 19  1  0
  8 20  1  0
 20 21  2  0
  2 22  1  0
 22 23  2  0
 23 24  1  0
 24 25  2  0
 25 26  1  0
 26 27  2  0
 21  5  1  0
 27 22  1  0
 18 13  1  0
  6 28  1  0
  7 29  1  0
  9 30  1  0
 14 31  1  0
 15 32  1  0
 16 33  1  0
 17 34  1  0
 20 35  1  0
 21 36  1  0
 23 37  1  0
 24 38  1  0
 25 39  1  0
 26 40  1  0
 27 41  1  0
M  CHG  1   4  -1
M  END
>  <UniqueID>  (38) 
37

>  <SMILES>  (38) 
O=S(=O)([N-]c1ccc(NS(=O)(=O)c2ccccc2F)cc1)c1ccccc1

>  <Energy>  (38) 
53.39057484171772

>  <Genealogy>  (38) 
O=S(=O)([N-]c1ccc(NS(=O)(=O)c2ccccc2F)cc1)c1ccccc1 (protonated)
O=S(=O)([N-]c1ccc(NS(=O)(=O)c2ccccc2F)cc1)c1ccccc1 (3D coordinates assigned)
O=S(=O)([N-]c1ccc(NS(=O)(=O)c2ccccc2F)cc1)c1ccccc1 (optimized conformer: 53.39057484171772 kcal/mol)

>  <smiles>  (38) 
O=S(=O)(Nc1ccc(NS(=O)(=O)c2ccccc2F)cc1)c1ccccc1

>  <score_type>  (38) 
oracle

>  <origin>  (38) 
adgpu

>  <m_score__min__energy>  (38) 
-11.529999999999999

>  <m_primary>  (38) 
energy

$$$$
38:0
     RDKit          3D

 36 38  0  0  0  0  0  0  0  0999 V2000
   -2.6932   13.1461  -36.1373 H   0  0  0  0  0  0  0  0  0  0  0  0
   -3.2040   13.9970  -35.6630 C   0  0  0  0  0  0  0  0  0  0  0  0
   -3.9810   13.8040  -34.5640 N   0  0  0  0  0  0  0  0  0  0  0  0
   -4.6340   14.8400  -33.9740 C   0  0  0  0  0  0  0  0  0  0  0  0
   -5.2485   14.6688  -33.0778 H   0  0  0  0  0  0  0  0  0  0  0  0
   -4.5190   16.1300  -34.5160 C   0  0  0  0  0  0  0  0  0  0  0  0
   -5.1340   17.2650  -33.8900 N   0  0  0  0  0  0  0  0  0  0  0  0
   -4.5970   18.4290  -33.6450 C   0  0  0  0  0  0  0  0  0  0  0  0
   -3.2280   18.6960  -33.8500 C   0  0  0  0  0  0  0  0  0  0  0  0
   -2.5651   17.9146  -34.2500 H   0  0  0  0  0  0  0  0  0  0  0  0
   -2.7200   19.9580  -33.5420 C   0  0  0  0  0  0  0  0  0  0  0  0
   -1.6536   20.1740  -33.7034 H   0  0  0  0  0  0  0  0  0  0  0  0
   -3.5370   20.9200  -33.0440 N   0  0  0  0  0  0  0  0  0  0  0  0
   -4.8640   20.7040  -32.8250 C   0  0  0  0  0  0  0  0  0  0  0  0
   -5.6950   21.8030  -32.2690 C   0  0  0  0  0  0  0  0  0  0  0  0
   -7.0970   21.7060  -32.3070 C   0  0  0  0  0  0  0  0  0  0  0  0
   -7.5707   20.8185  -32.7520 H   0  0  0  0  0  0  0  0  0  0  0  0
   -7.8920   22.7260  -31.7850 C   0  0  0  0  0  0  0  0  0  0  0  0
   -8.9879   22.6405  -31.8250 H   0  0  0  0  0  0  0  0  0  0  0  0
   -7.3040   23.8550  -31.2120 C   0  0  0  0  0  0  0  0  0  0  0  0
   -7.9394   24.6570  -30.8082 H   0  0  0  0  0  0  0  0  0  0  0  0
   -5.9050   23.9730  -31.1480 C   0  0  0  0  0  0  0  0  0  0  0  0
   -5.2780   25.1640  -30.5280 C   0  0  0  0  0  0  0  0  0  0  0  0
   -5.9990   26.0720  -30.0280 O   0  0  0  0  0  0  0  0  0  0  0  0
   -3.8530   25.2920  -30.4900 N   0  0  0  0  0  0  0  0  0  0  0  0
   -3.0170   24.5390  -29.5670 C   0  0  0  0  0  0  0  0  0  0  0  0
   -3.2951   24.7895  -28.5326 H   0  0  0  0  0  0  0  0  0  0  0  0
   -3.1631   23.4618  -29.7353 H   0  0  0  0  0  0  0  0  0  0  0  0
   -1.9609   24.7965  -29.7353 H   0  0  0  0  0  0  0  0  0  0  0  0
   -5.1080   22.9390  -31.6760 C   0  0  0  0  0  0  0  0  0  0  0  0
   -4.0121   23.0190  -31.6249 H   0  0  0  0  0  0  0  0  0  0  0  0
   -5.4080   19.4400  -33.1120 C   0  0  0  0  0  0  0  0  0  0  0  0
   -6.4728   19.2440  -32.9178 H   0  0  0  0  0  0  0  0  0  0  0  0
   -3.7110   16.3210  -35.5930 N   0  0  0  0  0  0  0  0  0  0  0  0
   -3.0600   15.2830  -36.1840 C   0  0  0  0  0  0  0  0  0  0  0  0
   -2.4252   15.4563  -37.0655 H   0  0  0  0  0  0  0  0  0  0  0  0
  1  2  1  0
  2  3  2  0
  3  4  1  0
  4  5  1  0
  4  6  2  0
  6  7  1  0
  7  8  2  0
  8  9  1  0
  9 10  1  0
  9 11  2  0
 11 12  1  0
 11 13  1  0
 13 14  1  0
 14 15  1  0
 15 16  2  0
 16 17  1  0
 16 18  1  0
 18 19  1  0
 18 20  2  0
 20 21  1  0
 20 22  1  0
 22 23  1  0
 23 24  2  0
 23 25  1  0
 25 26  1  0
 26 27  1  0
 26 28  1  0
 26 29  1  0
 22 30  2  0
 30 31  1  0
 14 32  2  0
 32 33  1  0
  6 34  1  0
 34 35  2  0
 35 36  1  0
 35  2  1  0
 32  8  1  0
 30 15  1  0
M  CHG  2  13  -1  25  -1
M  END
>  <UniqueID>  (39) 
38

>  <SMILES>  (39) 
C[N-]C(=O)c1cccc(-c2c/c(=N/c3cnccn3)cc[n-]2)c1

>  <Energy>  (39) 
53.69209988620154

>  <Genealogy>  (39) 
C[N-]C(=O)c1cccc(-c2cc(=Nc3cnccn3)cc[n-]2)c1 (protonated)
C[N-]C(=O)c1cccc(-c2c/c(=N/c3cnccn3)cc[n-]2)c1 (cis-trans isomerization)
C[N-]C(=O)c1cccc(-c2c/c(=N/c3cnccn3)cc[n-]2)c1 (3D coordinates assigned)
C[N-]C(=O)c1cccc(-c2c/c(=N/c3cnccn3)cc[n-]2)c1 (optimized conformer: 53.69209988620154 kcal/mol)

>  <smiles>  (39) 
CNC(=O)c1cccc(-c2cc(=Nc3cnccn3)cc[nH]2)c1

>  <score_type>  (39) 
oracle

>  <origin>  (39) 
adgpu

>  <m_score__min__energy>  (39) 
-8.9299999999999997

>  <m_primary>  (39) 
energy

$$$$
39:0
     RDKit          3D

 31 32  0  0  0  0  0  0  0  0999 V2000
   -1.0480   22.9650  -26.8390 C   0  0  0  0  0  0  0  0  0  0  0  0
   -1.1320   22.3530  -28.2150 C   0  0  0  0  0  0  0  0  0  0  0  0
   -0.6040   21.0630  -28.4230 C   0  0  0  0  0  0  0  0  0  0  0  0
   -0.0060   20.3850  -27.4100 F   0  0  0  0  0  0  0  0  0  0  0  0
   -0.6950   20.4540  -29.6760 C   0  0  0  0  0  0  0  0  0  0  0  0
   -1.3170   21.1130  -30.7330 C   0  0  0  0  0  0  0  0  0  0  0  0
   -1.8650   22.3800  -30.5410 C   0  0  0  0  0  0  0  0  0  0  0  0
   -1.8000   23.0070  -29.2840 C   0  0  0  0  0  0  0  0  0  0  0  0
   -2.6160   24.5690  -29.0750 S   0  0  0  0  0  0  0  0  0  0  0  0
   -1.6120   25.6650  -28.8510 O   0  0  0  0  0  0  0  0  0  0  0  0
   -3.5100   24.4910  -27.8690 O   0  0  0  0  0  0  0  0  0  0  0  0
   -3.5690   24.9640  -30.4710 N   0  0  0  0  0  0  0  0  0  0  0  0
   -4.9850   24.7770  -30.5760 C   0  0  0  0  0  0  0  0  0  0  0  0
   -5.7530   25.6360  -30.0690 O   0  0  0  0  0  0  0  0  0  0  0  0
   -5.5690   23.5880  -31.2210 C   0  0  0  0  0  0  0  0  0  0  0  0
   -4.7510   22.6690  -31.8930 C   0  0  0  0  0  0  0  0  0  0  0  0
   -5.3060   21.5130  -32.4500 C   0  0  0  0  0  0  0  0  0  0  0  0
   -6.6790   21.2670  -32.3440 C   0  0  0  0  0  0  0  0  0  0  0  0
   -7.3350   19.7880  -33.0290 Cl  0  0  0  0  0  0  0  0  0  0  0  0
   -7.5060   22.1980  -31.6910 C   0  0  0  0  0  0  0  0  0  0  0  0
   -9.2340   21.9200  -31.5210 Cl  0  0  0  0  0  0  0  0  0  0  0  0
   -6.9490   23.3590  -31.1440 C   0  0  0  0  0  0  0  0  0  0  0  0
   -1.1562   22.1764  -26.0798 H   0  0  0  0  0  0  0  0  0  0  0  0
   -0.0735   23.4603  -26.7169 H   0  0  0  0  0  0  0  0  0  0  0  0
   -1.8531   23.7046  -26.7169 H   0  0  0  0  0  0  0  0  0  0  0  0
   -0.2736   19.4495  -29.8287 H   0  0  0  0  0  0  0  0  0  0  0  0
   -1.3760   20.6330  -31.7210 H   0  0  0  0  0  0  0  0  0  0  0  0
   -2.3534   22.8948  -31.3815 H   0  0  0  0  0  0  0  0  0  0  0  0
   -3.6710   22.8577  -31.9822 H   0  0  0  0  0  0  0  0  0  0  0  0
   -4.6599   20.7934  -32.9741 H   0  0  0  0  0  0  0  0  0  0  0  0
   -7.5987   24.0967  -30.6503 H   0  0  0  0  0  0  0  0  0  0  0  0
  1  2  1  0
  2  3  2  0
  3  4  1  0
  3  5  1  0
  5  6  2  0
  6  7  1  0
  7  8  2  0
  8  9  1  0
  9 10  2  0
  9 11  2  0
  9 12  1  0
 12 13  1  0
 13 14  2  0
 13 15  1  0
 15 16  2  0
 16 17  1  0
 17 18  2  0
 18 19  1  0
 18 20  1  0
 20 21  1  0
 20 22  2  0
  8  2  1  0
 22 15  1  0
  1 23  1  0
  1 24  1  0
  1 25  1  0
  5 26  1  0
  6 27  1  0
  7 28  1  0
 16 29  1  0
 17 30  1  0
 22 31  1  0
M  CHG  1  12  -1
M  END
>  <UniqueID>  (40) 
39

>  <SMILES>  (40) 
Cc1c(F)cccc1S(=O)(=O)[N-]C(=O)c1ccc(Cl)c(Cl)c1

>  <Energy>  (40) 
39.01672785294429

>  <Genealogy>  (40) 
Cc1c(F)cccc1S(=O)(=O)[N-]C(=O)c1ccc(Cl)c(Cl)c1 (protonated)
Cc1c(F)cccc1S(=O)(=O)[N-]C(=O)c1ccc(Cl)c(Cl)c1 (3D coordinates assigned)
Cc1c(F)cccc1S(=O)(=O)[N-]C(=O)c1ccc(Cl)c(Cl)c1 (optimized conformer: 39.01672785294429 kcal/mol)

>  <smiles>  (40) 
Cc1c(F)cccc1S(=O)(=O)NC(=O)c1ccc(Cl)c(Cl)c1

>  <score_type>  (40) 
oracle

>  <origin>  (40) 
adgpu

>  <m_score__min__energy>  (40) 
-9.8499999999999996

>  <m_primary>  (40) 
energy

$$$$
40:0
     RDKit          3D

 50 53  0  0  0  0  0  0  0  0999 V2000
   -2.8640   20.8270  -29.1680 C   0  0  0  0  0  0  0  0  0  0  0  0
   -2.9450   20.9060  -30.6640 C   0  0  0  0  0  0  0  0  0  0  0  0
   -1.7780   21.0490  -31.4290 C   0  0  0  0  0  0  0  0  0  0  0  0
   -1.8470   21.0860  -32.8290 C   0  0  0  0  0  0  0  0  0  0  0  0
   -0.5900   21.1900  -33.6420 C   0  0  0  0  0  0  0  0  0  0  0  0
   -3.0890   20.9450  -33.4650 C   0  0  0  0  0  0  0  0  0  0  0  0
   -4.2650   20.8040  -32.7070 C   0  0  0  0  0  0  0  0  0  0  0  0
   -5.5240   20.6500  -33.3070 O   0  0  0  0  0  0  0  0  0  0  0  0
   -6.7540   20.9160  -32.6880 C   0  0  0  0  0  0  0  0  0  0  0  0
   -7.6750   19.9230  -32.5310 N   0  0  0  0  0  0  0  0  0  0  0  0
   -8.8830   20.1440  -31.9520 C   0  0  0  0  0  0  0  0  0  0  0  0
   -9.2170   21.4190  -31.5040 C   0  0  0  0  0  0  0  0  0  0  0  0
   -8.3030   22.4600  -31.6600 C   0  0  0  0  0  0  0  0  0  0  0  0
   -7.0520   22.2230  -32.2590 C   0  0  0  0  0  0  0  0  0  0  0  0
   -6.0830   23.2790  -32.4350 N   0  0  0  0  0  0  0  0  0  0  0  0
   -6.0860   24.5330  -31.6830 C   0  0  0  0  0  0  0  0  0  0  0  0
   -5.2320   24.4080  -30.4600 C   0  0  0  0  0  0  0  0  0  0  0  0
   -3.8890   24.5360  -30.4760 N   0  0  0  0  0  0  0  0  0  0  0  0
   -3.5270   24.3700  -29.1860 C   0  0  0  0  0  0  0  0  0  0  0  0
   -2.1220   24.4360  -28.7130 C   0  0  0  0  0  0  0  0  0  0  0  0
   -1.7390   25.3000  -27.6690 C   0  0  0  0  0  0  0  0  0  0  0  0
   -0.4090   25.3470  -27.2390 C   0  0  0  0  0  0  0  0  0  0  0  0
    0.5530   24.5350  -27.8440 C   0  0  0  0  0  0  0  0  0  0  0  0
    0.1870   23.6740  -28.8800 C   0  0  0  0  0  0  0  0  0  0  0  0
   -1.1420   23.6230  -29.3130 C   0  0  0  0  0  0  0  0  0  0  0  0
   -4.6560   24.1440  -28.4190 C   0  0  0  0  0  0  0  0  0  0  0  0
   -5.7250   24.1690  -29.2300 N   0  0  0  0  0  0  0  0  0  0  0  0
   -4.1820   20.7660  -31.3110 C   0  0  0  0  0  0  0  0  0  0  0  0
   -3.5845   21.5297  -28.7242 H   0  0  0  0  0  0  0  0  0  0  0  0
   -3.1011   19.8037  -28.8415 H   0  0  0  0  0  0  0  0  0  0  0  0
   -1.8469   21.0896  -28.8415 H   0  0  0  0  0  0  0  0  0  0  0  0
   -0.8026   21.1326  -30.9275 H   0  0  0  0  0  0  0  0  0  0  0  0
    0.2771   21.2617  -32.9690 H   0  0  0  0  0  0  0  0  0  0  0  0
   -0.4888   20.2972  -34.2765 H   0  0  0  0  0  0  0  0  0  0  0  0
   -0.6369   22.0873  -34.2765 H   0  0  0  0  0  0  0  0  0  0  0  0
   -3.1436   20.9447  -34.5636 H   0  0  0  0  0  0  0  0  0  0  0  0
   -9.5977   19.3157  -31.8369 H   0  0  0  0  0  0  0  0  0  0  0  0
  -10.1930   21.6034  -31.0313 H   0  0  0  0  0  0  0  0  0  0  0  0
   -8.5610   23.4715  -31.3132 H   0  0  0  0  0  0  0  0  0  0  0  0
   -5.2990   23.1400  -33.1110 H   0  0  0  0  0  0  0  0  0  0  0  0
   -5.6920   25.3388  -32.3198 H   0  0  0  0  0  0  0  0  0  0  0  0
   -7.1170   24.7640  -31.3771 H   0  0  0  0  0  0  0  0  0  0  0  0
   -2.4913   25.9426  -27.1882 H   0  0  0  0  0  0  0  0  0  0  0  0
   -0.1199   26.0250  -26.4225 H   0  0  0  0  0  0  0  0  0  0  0  0
    1.5985   24.5740  -27.5043 H   0  0  0  0  0  0  0  0  0  0  0  0
    0.9448   23.0347  -29.3565 H   0  0  0  0  0  0  0  0  0  0  0  0
   -1.4238   22.9417  -30.1294 H   0  0  0  0  0  0  0  0  0  0  0  0
   -4.6743   23.9733  -27.3325 H   0  0  0  0  0  0  0  0  0  0  0  0
   -6.7250   24.0380  -28.9600 H   0  0  0  0  0  0  0  0  0  0  0  0
   -5.0956   20.6250  -30.7148 H   0  0  0  0  0  0  0  0  0  0  0  0
  1  2  1  0
  2  3  2  0
  3  4  1  0
  4  5  1  0
  4  6  2  0
  6  7  1  0
  7  8  1  0
  8  9  1  0
  9 10  2  0
 10 11  1  0
 11 12  2  0
 12 13  1  0
 13 14  2  0
 14 15  1  0
 15 16  1  0
 16 17  1  0
 17 18  2  0
 18 19  1  0
 19 20  1  0
 20 21  2  0
 21 22  1  0
 22 23  2  0
 23 24  1  0
 24 25  2  0
 19 26  2  0
 26 27  1  0
  7 28  2  0
 28  2  1  0
 14  9  1  0
 27 17  1  0
 25 20  1  0
  1 29  1  0
  1 30  1  0
  1 31  1  0
  3 32  1  0
  5 33  1  0
  5 34  1  0
  5 35  1  0
  6 36  1  0
 11 37  1  0
 12 38  1  0
 13 39  1  0
 15 40  1  0
 16 41  1  0
 16 42  1  0
 21 43  1  0
 22 44  1  0
 23 45  1  0
 24 46  1  0
 25 47  1  0
 26 48  1  0
 27 49  1  0
 28 50  1  0
M  END
>  <UniqueID>  (41) 
40

>  <SMILES>  (41) 
Cc1cc(C)cc(Oc2ncccc2NCc2nc(-c3ccccc3)c[nH]2)c1

>  <Energy>  (41) 
86.99368365371872

>  <Genealogy>  (41) 
Cc1cc(C)cc(Oc2ncccc2NCc2nc(-c3ccccc3)c[nH]2)c1 (3D coordinates assigned)
Cc1cc(C)cc(Oc2ncccc2NCc2nc(-c3ccccc3)c[nH]2)c1 (optimized conformer: 86.99368365371872 kcal/mol)

>  <smiles>  (41) 
Cc1cc(C)cc(Oc2ncccc2NCc2nc(-c3ccccc3)c[nH]2)c1

>  <score_type>  (41) 
oracle

>  <origin>  (41) 
adgpu

>  <m_score__min__energy>  (41) 
-8.9600000000000009

>  <m_primary>  (41) 
energy

$$$$
41:0
     RDKit          3D

 37 39  0  0  0  0  0  0  0  0999 V2000
    0.2595   19.2284  -31.8514 H   0  0  0  0  0  0  0  0  0  0  0  0
   -0.5050   20.0180  -31.8070 C   0  0  0  0  0  0  0  0  0  0  0  0
   -0.7430   20.6670  -30.6380 N   0  0  0  0  0  0  0  0  0  0  0  0
   -1.6770   21.6500  -30.5630 C   0  0  0  0  0  0  0  0  0  0  0  0
   -1.8634   22.1576  -29.6051 H   0  0  0  0  0  0  0  0  0  0  0  0
   -2.4030   22.0190  -31.7010 C   0  0  0  0  0  0  0  0  0  0  0  0
   -3.4090   23.0440  -31.6140 N   0  0  0  0  0  0  0  0  0  0  0  0
   -3.0970   24.0410  -31.5800 H   0  0  0  0  0  0  0  0  0  0  0  0
   -4.8240   22.7820  -31.6150 C   0  0  0  0  0  0  0  0  0  0  0  0
   -5.3090   21.5900  -32.1770 C   0  0  0  0  0  0  0  0  0  0  0  0
   -4.6001   20.8370  -32.5517 H   0  0  0  0  0  0  0  0  0  0  0  0
   -6.6800   21.3510  -32.2650 C   0  0  0  0  0  0  0  0  0  0  0  0
   -7.0449   20.4126  -32.7080 H   0  0  0  0  0  0  0  0  0  0  0  0
   -7.5940   22.3000  -31.7920 C   0  0  0  0  0  0  0  0  0  0  0  0
   -9.0690   22.0630  -31.9260 C   0  0  0  0  0  0  0  0  0  0  0  0
   -9.5211   21.9904  -30.9258 H   0  0  0  0  0  0  0  0  0  0  0  0
   -9.5263   22.8992  -32.4752 H   0  0  0  0  0  0  0  0  0  0  0  0
   -9.2414   21.1256  -32.4752 H   0  0  0  0  0  0  0  0  0  0  0  0
   -7.1200   23.5050  -31.2550 C   0  0  0  0  0  0  0  0  0  0  0  0
   -7.8370   24.2621  -30.9047 H   0  0  0  0  0  0  0  0  0  0  0  0
   -5.7400   23.7590  -31.1580 C   0  0  0  0  0  0  0  0  0  0  0  0
   -5.2800   25.0310  -30.5470 C   0  0  0  0  0  0  0  0  0  0  0  0
   -6.1090   25.9560  -30.3360 O   0  0  0  0  0  0  0  0  0  0  0  0
   -3.8890   25.2910  -30.3000 N   0  0  0  0  0  0  0  0  0  0  0  0
   -3.1470   24.8100  -29.3410 C   0  0  0  0  0  0  0  0  0  0  0  0
   -1.8170   25.1040  -29.3410 N   0  0  0  0  0  0  0  0  0  0  0  0
   -0.9710   24.6500  -28.3790 C   0  0  0  0  0  0  0  0  0  0  0  0
    0.0980   24.9057  -28.4215 H   0  0  0  0  0  0  0  0  0  0  0  0
   -1.4580   23.8600  -27.3380 C   0  0  0  0  0  0  0  0  0  0  0  0
   -0.6210   23.4050  -26.3730 F   0  0  0  0  0  0  0  0  0  0  0  0
   -2.8180   23.5530  -27.2920 C   0  0  0  0  0  0  0  0  0  0  0  0
   -3.2163   22.9364  -26.4728 H   0  0  0  0  0  0  0  0  0  0  0  0
   -3.6730   24.0300  -28.2880 C   0  0  0  0  0  0  0  0  0  0  0  0
   -4.7481   23.7998  -28.2524 H   0  0  0  0  0  0  0  0  0  0  0  0
   -2.1520   21.3210  -32.8920 C   0  0  0  0  0  0  0  0  0  0  0  0
   -2.7184   21.5660  -33.8026 H   0  0  0  0  0  0  0  0  0  0  0  0
   -1.2100   20.3430  -32.9210 N   0  0  0  0  0  0  0  0  0  0  0  0
  1  2  1  0
  2  3  2  0
  3  4  1  0
  4  5  1  0
  4  6  2  0
  6  7  1  0
  7  8  1  0
  7  9  1  0
  9 10  2  0
 10 11  1  0
 10 12  1  0
 12 13  1  0
 12 14  2  0
 14 15  1  0
 15 16  1  0
 15 17  1  0
 15 18  1  0
 14 19  1  0
 19 20  1  0
 19 21  2  0
 21 22  1  0
 22 23  2  0
 22 24  1  0
 24 25  2  0
 25 26  1  0
 26 27  1  0
 27 28  1  0
 27 29  2  0
 29 30  1  0
 29 31  1  0
 31 32  1  0
 31 33  2  0
 33 34  1  0
  6 35  1  0
 35 36  1  0
 35 37  2  0
 37  2  1  0
 21  9  1  0
 33 25  1  0
M  CHG  1  26  -1
M  END
>  <UniqueID>  (42) 
41

>  <SMILES>  (42) 
Cc1ccc(Nc2cncnc2)c(C(=O)/N=c2\ccc(F)c[n-]2)c1

>  <Energy>  (42) 
59.02769221680471

>  <Genealogy>  (42) 
Cc1ccc(Nc2cncnc2)c(C(=O)N=c2ccc(F)c[n-]2)c1 (protonated)
Cc1ccc(Nc2cncnc2)c(C(=O)/N=c2\ccc(F)c[n-]2)c1 (cis-trans isomerization)
Cc1ccc(Nc2cncnc2)c(C(=O)/N=c2\ccc(F)c[n-]2)c1 (3D coordinates assigned)
Cc1ccc(Nc2cncnc2)c(C(=O)/N=c2\ccc(F)c[n-]2)c1 (optimized conformer: 59.02769221680471 kcal/mol)

>  <smiles>  (42) 
Cc1ccc(Nc2cncnc2)c(C(=O)N=c2ccc(F)c[nH]2)c1

>  <score_type>  (42) 
oracle

>  <origin>  (42) 
adgpu

>  <m_score__min__energy>  (42) 
-9.2300000000000004

>  <m_primary>  (42) 
energy

$$$$
42:0
     RDKit          3D

 35 36  0  0  0  0  0  0  0  0999 V2000
    2.6441   18.1881  -29.0381 H   0  0  0  0  0  0  0  0  0  0  0  0
    1.7340   18.6060  -28.5830 C   0  0  0  0  0  0  0  0  0  0  0  0
    1.5480   19.9910  -28.5400 C   0  0  0  0  0  0  0  0  0  0  0  0
    2.3056   20.6585  -28.9764 H   0  0  0  0  0  0  0  0  0  0  0  0
    0.3960   20.5360  -27.9410 C   0  0  0  0  0  0  0  0  0  0  0  0
    0.1600   21.9550  -27.9150 N   0  0  0  0  0  0  0  0  0  0  0  0
   -0.7320   22.6180  -28.6010 C   0  0  0  0  0  0  0  0  0  0  0  0
   -1.4970   21.9770  -29.5260 N   0  0  0  0  0  0  0  0  0  0  0  0
   -2.4380   22.6270  -30.2500 C   0  0  0  0  0  0  0  0  0  0  0  0
   -3.1210   21.9900  -31.0960 O   0  0  0  0  0  0  0  0  0  0  0  0
   -2.6550   23.9880  -30.0450 C   0  0  0  0  0  0  0  0  0  0  0  0
   -3.6590   24.6670  -30.8150 N   0  0  0  0  0  0  0  0  0  0  0  0
   -4.9820   24.9700  -30.3620 C   0  0  0  0  0  0  0  0  0  0  0  0
   -5.4310   26.1450  -30.4430 O   0  0  0  0  0  0  0  0  0  0  0  0
   -5.7480   23.9550  -29.7800 O   0  0  0  0  0  0  0  0  0  0  0  0
   -6.5400   23.0390  -30.5320 C   0  0  0  0  0  0  0  0  0  0  0  0
   -7.5611   23.0245  -30.1232 H   0  0  0  0  0  0  0  0  0  0  0  0
   -6.0865   22.0393  -30.4620 H   0  0  0  0  0  0  0  0  0  0  0  0
   -6.5940   23.4510  -31.9990 C   0  0  0  0  0  0  0  0  0  0  0  0
   -6.7367   24.5395  -32.0691 H   0  0  0  0  0  0  0  0  0  0  0  0
   -5.6516   23.1721  -32.4931 H   0  0  0  0  0  0  0  0  0  0  0  0
   -7.4327   22.9387  -32.4931 H   0  0  0  0  0  0  0  0  0  0  0  0
   -1.8260   24.6610  -29.1300 C   0  0  0  0  0  0  0  0  0  0  0  0
   -1.9650   26.0370  -28.9640 O   0  0  0  0  0  0  0  0  0  0  0  0
   -0.8670   23.9750  -28.4280 N   0  0  0  0  0  0  0  0  0  0  0  0
   -0.0340   24.6870  -27.4430 C   0  0  0  0  0  0  0  0  0  0  0  0
   -0.3537   24.4137  -26.4266 H   0  0  0  0  0  0  0  0  0  0  0  0
    1.0204   24.4067  -27.5835 H   0  0  0  0  0  0  0  0  0  0  0  0
   -0.1468   25.7721  -27.5835 H   0  0  0  0  0  0  0  0  0  0  0  0
   -0.5880   19.6680  -27.4340 C   0  0  0  0  0  0  0  0  0  0  0  0
   -2.0630   20.3030  -26.7190 Cl  0  0  0  0  0  0  0  0  0  0  0  0
   -0.3950   18.2830  -27.4790 C   0  0  0  0  0  0  0  0  0  0  0  0
   -1.1595   17.6094  -27.0644 H   0  0  0  0  0  0  0  0  0  0  0  0
    0.7660   17.7520  -28.0490 C   0  0  0  0  0  0  0  0  0  0  0  0
    1.0010   16.0140  -28.1060 Cl  0  0  0  0  0  0  0  0  0  0  0  0
  1  2  1  0
  2  3  2  0
  3  4  1  0
  3  5  1  0
  5  6  1  0
  6  7  2  0
  7  8  1  0
  8  9  1  0
  9 10  2  0
  9 11  1  0
 11 12  1  0
 12 13  1  0
 13 14  2  0
 13 15  1  0
 15 16  1  0
 16 17  1  0
 16 18  1  0
 16 19  1  0
 19 20  1  0
 19 21  1  0
 19 22  1  0
 11 23  2  0
 23 24  1  0
 23 25  1  0
 25 26  1  0
 26 27  1  0
 26 28  1  0
 26 29  1  0
  5 30  2  0
 30 31  1  0
 30 32  1  0
 32 33  1  0
 32 34  2  0
 34 35  1  0
 34  2  1  0
 25  7  1  0
M  CHG  3   8  -1  12  -1  24  -1
M  END
>  <UniqueID>  (43) 
42

>  <SMILES>  (43) 
CCOC(=O)[N-]c1c([O-])n(C)/c(=N/c2ccc(Cl)cc2Cl)[n-]c1=O

>  <Energy>  (43) 
48.30205466561402

>  <Genealogy>  (43) 
CCOC(=O)[N-]c1c([O-])n(C)c(=Nc2ccc(Cl)cc2Cl)[n-]c1=O (protonated)
CCOC(=O)[N-]c1c([O-])n(C)/c(=N/c2ccc(Cl)cc2Cl)[n-]c1=O (cis-trans isomerization)
CCOC(=O)[N-]c1c([O-])n(C)/c(=N/c2ccc(Cl)cc2Cl)[n-]c1=O (3D coordinates assigned)
CCOC(=O)[N-]c1c([O-])n(C)/c(=N/c2ccc(Cl)cc2Cl)[n-]c1=O (optimized conformer: 48.30205466561402 kcal/mol)

>  <smiles>  (43) 
CCOC(=O)Nc1c(O)n(C)c(=Nc2ccc(Cl)cc2Cl)[nH]c1=O

>  <score_type>  (43) 
oracle

>  <origin>  (43) 
adgpu

>  <m_score__min__energy>  (43) 
-12

>  <m_primary>  (43) 
energy

$$$$
43:0
     RDKit          3D

 40 42  0  0  0  0  0  0  0  0999 V2000
   -2.3920   24.6860  -28.4700 C   0  0  0  0  0  0  0  0  0  0  0  0
   -3.0960   25.2480  -29.5730 O   0  0  0  0  0  0  0  0  0  0  0  0
   -4.0590   24.5630  -30.3280 C   0  0  0  0  0  0  0  0  0  0  0  0
   -3.7130   23.3250  -30.8830 C   0  0  0  0  0  0  0  0  0  0  0  0
   -4.6370   22.6030  -31.6410 C   0  0  0  0  0  0  0  0  0  0  0  0
   -5.9340   23.1090  -31.8490 C   0  0  0  0  0  0  0  0  0  0  0  0
   -6.8910   22.4210  -32.6100 O   0  0  0  0  0  0  0  0  0  0  0  0
   -7.2440   21.0770  -32.4160 C   0  0  0  0  0  0  0  0  0  0  0  0
   -8.4340   20.7160  -31.7680 C   0  0  0  0  0  0  0  0  0  0  0  0
   -9.5910   21.9180  -31.2140 Cl  0  0  0  0  0  0  0  0  0  0  0  0
   -8.7330   19.3660  -31.6170 C   0  0  0  0  0  0  0  0  0  0  0  0
   -7.8780   18.4290  -32.0960 N   0  0  0  0  0  0  0  0  0  0  0  0
   -6.7410   18.7530  -32.7210 N   0  0  0  0  0  0  0  0  0  0  0  0
   -5.9010   17.6830  -33.1940 C   0  0  0  0  0  0  0  0  0  0  0  0
   -5.4260   17.6700  -34.5180 C   0  0  0  0  0  0  0  0  0  0  0  0
   -4.5920   16.6390  -34.9590 C   0  0  0  0  0  0  0  0  0  0  0  0
   -4.2100   15.6120  -34.0890 C   0  0  0  0  0  0  0  0  0  0  0  0
   -3.3730   14.5980  -34.5820 O   0  0  0  0  0  0  0  0  0  0  0  0
   -2.3040   14.8120  -35.4960 C   0  0  0  0  0  0  0  0  0  0  0  0
   -4.6700   15.6300  -32.7590 C   0  0  0  0  0  0  0  0  0  0  0  0
   -5.5040   16.6620  -32.3170 C   0  0  0  0  0  0  0  0  0  0  0  0
   -6.4100   20.0700  -32.9140 C   0  0  0  0  0  0  0  0  0  0  0  0
   -5.3680   20.3880  -33.5490 O   0  0  0  0  0  0  0  0  0  0  0  0
   -6.2770   24.3520  -31.3060 C   0  0  0  0  0  0  0  0  0  0  0  0
   -5.3520   25.0750  -30.5470 C   0  0  0  0  0  0  0  0  0  0  0  0
   -2.8385   25.0424  -27.5300 H   0  0  0  0  0  0  0  0  0  0  0  0
   -2.4572   23.5888  -28.5140 H   0  0  0  0  0  0  0  0  0  0  0  0
   -1.3365   24.9927  -28.5140 H   0  0  0  0  0  0  0  0  0  0  0  0
   -2.7043   22.9175  -30.7204 H   0  0  0  0  0  0  0  0  0  0  0  0
   -4.3502   21.6348  -32.0774 H   0  0  0  0  0  0  0  0  0  0  0  0
   -9.6602   19.0595  -31.1106 H   0  0  0  0  0  0  0  0  0  0  0  0
   -5.7126   18.4757  -35.2099 H   0  0  0  0  0  0  0  0  0  0  0  0
   -4.2329   16.6349  -35.9987 H   0  0  0  0  0  0  0  0  0  0  0  0
   -1.3752   14.9979  -34.9368 H   0  0  0  0  0  0  0  0  0  0  0  0
   -2.1788   13.9211  -36.1289 H   0  0  0  0  0  0  0  0  0  0  0  0
   -2.5314   15.6824  -36.1289 H   0  0  0  0  0  0  0  0  0  0  0  0
   -4.3727   14.8300  -32.0651 H   0  0  0  0  0  0  0  0  0  0  0  0
   -5.8516   16.6734  -31.2734 H   0  0  0  0  0  0  0  0  0  0  0  0
   -7.2825   24.7637  -31.4777 H   0  0  0  0  0  0  0  0  0  0  0  0
   -5.6356   26.0479  -30.1192 H   0  0  0  0  0  0  0  0  0  0  0  0
  1  2  1  0
  2  3  1  0
  3  4  2  0
  4  5  1  0
  5  6  2  0
  6  7  1  0
  7  8  1  0
  8  9  2  0
  9 10  1  0
  9 11  1  0
 11 12  2  0
 12 13  1  0
 13 14  1  0
 14 15  2  0
 15 16  1  0
 16 17  2  0
 17 18  1  0
 18 19  1  0
 17 20  1  0
 20 21  2  0
 13 22  1  0
 22 23  2  0
  6 24  1  0
 24 25  2  0
 25  3  1  0
 22  8  1  0
 21 14  1  0
  1 26  1  0
  1 27  1  0
  1 28  1  0
  4 29  1  0
  5 30  1  0
 11 31  1  0
 15 32  1  0
 16 33  1  0
 19 34  1  0
 19 35  1  0
 19 36  1  0
 20 37  1  0
 21 38  1  0
 24 39  1  0
 25 40  1  0
M  END
>  <UniqueID>  (44) 
43

>  <SMILES>  (44) 
COc1ccc(Oc2c(Cl)cnn(-c3ccc(OC)cc3)c2=O)cc1

>  <Energy>  (44) 
58.310219239534675

>  <Genealogy>  (44) 
COc1ccc(Oc2c(Cl)cnn(-c3ccc(OC)cc3)c2=O)cc1 (3D coordinates assigned)
COc1ccc(Oc2c(Cl)cnn(-c3ccc(OC)cc3)c2=O)cc1 (optimized conformer: 58.310219239534675 kcal/mol)

>  <smiles>  (44) 
COc1ccc(Oc2c(Cl)cnn(-c3ccc(OC)cc3)c2=O)cc1

>  <score_type>  (44) 
oracle

>  <origin>  (44) 
adgpu

>  <m_score__min__energy>  (44) 
-8.1300000000000008

>  <m_primary>  (44) 
energy

$$$$
44:0
     RDKit          3D

 21 22  0  0  0  0  0  0  0  0999 V2000
   -4.2220   21.2000  -33.2140 C   0  0  0  0  0  0  0  0  0  0  0  0
   -5.4170   21.4280  -32.6450 C   0  0  0  0  0  0  0  0  0  0  0  0
   -6.4770   20.5380  -32.9020 C   0  0  0  0  0  0  0  0  0  0  0  0
   -7.7310   20.7380  -32.3260 C   0  0  0  0  0  0  0  0  0  0  0  0
   -7.9510   21.8220  -31.4780 C   0  0  0  0  0  0  0  0  0  0  0  0
   -6.9210   22.7360  -31.2150 C   0  0  0  0  0  0  0  0  0  0  0  0
   -5.6420   22.5460  -31.7990 C   0  0  0  0  0  0  0  0  0  0  0  0
   -4.6790   23.3950  -31.5610 N   0  0  0  0  0  0  0  0  0  0  0  0
   -4.8600   24.5890  -30.7940 C   0  0  0  0  0  0  0  0  0  0  0  0
   -3.8630   25.2990  -30.4940 O   0  0  0  0  0  0  0  0  0  0  0  0
   -6.2410   25.0380  -30.4380 C   0  0  0  0  0  0  0  0  0  0  0  0
   -7.1430   23.8260  -30.1910 C   0  0  0  0  0  0  0  0  0  0  0  0
   -3.3827   21.8852  -33.0241 H   0  0  0  0  0  0  0  0  0  0  0  0
   -4.0826   20.3280  -33.8699 H   0  0  0  0  0  0  0  0  0  0  0  0
   -6.3142   19.6752  -33.5646 H   0  0  0  0  0  0  0  0  0  0  0  0
   -8.5506   20.0368  -32.5419 H   0  0  0  0  0  0  0  0  0  0  0  0
   -8.9380   21.9611  -31.0126 H   0  0  0  0  0  0  0  0  0  0  0  0
   -6.1998   25.6522  -29.5264 H   0  0  0  0  0  0  0  0  0  0  0  0
   -6.6524   25.6284  -31.2700 H   0  0  0  0  0  0  0  0  0  0  0  0
   -6.9289   23.4221  -29.1905 H   0  0  0  0  0  0  0  0  0  0  0  0
   -8.1884   24.1589  -30.2707 H   0  0  0  0  0  0  0  0  0  0  0  0
  1  2  2  0
  2  3  1  0
  3  4  2  0
  4  5  1  0
  5  6  2  0
  6  7  1  0
  7  8  2  0
  8  9  1  0
  9 10  2  0
  9 11  1  0
 11 12  1  0
  7  2  1  0
 12  6  1  0
  1 13  1  0
  1 14  1  0
  3 15  1  0
  4 16  1  0
  5 17  1  0
 11 18  1  0
 11 19  1  0
 12 20  1  0
 12 21  1  0
M  END
>  <UniqueID>  (45) 
44

>  <SMILES>  (45) 
C=c1cccc2c1=NC(=O)CC2

>  <Energy>  (45) 
26.07910963340233

>  <Genealogy>  (45) 
C=c1cccc2c1=NC(=O)CC2 (3D coordinates assigned)
C=c1cccc2c1=NC(=O)CC2 (nonaromatic ring conformer: 26.07910963340233 kcal/mol)

>  <smiles>  (45) 
C=c1cccc2c1=NC(=O)CC2

>  <score_type>  (45) 
oracle

>  <origin>  (45) 
adgpu

>  <m_score__min__energy>  (45) 
-6.8799999999999999

>  <m_primary>  (45) 
energy

$$$$
45:0
     RDKit          3D

 45 47  0  0  0  0  0  0  0  0999 V2000
   -0.4930   27.1920  -27.7380 C   0  0  0  0  0  0  0  0  0  0  0  0
   -0.9210   26.1380  -28.5960 O   0  0  0  0  0  0  0  0  0  0  0  0
   -1.2910   24.8580  -28.1570 C   0  0  0  0  0  0  0  0  0  0  0  0
   -0.5790   24.1820  -27.1450 C   0  0  0  0  0  0  0  0  0  0  0  0
   -0.9850   22.9150  -26.7220 C   0  0  0  0  0  0  0  0  0  0  0  0
   -2.1020   22.3100  -27.2970 C   0  0  0  0  0  0  0  0  0  0  0  0
   -2.8150   22.9680  -28.3020 C   0  0  0  0  0  0  0  0  0  0  0  0
   -2.4100   24.2410  -28.7440 C   0  0  0  0  0  0  0  0  0  0  0  0
   -3.1140   24.9370  -29.7830 N   0  0  0  0  0  0  0  0  0  0  0  0
   -4.7010   24.5390  -30.3640 S   0  0  0  0  0  0  0  0  0  0  0  0
   -5.2070   25.6660  -31.2200 O   0  0  0  0  0  0  0  0  0  0  0  0
   -5.6170   24.3230  -29.1930 O   0  0  0  0  0  0  0  0  0  0  0  0
   -4.6470   23.0540  -31.3210 C   0  0  0  0  0  0  0  0  0  0  0  0
   -3.4200   22.4010  -31.5160 C   0  0  0  0  0  0  0  0  0  0  0  0
   -3.3570   21.1750  -32.2040 C   0  0  0  0  0  0  0  0  0  0  0  0
   -2.1220   20.4530  -32.3550 N   0  0  0  0  0  0  0  0  0  0  0  0
   -0.6440   20.8860  -31.5500 S   0  0  0  0  0  0  0  0  0  0  0  0
   -0.7610   22.2970  -31.0460 O   0  0  0  0  0  0  0  0  0  0  0  0
    0.4940   20.8050  -32.5270 O   0  0  0  0  0  0  0  0  0  0  0  0
   -0.3250   19.7770  -30.2180 C   0  0  0  0  0  0  0  0  0  0  0  0
   -0.9230   19.9830  -28.9670 C   0  0  0  0  0  0  0  0  0  0  0  0
   -0.7160   19.0690  -27.9300 C   0  0  0  0  0  0  0  0  0  0  0  0
    0.0970   17.9500  -28.1340 C   0  0  0  0  0  0  0  0  0  0  0  0
    0.2960   17.0630  -27.1280 F   0  0  0  0  0  0  0  0  0  0  0  0
    0.7060   17.7480  -29.3770 C   0  0  0  0  0  0  0  0  0  0  0  0
    0.4980   18.6590  -30.4160 C   0  0  0  0  0  0  0  0  0  0  0  0
   -4.5340   20.6370  -32.7440 C   0  0  0  0  0  0  0  0  0  0  0  0
   -5.7540   21.2930  -32.5750 C   0  0  0  0  0  0  0  0  0  0  0  0
   -5.8220   22.4910  -31.8590 C   0  0  0  0  0  0  0  0  0  0  0  0
   -7.3970   23.2530  -31.6550 Cl  0  0  0  0  0  0  0  0  0  0  0  0
   -0.6178   26.8846  -26.6892 H   0  0  0  0  0  0  0  0  0  0  0  0
    0.5668   27.4146  -27.9312 H   0  0  0  0  0  0  0  0  0  0  0  0
   -1.0975   28.0904  -27.9312 H   0  0  0  0  0  0  0  0  0  0  0  0
    0.3014   24.6556  -26.6861 H   0  0  0  0  0  0  0  0  0  0  0  0
   -0.4227   22.3930  -25.9337 H   0  0  0  0  0  0  0  0  0  0  0  0
   -2.4221   21.3134  -26.9588 H   0  0  0  0  0  0  0  0  0  0  0  0
   -3.6977   22.4885  -28.7502 H   0  0  0  0  0  0  0  0  0  0  0  0
   -2.4961   22.8532  -31.1262 H   0  0  0  0  0  0  0  0  0  0  0  0
   -2.1210   19.5600  -32.8950 H   0  0  0  0  0  0  0  0  0  0  0  0
   -1.5570   20.8665  -28.8010 H   0  0  0  0  0  0  0  0  0  0  0  0
   -1.1933   19.2303  -26.9522 H   0  0  0  0  0  0  0  0  0  0  0  0
    1.3498   16.8705  -29.5369 H   0  0  0  0  0  0  0  0  0  0  0  0
    0.9809   18.4988  -31.3913 H   0  0  0  0  0  0  0  0  0  0  0  0
   -4.4953   19.6914  -33.3047 H   0  0  0  0  0  0  0  0  0  0  0  0
   -6.6692   20.8637  -33.0088 H   0  0  0  0  0  0  0  0  0  0  0  0
  1  2  1  0
  2  3  1  0
  3  4  2  0
  4  5  1  0
  5  6  2  0
  6  7  1  0
  7  8  2  0
  8  9  1  0
  9 10  1  0
 10 11  2  0
 10 12  2  0
 10 13  1  0
 13 14  2  0
 14 15  1  0
 15 16  1  0
 16 17  1  0
 17 18  2  0
 17 19  2  0
 17 20  1  0
 20 21  2  0
 21 22  1  0
 22 23  2  0
 23 24  1  0
 23 25  1  0
 25 26  2  0
 15 27  2  0
 27 28  1  0
 28 29  2  0
 29 30  1  0
  8  3  1  0
 29 13  1  0
 26 20  1  0
  1 31  1  0
  1 32  1  0
  1 33  1  0
  4 34  1  0
  5 35  1  0
  6 36  1  0
  7 37  1  0
 14 38  1  0
 16 39  1  0
 21 40  1  0
 22 41  1  0
 25 42  1  0
 26 43  1  0
 27 44  1  0
 28 45  1  0
M  CHG  1   9  -1
M  END
>  <UniqueID>  (46) 
45

>  <SMILES>  (46) 
COc1ccccc1[N-]S(=O)(=O)c1cc(NS(=O)(=O)c2ccc(F)cc2)ccc1Cl

>  <Energy>  (46) 
53.09474567844513

>  <Genealogy>  (46) 
COc1ccccc1[N-]S(=O)(=O)c1cc(NS(=O)(=O)c2ccc(F)cc2)ccc1Cl (protonated)
COc1ccccc1[N-]S(=O)(=O)c1cc(NS(=O)(=O)c2ccc(F)cc2)ccc1Cl (3D coordinates assigned)
COc1ccccc1[N-]S(=O)(=O)c1cc(NS(=O)(=O)c2ccc(F)cc2)ccc1Cl (optimized conformer: 53.09474567844513 kcal/mol)

>  <smiles>  (46) 
COc1ccccc1NS(=O)(=O)c1cc(NS(=O)(=O)c2ccc(F)cc2)ccc1Cl

>  <score_type>  (46) 
oracle

>  <origin>  (46) 
adgpu

>  <m_score__min__energy>  (46) 
-11.119999999999999

>  <m_primary>  (46) 
energy

$$$$
46:0
     RDKit          3D

 27 28  0  0  1  0  0  0  0  0999 V2000
   -6.6730   18.8840  -32.8220 C   0  0  0  0  0  0  0  0  0  0  0  0
   -7.2820   20.1870  -32.4170 C   0  0  0  0  0  0  0  0  0  0  0  0
   -8.6150   20.1930  -32.0550 C   0  0  0  0  0  0  0  0  0  0  0  0
   -9.1440   21.4190  -31.6870 C   0  0  0  0  0  0  0  0  0  0  0  0
   -8.4140   22.5800  -31.6710 C   0  0  0  0  0  0  0  0  0  0  0  0
   -7.0850   22.5270  -32.0420 C   0  0  0  0  0  0  0  0  0  0  0  0
   -6.2380   23.6710  -32.0610 N   0  0  0  0  0  0  0  0  0  0  0  0
   -5.5280   24.0880  -31.0950 C   0  0  0  0  0  0  0  0  0  0  0  0
   -5.4540   23.5080  -29.8620 C   0  0  0  0  0  0  0  0  0  0  0  0
   -4.5760   24.2770  -29.1290 C   0  0  0  0  0  0  0  0  0  0  0  0
   -4.1510   24.0750  -27.7310 C   0  0  0  0  0  0  0  0  0  0  0  0
   -4.1630   25.2700  -29.9220 N   0  0  0  0  0  0  0  0  0  0  0  0
   -4.7310   25.1760  -31.1290 N   0  0  0  0  0  0  0  0  0  0  0  0
   -6.5060   21.3090  -32.4210 C   0  0  0  0  0  0  0  0  0  0  0  0
   -6.4045   18.3096  -31.9231 H   0  0  0  0  0  0  0  0  0  0  0  0
   -7.3967   18.3113  -33.4205 H   0  0  0  0  0  0  0  0  0  0  0  0
   -5.7694   19.0719  -33.4205 H   0  0  0  0  0  0  0  0  0  0  0  0
   -9.2222   19.2758  -32.0588 H   0  0  0  0  0  0  0  0  0  0  0  0
  -10.2030   21.4638  -31.3927 H   0  0  0  0  0  0  0  0  0  0  0  0
   -8.8766   23.5314  -31.3696 H   0  0  0  0  0  0  0  0  0  0  0  0
   -5.9875   22.6082  -29.5217 H   0  0  0  0  0  0  0  0  0  0  0  0
   -4.9331   24.4467  -27.0527 H   0  0  0  0  0  0  0  0  0  0  0  0
   -3.9870   23.0026  -27.5489 H   0  0  0  0  0  0  0  0  0  0  0  0
   -3.2159   24.6250  -27.5489 H   0  0  0  0  0  0  0  0  0  0  0  0
   -3.4890   26.0540  -29.7080 H   0  0  0  0  0  0  0  0  0  0  0  0
   -4.6110   25.7910  -31.9520 H   0  0  0  0  0  0  0  0  0  0  0  0
   -5.4474   21.2583  -32.7158 H   0  0  0  0  0  0  0  0  0  0  0  0
  1  2  1  0
  2  3  2  0
  3  4  1  0
  4  5  2  0
  5  6  1  0
  6  7  1  0
  7  8  2  0
  8  9  1  0
  9 10  2  0
 10 11  1  0
 10 12  1  0
 12 13  1  0
  6 14  2  0
 14  2  1  0
 13  8  1  0
  1 15  1  0
  1 16  1  0
  1 17  1  0
  3 18  1  0
  4 19  1  0
  5 20  1  0
  9 21  1  0
 11 22  1  0
 11 23  1  0
 11 24  1  0
 12 25  1  0
 13 26  1  0
 14 27  1  0
M  END
>  <smiles>  (47) 
Cc1cccc(N=c2cc(C)[nH][nH]2)c1

>  <score_type>  (47) 
oracle

>  <origin>  (47) 
adgpu

>  <m_score__min__energy>  (47) 
-7.3799999999999999

>  <m_primary>  (47) 
energy

$$$$
47:0
     RDKit          3D

 26 27  0  0  0  0  0  0  0  0999 V2000
   -0.4210   22.3330  -29.8510 N   0  0  0  0  0  0  0  0  0  0  0  0
   -0.6630   21.2570  -28.9340 C   0  0  0  0  0  0  0  0  0  0  0  0
   -0.4820   19.9350  -29.3700 C   0  0  0  0  0  0  0  0  0  0  0  0
   -0.6780   18.8660  -28.4920 C   0  0  0  0  0  0  0  0  0  0  0  0
   -1.0510   19.1070  -27.1690 C   0  0  0  0  0  0  0  0  0  0  0  0
   -1.2380   20.4170  -26.7240 C   0  0  0  0  0  0  0  0  0  0  0  0
   -1.0610   21.4980  -27.5990 C   0  0  0  0  0  0  0  0  0  0  0  0
   -1.3490   23.1660  -26.9830 S   0  0  0  0  0  0  0  0  0  0  0  0
   -2.7480   23.4480  -28.0800 C   0  0  0  0  0  0  0  0  0  0  0  0
   -3.8800   22.6300  -27.9550 C   0  0  0  0  0  0  0  0  0  0  0  0
   -4.9930   22.8380  -28.7720 C   0  0  0  0  0  0  0  0  0  0  0  0
   -4.9820   23.8580  -29.7250 C   0  0  0  0  0  0  0  0  0  0  0  0
   -3.8520   24.6680  -29.8710 C   0  0  0  0  0  0  0  0  0  0  0  0
   -3.8470   25.6730  -30.8300 O   0  0  0  0  0  0  0  0  0  0  0  0
   -2.7260   24.4650  -29.0600 C   0  0  0  0  0  0  0  0  0  0  0  0
   -1.6060   25.2750  -29.2550 O   0  0  0  0  0  0  0  0  0  0  0  0
    0.1160   22.1670  -30.7300 H   0  0  0  0  0  0  0  0  0  0  0  0
   -0.7330   23.3080  -29.6550 H   0  0  0  0  0  0  0  0  0  0  0  0
   -0.1837   19.7393  -30.4105 H   0  0  0  0  0  0  0  0  0  0  0  0
   -0.5381   17.8333  -28.8440 H   0  0  0  0  0  0  0  0  0  0  0  0
   -1.1977   18.2648  -26.4768 H   0  0  0  0  0  0  0  0  0  0  0  0
   -1.5264   20.6024  -25.6788 H   0  0  0  0  0  0  0  0  0  0  0  0
   -3.8912   21.8208  -27.2100 H   0  0  0  0  0  0  0  0  0  0  0  0
   -5.8803   22.1968  -28.6645 H   0  0  0  0  0  0  0  0  0  0  0  0
   -5.8634   24.0246  -30.3617 H   0  0  0  0  0  0  0  0  0  0  0  0
   -1.6140   26.0930  -29.8500 H   0  0  0  0  0  0  0  0  0  0  0  0
  1  2  1  0
  2  3  2  0
  3  4  1  0
  4  5  2  0
  5  6  1  0
  6  7  2  0
  7  8  1  0
  8  9  1  0
  9 10  2  0
 10 11  1  0
 11 12  2  0
 12 13  1  0
 13 14  1  0
 13 15  2  0
 15 16  1  0
  7  2  1  0
 15  9  1  0
  1 17  1  0
  1 18  1  0
  3 19  1  0
  4 20  1  0
  5 21  1  0
  6 22  1  0
 10 23  1  0
 11 24  1  0
 12 25  1  0
 16 26  1  0
M  CHG  1  14  -1
M  END
>  <UniqueID>  (48) 
46

>  <SMILES>  (48) 
Nc1ccccc1Sc1cccc([O-])c1O

>  <Energy>  (48) 
24.21836711854117

>  <Genealogy>  (48) 
Nc1ccccc1Sc1cccc([O-])c1O (protonated)
Nc1ccccc1Sc1cccc([O-])c1O (3D coordinates assigned)
Nc1ccccc1Sc1cccc([O-])c1O (optimized conformer: 24.21836711854117 kcal/mol)

>  <smiles>  (48) 
Nc1ccccc1Sc1cccc(O)c1O

>  <score_type>  (48) 
oracle

>  <origin>  (48) 
adgpu

>  <m_score__min__energy>  (48) 
-10.359999999999999

>  <m_primary>  (48) 
energy

$$$$
48:0
     RDKit          3D

 49 52  0  0  0  0  0  0  0  0999 V2000
   -7.5880   16.8990  -32.5470 O   0  0  0  0  0  0  0  0  0  0  0  0
   -7.5200   18.0230  -31.9830 C   0  0  0  0  0  0  0  0  0  0  0  0
   -8.7720   18.6350  -31.4160 C   0  0  0  0  0  0  0  0  0  0  0  0
   -9.3430   20.0920  -32.3750 S   0  0  0  0  0  0  0  0  0  0  0  0
   -7.7610   20.9330  -32.4130 C   0  0  0  0  0  0  0  0  0  0  0  0
   -6.8730   20.8050  -33.4150 N   0  0  0  0  0  0  0  0  0  0  0  0
   -5.8070   21.4970  -33.0520 N   0  0  0  0  0  0  0  0  0  0  0  0
   -6.0850   22.0180  -31.8400 C   0  0  0  0  0  0  0  0  0  0  0  0
   -5.1260   22.7900  -31.0300 C   0  0  0  0  0  0  0  0  0  0  0  0
   -5.5620   23.8820  -30.2630 C   0  0  0  0  0  0  0  0  0  0  0  0
   -4.6390   24.6950  -29.6020 C   0  0  0  0  0  0  0  0  0  0  0  0
   -3.2620   24.4260  -29.6950 C   0  0  0  0  0  0  0  0  0  0  0  0
   -2.2810   25.2790  -29.0920 N   0  0  0  0  0  0  0  0  0  0  0  0
   -1.1400   24.7640  -27.8900 S   0  0  0  0  0  0  0  0  0  0  0  0
    0.2080   24.5950  -28.5280 O   0  0  0  0  0  0  0  0  0  0  0  0
   -1.5840   23.4460  -27.3210 O   0  0  0  0  0  0  0  0  0  0  0  0
   -1.0230   25.9890  -26.6270 C   0  0  0  0  0  0  0  0  0  0  0  0
   -1.3060   25.6450  -25.2980 C   0  0  0  0  0  0  0  0  0  0  0  0
   -1.1990   26.6040  -24.2860 C   0  0  0  0  0  0  0  0  0  0  0  0
   -0.8090   27.9090  -24.5970 C   0  0  0  0  0  0  0  0  0  0  0  0
   -0.5210   28.2560  -25.9200 C   0  0  0  0  0  0  0  0  0  0  0  0
   -0.6300   27.3000  -26.9350 C   0  0  0  0  0  0  0  0  0  0  0  0
   -2.8300   23.3100  -30.4220 C   0  0  0  0  0  0  0  0  0  0  0  0
   -3.7530   22.5030  -31.0940 C   0  0  0  0  0  0  0  0  0  0  0  0
   -7.2940   21.6860  -31.4480 O   0  0  0  0  0  0  0  0  0  0  0  0
   -6.2880   18.7660  -31.9510 N   0  0  0  0  0  0  0  0  0  0  0  0
   -5.1040   18.4210  -32.6910 C   0  0  0  0  0  0  0  0  0  0  0  0
   -5.0730   17.3330  -33.5810 C   0  0  0  0  0  0  0  0  0  0  0  0
   -3.9010   17.0270  -34.2800 C   0  0  0  0  0  0  0  0  0  0  0  0
   -2.7470   17.7960  -34.0920 C   0  0  0  0  0  0  0  0  0  0  0  0
   -1.1500   17.3820  -35.0530 Br  0  0  0  0  0  0  0  0  0  0  0  0
   -2.7630   18.8630  -33.1900 C   0  0  0  0  0  0  0  0  0  0  0  0
   -3.9290   19.1620  -32.4810 C   0  0  0  0  0  0  0  0  0  0  0  0
   -9.5683   17.8761  -31.4207 H   0  0  0  0  0  0  0  0  0  0  0  0
   -8.5430   18.9768  -30.3958 H   0  0  0  0  0  0  0  0  0  0  0  0
   -6.6374   24.0985  -30.1822 H   0  0  0  0  0  0  0  0  0  0  0  0
   -4.9908   25.5499  -29.0058 H   0  0  0  0  0  0  0  0  0  0  0  0
   -1.6130   24.6181  -25.0505 H   0  0  0  0  0  0  0  0  0  0  0  0
   -1.4221   26.3307  -23.2441 H   0  0  0  0  0  0  0  0  0  0  0  0
   -0.7286   28.6635  -23.8006 H   0  0  0  0  0  0  0  0  0  0  0  0
   -0.2083   29.2822  -26.1632 H   0  0  0  0  0  0  0  0  0  0  0  0
   -0.4073   27.5764  -27.9761 H   0  0  0  0  0  0  0  0  0  0  0  0
   -1.7581   23.0668  -30.4647 H   0  0  0  0  0  0  0  0  0  0  0  0
   -3.4016   21.6383  -31.6761 H   0  0  0  0  0  0  0  0  0  0  0  0
   -6.3170   19.7190  -31.5210 H   0  0  0  0  0  0  0  0  0  0  0  0
   -5.9744   16.7199  -33.7281 H   0  0  0  0  0  0  0  0  0  0  0  0
   -3.8862   16.1787  -34.9802 H   0  0  0  0  0  0  0  0  0  0  0  0
   -1.8569   19.4679  -33.0381 H   0  0  0  0  0  0  0  0  0  0  0  0
   -3.9271   19.9853  -31.7515 H   0  0  0  0  0  0  0  0  0  0  0  0
  1  2  2  0
  2  3  1  0
  3  4  1  0
  4  5  1  0
  5  6  2  0
  6  7  1  0
  7  8  2  0
  8  9  1  0
  9 10  2  0
 10 11  1  0
 11 12  2  0
 12 13  1  0
 13 14  1  0
 14 15  2  0
 14 16  2  0
 14 17  1  0
 17 18  2  0
 18 19  1  0
 19 20  2  0
 20 21  1  0
 21 22  2  0
 12 23  1  0
 23 24  2  0
  8 25  1  0
  2 26  1  0
 26 27  1  0
 27 28  2  0
 28 29  1  0
 29 30  2  0
 30 31  1  0
 30 32  1  0
 32 33  2  0
 25  5  1  0
 33 27  1  0
 24  9  1  0
 22 17  1  0
  3 34  1  0
  3 35  1  0
 10 36  1  0
 11 37  1  0
 18 38  1  0
 19 39  1  0
 20 40  1  0
 21 41  1  0
 22 42  1  0
 23 43  1  0
 24 44  1  0
 26 45  1  0
 28 46  1  0
 29 47  1  0
 32 48  1  0
 33 49  1  0
M  CHG  1  13  -1
M  END
>  <UniqueID>  (49) 
47

>  <SMILES>  (49) 
O=C(CSc1nnc(-c2ccc([N-]S(=O)(=O)c3ccccc3)cc2)o1)Nc1ccc(Br)cc1

>  <Energy>  (49) 
88.44205811841559

>  <Genealogy>  (49) 
O=C(CSc1nnc(-c2ccc([N-]S(=O)(=O)c3ccccc3)cc2)o1)Nc1ccc(Br)cc1 (protonated)
O=C(CSc1nnc(-c2ccc([N-]S(=O)(=O)c3ccccc3)cc2)o1)Nc1ccc(Br)cc1 (3D coordinates assigned)
O=C(CSc1nnc(-c2ccc([N-]S(=O)(=O)c3ccccc3)cc2)o1)Nc1ccc(Br)cc1 (optimized conformer: 88.44205811841559 kcal/mol)

>  <smiles>  (49) 
O=C(CSc1nnc(-c2ccc(NS(=O)(=O)c3ccccc3)cc2)o1)Nc1ccc(Br)cc1

>  <score_type>  (49) 
oracle

>  <origin>  (49) 
adgpu

>  <m_score__min__energy>  (49) 
-12.25

>  <m_primary>  (49) 
energy

$$$$
