0:0
     RDKit          3D

 26 27  0  0  0  0  0  0  0  0999 V2000
   -6.2939   25.4314  -30.4812 H   0  0  0  0  0  0  0  0  0  0  0  0
   -6.3230   24.3760  -30.7900 C   0  0  0  0  0  0  0  0  0  0  0  0
   -7.5400   23.7890  -31.1490 C   0  0  0  0  0  0  0  0  0  0  0  0
   -8.4625   24.3878  -31.1277 H   0  0  0  0  0  0  0  0  0  0  0  0
   -7.5930   22.4390  -31.5370 C   0  0  0  0  0  0  0  0  0  0  0  0
   -8.9130   21.7930  -31.8750 C   0  0  0  0  0  0  0  0  0  0  0  0
   -9.5000   21.2600  -30.7400 F   0  0  0  0  0  0  0  0  0  0  0  0
   -9.7590   22.7420  -32.4160 F   0  0  0  0  0  0  0  0  0  0  0  0
   -8.7360   20.7700  -32.7910 F   0  0  0  0  0  0  0  0  0  0  0  0
   -6.4140   21.6750  -31.5060 C   0  0  0  0  0  0  0  0  0  0  0  0
   -6.4483   20.6067  -31.7658 H   0  0  0  0  0  0  0  0  0  0  0  0
   -5.1970   22.2640  -31.1470 C   0  0  0  0  0  0  0  0  0  0  0  0
   -4.2814   21.6549  -31.1200 H   0  0  0  0  0  0  0  0  0  0  0  0
   -5.1380   23.6240  -30.8220 C   0  0  0  0  0  0  0  0  0  0  0  0
   -3.8880   24.1890  -30.4000 N   0  0  0  0  0  0  0  0  0  0  0  0
   -3.5010   24.4300  -29.1780 C   0  0  0  0  0  0  0  0  0  0  0  0
   -2.1940   24.8860  -28.9680 C   0  0  0  0  0  0  0  0  0  0  0  0
   -1.5160   25.0316  -29.8219 H   0  0  0  0  0  0  0  0  0  0  0  0
   -1.7550   25.1550  -27.6710 C   0  0  0  0  0  0  0  0  0  0  0  0
   -0.7261   25.5033  -27.4979 H   0  0  0  0  0  0  0  0  0  0  0  0
   -2.6240   24.9810  -26.5960 C   0  0  0  0  0  0  0  0  0  0  0  0
   -2.2855   25.1834  -25.5691 H   0  0  0  0  0  0  0  0  0  0  0  0
   -3.9290   24.5470  -26.8360 C   0  0  0  0  0  0  0  0  0  0  0  0
   -4.6242   24.4127  -25.9942 H   0  0  0  0  0  0  0  0  0  0  0  0
   -4.3460   24.2890  -28.1060 N   0  0  0  0  0  0  0  0  0  0  0  0
   -5.3440   24.0140  -28.2310 H   0  0  0  0  0  0  0  0  0  0  0  0
  1  2  1  0
  2  3  2  0
  3  4  1  0
  3  5  1  0
  5  6  1  0
  6  7  1  0
  6  8  1  0
  6  9  1  0
  5 10  2  0
 10 11  1  0
 10 12  1  0
 12 13  1  0
 12 14  2  0
 14 15  1  0
 15 16  2  0
 16 17  1  0
 17 18  1  0
 17 19  2  0
 19 20  1  0
 19 21  1  0
 21 22  1  0
 21 23  2  0
 23 24  1  0
 23 25  1  0
 25 26  1  0
 14  2  1  0
 25 16  1  0
M  END
>  <UniqueID>  (1) 
1

>  <SMILES>  (1) 
FC(F)(F)c1ccc(/N=c2/cccc[nH]2)cc1

>  <Energy>  (1) 
36.37789556847098

>  <Genealogy>  (1) 
FC(F)(F)c1ccc(/N=c2/cccc[nH]2)cc1 (cis-trans isomerization)
FC(F)(F)c1ccc(/N=c2/cccc[nH]2)cc1 (3D coordinates assigned)
FC(F)(F)c1ccc(/N=c2/cccc[nH]2)cc1 (optimized conformer: 36.37789556847098 kcal/mol)

>  <smiles>  (1) 
FC(F)(F)c1ccc(N=c2cccc[nH]2)cc1

>  <score_type>  (1) 
oracle

>  <origin>  (1) 
adgpu

>  <m_score__min__energy>  (1) 
-5.6900000000000004

>  <m_primary>  (1) 
energy

$$$$
1:0
     RDKit          3D

 43 45  0  0  0  0  0  0  0  0999 V2000
   -5.9640   15.6970  -33.7470 C   0  0  0  0  0  0  0  0  0  0  0  0
   -6.1850   17.1660  -33.5380 C   0  0  0  0  0  0  0  0  0  0  0  0
   -5.3700   18.1020  -34.1920 C   0  0  0  0  0  0  0  0  0  0  0  0
   -5.5990   19.4700  -34.0260 C   0  0  0  0  0  0  0  0  0  0  0  0
   -6.6570   19.9210  -33.2300 C   0  0  0  0  0  0  0  0  0  0  0  0
   -6.8560   21.3010  -33.0930 O   0  0  0  0  0  0  0  0  0  0  0  0
   -6.2400   22.1040  -32.1200 C   0  0  0  0  0  0  0  0  0  0  0  0
   -4.9110   21.8800  -31.7150 C   0  0  0  0  0  0  0  0  0  0  0  0
   -4.3210   22.6870  -30.7410 C   0  0  0  0  0  0  0  0  0  0  0  0
   -5.0410   23.7350  -30.1560 C   0  0  0  0  0  0  0  0  0  0  0  0
   -4.4160   24.5390  -29.1400 N   0  0  0  0  0  0  0  0  0  0  0  0
   -3.7000   23.9930  -28.0190 C   0  0  0  0  0  0  0  0  0  0  0  0
   -3.9270   22.8080  -27.6520 O   0  0  0  0  0  0  0  0  0  0  0  0
   -2.7340   24.8220  -27.2570 C   0  0  0  0  0  0  0  0  0  0  0  0
   -3.0420   25.2930  -25.9670 C   0  0  0  0  0  0  0  0  0  0  0  0
   -2.1260   26.0790  -25.2630 C   0  0  0  0  0  0  0  0  0  0  0  0
   -0.8960   26.4090  -25.8380 C   0  0  0  0  0  0  0  0  0  0  0  0
   -0.5810   25.9550  -27.1200 C   0  0  0  0  0  0  0  0  0  0  0  0
    0.6110   26.2780  -27.6790 F   0  0  0  0  0  0  0  0  0  0  0  0
   -1.4950   25.1690  -27.8300 C   0  0  0  0  0  0  0  0  0  0  0  0
   -6.3790   23.9420  -30.5320 C   0  0  0  0  0  0  0  0  0  0  0  0
   -6.9800   23.1370  -31.5150 C   0  0  0  0  0  0  0  0  0  0  0  0
   -8.4110   23.3700  -31.9110 C   0  0  0  0  0  0  0  0  0  0  0  0
   -7.4740   18.9850  -32.5630 C   0  0  0  0  0  0  0  0  0  0  0  0
   -8.7480   19.4970  -31.4650 Cl  0  0  0  0  0  0  0  0  0  0  0  0
   -7.2420   17.6150  -32.7330 C   0  0  0  0  0  0  0  0  0  0  0  0
   -5.8885   15.1951  -32.7711 H   0  0  0  0  0  0  0  0  0  0  0  0
   -6.8089   15.2758  -34.3116 H   0  0  0  0  0  0  0  0  0  0  0  0
   -5.0326   15.5430  -34.3116 H   0  0  0  0  0  0  0  0  0  0  0  0
   -4.5484   17.7578  -34.8373 H   0  0  0  0  0  0  0  0  0  0  0  0
   -4.9424   20.1979  -34.5250 H   0  0  0  0  0  0  0  0  0  0  0  0
   -4.3325   21.0623  -32.1697 H   0  0  0  0  0  0  0  0  0  0  0  0
   -3.2827   22.4980  -30.4309 H   0  0  0  0  0  0  0  0  0  0  0  0
   -4.5930   25.5690  -29.1550 H   0  0  0  0  0  0  0  0  0  0  0  0
   -4.0102   25.0407  -25.5100 H   0  0  0  0  0  0  0  0  0  0  0  0
   -2.3738   26.4389  -24.2535 H   0  0  0  0  0  0  0  0  0  0  0  0
   -0.1761   27.0263  -25.2807 H   0  0  0  0  0  0  0  0  0  0  0  0
   -1.2443   24.8197  -28.8425 H   0  0  0  0  0  0  0  0  0  0  0  0
   -6.9619   24.7420  -30.0522 H   0  0  0  0  0  0  0  0  0  0  0  0
   -9.0298   23.4708  -31.0072 H   0  0  0  0  0  0  0  0  0  0  0  0
   -8.4809   24.2914  -32.5078 H   0  0  0  0  0  0  0  0  0  0  0  0
   -8.7696   22.5184  -32.5078 H   0  0  0  0  0  0  0  0  0  0  0  0
   -7.8939   16.8848  -32.2312 H   0  0  0  0  0  0  0  0  0  0  0  0
  1  2  1  0
  2  3  2  0
  3  4  1  0
  4  5  2  0
  5  6  1  0
  6  7  1  0
  7  8  2  0
  8  9  1  0
  9 10  2  0
 10 11  1  0
 11 12  1  0
 12 13  2  0
 12 14  1  0
 14 15  2  0
 15 16  1  0
 16 17  2  0
 17 18  1  0
 18 19  1  0
 18 20  2  0
 10 21  1  0
 21 22  2  0
 22 23  1  0
  5 24  1  0
 24 25  1  0
 24 26  2  0
 26  2  1  0
 22  7  1  0
 20 14  1  0
  1 27  1  0
  1 28  1  0
  1 29  1  0
  3 30  1  0
  4 31  1  0
  8 32  1  0
  9 33  1  0
 11 34  1  0
 15 35  1  0
 16 36  1  0
 17 37  1  0
 20 38  1  0
 21 39  1  0
 23 40  1  0
 23 41  1  0
 23 42  1  0
 26 43  1  0
M  END
>  <UniqueID>  (2) 
2

>  <SMILES>  (2) 
Cc1ccc(Oc2ccc(NC(=O)c3cccc(F)c3)cc2C)c(Cl)c1

>  <Energy>  (2) 
58.65840524400372

>  <Genealogy>  (2) 
Cc1ccc(Oc2ccc(NC(=O)c3cccc(F)c3)cc2C)c(Cl)c1 (3D coordinates assigned)
Cc1ccc(Oc2ccc(NC(=O)c3cccc(F)c3)cc2C)c(Cl)c1 (optimized conformer: 58.65840524400372 kcal/mol)

>  <smiles>  (2) 
Cc1ccc(Oc2ccc(NC(=O)c3cccc(F)c3)cc2C)c(Cl)c1

>  <score_type>  (2) 
oracle

>  <origin>  (2) 
adgpu

>  <m_score__min__energy>  (2) 
-9.1999999999999993

>  <m_primary>  (2) 
energy

$$$$
2:0
     RDKit          3D

 26 28  0  0  0  0  0  0  0  0999 V2000
    1.6340   22.3524  -36.5210 H   0  0  0  0  0  0  0  0  0  0  0  0
    1.0120   21.7310  -35.8600 C   0  0  0  0  0  0  0  0  0  0  0  0
    0.6410   20.4670  -36.1500 N   0  0  0  0  0  0  0  0  0  0  0  0
   -0.0960   20.0980  -35.0850 C   0  0  0  0  0  0  0  0  0  0  0  0
   -0.5805   19.1197  -34.9499 H   0  0  0  0  0  0  0  0  0  0  0  0
   -0.1440   21.1490  -34.1900 C   0  0  0  0  0  0  0  0  0  0  0  0
   -0.8380   21.2030  -32.8830 C   0  0  0  0  0  0  0  0  0  0  0  0
   -0.2120   20.7590  -31.7040 C   0  0  0  0  0  0  0  0  0  0  0  0
    0.8064   20.3454  -31.7472 H   0  0  0  0  0  0  0  0  0  0  0  0
   -0.8780   20.8410  -30.4780 C   0  0  0  0  0  0  0  0  0  0  0  0
   -0.3787   20.5003  -29.5590 H   0  0  0  0  0  0  0  0  0  0  0  0
   -2.1750   21.3540  -30.4160 C   0  0  0  0  0  0  0  0  0  0  0  0
   -2.6866   21.4308  -29.4453 H   0  0  0  0  0  0  0  0  0  0  0  0
   -2.8280   21.7710  -31.5810 C   0  0  0  0  0  0  0  0  0  0  0  0
   -4.1540   22.3160  -31.4660 N   0  0  0  0  0  0  0  0  0  0  0  0
   -4.4680   23.5090  -31.0530 C   0  0  0  0  0  0  0  0  0  0  0  0
   -3.5830   24.4790  -30.7450 N   0  0  0  0  0  0  0  0  0  0  0  0
   -4.2860   25.5510  -30.4150 N   0  0  0  0  0  0  0  0  0  0  0  0
   -3.8640   26.4620  -30.1280 H   0  0  0  0  0  0  0  0  0  0  0  0
   -5.6030   25.2870  -30.5160 C   0  0  0  0  0  0  0  0  0  0  0  0
   -6.4186   25.9942  -30.3046 H   0  0  0  0  0  0  0  0  0  0  0  0
   -5.7560   23.9810  -30.9290 C   0  0  0  0  0  0  0  0  0  0  0  0
   -7.3910   23.0540  -31.2640 Br  0  0  0  0  0  0  0  0  0  0  0  0
   -2.1450   21.7180  -32.8110 C   0  0  0  0  0  0  0  0  0  0  0  0
   -2.6380   22.0827  -33.7242 H   0  0  0  0  0  0  0  0  0  0  0  0
    0.5480   22.1370  -34.7010 O   0  0  0  0  0  0  0  0  0  0  0  0
  1  2  1  0
  2  3  2  0
  3  4  1  0
  4  5  1  0
  4  6  2  0
  6  7  1  0
  7  8  2  0
  8  9  1  0
  8 10  1  0
 10 11  1  0
 10 12  2  0
 12 13  1  0
 12 14  1  0
 14 15  1  0
 15 16  2  0
 16 17  1  0
 17 18  1  0
 18 19  1  0
 18 20  1  0
 20 21  1  0
 20 22  2  0
 22 23  1  0
 14 24  2  0
 24 25  1  0
  6 26  1  0
 26  2  1  0
 24  7  1  0
 22 16  1  0
M  CHG  1  17  -1
M  END
>  <UniqueID>  (3) 
3

>  <SMILES>  (3) 
Brc1c[nH][n-]/c1=N\c1cccc(-c2cnco2)c1

>  <Energy>  (3) 
95.7603991193468

>  <Genealogy>  (3) 
Brc1c[nH][n-]c1=Nc1cccc(-c2cnco2)c1 (protonated)
Brc1c[nH][n-]/c1=N\c1cccc(-c2cnco2)c1 (cis-trans isomerization)
Brc1c[nH][n-]/c1=N\c1cccc(-c2cnco2)c1 (3D coordinates assigned)
Brc1c[nH][n-]/c1=N\c1cccc(-c2cnco2)c1 (optimized conformer: 95.7603991193468 kcal/mol)

>  <smiles>  (3) 
Brc1c[nH][nH]c1=Nc1cccc(-c2cnco2)c1

>  <score_type>  (3) 
oracle

>  <origin>  (3) 
adgpu

>  <m_score__min__energy>  (3) 
-8.2100000000000009

>  <m_primary>  (3) 
energy

$$$$
3:0
     RDKit          3D

 28 29  0  0  0  0  0  0  0  0999 V2000
   -4.2250   16.2900  -34.9560 C   0  0  0  0  0  0  0  0  0  0  0  0
   -5.2520   17.1520  -34.2830 C   0  0  0  0  0  0  0  0  0  0  0  0
   -6.0930   16.6120  -33.2980 C   0  0  0  0  0  0  0  0  0  0  0  0
   -7.0240   17.4240  -32.6430 C   0  0  0  0  0  0  0  0  0  0  0  0
   -7.1200   18.7860  -32.9630 C   0  0  0  0  0  0  0  0  0  0  0  0
   -8.2730   19.8120  -32.1200 S   0  0  0  0  0  0  0  0  0  0  0  0
   -9.4550   20.0900  -33.0070 O   0  0  0  0  0  0  0  0  0  0  0  0
   -8.7720   19.1160  -30.8840 O   0  0  0  0  0  0  0  0  0  0  0  0
   -7.4840   21.3220  -31.6810 C   0  0  0  0  0  0  0  0  0  0  0  0
   -6.1140   21.3400  -31.3860 C   0  0  0  0  0  0  0  0  0  0  0  0
   -5.4920   22.5370  -31.0160 C   0  0  0  0  0  0  0  0  0  0  0  0
   -6.2360   23.7190  -30.9340 C   0  0  0  0  0  0  0  0  0  0  0  0
   -5.4550   25.2180  -30.4690 Cl  0  0  0  0  0  0  0  0  0  0  0  0
   -7.6060   23.7010  -31.2190 C   0  0  0  0  0  0  0  0  0  0  0  0
   -8.2290   22.5060  -31.5890 C   0  0  0  0  0  0  0  0  0  0  0  0
   -6.2630   19.3320  -33.9270 C   0  0  0  0  0  0  0  0  0  0  0  0
   -5.3310   18.5210  -34.5810 C   0  0  0  0  0  0  0  0  0  0  0  0
   -3.6176   15.7802  -34.1936 H   0  0  0  0  0  0  0  0  0  0  0  0
   -4.7296   15.5409  -35.5839 H   0  0  0  0  0  0  0  0  0  0  0  0
   -3.5748   16.9168  -35.5839 H   0  0  0  0  0  0  0  0  0  0  0  0
   -6.0195   15.5452  -33.0400 H   0  0  0  0  0  0  0  0  0  0  0  0
   -7.6829   16.9933  -31.8746 H   0  0  0  0  0  0  0  0  0  0  0  0
   -5.5271   20.4116  -31.4455 H   0  0  0  0  0  0  0  0  0  0  0  0
   -4.4157   22.5490  -30.7891 H   0  0  0  0  0  0  0  0  0  0  0  0
   -8.1933   24.6287  -31.1517 H   0  0  0  0  0  0  0  0  0  0  0  0
   -9.3068   22.4944  -31.8086 H   0  0  0  0  0  0  0  0  0  0  0  0
   -6.3236   20.4030  -34.1703 H   0  0  0  0  0  0  0  0  0  0  0  0
   -4.6567   18.9578  -35.3324 H   0  0  0  0  0  0  0  0  0  0  0  0
  1  2  1  0
  2  3  2  0
  3  4  1  0
  4  5  2  0
  5  6  1  0
  6  7  2  0
  6  8  2  0
  6  9  1  0
  9 10  2  0
 10 11  1  0
 11 12  2  0
 12 13  1  0
 12 14  1  0
 14 15  2  0
  5 16  1  0
 16 17  2  0
 17  2  1  0
 15  9  1  0
  1 18  1  0
  1 19  1  0
  1 20  1  0
  3 21  1  0
  4 22  1  0
 10 23  1  0
 11 24  1  0
 14 25  1  0
 15 26  1  0
 16 27  1  0
 17 28  1  0
M  END
>  <UniqueID>  (4) 
4

>  <SMILES>  (4) 
Cc1ccc(S(=O)(=O)c2ccc(Cl)cc2)cc1

>  <Energy>  (4) 
29.57994812119099

>  <Genealogy>  (4) 
Cc1ccc(S(=O)(=O)c2ccc(Cl)cc2)cc1 (3D coordinates assigned)
Cc1ccc(S(=O)(=O)c2ccc(Cl)cc2)cc1 (optimized conformer: 29.57994812119099 kcal/mol)

>  <smiles>  (4) 
Cc1ccc(S(=O)(=O)c2ccc(Cl)cc2)cc1

>  <score_type>  (4) 
oracle

>  <origin>  (4) 
adgpu

>  <m_score__min__energy>  (4) 
-7.6900000000000004

>  <m_primary>  (4) 
energy

$$$$
4:0
     RDKit          3D

 45 47  0  0  0  0  0  0  0  0999 V2000
   -0.3810   22.6240  -23.9820 C   0  0  0  0  0  0  0  0  0  0  0  0
   -0.0180   22.5840  -25.3560 O   0  0  0  0  0  0  0  0  0  0  0  0
   -0.7600   23.1630  -26.3990 C   0  0  0  0  0  0  0  0  0  0  0  0
   -1.4290   22.3740  -27.3520 C   0  0  0  0  0  0  0  0  0  0  0  0
   -2.0990   22.9660  -28.4210 C   0  0  0  0  0  0  0  0  0  0  0  0
   -2.1050   24.3580  -28.5710 C   0  0  0  0  0  0  0  0  0  0  0  0
   -2.7540   24.9210  -29.7180 N   0  0  0  0  0  0  0  0  0  0  0  0
   -4.4250   24.6880  -30.1220 S   0  0  0  0  0  0  0  0  0  0  0  0
   -4.9330   25.8950  -30.8450 O   0  0  0  0  0  0  0  0  0  0  0  0
   -5.2110   24.5220  -28.8550 O   0  0  0  0  0  0  0  0  0  0  0  0
   -4.6090   23.2710  -31.1500 C   0  0  0  0  0  0  0  0  0  0  0  0
   -5.8820   22.8630  -31.5790 C   0  0  0  0  0  0  0  0  0  0  0  0
   -6.0230   21.7250  -32.3780 C   0  0  0  0  0  0  0  0  0  0  0  0
   -4.8950   20.9920  -32.7550 C   0  0  0  0  0  0  0  0  0  0  0  0
   -3.6260   21.3940  -32.3310 C   0  0  0  0  0  0  0  0  0  0  0  0
   -3.4820   22.5310  -31.5310 C   0  0  0  0  0  0  0  0  0  0  0  0
   -1.4730   25.1510  -27.6040 C   0  0  0  0  0  0  0  0  0  0  0  0
   -0.8140   24.5680  -26.5080 C   0  0  0  0  0  0  0  0  0  0  0  0
   -0.2280   25.4100  -25.4940 N   0  0  0  0  0  0  0  0  0  0  0  0
   -1.1250   26.1150  -24.5660 C   0  0  0  0  0  0  0  0  0  0  0  0
   -0.3590   27.1420  -23.7280 C   0  0  0  0  0  0  0  0  0  0  0  0
    0.8800   26.5410  -23.2180 N   0  0  0  0  0  0  0  0  0  0  0  0
    1.8280   26.1870  -24.2940 C   0  0  0  0  0  0  0  0  0  0  0  0
    1.1600   25.8730  -25.6510 C   0  0  0  0  0  0  0  0  0  0  0  0
    0.5216   22.5245  -23.3612 H   0  0  0  0  0  0  0  0  0  0  0  0
   -0.8744   23.5819  -23.7608 H   0  0  0  0  0  0  0  0  0  0  0  0
   -1.0711   21.7965  -23.7608 H   0  0  0  0  0  0  0  0  0  0  0  0
   -1.4233   21.2785  -27.2525 H   0  0  0  0  0  0  0  0  0  0  0  0
   -2.6266   22.3354  -29.1518 H   0  0  0  0  0  0  0  0  0  0  0  0
   -6.7709   23.4406  -31.2854 H   0  0  0  0  0  0  0  0  0  0  0  0
   -7.0221   21.4065  -32.7100 H   0  0  0  0  0  0  0  0  0  0  0  0
   -5.0061   20.0979  -33.3860 H   0  0  0  0  0  0  0  0  0  0  0  0
   -2.7389   20.8149  -32.6272 H   0  0  0  0  0  0  0  0  0  0  0  0
   -2.4814   22.8456  -31.1997 H   0  0  0  0  0  0  0  0  0  0  0  0
   -1.4929   26.2462  -27.7042 H   0  0  0  0  0  0  0  0  0  0  0  0
   -1.9041   26.6332  -25.1443 H   0  0  0  0  0  0  0  0  0  0  0  0
   -1.5735   25.3757  -23.8861 H   0  0  0  0  0  0  0  0  0  0  0  0
   -0.1124   28.0129  -24.3531 H   0  0  0  0  0  0  0  0  0  0  0  0
   -0.9847   27.4599  -22.8810 H   0  0  0  0  0  0  0  0  0  0  0  0
    0.6460   25.6840  -22.6630 H   0  0  0  0  0  0  0  0  0  0  0  0
    1.3390   27.2230  -22.5700 H   0  0  0  0  0  0  0  0  0  0  0  0
    2.5182   27.0315  -24.4369 H   0  0  0  0  0  0  0  0  0  0  0  0
    2.3391   25.2671  -23.9738 H   0  0  0  0  0  0  0  0  0  0  0  0
    1.1617   26.7850  -26.2660 H   0  0  0  0  0  0  0  0  0  0  0  0
    1.7329   25.0655  -26.1303 H   0  0  0  0  0  0  0  0  0  0  0  0
  1  2  1  0
  2  3  1  0
  3  4  2  0
  4  5  1  0
  5  6  2  0
  6  7  1  0
  7  8  1  0
  8  9  2  0
  8 10  2  0
  8 11  1  0
 11 12  2  0
 12 13  1  0
 13 14  2  0
 14 15  1  0
 15 16  2  0
  6 17  1  0
 17 18  2  0
 18 19  1  0
 19 20  1  0
 20 21  1  0
 21 22  1  0
 22 23  1  0
 23 24  1  0
 18  3  1  0
 24 19  1  0
 16 11  1  0
  1 25  1  0
  1 26  1  0
  1 27  1  0
  4 28  1  0
  5 29  1  0
 12 30  1  0
 13 31  1  0
 14 32  1  0
 15 33  1  0
 16 34  1  0
 17 35  1  0
 20 36  1  0
 20 37  1  0
 21 38  1  0
 21 39  1  0
 22 40  1  0
 22 41  1  0
 23 42  1  0
 23 43  1  0
 24 44  1  0
 24 45  1  0
M  CHG  2   7  -1  22   1
M  END
>  <UniqueID>  (5) 
5

>  <SMILES>  (5) 
COc1ccc([N-]S(=O)(=O)c2ccccc2)cc1N1CC[NH2+]CC1

>  <Energy>  (5) 
58.052908181988826

>  <Genealogy>  (5) 
COc1ccc([N-]S(=O)(=O)c2ccccc2)cc1N1CC[NH2+]CC1 (protonated)
COc1ccc([N-]S(=O)(=O)c2ccccc2)cc1N1CC[NH2+]CC1 (3D coordinates assigned)
COc1ccc([N-]S(=O)(=O)c2ccccc2)cc1N1CC[NH2+]CC1 (nonaromatic ring conformer: 58.052908181988826 kcal/mol)

>  <smiles>  (5) 
COc1ccc(NS(=O)(=O)c2ccccc2)cc1N1CCNCC1

>  <score_type>  (5) 
oracle

>  <origin>  (5) 
adgpu

>  <m_score__min__energy>  (5) 
-9.9199999999999999

>  <m_primary>  (5) 
energy

$$$$
5:0
     RDKit          3D

 28 29  0  0  0  0  0  0  0  0999 V2000
   -6.1830   25.8520  -29.3440 C   0  0  0  0  0  0  0  0  0  0  0  0
   -6.6680   24.7290  -30.1360 N   0  0  0  0  0  0  0  0  0  0  0  0
   -5.7910   23.9640  -30.9730 C   0  0  0  0  0  0  0  0  0  0  0  0
   -4.6210   24.3790  -31.1970 O   0  0  0  0  0  0  0  0  0  0  0  0
   -6.2420   22.7210  -31.6250 C   0  0  0  0  0  0  0  0  0  0  0  0
   -5.2470   21.3920  -31.8970 S   0  0  0  0  0  0  0  0  0  0  0  0
   -6.4560   20.4620  -32.6120 C   0  0  0  0  0  0  0  0  0  0  0  0
   -6.3150   19.0810  -33.1470 C   0  0  0  0  0  0  0  0  0  0  0  0
   -5.4410   18.8490  -34.2270 C   0  0  0  0  0  0  0  0  0  0  0  0
   -5.2830   17.5650  -34.7540 C   0  0  0  0  0  0  0  0  0  0  0  0
   -5.9930   16.4930  -34.2130 C   0  0  0  0  0  0  0  0  0  0  0  0
   -6.8630   16.7040  -33.1420 C   0  0  0  0  0  0  0  0  0  0  0  0
   -7.0270   17.9860  -32.6060 C   0  0  0  0  0  0  0  0  0  0  0  0
   -7.8830   18.1390  -31.5640 F   0  0  0  0  0  0  0  0  0  0  0  0
   -7.6250   21.1460  -32.6310 N   0  0  0  0  0  0  0  0  0  0  0  0
   -7.5240   22.3870  -32.0800 C   0  0  0  0  0  0  0  0  0  0  0  0
   -8.7290   23.2680  -31.9720 C   0  0  0  0  0  0  0  0  0  0  0  0
   -6.2844   25.6171  -28.2742 H   0  0  0  0  0  0  0  0  0  0  0  0
   -5.1247   26.0372  -29.5800 H   0  0  0  0  0  0  0  0  0  0  0  0
   -6.7738   26.7494  -29.5800 H   0  0  0  0  0  0  0  0  0  0  0  0
   -7.6900   24.5230  -30.1280 H   0  0  0  0  0  0  0  0  0  0  0  0
   -4.8767   19.6881  -34.6601 H   0  0  0  0  0  0  0  0  0  0  0  0
   -4.5970   17.3988  -35.5977 H   0  0  0  0  0  0  0  0  0  0  0  0
   -5.8674   15.4828  -34.6298 H   0  0  0  0  0  0  0  0  0  0  0  0
   -7.4227   15.8578  -32.7171 H   0  0  0  0  0  0  0  0  0  0  0  0
   -8.9638   23.4397  -30.9112 H   0  0  0  0  0  0  0  0  0  0  0  0
   -8.5243   24.2310  -32.4627 H   0  0  0  0  0  0  0  0  0  0  0  0
   -9.5845   22.7809  -32.4627 H   0  0  0  0  0  0  0  0  0  0  0  0
  1  2  1  0
  2  3  1  0
  3  4  2  0
  3  5  1  0
  5  6  1  0
  6  7  1  0
  7  8  1  0
  8  9  2  0
  9 10  1  0
 10 11  2  0
 11 12  1  0
 12 13  2  0
 13 14  1  0
  7 15  2  0
 15 16  1  0
 16 17  1  0
 16  5  2  0
 13  8  1  0
  1 18  1  0
  1 19  1  0
  1 20  1  0
  2 21  1  0
  9 22  1  0
 10 23  1  0
 11 24  1  0
 12 25  1  0
 17 26  1  0
 17 27  1  0
 17 28  1  0
M  END
>  <UniqueID>  (6) 
6

>  <SMILES>  (6) 
CNC(=O)c1sc(-c2ccccc2F)nc1C

>  <Energy>  (6) 
59.882034348178564

>  <Genealogy>  (6) 
CNC(=O)c1sc(-c2ccccc2F)nc1C (3D coordinates assigned)
CNC(=O)c1sc(-c2ccccc2F)nc1C (optimized conformer: 59.882034348178564 kcal/mol)

>  <smiles>  (6) 
CNC(=O)c1sc(-c2ccccc2F)nc1C

>  <score_type>  (6) 
oracle

>  <origin>  (6) 
adgpu

>  <m_score__min__energy>  (6) 
-6.8499999999999996

>  <m_primary>  (6) 
energy

$$$$
6:0
     RDKit          3D

 35 36  0  0  0  0  0  0  0  0999 V2000
   -6.8980   20.3460  -33.4180 C   0  0  0  0  0  0  0  0  0  0  0  0
   -7.4000   21.2650  -32.3870 N   0  0  0  0  0  0  0  0  0  0  0  0
   -8.8220   21.2150  -32.0260 C   0  0  0  0  0  0  0  0  0  0  0  0
   -6.5040   22.2060  -31.7390 C   0  0  0  0  0  0  0  0  0  0  0  0
   -7.0090   23.3180  -31.0350 C   0  0  0  0  0  0  0  0  0  0  0  0
   -6.1460   24.2250  -30.4130 C   0  0  0  0  0  0  0  0  0  0  0  0
   -4.7550   24.0520  -30.4890 C   0  0  0  0  0  0  0  0  0  0  0  0
   -3.8470   24.9560  -29.8370 N   0  0  0  0  0  0  0  0  0  0  0  0
   -2.6060   24.5550  -29.2360 C   0  0  0  0  0  0  0  0  0  0  0  0
   -2.4290   23.3570  -28.8880 O   0  0  0  0  0  0  0  0  0  0  0  0
   -1.5950   25.5210  -28.9280 N   0  0  0  0  0  0  0  0  0  0  0  0
   -1.2880   26.0300  -27.6230 C   0  0  0  0  0  0  0  0  0  0  0  0
   -0.4650   27.1590  -27.5140 C   0  0  0  0  0  0  0  0  0  0  0  0
   -0.1660   27.6980  -26.2590 C   0  0  0  0  0  0  0  0  0  0  0  0
   -0.7000   27.1200  -25.1040 C   0  0  0  0  0  0  0  0  0  0  0  0
   -0.4110   27.6430  -23.8870 F   0  0  0  0  0  0  0  0  0  0  0  0
   -1.5430   26.0100  -25.2040 C   0  0  0  0  0  0  0  0  0  0  0  0
   -1.8440   25.4690  -26.4590 C   0  0  0  0  0  0  0  0  0  0  0  0
   -4.2460   22.9370  -31.1680 C   0  0  0  0  0  0  0  0  0  0  0  0
   -5.1060   22.0300  -31.7920 C   0  0  0  0  0  0  0  0  0  0  0  0
   -6.4239   19.4782  -32.9362 H   0  0  0  0  0  0  0  0  0  0  0  0
   -7.7354   20.0054  -34.0448 H   0  0  0  0  0  0  0  0  0  0  0  0
   -6.1589   20.8665  -34.0448 H   0  0  0  0  0  0  0  0  0  0  0  0
   -8.9223   21.2115  -30.9306 H   0  0  0  0  0  0  0  0  0  0  0  0
   -9.3362   22.0956  -32.4385 H   0  0  0  0  0  0  0  0  0  0  0  0
   -9.2731   20.3004  -32.4385 H   0  0  0  0  0  0  0  0  0  0  0  0
   -8.0962   23.4741  -30.9743 H   0  0  0  0  0  0  0  0  0  0  0  0
   -6.5601   25.0808  -29.8598 H   0  0  0  0  0  0  0  0  0  0  0  0
   -4.1460   25.9510  -29.7160 H   0  0  0  0  0  0  0  0  0  0  0  0
   -0.0517   27.6239  -28.4212 H   0  0  0  0  0  0  0  0  0  0  0  0
    0.4900   28.5775  -26.1807 H   0  0  0  0  0  0  0  0  0  0  0  0
   -1.9704   25.5610  -24.2953 H   0  0  0  0  0  0  0  0  0  0  0  0
   -2.5173   24.6025  -26.5355 H   0  0  0  0  0  0  0  0  0  0  0  0
   -3.1589   22.7743  -31.2101 H   0  0  0  0  0  0  0  0  0  0  0  0
   -4.6873   21.1677  -32.3315 H   0  0  0  0  0  0  0  0  0  0  0  0
  1  2  1  0
  2  3  1  0
  2  4  1  0
  4  5  2  0
  5  6  1  0
  6  7  2  0
  7  8  1  0
  8  9  1  0
  9 10  2  0
  9 11  1  0
 11 12  1  0
 12 13  2  0
 13 14  1  0
 14 15  2  0
 15 16  1  0
 15 17  1  0
 17 18  2  0
  7 19  1  0
 19 20  2  0
 20  4  1  0
 18 12  1  0
  1 21  1  0
  1 22  1  0
  1 23  1  0
  3 24  1  0
  3 25  1  0
  3 26  1  0
  5 27  1  0
  6 28  1  0
  8 29  1  0
 13 30  1  0
 14 31  1  0
 17 32  1  0
 18 33  1  0
 19 34  1  0
 20 35  1  0
M  CHG  1  11  -1
M  END
>  <UniqueID>  (7) 
7

>  <SMILES>  (7) 
CN(C)c1ccc(NC(=O)[N-]c2ccc(F)cc2)cc1

>  <Energy>  (7) 
43.62714939618678

>  <Genealogy>  (7) 
CN(C)c1ccc(NC(=O)[N-]c2ccc(F)cc2)cc1 (protonated)
CN(C)c1ccc(NC(=O)[N-]c2ccc(F)cc2)cc1 (3D coordinates assigned)
CN(C)c1ccc(NC(=O)[N-]c2ccc(F)cc2)cc1 (optimized conformer: 43.62714939618678 kcal/mol)

>  <smiles>  (7) 
CN(C)c1ccc(NC(=O)Nc2ccc(F)cc2)cc1

>  <score_type>  (7) 
oracle

>  <origin>  (7) 
adgpu

>  <m_score__min__energy>  (7) 
-8.0199999999999996

>  <m_primary>  (7) 
energy

$$$$
7:0
     RDKit          3D

 45 47  0  0  0  0  0  0  0  0999 V2000
   -8.4774   19.0455  -32.8592 H   0  0  0  0  0  0  0  0  0  0  0  0
   -8.0740   20.0210  -32.5500 C   0  0  0  0  0  0  0  0  0  0  0  0
   -8.9160   20.9700  -31.9650 C   0  0  0  0  0  0  0  0  0  0  0  0
   -9.9808   20.7405  -31.8119 H   0  0  0  0  0  0  0  0  0  0  0  0
   -8.4050   22.2120  -31.5740 C   0  0  0  0  0  0  0  0  0  0  0  0
   -9.0676   22.9530  -31.1030 H   0  0  0  0  0  0  0  0  0  0  0  0
   -7.0500   22.5170  -31.7800 C   0  0  0  0  0  0  0  0  0  0  0  0
   -6.4920   23.8340  -31.3270 C   0  0  0  0  0  0  0  0  0  0  0  0
   -6.9123   24.0925  -30.3439 H   0  0  0  0  0  0  0  0  0  0  0  0
   -6.7569   24.6160  -32.0538 H   0  0  0  0  0  0  0  0  0  0  0  0
   -5.0390   23.7330  -31.2250 N   0  0  0  0  0  0  0  0  0  0  0  0
   -4.3250   23.9340  -30.1520 C   0  0  0  0  0  0  0  0  0  0  0  0
   -4.8990   24.2850  -28.9190 C   0  0  0  0  0  0  0  0  0  0  0  0
   -5.9894   24.3992  -28.8292 H   0  0  0  0  0  0  0  0  0  0  0  0
   -4.0790   24.4880  -27.8090 C   0  0  0  0  0  0  0  0  0  0  0  0
   -4.5288   24.7657  -26.8443 H   0  0  0  0  0  0  0  0  0  0  0  0
   -2.7250   24.3460  -27.9060 N   0  0  0  0  0  0  0  0  0  0  0  0
   -1.9340   24.5800  -26.7260 C   0  0  0  0  0  0  0  0  0  0  0  0
   -1.8500   25.8830  -26.2170 C   0  0  0  0  0  0  0  0  0  0  0  0
   -2.3706   26.7048  -26.7304 H   0  0  0  0  0  0  0  0  0  0  0  0
   -1.1120   26.1440  -25.0660 C   0  0  0  0  0  0  0  0  0  0  0  0
   -1.0409   27.1720  -24.6812 H   0  0  0  0  0  0  0  0  0  0  0  0
   -0.4630   25.1060  -24.4000 C   0  0  0  0  0  0  0  0  0  0  0  0
    0.1171   25.3214  -23.4905 H   0  0  0  0  0  0  0  0  0  0  0  0
   -0.5420   23.7880  -24.8780 C   0  0  0  0  0  0  0  0  0  0  0  0
    0.1670   22.6950  -24.1210 C   0  0  0  0  0  0  0  0  0  0  0  0
    0.0560   22.8661  -23.0401 H   0  0  0  0  0  0  0  0  0  0  0  0
   -0.2722   21.7217  -24.3851 H   0  0  0  0  0  0  0  0  0  0  0  0
    1.2348   22.6992  -24.3851 H   0  0  0  0  0  0  0  0  0  0  0  0
   -1.2580   23.5190  -26.0740 C   0  0  0  0  0  0  0  0  0  0  0  0
   -1.3530   22.1100  -26.6150 C   0  0  0  0  0  0  0  0  0  0  0  0
   -1.4010   21.3982  -25.7777 H   0  0  0  0  0  0  0  0  0  0  0  0
   -2.2597   22.0139  -27.2304 H   0  0  0  0  0  0  0  0  0  0  0  0
   -0.4674   21.8930  -27.2304 H   0  0  0  0  0  0  0  0  0  0  0  0
   -2.1370   23.9970  -29.0980 C   0  0  0  0  0  0  0  0  0  0  0  0
   -0.6420   23.8350  -29.2130 C   0  0  0  0  0  0  0  0  0  0  0  0
   -0.1999   23.7871  -28.2069 H   0  0  0  0  0  0  0  0  0  0  0  0
   -0.4146   22.9070  -29.7580 H   0  0  0  0  0  0  0  0  0  0  0  0
   -0.2211   24.6928  -29.7580 H   0  0  0  0  0  0  0  0  0  0  0  0
   -2.9370   23.7940  -30.2330 C   0  0  0  0  0  0  0  0  0  0  0  0
   -2.4692   23.5234  -31.1911 H   0  0  0  0  0  0  0  0  0  0  0  0
   -6.2060   21.5500  -32.3540 C   0  0  0  0  0  0  0  0  0  0  0  0
   -5.1379   21.7704  -32.4975 H   0  0  0  0  0  0  0  0  0  0  0  0
   -6.7200   20.3090  -32.7430 C   0  0  0  0  0  0  0  0  0  0  0  0
   -6.0583   19.5591  -33.2011 H   0  0  0  0  0  0  0  0  0  0  0  0
  1  2  1  0
  2  3  2  0
  3  4  1  0
  3  5  1  0
  5  6  1  0
  5  7  2  0
  7  8  1  0
  8  9  1  0
  8 10  1  0
  8 11  1  0
 11 12  2  0
 12 13  1  0
 13 14  1  0
 13 15  2  0
 15 16  1  0
 15 17  1  0
 17 18  1  0
 18 19  2  0
 19 20  1  0
 19 21  1  0
 21 22  1  0
 21 23  2  0
 23 24  1  0
 23 25  1  0
 25 26  1  0
 26 27  1  0
 26 28  1  0
 26 29  1  0
 25 30  2  0
 30 31  1  0
 31 32  1  0
 31 33  1  0
 31 34  1  0
 17 35  1  0
 35 36  1  0
 36 37  1  0
 36 38  1  0
 36 39  1  0
 35 40  2  0
 40 41  1  0
  7 42  1  0
 42 43  1  0
 42 44  2  0
 44 45  1  0
 44  2  1  0
 40 12  1  0
 30 18  1  0
M  END
>  <UniqueID>  (8) 
8

>  <SMILES>  (8) 
Cc1cccc(-n2cc/c(=N\Cc3ccccc3)cc2C)c1C

>  <Energy>  (8) 
57.818472012192146

>  <Genealogy>  (8) 
Cc1cccc(-n2cc/c(=N\Cc3ccccc3)cc2C)c1C (cis-trans isomerization)
Cc1cccc(-n2cc/c(=N\Cc3ccccc3)cc2C)c1C (3D coordinates assigned)
Cc1cccc(-n2cc/c(=N\Cc3ccccc3)cc2C)c1C (optimized conformer: 57.818472012192146 kcal/mol)

>  <smiles>  (8) 
Cc1cccc(-n2ccc(=NCc3ccccc3)cc2C)c1C

>  <score_type>  (8) 
oracle

>  <origin>  (8) 
adgpu

>  <m_score__min__energy>  (8) 
-8.3200000000000003

>  <m_primary>  (8) 
energy

$$$$
8:0
     RDKit          3D

 34 35  0  0  0  0  0  0  0  0999 V2000
   -8.6790   20.6540  -31.7020 C   0  0  0  0  0  0  0  0  0  0  0  0
   -8.2020   21.8340  -32.3410 O   0  0  0  0  0  0  0  0  0  0  0  0
   -7.1130   22.5940  -31.8900 C   0  0  0  0  0  0  0  0  0  0  0  0
   -5.7770   22.2110  -32.1190 C   0  0  0  0  0  0  0  0  0  0  0  0
   -4.7270   23.0050  -31.6500 C   0  0  0  0  0  0  0  0  0  0  0  0
   -4.9890   24.1970  -30.9640 C   0  0  0  0  0  0  0  0  0  0  0  0
   -3.8870   24.9700  -30.4700 N   0  0  0  0  0  0  0  0  0  0  0  0
   -2.9450   24.5500  -29.4760 C   0  0  0  0  0  0  0  0  0  0  0  0
   -3.1790   23.5000  -28.8210 O   0  0  0  0  0  0  0  0  0  0  0  0
   -1.7200   25.2710  -29.2670 N   0  0  0  0  0  0  0  0  0  0  0  0
   -0.7780   24.9230  -28.2070 C   0  0  0  0  0  0  0  0  0  0  0  0
   -0.8940   25.8950  -27.0650 C   0  0  0  0  0  0  0  0  0  0  0  0
   -0.3980   27.2020  -27.2020 C   0  0  0  0  0  0  0  0  0  0  0  0
   -0.4860   28.1050  -26.1390 C   0  0  0  0  0  0  0  0  0  0  0  0
   -1.0690   27.7090  -24.9310 C   0  0  0  0  0  0  0  0  0  0  0  0
   -1.5610   26.4100  -24.7850 C   0  0  0  0  0  0  0  0  0  0  0  0
   -1.4740   25.5030  -25.8470 C   0  0  0  0  0  0  0  0  0  0  0  0
   -6.3200   24.5650  -30.7120 C   0  0  0  0  0  0  0  0  0  0  0  0
   -7.3720   23.7720  -31.1810 C   0  0  0  0  0  0  0  0  0  0  0  0
   -8.6274   20.7816  -30.6106 H   0  0  0  0  0  0  0  0  0  0  0  0
   -9.7217   20.4711  -32.0009 H   0  0  0  0  0  0  0  0  0  0  0  0
   -8.0563   19.7979  -32.0009 H   0  0  0  0  0  0  0  0  0  0  0  0
   -5.5594   21.2836  -32.6690 H   0  0  0  0  0  0  0  0  0  0  0  0
   -3.6867   22.6911  -31.8211 H   0  0  0  0  0  0  0  0  0  0  0  0
   -1.4610   26.0430  -29.9210 H   0  0  0  0  0  0  0  0  0  0  0  0
   -0.9991   23.9085  -27.8438 H   0  0  0  0  0  0  0  0  0  0  0  0
    0.2448   24.9648  -28.6096 H   0  0  0  0  0  0  0  0  0  0  0  0
    0.0619   27.5163  -28.1505 H   0  0  0  0  0  0  0  0  0  0  0  0
   -0.0966   29.1275  -26.2525 H   0  0  0  0  0  0  0  0  0  0  0  0
   -1.1401   28.4209  -24.0955 H   0  0  0  0  0  0  0  0  0  0  0  0
   -2.0176   26.0994  -23.8336 H   0  0  0  0  0  0  0  0  0  0  0  0
   -1.8608   24.4802  -25.7278 H   0  0  0  0  0  0  0  0  0  0  0  0
   -6.5364   25.4812  -30.1431 H   0  0  0  0  0  0  0  0  0  0  0  0
   -8.4117   24.0769  -30.9909 H   0  0  0  0  0  0  0  0  0  0  0  0
  1  2  1  0
  2  3  1  0
  3  4  2  0
  4  5  1  0
  5  6  2  0
  6  7  1  0
  7  8  1  0
  8  9  2  0
  8 10  1  0
 10 11  1  0
 11 12  1  0
 12 13  2  0
 13 14  1  0
 14 15  2  0
 15 16  1  0
 16 17  2  0
  6 18  1  0
 18 19  2  0
 19  3  1  0
 17 12  1  0
  1 20  1  0
  1 21  1  0
  1 22  1  0
  4 23  1  0
  5 24  1  0
 10 25  1  0
 11 26  1  0
 11 27  1  0
 13 28  1  0
 14 29  1  0
 15 30  1  0
 16 31  1  0
 17 32  1  0
 18 33  1  0
 19 34  1  0
M  CHG  1   7  -1
M  END
>  <UniqueID>  (9) 
9

>  <SMILES>  (9) 
COc1ccc([N-]C(=O)NCc2ccccc2)cc1

>  <Energy>  (9) 
35.36531900325026

>  <Genealogy>  (9) 
COc1ccc([N-]C(=O)NCc2ccccc2)cc1 (protonated)
COc1ccc([N-]C(=O)NCc2ccccc2)cc1 (3D coordinates assigned)
COc1ccc([N-]C(=O)NCc2ccccc2)cc1 (optimized conformer: 35.36531900325026 kcal/mol)

>  <smiles>  (9) 
COc1ccc(NC(=O)NCc2ccccc2)cc1

>  <score_type>  (9) 
oracle

>  <origin>  (9) 
adgpu

>  <m_score__min__energy>  (9) 
-8.3000000000000007

>  <m_primary>  (9) 
energy

$$$$
9:0
     RDKit          3D

 36 38  0  0  0  0  0  0  0  0999 V2000
   -8.9510   18.9765  -31.7843 H   0  0  0  0  0  0  0  0  0  0  0  0
   -8.4270   19.9430  -31.8200 C   0  0  0  0  0  0  0  0  0  0  0  0
   -7.1840   20.0420  -32.4500 C   0  0  0  0  0  0  0  0  0  0  0  0
   -6.7253   19.1500  -32.9016 H   0  0  0  0  0  0  0  0  0  0  0  0
   -6.5220   21.2710  -32.5080 C   0  0  0  0  0  0  0  0  0  0  0  0
   -5.5373   21.3406  -32.9934 H   0  0  0  0  0  0  0  0  0  0  0  0
   -7.1110   22.4220  -31.9470 C   0  0  0  0  0  0  0  0  0  0  0  0
   -6.4550   23.7010  -31.9550 N   0  0  0  0  0  0  0  0  0  0  0  0
   -5.4270   24.0490  -31.2390 C   0  0  0  0  0  0  0  0  0  0  0  0
   -4.7530   23.2290  -30.4100 N   0  0  0  0  0  0  0  0  0  0  0  0
   -3.7940   24.0600  -29.9460 C   0  0  0  0  0  0  0  0  0  0  0  0
   -2.7570   23.6530  -28.9720 C   0  0  0  0  0  0  0  0  0  0  0  0
   -2.9900   22.5850  -28.0940 C   0  0  0  0  0  0  0  0  0  0  0  0
   -3.9488   22.0471  -28.1310 H   0  0  0  0  0  0  0  0  0  0  0  0
   -2.0140   22.1990  -27.1730 C   0  0  0  0  0  0  0  0  0  0  0  0
   -2.2089   21.3591  -26.4900 H   0  0  0  0  0  0  0  0  0  0  0  0
   -0.7820   22.8780  -27.1130 C   0  0  0  0  0  0  0  0  0  0  0  0
    0.2220   22.5190  -26.2000 O   0  0  0  0  0  0  0  0  0  0  0  0
    0.2820   22.9650  -24.8490 C   0  0  0  0  0  0  0  0  0  0  0  0
    0.1663   22.1047  -24.1734 H   0  0  0  0  0  0  0  0  0  0  0  0
    1.2532   23.4477  -24.6650 H   0  0  0  0  0  0  0  0  0  0  0  0
   -0.5271   23.6872  -24.6650 H   0  0  0  0  0  0  0  0  0  0  0  0
   -0.5380   23.9480  -27.9860 C   0  0  0  0  0  0  0  0  0  0  0  0
    0.6990   24.6060  -27.9020 O   0  0  0  0  0  0  0  0  0  0  0  0
    0.9990   25.6490  -26.9800 C   0  0  0  0  0  0  0  0  0  0  0  0
    0.8906   25.2723  -25.9522 H   0  0  0  0  0  0  0  0  0  0  0  0
    2.0322   25.9919  -27.1378 H   0  0  0  0  0  0  0  0  0  0  0  0
    0.3059   26.4885  -27.1378 H   0  0  0  0  0  0  0  0  0  0  0  0
   -1.5280   24.3320  -28.9130 C   0  0  0  0  0  0  0  0  0  0  0  0
   -1.3366   25.1718  -29.5972 H   0  0  0  0  0  0  0  0  0  0  0  0
   -3.8870   25.2980  -30.4740 N   0  0  0  0  0  0  0  0  0  0  0  0
   -4.9090   25.2500  -31.2710 O   0  0  0  0  0  0  0  0  0  0  0  0
   -8.3440   22.3050  -31.2900 C   0  0  0  0  0  0  0  0  0  0  0  0
   -8.7953   23.1883  -30.8144 H   0  0  0  0  0  0  0  0  0  0  0  0
   -9.0040   21.0740  -31.2350 C   0  0  0  0  0  0  0  0  0  0  0  0
   -9.9785   20.9951  -30.7308 H   0  0  0  0  0  0  0  0  0  0  0  0
  1  2  1  0
  2  3  2  0
  3  4  1  0
  3  5  1  0
  5  6  1  0
  5  7  2  0
  7  8  1  0
  8  9  2  0
  9 10  1  0
 10 11  1  0
 11 12  1  0
 12 13  2  0
 13 14  1  0
 13 15  1  0
 15 16  1  0
 15 17  2  0
 17 18  1  0
 18 19  1  0
 19 20  1  0
 19 21  1  0
 19 22  1  0
 17 23  1  0
 23 24  1  0
 24 25  1  0
 25 26  1  0
 25 27  1  0
 25 28  1  0
 23 29  2  0
 29 30  1  0
 11 31  2  0
 31 32  1  0
  7 33  1  0
 33 34  1  0
 33 35  2  0
 35 36  1  0
 35  2  1  0
 32  9  1  0
 29 12  1  0
M  CHG  1  10  -1
M  END
>  <UniqueID>  (10) 
10

>  <SMILES>  (10) 
COc1ccc(-c2no/c(=N/c3ccccc3)[n-]2)cc1OC

>  <Energy>  (10) 
77.3435517197134

>  <Genealogy>  (10) 
COc1ccc(-c2noc(=Nc3ccccc3)[n-]2)cc1OC (protonated)
COc1ccc(-c2no/c(=N/c3ccccc3)[n-]2)cc1OC (cis-trans isomerization)
COc1ccc(-c2no/c(=N/c3ccccc3)[n-]2)cc1OC (3D coordinates assigned)
COc1ccc(-c2no/c(=N/c3ccccc3)[n-]2)cc1OC (optimized conformer: 77.3435517197134 kcal/mol)

>  <smiles>  (10) 
COc1ccc(-c2noc(=Nc3ccccc3)[nH]2)cc1OC

>  <score_type>  (10) 
oracle

>  <origin>  (10) 
adgpu

>  <m_score__min__energy>  (10) 
-9.1899999999999995

>  <m_primary>  (10) 
energy

$$$$
10:0
     RDKit          3D

 31 32  0  0  0  0  0  0  0  0999 V2000
   -6.8950   19.1280  -32.6990 C   0  0  0  0  0  0  0  0  0  0  0  0
   -7.4250   20.4940  -32.3740 C   0  0  0  0  0  0  0  0  0  0  0  0
   -8.7440   20.6500  -31.9220 C   0  0  0  0  0  0  0  0  0  0  0  0
   -9.2250   21.9180  -31.5820 C   0  0  0  0  0  0  0  0  0  0  0  0
   -8.3910   23.0350  -31.6780 C   0  0  0  0  0  0  0  0  0  0  0  0
   -7.0640   22.8910  -32.1140 C   0  0  0  0  0  0  0  0  0  0  0  0
   -6.1480   24.0820  -32.1870 C   0  0  0  0  0  0  0  0  0  0  0  0
   -5.1680   24.0340  -31.1020 N   0  0  0  0  0  0  0  0  0  0  0  0
   -4.0330   23.3560  -31.1870 N   0  0  0  0  0  0  0  0  0  0  0  0
   -3.4080   23.4560  -29.9970 C   0  0  0  0  0  0  0  0  0  0  0  0
   -2.1280   22.7610  -29.6690 C   0  0  0  0  0  0  0  0  0  0  0  0
   -4.1840   24.1940  -29.1250 C   0  0  0  0  0  0  0  0  0  0  0  0
   -3.8620   24.5220  -27.4300 Cl  0  0  0  0  0  0  0  0  0  0  0  0
   -5.2930   24.5590  -29.8620 C   0  0  0  0  0  0  0  0  0  0  0  0
   -6.4950   25.2880  -29.3430 C   0  0  0  0  0  0  0  0  0  0  0  0
   -6.5840   21.6150  -32.4540 C   0  0  0  0  0  0  0  0  0  0  0  0
   -6.6843   18.5849  -31.7659 H   0  0  0  0  0  0  0  0  0  0  0  0
   -7.6435   18.5741  -33.2846 H   0  0  0  0  0  0  0  0  0  0  0  0
   -5.9688   19.2238  -33.2846 H   0  0  0  0  0  0  0  0  0  0  0  0
   -9.4014   19.7724  -31.8349 H   0  0  0  0  0  0  0  0  0  0  0  0
  -10.2630   22.0366  -31.2379 H   0  0  0  0  0  0  0  0  0  0  0  0
   -8.7753   24.0305  -31.4111 H   0  0  0  0  0  0  0  0  0  0  0  0
   -5.6213   24.0764  -33.1527 H   0  0  0  0  0  0  0  0  0  0  0  0
   -6.7456   25.0004  -32.0900 H   0  0  0  0  0  0  0  0  0  0  0  0
   -2.0139   22.6990  -28.5767 H   0  0  0  0  0  0  0  0  0  0  0  0
   -2.1421   21.7467  -30.0943 H   0  0  0  0  0  0  0  0  0  0  0  0
   -1.2850   23.3253  -30.0943 H   0  0  0  0  0  0  0  0  0  0  0  0
   -6.4820   25.2801  -28.2431 H   0  0  0  0  0  0  0  0  0  0  0  0
   -6.4769   26.3275  -29.7025 H   0  0  0  0  0  0  0  0  0  0  0  0
   -7.4084   24.7916  -29.7025 H   0  0  0  0  0  0  0  0  0  0  0  0
   -5.5421   21.4937  -32.7851 H   0  0  0  0  0  0  0  0  0  0  0  0
  1  2  1  0
  2  3  2  0
  3  4  1  0
  4  5  2  0
  5  6  1  0
  6  7  1  0
  7  8  1  0
  8  9  1  0
  9 10  2  0
 10 11  1  0
 10 12  1  0
 12 13  1  0
 12 14  2  0
 14 15  1  0
  6 16  2  0
 16  2  1  0
 14  8  1  0
  1 17  1  0
  1 18  1  0
  1 19  1  0
  3 20  1  0
  4 21  1  0
  5 22  1  0
  7 23  1  0
  7 24  1  0
 11 25  1  0
 11 26  1  0
 11 27  1  0
 15 28  1  0
 15 29  1  0
 15 30  1  0
 16 31  1  0
M  END
>  <UniqueID>  (11) 
11

>  <SMILES>  (11) 
Cc1cccc(Cn2nc(C)c(Cl)c2C)c1

>  <Energy>  (11) 
57.049914481369036

>  <Genealogy>  (11) 
Cc1cccc(Cn2nc(C)c(Cl)c2C)c1 (3D coordinates assigned)
Cc1cccc(Cn2nc(C)c(Cl)c2C)c1 (optimized conformer: 57.049914481369036 kcal/mol)

>  <smiles>  (11) 
Cc1cccc(Cn2nc(C)c(Cl)c2C)c1

>  <score_type>  (11) 
oracle

>  <origin>  (11) 
adgpu

>  <m_score__min__energy>  (11) 
-6.9400000000000004

>  <m_primary>  (11) 
energy

$$$$
11:0
     RDKit          3D

 37 38  0  0  0  0  0  0  0  0999 V2000
   -3.1410   18.6240  -25.9660 C   0  0  0  0  0  0  0  0  0  0  0  0
   -2.7440   19.6630  -27.0150 C   0  0  0  0  0  0  0  0  0  0  0  0
   -1.2670   20.0950  -26.8980 C   0  0  0  0  0  0  0  0  0  0  0  0
   -1.0840   21.5650  -26.4860 C   0  0  0  0  0  0  0  0  0  0  0  0
   -1.6700   22.5180  -27.4940 C   0  0  0  0  0  0  0  0  0  0  0  0
   -2.7950   23.2930  -27.1690 C   0  0  0  0  0  0  0  0  0  0  0  0
   -3.3900   24.1070  -28.1350 C   0  0  0  0  0  0  0  0  0  0  0  0
   -2.8740   24.1510  -29.4410 C   0  0  0  0  0  0  0  0  0  0  0  0
   -3.4950   24.9400  -30.4650 N   0  0  0  0  0  0  0  0  0  0  0  0
   -4.9090   25.0820  -30.6620 C   0  0  0  0  0  0  0  0  0  0  0  0
   -5.4120   26.2360  -30.6180 O   0  0  0  0  0  0  0  0  0  0  0  0
   -5.7810   23.9190  -30.9570 C   0  0  0  0  0  0  0  0  0  0  0  0
   -6.8910   23.6230  -30.1440 C   0  0  0  0  0  0  0  0  0  0  0  0
   -7.7150   22.5360  -30.4410 C   0  0  0  0  0  0  0  0  0  0  0  0
   -7.4350   21.7220  -31.5420 C   0  0  0  0  0  0  0  0  0  0  0  0
   -8.5660   20.2380  -31.9470 Br  0  0  0  0  0  0  0  0  0  0  0  0
   -6.3210   21.9940  -32.3430 C   0  0  0  0  0  0  0  0  0  0  0  0
   -5.4950   23.0840  -32.0510 C   0  0  0  0  0  0  0  0  0  0  0  0
   -1.7220   23.4170  -29.7500 C   0  0  0  0  0  0  0  0  0  0  0  0
   -1.1300   22.5960  -28.7880 C   0  0  0  0  0  0  0  0  0  0  0  0
   -2.9822   19.0395  -24.9599 H   0  0  0  0  0  0  0  0  0  0  0  0
   -4.2022   18.3631  -26.0917 H   0  0  0  0  0  0  0  0  0  0  0  0
   -2.5242   17.7219  -26.0917 H   0  0  0  0  0  0  0  0  0  0  0  0
   -2.9067   19.2335  -28.0145 H   0  0  0  0  0  0  0  0  0  0  0  0
   -3.3649   20.5558  -26.8492 H   0  0  0  0  0  0  0  0  0  0  0  0
   -0.7779   19.4597  -26.1448 H   0  0  0  0  0  0  0  0  0  0  0  0
   -0.8191   19.9827  -27.8964 H   0  0  0  0  0  0  0  0  0  0  0  0
   -1.5802   21.7254  -25.5174 H   0  0  0  0  0  0  0  0  0  0  0  0
   -0.0042   21.7647  -26.4220 H   0  0  0  0  0  0  0  0  0  0  0  0
   -3.2088   23.2587  -26.1504 H   0  0  0  0  0  0  0  0  0  0  0  0
   -4.2670   24.7168  -27.8722 H   0  0  0  0  0  0  0  0  0  0  0  0
   -7.1107   24.2522  -29.2689 H   0  0  0  0  0  0  0  0  0  0  0  0
   -8.5872   22.3195  -29.8066 H   0  0  0  0  0  0  0  0  0  0  0  0
   -6.0941   21.3490  -33.2047 H   0  0  0  0  0  0  0  0  0  0  0  0
   -4.6168   23.2890  -32.6808 H   0  0  0  0  0  0  0  0  0  0  0  0
   -1.2814   23.4876  -30.7554 H   0  0  0  0  0  0  0  0  0  0  0  0
   -0.2367   22.0078  -29.0449 H   0  0  0  0  0  0  0  0  0  0  0  0
  1  2  1  0
  2  3  1  0
  3  4  1  0
  4  5  1  0
  5  6  2  0
  6  7  1  0
  7  8  2  0
  8  9  1  0
  9 10  1  0
 10 11  2  0
 10 12  1  0
 12 13  2  0
 13 14  1  0
 14 15  2  0
 15 16  1  0
 15 17  1  0
 17 18  2  0
  8 19  1  0
 19 20  2  0
 20  5  1  0
 18 12  1  0
  1 21  1  0
  1 22  1  0
  1 23  1  0
  2 24  1  0
  2 25  1  0
  3 26  1  0
  3 27  1  0
  4 28  1  0
  4 29  1  0
  6 30  1  0
  7 31  1  0
 13 32  1  0
 14 33  1  0
 17 34  1  0
 18 35  1  0
 19 36  1  0
 20 37  1  0
M  CHG  1   9  -1
M  END
>  <UniqueID>  (12) 
12

>  <SMILES>  (12) 
CCCCc1ccc([N-]C(=O)c2ccc(Br)cc2)cc1

>  <Energy>  (12) 
37.920384891856585

>  <Genealogy>  (12) 
CCCCc1ccc([N-]C(=O)c2ccc(Br)cc2)cc1 (protonated)
CCCCc1ccc([N-]C(=O)c2ccc(Br)cc2)cc1 (3D coordinates assigned)
CCCCc1ccc([N-]C(=O)c2ccc(Br)cc2)cc1 (optimized conformer: 37.920384891856585 kcal/mol)

>  <smiles>  (12) 
CCCCc1ccc(NC(=O)c2ccc(Br)cc2)cc1

>  <score_type>  (12) 
oracle

>  <origin>  (12) 
adgpu

>  <m_score__min__energy>  (12) 
-10.18

>  <m_primary>  (12) 
energy

$$$$
12:0
     RDKit          3D

 31 33  0  0  0  0  0  0  0  0999 V2000
   -2.5359   25.0186  -28.5556 H   0  0  0  0  0  0  0  0  0  0  0  0
   -2.9290   24.5220  -29.4550 C   0  0  0  0  0  0  0  0  0  0  0  0
   -2.5110   23.3200  -29.8920 N   0  0  0  0  0  0  0  0  0  0  0  0
   -3.2650   23.1370  -30.9960 C   0  0  0  0  0  0  0  0  0  0  0  0
   -3.1960   21.9390  -31.8760 C   0  0  0  0  0  0  0  0  0  0  0  0
   -1.9560   21.5560  -32.4170 C   0  0  0  0  0  0  0  0  0  0  0  0
   -1.0551   22.1427  -32.1842 H   0  0  0  0  0  0  0  0  0  0  0  0
   -1.8580   20.4390  -33.2460 C   0  0  0  0  0  0  0  0  0  0  0  0
   -0.8855   20.1420  -33.6656 H   0  0  0  0  0  0  0  0  0  0  0  0
   -3.0030   19.7040  -33.5370 C   0  0  0  0  0  0  0  0  0  0  0  0
   -2.9387   18.8220  -34.1912 H   0  0  0  0  0  0  0  0  0  0  0  0
   -4.1990   20.0750  -33.0140 N   0  0  0  0  0  0  0  0  0  0  0  0
   -4.3350   21.1570  -32.1930 C   0  0  0  0  0  0  0  0  0  0  0  0
   -5.5080   21.4770  -31.7280 N   0  0  0  0  0  0  0  0  0  0  0  0
   -6.7150   20.7350  -31.9570 C   0  0  0  0  0  0  0  0  0  0  0  0
   -6.6280   19.3500  -32.1500 C   0  0  0  0  0  0  0  0  0  0  0  0
   -5.6451   18.8574  -32.1150 H   0  0  0  0  0  0  0  0  0  0  0  0
   -7.7770   18.5850  -32.3870 C   0  0  0  0  0  0  0  0  0  0  0  0
   -7.6320   17.2000  -32.5560 O   0  0  0  0  0  0  0  0  0  0  0  0
   -6.6260   16.5890  -33.3560 C   0  0  0  0  0  0  0  0  0  0  0  0
   -5.8685   16.1289  -32.7044 H   0  0  0  0  0  0  0  0  0  0  0  0
   -7.0822   15.8152  -33.9910 H   0  0  0  0  0  0  0  0  0  0  0  0
   -6.1497   17.3505  -33.9910 H   0  0  0  0  0  0  0  0  0  0  0  0
   -9.0280   19.2270  -32.4480 C   0  0  0  0  0  0  0  0  0  0  0  0
   -9.9388   18.6359  -32.6241 H   0  0  0  0  0  0  0  0  0  0  0  0
   -9.1180   20.6110  -32.2860 C   0  0  0  0  0  0  0  0  0  0  0  0
  -10.0987   21.1058  -32.3443 H   0  0  0  0  0  0  0  0  0  0  0  0
   -7.9680   21.3720  -32.0500 C   0  0  0  0  0  0  0  0  0  0  0  0
   -8.1220   23.1220  -31.9440 Cl  0  0  0  0  0  0  0  0  0  0  0  0
   -4.0950   24.1750  -31.2150 N   0  0  0  0  0  0  0  0  0  0  0  0
   -3.8830   25.0460  -30.2450 N   0  0  0  0  0  0  0  0  0  0  0  0
  1  2  1  0
  2  3  2  0
  3  4  1  0
  4  5  1  0
  5  6  2  0
  6  7  1  0
  6  8  1  0
  8  9  1  0
  8 10  2  0
 10 11  1  0
 10 12  1  0
 12 13  1  0
 13 14  2  0
 14 15  1  0
 15 16  2  0
 16 17  1  0
 16 18  1  0
 18 19  1  0
 19 20  1  0
 20 21  1  0
 20 22  1  0
 20 23  1  0
 18 24  2  0
 24 25  1  0
 24 26  1  0
 26 27  1  0
 26 28  2  0
 28 29  1  0
  4 30  2  0
 30 31  1  0
 31  2  1  0
 13  5  1  0
 28 15  1  0
M  CHG  2  12  -1  31  -1
M  END
>  <UniqueID>  (13) 
13

>  <SMILES>  (13) 
COc1ccc(Cl)c(/N=c2\[n-]cccc2-c2nc[n-]n2)c1

>  <Energy>  (13) 
77.08293492343792

>  <Genealogy>  (13) 
COc1ccc(Cl)c(N=c2[n-]cccc2-c2nc[n-]n2)c1 (protonated)
COc1ccc(Cl)c(/N=c2\[n-]cccc2-c2nc[n-]n2)c1 (cis-trans isomerization)
COc1ccc(Cl)c(/N=c2\[n-]cccc2-c2nc[n-]n2)c1 (3D coordinates assigned)
COc1ccc(Cl)c(/N=c2\[n-]cccc2-c2nc[n-]n2)c1 (optimized conformer: 77.08293492343792 kcal/mol)

>  <smiles>  (13) 
COc1ccc(Cl)c(N=c2[nH]cccc2-c2nc[nH]n2)c1

>  <score_type>  (13) 
oracle

>  <origin>  (13) 
adgpu

>  <m_score__min__energy>  (13) 
-8.8499999999999996

>  <m_primary>  (13) 
energy

$$$$
13:0
     RDKit          3D

 36 39  0  0  0  0  0  0  0  0999 V2000
   -5.3690   26.3630  -30.4540 O   0  0  0  0  0  0  0  0  0  0  0  0
   -4.8500   25.2410  -30.6210 N   0  0  0  0  0  0  0  0  0  0  0  0
   -3.4930   25.0910  -30.4600 O   0  0  0  0  0  0  0  0  0  0  0  0
   -5.6560   24.1150  -30.9770 C   0  0  0  0  0  0  0  0  0  0  0  0
   -6.5290   23.4510  -30.1330 C   0  0  0  0  0  0  0  0  0  0  0  0
   -7.0780   22.4600  -30.8490 N   0  0  0  0  0  0  0  0  0  0  0  0
   -6.5560   22.5610  -32.0800 C   0  0  0  0  0  0  0  0  0  0  0  0
   -5.6610   23.5610  -32.2120 N   0  0  0  0  0  0  0  0  0  0  0  0
   -6.9180   21.6800  -33.0980 O   0  0  0  0  0  0  0  0  0  0  0  0
   -8.0110   20.7800  -32.8960 C   0  0  0  0  0  0  0  0  0  0  0  0
   -8.0660   20.2850  -31.4300 C   0  0  1  0  0  0  0  0  0  0  0  0
   -6.9160   19.4880  -31.1420 O   0  0  0  0  0  0  0  0  0  0  0  0
   -6.3420   18.6220  -32.0780 C   0  0  0  0  0  0  0  0  0  0  0  0
   -7.0900   17.5280  -32.5210 C   0  0  0  0  0  0  0  0  0  0  0  0
   -6.5220   16.6170  -33.4110 C   0  0  0  0  0  0  0  0  0  0  0  0
   -5.2520   16.8020  -33.8550 N   0  0  0  0  0  0  0  0  0  0  0  0
   -4.5050   17.8670  -33.4620 C   0  0  0  0  0  0  0  0  0  0  0  0
   -5.0340   18.8210  -32.5750 C   0  0  0  0  0  0  0  0  0  0  0  0
   -4.2350   20.0180  -32.2260 C   0  0  0  0  0  0  0  0  0  0  0  0
   -3.6090   20.8350  -33.1830 C   0  0  0  0  0  0  0  0  0  0  0  0
   -2.9170   21.9060  -32.6370 C   0  0  0  0  0  0  0  0  0  0  0  0
   -3.0900   21.8440  -30.9680 S   0  0  0  0  0  0  0  0  0  0  0  0
   -4.0420   20.4600  -30.9180 C   0  0  0  0  0  0  0  0  0  0  0  0
   -8.0960   21.4870  -30.4620 C   0  0  0  0  0  0  0  0  0  0  0  0
   -6.7328   23.6902  -29.0788 H   0  0  0  0  0  0  0  0  0  0  0  0
   -8.9513   21.2983  -33.1351 H   0  0  0  0  0  0  0  0  0  0  0  0
   -7.8703   19.9087  -33.5525 H   0  0  0  0  0  0  0  0  0  0  0  0
   -8.9783   19.6845  -31.2987 H   0  0  0  0  0  0  0  0  0  0  0  0
   -8.1225   17.3860  -32.1692 H   0  0  0  0  0  0  0  0  0  0  0  0
   -7.1030   15.7480  -33.7536 H   0  0  0  0  0  0  0  0  0  0  0  0
   -3.4788   17.9836  -33.8407 H   0  0  0  0  0  0  0  0  0  0  0  0
   -3.6628   20.6429  -34.2648 H   0  0  0  0  0  0  0  0  0  0  0  0
   -2.3528   22.6643  -33.1997 H   0  0  0  0  0  0  0  0  0  0  0  0
   -4.4433   19.9852  -30.0105 H   0  0  0  0  0  0  0  0  0  0  0  0
   -9.0877   21.9615  -30.4998 H   0  0  0  0  0  0  0  0  0  0  0  0
   -7.8919   21.1352  -29.4400 H   0  0  0  0  0  0  0  0  0  0  0  0
  1  2  2  0
  2  3  1  0
  2  4  1  0
  4  5  2  0
  5  6  1  0
  6  7  1  0
  7  8  2  0
  7  9  1  0
  9 10  1  0
 10 11  1  0
 11 12  1  0
 12 13  1  0
 13 14  2  0
 14 15  1  0
 15 16  2  0
 16 17  1  0
 17 18  2  0
 18 19  1  0
 19 20  1  0
 20 21  2  0
 21 22  1  0
 22 23  1  0
 11 24  1  0
  8  4  1  0
 18 13  1  0
 23 19  2  0
 24  6  1  0
  5 25  1  0
 10 26  1  0
 10 27  1  0
 11 28  1  6
 14 29  1  0
 15 30  1  0
 17 31  1  0
 20 32  1  0
 21 33  1  0
 23 34  1  0
 24 35  1  0
 24 36  1  0
M  CHG  2   2   1   3  -1
M  END
>  <UniqueID>  (14) 
14

>  <SMILES>  (14) 
O=[N+]([O-])c1cn2c(n1)OC[C@@H](Oc1ccncc1-c1ccsc1)C2

>  <Energy>  (14) 
107.07501828235445

>  <Genealogy>  (14) 
O=[N+]([O-])c1cn2c(n1)OC[C@@H](Oc1ccncc1-c1ccsc1)C2 (chirality)
O=[N+]([O-])c1cn2c(n1)OC[C@@H](Oc1ccncc1-c1ccsc1)C2 (3D coordinates assigned)
O=[N+]([O-])c1cn2c(n1)OC[C@@H](Oc1ccncc1-c1ccsc1)C2 (nonaromatic ring conformer: 107.07501828235445 kcal/mol)

>  <smiles>  (14) 
O=[N+]([O-])c1cn2c(n1)OCC(Oc1ccncc1-c1ccsc1)C2

>  <score_type>  (14) 
oracle

>  <origin>  (14) 
adgpu

>  <m_score__min__energy>  (14) 
-7.8700000000000001

>  <m_primary>  (14) 
energy

$$$$
14:0
     RDKit          3D

 28 29  0  0  0  0  0  0  0  0999 V2000
   -8.0350   17.8790  -32.6949 H   0  0  0  0  0  0  0  0  0  0  0  0
   -7.9800   18.9580  -32.4880 C   0  0  0  0  0  0  0  0  0  0  0  0
   -9.1030   19.6350  -32.0060 C   0  0  0  0  0  0  0  0  0  0  0  0
  -10.0397   19.0869  -31.8269 H   0  0  0  0  0  0  0  0  0  0  0  0
   -9.0380   21.0080  -31.7510 C   0  0  0  0  0  0  0  0  0  0  0  0
   -9.9219   21.5349  -31.3623 H   0  0  0  0  0  0  0  0  0  0  0  0
   -7.8480   21.7190  -31.9890 C   0  0  0  0  0  0  0  0  0  0  0  0
   -7.7690   23.1970  -31.6920 C   0  0  0  0  0  0  0  0  0  0  0  0
   -8.4085   23.4219  -30.8257 H   0  0  0  0  0  0  0  0  0  0  0  0
   -8.1079   23.7459  -32.5830 H   0  0  0  0  0  0  0  0  0  0  0  0
   -6.3550   23.6260  -31.3820 C   0  0  0  0  0  0  0  0  0  0  0  0
   -5.6760   24.1490  -32.3040 O   0  0  0  0  0  0  0  0  0  0  0  0
   -5.7190   23.4050  -30.1110 N   0  0  0  0  0  0  0  0  0  0  0  0
   -4.6110   23.9180  -29.6630 C   0  0  0  0  0  0  0  0  0  0  0  0
   -3.7970   24.7390  -30.3550 N   0  0  0  0  0  0  0  0  0  0  0  0
   -2.7760   25.0320  -29.5670 N   0  0  0  0  0  0  0  0  0  0  0  0
   -1.9920   25.6670  -29.8350 H   0  0  0  0  0  0  0  0  0  0  0  0
   -2.9240   24.3950  -28.3900 C   0  0  0  0  0  0  0  0  0  0  0  0
   -1.9990   24.5460  -27.2260 C   0  0  0  0  0  0  0  0  0  0  0  0
   -2.5693   24.4529  -26.2900 H   0  0  0  0  0  0  0  0  0  0  0  0
   -1.2287   23.7617  -27.2656 H   0  0  0  0  0  0  0  0  0  0  0  0
   -1.5181   25.5345  -27.2656 H   0  0  0  0  0  0  0  0  0  0  0  0
   -4.0980   23.6720  -28.4060 C   0  0  0  0  0  0  0  0  0  0  0  0
   -4.5242   23.0477  -27.6068 H   0  0  0  0  0  0  0  0  0  0  0  0
   -6.7170   21.0240  -32.4520 C   0  0  0  0  0  0  0  0  0  0  0  0
   -5.7719   21.5628  -32.6144 H   0  0  0  0  0  0  0  0  0  0  0  0
   -6.7880   19.6510  -32.7070 C   0  0  0  0  0  0  0  0  0  0  0  0
   -5.9028   19.1158  -33.0810 H   0  0  0  0  0  0  0  0  0  0  0  0
  1  2  1  0
  2  3  2  0
  3  4  1  0
  3  5  1  0
  5  6  1  0
  5  7  2  0
  7  8  1  0
  8  9  1  0
  8 10  1  0
  8 11  1  0
 11 12  2  0
 11 13  1  0
 13 14  2  0
 14 15  1  0
 15 16  1  0
 16 17  1  0
 16 18  1  0
 18 19  1  0
 19 20  1  0
 19 21  1  0
 19 22  1  0
 18 23  2  0
 23 24  1  0
  7 25  1  0
 25 26  1  0
 25 27  2  0
 27 28  1  0
 27  2  1  0
 23 14  1  0
M  CHG  1  15  -1
M  END
>  <UniqueID>  (15) 
15

>  <SMILES>  (15) 
Cc1c/c(=N/C(=O)Cc2ccccc2)[n-][nH]1

>  <Energy>  (15) 
60.40575498301795

>  <Genealogy>  (15) 
Cc1cc(=NC(=O)Cc2ccccc2)[n-][nH]1 (protonated)
Cc1c/c(=N/C(=O)Cc2ccccc2)[n-][nH]1 (cis-trans isomerization)
Cc1c/c(=N/C(=O)Cc2ccccc2)[n-][nH]1 (3D coordinates assigned)
Cc1c/c(=N/C(=O)Cc2ccccc2)[n-][nH]1 (optimized conformer: 60.40575498301795 kcal/mol)

>  <smiles>  (15) 
Cc1cc(=NC(=O)Cc2ccccc2)[nH][nH]1

>  <score_type>  (15) 
oracle

>  <origin>  (15) 
adgpu

>  <m_score__min__energy>  (15) 
-8.6699999999999999

>  <m_primary>  (15) 
energy

$$$$
15:0
     RDKit          3D

 32 33  0  0  1  0  0  0  0  0999 V2000
   -0.3380   26.5820  -26.8500 C   0  0  0  0  0  0  0  0  0  0  0  0
   -0.3400   25.4850  -27.8850 C   0  0  0  0  0  0  0  0  0  0  0  0
    0.4860   24.5370  -27.8310 O   0  0  0  0  0  0  0  0  0  0  0  0
   -1.3260   25.6000  -28.9060 N   0  0  0  0  0  0  0  0  0  0  0  0
   -2.1640   24.6340  -29.0780 C   0  0  0  0  0  0  0  0  0  0  0  0
   -2.1670   23.5080  -28.3430 N   0  0  0  0  0  0  0  0  0  0  0  0
   -3.0610   22.5170  -28.5510 C   0  0  0  0  0  0  0  0  0  0  0  0
   -3.0670   21.2820  -27.7470 C   0  0  0  0  0  0  0  0  0  0  0  0
   -3.9800   22.7090  -29.5590 C   0  0  0  0  0  0  0  0  0  0  0  0
   -3.9940   23.8620  -30.3290 C   0  0  0  0  0  0  0  0  0  0  0  0
   -4.8630   23.9850  -31.2450 N   0  0  0  0  0  0  0  0  0  0  0  0
   -5.8570   23.0150  -31.5630 C   0  0  0  0  0  0  0  0  0  0  0  0
   -7.1620   23.0980  -31.1400 C   0  0  0  0  0  0  0  0  0  0  0  0
   -8.0440   22.1090  -31.5010 C   0  0  0  0  0  0  0  0  0  0  0  0
   -7.6080   21.0560  -32.2770 C   0  0  0  0  0  0  0  0  0  0  0  0
   -6.3100   20.9370  -32.7220 C   0  0  0  0  0  0  0  0  0  0  0  0
   -5.4330   21.9420  -32.3490 C   0  0  0  0  0  0  0  0  0  0  0  0
   -3.0760   24.8080  -30.0680 N   0  0  0  0  0  0  0  0  0  0  0  0
   -0.3388   26.1370  -25.8440 H   0  0  0  0  0  0  0  0  0  0  0  0
    0.5613   27.2029  -26.9755 H   0  0  0  0  0  0  0  0  0  0  0  0
   -1.2350   27.2062  -26.9755 H   0  0  0  0  0  0  0  0  0  0  0  0
   -1.4540   23.3950  -27.5830 H   0  0  0  0  0  0  0  0  0  0  0  0
   -3.0657   21.5405  -26.6778 H   0  0  0  0  0  0  0  0  0  0  0  0
   -3.9680   20.6962  -27.9815 H   0  0  0  0  0  0  0  0  0  0  0  0
   -2.1717   20.6874  -27.9815 H   0  0  0  0  0  0  0  0  0  0  0  0
   -4.7247   21.9245  -29.7590 H   0  0  0  0  0  0  0  0  0  0  0  0
   -7.4953   23.9442  -30.5213 H   0  0  0  0  0  0  0  0  0  0  0  0
   -9.0928   22.1567  -31.1727 H   0  0  0  0  0  0  0  0  0  0  0  0
   -8.3307   20.2743  -32.5537 H   0  0  0  0  0  0  0  0  0  0  0  0
   -5.9866   20.0876  -33.3417 H   0  0  0  0  0  0  0  0  0  0  0  0
   -4.3844   21.8939  -32.6777 H   0  0  0  0  0  0  0  0  0  0  0  0
   -3.0960   25.6720  -30.6540 H   0  0  0  0  0  0  0  0  0  0  0  0
  1  2  1  0
  2  3  2  0
  2  4  1  0
  4  5  2  0
  5  6  1  0
  6  7  1  0
  7  8  1  0
  7  9  2  0
  9 10  1  0
 10 11  2  0
 11 12  1  0
 12 13  2  0
 13 14  1  0
 14 15  2  0
 15 16  1  0
 16 17  2  0
 10 18  1  0
 18  5  1  0
 17 12  1  0
  1 19  1  0
  1 20  1  0
  1 21  1  0
  6 22  1  0
  8 23  1  0
  8 24  1  0
  8 25  1  0
  9 26  1  0
 13 27  1  0
 14 28  1  0
 15 29  1  0
 16 30  1  0
 17 31  1  0
 18 32  1  0
M  END
>  <smiles>  (16) 
CC(=O)N=c1[nH]c(C)cc(=Nc2ccccc2)[nH]1

>  <score_type>  (16) 
oracle

>  <origin>  (16) 
adgpu

>  <m_score__min__energy>  (16) 
-7.4800000000000004

>  <m_primary>  (16) 
energy

$$$$
16:0
     RDKit          3D

 36 37  0  0  0  0  0  0  0  0999 V2000
   -8.9110   22.9020  -31.2160 H   0  0  0  0  0  0  0  0  0  0  0  0
   -9.3580   22.1130  -31.6630 O   0  0  0  0  0  0  0  0  0  0  0  0
   -8.7030   20.9120  -31.9430 C   0  0  0  0  0  0  0  0  0  0  0  0
   -9.4830   19.8340  -32.3790 C   0  0  0  0  0  0  0  0  0  0  0  0
  -10.5598   19.9761  -32.5528 H   0  0  0  0  0  0  0  0  0  0  0  0
   -8.9080   18.5820  -32.5950 C   0  0  0  0  0  0  0  0  0  0  0  0
   -9.5350   17.7456  -32.9375 H   0  0  0  0  0  0  0  0  0  0  0  0
   -7.5420   18.3810  -32.3800 C   0  0  0  0  0  0  0  0  0  0  0  0
   -7.0170   17.0990  -32.5960 O   0  0  0  0  0  0  0  0  0  0  0  0
   -6.1870   16.7420  -33.6970 C   0  0  0  0  0  0  0  0  0  0  0  0
   -5.2369   16.3333  -33.3225 H   0  0  0  0  0  0  0  0  0  0  0  0
   -6.6964   15.9834  -34.3094 H   0  0  0  0  0  0  0  0  0  0  0  0
   -5.9867   17.6335  -34.3094 H   0  0  0  0  0  0  0  0  0  0  0  0
   -6.7460   19.4640  -31.9630 C   0  0  0  0  0  0  0  0  0  0  0  0
   -5.6710   19.3113  -31.7865 H   0  0  0  0  0  0  0  0  0  0  0  0
   -7.3070   20.7390  -31.7690 C   0  0  0  0  0  0  0  0  0  0  0  0
   -6.3910   21.8430  -31.4110 C   0  0  0  0  0  0  0  0  0  0  0  0
   -6.6478   22.8745  -31.6938 H   0  0  0  0  0  0  0  0  0  0  0  0
   -5.2870   21.6110  -30.7670 N   0  0  0  0  0  0  0  0  0  0  0  0
   -4.3430   22.5900  -30.2970 C   0  0  0  0  0  0  0  0  0  0  0  0
   -4.7650   23.9220  -30.2070 C   0  0  0  0  0  0  0  0  0  0  0  0
   -5.7950   24.1870  -30.4879 H   0  0  0  0  0  0  0  0  0  0  0  0
   -3.8910   24.9180  -29.7640 C   0  0  0  0  0  0  0  0  0  0  0  0
   -4.2348   25.9614  -29.7088 H   0  0  0  0  0  0  0  0  0  0  0  0
   -2.5810   24.5970  -29.3900 C   0  0  0  0  0  0  0  0  0  0  0  0
   -1.7030   25.6490  -28.9680 N   0  0  0  0  0  0  0  0  0  0  0  0
   -0.7140   25.5740  -27.9310 C   0  0  0  0  0  0  0  0  0  0  0  0
    0.3460   24.9300  -28.1470 O   0  0  0  0  0  0  0  0  0  0  0  0
   -0.8830   26.2730  -26.6170 C   0  0  0  0  0  0  0  0  0  0  0  0
   -0.7106   25.5598  -25.7975 H   0  0  0  0  0  0  0  0  0  0  0  0
   -0.1583   27.0973  -26.5443 H   0  0  0  0  0  0  0  0  0  0  0  0
   -1.9043   26.6752  -26.5443 H   0  0  0  0  0  0  0  0  0  0  0  0
   -2.1380   23.2710  -29.5190 C   0  0  0  0  0  0  0  0  0  0  0  0
   -1.0974   23.0158  -29.2699 H   0  0  0  0  0  0  0  0  0  0  0  0
   -3.0110   22.2730  -29.9620 C   0  0  0  0  0  0  0  0  0  0  0  0
   -2.6567   21.2353  -30.0496 H   0  0  0  0  0  0  0  0  0  0  0  0
  1  2  1  0
  2  3  1  0
  3  4  2  0
  4  5  1  0
  4  6  1  0
  6  7  1  0
  6  8  2  0
  8  9  1  0
  9 10  1  0
 10 11  1  0
 10 12  1  0
 10 13  1  0
  8 14  1  0
 14 15  1  0
 14 16  2  0
 16 17  1  0
 17 18  1  0
 17 19  2  0
 19 20  1  0
 20 21  2  0
 21 22  1  0
 21 23  1  0
 23 24  1  0
 23 25  2  0
 25 26  1  0
 26 27  1  0
 27 28  2  0
 27 29  1  0
 29 30  1  0
 29 31  1  0
 29 32  1  0
 25 33  1  0
 33 34  1  0
 33 35  2  0
 35 36  1  0
 16  3  1  0
 35 20  1  0
M  CHG  1  26  -1
M  END
>  <UniqueID>  (17) 
16

>  <SMILES>  (17) 
COc1ccc(O)c(/C=N/c2ccc([N-]C(C)=O)cc2)c1

>  <Energy>  (17) 
46.982889518850584

>  <Genealogy>  (17) 
COc1ccc(O)c(C=Nc2ccc([N-]C(C)=O)cc2)c1 (protonated)
COc1ccc(O)c(/C=N/c2ccc([N-]C(C)=O)cc2)c1 (cis-trans isomerization)
COc1ccc(O)c(/C=N/c2ccc([N-]C(C)=O)cc2)c1 (3D coordinates assigned)
COc1ccc(O)c(/C=N/c2ccc([N-]C(C)=O)cc2)c1 (optimized conformer: 46.982889518850584 kcal/mol)

>  <smiles>  (17) 
COc1ccc(O)c(C=Nc2ccc(NC(C)=O)cc2)c1

>  <score_type>  (17) 
oracle

>  <origin>  (17) 
adgpu

>  <m_score__min__energy>  (17) 
-7.9000000000000004

>  <m_primary>  (17) 
energy

$$$$
17:0
     RDKit          3D

 47 50  0  0  0  0  0  0  0  0999 V2000
   -9.0990   19.3750  -31.6310 C   0  0  0  0  0  0  0  0  0  0  0  0
   -8.5480   20.5890  -32.0510 C   0  0  0  0  0  0  0  0  0  0  0  0
   -7.3130   20.6110  -32.7070 C   0  0  0  0  0  0  0  0  0  0  0  0
   -6.6260   19.4070  -32.9640 C   0  0  0  0  0  0  0  0  0  0  0  0
   -5.3400   19.3830  -33.6080 N   0  0  0  0  0  0  0  0  0  0  0  0
   -4.2870   20.0730  -33.2760 C   0  0  0  0  0  0  0  0  0  0  0  0
   -4.3330   20.9980  -32.2840 N   0  0  0  0  0  0  0  0  0  0  0  0
   -3.2320   21.7220  -31.9590 C   0  0  0  0  0  0  0  0  0  0  0  0
   -3.3020   22.6860  -30.8940 N   0  0  0  0  0  0  0  0  0  0  0  0
   -2.0800   23.0340  -30.1640 C   0  0  0  0  0  0  0  0  0  0  0  0
   -2.4400   23.5890  -28.7810 C   0  0  0  0  0  0  0  0  0  0  0  0
   -3.3750   24.6450  -28.8900 O   0  0  0  0  0  0  0  0  0  0  0  0
   -4.5950   24.1500  -29.4080 C   0  0  0  0  0  0  0  0  0  0  0  0
   -4.4120   23.6450  -30.8420 C   0  0  0  0  0  0  0  0  0  0  0  0
   -2.0780   21.5400  -32.6610 N   0  0  0  0  0  0  0  0  0  0  0  0
   -2.0260   20.6230  -33.6720 C   0  0  0  0  0  0  0  0  0  0  0  0
   -0.8170   20.4180  -34.4330 N   0  0  0  0  0  0  0  0  0  0  0  0
   -0.2690   19.0620  -34.5640 C   0  0  0  0  0  0  0  0  0  0  0  0
    0.5560   18.9430  -35.8480 C   0  0  0  0  0  0  0  0  0  0  0  0
    1.5130   19.9810  -35.9260 O   0  0  0  0  0  0  0  0  0  0  0  0
    0.8500   21.2240  -36.0570 C   0  0  0  0  0  0  0  0  0  0  0  0
    0.0440   21.5500  -34.7950 C   0  0  0  0  0  0  0  0  0  0  0  0
   -3.1360   19.8950  -33.9670 N   0  0  0  0  0  0  0  0  0  0  0  0
   -7.1720   18.1990  -32.5100 C   0  0  0  0  0  0  0  0  0  0  0  0
   -8.4080   18.1810  -31.8550 C   0  0  0  0  0  0  0  0  0  0  0  0
  -10.0754   19.3594  -31.1247 H   0  0  0  0  0  0  0  0  0  0  0  0
   -9.0872   21.5296  -31.8651 H   0  0  0  0  0  0  0  0  0  0  0  0
   -6.8767   21.5700  -33.0232 H   0  0  0  0  0  0  0  0  0  0  0  0
   -1.4571   22.1351  -30.0457 H   0  0  0  0  0  0  0  0  0  0  0  0
   -1.5256   23.7983  -30.7284 H   0  0  0  0  0  0  0  0  0  0  0  0
   -2.8756   22.7834  -28.1716 H   0  0  0  0  0  0  0  0  0  0  0  0
   -1.5254   23.9760  -28.3080 H   0  0  0  0  0  0  0  0  0  0  0  0
   -4.9453   23.3209  -28.7756 H   0  0  0  0  0  0  0  0  0  0  0  0
   -5.3327   24.9659  -29.4130 H   0  0  0  0  0  0  0  0  0  0  0  0
   -5.3367   23.1517  -31.1761 H   0  0  0  0  0  0  0  0  0  0  0  0
   -4.1871   24.4967  -31.5009 H   0  0  0  0  0  0  0  0  0  0  0  0
   -1.2390   22.1120  -32.4270 H   0  0  0  0  0  0  0  0  0  0  0  0
    0.3742   18.8455  -33.6983 H   0  0  0  0  0  0  0  0  0  0  0  0
   -1.1005   18.3430  -34.6055 H   0  0  0  0  0  0  0  0  0  0  0  0
    1.0744   17.9728  -35.8554 H   0  0  0  0  0  0  0  0  0  0  0  0
   -0.1210   19.0210  -36.7115 H   0  0  0  0  0  0  0  0  0  0  0  0
    1.5967   22.0148  -36.2216 H   0  0  0  0  0  0  0  0  0  0  0  0
    0.1582   21.1649  -36.9102 H   0  0  0  0  0  0  0  0  0  0  0  0
    0.7365   21.7586  -33.9662 H   0  0  0  0  0  0  0  0  0  0  0  0
   -0.5861   22.4301  -34.9907 H   0  0  0  0  0  0  0  0  0  0  0  0
   -6.6249   17.2582  -32.6698 H   0  0  0  0  0  0  0  0  0  0  0  0
   -8.8364   17.2263  -31.5160 H   0  0  0  0  0  0  0  0  0  0  0  0
  1  2  2  0
  2  3  1  0
  3  4  2  0
  4  5  1  0
  5  6  2  3
  6  7  1  0
  7  8  2  0
  8  9  1  0
  9 10  1  0
 10 11  1  0
 11 12  1  0
 12 13  1  0
 13 14  1  0
  8 15  1  0
 15 16  1  0
 16 17  1  0
 17 18  1  0
 18 19  1  0
 19 20  1  0
 20 21  1  0
 21 22  1  0
 16 23  2  0
  4 24  1  0
 24 25  2  0
 25  1  1  0
 23  6  1  0
 14  9  1  0
 22 17  1  0
  1 26  1  0
  2 27  1  0
  3 28  1  0
 10 29  1  0
 10 30  1  0
 11 31  1  0
 11 32  1  0
 13 33  1  0
 13 34  1  0
 14 35  1  0
 14 36  1  0
 15 37  1  0
 18 38  1  0
 18 39  1  0
 19 40  1  0
 19 41  1  0
 21 42  1  0
 21 43  1  0
 22 44  1  0
 22 45  1  0
 24 46  1  0
 25 47  1  0
M  END
>  <UniqueID>  (18) 
17

>  <SMILES>  (18) 
c1ccc(N=c2nc(N3CCOCC3)[nH]c(N3CCOCC3)n2)cc1

>  <Energy>  (18) 
62.899255598641325

>  <Genealogy>  (18) 
c1ccc(N=c2nc(N3CCOCC3)[nH]c(N3CCOCC3)n2)cc1 (3D coordinates assigned)
c1ccc(N=c2nc(N3CCOCC3)[nH]c(N3CCOCC3)n2)cc1 (nonaromatic ring conformer: 62.899255598641325 kcal/mol)

>  <smiles>  (18) 
c1ccc(N=c2nc(N3CCOCC3)[nH]c(N3CCOCC3)n2)cc1

>  <score_type>  (18) 
oracle

>  <origin>  (18) 
adgpu

>  <m_score__min__energy>  (18) 
-7.0099999999999998

>  <m_primary>  (18) 
energy

$$$$
18:0
     RDKit          3D

 25 26  0  0  1  0  0  0  0  0999 V2000
   -2.6300   23.6030  -27.7820 N   0  0  0  0  0  0  0  0  0  0  0  0
   -2.1400   24.1560  -26.8910 C   0  0  0  0  0  0  0  0  0  0  0  0
   -1.5570   24.8520  -25.8050 C   0  0  0  0  0  0  0  0  0  0  0  0
   -2.0660   26.1150  -25.5160 C   0  0  0  0  0  0  0  0  0  0  0  0
   -1.5570   26.8400  -24.4910 N   0  0  0  0  0  0  0  0  0  0  0  0
   -0.5520   26.3780  -23.7190 C   0  0  0  0  0  0  0  0  0  0  0  0
   -0.1220   27.1230  -22.7650 N   0  0  0  0  0  0  0  0  0  0  0  0
   -0.0500   25.1530  -23.9890 N   0  0  0  0  0  0  0  0  0  0  0  0
   -0.5400   24.4090  -25.0070 C   0  0  0  0  0  0  0  0  0  0  0  0
   -0.0360   23.2720  -25.2180 N   0  0  0  0  0  0  0  0  0  0  0  0
   -0.3800   22.3340  -26.2060 C   0  0  0  0  0  0  0  0  0  0  0  0
   -1.2380   21.3130  -25.8600 C   0  0  0  0  0  0  0  0  0  0  0  0
   -1.5190   20.3880  -26.8660 C   0  0  0  0  0  0  0  0  0  0  0  0
   -2.5920   19.0270  -26.5970 Cl  0  0  0  0  0  0  0  0  0  0  0  0
   -0.9640   20.4980  -28.1310 C   0  0  0  0  0  0  0  0  0  0  0  0
   -0.1010   21.5430  -28.4390 C   0  0  0  0  0  0  0  0  0  0  0  0
    0.1890   22.4720  -27.4550 C   0  0  0  0  0  0  0  0  0  0  0  0
    1.2830   23.8150  -27.8130 Cl  0  0  0  0  0  0  0  0  0  0  0  0
   -2.8858   26.5265  -26.1231 H   0  0  0  0  0  0  0  0  0  0  0  0
   -1.9850   27.7880  -24.3230 H   0  0  0  0  0  0  0  0  0  0  0  0
    0.6500   26.7490  -22.1830 H   0  0  0  0  0  0  0  0  0  0  0  0
    0.7350   24.7890  -23.3870 H   0  0  0  0  0  0  0  0  0  0  0  0
   -1.6742   21.2322  -24.8534 H   0  0  0  0  0  0  0  0  0  0  0  0
   -1.2091   19.7502  -28.8996 H   0  0  0  0  0  0  0  0  0  0  0  0
    0.3416   21.6297  -29.4423 H   0  0  0  0  0  0  0  0  0  0  0  0
  1  2  3  0
  2  3  1  0
  3  4  2  0
  4  5  1  0
  5  6  1  0
  6  7  2  3
  6  8  1  0
  8  9  1  0
  9 10  2  0
 10 11  1  0
 11 12  2  0
 12 13  1  0
 13 14  1  0
 13 15  2  0
 15 16  1  0
 16 17  2  0
 17 18  1  0
  9  3  1  0
 17 11  1  0
  4 19  1  0
  5 20  1  0
  7 21  1  0
  8 22  1  0
 12 23  1  0
 15 24  1  0
 16 25  1  0
M  END
>  <smiles>  (19) 
N#Cc1c[nH]c(=N)[nH]c1=Nc1cc(Cl)ccc1Cl

>  <score_type>  (19) 
oracle

>  <origin>  (19) 
adgpu

>  <m_score__min__energy>  (19) 
-6.7400000000000002

>  <m_primary>  (19) 
energy

$$$$
19:0
     RDKit          3D

 36 37  0  0  0  0  0  0  0  0999 V2000
   -9.1460   20.0050  -32.3270 C   0  0  0  0  0  0  0  0  0  0  0  0
   -8.7550   21.3300  -31.9830 O   0  0  0  0  0  0  0  0  0  0  0  0
   -7.4280   21.7830  -31.9580 C   0  0  0  0  0  0  0  0  0  0  0  0
   -6.4560   21.0320  -32.6330 C   0  0  0  0  0  0  0  0  0  0  0  0
   -5.1220   21.4460  -32.6440 C   0  0  0  0  0  0  0  0  0  0  0  0
   -4.7460   22.6140  -31.9790 C   0  0  0  0  0  0  0  0  0  0  0  0
   -5.7020   23.3750  -31.2970 C   0  0  0  0  0  0  0  0  0  0  0  0
   -5.2110   24.8560  -30.4800 S   0  0  0  0  0  0  0  0  0  0  0  0
   -5.7700   24.8470  -29.0860 O   0  0  0  0  0  0  0  0  0  0  0  0
   -5.7250   26.0710  -31.2020 O   0  0  0  0  0  0  0  0  0  0  0  0
   -3.4800   24.9300  -30.3990 N   0  0  0  0  0  0  0  0  0  0  0  0
   -2.6700   24.2610  -29.4210 C   0  0  0  0  0  0  0  0  0  0  0  0
   -1.5400   24.9190  -28.9290 C   0  0  0  0  0  0  0  0  0  0  0  0
   -0.7270   24.3120  -27.9710 C   0  0  0  0  0  0  0  0  0  0  0  0
   -1.0320   23.0320  -27.4820 C   0  0  0  0  0  0  0  0  0  0  0  0
   -0.1320   22.4010  -26.4520 C   0  0  0  0  0  0  0  0  0  0  0  0
   -2.1650   22.3500  -27.9850 C   0  0  0  0  0  0  0  0  0  0  0  0
   -2.5260   20.9700  -27.4980 C   0  0  0  0  0  0  0  0  0  0  0  0
   -2.9750   22.9720  -28.9510 C   0  0  0  0  0  0  0  0  0  0  0  0
   -7.0420   22.9590  -31.2850 C   0  0  0  0  0  0  0  0  0  0  0  0
   -9.3176   19.4234  -31.4092 H   0  0  0  0  0  0  0  0  0  0  0  0
  -10.0727   20.0381  -32.9188 H   0  0  0  0  0  0  0  0  0  0  0  0
   -8.3498   19.5297  -32.9188 H   0  0  0  0  0  0  0  0  0  0  0  0
   -6.7458   20.1098  -33.1579 H   0  0  0  0  0  0  0  0  0  0  0  0
   -4.3666   20.8505  -33.1776 H   0  0  0  0  0  0  0  0  0  0  0  0
   -3.6947   22.9374  -31.9910 H   0  0  0  0  0  0  0  0  0  0  0  0
   -1.2891   25.9238  -29.2998 H   0  0  0  0  0  0  0  0  0  0  0  0
    0.1611   24.8414  -27.5955 H   0  0  0  0  0  0  0  0  0  0  0  0
   -0.4936   22.6545  -25.4445 H   0  0  0  0  0  0  0  0  0  0  0  0
   -0.1382   21.3084  -26.5797 H   0  0  0  0  0  0  0  0  0  0  0  0
    0.8930   22.7793  -26.5797 H   0  0  0  0  0  0  0  0  0  0  0  0
   -2.5290   20.9585  -26.3981 H   0  0  0  0  0  0  0  0  0  0  0  0
   -3.5251   20.6995  -27.8703 H   0  0  0  0  0  0  0  0  0  0  0  0
   -1.7873   20.2449  -27.8703 H   0  0  0  0  0  0  0  0  0  0  0  0
   -3.8569   22.4443  -29.3432 H   0  0  0  0  0  0  0  0  0  0  0  0
   -7.7949   23.5541  -30.7474 H   0  0  0  0  0  0  0  0  0  0  0  0
  1  2  1  0
  2  3  1  0
  3  4  2  0
  4  5  1  0
  5  6  2  0
  6  7  1  0
  7  8  1  0
  8  9  2  0
  8 10  2  0
  8 11  1  0
 11 12  1  0
 12 13  2  0
 13 14  1  0
 14 15  2  0
 15 16  1  0
 15 17  1  0
 17 18  1  0
 17 19  2  0
  7 20  2  0
 20  3  1  0
 19 12  1  0
  1 21  1  0
  1 22  1  0
  1 23  1  0
  4 24  1  0
  5 25  1  0
  6 26  1  0
 13 27  1  0
 14 28  1  0
 16 29  1  0
 16 30  1  0
 16 31  1  0
 18 32  1  0
 18 33  1  0
 18 34  1  0
 19 35  1  0
 20 36  1  0
M  CHG  1  11  -1
M  END
>  <UniqueID>  (20) 
18

>  <SMILES>  (20) 
COc1cccc(S(=O)(=O)[N-]c2ccc(C)c(C)c2)c1

>  <Energy>  (20) 
38.42555118323416

>  <Genealogy>  (20) 
COc1cccc(S(=O)(=O)[N-]c2ccc(C)c(C)c2)c1 (protonated)
COc1cccc(S(=O)(=O)[N-]c2ccc(C)c(C)c2)c1 (3D coordinates assigned)
COc1cccc(S(=O)(=O)[N-]c2ccc(C)c(C)c2)c1 (optimized conformer: 38.42555118323416 kcal/mol)

>  <smiles>  (20) 
COc1cccc(S(=O)(=O)Nc2ccc(C)c(C)c2)c1

>  <score_type>  (20) 
oracle

>  <origin>  (20) 
adgpu

>  <m_score__min__energy>  (20) 
-8.7100000000000009

>  <m_primary>  (20) 
energy

$$$$
20:0
     RDKit          3D

 41 44  0  0  0  0  0  0  0  0999 V2000
   -0.0460   22.2980  -27.3670 C   0  0  0  0  0  0  0  0  0  0  0  0
   -0.0760   22.5540  -28.7400 C   0  0  0  0  0  0  0  0  0  0  0  0
   -1.2370   22.3000  -29.4750 C   0  0  0  0  0  0  0  0  0  0  0  0
   -2.3780   21.7690  -28.8480 C   0  0  0  0  0  0  0  0  0  0  0  0
   -3.6250   21.5460  -29.6730 C   0  0  0  0  0  0  0  0  0  0  0  0
   -4.0430   22.7500  -30.4030 N   0  0  0  0  0  0  0  0  0  0  0  0
   -4.6800   22.8160  -31.5910 C   0  0  0  0  0  0  0  0  0  0  0  0
   -5.0110   21.4240  -32.6780 S   0  0  0  0  0  0  0  0  0  0  0  0
   -6.7550   21.3570  -32.2630 C   0  0  0  0  0  0  0  0  0  0  0  0
   -7.4420   22.5330  -31.9390 C   0  0  0  0  0  0  0  0  0  0  0  0
   -8.8050   22.4860  -31.6270 C   0  0  0  0  0  0  0  0  0  0  0  0
   -9.4800   21.2620  -31.6240 C   0  0  0  0  0  0  0  0  0  0  0  0
   -8.7890   20.0810  -31.9150 C   0  0  0  0  0  0  0  0  0  0  0  0
   -7.4260   20.1270  -32.2270 C   0  0  0  0  0  0  0  0  0  0  0  0
   -5.0270   24.0790  -31.8990 N   0  0  0  0  0  0  0  0  0  0  0  0
   -4.6290   24.8450  -30.8960 N   0  0  0  0  0  0  0  0  0  0  0  0
   -4.0230   24.0420  -30.0000 C   0  0  0  0  0  0  0  0  0  0  0  0
   -3.4910   24.5400  -28.7220 C   0  0  0  0  0  0  0  0  0  0  0  0
   -4.2380   24.4510  -27.5390 C   0  0  0  0  0  0  0  0  0  0  0  0
   -3.6860   24.9170  -26.3430 C   0  0  0  0  0  0  0  0  0  0  0  0
   -2.3950   25.4480  -26.3340 C   0  0  0  0  0  0  0  0  0  0  0  0
   -1.6690   25.4950  -27.5260 C   0  0  0  0  0  0  0  0  0  0  0  0
   -2.2250   25.0400  -28.6810 N   0  0  0  0  0  0  0  0  0  0  0  0
   -2.3450   21.5400  -27.4580 C   0  0  0  0  0  0  0  0  0  0  0  0
   -1.1810   21.7950  -26.7260 C   0  0  0  0  0  0  0  0  0  0  0  0
    0.8707   22.4923  -26.7909 H   0  0  0  0  0  0  0  0  0  0  0  0
    0.8156   22.9561  -29.2433 H   0  0  0  0  0  0  0  0  0  0  0  0
   -1.2585   22.5173  -30.5531 H   0  0  0  0  0  0  0  0  0  0  0  0
   -3.4277   20.7442  -30.3998 H   0  0  0  0  0  0  0  0  0  0  0  0
   -4.4375   21.2769  -28.9820 H   0  0  0  0  0  0  0  0  0  0  0  0
   -6.9093   23.4954  -31.9297 H   0  0  0  0  0  0  0  0  0  0  0  0
   -9.3457   23.4126  -31.3840 H   0  0  0  0  0  0  0  0  0  0  0  0
  -10.5549   21.2274  -31.3927 H   0  0  0  0  0  0  0  0  0  0  0  0
   -9.3173   19.1163  -31.8985 H   0  0  0  0  0  0  0  0  0  0  0  0
   -6.8804   19.1969  -32.4443 H   0  0  0  0  0  0  0  0  0  0  0  0
   -5.2493   24.0183  -27.5522 H   0  0  0  0  0  0  0  0  0  0  0  0
   -4.2674   24.8656  -25.4106 H   0  0  0  0  0  0  0  0  0  0  0  0
   -1.9548   25.8249  -25.3990 H   0  0  0  0  0  0  0  0  0  0  0  0
   -0.6464   25.9004  -27.5309 H   0  0  0  0  0  0  0  0  0  0  0  0
   -3.2404   21.1583  -26.9455 H   0  0  0  0  0  0  0  0  0  0  0  0
   -1.1590   21.5992  -25.6438 H   0  0  0  0  0  0  0  0  0  0  0  0
  1  2  2  0
  2  3  1  0
  3  4  2  0
  4  5  1  0
  5  6  1  0
  6  7  1  0
  7  8  1  0
  8  9  1  0
  9 10  2  0
 10 11  1  0
 11 12  2  0
 12 13  1  0
 13 14  2  0
  7 15  2  0
 15 16  1  0
 16 17  2  0
 17 18  1  0
 18 19  2  0
 19 20  1  0
 20 21  2  0
 21 22  1  0
 22 23  2  0
  4 24  1  0
 24 25  2  0
 25  1  1  0
 17  6  1  0
 23 18  1  0
 14  9  1  0
  1 26  1  0
  2 27  1  0
  3 28  1  0
  5 29  1  0
  5 30  1  0
 10 31  1  0
 11 32  1  0
 12 33  1  0
 13 34  1  0
 14 35  1  0
 19 36  1  0
 20 37  1  0
 21 38  1  0
 22 39  1  0
 24 40  1  0
 25 41  1  0
M  END
>  <UniqueID>  (21) 
19

>  <SMILES>  (21) 
c1ccc(Cn2c(Sc3ccccc3)nnc2-c2ccccn2)cc1

>  <Energy>  (21) 
81.17110470873486

>  <Genealogy>  (21) 
c1ccc(Cn2c(Sc3ccccc3)nnc2-c2ccccn2)cc1 (3D coordinates assigned)
c1ccc(Cn2c(Sc3ccccc3)nnc2-c2ccccn2)cc1 (optimized conformer: 81.17110470873486 kcal/mol)

>  <smiles>  (21) 
c1ccc(Cn2c(Sc3ccccc3)nnc2-c2ccccn2)cc1

>  <score_type>  (21) 
oracle

>  <origin>  (21) 
adgpu

>  <m_score__min__energy>  (21) 
-8.8900000000000006

>  <m_primary>  (21) 
energy

$$$$
21:0
     RDKit          3D

 36 38  0  0  1  0  0  0  0  0999 V2000
   -1.7260   24.4410  -28.9100 C   0  0  0  0  0  0  0  0  0  0  0  0
   -2.7430   24.9560  -29.7190 O   0  0  0  0  0  0  0  0  0  0  0  0
   -4.0060   24.4160  -29.8720 C   0  0  0  0  0  0  0  0  0  0  0  0
   -4.4420   23.2750  -29.2580 C   0  0  0  0  0  0  0  0  0  0  0  0
   -5.7140   22.7620  -29.4340 C   0  0  0  0  0  0  0  0  0  0  0  0
   -6.5670   23.4500  -30.2740 C   0  0  0  0  0  0  0  0  0  0  0  0
   -7.9060   23.0110  -30.5280 N   0  0  0  0  0  0  0  0  0  0  0  0
   -8.0560   21.9840  -31.3010 C   0  0  0  0  0  0  0  0  0  0  0  0
   -9.3460   21.5600  -31.5480 C   0  0  0  0  0  0  0  0  0  0  0  0
   -9.4920   20.4620  -32.3760 C   0  0  0  0  0  0  0  0  0  0  0  0
   -8.3960   19.8700  -32.8920 N   0  0  0  0  0  0  0  0  0  0  0  0
   -7.1460   20.2890  -32.6480 C   0  0  0  0  0  0  0  0  0  0  0  0
   -5.9570   19.6530  -33.2030 C   0  0  0  0  0  0  0  0  0  0  0  0
   -6.0720   18.5110  -34.0060 C   0  0  0  0  0  0  0  0  0  0  0  0
   -4.9660   17.8880  -34.5450 C   0  0  0  0  0  0  0  0  0  0  0  0
   -3.6950   18.3680  -34.3150 C   0  0  0  0  0  0  0  0  0  0  0  0
   -3.5550   19.4910  -33.5260 C   0  0  0  0  0  0  0  0  0  0  0  0
   -4.6870   20.1120  -32.9870 C   0  0  0  0  0  0  0  0  0  0  0  0
   -6.9990   21.3540  -31.8450 N   0  0  0  0  0  0  0  0  0  0  0  0
   -6.1470   24.6100  -30.9070 C   0  0  0  0  0  0  0  0  0  0  0  0
   -4.8700   25.1120  -30.7210 C   0  0  0  0  0  0  0  0  0  0  0  0
   -1.9947   24.5771  -27.8520 H   0  0  0  0  0  0  0  0  0  0  0  0
   -1.5973   23.3691  -29.1207 H   0  0  0  0  0  0  0  0  0  0  0  0
   -0.7857   24.9716  -29.1207 H   0  0  0  0  0  0  0  0  0  0  0  0
   -3.7484   22.7399  -28.5927 H   0  0  0  0  0  0  0  0  0  0  0  0
   -6.0340   21.8412  -28.9244 H   0  0  0  0  0  0  0  0  0  0  0  0
  -10.2153   22.0704  -31.1079 H   0  0  0  0  0  0  0  0  0  0  0  0
  -10.4942   20.0747  -32.6117 H   0  0  0  0  0  0  0  0  0  0  0  0
   -8.5550   19.0530  -33.5050 H   0  0  0  0  0  0  0  0  0  0  0  0
   -7.0713   18.1001  -34.2122 H   0  0  0  0  0  0  0  0  0  0  0  0
   -5.1008   16.9924  -35.1693 H   0  0  0  0  0  0  0  0  0  0  0  0
   -2.8158   17.8692  -34.7488 H   0  0  0  0  0  0  0  0  0  0  0  0
   -2.5539   19.8980  -33.3208 H   0  0  0  0  0  0  0  0  0  0  0  0
   -4.5496   21.0074  -32.3630 H   0  0  0  0  0  0  0  0  0  0  0  0
   -6.8433   25.1429  -31.5712 H   0  0  0  0  0  0  0  0  0  0  0  0
   -4.5450   26.0328  -31.2274 H   0  0  0  0  0  0  0  0  0  0  0  0
  1  2  1  0
  2  3  1  0
  3  4  2  0
  4  5  1  0
  5  6  2  0
  6  7  1  0
  7  8  2  0
  8  9  1  0
  9 10  2  0
 10 11  1  0
 11 12  1  0
 12 13  1  0
 13 14  2  0
 14 15  1  0
 15 16  2  0
 16 17  1  0
 17 18  2  0
 12 19  2  0
  6 20  1  0
 20 21  2  0
 21  3  1  0
 19  8  1  0
 18 13  1  0
  1 22  1  0
  1 23  1  0
  1 24  1  0
  4 25  1  0
  5 26  1  0
  9 27  1  0
 10 28  1  0
 11 29  1  0
 14 30  1  0
 15 31  1  0
 16 32  1  0
 17 33  1  0
 18 34  1  0
 20 35  1  0
 21 36  1  0
M  END
>  <smiles>  (22) 
COc1ccc(N=c2cc[nH]c(-c3ccccc3)n2)cc1

>  <score_type>  (22) 
oracle

>  <origin>  (22) 
adgpu

>  <m_score__min__energy>  (22) 
-8.5899999999999999

>  <m_primary>  (22) 
energy

$$$$
22:0
     RDKit          3D

 31 31  0  0  0  0  0  0  0  0999 V2000
   -3.3040   20.1530  -33.1700 C   0  0  0  0  0  0  0  0  0  0  0  0
   -4.4450   19.1870  -33.4770 C   0  0  0  0  0  0  0  0  0  0  0  0
   -5.3460   19.0660  -32.3120 N   0  0  0  0  0  0  0  0  0  0  0  0
   -5.6530   17.6530  -32.0030 C   0  0  0  0  0  0  0  0  0  0  0  0
   -6.2800   16.9800  -33.2190 C   0  0  0  0  0  0  0  0  0  0  0  0
   -6.8220   19.9620  -32.6140 S   0  0  0  0  0  0  0  0  0  0  0  0
   -7.0480   20.0430  -34.1000 O   0  0  0  0  0  0  0  0  0  0  0  0
   -7.9910   19.2690  -31.9720 O   0  0  0  0  0  0  0  0  0  0  0  0
   -6.7020   21.5930  -31.9350 C   0  0  0  0  0  0  0  0  0  0  0  0
   -5.4350   22.1250  -31.6460 C   0  0  0  0  0  0  0  0  0  0  0  0
   -5.3000   23.4180  -31.1080 C   0  0  0  0  0  0  0  0  0  0  0  0
   -3.9970   23.9640  -30.8260 N   0  0  0  0  0  0  0  0  0  0  0  0
   -2.9800   23.2420  -30.8720 O   0  0  0  0  0  0  0  0  0  0  0  0
   -3.8520   25.2940  -30.5040 O   0  0  0  0  0  0  0  0  0  0  0  0
   -6.4550   24.1700  -30.8470 C   0  0  0  0  0  0  0  0  0  0  0  0
   -7.7190   23.6390  -31.1100 C   0  0  0  0  0  0  0  0  0  0  0  0
   -7.8530   22.3550  -31.6470 C   0  0  0  0  0  0  0  0  0  0  0  0
   -9.4780   21.7350  -31.9150 Cl  0  0  0  0  0  0  0  0  0  0  0  0
   -3.1891   20.2503  -32.0803 H   0  0  0  0  0  0  0  0  0  0  0  0
   -2.3699   19.7670  -33.6042 H   0  0  0  0  0  0  0  0  0  0  0  0
   -3.5306   21.1380  -33.6042 H   0  0  0  0  0  0  0  0  0  0  0  0
   -5.0158   19.5627  -34.3390 H   0  0  0  0  0  0  0  0  0  0  0  0
   -4.0226   18.1973  -33.7053 H   0  0  0  0  0  0  0  0  0  0  0  0
   -4.7243   17.1284  -31.7342 H   0  0  0  0  0  0  0  0  0  0  0  0
   -6.3603   17.6118  -31.1616 H   0  0  0  0  0  0  0  0  0  0  0  0
   -6.9946   16.2130  -32.8858 H   0  0  0  0  0  0  0  0  0  0  0  0
   -6.8060   17.7330  -33.8243 H   0  0  0  0  0  0  0  0  0  0  0  0
   -5.4917   16.5085  -33.8243 H   0  0  0  0  0  0  0  0  0  0  0  0
   -4.5359   21.5227  -31.8429 H   0  0  0  0  0  0  0  0  0  0  0  0
   -6.3641   25.1848  -30.4324 H   0  0  0  0  0  0  0  0  0  0  0  0
   -8.6172   24.2358  -30.8929 H   0  0  0  0  0  0  0  0  0  0  0  0
  1  2  1  0
  2  3  1  0
  3  4  1  0
  4  5  1  0
  3  6  1  0
  6  7  2  0
  6  8  2  0
  6  9  1  0
  9 10  2  0
 10 11  1  0
 11 12  1  0
 12 13  2  0
 12 14  1  0
 11 15  2  0
 15 16  1  0
 16 17  2  0
 17 18  1  0
 17  9  1  0
  1 19  1  0
  1 20  1  0
  1 21  1  0
  2 22  1  0
  2 23  1  0
  4 24  1  0
  4 25  1  0
  5 26  1  0
  5 27  1  0
  5 28  1  0
 10 29  1  0
 15 30  1  0
 16 31  1  0
M  CHG  2  12   1  14  -1
M  END
>  <UniqueID>  (23) 
20

>  <SMILES>  (23) 
CCN(CC)S(=O)(=O)c1cc([N+](=O)[O-])ccc1Cl

>  <Energy>  (23) 
28.79867667258072

>  <Genealogy>  (23) 
CCN(CC)S(=O)(=O)c1cc([N+](=O)[O-])ccc1Cl (3D coordinates assigned)
CCN(CC)S(=O)(=O)c1cc([N+](=O)[O-])ccc1Cl (optimized conformer: 28.79867667258072 kcal/mol)

>  <smiles>  (23) 
CCN(CC)S(=O)(=O)c1cc([N+](=O)[O-])ccc1Cl

>  <score_type>  (23) 
oracle

>  <origin>  (23) 
adgpu

>  <m_score__min__energy>  (23) 
-7.5199999999999996

>  <m_primary>  (23) 
energy

$$$$
23:0
     RDKit          3D

 37 38  0  0  0  0  0  0  0  0999 V2000
   -2.9700   21.7000  -27.8570 C   0  0  0  0  0  0  0  0  0  0  0  0
   -4.2480   22.3420  -28.3870 C   0  0  0  0  0  0  0  0  0  0  0  0
   -4.0500   23.7770  -28.6180 N   0  0  0  0  0  0  0  0  0  0  0  0
   -3.1680   24.5450  -27.7800 C   0  0  0  0  0  0  0  0  0  0  0  0
   -1.8990   24.9270  -28.2400 C   0  0  0  0  0  0  0  0  0  0  0  0
   -1.0420   25.6630  -27.4180 C   0  0  0  0  0  0  0  0  0  0  0  0
   -1.4360   26.0270  -26.1240 C   0  0  0  0  0  0  0  0  0  0  0  0
   -0.5390   26.7670  -25.3380 O   0  0  0  0  0  0  0  0  0  0  0  0
   -0.5480   26.7900  -23.9160 C   0  0  0  0  0  0  0  0  0  0  0  0
   -2.7070   25.6420  -25.6600 C   0  0  0  0  0  0  0  0  0  0  0  0
   -3.5650   24.9070  -26.4830 C   0  0  0  0  0  0  0  0  0  0  0  0
   -4.8970   24.5510  -29.9260 S   0  0  0  0  0  0  0  0  0  0  0  0
   -5.8460   25.5670  -29.3550 O   0  0  0  0  0  0  0  0  0  0  0  0
   -3.9260   25.2420  -30.8420 O   0  0  0  0  0  0  0  0  0  0  0  0
   -5.7730   23.3400  -30.8560 C   0  0  0  0  0  0  0  0  0  0  0  0
   -5.0650   22.4370  -31.6620 C   0  0  0  0  0  0  0  0  0  0  0  0
   -5.7520   21.4700  -32.4030 C   0  0  0  0  0  0  0  0  0  0  0  0
   -7.1470   21.4050  -32.3460 C   0  0  0  0  0  0  0  0  0  0  0  0
   -7.8560   22.3060  -31.5470 C   0  0  0  0  0  0  0  0  0  0  0  0
   -7.1720   23.2740  -30.8040 C   0  0  0  0  0  0  0  0  0  0  0  0
   -2.9848   21.7074  -26.7571 H   0  0  0  0  0  0  0  0  0  0  0  0
   -2.9049   20.6622  -28.2158 H   0  0  0  0  0  0  0  0  0  0  0  0
   -2.0986   22.2673  -28.2158 H   0  0  0  0  0  0  0  0  0  0  0  0
   -4.5286   21.8590  -29.3346 H   0  0  0  0  0  0  0  0  0  0  0  0
   -5.0456   22.2106  -27.6409 H   0  0  0  0  0  0  0  0  0  0  0  0
   -1.5769   24.6455  -29.2534 H   0  0  0  0  0  0  0  0  0  0  0  0
   -0.0500   25.9590  -27.7899 H   0  0  0  0  0  0  0  0  0  0  0  0
   -0.1725   25.8303  -23.5314 H   0  0  0  0  0  0  0  0  0  0  0  0
    0.0972   27.6060  -23.5584 H   0  0  0  0  0  0  0  0  0  0  0  0
   -1.5756   26.9515  -23.5584 H   0  0  0  0  0  0  0  0  0  0  0  0
   -3.0270   25.9206  -24.6451 H   0  0  0  0  0  0  0  0  0  0  0  0
   -4.5572   24.6104  -26.1122 H   0  0  0  0  0  0  0  0  0  0  0  0
   -3.9674   22.4893  -31.7116 H   0  0  0  0  0  0  0  0  0  0  0  0
   -5.1940   20.7600  -33.0312 H   0  0  0  0  0  0  0  0  0  0  0  0
   -7.6867   20.6448  -32.9299 H   0  0  0  0  0  0  0  0  0  0  0  0
   -8.9539   22.2540  -31.5022 H   0  0  0  0  0  0  0  0  0  0  0  0
   -7.7327   23.9840  -30.1783 H   0  0  0  0  0  0  0  0  0  0  0  0
  1  2  1  0
  2  3  1  0
  3  4  1  0
  4  5  2  0
  5  6  1  0
  6  7  2  0
  7  8  1  0
  8  9  1  0
  7 10  1  0
 10 11  2  0
  3 12  1  0
 12 13  2  0
 12 14  2  0
 12 15  1  0
 15 16  2  0
 16 17  1  0
 17 18  2  0
 18 19  1  0
 19 20  2  0
 11  4  1  0
 20 15  1  0
  1 21  1  0
  1 22  1  0
  1 23  1  0
  2 24  1  0
  2 25  1  0
  5 26  1  0
  6 27  1  0
  9 28  1  0
  9 29  1  0
  9 30  1  0
 10 31  1  0
 11 32  1  0
 16 33  1  0
 17 34  1  0
 18 35  1  0
 19 36  1  0
 20 37  1  0
M  END
>  <UniqueID>  (24) 
21

>  <SMILES>  (24) 
CCN(c1ccc(OC)cc1)S(=O)(=O)c1ccccc1

>  <Energy>  (24) 
38.61011162049475

>  <Genealogy>  (24) 
CCN(c1ccc(OC)cc1)S(=O)(=O)c1ccccc1 (3D coordinates assigned)
CCN(c1ccc(OC)cc1)S(=O)(=O)c1ccccc1 (optimized conformer: 38.61011162049475 kcal/mol)

>  <smiles>  (24) 
CCN(c1ccc(OC)cc1)S(=O)(=O)c1ccccc1

>  <score_type>  (24) 
oracle

>  <origin>  (24) 
adgpu

>  <m_score__min__energy>  (24) 
-7.0199999999999996

>  <m_primary>  (24) 
energy

$$$$
24:0
     RDKit          3D

 27 28  0  0  0  0  0  0  0  0999 V2000
   -3.1070   24.9760  -29.5340 F   0  0  0  0  0  0  0  0  0  0  0  0
   -4.2380   24.5130  -30.1210 C   0  0  0  0  0  0  0  0  0  0  0  0
   -5.4800   25.0340  -29.7510 C   0  0  0  0  0  0  0  0  0  0  0  0
   -6.6450   24.5560  -30.3540 C   0  0  0  0  0  0  0  0  0  0  0  0
   -6.5720   23.5560  -31.3300 C   0  0  0  0  0  0  0  0  0  0  0  0
   -5.3250   23.0270  -31.7150 C   0  0  0  0  0  0  0  0  0  0  0  0
   -5.2090   21.9990  -32.7180 N   0  0  0  0  0  0  0  0  0  0  0  0
   -5.1440   20.5650  -32.4300 C   0  0  0  0  0  0  0  0  0  0  0  0
   -6.5270   19.9820  -32.3080 C   0  0  0  0  0  0  0  0  0  0  0  0
   -7.6560   20.8070  -32.4470 C   0  0  0  0  0  0  0  0  0  0  0  0
   -8.9420   20.2680  -32.3410 C   0  0  0  0  0  0  0  0  0  0  0  0
   -9.1100   18.9020  -32.1040 C   0  0  0  0  0  0  0  0  0  0  0  0
   -7.9940   18.0710  -31.9770 C   0  0  0  0  0  0  0  0  0  0  0  0
   -6.7060   18.6060  -32.0830 C   0  0  0  0  0  0  0  0  0  0  0  0
   -4.1600   23.5130  -31.0960 C   0  0  0  0  0  0  0  0  0  0  0  0
   -5.5403   25.8208  -28.9846 H   0  0  0  0  0  0  0  0  0  0  0  0
   -7.6226   24.9665  -30.0611 H   0  0  0  0  0  0  0  0  0  0  0  0
   -7.4936   23.1811  -31.7991 H   0  0  0  0  0  0  0  0  0  0  0  0
   -5.2120   22.2820  -33.7240 H   0  0  0  0  0  0  0  0  0  0  0  0
   -4.6089   20.0570  -33.2459 H   0  0  0  0  0  0  0  0  0  0  0  0
   -4.6144   20.4200  -31.4769 H   0  0  0  0  0  0  0  0  0  0  0  0
   -7.5276   21.8823  -32.6402 H   0  0  0  0  0  0  0  0  0  0  0  0
   -9.8217   20.9203  -32.4443 H   0  0  0  0  0  0  0  0  0  0  0  0
  -10.1221   18.4798  -32.0172 H   0  0  0  0  0  0  0  0  0  0  0  0
   -8.1285   16.9948  -31.7934 H   0  0  0  0  0  0  0  0  0  0  0  0
   -5.8298   17.9475  -31.9899 H   0  0  0  0  0  0  0  0  0  0  0  0
   -3.1795   23.1037  -31.3806 H   0  0  0  0  0  0  0  0  0  0  0  0
  1  2  1  0
  2  3  2  0
  3  4  1  0
  4  5  2  0
  5  6  1  0
  6  7  1  0
  7  8  1  0
  8  9  1  0
  9 10  2  0
 10 11  1  0
 11 12  2  0
 12 13  1  0
 13 14  2  0
  6 15  2  0
 15  2  1  0
 14  9  1  0
  3 16  1  0
  4 17  1  0
  5 18  1  0
  7 19  1  0
  8 20  1  0
  8 21  1  0
 10 22  1  0
 11 23  1  0
 12 24  1  0
 13 25  1  0
 14 26  1  0
 15 27  1  0
M  END
>  <UniqueID>  (25) 
22

>  <SMILES>  (25) 
Fc1cccc(NCc2ccccc2)c1

>  <Energy>  (25) 
26.861281458999365

>  <Genealogy>  (25) 
Fc1cccc(NCc2ccccc2)c1 (3D coordinates assigned)
Fc1cccc(NCc2ccccc2)c1 (optimized conformer: 26.861281458999365 kcal/mol)

>  <smiles>  (25) 
Fc1cccc(NCc2ccccc2)c1

>  <score_type>  (25) 
oracle

>  <origin>  (25) 
adgpu

>  <m_score__min__energy>  (25) 
-6.5099999999999998

>  <m_primary>  (25) 
energy

$$$$
25:0
     RDKit          3D

 16 17  0  0  0  0  0  0  0  0999 V2000
   -3.4980   25.2980  -30.1720 F   0  0  0  0  0  0  0  0  0  0  0  0
   -4.5740   24.5220  -30.4530 C   0  0  0  0  0  0  0  0  0  0  0  0
   -5.8540   24.9300  -30.0550 C   0  0  0  0  0  0  0  0  0  0  0  0
   -6.9680   24.1340  -30.3400 C   0  0  0  0  0  0  0  0  0  0  0  0
   -6.8030   22.9260  -31.0260 C   0  0  0  0  0  0  0  0  0  0  0  0
   -7.8730   22.1380  -31.3130 N   0  0  0  0  0  0  0  0  0  0  0  0
   -7.7210   20.9630  -31.9790 C   0  0  0  0  0  0  0  0  0  0  0  0
   -9.1210   19.9720  -32.3330 Cl  0  0  0  0  0  0  0  0  0  0  0  0
   -6.4430   20.5550  -32.3780 C   0  0  0  0  0  0  0  0  0  0  0  0
   -5.3690   21.3380  -32.0940 N   0  0  0  0  0  0  0  0  0  0  0  0
   -5.5150   22.5140  -31.4280 C   0  0  0  0  0  0  0  0  0  0  0  0
   -4.4030   23.3140  -31.1390 C   0  0  0  0  0  0  0  0  0  0  0  0
   -5.9832   25.8803  -29.5162 H   0  0  0  0  0  0  0  0  0  0  0  0
   -7.9714   24.4569  -30.0256 H   0  0  0  0  0  0  0  0  0  0  0  0
   -6.3086   19.6063  -32.9182 H   0  0  0  0  0  0  0  0  0  0  0  0
   -3.3976   22.9941  -31.4502 H   0  0  0  0  0  0  0  0  0  0  0  0
  1  2  1  0
  2  3  2  0
  3  4  1  0
  4  5  2  0
  5  6  1  0
  6  7  2  0
  7  8  1  0
  7  9  1  0
  9 10  2  0
 10 11  1  0
 11 12  2  0
 12  2  1  0
 11  5  1  0
  3 13  1  0
  4 14  1  0
  9 15  1  0
 12 16  1  0
M  END
>  <UniqueID>  (26) 
23

>  <SMILES>  (26) 
Fc1ccc2nc(Cl)cnc2c1

>  <Energy>  (26) 
20.707251282383183

>  <Genealogy>  (26) 
Fc1ccc2nc(Cl)cnc2c1 (3D coordinates assigned)
Fc1ccc2nc(Cl)cnc2c1 (optimized conformer: 20.707251282383183 kcal/mol)

>  <smiles>  (26) 
Fc1ccc2nc(Cl)cnc2c1

>  <score_type>  (26) 
oracle

>  <origin>  (26) 
adgpu

>  <m_score__min__energy>  (26) 
-5.4199999999999999

>  <m_primary>  (26) 
energy

$$$$
26:0
     RDKit          3D

 33 34  0  0  0  0  0  0  0  0999 V2000
   -8.3940   20.2890  -32.6020 C   0  0  0  0  0  0  0  0  0  0  0  0
   -7.5720   21.3480  -31.9280 C   0  0  0  0  0  0  0  0  0  0  0  0
   -6.3110   21.6960  -32.4370 C   0  0  0  0  0  0  0  0  0  0  0  0
   -5.5300   22.6570  -31.7880 C   0  0  0  0  0  0  0  0  0  0  0  0
   -5.9960   23.2740  -30.6190 C   0  0  0  0  0  0  0  0  0  0  0  0
   -5.0050   24.4850  -29.8120 S   0  0  0  0  0  0  0  0  0  0  0  0
   -4.2680   25.2910  -30.8450 O   0  0  0  0  0  0  0  0  0  0  0  0
   -5.8830   25.4120  -29.0190 O   0  0  0  0  0  0  0  0  0  0  0  0
   -3.8650   23.7250  -28.7350 N   0  0  0  0  0  0  0  0  0  0  0  0
   -3.8680   22.2660  -28.6180 C   0  0  0  0  0  0  0  0  0  0  0  0
   -2.9380   24.5190  -27.9610 C   0  0  0  0  0  0  0  0  0  0  0  0
   -1.7190   24.9470  -28.5190 C   0  0  0  0  0  0  0  0  0  0  0  0
   -0.8280   25.7220  -27.7710 C   0  0  0  0  0  0  0  0  0  0  0  0
   -1.1430   26.0820  -26.4590 C   0  0  0  0  0  0  0  0  0  0  0  0
   -2.3510   25.6690  -25.8940 C   0  0  0  0  0  0  0  0  0  0  0  0
   -3.2460   24.8940  -26.6380 C   0  0  0  0  0  0  0  0  0  0  0  0
   -7.2460   22.9110  -30.0970 C   0  0  0  0  0  0  0  0  0  0  0  0
   -8.0280   21.9500  -30.7460 C   0  0  0  0  0  0  0  0  0  0  0  0
   -8.8805   19.6622  -31.8401 H   0  0  0  0  0  0  0  0  0  0  0  0
   -9.1615   20.7649  -33.2300 H   0  0  0  0  0  0  0  0  0  0  0  0
   -7.7426   19.6635  -33.2300 H   0  0  0  0  0  0  0  0  0  0  0  0
   -5.9358   21.2107  -33.3501 H   0  0  0  0  0  0  0  0  0  0  0  0
   -4.5458   22.9300  -32.1965 H   0  0  0  0  0  0  0  0  0  0  0  0
   -3.8686   21.9834  -27.5549 H   0  0  0  0  0  0  0  0  0  0  0  0
   -4.7670   21.8609  -29.1056 H   0  0  0  0  0  0  0  0  0  0  0  0
   -2.9707   21.8572  -29.1056 H   0  0  0  0  0  0  0  0  0  0  0  0
   -1.4651   24.6693  -29.5527 H   0  0  0  0  0  0  0  0  0  0  0  0
    0.1231   26.0489  -28.2167 H   0  0  0  0  0  0  0  0  0  0  0  0
   -0.4399   26.6905  -25.8712 H   0  0  0  0  0  0  0  0  0  0  0  0
   -2.5993   25.9540  -24.8610 H   0  0  0  0  0  0  0  0  0  0  0  0
   -4.1973   24.5748  -26.1873 H   0  0  0  0  0  0  0  0  0  0  0  0
   -7.6127   23.3837  -29.1739 H   0  0  0  0  0  0  0  0  0  0  0  0
   -9.0047   21.6651  -30.3277 H   0  0  0  0  0  0  0  0  0  0  0  0
  1  2  1  0
  2  3  2  0
  3  4  1  0
  4  5  2  0
  5  6  1  0
  6  7  2  0
  6  8  2  0
  6  9  1  0
  9 10  1  0
  9 11  1  0
 11 12  2  0
 12 13  1  0
 13 14  2  0
 14 15  1  0
 15 16  2  0
  5 17  1  0
 17 18  2  0
 18  2  1  0
 16 11  1  0
  1 19  1  0
  1 20  1  0
  1 21  1  0
  3 22  1  0
  4 23  1  0
 10 24  1  0
 10 25  1  0
 10 26  1  0
 12 27  1  0
 13 28  1  0
 14 29  1  0
 15 30  1  0
 16 31  1  0
 17 32  1  0
 18 33  1  0
M  END
>  <UniqueID>  (27) 
24

>  <SMILES>  (27) 
Cc1ccc(S(=O)(=O)N(C)c2ccccc2)cc1

>  <Energy>  (27) 
36.662039050111105

>  <Genealogy>  (27) 
Cc1ccc(S(=O)(=O)N(C)c2ccccc2)cc1 (3D coordinates assigned)
Cc1ccc(S(=O)(=O)N(C)c2ccccc2)cc1 (optimized conformer: 36.662039050111105 kcal/mol)

>  <smiles>  (27) 
Cc1ccc(S(=O)(=O)N(C)c2ccccc2)cc1

>  <score_type>  (27) 
oracle

>  <origin>  (27) 
adgpu

>  <m_score__min__energy>  (27) 
-7.5300000000000002

>  <m_primary>  (27) 
energy

$$$$
27:0
     RDKit          3D

 19 20  0  0  0  0  0  0  0  0999 V2000
   -8.4320   20.2150  -32.4440 C   0  0  0  0  0  0  0  0  0  0  0  0
   -9.1190   21.1880  -31.7170 C   0  0  0  0  0  0  0  0  0  0  0  0
   -8.4380   22.3040  -31.2220 C   0  0  0  0  0  0  0  0  0  0  0  0
   -7.0570   22.4600  -31.4480 C   0  0  0  0  0  0  0  0  0  0  0  0
   -6.3520   23.6530  -30.9130 C   0  0  0  0  0  0  0  0  0  0  0  0
   -5.3700   24.2900  -31.5880 N   0  0  0  0  0  0  0  0  0  0  0  0
   -5.0000   25.2990  -30.7760 C   0  0  0  0  0  0  0  0  0  0  0  0
   -5.7560   25.2610  -29.6280 C   0  0  0  0  0  0  0  0  0  0  0  0
   -6.6050   24.2260  -29.7150 N   0  0  0  0  0  0  0  0  0  0  0  0
   -6.3760   21.4700  -32.1830 C   0  0  0  0  0  0  0  0  0  0  0  0
   -7.0620   20.3560  -32.6770 C   0  0  0  0  0  0  0  0  0  0  0  0
   -8.9690   19.3375  -32.8334 H   0  0  0  0  0  0  0  0  0  0  0  0
  -10.1978   21.0767  -31.5332 H   0  0  0  0  0  0  0  0  0  0  0  0
   -8.9862   23.0675  -30.6505 H   0  0  0  0  0  0  0  0  0  0  0  0
   -4.2156   26.0379  -30.9967 H   0  0  0  0  0  0  0  0  0  0  0  0
   -5.6779   25.9602  -28.7824 H   0  0  0  0  0  0  0  0  0  0  0  0
   -7.3040   23.9480  -28.9920 H   0  0  0  0  0  0  0  0  0  0  0  0
   -5.2970   21.5739  -32.3697 H   0  0  0  0  0  0  0  0  0  0  0  0
   -6.5213   19.5888  -33.2506 H   0  0  0  0  0  0  0  0  0  0  0  0
  1  2  2  0
  2  3  1  0
  3  4  2  0
  4  5  1  0
  5  6  2  0
  6  7  1  0
  7  8  2  0
  8  9  1  0
  4 10  1  0
 10 11  2  0
 11  1  1  0
  9  5  1  0
  1 12  1  0
  2 13  1  0
  3 14  1  0
  7 15  1  0
  8 16  1  0
  9 17  1  0
 10 18  1  0
 11 19  1  0
M  END
>  <UniqueID>  (28) 
25

>  <SMILES>  (28) 
c1ccc(-c2ncc[nH]2)cc1

>  <Energy>  (28) 
49.620669899351945

>  <Genealogy>  (28) 
c1ccc(-c2ncc[nH]2)cc1 (3D coordinates assigned)
c1ccc(-c2ncc[nH]2)cc1 (optimized conformer: 49.620669899351945 kcal/mol)

>  <smiles>  (28) 
c1ccc(-c2ncc[nH]2)cc1

>  <score_type>  (28) 
oracle

>  <origin>  (28) 
adgpu

>  <m_score__min__energy>  (28) 
-5.25

>  <m_primary>  (28) 
energy

$$$$
28:0
     RDKit          3D

 22 23  0  0  0  0  0  0  0  0999 V2000
   -3.8600   25.2980  -30.2420 N   0  0  0  0  0  0  0  0  0  0  0  0
   -4.7470   24.3670  -30.8620 C   0  0  0  0  0  0  0  0  0  0  0  0
   -6.1290   24.5730  -30.8300 C   0  0  0  0  0  0  0  0  0  0  0  0
   -6.9550   23.6360  -31.4500 C   0  0  0  0  0  0  0  0  0  0  0  0
   -8.2050   23.7880  -31.4420 O   0  0  0  0  0  0  0  0  0  0  0  0
   -6.4090   22.5550  -32.0650 N   0  0  0  0  0  0  0  0  0  0  0  0
   -5.0620   22.3600  -32.0910 C   0  0  0  0  0  0  0  0  0  0  0  0
   -4.4880   21.1710  -32.7690 C   0  0  0  0  0  0  0  0  0  0  0  0
   -5.3140   20.0990  -33.1590 C   0  0  0  0  0  0  0  0  0  0  0  0
   -4.7710   18.9800  -33.7970 C   0  0  0  0  0  0  0  0  0  0  0  0
   -3.3990   18.9180  -34.0540 C   0  0  0  0  0  0  0  0  0  0  0  0
   -2.5680   19.9730  -33.6740 C   0  0  0  0  0  0  0  0  0  0  0  0
   -3.1060   21.0950  -33.0350 C   0  0  0  0  0  0  0  0  0  0  0  0
   -4.2460   23.2700  -31.4890 N   0  0  0  0  0  0  0  0  0  0  0  0
   -4.0200   25.6220  -29.2620 H   0  0  0  0  0  0  0  0  0  0  0  0
   -3.0360   25.6670  -30.7660 H   0  0  0  0  0  0  0  0  0  0  0  0
   -6.5552   25.4538  -30.3274 H   0  0  0  0  0  0  0  0  0  0  0  0
   -6.3950   20.1426  -32.9600 H   0  0  0  0  0  0  0  0  0  0  0  0
   -5.4244   18.1475  -34.0970 H   0  0  0  0  0  0  0  0  0  0  0  0
   -2.9734   18.0368  -34.5563 H   0  0  0  0  0  0  0  0  0  0  0  0
   -1.4882   19.9221  -33.8774 H   0  0  0  0  0  0  0  0  0  0  0  0
   -2.4461   21.9235  -32.7381 H   0  0  0  0  0  0  0  0  0  0  0  0
  1  2  1  0
  2  3  2  0
  3  4  1  0
  4  5  2  0
  4  6  1  0
  6  7  2  0
  7  8  1  0
  8  9  2  0
  9 10  1  0
 10 11  2  0
 11 12  1  0
 12 13  2  0
  7 14  1  0
 14  2  1  0
 13  8  1  0
  1 15  1  0
  1 16  1  0
  3 17  1  0
  9 18  1  0
 10 19  1  0
 11 20  1  0
 12 21  1  0
 13 22  1  0
M  CHG  1  14  -1
M  END
>  <UniqueID>  (29) 
26

>  <SMILES>  (29) 
Nc1cc(=O)nc(-c2ccccc2)[n-]1

>  <Energy>  (29) 
24.066597712675744

>  <Genealogy>  (29) 
Nc1cc(=O)nc(-c2ccccc2)[n-]1 (protonated)
Nc1cc(=O)nc(-c2ccccc2)[n-]1 (3D coordinates assigned)
Nc1cc(=O)nc(-c2ccccc2)[n-]1 (optimized conformer: 24.066597712675744 kcal/mol)

>  <smiles>  (29) 
Nc1cc(=O)nc(-c2ccccc2)[nH]1

>  <score_type>  (29) 
oracle

>  <origin>  (29) 
adgpu

>  <m_score__min__energy>  (29) 
-6.9500000000000002

>  <m_primary>  (29) 
energy

$$$$
29:0
     RDKit          3D

 26 27  0  0  0  0  0  0  0  0999 V2000
   -1.6490   25.5540  -28.9600 O   0  0  0  0  0  0  0  0  0  0  0  0
   -2.7520   24.5390  -29.0400 S   0  0  0  0  0  0  0  0  0  0  0  0
   -3.5900   24.6250  -27.7930 O   0  0  0  0  0  0  0  0  0  0  0  0
   -3.7480   24.8910  -30.4150 N   0  0  0  0  0  0  0  0  0  0  0  0
   -4.8270   24.0730  -30.8900 C   0  0  0  0  0  0  0  0  0  0  0  0
   -4.6110   23.0040  -31.7820 C   0  0  0  0  0  0  0  0  0  0  0  0
   -5.6850   22.2310  -32.2310 C   0  0  0  0  0  0  0  0  0  0  0  0
   -6.9810   22.5110  -31.7960 C   0  0  0  0  0  0  0  0  0  0  0  0
   -7.2060   23.5670  -30.9100 C   0  0  0  0  0  0  0  0  0  0  0  0
   -6.1360   24.3470  -30.4560 C   0  0  0  0  0  0  0  0  0  0  0  0
   -6.4570   25.6710  -29.3450 Cl  0  0  0  0  0  0  0  0  0  0  0  0
   -2.0420   22.9370  -29.2010 C   0  0  0  0  0  0  0  0  0  0  0  0
   -2.1990   21.9860  -28.1820 C   0  0  0  0  0  0  0  0  0  0  0  0
   -1.6400   20.7120  -28.3190 C   0  0  0  0  0  0  0  0  0  0  0  0
   -0.9180   20.3820  -29.4710 C   0  0  0  0  0  0  0  0  0  0  0  0
   -0.3780   19.1450  -29.6000 F   0  0  0  0  0  0  0  0  0  0  0  0
   -0.7540   21.3300  -30.4870 C   0  0  0  0  0  0  0  0  0  0  0  0
   -0.0540   21.0140  -31.6050 F   0  0  0  0  0  0  0  0  0  0  0  0
   -1.3130   22.6040  -30.3520 C   0  0  0  0  0  0  0  0  0  0  0  0
   -3.5915   22.7767  -32.1268 H   0  0  0  0  0  0  0  0  0  0  0  0
   -5.5084   21.3996  -32.9292 H   0  0  0  0  0  0  0  0  0  0  0  0
   -7.8246   21.9006  -32.1506 H   0  0  0  0  0  0  0  0  0  0  0  0
   -8.2280   23.7866  -30.5676 H   0  0  0  0  0  0  0  0  0  0  0  0
   -2.7631   22.2431  -27.2733 H   0  0  0  0  0  0  0  0  0  0  0  0
   -1.7681   19.9675  -27.5194 H   0  0  0  0  0  0  0  0  0  0  0  0
   -1.1807   23.3481  -31.1513 H   0  0  0  0  0  0  0  0  0  0  0  0
  1  2  2  0
  2  3  2  0
  2  4  1  0
  4  5  1  0
  5  6  2  0
  6  7  1  0
  7  8  2  0
  8  9  1  0
  9 10  2  0
 10 11  1  0
  2 12  1  0
 12 13  2  0
 13 14  1  0
 14 15  2  0
 15 16  1  0
 15 17  1  0
 17 18  1  0
 17 19  2  0
 10  5  1  0
 19 12  1  0
  6 20  1  0
  7 21  1  0
  8 22  1  0
  9 23  1  0
 13 24  1  0
 14 25  1  0
 19 26  1  0
M  CHG  1   4  -1
M  END
>  <UniqueID>  (30) 
27

>  <SMILES>  (30) 
O=S(=O)([N-]c1ccccc1Cl)c1ccc(F)c(F)c1

>  <Energy>  (30) 
30.490948897773997

>  <Genealogy>  (30) 
O=S(=O)([N-]c1ccccc1Cl)c1ccc(F)c(F)c1 (protonated)
O=S(=O)([N-]c1ccccc1Cl)c1ccc(F)c(F)c1 (3D coordinates assigned)
O=S(=O)([N-]c1ccccc1Cl)c1ccc(F)c(F)c1 (optimized conformer: 30.490948897773997 kcal/mol)

>  <smiles>  (30) 
O=S(=O)(Nc1ccccc1Cl)c1ccc(F)c(F)c1

>  <score_type>  (30) 
oracle

>  <origin>  (30) 
adgpu

>  <m_score__min__energy>  (30) 
-7.9500000000000002

>  <m_primary>  (30) 
energy

$$$$
30:0
     RDKit          3D

 30 32  0  0  0  0  0  0  0  0999 V2000
   -4.3780   21.1930  -29.7030 H   0  0  0  0  0  0  0  0  0  0  0  0
   -3.7930   22.0310  -29.4940 N   0  0  0  0  0  0  0  0  0  0  0  0
   -4.1000   23.2150  -29.9230 C   0  0  0  0  0  0  0  0  0  0  0  0
   -5.1740   23.5350  -30.7340 C   0  0  0  0  0  0  0  0  0  0  0  0
   -6.2470   22.6580  -31.2440 C   0  0  0  0  0  0  0  0  0  0  0  0
   -7.5390   22.7810  -30.7090 C   0  0  0  0  0  0  0  0  0  0  0  0
   -7.7344   23.5189  -29.9170 H   0  0  0  0  0  0  0  0  0  0  0  0
   -8.5790   21.9720  -31.1760 C   0  0  0  0  0  0  0  0  0  0  0  0
   -9.5911   22.0823  -30.7596 H   0  0  0  0  0  0  0  0  0  0  0  0
   -8.3330   21.0240  -32.1710 C   0  0  0  0  0  0  0  0  0  0  0  0
   -9.1535   20.3923  -32.5421 H   0  0  0  0  0  0  0  0  0  0  0  0
   -7.0480   20.8760  -32.6960 C   0  0  0  0  0  0  0  0  0  0  0  0
   -6.8580   20.1228  -33.4748 H   0  0  0  0  0  0  0  0  0  0  0  0
   -5.9990   21.6830  -32.2350 C   0  0  0  0  0  0  0  0  0  0  0  0
   -4.3810   21.3900  -32.8670 Cl  0  0  0  0  0  0  0  0  0  0  0  0
   -4.9750   24.8670  -31.0520 C   0  0  0  0  0  0  0  0  0  0  0  0
   -5.6261   25.4682  -31.7036 H   0  0  0  0  0  0  0  0  0  0  0  0
   -3.8580   25.3150  -30.4390 N   0  0  0  0  0  0  0  0  0  0  0  0
   -3.3350   24.3130  -29.7450 N   0  0  0  0  0  0  0  0  0  0  0  0
   -2.1140   24.4320  -28.9890 C   0  0  0  0  0  0  0  0  0  0  0  0
   -2.0650   25.2770  -27.8660 C   0  0  0  0  0  0  0  0  0  0  0  0
   -2.9569   25.8510  -27.5745 H   0  0  0  0  0  0  0  0  0  0  0  0
   -0.8900   25.3920  -27.1180 C   0  0  0  0  0  0  0  0  0  0  0  0
   -0.8578   26.0625  -26.2466 H   0  0  0  0  0  0  0  0  0  0  0  0
    0.2430   24.6580  -27.4740 C   0  0  0  0  0  0  0  0  0  0  0  0
    1.1677   24.7538  -26.8860 H   0  0  0  0  0  0  0  0  0  0  0  0
    0.2020   23.8020  -28.5770 C   0  0  0  0  0  0  0  0  0  0  0  0
    1.0930   23.2191  -28.8533 H   0  0  0  0  0  0  0  0  0  0  0  0
   -0.9710   23.6850  -29.3310 C   0  0  0  0  0  0  0  0  0  0  0  0
   -1.0000   23.0056  -30.1956 H   0  0  0  0  0  0  0  0  0  0  0  0
  1  2  1  0
  2  3  2  0
  3  4  1  0
  4  5  1  0
  5  6  2  0
  6  7  1  0
  6  8  1  0
  8  9  1  0
  8 10  2  0
 10 11  1  0
 10 12  1  0
 12 13  1  0
 12 14  2  0
 14 15  1  0
  4 16  2  0
 16 17  1  0
 16 18  1  0
 18 19  1  0
 19 20  1  0
 20 21  2  0
 21 22  1  0
 21 23  1  0
 23 24  1  0
 23 25  2  0
 25 26  1  0
 25 27  1  0
 27 28  1  0
 27 29  2  0
 29 30  1  0
 19  3  1  0
 29 20  1  0
 14  5  1  0
M  CHG  1  18  -1
M  END
>  <UniqueID>  (31) 
28

>  <SMILES>  (31) 
[H]/N=c1\c(-c2ccccc2Cl)c[n-]n1-c1ccccc1

>  <Energy>  (31) 
77.28968709674827

>  <Genealogy>  (31) 
N=c1c(-c2ccccc2Cl)c[n-]n1-c1ccccc1 (protonated)
[H]/N=c1\c(-c2ccccc2Cl)c[n-]n1-c1ccccc1 (cis-trans isomerization)
[H]/N=c1\c(-c2ccccc2Cl)c[n-]n1-c1ccccc1 (3D coordinates assigned)
[H]/N=c1\c(-c2ccccc2Cl)c[n-]n1-c1ccccc1 (optimized conformer: 77.28968709674827 kcal/mol)

>  <smiles>  (31) 
N=c1c(-c2ccccc2Cl)c[nH]n1-c1ccccc1

>  <score_type>  (31) 
oracle

>  <origin>  (31) 
adgpu

>  <m_score__min__energy>  (31) 
-8.9900000000000002

>  <m_primary>  (31) 
energy

$$$$
31:0
     RDKit          3D

 34 35  0  0  0  0  0  0  0  0999 V2000
   -0.9500   26.1630  -27.8010 C   0  0  0  0  0  0  0  0  0  0  0  0
   -1.6130   25.6930  -28.9690 O   0  0  0  0  0  0  0  0  0  0  0  0
   -1.7800   24.3390  -29.3010 C   0  0  0  0  0  0  0  0  0  0  0  0
   -0.7060   23.4270  -29.2640 C   0  0  0  0  0  0  0  0  0  0  0  0
   -0.9130   22.0790  -29.5660 C   0  0  0  0  0  0  0  0  0  0  0  0
   -2.1860   21.6270  -29.9110 C   0  0  0  0  0  0  0  0  0  0  0  0
   -3.2570   22.5200  -29.9550 C   0  0  0  0  0  0  0  0  0  0  0  0
   -3.0650   23.8790  -29.6540 C   0  0  0  0  0  0  0  0  0  0  0  0
   -4.1700   24.7970  -29.6740 N   0  0  0  0  0  0  0  0  0  0  0  0
   -5.6490   24.4520  -30.5130 S   0  0  0  0  0  0  0  0  0  0  0  0
   -6.5480   25.6530  -30.4210 O   0  0  0  0  0  0  0  0  0  0  0  0
   -5.3610   24.1750  -31.9620 O   0  0  0  0  0  0  0  0  0  0  0  0
   -6.4850   23.0520  -29.7750 C   0  0  0  0  0  0  0  0  0  0  0  0
   -7.0630   22.1500  -30.8340 C   0  0  0  0  0  0  0  0  0  0  0  0
   -8.4540   22.0590  -31.0050 C   0  0  0  0  0  0  0  0  0  0  0  0
   -8.9930   21.1790  -31.9490 C   0  0  0  0  0  0  0  0  0  0  0  0
   -8.1470   20.3880  -32.7320 C   0  0  0  0  0  0  0  0  0  0  0  0
   -6.7610   20.4820  -32.5770 C   0  0  0  0  0  0  0  0  0  0  0  0
   -6.2200   21.3620  -31.6360 C   0  0  0  0  0  0  0  0  0  0  0  0
   -1.4736   25.7918  -26.9077 H   0  0  0  0  0  0  0  0  0  0  0  0
    0.0875   25.7976  -27.7962 H   0  0  0  0  0  0  0  0  0  0  0  0
   -0.9513   27.2630  -27.7962 H   0  0  0  0  0  0  0  0  0  0  0  0
    0.3011   23.7788  -28.9957 H   0  0  0  0  0  0  0  0  0  0  0  0
   -0.0702   21.3729  -29.5316 H   0  0  0  0  0  0  0  0  0  0  0  0
   -2.3461   20.5650  -30.1488 H   0  0  0  0  0  0  0  0  0  0  0  0
   -4.2592   22.1575  -30.2274 H   0  0  0  0  0  0  0  0  0  0  0  0
   -4.1880   25.5880  -28.9940 H   0  0  0  0  0  0  0  0  0  0  0  0
   -5.7654   22.4813  -29.1697 H   0  0  0  0  0  0  0  0  0  0  0  0
   -7.3063   23.4255  -29.1458 H   0  0  0  0  0  0  0  0  0  0  0  0
   -9.1227   22.6828  -30.3936 H   0  0  0  0  0  0  0  0  0  0  0  0
  -10.0835   21.1092  -32.0755 H   0  0  0  0  0  0  0  0  0  0  0  0
   -8.5720   19.6917  -33.4700 H   0  0  0  0  0  0  0  0  0  0  0  0
   -6.0956   19.8627  -33.1964 H   0  0  0  0  0  0  0  0  0  0  0  0
   -5.1285   21.4383  -31.5224 H   0  0  0  0  0  0  0  0  0  0  0  0
  1  2  1  0
  2  3  1  0
  3  4  2  0
  4  5  1  0
  5  6  2  0
  6  7  1  0
  7  8  2  0
  8  9  1  0
  9 10  1  0
 10 11  2  0
 10 12  2  0
 10 13  1  0
 13 14  1  0
 14 15  2  0
 15 16  1  0
 16 17  2  0
 17 18  1  0
 18 19  2  0
  8  3  1  0
 19 14  1  0
  1 20  1  0
  1 21  1  0
  1 22  1  0
  4 23  1  0
  5 24  1  0
  6 25  1  0
  7 26  1  0
  9 27  1  0
 13 28  1  0
 13 29  1  0
 15 30  1  0
 16 31  1  0
 17 32  1  0
 18 33  1  0
 19 34  1  0
M  END
>  <UniqueID>  (32) 
29

>  <SMILES>  (32) 
COc1ccccc1NS(=O)(=O)Cc1ccccc1

>  <Energy>  (32) 
30.673042410156185

>  <Genealogy>  (32) 
COc1ccccc1NS(=O)(=O)Cc1ccccc1 (3D coordinates assigned)
COc1ccccc1NS(=O)(=O)Cc1ccccc1 (optimized conformer: 30.673042410156185 kcal/mol)

>  <smiles>  (32) 
COc1ccccc1NS(=O)(=O)Cc1ccccc1

>  <score_type>  (32) 
oracle

>  <origin>  (32) 
adgpu

>  <m_score__min__energy>  (32) 
-7.8899999999999997

>  <m_primary>  (32) 
energy

$$$$
32:0
     RDKit          3D

 25 26  0  0  0  0  0  0  0  0999 V2000
   -5.8920   25.2930  -29.0820 F   0  0  0  0  0  0  0  0  0  0  0  0
   -5.2650   25.1110  -30.3030 C   0  0  0  0  0  0  0  0  0  0  0  0
   -3.9060   25.3000  -30.1230 F   0  0  0  0  0  0  0  0  0  0  0  0
   -5.7370   26.0540  -31.1970 F   0  0  0  0  0  0  0  0  0  0  0  0
   -5.5450   23.7310  -30.8440 C   0  0  0  0  0  0  0  0  0  0  0  0
   -6.8660   23.2900  -31.0200 C   0  0  0  0  0  0  0  0  0  0  0  0
   -7.1270   22.0290  -31.5650 C   0  0  0  0  0  0  0  0  0  0  0  0
   -6.0710   21.1910  -31.9630 C   0  0  0  0  0  0  0  0  0  0  0  0
   -6.3460   19.8510  -32.5430 C   0  0  0  0  0  0  0  0  0  0  0  0
   -5.6450   19.4040  -33.6790 C   0  0  0  0  0  0  0  0  0  0  0  0
   -5.9070   18.1420  -34.2230 C   0  0  0  0  0  0  0  0  0  0  0  0
   -6.8700   17.3150  -33.6400 C   0  0  0  0  0  0  0  0  0  0  0  0
   -7.5730   17.7470  -32.5140 C   0  0  0  0  0  0  0  0  0  0  0  0
   -7.3140   19.0070  -31.9660 C   0  0  0  0  0  0  0  0  0  0  0  0
   -4.7490   21.6450  -31.8120 C   0  0  0  0  0  0  0  0  0  0  0  0
   -4.4890   22.9070  -31.2670 C   0  0  0  0  0  0  0  0  0  0  0  0
   -7.7024   23.9415  -30.7269 H   0  0  0  0  0  0  0  0  0  0  0  0
   -8.1668   21.6902  -31.6832 H   0  0  0  0  0  0  0  0  0  0  0  0
   -4.8859   20.0515  -34.1422 H   0  0  0  0  0  0  0  0  0  0  0  0
   -5.3542   17.8007  -35.1106 H   0  0  0  0  0  0  0  0  0  0  0  0
   -7.0745   16.3227  -34.0684 H   0  0  0  0  0  0  0  0  0  0  0  0
   -8.3320   17.0950  -32.0571 H   0  0  0  0  0  0  0  0  0  0  0  0
   -7.8704   19.3412  -31.0779 H   0  0  0  0  0  0  0  0  0  0  0  0
   -3.9125   21.0029  -32.1248 H   0  0  0  0  0  0  0  0  0  0  0  0
   -3.4506   23.2563  -31.1691 H   0  0  0  0  0  0  0  0  0  0  0  0
  1  2  1  0
  2  3  1  0
  2  4  1  0
  2  5  1  0
  5  6  2  0
  6  7  1  0
  7  8  2  0
  8  9  1  0
  9 10  2  0
 10 11  1  0
 11 12  2  0
 12 13  1  0
 13 14  2  0
  8 15  1  0
 15 16  2  0
 16  5  1  0
 14  9  1  0
  6 17  1  0
  7 18  1  0
 10 19  1  0
 11 20  1  0
 12 21  1  0
 13 22  1  0
 14 23  1  0
 15 24  1  0
 16 25  1  0
M  END
>  <UniqueID>  (33) 
30

>  <SMILES>  (33) 
FC(F)(F)c1ccc(-c2ccccc2)cc1

>  <Energy>  (33) 
31.54971064649598

>  <Genealogy>  (33) 
FC(F)(F)c1ccc(-c2ccccc2)cc1 (3D coordinates assigned)
FC(F)(F)c1ccc(-c2ccccc2)cc1 (optimized conformer: 31.54971064649598 kcal/mol)

>  <smiles>  (33) 
FC(F)(F)c1ccc(-c2ccccc2)cc1

>  <score_type>  (33) 
oracle

>  <origin>  (33) 
adgpu

>  <m_score__min__energy>  (33) 
-6.0800000000000001

>  <m_primary>  (33) 
energy

$$$$
33:0
     RDKit          3D

 38 40  0  0  0  0  0  0  0  0999 V2000
   -3.8360   24.4020  -30.8070 O   0  0  0  0  0  0  0  0  0  0  0  0
   -3.4360   23.6810  -29.8520 C   0  0  0  0  0  0  0  0  0  0  0  0
   -3.2590   22.2680  -30.0530 N   0  0  0  0  0  0  0  0  0  0  0  0
   -3.0780   21.6660  -31.3470 C   0  0  0  0  0  0  0  0  0  0  0  0
   -4.1670   21.0460  -31.9740 C   0  0  0  0  0  0  0  0  0  0  0  0
   -4.0220   20.4460  -33.2290 C   0  0  0  0  0  0  0  0  0  0  0  0
   -5.1430   19.8410  -33.8170 O   0  0  0  0  0  0  0  0  0  0  0  0
   -6.2980   19.4340  -33.1320 C   0  0  0  0  0  0  0  0  0  0  0  0
   -7.3710   20.3240  -33.0240 C   0  0  0  0  0  0  0  0  0  0  0  0
   -8.5390   19.9370  -32.3650 C   0  0  0  0  0  0  0  0  0  0  0  0
   -8.6270   18.6510  -31.8280 C   0  0  0  0  0  0  0  0  0  0  0  0
   -7.5850   17.7870  -31.9580 N   0  0  0  0  0  0  0  0  0  0  0  0
   -6.4370   18.1420  -32.5940 C   0  0  0  0  0  0  0  0  0  0  0  0
   -2.7590   20.4240  -33.8440 C   0  0  0  0  0  0  0  0  0  0  0  0
   -1.6480   21.0210  -33.2210 C   0  0  0  0  0  0  0  0  0  0  0  0
   -0.3520   20.9920  -33.8470 N   0  0  0  0  0  0  0  0  0  0  0  0
    0.0190   21.9250  -34.5890 O   0  0  0  0  0  0  0  0  0  0  0  0
    0.5050   19.9360  -33.6330 O   0  0  0  0  0  0  0  0  0  0  0  0
   -1.8190   21.6390  -31.9700 C   0  0  0  0  0  0  0  0  0  0  0  0
   -3.1970   24.2960  -28.5240 C   0  0  0  0  0  0  0  0  0  0  0  0
   -1.9210   24.7890  -28.1910 C   0  0  0  0  0  0  0  0  0  0  0  0
   -1.6860   25.3550  -26.9350 C   0  0  0  0  0  0  0  0  0  0  0  0
   -2.7180   25.4300  -25.9950 C   0  0  0  0  0  0  0  0  0  0  0  0
   -3.9850   24.9370  -26.3110 C   0  0  0  0  0  0  0  0  0  0  0  0
   -4.2270   24.3710  -27.5660 C   0  0  0  0  0  0  0  0  0  0  0  0
   -3.3900   21.6340  -29.2320 H   0  0  0  0  0  0  0  0  0  0  0  0
   -5.1465   21.0310  -31.4737 H   0  0  0  0  0  0  0  0  0  0  0  0
   -7.2945   21.3313  -33.4593 H   0  0  0  0  0  0  0  0  0  0  0  0
   -9.3815   20.6378  -32.2697 H   0  0  0  0  0  0  0  0  0  0  0  0
   -9.5393   18.3368  -31.2998 H   0  0  0  0  0  0  0  0  0  0  0  0
   -5.6150   17.4171  -32.6880 H   0  0  0  0  0  0  0  0  0  0  0  0
   -2.6377   19.9353  -34.8220 H   0  0  0  0  0  0  0  0  0  0  0  0
   -0.9566   22.1071  -31.4728 H   0  0  0  0  0  0  0  0  0  0  0  0
   -1.1034   24.7283  -28.9244 H   0  0  0  0  0  0  0  0  0  0  0  0
   -0.6871   25.7422  -26.6856 H   0  0  0  0  0  0  0  0  0  0  0  0
   -2.5317   25.8771  -25.0074 H   0  0  0  0  0  0  0  0  0  0  0  0
   -4.7959   24.9941  -25.5699 H   0  0  0  0  0  0  0  0  0  0  0  0
   -5.2273   23.9820  -27.8068 H   0  0  0  0  0  0  0  0  0  0  0  0
  1  2  2  0
  2  3  1  0
  3  4  1  0
  4  5  2  0
  5  6  1  0
  6  7  1  0
  7  8  1  0
  8  9  2  0
  9 10  1  0
 10 11  2  0
 11 12  1  0
 12 13  2  0
  6 14  2  0
 14 15  1  0
 15 16  1  0
 16 17  2  0
 16 18  1  0
 15 19  2  0
  2 20  1  0
 20 21  2  0
 21 22  1  0
 22 23  2  0
 23 24  1  0
 24 25  2  0
 19  4  1  0
 25 20  1  0
 13  8  1  0
  3 26  1  0
  5 27  1  0
  9 28  1  0
 10 29  1  0
 11 30  1  0
 13 31  1  0
 14 32  1  0
 19 33  1  0
 21 34  1  0
 22 35  1  0
 23 36  1  0
 24 37  1  0
 25 38  1  0
M  CHG  2  16   1  18  -1
M  END
>  <UniqueID>  (34) 
31

>  <SMILES>  (34) 
O=C(Nc1cc(Oc2cccnc2)cc([N+](=O)[O-])c1)c1ccccc1

>  <Energy>  (34) 
55.16738025984227

>  <Genealogy>  (34) 
O=C(Nc1cc(Oc2cccnc2)cc([N+](=O)[O-])c1)c1ccccc1 (3D coordinates assigned)
O=C(Nc1cc(Oc2cccnc2)cc([N+](=O)[O-])c1)c1ccccc1 (optimized conformer: 55.16738025984227 kcal/mol)

>  <smiles>  (34) 
O=C(Nc1cc(Oc2cccnc2)cc([N+](=O)[O-])c1)c1ccccc1

>  <score_type>  (34) 
oracle

>  <origin>  (34) 
adgpu

>  <m_score__min__energy>  (34) 
-8.3000000000000007

>  <m_primary>  (34) 
energy

$$$$
34:0
     RDKit          3D

 37 39  0  0  0  0  0  0  0  0999 V2000
   -9.1630   18.6620  -31.9640 N   0  0  0  0  0  0  0  0  0  0  0  0
   -8.4200   19.5470  -31.8950 C   0  0  0  0  0  0  0  0  0  0  0  0
   -7.4960   20.6470  -31.8090 C   0  0  0  0  0  0  0  0  0  0  0  0
   -7.8100   21.7670  -31.0330 C   0  0  0  0  0  0  0  0  0  0  0  0
   -6.9140   22.8350  -30.9480 C   0  0  0  0  0  0  0  0  0  0  0  0
   -5.6930   22.8000  -31.6470 C   0  0  0  0  0  0  0  0  0  0  0  0
   -4.7320   23.8660  -31.5470 N   0  0  0  0  0  0  0  0  0  0  0  0
   -3.7960   24.1050  -30.4870 C   0  0  0  0  0  0  0  0  0  0  0  0
   -3.5240   25.2970  -30.1820 O   0  0  0  0  0  0  0  0  0  0  0  0
   -3.2110   23.0010  -29.6920 C   0  0  0  0  0  0  0  0  0  0  0  0
   -2.4920   21.9910  -30.3550 C   0  0  0  0  0  0  0  0  0  0  0  0
   -1.9130   20.9430  -29.6370 C   0  0  0  0  0  0  0  0  0  0  0  0
   -2.0490   20.8870  -28.2490 C   0  0  0  0  0  0  0  0  0  0  0  0
   -2.7650   21.8790  -27.5770 C   0  0  0  0  0  0  0  0  0  0  0  0
   -3.3490   22.9400  -28.2840 C   0  0  0  0  0  0  0  0  0  0  0  0
   -4.2270   24.2000  -27.3400 S   0  0  0  0  0  0  0  0  0  0  0  0
   -2.7240   25.0650  -26.8810 C   0  0  0  0  0  0  0  0  0  0  0  0
   -2.6230   25.6710  -25.6220 C   0  0  0  0  0  0  0  0  0  0  0  0
   -1.4660   26.3740  -25.2720 C   0  0  0  0  0  0  0  0  0  0  0  0
   -0.4020   26.4660  -26.1770 C   0  0  0  0  0  0  0  0  0  0  0  0
    1.0420   27.3620  -25.7460 Cl  0  0  0  0  0  0  0  0  0  0  0  0
   -0.4920   25.8420  -27.4270 C   0  0  0  0  0  0  0  0  0  0  0  0
   -1.6490   25.1380  -27.7760 C   0  0  0  0  0  0  0  0  0  0  0  0
   -5.3740   21.6620  -32.4080 C   0  0  0  0  0  0  0  0  0  0  0  0
   -3.8490   21.5600  -33.2760 Cl  0  0  0  0  0  0  0  0  0  0  0  0
   -6.2770   20.5950  -32.4940 C   0  0  0  0  0  0  0  0  0  0  0  0
   -8.7648   21.8070  -30.4883 H   0  0  0  0  0  0  0  0  0  0  0  0
   -7.1645   23.7099  -30.3302 H   0  0  0  0  0  0  0  0  0  0  0  0
   -2.3847   22.0268  -31.4492 H   0  0  0  0  0  0  0  0  0  0  0  0
   -1.3490   20.1605  -30.1658 H   0  0  0  0  0  0  0  0  0  0  0  0
   -1.5918   20.0609  -27.6846 H   0  0  0  0  0  0  0  0  0  0  0  0
   -2.8721   21.8281  -26.4834 H   0  0  0  0  0  0  0  0  0  0  0  0
   -3.4556   25.5937  -24.9073 H   0  0  0  0  0  0  0  0  0  0  0  0
   -1.3919   26.8548  -24.2854 H   0  0  0  0  0  0  0  0  0  0  0  0
    0.3476   25.9054  -28.1349 H   0  0  0  0  0  0  0  0  0  0  0  0
   -1.7149   24.6408  -28.7550 H   0  0  0  0  0  0  0  0  0  0  0  0
   -6.0271   19.7131  -33.1021 H   0  0  0  0  0  0  0  0  0  0  0  0
  1  2  3  0
  2  3  1  0
  3  4  2  0
  4  5  1  0
  5  6  2  0
  6  7  1  0
  7  8  1  0
  8  9  2  0
  8 10  1  0
 10 11  2  0
 11 12  1  0
 12 13  2  0
 13 14  1  0
 14 15  2  0
 15 16  1  0
 16 17  1  0
 17 18  2  0
 18 19  1  0
 19 20  2  0
 20 21  1  0
 20 22  1  0
 22 23  2  0
  6 24  1  0
 24 25  1  0
 24 26  2  0
 26  3  1  0
 15 10  1  0
 23 17  1  0
  4 27  1  0
  5 28  1  0
 11 29  1  0
 12 30  1  0
 13 31  1  0
 14 32  1  0
 18 33  1  0
 19 34  1  0
 22 35  1  0
 23 36  1  0
 26 37  1  0
M  CHG  1   7  -1
M  END
>  <UniqueID>  (35) 
32

>  <SMILES>  (35) 
N#Cc1ccc([N-]C(=O)c2ccccc2Sc2ccc(Cl)cc2)c(Cl)c1

>  <Energy>  (35) 
42.10205934282383

>  <Genealogy>  (35) 
N#Cc1ccc([N-]C(=O)c2ccccc2Sc2ccc(Cl)cc2)c(Cl)c1 (protonated)
N#Cc1ccc([N-]C(=O)c2ccccc2Sc2ccc(Cl)cc2)c(Cl)c1 (3D coordinates assigned)
N#Cc1ccc([N-]C(=O)c2ccccc2Sc2ccc(Cl)cc2)c(Cl)c1 (optimized conformer: 42.10205934282383 kcal/mol)

>  <smiles>  (35) 
N#Cc1ccc(NC(=O)c2ccccc2Sc2ccc(Cl)cc2)c(Cl)c1

>  <score_type>  (35) 
oracle

>  <origin>  (35) 
adgpu

>  <m_score__min__energy>  (35) 
-10.69

>  <m_primary>  (35) 
energy

$$$$
35:0
     RDKit          3D

 36 39  0  0  0  0  0  0  0  0999 V2000
   -1.7390   25.5130  -28.9670 O   0  0  0  0  0  0  0  0  0  0  0  0
   -1.4930   24.7900  -27.9600 C   0  0  0  0  0  0  0  0  0  0  0  0
   -1.1850   25.3930  -26.7290 C   0  0  0  0  0  0  0  0  0  0  0  0
   -1.1670   26.7900  -26.5560 C   0  0  0  0  0  0  0  0  0  0  0  0
   -0.8440   27.3400  -25.3110 C   0  0  0  0  0  0  0  0  0  0  0  0
   -0.8240   29.0810  -25.0990 Cl  0  0  0  0  0  0  0  0  0  0  0  0
   -0.5350   26.5020  -24.2330 C   0  0  0  0  0  0  0  0  0  0  0  0
   -0.5480   25.1150  -24.3980 C   0  0  0  0  0  0  0  0  0  0  0  0
   -0.8720   24.5590  -25.6400 C   0  0  0  0  0  0  0  0  0  0  0  0
   -0.8850   23.2140  -25.7980 N   0  0  0  0  0  0  0  0  0  0  0  0
   -1.2030   22.6350  -26.9850 C   0  0  0  0  0  0  0  0  0  0  0  0
   -1.2020   21.1560  -27.0530 C   0  0  0  0  0  0  0  0  0  0  0  0
   -0.0670   20.4550  -27.4960 C   0  0  0  0  0  0  0  0  0  0  0  0
   -0.0830   19.0590  -27.5630 C   0  0  0  0  0  0  0  0  0  0  0  0
   -1.2340   18.3540  -27.2030 C   0  0  0  0  0  0  0  0  0  0  0  0
   -2.3740   19.0440  -26.7830 C   0  0  0  0  0  0  0  0  0  0  0  0
   -2.3610   20.4410  -26.7130 C   0  0  0  0  0  0  0  0  0  0  0  0
   -1.5090   23.4220  -28.0730 N   0  0  0  0  0  0  0  0  0  0  0  0
   -1.7490   22.8240  -29.3630 C   0  0  0  0  0  0  0  0  0  0  0  0
   -0.7250   22.2000  -30.0100 N   0  0  0  0  0  0  0  0  0  0  0  0
   -0.8940   21.6070  -31.2200 C   0  0  0  0  0  0  0  0  0  0  0  0
   -2.1440   21.6210  -31.8390 C   0  0  0  0  0  0  0  0  0  0  0  0
   -3.2150   22.2470  -31.1990 C   0  0  0  0  0  0  0  0  0  0  0  0
   -3.0270   22.8540  -29.9540 C   0  0  0  0  0  0  0  0  0  0  0  0
   -4.4020   23.5850  -29.1360 Cl  0  0  0  0  0  0  0  0  0  0  0  0
   -1.4075   27.4507  -27.4019 H   0  0  0  0  0  0  0  0  0  0  0  0
   -0.2816   26.9364  -23.2547 H   0  0  0  0  0  0  0  0  0  0  0  0
   -0.3030   24.4588  -23.5498 H   0  0  0  0  0  0  0  0  0  0  0  0
    0.8374   21.0073  -27.7911 H   0  0  0  0  0  0  0  0  0  0  0  0
    0.8118   18.5149  -27.8996 H   0  0  0  0  0  0  0  0  0  0  0  0
   -1.2428   17.2550  -27.2502 H   0  0  0  0  0  0  0  0  0  0  0  0
   -3.2824   18.4883  -26.5072 H   0  0  0  0  0  0  0  0  0  0  0  0
   -3.2630   20.9816  -26.3901 H   0  0  0  0  0  0  0  0  0  0  0  0
   -0.0431   21.1144  -31.7132 H   0  0  0  0  0  0  0  0  0  0  0  0
   -2.2841   21.1442  -32.8203 H   0  0  0  0  0  0  0  0  0  0  0  0
   -4.2068   22.2626  -31.6744 H   0  0  0  0  0  0  0  0  0  0  0  0
  1  2  2  0
  2  3  1  0
  3  4  2  0
  4  5  1  0
  5  6  1  0
  5  7  2  0
  7  8  1  0
  8  9  2  0
  9 10  1  0
 10 11  2  0
 11 12  1  0
 12 13  2  0
 13 14  1  0
 14 15  2  0
 15 16  1  0
 16 17  2  0
 11 18  1  0
 18 19  1  0
 19 20  2  0
 20 21  1  0
 21 22  2  0
 22 23  1  0
 23 24  2  0
 24 25  1  0
 18  2  1  0
 24 19  1  0
  9  3  1  0
 17 12  1  0
  4 26  1  0
  7 27  1  0
  8 28  1  0
 13 29  1  0
 14 30  1  0
 15 31  1  0
 16 32  1  0
 17 33  1  0
 21 34  1  0
 22 35  1  0
 23 36  1  0
M  END
>  <UniqueID>  (36) 
33

>  <SMILES>  (36) 
O=c1c2cc(Cl)ccc2nc(-c2ccccc2)n1-c1ncccc1Cl

>  <Energy>  (36) 
62.02066685695202

>  <Genealogy>  (36) 
O=c1c2cc(Cl)ccc2nc(-c2ccccc2)n1-c1ncccc1Cl (3D coordinates assigned)
O=c1c2cc(Cl)ccc2nc(-c2ccccc2)n1-c1ncccc1Cl (optimized conformer: 62.02066685695202 kcal/mol)

>  <smiles>  (36) 
O=c1c2cc(Cl)ccc2nc(-c2ccccc2)n1-c1ncccc1Cl

>  <score_type>  (36) 
oracle

>  <origin>  (36) 
adgpu

>  <m_score__min__energy>  (36) 
-8.1099999999999994

>  <m_primary>  (36) 
energy

$$$$
36:0
     RDKit          3D

 44 47  0  0  0  0  0  0  0  0999 V2000
    2.5831   27.7458  -26.4717 H   0  0  0  0  0  0  0  0  0  0  0  0
    1.6290   27.2510  -26.7060 C   0  0  0  0  0  0  0  0  0  0  0  0
    1.6250   26.0510  -27.3400 N   0  0  0  0  0  0  0  0  0  0  0  0
    0.4690   25.4000  -27.6530 C   0  0  0  0  0  0  0  0  0  0  0  0
    0.5190   24.1480  -28.2810 O   0  0  0  0  0  0  0  0  0  0  0  0
   -0.1840   23.0300  -27.8210 C   0  0  0  0  0  0  0  0  0  0  0  0
   -0.2220   22.7820  -26.4440 C   0  0  0  0  0  0  0  0  0  0  0  0
    0.2816   23.4715  -25.7505 H   0  0  0  0  0  0  0  0  0  0  0  0
   -0.8950   21.6650  -25.9450 C   0  0  0  0  0  0  0  0  0  0  0  0
   -0.9161   21.4738  -24.8619 H   0  0  0  0  0  0  0  0  0  0  0  0
   -1.5410   20.7910  -26.8210 C   0  0  0  0  0  0  0  0  0  0  0  0
   -2.0575   19.9027  -26.4284 H   0  0  0  0  0  0  0  0  0  0  0  0
   -1.5330   21.0420  -28.1950 C   0  0  0  0  0  0  0  0  0  0  0  0
   -2.0450   20.3501  -28.8799 H   0  0  0  0  0  0  0  0  0  0  0  0
   -0.8750   22.1730  -28.7080 C   0  0  0  0  0  0  0  0  0  0  0  0
   -0.9130   22.4400  -30.1870 C   0  0  0  0  0  0  0  0  0  0  0  0
   -1.0660   23.5152  -30.3617 H   0  0  0  0  0  0  0  0  0  0  0  0
    0.0388   22.1266  -30.6407 H   0  0  0  0  0  0  0  0  0  0  0  0
   -1.7396   21.8735  -30.6407 H   0  0  0  0  0  0  0  0  0  0  0  0
   -0.7750   25.9750  -27.3140 C   0  0  0  0  0  0  0  0  0  0  0  0
   -2.0510   25.3070  -27.6740 C   0  0  0  0  0  0  0  0  0  0  0  0
   -2.3860   25.1570  -28.9850 N   0  0  0  0  0  0  0  0  0  0  0  0
   -3.5420   24.5530  -29.3640 C   0  0  0  0  0  0  0  0  0  0  0  0
   -3.8190   24.4580  -30.6320 N   0  0  0  0  0  0  0  0  0  0  0  0
   -4.9590   23.8130  -31.2240 C   0  0  0  0  0  0  0  0  0  0  0  0
   -6.2480   24.3810  -31.1800 C   0  0  0  0  0  0  0  0  0  0  0  0
   -6.3982   25.3629  -30.7074 H   0  0  0  0  0  0  0  0  0  0  0  0
   -7.3370   23.7010  -31.7350 C   0  0  0  0  0  0  0  0  0  0  0  0
   -8.3381   24.1563  -31.7126 H   0  0  0  0  0  0  0  0  0  0  0  0
   -7.1550   22.4440  -32.3180 C   0  0  0  0  0  0  0  0  0  0  0  0
   -8.0105   21.9142  -32.7623 H   0  0  0  0  0  0  0  0  0  0  0  0
   -5.8860   21.8610  -32.3360 C   0  0  0  0  0  0  0  0  0  0  0  0
   -5.7445   20.8676  -32.7867 H   0  0  0  0  0  0  0  0  0  0  0  0
   -4.7950   22.5380  -31.7820 C   0  0  0  0  0  0  0  0  0  0  0  0
   -3.8012   22.0665  -31.7842 H   0  0  0  0  0  0  0  0  0  0  0  0
   -4.4040   24.0990  -28.4140 N   0  0  0  0  0  0  0  0  0  0  0  0
   -4.1190   24.2230  -27.0930 C   0  0  0  0  0  0  0  0  0  0  0  0
   -4.8265   23.8456  -26.3400 H   0  0  0  0  0  0  0  0  0  0  0  0
   -2.9290   24.8290  -26.6900 C   0  0  0  0  0  0  0  0  0  0  0  0
   -2.6841   24.9300  -25.6224 H   0  0  0  0  0  0  0  0  0  0  0  0
   -0.7760   27.2180  -26.6570 C   0  0  0  0  0  0  0  0  0  0  0  0
   -1.7307   27.6901  -26.3819 H   0  0  0  0  0  0  0  0  0  0  0  0
    0.4260   27.8560  -26.3520 C   0  0  0  0  0  0  0  0  0  0  0  0
    0.4237   28.8278  -25.8367 H   0  0  0  0  0  0  0  0  0  0  0  0
  1  2  1  0
  2  3  2  0
  3  4  1  0
  4  5  1  0
  5  6  1  0
  6  7  2  0
  7  8  1  0
  7  9  1  0
  9 10  1  0
  9 11  2  0
 11 12  1  0
 11 13  1  0
 13 14  1  0
 13 15  2  0
 15 16  1  0
 16 17  1  0
 16 18  1  0
 16 19  1  0
  4 20  2  0
 20 21  1  0
 21 22  2  0
 22 23  1  0
 23 24  2  0
 24 25  1  0
 25 26  2  0
 26 27  1  0
 26 28  1  0
 28 29  1  0
 28 30  2  0
 30 31  1  0
 30 32  1  0
 32 33  1  0
 32 34  2  0
 34 35  1  0
 23 36  1  0
 36 37  1  0
 37 38  1  0
 37 39  2  0
 39 40  1  0
 20 41  1  0
 41 42  1  0
 41 43  2  0
 43 44  1  0
 43  2  1  0
 15  6  1  0
 39 21  1  0
 34 25  1  0
M  CHG  1  36  -1
M  END
>  <UniqueID>  (37) 
34

>  <SMILES>  (37) 
Cc1ccccc1Oc1ncccc1-c1cc[n-]/c(=N\c2ccccc2)n1

>  <Energy>  (37) 
68.31189529895121

>  <Genealogy>  (37) 
Cc1ccccc1Oc1ncccc1-c1cc[n-]c(=Nc2ccccc2)n1 (protonated)
Cc1ccccc1Oc1ncccc1-c1cc[n-]/c(=N\c2ccccc2)n1 (cis-trans isomerization)
Cc1ccccc1Oc1ncccc1-c1cc[n-]/c(=N\c2ccccc2)n1 (3D coordinates assigned)
Cc1ccccc1Oc1ncccc1-c1cc[n-]/c(=N\c2ccccc2)n1 (optimized conformer: 68.31189529895121 kcal/mol)

>  <smiles>  (37) 
Cc1ccccc1Oc1ncccc1-c1cc[nH]c(=Nc2ccccc2)n1

>  <score_type>  (37) 
oracle

>  <origin>  (37) 
adgpu

>  <m_score__min__energy>  (37) 
-9.7100000000000009

>  <m_primary>  (37) 
energy

$$$$
37:0
     RDKit          3D

 36 38  0  0  0  0  0  0  0  0999 V2000
   -6.0320   17.8590  -34.2850 C   0  0  0  0  0  0  0  0  0  0  0  0
   -5.2410   19.0430  -34.3150 O   0  0  0  0  0  0  0  0  0  0  0  0
   -5.4080   20.1270  -33.4410 C   0  0  0  0  0  0  0  0  0  0  0  0
   -4.3110   20.9130  -32.9880 C   0  0  0  0  0  0  0  0  0  0  0  0
   -4.5170   21.9950  -32.1140 C   0  0  0  0  0  0  0  0  0  0  0  0
   -5.8220   22.2680  -31.7040 C   0  0  0  0  0  0  0  0  0  0  0  0
   -6.8810   21.5120  -32.1360 C   0  0  0  0  0  0  0  0  0  0  0  0
   -6.7110   20.4360  -33.0060 C   0  0  0  0  0  0  0  0  0  0  0  0
   -8.0210   22.0480  -31.5670 C   0  0  0  0  0  0  0  0  0  0  0  0
   -9.4330   21.6150  -31.7930 C   0  0  0  0  0  0  0  0  0  0  0  0
   -7.5960   23.1380  -30.8160 C   0  0  0  0  0  0  0  0  0  0  0  0
   -6.2510   23.2600  -30.8990 N   0  0  0  0  0  0  0  0  0  0  0  0
   -5.2920   24.5000  -30.1580 S   0  0  0  0  0  0  0  0  0  0  0  0
   -6.1900   25.3790  -29.3330 O   0  0  0  0  0  0  0  0  0  0  0  0
   -4.6280   25.3340  -31.2190 O   0  0  0  0  0  0  0  0  0  0  0  0
   -4.0530   23.7630  -29.1490 C   0  0  0  0  0  0  0  0  0  0  0  0
   -2.8780   24.4690  -28.8560 C   0  0  0  0  0  0  0  0  0  0  0  0
   -1.8880   23.8840  -28.0620 C   0  0  0  0  0  0  0  0  0  0  0  0
   -2.0680   22.5930  -27.5540 C   0  0  0  0  0  0  0  0  0  0  0  0
   -3.2410   21.8880  -27.8400 C   0  0  0  0  0  0  0  0  0  0  0  0
   -4.2320   22.4710  -28.6350 C   0  0  0  0  0  0  0  0  0  0  0  0
   -6.2235   17.5723  -33.2404 H   0  0  0  0  0  0  0  0  0  0  0  0
   -6.9885   18.0440  -34.7957 H   0  0  0  0  0  0  0  0  0  0  0  0
   -5.4949   17.0462  -34.7957 H   0  0  0  0  0  0  0  0  0  0  0  0
   -3.2921   20.6715  -33.3250 H   0  0  0  0  0  0  0  0  0  0  0  0
   -3.6736   22.6083  -31.7638 H   0  0  0  0  0  0  0  0  0  0  0  0
   -7.5735   19.8430  -33.3443 H   0  0  0  0  0  0  0  0  0  0  0  0
   -9.9295   21.4627  -30.8233 H   0  0  0  0  0  0  0  0  0  0  0  0
   -9.9679   22.3904  -32.3610 H   0  0  0  0  0  0  0  0  0  0  0  0
   -9.4412   20.6731  -32.3610 H   0  0  0  0  0  0  0  0  0  0  0  0
   -8.2557   23.8031  -30.2394 H   0  0  0  0  0  0  0  0  0  0  0  0
   -2.7350   25.4853  -29.2518 H   0  0  0  0  0  0  0  0  0  0  0  0
   -0.9658   24.4394  -27.8361 H   0  0  0  0  0  0  0  0  0  0  0  0
   -1.2874   22.1330  -26.9302 H   0  0  0  0  0  0  0  0  0  0  0  0
   -3.3842   20.8737  -27.4391 H   0  0  0  0  0  0  0  0  0  0  0  0
   -5.1545   21.9147  -28.8578 H   0  0  0  0  0  0  0  0  0  0  0  0
  1  2  1  0
  2  3  1  0
  3  4  2  0
  4  5  1  0
  5  6  2  0
  6  7  1  0
  7  8  2  0
  7  9  1  0
  9 10  1  0
  9 11  2  0
 11 12  1  0
 12 13  1  0
 13 14  2  0
 13 15  2  0
 13 16  1  0
 16 17  2  0
 17 18  1  0
 18 19  2  0
 19 20  1  0
 20 21  2  0
  8  3  1  0
 21 16  1  0
 12  6  1  0
  1 22  1  0
  1 23  1  0
  1 24  1  0
  4 25  1  0
  5 26  1  0
  8 27  1  0
 10 28  1  0
 10 29  1  0
 10 30  1  0
 11 31  1  0
 17 32  1  0
 18 33  1  0
 19 34  1  0
 20 35  1  0
 21 36  1  0
M  END
>  <UniqueID>  (38) 
35

>  <SMILES>  (38) 
COc1ccc2c(c1)c(C)cn2S(=O)(=O)c1ccccc1

>  <Energy>  (38) 
71.74475945729759

>  <Genealogy>  (38) 
COc1ccc2c(c1)c(C)cn2S(=O)(=O)c1ccccc1 (3D coordinates assigned)
COc1ccc2c(c1)c(C)cn2S(=O)(=O)c1ccccc1 (optimized conformer: 71.74475945729759 kcal/mol)

>  <smiles>  (38) 
COc1ccc2c(c1)c(C)cn2S(=O)(=O)c1ccccc1

>  <score_type>  (38) 
oracle

>  <origin>  (38) 
adgpu

>  <m_score__min__energy>  (38) 
-8.0399999999999991

>  <m_primary>  (38) 
energy

$$$$
38:0
     RDKit          3D

 22 23  0  0  0  0  0  0  0  0999 V2000
   -5.6600   24.0540  -30.6270 C   0  0  0  0  0  0  0  0  0  0  0  0
   -6.3040   23.2100  -29.7150 C   0  0  0  0  0  0  0  0  0  0  0  0
   -7.4220   22.4710  -30.1140 C   0  0  0  0  0  0  0  0  0  0  0  0
   -7.9010   22.5770  -31.4270 C   0  0  0  0  0  0  0  0  0  0  0  0
   -9.3370   21.6340  -31.9380 S   0  0  0  0  0  0  0  0  0  0  0  0
   -8.3580   20.1900  -32.3400 C   0  0  0  0  0  0  0  0  0  0  0  0
   -8.6870   18.9410  -31.8010 C   0  0  0  0  0  0  0  0  0  0  0  0
   -7.9120   17.8280  -32.1350 C   0  0  0  0  0  0  0  0  0  0  0  0
   -6.8210   17.9750  -32.9940 C   0  0  0  0  0  0  0  0  0  0  0  0
   -6.5220   19.2380  -33.5090 C   0  0  0  0  0  0  0  0  0  0  0  0
   -7.2890   20.3100  -33.1730 N   0  0  0  0  0  0  0  0  0  0  0  0
   -7.2520   23.4200  -32.3400 C   0  0  0  0  0  0  0  0  0  0  0  0
   -6.1340   24.1580  -31.9380 C   0  0  0  0  0  0  0  0  0  0  0  0
   -4.7809   24.6355  -30.3122 H   0  0  0  0  0  0  0  0  0  0  0  0
   -5.9304   23.1279  -28.6836 H   0  0  0  0  0  0  0  0  0  0  0  0
   -7.9259   21.8061  -29.3971 H   0  0  0  0  0  0  0  0  0  0  0  0
   -9.5462   18.8370  -31.1220 H   0  0  0  0  0  0  0  0  0  0  0  0
   -8.1603   16.8389  -31.7227 H   0  0  0  0  0  0  0  0  0  0  0  0
   -6.2036   17.1050  -33.2622 H   0  0  0  0  0  0  0  0  0  0  0  0
   -5.6654   19.3662  -34.1871 H   0  0  0  0  0  0  0  0  0  0  0  0
   -7.6221   23.5010  -33.3727 H   0  0  0  0  0  0  0  0  0  0  0  0
   -5.6270   24.8211  -32.6544 H   0  0  0  0  0  0  0  0  0  0  0  0
  1  2  2  0
  2  3  1  0
  3  4  2  0
  4  5  1  0
  5  6  1  0
  6  7  2  0
  7  8  1  0
  8  9  2  0
  9 10  1  0
 10 11  2  0
  4 12  1  0
 12 13  2  0
 13  1  1  0
 11  6  1  0
  1 14  1  0
  2 15  1  0
  3 16  1  0
  7 17  1  0
  8 18  1  0
  9 19  1  0
 10 20  1  0
 12 21  1  0
 13 22  1  0
M  END
>  <UniqueID>  (39) 
36

>  <SMILES>  (39) 
c1ccc(Sc2ccccn2)cc1

>  <Energy>  (39) 
19.089966341336595

>  <Genealogy>  (39) 
c1ccc(Sc2ccccn2)cc1 (3D coordinates assigned)
c1ccc(Sc2ccccn2)cc1 (optimized conformer: 19.089966341336595 kcal/mol)

>  <smiles>  (39) 
c1ccc(Sc2ccccn2)cc1

>  <score_type>  (39) 
oracle

>  <origin>  (39) 
adgpu

>  <m_score__min__energy>  (39) 
-5.9800000000000004

>  <m_primary>  (39) 
energy

$$$$
39:0
     RDKit          3D

 30 32  0  0  0  0  0  0  0  0999 V2000
   -1.9043   17.6957  -26.4413 H   0  0  0  0  0  0  0  0  0  0  0  0
   -1.9080   18.7270  -26.8240 C   0  0  0  0  0  0  0  0  0  0  0  0
   -0.7360   19.3420  -27.1310 N   0  0  0  0  0  0  0  0  0  0  0  0
   -0.6970   20.6190  -27.5960 C   0  0  0  0  0  0  0  0  0  0  0  0
    0.2707   21.0848  -27.8339 H   0  0  0  0  0  0  0  0  0  0  0  0
   -1.8880   21.3490  -27.7750 C   0  0  0  0  0  0  0  0  0  0  0  0
   -1.8840   22.7420  -28.2940 C   0  0  0  0  0  0  0  0  0  0  0  0
   -2.8710   23.1390  -29.1420 N   0  0  0  0  0  0  0  0  0  0  0  0
   -2.9250   24.4040  -29.6430 C   0  0  0  0  0  0  0  0  0  0  0  0
   -3.8590   24.7640  -30.4740 N   0  0  0  0  0  0  0  0  0  0  0  0
   -4.9790   23.9690  -30.9030 C   0  0  0  0  0  0  0  0  0  0  0  0
   -4.7360   22.8210  -31.6680 C   0  0  0  0  0  0  0  0  0  0  0  0
   -3.7018   22.5336  -31.9084 H   0  0  0  0  0  0  0  0  0  0  0  0
   -5.7990   22.0380  -32.1280 C   0  0  0  0  0  0  0  0  0  0  0  0
   -5.5990   21.1290  -32.7143 H   0  0  0  0  0  0  0  0  0  0  0  0
   -7.1160   22.4100  -31.8430 C   0  0  0  0  0  0  0  0  0  0  0  0
   -7.9520   21.7889  -32.1970 H   0  0  0  0  0  0  0  0  0  0  0  0
   -7.3700   23.5700  -31.1090 C   0  0  0  0  0  0  0  0  0  0  0  0
   -8.4069   23.8667  -30.8926 H   0  0  0  0  0  0  0  0  0  0  0  0
   -6.3080   24.3560  -30.6480 C   0  0  0  0  0  0  0  0  0  0  0  0
   -6.5123   25.2786  -30.0849 H   0  0  0  0  0  0  0  0  0  0  0  0
   -1.9630   25.2990  -29.3010 N   0  0  0  0  0  0  0  0  0  0  0  0
   -0.9600   24.9600  -28.4510 C   0  0  0  0  0  0  0  0  0  0  0  0
   -0.1948   25.7024  -28.1800 H   0  0  0  0  0  0  0  0  0  0  0  0
   -0.8990   23.6710  -27.9210 C   0  0  0  0  0  0  0  0  0  0  0  0
   -0.0956   23.3880  -27.2250 H   0  0  0  0  0  0  0  0  0  0  0  0
   -3.1050   20.7130  -27.4730 C   0  0  0  0  0  0  0  0  0  0  0  0
   -4.0538   21.2511  -27.6152 H   0  0  0  0  0  0  0  0  0  0  0  0
   -3.1150   19.4030  -26.9940 C   0  0  0  0  0  0  0  0  0  0  0  0
   -4.0671   18.9078  -26.7525 H   0  0  0  0  0  0  0  0  0  0  0  0
  1  2  1  0
  2  3  2  0
  3  4  1  0
  4  5  1  0
  4  6  2  0
  6  7  1  0
  7  8  2  0
  8  9  1  0
  9 10  2  0
 10 11  1  0
 11 12  2  0
 12 13  1  0
 12 14  1  0
 14 15  1  0
 14 16  2  0
 16 17  1  0
 16 18  1  0
 18 19  1  0
 18 20  2  0
 20 21  1  0
  9 22  1  0
 22 23  1  0
 23 24  1  0
 23 25  2  0
 25 26  1  0
  6 27  1  0
 27 28  1  0
 27 29  2  0
 29 30  1  0
 29  2  1  0
 25  7  1  0
 20 11  1  0
M  CHG  1  22  -1
M  END
>  <UniqueID>  (40) 
37

>  <SMILES>  (40) 
c1ccc(/N=c2\nc(-c3cccnc3)cc[n-]2)cc1

>  <Energy>  (40) 
44.37696159866245

>  <Genealogy>  (40) 
c1ccc(N=c2nc(-c3cccnc3)cc[n-]2)cc1 (protonated)
c1ccc(/N=c2\nc(-c3cccnc3)cc[n-]2)cc1 (cis-trans isomerization)
c1ccc(/N=c2\nc(-c3cccnc3)cc[n-]2)cc1 (3D coordinates assigned)
c1ccc(/N=c2\nc(-c3cccnc3)cc[n-]2)cc1 (optimized conformer: 44.37696159866245 kcal/mol)

>  <smiles>  (40) 
c1ccc(N=c2nc(-c3cccnc3)cc[nH]2)cc1

>  <score_type>  (40) 
oracle

>  <origin>  (40) 
adgpu

>  <m_score__min__energy>  (40) 
-8.5800000000000001

>  <m_primary>  (40) 
energy

$$$$
40:0
     RDKit          3D

 28 29  0  0  0  0  0  0  0  0999 V2000
   -5.3740   16.8350  -33.6290 Cl  0  0  0  0  0  0  0  0  0  0  0  0
   -6.5030   18.0890  -33.1510 C   0  0  0  0  0  0  0  0  0  0  0  0
   -7.6140   17.7680  -32.3620 C   0  0  0  0  0  0  0  0  0  0  0  0
   -8.5170   18.7680  -31.9840 C   0  0  0  0  0  0  0  0  0  0  0  0
   -8.3130   20.0900  -32.3990 C   0  0  0  0  0  0  0  0  0  0  0  0
   -9.4830   21.3690  -31.9270 S   0  0  0  0  0  0  0  0  0  0  0  0
   -8.3150   22.2890  -30.8540 C   0  0  0  0  0  0  0  0  0  0  0  0
   -7.6170   23.4160  -31.6200 C   0  0  0  0  0  0  0  0  0  0  0  0
   -6.1680   23.5540  -31.2310 C   0  0  0  0  0  0  0  0  0  0  0  0
   -5.4100   22.4240  -30.8910 C   0  0  0  0  0  0  0  0  0  0  0  0
   -4.0750   22.5660  -30.5100 C   0  0  0  0  0  0  0  0  0  0  0  0
   -3.5050   23.8410  -30.4790 C   0  0  0  0  0  0  0  0  0  0  0  0
   -4.2490   24.9270  -30.8160 N   0  0  0  0  0  0  0  0  0  0  0  0
   -5.5520   24.8150  -31.1870 C   0  0  0  0  0  0  0  0  0  0  0  0
   -7.1930   20.4110  -33.1740 C   0  0  0  0  0  0  0  0  0  0  0  0
   -6.2920   19.4120  -33.5550 C   0  0  0  0  0  0  0  0  0  0  0  0
   -7.7772   16.7292  -32.0390 H   0  0  0  0  0  0  0  0  0  0  0  0
   -9.3875   18.5156  -31.3606 H   0  0  0  0  0  0  0  0  0  0  0  0
   -8.8711   22.7220  -30.0094 H   0  0  0  0  0  0  0  0  0  0  0  0
   -7.5469   21.5864  -30.4985 H   0  0  0  0  0  0  0  0  0  0  0  0
   -7.6760   23.2019  -32.6974 H   0  0  0  0  0  0  0  0  0  0  0  0
   -8.1254   24.3593  -31.3716 H   0  0  0  0  0  0  0  0  0  0  0  0
   -5.8683   21.4246  -30.9247 H   0  0  0  0  0  0  0  0  0  0  0  0
   -3.4779   21.6834  -30.2370 H   0  0  0  0  0  0  0  0  0  0  0  0
   -2.4533   23.9659  -30.1816 H   0  0  0  0  0  0  0  0  0  0  0  0
   -6.1255   25.7150  -31.4535 H   0  0  0  0  0  0  0  0  0  0  0  0
   -7.0209   21.4522  -33.4844 H   0  0  0  0  0  0  0  0  0  0  0  0
   -5.4176   19.6660  -34.1721 H   0  0  0  0  0  0  0  0  0  0  0  0
  1  2  1  0
  2  3  2  0
  3  4  1  0
  4  5  2  0
  5  6  1  0
  6  7  1  0
  7  8  1  0
  8  9  1  0
  9 10  2  0
 10 11  1  0
 11 12  2  0
 12 13  1  0
 13 14  2  0
  5 15  1  0
 15 16  2  0
 16  2  1  0
 14  9  1  0
  3 17  1  0
  4 18  1  0
  7 19  1  0
  7 20  1  0
  8 21  1  0
  8 22  1  0
 10 23  1  0
 11 24  1  0
 12 25  1  0
 14 26  1  0
 15 27  1  0
 16 28  1  0
M  END
>  <UniqueID>  (41) 
38

>  <SMILES>  (41) 
Clc1ccc(SCCc2cccnc2)cc1

>  <Energy>  (41) 
22.9643139994037

>  <Genealogy>  (41) 
Clc1ccc(SCCc2cccnc2)cc1 (3D coordinates assigned)
Clc1ccc(SCCc2cccnc2)cc1 (optimized conformer: 22.9643139994037 kcal/mol)

>  <smiles>  (41) 
Clc1ccc(SCCc2cccnc2)cc1

>  <score_type>  (41) 
oracle

>  <origin>  (41) 
adgpu

>  <m_score__min__energy>  (41) 
-7.5999999999999996

>  <m_primary>  (41) 
energy

$$$$
41:0
     RDKit          3D

 40 42  0  0  0  0  0  0  0  0999 V2000
   -0.3154   27.6559  -25.0976 H   0  0  0  0  0  0  0  0  0  0  0  0
   -0.8760   26.9490  -25.7270 C   0  0  0  0  0  0  0  0  0  0  0  0
   -1.9140   26.1990  -25.1770 C   0  0  0  0  0  0  0  0  0  0  0  0
   -2.1744   26.3178  -24.1149 H   0  0  0  0  0  0  0  0  0  0  0  0
   -2.6240   25.2970  -25.9720 C   0  0  0  0  0  0  0  0  0  0  0  0
   -3.4460   24.7131  -25.5323 H   0  0  0  0  0  0  0  0  0  0  0  0
   -2.2980   25.1280  -27.3300 C   0  0  0  0  0  0  0  0  0  0  0  0
   -3.0940   24.1470  -28.1580 C   0  0  0  0  0  0  0  0  0  0  0  0
   -2.4542   23.2898  -28.4147 H   0  0  0  0  0  0  0  0  0  0  0  0
   -3.9631   23.8152  -27.5710 H   0  0  0  0  0  0  0  0  0  0  0  0
   -3.5740   24.7740  -29.3920 N   0  0  0  0  0  0  0  0  0  0  0  0
   -3.1180   25.6580  -29.7160 H   0  0  0  0  0  0  0  0  0  0  0  0
   -4.6570   24.2440  -30.1780 C   0  0  0  0  0  0  0  0  0  0  0  0
   -5.9330   24.8190  -30.0650 C   0  0  0  0  0  0  0  0  0  0  0  0
   -6.0939   25.6565  -29.3702 H   0  0  0  0  0  0  0  0  0  0  0  0
   -7.0000   24.3370  -30.8270 C   0  0  0  0  0  0  0  0  0  0  0  0
   -7.9927   24.8023  -30.7374 H   0  0  0  0  0  0  0  0  0  0  0  0
   -6.8090   23.2660  -31.7020 C   0  0  0  0  0  0  0  0  0  0  0  0
   -7.6474   22.9018  -32.3139 H   0  0  0  0  0  0  0  0  0  0  0  0
   -5.5560   22.6550  -31.8030 C   0  0  0  0  0  0  0  0  0  0  0  0
   -5.3740   21.5880  -32.7490 N   0  0  0  0  0  0  0  0  0  0  0  0
   -5.9890   20.4370  -32.7810 C   0  0  0  0  0  0  0  0  0  0  0  0
   -7.0670   20.1320  -31.9220 C   0  0  0  0  0  0  0  0  0  0  0  0
   -7.4138   20.8713  -31.1850 H   0  0  0  0  0  0  0  0  0  0  0  0
   -7.6900   18.8860  -32.0140 C   0  0  0  0  0  0  0  0  0  0  0  0
   -8.5247   18.6368  -31.3424 H   0  0  0  0  0  0  0  0  0  0  0  0
   -7.2530   17.9580  -32.9580 C   0  0  0  0  0  0  0  0  0  0  0  0
   -7.7333   16.9711  -33.0316 H   0  0  0  0  0  0  0  0  0  0  0  0
   -6.2000   18.2950  -33.8080 C   0  0  0  0  0  0  0  0  0  0  0  0
   -5.8520   17.5729  -34.5612 H   0  0  0  0  0  0  0  0  0  0  0  0
   -5.6010   19.5130  -33.7100 N   0  0  0  0  0  0  0  0  0  0  0  0
   -4.8150   19.7340  -34.3620 H   0  0  0  0  0  0  0  0  0  0  0  0
   -4.4730   23.1650  -31.0660 C   0  0  0  0  0  0  0  0  0  0  0  0
   -3.4745   22.7187  -31.1832 H   0  0  0  0  0  0  0  0  0  0  0  0
   -1.2520   25.9050  -27.8920 C   0  0  0  0  0  0  0  0  0  0  0  0
   -0.8980   25.8050  -29.2780 N   0  0  0  0  0  0  0  0  0  0  0  0
   -1.0500   24.9350  -29.8330 H   0  0  0  0  0  0  0  0  0  0  0  0
   -0.5020   26.6290  -29.7830 H   0  0  0  0  0  0  0  0  0  0  0  0
   -0.5470   26.8040  -27.0760 C   0  0  0  0  0  0  0  0  0  0  0  0
    0.2726   27.4000  -27.5038 H   0  0  0  0  0  0  0  0  0  0  0  0
  1  2  1  0
  2  3  2  0
  3  4  1  0
  3  5  1  0
  5  6  1  0
  5  7  2  0
  7  8  1  0
  8  9  1  0
  8 10  1  0
  8 11  1  0
 11 12  1  0
 11 13  1  0
 13 14  2  0
 14 15  1  0
 14 16  1  0
 16 17  1  0
 16 18  2  0
 18 19  1  0
 18 20  1  0
 20 21  1  0
 21 22  2  0
 22 23  1  0
 23 24  1  0
 23 25  2  0
 25 26  1  0
 25 27  1  0
 27 28  1  0
 27 29  2  0
 29 30  1  0
 29 31  1  0
 31 32  1  0
 20 33  2  0
 33 34  1  0
  7 35  1  0
 35 36  1  0
 36 37  1  0
 36 38  1  0
 35 39  2  0
 39 40  1  0
 39  2  1  0
 33 13  1  0
 31 22  1  0
M  END
>  <UniqueID>  (42) 
39

>  <SMILES>  (42) 
Nc1ccccc1CNc1cccc(/N=c2\cccc[nH]2)c1

>  <Energy>  (42) 
52.83138737519877

>  <Genealogy>  (42) 
Nc1ccccc1CNc1cccc(/N=c2\cccc[nH]2)c1 (cis-trans isomerization)
Nc1ccccc1CNc1cccc(/N=c2\cccc[nH]2)c1 (3D coordinates assigned)
Nc1ccccc1CNc1cccc(/N=c2\cccc[nH]2)c1 (optimized conformer: 52.83138737519877 kcal/mol)

>  <smiles>  (42) 
Nc1ccccc1CNc1cccc(N=c2cccc[nH]2)c1

>  <score_type>  (42) 
oracle

>  <origin>  (42) 
adgpu

>  <m_score__min__energy>  (42) 
-9.1199999999999992

>  <m_primary>  (42) 
energy

$$$$
42:0
     RDKit          3D

 26 27  0  0  0  0  0  0  0  0999 V2000
   -4.2790   23.1480  -28.3750 C   0  0  0  0  0  0  0  0  0  0  0  0
   -4.8170   24.5000  -28.4990 N   0  0  0  0  0  0  0  0  0  0  0  0
   -5.1300   24.8560  -30.1710 S   0  0  0  0  0  0  0  0  0  0  0  0
   -6.1340   25.9720  -30.2590 O   0  0  0  0  0  0  0  0  0  0  0  0
   -3.8600   25.3070  -30.8380 O   0  0  0  0  0  0  0  0  0  0  0  0
   -5.7770   23.4360  -30.9920 C   0  0  0  0  0  0  0  0  0  0  0  0
   -4.9420   22.6240  -31.7720 C   0  0  0  0  0  0  0  0  0  0  0  0
   -5.4530   21.4910  -32.4090 C   0  0  0  0  0  0  0  0  0  0  0  0
   -6.8070   21.1530  -32.2680 C   0  0  0  0  0  0  0  0  0  0  0  0
   -7.3310   20.0160  -32.9020 C   0  0  0  0  0  0  0  0  0  0  0  0
   -8.6820   19.6890  -32.7520 C   0  0  0  0  0  0  0  0  0  0  0  0
   -9.5170   20.4920  -31.9690 C   0  0  0  0  0  0  0  0  0  0  0  0
   -9.0080   21.6280  -31.3330 C   0  0  0  0  0  0  0  0  0  0  0  0
   -7.6530   21.9670  -31.4760 C   0  0  0  0  0  0  0  0  0  0  0  0
   -7.1300   23.1040  -30.8420 C   0  0  0  0  0  0  0  0  0  0  0  0
   -4.1765   22.8904  -27.3105 H   0  0  0  0  0  0  0  0  0  0  0  0
   -4.9621   22.4356  -28.8605 H   0  0  0  0  0  0  0  0  0  0  0  0
   -3.2931   23.0997  -28.8605 H   0  0  0  0  0  0  0  0  0  0  0  0
   -5.7370   24.5250  -28.0020 H   0  0  0  0  0  0  0  0  0  0  0  0
   -3.8781   22.8807  -31.8830 H   0  0  0  0  0  0  0  0  0  0  0  0
   -4.7918   20.8619  -33.0230 H   0  0  0  0  0  0  0  0  0  0  0  0
   -6.6776   19.3809  -33.5181 H   0  0  0  0  0  0  0  0  0  0  0  0
   -9.0892   18.7975  -33.2514 H   0  0  0  0  0  0  0  0  0  0  0  0
  -10.5787   20.2287  -31.8530 H   0  0  0  0  0  0  0  0  0  0  0  0
   -9.6699   22.2571  -30.7197 H   0  0  0  0  0  0  0  0  0  0  0  0
   -7.7845   23.7371  -30.2249 H   0  0  0  0  0  0  0  0  0  0  0  0
  1  2  1  0
  2  3  1  0
  3  4  2  0
  3  5  2  0
  3  6  1  0
  6  7  2  0
  7  8  1  0
  8  9  2  0
  9 10  1  0
 10 11  2  0
 11 12  1  0
 12 13  2  0
 13 14  1  0
 14 15  2  0
 15  6  1  0
 14  9  1  0
  1 16  1  0
  1 17  1  0
  1 18  1  0
  2 19  1  0
  7 20  1  0
  8 21  1  0
 10 22  1  0
 11 23  1  0
 12 24  1  0
 13 25  1  0
 15 26  1  0
M  END
>  <UniqueID>  (43) 
40

>  <SMILES>  (43) 
CNS(=O)(=O)c1ccc2ccccc2c1

>  <Energy>  (43) 
26.454191516837977

>  <Genealogy>  (43) 
CNS(=O)(=O)c1ccc2ccccc2c1 (3D coordinates assigned)
CNS(=O)(=O)c1ccc2ccccc2c1 (optimized conformer: 26.454191516837977 kcal/mol)

>  <smiles>  (43) 
CNS(=O)(=O)c1ccc2ccccc2c1

>  <score_type>  (43) 
oracle

>  <origin>  (43) 
adgpu

>  <m_score__min__energy>  (43) 
-8.1799999999999997

>  <m_primary>  (43) 
energy

$$$$
43:0
     RDKit          3D

 30 32  0  0  0  0  0  0  0  0999 V2000
   -2.0780   24.8030  -27.9790 C   0  0  0  0  0  0  0  0  0  0  0  0
   -2.5700   25.0070  -29.3370 N   0  0  0  0  0  0  0  0  0  0  0  0
   -3.7290   24.3410  -29.8720 C   0  0  0  0  0  0  0  0  0  0  0  0
   -4.8960   25.0800  -30.1140 C   0  0  0  0  0  0  0  0  0  0  0  0
   -6.0360   24.4600  -30.6340 C   0  0  0  0  0  0  0  0  0  0  0  0
   -6.0250   23.0900  -30.9330 C   0  0  0  0  0  0  0  0  0  0  0  0
   -7.2410   22.4390  -31.4640 C   0  0  0  0  0  0  0  0  0  0  0  0
   -8.4230   23.0800  -31.8050 C   0  0  0  0  0  0  0  0  0  0  0  0
   -9.3330   22.1740  -32.2360 N   0  0  0  0  0  0  0  0  0  0  0  0
   -8.6730   21.0000  -32.1540 C   0  0  0  0  0  0  0  0  0  0  0  0
   -9.1870   19.7570  -32.5180 C   0  0  0  0  0  0  0  0  0  0  0  0
   -8.3410   18.6430  -32.4050 C   0  0  0  0  0  0  0  0  0  0  0  0
   -7.0190   18.7980  -31.9520 C   0  0  0  0  0  0  0  0  0  0  0  0
   -6.5530   20.0740  -31.6020 C   0  0  0  0  0  0  0  0  0  0  0  0
   -7.4130   21.1240  -31.6990 N   0  0  0  0  0  0  0  0  0  0  0  0
   -4.8670   22.3430  -30.6730 C   0  0  0  0  0  0  0  0  0  0  0  0
   -3.7260   22.9600  -30.1530 C   0  0  0  0  0  0  0  0  0  0  0  0
   -2.8462   25.1215  -27.2590 H   0  0  0  0  0  0  0  0  0  0  0  0
   -1.8524   23.7372  -27.8270 H   0  0  0  0  0  0  0  0  0  0  0  0
   -1.1644   25.3965  -27.8270 H   0  0  0  0  0  0  0  0  0  0  0  0
   -2.0450   25.6750  -29.9470 H   0  0  0  0  0  0  0  0  0  0  0  0
   -4.9146   26.1573  -29.8927 H   0  0  0  0  0  0  0  0  0  0  0  0
   -6.9473   25.0505  -30.8097 H   0  0  0  0  0  0  0  0  0  0  0  0
   -8.5958   24.1641  -31.7356 H   0  0  0  0  0  0  0  0  0  0  0  0
  -10.2200   19.6526  -32.8813 H   0  0  0  0  0  0  0  0  0  0  0  0
   -8.7141   17.6433  -32.6722 H   0  0  0  0  0  0  0  0  0  0  0  0
   -6.3548   17.9248  -31.8726 H   0  0  0  0  0  0  0  0  0  0  0  0
   -5.5187   20.2220  -31.2579 H   0  0  0  0  0  0  0  0  0  0  0  0
   -4.8567   21.2627  -30.8800 H   0  0  0  0  0  0  0  0  0  0  0  0
   -2.8209   22.3647  -29.9620 H   0  0  0  0  0  0  0  0  0  0  0  0
  1  2  1  0
  2  3  1  0
  3  4  2  0
  4  5  1  0
  5  6  2  0
  6  7  1  0
  7  8  2  0
  8  9  1  0
  9 10  2  0
 10 11  1  0
 11 12  2  0
 12 13  1  0
 13 14  2  0
 14 15  1  0
  6 16  1  0
 16 17  2  0
 17  3  1  0
 15  7  1  0
 15 10  1  0
  1 18  1  0
  1 19  1  0
  1 20  1  0
  2 21  1  0
  4 22  1  0
  5 23  1  0
  8 24  1  0
 11 25  1  0
 12 26  1  0
 13 27  1  0
 14 28  1  0
 16 29  1  0
 17 30  1  0
M  END
>  <UniqueID>  (44) 
41

>  <SMILES>  (44) 
CNc1ccc(-c2cnc3ccccn23)cc1

>  <Energy>  (44) 
71.23058728553531

>  <Genealogy>  (44) 
CNc1ccc(-c2cnc3ccccn23)cc1 (3D coordinates assigned)
CNc1ccc(-c2cnc3ccccn23)cc1 (optimized conformer: 71.23058728553531 kcal/mol)

>  <smiles>  (44) 
CNc1ccc(-c2cnc3ccccn23)cc1

>  <score_type>  (44) 
oracle

>  <origin>  (44) 
adgpu

>  <m_score__min__energy>  (44) 
-7.5599999999999996

>  <m_primary>  (44) 
energy

$$$$
44:0
     RDKit          3D

 33 35  0  0  1  0  0  0  0  0999 V2000
   -4.2620   25.6320  -30.8500 N   0  0  0  0  0  0  0  0  0  0  0  0
   -4.4750   24.3490  -30.7750 C   0  0  0  0  0  0  0  0  0  0  0  0
   -5.6800   23.8090  -31.1650 C   0  0  0  0  0  0  0  0  0  0  0  0
   -5.9230   22.4560  -31.0940 C   0  0  0  0  0  0  0  0  0  0  0  0
   -7.1840   21.8760  -31.5000 C   0  0  0  0  0  0  0  0  0  0  0  0
   -8.4040   22.4620  -31.3750 C   0  0  0  0  0  0  0  0  0  0  0  0
   -9.5570   21.8220  -31.7960 C   0  0  0  0  0  0  0  0  0  0  0  0
   -9.4840   20.5620  -32.3570 C   0  0  0  0  0  0  0  0  0  0  0  0
   -8.2720   19.9890  -32.4780 N   0  0  0  0  0  0  0  0  0  0  0  0
   -7.1530   20.6010  -32.0730 C   0  0  0  0  0  0  0  0  0  0  0  0
   -6.0370   19.9860  -32.2240 N   0  0  0  0  0  0  0  0  0  0  0  0
   -5.9040   18.6890  -32.7950 C   0  0  0  0  0  0  0  0  0  0  0  0
   -5.8510   17.6290  -31.8890 C   0  0  0  0  0  0  0  0  0  0  0  0
   -5.7250   16.3510  -32.3390 C   0  0  0  0  0  0  0  0  0  0  0  0
   -5.6490   16.1100  -33.7080 C   0  0  0  0  0  0  0  0  0  0  0  0
   -5.4870   14.4540  -34.2450 Cl  0  0  0  0  0  0  0  0  0  0  0  0
   -5.7020   17.1650  -34.6070 C   0  0  0  0  0  0  0  0  0  0  0  0
   -5.8300   18.4670  -34.1560 C   0  0  0  0  0  0  0  0  0  0  0  0
   -4.8950   21.6970  -30.6160 N   0  0  0  0  0  0  0  0  0  0  0  0
   -3.7280   22.2490  -30.2410 C   0  0  0  0  0  0  0  0  0  0  0  0
   -3.4950   23.5840  -30.3140 N   0  0  0  0  0  0  0  0  0  0  0  0
   -4.9840   26.3120  -31.2030 H   0  0  0  0  0  0  0  0  0  0  0  0
   -6.4688   24.4760  -31.5430 H   0  0  0  0  0  0  0  0  0  0  0  0
   -8.4766   23.4654  -30.9302 H   0  0  0  0  0  0  0  0  0  0  0  0
  -10.5326   22.3176  -31.6836 H   0  0  0  0  0  0  0  0  0  0  0  0
  -10.3916   20.0409  -32.6957 H   0  0  0  0  0  0  0  0  0  0  0  0
   -8.2480   19.0410  -32.9040 H   0  0  0  0  0  0  0  0  0  0  0  0
   -5.9112   17.8270  -30.8086 H   0  0  0  0  0  0  0  0  0  0  0  0
   -5.6835   15.5143  -31.6261 H   0  0  0  0  0  0  0  0  0  0  0  0
   -5.6418   16.9651  -35.6870 H   0  0  0  0  0  0  0  0  0  0  0  0
   -5.8719   19.3064  -34.8657 H   0  0  0  0  0  0  0  0  0  0  0  0
   -2.9311   21.5933  -29.8603 H   0  0  0  0  0  0  0  0  0  0  0  0
   -2.5640   23.9060  -30.0010 H   0  0  0  0  0  0  0  0  0  0  0  0
  1  2  2  3
  2  3  1  0
  3  4  2  0
  4  5  1  0
  5  6  2  0
  6  7  1  0
  7  8  2  0
  8  9  1  0
  9 10  1  0
 10 11  2  0
 11 12  1  0
 12 13  2  0
 13 14  1  0
 14 15  2  0
 15 16  1  0
 15 17  1  0
 17 18  2  0
  4 19  1  0
 19 20  2  0
 20 21  1  0
 21  2  1  0
 10  5  1  0
 18 12  1  0
  1 22  1  0
  3 23  1  0
  6 24  1  0
  7 25  1  0
  8 26  1  0
  9 27  1  0
 13 28  1  0
 14 29  1  0
 17 30  1  0
 18 31  1  0
 20 32  1  0
 21 33  1  0
M  END
>  <smiles>  (45) 
N=c1cc(-c2ccc[nH]c2=Nc2ccc(Cl)cc2)nc[nH]1

>  <score_type>  (45) 
oracle

>  <origin>  (45) 
adgpu

>  <m_score__min__energy>  (45) 
-7.9299999999999997

>  <m_primary>  (45) 
energy

$$$$
45:0
     RDKit          3D

 28 29  0  0  0  0  0  0  0  0999 V2000
   -4.0920   23.7410  -27.1720 C   0  0  0  0  0  0  0  0  0  0  0  0
   -3.1960   22.7850  -27.9150 C   0  0  0  0  0  0  0  0  0  0  0  0
   -3.1290   21.4520  -27.4730 C   0  0  0  0  0  0  0  0  0  0  0  0
   -2.2850   20.5370  -28.1010 C   0  0  0  0  0  0  0  0  0  0  0  0
   -1.5000   20.9350  -29.1810 C   0  0  0  0  0  0  0  0  0  0  0  0
   -1.5670   22.2490  -29.6510 C   0  0  0  0  0  0  0  0  0  0  0  0
   -0.8140   22.6020  -30.7240 F   0  0  0  0  0  0  0  0  0  0  0  0
   -2.4310   23.1800  -29.0440 C   0  0  0  0  0  0  0  0  0  0  0  0
   -2.5040   24.5520  -29.6010 C   0  0  0  0  0  0  0  0  0  0  0  0
   -1.6200   25.3900  -29.2830 O   0  0  0  0  0  0  0  0  0  0  0  0
   -3.5680   24.9680  -30.4680 N   0  0  0  0  0  0  0  0  0  0  0  0
   -4.7790   24.2490  -30.7410 C   0  0  0  0  0  0  0  0  0  0  0  0
   -4.7920   23.0940  -31.5450 C   0  0  0  0  0  0  0  0  0  0  0  0
   -5.9930   22.4220  -31.7930 C   0  0  0  0  0  0  0  0  0  0  0  0
   -7.1900   22.9060  -31.2560 C   0  0  0  0  0  0  0  0  0  0  0  0
   -8.8300   21.9870  -31.5960 Br  0  0  0  0  0  0  0  0  0  0  0  0
   -7.1870   24.0680  -30.4800 C   0  0  0  0  0  0  0  0  0  0  0  0
   -5.9860   24.7410  -30.2310 C   0  0  0  0  0  0  0  0  0  0  0  0
   -3.9603   23.6005  -26.0890 H   0  0  0  0  0  0  0  0  0  0  0  0
   -3.8297   24.7745  -27.4422 H   0  0  0  0  0  0  0  0  0  0  0  0
   -5.1403   23.5462  -27.4422 H   0  0  0  0  0  0  0  0  0  0  0  0
   -3.7483   21.1279  -26.6237 H   0  0  0  0  0  0  0  0  0  0  0  0
   -2.2388   19.4980  -27.7428 H   0  0  0  0  0  0  0  0  0  0  0  0
   -0.8258   20.2129  -29.6648 H   0  0  0  0  0  0  0  0  0  0  0  0
   -3.8540   22.7185  -31.9799 H   0  0  0  0  0  0  0  0  0  0  0  0
   -5.9961   21.5120  -32.4110 H   0  0  0  0  0  0  0  0  0  0  0  0
   -8.1296   24.4539  -30.0646 H   0  0  0  0  0  0  0  0  0  0  0  0
   -5.9903   25.6627  -29.6306 H   0  0  0  0  0  0  0  0  0  0  0  0
  1  2  1  0
  2  3  2  0
  3  4  1  0
  4  5  2  0
  5  6  1  0
  6  7  1  0
  6  8  2  0
  8  9  1  0
  9 10  2  0
  9 11  1  0
 11 12  1  0
 12 13  2  0
 13 14  1  0
 14 15  2  0
 15 16  1  0
 15 17  1  0
 17 18  2  0
  8  2  1  0
 18 12  1  0
  1 19  1  0
  1 20  1  0
  1 21  1  0
  3 22  1  0
  4 23  1  0
  5 24  1  0
 13 25  1  0
 14 26  1  0
 17 27  1  0
 18 28  1  0
M  CHG  1  11  -1
M  END
>  <UniqueID>  (46) 
42

>  <SMILES>  (46) 
Cc1cccc(F)c1C(=O)[N-]c1ccc(Br)cc1

>  <Energy>  (46) 
38.37251574537026

>  <Genealogy>  (46) 
Cc1cccc(F)c1C(=O)[N-]c1ccc(Br)cc1 (protonated)
Cc1cccc(F)c1C(=O)[N-]c1ccc(Br)cc1 (3D coordinates assigned)
Cc1cccc(F)c1C(=O)[N-]c1ccc(Br)cc1 (optimized conformer: 38.37251574537026 kcal/mol)

>  <smiles>  (46) 
Cc1cccc(F)c1C(=O)Nc1ccc(Br)cc1

>  <score_type>  (46) 
oracle

>  <origin>  (46) 
adgpu

>  <m_score__min__energy>  (46) 
-8.7899999999999991

>  <m_primary>  (46) 
energy

$$$$
46:0
     RDKit          3D

 31 32  0  0  0  0  0  0  0  0999 V2000
   -4.9460   15.5630  -32.3770 C   0  0  0  0  0  0  0  0  0  0  0  0
   -5.4600   15.3210  -33.7950 C   0  0  0  0  0  0  0  0  0  0  0  0
   -6.8170   15.9920  -34.0500 C   0  0  0  0  0  0  0  0  0  0  0  0
   -6.8470   17.4140  -33.5480 C   0  0  0  0  0  0  0  0  0  0  0  0
   -6.0660   18.3980  -34.1690 C   0  0  0  0  0  0  0  0  0  0  0  0
   -6.0710   19.7120  -33.6940 C   0  0  0  0  0  0  0  0  0  0  0  0
   -6.8600   20.0690  -32.5820 C   0  0  0  0  0  0  0  0  0  0  0  0
   -6.8800   21.4590  -32.0550 C   0  0  0  0  0  0  0  0  0  0  0  0
   -8.0450   22.2030  -31.8310 C   0  0  0  0  0  0  0  0  0  0  0  0
   -7.6000   23.7060  -31.2240 S   0  0  0  0  0  0  0  0  0  0  0  0
   -5.9610   23.3550  -31.2660 C   0  0  0  0  0  0  0  0  0  0  0  0
   -4.6660   24.4790  -30.7580 S   0  0  0  0  0  0  0  0  0  0  0  0
   -5.8320   25.6700  -30.0280 C   0  0  0  0  0  0  0  0  0  0  0  0
   -5.7280   22.1120  -31.7350 N   0  0  0  0  0  0  0  0  0  0  0  0
   -7.6320   19.0720  -31.9550 C   0  0  0  0  0  0  0  0  0  0  0  0
   -7.6240   17.7590  -32.4340 C   0  0  0  0  0  0  0  0  0  0  0  0
   -5.6936   15.2110  -31.6509 H   0  0  0  0  0  0  0  0  0  0  0  0
   -4.0045   15.0135  -32.2295 H   0  0  0  0  0  0  0  0  0  0  0  0
   -4.7697   16.6387  -32.2295 H   0  0  0  0  0  0  0  0  0  0  0  0
   -4.7272   15.7240  -34.5096 H   0  0  0  0  0  0  0  0  0  0  0  0
   -5.5938   14.2366  -33.9219 H   0  0  0  0  0  0  0  0  0  0  0  0
   -7.0150   15.9930  -35.1320 H   0  0  0  0  0  0  0  0  0  0  0  0
   -7.5851   15.4231  -33.5057 H   0  0  0  0  0  0  0  0  0  0  0  0
   -5.4442   18.1339  -35.0371 H   0  0  0  0  0  0  0  0  0  0  0  0
   -5.4539   20.4743  -34.1921 H   0  0  0  0  0  0  0  0  0  0  0  0
   -9.0738   21.8626  -32.0197 H   0  0  0  0  0  0  0  0  0  0  0  0
   -5.7759   25.6127  -28.9309 H   0  0  0  0  0  0  0  0  0  0  0  0
   -5.5707   26.6870  -30.3559 H   0  0  0  0  0  0  0  0  0  0  0  0
   -6.8543   25.4303  -30.3559 H   0  0  0  0  0  0  0  0  0  0  0  0
   -8.2471   19.3290  -31.0800 H   0  0  0  0  0  0  0  0  0  0  0  0
   -8.2318   16.9911  -31.9331 H   0  0  0  0  0  0  0  0  0  0  0  0
  1  2  1  0
  2  3  1  0
  3  4  1  0
  4  5  2  0
  5  6  1  0
  6  7  2  0
  7  8  1  0
  8  9  2  0
  9 10  1  0
 10 11  1  0
 11 12  1  0
 12 13  1  0
 11 14  2  0
  7 15  1  0
 15 16  2  0
 16  4  1  0
 14  8  1  0
  1 17  1  0
  1 18  1  0
  1 19  1  0
  2 20  1  0
  2 21  1  0
  3 22  1  0
  3 23  1  0
  5 24  1  0
  6 25  1  0
  9 26  1  0
 13 27  1  0
 13 28  1  0
 13 29  1  0
 15 30  1  0
 16 31  1  0
M  END
>  <UniqueID>  (47) 
43

>  <SMILES>  (47) 
CCCc1ccc(-c2csc(SC)n2)cc1

>  <Energy>  (47) 
53.925781748637434

>  <Genealogy>  (47) 
CCCc1ccc(-c2csc(SC)n2)cc1 (3D coordinates assigned)
CCCc1ccc(-c2csc(SC)n2)cc1 (optimized conformer: 53.925781748637434 kcal/mol)

>  <smiles>  (47) 
CCCc1ccc(-c2csc(SC)n2)cc1

>  <score_type>  (47) 
oracle

>  <origin>  (47) 
adgpu

>  <m_score__min__energy>  (47) 
-6.5099999999999998

>  <m_primary>  (47) 
energy

$$$$
47:0
     RDKit          3D

 39 41  0  0  0  0  0  0  0  0999 V2000
    1.1884   25.1359  -25.9856 H   0  0  0  0  0  0  0  0  0  0  0  0
    0.2610   24.7490  -26.4330 C   0  0  0  0  0  0  0  0  0  0  0  0
   -0.4120   23.6660  -25.8210 C   0  0  0  0  0  0  0  0  0  0  0  0
    0.1570   23.0240  -24.5920 C   0  0  0  0  0  0  0  0  0  0  0  0
   -0.2679   23.5034  -23.6977 H   0  0  0  0  0  0  0  0  0  0  0  0
   -0.0939   21.9530  -24.5881 H   0  0  0  0  0  0  0  0  0  0  0  0
    1.2504   23.1444  -24.5881 H   0  0  0  0  0  0  0  0  0  0  0  0
   -1.5830   23.1490  -26.4100 C   0  0  0  0  0  0  0  0  0  0  0  0
   -2.1080   22.2923  -25.9624 H   0  0  0  0  0  0  0  0  0  0  0  0
   -2.0590   23.7490  -27.5720 C   0  0  0  0  0  0  0  0  0  0  0  0
   -3.4200   23.3530  -28.4730 S   0  0  0  0  0  0  0  0  0  0  0  0
   -3.1100   24.5910  -29.5960 C   0  0  0  0  0  0  0  0  0  0  0  0
   -3.8400   24.8680  -30.6350 N   0  0  0  0  0  0  0  0  0  0  0  0
   -5.0530   24.1480  -31.0310 C   0  0  0  0  0  0  0  0  0  0  0  0
   -5.4728   24.6066  -31.9385 H   0  0  0  0  0  0  0  0  0  0  0  0
   -6.1270   24.2400  -29.9200 C   0  0  0  0  0  0  0  0  0  0  0  0
   -6.8200   25.0572  -30.1689 H   0  0  0  0  0  0  0  0  0  0  0  0
   -5.6034   24.4215  -28.9698 H   0  0  0  0  0  0  0  0  0  0  0  0
   -6.9380   22.9400  -29.7590 C   0  0  0  0  0  0  0  0  0  0  0  0
   -7.9040   23.1815  -29.2915 H   0  0  0  0  0  0  0  0  0  0  0  0
   -6.3497   22.2519  -29.1341 H   0  0  0  0  0  0  0  0  0  0  0  0
   -7.1900   22.2720  -31.0520 N   0  0  0  0  0  0  0  0  0  0  0  0
   -8.1290   23.0350  -31.9050 C   0  0  0  0  0  0  0  0  0  0  0  0
   -7.7111   23.1204  -32.9189 H   0  0  0  0  0  0  0  0  0  0  0  0
   -8.2738   24.0359  -31.4724 H   0  0  0  0  0  0  0  0  0  0  0  0
   -9.4760   22.3240  -31.9740 C   0  0  0  0  0  0  0  0  0  0  0  0
   -9.8414   22.1311  -30.9546 H   0  0  0  0  0  0  0  0  0  0  0  0
  -10.1984   22.9583  -32.5086 H   0  0  0  0  0  0  0  0  0  0  0  0
   -9.3599   21.3697  -32.5086 H   0  0  0  0  0  0  0  0  0  0  0  0
   -5.9390   21.8870  -31.7610 C   0  0  0  0  0  0  0  0  0  0  0  0
   -6.0908   22.0435  -32.8392 H   0  0  0  0  0  0  0  0  0  0  0  0
   -5.7420   20.8347  -31.5081 H   0  0  0  0  0  0  0  0  0  0  0  0
   -4.6950   22.6900  -31.3250 C   0  0  0  0  0  0  0  0  0  0  0  0
   -3.9475   22.6596  -32.1314 H   0  0  0  0  0  0  0  0  0  0  0  0
   -4.2929   22.2379  -30.4063 H   0  0  0  0  0  0  0  0  0  0  0  0
   -1.9940   25.2970  -29.2960 N   0  0  0  0  0  0  0  0  0  0  0  0
   -1.4120   24.8210  -28.1660 C   0  0  0  0  0  0  0  0  0  0  0  0
   -0.2420   25.3360  -27.6060 C   0  0  0  0  0  0  0  0  0  0  0  0
    0.2766   26.1856  -28.0743 H   0  0  0  0  0  0  0  0  0  0  0  0
  1  2  1  0
  2  3  2  0
  3  4  1  0
  4  5  1  0
  4  6  1  0
  4  7  1  0
  3  8  1  0
  8  9  1  0
  8 10  2  0
 10 11  1  0
 11 12  1  0
 12 13  2  0
 13 14  1  0
 14 15  1  0
 14 16  1  0
 16 17  1  0
 16 18  1  0
 16 19  1  0
 19 20  1  0
 19 21  1  0
 19 22  1  0
 22 23  1  0
 23 24  1  0
 23 25  1  0
 23 26  1  0
 26 27  1  0
 26 28  1  0
 26 29  1  0
 22 30  1  0
 30 31  1  0
 30 32  1  0
 30 33  1  0
 33 34  1  0
 33 35  1  0
 12 36  1  0
 36 37  1  0
 37 38  2  0
 38 39  1  0
 38  2  1  0
 37 10  1  0
 33 14  1  0
M  CHG  1  36  -1
M  END
>  <UniqueID>  (48) 
44

>  <SMILES>  (48) 
CCN1CCC(/N=c2/[n-]c3ccc(C)cc3s2)CC1

>  <Energy>  (48) 
80.49983483590066

>  <Genealogy>  (48) 
CCN1CCC(N=c2[n-]c3ccc(C)cc3s2)CC1 (protonated)
CCN1CCC(/N=c2/[n-]c3ccc(C)cc3s2)CC1 (cis-trans isomerization)
CCN1CCC(/N=c2/[n-]c3ccc(C)cc3s2)CC1 (3D coordinates assigned)
CCN1CCC(/N=c2/[n-]c3ccc(C)cc3s2)CC1 (nonaromatic ring conformer: 80.49983483590066 kcal/mol)

>  <smiles>  (48) 
CCN1CCC(N=c2[nH]c3ccc(C)cc3s2)CC1

>  <score_type>  (48) 
oracle

>  <origin>  (48) 
adgpu

>  <m_score__min__energy>  (48) 
-9.2400000000000002

>  <m_primary>  (48) 
energy

$$$$
