0:0
     RDKit          3D

 42 44  0  0  0  0  0  0  0  0999 V2000
   -1.5260   25.3610  -29.8850 H   0  0  0  0  0  0  0  0  0  0  0  0
   -1.5000   25.7900  -28.9330 N   0  0  0  0  0  0  0  0  0  0  0  0
   -0.6100   24.7120  -27.9150 S   0  0  0  0  0  0  0  0  0  0  0  0
    0.8570   24.8700  -28.2010 O   0  0  0  0  0  0  0  0  0  0  0  0
   -0.8820   25.0670  -26.4810 O   0  0  0  0  0  0  0  0  0  0  0  0
   -1.0850   23.0340  -28.2120 C   0  0  0  0  0  0  0  0  0  0  0  0
   -0.3820   21.9870  -27.5990 C   0  0  0  0  0  0  0  0  0  0  0  0
    0.4645   22.2114  -26.9334 H   0  0  0  0  0  0  0  0  0  0  0  0
   -0.7520   20.6620  -27.8300 C   0  0  0  0  0  0  0  0  0  0  0  0
   -0.2014   19.8393  -27.3505 H   0  0  0  0  0  0  0  0  0  0  0  0
   -1.8270   20.3920  -28.6750 C   0  0  0  0  0  0  0  0  0  0  0  0
   -2.1249   19.3513  -28.8707 H   0  0  0  0  0  0  0  0  0  0  0  0
   -2.5070   21.4140  -29.2570 N   0  0  0  0  0  0  0  0  0  0  0  0
   -2.1790   22.7220  -29.0430 C   0  0  0  0  0  0  0  0  0  0  0  0
   -2.8450   23.6790  -29.6280 N   0  0  0  0  0  0  0  0  0  0  0  0
   -4.0090   23.5330  -30.4590 C   0  0  0  0  0  0  0  0  0  0  0  0
   -4.4970   22.2650  -30.8270 C   0  0  0  0  0  0  0  0  0  0  0  0
   -3.9827   21.3585  -30.4753 H   0  0  0  0  0  0  0  0  0  0  0  0
   -5.6330   22.1500  -31.6380 C   0  0  0  0  0  0  0  0  0  0  0  0
   -6.2090   20.5570  -32.1250 S   0  0  0  0  0  0  0  0  0  0  0  0
   -5.1060   19.5490  -31.9580 O   0  0  0  0  0  0  0  0  0  0  0  0
   -6.6120   20.6190  -33.5710 O   0  0  0  0  0  0  0  0  0  0  0  0
   -7.5880   20.0960  -31.1470 N   0  0  0  0  0  0  0  0  0  0  0  0
   -8.1820   18.8500  -31.6450 C   0  0  0  0  0  0  0  0  0  0  0  0
   -7.4233   18.2671  -32.1878 H   0  0  0  0  0  0  0  0  0  0  0  0
   -8.5562   18.2461  -30.8052 H   0  0  0  0  0  0  0  0  0  0  0  0
   -9.3250   19.2080  -32.5840 C   0  0  0  0  0  0  0  0  0  0  0  0
   -9.0309   19.0342  -33.6296 H   0  0  0  0  0  0  0  0  0  0  0  0
  -10.2157   18.5917  -32.3921 H   0  0  0  0  0  0  0  0  0  0  0  0
   -9.6030   20.6800  -32.3510 C   0  0  0  0  0  0  0  0  0  0  0  0
   -9.4101   21.2573  -33.2672 H   0  0  0  0  0  0  0  0  0  0  0  0
  -10.6527   20.8582  -32.0748 H   0  0  0  0  0  0  0  0  0  0  0  0
   -8.6490   21.1040  -31.2450 C   0  0  0  0  0  0  0  0  0  0  0  0
   -8.2112   22.0840  -31.4857 H   0  0  0  0  0  0  0  0  0  0  0  0
   -9.1865   21.1857  -30.2887 H   0  0  0  0  0  0  0  0  0  0  0  0
   -6.3140   23.3020  -32.0460 C   0  0  0  0  0  0  0  0  0  0  0  0
   -7.2078   23.2154  -32.6814 H   0  0  0  0  0  0  0  0  0  0  0  0
   -5.8610   24.5620  -31.6480 C   0  0  0  0  0  0  0  0  0  0  0  0
   -6.4074   25.4641  -31.9605 H   0  0  0  0  0  0  0  0  0  0  0  0
   -4.7130   24.6820  -30.8520 C   0  0  0  0  0  0  0  0  0  0  0  0
   -4.2630   25.9400  -30.4530 O   0  0  0  0  0  0  0  0  0  0  0  0
   -3.4930   26.0460  -29.8040 H   0  0  0  0  0  0  0  0  0  0  0  0
  1  2  1  0
  2  3  1  0
  3  4  2  0
  3  5  2  0
  3  6  1  0
  6  7  2  0
  7  8  1  0
  7  9  1  0
  9 10  1  0
  9 11  2  0
 11 12  1  0
 11 13  1  0
 13 14  1  0
 14 15  2  0
 15 16  1  0
 16 17  2  0
 17 18  1  0
 17 19  1  0
 19 20  1  0
 20 21  2  0
 20 22  2  0
 20 23  1  0
 23 24  1  0
 24 25  1  0
 24 26  1  0
 24 27  1  0
 27 28  1  0
 27 29  1  0
 27 30  1  0
 30 31  1  0
 30 32  1  0
 30 33  1  0
 33 34  1  0
 33 35  1  0
 19 36  2  0
 36 37  1  0
 36 38  1  0
 38 39  1  0
 38 40  2  0
 40 41  1  0
 41 42  1  0
 14  6  1  0
 40 16  1  0
 33 23  1  0
M  CHG  2   2  -1  13  -1
M  END
>  <UniqueID>  (1) 
1

>  <SMILES>  (1) 
[NH-]S(=O)(=O)c1ccc[n-]/c1=N\c1cc(S(=O)(=O)N2CCCC2)ccc1O

>  <Energy>  (1) 
51.4377098670704

>  <Genealogy>  (1) 
[NH-]S(=O)(=O)c1ccc[n-]c1=Nc1cc(S(=O)(=O)N2CCCC2)ccc1O (protonated)
[NH-]S(=O)(=O)c1ccc[n-]/c1=N\c1cc(S(=O)(=O)N2CCCC2)ccc1O (cis-trans isomerization)
[NH-]S(=O)(=O)c1ccc[n-]/c1=N\c1cc(S(=O)(=O)N2CCCC2)ccc1O (3D coordinates assigned)
[NH-]S(=O)(=O)c1ccc[n-]/c1=N\c1cc(S(=O)(=O)N2CCCC2)ccc1O (nonaromatic ring conformer: 51.4377098670704 kcal/mol)

>  <smiles>  (1) 
NS(=O)(=O)c1ccc[nH]c1=Nc1cc(S(=O)(=O)N2CCCC2)ccc1O

>  <score_type>  (1) 
oracle

>  <origin>  (1) 
adgpu

>  <m_score__min__energy>  (1) 
-12.699999999999999

>  <m_primary>  (1) 
energy

$$$$
1:0
     RDKit          3D

 42 45  0  0  0  0  0  0  0  0999 V2000
   -8.0020   17.8290  -33.0720 O   0  0  0  0  0  0  0  0  0  0  0  0
   -7.7430   18.9310  -32.5210 C   0  0  0  0  0  0  0  0  0  0  0  0
   -8.6650   19.4930  -31.4770 C   0  0  0  0  0  0  0  0  0  0  0  0
   -8.6590   21.0290  -31.5110 C   0  0  0  0  0  0  0  0  0  0  0  0
   -7.2570   21.5890  -31.5630 C   0  0  0  0  0  0  0  0  0  0  0  0
   -6.9740   22.8500  -31.0130 C   0  0  0  0  0  0  0  0  0  0  0  0
   -5.6900   23.3990  -31.1290 C   0  0  0  0  0  0  0  0  0  0  0  0
   -5.3520   24.9730  -30.4140 S   0  0  0  0  0  0  0  0  0  0  0  0
   -6.0240   25.1140  -29.0750 O   0  0  0  0  0  0  0  0  0  0  0  0
   -5.8800   26.0430  -31.3280 O   0  0  0  0  0  0  0  0  0  0  0  0
   -3.6410   25.1820  -30.2240 N   0  0  0  0  0  0  0  0  0  0  0  0
   -2.8020   24.4220  -29.3420 C   0  0  0  0  0  0  0  0  0  0  0  0
   -3.1580   23.1340  -28.9020 C   0  0  0  0  0  0  0  0  0  0  0  0
   -2.3170   22.4150  -28.0400 C   0  0  0  0  0  0  0  0  0  0  0  0
   -1.1220   23.0050  -27.5790 C   0  0  0  0  0  0  0  0  0  0  0  0
   -0.7600   24.2790  -28.0350 C   0  0  0  0  0  0  0  0  0  0  0  0
   -1.5950   24.9840  -28.9070 C   0  0  0  0  0  0  0  0  0  0  0  0
   -1.2210   26.2530  -29.3380 O   0  0  0  0  0  0  0  0  0  0  0  0
   -0.1820   22.2400  -26.6760 C   0  0  0  0  0  0  0  0  0  0  0  0
   -0.8650   21.1600  -25.9490 N   0  0  0  0  0  0  0  0  0  0  0  0
   -1.6040   20.2960  -26.8770 C   0  0  0  0  0  0  0  0  0  0  0  0
   -2.7560   21.0630  -27.5390 C   0  0  0  0  0  0  0  0  0  0  0  0
   -4.6930   22.6980  -31.8210 C   0  0  0  0  0  0  0  0  0  0  0  0
   -4.9750   21.4550  -32.3920 C   0  0  0  0  0  0  0  0  0  0  0  0
   -6.2500   20.8960  -32.2640 C   0  0  0  0  0  0  0  0  0  0  0  0
   -6.5250   19.6110  -32.8280 N   0  0  0  0  0  0  0  0  0  0  0  0
   -9.6867   19.1324  -31.6669 H   0  0  0  0  0  0  0  0  0  0  0  0
   -8.3189   19.1617  -30.4868 H   0  0  0  0  0  0  0  0  0  0  0  0
   -9.2094   21.3665  -32.4016 H   0  0  0  0  0  0  0  0  0  0  0  0
   -9.1351   21.3909  -30.5878 H   0  0  0  0  0  0  0  0  0  0  0  0
   -7.7635   23.4088  -30.4891 H   0  0  0  0  0  0  0  0  0  0  0  0
   -4.1052   22.6864  -29.2373 H   0  0  0  0  0  0  0  0  0  0  0  0
    0.1882   24.7281  -27.7046 H   0  0  0  0  0  0  0  0  0  0  0  0
    0.6198   21.8024  -27.2888 H   0  0  0  0  0  0  0  0  0  0  0  0
    0.2203   22.9447  -25.9333 H   0  0  0  0  0  0  0  0  0  0  0  0
   -1.5350   21.5840  -25.2640 H   0  0  0  0  0  0  0  0  0  0  0  0
   -0.9174   19.9341  -27.6565 H   0  0  0  0  0  0  0  0  0  0  0  0
   -2.0234   19.4506  -26.3119 H   0  0  0  0  0  0  0  0  0  0  0  0
   -3.1333   20.4745  -28.3883 H   0  0  0  0  0  0  0  0  0  0  0  0
   -3.5406   21.2178  -26.7838 H   0  0  0  0  0  0  0  0  0  0  0  0
   -3.6850   23.1283  -31.9147 H   0  0  0  0  0  0  0  0  0  0  0  0
   -4.1919   20.9145  -32.9439 H   0  0  0  0  0  0  0  0  0  0  0  0
  1  2  2  0
  2  3  1  0
  3  4  1  0
  4  5  1  0
  5  6  2  0
  6  7  1  0
  7  8  1  0
  8  9  2  0
  8 10  2  0
  8 11  1  0
 11 12  1  0
 12 13  2  0
 13 14  1  0
 14 15  2  0
 15 16  1  0
 16 17  2  0
 17 18  1  0
 15 19  1  0
 19 20  1  0
 20 21  1  0
 21 22  1  0
  7 23  2  0
 23 24  1  0
 24 25  2  0
 25 26  1  0
 26  2  1  0
 25  5  1  0
 17 12  1  0
 22 14  1  0
  3 27  1  0
  3 28  1  0
  4 29  1  0
  4 30  1  0
  6 31  1  0
 13 32  1  0
 16 33  1  0
 19 34  1  0
 19 35  1  0
 20 36  1  0
 21 37  1  0
 21 38  1  0
 22 39  1  0
 22 40  1  0
 23 41  1  0
 24 42  1  0
M  CHG  3  11  -1  18  -1  26  -1
M  END
>  <UniqueID>  (2) 
2

>  <SMILES>  (2) 
O=C1CCc2cc(S(=O)(=O)[N-]c3cc4c(cc3[O-])CNCC4)ccc2[N-]1

>  <Energy>  (2) 
50.6087202067269

>  <Genealogy>  (2) 
O=C1CCc2cc(S(=O)(=O)[N-]c3cc4c(cc3[O-])CNCC4)ccc2[N-]1 (protonated)
O=C1CCc2cc(S(=O)(=O)[N-]c3cc4c(cc3[O-])CNCC4)ccc2[N-]1 (3D coordinates assigned)
O=C1CCc2cc(S(=O)(=O)[N-]c3cc4c(cc3[O-])CNCC4)ccc2[N-]1 (nonaromatic ring conformer: 50.6087202067269 kcal/mol)

>  <smiles>  (2) 
O=C1CCc2cc(S(=O)(=O)Nc3cc4c(cc3O)CNCC4)ccc2N1

>  <score_type>  (2) 
oracle

>  <origin>  (2) 
adgpu

>  <m_score__min__energy>  (2) 
-14.050000000000001

>  <m_primary>  (2) 
energy

$$$$
2:0
     RDKit          3D

 53 57  0  0  0  0  0  0  0  0999 V2000
   -0.9050   19.5130  -27.8400 C   0  0  0  0  0  0  0  0  0  0  0  0
   -1.8900   20.1220  -26.9320 N   0  0  0  0  0  0  0  0  0  0  0  0
   -1.2610   20.9250  -25.8660 C   0  0  0  0  0  0  0  0  0  0  0  0
   -0.5360   22.1630  -26.4130 C   0  0  0  0  0  0  0  0  0  0  0  0
   -1.3420   22.8820  -27.4630 C   0  0  0  0  0  0  0  0  0  0  0  0
   -0.9400   24.1600  -27.8780 C   0  0  0  0  0  0  0  0  0  0  0  0
   -1.6450   24.8430  -28.8760 C   0  0  0  0  0  0  0  0  0  0  0  0
   -1.2070   26.1120  -29.2560 O   0  0  0  0  0  0  0  0  0  0  0  0
   -2.7710   24.2530  -29.4680 C   0  0  0  0  0  0  0  0  0  0  0  0
   -3.5330   24.9930  -30.4330 N   0  0  0  0  0  0  0  0  0  0  0  0
   -5.2660   25.0910  -30.4770 S   0  0  0  0  0  0  0  0  0  0  0  0
   -5.7750   25.2220  -29.0700 O   0  0  0  0  0  0  0  0  0  0  0  0
   -5.7060   26.3060  -31.2470 O   0  0  0  0  0  0  0  0  0  0  0  0
   -5.9260   23.6190  -31.1910 C   0  0  0  0  0  0  0  0  0  0  0  0
   -5.1430   22.8380  -32.0720 C   0  0  0  0  0  0  0  0  0  0  0  0
   -5.6400   21.6300  -32.5860 C   0  0  0  0  0  0  0  0  0  0  0  0
   -6.9260   21.2270  -32.2130 C   0  0  0  0  0  0  0  0  0  0  0  0
   -7.7110   22.0070  -31.4090 C   0  0  0  0  0  0  0  0  0  0  0  0
   -7.2310   23.2010  -30.8620 C   0  0  0  0  0  0  0  0  0  0  0  0
   -9.0600   21.3980  -31.2430 C   0  0  0  0  0  0  0  0  0  0  0  0
   -8.9920   20.1340  -32.1360 C   0  0  0  0  0  0  0  0  0  0  0  0
   -7.6190   20.0670  -32.6410 N   0  0  0  0  0  0  0  0  0  0  0  0
   -7.0440   18.8830  -33.2120 C   0  0  0  0  0  0  0  0  0  0  0  0
   -6.1540   18.9610  -34.2910 C   0  0  0  0  0  0  0  0  0  0  0  0
   -5.5850   17.7950  -34.7900 C   0  0  0  0  0  0  0  0  0  0  0  0
   -5.9170   16.5750  -34.2000 C   0  0  0  0  0  0  0  0  0  0  0  0
   -5.4260   15.5030  -34.6370 O   0  0  0  0  0  0  0  0  0  0  0  0
   -6.7740   16.5500  -33.1460 N   0  0  0  0  0  0  0  0  0  0  0  0
   -7.3130   17.6680  -32.6630 N   0  0  0  0  0  0  0  0  0  0  0  0
   -3.1320   22.9480  -29.0970 C   0  0  0  0  0  0  0  0  0  0  0  0
   -2.4250   22.2560  -28.1050 C   0  0  0  0  0  0  0  0  0  0  0  0
   -2.9140   20.8950  -27.6620 C   0  0  0  0  0  0  0  0  0  0  0  0
   -0.1153   19.0247  -27.2501 H   0  0  0  0  0  0  0  0  0  0  0  0
   -1.4040   18.7656  -28.4743 H   0  0  0  0  0  0  0  0  0  0  0  0
   -0.4594   20.2934  -28.4743 H   0  0  0  0  0  0  0  0  0  0  0  0
   -2.0421   21.2545  -25.1650 H   0  0  0  0  0  0  0  0  0  0  0  0
   -0.5120   20.2917  -25.3681 H   0  0  0  0  0  0  0  0  0  0  0  0
   -0.3420   22.8555  -25.5807 H   0  0  0  0  0  0  0  0  0  0  0  0
    0.3999   21.8244  -26.8815 H   0  0  0  0  0  0  0  0  0  0  0  0
   -0.0608   24.6309  -27.4140 H   0  0  0  0  0  0  0  0  0  0  0  0
   -1.2410   26.4330  -30.2170 H   0  0  0  0  0  0  0  0  0  0  0  0
   -4.1369   23.1796  -32.3567 H   0  0  0  0  0  0  0  0  0  0  0  0
   -5.0323   21.0150  -33.2660 H   0  0  0  0  0  0  0  0  0  0  0  0
   -7.8595   23.8020  -30.1883 H   0  0  0  0  0  0  0  0  0  0  0  0
   -9.2444   21.1290  -30.1925 H   0  0  0  0  0  0  0  0  0  0  0  0
   -9.8774   22.0791  -31.5222 H   0  0  0  0  0  0  0  0  0  0  0  0
   -9.2257   19.2361  -31.5451 H   0  0  0  0  0  0  0  0  0  0  0  0
   -9.7208   20.1833  -32.9585 H   0  0  0  0  0  0  0  0  0  0  0  0
   -5.9079   19.9351  -34.7389 H   0  0  0  0  0  0  0  0  0  0  0  0
   -4.8840   17.8336  -35.6368 H   0  0  0  0  0  0  0  0  0  0  0  0
   -3.9841   22.4607  -29.5934 H   0  0  0  0  0  0  0  0  0  0  0  0
   -3.7843   21.0328  -27.0035 H   0  0  0  0  0  0  0  0  0  0  0  0
   -3.1698   20.3270  -28.5686 H   0  0  0  0  0  0  0  0  0  0  0  0
  1  2  1  0
  2  3  1  0
  3  4  1  0
  4  5  1  0
  5  6  2  0
  6  7  1  0
  7  8  1  0
  7  9  2  0
  9 10  1  0
 10 11  1  0
 11 12  2  0
 11 13  2  0
 11 14  1  0
 14 15  2  0
 15 16  1  0
 16 17  2  0
 17 18  1  0
 18 19  2  0
 18 20  1  0
 20 21  1  0
 21 22  1  0
 22 23  1  0
 23 24  1  0
 24 25  2  0
 25 26  1  0
 26 27  2  0
 26 28  1  0
 28 29  1  0
  9 30  1  0
 30 31  2  0
 31 32  1  0
 32  2  1  0
 31  5  1  0
 19 14  1  0
 29 23  2  0
 22 17  1  0
  1 33  1  0
  1 34  1  0
  1 35  1  0
  3 36  1  0
  3 37  1  0
  4 38  1  0
  4 39  1  0
  6 40  1  0
  8 41  1  0
 15 42  1  0
 16 43  1  0
 19 44  1  0
 20 45  1  0
 20 46  1  0
 21 47  1  0
 21 48  1  0
 24 49  1  0
 25 50  1  0
 30 51  1  0
 32 52  1  0
 32 53  1  0
M  CHG  2  10  -1  28  -1
M  END
>  <UniqueID>  (3) 
3

>  <SMILES>  (3) 
CN1CCc2cc(O)c([N-]S(=O)(=O)c3ccc4c(c3)CCN4c3ccc(=O)[n-]n3)cc2C1

>  <Energy>  (3) 
89.32085192205369

>  <Genealogy>  (3) 
CN1CCc2cc(O)c([N-]S(=O)(=O)c3ccc4c(c3)CCN4c3ccc(=O)[n-]n3)cc2C1 (protonated)
CN1CCc2cc(O)c([N-]S(=O)(=O)c3ccc4c(c3)CCN4c3ccc(=O)[n-]n3)cc2C1 (3D coordinates assigned)
CN1CCc2cc(O)c([N-]S(=O)(=O)c3ccc4c(c3)CCN4c3ccc(=O)[n-]n3)cc2C1 (nonaromatic ring conformer: 89.32085192205369 kcal/mol)

>  <smiles>  (3) 
CN1CCc2cc(O)c(NS(=O)(=O)c3ccc4c(c3)CCN4c3ccc(=O)[nH]n3)cc2C1

>  <score_type>  (3) 
oracle

>  <origin>  (3) 
adgpu

>  <m_score__min__energy>  (3) 
-14.109999999999999

>  <m_primary>  (3) 
energy

$$$$
3:0
     RDKit          3D

 44 47  0  0  0  0  0  0  0  0999 V2000
   -2.0960   25.2190  -29.3370 O   0  0  0  0  0  0  0  0  0  0  0  0
   -3.2110   24.7740  -29.7180 C   0  0  0  0  0  0  0  0  0  0  0  0
   -3.8810   25.3050  -30.7740 N   0  0  0  0  0  0  0  0  0  0  0  0
   -4.9810   24.5390  -30.8190 C   0  0  0  0  0  0  0  0  0  0  0  0
   -6.0380   24.6230  -31.7190 C   0  0  0  0  0  0  0  0  0  0  0  0
   -7.0900   23.6970  -31.5830 C   0  0  0  0  0  0  0  0  0  0  0  0
   -7.0580   22.7110  -30.5570 C   0  0  0  0  0  0  0  0  0  0  0  0
   -8.1020   21.7420  -30.4000 N   0  0  0  0  0  0  0  0  0  0  0  0
   -8.4930   20.5000  -31.5430 S   0  0  0  0  0  0  0  0  0  0  0  0
   -9.1200   19.3420  -30.8170 O   0  0  0  0  0  0  0  0  0  0  0  0
   -9.4790   21.0340  -32.5450 O   0  0  0  0  0  0  0  0  0  0  0  0
   -7.0220   19.9400  -32.3340 C   0  0  0  0  0  0  0  0  0  0  0  0
   -7.0560   18.7720  -33.1050 C   0  0  0  0  0  0  0  0  0  0  0  0
   -5.8980   18.3160  -33.7370 C   0  0  0  0  0  0  0  0  0  0  0  0
   -4.6990   19.0210  -33.6010 C   0  0  0  0  0  0  0  0  0  0  0  0
   -4.6530   20.1870  -32.8250 C   0  0  0  0  0  0  0  0  0  0  0  0
   -3.1510   21.0910  -32.6620 S   0  0  0  0  0  0  0  0  0  0  0  0
   -1.9970   20.2040  -33.0420 O   0  0  0  0  0  0  0  0  0  0  0  0
   -3.1690   22.2760  -33.5890 O   0  0  0  0  0  0  0  0  0  0  0  0
   -2.9660   21.6130  -31.0070 N   0  0  0  0  0  0  0  0  0  0  0  0
   -3.4140   20.5900  -30.0580 C   0  0  0  0  0  0  0  0  0  0  0  0
   -2.6060   20.7910  -28.7810 C   0  0  0  0  0  0  0  0  0  0  0  0
   -1.4300   21.6730  -29.1740 C   0  0  0  0  0  0  0  0  0  0  0  0
   -1.5660   21.8830  -30.6750 C   0  0  0  0  0  0  0  0  0  0  0  0
   -5.8200   20.6500  -32.2000 C   0  0  0  0  0  0  0  0  0  0  0  0
   -5.9670   22.6710  -29.6650 C   0  0  0  0  0  0  0  0  0  0  0  0
   -4.9480   23.6040  -29.8310 C   0  0  0  0  0  0  0  0  0  0  0  0
   -3.8250   23.7280  -29.1090 N   0  0  0  0  0  0  0  0  0  0  0  0
   -6.0517   25.3870  -32.5103 H   0  0  0  0  0  0  0  0  0  0  0  0
   -7.9438   23.7359  -32.2755 H   0  0  0  0  0  0  0  0  0  0  0  0
   -7.9970   18.2126  -33.2129 H   0  0  0  0  0  0  0  0  0  0  0  0
   -5.9292   17.3991  -34.3439 H   0  0  0  0  0  0  0  0  0  0  0  0
   -3.7898   18.6600  -34.1040 H   0  0  0  0  0  0  0  0  0  0  0  0
   -3.5290   22.4860  -30.8670 H   0  0  0  0  0  0  0  0  0  0  0  0
   -4.4874   20.7103  -29.8500 H   0  0  0  0  0  0  0  0  0  0  0  0
   -3.2633   19.5796  -30.4659 H   0  0  0  0  0  0  0  0  0  0  0  0
   -3.2182   21.2872  -28.0136 H   0  0  0  0  0  0  0  0  0  0  0  0
   -2.2716   19.8329  -28.3565 H   0  0  0  0  0  0  0  0  0  0  0  0
   -1.4776   22.6362  -28.6448 H   0  0  0  0  0  0  0  0  0  0  0  0
   -0.4668   21.2114  -28.9112 H   0  0  0  0  0  0  0  0  0  0  0  0
   -1.3057   22.9186  -30.9390 H   0  0  0  0  0  0  0  0  0  0  0  0
   -0.8895   21.2186  -31.2327 H   0  0  0  0  0  0  0  0  0  0  0  0
   -5.7924   21.5732  -31.6026 H   0  0  0  0  0  0  0  0  0  0  0  0
   -5.9225   21.9228  -28.8599 H   0  0  0  0  0  0  0  0  0  0  0  0
  1  2  2  0
  2  3  1  0
  3  4  1  0
  4  5  2  0
  5  6  1  0
  6  7  2  0
  7  8  1  0
  8  9  1  0
  9 10  2  0
  9 11  2  0
  9 12  1  0
 12 13  2  0
 13 14  1  0
 14 15  2  0
 15 16  1  0
 16 17  1  0
 17 18  2  0
 17 19  2  0
 17 20  1  0
 20 21  1  0
 21 22  1  0
 22 23  1  0
 23 24  1  0
 16 25  2  0
  7 26  1  0
 26 27  2  0
 27 28  1  0
 28  2  1  0
 27  4  1  0
 25 12  1  0
 24 20  1  0
  5 29  1  0
  6 30  1  0
 13 31  1  0
 14 32  1  0
 15 33  1  0
 20 34  1  0
 21 35  1  0
 21 36  1  0
 22 37  1  0
 22 38  1  0
 23 39  1  0
 23 40  1  0
 24 41  1  0
 24 42  1  0
 25 43  1  0
 26 44  1  0
M  CHG  4   3  -1   8  -1  20   1  28  -1
M  END
>  <UniqueID>  (4) 
4

>  <SMILES>  (4) 
O=c1[n-]c2ccc([N-]S(=O)(=O)c3cccc(S(=O)(=O)[NH+]4CCCC4)c3)cc2[n-]1

>  <Energy>  (4) 
86.02558892041841

>  <Genealogy>  (4) 
O=c1[n-]c2ccc([N-]S(=O)(=O)c3cccc(S(=O)(=O)[NH+]4CCCC4)c3)cc2[n-]1 (protonated)
O=c1[n-]c2ccc([N-]S(=O)(=O)c3cccc(S(=O)(=O)[NH+]4CCCC4)c3)cc2[n-]1 (3D coordinates assigned)
O=c1[n-]c2ccc([N-]S(=O)(=O)c3cccc(S(=O)(=O)[NH+]4CCCC4)c3)cc2[n-]1 (nonaromatic ring conformer: 86.02558892041841 kcal/mol)

>  <smiles>  (4) 
O=c1[nH]c2ccc(NS(=O)(=O)c3cccc(S(=O)(=O)N4CCCC4)c3)cc2[nH]1

>  <score_type>  (4) 
oracle

>  <origin>  (4) 
adgpu

>  <m_score__min__energy>  (4) 
-11.6

>  <m_primary>  (4) 
energy

$$$$
4:0
     RDKit          3D

 49 52  0  0  0  0  0  0  0  0999 V2000
   -4.9730   24.9090  -31.2180 O   0  0  0  0  0  0  0  0  0  0  0  0
   -5.4740   23.8040  -31.5650 C   0  0  0  0  0  0  0  0  0  0  0  0
   -6.8020   23.7860  -32.2490 C   0  0  0  0  0  0  0  0  0  0  0  0
   -7.9840   22.8260  -31.2500 S   0  0  0  0  0  0  0  0  0  0  0  0
   -7.5140   21.2670  -31.9930 C   0  0  0  0  0  0  0  0  0  0  0  0
   -8.0580   20.0810  -31.6080 N   0  0  0  0  0  0  0  0  0  0  0  0
   -7.4350   19.2120  -32.4160 C   0  0  0  0  0  0  0  0  0  0  0  0
   -7.5860   17.8320  -32.4830 C   0  0  0  0  0  0  0  0  0  0  0  0
   -6.8060   17.1450  -33.4310 C   0  0  0  0  0  0  0  0  0  0  0  0
   -5.9170   17.8670  -34.2620 C   0  0  0  0  0  0  0  0  0  0  0  0
   -5.8100   19.2270  -34.1510 N   0  0  0  0  0  0  0  0  0  0  0  0
   -6.5710   19.8670  -33.2300 C   0  0  0  0  0  0  0  0  0  0  0  0
   -6.5930   21.1840  -32.9890 N   0  0  0  0  0  0  0  0  0  0  0  0
   -4.8240   22.5680  -31.2310 N   0  0  0  0  0  0  0  0  0  0  0  0
   -3.4690   22.4710  -30.7590 C   0  0  0  0  0  0  0  0  0  0  0  0
   -2.6650   21.4070  -31.1910 C   0  0  0  0  0  0  0  0  0  0  0  0
   -1.3400   21.3030  -30.7650 C   0  0  0  0  0  0  0  0  0  0  0  0
   -0.7980   22.2700  -29.9160 C   0  0  0  0  0  0  0  0  0  0  0  0
   -1.5770   23.3570  -29.4990 C   0  0  0  0  0  0  0  0  0  0  0  0
   -0.8790   24.6070  -28.4660 S   0  0  0  0  0  0  0  0  0  0  0  0
   -1.3190   25.9590  -28.9590 O   0  0  0  0  0  0  0  0  0  0  0  0
    0.6200   24.5450  -28.5560 O   0  0  0  0  0  0  0  0  0  0  0  0
   -1.3660   24.4100  -26.7980 N   0  0  0  0  0  0  0  0  0  0  0  0
   -0.1910   24.1160  -25.9490 C   0  0  0  0  0  0  0  0  0  0  0  0
   -0.4940   24.3590  -24.4690 C   0  0  0  0  0  0  0  0  0  0  0  0
   -0.8420   25.8370  -24.2100 C   0  0  0  0  0  0  0  0  0  0  0  0
   -1.4230   26.5370  -25.4510 C   0  0  0  0  0  0  0  0  0  0  0  0
   -2.1990   25.5480  -26.3330 C   0  0  0  0  0  0  0  0  0  0  0  0
   -2.9120   23.4550  -29.9210 C   0  0  0  0  0  0  0  0  0  0  0  0
   -7.1699   24.8163  -32.3633 H   0  0  0  0  0  0  0  0  0  0  0  0
   -6.6980   23.3225  -33.2412 H   0  0  0  0  0  0  0  0  0  0  0  0
   -8.2860   17.2993  -31.8225 H   0  0  0  0  0  0  0  0  0  0  0  0
   -6.8868   16.0521  -33.5258 H   0  0  0  0  0  0  0  0  0  0  0  0
   -5.3067   17.3307  -35.0036 H   0  0  0  0  0  0  0  0  0  0  0  0
   -5.3980   21.6960  -31.2600 H   0  0  0  0  0  0  0  0  0  0  0  0
   -3.0813   20.6487  -31.8705 H   0  0  0  0  0  0  0  0  0  0  0  0
   -0.7211   20.4571  -31.0989 H   0  0  0  0  0  0  0  0  0  0  0  0
    0.2433   22.1780  -29.5737 H   0  0  0  0  0  0  0  0  0  0  0  0
    0.0953   23.0629  -26.0871 H   0  0  0  0  0  0  0  0  0  0  0  0
    0.6278   24.7868  -26.2484 H   0  0  0  0  0  0  0  0  0  0  0  0
   -1.3460   23.7313  -24.1689 H   0  0  0  0  0  0  0  0  0  0  0  0
    0.4005   24.1025  -23.8824 H   0  0  0  0  0  0  0  0  0  0  0  0
   -1.5831   25.8870  -23.3986 H   0  0  0  0  0  0  0  0  0  0  0  0
    0.0904   26.3557  -23.9422 H   0  0  0  0  0  0  0  0  0  0  0  0
   -2.1031   27.3380  -25.1258 H   0  0  0  0  0  0  0  0  0  0  0  0
   -0.5909   26.9505  -26.0397 H   0  0  0  0  0  0  0  0  0  0  0  0
   -3.0447   25.1498  -25.7531 H   0  0  0  0  0  0  0  0  0  0  0  0
   -2.5357   26.0962  -27.2253 H   0  0  0  0  0  0  0  0  0  0  0  0
   -3.5270   24.3066  -29.5946 H   0  0  0  0  0  0  0  0  0  0  0  0
  1  2  2  0
  2  3  1  0
  3  4  1  0
  4  5  1  0
  5  6  2  0
  6  7  1  0
  7  8  2  0
  8  9  1  0
  9 10  2  0
 10 11  1  0
 11 12  2  0
 12 13  1  0
  2 14  1  0
 14 15  1  0
 15 16  2  0
 16 17  1  0
 17 18  2  0
 18 19  1  0
 19 20  1  0
 20 21  2  0
 20 22  2  0
 20 23  1  0
 23 24  1  0
 24 25  1  0
 25 26  1  0
 26 27  1  0
 27 28  1  0
 19 29  2  0
 13  5  1  0
 29 15  1  0
 12  7  1  0
 28 23  1  0
  3 30  1  0
  3 31  1  0
  8 32  1  0
  9 33  1  0
 10 34  1  0
 14 35  1  0
 16 36  1  0
 17 37  1  0
 18 38  1  0
 24 39  1  0
 24 40  1  0
 25 41  1  0
 25 42  1  0
 26 43  1  0
 26 44  1  0
 27 45  1  0
 27 46  1  0
 28 47  1  0
 28 48  1  0
 29 49  1  0
M  CHG  1  13  -1
M  END
>  <UniqueID>  (5) 
5

>  <SMILES>  (5) 
O=C(CSc1nc2cccnc2[n-]1)Nc1cccc(S(=O)(=O)N2CCCCC2)c1

>  <Energy>  (5) 
91.57391383058503

>  <Genealogy>  (5) 
O=C(CSc1nc2cccnc2[n-]1)Nc1cccc(S(=O)(=O)N2CCCCC2)c1 (protonated)
O=C(CSc1nc2cccnc2[n-]1)Nc1cccc(S(=O)(=O)N2CCCCC2)c1 (3D coordinates assigned)
O=C(CSc1nc2cccnc2[n-]1)Nc1cccc(S(=O)(=O)N2CCCCC2)c1 (nonaromatic ring conformer: 91.57391383058503 kcal/mol)

>  <smiles>  (5) 
O=C(CSc1nc2cccnc2[nH]1)Nc1cccc(S(=O)(=O)N2CCCCC2)c1

>  <score_type>  (5) 
oracle

>  <origin>  (5) 
adgpu

>  <m_score__min__energy>  (5) 
-10.710000000000001

>  <m_primary>  (5) 
energy

$$$$
5:0
     RDKit          3D

 62 66  0  0  0  0  0  0  0  0999 V2000
   -0.5760   18.3230  -33.0500 C   0  0  0  0  0  0  0  0  0  0  0  0
   -0.4880   19.7910  -32.9440 N   0  0  0  0  0  0  0  0  0  0  0  0
   -1.1170   20.4810  -34.1000 C   0  0  0  0  0  0  0  0  0  0  0  0
   -2.4580   21.1730  -33.7790 C   0  0  0  0  0  0  0  0  0  0  0  0
   -3.1740   20.4580  -32.7210 N   0  0  0  0  0  0  0  0  0  0  0  0
   -4.6010   20.2860  -32.7980 C   0  0  0  0  0  0  0  0  0  0  0  0
   -5.1190   19.1350  -33.4070 C   0  0  0  0  0  0  0  0  0  0  0  0
   -6.4980   18.9460  -33.5120 C   0  0  0  0  0  0  0  0  0  0  0  0
   -7.3800   19.9050  -33.0150 C   0  0  0  0  0  0  0  0  0  0  0  0
   -6.8880   21.0670  -32.4040 C   0  0  0  0  0  0  0  0  0  0  0  0
   -7.7750   22.0370  -31.9150 C   0  0  0  0  0  0  0  0  0  0  0  0
   -7.2860   23.1990  -31.3130 C   0  0  0  0  0  0  0  0  0  0  0  0
   -5.9080   23.4020  -31.1910 C   0  0  0  0  0  0  0  0  0  0  0  0
   -5.2830   24.8680  -30.4390 S   0  0  0  0  0  0  0  0  0  0  0  0
   -5.7550   24.9490  -29.0140 O   0  0  0  0  0  0  0  0  0  0  0  0
   -5.8130   26.0630  -31.1810 O   0  0  0  0  0  0  0  0  0  0  0  0
   -3.5520   24.9150  -30.4680 N   0  0  0  0  0  0  0  0  0  0  0  0
   -2.7310   24.1160  -29.6100 C   0  0  0  0  0  0  0  0  0  0  0  0
   -3.0310   22.7640  -29.4000 C   0  0  0  0  0  0  0  0  0  0  0  0
   -2.1880   21.9560  -28.6230 C   0  0  0  0  0  0  0  0  0  0  0  0
   -1.0370   22.5150  -28.0320 C   0  0  0  0  0  0  0  0  0  0  0  0
   -0.7320   23.8650  -28.2590 C   0  0  0  0  0  0  0  0  0  0  0  0
   -1.5670   24.6650  -29.0440 C   0  0  0  0  0  0  0  0  0  0  0  0
   -1.2210   26.0010  -29.2490 O   0  0  0  0  0  0  0  0  0  0  0  0
   -0.0500   21.6530  -27.2770 C   0  0  0  0  0  0  0  0  0  0  0  0
   -0.6340   20.3860  -26.7900 N   0  0  0  0  0  0  0  0  0  0  0  0
   -1.4300   20.5840  -25.5670 C   0  0  0  0  0  0  0  0  0  0  0  0
   -1.3860   19.6910  -27.8530 C   0  0  0  0  0  0  0  0  0  0  0  0
   -2.5660   20.5200  -28.3780 C   0  0  0  0  0  0  0  0  0  0  0  0
   -5.0160   22.4440  -31.6840 C   0  0  0  0  0  0  0  0  0  0  0  0
   -5.4870   21.2650  -32.2890 C   0  0  0  0  0  0  0  0  0  0  0  0
   -2.4800   20.1310  -31.4740 C   0  0  0  0  0  0  0  0  0  0  0  0
   -0.9590   20.2810  -31.6330 C   0  0  0  0  0  0  0  0  0  0  0  0
   -0.6023   17.8835  -32.0420 H   0  0  0  0  0  0  0  0  0  0  0  0
   -1.4922   18.0489  -33.5936 H   0  0  0  0  0  0  0  0  0  0  0  0
    0.3009   17.9414  -33.5936 H   0  0  0  0  0  0  0  0  0  0  0  0
   -0.4156   21.2445  -34.4677 H   0  0  0  0  0  0  0  0  0  0  0  0
   -1.3366   19.7038  -34.8468 H   0  0  0  0  0  0  0  0  0  0  0  0
   -2.2615   22.2035  -33.4481 H   0  0  0  0  0  0  0  0  0  0  0  0
   -3.0798   21.1731  -34.6864 H   0  0  0  0  0  0  0  0  0  0  0  0
   -4.4326   18.3736  -33.8059 H   0  0  0  0  0  0  0  0  0  0  0  0
   -6.8909   18.0361  -33.9891 H   0  0  0  0  0  0  0  0  0  0  0  0
   -8.4654   19.7493  -33.1026 H   0  0  0  0  0  0  0  0  0  0  0  0
   -8.8603   21.8823  -32.0058 H   0  0  0  0  0  0  0  0  0  0  0  0
   -7.9874   23.9567  -30.9337 H   0  0  0  0  0  0  0  0  0  0  0  0
   -3.9372   22.3314  -29.8491 H   0  0  0  0  0  0  0  0  0  0  0  0
    0.1753   24.2994  -27.8139 H   0  0  0  0  0  0  0  0  0  0  0  0
   -1.2340   26.4290  -30.1660 H   0  0  0  0  0  0  0  0  0  0  0  0
    0.7900   21.4158  -27.9464 H   0  0  0  0  0  0  0  0  0  0  0  0
    0.2725   22.2240  -26.3938 H   0  0  0  0  0  0  0  0  0  0  0  0
   -0.7924   20.4254  -24.6848 H   0  0  0  0  0  0  0  0  0  0  0  0
   -1.8293   21.6088  -25.5513 H   0  0  0  0  0  0  0  0  0  0  0  0
   -2.2629   19.8657  -25.5513 H   0  0  0  0  0  0  0  0  0  0  0  0
   -0.7026   19.4817  -28.6891 H   0  0  0  0  0  0  0  0  0  0  0  0
   -1.7943   18.7650  -27.4220 H   0  0  0  0  0  0  0  0  0  0  0  0
   -2.9155   20.0795  -29.3234 H   0  0  0  0  0  0  0  0  0  0  0  0
   -3.3561   20.5048  -27.6128 H   0  0  0  0  0  0  0  0  0  0  0  0
   -3.9328   22.6149  -31.5974 H   0  0  0  0  0  0  0  0  0  0  0  0
   -2.8272   20.8095  -30.6808 H   0  0  0  0  0  0  0  0  0  0  0  0
   -2.7031   19.0859  -31.2131 H   0  0  0  0  0  0  0  0  0  0  0  0
   -0.6951   21.3444  -31.5358 H   0  0  0  0  0  0  0  0  0  0  0  0
   -0.4749   19.6774  -30.8512 H   0  0  0  0  0  0  0  0  0  0  0  0
  1  2  1  0
  2  3  1  0
  3  4  1  0
  4  5  1  0
  5  6  1  0
  6  7  2  0
  7  8  1  0
  8  9  2  0
  9 10  1  0
 10 11  2  0
 11 12  1  0
 12 13  2  0
 13 14  1  0
 14 15  2  0
 14 16  2  0
 14 17  1  0
 17 18  1  0
 18 19  2  0
 19 20  1  0
 20 21  2  0
 21 22  1  0
 22 23  2  0
 23 24  1  0
 21 25  1  0
 25 26  1  0
 26 27  1  0
 26 28  1  0
 28 29  1  0
 13 30  1  0
 30 31  2  0
  5 32  1  0
 32 33  1  0
 33  2  1  0
 31  6  1  0
 31 10  1  0
 23 18  1  0
 29 20  1  0
  1 34  1  0
  1 35  1  0
  1 36  1  0
  3 37  1  0
  3 38  1  0
  4 39  1  0
  4 40  1  0
  7 41  1  0
  8 42  1  0
  9 43  1  0
 11 44  1  0
 12 45  1  0
 19 46  1  0
 22 47  1  0
 24 48  1  0
 25 49  1  0
 25 50  1  0
 27 51  1  0
 27 52  1  0
 27 53  1  0
 28 54  1  0
 28 55  1  0
 29 56  1  0
 29 57  1  0
 30 58  1  0
 32 59  1  0
 32 60  1  0
 33 61  1  0
 33 62  1  0
M  CHG  1  17  -1
M  END
>  <UniqueID>  (6) 
6

>  <SMILES>  (6) 
CN1CCN(c2cccc3ccc(S(=O)(=O)[N-]c4cc5c(cc4O)CN(C)CC5)cc23)CC1

>  <Energy>  (6) 
90.46996339665982

>  <Genealogy>  (6) 
CN1CCN(c2cccc3ccc(S(=O)(=O)[N-]c4cc5c(cc4O)CN(C)CC5)cc23)CC1 (protonated)
CN1CCN(c2cccc3ccc(S(=O)(=O)[N-]c4cc5c(cc4O)CN(C)CC5)cc23)CC1 (3D coordinates assigned)
CN1CCN(c2cccc3ccc(S(=O)(=O)[N-]c4cc5c(cc4O)CN(C)CC5)cc23)CC1 (nonaromatic ring conformer: 90.46996339665982 kcal/mol)

>  <smiles>  (6) 
CN1CCN(c2cccc3ccc(S(=O)(=O)Nc4cc5c(cc4O)CN(C)CC5)cc23)CC1

>  <score_type>  (6) 
oracle

>  <origin>  (6) 
adgpu

>  <m_score__min__energy>  (6) 
-13.359999999999999

>  <m_primary>  (6) 
energy

$$$$
6:0
     RDKit          3D

 46 48  0  0  0  0  0  0  0  0999 V2000
   -5.7200   26.2070  -31.1680 O   0  0  0  0  0  0  0  0  0  0  0  0
   -5.2340   25.0370  -30.3570 S   0  0  0  0  0  0  0  0  0  0  0  0
   -5.6240   25.2570  -28.9220 O   0  0  0  0  0  0  0  0  0  0  0  0
   -3.5040   24.9230  -30.4680 N   0  0  0  0  0  0  0  0  0  0  0  0
   -3.0030   23.9890  -29.4640 C   0  0  0  0  0  0  0  0  0  0  0  0
   -2.3900   24.7640  -28.3340 C   0  0  0  0  0  0  0  0  0  0  0  0
   -2.9310   24.6770  -27.0400 C   0  0  0  0  0  0  0  0  0  0  0  0
   -2.3380   25.3740  -25.9820 C   0  0  0  0  0  0  0  0  0  0  0  0
   -1.1970   26.1500  -26.2050 C   0  0  0  0  0  0  0  0  0  0  0  0
   -0.6450   26.2270  -27.4870 C   0  0  0  0  0  0  0  0  0  0  0  0
   -1.2340   25.5320  -28.5480 C   0  0  0  0  0  0  0  0  0  0  0  0
   -5.9730   23.5450  -30.9310 C   0  0  0  0  0  0  0  0  0  0  0  0
   -5.2680   22.3390  -30.8330 C   0  0  0  0  0  0  0  0  0  0  0  0
   -5.8290   21.1550  -31.3200 C   0  0  0  0  0  0  0  0  0  0  0  0
   -7.1000   21.1670  -31.9100 C   0  0  0  0  0  0  0  0  0  0  0  0
   -7.7750   19.6760  -32.5630 S   0  0  0  0  0  0  0  0  0  0  0  0
   -9.1720   19.9260  -33.0590 O   0  0  0  0  0  0  0  0  0  0  0  0
   -7.8460   18.6640  -31.4530 O   0  0  0  0  0  0  0  0  0  0  0  0
   -6.7600   19.0540  -33.8510 N   0  0  0  0  0  0  0  0  0  0  0  0
   -6.6810   17.5810  -33.8250 C   0  0  0  0  0  0  0  0  0  0  0  0
   -5.8130   17.0600  -32.6540 C   0  0  0  0  0  0  0  0  0  0  0  0
   -4.9510   18.0430  -32.1060 O   0  0  0  0  0  0  0  0  0  0  0  0
   -4.3590   18.8030  -33.1360 C   0  0  0  0  0  0  0  0  0  0  0  0
   -5.4150   19.6810  -33.8340 C   0  0  0  0  0  0  0  0  0  0  0  0
   -7.8020   22.3750  -32.0140 C   0  0  0  0  0  0  0  0  0  0  0  0
   -7.2420   23.5590  -31.5270 C   0  0  0  0  0  0  0  0  0  0  0  0
   -3.8340   23.3773  -29.0829 H   0  0  0  0  0  0  0  0  0  0  0  0
   -2.2459   23.3309  -29.9154 H   0  0  0  0  0  0  0  0  0  0  0  0
   -3.8229   24.0593  -26.8586 H   0  0  0  0  0  0  0  0  0  0  0  0
   -2.7705   25.3113  -24.9725 H   0  0  0  0  0  0  0  0  0  0  0  0
   -0.7338   26.6997  -25.3723 H   0  0  0  0  0  0  0  0  0  0  0  0
    0.2546   26.8355  -27.6616 H   0  0  0  0  0  0  0  0  0  0  0  0
   -0.7905   25.5871  -29.5531 H   0  0  0  0  0  0  0  0  0  0  0  0
   -4.2697   22.3234  -30.3714 H   0  0  0  0  0  0  0  0  0  0  0  0
   -5.2708   20.2105  -31.2398 H   0  0  0  0  0  0  0  0  0  0  0  0
   -7.2320   19.3270  -34.7450 H   0  0  0  0  0  0  0  0  0  0  0  0
   -7.6975   17.1740  -33.7202 H   0  0  0  0  0  0  0  0  0  0  0  0
   -6.2116   17.2525  -34.7640 H   0  0  0  0  0  0  0  0  0  0  0  0
   -6.4820   16.7012  -31.8579 H   0  0  0  0  0  0  0  0  0  0  0  0
   -5.1750   16.2594  -33.0564 H   0  0  0  0  0  0  0  0  0  0  0  0
   -3.5782   19.4481  -32.7068 H   0  0  0  0  0  0  0  0  0  0  0  0
   -3.9203   18.1179  -33.8764 H   0  0  0  0  0  0  0  0  0  0  0  0
   -5.4812   20.6417  -33.3023 H   0  0  0  0  0  0  0  0  0  0  0  0
   -5.0977   19.8155  -34.8786 H   0  0  0  0  0  0  0  0  0  0  0  0
   -8.7979   22.3915  -32.4808 H   0  0  0  0  0  0  0  0  0  0  0  0
   -7.7981   24.5043  -31.6114 H   0  0  0  0  0  0  0  0  0  0  0  0
  1  2  2  0
  2  3  2  0
  2  4  1  0
  4  5  1  0
  5  6  1  0
  6  7  2  0
  7  8  1  0
  8  9  2  0
  9 10  1  0
 10 11  2  0
  2 12  1  0
 12 13  2  0
 13 14  1  0
 14 15  2  0
 15 16  1  0
 16 17  2  0
 16 18  2  0
 16 19  1  0
 19 20  1  0
 20 21  1  0
 21 22  1  0
 22 23  1  0
 23 24  1  0
 15 25  1  0
 25 26  2  0
 11  6  1  0
 26 12  1  0
 24 19  1  0
  5 27  1  0
  5 28  1  0
  7 29  1  0
  8 30  1  0
  9 31  1  0
 10 32  1  0
 11 33  1  0
 13 34  1  0
 14 35  1  0
 19 36  1  0
 20 37  1  0
 20 38  1  0
 21 39  1  0
 21 40  1  0
 23 41  1  0
 23 42  1  0
 24 43  1  0
 24 44  1  0
 25 45  1  0
 26 46  1  0
M  CHG  2   4  -1  19   1
M  END
>  <UniqueID>  (7) 
7

>  <SMILES>  (7) 
O=S(=O)([N-]Cc1ccccc1)c1ccc(S(=O)(=O)[NH+]2CCOCC2)cc1

>  <Energy>  (7) 
55.079413969765895

>  <Genealogy>  (7) 
O=S(=O)([N-]Cc1ccccc1)c1ccc(S(=O)(=O)[NH+]2CCOCC2)cc1 (protonated)
O=S(=O)([N-]Cc1ccccc1)c1ccc(S(=O)(=O)[NH+]2CCOCC2)cc1 (3D coordinates assigned)
O=S(=O)([N-]Cc1ccccc1)c1ccc(S(=O)(=O)[NH+]2CCOCC2)cc1 (nonaromatic ring conformer: 55.079413969765895 kcal/mol)

>  <smiles>  (7) 
O=S(=O)(NCc1ccccc1)c1ccc(S(=O)(=O)N2CCOCC2)cc1

>  <score_type>  (7) 
oracle

>  <origin>  (7) 
adgpu

>  <m_score__min__energy>  (7) 
-10.57

>  <m_primary>  (7) 
energy

$$$$
7:0
     RDKit          3D

 44 47  0  0  0  0  0  0  0  0999 V2000
   -1.6980   21.2680  -33.8360 N   0  0  0  0  0  0  0  0  0  0  0  0
   -2.7210   21.0970  -33.0610 C   0  0  0  0  0  0  0  0  0  0  0  0
   -4.0180   20.8650  -33.4740 C   0  0  0  0  0  0  0  0  0  0  0  0
   -4.7360   20.7770  -32.2840 C   0  0  0  0  0  0  0  0  0  0  0  0
   -6.1960   20.5430  -32.1570 C   0  0  0  0  0  0  0  0  0  0  0  0
   -7.0600   21.5830  -31.7660 C   0  0  0  0  0  0  0  0  0  0  0  0
   -8.4350   21.3570  -31.6470 C   0  0  0  0  0  0  0  0  0  0  0  0
   -8.9640   20.0940  -31.9180 C   0  0  0  0  0  0  0  0  0  0  0  0
   -8.1180   19.0530  -32.3080 C   0  0  0  0  0  0  0  0  0  0  0  0
   -6.7430   19.2740  -32.4290 C   0  0  0  0  0  0  0  0  0  0  0  0
   -3.8890   20.9500  -31.2440 N   0  0  0  0  0  0  0  0  0  0  0  0
   -2.6700   21.1390  -31.7190 N   0  0  0  0  0  0  0  0  0  0  0  0
   -1.2690   21.4370  -30.7410 S   0  0  0  0  0  0  0  0  0  0  0  0
   -0.0760   20.7660  -31.3610 O   0  0  0  0  0  0  0  0  0  0  0  0
   -1.0280   22.9180  -30.6790 O   0  0  0  0  0  0  0  0  0  0  0  0
   -1.5400   20.7860  -29.1300 C   0  0  0  0  0  0  0  0  0  0  0  0
   -0.8090   19.3890  -28.5500 S   0  0  0  0  0  0  0  0  0  0  0  0
   -1.5210   19.4190  -27.0290 C   0  0  0  0  0  0  0  0  0  0  0  0
   -2.3450   20.5350  -26.9540 C   0  0  0  0  0  0  0  0  0  0  0  0
   -2.3560   21.3070  -28.1250 C   0  0  0  0  0  0  0  0  0  0  0  0
   -3.3440   22.7580  -28.2850 S   0  0  0  0  0  0  0  0  0  0  0  0
   -3.6660   22.9970  -29.7330 O   0  0  0  0  0  0  0  0  0  0  0  0
   -4.6300   22.5550  -27.5340 O   0  0  0  0  0  0  0  0  0  0  0  0
   -2.4810   24.1580  -27.6540 C   0  0  0  0  0  0  0  0  0  0  0  0
   -1.4530   24.7500  -28.4020 C   0  0  0  0  0  0  0  0  0  0  0  0
   -0.7790   25.8700  -27.9070 C   0  0  0  0  0  0  0  0  0  0  0  0
   -1.1240   26.4020  -26.6600 C   0  0  0  0  0  0  0  0  0  0  0  0
   -0.2790   27.8070  -26.0390 Cl  0  0  0  0  0  0  0  0  0  0  0  0
   -2.1430   25.8080  -25.9060 C   0  0  0  0  0  0  0  0  0  0  0  0
   -2.8190   24.6870  -26.4000 C   0  0  0  0  0  0  0  0  0  0  0  0
   -1.7900   21.2330  -34.8760 H   0  0  0  0  0  0  0  0  0  0  0  0
   -4.3959   20.7715  -34.5028 H   0  0  0  0  0  0  0  0  0  0  0  0
   -6.6506   22.5814  -31.5523 H   0  0  0  0  0  0  0  0  0  0  0  0
   -9.1012   22.1764  -31.3391 H   0  0  0  0  0  0  0  0  0  0  0  0
  -10.0459   19.9186  -31.8246 H   0  0  0  0  0  0  0  0  0  0  0  0
   -8.5347   18.0574  -32.5203 H   0  0  0  0  0  0  0  0  0  0  0  0
   -6.0831   18.4504  -32.7391 H   0  0  0  0  0  0  0  0  0  0  0  0
   -4.1250   20.9280  -30.2270 H   0  0  0  0  0  0  0  0  0  0  0  0
   -1.3620   18.6810  -26.2289 H   0  0  0  0  0  0  0  0  0  0  0  0
   -2.9336   20.7893  -26.0602 H   0  0  0  0  0  0  0  0  0  0  0  0
   -1.1763   24.3317  -29.3810 H   0  0  0  0  0  0  0  0  0  0  0  0
    0.0239   26.3338  -28.4988 H   0  0  0  0  0  0  0  0  0  0  0  0
   -2.4126   26.2232  -24.9237 H   0  0  0  0  0  0  0  0  0  0  0  0
   -3.6168   24.2199  -25.8039 H   0  0  0  0  0  0  0  0  0  0  0  0
  1  2  2  3
  2  3  1  0
  3  4  2  0
  4  5  1  0
  5  6  2  0
  6  7  1  0
  7  8  2  0
  8  9  1  0
  9 10  2  0
  4 11  1  0
 11 12  1  0
 12 13  1  0
 13 14  2  0
 13 15  2  0
 13 16  1  0
 16 17  1  0
 17 18  1  0
 18 19  2  0
 19 20  1  0
 20 21  1  0
 21 22  2  0
 21 23  2  0
 21 24  1  0
 24 25  2  0
 25 26  1  0
 26 27  2  0
 27 28  1  0
 27 29  1  0
 29 30  2  0
 12  2  1  0
 20 16  2  0
 30 24  1  0
 10  5  1  0
  1 31  1  0
  3 32  1  0
  6 33  1  0
  7 34  1  0
  8 35  1  0
  9 36  1  0
 10 37  1  0
 11 38  1  0
 18 39  1  0
 19 40  1  0
 25 41  1  0
 26 42  1  0
 29 43  1  0
 30 44  1  0
M  END
>  <UniqueID>  (8) 
8

>  <SMILES>  (8) 
N=c1cc(-c2ccccc2)[nH]n1S(=O)(=O)c1sccc1S(=O)(=O)c1ccc(Cl)cc1

>  <Energy>  (8) 
112.73566488796746

>  <Genealogy>  (8) 
N=c1cc(-c2ccccc2)[nH]n1S(=O)(=O)c1sccc1S(=O)(=O)c1ccc(Cl)cc1 (3D coordinates assigned)
N=c1cc(-c2ccccc2)[nH]n1S(=O)(=O)c1sccc1S(=O)(=O)c1ccc(Cl)cc1 (optimized conformer: 112.73566488796746 kcal/mol)

>  <smiles>  (8) 
N=c1cc(-c2ccccc2)[nH]n1S(=O)(=O)c1sccc1S(=O)(=O)c1ccc(Cl)cc1

>  <score_type>  (8) 
oracle

>  <origin>  (8) 
adgpu

>  <m_score__min__energy>  (8) 
-10.390000000000001

>  <m_primary>  (8) 
energy

$$$$
8:0
     RDKit          3D

 43 45  0  0  0  0  0  0  0  0999 V2000
   -0.1790   18.3412  -34.8637 H   0  0  0  0  0  0  0  0  0  0  0  0
   -1.2350   18.1740  -34.6050 C   0  0  0  0  0  0  0  0  0  0  0  0
   -1.8060   16.9580  -34.8050 N   0  0  0  0  0  0  0  0  0  0  0  0
   -3.1120   16.7310  -34.4980 C   0  0  0  0  0  0  0  0  0  0  0  0
   -3.5554   15.7381  -34.6642 H   0  0  0  0  0  0  0  0  0  0  0  0
   -3.8880   17.7700  -33.9690 C   0  0  0  0  0  0  0  0  0  0  0  0
   -5.1280   17.5460  -33.6470 N   0  0  0  0  0  0  0  0  0  0  0  0
   -6.0720   18.5060  -33.1390 C   0  0  0  0  0  0  0  0  0  0  0  0
   -6.0570   19.8080  -33.6500 C   0  0  0  0  0  0  0  0  0  0  0  0
   -5.3491   20.0740  -34.4489 H   0  0  0  0  0  0  0  0  0  0  0  0
   -6.9120   20.7460  -33.1650 N   0  0  0  0  0  0  0  0  0  0  0  0
   -7.7900   20.4680  -32.1660 C   0  0  0  0  0  0  0  0  0  0  0  0
   -8.8950   21.7110  -31.6040 S   0  0  0  0  0  0  0  0  0  0  0  0
   -9.0830   21.5820  -30.1160 O   0  0  0  0  0  0  0  0  0  0  0  0
  -10.2280   21.5480  -32.2810 O   0  0  0  0  0  0  0  0  0  0  0  0
   -8.2180   23.3130  -31.9770 C   0  0  0  0  0  0  0  0  0  0  0  0
   -7.9938   23.8436  -31.0399 H   0  0  0  0  0  0  0  0  0  0  0  0
   -7.2935   23.1935  -32.5609 H   0  0  0  0  0  0  0  0  0  0  0  0
   -8.9481   23.8927  -32.5609 H   0  0  0  0  0  0  0  0  0  0  0  0
   -7.8180   19.1900  -31.6010 C   0  0  0  0  0  0  0  0  0  0  0  0
   -8.5193   18.9591  -30.7856 H   0  0  0  0  0  0  0  0  0  0  0  0
   -6.9490   18.2100  -32.0800 C   0  0  0  0  0  0  0  0  0  0  0  0
   -6.9495   17.2063  -31.6299 H   0  0  0  0  0  0  0  0  0  0  0  0
   -3.3070   18.9840  -33.7600 N   0  0  0  0  0  0  0  0  0  0  0  0
   -2.0030   19.2110  -34.0670 C   0  0  0  0  0  0  0  0  0  0  0  0
   -1.2860   20.8220  -33.7630 S   0  0  0  0  0  0  0  0  0  0  0  0
   -2.4510   21.1850  -32.4490 C   0  0  0  0  0  0  0  0  0  0  0  0
   -2.5000   20.3700  -31.3120 C   0  0  0  0  0  0  0  0  0  0  0  0
   -1.8384   19.4946  -31.2341 H   0  0  0  0  0  0  0  0  0  0  0  0
   -3.3890   20.6680  -30.2760 C   0  0  0  0  0  0  0  0  0  0  0  0
   -3.4187   20.0340  -29.3776 H   0  0  0  0  0  0  0  0  0  0  0  0
   -4.2410   21.7720  -30.3810 C   0  0  0  0  0  0  0  0  0  0  0  0
   -4.9288   22.0119  -29.5568 H   0  0  0  0  0  0  0  0  0  0  0  0
   -4.2240   22.5740  -31.5290 C   0  0  0  0  0  0  0  0  0  0  0  0
   -5.0940   23.7120  -31.5940 N   0  0  0  0  0  0  0  0  0  0  0  0
   -5.0030   24.9000  -30.7960 C   0  0  0  0  0  0  0  0  0  0  0  0
   -3.9460   25.5810  -30.8350 O   0  0  0  0  0  0  0  0  0  0  0  0
   -6.1110   25.3340  -29.8850 C   0  0  0  0  0  0  0  0  0  0  0  0
   -5.7951   25.2103  -28.8386 H   0  0  0  0  0  0  0  0  0  0  0  0
   -6.3480   26.3914  -30.0738 H   0  0  0  0  0  0  0  0  0  0  0  0
   -7.0032   24.7189  -30.0738 H   0  0  0  0  0  0  0  0  0  0  0  0
   -3.3060   22.2880  -32.5560 C   0  0  0  0  0  0  0  0  0  0  0  0
   -3.2600   22.9332  -33.4458 H   0  0  0  0  0  0  0  0  0  0  0  0
  1  2  1  0
  2  3  1  0
  3  4  2  0
  4  5  1  0
  4  6  1  0
  6  7  2  0
  7  8  1  0
  8  9  2  0
  9 10  1  0
  9 11  1  0
 11 12  2  0
 12 13  1  0
 13 14  2  0
 13 15  2  0
 13 16  1  0
 16 17  1  0
 16 18  1  0
 16 19  1  0
 12 20  1  0
 20 21  1  0
 20 22  2  0
 22 23  1  0
  6 24  1  0
 24 25  1  0
 25 26  1  0
 26 27  1  0
 27 28  2  0
 28 29  1  0
 28 30  1  0
 30 31  1  0
 30 32  2  0
 32 33  1  0
 32 34  1  0
 34 35  1  0
 35 36  1  0
 36 37  2  0
 36 38  1  0
 38 39  1  0
 38 40  1  0
 38 41  1  0
 34 42  2  0
 42 43  1  0
 25  2  2  0
 42 27  1  0
 22  8  1  0
M  CHG  2  24  -1  35  -1
M  END
>  <UniqueID>  (9) 
9

>  <SMILES>  (9) 
CC(=O)[N-]c1cccc(Sc2cnc/c(=N/c3ccc(S(C)(=O)=O)nc3)[n-]2)c1

>  <Energy>  (9) 
49.57531537478673

>  <Genealogy>  (9) 
CC(=O)[N-]c1cccc(Sc2cncc(=Nc3ccc(S(C)(=O)=O)nc3)[n-]2)c1 (protonated)
CC(=O)[N-]c1cccc(Sc2cnc/c(=N/c3ccc(S(C)(=O)=O)nc3)[n-]2)c1 (cis-trans isomerization)
CC(=O)[N-]c1cccc(Sc2cnc/c(=N/c3ccc(S(C)(=O)=O)nc3)[n-]2)c1 (3D coordinates assigned)
CC(=O)[N-]c1cccc(Sc2cnc/c(=N/c3ccc(S(C)(=O)=O)nc3)[n-]2)c1 (optimized conformer: 49.57531537478673 kcal/mol)

>  <smiles>  (9) 
CC(=O)Nc1cccc(Sc2cncc(=Nc3ccc(S(C)(=O)=O)nc3)[nH]2)c1

>  <score_type>  (9) 
oracle

>  <origin>  (9) 
adgpu

>  <m_score__min__energy>  (9) 
-11.09

>  <m_primary>  (9) 
energy

$$$$
9:0
     RDKit          3D

 53 56  0  0  0  0  0  0  0  0999 V2000
   -1.9280   19.7450  -26.8420 C   0  0  0  0  0  0  0  0  0  0  0  0
   -1.0600   19.7320  -28.0320 N   0  0  0  0  0  0  0  0  0  0  0  0
    0.2770   20.2980  -27.7670 C   0  0  0  0  0  0  0  0  0  0  0  0
    0.2270   21.7950  -27.4210 C   0  0  0  0  0  0  0  0  0  0  0  0
   -0.7240   22.5610  -28.3030 C   0  0  0  0  0  0  0  0  0  0  0  0
   -0.7100   23.9630  -28.2710 C   0  0  0  0  0  0  0  0  0  0  0  0
   -1.6400   24.7000  -29.0130 C   0  0  0  0  0  0  0  0  0  0  0  0
   -1.6140   26.0880  -28.9630 O   0  0  0  0  0  0  0  0  0  0  0  0
   -2.6020   24.0390  -29.7870 C   0  0  0  0  0  0  0  0  0  0  0  0
   -3.5610   24.8020  -30.5230 N   0  0  0  0  0  0  0  0  0  0  0  0
   -5.2460   24.8470  -30.1110 S   0  0  0  0  0  0  0  0  0  0  0  0
   -5.8750   26.0480  -30.7600 O   0  0  0  0  0  0  0  0  0  0  0  0
   -5.3850   24.9880  -28.6200 O   0  0  0  0  0  0  0  0  0  0  0  0
   -6.0890   23.3990  -30.6550 C   0  0  0  0  0  0  0  0  0  0  0  0
   -5.6030   22.6650  -31.7470 C   0  0  0  0  0  0  0  0  0  0  0  0
   -6.2990   21.5450  -32.2080 C   0  0  0  0  0  0  0  0  0  0  0  0
   -7.4920   21.1490  -31.5850 C   0  0  0  0  0  0  0  0  0  0  0  0
   -8.3600   19.7150  -32.1450 S   0  0  0  0  0  0  0  0  0  0  0  0
   -9.3630   20.1270  -33.1850 O   0  0  0  0  0  0  0  0  0  0  0  0
   -9.1110   19.1180  -30.9870 O   0  0  0  0  0  0  0  0  0  0  0  0
   -7.3080   18.5000  -32.8310 N   0  0  0  0  0  0  0  0  0  0  0  0
   -6.4850   19.0230  -33.9220 C   0  0  0  0  0  0  0  0  0  0  0  0
   -5.2310   18.1580  -33.9710 C   0  0  0  0  0  0  0  0  0  0  0  0
   -5.2140   17.3940  -32.6550 C   0  0  0  0  0  0  0  0  0  0  0  0
   -6.3650   17.9720  -31.8520 C   0  0  0  0  0  0  0  0  0  0  0  0
   -7.9750   21.8830  -30.4910 C   0  0  0  0  0  0  0  0  0  0  0  0
   -7.2790   23.0040  -30.0320 C   0  0  0  0  0  0  0  0  0  0  0  0
   -2.5930   22.6400  -29.8530 C   0  0  0  0  0  0  0  0  0  0  0  0
   -1.6860   21.8950  -29.0880 C   0  0  0  0  0  0  0  0  0  0  0  0
   -1.6990   20.3880  -29.1900 C   0  0  0  0  0  0  0  0  0  0  0  0
   -1.3063   19.7357  -25.9346 H   0  0  0  0  0  0  0  0  0  0  0  0
   -2.5495   20.6526  -26.8514 H   0  0  0  0  0  0  0  0  0  0  0  0
   -2.5764   18.8565  -26.8514 H   0  0  0  0  0  0  0  0  0  0  0  0
    0.7280   19.7561  -26.9226 H   0  0  0  0  0  0  0  0  0  0  0  0
    0.8734   20.1878  -28.6847 H   0  0  0  0  0  0  0  0  0  0  0  0
   -0.0963   21.9045  -26.3753 H   0  0  0  0  0  0  0  0  0  0  0  0
    1.2343   22.2077  -27.5790 H   0  0  0  0  0  0  0  0  0  0  0  0
    0.0377   24.4874  -27.6579 H   0  0  0  0  0  0  0  0  0  0  0  0
   -4.6702   22.9725  -32.2423 H   0  0  0  0  0  0  0  0  0  0  0  0
   -5.9103   20.9716  -33.0625 H   0  0  0  0  0  0  0  0  0  0  0  0
   -7.0302   18.9562  -34.8750 H   0  0  0  0  0  0  0  0  0  0  0  0
   -6.2324   20.0809  -33.7578 H   0  0  0  0  0  0  0  0  0  0  0  0
   -5.2779   17.4604  -34.8202 H   0  0  0  0  0  0  0  0  0  0  0  0
   -4.3221   18.7632  -34.1039 H   0  0  0  0  0  0  0  0  0  0  0  0
   -5.3659   16.3187  -32.8299 H   0  0  0  0  0  0  0  0  0  0  0  0
   -4.2522   17.4944  -32.1307 H   0  0  0  0  0  0  0  0  0  0  0  0
   -6.8414   17.1871  -31.2462 H   0  0  0  0  0  0  0  0  0  0  0  0
   -6.0219   18.7538  -31.1584 H   0  0  0  0  0  0  0  0  0  0  0  0
   -8.9058   21.5744  -29.9926 H   0  0  0  0  0  0  0  0  0  0  0  0
   -7.6673   23.5784  -29.1780 H   0  0  0  0  0  0  0  0  0  0  0  0
   -3.3049   22.1212  -30.5118 H   0  0  0  0  0  0  0  0  0  0  0  0
   -2.7434   20.0488  -29.2542 H   0  0  0  0  0  0  0  0  0  0  0  0
   -1.1250   20.1112  -30.0866 H   0  0  0  0  0  0  0  0  0  0  0  0
  1  2  1  0
  2  3  1  0
  3  4  1  0
  4  5  1  0
  5  6  2  0
  6  7  1  0
  7  8  1  0
  7  9  2  0
  9 10  1  0
 10 11  1  0
 11 12  2  0
 11 13  2  0
 11 14  1  0
 14 15  2  0
 15 16  1  0
 16 17  2  0
 17 18  1  0
 18 19  2  0
 18 20  2  0
 18 21  1  0
 21 22  1  0
 22 23  1  0
 23 24  1  0
 24 25  1  0
 17 26  1  0
 26 27  2  0
  9 28  1  0
 28 29  2  0
 29 30  1  0
 30  2  1  0
 29  5  1  0
 27 14  1  0
 25 21  1  0
  1 31  1  0
  1 32  1  0
  1 33  1  0
  3 34  1  0
  3 35  1  0
  4 36  1  0
  4 37  1  0
  6 38  1  0
 15 39  1  0
 16 40  1  0
 22 41  1  0
 22 42  1  0
 23 43  1  0
 23 44  1  0
 24 45  1  0
 24 46  1  0
 25 47  1  0
 25 48  1  0
 26 49  1  0
 27 50  1  0
 28 51  1  0
 30 52  1  0
 30 53  1  0
M  CHG  2   8  -1  10  -1
M  END
>  <UniqueID>  (10) 
10

>  <SMILES>  (10) 
CN1CCc2cc([O-])c([N-]S(=O)(=O)c3ccc(S(=O)(=O)N4CCCC4)cc3)cc2C1

>  <Energy>  (10) 
66.49630666717688

>  <Genealogy>  (10) 
CN1CCc2cc([O-])c([N-]S(=O)(=O)c3ccc(S(=O)(=O)N4CCCC4)cc3)cc2C1 (protonated)
CN1CCc2cc([O-])c([N-]S(=O)(=O)c3ccc(S(=O)(=O)N4CCCC4)cc3)cc2C1 (3D coordinates assigned)
CN1CCc2cc([O-])c([N-]S(=O)(=O)c3ccc(S(=O)(=O)N4CCCC4)cc3)cc2C1 (nonaromatic ring conformer: 66.49630666717688 kcal/mol)

>  <smiles>  (10) 
CN1CCc2cc(O)c(NS(=O)(=O)c3ccc(S(=O)(=O)N4CCCC4)cc3)cc2C1

>  <score_type>  (10) 
oracle

>  <origin>  (10) 
adgpu

>  <m_score__min__energy>  (10) 
-15.550000000000001

>  <m_primary>  (10) 
energy

$$$$
10:0
     RDKit          3D

 43 45  0  0  0  0  0  0  0  0999 V2000
   -6.1030   16.9870  -31.6980 C   0  0  0  0  0  0  0  0  0  0  0  0
   -5.7070   16.4900  -32.8710 C   0  0  0  0  0  0  0  0  0  0  0  0
   -6.5260   16.6970  -34.1150 C   0  0  0  0  0  0  0  0  0  0  0  0
   -6.3270   18.0460  -34.6450 N   0  0  0  0  0  0  0  0  0  0  0  0
   -5.8130   19.1560  -33.8810 C   0  0  0  0  0  0  0  0  0  0  0  0
   -4.4410   19.4520  -33.8380 C   0  0  0  0  0  0  0  0  0  0  0  0
   -3.9730   20.5310  -33.0910 C   0  0  0  0  0  0  0  0  0  0  0  0
   -4.8640   21.3410  -32.3660 C   0  0  0  0  0  0  0  0  0  0  0  0
   -4.3940   22.4310  -31.6110 C   0  0  0  0  0  0  0  0  0  0  0  0
   -3.1630   22.7030  -31.5790 O   0  0  0  0  0  0  0  0  0  0  0  0
   -5.3000   23.2190  -30.8930 C   0  0  0  0  0  0  0  0  0  0  0  0
   -4.7410   24.6060  -29.9510 S   0  0  0  0  0  0  0  0  0  0  0  0
   -4.1960   25.6760  -30.8560 O   0  0  0  0  0  0  0  0  0  0  0  0
   -5.8950   25.1870  -29.1820 O   0  0  0  0  0  0  0  0  0  0  0  0
   -3.4700   24.0780  -28.8540 C   0  0  0  0  0  0  0  0  0  0  0  0
   -3.5420   22.8260  -28.2260 C   0  0  0  0  0  0  0  0  0  0  0  0
   -2.5180   22.4100  -27.3700 C   0  0  0  0  0  0  0  0  0  0  0  0
   -1.4150   23.2400  -27.1410 C   0  0  0  0  0  0  0  0  0  0  0  0
   -0.4220   22.8340  -26.3130 F   0  0  0  0  0  0  0  0  0  0  0  0
   -1.3370   24.4860  -27.7700 C   0  0  0  0  0  0  0  0  0  0  0  0
   -2.3610   24.9040  -28.6260 C   0  0  0  0  0  0  0  0  0  0  0  0
   -6.6640   22.9200  -30.9530 C   0  0  0  0  0  0  0  0  0  0  0  0
   -7.1300   21.8620  -31.6850 N   0  0  0  0  0  0  0  0  0  0  0  0
   -8.5810   21.6130  -31.6920 C   0  0  0  0  0  0  0  0  0  0  0  0
   -6.2550   21.0620  -32.3950 C   0  0  0  0  0  0  0  0  0  0  0  0
   -6.7070   19.9620  -33.1610 C   0  0  0  0  0  0  0  0  0  0  0  0
   -5.4916   16.8261  -30.7979 H   0  0  0  0  0  0  0  0  0  0  0  0
   -7.0410   17.5577  -31.6309 H   0  0  0  0  0  0  0  0  0  0  0  0
   -4.7677   15.9205  -32.9290 H   0  0  0  0  0  0  0  0  0  0  0  0
   -6.2216   15.9618  -34.8745 H   0  0  0  0  0  0  0  0  0  0  0  0
   -7.5893   16.5681  -33.8646 H   0  0  0  0  0  0  0  0  0  0  0  0
   -6.5630   18.1990  -35.6520 H   0  0  0  0  0  0  0  0  0  0  0  0
   -3.7301   18.8271  -34.3985 H   0  0  0  0  0  0  0  0  0  0  0  0
   -2.8955   20.7511  -33.0684 H   0  0  0  0  0  0  0  0  0  0  0  0
   -4.4061   22.1699  -28.4074 H   0  0  0  0  0  0  0  0  0  0  0  0
   -2.5794   21.4291  -26.8759 H   0  0  0  0  0  0  0  0  0  0  0  0
   -0.4694   25.1383  -27.5915 H   0  0  0  0  0  0  0  0  0  0  0  0
   -2.2958   25.8838  -29.1217 H   0  0  0  0  0  0  0  0  0  0  0  0
   -7.3778   23.5484  -30.4002 H   0  0  0  0  0  0  0  0  0  0  0  0
   -8.9472   21.5502  -30.6567 H   0  0  0  0  0  0  0  0  0  0  0  0
   -9.0919   22.4366  -32.2123 H   0  0  0  0  0  0  0  0  0  0  0  0
   -8.7880   20.6662  -32.2123 H   0  0  0  0  0  0  0  0  0  0  0  0
   -7.7826   19.7339  -33.1927 H   0  0  0  0  0  0  0  0  0  0  0  0
  1  2  2  0
  2  3  1  0
  3  4  1  0
  4  5  1  0
  5  6  2  0
  6  7  1  0
  7  8  2  0
  8  9  1  0
  9 10  2  0
  9 11  1  0
 11 12  1  0
 12 13  2  0
 12 14  2  0
 12 15  1  0
 15 16  2  0
 16 17  1  0
 17 18  2  0
 18 19  1  0
 18 20  1  0
 20 21  2  0
 11 22  2  0
 22 23  1  0
 23 24  1  0
 23 25  1  0
 25 26  2  0
 26  5  1  0
 25  8  1  0
 21 15  1  0
  1 27  1  0
  1 28  1  0
  2 29  1  0
  3 30  1  0
  3 31  1  0
  4 32  1  0
  6 33  1  0
  7 34  1  0
 16 35  1  0
 17 36  1  0
 20 37  1  0
 21 38  1  0
 22 39  1  0
 24 40  1  0
 24 41  1  0
 24 42  1  0
 26 43  1  0
M  END
>  <UniqueID>  (11) 
11

>  <SMILES>  (11) 
C=CCNc1ccc2c(=O)c(S(=O)(=O)c3ccc(F)cc3)cn(C)c2c1

>  <Energy>  (11) 
53.83517625131886

>  <Genealogy>  (11) 
C=CCNc1ccc2c(=O)c(S(=O)(=O)c3ccc(F)cc3)cn(C)c2c1 (3D coordinates assigned)
C=CCNc1ccc2c(=O)c(S(=O)(=O)c3ccc(F)cc3)cn(C)c2c1 (optimized conformer: 53.83517625131886 kcal/mol)

>  <smiles>  (11) 
C=CCNc1ccc2c(=O)c(S(=O)(=O)c3ccc(F)cc3)cn(C)c2c1

>  <score_type>  (11) 
oracle

>  <origin>  (11) 
adgpu

>  <m_score__min__energy>  (11) 
-8.8900000000000006

>  <m_primary>  (11) 
energy

$$$$
11:0
     RDKit          3D

 62 65  0  0  0  0  0  0  0  0999 V2000
   -6.2080   25.7100  -29.7170 C   0  0  0  0  0  0  0  0  0  0  0  0
   -6.1810   24.3720  -30.4040 C   0  0  0  0  0  0  0  0  0  0  0  0
   -6.7680   24.2370  -31.6740 C   0  0  0  0  0  0  0  0  0  0  0  0
   -6.7560   23.0090  -32.3360 C   0  0  0  0  0  0  0  0  0  0  0  0
   -6.1800   21.8880  -31.7330 C   0  0  0  0  0  0  0  0  0  0  0  0
   -6.0880   20.6550  -32.4570 N   0  0  0  0  0  0  0  0  0  0  0  0
   -5.0520   20.2670  -33.2250 C   0  0  0  0  0  0  0  0  0  0  0  0
   -3.5460   21.2160  -33.4690 S   0  0  0  0  0  0  0  0  0  0  0  0
   -2.5830   20.2980  -32.2180 C   0  0  0  0  0  0  0  0  0  0  0  0
   -2.2910   21.1730  -31.0310 C   0  0  0  0  0  0  0  0  0  0  0  0
   -2.0090   20.5970  -29.7830 C   0  0  0  0  0  0  0  0  0  0  0  0
   -1.7410   21.4050  -28.6760 C   0  0  0  0  0  0  0  0  0  0  0  0
   -1.7610   22.8060  -28.7930 C   0  0  0  0  0  0  0  0  0  0  0  0
   -1.4610   23.6660  -27.6190 C   0  0  0  0  0  0  0  0  0  0  0  0
   -2.4720   24.4450  -27.0350 C   0  0  0  0  0  0  0  0  0  0  0  0
   -2.1910   25.2620  -25.9400 C   0  0  0  0  0  0  0  0  0  0  0  0
   -0.9010   25.3150  -25.4060 C   0  0  0  0  0  0  0  0  0  0  0  0
   -0.6220   26.3710  -24.0220 Cl  0  0  0  0  0  0  0  0  0  0  0  0
    0.1340   24.5390  -25.9760 C   0  0  0  0  0  0  0  0  0  0  0  0
    1.5380   24.5920  -25.4090 C   0  0  0  0  0  0  0  0  0  0  0  0
    2.4530   23.9760  -26.2450 F   0  0  0  0  0  0  0  0  0  0  0  0
    1.9220   25.9100  -25.2430 F   0  0  0  0  0  0  0  0  0  0  0  0
    1.5690   23.9500  -24.1840 F   0  0  0  0  0  0  0  0  0  0  0  0
   -0.1630   23.7160  -27.0820 C   0  0  0  0  0  0  0  0  0  0  0  0
   -2.0620   23.3800  -30.0420 C   0  0  0  0  0  0  0  0  0  0  0  0
   -2.3240   22.5710  -31.1500 C   0  0  0  0  0  0  0  0  0  0  0  0
   -5.2890   19.0840  -33.8180 N   0  0  0  0  0  0  0  0  0  0  0  0
   -6.4970   18.7020  -33.4340 N   0  0  0  0  0  0  0  0  0  0  0  0
   -6.9880   19.6520  -32.6070 C   0  0  0  0  0  0  0  0  0  0  0  0
   -8.3860   19.5790  -31.9900 C   0  0  0  0  0  0  0  0  0  0  0  0
   -8.5800   20.7150  -30.9650 C   0  0  0  0  0  0  0  0  0  0  0  0
   -9.4560   19.7440  -33.0950 C   0  0  0  0  0  0  0  0  0  0  0  0
   -8.6060   18.2130  -31.3100 C   0  0  0  0  0  0  0  0  0  0  0  0
   -5.5720   22.0130  -30.4790 C   0  0  0  0  0  0  0  0  0  0  0  0
   -5.5720   23.2440  -29.8020 C   0  0  0  0  0  0  0  0  0  0  0  0
   -4.9440   23.3270  -28.5160 N   0  0  0  0  0  0  0  0  0  0  0  0
   -6.2050   25.5626  -28.6269 H   0  0  0  0  0  0  0  0  0  0  0  0
   -5.3214   26.2910  -30.0109 H   0  0  0  0  0  0  0  0  0  0  0  0
   -7.1173   26.2548  -30.0109 H   0  0  0  0  0  0  0  0  0  0  0  0
   -7.2414   25.1081  -32.1506 H   0  0  0  0  0  0  0  0  0  0  0  0
   -7.2023   22.9229  -33.3377 H   0  0  0  0  0  0  0  0  0  0  0  0
   -3.1604   19.4217  -31.8883 H   0  0  0  0  0  0  0  0  0  0  0  0
   -1.6309   19.9783  -32.6667 H   0  0  0  0  0  0  0  0  0  0  0  0
   -1.9990   19.5023  -29.6760 H   0  0  0  0  0  0  0  0  0  0  0  0
   -1.5125   20.9417  -27.7048 H   0  0  0  0  0  0  0  0  0  0  0  0
   -3.4927   24.4110  -27.4436 H   0  0  0  0  0  0  0  0  0  0  0  0
   -2.9917   25.8696  -25.4931 H   0  0  0  0  0  0  0  0  0  0  0  0
    0.6331   23.1040  -27.5312 H   0  0  0  0  0  0  0  0  0  0  0  0
   -2.0912   24.4746  -30.1466 H   0  0  0  0  0  0  0  0  0  0  0  0
   -2.5574   23.0320  -32.1211 H   0  0  0  0  0  0  0  0  0  0  0  0
   -8.5101   20.3057  -29.9464 H   0  0  0  0  0  0  0  0  0  0  0  0
   -7.7988   21.4760  -31.1088 H   0  0  0  0  0  0  0  0  0  0  0  0
   -9.5695   21.1736  -31.1088 H   0  0  0  0  0  0  0  0  0  0  0  0
  -10.4417   19.8960  -32.6311 H   0  0  0  0  0  0  0  0  0  0  0  0
   -9.2067   20.6143  -33.7198 H   0  0  0  0  0  0  0  0  0  0  0  0
   -9.4804   18.8390  -33.7198 H   0  0  0  0  0  0  0  0  0  0  0  0
   -8.5856   18.3397  -30.2175 H   0  0  0  0  0  0  0  0  0  0  0  0
   -9.5814   17.8051  -31.6136 H   0  0  0  0  0  0  0  0  0  0  0  0
   -7.8080   17.5195  -31.6136 H   0  0  0  0  0  0  0  0  0  0  0  0
   -5.0891   21.1385  -30.0185 H   0  0  0  0  0  0  0  0  0  0  0  0
   -4.1080   22.7520  -28.2700 H   0  0  0  0  0  0  0  0  0  0  0  0
   -5.3130   23.9750  -27.7840 H   0  0  0  0  0  0  0  0  0  0  0  0
  1  2  1  0
  2  3  2  0
  3  4  1  0
  4  5  2  0
  5  6  1  0
  6  7  1  0
  7  8  1  0
  8  9  1  0
  9 10  1  0
 10 11  2  0
 11 12  1  0
 12 13  2  0
 13 14  1  0
 14 15  2  0
 15 16  1  0
 16 17  2  0
 17 18  1  0
 17 19  1  0
 19 20  1  0
 20 21  1  0
 20 22  1  0
 20 23  1  0
 19 24  2  0
 13 25  1  0
 25 26  2  0
  7 27  2  0
 27 28  1  0
 28 29  2  0
 29 30  1  0
 30 31  1  0
 30 32  1  0
 30 33  1  0
  5 34  1  0
 34 35  2  0
 35 36  1  0
 35  2  1  0
 29  6  1  0
 26 10  1  0
 24 14  1  0
  1 37  1  0
  1 38  1  0
  1 39  1  0
  3 40  1  0
  4 41  1  0
  9 42  1  0
  9 43  1  0
 11 44  1  0
 12 45  1  0
 15 46  1  0
 16 47  1  0
 24 48  1  0
 25 49  1  0
 26 50  1  0
 31 51  1  0
 31 52  1  0
 31 53  1  0
 32 54  1  0
 32 55  1  0
 32 56  1  0
 33 57  1  0
 33 58  1  0
 33 59  1  0
 34 60  1  0
 36 61  1  0
 36 62  1  0
M  END
>  <UniqueID>  (12) 
12

>  <SMILES>  (12) 
Cc1ccc(-n2c(SCc3ccc(-c4ccc(Cl)c(C(F)(F)F)c4)cc3)nnc2C(C)(C)C)cc1N

>  <Energy>  (12) 
108.84665239443372

>  <Genealogy>  (12) 
Cc1ccc(-n2c(SCc3ccc(-c4ccc(Cl)c(C(F)(F)F)c4)cc3)nnc2C(C)(C)C)cc1N (3D coordinates assigned)
Cc1ccc(-n2c(SCc3ccc(-c4ccc(Cl)c(C(F)(F)F)c4)cc3)nnc2C(C)(C)C)cc1N (optimized conformer: 108.84665239443372 kcal/mol)

>  <smiles>  (12) 
Cc1ccc(-n2c(SCc3ccc(-c4ccc(Cl)c(C(F)(F)F)c4)cc3)nnc2C(C)(C)C)cc1N

>  <score_type>  (12) 
oracle

>  <origin>  (12) 
adgpu

>  <m_score__min__energy>  (12) 
-10

>  <m_primary>  (12) 
energy

$$$$
12:0
     RDKit          3D

 59 62  0  0  0  0  0  0  0  0999 V2000
   -0.4670   19.1420  -34.4750 C   0  0  0  0  0  0  0  0  0  0  0  0
   -1.1820   19.0890  -33.1880 N   0  0  0  0  0  0  0  0  0  0  0  0
   -0.3040   18.5530  -32.1280 C   0  0  0  0  0  0  0  0  0  0  0  0
   -1.8410   20.3830  -32.8670 C   0  0  0  0  0  0  0  0  0  0  0  0
   -2.1870   20.5690  -31.3560 C   0  0  0  0  0  0  0  0  0  0  0  0
   -3.6800   20.8210  -31.1080 C   0  0  0  0  0  0  0  0  0  0  0  0
   -4.1610   21.8940  -31.9850 N   0  0  0  0  0  0  0  0  0  0  0  0
   -5.0580   22.8900  -31.4600 C   0  0  0  0  0  0  0  0  0  0  0  0
   -6.4360   23.1000  -31.4170 C   0  0  0  0  0  0  0  0  0  0  0  0
   -7.6150   22.4340  -31.8860 N   0  0  0  0  0  0  0  0  0  0  0  0
   -7.7360   21.0120  -31.9810 C   0  0  0  0  0  0  0  0  0  0  0  0
   -8.6360   20.3360  -31.1470 C   0  0  0  0  0  0  0  0  0  0  0  0
   -8.7780   18.9480  -31.2430 C   0  0  0  0  0  0  0  0  0  0  0  0
   -8.0130   18.2280  -32.1650 C   0  0  0  0  0  0  0  0  0  0  0  0
   -7.0930   18.8940  -32.9870 C   0  0  0  0  0  0  0  0  0  0  0  0
   -6.1350   18.0020  -34.1630 S   0  0  0  0  0  0  0  0  0  0  0  0
   -6.8760   16.7630  -34.5870 O   0  0  0  0  0  0  0  0  0  0  0  0
   -5.9180   18.8650  -35.3760 O   0  0  0  0  0  0  0  0  0  0  0  0
   -4.5940   17.5800  -33.4620 N   0  0  0  0  0  0  0  0  0  0  0  0
   -4.6630   16.3260  -32.7100 C   0  0  0  0  0  0  0  0  0  0  0  0
   -3.2680   15.7160  -32.7460 C   0  0  0  0  0  0  0  0  0  0  0  0
   -2.5630   16.3850  -33.9170 C   0  0  0  0  0  0  0  0  0  0  0  0
   -3.5690   17.3730  -34.4900 C   0  0  0  0  0  0  0  0  0  0  0  0
   -6.9350   20.2830  -32.8720 C   0  0  0  0  0  0  0  0  0  0  0  0
   -6.2240   24.3300  -30.8270 C   0  0  0  0  0  0  0  0  0  0  0  0
   -6.9690   25.2660  -30.4360 O   0  0  0  0  0  0  0  0  0  0  0  0
   -4.8640   24.1160  -30.8500 C   0  0  0  0  0  0  0  0  0  0  0  0
   -3.8590   24.7770  -30.4810 O   0  0  0  0  0  0  0  0  0  0  0  0
   -3.8220   21.8770  -33.4140 C   0  0  0  0  0  0  0  0  0  0  0  0
   -3.0490   20.6110  -33.8020 C   0  0  0  0  0  0  0  0  0  0  0  0
    0.6145   19.2222  -34.2906 H   0  0  0  0  0  0  0  0  0  0  0  0
   -0.6744   18.2260  -35.0477 H   0  0  0  0  0  0  0  0  0  0  0  0
   -0.8072   20.0174  -35.0477 H   0  0  0  0  0  0  0  0  0  0  0  0
   -0.7213   18.8077  -31.1426 H   0  0  0  0  0  0  0  0  0  0  0  0
   -0.2364   17.4595  -32.2260 H   0  0  0  0  0  0  0  0  0  0  0  0
    0.6996   18.9926  -32.2260 H   0  0  0  0  0  0  0  0  0  0  0  0
   -1.1038   21.1763  -33.0598 H   0  0  0  0  0  0  0  0  0  0  0  0
   -1.8907   19.6587  -30.8142 H   0  0  0  0  0  0  0  0  0  0  0  0
   -1.6409   21.4553  -31.0007 H   0  0  0  0  0  0  0  0  0  0  0  0
   -4.2442   19.9000  -31.3163 H   0  0  0  0  0  0  0  0  0  0  0  0
   -3.8261   21.1194  -30.0594 H   0  0  0  0  0  0  0  0  0  0  0  0
   -8.4650   23.0130  -32.0600 H   0  0  0  0  0  0  0  0  0  0  0  0
   -9.2330   20.8988  -30.4142 H   0  0  0  0  0  0  0  0  0  0  0  0
   -9.4924   18.4224  -30.5923 H   0  0  0  0  0  0  0  0  0  0  0  0
   -8.1329   17.1375  -32.2458 H   0  0  0  0  0  0  0  0  0  0  0  0
   -4.2930   18.3530  -32.8230 H   0  0  0  0  0  0  0  0  0  0  0  0
   -4.9635   16.5235  -31.6705 H   0  0  0  0  0  0  0  0  0  0  0  0
   -5.4049   15.6424  -33.1484 H   0  0  0  0  0  0  0  0  0  0  0  0
   -2.7338   15.9221  -31.8068 H   0  0  0  0  0  0  0  0  0  0  0  0
   -3.3031   14.6226  -32.8609 H   0  0  0  0  0  0  0  0  0  0  0  0
   -1.6611   16.9119  -33.5720 H   0  0  0  0  0  0  0  0  0  0  0  0
   -2.2388   15.6515  -34.6699 H   0  0  0  0  0  0  0  0  0  0  0  0
   -3.0718   18.3254  -34.7259 H   0  0  0  0  0  0  0  0  0  0  0  0
   -4.0146   16.9878  -35.4190 H   0  0  0  0  0  0  0  0  0  0  0  0
   -6.1810   20.8018  -33.4822 H   0  0  0  0  0  0  0  0  0  0  0  0
   -4.7514   21.9203  -34.0007 H   0  0  0  0  0  0  0  0  0  0  0  0
   -3.1809   22.7460  -33.6232 H   0  0  0  0  0  0  0  0  0  0  0  0
   -3.7232   19.7445  -33.7343 H   0  0  0  0  0  0  0  0  0  0  0  0
   -2.6750   20.7334  -34.8292 H   0  0  0  0  0  0  0  0  0  0  0  0
  1  2  1  0
  2  3  1  0
  2  4  1  0
  4  5  1  0
  5  6  1  0
  6  7  1  0
  7  8  1  0
  8  9  2  0
  9 10  1  0
 10 11  1  0
 11 12  2  0
 12 13  1  0
 13 14  2  0
 14 15  1  0
 15 16  1  0
 16 17  2  0
 16 18  2  0
 16 19  1  0
 19 20  1  0
 20 21  1  0
 21 22  1  0
 22 23  1  0
 15 24  2  0
  9 25  1  0
 25 26  2  0
 25 27  1  0
 27 28  2  0
  7 29  1  0
 29 30  1  0
 30  4  1  0
 27  8  1  0
 24 11  1  0
 23 19  1  0
  1 31  1  0
  1 32  1  0
  1 33  1  0
  3 34  1  0
  3 35  1  0
  3 36  1  0
  4 37  1  0
  5 38  1  0
  5 39  1  0
  6 40  1  0
  6 41  1  0
 10 42  1  0
 12 43  1  0
 13 44  1  0
 14 45  1  0
 19 46  1  0
 20 47  1  0
 20 48  1  0
 21 49  1  0
 21 50  1  0
 22 51  1  0
 22 52  1  0
 23 53  1  0
 23 54  1  0
 24 55  1  0
 29 56  1  0
 29 57  1  0
 30 58  1  0
 30 59  1  0
M  CHG  1  19   1
M  END
>  <UniqueID>  (13) 
13

>  <SMILES>  (13) 
CN(C)C1CCN(c2c(Nc3cccc(S(=O)(=O)[NH+]4CCCC4)c3)c(=O)c2=O)CC1

>  <Energy>  (13) 
66.19656338682398

>  <Genealogy>  (13) 
CN(C)C1CCN(c2c(Nc3cccc(S(=O)(=O)[NH+]4CCCC4)c3)c(=O)c2=O)CC1 (protonated)
CN(C)C1CCN(c2c(Nc3cccc(S(=O)(=O)[NH+]4CCCC4)c3)c(=O)c2=O)CC1 (3D coordinates assigned)
CN(C)C1CCN(c2c(Nc3cccc(S(=O)(=O)[NH+]4CCCC4)c3)c(=O)c2=O)CC1 (nonaromatic ring conformer: 66.19656338682398 kcal/mol)

>  <smiles>  (13) 
CN(C)C1CCN(c2c(Nc3cccc(S(=O)(=O)N4CCCC4)c3)c(=O)c2=O)CC1

>  <score_type>  (13) 
oracle

>  <origin>  (13) 
adgpu

>  <m_score__min__energy>  (13) 
-9.2400000000000002

>  <m_primary>  (13) 
energy

$$$$
13:0
     RDKit          3D

 47 50  0  0  0  0  0  0  0  0999 V2000
    0.5477   21.9628  -30.5856 H   0  0  0  0  0  0  0  0  0  0  0  0
   -0.4430   21.5270  -30.7820 C   0  0  0  0  0  0  0  0  0  0  0  0
   -0.8590   21.4800  -32.0570 C   0  0  0  0  0  0  0  0  0  0  0  0
   -0.2313   21.9619  -32.8211 H   0  0  0  0  0  0  0  0  0  0  0  0
   -2.1090   20.8210  -32.5020 C   0  0  0  0  0  0  0  0  0  0  0  0
   -3.3490   21.4640  -32.3580 C   0  0  0  0  0  0  0  0  0  0  0  0
   -3.4450   22.7850  -31.7950 N   0  0  0  0  0  0  0  0  0  0  0  0
   -2.6000   23.3980  -31.7980 H   0  0  0  0  0  0  0  0  0  0  0  0
   -4.6780   23.3450  -31.3080 C   0  0  0  0  0  0  0  0  0  0  0  0
   -5.8910   22.6440  -31.4370 C   0  0  0  0  0  0  0  0  0  0  0  0
   -5.9036   21.6598  -31.9281 H   0  0  0  0  0  0  0  0  0  0  0  0
   -7.0810   23.1900  -30.9450 C   0  0  0  0  0  0  0  0  0  0  0  0
   -8.5890   22.3110  -31.1210 Cl  0  0  0  0  0  0  0  0  0  0  0  0
   -7.0670   24.4330  -30.3060 C   0  0  0  0  0  0  0  0  0  0  0  0
   -8.0035   24.8649  -29.9234 H   0  0  0  0  0  0  0  0  0  0  0  0
   -5.8650   25.1270  -30.1530 C   0  0  0  0  0  0  0  0  0  0  0  0
   -5.8559   26.1016  -29.6431 H   0  0  0  0  0  0  0  0  0  0  0  0
   -4.6720   24.5870  -30.6460 C   0  0  0  0  0  0  0  0  0  0  0  0
   -3.4860   25.2950  -30.4860 O   0  0  0  0  0  0  0  0  0  0  0  0
   -4.4760   20.8230  -32.7550 N   0  0  0  0  0  0  0  0  0  0  0  0
   -4.4520   19.5740  -33.2840 C   0  0  0  0  0  0  0  0  0  0  0  0
   -5.6630   18.9680  -33.6540 C   0  0  0  0  0  0  0  0  0  0  0  0
   -6.8610   19.6740  -33.4630 O   0  0  0  0  0  0  0  0  0  0  0  0
   -7.9350   19.2280  -32.6400 C   0  0  0  0  0  0  0  0  0  0  0  0
   -7.6581   19.3430  -31.5816 H   0  0  0  0  0  0  0  0  0  0  0  0
   -8.8325   19.8278  -32.8515 H   0  0  0  0  0  0  0  0  0  0  0  0
   -8.1436   18.1689  -32.8515 H   0  0  0  0  0  0  0  0  0  0  0  0
   -5.6320   17.6770  -34.2020 C   0  0  0  0  0  0  0  0  0  0  0  0
   -6.5686   17.1837  -34.5011 H   0  0  0  0  0  0  0  0  0  0  0  0
   -4.4170   17.0210  -34.3670 C   0  0  0  0  0  0  0  0  0  0  0  0
   -4.3895   16.0082  -34.7953 H   0  0  0  0  0  0  0  0  0  0  0  0
   -3.2340   17.6530  -33.9870 C   0  0  0  0  0  0  0  0  0  0  0  0
   -2.2738   17.1331  -34.1199 H   0  0  0  0  0  0  0  0  0  0  0  0
   -3.2520   18.9160  -33.4490 N   0  0  0  0  0  0  0  0  0  0  0  0
   -2.0840   19.5330  -33.0730 C   0  0  0  0  0  0  0  0  0  0  0  0
   -0.9730   18.9550  -33.2430 O   0  0  0  0  0  0  0  0  0  0  0  0
   -1.2180   21.0360  -29.6200 C   0  0  0  0  0  0  0  0  0  0  0  0
   -2.3520   21.7510  -29.2060 C   0  0  0  0  0  0  0  0  0  0  0  0
   -2.6450   22.6680  -29.7383 H   0  0  0  0  0  0  0  0  0  0  0  0
   -3.1120   21.3040  -28.1200 C   0  0  0  0  0  0  0  0  0  0  0  0
   -3.9925   21.8765  -27.7930 H   0  0  0  0  0  0  0  0  0  0  0  0
   -2.7540   20.1310  -27.4500 C   0  0  0  0  0  0  0  0  0  0  0  0
   -3.3459   19.7865  -26.5892 H   0  0  0  0  0  0  0  0  0  0  0  0
   -1.6440   19.3960  -27.8740 C   0  0  0  0  0  0  0  0  0  0  0  0
   -1.3684   18.4674  -27.3526 H   0  0  0  0  0  0  0  0  0  0  0  0
   -0.8830   19.8390  -28.9600 C   0  0  0  0  0  0  0  0  0  0  0  0
   -0.0188   19.2495  -29.3000 H   0  0  0  0  0  0  0  0  0  0  0  0
  1  2  1  0
  2  3  2  0
  3  4  1  0
  3  5  1  0
  5  6  2  0
  6  7  1  0
  7  8  1  0
  7  9  1  0
  9 10  2  0
 10 11  1  0
 10 12  1  0
 12 13  1  0
 12 14  2  0
 14 15  1  0
 14 16  1  0
 16 17  1  0
 16 18  2  0
 18 19  1  0
  6 20  1  0
 20 21  2  0
 21 22  1  0
 22 23  1  0
 23 24  1  0
 24 25  1  0
 24 26  1  0
 24 27  1  0
 22 28  2  0
 28 29  1  0
 28 30  1  0
 30 31  1  0
 30 32  2  0
 32 33  1  0
 32 34  1  0
 34 35  1  0
 35 36  2  0
  2 37  1  0
 37 38  2  0
 38 39  1  0
 38 40  1  0
 40 41  1  0
 40 42  2  0
 42 43  1  0
 42 44  1  0
 44 45  1  0
 44 46  2  0
 46 47  1  0
 35  5  1  0
 46 37  1  0
 18  9  1  0
 34 21  1  0
M  CHG  1  19  -1
M  END
>  <UniqueID>  (14) 
14

>  <SMILES>  (14) 
COc1cccn2c(=O)c(/C=C\c3ccccc3)c(Nc3cc(Cl)ccc3[O-])nc12

>  <Energy>  (14) 
73.19354844847956

>  <Genealogy>  (14) 
COc1cccn2c(=O)c(C=Cc3ccccc3)c(Nc3cc(Cl)ccc3[O-])nc12 (protonated)
COc1cccn2c(=O)c(/C=C\c3ccccc3)c(Nc3cc(Cl)ccc3[O-])nc12 (cis-trans isomerization)
COc1cccn2c(=O)c(/C=C\c3ccccc3)c(Nc3cc(Cl)ccc3[O-])nc12 (3D coordinates assigned)
COc1cccn2c(=O)c(/C=C\c3ccccc3)c(Nc3cc(Cl)ccc3[O-])nc12 (optimized conformer: 73.19354844847956 kcal/mol)

>  <smiles>  (14) 
COc1cccn2c(=O)c(C=Cc3ccccc3)c(Nc3cc(Cl)ccc3O)nc12

>  <score_type>  (14) 
oracle

>  <origin>  (14) 
adgpu

>  <m_score__min__energy>  (14) 
-12.08

>  <m_primary>  (14) 
energy

$$$$
14:0
     RDKit          3D

 57 61  0  0  0  0  0  0  0  0999 V2000
   -4.4620   20.3950  -32.8610 O   0  0  0  0  0  0  0  0  0  0  0  0
   -4.3210   19.3320  -33.5170 C   0  0  0  0  0  0  0  0  0  0  0  0
   -5.4610   18.5000  -33.7870 N   0  0  0  0  0  0  0  0  0  0  0  0
   -6.7490   18.6970  -33.1830 C   0  0  0  0  0  0  0  0  0  0  0  0
   -7.4380   17.5930  -32.6600 C   0  0  0  0  0  0  0  0  0  0  0  0
   -8.6510   17.7790  -31.9920 C   0  0  0  0  0  0  0  0  0  0  0  0
   -9.1650   19.0670  -31.8060 C   0  0  0  0  0  0  0  0  0  0  0  0
   -8.4660   20.1800  -32.2890 C   0  0  0  0  0  0  0  0  0  0  0  0
   -9.0110   21.8130  -31.8960 S   0  0  0  0  0  0  0  0  0  0  0  0
   -9.3560   21.9150  -30.4320 O   0  0  0  0  0  0  0  0  0  0  0  0
  -10.2420   22.1040  -32.7160 O   0  0  0  0  0  0  0  0  0  0  0  0
   -7.7810   22.9840  -32.2750 N   0  0  0  0  0  0  0  0  0  0  0  0
   -6.5070   23.0640  -31.6300 C   0  0  0  0  0  0  0  0  0  0  0  0
   -5.9880   21.9060  -31.0010 C   0  0  0  0  0  0  0  0  0  0  0  0
   -4.8110   21.9730  -30.2350 C   0  0  0  0  0  0  0  0  0  0  0  0
   -4.1710   23.2030  -30.1480 C   0  0  0  0  0  0  0  0  0  0  0  0
   -3.0480   23.6180  -29.4750 C   0  0  0  0  0  0  0  0  0  0  0  0
   -2.8670   24.9410  -29.7260 N   0  0  0  0  0  0  0  0  0  0  0  0
   -3.8350   25.3680  -30.5300 N   0  0  0  0  0  0  0  0  0  0  0  0
   -4.6330   24.3130  -30.7900 C   0  0  0  0  0  0  0  0  0  0  0  0
   -5.7970   24.2880  -31.5520 C   0  0  0  0  0  0  0  0  0  0  0  0
   -7.2740   19.9900  -33.0020 C   0  0  0  0  0  0  0  0  0  0  0  0
   -2.9660   18.9400  -33.9540 C   0  0  0  0  0  0  0  0  0  0  0  0
   -1.8770   19.7640  -33.6130 C   0  0  0  0  0  0  0  0  0  0  0  0
   -0.5740   19.4110  -33.9920 C   0  0  0  0  0  0  0  0  0  0  0  0
    0.7620   20.4910  -33.6070 S   0  0  0  0  0  0  0  0  0  0  0  0
    2.0590   19.8270  -33.9830 O   0  0  0  0  0  0  0  0  0  0  0  0
    0.6280   21.7710  -34.3900 O   0  0  0  0  0  0  0  0  0  0  0  0
    0.7530   20.8160  -31.8950 N   0  0  0  0  0  0  0  0  0  0  0  0
    0.7170   19.5750  -31.1250 C   0  0  0  0  0  0  0  0  0  0  0  0
    0.1220   19.9330  -29.7800 C   0  0  0  0  0  0  0  0  0  0  0  0
   -0.7530   21.1520  -30.0590 C   0  0  0  0  0  0  0  0  0  0  0  0
   -0.4410   21.5590  -31.4940 C   0  0  0  0  0  0  0  0  0  0  0  0
   -0.3550   18.2390  -34.7340 C   0  0  0  0  0  0  0  0  0  0  0  0
   -1.4340   17.4290  -35.0960 C   0  0  0  0  0  0  0  0  0  0  0  0
   -2.7380   17.7800  -34.7260 C   0  0  0  0  0  0  0  0  0  0  0  0
   -3.7970   16.9920  -35.1670 O   0  0  0  0  0  0  0  0  0  0  0  0
   -5.3560   17.6750  -34.4130 H   0  0  0  0  0  0  0  0  0  0  0  0
   -7.0234   16.5807  -32.7757 H   0  0  0  0  0  0  0  0  0  0  0  0
   -9.2047   16.9085  -31.6104 H   0  0  0  0  0  0  0  0  0  0  0  0
  -10.1206   19.2056  -31.2790 H   0  0  0  0  0  0  0  0  0  0  0  0
   -6.5110   20.9448  -31.1129 H   0  0  0  0  0  0  0  0  0  0  0  0
   -4.4117   21.0847  -29.7236 H   0  0  0  0  0  0  0  0  0  0  0  0
   -2.4059   22.9880  -28.8420 H   0  0  0  0  0  0  0  0  0  0  0  0
   -6.1537   25.1872  -32.0757 H   0  0  0  0  0  0  0  0  0  0  0  0
   -6.7453   20.8579  -33.4230 H   0  0  0  0  0  0  0  0  0  0  0  0
   -2.0492   20.6906  -33.0457 H   0  0  0  0  0  0  0  0  0  0  0  0
    0.0895   18.8282  -31.6335 H   0  0  0  0  0  0  0  0  0  0  0  0
    1.7214   19.1395  -31.0172 H   0  0  0  0  0  0  0  0  0  0  0  0
   -0.4832   19.1017  -29.3893 H   0  0  0  0  0  0  0  0  0  0  0  0
    0.8937   20.1375  -29.0233 H   0  0  0  0  0  0  0  0  0  0  0  0
   -1.8171   20.8929  -29.9559 H   0  0  0  0  0  0  0  0  0  0  0  0
   -0.5514   21.9691  -29.3507 H   0  0  0  0  0  0  0  0  0  0  0  0
   -1.2847   21.3032  -32.1519 H   0  0  0  0  0  0  0  0  0  0  0  0
   -0.2739   22.6437  -31.5687 H   0  0  0  0  0  0  0  0  0  0  0  0
    0.6666   17.9587  -35.0303 H   0  0  0  0  0  0  0  0  0  0  0  0
   -1.2582   16.5103  -35.6749 H   0  0  0  0  0  0  0  0  0  0  0  0
  1  2  2  0
  2  3  1  0
  3  4  1  0
  4  5  2  0
  5  6  1  0
  6  7  2  0
  7  8  1  0
  8  9  1  0
  9 10  2  0
  9 11  2  0
  9 12  1  0
 12 13  1  0
 13 14  1  0
 14 15  2  0
 15 16  1  0
 16 17  2  0
 17 18  1  0
 18 19  1  0
 19 20  2  0
 20 21  1  0
  8 22  2  0
  2 23  1  0
 23 24  2  0
 24 25  1  0
 25 26  1  0
 26 27  2  0
 26 28  2  0
 26 29  1  0
 29 30  1  0
 30 31  1  0
 31 32  1  0
 32 33  1  0
 25 34  2  0
 34 35  1  0
 35 36  2  0
 36 37  1  0
 22  4  1  0
 36 23  1  0
 21 13  2  0
 33 29  1  0
 20 16  1  0
  3 38  1  0
  5 39  1  0
  6 40  1  0
  7 41  1  0
 14 42  1  0
 15 43  1  0
 17 44  1  0
 21 45  1  0
 22 46  1  0
 24 47  1  0
 30 48  1  0
 30 49  1  0
 31 50  1  0
 31 51  1  0
 32 52  1  0
 32 53  1  0
 33 54  1  0
 33 55  1  0
 34 56  1  0
 35 57  1  0
M  CHG  3  12  -1  18  -1  37  -1
M  END
>  <UniqueID>  (15) 
15

>  <SMILES>  (15) 
O=C(Nc1cccc(S(=O)(=O)[N-]c2ccc3c[n-]nc3c2)c1)c1cc(S(=O)(=O)N2CCCC2)ccc1[O-]

>  <Energy>  (15) 
115.25056742043803

>  <Genealogy>  (15) 
O=C(Nc1cccc(S(=O)(=O)[N-]c2ccc3c[n-]nc3c2)c1)c1cc(S(=O)(=O)N2CCCC2)ccc1[O-] (protonated)
O=C(Nc1cccc(S(=O)(=O)[N-]c2ccc3c[n-]nc3c2)c1)c1cc(S(=O)(=O)N2CCCC2)ccc1[O-] (3D coordinates assigned)
O=C(Nc1cccc(S(=O)(=O)[N-]c2ccc3c[n-]nc3c2)c1)c1cc(S(=O)(=O)N2CCCC2)ccc1[O-] (nonaromatic ring conformer: 115.25056742043803 kcal/mol)

>  <smiles>  (15) 
O=C(Nc1cccc(S(=O)(=O)Nc2ccc3c[nH]nc3c2)c1)c1cc(S(=O)(=O)N2CCCC2)ccc1O

>  <score_type>  (15) 
oracle

>  <origin>  (15) 
adgpu

>  <m_score__min__energy>  (15) 
-15.17

>  <m_primary>  (15) 
energy

$$$$
15:0
     RDKit          3D

 54 58  0  0  0  0  0  0  0  0999 V2000
   -0.4461   21.5815  -34.3785 H   0  0  0  0  0  0  0  0  0  0  0  0
   -0.0830   20.6070  -34.7370 C   0  0  0  0  0  0  0  0  0  0  0  0
    0.8200   20.5250  -35.8090 C   0  0  0  0  0  0  0  0  0  0  0  0
    1.1611   21.4439  -36.3083 H   0  0  0  0  0  0  0  0  0  0  0  0
    1.2930   19.2690  -36.2500 C   0  0  0  0  0  0  0  0  0  0  0  0
    2.3860   19.1690  -37.6240 S   0  0  0  0  0  0  0  0  0  0  0  0
    3.1540   20.4540  -37.7590 O   0  0  0  0  0  0  0  0  0  0  0  0
    1.6020   18.9400  -38.8860 O   0  0  0  0  0  0  0  0  0  0  0  0
    3.5170   17.8200  -37.3730 C   0  0  0  0  0  0  0  0  0  0  0  0
    3.6562   17.6540  -36.2945 H   0  0  0  0  0  0  0  0  0  0  0  0
    3.1090   16.9087  -37.8346 H   0  0  0  0  0  0  0  0  0  0  0  0
    4.4855   18.0628  -37.8346 H   0  0  0  0  0  0  0  0  0  0  0  0
    0.8600   18.0930  -35.6090 C   0  0  0  0  0  0  0  0  0  0  0  0
    1.2218   17.1078  -35.9383 H   0  0  0  0  0  0  0  0  0  0  0  0
   -0.0380   18.2040  -34.5470 C   0  0  0  0  0  0  0  0  0  0  0  0
   -0.5080   19.4200  -34.1380 C   0  0  0  0  0  0  0  0  0  0  0  0
   -1.4420   19.2770  -33.0830 N   0  0  0  0  0  0  0  0  0  0  0  0
   -2.1630   20.3330  -32.4360 C   0  0  0  0  0  0  0  0  0  0  0  0
   -1.4420   21.3090  -31.7380 C   0  0  0  0  0  0  0  0  0  0  0  0
   -0.3450   21.2445  -31.6880 H   0  0  0  0  0  0  0  0  0  0  0  0
   -2.1020   22.3630  -31.1050 C   0  0  0  0  0  0  0  0  0  0  0  0
   -1.5236   23.1267  -30.5644 H   0  0  0  0  0  0  0  0  0  0  0  0
   -3.4960   22.4510  -31.1560 C   0  0  0  0  0  0  0  0  0  0  0  0
   -4.3270   23.7980  -30.3740 S   0  0  0  0  0  0  0  0  0  0  0  0
   -3.4900   25.0370  -30.5230 O   0  0  0  0  0  0  0  0  0  0  0  0
   -4.4690   23.5040  -28.9060 O   0  0  0  0  0  0  0  0  0  0  0  0
   -5.9560   24.1300  -31.0500 C   0  0  0  0  0  0  0  0  0  0  0  0
   -5.6073   24.2951  -32.0801 H   0  0  0  0  0  0  0  0  0  0  0  0
   -6.9030   24.8310  -30.0900 C   0  0  0  0  0  0  0  0  0  0  0  0
   -6.5565   25.1158  -29.0856 H   0  0  0  0  0  0  0  0  0  0  0  0
   -7.5233   25.7383  -30.1335 H   0  0  0  0  0  0  0  0  0  0  0  0
   -7.1170   23.3650  -30.4330 C   0  0  0  0  0  0  0  0  0  0  0  0
   -6.9250   22.5894  -29.6770 H   0  0  0  0  0  0  0  0  0  0  0  0
   -7.9557   22.7726  -30.8274 H   0  0  0  0  0  0  0  0  0  0  0  0
   -4.2280   21.4690  -31.8350 C   0  0  0  0  0  0  0  0  0  0  0  0
   -5.3254   21.5363  -31.8703 H   0  0  0  0  0  0  0  0  0  0  0  0
   -3.5780   20.4000  -32.4710 C   0  0  0  0  0  0  0  0  0  0  0  0
   -4.5690   19.1870  -33.2960 S   0  0  0  0  0  0  0  0  0  0  0  0
   -3.9540   18.8580  -34.6280 O   0  0  0  0  0  0  0  0  0  0  0  0
   -4.6210   17.9500  -32.4460 O   0  0  0  0  0  0  0  0  0  0  0  0
   -6.1740   19.7880  -33.5660 N   0  0  0  0  0  0  0  0  0  0  0  0
   -7.2190   19.4400  -32.8790 C   0  0  0  0  0  0  0  0  0  0  0  0
   -8.7460   20.0420  -33.1010 S   0  0  0  0  0  0  0  0  0  0  0  0
   -9.4880   19.1660  -31.8960 N   0  0  0  0  0  0  0  0  0  0  0  0
   -8.4980   18.4090  -31.3430 C   0  0  0  0  0  0  0  0  0  0  0  0
   -8.7004   17.7195  -30.5102 H   0  0  0  0  0  0  0  0  0  0  0  0
   -7.2410   18.5440  -31.8690 N   0  0  0  0  0  0  0  0  0  0  0  0
   -6.4220   17.9980  -31.5240 H   0  0  0  0  0  0  0  0  0  0  0  0
   -1.5360   17.8640  -32.7200 C   0  0  0  0  0  0  0  0  0  0  0  0
   -2.5757   17.5149  -32.8051 H   0  0  0  0  0  0  0  0  0  0  0  0
   -1.2204   17.6910  -31.6805 H   0  0  0  0  0  0  0  0  0  0  0  0
   -0.6290   17.1090  -33.7250 C   0  0  0  0  0  0  0  0  0  0  0  0
   -1.2197   16.4228  -34.3497 H   0  0  0  0  0  0  0  0  0  0  0  0
    0.1304   16.4839  -33.2325 H   0  0  0  0  0  0  0  0  0  0  0  0
  1  2  1  0
  2  3  2  0
  3  4  1  0
  3  5  1  0
  5  6  1  0
  6  7  2  0
  6  8  2  0
  6  9  1  0
  9 10  1  0
  9 11  1  0
  9 12  1  0
  5 13  2  0
 13 14  1  0
 13 15  1  0
 15 16  2  0
 16 17  1  0
 17 18  1  0
 18 19  2  0
 19 20  1  0
 19 21  1  0
 21 22  1  0
 21 23  2  0
 23 24  1  0
 24 25  2  0
 24 26  2  0
 24 27  1  0
 27 28  1  0
 27 29  1  0
 29 30  1  0
 29 31  1  0
 29 32  1  0
 32 33  1  0
 32 34  1  0
 23 35  1  0
 35 36  1  0
 35 37  2  0
 37 38  1  0
 38 39  2  0
 38 40  2  0
 38 41  1  0
 41 42  2  0
 42 43  1  0
 43 44  1  0
 44 45  2  0
 45 46  1  0
 45 47  1  0
 47 48  1  0
 17 49  1  0
 49 50  1  0
 49 51  1  0
 49 52  1  0
 52 53  1  0
 52 54  1  0
 16  2  1  0
 37 18  1  0
 47 42  1  0
 52 15  1  0
 32 27  1  0
M  END
>  <UniqueID>  (16) 
16

>  <SMILES>  (16) 
CS(=O)(=O)c1ccc2c(c1)CCN2c1ccc(S(=O)(=O)C2CC2)cc1S(=O)(=O)/N=c1\[nH]cns1

>  <Energy>  (16) 
379.2391264749403

>  <Genealogy>  (16) 
CS(=O)(=O)c1ccc2c(c1)CCN2c1ccc(S(=O)(=O)C2CC2)cc1S(=O)(=O)/N=c1\[nH]cns1 (cis-trans isomerization)
CS(=O)(=O)c1ccc2c(c1)CCN2c1ccc(S(=O)(=O)C2CC2)cc1S(=O)(=O)/N=c1\[nH]cns1 (3D coordinates assigned)
CS(=O)(=O)c1ccc2c(c1)CCN2c1ccc(S(=O)(=O)C2CC2)cc1S(=O)(=O)/N=c1\[nH]cns1 (nonaromatic ring conformer: 379.2391264749403 kcal/mol)

>  <smiles>  (16) 
CS(=O)(=O)c1ccc2c(c1)CCN2c1ccc(S(=O)(=O)C2CC2)cc1S(=O)(=O)N=c1[nH]cns1

>  <score_type>  (16) 
oracle

>  <origin>  (16) 
adgpu

>  <m_score__min__energy>  (16) 
-9.7599999999999998

>  <m_primary>  (16) 
energy

$$$$
16:0
     RDKit          3D

 48 51  0  0  0  0  0  0  0  0999 V2000
   -3.5800   19.8040  -32.1820 C   0  0  0  0  0  0  0  0  0  0  0  0
   -4.0610   20.5260  -31.0520 O   0  0  0  0  0  0  0  0  0  0  0  0
   -3.3970   21.6020  -30.4420 C   0  0  0  0  0  0  0  0  0  0  0  0
   -2.3580   21.3750  -29.5210 C   0  0  0  0  0  0  0  0  0  0  0  0
   -1.6880   22.4380  -28.9160 C   0  0  0  0  0  0  0  0  0  0  0  0
   -0.7150   22.1790  -28.0520 O   0  0  0  0  0  0  0  0  0  0  0  0
   -0.0260   23.1320  -27.4350 C   0  0  0  0  0  0  0  0  0  0  0  0
   -0.3020   24.4850  -27.6740 C   0  0  0  0  0  0  0  0  0  0  0  0
    0.4880   25.5320  -26.9770 C   0  0  0  0  0  0  0  0  0  0  0  0
    1.8920   25.5390  -27.0660 C   0  0  0  0  0  0  0  0  0  0  0  0
    2.6370   26.5290  -26.4180 C   0  0  0  0  0  0  0  0  0  0  0  0
    1.9890   27.5230  -25.6800 C   0  0  0  0  0  0  0  0  0  0  0  0
    2.7310   28.5060  -25.0360 O   0  0  0  0  0  0  0  0  0  0  0  0
    0.5950   27.5300  -25.5910 C   0  0  0  0  0  0  0  0  0  0  0  0
   -0.1540   26.5410  -26.2370 C   0  0  0  0  0  0  0  0  0  0  0  0
   -1.3350   24.8060  -28.5740 C   0  0  0  0  0  0  0  0  0  0  0  0
   -1.6320   26.0140  -28.7810 O   0  0  0  0  0  0  0  0  0  0  0  0
   -2.0450   23.7680  -29.2200 C   0  0  0  0  0  0  0  0  0  0  0  0
   -3.0890   24.0040  -30.1410 C   0  0  0  0  0  0  0  0  0  0  0  0
   -3.4720   25.3030  -30.4650 O   0  0  0  0  0  0  0  0  0  0  0  0
   -3.7690   22.9360  -30.7500 C   0  0  0  0  0  0  0  0  0  0  0  0
   -4.8030   23.2810  -31.6450 O   0  0  0  0  0  0  0  0  0  0  0  0
   -5.3710   22.4780  -32.6810 C   0  0  0  0  0  0  0  0  0  0  0  0
   -6.6730   21.8230  -32.2580 C   0  0  0  0  0  0  0  0  0  0  0  0
   -6.9680   20.5100  -32.6760 C   0  0  0  0  0  0  0  0  0  0  0  0
   -8.1600   19.8930  -32.2990 C   0  0  0  0  0  0  0  0  0  0  0  0
   -9.0670   20.5640  -31.4830 C   0  0  0  0  0  0  0  0  0  0  0  0
   -8.7780   21.8490  -31.0250 C   0  0  0  0  0  0  0  0  0  0  0  0
   -7.5770   22.4840  -31.3850 C   0  0  0  0  0  0  0  0  0  0  0  0
   -7.2860   23.8590  -30.8430 C   0  0  0  0  0  0  0  0  0  0  0  0
   -3.0001   18.9336  -31.8413 H   0  0  0  0  0  0  0  0  0  0  0  0
   -4.4317   19.4625  -32.7886 H   0  0  0  0  0  0  0  0  0  0  0  0
   -2.9368   20.4584  -32.7886 H   0  0  0  0  0  0  0  0  0  0  0  0
   -2.0695   20.3426  -29.2742 H   0  0  0  0  0  0  0  0  0  0  0  0
    0.7705   22.8562  -26.7282 H   0  0  0  0  0  0  0  0  0  0  0  0
    2.4068   24.7610  -27.6489 H   0  0  0  0  0  0  0  0  0  0  0  0
    3.7347   26.5254  -26.4893 H   0  0  0  0  0  0  0  0  0  0  0  0
    0.0856   28.3144  -25.0121 H   0  0  0  0  0  0  0  0  0  0  0  0
   -1.2516   26.5525  -26.1658 H   0  0  0  0  0  0  0  0  0  0  0  0
   -5.5645   23.1157  -33.5561 H   0  0  0  0  0  0  0  0  0  0  0  0
   -4.6540   21.6775  -32.9158 H   0  0  0  0  0  0  0  0  0  0  0  0
   -6.2497   19.9658  -33.3068 H   0  0  0  0  0  0  0  0  0  0  0  0
   -8.3844   18.8739  -32.6469 H   0  0  0  0  0  0  0  0  0  0  0  0
  -10.0130   20.0797  -31.1992 H   0  0  0  0  0  0  0  0  0  0  0  0
   -9.4968   22.3705  -30.3759 H   0  0  0  0  0  0  0  0  0  0  0  0
   -7.2924   23.8286  -29.7434 H   0  0  0  0  0  0  0  0  0  0  0  0
   -6.2979   24.1903  -31.1949 H   0  0  0  0  0  0  0  0  0  0  0  0
   -8.0552   24.5622  -31.1949 H   0  0  0  0  0  0  0  0  0  0  0  0
  1  2  1  0
  2  3  1  0
  3  4  2  0
  4  5  1  0
  5  6  1  0
  6  7  1  0
  7  8  2  0
  8  9  1  0
  9 10  2  0
 10 11  1  0
 11 12  2  0
 12 13  1  0
 12 14  1  0
 14 15  2  0
  8 16  1  0
 16 17  2  0
 16 18  1  0
 18 19  1  0
 19 20  1  0
 19 21  2  0
 21 22  1  0
 22 23  1  0
 23 24  1  0
 24 25  2  0
 25 26  1  0
 26 27  2  0
 27 28  1  0
 28 29  2  0
 29 30  1  0
 21  3  1  0
 29 24  1  0
 18  5  2  0
 15  9  1  0
  1 31  1  0
  1 32  1  0
  1 33  1  0
  4 34  1  0
  7 35  1  0
 10 36  1  0
 11 37  1  0
 14 38  1  0
 15 39  1  0
 23 40  1  0
 23 41  1  0
 25 42  1  0
 26 43  1  0
 27 44  1  0
 28 45  1  0
 30 46  1  0
 30 47  1  0
 30 48  1  0
M  CHG  2  13  -1  20  -1
M  END
>  <UniqueID>  (17) 
17

>  <SMILES>  (17) 
COc1cc2occ(-c3ccc([O-])cc3)c(=O)c2c([O-])c1OCc1ccccc1C

>  <Energy>  (17) 
70.90379719343727

>  <Genealogy>  (17) 
COc1cc2occ(-c3ccc([O-])cc3)c(=O)c2c([O-])c1OCc1ccccc1C (protonated)
COc1cc2occ(-c3ccc([O-])cc3)c(=O)c2c([O-])c1OCc1ccccc1C (3D coordinates assigned)
COc1cc2occ(-c3ccc([O-])cc3)c(=O)c2c([O-])c1OCc1ccccc1C (optimized conformer: 70.90379719343727 kcal/mol)

>  <smiles>  (17) 
COc1cc2occ(-c3ccc(O)cc3)c(=O)c2c(O)c1OCc1ccccc1C

>  <score_type>  (17) 
oracle

>  <origin>  (17) 
adgpu

>  <m_score__min__energy>  (17) 
-10.890000000000001

>  <m_primary>  (17) 
energy

$$$$
17:0
     RDKit          3D

 37 39  0  0  0  0  0  0  0  0999 V2000
    0.2810   21.9900  -27.6640 C   0  0  0  0  0  0  0  0  0  0  0  0
   -0.3370   22.0750  -28.9980 N   0  0  0  0  0  0  0  0  0  0  0  0
   -1.3030   20.9630  -29.2270 C   0  0  0  0  0  0  0  0  0  0  0  0
   -2.6820   21.1720  -28.5380 C   0  0  0  0  0  0  0  0  0  0  0  0
   -2.9740   22.6640  -28.3280 C   0  0  2  0  0  0  0  0  0  0  0  0
   -4.3830   23.1500  -28.4150 C   0  0  0  0  0  0  0  0  0  0  0  0
   -4.2340   24.5510  -28.8500 N   0  0  0  0  0  0  0  0  0  0  0  0
   -5.3790   24.9620  -30.0990 S   0  0  0  0  0  0  0  0  0  0  0  0
   -6.4100   25.9070  -29.5460 O   0  0  0  0  0  0  0  0  0  0  0  0
   -4.6560   25.6550  -31.2190 O   0  0  0  0  0  0  0  0  0  0  0  0
   -6.1690   23.5160  -30.7280 C   0  0  0  0  0  0  0  0  0  0  0  0
   -5.6470   22.8480  -31.8440 C   0  0  0  0  0  0  0  0  0  0  0  0
   -6.3000   21.7230  -32.3590 C   0  0  0  0  0  0  0  0  0  0  0  0
   -7.4770   21.2610  -31.7620 C   0  0  0  0  0  0  0  0  0  0  0  0
   -8.2970   19.8540  -32.4130 Cl  0  0  0  0  0  0  0  0  0  0  0  0
   -8.0010   21.9240  -30.6490 C   0  0  0  0  0  0  0  0  0  0  0  0
   -7.3500   23.0480  -30.1320 C   0  0  0  0  0  0  0  0  0  0  0  0
   -2.9650   24.7400  -29.3490 O   0  0  0  0  0  0  0  0  0  0  0  0
   -2.3860   23.4640  -29.4380 C   0  0  1  0  0  0  0  0  0  0  0  0
   -0.8590   23.4430  -29.3020 C   0  0  0  0  0  0  0  0  0  0  0  0
   -0.4958   22.0968  -26.8925 H   0  0  0  0  0  0  0  0  0  0  0  0
    0.7778   21.0151  -27.5515 H   0  0  0  0  0  0  0  0  0  0  0  0
    1.0226   22.7946  -27.5515 H   0  0  0  0  0  0  0  0  0  0  0  0
   -1.4685   20.8659  -30.3101 H   0  0  0  0  0  0  0  0  0  0  0  0
   -0.8592   20.0592  -28.7841 H   0  0  0  0  0  0  0  0  0  0  0  0
   -3.4695   20.7374  -29.1712 H   0  0  0  0  0  0  0  0  0  0  0  0
   -2.6600   20.6785  -27.5552 H   0  0  0  0  0  0  0  0  0  0  0  0
   -2.5843   22.7829  -27.3062 H   0  0  0  0  0  0  0  0  0  0  0  0
   -4.9556   22.5677  -29.1519 H   0  0  0  0  0  0  0  0  0  0  0  0
   -4.9314   23.0504  -27.4666 H   0  0  0  0  0  0  0  0  0  0  0  0
   -4.7215   23.2092  -32.3162 H   0  0  0  0  0  0  0  0  0  0  0  0
   -5.8869   21.2012  -33.2348 H   0  0  0  0  0  0  0  0  0  0  0  0
   -8.9269   21.5610  -30.1791 H   0  0  0  0  0  0  0  0  0  0  0  0
   -7.7648   23.5671  -29.2554 H   0  0  0  0  0  0  0  0  0  0  0  0
   -2.5969   23.0641  -30.4408 H   0  0  0  0  0  0  0  0  0  0  0  0
   -0.4146   23.7898  -30.2466 H   0  0  0  0  0  0  0  0  0  0  0  0
   -0.5858   24.1021  -28.4648 H   0  0  0  0  0  0  0  0  0  0  0  0
  1  2  1  0
  2  3  1  0
  3  4  1  0
  4  5  1  0
  5  6  1  0
  6  7  1  0
  7  8  1  0
  8  9  2  0
  8 10  2  0
  8 11  1  0
 11 12  2  0
 12 13  1  0
 13 14  2  0
 14 15  1  0
 14 16  1  0
 16 17  2  0
  7 18  1  0
 18 19  1  0
 19 20  1  0
 20  2  1  0
 19  5  1  0
 17 11  1  0
  1 21  1  0
  1 22  1  0
  1 23  1  0
  3 24  1  0
  3 25  1  0
  4 26  1  0
  4 27  1  0
  5 28  1  1
  6 29  1  0
  6 30  1  0
 12 31  1  0
 13 32  1  0
 16 33  1  0
 17 34  1  0
 19 35  1  6
 20 36  1  0
 20 37  1  0
M  END
>  <UniqueID>  (18) 
18

>  <SMILES>  (18) 
CN1CC[C@@H]2CN(S(=O)(=O)c3ccc(Cl)cc3)O[C@H]2C1

>  <Energy>  (18) 
55.32548143568664

>  <Genealogy>  (18) 
CN1CC[C@@H]2CN(S(=O)(=O)c3ccc(Cl)cc3)O[C@H]2C1 (chirality)
CN1CC[C@@H]2CN(S(=O)(=O)c3ccc(Cl)cc3)O[C@H]2C1 (3D coordinates assigned)
CN1CC[C@@H]2CN(S(=O)(=O)c3ccc(Cl)cc3)O[C@H]2C1 (nonaromatic ring conformer: 55.32548143568664 kcal/mol)

>  <smiles>  (18) 
CN1CCC2CN(S(=O)(=O)c3ccc(Cl)cc3)OC2C1

>  <score_type>  (18) 
oracle

>  <origin>  (18) 
adgpu

>  <m_score__min__energy>  (18) 
-8.5099999999999998

>  <m_primary>  (18) 
energy

$$$$
18:0
     RDKit          3D

 36 40  0  0  0  0  0  0  0  0999 V2000
   -8.6660   23.4100  -31.6750 O   0  0  0  0  0  0  0  0  0  0  0  0
   -7.6350   22.9360  -31.1230 C   0  0  0  0  0  0  0  0  0  0  0  0
   -7.5270   21.5230  -30.9050 N   0  0  0  0  0  0  0  0  0  0  0  0
   -8.6050   20.6120  -31.2750 C   0  0  0  0  0  0  0  0  0  0  0  0
   -8.1190   19.2100  -31.5990 C   0  0  0  0  0  0  0  0  0  0  0  0
   -8.5480   20.1450  -32.7190 C   0  0  0  0  0  0  0  0  0  0  0  0
   -6.5550   23.8520  -30.7150 C   0  0  0  0  0  0  0  0  0  0  0  0
   -6.6490   25.2360  -30.4700 C   0  0  0  0  0  0  0  0  0  0  0  0
   -5.4460   25.7520  -30.0830 N   0  0  0  0  0  0  0  0  0  0  0  0
   -4.6340   24.6890  -30.0930 C   0  0  0  0  0  0  0  0  0  0  0  0
   -3.3410   24.4040  -29.7850 C   0  0  0  0  0  0  0  0  0  0  0  0
   -2.3560   25.2970  -29.3830 O   0  0  0  0  0  0  0  0  0  0  0  0
   -3.2450   23.0140  -29.9940 C   0  0  0  0  0  0  0  0  0  0  0  0
   -2.0350   22.1780  -29.7930 C   0  0  0  0  0  0  0  0  0  0  0  0
   -1.5770   21.8560  -28.4950 C   0  0  0  0  0  0  0  0  0  0  0  0
   -0.4420   21.0440  -28.3090 C   0  0  0  0  0  0  0  0  0  0  0  0
    0.2560   20.5340  -29.4110 C   0  0  0  0  0  0  0  0  0  0  0  0
   -0.2060   20.8510  -30.6830 C   0  0  0  0  0  0  0  0  0  0  0  0
    0.4350   20.3840  -32.1660 S   0  0  0  0  0  0  0  0  0  0  0  0
   -0.7540   21.2400  -33.0060 C   0  0  0  0  0  0  0  0  0  0  0  0
   -0.8270   21.2940  -34.2620 O   0  0  0  0  0  0  0  0  0  0  0  0
   -1.6300   21.8750  -32.1940 N   0  0  0  0  0  0  0  0  0  0  0  0
   -1.3230   21.6510  -30.8890 C   0  0  0  0  0  0  0  0  0  0  0  0
   -4.4420   22.4930  -30.4100 N   0  0  0  0  0  0  0  0  0  0  0  0
   -5.2350   23.5780  -30.4520 C   0  0  0  0  0  0  0  0  0  0  0  0
   -6.6180   21.1130  -30.5960 H   0  0  0  0  0  0  0  0  0  0  0  0
   -9.3837   21.0426  -30.6283 H   0  0  0  0  0  0  0  0  0  0  0  0
   -7.0568   18.9532  -31.4733 H   0  0  0  0  0  0  0  0  0  0  0  0
   -8.4017   18.1956  -31.2811 H   0  0  0  0  0  0  0  0  0  0  0  0
   -7.7962   20.5646  -33.4036 H   0  0  0  0  0  0  0  0  0  0  0  0
   -9.2697   20.0873  -33.5471 H   0  0  0  0  0  0  0  0  0  0  0  0
   -7.5721   25.8246  -30.5767 H   0  0  0  0  0  0  0  0  0  0  0  0
   -5.2200   26.7370  -29.8200 H   0  0  0  0  0  0  0  0  0  0  0  0
   -2.1149   22.2453  -27.6180 H   0  0  0  0  0  0  0  0  0  0  0  0
   -0.1007   20.8083  -27.2902 H   0  0  0  0  0  0  0  0  0  0  0  0
    1.1447   19.9005  -29.2737 H   0  0  0  0  0  0  0  0  0  0  0  0
  1  2  2  0
  2  3  1  0
  3  4  1  0
  4  5  1  0
  5  6  1  0
  2  7  1  0
  7  8  2  0
  8  9  1  0
  9 10  1  0
 10 11  1  0
 11 12  1  0
 11 13  2  0
 13 14  1  0
 14 15  2  0
 15 16  1  0
 16 17  2  0
 17 18  1  0
 18 19  1  0
 19 20  1  0
 20 21  2  0
 20 22  1  0
 22 23  1  0
 13 24  1  0
 24 25  1  0
  6  4  1  0
 25  7  1  0
 25 10  2  0
 23 14  1  0
 23 18  2  0
  3 26  1  0
  4 27  1  0
  5 28  1  0
  5 29  1  0
  6 30  1  0
  6 31  1  0
  8 32  1  0
  9 33  1  0
 15 34  1  0
 16 35  1  0
 17 36  1  0
M  CHG  3  12  -1  22  -1  24  -1
M  END
>  <UniqueID>  (19) 
19

>  <SMILES>  (19) 
O=C(NC1CC1)c1c[nH]c2c([O-])c(-c3cccc4sc(=O)[n-]c34)[n-]c12

>  <Energy>  (19) 
427.6204078063259

>  <Genealogy>  (19) 
O=C(NC1CC1)c1c[nH]c2c([O-])c(-c3cccc4sc(=O)[n-]c34)[n-]c12 (protonated)
O=C(NC1CC1)c1c[nH]c2c([O-])c(-c3cccc4sc(=O)[n-]c34)[n-]c12 (3D coordinates assigned)
O=C(NC1CC1)c1c[nH]c2c([O-])c(-c3cccc4sc(=O)[n-]c34)[n-]c12 (nonaromatic ring conformer: 427.6204078063259 kcal/mol)

>  <smiles>  (19) 
O=C(NC1CC1)c1c[nH]c2c(O)c(-c3cccc4sc(=O)[nH]c34)[nH]c12

>  <score_type>  (19) 
oracle

>  <origin>  (19) 
adgpu

>  <m_score__min__energy>  (19) 
-11.199999999999999

>  <m_primary>  (19) 
energy

$$$$
19:0
     RDKit          3D

 53 56  0  0  0  0  0  0  0  0999 V2000
   -1.4760   15.6930  -32.7160 C   0  0  0  0  0  0  0  0  0  0  0  0
   -2.5030   15.4880  -33.8380 C   0  0  0  0  0  0  0  0  0  0  0  0
   -3.8390   14.9340  -33.2820 C   0  0  0  0  0  0  0  0  0  0  0  0
   -4.8600   16.0560  -33.0720 C   0  0  0  0  0  0  0  0  0  0  0  0
   -5.2030   16.7240  -34.3480 N   0  0  0  0  0  0  0  0  0  0  0  0
   -5.9390   18.2800  -34.0400 S   0  0  0  0  0  0  0  0  0  0  0  0
   -7.2850   18.0850  -33.3990 O   0  0  0  0  0  0  0  0  0  0  0  0
   -6.1450   18.9950  -35.3470 O   0  0  0  0  0  0  0  0  0  0  0  0
   -4.9270   19.2710  -32.9850 C   0  0  0  0  0  0  0  0  0  0  0  0
   -5.3460   19.5700  -31.6880 C   0  0  0  0  0  0  0  0  0  0  0  0
   -4.5610   20.3660  -30.8570 C   0  0  0  0  0  0  0  0  0  0  0  0
   -3.3450   20.9130  -31.3190 C   0  0  0  0  0  0  0  0  0  0  0  0
   -2.9070   20.6000  -32.6320 C   0  0  0  0  0  0  0  0  0  0  0  0
   -3.7010   19.7650  -33.4450 C   0  0  0  0  0  0  0  0  0  0  0  0
   -1.5810   21.1050  -33.0980 C   0  0  0  0  0  0  0  0  0  0  0  0
   -1.2730   21.1790  -34.3600 N   0  0  0  0  0  0  0  0  0  0  0  0
   -0.6330   21.5460  -32.1190 N   0  0  0  0  0  0  0  0  0  0  0  0
   -1.0450   21.8210  -30.7800 C   0  0  0  0  0  0  0  0  0  0  0  0
   -0.1770   22.0680  -29.9020 O   0  0  0  0  0  0  0  0  0  0  0  0
   -2.4900   21.7740  -30.4430 C   0  0  0  0  0  0  0  0  0  0  0  0
   -3.0220   22.5030  -29.4340 C   0  0  0  0  0  0  0  0  0  0  0  0
   -2.2860   23.5020  -28.6290 C   0  0  0  0  0  0  0  0  0  0  0  0
   -1.4620   23.0980  -27.5630 C   0  0  0  0  0  0  0  0  0  0  0  0
   -0.7300   24.0430  -26.8400 C   0  0  0  0  0  0  0  0  0  0  0  0
   -0.7980   25.3950  -27.1850 C   0  0  0  0  0  0  0  0  0  0  0  0
   -1.5920   25.8030  -28.2600 C   0  0  0  0  0  0  0  0  0  0  0  0
   -2.3270   24.8620  -28.9880 C   0  0  0  0  0  0  0  0  0  0  0  0
   -3.1050   25.2860  -30.0620 O   0  0  0  0  0  0  0  0  0  0  0  0
   -4.0790   16.8330  -35.3120 C   0  0  0  0  0  0  0  0  0  0  0  0
   -2.7030   16.8010  -34.6310 C   0  0  0  0  0  0  0  0  0  0  0  0
   -1.9741   15.5936  -31.7403 H   0  0  0  0  0  0  0  0  0  0  0  0
   -0.6831   14.9354  -32.8018 H   0  0  0  0  0  0  0  0  0  0  0  0
   -1.0347   16.6969  -32.8018 H   0  0  0  0  0  0  0  0  0  0  0  0
   -2.1132   14.7324  -34.5360 H   0  0  0  0  0  0  0  0  0  0  0  0
   -4.2495   14.2045  -33.9957 H   0  0  0  0  0  0  0  0  0  0  0  0
   -3.6408   14.4575  -32.3106 H   0  0  0  0  0  0  0  0  0  0  0  0
   -5.7748   15.6295  -32.6348 H   0  0  0  0  0  0  0  0  0  0  0  0
   -4.4163   16.8046  -32.3992 H   0  0  0  0  0  0  0  0  0  0  0  0
   -6.3036   19.1741  -31.3189 H   0  0  0  0  0  0  0  0  0  0  0  0
   -4.8929   20.5706  -29.8284 H   0  0  0  0  0  0  0  0  0  0  0  0
   -3.3523   19.4985  -34.4537 H   0  0  0  0  0  0  0  0  0  0  0  0
   -0.3380   21.5390  -34.6550 H   0  0  0  0  0  0  0  0  0  0  0  0
   -1.9450   20.9410  -35.1210 H   0  0  0  0  0  0  0  0  0  0  0  0
    0.3640   21.7110  -32.3890 H   0  0  0  0  0  0  0  0  0  0  0  0
   -4.0831   22.3399  -29.1944 H   0  0  0  0  0  0  0  0  0  0  0  0
   -1.3937   22.0327  -27.2974 H   0  0  0  0  0  0  0  0  0  0  0  0
   -0.0992   23.7221  -25.9979 H   0  0  0  0  0  0  0  0  0  0  0  0
   -0.2264   26.1386  -26.6103 H   0  0  0  0  0  0  0  0  0  0  0  0
   -1.6390   26.8672  -28.5344 H   0  0  0  0  0  0  0  0  0  0  0  0
   -4.1403   15.9927  -36.0192 H   0  0  0  0  0  0  0  0  0  0  0  0
   -4.1732   17.8037  -35.8208 H   0  0  0  0  0  0  0  0  0  0  0  0
   -1.9201   16.8789  -35.3997 H   0  0  0  0  0  0  0  0  0  0  0  0
   -2.6417   17.6454  -33.9287 H   0  0  0  0  0  0  0  0  0  0  0  0
  1  2  1  0
  2  3  1  0
  3  4  1  0
  4  5  1  0
  5  6  1  0
  6  7  2  0
  6  8  2  0
  6  9  1  0
  9 10  2  0
 10 11  1  0
 11 12  2  0
 12 13  1  0
 13 14  2  0
 13 15  1  0
 15 16  2  0
 15 17  1  0
 17 18  1  0
 18 19  2  0
 18 20  1  0
 20 21  2  3
 21 22  1  0
 22 23  2  0
 23 24  1  0
 24 25  2  0
 25 26  1  0
 26 27  2  0
 27 28  1  0
  5 29  1  0
 29 30  1  0
 30  2  1  0
 14  9  1  0
 27 22  1  0
 20 12  1  0
  1 31  1  0
  1 32  1  0
  1 33  1  0
  2 34  1  0
  3 35  1  0
  3 36  1  0
  4 37  1  0
  4 38  1  0
 10 39  1  0
 11 40  1  0
 14 41  1  0
 16 42  1  0
 16 43  1  0
 17 44  1  0
 21 45  1  0
 23 46  1  0
 24 47  1  0
 25 48  1  0
 26 49  1  0
 29 50  1  0
 29 51  1  0
 30 52  1  0
 30 53  1  0
M  CHG  2  16   1  28  -1
M  END
>  <UniqueID>  (20) 
20

>  <SMILES>  (20) 
CC1CCN(S(=O)(=O)c2ccc3c(c2)C(=[NH2+])NC(=O)C3=Cc2ccccc2[O-])CC1

>  <Energy>  (20) 
77.28799959588902

>  <Genealogy>  (20) 
CC1CCN(S(=O)(=O)c2ccc3c(c2)C(=[NH2+])NC(=O)C3=Cc2ccccc2[O-])CC1 (protonated)
CC1CCN(S(=O)(=O)c2ccc3c(c2)C(=[NH2+])NC(=O)C3=Cc2ccccc2[O-])CC1 (3D coordinates assigned)
CC1CCN(S(=O)(=O)c2ccc3c(c2)C(=[NH2+])NC(=O)C3=Cc2ccccc2[O-])CC1 (nonaromatic ring conformer: 77.28799959588902 kcal/mol)

>  <smiles>  (20) 
CC1CCN(S(=O)(=O)c2ccc3c(c2)C(=N)NC(=O)C3=Cc2ccccc2O)CC1

>  <score_type>  (20) 
oracle

>  <origin>  (20) 
adgpu

>  <m_score__min__energy>  (20) 
-12.32

>  <m_primary>  (20) 
energy

$$$$
20:0
     RDKit          3D

 46 48  0  0  0  0  0  0  0  0999 V2000
   -7.6160   18.0120  -33.0620 C   0  0  0  0  0  0  0  0  0  0  0  0
   -8.0030   19.3610  -32.5150 C   0  0  0  0  0  0  0  0  0  0  0  0
   -9.3530   19.7460  -32.5460 C   0  0  0  0  0  0  0  0  0  0  0  0
   -9.7420   21.0020  -32.0860 C   0  0  0  0  0  0  0  0  0  0  0  0
   -8.7950   21.8830  -31.5700 C   0  0  0  0  0  0  0  0  0  0  0  0
   -7.4440   21.5130  -31.4890 C   0  0  0  0  0  0  0  0  0  0  0  0
   -6.4950   22.4600  -30.8660 C   0  0  0  0  0  0  0  0  0  0  0  0
   -6.8490   23.6580  -30.6970 O   0  0  0  0  0  0  0  0  0  0  0  0
   -5.1900   22.0190  -30.4490 N   0  0  0  0  0  0  0  0  0  0  0  0
   -4.2120   22.8710  -29.8300 C   0  0  0  0  0  0  0  0  0  0  0  0
   -2.8960   22.8680  -30.3120 C   0  0  0  0  0  0  0  0  0  0  0  0
   -1.9190   23.6690  -29.7130 C   0  0  0  0  0  0  0  0  0  0  0  0
   -2.2450   24.4740  -28.6160 C   0  0  0  0  0  0  0  0  0  0  0  0
   -1.0040   25.4600  -27.8470 S   0  0  0  0  0  0  0  0  0  0  0  0
   -0.9020   26.7870  -28.5500 O   0  0  0  0  0  0  0  0  0  0  0  0
    0.3210   24.7580  -27.9580 O   0  0  0  0  0  0  0  0  0  0  0  0
   -1.4050   25.6840  -26.1640 N   0  0  0  0  0  0  0  0  0  0  0  0
   -0.5590   24.8600  -25.3020 C   0  0  0  0  0  0  0  0  0  0  0  0
   -0.4790   25.5750  -23.9620 C   0  0  0  0  0  0  0  0  0  0  0  0
   -0.8790   27.0140  -24.2480 C   0  0  0  0  0  0  0  0  0  0  0  0
   -1.1660   27.0630  -25.7400 C   0  0  0  0  0  0  0  0  0  0  0  0
   -3.5510   24.4560  -28.1080 C   0  0  0  0  0  0  0  0  0  0  0  0
   -4.5280   23.6560  -28.7070 C   0  0  0  0  0  0  0  0  0  0  0  0
   -7.0330   20.2460  -31.9770 C   0  0  0  0  0  0  0  0  0  0  0  0
   -5.6420   19.8830  -31.9870 N   0  0  0  0  0  0  0  0  0  0  0  0
   -5.2280   18.9560  -31.2610 O   0  0  0  0  0  0  0  0  0  0  0  0
   -4.7570   20.5390  -32.8100 O   0  0  0  0  0  0  0  0  0  0  0  0
   -7.4179   17.3216  -32.2289 H   0  0  0  0  0  0  0  0  0  0  0  0
   -8.4370   17.6170  -33.6783 H   0  0  0  0  0  0  0  0  0  0  0  0
   -6.7104   18.1123  -33.6783 H   0  0  0  0  0  0  0  0  0  0  0  0
  -10.1098   19.0499  -32.9368 H   0  0  0  0  0  0  0  0  0  0  0  0
  -10.8003   21.2988  -32.1305 H   0  0  0  0  0  0  0  0  0  0  0  0
   -9.1091   22.8783  -31.2226 H   0  0  0  0  0  0  0  0  0  0  0  0
   -4.9020   21.0400  -30.6740 H   0  0  0  0  0  0  0  0  0  0  0  0
   -2.6297   22.2306  -31.1681 H   0  0  0  0  0  0  0  0  0  0  0  0
   -0.8913   23.6663  -30.1052 H   0  0  0  0  0  0  0  0  0  0  0  0
   -1.0046   23.8625  -25.1741 H   0  0  0  0  0  0  0  0  0  0  0  0
    0.4409   24.7238  -25.7398 H   0  0  0  0  0  0  0  0  0  0  0  0
   -1.1726   25.1189  -23.2403 H   0  0  0  0  0  0  0  0  0  0  0  0
    0.5274   25.5096  -23.5227 H   0  0  0  0  0  0  0  0  0  0  0  0
   -1.7773   27.2853  -23.6740 H   0  0  0  0  0  0  0  0  0  0  0  0
   -0.0897   27.7236  -23.9592 H   0  0  0  0  0  0  0  0  0  0  0  0
   -2.0555   27.6799  -25.9355 H   0  0  0  0  0  0  0  0  0  0  0  0
   -0.3249   27.5080  -26.2918 H   0  0  0  0  0  0  0  0  0  0  0  0
   -3.8080   25.0736  -27.2348 H   0  0  0  0  0  0  0  0  0  0  0  0
   -5.5490   23.6404  -28.2980 H   0  0  0  0  0  0  0  0  0  0  0  0
  1  2  1  0
  2  3  2  0
  3  4  1  0
  4  5  2  0
  5  6  1  0
  6  7  1  0
  7  8  2  0
  7  9  1  0
  9 10  1  0
 10 11  2  0
 11 12  1  0
 12 13  2  0
 13 14  1  0
 14 15  2  0
 14 16  2  0
 14 17  1  0
 17 18  1  0
 18 19  1  0
 19 20  1  0
 20 21  1  0
 13 22  1  0
 22 23  2  0
  6 24  2  0
 24 25  1  0
 25 26  2  0
 25 27  1  0
 24  2  1  0
 23 10  1  0
 21 17  1  0
  1 28  1  0
  1 29  1  0
  1 30  1  0
  3 31  1  0
  4 32  1  0
  5 33  1  0
  9 34  1  0
 11 35  1  0
 12 36  1  0
 18 37  1  0
 18 38  1  0
 19 39  1  0
 19 40  1  0
 20 41  1  0
 20 42  1  0
 21 43  1  0
 21 44  1  0
 22 45  1  0
 23 46  1  0
M  CHG  2  25   1  27  -1
M  END
>  <UniqueID>  (21) 
21

>  <SMILES>  (21) 
Cc1cccc(C(=O)Nc2ccc(S(=O)(=O)N3CCCC3)cc2)c1[N+](=O)[O-]

>  <Energy>  (21) 
63.14814326359061

>  <Genealogy>  (21) 
Cc1cccc(C(=O)Nc2ccc(S(=O)(=O)N3CCCC3)cc2)c1[N+](=O)[O-] (3D coordinates assigned)
Cc1cccc(C(=O)Nc2ccc(S(=O)(=O)N3CCCC3)cc2)c1[N+](=O)[O-] (nonaromatic ring conformer: 63.14814326359061 kcal/mol)

>  <smiles>  (21) 
Cc1cccc(C(=O)Nc2ccc(S(=O)(=O)N3CCCC3)cc2)c1[N+](=O)[O-]

>  <score_type>  (21) 
oracle

>  <origin>  (21) 
adgpu

>  <m_score__min__energy>  (21) 
-9.1300000000000008

>  <m_primary>  (21) 
energy

$$$$
21:0
     RDKit          3D

 55 58  0  0  0  0  0  0  0  0999 V2000
   -5.4850   24.9370  -28.7370 O   0  0  0  0  0  0  0  0  0  0  0  0
   -5.1950   24.9500  -30.2110 S   0  0  0  0  0  0  0  0  0  0  0  0
   -5.5850   26.2940  -30.7590 O   0  0  0  0  0  0  0  0  0  0  0  0
   -3.4980   24.6740  -30.4580 N   0  0  0  0  0  0  0  0  0  0  0  0
   -3.0290   23.6120  -29.5720 C   0  0  0  0  0  0  0  0  0  0  0  0
   -2.2470   22.6160  -30.3710 C   0  0  0  0  0  0  0  0  0  0  0  0
   -2.4960   22.3050  -31.6940 C   0  0  0  0  0  0  0  0  0  0  0  0
   -1.6270   21.2850  -32.0260 C   0  0  0  0  0  0  0  0  0  0  0  0
   -0.8910   21.0040  -30.8930 C   0  0  0  0  0  0  0  0  0  0  0  0
   -1.2730   21.8130  -29.8830 N   0  0  0  0  0  0  0  0  0  0  0  0
   -0.7340   21.7800  -28.5210 C   0  0  0  0  0  0  0  0  0  0  0  0
   -1.1870   20.5390  -27.7970 C   0  0  0  0  0  0  0  0  0  0  0  0
   -0.3750   19.3920  -27.7830 C   0  0  0  0  0  0  0  0  0  0  0  0
   -0.8040   18.2340  -27.1290 C   0  0  0  0  0  0  0  0  0  0  0  0
   -2.0400   18.2130  -26.4790 C   0  0  0  0  0  0  0  0  0  0  0  0
   -2.8480   19.3520  -26.4770 C   0  0  0  0  0  0  0  0  0  0  0  0
   -2.4230   20.5140  -27.1280 C   0  0  0  0  0  0  0  0  0  0  0  0
   -6.1330   23.6860  -31.0010 C   0  0  0  0  0  0  0  0  0  0  0  0
   -7.5320   23.7720  -31.0510 C   0  0  0  0  0  0  0  0  0  0  0  0
   -8.2780   22.7450  -31.6340 C   0  0  0  0  0  0  0  0  0  0  0  0
   -7.6330   21.6210  -32.1600 C   0  0  0  0  0  0  0  0  0  0  0  0
   -6.2370   21.5260  -32.1140 C   0  0  0  0  0  0  0  0  0  0  0  0
   -5.4350   20.0800  -32.7230 S   0  0  0  0  0  0  0  0  0  0  0  0
   -4.2310   20.5010  -33.5190 O   0  0  0  0  0  0  0  0  0  0  0  0
   -4.9730   19.2270  -31.5730 O   0  0  0  0  0  0  0  0  0  0  0  0
   -6.5330   19.1800  -33.7480 N   0  0  0  0  0  0  0  0  0  0  0  0
   -7.2530   18.1640  -32.9720 C   0  0  0  0  0  0  0  0  0  0  0  0
   -6.4700   16.8630  -33.0550 C   0  0  0  0  0  0  0  0  0  0  0  0
   -5.5310   17.0300  -34.2340 C   0  0  0  0  0  0  0  0  0  0  0  0
   -5.7860   18.4340  -34.7660 C   0  0  0  0  0  0  0  0  0  0  0  0
   -5.4890   22.5630  -31.5370 C   0  0  0  0  0  0  0  0  0  0  0  0
   -2.3866   24.0422  -28.7895 H   0  0  0  0  0  0  0  0  0  0  0  0
   -3.8902   23.1150  -29.1015 H   0  0  0  0  0  0  0  0  0  0  0  0
   -3.2398   22.7770  -32.3527 H   0  0  0  0  0  0  0  0  0  0  0  0
   -1.5383   20.7914  -33.0050 H   0  0  0  0  0  0  0  0  0  0  0  0
   -0.1084   20.2341  -30.8235 H   0  0  0  0  0  0  0  0  0  0  0  0
    0.3650   21.7896  -28.5676 H   0  0  0  0  0  0  0  0  0  0  0  0
   -1.1014   22.6612  -27.9747 H   0  0  0  0  0  0  0  0  0  0  0  0
    0.6018   19.4059  -28.2887 H   0  0  0  0  0  0  0  0  0  0  0  0
   -0.1670   17.3372  -27.1261 H   0  0  0  0  0  0  0  0  0  0  0  0
   -2.3772   17.2989  -25.9684 H   0  0  0  0  0  0  0  0  0  0  0  0
   -3.8201   19.3349  -25.9625 H   0  0  0  0  0  0  0  0  0  0  0  0
   -3.0582   21.4120  -27.1166 H   0  0  0  0  0  0  0  0  0  0  0  0
   -8.0430   24.6504  -30.6300 H   0  0  0  0  0  0  0  0  0  0  0  0
   -9.3745   22.8204  -31.6795 H   0  0  0  0  0  0  0  0  0  0  0  0
   -8.2238   20.8100  -32.6108 H   0  0  0  0  0  0  0  0  0  0  0  0
   -7.3337   18.4842  -31.9227 H   0  0  0  0  0  0  0  0  0  0  0  0
   -8.2670   18.0247  -33.3749 H   0  0  0  0  0  0  0  0  0  0  0  0
   -5.8992   16.6981  -32.1293 H   0  0  0  0  0  0  0  0  0  0  0  0
   -7.1334   15.9947  -33.1813 H   0  0  0  0  0  0  0  0  0  0  0  0
   -4.4851   16.9266  -33.9093 H   0  0  0  0  0  0  0  0  0  0  0  0
   -5.7060   16.2650  -35.0048 H   0  0  0  0  0  0  0  0  0  0  0  0
   -4.8281   18.9358  -34.9675 H   0  0  0  0  0  0  0  0  0  0  0  0
   -6.3616   18.3873  -35.7022 H   0  0  0  0  0  0  0  0  0  0  0  0
   -4.3916   22.4942  -31.5052 H   0  0  0  0  0  0  0  0  0  0  0  0
  1  2  2  0
  2  3  2  0
  2  4  1  0
  4  5  1  0
  5  6  1  0
  6  7  2  0
  7  8  1  0
  8  9  2  0
  9 10  1  0
 10 11  1  0
 11 12  1  0
 12 13  2  0
 13 14  1  0
 14 15  2  0
 15 16  1  0
 16 17  2  0
  2 18  1  0
 18 19  2  0
 19 20  1  0
 20 21  2  0
 21 22  1  0
 22 23  1  0
 23 24  2  0
 23 25  2  0
 23 26  1  0
 26 27  1  0
 27 28  1  0
 28 29  1  0
 29 30  1  0
 22 31  2  0
 10  6  1  0
 17 12  1  0
 31 18  1  0
 30 26  1  0
  5 32  1  0
  5 33  1  0
  7 34  1  0
  8 35  1  0
  9 36  1  0
 11 37  1  0
 11 38  1  0
 13 39  1  0
 14 40  1  0
 15 41  1  0
 16 42  1  0
 17 43  1  0
 19 44  1  0
 20 45  1  0
 21 46  1  0
 27 47  1  0
 27 48  1  0
 28 49  1  0
 28 50  1  0
 29 51  1  0
 29 52  1  0
 30 53  1  0
 30 54  1  0
 31 55  1  0
M  CHG  1   4  -1
M  END
>  <UniqueID>  (22) 
22

>  <SMILES>  (22) 
O=S(=O)([N-]Cc1cccn1Cc1ccccc1)c1cccc(S(=O)(=O)N2CCCC2)c1

>  <Energy>  (22) 
77.96897915825434

>  <Genealogy>  (22) 
O=S(=O)([N-]Cc1cccn1Cc1ccccc1)c1cccc(S(=O)(=O)N2CCCC2)c1 (protonated)
O=S(=O)([N-]Cc1cccn1Cc1ccccc1)c1cccc(S(=O)(=O)N2CCCC2)c1 (3D coordinates assigned)
O=S(=O)([N-]Cc1cccn1Cc1ccccc1)c1cccc(S(=O)(=O)N2CCCC2)c1 (nonaromatic ring conformer: 77.96897915825434 kcal/mol)

>  <smiles>  (22) 
O=S(=O)(NCc1cccn1Cc1ccccc1)c1cccc(S(=O)(=O)N2CCCC2)c1

>  <score_type>  (22) 
oracle

>  <origin>  (22) 
adgpu

>  <m_score__min__energy>  (22) 
-11.800000000000001

>  <m_primary>  (22) 
energy

$$$$
22:0
     RDKit          3D

 55 58  0  0  0  0  0  0  0  0999 V2000
    0.2200   18.1370  -28.2730 C   0  0  0  0  0  0  0  0  0  0  0  0
   -0.8240   19.1710  -28.2410 N   0  0  0  0  0  0  0  0  0  0  0  0
   -1.6400   19.0320  -27.0200 C   0  0  0  0  0  0  0  0  0  0  0  0
   -2.8600   19.9540  -27.0970 C   0  0  0  0  0  0  0  0  0  0  0  0
   -2.5230   21.3200  -27.6370 C   0  0  0  0  0  0  0  0  0  0  0  0
   -3.5090   22.3130  -27.6370 C   0  0  0  0  0  0  0  0  0  0  0  0
   -3.2820   23.5520  -28.2600 C   0  0  0  0  0  0  0  0  0  0  0  0
   -4.3370   24.5050  -28.4260 N   0  0  0  0  0  0  0  0  0  0  0  0
   -5.0620   24.9290  -29.9420 S   0  0  0  0  0  0  0  0  0  0  0  0
   -6.0820   26.0110  -29.7190 O   0  0  0  0  0  0  0  0  0  0  0  0
   -3.9970   25.4410  -30.8670 O   0  0  0  0  0  0  0  0  0  0  0  0
   -5.8070   23.5080  -30.6780 C   0  0  0  0  0  0  0  0  0  0  0  0
   -7.1990   23.4300  -30.8350 C   0  0  0  0  0  0  0  0  0  0  0  0
   -7.7870   22.2580  -31.3140 C   0  0  0  0  0  0  0  0  0  0  0  0
   -6.9910   21.1580  -31.6640 C   0  0  0  0  0  0  0  0  0  0  0  0
   -7.7400   19.6820  -32.2850 S   0  0  0  0  0  0  0  0  0  0  0  0
   -8.6180   20.0310  -33.4540 O   0  0  0  0  0  0  0  0  0  0  0  0
   -8.6070   19.0750  -31.2150 O   0  0  0  0  0  0  0  0  0  0  0  0
   -6.5380   18.5120  -32.7800 N   0  0  0  0  0  0  0  0  0  0  0  0
   -7.1860   17.2270  -33.0900 C   0  0  0  0  0  0  0  0  0  0  0  0
   -6.1720   16.2400  -33.7080 C   0  0  0  0  0  0  0  0  0  0  0  0
   -5.3030   16.7860  -34.6940 O   0  0  0  0  0  0  0  0  0  0  0  0
   -5.6640   18.0890  -35.0940 C   0  0  0  0  0  0  0  0  0  0  0  0
   -5.7010   19.0320  -33.8870 C   0  0  0  0  0  0  0  0  0  0  0  0
   -5.5980   21.2400  -31.5130 C   0  0  0  0  0  0  0  0  0  0  0  0
   -5.0100   22.4090  -31.0230 C   0  0  0  0  0  0  0  0  0  0  0  0
   -2.0040   23.8380  -28.7760 C   0  0  0  0  0  0  0  0  0  0  0  0
   -1.7090   25.0840  -29.3290 O   0  0  0  0  0  0  0  0  0  0  0  0
   -1.0090   22.8550  -28.7570 C   0  0  0  0  0  0  0  0  0  0  0  0
   -1.2770   21.5790  -28.2410 C   0  0  0  0  0  0  0  0  0  0  0  0
   -0.2130   20.5140  -28.2740 C   0  0  0  0  0  0  0  0  0  0  0  0
    0.4965   17.8632  -27.2441 H   0  0  0  0  0  0  0  0  0  0  0  0
   -0.1596   17.2488  -28.7994 H   0  0  0  0  0  0  0  0  0  0  0  0
    1.1045   18.5251  -28.7994 H   0  0  0  0  0  0  0  0  0  0  0  0
   -1.9770   17.9893  -26.9240 H   0  0  0  0  0  0  0  0  0  0  0  0
   -1.0323   19.3099  -26.1463 H   0  0  0  0  0  0  0  0  0  0  0  0
   -3.6103   19.4908  -27.7546 H   0  0  0  0  0  0  0  0  0  0  0  0
   -3.2421   20.0859  -26.0740 H   0  0  0  0  0  0  0  0  0  0  0  0
   -4.4732   22.1214  -27.1435 H   0  0  0  0  0  0  0  0  0  0  0  0
   -7.8289   24.2949  -30.5799 H   0  0  0  0  0  0  0  0  0  0  0  0
   -8.8804   22.1971  -31.4174 H   0  0  0  0  0  0  0  0  0  0  0  0
   -7.5923   16.7946  -32.1637 H   0  0  0  0  0  0  0  0  0  0  0  0
   -7.9942   17.4041  -33.8148 H   0  0  0  0  0  0  0  0  0  0  0  0
   -5.5503   15.8398  -32.8936 H   0  0  0  0  0  0  0  0  0  0  0  0
   -6.7725   15.4777  -34.2260 H   0  0  0  0  0  0  0  0  0  0  0  0
   -4.9274   18.4612  -35.8213 H   0  0  0  0  0  0  0  0  0  0  0  0
   -6.6647   18.0560  -35.5495 H   0  0  0  0  0  0  0  0  0  0  0  0
   -4.6744   19.1702  -33.5169 H   0  0  0  0  0  0  0  0  0  0  0  0
   -6.1445   19.9816  -34.2209 H   0  0  0  0  0  0  0  0  0  0  0  0
   -4.9665   20.3803  -31.7816 H   0  0  0  0  0  0  0  0  0  0  0  0
   -3.9176   22.4664  -30.9078 H   0  0  0  0  0  0  0  0  0  0  0  0
   -2.4170   25.6710  -29.7480 H   0  0  0  0  0  0  0  0  0  0  0  0
   -0.0077   23.0849  -29.1502 H   0  0  0  0  0  0  0  0  0  0  0  0
    0.3772   20.6205  -29.1961 H   0  0  0  0  0  0  0  0  0  0  0  0
    0.4351   20.6315  -27.3930 H   0  0  0  0  0  0  0  0  0  0  0  0
  1  2  1  0
  2  3  1  0
  3  4  1  0
  4  5  1  0
  5  6  2  0
  6  7  1  0
  7  8  1  0
  8  9  1  0
  9 10  2  0
  9 11  2  0
  9 12  1  0
 12 13  2  0
 13 14  1  0
 14 15  2  0
 15 16  1  0
 16 17  2  0
 16 18  2  0
 16 19  1  0
 19 20  1  0
 20 21  1  0
 21 22  1  0
 22 23  1  0
 23 24  1  0
 15 25  1  0
 25 26  2  0
  7 27  2  0
 27 28  1  0
 27 29  1  0
 29 30  2  0
 30 31  1  0
 31  2  1  0
 30  5  1  0
 26 12  1  0
 24 19  1  0
  1 32  1  0
  1 33  1  0
  1 34  1  0
  3 35  1  0
  3 36  1  0
  4 37  1  0
  4 38  1  0
  6 39  1  0
 13 40  1  0
 14 41  1  0
 20 42  1  0
 20 43  1  0
 21 44  1  0
 21 45  1  0
 23 46  1  0
 23 47  1  0
 24 48  1  0
 24 49  1  0
 25 50  1  0
 26 51  1  0
 28 52  1  0
 29 53  1  0
 31 54  1  0
 31 55  1  0
M  CHG  1   8  -1
M  END
>  <UniqueID>  (23) 
23

>  <SMILES>  (23) 
CN1CCc2cc([N-]S(=O)(=O)c3ccc(S(=O)(=O)N4CCOCC4)cc3)c(O)cc2C1

>  <Energy>  (23) 
76.08028044941167

>  <Genealogy>  (23) 
CN1CCc2cc([N-]S(=O)(=O)c3ccc(S(=O)(=O)N4CCOCC4)cc3)c(O)cc2C1 (protonated)
CN1CCc2cc([N-]S(=O)(=O)c3ccc(S(=O)(=O)N4CCOCC4)cc3)c(O)cc2C1 (3D coordinates assigned)
CN1CCc2cc([N-]S(=O)(=O)c3ccc(S(=O)(=O)N4CCOCC4)cc3)c(O)cc2C1 (nonaromatic ring conformer: 76.08028044941167 kcal/mol)

>  <smiles>  (23) 
CN1CCc2cc(NS(=O)(=O)c3ccc(S(=O)(=O)N4CCOCC4)cc3)c(O)cc2C1

>  <score_type>  (23) 
oracle

>  <origin>  (23) 
adgpu

>  <m_score__min__energy>  (23) 
-12.67

>  <m_primary>  (23) 
energy

$$$$
23:0
     RDKit          3D

 50 52  0  0  0  0  0  0  0  0999 V2000
   -6.4670   12.6310  -35.0060 C   0  0  0  0  0  0  0  0  0  0  0  0
   -5.3050   13.4370  -35.1660 O   0  0  0  0  0  0  0  0  0  0  0  0
   -5.1400   14.7120  -34.6030 C   0  0  0  0  0  0  0  0  0  0  0  0
   -3.8600   15.2710  -34.5930 C   0  0  0  0  0  0  0  0  0  0  0  0
   -3.6250   16.5470  -34.0430 C   0  0  0  0  0  0  0  0  0  0  0  0
   -2.3350   17.1070  -34.0340 O   0  0  0  0  0  0  0  0  0  0  0  0
   -1.3150   16.7880  -33.0930 C   0  0  0  0  0  0  0  0  0  0  0  0
   -4.7110   17.2730  -33.4910 C   0  0  0  0  0  0  0  0  0  0  0  0
   -4.5750   18.5610  -32.9250 C   0  0  0  0  0  0  0  0  0  0  0  0
   -3.4450   19.1240  -32.8960 O   0  0  0  0  0  0  0  0  0  0  0  0
   -5.6680   19.2100  -32.4080 N   0  0  0  0  0  0  0  0  0  0  0  0
   -5.4930   20.5290  -31.8600 C   0  0  0  0  0  0  0  0  0  0  0  0
   -6.2590   21.6000  -32.3430 C   0  0  0  0  0  0  0  0  0  0  0  0
   -6.0840   22.8820  -31.8160 C   0  0  0  0  0  0  0  0  0  0  0  0
   -5.1480   23.1030  -30.7960 C   0  0  0  0  0  0  0  0  0  0  0  0
   -4.9110   24.7230  -30.1490 S   0  0  0  0  0  0  0  0  0  0  0  0
   -6.4870   25.4250  -29.7240 C   0  0  0  0  0  0  0  0  0  0  0  0
   -4.0410   24.6600  -28.9250 O   0  0  0  0  0  0  0  0  0  0  0  0
   -4.2360   25.5880  -31.1760 O   0  0  0  0  0  0  0  0  0  0  0  0
   -4.3810   22.0330  -30.3150 C   0  0  0  0  0  0  0  0  0  0  0  0
   -4.5570   20.7500  -30.8420 C   0  0  0  0  0  0  0  0  0  0  0  0
   -6.9050   18.6090  -32.4190 C   0  0  0  0  0  0  0  0  0  0  0  0
   -8.1540   19.3010  -31.8920 C   0  0  0  0  0  0  0  0  0  0  0  0
   -8.8570   20.0480  -33.0290 C   0  0  0  0  0  0  0  0  0  0  0  0
   -9.1070   18.2950  -31.2350 C   0  0  0  0  0  0  0  0  0  0  0  0
   -7.0460   17.3800  -32.9780 N   0  0  0  0  0  0  0  0  0  0  0  0
   -5.9980   16.7020  -33.5030 C   0  0  0  0  0  0  0  0  0  0  0  0
   -6.2110   15.4360  -34.0540 C   0  0  0  0  0  0  0  0  0  0  0  0
   -6.6706   12.4898  -33.9343 H   0  0  0  0  0  0  0  0  0  0  0  0
   -7.3262   13.1281  -35.4800 H   0  0  0  0  0  0  0  0  0  0  0  0
   -6.3024   11.6521  -35.4800 H   0  0  0  0  0  0  0  0  0  0  0  0
   -3.0202   14.7049  -35.0222 H   0  0  0  0  0  0  0  0  0  0  0  0
   -1.7065   16.9104  -32.0723 H   0  0  0  0  0  0  0  0  0  0  0  0
   -0.9934   15.7464  -33.2399 H   0  0  0  0  0  0  0  0  0  0  0  0
   -0.4572   17.4608  -33.2399 H   0  0  0  0  0  0  0  0  0  0  0  0
   -6.9993   21.4302  -33.1387 H   0  0  0  0  0  0  0  0  0  0  0  0
   -6.6823   23.7203  -32.2025 H   0  0  0  0  0  0  0  0  0  0  0  0
   -6.5856   25.4689  -28.6293 H   0  0  0  0  0  0  0  0  0  0  0  0
   -6.5601   26.4408  -30.1398 H   0  0  0  0  0  0  0  0  0  0  0  0
   -7.2910   24.7999  -30.1398 H   0  0  0  0  0  0  0  0  0  0  0  0
   -3.6389   22.2031  -29.5211 H   0  0  0  0  0  0  0  0  0  0  0  0
   -3.9585   19.9117  -30.4559 H   0  0  0  0  0  0  0  0  0  0  0  0
   -7.8512   20.0266  -31.1227 H   0  0  0  0  0  0  0  0  0  0  0  0
   -9.5531   20.7876  -32.6065 H   0  0  0  0  0  0  0  0  0  0  0  0
   -8.1074   20.5620  -33.6486 H   0  0  0  0  0  0  0  0  0  0  0  0
   -9.4155   19.3310  -33.6486 H   0  0  0  0  0  0  0  0  0  0  0  0
   -9.0293   18.3770  -30.1408 H   0  0  0  0  0  0  0  0  0  0  0  0
  -10.1397   18.5109  -31.5465 H   0  0  0  0  0  0  0  0  0  0  0  0
   -8.8356   17.2755  -31.5465 H   0  0  0  0  0  0  0  0  0  0  0  0
   -7.2226   15.0040  -34.0579 H   0  0  0  0  0  0  0  0  0  0  0  0
  1  2  1  0
  2  3  1  0
  3  4  2  0
  4  5  1  0
  5  6  1  0
  6  7  1  0
  5  8  2  0
  8  9  1  0
  9 10  2  0
  9 11  1  0
 11 12  1  0
 12 13  2  0
 13 14  1  0
 14 15  2  0
 15 16  1  0
 16 17  1  0
 16 18  2  0
 16 19  2  0
 15 20  1  0
 20 21  2  0
 11 22  1  0
 22 23  1  0
 23 24  1  0
 23 25  1  0
 22 26  2  0
 26 27  1  0
 27 28  2  0
 28  3  1  0
 27  8  1  0
 21 12  1  0
  1 29  1  0
  1 30  1  0
  1 31  1  0
  4 32  1  0
  7 33  1  0
  7 34  1  0
  7 35  1  0
 13 36  1  0
 14 37  1  0
 17 38  1  0
 17 39  1  0
 17 40  1  0
 20 41  1  0
 21 42  1  0
 23 43  1  0
 24 44  1  0
 24 45  1  0
 24 46  1  0
 25 47  1  0
 25 48  1  0
 25 49  1  0
 28 50  1  0
M  END
>  <UniqueID>  (24) 
24

>  <SMILES>  (24) 
COc1cc(OC)c2c(=O)n(-c3ccc(S(C)(=O)=O)cc3)c(C(C)C)nc2c1

>  <Energy>  (24) 
60.817677258623405

>  <Genealogy>  (24) 
COc1cc(OC)c2c(=O)n(-c3ccc(S(C)(=O)=O)cc3)c(C(C)C)nc2c1 (3D coordinates assigned)
COc1cc(OC)c2c(=O)n(-c3ccc(S(C)(=O)=O)cc3)c(C(C)C)nc2c1 (optimized conformer: 60.817677258623405 kcal/mol)

>  <smiles>  (24) 
COc1cc(OC)c2c(=O)n(-c3ccc(S(C)(=O)=O)cc3)c(C(C)C)nc2c1

>  <score_type>  (24) 
oracle

>  <origin>  (24) 
adgpu

>  <m_score__min__energy>  (24) 
-8.0899999999999999

>  <m_primary>  (24) 
energy

$$$$
24:0
     RDKit          3D

 42 44  0  0  0  0  0  0  0  0999 V2000
   -6.7500   15.8260  -33.8730 C   0  0  0  0  0  0  0  0  0  0  0  0
   -6.5490   17.2540  -33.4610 C   0  0  0  0  0  0  0  0  0  0  0  0
   -6.0870   18.2000  -34.3880 C   0  0  0  0  0  0  0  0  0  0  0  0
   -5.8660   19.5230  -33.9940 C   0  0  0  0  0  0  0  0  0  0  0  0
   -6.0890   19.9130  -32.6660 C   0  0  0  0  0  0  0  0  0  0  0  0
   -5.8730   21.2760  -32.2660 N   0  0  0  0  0  0  0  0  0  0  0  0
   -6.7100   22.1070  -31.6100 C   0  0  0  0  0  0  0  0  0  0  0  0
   -8.0790   21.7510  -31.1230 C   0  0  0  0  0  0  0  0  0  0  0  0
   -6.1690   23.3320  -31.4620 N   0  0  0  0  0  0  0  0  0  0  0  0
   -4.9680   23.2960  -32.0210 N   0  0  0  0  0  0  0  0  0  0  0  0
   -4.7960   22.0510  -32.5030 C   0  0  0  0  0  0  0  0  0  0  0  0
   -3.3390   21.5450  -33.4270 S   0  0  0  0  0  0  0  0  0  0  0  0
   -2.5990   20.6000  -32.0510 C   0  0  0  0  0  0  0  0  0  0  0  0
   -1.8980   21.5140  -31.0940 C   0  0  0  0  0  0  0  0  0  0  0  0
   -0.6450   21.4400  -30.9730 O   0  0  0  0  0  0  0  0  0  0  0  0
   -2.6500   22.4650  -30.3240 N   0  0  0  0  0  0  0  0  0  0  0  0
   -2.0880   23.2430  -29.2560 C   0  0  0  0  0  0  0  0  0  0  0  0
   -1.2170   22.6240  -28.3460 C   0  0  0  0  0  0  0  0  0  0  0  0
   -0.6420   23.3570  -27.3060 C   0  0  0  0  0  0  0  0  0  0  0  0
   -0.9190   24.7200  -27.1730 C   0  0  0  0  0  0  0  0  0  0  0  0
   -1.7620   25.3530  -28.0900 C   0  0  0  0  0  0  0  0  0  0  0  0
   -2.3380   24.6270  -29.1370 C   0  0  0  0  0  0  0  0  0  0  0  0
   -3.1270   25.2910  -30.0690 O   0  0  0  0  0  0  0  0  0  0  0  0
   -6.5370   18.9640  -31.7350 C   0  0  0  0  0  0  0  0  0  0  0  0
   -6.7580   17.6410  -32.1280 C   0  0  0  0  0  0  0  0  0  0  0  0
   -6.8389   15.1948  -32.9765 H   0  0  0  0  0  0  0  0  0  0  0  0
   -7.6687   15.7431  -34.4723 H   0  0  0  0  0  0  0  0  0  0  0  0
   -5.8899   15.4928  -34.4723 H   0  0  0  0  0  0  0  0  0  0  0  0
   -5.8978   17.8996  -35.4292 H   0  0  0  0  0  0  0  0  0  0  0  0
   -5.5153   20.2617  -34.7297 H   0  0  0  0  0  0  0  0  0  0  0  0
   -8.0878   21.7487  -30.0230 H   0  0  0  0  0  0  0  0  0  0  0  0
   -8.8039   22.4905  -31.4939 H   0  0  0  0  0  0  0  0  0  0  0  0
   -8.3519   20.7520  -31.4939 H   0  0  0  0  0  0  0  0  0  0  0  0
   -3.3939   20.0592  -31.5165 H   0  0  0  0  0  0  0  0  0  0  0  0
   -1.8651   19.8923  -32.4641 H   0  0  0  0  0  0  0  0  0  0  0  0
   -3.6220   22.6900  -30.6340 H   0  0  0  0  0  0  0  0  0  0  0  0
   -0.9857   21.5539  -28.4529 H   0  0  0  0  0  0  0  0  0  0  0  0
    0.0300   22.8607  -26.5904 H   0  0  0  0  0  0  0  0  0  0  0  0
   -0.4738   25.2942  -26.3471 H   0  0  0  0  0  0  0  0  0  0  0  0
   -1.9735   26.4276  -27.9878 H   0  0  0  0  0  0  0  0  0  0  0  0
   -6.7151   19.2623  -30.6913 H   0  0  0  0  0  0  0  0  0  0  0  0
   -7.0972   16.8998  -31.3894 H   0  0  0  0  0  0  0  0  0  0  0  0
  1  2  1  0
  2  3  2  0
  3  4  1  0
  4  5  2  0
  5  6  1  0
  6  7  1  0
  7  8  1  0
  7  9  2  0
  9 10  1  0
 10 11  2  0
 11 12  1  0
 12 13  1  0
 13 14  1  0
 14 15  2  0
 14 16  1  0
 16 17  1  0
 17 18  2  0
 18 19  1  0
 19 20  2  0
 20 21  1  0
 21 22  2  0
 22 23  1  0
  5 24  1  0
 24 25  2  0
 25  2  1  0
 11  6  1  0
 22 17  1  0
  1 26  1  0
  1 27  1  0
  1 28  1  0
  3 29  1  0
  4 30  1  0
  8 31  1  0
  8 32  1  0
  8 33  1  0
 13 34  1  0
 13 35  1  0
 16 36  1  0
 18 37  1  0
 19 38  1  0
 20 39  1  0
 21 40  1  0
 24 41  1  0
 25 42  1  0
M  CHG  1  23  -1
M  END
>  <UniqueID>  (25) 
25

>  <SMILES>  (25) 
Cc1ccc(-n2c(C)nnc2SCC(=O)Nc2ccccc2[O-])cc1

>  <Energy>  (25) 
81.67919685010641

>  <Genealogy>  (25) 
Cc1ccc(-n2c(C)nnc2SCC(=O)Nc2ccccc2[O-])cc1 (protonated)
Cc1ccc(-n2c(C)nnc2SCC(=O)Nc2ccccc2[O-])cc1 (3D coordinates assigned)
Cc1ccc(-n2c(C)nnc2SCC(=O)Nc2ccccc2[O-])cc1 (optimized conformer: 81.67919685010641 kcal/mol)

>  <smiles>  (25) 
Cc1ccc(-n2c(C)nnc2SCC(=O)Nc2ccccc2O)cc1

>  <score_type>  (25) 
oracle

>  <origin>  (25) 
adgpu

>  <m_score__min__energy>  (25) 
-12.31

>  <m_primary>  (25) 
energy

$$$$
25:0
     RDKit          3D

 42 44  0  0  0  0  0  0  0  0999 V2000
   -9.4810   23.4580  -32.3390 C   0  0  0  0  0  0  0  0  0  0  0  0
   -8.5720   22.3330  -32.0540 N   0  0  0  0  0  0  0  0  0  0  0  0
   -9.3230   21.0580  -32.0500 C   0  0  0  0  0  0  0  0  0  0  0  0
   -8.5480   19.9600  -31.3070 C   0  0  0  0  0  0  0  0  0  0  0  0
   -7.5370   19.2920  -32.2040 C   0  0  0  0  0  0  0  0  0  0  0  0
   -7.0480   19.9550  -33.3420 C   0  0  0  0  0  0  0  0  0  0  0  0
   -6.1420   19.3180  -34.1950 C   0  0  0  0  0  0  0  0  0  0  0  0
   -5.7200   18.0140  -33.9200 C   0  0  0  0  0  0  0  0  0  0  0  0
   -6.2040   17.3460  -32.7920 C   0  0  0  0  0  0  0  0  0  0  0  0
   -7.1120   17.9800  -31.9370 C   0  0  0  0  0  0  0  0  0  0  0  0
   -7.8670   22.5500  -30.7730 C   0  0  0  0  0  0  0  0  0  0  0  0
   -6.4100   22.7790  -31.0240 C   0  0  0  0  0  0  0  0  0  0  0  0
   -5.7300   23.9660  -30.8700 C   0  0  0  0  0  0  0  0  0  0  0  0
   -4.4880   23.7540  -31.2280 O   0  0  0  0  0  0  0  0  0  0  0  0
   -4.3960   22.4930  -31.5950 C   0  0  0  0  0  0  0  0  0  0  0  0
   -3.1490   21.8670  -32.0750 C   0  0  0  0  0  0  0  0  0  0  0  0
   -1.9800   21.9090  -31.2920 C   0  0  0  0  0  0  0  0  0  0  0  0
   -0.8020   21.3110  -31.7500 C   0  0  0  0  0  0  0  0  0  0  0  0
   -0.7800   20.6670  -32.9890 C   0  0  0  0  0  0  0  0  0  0  0  0
   -1.9350   20.6210  -33.7750 C   0  0  0  0  0  0  0  0  0  0  0  0
   -3.1160   21.2170  -33.3200 C   0  0  0  0  0  0  0  0  0  0  0  0
   -5.5710   21.8360  -31.4890 N   0  0  0  0  0  0  0  0  0  0  0  0
   -9.8331   23.8938  -31.3924 H   0  0  0  0  0  0  0  0  0  0  0  0
   -8.9455   24.2243  -32.9187 H   0  0  0  0  0  0  0  0  0  0  0  0
  -10.3427   23.0954  -32.9187 H   0  0  0  0  0  0  0  0  0  0  0  0
  -10.2914   21.2134  -31.5520 H   0  0  0  0  0  0  0  0  0  0  0  0
   -9.4700   20.7368  -33.0917 H   0  0  0  0  0  0  0  0  0  0  0  0
   -8.0239   20.4097  -30.4508 H   0  0  0  0  0  0  0  0  0  0  0  0
   -9.2668   19.1982  -30.9708 H   0  0  0  0  0  0  0  0  0  0  0  0
   -7.3796   20.9803  -33.5629 H   0  0  0  0  0  0  0  0  0  0  0  0
   -5.7609   19.8432  -35.0832 H   0  0  0  0  0  0  0  0  0  0  0  0
   -5.0068   17.5136  -34.5916 H   0  0  0  0  0  0  0  0  0  0  0  0
   -5.8706   16.3202  -32.5760 H   0  0  0  0  0  0  0  0  0  0  0  0
   -7.4944   17.4493  -31.0527 H   0  0  0  0  0  0  0  0  0  0  0  0
   -8.2923   23.4295  -30.2674 H   0  0  0  0  0  0  0  0  0  0  0  0
   -7.9888   21.6600  -30.1382 H   0  0  0  0  0  0  0  0  0  0  0  0
   -6.1518   24.9169  -30.5124 H   0  0  0  0  0  0  0  0  0  0  0  0
   -1.9933   22.4147  -30.3152 H   0  0  0  0  0  0  0  0  0  0  0  0
    0.1084   21.3478  -31.1337 H   0  0  0  0  0  0  0  0  0  0  0  0
    0.1472   20.1955  -33.3467 H   0  0  0  0  0  0  0  0  0  0  0  0
   -1.9153   20.1158  -34.7519 H   0  0  0  0  0  0  0  0  0  0  0  0
   -4.0235   21.1765  -33.9403 H   0  0  0  0  0  0  0  0  0  0  0  0
  1  2  1  0
  2  3  1  0
  3  4  1  0
  4  5  1  0
  5  6  2  0
  6  7  1  0
  7  8  2  0
  8  9  1  0
  9 10  2  0
  2 11  1  0
 11 12  1  0
 12 13  2  0
 13 14  1  0
 14 15  1  0
 15 16  1  0
 16 17  2  0
 17 18  1  0
 18 19  2  0
 19 20  1  0
 20 21  2  0
 15 22  2  0
 10  5  1  0
 22 12  1  0
 21 16  1  0
  1 23  1  0
  1 24  1  0
  1 25  1  0
  3 26  1  0
  3 27  1  0
  4 28  1  0
  4 29  1  0
  6 30  1  0
  7 31  1  0
  8 32  1  0
  9 33  1  0
 10 34  1  0
 11 35  1  0
 11 36  1  0
 13 37  1  0
 17 38  1  0
 18 39  1  0
 19 40  1  0
 20 41  1  0
 21 42  1  0
M  END
>  <UniqueID>  (26) 
26

>  <SMILES>  (26) 
CN(CCc1ccccc1)Cc1coc(-c2ccccc2)n1

>  <Energy>  (26) 
70.6841213370152

>  <Genealogy>  (26) 
CN(CCc1ccccc1)Cc1coc(-c2ccccc2)n1 (3D coordinates assigned)
CN(CCc1ccccc1)Cc1coc(-c2ccccc2)n1 (optimized conformer: 70.6841213370152 kcal/mol)

>  <smiles>  (26) 
CN(CCc1ccccc1)Cc1coc(-c2ccccc2)n1

>  <score_type>  (26) 
oracle

>  <origin>  (26) 
adgpu

>  <m_score__min__energy>  (26) 
-8.5500000000000007

>  <m_primary>  (26) 
energy

$$$$
26:0
     RDKit          3D

 56 59  0  0  0  0  0  0  0  0999 V2000
   -8.8060   21.6150  -30.7130 N   0  0  0  0  0  0  0  0  0  0  0  0
   -8.0250   20.9970  -31.3040 C   0  0  0  0  0  0  0  0  0  0  0  0
   -7.0540   20.2260  -32.0460 C   0  0  0  0  0  0  0  0  0  0  0  0
   -5.7630   20.7260  -32.3310 C   0  0  0  0  0  0  0  0  0  0  0  0
   -5.2710   22.0240  -31.8150 C   0  0  0  0  0  0  0  0  0  0  0  0
   -4.0400   22.0830  -31.1370 C   0  0  0  0  0  0  0  0  0  0  0  0
   -3.5740   23.2960  -30.6210 C   0  0  0  0  0  0  0  0  0  0  0  0
   -4.3380   24.4570  -30.7610 C   0  0  0  0  0  0  0  0  0  0  0  0
   -3.8740   25.6620  -30.2470 O   0  0  0  0  0  0  0  0  0  0  0  0
   -5.5750   24.4060  -31.4130 C   0  0  0  0  0  0  0  0  0  0  0  0
   -6.0430   23.1950  -31.9320 C   0  0  0  0  0  0  0  0  0  0  0  0
   -4.9400   20.0040  -33.1400 N   0  0  0  0  0  0  0  0  0  0  0  0
   -5.3160   18.8060  -33.6520 C   0  0  0  0  0  0  0  0  0  0  0  0
   -4.2010   17.9060  -34.7250 S   0  0  0  0  0  0  0  0  0  0  0  0
   -3.0310   17.4780  -33.3920 C   0  0  0  0  0  0  0  0  0  0  0  0
   -2.2040   18.6740  -33.0050 C   0  0  0  0  0  0  0  0  0  0  0  0
   -2.3280   19.7360  -33.6710 O   0  0  0  0  0  0  0  0  0  0  0  0
   -1.1920   18.6140  -31.9890 N   0  0  0  0  0  0  0  0  0  0  0  0
   -0.8420   19.6580  -31.0720 C   0  0  0  0  0  0  0  0  0  0  0  0
   -0.2360   19.3200  -29.8560 C   0  0  0  0  0  0  0  0  0  0  0  0
    0.0920   20.3130  -28.9300 C   0  0  0  0  0  0  0  0  0  0  0  0
   -0.1440   21.6600  -29.2300 C   0  0  0  0  0  0  0  0  0  0  0  0
    0.2080   22.9020  -28.0310 S   0  0  0  0  0  0  0  0  0  0  0  0
    0.6320   24.1710  -28.7200 O   0  0  0  0  0  0  0  0  0  0  0  0
    1.3390   22.4310  -27.1590 O   0  0  0  0  0  0  0  0  0  0  0  0
   -1.2090   23.1940  -27.0520 N   0  0  0  0  0  0  0  0  0  0  0  0
   -2.2210   23.9300  -27.8430 C   0  0  0  0  0  0  0  0  0  0  0  0
   -3.2830   24.5600  -26.9380 C   0  0  0  0  0  0  0  0  0  0  0  0
   -2.6580   25.5950  -25.9850 C   0  0  0  0  0  0  0  0  0  0  0  0
   -1.1640   25.3360  -25.7250 C   0  0  0  0  0  0  0  0  0  0  0  0
   -0.8470   23.8340  -25.7620 C   0  0  0  0  0  0  0  0  0  0  0  0
   -0.6980   22.0070  -30.4690 C   0  0  0  0  0  0  0  0  0  0  0  0
   -1.0350   21.0120  -31.3920 C   0  0  0  0  0  0  0  0  0  0  0  0
   -6.5370   18.2940  -33.3570 N   0  0  0  0  0  0  0  0  0  0  0  0
   -7.4110   18.9740  -32.5740 C   0  0  0  0  0  0  0  0  0  0  0  0
   -8.5440   18.4740  -32.3340 O   0  0  0  0  0  0  0  0  0  0  0  0
   -3.4404   21.1693  -31.0120 H   0  0  0  0  0  0  0  0  0  0  0  0
   -2.6040   23.3361  -30.1038 H   0  0  0  0  0  0  0  0  0  0  0  0
   -6.1795   25.3191  -31.5173 H   0  0  0  0  0  0  0  0  0  0  0  0
   -7.0206   23.1572  -32.4349 H   0  0  0  0  0  0  0  0  0  0  0  0
   -3.5954   17.1301  -32.5143 H   0  0  0  0  0  0  0  0  0  0  0  0
   -2.3589   16.6854  -33.7527 H   0  0  0  0  0  0  0  0  0  0  0  0
   -0.0169   18.2663  -29.6285 H   0  0  0  0  0  0  0  0  0  0  0  0
    0.5368   20.0360  -27.9628 H   0  0  0  0  0  0  0  0  0  0  0  0
   -1.7201   24.7250  -28.4150 H   0  0  0  0  0  0  0  0  0  0  0  0
   -2.7181   23.2188  -28.5190 H   0  0  0  0  0  0  0  0  0  0  0  0
   -4.0382   25.0582  -27.5637 H   0  0  0  0  0  0  0  0  0  0  0  0
   -3.7438   23.7640  -26.3347 H   0  0  0  0  0  0  0  0  0  0  0  0
   -2.7698   26.5951  -26.4292 H   0  0  0  0  0  0  0  0  0  0  0  0
   -3.1815   25.5176  -25.0207 H   0  0  0  0  0  0  0  0  0  0  0  0
   -0.5713   25.8471  -26.4979 H   0  0  0  0  0  0  0  0  0  0  0  0
   -0.9121   25.7210  -24.7258 H   0  0  0  0  0  0  0  0  0  0  0  0
    0.2319   23.6997  -25.5952 H   0  0  0  0  0  0  0  0  0  0  0  0
   -1.4482   23.3524  -24.9768 H   0  0  0  0  0  0  0  0  0  0  0  0
   -0.8684   23.0651  -30.7166 H   0  0  0  0  0  0  0  0  0  0  0  0
   -1.4522   21.2903  -32.3710 H   0  0  0  0  0  0  0  0  0  0  0  0
  1  2  3  0
  2  3  1  0
  3  4  2  0
  4  5  1  0
  5  6  2  0
  6  7  1  0
  7  8  2  0
  8  9  1  0
  8 10  1  0
 10 11  2  0
  4 12  1  0
 12 13  1  0
 13 14  1  0
 14 15  1  0
 15 16  1  0
 16 17  2  0
 16 18  1  0
 18 19  1  0
 19 20  2  0
 20 21  1  0
 21 22  2  0
 22 23  1  0
 23 24  2  0
 23 25  2  0
 23 26  1  0
 26 27  1  0
 27 28  1  0
 28 29  1  0
 29 30  1  0
 30 31  1  0
 22 32  1  0
 32 33  2  0
 13 34  2  0
 34 35  1  0
 35 36  2  0
 35  3  1  0
 11  5  1  0
 33 19  1  0
 31 26  1  0
  6 37  1  0
  7 38  1  0
 10 39  1  0
 11 40  1  0
 15 41  1  0
 15 42  1  0
 20 43  1  0
 21 44  1  0
 27 45  1  0
 27 46  1  0
 28 47  1  0
 28 48  1  0
 29 49  1  0
 29 50  1  0
 30 51  1  0
 30 52  1  0
 31 53  1  0
 31 54  1  0
 32 55  1  0
 33 56  1  0
M  CHG  3   9  -1  12  -1  18  -1
M  END
>  <UniqueID>  (27) 
27

>  <SMILES>  (27) 
N#Cc1c(-c2ccc([O-])cc2)[n-]c(SCC(=O)[N-]c2ccc(S(=O)(=O)N3CCCCC3)cc2)nc1=O

>  <Energy>  (27) 
68.25053155981603

>  <Genealogy>  (27) 
N#Cc1c(-c2ccc([O-])cc2)[n-]c(SCC(=O)[N-]c2ccc(S(=O)(=O)N3CCCCC3)cc2)nc1=O (protonated)
N#Cc1c(-c2ccc([O-])cc2)[n-]c(SCC(=O)[N-]c2ccc(S(=O)(=O)N3CCCCC3)cc2)nc1=O (3D coordinates assigned)
N#Cc1c(-c2ccc([O-])cc2)[n-]c(SCC(=O)[N-]c2ccc(S(=O)(=O)N3CCCCC3)cc2)nc1=O (nonaromatic ring conformer: 68.25053155981603 kcal/mol)

>  <smiles>  (27) 
N#Cc1c(-c2ccc(O)cc2)[nH]c(SCC(=O)Nc2ccc(S(=O)(=O)N3CCCCC3)cc2)nc1=O

>  <score_type>  (27) 
oracle

>  <origin>  (27) 
adgpu

>  <m_score__min__energy>  (27) 
-12.869999999999999

>  <m_primary>  (27) 
energy

$$$$
27:0
     RDKit          3D

 47 50  0  0  0  0  0  0  0  0999 V2000
   -0.0900   17.0990  -27.2040 O   0  0  0  0  0  0  0  0  0  0  0  0
   -0.6540   18.2090  -27.3910 C   0  0  0  0  0  0  0  0  0  0  0  0
   -1.8260   18.5260  -26.6970 C   0  0  0  0  0  0  0  0  0  0  0  0
   -2.4410   19.7600  -26.9150 C   0  0  0  0  0  0  0  0  0  0  0  0
   -1.8810   20.6670  -27.8240 C   0  0  0  0  0  0  0  0  0  0  0  0
   -2.4710   21.9170  -28.0640 C   0  0  0  0  0  0  0  0  0  0  0  0
   -1.8830   22.8090  -28.9720 C   0  0  0  0  0  0  0  0  0  0  0  0
   -2.5980   24.3970  -29.2300 S   0  0  0  0  0  0  0  0  0  0  0  0
   -3.5000   24.7650  -28.0850 O   0  0  0  0  0  0  0  0  0  0  0  0
   -1.4980   25.4140  -29.3350 O   0  0  0  0  0  0  0  0  0  0  0  0
   -3.5230   24.4040  -30.6980 N   0  0  0  0  0  0  0  0  0  0  0  0
   -4.8410   23.8560  -30.8510 C   0  0  0  0  0  0  0  0  0  0  0  0
   -5.0540   22.6170  -31.4830 C   0  0  0  0  0  0  0  0  0  0  0  0
   -6.3480   22.1060  -31.6350 C   0  0  0  0  0  0  0  0  0  0  0  0
   -6.5990   20.5560  -32.4420 S   0  0  0  0  0  0  0  0  0  0  0  0
   -6.5000   19.4500  -31.4270 O   0  0  0  0  0  0  0  0  0  0  0  0
   -7.9850   20.5240  -33.0260 O   0  0  0  0  0  0  0  0  0  0  0  0
   -5.4250   20.2770  -33.7110 N   0  0  0  0  0  0  0  0  0  0  0  0
   -5.7380   19.0560  -34.4600 C   0  0  0  0  0  0  0  0  0  0  0  0
   -4.8900   17.9220  -33.9030 C   0  0  0  0  0  0  0  0  0  0  0  0
   -3.7920   18.5890  -33.0980 C   0  0  0  0  0  0  0  0  0  0  0  0
   -4.0780   20.0840  -33.1590 C   0  0  0  0  0  0  0  0  0  0  0  0
   -7.4400   22.8340  -31.1480 C   0  0  0  0  0  0  0  0  0  0  0  0
   -7.2380   24.0600  -30.5120 C   0  0  0  0  0  0  0  0  0  0  0  0
   -5.9470   24.5760  -30.3630 C   0  0  0  0  0  0  0  0  0  0  0  0
   -5.7890   25.8090  -29.7280 O   0  0  0  0  0  0  0  0  0  0  0  0
   -0.7100   22.4440  -29.6490 C   0  0  0  0  0  0  0  0  0  0  0  0
   -0.1180   21.1990  -29.4140 C   0  0  0  0  0  0  0  0  0  0  0  0
   -0.6950   20.3090  -28.5030 C   0  0  0  0  0  0  0  0  0  0  0  0
   -0.1190   19.0990  -28.2700 N   0  0  0  0  0  0  0  0  0  0  0  0
   -2.2598   17.8085  -25.9849 H   0  0  0  0  0  0  0  0  0  0  0  0
   -3.3631   20.0196  -26.3744 H   0  0  0  0  0  0  0  0  0  0  0  0
   -3.3961   22.1976  -27.5392 H   0  0  0  0  0  0  0  0  0  0  0  0
   -4.1946   22.0441  -31.8615 H   0  0  0  0  0  0  0  0  0  0  0  0
   -6.8048   18.8131  -34.3460 H   0  0  0  0  0  0  0  0  0  0  0  0
   -5.5211   19.2013  -35.5286 H   0  0  0  0  0  0  0  0  0  0  0  0
   -5.4971   17.2703  -33.2575 H   0  0  0  0  0  0  0  0  0  0  0  0
   -4.4796   17.2901  -34.7044 H   0  0  0  0  0  0  0  0  0  0  0  0
   -3.8143   18.2375  -32.0559 H   0  0  0  0  0  0  0  0  0  0  0  0
   -2.7959   18.3519  -33.5001 H   0  0  0  0  0  0  0  0  0  0  0  0
   -4.0261   20.5136  -32.1477 H   0  0  0  0  0  0  0  0  0  0  0  0
   -3.3338   20.5851  -33.7954 H   0  0  0  0  0  0  0  0  0  0  0  0
   -8.4597   22.4390  -31.2668 H   0  0  0  0  0  0  0  0  0  0  0  0
   -8.0999   24.6238  -30.1256 H   0  0  0  0  0  0  0  0  0  0  0  0
   -5.0310   25.9950  -29.0850 H   0  0  0  0  0  0  0  0  0  0  0  0
   -0.2537   23.1402  -30.3681 H   0  0  0  0  0  0  0  0  0  0  0  0
    0.8030   20.9195  -29.9467 H   0  0  0  0  0  0  0  0  0  0  0  0
  1  2  2  0
  2  3  1  0
  3  4  2  0
  4  5  1  0
  5  6  2  0
  6  7  1  0
  7  8  1  0
  8  9  2  0
  8 10  2  0
  8 11  1  0
 11 12  1  0
 12 13  2  0
 13 14  1  0
 14 15  1  0
 15 16  2  0
 15 17  2  0
 15 18  1  0
 18 19  1  0
 19 20  1  0
 20 21  1  0
 21 22  1  0
 14 23  2  0
 23 24  1  0
 24 25  2  0
 25 26  1  0
  7 27  2  0
 27 28  1  0
 28 29  2  0
 29 30  1  0
 30  2  1  0
 29  5  1  0
 25 12  1  0
 22 18  1  0
  3 31  1  0
  4 32  1  0
  6 33  1  0
 13 34  1  0
 19 35  1  0
 19 36  1  0
 20 37  1  0
 20 38  1  0
 21 39  1  0
 21 40  1  0
 22 41  1  0
 22 42  1  0
 23 43  1  0
 24 44  1  0
 26 45  1  0
 27 46  1  0
 28 47  1  0
M  CHG  2  11  -1  30  -1
M  END
>  <UniqueID>  (28) 
28

>  <SMILES>  (28) 
O=c1ccc2cc(S(=O)(=O)[N-]c3cc(S(=O)(=O)N4CCCC4)ccc3O)ccc2[n-]1

>  <Energy>  (28) 
55.873548968134166

>  <Genealogy>  (28) 
O=c1ccc2cc(S(=O)(=O)[N-]c3cc(S(=O)(=O)N4CCCC4)ccc3O)ccc2[n-]1 (protonated)
O=c1ccc2cc(S(=O)(=O)[N-]c3cc(S(=O)(=O)N4CCCC4)ccc3O)ccc2[n-]1 (3D coordinates assigned)
O=c1ccc2cc(S(=O)(=O)[N-]c3cc(S(=O)(=O)N4CCCC4)ccc3O)ccc2[n-]1 (nonaromatic ring conformer: 55.873548968134166 kcal/mol)

>  <smiles>  (28) 
O=c1ccc2cc(S(=O)(=O)Nc3cc(S(=O)(=O)N4CCCC4)ccc3O)ccc2[nH]1

>  <score_type>  (28) 
oracle

>  <origin>  (28) 
adgpu

>  <m_score__min__energy>  (28) 
-12.06

>  <m_primary>  (28) 
energy

$$$$
28:0
     RDKit          3D

 53 56  0  0  0  0  0  0  0  0999 V2000
  -10.1630   20.9250  -32.4410 C   0  0  0  0  0  0  0  0  0  0  0  0
   -8.9900   21.0670  -31.5640 N   0  0  0  0  0  0  0  0  0  0  0  0
   -8.7990   22.4920  -31.2040 C   0  0  0  0  0  0  0  0  0  0  0  0
   -7.7790   22.6950  -30.0580 C   0  0  0  0  0  0  0  0  0  0  0  0
   -6.3460   22.7180  -30.5380 C   0  0  0  0  0  0  0  0  0  0  0  0
   -5.5530   23.8590  -30.3540 C   0  0  0  0  0  0  0  0  0  0  0  0
   -4.2050   23.8520  -30.7260 C   0  0  0  0  0  0  0  0  0  0  0  0
   -3.4320   24.9890  -30.5180 O   0  0  0  0  0  0  0  0  0  0  0  0
   -3.6330   22.7020  -31.2860 C   0  0  0  0  0  0  0  0  0  0  0  0
   -2.2400   22.7050  -31.6200 N   0  0  0  0  0  0  0  0  0  0  0  0
   -1.1470   21.3800  -31.3490 S   0  0  0  0  0  0  0  0  0  0  0  0
   -1.4220   20.7940  -29.9930 O   0  0  0  0  0  0  0  0  0  0  0  0
    0.2650   21.9030  -31.3680 O   0  0  0  0  0  0  0  0  0  0  0  0
   -1.3150   20.1070  -32.5600 C   0  0  0  0  0  0  0  0  0  0  0  0
   -0.1860   19.6120  -33.2080 C   0  0  0  0  0  0  0  0  0  0  0  0
   -0.2970   18.5590  -34.1120 C   0  0  0  0  0  0  0  0  0  0  0  0
   -1.5510   17.9600  -34.3870 C   0  0  0  0  0  0  0  0  0  0  0  0
   -2.7090   18.4580  -33.7230 C   0  0  0  0  0  0  0  0  0  0  0  0
   -2.5660   19.5430  -32.8230 C   0  0  0  0  0  0  0  0  0  0  0  0
   -3.9340   17.8630  -33.9480 N   0  0  0  0  0  0  0  0  0  0  0  0
   -5.1550   18.3740  -33.2900 C   0  0  0  0  0  0  0  0  0  0  0  0
   -4.0170   16.7750  -34.7750 C   0  0  0  0  0  0  0  0  0  0  0  0
   -5.1160   16.1850  -34.9520 O   0  0  0  0  0  0  0  0  0  0  0  0
   -2.8860   16.2990  -35.4410 C   0  0  0  0  0  0  0  0  0  0  0  0
   -3.0070   15.2990  -36.2060 O   0  0  0  0  0  0  0  0  0  0  0  0
   -1.6690   16.9050  -35.2680 N   0  0  0  0  0  0  0  0  0  0  0  0
   -0.4990   16.4090  -36.0200 C   0  0  0  0  0  0  0  0  0  0  0  0
   -4.4390   21.5830  -31.5330 C   0  0  0  0  0  0  0  0  0  0  0  0
   -5.7840   21.5690  -31.1340 C   0  0  0  0  0  0  0  0  0  0  0  0
   -6.6010   20.3050  -31.2600 C   0  0  0  0  0  0  0  0  0  0  0  0
   -7.8000   20.4770  -32.2210 C   0  0  0  0  0  0  0  0  0  0  0  0
  -11.0689   20.8153  -31.8268 H   0  0  0  0  0  0  0  0  0  0  0  0
  -10.2564   21.8184  -33.0759 H   0  0  0  0  0  0  0  0  0  0  0  0
  -10.0405   20.0351  -33.0759 H   0  0  0  0  0  0  0  0  0  0  0  0
   -8.4404   23.0329  -32.0922 H   0  0  0  0  0  0  0  0  0  0  0  0
   -9.7685   22.8754  -30.8532 H   0  0  0  0  0  0  0  0  0  0  0  0
   -7.9971   23.6515  -29.5604 H   0  0  0  0  0  0  0  0  0  0  0  0
   -7.8818   21.8414  -29.3719 H   0  0  0  0  0  0  0  0  0  0  0  0
   -5.9938   24.7658  -29.9142 H   0  0  0  0  0  0  0  0  0  0  0  0
    0.7997   20.0558  -33.0043 H   0  0  0  0  0  0  0  0  0  0  0  0
    0.6039   18.1860  -34.6211 H   0  0  0  0  0  0  0  0  0  0  0  0
   -3.4570   19.9491  -32.3217 H   0  0  0  0  0  0  0  0  0  0  0  0
   -5.0320   18.3225  -32.1981 H   0  0  0  0  0  0  0  0  0  0  0  0
   -5.3241   19.4184  -33.5911 H   0  0  0  0  0  0  0  0  0  0  0  0
   -6.0176   17.7614  -33.5911 H   0  0  0  0  0  0  0  0  0  0  0  0
    0.2778   16.0797  -35.3142 H   0  0  0  0  0  0  0  0  0  0  0  0
   -0.8022   15.5620  -36.6530 H   0  0  0  0  0  0  0  0  0  0  0  0
   -0.1011   17.2158  -36.6530 H   0  0  0  0  0  0  0  0  0  0  0  0
   -4.0133   20.7072  -32.0446 H   0  0  0  0  0  0  0  0  0  0  0  0
   -5.9538   19.5016  -31.6416 H   0  0  0  0  0  0  0  0  0  0  0  0
   -6.9992   20.0600  -30.2643 H   0  0  0  0  0  0  0  0  0  0  0  0
   -7.4944   21.1346  -33.0482 H   0  0  0  0  0  0  0  0  0  0  0  0
   -8.0834   19.4750  -32.5754 H   0  0  0  0  0  0  0  0  0  0  0  0
  1  2  1  0
  2  3  1  0
  3  4  1  0
  4  5  1  0
  5  6  2  0
  6  7  1  0
  7  8  1  0
  7  9  2  0
  9 10  1  0
 10 11  1  0
 11 12  2  0
 11 13  2  0
 11 14  1  0
 14 15  2  0
 15 16  1  0
 16 17  2  0
 17 18  1  0
 18 19  2  0
 18 20  1  0
 20 21  1  0
 20 22  1  0
 22 23  2  0
 22 24  1  0
 24 25  2  0
 24 26  1  0
 26 27  1  0
  9 28  1  0
 28 29  2  0
 29 30  1  0
 30 31  1  0
 31  2  1  0
 29  5  1  0
 19 14  1  0
 26 17  1  0
  1 32  1  0
  1 33  1  0
  1 34  1  0
  3 35  1  0
  3 36  1  0
  4 37  1  0
  4 38  1  0
  6 39  1  0
 15 40  1  0
 16 41  1  0
 19 42  1  0
 21 43  1  0
 21 44  1  0
 21 45  1  0
 27 46  1  0
 27 47  1  0
 27 48  1  0
 28 49  1  0
 30 50  1  0
 30 51  1  0
 31 52  1  0
 31 53  1  0
M  CHG  2   8  -1  10  -1
M  END
>  <UniqueID>  (29) 
29

>  <SMILES>  (29) 
CN1CCc2cc([O-])c([N-]S(=O)(=O)c3ccc4c(c3)n(C)c(=O)c(=O)n4C)cc2CC1

>  <Energy>  (29) 
89.49233389505316

>  <Genealogy>  (29) 
CN1CCc2cc([O-])c([N-]S(=O)(=O)c3ccc4c(c3)n(C)c(=O)c(=O)n4C)cc2CC1 (protonated)
CN1CCc2cc([O-])c([N-]S(=O)(=O)c3ccc4c(c3)n(C)c(=O)c(=O)n4C)cc2CC1 (3D coordinates assigned)
CN1CCc2cc([O-])c([N-]S(=O)(=O)c3ccc4c(c3)n(C)c(=O)c(=O)n4C)cc2CC1 (nonaromatic ring conformer: 89.49233389505316 kcal/mol)

>  <smiles>  (29) 
CN1CCc2cc(O)c(NS(=O)(=O)c3ccc4c(c3)n(C)c(=O)c(=O)n4C)cc2CC1

>  <score_type>  (29) 
oracle

>  <origin>  (29) 
adgpu

>  <m_score__min__energy>  (29) 
-12.99

>  <m_primary>  (29) 
energy

$$$$
29:0
     RDKit          3D

 48 50  0  0  0  0  0  0  0  0999 V2000
   -1.8460   14.3740  -34.2120 H   0  0  0  0  0  0  0  0  0  0  0  0
   -1.2350   14.9990  -33.7430 O   0  0  0  0  0  0  0  0  0  0  0  0
   -0.7760   14.3180  -32.6080 C   0  0  0  0  0  0  0  0  0  0  0  0
   -0.3366   15.0373  -31.9012 H   0  0  0  0  0  0  0  0  0  0  0  0
   -0.0129   13.5832  -32.9041 H   0  0  0  0  0  0  0  0  0  0  0  0
   -1.9470   13.5970  -31.9400 C   0  0  0  0  0  0  0  0  0  0  0  0
   -2.3482   14.2342  -31.1382 H   0  0  0  0  0  0  0  0  0  0  0  0
   -1.5784   12.6428  -31.5355 H   0  0  0  0  0  0  0  0  0  0  0  0
   -3.0270   13.3040  -32.9060 N   0  0  0  0  0  0  0  0  0  0  0  0
   -3.0970   11.8590  -33.1550 C   0  0  0  0  0  0  0  0  0  0  0  0
   -3.1230   11.3224  -32.1951 H   0  0  0  0  0  0  0  0  0  0  0  0
   -4.0073   11.6294  -33.7282 H   0  0  0  0  0  0  0  0  0  0  0  0
   -2.2131   11.5425  -33.7282 H   0  0  0  0  0  0  0  0  0  0  0  0
   -4.5860   13.8770  -32.3380 S   0  0  0  0  0  0  0  0  0  0  0  0
   -5.6700   12.9880  -32.8820 O   0  0  0  0  0  0  0  0  0  0  0  0
   -4.6470   13.7740  -30.8390 O   0  0  0  0  0  0  0  0  0  0  0  0
   -4.9130   15.5520  -32.8340 C   0  0  0  0  0  0  0  0  0  0  0  0
   -5.5900   16.3950  -31.9390 C   0  0  0  0  0  0  0  0  0  0  0  0
   -5.8998   16.0078  -30.9571 H   0  0  0  0  0  0  0  0  0  0  0  0
   -5.8750   17.7180  -32.2790 C   0  0  0  0  0  0  0  0  0  0  0  0
   -6.4179   18.3608  -31.5704 H   0  0  0  0  0  0  0  0  0  0  0  0
   -5.4720   18.2320  -33.5210 C   0  0  0  0  0  0  0  0  0  0  0  0
   -5.7530   19.5520  -33.9040 O   0  0  0  0  0  0  0  0  0  0  0  0
   -5.5800   20.6880  -33.1000 C   0  0  0  0  0  0  0  0  0  0  0  0
   -6.7150   21.3380  -32.6020 C   0  0  0  0  0  0  0  0  0  0  0  0
   -7.7159   20.9459  -32.8355 H   0  0  0  0  0  0  0  0  0  0  0  0
   -6.5850   22.4820  -31.8100 C   0  0  0  0  0  0  0  0  0  0  0  0
   -7.4830   22.9815  -31.4175 H   0  0  0  0  0  0  0  0  0  0  0  0
   -5.3160   22.9950  -31.5140 C   0  0  0  0  0  0  0  0  0  0  0  0
   -5.1730   24.4510  -30.5340 S   0  0  0  0  0  0  0  0  0  0  0  0
   -5.7290   24.2270  -29.1560 O   0  0  0  0  0  0  0  0  0  0  0  0
   -5.9480   25.5580  -31.1920 O   0  0  0  0  0  0  0  0  0  0  0  0
   -3.5060   24.9160  -30.4130 N   0  0  0  0  0  0  0  0  0  0  0  0
   -2.7810   24.7620  -29.3480 C   0  0  0  0  0  0  0  0  0  0  0  0
   -1.4850   25.1310  -29.2970 N   0  0  0  0  0  0  0  0  0  0  0  0
   -0.9180   24.8860  -28.1160 N   0  0  0  0  0  0  0  0  0  0  0  0
   -1.7570   24.3200  -27.2180 C   0  0  0  0  0  0  0  0  0  0  0  0
   -1.4764   24.0435  -26.1910 H   0  0  0  0  0  0  0  0  0  0  0  0
   -3.2900   24.0950  -27.8830 S   0  0  0  0  0  0  0  0  0  0  0  0
   -4.1770   22.3600  -32.0260 C   0  0  0  0  0  0  0  0  0  0  0  0
   -3.1779   22.7626  -31.8028 H   0  0  0  0  0  0  0  0  0  0  0  0
   -4.3060   21.2160  -32.8200 C   0  0  0  0  0  0  0  0  0  0  0  0
   -3.4085   20.7272  -33.2270 H   0  0  0  0  0  0  0  0  0  0  0  0
   -4.8120   17.3960  -34.4260 C   0  0  0  0  0  0  0  0  0  0  0  0
   -4.5165   17.7871  -35.4108 H   0  0  0  0  0  0  0  0  0  0  0  0
   -4.5220   16.0650  -34.0940 C   0  0  0  0  0  0  0  0  0  0  0  0
   -3.8210   15.2590  -35.0650 C   0  0  0  0  0  0  0  0  0  0  0  0
   -3.2590   14.6170  -35.8460 N   0  0  0  0  0  0  0  0  0  0  0  0
  1  2  1  0
  2  3  1  0
  3  4  1  0
  3  5  1  0
  3  6  1  0
  6  7  1  0
  6  8  1  0
  6  9  1  0
  9 10  1  0
 10 11  1  0
 10 12  1  0
 10 13  1  0
  9 14  1  0
 14 15  2  0
 14 16  2  0
 14 17  1  0
 17 18  2  0
 18 19  1  0
 18 20  1  0
 20 21  1  0
 20 22  2  0
 22 23  1  0
 23 24  1  0
 24 25  2  0
 25 26  1  0
 25 27  1  0
 27 28  1  0
 27 29  2  0
 29 30  1  0
 30 31  2  0
 30 32  2  0
 30 33  1  0
 33 34  2  0
 34 35  1  0
 35 36  1  0
 36 37  2  0
 37 38  1  0
 37 39  1  0
 29 40  1  0
 40 41  1  0
 40 42  2  0
 42 43  1  0
 22 44  1  0
 44 45  1  0
 44 46  2  0
 46 47  1  0
 47 48  3  0
 46 17  1  0
 42 24  1  0
 39 34  1  0
M  CHG  1  35  -1
M  END
>  <UniqueID>  (30) 
30

>  <SMILES>  (30) 
CN(CCO)S(=O)(=O)c1ccc(Oc2ccc(S(=O)(=O)/N=c3/[n-]ncs3)cc2)cc1C#N

>  <Energy>  (30) 
93.53393509989816

>  <Genealogy>  (30) 
CN(CCO)S(=O)(=O)c1ccc(Oc2ccc(S(=O)(=O)N=c3[n-]ncs3)cc2)cc1C#N (protonated)
CN(CCO)S(=O)(=O)c1ccc(Oc2ccc(S(=O)(=O)/N=c3/[n-]ncs3)cc2)cc1C#N (cis-trans isomerization)
CN(CCO)S(=O)(=O)c1ccc(Oc2ccc(S(=O)(=O)/N=c3/[n-]ncs3)cc2)cc1C#N (3D coordinates assigned)
CN(CCO)S(=O)(=O)c1ccc(Oc2ccc(S(=O)(=O)/N=c3/[n-]ncs3)cc2)cc1C#N (optimized conformer: 93.53393509989816 kcal/mol)

>  <smiles>  (30) 
CN(CCO)S(=O)(=O)c1ccc(Oc2ccc(S(=O)(=O)N=c3[nH]ncs3)cc2)cc1C#N

>  <score_type>  (30) 
oracle

>  <origin>  (30) 
adgpu

>  <m_score__min__energy>  (30) 
-9.3200000000000003

>  <m_primary>  (30) 
energy

$$$$
30:0
     RDKit          3D

 52 56  0  0  1  0  0  0  0  0999 V2000
   -1.1520   30.2480  -24.6140 O   0  0  0  0  0  0  0  0  0  0  0  0
   -0.5190   29.1700  -24.8640 C   0  0  0  0  0  0  0  0  0  0  0  0
    0.0990   28.2780  -24.1100 N   0  0  0  0  0  0  0  0  0  0  0  0
    0.6700   27.2500  -24.6800 C   0  0  0  0  0  0  0  0  0  0  0  0
    1.3530   26.2560  -23.8980 O   0  0  0  0  0  0  0  0  0  0  0  0
    0.6220   27.1120  -26.0210 C   0  0  0  0  0  0  0  0  0  0  0  0
    1.2910   25.8460  -27.0710 S   0  0  0  0  0  0  0  0  0  0  0  0
   -0.0500   24.7460  -27.5060 C   0  0  0  0  0  0  0  0  0  0  0  0
   -1.0570   25.1140  -28.3000 N   0  0  0  0  0  0  0  0  0  0  0  0
   -2.0930   24.3200  -28.6580 C   0  0  0  0  0  0  0  0  0  0  0  0
   -2.9560   24.7710  -29.3920 N   0  0  0  0  0  0  0  0  0  0  0  0
   -4.0900   24.2620  -29.9240 C   0  0  0  0  0  0  0  0  0  0  0  0
   -5.3590   24.4610  -29.3220 C   0  0  0  0  0  0  0  0  0  0  0  0
   -6.4750   23.8430  -29.8230 C   0  0  0  0  0  0  0  0  0  0  0  0
   -6.3940   23.0060  -30.9330 C   0  0  0  0  0  0  0  0  0  0  0  0
   -7.8700   22.2600  -31.5020 S   0  0  0  0  0  0  0  0  0  0  0  0
   -8.6130   23.2370  -32.3670 O   0  0  0  0  0  0  0  0  0  0  0  0
   -8.6780   21.9090  -30.2900 O   0  0  0  0  0  0  0  0  0  0  0  0
   -7.5010   20.8710  -32.4320 N   0  0  0  0  0  0  0  0  0  0  0  0
   -6.5460   20.0160  -31.8010 C   0  0  0  0  0  0  0  0  0  0  0  0
   -7.2250   18.6600  -31.6300 C   0  0  0  0  0  0  0  0  0  0  0  0
   -8.6960   19.0490  -31.6790 C   0  0  0  0  0  0  0  0  0  0  0  0
   -8.6680   20.1050  -32.7580 C   0  0  0  0  0  0  0  0  0  0  0  0
   -5.1710   22.8150  -31.5110 C   0  0  0  0  0  0  0  0  0  0  0  0
   -4.0040   23.4110  -31.0520 C   0  0  0  0  0  0  0  0  0  0  0  0
   -2.1260   23.0450  -28.1790 C   0  0  0  0  0  0  0  0  0  0  0  0
   -3.1310   22.1760  -28.4880 C   0  0  0  0  0  0  0  0  0  0  0  0
   -3.1170   20.8690  -27.9650 C   0  0  0  0  0  0  0  0  0  0  0  0
   -2.0630   20.5580  -27.1630 C   0  0  0  0  0  0  0  0  0  0  0  0
   -1.0360   21.4030  -26.8310 C   0  0  0  0  0  0  0  0  0  0  0  0
   -1.0780   22.6740  -27.3570 C   0  0  0  0  0  0  0  0  0  0  0  0
   -0.0660   23.4950  -27.0250 N   0  0  0  0  0  0  0  0  0  0  0  0
   -0.3210   28.5610  -26.6150 S   0  0  0  0  0  0  0  0  0  0  0  0
    0.1190   28.4200  -23.0390 H   0  0  0  0  0  0  0  0  0  0  0  0
    0.9950   26.0040  -22.9850 H   0  0  0  0  0  0  0  0  0  0  0  0
   -5.4482   25.1179  -28.4442 H   0  0  0  0  0  0  0  0  0  0  0  0
   -7.4495   24.0107  -29.3410 H   0  0  0  0  0  0  0  0  0  0  0  0
   -5.6504   19.9157  -32.4318 H   0  0  0  0  0  0  0  0  0  0  0  0
   -6.2249   20.4252  -30.8318 H   0  0  0  0  0  0  0  0  0  0  0  0
   -6.9634   17.9735  -32.4487 H   0  0  0  0  0  0  0  0  0  0  0  0
   -6.9329   18.1244  -30.7147 H   0  0  0  0  0  0  0  0  0  0  0  0
   -9.3318   18.1970  -31.9616 H   0  0  0  0  0  0  0  0  0  0  0  0
   -9.1120   19.3872  -30.7185 H   0  0  0  0  0  0  0  0  0  0  0  0
   -8.5754   19.6490  -33.7547 H   0  0  0  0  0  0  0  0  0  0  0  0
   -9.5860   20.7098  -32.7954 H   0  0  0  0  0  0  0  0  0  0  0  0
   -5.1074   22.1533  -32.3874 H   0  0  0  0  0  0  0  0  0  0  0  0
   -3.0407   23.2273  -31.5503 H   0  0  0  0  0  0  0  0  0  0  0  0
   -3.9524   22.4964  -29.1458 H   0  0  0  0  0  0  0  0  0  0  0  0
   -3.9112   20.1423  -28.1914 H   0  0  0  0  0  0  0  0  0  0  0  0
   -2.0323   19.5410  -26.7450 H   0  0  0  0  0  0  0  0  0  0  0  0
   -0.2153   21.0797  -26.1738 H   0  0  0  0  0  0  0  0  0  0  0  0
    0.7280   23.2090  -26.4000 H   0  0  0  0  0  0  0  0  0  0  0  0
  1  2  2  0
  2  3  1  0
  3  4  1  0
  4  5  1  0
  4  6  2  0
  6  7  1  0
  7  8  1  0
  8  9  2  0
  9 10  1  0
 10 11  2  0
 11 12  1  0
 12 13  2  0
 13 14  1  0
 14 15  2  0
 15 16  1  0
 16 17  2  0
 16 18  2  0
 16 19  1  0
 19 20  1  0
 20 21  1  0
 21 22  1  0
 22 23  1  0
 15 24  1  0
 24 25  2  0
 10 26  1  0
 26 27  2  0
 27 28  1  0
 28 29  2  0
 29 30  1  0
 30 31  2  0
 31 32  1  0
  6 33  1  0
 33  2  1  0
 32  8  1  0
 25 12  1  0
 31 26  1  0
 23 19  1  0
  3 34  1  0
  5 35  1  0
 13 36  1  0
 14 37  1  0
 20 38  1  0
 20 39  1  0
 21 40  1  0
 21 41  1  0
 22 42  1  0
 22 43  1  0
 23 44  1  0
 23 45  1  0
 24 46  1  0
 25 47  1  0
 27 48  1  0
 28 49  1  0
 29 50  1  0
 30 51  1  0
 32 52  1  0
M  END
>  <smiles>  (31) 
O=c1[nH]c(O)c(Sc2nc(=Nc3ccc(S(=O)(=O)N4CCCC4)cc3)c3ccccc3[nH]2)s1

>  <score_type>  (31) 
oracle

>  <origin>  (31) 
adgpu

>  <m_score__min__energy>  (31) 
-10.5

>  <m_primary>  (31) 
energy

$$$$
31:0
     RDKit          3D

 36 38  0  0  0  0  0  0  0  0999 V2000
   -2.7830   21.5390  -31.4740 O   0  0  0  0  0  0  0  0  0  0  0  0
   -3.9120   21.9920  -31.8070 C   0  0  0  0  0  0  0  0  0  0  0  0
   -4.8070   21.1940  -32.5980 N   0  0  0  0  0  0  0  0  0  0  0  0
   -4.4390   19.9100  -33.1210 C   0  0  0  0  0  0  0  0  0  0  0  0
   -3.1650   19.7440  -33.6900 C   0  0  0  0  0  0  0  0  0  0  0  0
   -2.7840   18.5180  -34.2360 C   0  0  0  0  0  0  0  0  0  0  0  0
   -3.6710   17.4440  -34.2240 C   0  0  0  0  0  0  0  0  0  0  0  0
   -4.9400   17.5910  -33.6620 C   0  0  0  0  0  0  0  0  0  0  0  0
   -5.3420   18.8160  -33.1030 C   0  0  0  0  0  0  0  0  0  0  0  0
   -6.9530   18.9060  -32.3520 S   0  0  0  0  0  0  0  0  0  0  0  0
   -7.9360   18.0490  -33.0980 O   0  0  0  0  0  0  0  0  0  0  0  0
   -6.8580   18.3610  -30.9530 O   0  0  0  0  0  0  0  0  0  0  0  0
   -7.5770   20.5370  -32.2690 N   0  0  0  0  0  0  0  0  0  0  0  0
   -9.0350   20.5760  -32.3720 C   0  0  0  0  0  0  0  0  0  0  0  0
   -9.4850   21.8460  -31.6620 C   0  0  0  0  0  0  0  0  0  0  0  0
   -8.2850   22.3010  -30.8440 C   0  0  0  0  0  0  0  0  0  0  0  0
   -7.2620   21.1910  -31.0040 C   0  0  0  0  0  0  0  0  0  0  0  0
   -4.3090   23.3330  -31.3540 C   0  0  0  0  0  0  0  0  0  0  0  0
   -5.5510   23.8330  -31.5090 N   0  0  0  0  0  0  0  0  0  0  0  0
   -5.4280   25.0550  -30.9570 C   0  0  0  0  0  0  0  0  0  0  0  0
   -4.1870   25.2850  -30.4950 N   0  0  0  0  0  0  0  0  0  0  0  0
   -3.4790   24.1970  -30.7450 N   0  0  0  0  0  0  0  0  0  0  0  0
   -5.7390   21.5870  -32.8550 H   0  0  0  0  0  0  0  0  0  0  0  0
   -2.4611   20.5891  -33.7051 H   0  0  0  0  0  0  0  0  0  0  0  0
   -1.7829   18.3994  -34.6761 H   0  0  0  0  0  0  0  0  0  0  0  0
   -3.3709   16.4788  -34.6580 H   0  0  0  0  0  0  0  0  0  0  0  0
   -5.6340   16.7375  -33.6566 H   0  0  0  0  0  0  0  0  0  0  0  0
   -9.3407   20.6025  -33.4283 H   0  0  0  0  0  0  0  0  0  0  0  0
   -9.4899   19.6836  -31.9172 H   0  0  0  0  0  0  0  0  0  0  0  0
   -9.7657   22.6171  -32.3945 H   0  0  0  0  0  0  0  0  0  0  0  0
  -10.3671   21.6692  -31.0291 H   0  0  0  0  0  0  0  0  0  0  0  0
   -7.8894   23.2512  -31.2322 H   0  0  0  0  0  0  0  0  0  0  0  0
   -8.5444   22.4772  -29.7897 H   0  0  0  0  0  0  0  0  0  0  0  0
   -6.2449   21.6091  -31.0322 H   0  0  0  0  0  0  0  0  0  0  0  0
   -7.2991   20.4830  -30.1629 H   0  0  0  0  0  0  0  0  0  0  0  0
   -6.2502   25.7828  -30.8916 H   0  0  0  0  0  0  0  0  0  0  0  0
  1  2  2  0
  2  3  1  0
  3  4  1  0
  4  5  2  0
  5  6  1  0
  6  7  2  0
  7  8  1  0
  8  9  2  0
  9 10  1  0
 10 11  2  0
 10 12  2  0
 10 13  1  0
 13 14  1  0
 14 15  1  0
 15 16  1  0
 16 17  1  0
  2 18  1  0
 18 19  1  0
 19 20  2  0
 20 21  1  0
 21 22  1  0
  9  4  1  0
 17 13  1  0
 22 18  2  0
  3 23  1  0
  5 24  1  0
  6 25  1  0
  7 26  1  0
  8 27  1  0
 14 28  1  0
 14 29  1  0
 15 30  1  0
 15 31  1  0
 16 32  1  0
 16 33  1  0
 17 34  1  0
 17 35  1  0
 20 36  1  0
M  CHG  1  21  -1
M  END
>  <UniqueID>  (32) 
31

>  <SMILES>  (32) 
O=C(Nc1ccccc1S(=O)(=O)N1CCCC1)c1nc[n-]n1

>  <Energy>  (32) 
75.72087207356225

>  <Genealogy>  (32) 
O=C(Nc1ccccc1S(=O)(=O)N1CCCC1)c1nc[n-]n1 (protonated)
O=C(Nc1ccccc1S(=O)(=O)N1CCCC1)c1nc[n-]n1 (3D coordinates assigned)
O=C(Nc1ccccc1S(=O)(=O)N1CCCC1)c1nc[n-]n1 (nonaromatic ring conformer: 75.72087207356225 kcal/mol)

>  <smiles>  (32) 
O=C(Nc1ccccc1S(=O)(=O)N1CCCC1)c1nc[nH]n1

>  <score_type>  (32) 
oracle

>  <origin>  (32) 
adgpu

>  <m_score__min__energy>  (32) 
-9.0199999999999996

>  <m_primary>  (32) 
energy

$$$$
32:0
     RDKit          3D

 43 45  0  0  0  0  0  0  0  0999 V2000
   -2.7800   20.7360  -27.8980 C   0  0  0  0  0  0  0  0  0  0  0  0
   -3.0450   22.0130  -28.6430 C   0  0  0  0  0  0  0  0  0  0  0  0
   -2.4700   23.2150  -28.2130 C   0  0  0  0  0  0  0  0  0  0  0  0
   -2.7500   24.4060  -28.8830 C   0  0  0  0  0  0  0  0  0  0  0  0
   -3.6240   24.4180  -29.9810 C   0  0  0  0  0  0  0  0  0  0  0  0
   -3.9060   25.6310  -30.6150 O   0  0  0  0  0  0  0  0  0  0  0  0
   -4.2230   23.2150  -30.4180 C   0  0  0  0  0  0  0  0  0  0  0  0
   -5.1670   23.1790  -31.5660 C   0  0  0  0  0  0  0  0  0  0  0  0
   -5.6200   24.2480  -32.0580 O   0  0  0  0  0  0  0  0  0  0  0  0
   -5.6020   21.9140  -32.0770 N   0  0  0  0  0  0  0  0  0  0  0  0
   -6.9450   21.4050  -32.1030 C   0  0  0  0  0  0  0  0  0  0  0  0
   -8.0430   22.2030  -31.7340 C   0  0  0  0  0  0  0  0  0  0  0  0
   -9.3410   21.6920  -31.8100 C   0  0  0  0  0  0  0  0  0  0  0  0
   -9.5560   20.3890  -32.2660 C   0  0  0  0  0  0  0  0  0  0  0  0
   -8.4730   19.5990  -32.6600 C   0  0  0  0  0  0  0  0  0  0  0  0
   -7.1660   20.1010  -32.5830 C   0  0  0  0  0  0  0  0  0  0  0  0
   -6.0570   19.2750  -32.9680 N   0  0  0  0  0  0  0  0  0  0  0  0
   -6.0180   18.6810  -34.3070 C   0  0  0  0  0  0  0  0  0  0  0  0
   -4.6380   18.0710  -34.5850 C   0  0  0  0  0  0  0  0  0  0  0  0
   -3.5790   18.9660  -34.1010 N   0  0  0  0  0  0  0  0  0  0  0  0
   -3.6040   19.1400  -32.6350 C   0  0  0  0  0  0  0  0  0  0  0  0
   -5.0010   18.9600  -32.0020 C   0  0  0  0  0  0  0  0  0  0  0  0
   -3.9260   22.0200  -29.7330 C   0  0  0  0  0  0  0  0  0  0  0  0
   -2.8198   20.9279  -26.8156 H   0  0  0  0  0  0  0  0  0  0  0  0
   -3.5425   19.9899  -28.1664 H   0  0  0  0  0  0  0  0  0  0  0  0
   -1.7836   20.3549  -28.1664 H   0  0  0  0  0  0  0  0  0  0  0  0
   -1.7954   23.2202  -27.3442 H   0  0  0  0  0  0  0  0  0  0  0  0
   -2.2820   25.3434  -28.5480 H   0  0  0  0  0  0  0  0  0  0  0  0
   -4.1700   25.6750  -31.5920 H   0  0  0  0  0  0  0  0  0  0  0  0
   -7.8791   23.2330  -31.3844 H   0  0  0  0  0  0  0  0  0  0  0  0
  -10.1953   22.3167  -31.5103 H   0  0  0  0  0  0  0  0  0  0  0  0
  -10.5780   19.9850  -32.3148 H   0  0  0  0  0  0  0  0  0  0  0  0
   -8.6465   18.5786  -33.0323 H   0  0  0  0  0  0  0  0  0  0  0  0
   -6.7824   17.8930  -34.3757 H   0  0  0  0  0  0  0  0  0  0  0  0
   -6.2154   19.4672  -35.0505 H   0  0  0  0  0  0  0  0  0  0  0  0
   -4.5586   17.1026  -34.0694 H   0  0  0  0  0  0  0  0  0  0  0  0
   -4.5204   17.9307  -35.6697 H   0  0  0  0  0  0  0  0  0  0  0  0
   -3.7010   19.9020  -34.5580 H   0  0  0  0  0  0  0  0  0  0  0  0
   -2.9242   18.3998  -32.1877 H   0  0  0  0  0  0  0  0  0  0  0  0
   -3.2958   20.1766  -32.4335 H   0  0  0  0  0  0  0  0  0  0  0  0
   -5.1149   17.9171  -31.6711 H   0  0  0  0  0  0  0  0  0  0  0  0
   -5.0906   19.6462  -31.1469 H   0  0  0  0  0  0  0  0  0  0  0  0
   -4.3926   21.0786  -30.0586 H   0  0  0  0  0  0  0  0  0  0  0  0
  1  2  1  0
  2  3  2  0
  3  4  1  0
  4  5  2  0
  5  6  1  0
  5  7  1  0
  7  8  1  0
  8  9  2  0
  8 10  1  0
 10 11  1  0
 11 12  2  0
 12 13  1  0
 13 14  2  0
 14 15  1  0
 15 16  2  0
 16 17  1  0
 17 18  1  0
 18 19  1  0
 19 20  1  0
 20 21  1  0
 21 22  1  0
  7 23  2  0
 23  2  1  0
 16 11  1  0
 22 17  1  0
  1 24  1  0
  1 25  1  0
  1 26  1  0
  3 27  1  0
  4 28  1  0
  6 29  1  0
 12 30  1  0
 13 31  1  0
 14 32  1  0
 15 33  1  0
 18 34  1  0
 18 35  1  0
 19 36  1  0
 19 37  1  0
 20 38  1  0
 21 39  1  0
 21 40  1  0
 22 41  1  0
 22 42  1  0
 23 43  1  0
M  CHG  1  10  -1
M  END
>  <UniqueID>  (33) 
32

>  <SMILES>  (33) 
Cc1ccc(O)c(C(=O)[N-]c2ccccc2N2CCNCC2)c1

>  <Energy>  (33) 
57.22805235909726

>  <Genealogy>  (33) 
Cc1ccc(O)c(C(=O)[N-]c2ccccc2N2CCNCC2)c1 (protonated)
Cc1ccc(O)c(C(=O)[N-]c2ccccc2N2CCNCC2)c1 (3D coordinates assigned)
Cc1ccc(O)c(C(=O)[N-]c2ccccc2N2CCNCC2)c1 (nonaromatic ring conformer: 57.22805235909726 kcal/mol)

>  <smiles>  (33) 
Cc1ccc(O)c(C(=O)Nc2ccccc2N2CCNCC2)c1

>  <score_type>  (33) 
oracle

>  <origin>  (33) 
adgpu

>  <m_score__min__energy>  (33) 
-10.09

>  <m_primary>  (33) 
energy

$$$$
33:0
     RDKit          3D

 80 85  0  0  0  0  0  0  0  0999 V2000
   -4.5140   17.6030  -32.8750 C   0  0  0  0  0  0  0  0  0  0  0  0
   -5.6680   17.5910  -33.7930 N   0  0  0  0  0  0  0  0  0  0  0  0
   -6.8480   16.9110  -33.1880 C   0  0  0  0  0  0  0  0  0  0  0  0
   -7.9600   17.8490  -32.6490 C   0  0  0  0  0  0  0  0  0  0  0  0
   -7.4580   19.2340  -32.3500 C   0  0  0  0  0  0  0  0  0  0  0  0
   -7.9630   19.9800  -31.2760 C   0  0  0  0  0  0  0  0  0  0  0  0
   -7.5050   21.2810  -31.0470 C   0  0  0  0  0  0  0  0  0  0  0  0
   -6.5590   21.8590  -31.9160 C   0  0  0  0  0  0  0  0  0  0  0  0
   -6.0560   23.1820  -31.7060 N   0  0  0  0  0  0  0  0  0  0  0  0
   -4.6280   23.5520  -30.7980 S   0  0  0  0  0  0  0  0  0  0  0  0
   -4.7990   23.1100  -29.3710 O   0  0  0  0  0  0  0  0  0  0  0  0
   -4.4150   25.0400  -30.8340 O   0  0  0  0  0  0  0  0  0  0  0  0
   -3.2150   22.7280  -31.4890 C   0  0  0  0  0  0  0  0  0  0  0  0
   -3.3740   22.1150  -32.7430 C   0  0  0  0  0  0  0  0  0  0  0  0
   -2.3240   21.4260  -33.3450 C   0  0  0  0  0  0  0  0  0  0  0  0
   -1.0960   21.3090  -32.6920 C   0  0  0  0  0  0  0  0  0  0  0  0
    0.0050   20.5360  -33.3000 C   0  0  0  0  0  0  0  0  0  0  0  0
    0.6630   21.0280  -34.2540 O   0  0  0  0  0  0  0  0  0  0  0  0
    0.3370   19.2270  -32.8110 N   0  0  0  0  0  0  0  0  0  0  0  0
    1.7220   18.9370  -32.4140 C   0  0  0  0  0  0  0  0  0  0  0  0
    1.8750   17.4860  -31.9500 C   0  0  0  0  0  0  0  0  0  0  0  0
    0.7340   17.1170  -31.1000 N   0  0  0  0  0  0  0  0  0  0  0  0
    0.9360   16.6520  -29.7510 C   0  0  0  0  0  0  0  0  0  0  0  0
    1.5140   15.3940  -29.5130 C   0  0  0  0  0  0  0  0  0  0  0  0
    1.7690   14.9750  -28.2050 C   0  0  0  0  0  0  0  0  0  0  0  0
    1.4410   15.7990  -27.1260 C   0  0  0  0  0  0  0  0  0  0  0  0
    0.8590   17.0470  -27.3520 C   0  0  0  0  0  0  0  0  0  0  0  0
    0.6100   17.4750  -28.6590 C   0  0  0  0  0  0  0  0  0  0  0  0
   -0.6360   17.3130  -31.5980 C   0  0  0  0  0  0  0  0  0  0  0  0
   -0.6630   18.1530  -32.8800 C   0  0  0  0  0  0  0  0  0  0  0  0
   -0.9130   21.9390  -31.4520 C   0  0  0  0  0  0  0  0  0  0  0  0
   -1.9480   22.6730  -30.8470 C   0  0  0  0  0  0  0  0  0  0  0  0
   -1.5940   23.5090  -29.3170 S   0  0  0  0  0  0  0  0  0  0  0  0
   -2.2060   24.8810  -29.3530 O   0  0  0  0  0  0  0  0  0  0  0  0
   -0.1040   23.6350  -29.1590 O   0  0  0  0  0  0  0  0  0  0  0  0
   -2.2450   22.6000  -27.9610 N   0  0  0  0  0  0  0  0  0  0  0  0
   -1.3010   22.5470  -26.8220 C   0  0  0  0  0  0  0  0  0  0  0  0
   -0.4720   21.2490  -26.7940 C   0  0  0  0  0  0  0  0  0  0  0  0
   -0.2580   20.7770  -28.1070 O   0  0  0  0  0  0  0  0  0  0  0  0
   -1.4790   20.3260  -28.6720 C   0  0  0  0  0  0  0  0  0  0  0  0
   -2.6810   21.2490  -28.3580 C   0  0  0  0  0  0  0  0  0  0  0  0
   -6.0890   21.1270  -33.0110 C   0  0  0  0  0  0  0  0  0  0  0  0
   -6.5230   19.8090  -33.2130 C   0  0  0  0  0  0  0  0  0  0  0  0
   -5.9630   18.9460  -34.3080 C   0  0  0  0  0  0  0  0  0  0  0  0
   -4.8726   17.5993  -31.8351 H   0  0  0  0  0  0  0  0  0  0  0  0
   -3.8949   16.7112  -33.0526 H   0  0  0  0  0  0  0  0  0  0  0  0
   -3.9136   18.5074  -33.0526 H   0  0  0  0  0  0  0  0  0  0  0  0
   -7.2952   16.2626  -33.9559 H   0  0  0  0  0  0  0  0  0  0  0  0
   -6.4646   16.3657  -32.3130 H   0  0  0  0  0  0  0  0  0  0  0  0
   -8.7572   17.9192  -33.4037 H   0  0  0  0  0  0  0  0  0  0  0  0
   -8.3284   17.4190  -31.7059 H   0  0  0  0  0  0  0  0  0  0  0  0
   -8.7216   19.5406  -30.6116 H   0  0  0  0  0  0  0  0  0  0  0  0
   -7.8837   21.8536  -30.1876 H   0  0  0  0  0  0  0  0  0  0  0  0
   -4.3438   22.1803  -33.2579 H   0  0  0  0  0  0  0  0  0  0  0  0
   -2.4628   20.9729  -34.3377 H   0  0  0  0  0  0  0  0  0  0  0  0
    2.3852   19.1100  -33.2744 H   0  0  0  0  0  0  0  0  0  0  0  0
    1.9895   19.5993  -31.5774 H   0  0  0  0  0  0  0  0  0  0  0  0
    1.9077   16.8228  -32.8270 H   0  0  0  0  0  0  0  0  0  0  0  0
    2.8071   17.3828  -31.3751 H   0  0  0  0  0  0  0  0  0  0  0  0
    1.7664   14.7373  -30.3586 H   0  0  0  0  0  0  0  0  0  0  0  0
    2.2297   13.9926  -28.0242 H   0  0  0  0  0  0  0  0  0  0  0  0
    1.6415   15.4640  -26.0976 H   0  0  0  0  0  0  0  0  0  0  0  0
    0.5963   17.6937  -26.5018 H   0  0  0  0  0  0  0  0  0  0  0  0
    0.1563   18.4616  -28.8342 H   0  0  0  0  0  0  0  0  0  0  0  0
   -1.0824   16.3297  -31.8075 H   0  0  0  0  0  0  0  0  0  0  0  0
   -1.2060   17.8506  -30.8259 H   0  0  0  0  0  0  0  0  0  0  0  0
   -0.4410   17.5062  -33.7416 H   0  0  0  0  0  0  0  0  0  0  0  0
   -1.6611   18.6020  -32.9909 H   0  0  0  0  0  0  0  0  0  0  0  0
    0.0589   21.8571  -30.9434 H   0  0  0  0  0  0  0  0  0  0  0  0
   -0.6129   23.4020  -26.8957 H   0  0  0  0  0  0  0  0  0  0  0  0
   -1.8956   22.5804  -25.8971 H   0  0  0  0  0  0  0  0  0  0  0  0
    0.4990   21.4486  -26.3172 H   0  0  0  0  0  0  0  0  0  0  0  0
   -1.0214   20.4853  -26.2239 H   0  0  0  0  0  0  0  0  0  0  0  0
   -1.3582   20.2705  -29.7639 H   0  0  0  0  0  0  0  0  0  0  0  0
   -1.6991   19.3444  -28.2270 H   0  0  0  0  0  0  0  0  0  0  0  0
   -3.3130   21.3281  -29.2549 H   0  0  0  0  0  0  0  0  0  0  0  0
   -3.2393   20.8095  -27.5183 H   0  0  0  0  0  0  0  0  0  0  0  0
   -5.3783   21.5855  -33.7144 H   0  0  0  0  0  0  0  0  0  0  0  0
   -6.6974   18.8724  -35.1236 H   0  0  0  0  0  0  0  0  0  0  0  0
   -5.0317   19.3984  -34.6795 H   0  0  0  0  0  0  0  0  0  0  0  0
  1  2  1  0
  2  3  1  0
  3  4  1  0
  4  5  1  0
  5  6  2  0
  6  7  1  0
  7  8  2  0
  8  9  1  0
  9 10  1  0
 10 11  2  0
 10 12  2  0
 10 13  1  0
 13 14  2  0
 14 15  1  0
 15 16  2  0
 16 17  1  0
 17 18  2  0
 17 19  1  0
 19 20  1  0
 20 21  1  0
 21 22  1  0
 22 23  1  0
 23 24  2  0
 24 25  1  0
 25 26  2  0
 26 27  1  0
 27 28  2  0
 22 29  1  0
 29 30  1  0
 16 31  1  0
 31 32  2  0
 32 33  1  0
 33 34  2  0
 33 35  2  0
 33 36  1  0
 36 37  1  0
 37 38  1  0
 38 39  1  0
 39 40  1  0
 40 41  1  0
  8 42  1  0
 42 43  2  0
 43 44  1  0
 44  2  1  0
 43  5  1  0
 32 13  1  0
 41 36  1  0
 30 19  1  0
 28 23  1  0
  1 45  1  0
  1 46  1  0
  1 47  1  0
  3 48  1  0
  3 49  1  0
  4 50  1  0
  4 51  1  0
  6 52  1  0
  7 53  1  0
 14 54  1  0
 15 55  1  0
 20 56  1  0
 20 57  1  0
 21 58  1  0
 21 59  1  0
 24 60  1  0
 25 61  1  0
 26 62  1  0
 27 63  1  0
 28 64  1  0
 29 65  1  0
 29 66  1  0
 30 67  1  0
 30 68  1  0
 31 69  1  0
 37 70  1  0
 37 71  1  0
 38 72  1  0
 38 73  1  0
 40 74  1  0
 40 75  1  0
 41 76  1  0
 41 77  1  0
 42 78  1  0
 44 79  1  0
 44 80  1  0
M  CHG  1   9  -1
M  END
>  <UniqueID>  (34) 
33

>  <SMILES>  (34) 
CN1CCc2ccc([N-]S(=O)(=O)c3ccc(C(=O)N4CCN(c5ccccc5)CC4)cc3S(=O)(=O)N3CCOCC3)cc2C1

>  <Energy>  (34) 
123.51722981966131

>  <Genealogy>  (34) 
CN1CCc2ccc([N-]S(=O)(=O)c3ccc(C(=O)N4CCN(c5ccccc5)CC4)cc3S(=O)(=O)N3CCOCC3)cc2C1 (protonated)
CN1CCc2ccc([N-]S(=O)(=O)c3ccc(C(=O)N4CCN(c5ccccc5)CC4)cc3S(=O)(=O)N3CCOCC3)cc2C1 (3D coordinates assigned)
CN1CCc2ccc([N-]S(=O)(=O)c3ccc(C(=O)N4CCN(c5ccccc5)CC4)cc3S(=O)(=O)N3CCOCC3)cc2C1 (nonaromatic ring conformer: 123.51722981966131 kcal/mol)

>  <smiles>  (34) 
CN1CCc2ccc(NS(=O)(=O)c3ccc(C(=O)N4CCN(c5ccccc5)CC4)cc3S(=O)(=O)N3CCOCC3)cc2C1

>  <score_type>  (34) 
oracle

>  <origin>  (34) 
adgpu

>  <m_score__min__energy>  (34) 
-13.69

>  <m_primary>  (34) 
energy

$$$$
34:0
     RDKit          3D

 64 68  0  0  0  0  0  0  0  0999 V2000
   -5.4070   26.7050  -30.3420 O   0  0  0  0  0  0  0  0  0  0  0  0
   -5.0050   25.5310  -30.5660 C   0  0  0  0  0  0  0  0  0  0  0  0
   -3.5990   25.2540  -30.4890 N   0  0  0  0  0  0  0  0  0  0  0  0
   -3.0280   24.1900  -29.7160 C   0  0  0  0  0  0  0  0  0  0  0  0
   -2.9810   24.2550  -28.3140 C   0  0  0  0  0  0  0  0  0  0  0  0
   -2.3820   23.2270  -27.5820 C   0  0  0  0  0  0  0  0  0  0  0  0
   -1.8150   22.1350  -28.2440 C   0  0  0  0  0  0  0  0  0  0  0  0
   -1.8530   22.0620  -29.6440 C   0  0  0  0  0  0  0  0  0  0  0  0
   -1.0510   20.7340  -30.4840 S   0  0  0  0  0  0  0  0  0  0  0  0
   -1.2180   19.4700  -29.6870 O   0  0  0  0  0  0  0  0  0  0  0  0
    0.4210   21.0280  -30.5860 O   0  0  0  0  0  0  0  0  0  0  0  0
   -1.7160   20.4980  -32.0850 N   0  0  0  0  0  0  0  0  0  0  0  0
   -3.1880   20.3700  -32.0170 C   0  0  0  0  0  0  0  0  0  0  0  0
   -3.7540   19.7780  -33.3120 C   0  0  0  0  0  0  0  0  0  0  0  0
   -3.2240   18.3420  -33.5640 C   0  0  0  0  0  0  0  0  0  0  0  0
   -1.8720   18.1050  -32.8520 C   0  0  0  0  0  0  0  0  0  0  0  0
   -1.0340   19.3920  -32.8030 C   0  0  0  0  0  0  0  0  0  0  0  0
   -3.0400   18.1640  -34.9540 O   0  0  0  0  0  0  0  0  0  0  0  0
   -4.0780   17.3380  -35.3700 C   0  0  0  0  0  0  0  0  0  0  0  0
   -4.5700   16.6400  -34.1430 C   0  0  0  0  0  0  0  0  0  0  0  0
   -4.1610   17.4110  -33.0570 O   0  0  0  0  0  0  0  0  0  0  0  0
   -2.4890   23.0770  -30.3730 C   0  0  0  0  0  0  0  0  0  0  0  0
   -5.9890   24.4630  -30.8590 C   0  0  0  0  0  0  0  0  0  0  0  0
   -6.3170   24.1420  -32.1860 C   0  0  0  0  0  0  0  0  0  0  0  0
   -7.2160   23.1050  -32.4600 C   0  0  0  0  0  0  0  0  0  0  0  0
   -7.7950   22.3780  -31.4120 C   0  0  0  0  0  0  0  0  0  0  0  0
   -8.9050   21.0530  -31.7640 S   0  0  0  0  0  0  0  0  0  0  0  0
  -10.1870   21.6030  -32.3280 O   0  0  0  0  0  0  0  0  0  0  0  0
   -9.2190   20.3410  -30.4780 O   0  0  0  0  0  0  0  0  0  0  0  0
   -8.1680   19.9380  -32.8930 N   0  0  0  0  0  0  0  0  0  0  0  0
   -8.6120   18.5640  -32.6310 C   0  0  0  0  0  0  0  0  0  0  0  0
   -7.5950   17.9010  -31.7120 C   0  0  0  0  0  0  0  0  0  0  0  0
   -6.3740   18.8020  -31.7350 C   0  0  0  0  0  0  0  0  0  0  0  0
   -6.7130   19.9160  -32.7140 C   0  0  0  0  0  0  0  0  0  0  0  0
   -7.4940   22.7160  -30.0870 C   0  0  0  0  0  0  0  0  0  0  0  0
   -6.6090   23.7600  -29.8130 C   0  0  0  0  0  0  0  0  0  0  0  0
   -3.4174   25.1184  -27.7904 H   0  0  0  0  0  0  0  0  0  0  0  0
   -2.3567   23.2773  -26.4834 H   0  0  0  0  0  0  0  0  0  0  0  0
   -1.3375   21.3304  -27.6655 H   0  0  0  0  0  0  0  0  0  0  0  0
   -3.4523   19.7118  -31.1762 H   0  0  0  0  0  0  0  0  0  0  0  0
   -3.6183   21.3724  -31.8755 H   0  0  0  0  0  0  0  0  0  0  0  0
   -4.8512   19.7459  -33.2399 H   0  0  0  0  0  0  0  0  0  0  0  0
   -3.4333   20.4146  -34.1498 H   0  0  0  0  0  0  0  0  0  0  0  0
   -2.0634   17.7626  -31.8243 H   0  0  0  0  0  0  0  0  0  0  0  0
   -1.3104   17.3462  -33.4167 H   0  0  0  0  0  0  0  0  0  0  0  0
   -0.0850   19.1738  -32.2913 H   0  0  0  0  0  0  0  0  0  0  0  0
   -0.8733   19.7212  -33.8402 H   0  0  0  0  0  0  0  0  0  0  0  0
   -4.8851   17.9358  -35.8186 H   0  0  0  0  0  0  0  0  0  0  0  0
   -3.7397   16.6204  -36.1320 H   0  0  0  0  0  0  0  0  0  0  0  0
   -5.6672   16.5643  -34.1633 H   0  0  0  0  0  0  0  0  0  0  0  0
   -4.1676   15.6183  -34.0789 H   0  0  0  0  0  0  0  0  0  0  0  0
   -2.5650   22.9985  -31.4676 H   0  0  0  0  0  0  0  0  0  0  0  0
   -5.8653   24.7081  -33.0139 H   0  0  0  0  0  0  0  0  0  0  0  0
   -7.4688   22.8600  -33.5021 H   0  0  0  0  0  0  0  0  0  0  0  0
   -9.5989   18.5781  -32.1453 H   0  0  0  0  0  0  0  0  0  0  0  0
   -8.6919   18.0046  -33.5748 H   0  0  0  0  0  0  0  0  0  0  0  0
   -7.9949   17.8226  -30.6903 H   0  0  0  0  0  0  0  0  0  0  0  0
   -7.3532   16.8801  -32.0426 H   0  0  0  0  0  0  0  0  0  0  0  0
   -6.1813   19.2148  -30.7338 H   0  0  0  0  0  0  0  0  0  0  0  0
   -5.4676   18.2555  -32.0347 H   0  0  0  0  0  0  0  0  0  0  0  0
   -6.3721   20.8817  -32.3125 H   0  0  0  0  0  0  0  0  0  0  0  0
   -6.2130   19.7413  -33.6781 H   0  0  0  0  0  0  0  0  0  0  0  0
   -7.9562   22.1573  -29.2598 H   0  0  0  0  0  0  0  0  0  0  0  0
   -6.3954   24.0344  -28.7694 H   0  0  0  0  0  0  0  0  0  0  0  0
  1  2  2  0
  2  3  1  0
  3  4  1  0
  4  5  2  0
  5  6  1  0
  6  7  2  0
  7  8  1  0
  8  9  1  0
  9 10  2  0
  9 11  2  0
  9 12  1  0
 12 13  1  0
 13 14  1  0
 14 15  1  0
 15 16  1  0
 16 17  1  0
 15 18  1  0
 18 19  1  0
 19 20  1  0
 20 21  1  0
  8 22  2  0
  2 23  1  0
 23 24  2  0
 24 25  1  0
 25 26  2  0
 26 27  1  0
 27 28  2  0
 27 29  2  0
 27 30  1  0
 30 31  1  0
 31 32  1  0
 32 33  1  0
 33 34  1  0
 26 35  1  0
 35 36  2  0
 22  4  1  0
 36 23  1  0
 17 12  1  0
 34 30  1  0
 21 15  1  0
  5 37  1  0
  6 38  1  0
  7 39  1  0
 13 40  1  0
 13 41  1  0
 14 42  1  0
 14 43  1  0
 16 44  1  0
 16 45  1  0
 17 46  1  0
 17 47  1  0
 19 48  1  0
 19 49  1  0
 20 50  1  0
 20 51  1  0
 22 52  1  0
 24 53  1  0
 25 54  1  0
 31 55  1  0
 31 56  1  0
 32 57  1  0
 32 58  1  0
 33 59  1  0
 33 60  1  0
 34 61  1  0
 34 62  1  0
 35 63  1  0
 36 64  1  0
M  CHG  1   3  -1
M  END
>  <UniqueID>  (35) 
34

>  <SMILES>  (35) 
O=C([N-]c1cccc(S(=O)(=O)N2CCC3(CC2)OCCO3)c1)c1ccc(S(=O)(=O)N2CCCC2)cc1

>  <Energy>  (35) 
74.45519188535873

>  <Genealogy>  (35) 
O=C([N-]c1cccc(S(=O)(=O)N2CCC3(CC2)OCCO3)c1)c1ccc(S(=O)(=O)N2CCCC2)cc1 (protonated)
O=C([N-]c1cccc(S(=O)(=O)N2CCC3(CC2)OCCO3)c1)c1ccc(S(=O)(=O)N2CCCC2)cc1 (3D coordinates assigned)
O=C([N-]c1cccc(S(=O)(=O)N2CCC3(CC2)OCCO3)c1)c1ccc(S(=O)(=O)N2CCCC2)cc1 (nonaromatic ring conformer: 74.45519188535873 kcal/mol)

>  <smiles>  (35) 
O=C(Nc1cccc(S(=O)(=O)N2CCC3(CC2)OCCO3)c1)c1ccc(S(=O)(=O)N2CCCC2)cc1

>  <score_type>  (35) 
oracle

>  <origin>  (35) 
adgpu

>  <m_score__min__energy>  (35) 
-13.07

>  <m_primary>  (35) 
energy

$$$$
35:0
     RDKit          3D

 36 38  0  0  0  0  0  0  0  0999 V2000
   -4.2330   22.0080  -33.6230 O   0  0  0  0  0  0  0  0  0  0  0  0
   -3.9400   20.9090  -33.0810 C   0  0  0  0  0  0  0  0  0  0  0  0
   -2.5930   20.3410  -33.3150 C   0  0  0  0  0  0  0  0  0  0  0  0
   -2.1360   19.1530  -32.7730 C   0  0  0  0  0  0  0  0  0  0  0  0
   -0.8430   18.9890  -33.2250 C   0  0  0  0  0  0  0  0  0  0  0  0
   -0.5630   20.0820  -34.0190 C   0  0  0  0  0  0  0  0  0  0  0  0
   -1.6280   20.9000  -34.0720 N   0  0  0  0  0  0  0  0  0  0  0  0
   -4.9830   20.2410  -32.2130 C   0  0  1  0  0  0  0  0  0  0  0  0
   -6.2490   21.4450  -31.6310 S   0  0  0  0  0  0  0  0  0  0  0  0
   -5.0710   22.6120  -30.9420 C   0  0  0  0  0  0  0  0  0  0  0  0
   -3.9010   22.1490  -30.3270 C   0  0  0  0  0  0  0  0  0  0  0  0
   -2.9850   23.0600  -29.7900 C   0  0  0  0  0  0  0  0  0  0  0  0
   -3.2380   24.4340  -29.8640 C   0  0  0  0  0  0  0  0  0  0  0  0
   -2.3270   25.3380  -29.3320 O   0  0  0  0  0  0  0  0  0  0  0  0
   -4.4110   24.8970  -30.4700 C   0  0  0  0  0  0  0  0  0  0  0  0
   -5.3280   23.9880  -31.0060 C   0  0  0  0  0  0  0  0  0  0  0  0
   -5.5510   19.0110  -32.9050 C   0  0  0  0  0  0  0  0  0  0  0  0
   -6.4320   18.1840  -32.1810 C   0  0  0  0  0  0  0  0  0  0  0  0
   -6.9730   17.0340  -32.7630 C   0  0  0  0  0  0  0  0  0  0  0  0
   -6.6440   16.6930  -34.0750 C   0  0  0  0  0  0  0  0  0  0  0  0
   -5.7740   17.5010  -34.8080 C   0  0  0  0  0  0  0  0  0  0  0  0
   -5.2290   18.6530  -34.2320 C   0  0  0  0  0  0  0  0  0  0  0  0
   -2.6937   18.4732  -32.1120 H   0  0  0  0  0  0  0  0  0  0  0  0
   -0.1677   18.1511  -32.9971 H   0  0  0  0  0  0  0  0  0  0  0  0
    0.3930   20.2583  -34.5338 H   0  0  0  0  0  0  0  0  0  0  0  0
   -1.6680   21.7990  -34.5970 H   0  0  0  0  0  0  0  0  0  0  0  0
   -4.5044   19.8711  -31.2942 H   0  0  0  0  0  0  0  0  0  0  0  0
   -3.7022   21.0688  -30.2662 H   0  0  0  0  0  0  0  0  0  0  0  0
   -2.0651   22.6957  -29.3092 H   0  0  0  0  0  0  0  0  0  0  0  0
   -4.6119   25.9771  -30.5247 H   0  0  0  0  0  0  0  0  0  0  0  0
   -6.2519   24.3532  -31.4783 H   0  0  0  0  0  0  0  0  0  0  0  0
   -6.6972   18.4461  -31.1461 H   0  0  0  0  0  0  0  0  0  0  0  0
   -7.6592   16.3970  -32.1856 H   0  0  0  0  0  0  0  0  0  0  0  0
   -7.0702   15.7875  -34.5316 H   0  0  0  0  0  0  0  0  0  0  0  0
   -5.5159   17.2309  -35.8426 H   0  0  0  0  0  0  0  0  0  0  0  0
   -4.5445   19.2847  -34.8172 H   0  0  0  0  0  0  0  0  0  0  0  0
  1  2  2  0
  2  3  1  0
  3  4  2  0
  4  5  1  0
  5  6  2  0
  6  7  1  0
  2  8  1  0
  8  9  1  0
  9 10  1  0
 10 11  2  0
 11 12  1  0
 12 13  2  0
 13 14  1  0
 13 15  1  0
 15 16  2  0
  8 17  1  0
 17 18  2  0
 18 19  1  0
 19 20  2  0
 20 21  1  0
 21 22  2  0
  7  3  1  0
 16 10  1  0
 22 17  1  0
  4 23  1  0
  5 24  1  0
  6 25  1  0
  7 26  1  0
  8 27  1  1
 11 28  1  0
 12 29  1  0
 15 30  1  0
 16 31  1  0
 18 32  1  0
 19 33  1  0
 20 34  1  0
 21 35  1  0
 22 36  1  0
M  CHG  1  14  -1
M  END
>  <UniqueID>  (36) 
35

>  <SMILES>  (36) 
O=C(c1ccc[nH]1)[C@@H](Sc1ccc([O-])cc1)c1ccccc1

>  <Energy>  (36) 
63.0013239134802

>  <Genealogy>  (36) 
O=C(c1ccc[nH]1)C(Sc1ccc([O-])cc1)c1ccccc1 (protonated)
O=C(c1ccc[nH]1)[C@@H](Sc1ccc([O-])cc1)c1ccccc1 (chirality)
O=C(c1ccc[nH]1)[C@@H](Sc1ccc([O-])cc1)c1ccccc1 (3D coordinates assigned)
O=C(c1ccc[nH]1)[C@@H](Sc1ccc([O-])cc1)c1ccccc1 (optimized conformer: 63.0013239134802 kcal/mol)

>  <smiles>  (36) 
O=C(c1ccc[nH]1)C(Sc1ccc(O)cc1)c1ccccc1

>  <score_type>  (36) 
oracle

>  <origin>  (36) 
adgpu

>  <m_score__min__energy>  (36) 
-10.539999999999999

>  <m_primary>  (36) 
energy

$$$$
36:0
     RDKit          3D

 59 62  0  0  0  0  0  0  0  0999 V2000
   -0.3170   20.4300  -30.9860 C   0  0  0  0  0  0  0  0  0  0  0  0
   -1.1490   20.7990  -29.7940 C   0  0  0  0  0  0  0  0  0  0  0  0
   -1.3720   19.8600  -28.7760 C   0  0  0  0  0  0  0  0  0  0  0  0
   -2.1370   20.2000  -27.6510 C   0  0  0  0  0  0  0  0  0  0  0  0
   -2.3630   19.1910  -26.5640 C   0  0  0  0  0  0  0  0  0  0  0  0
   -2.6380   21.5030  -27.5240 C   0  0  0  0  0  0  0  0  0  0  0  0
   -2.3860   22.4640  -28.5180 C   0  0  0  0  0  0  0  0  0  0  0  0
   -2.9040   23.7990  -28.4390 N   0  0  0  0  0  0  0  0  0  0  0  0
   -2.6300   24.8840  -29.3350 C   0  0  0  0  0  0  0  0  0  0  0  0
   -1.6160   25.6120  -29.1690 O   0  0  0  0  0  0  0  0  0  0  0  0
   -3.5050   25.1580  -30.4330 N   0  0  0  0  0  0  0  0  0  0  0  0
   -4.6920   24.4260  -30.7710 C   0  0  0  0  0  0  0  0  0  0  0  0
   -5.9760   24.9200  -30.4790 C   0  0  0  0  0  0  0  0  0  0  0  0
   -7.1090   24.1640  -30.7910 C   0  0  0  0  0  0  0  0  0  0  0  0
   -6.9740   22.9040  -31.3870 C   0  0  0  0  0  0  0  0  0  0  0  0
   -8.3990   21.9220  -31.7160 S   0  0  0  0  0  0  0  0  0  0  0  0
   -8.7640   21.1590  -30.4730 O   0  0  0  0  0  0  0  0  0  0  0  0
   -9.5550   22.8100  -32.0850 O   0  0  0  0  0  0  0  0  0  0  0  0
   -8.1090   20.7960  -33.0020 N   0  0  0  0  0  0  0  0  0  0  0  0
   -7.2590   19.6570  -32.8530 C   0  0  0  0  0  0  0  0  0  0  0  0
   -5.9880   19.6400  -33.4430 C   0  0  0  0  0  0  0  0  0  0  0  0
   -5.1580   18.5170  -33.3230 C   0  0  0  0  0  0  0  0  0  0  0  0
   -5.6060   17.3960  -32.5970 C   0  0  0  0  0  0  0  0  0  0  0  0
   -6.8540   17.4390  -31.9600 C   0  0  0  0  0  0  0  0  0  0  0  0
   -7.6820   18.5580  -32.0860 C   0  0  0  0  0  0  0  0  0  0  0  0
   -8.9240   18.5530  -31.4510 O   0  0  0  0  0  0  0  0  0  0  0  0
   -4.7140   16.1920  -32.4040 C   0  0  0  0  0  0  0  0  0  0  0  0
   -3.6700   16.0770  -33.4420 N   0  0  0  0  0  0  0  0  0  0  0  0
   -4.2070   15.5600  -34.7120 C   0  0  0  0  0  0  0  0  0  0  0  0
   -2.9370   17.3450  -33.6080 C   0  0  0  0  0  0  0  0  0  0  0  0
   -3.8470   18.4970  -34.0610 C   0  0  0  0  0  0  0  0  0  0  0  0
   -5.6950   22.3990  -31.6560 C   0  0  0  0  0  0  0  0  0  0  0  0
   -4.5610   23.1540  -31.3400 C   0  0  0  0  0  0  0  0  0  0  0  0
   -1.6560   22.0980  -29.6560 C   0  0  0  0  0  0  0  0  0  0  0  0
    0.6399   20.0056  -30.6480 H   0  0  0  0  0  0  0  0  0  0  0  0
   -0.8545   19.6859  -31.5921 H   0  0  0  0  0  0  0  0  0  0  0  0
   -0.1262   21.3279  -31.5921 H   0  0  0  0  0  0  0  0  0  0  0  0
   -0.9439   18.8503  -28.8608 H   0  0  0  0  0  0  0  0  0  0  0  0
   -2.2540   19.6777  -25.5835 H   0  0  0  0  0  0  0  0  0  0  0  0
   -3.3768   18.7741  -26.6557 H   0  0  0  0  0  0  0  0  0  0  0  0
   -1.6239   18.3815  -26.6557 H   0  0  0  0  0  0  0  0  0  0  0  0
   -3.2328   21.7754  -26.6397 H   0  0  0  0  0  0  0  0  0  0  0  0
   -6.0888   25.9053  -30.0032 H   0  0  0  0  0  0  0  0  0  0  0  0
   -8.1106   24.5601  -30.5676 H   0  0  0  0  0  0  0  0  0  0  0  0
   -5.6379   20.5175  -34.0064 H   0  0  0  0  0  0  0  0  0  0  0  0
   -7.1853   16.5826  -31.3543 H   0  0  0  0  0  0  0  0  0  0  0  0
   -9.4960   19.3840  -31.3700 H   0  0  0  0  0  0  0  0  0  0  0  0
   -4.2250   16.2715  -31.4219 H   0  0  0  0  0  0  0  0  0  0  0  0
   -5.3490   15.2965  -32.4743 H   0  0  0  0  0  0  0  0  0  0  0  0
   -4.9850   14.8109  -34.5032 H   0  0  0  0  0  0  0  0  0  0  0  0
   -4.6415   16.3885  -35.2907 H   0  0  0  0  0  0  0  0  0  0  0  0
   -3.3956   15.0944  -35.2907 H   0  0  0  0  0  0  0  0  0  0  0  0
   -2.4783   17.6156  -32.6455 H   0  0  0  0  0  0  0  0  0  0  0  0
   -2.1782   17.1920  -34.3895 H   0  0  0  0  0  0  0  0  0  0  0  0
   -3.3265   19.4494  -33.8823 H   0  0  0  0  0  0  0  0  0  0  0  0
   -4.0658   18.3513  -35.1291 H   0  0  0  0  0  0  0  0  0  0  0  0
   -5.5826   21.4065  -32.1168 H   0  0  0  0  0  0  0  0  0  0  0  0
   -3.5595   22.7454  -31.5400 H   0  0  0  0  0  0  0  0  0  0  0  0
   -1.4788   22.8384  -30.4500 H   0  0  0  0  0  0  0  0  0  0  0  0
  1  2  1  0
  2  3  2  0
  3  4  1  0
  4  5  1  0
  4  6  2  0
  6  7  1  0
  7  8  1  0
  8  9  1  0
  9 10  2  0
  9 11  1  0
 11 12  1  0
 12 13  2  0
 13 14  1  0
 14 15  2  0
 15 16  1  0
 16 17  2  0
 16 18  2  0
 16 19  1  0
 19 20  1  0
 20 21  2  0
 21 22  1  0
 22 23  2  0
 23 24  1  0
 24 25  2  0
 25 26  1  0
 23 27  1  0
 27 28  1  0
 28 29  1  0
 28 30  1  0
 30 31  1  0
 15 32  1  0
 32 33  2  0
  7 34  2  0
 34  2  1  0
 33 12  1  0
 25 20  1  0
 31 22  1  0
  1 35  1  0
  1 36  1  0
  1 37  1  0
  3 38  1  0
  5 39  1  0
  5 40  1  0
  5 41  1  0
  6 42  1  0
 13 43  1  0
 14 44  1  0
 21 45  1  0
 24 46  1  0
 26 47  1  0
 27 48  1  0
 27 49  1  0
 29 50  1  0
 29 51  1  0
 29 52  1  0
 30 53  1  0
 30 54  1  0
 31 55  1  0
 31 56  1  0
 32 57  1  0
 33 58  1  0
 34 59  1  0
M  CHG  3   8  -1  11  -1  19  -1
M  END
>  <UniqueID>  (37) 
36

>  <SMILES>  (37) 
Cc1cc(C)cc([N-]C(=O)[N-]c2ccc(S(=O)(=O)[N-]c3cc4c(cc3O)CN(C)CC4)cc2)c1

>  <Energy>  (37) 
80.99768960995532

>  <Genealogy>  (37) 
Cc1cc(C)cc([N-]C(=O)[N-]c2ccc(S(=O)(=O)[N-]c3cc4c(cc3O)CN(C)CC4)cc2)c1 (protonated)
Cc1cc(C)cc([N-]C(=O)[N-]c2ccc(S(=O)(=O)[N-]c3cc4c(cc3O)CN(C)CC4)cc2)c1 (3D coordinates assigned)
Cc1cc(C)cc([N-]C(=O)[N-]c2ccc(S(=O)(=O)[N-]c3cc4c(cc3O)CN(C)CC4)cc2)c1 (nonaromatic ring conformer: 80.99768960995532 kcal/mol)

>  <smiles>  (37) 
Cc1cc(C)cc(NC(=O)Nc2ccc(S(=O)(=O)Nc3cc4c(cc3O)CN(C)CC4)cc2)c1

>  <score_type>  (37) 
oracle

>  <origin>  (37) 
adgpu

>  <m_score__min__energy>  (37) 
-13.460000000000001

>  <m_primary>  (37) 
energy

$$$$
37:0
     RDKit          3D

 45 47  0  0  0  0  0  0  0  0999 V2000
   -1.8700   25.6250  -28.9580 N   0  0  0  0  0  0  0  0  0  0  0  0
   -2.6010   24.4540  -27.9150 S   0  0  0  0  0  0  0  0  0  0  0  0
   -2.1050   24.6690  -26.5130 O   0  0  0  0  0  0  0  0  0  0  0  0
   -4.0910   24.6440  -27.9540 O   0  0  0  0  0  0  0  0  0  0  0  0
   -2.1830   22.8160  -28.4340 C   0  0  0  0  0  0  0  0  0  0  0  0
   -1.8020   21.8630  -27.4760 C   0  0  0  0  0  0  0  0  0  0  0  0
   -1.4990   20.5560  -27.8600 C   0  0  0  0  0  0  0  0  0  0  0  0
   -1.5920   20.1800  -29.1990 C   0  0  0  0  0  0  0  0  0  0  0  0
   -1.9790   21.1150  -30.1610 C   0  0  0  0  0  0  0  0  0  0  0  0
   -2.2540   22.4470  -29.7940 C   0  0  0  0  0  0  0  0  0  0  0  0
   -2.6710   23.4110  -30.7740 N   0  0  0  0  0  0  0  0  0  0  0  0
   -3.9210   24.1150  -30.8020 C   0  0  0  0  0  0  0  0  0  0  0  0
   -3.9090   25.3740  -30.8540 O   0  0  0  0  0  0  0  0  0  0  0  0
   -5.2210   23.4100  -30.7800 C   0  0  0  0  0  0  0  0  0  0  0  0
   -5.3170   22.1590  -31.4090 C   0  0  0  0  0  0  0  0  0  0  0  0
   -6.5500   21.5000  -31.5060 C   0  0  0  0  0  0  0  0  0  0  0  0
   -6.6760   19.9640  -32.3690 S   0  0  0  0  0  0  0  0  0  0  0  0
   -8.0870   19.7860  -32.8560 O   0  0  0  0  0  0  0  0  0  0  0  0
   -6.3660   18.8370  -31.4230 O   0  0  0  0  0  0  0  0  0  0  0  0
   -5.5850   19.8920  -33.7380 N   0  0  0  0  0  0  0  0  0  0  0  0
   -4.1860   19.8310  -33.3010 C   0  0  0  0  0  0  0  0  0  0  0  0
   -3.7100   18.4030  -33.4760 C   0  0  0  0  0  0  0  0  0  0  0  0
   -4.5490   17.8780  -34.6140 C   0  0  0  0  0  0  0  0  0  0  0  0
   -5.8310   18.6970  -34.5630 C   0  0  0  0  0  0  0  0  0  0  0  0
   -7.6880   22.0810  -30.9340 C   0  0  0  0  0  0  0  0  0  0  0  0
   -7.5970   23.3100  -30.2780 C   0  0  0  0  0  0  0  0  0  0  0  0
   -6.3720   23.9770  -30.1860 C   0  0  0  0  0  0  0  0  0  0  0  0
   -6.3290   25.1790  -29.4790 O   0  0  0  0  0  0  0  0  0  0  0  0
   -2.0370   25.3070  -29.9380 H   0  0  0  0  0  0  0  0  0  0  0  0
   -1.7419   22.1485  -26.4154 H   0  0  0  0  0  0  0  0  0  0  0  0
   -1.1860   19.8207  -27.1041 H   0  0  0  0  0  0  0  0  0  0  0  0
   -1.3606   19.1469  -29.4977 H   0  0  0  0  0  0  0  0  0  0  0  0
   -2.0699   20.8092  -31.2137 H   0  0  0  0  0  0  0  0  0  0  0  0
   -4.4151   21.6909  -31.8302 H   0  0  0  0  0  0  0  0  0  0  0  0
   -3.5724   20.5081  -33.9135 H   0  0  0  0  0  0  0  0  0  0  0  0
   -4.0973   20.1403  -32.2491 H   0  0  0  0  0  0  0  0  0  0  0  0
   -2.6408   18.3756  -33.7329 H   0  0  0  0  0  0  0  0  0  0  0  0
   -3.8168   17.8048  -32.5591 H   0  0  0  0  0  0  0  0  0  0  0  0
   -4.0338   18.0244  -35.5748 H   0  0  0  0  0  0  0  0  0  0  0  0
   -4.7422   16.7989  -34.5236 H   0  0  0  0  0  0  0  0  0  0  0  0
   -6.1190   19.0004  -35.5803 H   0  0  0  0  0  0  0  0  0  0  0  0
   -6.6456   18.0985  -34.1290 H   0  0  0  0  0  0  0  0  0  0  0  0
   -8.6581   21.5669  -31.0017 H   0  0  0  0  0  0  0  0  0  0  0  0
   -8.4966   23.7571  -29.8299 H   0  0  0  0  0  0  0  0  0  0  0  0
   -5.4650   25.6660  -29.2770 H   0  0  0  0  0  0  0  0  0  0  0  0
  1  2  1  0
  2  3  2  0
  2  4  2  0
  2  5  1  0
  5  6  2  0
  6  7  1  0
  7  8  2  0
  8  9  1  0
  9 10  2  0
 10 11  1  0
 11 12  1  0
 12 13  2  0
 12 14  1  0
 14 15  2  0
 15 16  1  0
 16 17  1  0
 17 18  2  0
 17 19  2  0
 17 20  1  0
 20 21  1  0
 21 22  1  0
 22 23  1  0
 23 24  1  0
 16 25  2  0
 25 26  1  0
 26 27  2  0
 27 28  1  0
 10  5  1  0
 27 14  1  0
 24 20  1  0
  1 29  1  0
  6 30  1  0
  7 31  1  0
  8 32  1  0
  9 33  1  0
 15 34  1  0
 21 35  1  0
 21 36  1  0
 22 37  1  0
 22 38  1  0
 23 39  1  0
 23 40  1  0
 24 41  1  0
 24 42  1  0
 25 43  1  0
 26 44  1  0
 28 45  1  0
M  CHG  2   1  -1  11  -1
M  END
>  <UniqueID>  (38) 
37

>  <SMILES>  (38) 
[NH-]S(=O)(=O)c1ccccc1[N-]C(=O)c1cc(S(=O)(=O)N2CCCC2)ccc1O

>  <Energy>  (38) 
55.303082743868536

>  <Genealogy>  (38) 
[NH-]S(=O)(=O)c1ccccc1[N-]C(=O)c1cc(S(=O)(=O)N2CCCC2)ccc1O (protonated)
[NH-]S(=O)(=O)c1ccccc1[N-]C(=O)c1cc(S(=O)(=O)N2CCCC2)ccc1O (3D coordinates assigned)
[NH-]S(=O)(=O)c1ccccc1[N-]C(=O)c1cc(S(=O)(=O)N2CCCC2)ccc1O (nonaromatic ring conformer: 55.303082743868536 kcal/mol)

>  <smiles>  (38) 
NS(=O)(=O)c1ccccc1NC(=O)c1cc(S(=O)(=O)N2CCCC2)ccc1O

>  <score_type>  (38) 
oracle

>  <origin>  (38) 
adgpu

>  <m_score__min__energy>  (38) 
-12.720000000000001

>  <m_primary>  (38) 
energy

$$$$
38:0
     RDKit          3D

 56 59  0  0  0  0  0  0  0  0999 V2000
   -0.6900   29.7540  -25.1780 C   0  0  0  0  0  0  0  0  0  0  0  0
   -0.1100   28.5470  -25.8570 C   0  0  0  0  0  0  0  0  0  0  0  0
    1.1540   28.0670  -25.4970 C   0  0  0  0  0  0  0  0  0  0  0  0
    1.6770   26.9320  -26.1190 C   0  0  0  0  0  0  0  0  0  0  0  0
    0.9330   26.2600  -27.0980 C   0  0  0  0  0  0  0  0  0  0  0  0
    1.4520   25.1180  -27.7080 O   0  0  0  0  0  0  0  0  0  0  0  0
   -0.3410   26.7230  -27.4580 C   0  0  0  0  0  0  0  0  0  0  0  0
   -1.0930   25.9900  -28.4360 N   0  0  0  0  0  0  0  0  0  0  0  0
   -1.1250   24.2620  -28.5900 S   0  0  0  0  0  0  0  0  0  0  0  0
    0.0840   23.7970  -29.3540 O   0  0  0  0  0  0  0  0  0  0  0  0
   -1.0890   23.6440  -27.2210 O   0  0  0  0  0  0  0  0  0  0  0  0
   -2.6130   23.7740  -29.3960 C   0  0  0  0  0  0  0  0  0  0  0  0
   -3.7780   24.5470  -29.2850 C   0  0  0  0  0  0  0  0  0  0  0  0
   -4.9750   24.1030  -29.8550 C   0  0  0  0  0  0  0  0  0  0  0  0
   -5.0160   22.8920  -30.5650 C   0  0  0  0  0  0  0  0  0  0  0  0
   -6.2920   22.3940  -31.1280 C   0  0  0  0  0  0  0  0  0  0  0  0
   -7.3210   23.2930  -31.4590 C   0  0  0  0  0  0  0  0  0  0  0  0
   -8.5450   22.8180  -31.9350 C   0  0  0  0  0  0  0  0  0  0  0  0
   -8.7520   21.4460  -32.0940 C   0  0  0  0  0  0  0  0  0  0  0  0
   -7.7290   20.5390  -31.7930 C   0  0  0  0  0  0  0  0  0  0  0  0
   -7.9810   18.8090  -32.0240 S   0  0  0  0  0  0  0  0  0  0  0  0
   -7.3710   18.0820  -30.8570 O   0  0  0  0  0  0  0  0  0  0  0  0
   -9.4570   18.5230  -32.0340 O   0  0  0  0  0  0  0  0  0  0  0  0
   -7.2150   18.2800  -33.5110 N   0  0  0  0  0  0  0  0  0  0  0  0
   -6.7000   16.8980  -33.4270 C   0  0  0  0  0  0  0  0  0  0  0  0
   -5.3260   16.8230  -32.7320 C   0  0  0  0  0  0  0  0  0  0  0  0
   -4.3980   17.6920  -33.3500 O   0  0  0  0  0  0  0  0  0  0  0  0
   -4.8460   19.0270  -33.2290 C   0  0  0  0  0  0  0  0  0  0  0  0
   -6.1800   19.2250  -33.9720 C   0  0  0  0  0  0  0  0  0  0  0  0
   -6.5010   21.0150  -31.3100 C   0  0  0  0  0  0  0  0  0  0  0  0
   -3.8380   22.1370  -30.7050 C   0  0  0  0  0  0  0  0  0  0  0  0
   -2.6470   22.5720  -30.1160 C   0  0  0  0  0  0  0  0  0  0  0  0
   -0.8570   27.8700  -26.8320 C   0  0  0  0  0  0  0  0  0  0  0  0
   -0.6285   29.6260  -24.0872 H   0  0  0  0  0  0  0  0  0  0  0  0
   -0.1237   30.6491  -25.4747 H   0  0  0  0  0  0  0  0  0  0  0  0
   -1.7427   29.8711  -25.4747 H   0  0  0  0  0  0  0  0  0  0  0  0
    1.7372   28.5854  -24.7217 H   0  0  0  0  0  0  0  0  0  0  0  0
    2.6755   26.5643  -25.8400 H   0  0  0  0  0  0  0  0  0  0  0  0
    0.8610   24.3290  -27.9460 H   0  0  0  0  0  0  0  0  0  0  0  0
   -3.7499   25.5063  -28.7474 H   0  0  0  0  0  0  0  0  0  0  0  0
   -5.8891   24.7052  -29.7468 H   0  0  0  0  0  0  0  0  0  0  0  0
   -7.1613   24.3751  -31.3426 H   0  0  0  0  0  0  0  0  0  0  0  0
   -9.3483   23.5265  -32.1854 H   0  0  0  0  0  0  0  0  0  0  0  0
   -9.7225   21.0767  -32.4571 H   0  0  0  0  0  0  0  0  0  0  0  0
   -7.4171   16.2879  -32.8582 H   0  0  0  0  0  0  0  0  0  0  0  0
   -6.5768   16.5235  -34.4539 H   0  0  0  0  0  0  0  0  0  0  0  0
   -5.4405   17.1107  -31.6765 H   0  0  0  0  0  0  0  0  0  0  0  0
   -4.9485   15.7929  -32.8117 H   0  0  0  0  0  0  0  0  0  0  0  0
   -4.9873   19.2650  -32.1644 H   0  0  0  0  0  0  0  0  0  0  0  0
   -4.0923   19.6937  -33.6734 H   0  0  0  0  0  0  0  0  0  0  0  0
   -6.5341   20.2519  -33.7985 H   0  0  0  0  0  0  0  0  0  0  0  0
   -6.0036   19.0403  -35.0419 H   0  0  0  0  0  0  0  0  0  0  0  0
   -5.6956   20.3046  -31.0718 H   0  0  0  0  0  0  0  0  0  0  0  0
   -3.8536   21.1998  -31.2806 H   0  0  0  0  0  0  0  0  0  0  0  0
   -1.7330   21.9685  -30.2181 H   0  0  0  0  0  0  0  0  0  0  0  0
   -1.8552   28.2402  -27.1089 H   0  0  0  0  0  0  0  0  0  0  0  0
  1  2  1  0
  2  3  2  0
  3  4  1  0
  4  5  2  0
  5  6  1  0
  5  7  1  0
  7  8  1  0
  8  9  1  0
  9 10  2  0
  9 11  2  0
  9 12  1  0
 12 13  2  0
 13 14  1  0
 14 15  2  0
 15 16  1  0
 16 17  2  0
 17 18  1  0
 18 19  2  0
 19 20  1  0
 20 21  1  0
 21 22  2  0
 21 23  2  0
 21 24  1  0
 24 25  1  0
 25 26  1  0
 26 27  1  0
 27 28  1  0
 28 29  1  0
 20 30  2  0
 15 31  1  0
 31 32  2  0
  7 33  2  0
 33  2  1  0
 32 12  1  0
 30 16  1  0
 29 24  1  0
  1 34  1  0
  1 35  1  0
  1 36  1  0
  3 37  1  0
  4 38  1  0
  6 39  1  0
 13 40  1  0
 14 41  1  0
 17 42  1  0
 18 43  1  0
 19 44  1  0
 25 45  1  0
 25 46  1  0
 26 47  1  0
 26 48  1  0
 28 49  1  0
 28 50  1  0
 29 51  1  0
 29 52  1  0
 30 53  1  0
 31 54  1  0
 32 55  1  0
 33 56  1  0
M  CHG  1   8  -1
M  END
>  <UniqueID>  (39) 
38

>  <SMILES>  (39) 
Cc1ccc(O)c([N-]S(=O)(=O)c2ccc(-c3cccc(S(=O)(=O)N4CCOCC4)c3)cc2)c1

>  <Energy>  (39) 
72.23846670326371

>  <Genealogy>  (39) 
Cc1ccc(O)c([N-]S(=O)(=O)c2ccc(-c3cccc(S(=O)(=O)N4CCOCC4)c3)cc2)c1 (protonated)
Cc1ccc(O)c([N-]S(=O)(=O)c2ccc(-c3cccc(S(=O)(=O)N4CCOCC4)c3)cc2)c1 (3D coordinates assigned)
Cc1ccc(O)c([N-]S(=O)(=O)c2ccc(-c3cccc(S(=O)(=O)N4CCOCC4)c3)cc2)c1 (nonaromatic ring conformer: 72.23846670326371 kcal/mol)

>  <smiles>  (39) 
Cc1ccc(O)c(NS(=O)(=O)c2ccc(-c3cccc(S(=O)(=O)N4CCOCC4)c3)cc2)c1

>  <score_type>  (39) 
oracle

>  <origin>  (39) 
adgpu

>  <m_score__min__energy>  (39) 
-12.75

>  <m_primary>  (39) 
energy

$$$$
39:0
     RDKit          3D

 46 49  0  0  0  0  0  0  0  0999 V2000
   -7.7390   24.3870  -30.6290 O   0  0  0  0  0  0  0  0  0  0  0  0
   -6.7280   23.8620  -31.1670 C   0  0  0  0  0  0  0  0  0  0  0  0
   -6.8700   22.9490  -32.2640 N   0  0  0  0  0  0  0  0  0  0  0  0
   -7.5370   21.6780  -32.2440 C   0  0  0  0  0  0  0  0  0  0  0  0
   -6.8200   20.4650  -32.2490 C   0  0  0  0  0  0  0  0  0  0  0  0
   -7.4950   19.2360  -32.2690 C   0  0  0  0  0  0  0  0  0  0  0  0
   -6.5510   17.7350  -32.3060 S   0  0  0  0  0  0  0  0  0  0  0  0
   -6.2850   17.2990  -30.8830 O   0  0  0  0  0  0  0  0  0  0  0  0
   -7.3810   16.6720  -32.9830 O   0  0  0  0  0  0  0  0  0  0  0  0
   -5.0300   17.8450  -33.1800 N   0  0  0  0  0  0  0  0  0  0  0  0
   -4.2340   16.6100  -33.1120 C   0  0  0  0  0  0  0  0  0  0  0  0
   -3.8760   16.1970  -34.5340 C   0  0  0  0  0  0  0  0  0  0  0  0
   -4.1990   17.4050  -35.3970 C   0  0  0  0  0  0  0  0  0  0  0  0
   -5.2130   18.2050  -34.5940 C   0  0  0  0  0  0  0  0  0  0  0  0
   -8.8960   19.2260  -32.3130 C   0  0  0  0  0  0  0  0  0  0  0  0
   -9.6110   20.4250  -32.3270 C   0  0  0  0  0  0  0  0  0  0  0  0
   -8.9360   21.6470  -32.3020 C   0  0  0  0  0  0  0  0  0  0  0  0
   -9.6620   22.8330  -32.3320 O   0  0  0  0  0  0  0  0  0  0  0  0
   -5.3870   24.2250  -30.6920 C   0  0  0  0  0  0  0  0  0  0  0  0
   -4.6870   23.6030  -29.6790 C   0  0  0  0  0  0  0  0  0  0  0  0
   -3.4990   24.3120  -29.6050 C   0  0  0  0  0  0  0  0  0  0  0  0
   -2.3690   24.0620  -28.6700 C   0  0  0  0  0  0  0  0  0  0  0  0
   -2.3600   22.9060  -27.8600 C   0  0  0  0  0  0  0  0  0  0  0  0
   -1.3000   22.6590  -26.9840 C   0  0  0  0  0  0  0  0  0  0  0  0
   -0.2360   23.5580  -26.8960 C   0  0  0  0  0  0  0  0  0  0  0  0
   -0.2310   24.7090  -27.6860 C   0  0  0  0  0  0  0  0  0  0  0  0
   -1.2860   24.9660  -28.5710 C   0  0  0  0  0  0  0  0  0  0  0  0
   -1.2370   26.1190  -29.3480 O   0  0  0  0  0  0  0  0  0  0  0  0
   -3.5130   25.2950  -30.5310 N   0  0  0  0  0  0  0  0  0  0  0  0
   -4.6590   25.2410  -31.1920 N   0  0  0  0  0  0  0  0  0  0  0  0
   -5.7202   20.4823  -32.2371 H   0  0  0  0  0  0  0  0  0  0  0  0
   -3.3156   16.7900  -32.5339 H   0  0  0  0  0  0  0  0  0  0  0  0
   -4.8093   15.8133  -32.6178 H   0  0  0  0  0  0  0  0  0  0  0  0
   -2.8070   15.9478  -34.6050 H   0  0  0  0  0  0  0  0  0  0  0  0
   -4.4334   15.3043  -34.8539 H   0  0  0  0  0  0  0  0  0  0  0  0
   -3.2935   18.0021  -35.5801 H   0  0  0  0  0  0  0  0  0  0  0  0
   -4.5905   17.1146  -36.3831 H   0  0  0  0  0  0  0  0  0  0  0  0
   -5.0393   19.2821  -34.7341 H   0  0  0  0  0  0  0  0  0  0  0  0
   -6.2377   17.9800  -34.9246 H   0  0  0  0  0  0  0  0  0  0  0  0
   -9.4353   18.2676  -32.3366 H   0  0  0  0  0  0  0  0  0  0  0  0
  -10.7104   20.4069  -32.3578 H   0  0  0  0  0  0  0  0  0  0  0  0
   -5.0001   22.7421  -29.0700 H   0  0  0  0  0  0  0  0  0  0  0  0
   -3.1955   22.1929  -27.9190 H   0  0  0  0  0  0  0  0  0  0  0  0
   -1.3040   21.7523  -26.3611 H   0  0  0  0  0  0  0  0  0  0  0  0
    0.5970   23.3600  -26.2055 H   0  0  0  0  0  0  0  0  0  0  0  0
    0.6065   25.4184  -27.6131 H   0  0  0  0  0  0  0  0  0  0  0  0
  1  2  2  0
  2  3  1  0
  3  4  1  0
  4  5  2  0
  5  6  1  0
  6  7  1  0
  7  8  2  0
  7  9  2  0
  7 10  1  0
 10 11  1  0
 11 12  1  0
 12 13  1  0
 13 14  1  0
  6 15  2  0
 15 16  1  0
 16 17  2  0
 17 18  1  0
  2 19  1  0
 19 20  1  0
 20 21  2  0
 21 22  1  0
 22 23  2  0
 23 24  1  0
 24 25  2  0
 25 26  1  0
 26 27  2  0
 27 28  1  0
 21 29  1  0
 29 30  1  0
 17  4  1  0
 30 19  2  0
 14 10  1  0
 27 22  1  0
  5 31  1  0
 11 32  1  0
 11 33  1  0
 12 34  1  0
 12 35  1  0
 13 36  1  0
 13 37  1  0
 14 38  1  0
 14 39  1  0
 15 40  1  0
 16 41  1  0
 20 42  1  0
 23 43  1  0
 24 44  1  0
 25 45  1  0
 26 46  1  0
M  CHG  4   3  -1  18  -1  28  -1  29  -1
M  END
>  <UniqueID>  (40) 
39

>  <SMILES>  (40) 
O=C([N-]c1cc(S(=O)(=O)N2CCCC2)ccc1[O-])c1cc(-c2ccccc2[O-])[n-]n1

>  <Energy>  (40) 
89.07731095835992

>  <Genealogy>  (40) 
O=C([N-]c1cc(S(=O)(=O)N2CCCC2)ccc1[O-])c1cc(-c2ccccc2[O-])[n-]n1 (protonated)
O=C([N-]c1cc(S(=O)(=O)N2CCCC2)ccc1[O-])c1cc(-c2ccccc2[O-])[n-]n1 (3D coordinates assigned)
O=C([N-]c1cc(S(=O)(=O)N2CCCC2)ccc1[O-])c1cc(-c2ccccc2[O-])[n-]n1 (nonaromatic ring conformer: 89.07731095835992 kcal/mol)

>  <smiles>  (40) 
O=C(Nc1cc(S(=O)(=O)N2CCCC2)ccc1O)c1cc(-c2ccccc2O)[nH]n1

>  <score_type>  (40) 
oracle

>  <origin>  (40) 
adgpu

>  <m_score__min__energy>  (40) 
-16.129999999999999

>  <m_primary>  (40) 
energy

$$$$
40:0
     RDKit          3D

 70 74  0  0  0  0  0  0  0  0999 V2000
   -9.6460   21.9260  -31.2130 C   0  0  0  0  0  0  0  0  0  0  0  0
   -8.6810   20.8780  -31.6910 C   0  0  0  0  0  0  0  0  0  0  0  0
   -9.0890   19.5370  -31.7410 C   0  0  0  0  0  0  0  0  0  0  0  0
   -8.2250   18.5570  -32.2280 C   0  0  0  0  0  0  0  0  0  0  0  0
   -6.9520   18.9250  -32.6700 C   0  0  0  0  0  0  0  0  0  0  0  0
   -5.8610   17.7170  -33.3320 S   0  0  0  0  0  0  0  0  0  0  0  0
   -5.6890   16.5940  -32.3500 O   0  0  0  0  0  0  0  0  0  0  0  0
   -6.4580   17.1790  -34.6000 O   0  0  0  0  0  0  0  0  0  0  0  0
   -4.2860   18.4400  -33.6540 C   0  0  0  0  0  0  0  0  0  0  0  0
   -4.0890   19.8130  -33.4550 C   0  0  0  0  0  0  0  0  0  0  0  0
   -2.8490   20.3960  -33.7320 C   0  0  0  0  0  0  0  0  0  0  0  0
   -1.7890   19.6080  -34.2170 C   0  0  0  0  0  0  0  0  0  0  0  0
   -0.4960   20.1620  -34.5040 N   0  0  0  0  0  0  0  0  0  0  0  0
    0.3970   20.7740  -33.5630 C   0  0  0  0  0  0  0  0  0  0  0  0
    0.9840   21.8510  -33.8580 O   0  0  0  0  0  0  0  0  0  0  0  0
    0.6780   20.1100  -32.2680 C   0  0  0  0  0  0  0  0  0  0  0  0
    1.8320   19.3220  -32.1070 C   0  0  0  0  0  0  0  0  0  0  0  0
    2.0920   18.6890  -30.8900 C   0  0  0  0  0  0  0  0  0  0  0  0
    1.2100   18.8360  -29.8170 C   0  0  0  0  0  0  0  0  0  0  0  0
    0.0570   19.6260  -29.9510 C   0  0  0  0  0  0  0  0  0  0  0  0
   -0.8520   19.7720  -28.8420 N   0  0  0  0  0  0  0  0  0  0  0  0
   -1.8920   20.8050  -28.8670 C   0  0  0  0  0  0  0  0  0  0  0  0
   -3.0770   20.3670  -27.9990 C   0  0  0  0  0  0  0  0  0  0  0  0
   -2.6430   20.0000  -26.7020 O   0  0  0  0  0  0  0  0  0  0  0  0
   -1.8140   18.8560  -26.7810 C   0  0  0  0  0  0  0  0  0  0  0  0
   -0.5240   19.1740  -27.5430 C   0  0  0  0  0  0  0  0  0  0  0  0
   -0.2040   20.2560  -31.1810 C   0  0  0  0  0  0  0  0  0  0  0  0
   -1.9780   18.2290  -34.3750 C   0  0  0  0  0  0  0  0  0  0  0  0
   -3.2200   17.6480  -34.1030 C   0  0  0  0  0  0  0  0  0  0  0  0
   -6.5550   20.2230  -32.5880 N   0  0  0  0  0  0  0  0  0  0  0  0
   -7.3640   21.1990  -32.0930 C   0  0  0  0  0  0  0  0  0  0  0  0
   -6.8690   22.5070  -32.0260 O   0  0  0  0  0  0  0  0  0  0  0  0
   -5.7610   22.8970  -31.2580 C   0  0  0  0  0  0  0  0  0  0  0  0
   -5.9000   23.6350  -30.0670 C   0  0  0  0  0  0  0  0  0  0  0  0
   -4.7690   24.0200  -29.3410 C   0  0  0  0  0  0  0  0  0  0  0  0
   -3.4900   23.6570  -29.7820 C   0  0  0  0  0  0  0  0  0  0  0  0
   -2.0630   24.1720  -28.8910 S   0  0  0  0  0  0  0  0  0  0  0  0
   -2.2160   23.6670  -27.1930 C   0  0  0  0  0  0  0  0  0  0  0  0
   -1.9310   25.6690  -28.9620 O   0  0  0  0  0  0  0  0  0  0  0  0
   -0.8330   23.5510  -29.4910 O   0  0  0  0  0  0  0  0  0  0  0  0
   -3.3520   22.9070  -30.9580 C   0  0  0  0  0  0  0  0  0  0  0  0
   -4.4820   22.5230  -31.6850 C   0  0  0  0  0  0  0  0  0  0  0  0
   -9.6580   21.9390  -30.1131 H   0  0  0  0  0  0  0  0  0  0  0  0
   -9.3325   22.9114  -31.5880 H   0  0  0  0  0  0  0  0  0  0  0  0
  -10.6539   21.6947  -31.5880 H   0  0  0  0  0  0  0  0  0  0  0  0
  -10.0948   19.2573  -31.3945 H   0  0  0  0  0  0  0  0  0  0  0  0
   -8.5427   17.5045  -32.2638 H   0  0  0  0  0  0  0  0  0  0  0  0
   -4.9144   20.4353  -33.0789 H   0  0  0  0  0  0  0  0  0  0  0  0
   -2.7015   21.4740  -33.5703 H   0  0  0  0  0  0  0  0  0  0  0  0
    2.5342   19.2037  -32.9454 H   0  0  0  0  0  0  0  0  0  0  0  0
    2.9954   18.0718  -30.7757 H   0  0  0  0  0  0  0  0  0  0  0  0
    1.4196   18.3306  -28.8627 H   0  0  0  0  0  0  0  0  0  0  0  0
   -1.4808   21.7472  -28.4757 H   0  0  0  0  0  0  0  0  0  0  0  0
   -2.2338   20.9525  -29.9021 H   0  0  0  0  0  0  0  0  0  0  0  0
   -3.7915   21.1994  -27.9179 H   0  0  0  0  0  0  0  0  0  0  0  0
   -3.5554   19.4956  -28.4700 H   0  0  0  0  0  0  0  0  0  0  0  0
   -1.5599   18.5232  -25.7638 H   0  0  0  0  0  0  0  0  0  0  0  0
   -2.3556   18.0631  -27.3177 H   0  0  0  0  0  0  0  0  0  0  0  0
    0.0818   19.8811  -26.9574 H   0  0  0  0  0  0  0  0  0  0  0  0
    0.0436   18.2453  -27.7022 H   0  0  0  0  0  0  0  0  0  0  0  0
   -1.1091   20.8707  -31.2949 H   0  0  0  0  0  0  0  0  0  0  0  0
   -1.1432   17.5989  -34.7155 H   0  0  0  0  0  0  0  0  0  0  0  0
   -3.3613   16.5660  -34.2417 H   0  0  0  0  0  0  0  0  0  0  0  0
   -6.9023   23.9097  -29.7064 H   0  0  0  0  0  0  0  0  0  0  0  0
   -4.8839   24.6103  -28.4199 H   0  0  0  0  0  0  0  0  0  0  0  0
   -1.9604   24.5107  -26.5351 H   0  0  0  0  0  0  0  0  0  0  0  0
   -3.2507   23.3494  -26.9967 H   0  0  0  0  0  0  0  0  0  0  0  0
   -1.5316   22.8285  -26.9967 H   0  0  0  0  0  0  0  0  0  0  0  0
   -2.3503   22.6195  -31.3101 H   0  0  0  0  0  0  0  0  0  0  0  0
   -4.3652   21.9226  -32.5993 H   0  0  0  0  0  0  0  0  0  0  0  0
  1  2  1  0
  2  3  2  0
  3  4  1  0
  4  5  2  0
  5  6  1  0
  6  7  2  0
  6  8  2  0
  6  9  1  0
  9 10  2  0
 10 11  1  0
 11 12  2  0
 12 13  1  0
 13 14  1  0
 14 15  2  0
 14 16  1  0
 16 17  2  0
 17 18  1  0
 18 19  2  0
 19 20  1  0
 20 21  1  0
 21 22  1  0
 22 23  1  0
 23 24  1  0
 24 25  1  0
 25 26  1  0
 20 27  2  0
 12 28  1  0
 28 29  2  0
  5 30  1  0
 30 31  2  0
 31 32  1  0
 32 33  1  0
 33 34  2  0
 34 35  1  0
 35 36  2  0
 36 37  1  0
 37 38  1  0
 37 39  2  0
 37 40  2  0
 36 41  1  0
 41 42  2  0
 31  2  1  0
 42 33  1  0
 29  9  1  0
 27 16  1  0
 26 21  1  0
  1 43  1  0
  1 44  1  0
  1 45  1  0
  3 46  1  0
  4 47  1  0
 10 48  1  0
 11 49  1  0
 17 50  1  0
 18 51  1  0
 19 52  1  0
 22 53  1  0
 22 54  1  0
 23 55  1  0
 23 56  1  0
 25 57  1  0
 25 58  1  0
 26 59  1  0
 26 60  1  0
 27 61  1  0
 28 62  1  0
 29 63  1  0
 34 64  1  0
 35 65  1  0
 38 66  1  0
 38 67  1  0
 38 68  1  0
 41 69  1  0
 42 70  1  0
M  CHG  1  13  -1
M  END
>  <UniqueID>  (41) 
40

>  <SMILES>  (41) 
Cc1ccc(S(=O)(=O)c2ccc([N-]C(=O)c3cccc(N4CCOCC4)c3)cc2)nc1Oc1ccc(S(C)(=O)=O)cc1

>  <Energy>  (41) 
92.93177582259179

>  <Genealogy>  (41) 
Cc1ccc(S(=O)(=O)c2ccc([N-]C(=O)c3cccc(N4CCOCC4)c3)cc2)nc1Oc1ccc(S(C)(=O)=O)cc1 (protonated)
Cc1ccc(S(=O)(=O)c2ccc([N-]C(=O)c3cccc(N4CCOCC4)c3)cc2)nc1Oc1ccc(S(C)(=O)=O)cc1 (3D coordinates assigned)
Cc1ccc(S(=O)(=O)c2ccc([N-]C(=O)c3cccc(N4CCOCC4)c3)cc2)nc1Oc1ccc(S(C)(=O)=O)cc1 (nonaromatic ring conformer: 92.93177582259179 kcal/mol)

>  <smiles>  (41) 
Cc1ccc(S(=O)(=O)c2ccc(NC(=O)c3cccc(N4CCOCC4)c3)cc2)nc1Oc1ccc(S(C)(=O)=O)cc1

>  <score_type>  (41) 
oracle

>  <origin>  (41) 
adgpu

>  <m_score__min__energy>  (41) 
-14.19

>  <m_primary>  (41) 
energy

$$$$
41:0
     RDKit          3D

 56 59  0  0  0  0  0  0  0  0999 V2000
   -5.7960   25.7470  -30.1010 C   0  0  0  0  0  0  0  0  0  0  0  0
   -5.1240   25.1050  -31.1810 O   0  0  0  0  0  0  0  0  0  0  0  0
   -5.3450   23.7760  -31.5720 C   0  0  0  0  0  0  0  0  0  0  0  0
   -4.3170   22.8170  -31.6030 C   0  0  0  0  0  0  0  0  0  0  0  0
   -4.5880   21.5050  -32.0020 C   0  0  0  0  0  0  0  0  0  0  0  0
   -5.8900   21.1210  -32.3680 C   0  0  0  0  0  0  0  0  0  0  0  0
   -6.1550   19.7230  -32.7950 C   0  0  0  0  0  0  0  0  0  0  0  0
   -6.7920   18.7970  -31.9510 C   0  0  0  0  0  0  0  0  0  0  0  0
   -7.0110   17.4970  -32.4050 C   0  0  0  0  0  0  0  0  0  0  0  0
   -6.5920   17.1440  -33.6860 C   0  0  0  0  0  0  0  0  0  0  0  0
   -6.8580   15.4850  -34.3040 S   0  0  0  0  0  0  0  0  0  0  0  0
   -5.3610   14.8190  -33.5050 C   0  0  0  0  0  0  0  0  0  0  0  0
   -4.1420   15.2050  -34.3100 C   0  0  0  0  0  0  0  0  0  0  0  0
   -3.8600   14.4660  -35.4690 C   0  0  0  0  0  0  0  0  0  0  0  0
   -2.7460   14.7630  -36.2470 C   0  0  0  0  0  0  0  0  0  0  0  0
   -1.8910   15.7950  -35.8780 C   0  0  0  0  0  0  0  0  0  0  0  0
   -2.1450   16.5640  -34.7330 C   0  0  0  0  0  0  0  0  0  0  0  0
   -0.9880   17.8430  -34.3110 S   0  0  0  0  0  0  0  0  0  0  0  0
    0.2460   17.7240  -35.1640 O   0  0  0  0  0  0  0  0  0  0  0  0
   -0.5840   17.6740  -32.8730 O   0  0  0  0  0  0  0  0  0  0  0  0
   -1.7250   19.4150  -34.5430 N   0  0  0  0  0  0  0  0  0  0  0  0
   -0.7240   20.3960  -34.9750 C   0  0  0  0  0  0  0  0  0  0  0  0
   -0.1890   21.1040  -33.7400 C   0  0  0  0  0  0  0  0  0  0  0  0
   -1.1830   20.8030  -32.6350 C   0  0  0  0  0  0  0  0  0  0  0  0
   -2.2520   19.9270  -33.2750 C   0  0  0  0  0  0  0  0  0  0  0  0
   -3.3080   16.3040  -33.9550 C   0  0  0  0  0  0  0  0  0  0  0  0
   -3.6190   17.1330  -32.7270 C   0  0  0  0  0  0  0  0  0  0  0  0
   -5.9700   18.0670  -34.4630 N   0  0  0  0  0  0  0  0  0  0  0  0
   -5.7580   19.3110  -34.0320 N   0  0  0  0  0  0  0  0  0  0  0  0
   -6.9120   22.0880  -32.3440 C   0  0  0  0  0  0  0  0  0  0  0  0
   -6.6380   23.4000  -31.9470 C   0  0  0  0  0  0  0  0  0  0  0  0
   -5.4005   25.3692  -29.1466 H   0  0  0  0  0  0  0  0  0  0  0  0
   -5.6327   26.8331  -30.1613 H   0  0  0  0  0  0  0  0  0  0  0  0
   -6.8736   25.5343  -30.1613 H   0  0  0  0  0  0  0  0  0  0  0  0
   -3.2948   23.1006  -31.3119 H   0  0  0  0  0  0  0  0  0  0  0  0
   -3.7742   20.7654  -32.0299 H   0  0  0  0  0  0  0  0  0  0  0  0
   -7.1145   19.0949  -30.9424 H   0  0  0  0  0  0  0  0  0  0  0  0
   -7.5088   16.7586  -31.7593 H   0  0  0  0  0  0  0  0  0  0  0  0
   -5.2742   15.2313  -32.4889 H   0  0  0  0  0  0  0  0  0  0  0  0
   -5.4320   13.7225  -33.4529 H   0  0  0  0  0  0  0  0  0  0  0  0
   -4.5270   13.6431  -35.7654 H   0  0  0  0  0  0  0  0  0  0  0  0
   -2.5410   14.1796  -37.1568 H   0  0  0  0  0  0  0  0  0  0  0  0
   -1.0041   16.0112  -36.4917 H   0  0  0  0  0  0  0  0  0  0  0  0
    0.0983   19.8841  -35.4963 H   0  0  0  0  0  0  0  0  0  0  0  0
   -1.1777   21.1239  -35.6637 H   0  0  0  0  0  0  0  0  0  0  0  0
    0.8066   20.7174  -33.4768 H   0  0  0  0  0  0  0  0  0  0  0  0
   -0.0801   22.1859  -33.9061 H   0  0  0  0  0  0  0  0  0  0  0  0
   -0.6902   20.2671  -31.8104 H   0  0  0  0  0  0  0  0  0  0  0  0
   -1.6107   21.7229  -32.2098 H   0  0  0  0  0  0  0  0  0  0  0  0
   -2.4951   19.0878  -32.6067 H   0  0  0  0  0  0  0  0  0  0  0  0
   -3.1668   20.5116  -33.4519 H   0  0  0  0  0  0  0  0  0  0  0  0
   -3.3988   16.5462  -31.8230 H   0  0  0  0  0  0  0  0  0  0  0  0
   -3.0011   18.0431  -32.7329 H   0  0  0  0  0  0  0  0  0  0  0  0
   -4.6830   17.4121  -32.7329 H   0  0  0  0  0  0  0  0  0  0  0  0
   -7.9342   21.8094  -32.6399 H   0  0  0  0  0  0  0  0  0  0  0  0
   -7.4480   24.1440  -31.9295 H   0  0  0  0  0  0  0  0  0  0  0  0
  1  2  1  0
  2  3  1  0
  3  4  2  0
  4  5  1  0
  5  6  2  0
  6  7  1  0
  7  8  2  0
  8  9  1  0
  9 10  2  0
 10 11  1  0
 11 12  1  0
 12 13  1  0
 13 14  2  0
 14 15  1  0
 15 16  2  0
 16 17  1  0
 17 18  1  0
 18 19  2  0
 18 20  2  0
 18 21  1  0
 21 22  1  0
 22 23  1  0
 23 24  1  0
 24 25  1  0
 17 26  2  0
 26 27  1  0
 10 28  1  0
 28 29  2  0
  6 30  1  0
 30 31  2  0
 31  3  1  0
 29  7  1  0
 26 13  1  0
 25 21  1  0
  1 32  1  0
  1 33  1  0
  1 34  1  0
  4 35  1  0
  5 36  1  0
  8 37  1  0
  9 38  1  0
 12 39  1  0
 12 40  1  0
 14 41  1  0
 15 42  1  0
 16 43  1  0
 22 44  1  0
 22 45  1  0
 23 46  1  0
 23 47  1  0
 24 48  1  0
 24 49  1  0
 25 50  1  0
 25 51  1  0
 27 52  1  0
 27 53  1  0
 27 54  1  0
 30 55  1  0
 31 56  1  0
M  END
>  <UniqueID>  (42) 
41

>  <SMILES>  (42) 
COc1ccc(-c2ccc(SCc3cccc(S(=O)(=O)N4CCCC4)c3C)nn2)cc1

>  <Energy>  (42) 
64.41637268654148

>  <Genealogy>  (42) 
COc1ccc(-c2ccc(SCc3cccc(S(=O)(=O)N4CCCC4)c3C)nn2)cc1 (3D coordinates assigned)
COc1ccc(-c2ccc(SCc3cccc(S(=O)(=O)N4CCCC4)c3C)nn2)cc1 (nonaromatic ring conformer: 64.41637268654148 kcal/mol)

>  <smiles>  (42) 
COc1ccc(-c2ccc(SCc3cccc(S(=O)(=O)N4CCCC4)c3C)nn2)cc1

>  <score_type>  (42) 
oracle

>  <origin>  (42) 
adgpu

>  <m_score__min__energy>  (42) 
-10.869999999999999

>  <m_primary>  (42) 
energy

$$$$
42:0
     RDKit          3D

 53 56  0  0  0  0  0  0  0  0999 V2000
   -3.8790   25.4100  -30.7910 O   0  0  0  0  0  0  0  0  0  0  0  0
   -3.8890   24.1770  -30.5280 C   0  0  0  0  0  0  0  0  0  0  0  0
   -4.6990   23.2930  -31.3130 N   0  0  0  0  0  0  0  0  0  0  0  0
   -4.2350   22.1710  -32.0770 C   0  0  0  0  0  0  0  0  0  0  0  0
   -2.8720   22.0060  -32.3810 C   0  0  0  0  0  0  0  0  0  0  0  0
   -2.4390   20.9150  -33.1520 C   0  0  0  0  0  0  0  0  0  0  0  0
   -0.7250   20.7040  -33.5500 S   0  0  0  0  0  0  0  0  0  0  0  0
   -0.5820   19.5090  -34.4510 O   0  0  0  0  0  0  0  0  0  0  0  0
   -0.2550   21.9170  -34.3030 O   0  0  0  0  0  0  0  0  0  0  0  0
    0.3070   20.4350  -32.1600 N   0  0  0  0  0  0  0  0  0  0  0  0
    0.4430   19.0180  -31.8160 C   0  0  0  0  0  0  0  0  0  0  0  0
    0.6460   18.9560  -30.3160 C   0  0  0  0  0  0  0  0  0  0  0  0
   -0.0850   20.1700  -29.7870 C   0  0  0  0  0  0  0  0  0  0  0  0
   -0.1420   21.1460  -30.9560 C   0  0  0  0  0  0  0  0  0  0  0  0
   -3.3860   20.0030  -33.6420 C   0  0  0  0  0  0  0  0  0  0  0  0
   -4.7440   20.1790  -33.3670 C   0  0  0  0  0  0  0  0  0  0  0  0
   -5.1730   21.2600  -32.5910 C   0  0  0  0  0  0  0  0  0  0  0  0
   -6.5710   21.4130  -32.3150 N   0  0  0  0  0  0  0  0  0  0  0  0
   -7.1760   22.7440  -32.3820 C   0  0  0  0  0  0  0  0  0  0  0  0
   -8.4450   22.7760  -31.5260 C   0  0  0  0  0  0  0  0  0  0  0  0
   -9.3080   21.7060  -31.8660 O   0  0  0  0  0  0  0  0  0  0  0  0
   -8.6930   20.4730  -31.5420 C   0  0  0  0  0  0  0  0  0  0  0  0
   -7.4480   20.2450  -32.4050 C   0  0  0  0  0  0  0  0  0  0  0  0
   -3.0110   23.6270  -29.4620 C   0  0  0  0  0  0  0  0  0  0  0  0
   -3.2370   22.3200  -28.9820 C   0  0  0  0  0  0  0  0  0  0  0  0
   -2.4230   21.7770  -27.9830 C   0  0  0  0  0  0  0  0  0  0  0  0
   -2.7160   20.1480  -27.4050 Cl  0  0  0  0  0  0  0  0  0  0  0  0
   -1.3760   22.5300  -27.4480 C   0  0  0  0  0  0  0  0  0  0  0  0
   -1.1390   23.8270  -27.9080 C   0  0  0  0  0  0  0  0  0  0  0  0
   -1.9450   24.3800  -28.9100 C   0  0  0  0  0  0  0  0  0  0  0  0
   -1.6740   25.6740  -29.3430 O   0  0  0  0  0  0  0  0  0  0  0  0
   -2.1385   22.7379  -32.0117 H   0  0  0  0  0  0  0  0  0  0  0  0
   -0.4674   18.4693  -32.0991 H   0  0  0  0  0  0  0  0  0  0  0  0
    1.2875   18.5586  -32.3506 H   0  0  0  0  0  0  0  0  0  0  0  0
    0.2157   18.0318  -29.9028 H   0  0  0  0  0  0  0  0  0  0  0  0
    1.7099   18.9525  -30.0366 H   0  0  0  0  0  0  0  0  0  0  0  0
   -1.1002   19.8975  -29.4627 H   0  0  0  0  0  0  0  0  0  0  0  0
    0.4220   20.6056  -28.9134 H   0  0  0  0  0  0  0  0  0  0  0  0
   -1.1733   21.5025  -31.0953 H   0  0  0  0  0  0  0  0  0  0  0  0
    0.5034   22.0152  -30.7613 H   0  0  0  0  0  0  0  0  0  0  0  0
   -3.0571   19.1446  -34.2461 H   0  0  0  0  0  0  0  0  0  0  0  0
   -5.4797   19.4635  -33.7630 H   0  0  0  0  0  0  0  0  0  0  0  0
   -6.4613   23.4902  -32.0048 H   0  0  0  0  0  0  0  0  0  0  0  0
   -7.4341   22.9754  -33.4260 H   0  0  0  0  0  0  0  0  0  0  0  0
   -8.1666   22.6917  -30.4651 H   0  0  0  0  0  0  0  0  0  0  0  0
   -8.9704   23.7248  -31.7097 H   0  0  0  0  0  0  0  0  0  0  0  0
   -8.4003   20.4832  -30.4817 H   0  0  0  0  0  0  0  0  0  0  0  0
   -9.4090   19.6600  -31.7328 H   0  0  0  0  0  0  0  0  0  0  0  0
   -6.9109   19.3548  -32.0458 H   0  0  0  0  0  0  0  0  0  0  0  0
   -7.7504   20.0935  -33.4517 H   0  0  0  0  0  0  0  0  0  0  0  0
   -4.0615   21.7221  -29.3976 H   0  0  0  0  0  0  0  0  0  0  0  0
   -0.7366   22.1007  -26.6626 H   0  0  0  0  0  0  0  0  0  0  0  0
   -0.3148   24.4171  -27.4808 H   0  0  0  0  0  0  0  0  0  0  0  0
  1  2  2  0
  2  3  1  0
  3  4  1  0
  4  5  2  0
  5  6  1  0
  6  7  1  0
  7  8  2  0
  7  9  2  0
  7 10  1  0
 10 11  1  0
 11 12  1  0
 12 13  1  0
 13 14  1  0
  6 15  2  0
 15 16  1  0
 16 17  2  0
 17 18  1  0
 18 19  1  0
 19 20  1  0
 20 21  1  0
 21 22  1  0
 22 23  1  0
  2 24  1  0
 24 25  2  0
 25 26  1  0
 26 27  1  0
 26 28  2  0
 28 29  1  0
 29 30  2  0
 30 31  1  0
 17  4  1  0
 23 18  1  0
 30 24  1  0
 14 10  1  0
  5 32  1  0
 11 33  1  0
 11 34  1  0
 12 35  1  0
 12 36  1  0
 13 37  1  0
 13 38  1  0
 14 39  1  0
 14 40  1  0
 15 41  1  0
 16 42  1  0
 19 43  1  0
 19 44  1  0
 20 45  1  0
 20 46  1  0
 22 47  1  0
 22 48  1  0
 23 49  1  0
 23 50  1  0
 25 51  1  0
 28 52  1  0
 29 53  1  0
M  CHG  2   3  -1  31  -1
M  END
>  <UniqueID>  (43) 
42

>  <SMILES>  (43) 
O=C([N-]c1cc(S(=O)(=O)N2CCCC2)ccc1N1CCOCC1)c1cc(Cl)ccc1[O-]

>  <Energy>  (43) 
70.20704109293499

>  <Genealogy>  (43) 
O=C([N-]c1cc(S(=O)(=O)N2CCCC2)ccc1N1CCOCC1)c1cc(Cl)ccc1[O-] (protonated)
O=C([N-]c1cc(S(=O)(=O)N2CCCC2)ccc1N1CCOCC1)c1cc(Cl)ccc1[O-] (3D coordinates assigned)
O=C([N-]c1cc(S(=O)(=O)N2CCCC2)ccc1N1CCOCC1)c1cc(Cl)ccc1[O-] (nonaromatic ring conformer: 70.20704109293499 kcal/mol)

>  <smiles>  (43) 
O=C(Nc1cc(S(=O)(=O)N2CCCC2)ccc1N1CCOCC1)c1cc(Cl)ccc1O

>  <score_type>  (43) 
oracle

>  <origin>  (43) 
adgpu

>  <m_score__min__energy>  (43) 
-13.859999999999999

>  <m_primary>  (43) 
energy

$$$$
43:0
     RDKit          3D

 44 46  0  0  0  0  0  0  0  0999 V2000
   -3.4820   20.2480  -33.8520 O   0  0  0  0  0  0  0  0  0  0  0  0
   -4.0410   20.4200  -32.7320 C   0  0  0  0  0  0  0  0  0  0  0  0
   -3.2420   20.9930  -31.6160 C   0  0  0  0  0  0  0  0  0  0  0  0
   -2.2200   20.2590  -30.9890 C   0  0  0  0  0  0  0  0  0  0  0  0
   -1.4800   20.8210  -29.9470 C   0  0  0  0  0  0  0  0  0  0  0  0
   -1.7400   22.1230  -29.5150 C   0  0  0  0  0  0  0  0  0  0  0  0
   -0.7740   22.7710  -28.1930 Cl  0  0  0  0  0  0  0  0  0  0  0  0
   -2.7510   22.8800  -30.1380 C   0  0  0  0  0  0  0  0  0  0  0  0
   -3.1180   24.5270  -29.6070 S   0  0  0  0  0  0  0  0  0  0  0  0
   -1.8500   25.2760  -29.2980 O   0  0  0  0  0  0  0  0  0  0  0  0
   -3.9530   24.4640  -28.3600 O   0  0  0  0  0  0  0  0  0  0  0  0
   -3.9950   25.3760  -30.8420 N   0  0  0  0  0  0  0  0  0  0  0  0
   -5.3900   25.5320  -30.4420 C   0  0  0  0  0  0  0  0  0  0  0  0
   -6.1390   24.2760  -30.7760 C   0  0  0  0  0  0  0  0  0  0  0  0
   -6.4360   23.9550  -32.1090 C   0  0  0  0  0  0  0  0  0  0  0  0
   -7.1670   22.7990  -32.3920 C   0  0  0  0  0  0  0  0  0  0  0  0
   -7.5980   21.9990  -31.3810 N   0  0  0  0  0  0  0  0  0  0  0  0
   -7.3370   22.2940  -30.0790 C   0  0  0  0  0  0  0  0  0  0  0  0
   -6.6100   23.4410  -29.7520 C   0  0  0  0  0  0  0  0  0  0  0  0
   -3.4910   22.3090  -31.1860 C   0  0  0  0  0  0  0  0  0  0  0  0
   -5.4290   20.0310  -32.5590 N   0  0  0  0  0  0  0  0  0  0  0  0
   -5.5220   18.9410  -31.5590 C   0  0  0  0  0  0  0  0  0  0  0  0
   -6.8000   18.1110  -31.7680 C   0  0  0  0  0  0  0  0  0  0  0  0
   -6.8770   17.4800  -33.0410 O   0  0  0  0  0  0  0  0  0  0  0  0
   -6.1290   18.1400  -34.0530 C   0  0  0  0  0  0  0  0  0  0  0  0
   -6.0530   19.6670  -33.8600 C   0  0  0  0  0  0  0  0  0  0  0  0
   -2.0016   19.2336  -31.3221 H   0  0  0  0  0  0  0  0  0  0  0  0
   -0.6861   20.2335  -29.4627 H   0  0  0  0  0  0  0  0  0  0  0  0
   -5.4444   25.7165  -29.3589 H   0  0  0  0  0  0  0  0  0  0  0  0
   -5.8362   26.3833  -30.9769 H   0  0  0  0  0  0  0  0  0  0  0  0
   -6.0956   24.6090  -32.9254 H   0  0  0  0  0  0  0  0  0  0  0  0
   -7.3945   22.5353  -33.4354 H   0  0  0  0  0  0  0  0  0  0  0  0
   -7.6992   21.6279  -29.2820 H   0  0  0  0  0  0  0  0  0  0  0  0
   -6.4083   23.6877  -28.6992 H   0  0  0  0  0  0  0  0  0  0  0  0
   -4.2775   22.8999  -31.6783 H   0  0  0  0  0  0  0  0  0  0  0  0
   -5.9690   20.8500  -32.1970 H   0  0  0  0  0  0  0  0  0  0  0  0
   -4.6455   18.2840  -31.6600 H   0  0  0  0  0  0  0  0  0  0  0  0
   -5.5539   19.3879  -30.5544 H   0  0  0  0  0  0  0  0  0  0  0  0
   -6.8373   17.3317  -30.9925 H   0  0  0  0  0  0  0  0  0  0  0  0
   -7.6475   18.8096  -31.7066 H   0  0  0  0  0  0  0  0  0  0  0  0
   -5.1056   17.7367  -34.0493 H   0  0  0  0  0  0  0  0  0  0  0  0
   -6.6438   17.9585  -35.0080 H   0  0  0  0  0  0  0  0  0  0  0  0
   -5.4540   20.0992  -34.6751 H   0  0  0  0  0  0  0  0  0  0  0  0
   -7.0790   20.0635  -33.8690 H   0  0  0  0  0  0  0  0  0  0  0  0
  1  2  2  0
  2  3  1  0
  3  4  2  0
  4  5  1  0
  5  6  2  0
  6  7  1  0
  6  8  1  0
  8  9  1  0
  9 10  2  0
  9 11  2  0
  9 12  1  0
 12 13  1  0
 13 14  1  0
 14 15  2  0
 15 16  1  0
 16 17  2  0
 17 18  1  0
 18 19  2  0
  8 20  2  0
  2 21  1  0
 21 22  1  0
 22 23  1  0
 23 24  1  0
 24 25  1  0
 25 26  1  0
 20  3  1  0
 26 21  1  0
 19 14  1  0
  4 27  1  0
  5 28  1  0
 13 29  1  0
 13 30  1  0
 15 31  1  0
 16 32  1  0
 18 33  1  0
 19 34  1  0
 20 35  1  0
 21 36  1  0
 22 37  1  0
 22 38  1  0
 23 39  1  0
 23 40  1  0
 25 41  1  0
 25 42  1  0
 26 43  1  0
 26 44  1  0
M  CHG  2  12  -1  21   1
M  END
>  <UniqueID>  (44) 
43

>  <SMILES>  (44) 
O=C(c1ccc(Cl)c(S(=O)(=O)[N-]Cc2ccncc2)c1)[NH+]1CCOCC1

>  <Energy>  (44) 
63.876151123737166

>  <Genealogy>  (44) 
O=C(c1ccc(Cl)c(S(=O)(=O)[N-]Cc2ccncc2)c1)[NH+]1CCOCC1 (protonated)
O=C(c1ccc(Cl)c(S(=O)(=O)[N-]Cc2ccncc2)c1)[NH+]1CCOCC1 (3D coordinates assigned)
O=C(c1ccc(Cl)c(S(=O)(=O)[N-]Cc2ccncc2)c1)[NH+]1CCOCC1 (nonaromatic ring conformer: 63.876151123737166 kcal/mol)

>  <smiles>  (44) 
O=C(c1ccc(Cl)c(S(=O)(=O)NCc2ccncc2)c1)N1CCOCC1

>  <score_type>  (44) 
oracle

>  <origin>  (44) 
adgpu

>  <m_score__min__energy>  (44) 
-9.5899999999999999

>  <m_primary>  (44) 
energy

$$$$
44:0
     RDKit          3D

 55 58  0  0  0  0  0  0  0  0999 V2000
   -8.0230   20.7190  -32.3300 C   0  0  0  0  0  0  0  0  0  0  0  0
   -7.2110   21.8970  -31.8660 C   0  0  0  0  0  0  0  0  0  0  0  0
   -7.7680   22.8170  -30.9640 C   0  0  0  0  0  0  0  0  0  0  0  0
   -7.0380   23.9290  -30.5420 C   0  0  0  0  0  0  0  0  0  0  0  0
   -5.7320   24.1410  -31.0100 C   0  0  0  0  0  0  0  0  0  0  0  0
   -4.9590   25.3280  -30.5810 C   0  0  0  0  0  0  0  0  0  0  0  0
   -5.5600   26.4150  -30.3740 O   0  0  0  0  0  0  0  0  0  0  0  0
   -3.5330   25.2920  -30.4280 N   0  0  0  0  0  0  0  0  0  0  0  0
   -2.7960   24.3970  -29.5810 C   0  0  0  0  0  0  0  0  0  0  0  0
   -2.0630   24.9240  -28.5150 C   0  0  0  0  0  0  0  0  0  0  0  0
   -1.3310   24.0830  -27.6750 C   0  0  0  0  0  0  0  0  0  0  0  0
   -1.3240   22.6970  -27.8890 C   0  0  0  0  0  0  0  0  0  0  0  0
   -2.1010   22.1520  -28.9310 C   0  0  0  0  0  0  0  0  0  0  0  0
   -2.8300   23.0050  -29.7710 C   0  0  0  0  0  0  0  0  0  0  0  0
   -2.0730   20.6710  -29.2270 C   0  0  0  0  0  0  0  0  0  0  0  0
   -1.6530   19.8580  -28.0700 N   0  0  0  0  0  0  0  0  0  0  0  0
   -2.7380   19.7000  -27.0850 C   0  0  0  0  0  0  0  0  0  0  0  0
   -0.4100   20.3780  -27.4680 C   0  0  0  0  0  0  0  0  0  0  0  0
   -0.5680   21.8090  -26.9350 C   0  0  0  0  0  0  0  0  0  0  0  0
   -5.1610   23.2090  -31.8890 C   0  0  0  0  0  0  0  0  0  0  0  0
   -5.8920   22.0950  -32.3290 C   0  0  0  0  0  0  0  0  0  0  0  0
   -5.2910   21.1710  -33.2450 N   0  0  0  0  0  0  0  0  0  0  0  0
   -4.3210   19.8580  -32.6690 S   0  0  0  0  0  0  0  0  0  0  0  0
   -4.2710   19.9080  -31.1670 O   0  0  0  0  0  0  0  0  0  0  0  0
   -2.9160   19.9700  -33.1900 O   0  0  0  0  0  0  0  0  0  0  0  0
   -5.0360   18.3390  -33.1990 C   0  0  0  0  0  0  0  0  0  0  0  0
   -4.3530   17.5280  -34.1180 C   0  0  0  0  0  0  0  0  0  0  0  0
   -4.9270   16.3320  -34.5620 C   0  0  0  0  0  0  0  0  0  0  0  0
   -6.1840   15.9430  -34.0910 C   0  0  0  0  0  0  0  0  0  0  0  0
   -6.8700   16.7470  -33.1790 C   0  0  0  0  0  0  0  0  0  0  0  0
   -6.3010   17.9450  -32.7360 C   0  0  0  0  0  0  0  0  0  0  0  0
   -8.4025   20.1684  -31.4566 H   0  0  0  0  0  0  0  0  0  0  0  0
   -8.8696   21.0733  -32.9364 H   0  0  0  0  0  0  0  0  0  0  0  0
   -7.3907   20.0538  -32.9364 H   0  0  0  0  0  0  0  0  0  0  0  0
   -8.7891   22.6600  -30.5863 H   0  0  0  0  0  0  0  0  0  0  0  0
   -7.4891   24.6439  -29.8381 H   0  0  0  0  0  0  0  0  0  0  0  0
   -2.0626   26.0094  -28.3362 H   0  0  0  0  0  0  0  0  0  0  0  0
   -0.7561   24.5101  -26.8401 H   0  0  0  0  0  0  0  0  0  0  0  0
   -3.4343   22.5809  -30.5865 H   0  0  0  0  0  0  0  0  0  0  0  0
   -3.0825   20.3551  -29.5290 H   0  0  0  0  0  0  0  0  0  0  0  0
   -1.3349   20.5100  -30.0265 H   0  0  0  0  0  0  0  0  0  0  0  0
   -2.3221   19.7606  -26.0685 H   0  0  0  0  0  0  0  0  0  0  0  0
   -3.4803   20.4995  -27.2257 H   0  0  0  0  0  0  0  0  0  0  0  0
   -3.2214   18.7220  -27.2257 H   0  0  0  0  0  0  0  0  0  0  0  0
   -0.1202   19.7212  -26.6345 H   0  0  0  0  0  0  0  0  0  0  0  0
    0.3591   20.3975  -28.2542 H   0  0  0  0  0  0  0  0  0  0  0  0
   -1.1125   21.7721  -25.9799 H   0  0  0  0  0  0  0  0  0  0  0  0
    0.4391   22.2330  -26.8087 H   0  0  0  0  0  0  0  0  0  0  0  0
   -4.1277   23.3531  -32.2376 H   0  0  0  0  0  0  0  0  0  0  0  0
   -5.1650   21.4540  -34.2430 H   0  0  0  0  0  0  0  0  0  0  0  0
   -3.3639   17.8333  -34.4902 H   0  0  0  0  0  0  0  0  0  0  0  0
   -4.3890   15.6977  -35.2819 H   0  0  0  0  0  0  0  0  0  0  0  0
   -6.6336   15.0015  -34.4396 H   0  0  0  0  0  0  0  0  0  0  0  0
   -7.8586   16.4380  -32.8087 H   0  0  0  0  0  0  0  0  0  0  0  0
   -6.8463   18.5804  -32.0226 H   0  0  0  0  0  0  0  0  0  0  0  0
  1  2  1  0
  2  3  2  0
  3  4  1  0
  4  5  2  0
  5  6  1  0
  6  7  2  0
  6  8  1  0
  8  9  1  0
  9 10  2  0
 10 11  1  0
 11 12  2  0
 12 13  1  0
 13 14  2  0
 13 15  1  0
 15 16  1  0
 16 17  1  0
 16 18  1  0
 18 19  1  0
  5 20  1  0
 20 21  2  0
 21 22  1  0
 22 23  1  0
 23 24  2  0
 23 25  2  0
 23 26  1  0
 26 27  2  0
 27 28  1  0
 28 29  2  0
 29 30  1  0
 30 31  2  0
 21  2  1  0
 31 26  1  0
 14  9  1  0
 19 12  1  0
  1 32  1  0
  1 33  1  0
  1 34  1  0
  3 35  1  0
  4 36  1  0
 10 37  1  0
 11 38  1  0
 14 39  1  0
 15 40  1  0
 15 41  1  0
 17 42  1  0
 17 43  1  0
 17 44  1  0
 18 45  1  0
 18 46  1  0
 19 47  1  0
 19 48  1  0
 20 49  1  0
 22 50  1  0
 27 51  1  0
 28 52  1  0
 29 53  1  0
 30 54  1  0
 31 55  1  0
M  CHG  1   8  -1
M  END
>  <UniqueID>  (45) 
44

>  <SMILES>  (45) 
Cc1ccc(C(=O)[N-]c2ccc3c(c2)CN(C)CC3)cc1NS(=O)(=O)c1ccccc1

>  <Energy>  (45) 
73.90839047119253

>  <Genealogy>  (45) 
Cc1ccc(C(=O)[N-]c2ccc3c(c2)CN(C)CC3)cc1NS(=O)(=O)c1ccccc1 (protonated)
Cc1ccc(C(=O)[N-]c2ccc3c(c2)CN(C)CC3)cc1NS(=O)(=O)c1ccccc1 (3D coordinates assigned)
Cc1ccc(C(=O)[N-]c2ccc3c(c2)CN(C)CC3)cc1NS(=O)(=O)c1ccccc1 (nonaromatic ring conformer: 73.90839047119253 kcal/mol)

>  <smiles>  (45) 
Cc1ccc(C(=O)Nc2ccc3c(c2)CN(C)CC3)cc1NS(=O)(=O)c1ccccc1

>  <score_type>  (45) 
oracle

>  <origin>  (45) 
adgpu

>  <m_score__min__energy>  (45) 
-12.16

>  <m_primary>  (45) 
energy

$$$$
45:0
     RDKit          3D

 57 60  0  0  0  0  0  0  0  0999 V2000
   -8.6100   20.4160  -33.0770 N   0  0  0  0  0  0  0  0  0  0  0  0
   -7.7890   21.3770  -32.4000 C   0  0  0  0  0  0  0  0  0  0  0  0
   -8.3840   22.5530  -31.9220 C   0  0  0  0  0  0  0  0  0  0  0  0
   -7.6220   23.5280  -31.2820 C   0  0  0  0  0  0  0  0  0  0  0  0
   -6.2470   23.3460  -31.1090 C   0  0  0  0  0  0  0  0  0  0  0  0
   -5.2830   24.6610  -30.4370 S   0  0  0  0  0  0  0  0  0  0  0  0
   -5.6040   24.8840  -28.9850 O   0  0  0  0  0  0  0  0  0  0  0  0
   -5.5730   25.9190  -31.2040 O   0  0  0  0  0  0  0  0  0  0  0  0
   -3.6050   24.2560  -30.6040 N   0  0  0  0  0  0  0  0  0  0  0  0
   -2.9540   23.2780  -29.7830 C   0  0  0  0  0  0  0  0  0  0  0  0
   -2.9860   21.9340  -30.1730 C   0  0  0  0  0  0  0  0  0  0  0  0
   -2.5000   20.9410  -29.3180 C   0  0  0  0  0  0  0  0  0  0  0  0
   -1.9620   21.2870  -28.0700 C   0  0  0  0  0  0  0  0  0  0  0  0
   -1.4880   20.0330  -26.9240 S   0  0  0  0  0  0  0  0  0  0  0  0
   -1.3500   20.6370  -25.5530 O   0  0  0  0  0  0  0  0  0  0  0  0
   -2.5650   18.9840  -26.8650 O   0  0  0  0  0  0  0  0  0  0  0  0
    0.0190   19.2810  -27.3900 N   0  0  0  0  0  0  0  0  0  0  0  0
   -0.1480   17.8260  -27.5250 C   0  0  0  0  0  0  0  0  0  0  0  0
    1.1990   17.1740  -27.9060 C   0  0  0  0  0  0  0  0  0  0  0  0
    2.1910   18.1370  -28.2210 O   0  0  0  0  0  0  0  0  0  0  0  0
    1.6990   19.0330  -29.1990 C   0  0  0  0  0  0  0  0  0  0  0  0
    0.5130   19.8540  -28.6530 C   0  0  0  0  0  0  0  0  0  0  0  0
   -1.8610   22.6360  -27.7110 C   0  0  0  0  0  0  0  0  0  0  0  0
   -2.3510   23.6280  -28.5630 C   0  0  0  0  0  0  0  0  0  0  0  0
   -5.6420   22.1690  -31.5640 C   0  0  0  0  0  0  0  0  0  0  0  0
   -6.3990   21.1770  -32.2120 C   0  0  0  0  0  0  0  0  0  0  0  0
   -5.5810   19.7150  -32.7800 S   0  0  0  0  0  0  0  0  0  0  0  0
   -6.1180   19.2950  -34.1210 O   0  0  0  0  0  0  0  0  0  0  0  0
   -5.8360   18.6100  -31.7940 O   0  0  0  0  0  0  0  0  0  0  0  0
   -3.8520   20.0140  -32.9450 C   0  0  0  0  0  0  0  0  0  0  0  0
   -3.3830   21.2840  -33.3120 C   0  0  0  0  0  0  0  0  0  0  0  0
   -2.0100   21.5110  -33.4560 C   0  0  0  0  0  0  0  0  0  0  0  0
   -1.1020   20.4740  -33.2300 C   0  0  0  0  0  0  0  0  0  0  0  0
   -1.5640   19.2080  -32.8570 C   0  0  0  0  0  0  0  0  0  0  0  0
   -2.9360   18.9780  -32.7120 C   0  0  0  0  0  0  0  0  0  0  0  0
   -9.6180   20.3100  -32.8220 H   0  0  0  0  0  0  0  0  0  0  0  0
   -8.2510   19.8120  -33.8460 H   0  0  0  0  0  0  0  0  0  0  0  0
   -9.4651   22.7077  -32.0538 H   0  0  0  0  0  0  0  0  0  0  0  0
   -8.1043   24.4446  -30.9114 H   0  0  0  0  0  0  0  0  0  0  0  0
   -3.3952   21.6584  -31.1561 H   0  0  0  0  0  0  0  0  0  0  0  0
   -2.5396   19.8854  -29.6247 H   0  0  0  0  0  0  0  0  0  0  0  0
   -0.4973   17.4090  -26.5689 H   0  0  0  0  0  0  0  0  0  0  0  0
   -0.8861   17.6184  -28.3138 H   0  0  0  0  0  0  0  0  0  0  0  0
    1.5509   16.5673  -27.0586 H   0  0  0  0  0  0  0  0  0  0  0  0
    1.0333   16.5554  -28.8004 H   0  0  0  0  0  0  0  0  0  0  0  0
    2.5055   19.7200  -29.4951 H   0  0  0  0  0  0  0  0  0  0  0  0
    1.3512   18.4495  -30.0642 H   0  0  0  0  0  0  0  0  0  0  0  0
    0.8417   20.8886  -28.4756 H   0  0  0  0  0  0  0  0  0  0  0  0
   -0.3011   19.8328  -29.3925 H   0  0  0  0  0  0  0  0  0  0  0  0
   -1.3943   22.9156  -26.7550 H   0  0  0  0  0  0  0  0  0  0  0  0
   -2.2646   24.6870  -28.2781 H   0  0  0  0  0  0  0  0  0  0  0  0
   -4.5629   22.0183  -31.4131 H   0  0  0  0  0  0  0  0  0  0  0  0
   -4.0961   22.1031  -33.4869 H   0  0  0  0  0  0  0  0  0  0  0  0
   -1.6453   22.5070  -33.7475 H   0  0  0  0  0  0  0  0  0  0  0  0
   -0.0229   20.6533  -33.3455 H   0  0  0  0  0  0  0  0  0  0  0  0
   -0.8480   18.3925  -32.6775 H   0  0  0  0  0  0  0  0  0  0  0  0
   -3.2972   17.9825  -32.4146 H   0  0  0  0  0  0  0  0  0  0  0  0
  1  2  1  0
  2  3  2  0
  3  4  1  0
  4  5  2  0
  5  6  1  0
  6  7  2  0
  6  8  2  0
  6  9  1  0
  9 10  1  0
 10 11  2  0
 11 12  1  0
 12 13  2  0
 13 14  1  0
 14 15  2  0
 14 16  2  0
 14 17  1  0
 17 18  1  0
 18 19  1  0
 19 20  1  0
 20 21  1  0
 21 22  1  0
 13 23  1  0
 23 24  2  0
  5 25  1  0
 25 26  2  0
 26 27  1  0
 27 28  2  0
 27 29  2  0
 27 30  1  0
 30 31  2  0
 31 32  1  0
 32 33  2  0
 33 34  1  0
 34 35  2  0
 26  2  1  0
 35 30  1  0
 24 10  1  0
 22 17  1  0
  1 36  1  0
  1 37  1  0
  3 38  1  0
  4 39  1  0
 11 40  1  0
 12 41  1  0
 18 42  1  0
 18 43  1  0
 19 44  1  0
 19 45  1  0
 21 46  1  0
 21 47  1  0
 22 48  1  0
 22 49  1  0
 23 50  1  0
 24 51  1  0
 25 52  1  0
 31 53  1  0
 32 54  1  0
 33 55  1  0
 34 56  1  0
 35 57  1  0
M  CHG  1   9  -1
M  END
>  <UniqueID>  (46) 
45

>  <SMILES>  (46) 
Nc1ccc(S(=O)(=O)[N-]c2ccc(S(=O)(=O)N3CCOCC3)cc2)cc1S(=O)(=O)c1ccccc1

>  <Energy>  (46) 
73.76398679074701

>  <Genealogy>  (46) 
Nc1ccc(S(=O)(=O)[N-]c2ccc(S(=O)(=O)N3CCOCC3)cc2)cc1S(=O)(=O)c1ccccc1 (protonated)
Nc1ccc(S(=O)(=O)[N-]c2ccc(S(=O)(=O)N3CCOCC3)cc2)cc1S(=O)(=O)c1ccccc1 (3D coordinates assigned)
Nc1ccc(S(=O)(=O)[N-]c2ccc(S(=O)(=O)N3CCOCC3)cc2)cc1S(=O)(=O)c1ccccc1 (nonaromatic ring conformer: 73.76398679074701 kcal/mol)

>  <smiles>  (46) 
Nc1ccc(S(=O)(=O)Nc2ccc(S(=O)(=O)N3CCOCC3)cc2)cc1S(=O)(=O)c1ccccc1

>  <score_type>  (46) 
oracle

>  <origin>  (46) 
adgpu

>  <m_score__min__energy>  (46) 
-11.52

>  <m_primary>  (46) 
energy

$$$$
46:0
     RDKit          3D

 50 52  0  0  0  0  0  0  0  0999 V2000
   -4.5410   16.3520  -34.9330 C   0  0  0  0  0  0  0  0  0  0  0  0
   -5.2530   16.4150  -33.6150 C   0  0  0  0  0  0  0  0  0  0  0  0
   -5.5140   15.3330  -33.0240 O   0  0  0  0  0  0  0  0  0  0  0  0
   -5.6360   17.6750  -33.0190 N   0  0  0  0  0  0  0  0  0  0  0  0
   -4.9010   18.9170  -33.3090 C   0  0  0  0  0  0  0  0  0  0  0  0
   -5.8790   20.0840  -33.4430 C   0  0  0  0  0  0  0  0  0  0  0  0
   -6.7920   20.1090  -32.2970 N   0  0  0  0  0  0  0  0  0  0  0  0
   -7.3150   21.3670  -31.8280 C   0  0  0  0  0  0  0  0  0  0  0  0
   -8.5660   21.5210  -31.7480 O   0  0  0  0  0  0  0  0  0  0  0  0
   -6.4190   22.4860  -31.4450 C   0  0  0  0  0  0  0  0  0  0  0  0
   -6.9400   23.7640  -31.1700 C   0  0  0  0  0  0  0  0  0  0  0  0
   -6.0870   24.8190  -30.8420 C   0  0  0  0  0  0  0  0  0  0  0  0
   -4.7040   24.6220  -30.8080 C   0  0  0  0  0  0  0  0  0  0  0  0
   -3.8700   25.6880  -30.4950 O   0  0  0  0  0  0  0  0  0  0  0  0
   -4.1610   23.3620  -31.0910 C   0  0  0  0  0  0  0  0  0  0  0  0
   -2.7350   23.2010  -31.0610 N   0  0  0  0  0  0  0  0  0  0  0  0
   -1.8690   21.8150  -30.4790 S   0  0  0  0  0  0  0  0  0  0  0  0
   -2.6490   21.2010  -29.3510 O   0  0  0  0  0  0  0  0  0  0  0  0
   -0.5250   22.2250  -29.9480 O   0  0  0  0  0  0  0  0  0  0  0  0
   -1.7010   20.6270  -31.7700 C   0  0  0  0  0  0  0  0  0  0  0  0
   -1.1700   19.3580  -31.5120 C   0  0  0  0  0  0  0  0  0  0  0  0
   -1.0090   18.4340  -32.5500 C   0  0  0  0  0  0  0  0  0  0  0  0
   -1.3990   18.7650  -33.8560 C   0  0  0  0  0  0  0  0  0  0  0  0
   -1.1950   17.7980  -34.9870 C   0  0  0  0  0  0  0  0  0  0  0  0
   -1.9400   20.0340  -34.1110 C   0  0  0  0  0  0  0  0  0  0  0  0
   -2.0840   20.9620  -33.0750 C   0  0  0  0  0  0  0  0  0  0  0  0
   -5.0260   22.2980  -31.4090 C   0  0  0  0  0  0  0  0  0  0  0  0
   -7.5280   18.8760  -31.9990 C   0  0  0  0  0  0  0  0  0  0  0  0
   -6.5600   17.6960  -31.8760 C   0  0  0  0  0  0  0  0  0  0  0  0
   -3.4588   16.2562  -34.7609 H   0  0  0  0  0  0  0  0  0  0  0  0
   -4.9001   15.4821  -35.5025 H   0  0  0  0  0  0  0  0  0  0  0  0
   -4.7418   17.2714  -35.5025 H   0  0  0  0  0  0  0  0  0  0  0  0
   -4.1973   19.1237  -32.4892 H   0  0  0  0  0  0  0  0  0  0  0  0
   -4.3492   18.7980  -34.2531 H   0  0  0  0  0  0  0  0  0  0  0  0
   -5.3160   21.0282  -33.4805 H   0  0  0  0  0  0  0  0  0  0  0  0
   -6.4634   19.9602  -34.3667 H   0  0  0  0  0  0  0  0  0  0  0  0
   -8.0261   23.9326  -31.2138 H   0  0  0  0  0  0  0  0  0  0  0  0
   -6.5051   25.8095  -30.6093 H   0  0  0  0  0  0  0  0  0  0  0  0
   -0.8776   19.0856  -30.4872 H   0  0  0  0  0  0  0  0  0  0  0  0
   -0.5752   17.4449  -32.3413 H   0  0  0  0  0  0  0  0  0  0  0  0
   -0.9840   16.7978  -34.5807 H   0  0  0  0  0  0  0  0  0  0  0  0
   -2.1046   17.7586  -35.6043 H   0  0  0  0  0  0  0  0  0  0  0  0
   -0.3470   18.1294  -35.6043 H   0  0  0  0  0  0  0  0  0  0  0  0
   -2.2526   20.3004  -35.1314 H   0  0  0  0  0  0  0  0  0  0  0  0
   -2.4995   21.9585  -33.2856 H   0  0  0  0  0  0  0  0  0  0  0  0
   -4.6065   21.3060  -31.6324 H   0  0  0  0  0  0  0  0  0  0  0  0
   -8.0729   18.9987  -31.0514 H   0  0  0  0  0  0  0  0  0  0  0  0
   -8.2353   18.6749  -32.8171 H   0  0  0  0  0  0  0  0  0  0  0  0
   -5.9833   17.7949  -30.9445 H   0  0  0  0  0  0  0  0  0  0  0  0
   -7.1364   16.7592  -31.8637 H   0  0  0  0  0  0  0  0  0  0  0  0
  1  2  1  0
  2  3  2  0
  2  4  1  0
  4  5  1  0
  5  6  1  0
  6  7  1  0
  7  8  1  0
  8  9  2  0
  8 10  1  0
 10 11  2  0
 11 12  1  0
 12 13  2  0
 13 14  1  0
 13 15  1  0
 15 16  1  0
 16 17  1  0
 17 18  2  0
 17 19  2  0
 17 20  1  0
 20 21  2  0
 21 22  1  0
 22 23  2  0
 23 24  1  0
 23 25  1  0
 25 26  2  0
 15 27  2  0
  7 28  1  0
 28 29  1  0
 29  4  1  0
 27 10  1  0
 26 20  1  0
  1 30  1  0
  1 31  1  0
  1 32  1  0
  5 33  1  0
  5 34  1  0
  6 35  1  0
  6 36  1  0
 11 37  1  0
 12 38  1  0
 21 39  1  0
 22 40  1  0
 24 41  1  0
 24 42  1  0
 24 43  1  0
 25 44  1  0
 26 45  1  0
 27 46  1  0
 28 47  1  0
 28 48  1  0
 29 49  1  0
 29 50  1  0
M  CHG  2  14  -1  16  -1
M  END
>  <UniqueID>  (47) 
46

>  <SMILES>  (47) 
CC(=O)N1CCN(C(=O)c2ccc([O-])c([N-]S(=O)(=O)c3ccc(C)cc3)c2)CC1

>  <Energy>  (47) 
58.6629192481824

>  <Genealogy>  (47) 
CC(=O)N1CCN(C(=O)c2ccc([O-])c([N-]S(=O)(=O)c3ccc(C)cc3)c2)CC1 (protonated)
CC(=O)N1CCN(C(=O)c2ccc([O-])c([N-]S(=O)(=O)c3ccc(C)cc3)c2)CC1 (3D coordinates assigned)
CC(=O)N1CCN(C(=O)c2ccc([O-])c([N-]S(=O)(=O)c3ccc(C)cc3)c2)CC1 (nonaromatic ring conformer: 58.6629192481824 kcal/mol)

>  <smiles>  (47) 
CC(=O)N1CCN(C(=O)c2ccc(O)c(NS(=O)(=O)c3ccc(C)cc3)c2)CC1

>  <score_type>  (47) 
oracle

>  <origin>  (47) 
adgpu

>  <m_score__min__energy>  (47) 
-13.68

>  <m_primary>  (47) 
energy

$$$$
47:0
     RDKit          3D

 49 51  0  0  0  0  0  0  0  0999 V2000
   -4.1490   15.5330  -34.8620 C   0  0  0  0  0  0  0  0  0  0  0  0
   -5.1630   15.6290  -33.7140 C   0  0  0  0  0  0  0  0  0  0  0  0
   -6.4880   16.2460  -34.2210 C   0  0  0  0  0  0  0  0  0  0  0  0
   -7.2550   16.9320  -33.0800 C   0  0  0  0  0  0  0  0  0  0  0  0
   -6.4800   18.0220  -32.4350 N   0  0  0  0  0  0  0  0  0  0  0  0
   -6.9840   19.5960  -33.0110 S   0  0  0  0  0  0  0  0  0  0  0  0
   -8.4860   19.6640  -33.0460 O   0  0  0  0  0  0  0  0  0  0  0  0
   -6.4750   19.8030  -34.4110 O   0  0  0  0  0  0  0  0  0  0  0  0
   -6.3660   20.8790  -31.9690 C   0  0  0  0  0  0  0  0  0  0  0  0
   -7.2120   21.9180  -31.5550 C   0  0  0  0  0  0  0  0  0  0  0  0
   -6.6930   23.0080  -30.8500 C   0  0  0  0  0  0  0  0  0  0  0  0
   -5.3270   23.0600  -30.5420 C   0  0  0  0  0  0  0  0  0  0  0  0
   -4.6290   24.4960  -29.7990 S   0  0  0  0  0  0  0  0  0  0  0  0
   -5.7360   25.3310  -29.2190 O   0  0  0  0  0  0  0  0  0  0  0  0
   -3.8970   25.3100  -30.8310 O   0  0  0  0  0  0  0  0  0  0  0  0
   -3.5280   24.0140  -28.5310 N   0  0  0  0  0  0  0  0  0  0  0  0
   -2.3150   24.8550  -28.5700 C   0  0  0  0  0  0  0  0  0  0  0  0
   -1.5850   24.8160  -27.2190 C   0  0  0  0  0  0  0  0  0  0  0  0
   -2.3640   25.2710  -26.1180 O   0  0  0  0  0  0  0  0  0  0  0  0
   -3.7650   25.2240  -26.3500 C   0  0  0  0  0  0  0  0  0  0  0  0
   -4.1970   24.0230  -27.2110 C   0  0  0  0  0  0  0  0  0  0  0  0
   -4.4910   22.0010  -30.9140 C   0  0  0  0  0  0  0  0  0  0  0  0
   -5.0090   20.9130  -31.6210 C   0  0  0  0  0  0  0  0  0  0  0  0
   -5.0110   17.8800  -32.5420 C   0  0  0  0  0  0  0  0  0  0  0  0
   -4.5800   16.4100  -32.5110 C   0  0  0  0  0  0  0  0  0  0  0  0
   -3.1344   15.4369  -34.4480 H   0  0  0  0  0  0  0  0  0  0  0  0
   -4.3775   14.6525  -35.4804 H   0  0  0  0  0  0  0  0  0  0  0  0
   -4.2082   16.4408  -35.4804 H   0  0  0  0  0  0  0  0  0  0  0  0
   -5.3815   14.6131  -33.3530 H   0  0  0  0  0  0  0  0  0  0  0  0
   -6.2625   16.9897  -34.9995 H   0  0  0  0  0  0  0  0  0  0  0  0
   -7.1155   15.4382  -34.6257 H   0  0  0  0  0  0  0  0  0  0  0  0
   -8.1845   17.3562  -33.4875 H   0  0  0  0  0  0  0  0  0  0  0  0
   -7.4543   16.1701  -32.3120 H   0  0  0  0  0  0  0  0  0  0  0  0
   -8.2867   21.8752  -31.7856 H   0  0  0  0  0  0  0  0  0  0  0  0
   -7.3581   23.8262  -30.5365 H   0  0  0  0  0  0  0  0  0  0  0  0
   -1.6415   24.4815  -29.3555 H   0  0  0  0  0  0  0  0  0  0  0  0
   -2.6104   25.8929  -28.7831 H   0  0  0  0  0  0  0  0  0  0  0  0
   -1.2826   23.7771  -27.0209 H   0  0  0  0  0  0  0  0  0  0  0  0
   -0.7293   25.5020  -27.3038 H   0  0  0  0  0  0  0  0  0  0  0  0
   -4.2783   25.1608  -25.3791 H   0  0  0  0  0  0  0  0  0  0  0  0
   -4.0358   26.1362  -26.9018 H   0  0  0  0  0  0  0  0  0  0  0  0
   -3.9424   23.0950  -26.6782 H   0  0  0  0  0  0  0  0  0  0  0  0
   -5.2809   24.1013  -27.3815 H   0  0  0  0  0  0  0  0  0  0  0  0
   -3.4236   22.0253  -30.6491 H   0  0  0  0  0  0  0  0  0  0  0  0
   -4.3493   20.0801  -31.9055 H   0  0  0  0  0  0  0  0  0  0  0  0
   -4.6775   18.3294  -33.4890 H   0  0  0  0  0  0  0  0  0  0  0  0
   -4.5536   18.3897  -31.6812 H   0  0  0  0  0  0  0  0  0  0  0  0
   -3.4819   16.3574  -32.5475 H   0  0  0  0  0  0  0  0  0  0  0  0
   -4.9600   15.9556  -31.5841 H   0  0  0  0  0  0  0  0  0  0  0  0
  1  2  1  0
  2  3  1  0
  3  4  1  0
  4  5  1  0
  5  6  1  0
  6  7  2  0
  6  8  2  0
  6  9  1  0
  9 10  2  0
 10 11  1  0
 11 12  2  0
 12 13  1  0
 13 14  2  0
 13 15  2  0
 13 16  1  0
 16 17  1  0
 17 18  1  0
 18 19  1  0
 19 20  1  0
 20 21  1  0
 12 22  1  0
 22 23  2  0
  5 24  1  0
 24 25  1  0
 25  2  1  0
 23  9  1  0
 21 16  1  0
  1 26  1  0
  1 27  1  0
  1 28  1  0
  2 29  1  0
  3 30  1  0
  3 31  1  0
  4 32  1  0
  4 33  1  0
 10 34  1  0
 11 35  1  0
 17 36  1  0
 17 37  1  0
 18 38  1  0
 18 39  1  0
 20 40  1  0
 20 41  1  0
 21 42  1  0
 21 43  1  0
 22 44  1  0
 23 45  1  0
 24 46  1  0
 24 47  1  0
 25 48  1  0
 25 49  1  0
M  END
>  <UniqueID>  (48) 
47

>  <SMILES>  (48) 
CC1CCN(S(=O)(=O)c2ccc(S(=O)(=O)N3CCOCC3)cc2)CC1

>  <Energy>  (48) 
63.25590525052218

>  <Genealogy>  (48) 
CC1CCN(S(=O)(=O)c2ccc(S(=O)(=O)N3CCOCC3)cc2)CC1 (3D coordinates assigned)
CC1CCN(S(=O)(=O)c2ccc(S(=O)(=O)N3CCOCC3)cc2)CC1 (nonaromatic ring conformer: 63.25590525052218 kcal/mol)

>  <smiles>  (48) 
CC1CCN(S(=O)(=O)c2ccc(S(=O)(=O)N3CCOCC3)cc2)CC1

>  <score_type>  (48) 
oracle

>  <origin>  (48) 
adgpu

>  <m_score__min__energy>  (48) 
-9.7699999999999996

>  <m_primary>  (48) 
energy

$$$$
48:0
     RDKit          3D

 47 49  0  0  0  0  0  0  0  0999 V2000
   -0.8350   26.1920  -28.2720 H   0  0  0  0  0  0  0  0  0  0  0  0
   -0.6040   25.3140  -28.7880 N   0  0  0  0  0  0  0  0  0  0  0  0
   -1.5280   24.5530  -29.2750 C   0  0  0  0  0  0  0  0  0  0  0  0
   -1.1880   23.4220  -29.9420 N   0  0  0  0  0  0  0  0  0  0  0  0
   -2.1390   22.6080  -30.4650 C   0  0  0  0  0  0  0  0  0  0  0  0
   -1.8418   21.6996  -31.0095 H   0  0  0  0  0  0  0  0  0  0  0  0
   -3.4960   22.9170  -30.3160 C   0  0  0  0  0  0  0  0  0  0  0  0
   -4.5100   22.0150  -30.8970 C   0  0  0  0  0  0  0  0  0  0  0  0
   -5.6460   22.5470  -31.5260 C   0  0  0  0  0  0  0  0  0  0  0  0
   -5.7817   23.6372  -31.5810 H   0  0  0  0  0  0  0  0  0  0  0  0
   -6.6060   21.6970  -32.0830 C   0  0  0  0  0  0  0  0  0  0  0  0
   -7.4977   22.1199  -32.5687 H   0  0  0  0  0  0  0  0  0  0  0  0
   -6.4350   20.3080  -32.0240 C   0  0  0  0  0  0  0  0  0  0  0  0
   -7.6440   19.2270  -32.7110 S   0  0  0  0  0  0  0  0  0  0  0  0
   -8.6710   20.0510  -33.4370 O   0  0  0  0  0  0  0  0  0  0  0  0
   -8.3200   18.4500  -31.6140 O   0  0  0  0  0  0  0  0  0  0  0  0
   -6.8760   18.1180  -33.8220 N   0  0  0  0  0  0  0  0  0  0  0  0
   -5.8580   18.8080  -34.6510 C   0  0  0  0  0  0  0  0  0  0  0  0
   -5.9470   18.4510  -35.6876 H   0  0  0  0  0  0  0  0  0  0  0  0
   -6.0452   19.8894  -34.5766 H   0  0  0  0  0  0  0  0  0  0  0  0
   -4.4210   18.5490  -34.1620 C   0  0  0  0  0  0  0  0  0  0  0  0
   -3.7195   19.0437  -34.8499 H   0  0  0  0  0  0  0  0  0  0  0  0
   -4.3371   18.9510  -33.1415 H   0  0  0  0  0  0  0  0  0  0  0  0
   -4.0930   17.1030  -34.1060 N   0  0  0  0  0  0  0  0  0  0  0  0
   -3.3390   16.6770  -35.2960 C   0  0  0  0  0  0  0  0  0  0  0  0
   -2.4211   16.1584  -34.9822 H   0  0  0  0  0  0  0  0  0  0  0  0
   -3.9580   15.9951  -35.8976 H   0  0  0  0  0  0  0  0  0  0  0  0
   -3.0744   17.5591  -35.8976 H   0  0  0  0  0  0  0  0  0  0  0  0
   -5.2730   16.2310  -33.8990 C   0  0  0  0  0  0  0  0  0  0  0  0
   -5.6863   15.9484  -34.8784 H   0  0  0  0  0  0  0  0  0  0  0  0
   -4.9528   15.3390  -33.3407 H   0  0  0  0  0  0  0  0  0  0  0  0
   -6.3560   16.9470  -33.0880 C   0  0  0  0  0  0  0  0  0  0  0  0
   -7.1824   16.2474  -32.8941 H   0  0  0  0  0  0  0  0  0  0  0  0
   -5.9153   17.2928  -32.1413 H   0  0  0  0  0  0  0  0  0  0  0  0
   -5.2890   19.7760  -31.4180 C   0  0  0  0  0  0  0  0  0  0  0  0
   -5.1448   18.6861  -31.3808 H   0  0  0  0  0  0  0  0  0  0  0  0
   -4.3290   20.6240  -30.8610 C   0  0  0  0  0  0  0  0  0  0  0  0
   -3.4284   20.2001  -30.3927 H   0  0  0  0  0  0  0  0  0  0  0  0
   -3.8340   24.1000  -29.6200 C   0  0  0  0  0  0  0  0  0  0  0  0
   -5.2550   24.5820  -29.4790 C   0  0  0  0  0  0  0  0  0  0  0  0
   -5.9400   23.7405  -29.6596 H   0  0  0  0  0  0  0  0  0  0  0  0
   -5.3917   24.9783  -28.4620 H   0  0  0  0  0  0  0  0  0  0  0  0
   -5.5560   25.6940  -30.4790 C   0  0  0  0  0  0  0  0  0  0  0  0
   -5.8060   26.6175  -29.9362 H   0  0  0  0  0  0  0  0  0  0  0  0
   -4.6726   25.8678  -31.1110 H   0  0  0  0  0  0  0  0  0  0  0  0
   -6.4065   25.3985  -31.1110 H   0  0  0  0  0  0  0  0  0  0  0  0
   -2.8380   24.8850  -29.1280 N   0  0  0  0  0  0  0  0  0  0  0  0
  1  2  1  0
  2  3  2  0
  3  4  1  0
  4  5  2  0
  5  6  1  0
  5  7  1  0
  7  8  1  0
  8  9  2  0
  9 10  1  0
  9 11  1  0
 11 12  1  0
 11 13  2  0
 13 14  1  0
 14 15  2  0
 14 16  2  0
 14 17  1  0
 17 18  1  0
 18 19  1  0
 18 20  1  0
 18 21  1  0
 21 22  1  0
 21 23  1  0
 21 24  1  0
 24 25  1  0
 25 26  1  0
 25 27  1  0
 25 28  1  0
 24 29  1  0
 29 30  1  0
 29 31  1  0
 29 32  1  0
 32 33  1  0
 32 34  1  0
 13 35  1  0
 35 36  1  0
 35 37  2  0
 37 38  1  0
  7 39  2  0
 39 40  1  0
 40 41  1  0
 40 42  1  0
 40 43  1  0
 43 44  1  0
 43 45  1  0
 43 46  1  0
 39 47  1  0
 47  3  1  0
 37  8  1  0
 32 17  1  0
M  CHG  1  47  -1
M  END
>  <UniqueID>  (49) 
48

>  <SMILES>  (49) 
[H]/N=c1/ncc(-c2ccc(S(=O)(=O)N3CCN(C)CC3)cc2)c(CC)[n-]1

>  <Energy>  (49) 
63.23795938233487

>  <Genealogy>  (49) 
CCc1[n-]c(=N)ncc1-c1ccc(S(=O)(=O)N2CCN(C)CC2)cc1 (protonated)
[H]/N=c1/ncc(-c2ccc(S(=O)(=O)N3CCN(C)CC3)cc2)c(CC)[n-]1 (cis-trans isomerization)
[H]/N=c1/ncc(-c2ccc(S(=O)(=O)N3CCN(C)CC3)cc2)c(CC)[n-]1 (3D coordinates assigned)
[H]/N=c1/ncc(-c2ccc(S(=O)(=O)N3CCN(C)CC3)cc2)c(CC)[n-]1 (nonaromatic ring conformer: 63.23795938233487 kcal/mol)

>  <smiles>  (49) 
CCc1[nH]c(=N)ncc1-c1ccc(S(=O)(=O)N2CCN(C)CC2)cc1

>  <score_type>  (49) 
oracle

>  <origin>  (49) 
adgpu

>  <m_score__min__energy>  (49) 
-10

>  <m_primary>  (49) 
energy

$$$$
49:0
     RDKit          3D

 42 44  0  0  0  0  0  0  0  0999 V2000
   -0.1830   20.6130  -27.1050 N   0  0  0  0  0  0  0  0  0  0  0  0
   -0.7990   21.4010  -27.6880 C   0  0  0  0  0  0  0  0  0  0  0  0
   -1.5650   22.3790  -28.4140 C   0  0  0  0  0  0  0  0  0  0  0  0
   -2.6640   21.9810  -29.1820 C   0  0  0  0  0  0  0  0  0  0  0  0
   -3.4090   22.9310  -29.8860 C   0  0  0  0  0  0  0  0  0  0  0  0
   -3.0490   24.2900  -29.8420 C   0  0  0  0  0  0  0  0  0  0  0  0
   -3.8050   25.2870  -30.5460 N   0  0  0  0  0  0  0  0  0  0  0  0
   -5.2230   25.4810  -30.4650 C   0  0  0  0  0  0  0  0  0  0  0  0
   -5.6750   26.6570  -30.4710 O   0  0  0  0  0  0  0  0  0  0  0  0
   -6.1700   24.3490  -30.4400 C   0  0  0  0  0  0  0  0  0  0  0  0
   -7.0610   24.0080  -31.4430 C   0  0  0  0  0  0  0  0  0  0  0  0
   -7.7600   22.9190  -30.9670 C   0  0  0  0  0  0  0  0  0  0  0  0
   -9.0500   22.0690  -31.8030 S   0  0  0  0  0  0  0  0  0  0  0  0
  -10.0320   21.5510  -30.7890 O   0  0  0  0  0  0  0  0  0  0  0  0
   -9.7670   23.0310  -32.7070 O   0  0  0  0  0  0  0  0  0  0  0  0
   -8.4230   20.7340  -32.7410 N   0  0  0  0  0  0  0  0  0  0  0  0
   -6.9580   20.6300  -32.5600 C   0  0  0  0  0  0  0  0  0  0  0  0
   -6.4370   19.2660  -33.0240 C   0  0  0  0  0  0  0  0  0  0  0  0
   -7.0480   18.1250  -32.1920 C   0  0  0  0  0  0  0  0  0  0  0  0
   -8.4050   18.5000  -31.5730 C   0  0  0  0  0  0  0  0  0  0  0  0
   -9.1740   19.4810  -32.4720 C   0  0  0  0  0  0  0  0  0  0  0  0
   -7.2830   22.6420  -29.7030 C   0  0  0  0  0  0  0  0  0  0  0  0
   -6.3170   23.5220  -29.3850 N   0  0  0  0  0  0  0  0  0  0  0  0
   -1.9600   24.6870  -29.0520 C   0  0  0  0  0  0  0  0  0  0  0  0
   -1.6060   26.0300  -28.9720 O   0  0  0  0  0  0  0  0  0  0  0  0
   -1.2170   23.7340  -28.3450 C   0  0  0  0  0  0  0  0  0  0  0  0
   -2.9426   20.9180  -29.2320 H   0  0  0  0  0  0  0  0  0  0  0  0
   -4.2809   22.6145  -30.4772 H   0  0  0  0  0  0  0  0  0  0  0  0
   -7.1855   24.5030  -32.4174 H   0  0  0  0  0  0  0  0  0  0  0  0
   -6.4671   21.4201  -33.1472 H   0  0  0  0  0  0  0  0  0  0  0  0
   -6.7307   20.7436  -31.4897 H   0  0  0  0  0  0  0  0  0  0  0  0
   -6.7028   19.1211  -34.0815 H   0  0  0  0  0  0  0  0  0  0  0  0
   -5.3450   19.2470  -32.8926 H   0  0  0  0  0  0  0  0  0  0  0  0
   -7.1888   17.2506  -32.8444 H   0  0  0  0  0  0  0  0  0  0  0  0
   -6.3549   17.9097  -31.3654 H   0  0  0  0  0  0  0  0  0  0  0  0
   -9.0046   17.5870  -31.4430 H   0  0  0  0  0  0  0  0  0  0  0  0
   -8.2230   18.9859  -30.6031 H   0  0  0  0  0  0  0  0  0  0  0  0
   -9.3843   18.9858  -33.4314 H   0  0  0  0  0  0  0  0  0  0  0  0
  -10.0968   19.7585  -31.9415 H   0  0  0  0  0  0  0  0  0  0  0  0
   -7.6379   21.8271  -29.0549 H   0  0  0  0  0  0  0  0  0  0  0  0
   -5.7860   23.5520  -28.4860 H   0  0  0  0  0  0  0  0  0  0  0  0
   -0.3584   24.0499  -27.7342 H   0  0  0  0  0  0  0  0  0  0  0  0
  1  2  3  0
  2  3  1  0
  3  4  2  0
  4  5  1  0
  5  6  2  0
  6  7  1  0
  7  8  1  0
  8  9  2  0
  8 10  1  0
 10 11  2  0
 11 12  1  0
 12 13  1  0
 13 14  2  0
 13 15  2  0
 13 16  1  0
 16 17  1  0
 17 18  1  0
 18 19  1  0
 19 20  1  0
 20 21  1  0
 12 22  2  0
 22 23  1  0
  6 24  1  0
 24 25  1  0
 24 26  2  0
 26  3  1  0
 23 10  1  0
 21 16  1  0
  4 27  1  0
  5 28  1  0
 11 29  1  0
 17 30  1  0
 17 31  1  0
 18 32  1  0
 18 33  1  0
 19 34  1  0
 19 35  1  0
 20 36  1  0
 20 37  1  0
 21 38  1  0
 21 39  1  0
 22 40  1  0
 23 41  1  0
 26 42  1  0
M  CHG  2   7  -1  25  -1
M  END
>  <UniqueID>  (50) 
49

>  <SMILES>  (50) 
N#Cc1ccc([N-]C(=O)c2cc(S(=O)(=O)N3CCCCC3)c[nH]2)c([O-])c1

>  <Energy>  (50) 
77.2626330562909

>  <Genealogy>  (50) 
N#Cc1ccc([N-]C(=O)c2cc(S(=O)(=O)N3CCCCC3)c[nH]2)c([O-])c1 (protonated)
N#Cc1ccc([N-]C(=O)c2cc(S(=O)(=O)N3CCCCC3)c[nH]2)c([O-])c1 (3D coordinates assigned)
N#Cc1ccc([N-]C(=O)c2cc(S(=O)(=O)N3CCCCC3)c[nH]2)c([O-])c1 (nonaromatic ring conformer: 77.2626330562909 kcal/mol)

>  <smiles>  (50) 
N#Cc1ccc(NC(=O)c2cc(S(=O)(=O)N3CCCCC3)c[nH]2)c(O)c1

>  <score_type>  (50) 
oracle

>  <origin>  (50) 
adgpu

>  <m_score__min__energy>  (50) 
-14.949999999999999

>  <m_primary>  (50) 
energy

$$$$
