0:0
     RDKit          3D

 31 32  0  0  0  0  0  0  0  0999 V2000
   -4.0160   20.5190  -30.3000 H   0  0  0  0  0  0  0  0  0  0  0  0
   -3.7810   21.2170  -29.6070 O   0  0  0  0  0  0  0  0  0  0  0  0
   -3.7880   22.5910  -29.8640 C   0  0  0  0  0  0  0  0  0  0  0  0
   -2.7290   23.4250  -29.4360 C   0  0  0  0  0  0  0  0  0  0  0  0
   -1.5560   22.8540  -28.6830 C   0  0  0  0  0  0  0  0  0  0  0  0
   -1.7366   22.9419  -27.6015 H   0  0  0  0  0  0  0  0  0  0  0  0
   -1.4305   21.7940  -28.9488 H   0  0  0  0  0  0  0  0  0  0  0  0
   -0.6443   23.4091  -28.9488 H   0  0  0  0  0  0  0  0  0  0  0  0
   -2.7960   24.8010  -29.7270 C   0  0  0  0  0  0  0  0  0  0  0  0
   -1.7860   25.6680  -29.3240 O   0  0  0  0  0  0  0  0  0  0  0  0
   -3.8500   25.3030  -30.4180 N   0  0  0  0  0  0  0  0  0  0  0  0
   -4.8770   24.5240  -30.8420 C   0  0  0  0  0  0  0  0  0  0  0  0
   -5.8060   25.0480  -31.5140 O   0  0  0  0  0  0  0  0  0  0  0  0
   -4.8820   23.1460  -30.5530 C   0  0  0  0  0  0  0  0  0  0  0  0
   -5.9800   22.2590  -31.0070 C   0  0  0  0  0  0  0  0  0  0  0  0
   -7.0001   22.4637  -30.6499 H   0  0  0  0  0  0  0  0  0  0  0  0
   -5.7890   21.2180  -31.8330 C   0  0  0  0  0  0  0  0  0  0  0  0
   -4.5990   20.8690  -32.3550 N   0  0  0  0  0  0  0  0  0  0  0  0
   -4.8860   19.8020  -33.1340 C   0  0  0  0  0  0  0  0  0  0  0  0
   -3.9690   19.1380  -33.8410 C   0  0  0  0  0  0  0  0  0  0  0  0
   -4.2863   18.2797  -34.4514 H   0  0  0  0  0  0  0  0  0  0  0  0
   -2.5220   19.5240  -33.8300 C   0  0  0  0  0  0  0  0  0  0  0  0
   -2.1751   19.6165  -32.7902 H   0  0  0  0  0  0  0  0  0  0  0  0
   -1.9326   18.7517  -34.3458 H   0  0  0  0  0  0  0  0  0  0  0  0
   -2.3955   20.4873  -34.3458 H   0  0  0  0  0  0  0  0  0  0  0  0
   -6.1930   19.4620  -33.1360 N   0  0  0  0  0  0  0  0  0  0  0  0
   -6.7620   20.3610  -32.3130 C   0  0  0  0  0  0  0  0  0  0  0  0
   -8.2260   20.3940  -32.0060 C   0  0  0  0  0  0  0  0  0  0  0  0
   -8.3720   20.3973  -30.9157 H   0  0  0  0  0  0  0  0  0  0  0  0
   -8.6709   21.3024  -32.4383 H   0  0  0  0  0  0  0  0  0  0  0  0
   -8.7114   19.5066  -32.4383 H   0  0  0  0  0  0  0  0  0  0  0  0
  1  2  1  0
  2  3  1  0
  3  4  1  0
  4  5  1  0
  5  6  1  0
  5  7  1  0
  5  8  1  0
  4  9  2  0
  9 10  1  0
  9 11  1  0
 11 12  1  0
 12 13  2  0
 12 14  1  0
 14 15  1  0
 15 16  1  0
 15 17  2  3
 17 18  1  0
 18 19  1  0
 19 20  2  0
 20 21  1  0
 20 22  1  0
 22 23  1  0
 22 24  1  0
 22 25  1  0
 19 26  1  0
 26 27  2  0
 27 28  1  0
 28 29  1  0
 28 30  1  0
 28 31  1  0
 14  3  2  0
 27 17  1  0
M  CHG  3  10  -1  11  -1  18  -1
M  END
>  <UniqueID>  (1) 
1

>  <SMILES>  (1) 
C/C=c1/nc(C)c(=Cc2c(O)c(C)c([O-])[n-]c2=O)[n-]1

>  <Energy>  (1) 
65.32600886419634

>  <Genealogy>  (1) 
CC=c1nc(C)c(=Cc2c(O)c(C)c([O-])[n-]c2=O)[n-]1 (protonated)
C/C=c1/nc(C)c(=Cc2c(O)c(C)c([O-])[n-]c2=O)[n-]1 (cis-trans isomerization)
C/C=c1/nc(C)c(=Cc2c(O)c(C)c([O-])[n-]c2=O)[n-]1 (3D coordinates assigned)
C/C=c1/nc(C)c(=Cc2c(O)c(C)c([O-])[n-]c2=O)[n-]1 (optimized conformer: 65.32600886419634 kcal/mol)

>  <smiles>  (1) 
CC=c1nc(C)c(=Cc2c(O)c(C)c(O)[nH]c2=O)[nH]1

>  <score_type>  (1) 
oracle

>  <origin>  (1) 
adgpu

>  <m_score__min__energy>  (1) 
-11.31

>  <m_primary>  (1) 
energy

$$$$
1:0
     RDKit          3D

 45 47  0  0  0  0  0  0  0  0999 V2000
    3.3090   19.4150  -33.0480 N   0  0  0  0  0  0  0  0  0  0  0  0
    2.1500   19.3140  -34.3260 S   0  0  0  0  0  0  0  0  0  0  0  0
    2.6480   20.0900  -35.5140 O   0  0  0  0  0  0  0  0  0  0  0  0
    1.9700   17.8780  -34.7300 O   0  0  0  0  0  0  0  0  0  0  0  0
    0.6150   19.9820  -33.7810 C   0  0  0  0  0  0  0  0  0  0  0  0
   -0.4860   20.0080  -34.6460 C   0  0  0  0  0  0  0  0  0  0  0  0
   -1.7020   20.5500  -34.2190 C   0  0  0  0  0  0  0  0  0  0  0  0
   -1.8370   21.0610  -32.9200 C   0  0  0  0  0  0  0  0  0  0  0  0
   -3.0910   21.6360  -32.5160 N   0  0  0  0  0  0  0  0  0  0  0  0
   -3.2200   22.6510  -31.5020 C   0  0  0  0  0  0  0  0  0  0  0  0
   -2.2090   23.0220  -30.8460 O   0  0  0  0  0  0  0  0  0  0  0  0
   -4.5400   23.2530  -31.1970 C   0  0  0  0  0  0  0  0  0  0  0  0
   -5.7220   22.5210  -31.4200 C   0  0  0  0  0  0  0  0  0  0  0  0
   -6.9750   23.0840  -31.1410 C   0  0  0  0  0  0  0  0  0  0  0  0
   -8.4510   22.1540  -31.4280 S   0  0  0  0  0  0  0  0  0  0  0  0
   -9.3860   22.9680  -32.2780 O   0  0  0  0  0  0  0  0  0  0  0  0
   -9.1300   21.8930  -30.1130 O   0  0  0  0  0  0  0  0  0  0  0  0
   -8.1450   20.6270  -32.2240 N   0  0  0  0  0  0  0  0  0  0  0  0
   -7.0350   19.9010  -31.6100 C   0  0  0  0  0  0  0  0  0  0  0  0
   -7.2650   18.4290  -31.9140 C   0  0  0  0  0  0  0  0  0  0  0  0
   -8.7400   18.3160  -32.2670 C   0  0  0  0  0  0  0  0  0  0  0  0
   -9.2930   19.7270  -32.1470 C   0  0  0  0  0  0  0  0  0  0  0  0
   -7.0490   24.3770  -30.6070 C   0  0  0  0  0  0  0  0  0  0  0  0
   -5.8830   25.1050  -30.3690 C   0  0  0  0  0  0  0  0  0  0  0  0
   -4.6330   24.5540  -30.6610 C   0  0  0  0  0  0  0  0  0  0  0  0
   -3.4890   25.3130  -30.4300 O   0  0  0  0  0  0  0  0  0  0  0  0
   -0.7200   21.0610  -32.0650 C   0  0  0  0  0  0  0  0  0  0  0  0
    0.4970   20.5210  -32.4940 C   0  0  0  0  0  0  0  0  0  0  0  0
    4.1110   19.9800  -33.4080 H   0  0  0  0  0  0  0  0  0  0  0  0
   -0.3939   19.6010  -35.6638 H   0  0  0  0  0  0  0  0  0  0  0  0
   -2.5596   20.5758  -34.9074 H   0  0  0  0  0  0  0  0  0  0  0  0
   -3.9550   21.2460  -32.9530 H   0  0  0  0  0  0  0  0  0  0  0  0
   -5.6615   21.4970  -31.8172 H   0  0  0  0  0  0  0  0  0  0  0  0
   -6.0787   20.2334  -32.0400 H   0  0  0  0  0  0  0  0  0  0  0  0
   -6.9907   20.0823  -30.5260 H   0  0  0  0  0  0  0  0  0  0  0  0
   -6.6408   18.1087  -32.7612 H   0  0  0  0  0  0  0  0  0  0  0  0
   -6.9980   17.7882  -31.0607 H   0  0  0  0  0  0  0  0  0  0  0  0
   -8.8624   17.9407  -33.2937 H   0  0  0  0  0  0  0  0  0  0  0  0
   -9.2664   17.6126  -31.6050 H   0  0  0  0  0  0  0  0  0  0  0  0
   -9.9935   19.9325  -32.9698 H   0  0  0  0  0  0  0  0  0  0  0  0
   -9.8428   19.8613  -31.2038 H   0  0  0  0  0  0  0  0  0  0  0  0
   -8.0290   24.8194  -30.3748 H   0  0  0  0  0  0  0  0  0  0  0  0
   -5.9483   26.1194  -29.9487 H   0  0  0  0  0  0  0  0  0  0  0  0
   -0.8039   21.4875  -31.0545 H   0  0  0  0  0  0  0  0  0  0  0  0
    1.3646   20.5198  -31.8178 H   0  0  0  0  0  0  0  0  0  0  0  0
  1  2  1  0
  2  3  2  0
  2  4  2  0
  2  5  1  0
  5  6  2  0
  6  7  1  0
  7  8  2  0
  8  9  1  0
  9 10  1  0
 10 11  2  0
 10 12  1  0
 12 13  2  0
 13 14  1  0
 14 15  1  0
 15 16  2  0
 15 17  2  0
 15 18  1  0
 18 19  1  0
 19 20  1  0
 20 21  1  0
 21 22  1  0
 14 23  2  0
 23 24  1  0
 24 25  2  0
 25 26  1  0
  8 27  1  0
 27 28  2  0
 28  5  1  0
 25 12  1  0
 22 18  1  0
  1 29  1  0
  6 30  1  0
  7 31  1  0
  9 32  1  0
 13 33  1  0
 19 34  1  0
 19 35  1  0
 20 36  1  0
 20 37  1  0
 21 38  1  0
 21 39  1  0
 22 40  1  0
 22 41  1  0
 23 42  1  0
 24 43  1  0
 27 44  1  0
 28 45  1  0
M  CHG  2   1  -1  26  -1
M  END
>  <UniqueID>  (2) 
2

>  <SMILES>  (2) 
[NH-]S(=O)(=O)c1ccc(NC(=O)c2cc(S(=O)(=O)N3CCCC3)ccc2[O-])cc1

>  <Energy>  (2) 
55.100474017673044

>  <Genealogy>  (2) 
[NH-]S(=O)(=O)c1ccc(NC(=O)c2cc(S(=O)(=O)N3CCCC3)ccc2[O-])cc1 (protonated)
[NH-]S(=O)(=O)c1ccc(NC(=O)c2cc(S(=O)(=O)N3CCCC3)ccc2[O-])cc1 (3D coordinates assigned)
[NH-]S(=O)(=O)c1ccc(NC(=O)c2cc(S(=O)(=O)N3CCCC3)ccc2[O-])cc1 (nonaromatic ring conformer: 55.100474017673044 kcal/mol)

>  <smiles>  (2) 
NS(=O)(=O)c1ccc(NC(=O)c2cc(S(=O)(=O)N3CCCC3)ccc2O)cc1

>  <score_type>  (2) 
oracle

>  <origin>  (2) 
adgpu

>  <m_score__min__energy>  (2) 
-11.94

>  <m_primary>  (2) 
energy

$$$$
2:0
     RDKit          3D

 62 66  0  0  0  0  0  0  0  0999 V2000
   -2.5260   19.7210  -32.3320 C   0  0  0  0  0  0  0  0  0  0  0  0
   -3.5310   19.5200  -33.4380 C   0  0  0  0  0  0  0  0  0  0  0  0
   -3.2230   18.8150  -34.4330 O   0  0  0  0  0  0  0  0  0  0  0  0
   -4.7980   20.2680  -33.4220 C   0  0  0  0  0  0  0  0  0  0  0  0
   -4.8480   21.5920  -32.9650 C   0  0  0  0  0  0  0  0  0  0  0  0
   -6.0160   21.8650  -32.3450 N   0  0  0  0  0  0  0  0  0  0  0  0
   -6.2810   23.0310  -31.5150 C   0  0  0  0  0  0  0  0  0  0  0  0
   -5.1720   23.2730  -30.5320 C   0  0  0  0  0  0  0  0  0  0  0  0
   -4.3260   22.2290  -30.1300 C   0  0  0  0  0  0  0  0  0  0  0  0
   -3.1950   22.5000  -29.3530 C   0  0  0  0  0  0  0  0  0  0  0  0
   -2.9010   23.8210  -28.9880 C   0  0  0  0  0  0  0  0  0  0  0  0
   -1.3740   24.2030  -28.1910 S   0  0  0  0  0  0  0  0  0  0  0  0
   -0.8670   25.5320  -28.6730 O   0  0  0  0  0  0  0  0  0  0  0  0
   -0.3640   23.1430  -28.5610 O   0  0  0  0  0  0  0  0  0  0  0  0
   -1.5840   24.2260  -26.4540 N   0  0  0  0  0  0  0  0  0  0  0  0
   -1.1720   25.5290  -25.8960 C   0  0  0  0  0  0  0  0  0  0  0  0
   -0.8690   25.4250  -24.3910 C   0  0  0  0  0  0  0  0  0  0  0  0
    0.1920   24.4320  -24.0920 N   0  0  0  0  0  0  0  0  0  0  0  0
    0.4540   23.5100  -25.2090 C   0  0  0  0  0  0  0  0  0  0  0  0
   -0.8760   23.0830  -25.8400 C   0  0  0  0  0  0  0  0  0  0  0  0
   -3.7770   24.8560  -29.3350 C   0  0  0  0  0  0  0  0  0  0  0  0
   -4.9210   24.5820  -30.0930 C   0  0  0  0  0  0  0  0  0  0  0  0
   -6.7620   20.7300  -32.4330 C   0  0  0  0  0  0  0  0  0  0  0  0
   -7.9790   20.4920  -31.8060 C   0  0  0  0  0  0  0  0  0  0  0  0
   -8.5260   19.2130  -31.8940 C   0  0  0  0  0  0  0  0  0  0  0  0
   -7.8590   18.1950  -32.5870 C   0  0  0  0  0  0  0  0  0  0  0  0
   -6.6100   18.4300  -33.2050 C   0  0  0  0  0  0  0  0  0  0  0  0
   -5.9170   17.1350  -34.1860 S   0  0  0  0  0  0  0  0  0  0  0  0
   -7.0200   16.1430  -34.5040 O   0  0  0  0  0  0  0  0  0  0  0  0
   -5.4200   17.7320  -35.4830 O   0  0  0  0  0  0  0  0  0  0  0  0
   -4.6310   16.1710  -33.3860 C   0  0  0  0  0  0  0  0  0  0  0  0
   -4.8810   15.5320  -32.0290 C   0  0  0  0  0  0  0  0  0  0  0  0
   -5.0270   14.6980  -33.2840 C   0  0  0  0  0  0  0  0  0  0  0  0
   -6.0570   19.7360  -33.1130 C   0  0  0  0  0  0  0  0  0  0  0  0
   -3.0275   19.6207  -31.3581 H   0  0  0  0  0  0  0  0  0  0  0  0
   -1.7325   18.9638  -32.4155 H   0  0  0  0  0  0  0  0  0  0  0  0
   -2.0848   20.7252  -32.4155 H   0  0  0  0  0  0  0  0  0  0  0  0
   -4.0342   22.3205  -33.0956 H   0  0  0  0  0  0  0  0  0  0  0  0
   -6.3833   23.9144  -32.1625 H   0  0  0  0  0  0  0  0  0  0  0  0
   -7.2074   22.8484  -30.9507 H   0  0  0  0  0  0  0  0  0  0  0  0
   -4.5526   21.1943  -30.4266 H   0  0  0  0  0  0  0  0  0  0  0  0
   -2.5383   21.6790  -29.0294 H   0  0  0  0  0  0  0  0  0  0  0  0
   -0.2681   25.8730  -26.4201 H   0  0  0  0  0  0  0  0  0  0  0  0
   -1.9985   26.2416  -26.0342 H   0  0  0  0  0  0  0  0  0  0  0  0
   -0.5420   26.4106  -24.0281 H   0  0  0  0  0  0  0  0  0  0  0  0
   -1.7888   25.0931  -23.8872 H   0  0  0  0  0  0  0  0  0  0  0  0
   -0.1010   23.8610  -23.2550 H   0  0  0  0  0  0  0  0  0  0  0  0
    1.0810   24.9300  -23.8520 H   0  0  0  0  0  0  0  0  0  0  0  0
    1.0730   24.0157  -25.9647 H   0  0  0  0  0  0  0  0  0  0  0  0
    0.9850   22.6221  -24.8354 H   0  0  0  0  0  0  0  0  0  0  0  0
   -0.6763   22.3294  -26.6160 H   0  0  0  0  0  0  0  0  0  0  0  0
   -1.5154   22.6718  -25.0449 H   0  0  0  0  0  0  0  0  0  0  0  0
   -3.5660   25.8860  -29.0115 H   0  0  0  0  0  0  0  0  0  0  0  0
   -5.6223   25.3914  -30.3443 H   0  0  0  0  0  0  0  0  0  0  0  0
   -8.4966   21.2912  -31.2552 H   0  0  0  0  0  0  0  0  0  0  0  0
   -9.4926   19.0008  -31.4137 H   0  0  0  0  0  0  0  0  0  0  0  0
   -8.3149   17.1960  -32.6513 H   0  0  0  0  0  0  0  0  0  0  0  0
   -3.8007   16.7879  -33.7601 H   0  0  0  0  0  0  0  0  0  0  0  0
   -4.0392   15.3506  -31.3446 H   0  0  0  0  0  0  0  0  0  0  0  0
   -5.5308   15.7625  -31.1719 H   0  0  0  0  0  0  0  0  0  0  0  0
   -4.2905   13.9133  -33.5118 H   0  0  0  0  0  0  0  0  0  0  0  0
   -5.8241   14.0750  -33.7157 H   0  0  0  0  0  0  0  0  0  0  0  0
  1  2  1  0
  2  3  2  0
  2  4  1  0
  4  5  2  0
  5  6  1  0
  6  7  1  0
  7  8  1  0
  8  9  2  0
  9 10  1  0
 10 11  2  0
 11 12  1  0
 12 13  2  0
 12 14  2  0
 12 15  1  0
 15 16  1  0
 16 17  1  0
 17 18  1  0
 18 19  1  0
 19 20  1  0
 11 21  1  0
 21 22  2  0
  6 23  1  0
 23 24  2  0
 24 25  1  0
 25 26  2  0
 26 27  1  0
 27 28  1  0
 28 29  2  0
 28 30  2  0
 28 31  1  0
 31 32  1  0
 32 33  1  0
 27 34  2  0
 34  4  1  0
 22  8  1  0
 34 23  1  0
 20 15  1  0
 33 31  1  0
  1 35  1  0
  1 36  1  0
  1 37  1  0
  5 38  1  0
  7 39  1  0
  7 40  1  0
  9 41  1  0
 10 42  1  0
 16 43  1  0
 16 44  1  0
 17 45  1  0
 17 46  1  0
 18 47  1  0
 18 48  1  0
 19 49  1  0
 19 50  1  0
 20 51  1  0
 20 52  1  0
 21 53  1  0
 22 54  1  0
 24 55  1  0
 25 56  1  0
 26 57  1  0
 31 58  1  0
 32 59  1  0
 32 60  1  0
 33 61  1  0
 33 62  1  0
M  CHG  1  18   1
M  END
>  <UniqueID>  (3) 
3

>  <SMILES>  (3) 
CC(=O)c1cn(Cc2ccc(S(=O)(=O)N3CC[NH2+]CC3)cc2)c2cccc(S(=O)(=O)C3CC3)c12

>  <Energy>  (3) 
393.04251277735233

>  <Genealogy>  (3) 
CC(=O)c1cn(Cc2ccc(S(=O)(=O)N3CC[NH2+]CC3)cc2)c2cccc(S(=O)(=O)C3CC3)c12 (protonated)
CC(=O)c1cn(Cc2ccc(S(=O)(=O)N3CC[NH2+]CC3)cc2)c2cccc(S(=O)(=O)C3CC3)c12 (3D coordinates assigned)
CC(=O)c1cn(Cc2ccc(S(=O)(=O)N3CC[NH2+]CC3)cc2)c2cccc(S(=O)(=O)C3CC3)c12 (nonaromatic ring conformer: 393.04251277735233 kcal/mol)

>  <smiles>  (3) 
CC(=O)c1cn(Cc2ccc(S(=O)(=O)N3CCNCC3)cc2)c2cccc(S(=O)(=O)C3CC3)c12

>  <score_type>  (3) 
oracle

>  <origin>  (3) 
adgpu

>  <m_score__min__energy>  (3) 
-11.720000000000001

>  <m_primary>  (3) 
energy

$$$$
3:0
     RDKit          3D

 68 72  0  0  0  0  0  0  0  0999 V2000
   -3.8030   21.5920  -33.4550 C   0  0  0  0  0  0  0  0  0  0  0  0
   -3.0410   20.3470  -33.0810 C   0  0  0  0  0  0  0  0  0  0  0  0
   -3.3490   19.1400  -33.7280 C   0  0  0  0  0  0  0  0  0  0  0  0
   -2.6450   17.9670  -33.4110 C   0  0  0  0  0  0  0  0  0  0  0  0
   -2.9280   16.7200  -34.0830 N   0  0  0  0  0  0  0  0  0  0  0  0
   -2.1220   16.2800  -35.2300 C   0  0  0  0  0  0  0  0  0  0  0  0
   -2.8890   15.2520  -36.0670 C   0  0  0  0  0  0  0  0  0  0  0  0
   -3.3180   14.0930  -35.2510 N   0  0  0  0  0  0  0  0  0  0  0  0
   -4.3040   13.2920  -35.9910 C   0  0  0  0  0  0  0  0  0  0  0  0
   -3.8100   14.4370  -33.8890 C   0  0  0  0  0  0  0  0  0  0  0  0
   -4.1060   15.9300  -33.7020 C   0  0  0  0  0  0  0  0  0  0  0  0
   -1.6650   18.0150  -32.4700 N   0  0  0  0  0  0  0  0  0  0  0  0
   -1.3420   19.1580  -31.8100 C   0  0  0  0  0  0  0  0  0  0  0  0
   -0.3200   19.1370  -30.8550 C   0  0  0  0  0  0  0  0  0  0  0  0
    0.0300   20.3030  -30.1730 C   0  0  0  0  0  0  0  0  0  0  0  0
   -0.6470   21.5050  -30.4330 C   0  0  0  0  0  0  0  0  0  0  0  0
   -0.2730   22.7280  -29.7820 N   0  0  0  0  0  0  0  0  0  0  0  0
   -0.9700   23.3390  -28.6900 C   0  0  0  0  0  0  0  0  0  0  0  0
   -1.2560   22.6320  -27.6890 O   0  0  0  0  0  0  0  0  0  0  0  0
   -1.3110   24.7820  -28.7070 C   0  0  0  0  0  0  0  0  0  0  0  0
   -0.5110   25.6130  -28.2020 O   0  0  0  0  0  0  0  0  0  0  0  0
   -2.4980   25.2780  -29.3430 N   0  0  0  0  0  0  0  0  0  0  0  0
   -3.6260   24.5090  -29.7770 C   0  0  0  0  0  0  0  0  0  0  0  0
   -4.6170   25.1360  -30.5400 C   0  0  0  0  0  0  0  0  0  0  0  0
   -5.7420   24.4220  -30.9630 C   0  0  0  0  0  0  0  0  0  0  0  0
   -5.8990   23.0740  -30.6060 C   0  0  0  0  0  0  0  0  0  0  0  0
   -7.3130   22.1670  -31.1560 S   0  0  0  0  0  0  0  0  0  0  0  0
   -7.8960   22.8570  -32.3580 O   0  0  0  0  0  0  0  0  0  0  0  0
   -8.3520   22.1730  -30.0670 O   0  0  0  0  0  0  0  0  0  0  0  0
   -6.9400   20.5100  -31.5700 N   0  0  0  0  0  0  0  0  0  0  0  0
   -6.5380   20.3640  -32.9700 C   0  0  0  0  0  0  0  0  0  0  0  0
   -6.9230   18.9540  -33.3950 C   0  0  0  0  0  0  0  0  0  0  0  0
   -7.8640   18.4430  -32.3140 C   0  0  0  0  0  0  0  0  0  0  0  0
   -8.0940   19.6290  -31.3950 C   0  0  0  0  0  0  0  0  0  0  0  0
   -4.9200   22.4510  -29.8190 C   0  0  0  0  0  0  0  0  0  0  0  0
   -3.7970   23.1670  -29.3920 C   0  0  0  0  0  0  0  0  0  0  0  0
   -1.6580   21.5350  -31.4030 C   0  0  0  0  0  0  0  0  0  0  0  0
   -2.0240   20.3630  -32.0970 C   0  0  0  0  0  0  0  0  0  0  0  0
   -4.1228   22.1145  -32.5414 H   0  0  0  0  0  0  0  0  0  0  0  0
   -3.1552   22.2540  -34.0483 H   0  0  0  0  0  0  0  0  0  0  0  0
   -4.6873   21.3163  -34.0483 H   0  0  0  0  0  0  0  0  0  0  0  0
   -4.1452   19.1128  -34.4865 H   0  0  0  0  0  0  0  0  0  0  0  0
   -1.8821   17.1506  -35.8581 H   0  0  0  0  0  0  0  0  0  0  0  0
   -1.1986   15.8138  -34.8558 H   0  0  0  0  0  0  0  0  0  0  0  0
   -3.7792   15.7347  -36.4967 H   0  0  0  0  0  0  0  0  0  0  0  0
   -2.2191   14.8853  -36.8587 H   0  0  0  0  0  0  0  0  0  0  0  0
   -4.9551   12.7631  -35.2794 H   0  0  0  0  0  0  0  0  0  0  0  0
   -4.9136   13.9539  -36.6236 H   0  0  0  0  0  0  0  0  0  0  0  0
   -3.7810   12.5597  -36.6236 H   0  0  0  0  0  0  0  0  0  0  0  0
   -4.7353   13.8728  -33.7007 H   0  0  0  0  0  0  0  0  0  0  0  0
   -3.0094   14.1758  -33.1813 H   0  0  0  0  0  0  0  0  0  0  0  0
   -4.9585   16.2159  -34.3357 H   0  0  0  0  0  0  0  0  0  0  0  0
   -4.3486   16.1238  -32.6467 H   0  0  0  0  0  0  0  0  0  0  0  0
    0.2100   18.1972  -30.6407 H   0  0  0  0  0  0  0  0  0  0  0  0
    0.8396   20.2802  -29.4287 H   0  0  0  0  0  0  0  0  0  0  0  0
   -4.5103   26.1973  -30.8087 H   0  0  0  0  0  0  0  0  0  0  0  0
   -6.5070   24.9187  -31.5779 H   0  0  0  0  0  0  0  0  0  0  0  0
   -7.0621   21.1035  -33.5933 H   0  0  0  0  0  0  0  0  0  0  0  0
   -5.4572   20.5301  -33.0890 H   0  0  0  0  0  0  0  0  0  0  0  0
   -7.4322   18.9724  -34.3699 H   0  0  0  0  0  0  0  0  0  0  0  0
   -6.0403   18.3069  -33.5052 H   0  0  0  0  0  0  0  0  0  0  0  0
   -8.8137   18.1075  -32.7561 H   0  0  0  0  0  0  0  0  0  0  0  0
   -7.4431   17.5809  -31.7759 H   0  0  0  0  0  0  0  0  0  0  0  0
   -9.0199   20.1534  -31.6736 H   0  0  0  0  0  0  0  0  0  0  0  0
   -8.1999   19.3101  -30.3476 H   0  0  0  0  0  0  0  0  0  0  0  0
   -5.0357   21.3943  -29.5361 H   0  0  0  0  0  0  0  0  0  0  0  0
   -3.0456   22.6794  -28.7535 H   0  0  0  0  0  0  0  0  0  0  0  0
   -2.1713   22.4822  -31.6253 H   0  0  0  0  0  0  0  0  0  0  0  0
  1  2  1  0
  2  3  2  0
  3  4  1  0
  4  5  1  0
  5  6  1  0
  6  7  1  0
  7  8  1  0
  8  9  1  0
  8 10  1  0
 10 11  1  0
  4 12  2  0
 12 13  1  0
 13 14  2  0
 14 15  1  0
 15 16  2  0
 16 17  1  0
 17 18  1  0
 18 19  2  0
 18 20  1  0
 20 21  2  0
 20 22  1  0
 22 23  1  0
 23 24  2  0
 24 25  1  0
 25 26  2  0
 26 27  1  0
 27 28  2  0
 27 29  2  0
 27 30  1  0
 30 31  1  0
 31 32  1  0
 32 33  1  0
 33 34  1  0
 26 35  1  0
 35 36  2  0
 16 37  1  0
 37 38  2  0
 38  2  1  0
 11  5  1  0
 38 13  1  0
 36 23  1  0
 34 30  1  0
  1 39  1  0
  1 40  1  0
  1 41  1  0
  3 42  1  0
  6 43  1  0
  6 44  1  0
  7 45  1  0
  7 46  1  0
  9 47  1  0
  9 48  1  0
  9 49  1  0
 10 50  1  0
 10 51  1  0
 11 52  1  0
 11 53  1  0
 14 54  1  0
 15 55  1  0
 24 56  1  0
 25 57  1  0
 31 58  1  0
 31 59  1  0
 32 60  1  0
 32 61  1  0
 33 62  1  0
 33 63  1  0
 34 64  1  0
 34 65  1  0
 35 66  1  0
 36 67  1  0
 37 68  1  0
M  CHG  2  17  -1  22  -1
M  END
>  <UniqueID>  (4) 
4

>  <SMILES>  (4) 
Cc1cc(N2CCN(C)CC2)nc2ccc([N-]C(=O)C(=O)[N-]c3ccc(S(=O)(=O)N4CCCC4)cc3)cc12

>  <Energy>  (4) 
97.8893243331779

>  <Genealogy>  (4) 
Cc1cc(N2CCN(C)CC2)nc2ccc([N-]C(=O)C(=O)[N-]c3ccc(S(=O)(=O)N4CCCC4)cc3)cc12 (protonated)
Cc1cc(N2CCN(C)CC2)nc2ccc([N-]C(=O)C(=O)[N-]c3ccc(S(=O)(=O)N4CCCC4)cc3)cc12 (3D coordinates assigned)
Cc1cc(N2CCN(C)CC2)nc2ccc([N-]C(=O)C(=O)[N-]c3ccc(S(=O)(=O)N4CCCC4)cc3)cc12 (nonaromatic ring conformer: 97.8893243331779 kcal/mol)

>  <smiles>  (4) 
Cc1cc(N2CCN(C)CC2)nc2ccc(NC(=O)C(=O)Nc3ccc(S(=O)(=O)N4CCCC4)cc3)cc12

>  <score_type>  (4) 
oracle

>  <origin>  (4) 
adgpu

>  <m_score__min__energy>  (4) 
-12.49

>  <m_primary>  (4) 
energy

$$$$
4:0
     RDKit          3D

 55 56  0  0  0  0  0  0  0  0999 V2000
   -7.0190   20.4670  -32.9900 C   0  0  0  0  0  0  0  0  0  0  0  0
   -6.4220   20.7210  -31.6100 C   0  0  0  0  0  0  0  0  0  0  0  0
   -5.2410   19.8560  -31.3990 N   0  0  0  0  0  0  0  0  0  0  0  0
   -5.4280   18.5170  -31.9850 C   0  0  0  0  0  0  0  0  0  0  0  0
   -6.5050   17.7460  -31.2250 C   0  0  0  0  0  0  0  0  0  0  0  0
   -3.7670   20.6120  -31.9900 S   0  0  0  0  0  0  0  0  0  0  0  0
   -3.9580   20.9950  -33.4290 O   0  0  0  0  0  0  0  0  0  0  0  0
   -2.6780   19.5780  -31.9920 O   0  0  0  0  0  0  0  0  0  0  0  0
   -3.2780   22.0580  -31.0230 C   0  0  0  0  0  0  0  0  0  0  0  0
   -2.1750   21.9890  -30.1210 C   0  0  0  0  0  0  0  0  0  0  0  0
   -1.4680   20.7370  -29.7810 C   0  0  0  0  0  0  0  0  0  0  0  0
   -0.4260   20.2740  -30.6000 C   0  0  0  0  0  0  0  0  0  0  0  0
    0.3000   19.1340  -30.2440 C   0  0  0  0  0  0  0  0  0  0  0  0
    0.0100   18.4550  -29.0470 C   0  0  0  0  0  0  0  0  0  0  0  0
    0.7410   17.2910  -28.6350 N   0  0  0  0  0  0  0  0  0  0  0  0
    1.6600   17.2070  -27.5400 C   0  0  0  0  0  0  0  0  0  0  0  0
    1.7340   15.9530  -26.7340 C   0  0  0  0  0  0  0  0  0  0  0  0
    2.4200   18.1710  -27.2560 O   0  0  0  0  0  0  0  0  0  0  0  0
   -0.9700   18.9700  -28.1900 C   0  0  0  0  0  0  0  0  0  0  0  0
   -1.6970   20.1090  -28.5480 C   0  0  0  0  0  0  0  0  0  0  0  0
   -1.7330   23.1400  -29.4560 C   0  0  0  0  0  0  0  0  0  0  0  0
   -2.3750   24.3660  -29.6260 C   0  0  0  0  0  0  0  0  0  0  0  0
   -1.9370   25.5500  -28.9440 N   0  0  0  0  0  0  0  0  0  0  0  0
   -0.6660   25.6210  -27.7680 S   0  0  0  0  0  0  0  0  0  0  0  0
   -1.2820   25.0060  -26.2170 C   0  0  0  0  0  0  0  0  0  0  0  0
   -0.2150   27.0420  -27.5870 O   0  0  0  0  0  0  0  0  0  0  0  0
    0.4890   24.7680  -28.2100 O   0  0  0  0  0  0  0  0  0  0  0  0
   -3.4890   24.4450  -30.4620 C   0  0  0  0  0  0  0  0  0  0  0  0
   -4.1370   25.6730  -30.5830 O   0  0  0  0  0  0  0  0  0  0  0  0
   -3.9530   23.3130  -31.1690 C   0  0  0  0  0  0  0  0  0  0  0  0
   -5.1960   23.4640  -32.0170 C   0  0  0  0  0  0  0  0  0  0  0  0
   -8.0262   20.0385  -32.8806 H   0  0  0  0  0  0  0  0  0  0  0  0
   -7.0824   21.4161  -33.5424 H   0  0  0  0  0  0  0  0  0  0  0  0
   -6.3791   19.7632  -33.5424 H   0  0  0  0  0  0  0  0  0  0  0  0
   -6.1187   21.7756  -31.5335 H   0  0  0  0  0  0  0  0  0  0  0  0
   -7.1772   20.4917  -30.8437 H   0  0  0  0  0  0  0  0  0  0  0  0
   -5.7320   18.6215  -33.0370 H   0  0  0  0  0  0  0  0  0  0  0  0
   -4.4798   17.9636  -31.9173 H   0  0  0  0  0  0  0  0  0  0  0  0
   -6.3439   17.8613  -30.1430 H   0  0  0  0  0  0  0  0  0  0  0  0
   -7.4962   18.1410  -31.4923 H   0  0  0  0  0  0  0  0  0  0  0  0
   -6.4506   16.6804  -31.4923 H   0  0  0  0  0  0  0  0  0  0  0  0
   -0.1795   20.8117  -31.5274 H   0  0  0  0  0  0  0  0  0  0  0  0
    1.1010   18.7666  -30.9023 H   0  0  0  0  0  0  0  0  0  0  0  0
    1.7192   16.2040  -25.6631 H   0  0  0  0  0  0  0  0  0  0  0  0
    0.8721   15.3125  -26.9724 H   0  0  0  0  0  0  0  0  0  0  0  0
    2.6653   15.4183  -26.9724 H   0  0  0  0  0  0  0  0  0  0  0  0
   -1.1693   18.4749  -27.2282 H   0  0  0  0  0  0  0  0  0  0  0  0
   -2.4525   20.5148  -27.8592 H   0  0  0  0  0  0  0  0  0  0  0  0
   -0.8625   23.0753  -28.7867 H   0  0  0  0  0  0  0  0  0  0  0  0
   -0.7690   25.5182  -25.3897 H   0  0  0  0  0  0  0  0  0  0  0  0
   -2.3636   25.1953  -26.1510 H   0  0  0  0  0  0  0  0  0  0  0  0
   -1.0944   23.9241  -26.1510 H   0  0  0  0  0  0  0  0  0  0  0  0
   -6.0747   23.5707  -31.3639 H   0  0  0  0  0  0  0  0  0  0  0  0
   -5.1004   24.3571  -32.6520 H   0  0  0  0  0  0  0  0  0  0  0  0
   -5.3170   22.5740  -32.6520 H   0  0  0  0  0  0  0  0  0  0  0  0
  1  2  1  0
  2  3  1  0
  3  4  1  0
  4  5  1  0
  3  6  1  0
  6  7  2  0
  6  8  2  0
  6  9  1  0
  9 10  2  0
 10 11  1  0
 11 12  2  0
 12 13  1  0
 13 14  2  0
 14 15  1  0
 15 16  1  0
 16 17  1  0
 16 18  2  0
 14 19  1  0
 19 20  2  0
 10 21  1  0
 21 22  2  0
 22 23  1  0
 23 24  1  0
 24 25  1  0
 24 26  2  0
 24 27  2  0
 22 28  1  0
 28 29  1  0
 28 30  2  0
 30 31  1  0
 30  9  1  0
 20 11  1  0
  1 32  1  0
  1 33  1  0
  1 34  1  0
  2 35  1  0
  2 36  1  0
  4 37  1  0
  4 38  1  0
  5 39  1  0
  5 40  1  0
  5 41  1  0
 12 42  1  0
 13 43  1  0
 17 44  1  0
 17 45  1  0
 17 46  1  0
 19 47  1  0
 20 48  1  0
 21 49  1  0
 25 50  1  0
 25 51  1  0
 25 52  1  0
 31 53  1  0
 31 54  1  0
 31 55  1  0
M  CHG  3  15  -1  23  -1  29  -1
M  END
>  <UniqueID>  (5) 
5

>  <SMILES>  (5) 
CCN(CC)S(=O)(=O)c1c(-c2ccc([N-]C(C)=O)cc2)cc([N-]S(C)(=O)=O)c([O-])c1C

>  <Energy>  (5) 
70.11487253858613

>  <Genealogy>  (5) 
CCN(CC)S(=O)(=O)c1c(-c2ccc([N-]C(C)=O)cc2)cc([N-]S(C)(=O)=O)c([O-])c1C (protonated)
CCN(CC)S(=O)(=O)c1c(-c2ccc([N-]C(C)=O)cc2)cc([N-]S(C)(=O)=O)c([O-])c1C (3D coordinates assigned)
CCN(CC)S(=O)(=O)c1c(-c2ccc([N-]C(C)=O)cc2)cc([N-]S(C)(=O)=O)c([O-])c1C (optimized conformer: 70.11487253858613 kcal/mol)

>  <smiles>  (5) 
CCN(CC)S(=O)(=O)c1c(-c2ccc(NC(C)=O)cc2)cc(NS(C)(=O)=O)c(O)c1C

>  <score_type>  (5) 
oracle

>  <origin>  (5) 
adgpu

>  <m_score__min__energy>  (5) 
-12.17

>  <m_primary>  (5) 
energy

$$$$
5:0
     RDKit          3D

 37 39  0  0  0  0  0  0  0  0999 V2000
   -2.5400   20.9370  -27.5810 C   0  0  0  0  0  0  0  0  0  0  0  0
   -2.1770   22.3070  -28.0710 C   0  0  0  0  0  0  0  0  0  0  0  0
   -1.0670   22.9760  -27.5350 C   0  0  0  0  0  0  0  0  0  0  0  0
   -0.7550   24.2710  -27.9580 C   0  0  0  0  0  0  0  0  0  0  0  0
   -1.5570   24.9130  -28.9060 C   0  0  0  0  0  0  0  0  0  0  0  0
   -1.2340   26.2030  -29.3150 O   0  0  0  0  0  0  0  0  0  0  0  0
   -2.6820   24.2650  -29.4380 C   0  0  0  0  0  0  0  0  0  0  0  0
   -3.4950   24.9640  -30.3910 N   0  0  0  0  0  0  0  0  0  0  0  0
   -5.2280   24.9150  -30.4570 S   0  0  0  0  0  0  0  0  0  0  0  0
   -5.7760   24.9530  -29.0600 O   0  0  0  0  0  0  0  0  0  0  0  0
   -5.7240   26.1150  -31.2140 O   0  0  0  0  0  0  0  0  0  0  0  0
   -5.7600   23.4270  -31.2360 C   0  0  0  0  0  0  0  0  0  0  0  0
   -4.8170   22.5700  -31.8530 C   0  0  0  0  0  0  0  0  0  0  0  0
   -5.2290   21.3700  -32.4580 C   0  0  0  0  0  0  0  0  0  0  0  0
   -6.5890   21.0560  -32.4300 C   0  0  0  0  0  0  0  0  0  0  0  0
   -7.5040   21.8880  -31.8330 C   0  0  0  0  0  0  0  0  0  0  0  0
   -7.1270   23.0840  -31.2290 C   0  0  0  0  0  0  0  0  0  0  0  0
   -8.7470   21.3010  -31.9480 C   0  0  0  0  0  0  0  0  0  0  0  0
   -8.5120   20.1100  -32.6270 C   0  0  0  0  0  0  0  0  0  0  0  0
   -9.4890   19.1750  -32.9540 O   0  0  0  0  0  0  0  0  0  0  0  0
   -7.2000   19.9640  -32.9310 N   0  0  0  0  0  0  0  0  0  0  0  0
   -6.5710   18.8300  -33.6030 C   0  0  0  0  0  0  0  0  0  0  0  0
   -2.9880   22.9590  -29.0130 C   0  0  0  0  0  0  0  0  0  0  0  0
   -2.5420   20.9296  -26.4810 H   0  0  0  0  0  0  0  0  0  0  0  0
   -3.5403   20.6683  -27.9513 H   0  0  0  0  0  0  0  0  0  0  0  0
   -1.8040   20.2082  -27.9513 H   0  0  0  0  0  0  0  0  0  0  0  0
   -0.4401   22.4800  -26.7794 H   0  0  0  0  0  0  0  0  0  0  0  0
    0.1241   24.7865  -27.5438 H   0  0  0  0  0  0  0  0  0  0  0  0
   -3.7521   22.8458  -31.8590 H   0  0  0  0  0  0  0  0  0  0  0  0
   -4.5021   20.6989  -32.9388 H   0  0  0  0  0  0  0  0  0  0  0  0
   -7.8737   23.7418  -30.7602 H   0  0  0  0  0  0  0  0  0  0  0  0
   -9.7099   21.6886  -31.5838 H   0  0  0  0  0  0  0  0  0  0  0  0
   -9.8470   19.1060  -33.9000 H   0  0  0  0  0  0  0  0  0  0  0  0
   -6.1816   18.1280  -32.8509 H   0  0  0  0  0  0  0  0  0  0  0  0
   -7.3142   18.3183  -34.2321 H   0  0  0  0  0  0  0  0  0  0  0  0
   -5.7434   19.1896  -34.2321 H   0  0  0  0  0  0  0  0  0  0  0  0
   -3.8700   22.4448  -29.4223 H   0  0  0  0  0  0  0  0  0  0  0  0
  1  2  1  0
  2  3  2  0
  3  4  1  0
  4  5  2  0
  5  6  1  0
  5  7  1  0
  7  8  1  0
  8  9  1  0
  9 10  2  0
  9 11  2  0
  9 12  1  0
 12 13  2  0
 13 14  1  0
 14 15  2  0
 15 16  1  0
 16 17  2  0
 16 18  1  0
 18 19  2  0
 19 20  1  0
 19 21  1  0
 21 22  1  0
  7 23  2  0
 23  2  1  0
 17 12  1  0
 21 15  1  0
  1 24  1  0
  1 25  1  0
  1 26  1  0
  3 27  1  0
  4 28  1  0
 13 29  1  0
 14 30  1  0
 17 31  1  0
 18 32  1  0
 20 33  1  0
 22 34  1  0
 22 35  1  0
 22 36  1  0
 23 37  1  0
M  CHG  2   6  -1   8  -1
M  END
>  <UniqueID>  (6) 
6

>  <SMILES>  (6) 
Cc1ccc([O-])c([N-]S(=O)(=O)c2ccc3c(c2)cc(O)n3C)c1

>  <Energy>  (6) 
74.75904545829393

>  <Genealogy>  (6) 
Cc1ccc([O-])c([N-]S(=O)(=O)c2ccc3c(c2)cc(O)n3C)c1 (protonated)
Cc1ccc([O-])c([N-]S(=O)(=O)c2ccc3c(c2)cc(O)n3C)c1 (3D coordinates assigned)
Cc1ccc([O-])c([N-]S(=O)(=O)c2ccc3c(c2)cc(O)n3C)c1 (optimized conformer: 74.75904545829393 kcal/mol)

>  <smiles>  (6) 
Cc1ccc(O)c(NS(=O)(=O)c2ccc3c(c2)cc(O)n3C)c1

>  <score_type>  (6) 
oracle

>  <origin>  (6) 
adgpu

>  <m_score__min__energy>  (6) 
-13.68

>  <m_primary>  (6) 
energy

$$$$
6:0
     RDKit          3D

 84 88  0  0  0  0  0  0  0  0999 V2000
   -0.3280   16.9400  -35.6780 C   0  0  0  0  0  0  0  0  0  0  0  0
   -0.9380   17.8680  -34.6730 C   0  0  0  0  0  0  0  0  0  0  0  0
   -1.7430   17.3690  -33.6450 C   0  0  0  0  0  0  0  0  0  0  0  0
   -2.3130   18.2280  -32.7080 C   0  0  0  0  0  0  0  0  0  0  0  0
   -2.0660   19.6120  -32.7720 C   0  0  0  0  0  0  0  0  0  0  0  0
   -2.5920   20.5030  -31.7740 N   0  0  0  0  0  0  0  0  0  0  0  0
   -1.8400   21.1850  -30.7740 C   0  0  0  0  0  0  0  0  0  0  0  0
   -1.3780   20.5250  -29.8040 O   0  0  0  0  0  0  0  0  0  0  0  0
   -1.5750   22.5930  -30.8730 N   0  0  0  0  0  0  0  0  0  0  0  0
   -1.5000   23.4150  -29.7010 C   0  0  0  0  0  0  0  0  0  0  0  0
   -0.5090   23.1620  -28.7350 C   0  0  0  0  0  0  0  0  0  0  0  0
   -0.4340   23.9330  -27.5700 C   0  0  0  0  0  0  0  0  0  0  0  0
    0.7400   23.5350  -26.3140 S   0  0  0  0  0  0  0  0  0  0  0  0
    2.0480   23.1720  -26.9640 O   0  0  0  0  0  0  0  0  0  0  0  0
    0.2610   22.3440  -25.5330 O   0  0  0  0  0  0  0  0  0  0  0  0
    0.9860   24.8750  -25.2160 N   0  0  0  0  0  0  0  0  0  0  0  0
   -0.1030   24.9620  -24.2130 C   0  0  0  0  0  0  0  0  0  0  0  0
   -1.1270   26.0540  -24.5470 C   0  0  0  0  0  0  0  0  0  0  0  0
   -0.4580   27.4390  -24.6290 C   0  0  0  0  0  0  0  0  0  0  0  0
    1.0030   27.3640  -25.0970 C   0  0  0  0  0  0  0  0  0  0  0  0
    1.2370   26.1250  -25.9700 C   0  0  0  0  0  0  0  0  0  0  0  0
   -1.3320   24.9900  -27.3850 C   0  0  0  0  0  0  0  0  0  0  0  0
   -2.3180   25.2500  -28.3360 C   0  0  0  0  0  0  0  0  0  0  0  0
   -2.4190   24.4590  -29.4990 C   0  0  0  0  0  0  0  0  0  0  0  0
   -3.4180   24.7380  -30.4950 N   0  0  0  0  0  0  0  0  0  0  0  0
   -4.8120   24.5380  -30.2510 C   0  0  0  0  0  0  0  0  0  0  0  0
   -5.3910   25.2180  -29.3570 O   0  0  0  0  0  0  0  0  0  0  0  0
   -5.5370   23.4620  -30.9420 C   0  0  0  0  0  0  0  0  0  0  0  0
   -6.9390   23.4190  -30.9130 C   0  0  0  0  0  0  0  0  0  0  0  0
   -7.6150   22.3980  -31.5860 C   0  0  0  0  0  0  0  0  0  0  0  0
   -6.9100   21.4380  -32.3310 C   0  0  0  0  0  0  0  0  0  0  0  0
   -7.6540   20.3460  -33.0670 C   0  0  0  0  0  0  0  0  0  0  0  0
   -6.8770   19.0910  -33.2230 N   0  0  0  0  0  0  0  0  0  0  0  0
   -5.9190   19.1320  -34.3440 C   0  0  0  0  0  0  0  0  0  0  0  0
   -5.0370   17.8630  -34.3930 C   0  0  0  0  0  0  0  0  0  0  0  0
   -5.5740   16.7570  -33.5740 N   0  0  0  0  0  0  0  0  0  0  0  0
   -6.7750   16.1510  -34.1670 C   0  0  0  0  0  0  0  0  0  0  0  0
   -5.7800   17.1450  -32.1630 C   0  0  0  0  0  0  0  0  0  0  0  0
   -6.2460   18.6080  -31.9850 C   0  0  0  0  0  0  0  0  0  0  0  0
   -5.5150   21.5260  -32.4070 C   0  0  0  0  0  0  0  0  0  0  0  0
   -4.8320   22.5170  -31.6980 C   0  0  0  0  0  0  0  0  0  0  0  0
   -1.1990   20.1090  -33.7630 C   0  0  0  0  0  0  0  0  0  0  0  0
   -0.8870   21.5800  -33.8340 C   0  0  0  0  0  0  0  0  0  0  0  0
   -0.6490   19.2320  -34.7170 C   0  0  0  0  0  0  0  0  0  0  0  0
    0.2036   16.1313  -35.1551 H   0  0  0  0  0  0  0  0  0  0  0  0
   -1.1203   16.5102  -36.3085 H   0  0  0  0  0  0  0  0  0  0  0  0
    0.3807   17.4969  -36.3085 H   0  0  0  0  0  0  0  0  0  0  0  0
   -1.9283   16.2870  -33.5751 H   0  0  0  0  0  0  0  0  0  0  0  0
   -2.9587   17.8229  -31.9150 H   0  0  0  0  0  0  0  0  0  0  0  0
   -1.4410   23.0210  -31.8210 H   0  0  0  0  0  0  0  0  0  0  0  0
    0.2145   22.3495  -28.8974 H   0  0  0  0  0  0  0  0  0  0  0  0
   -0.6221   23.9931  -24.1717 H   0  0  0  0  0  0  0  0  0  0  0  0
    0.3544   25.2189  -23.2462 H   0  0  0  0  0  0  0  0  0  0  0  0
   -1.5943   25.8234  -25.5157 H   0  0  0  0  0  0  0  0  0  0  0  0
   -1.8825   26.0790  -23.7479 H   0  0  0  0  0  0  0  0  0  0  0  0
   -1.0233   28.0616  -25.3381 H   0  0  0  0  0  0  0  0  0  0  0  0
   -0.4613   27.8704  -23.6171 H   0  0  0  0  0  0  0  0  0  0  0  0
    1.2406   28.2656  -25.6808 H   0  0  0  0  0  0  0  0  0  0  0  0
    1.6519   27.2966  -24.2113 H   0  0  0  0  0  0  0  0  0  0  0  0
    0.5581   26.1634  -26.8346 H   0  0  0  0  0  0  0  0  0  0  0  0
    2.2873   26.1262  -26.2968 H   0  0  0  0  0  0  0  0  0  0  0  0
   -1.2598   25.6187  -26.4853 H   0  0  0  0  0  0  0  0  0  0  0  0
   -3.0231   26.0793  -28.1777 H   0  0  0  0  0  0  0  0  0  0  0  0
   -7.5038   24.1859  -30.3627 H   0  0  0  0  0  0  0  0  0  0  0  0
   -8.7124   22.3453  -31.5318 H   0  0  0  0  0  0  0  0  0  0  0  0
   -8.5742   20.1170  -32.5095 H   0  0  0  0  0  0  0  0  0  0  0  0
   -7.8579   20.7241  -34.0796 H   0  0  0  0  0  0  0  0  0  0  0  0
   -6.4785   19.2133  -35.2876 H   0  0  0  0  0  0  0  0  0  0  0  0
   -5.2600   20.0007  -34.1987 H   0  0  0  0  0  0  0  0  0  0  0  0
   -4.9671   17.5244  -35.4373 H   0  0  0  0  0  0  0  0  0  0  0  0
   -4.0522   18.1297  -33.9820 H   0  0  0  0  0  0  0  0  0  0  0  0
   -7.4480   15.8114  -33.3659 H   0  0  0  0  0  0  0  0  0  0  0  0
   -7.2924   16.8959  -34.7894 H   0  0  0  0  0  0  0  0  0  0  0  0
   -6.4832   15.2922  -34.7894 H   0  0  0  0  0  0  0  0  0  0  0  0
   -6.5422   16.4819  -31.7278 H   0  0  0  0  0  0  0  0  0  0  0  0
   -4.8072   17.0527  -31.6578 H   0  0  0  0  0  0  0  0  0  0  0  0
   -6.9732   18.6607  -31.1613 H   0  0  0  0  0  0  0  0  0  0  0  0
   -5.3743   19.2384  -31.7552 H   0  0  0  0  0  0  0  0  0  0  0  0
   -4.9542   20.8117  -33.0277 H   0  0  0  0  0  0  0  0  0  0  0  0
   -3.7333   22.5554  -31.7337 H   0  0  0  0  0  0  0  0  0  0  0  0
   -0.8009   21.9861  -32.8154 H   0  0  0  0  0  0  0  0  0  0  0  0
    0.0625   21.7280  -34.3693 H   0  0  0  0  0  0  0  0  0  0  0  0
   -1.6947   22.1007  -34.3693 H   0  0  0  0  0  0  0  0  0  0  0  0
    0.0132   19.6250  -35.5025 H   0  0  0  0  0  0  0  0  0  0  0  0
  1  2  1  0
  2  3  2  0
  3  4  1  0
  4  5  2  0
  5  6  1  0
  6  7  1  0
  7  8  2  0
  7  9  1  0
  9 10  1  0
 10 11  2  0
 11 12  1  0
 12 13  1  0
 13 14  2  0
 13 15  2  0
 13 16  1  0
 16 17  1  0
 17 18  1  0
 18 19  1  0
 19 20  1  0
 20 21  1  0
 12 22  2  0
 22 23  1  0
 23 24  2  0
 24 25  1  0
 25 26  1  0
 26 27  2  0
 26 28  1  0
 28 29  2  0
 29 30  1  0
 30 31  2  0
 31 32  1  0
 32 33  1  0
 33 34  1  0
 34 35  1  0
 35 36  1  0
 36 37  1  0
 36 38  1  0
 38 39  1  0
 31 40  1  0
 40 41  2  0
  5 42  1  0
 42 43  1  0
 42 44  2  0
 44  2  1  0
 24 10  1  0
 41 28  1  0
 21 16  1  0
 39 33  1  0
  1 45  1  0
  1 46  1  0
  1 47  1  0
  3 48  1  0
  4 49  1  0
  9 50  1  0
 11 51  1  0
 17 52  1  0
 17 53  1  0
 18 54  1  0
 18 55  1  0
 19 56  1  0
 19 57  1  0
 20 58  1  0
 20 59  1  0
 21 60  1  0
 21 61  1  0
 22 62  1  0
 23 63  1  0
 29 64  1  0
 30 65  1  0
 32 66  1  0
 32 67  1  0
 34 68  1  0
 34 69  1  0
 35 70  1  0
 35 71  1  0
 37 72  1  0
 37 73  1  0
 37 74  1  0
 38 75  1  0
 38 76  1  0
 39 77  1  0
 39 78  1  0
 40 79  1  0
 41 80  1  0
 43 81  1  0
 43 82  1  0
 43 83  1  0
 44 84  1  0
M  CHG  2   6  -1  25  -1
M  END
>  <UniqueID>  (7) 
7

>  <SMILES>  (7) 
Cc1ccc([N-]C(=O)Nc2cc(S(=O)(=O)N3CCCCC3)ccc2[N-]C(=O)c2ccc(CN3CCN(C)CC3)cc2)c(C)c1

>  <Energy>  (7) 
127.19494615562878

>  <Genealogy>  (7) 
Cc1ccc([N-]C(=O)Nc2cc(S(=O)(=O)N3CCCCC3)ccc2[N-]C(=O)c2ccc(CN3CCN(C)CC3)cc2)c(C)c1 (protonated)
Cc1ccc([N-]C(=O)Nc2cc(S(=O)(=O)N3CCCCC3)ccc2[N-]C(=O)c2ccc(CN3CCN(C)CC3)cc2)c(C)c1 (3D coordinates assigned)
Cc1ccc([N-]C(=O)Nc2cc(S(=O)(=O)N3CCCCC3)ccc2[N-]C(=O)c2ccc(CN3CCN(C)CC3)cc2)c(C)c1 (nonaromatic ring conformer: 127.19494615562878 kcal/mol)

>  <smiles>  (7) 
Cc1ccc(NC(=O)Nc2cc(S(=O)(=O)N3CCCCC3)ccc2NC(=O)c2ccc(CN3CCN(C)CC3)cc2)c(C)c1

>  <score_type>  (7) 
oracle

>  <origin>  (7) 
adgpu

>  <m_score__min__energy>  (7) 
-14.25

>  <m_primary>  (7) 
energy

$$$$
7:0
     RDKit          3D

 47 49  0  0  0  0  0  0  0  0999 V2000
   -5.1130   16.5210  -34.2390 C   0  0  0  0  0  0  0  0  0  0  0  0
   -6.4490   16.7410  -33.7990 O   0  0  0  0  0  0  0  0  0  0  0  0
   -6.9050   17.9330  -33.2160 C   0  0  0  0  0  0  0  0  0  0  0  0
   -7.8270   17.9500  -32.1510 C   0  0  0  0  0  0  0  0  0  0  0  0
   -8.2500   19.1640  -31.6040 C   0  0  0  0  0  0  0  0  0  0  0  0
   -7.7650   20.3750  -32.1160 C   0  0  0  0  0  0  0  0  0  0  0  0
   -8.2770   21.9020  -31.4070 S   0  0  0  0  0  0  0  0  0  0  0  0
   -9.2250   22.6090  -32.3350 O   0  0  0  0  0  0  0  0  0  0  0  0
   -8.9950   21.6460  -30.1110 O   0  0  0  0  0  0  0  0  0  0  0  0
   -6.8600   22.9060  -31.1290 C   0  0  0  0  0  0  0  0  0  0  0  0
   -6.9860   24.2940  -31.0030 C   0  0  0  0  0  0  0  0  0  0  0  0
   -5.8560   25.0810  -30.7680 C   0  0  0  0  0  0  0  0  0  0  0  0
   -4.5940   24.4890  -30.6540 C   0  0  0  0  0  0  0  0  0  0  0  0
   -3.4880   25.2990  -30.4220 O   0  0  0  0  0  0  0  0  0  0  0  0
   -4.4580   23.0930  -30.7770 C   0  0  0  0  0  0  0  0  0  0  0  0
   -2.8760   22.3020  -30.6620 S   0  0  0  0  0  0  0  0  0  0  0  0
   -1.8470   23.2850  -30.1750 O   0  0  0  0  0  0  0  0  0  0  0  0
   -2.9580   21.1890  -29.6540 O   0  0  0  0  0  0  0  0  0  0  0  0
   -2.3710   21.6480  -32.2030 N   0  0  0  0  0  0  0  0  0  0  0  0
   -1.0190   21.0390  -32.1270 C   0  0  0  0  0  0  0  0  0  0  0  0
   -1.0510   19.5040  -32.1040 C   0  0  0  0  0  0  0  0  0  0  0  0
   -1.7580   18.9460  -33.3520 C   0  0  0  0  0  0  0  0  0  0  0  0
   -2.8660   19.8760  -33.8760 C   0  0  0  0  0  0  0  0  0  0  0  0
   -3.4190   20.7610  -32.7540 C   0  0  0  0  0  0  0  0  0  0  0  0
   -5.6000   22.3090  -31.0040 C   0  0  0  0  0  0  0  0  0  0  0  0
   -6.8420   20.3620  -33.1690 C   0  0  0  0  0  0  0  0  0  0  0  0
   -6.4180   19.1470  -33.7170 C   0  0  0  0  0  0  0  0  0  0  0  0
   -4.4527   16.4123  -33.3660 H   0  0  0  0  0  0  0  0  0  0  0  0
   -5.0730   15.6042  -34.8455 H   0  0  0  0  0  0  0  0  0  0  0  0
   -4.7811   17.3766  -34.8455 H   0  0  0  0  0  0  0  0  0  0  0  0
   -8.2157   17.0031  -31.7482 H   0  0  0  0  0  0  0  0  0  0  0  0
   -8.9659   19.1693  -30.7689 H   0  0  0  0  0  0  0  0  0  0  0  0
   -7.9759   24.7659  -31.0891 H   0  0  0  0  0  0  0  0  0  0  0  0
   -5.9593   26.1719  -30.6721 H   0  0  0  0  0  0  0  0  0  0  0  0
   -0.4387   21.3641  -33.0031 H   0  0  0  0  0  0  0  0  0  0  0  0
   -0.5615   21.3720  -31.1837 H   0  0  0  0  0  0  0  0  0  0  0  0
   -0.0193   19.1235  -32.0752 H   0  0  0  0  0  0  0  0  0  0  0  0
   -1.6077   19.1794  -31.2125 H   0  0  0  0  0  0  0  0  0  0  0  0
   -1.0104   18.8075  -34.1469 H   0  0  0  0  0  0  0  0  0  0  0  0
   -2.2315   17.9950  -33.0667 H   0  0  0  0  0  0  0  0  0  0  0  0
   -2.4522   20.5170  -34.6684 H   0  0  0  0  0  0  0  0  0  0  0  0
   -3.6857   19.2565  -34.2688 H   0  0  0  0  0  0  0  0  0  0  0  0
   -4.2367   21.3783  -33.1545 H   0  0  0  0  0  0  0  0  0  0  0  0
   -3.7830   20.1098  -31.9456 H   0  0  0  0  0  0  0  0  0  0  0  0
   -5.5040   21.2161  -31.0844 H   0  0  0  0  0  0  0  0  0  0  0  0
   -6.4494   21.3097  -33.5662 H   0  0  0  0  0  0  0  0  0  0  0  0
   -5.6968   19.1448  -34.5476 H   0  0  0  0  0  0  0  0  0  0  0  0
  1  2  1  0
  2  3  1  0
  3  4  2  0
  4  5  1  0
  5  6  2  0
  6  7  1  0
  7  8  2  0
  7  9  2  0
  7 10  1  0
 10 11  2  0
 11 12  1  0
 12 13  2  0
 13 14  1  0
 13 15  1  0
 15 16  1  0
 16 17  2  0
 16 18  2  0
 16 19  1  0
 19 20  1  0
 20 21  1  0
 21 22  1  0
 22 23  1  0
 23 24  1  0
 15 25  2  0
  6 26  1  0
 26 27  2  0
 27  3  1  0
 25 10  1  0
 24 19  1  0
  1 28  1  0
  1 29  1  0
  1 30  1  0
  4 31  1  0
  5 32  1  0
 11 33  1  0
 12 34  1  0
 20 35  1  0
 20 36  1  0
 21 37  1  0
 21 38  1  0
 22 39  1  0
 22 40  1  0
 23 41  1  0
 23 42  1  0
 24 43  1  0
 24 44  1  0
 25 45  1  0
 26 46  1  0
 27 47  1  0
M  CHG  1  14  -1
M  END
>  <UniqueID>  (8) 
8

>  <SMILES>  (8) 
COc1ccc(S(=O)(=O)c2ccc([O-])c(S(=O)(=O)N3CCCCC3)c2)cc1

>  <Energy>  (8) 
54.85339290224537

>  <Genealogy>  (8) 
COc1ccc(S(=O)(=O)c2ccc([O-])c(S(=O)(=O)N3CCCCC3)c2)cc1 (protonated)
COc1ccc(S(=O)(=O)c2ccc([O-])c(S(=O)(=O)N3CCCCC3)c2)cc1 (3D coordinates assigned)
COc1ccc(S(=O)(=O)c2ccc([O-])c(S(=O)(=O)N3CCCCC3)c2)cc1 (nonaromatic ring conformer: 54.85339290224537 kcal/mol)

>  <smiles>  (8) 
COc1ccc(S(=O)(=O)c2ccc(O)c(S(=O)(=O)N3CCCCC3)c2)cc1

>  <score_type>  (8) 
oracle

>  <origin>  (8) 
adgpu

>  <m_score__min__energy>  (8) 
-12.69

>  <m_primary>  (8) 
energy

$$$$
8:0
     RDKit          3D

 41 43  0  0  0  0  0  0  0  0999 V2000
   -7.2130   14.4680  -34.6060 C   0  0  0  0  0  0  0  0  0  0  0  0
   -5.8250   13.9380  -34.2550 C   0  0  0  0  0  0  0  0  0  0  0  0
   -5.1230   14.8450  -33.2810 C   0  0  0  0  0  0  0  0  0  0  0  0
   -4.6490   14.3620  -32.2170 O   0  0  0  0  0  0  0  0  0  0  0  0
   -4.9530   16.2440  -33.5520 N   0  0  0  0  0  0  0  0  0  0  0  0
   -3.9940   16.7660  -34.5270 C   0  0  0  0  0  0  0  0  0  0  0  0
   -4.2690   18.2850  -34.6240 C   0  0  0  0  0  0  0  0  0  0  0  0
   -5.3300   18.5110  -33.6050 C   0  0  0  0  0  0  0  0  0  0  0  0
   -5.8870   19.7260  -33.2050 C   0  0  0  0  0  0  0  0  0  0  0  0
   -6.8270   19.7270  -32.1590 C   0  0  0  0  0  0  0  0  0  0  0  0
   -7.5210   21.2520  -31.6160 S   0  0  0  0  0  0  0  0  0  0  0  0
   -7.4720   22.2250  -32.7600 O   0  0  0  0  0  0  0  0  0  0  0  0
   -8.9610   21.0580  -31.2290 O   0  0  0  0  0  0  0  0  0  0  0  0
   -6.6330   21.9270  -30.2720 N   0  0  0  0  0  0  0  0  0  0  0  0
   -6.8770   23.3620  -30.0610 C   0  0  2  0  0  0  0  0  0  0  0  0
   -7.8820   23.8340  -30.9180 O   0  0  0  0  0  0  0  0  0  0  0  0
   -5.6170   24.1730  -30.2080 C   0  0  0  0  0  0  0  0  0  0  0  0
   -5.3300   25.1080  -31.1870 C   0  0  0  0  0  0  0  0  0  0  0  0
   -4.0990   25.6270  -31.0030 N   0  0  0  0  0  0  0  0  0  0  0  0
   -3.6190   25.0130  -29.9040 C   0  0  0  0  0  0  0  0  0  0  0  0
   -2.3610   25.2710  -29.3760 O   0  0  0  0  0  0  0  0  0  0  0  0
   -4.5180   24.1110  -29.3790 C   0  0  0  0  0  0  0  0  0  0  0  0
   -7.1750   18.5130  -31.5290 C   0  0  0  0  0  0  0  0  0  0  0  0
   -6.5950   17.3040  -31.9450 C   0  0  0  0  0  0  0  0  0  0  0  0
   -5.6910   17.3310  -33.0130 C   0  0  0  0  0  0  0  0  0  0  0  0
   -7.7691   14.6804  -33.6810 H   0  0  0  0  0  0  0  0  0  0  0  0
   -7.1146   15.3918  -35.1950 H   0  0  0  0  0  0  0  0  0  0  0  0
   -7.7554   13.7137  -35.1950 H   0  0  0  0  0  0  0  0  0  0  0  0
   -5.9261   12.9392  -33.8054 H   0  0  0  0  0  0  0  0  0  0  0  0
   -5.2280   13.8912  -35.1777 H   0  0  0  0  0  0  0  0  0  0  0  0
   -2.9643   16.5850  -34.1850 H   0  0  0  0  0  0  0  0  0  0  0  0
   -4.1043   16.2733  -35.5043 H   0  0  0  0  0  0  0  0  0  0  0  0
   -3.3649   18.8644  -34.3856 H   0  0  0  0  0  0  0  0  0  0  0  0
   -4.5693   18.6027  -35.6334 H   0  0  0  0  0  0  0  0  0  0  0  0
   -5.5965   20.6652  -33.6984 H   0  0  0  0  0  0  0  0  0  0  0  0
   -7.2251   23.4842  -29.0247 H   0  0  0  0  0  0  0  0  0  0  0  0
   -8.5100   23.0780  -31.0610 H   0  0  0  0  0  0  0  0  0  0  0  0
   -6.0121   25.3892  -32.0029 H   0  0  0  0  0  0  0  0  0  0  0  0
   -4.3868   23.4775  -28.4894 H   0  0  0  0  0  0  0  0  0  0  0  0
   -7.9055   18.5140  -30.7066 H   0  0  0  0  0  0  0  0  0  0  0  0
   -6.8453   16.3577  -31.4432 H   0  0  0  0  0  0  0  0  0  0  0  0
  1  2  1  0
  2  3  1  0
  3  4  2  0
  3  5  1  0
  5  6  1  0
  6  7  1  0
  7  8  1  0
  8  9  2  0
  9 10  1  0
 10 11  1  0
 11 12  2  0
 11 13  2  0
 11 14  1  0
 14 15  1  0
 15 16  1  0
 15 17  1  0
 17 18  2  0
 18 19  1  0
 19 20  1  0
 20 21  1  0
 20 22  2  0
 10 23  2  0
 23 24  1  0
 24 25  2  0
 25  5  1  0
 25  8  1  0
 22 17  1  0
  1 26  1  0
  1 27  1  0
  1 28  1  0
  2 29  1  0
  2 30  1  0
  6 31  1  0
  6 32  1  0
  7 33  1  0
  7 34  1  0
  9 35  1  0
 15 36  1  1
 16 37  1  0
 18 38  1  0
 22 39  1  0
 23 40  1  0
 24 41  1  0
M  CHG  3  14  -1  19  -1  21  -1
M  END
>  <UniqueID>  (9) 
9

>  <SMILES>  (9) 
CCC(=O)N1CCc2cc(S(=O)(=O)[N-][C@H](O)c3c[n-]c([O-])c3)ccc21

>  <Energy>  (9) 
83.77513152167938

>  <Genealogy>  (9) 
CCC(=O)N1CCc2cc(S(=O)(=O)[N-]C(O)c3c[n-]c([O-])c3)ccc21 (protonated)
CCC(=O)N1CCc2cc(S(=O)(=O)[N-][C@H](O)c3c[n-]c([O-])c3)ccc21 (chirality)
CCC(=O)N1CCc2cc(S(=O)(=O)[N-][C@H](O)c3c[n-]c([O-])c3)ccc21 (3D coordinates assigned)
CCC(=O)N1CCc2cc(S(=O)(=O)[N-][C@H](O)c3c[n-]c([O-])c3)ccc21 (nonaromatic ring conformer: 83.77513152167938 kcal/mol)

>  <smiles>  (9) 
CCC(=O)N1CCc2cc(S(=O)(=O)NC(O)c3c[nH]c(O)c3)ccc21

>  <score_type>  (9) 
oracle

>  <origin>  (9) 
adgpu

>  <m_score__min__energy>  (9) 
-12.890000000000001

>  <m_primary>  (9) 
energy

$$$$
9:0
     RDKit          3D

 36 38  0  0  0  0  0  0  0  0999 V2000
   -4.1590   23.0470  -27.5080 C   0  0  0  0  0  0  0  0  0  0  0  0
   -2.8860   22.5250  -28.1200 C   0  0  0  0  0  0  0  0  0  0  0  0
   -2.4350   21.2500  -27.7350 C   0  0  0  0  0  0  0  0  0  0  0  0
   -1.2840   20.7020  -28.3020 C   0  0  0  0  0  0  0  0  0  0  0  0
   -0.5680   21.4160  -29.2610 C   0  0  0  0  0  0  0  0  0  0  0  0
   -0.9890   22.6920  -29.6420 C   0  0  0  0  0  0  0  0  0  0  0  0
   -2.1290   23.2720  -29.0600 C   0  0  0  0  0  0  0  0  0  0  0  0
   -2.4940   24.6510  -29.4600 C   0  0  0  0  0  0  0  0  0  0  0  0
   -1.8950   25.6210  -28.9260 O   0  0  0  0  0  0  0  0  0  0  0  0
   -3.4940   24.9210  -30.4530 N   0  0  0  0  0  0  0  0  0  0  0  0
   -4.6890   24.1620  -30.6890 C   0  0  0  0  0  0  0  0  0  0  0  0
   -5.9410   24.8020  -30.5430 C   0  0  0  0  0  0  0  0  0  0  0  0
   -7.1380   24.1010  -30.7670 C   0  0  0  0  0  0  0  0  0  0  0  0
   -7.0490   22.7580  -31.1250 C   0  0  0  0  0  0  0  0  0  0  0  0
   -5.8460   22.1250  -31.2440 C   0  0  0  0  0  0  0  0  0  0  0  0
   -4.6420   22.7870  -31.0220 C   0  0  0  0  0  0  0  0  0  0  0  0
   -6.1220   20.7390  -31.5960 C   0  0  0  0  0  0  0  0  0  0  0  0
   -5.2370   19.8540  -31.7420 O   0  0  0  0  0  0  0  0  0  0  0  0
   -7.5350   20.4780  -31.7260 N   0  0  2  0  0  0  0  0  0  0  0  0
   -7.8710   20.0970  -33.1050 C   0  0  0  0  0  0  0  0  0  0  0  0
   -8.0830   21.7720  -31.4030 C   0  0  0  0  0  0  0  0  0  0  0  0
   -9.3210   22.0040  -31.3380 O   0  0  0  0  0  0  0  0  0  0  0  0
   -4.0790   23.0142  -26.4114 H   0  0  0  0  0  0  0  0  0  0  0  0
   -4.3232   24.0851  -27.8328 H   0  0  0  0  0  0  0  0  0  0  0  0
   -5.0047   22.4231  -27.8328 H   0  0  0  0  0  0  0  0  0  0  0  0
   -2.9950   20.6792  -26.9796 H   0  0  0  0  0  0  0  0  0  0  0  0
   -0.9409   19.7041  -27.9914 H   0  0  0  0  0  0  0  0  0  0  0  0
    0.3296   20.9742  -29.7183 H   0  0  0  0  0  0  0  0  0  0  0  0
   -0.4233   23.2478  -30.4043 H   0  0  0  0  0  0  0  0  0  0  0  0
   -5.9786   25.8617  -30.2505 H   0  0  0  0  0  0  0  0  0  0  0  0
   -8.1142   24.5971  -30.6629 H   0  0  0  0  0  0  0  0  0  0  0  0
   -3.6815   22.2569  -31.1030 H   0  0  0  0  0  0  0  0  0  0  0  0
   -7.8460   19.7570  -31.0340 H   0  0  0  0  0  0  0  0  0  0  0  0
   -8.5985   19.2721  -33.0906 H   0  0  0  0  0  0  0  0  0  0  0  0
   -8.3066   20.9609  -33.6283 H   0  0  0  0  0  0  0  0  0  0  0  0
   -6.9594   19.7728  -33.6283 H   0  0  0  0  0  0  0  0  0  0  0  0
  1  2  1  0
  2  3  2  0
  3  4  1  0
  4  5  2  0
  5  6  1  0
  6  7  2  0
  7  8  1  0
  8  9  2  0
  8 10  1  0
 10 11  1  0
 11 12  2  0
 12 13  1  0
 13 14  2  0
 14 15  1  0
 15 16  2  0
 15 17  1  0
 17 18  2  0
 17 19  1  0
 19 20  1  0
 19 21  1  0
 21 22  2  0
  7  2  1  0
 16 11  1  0
 21 14  1  0
  1 23  1  0
  1 24  1  0
  1 25  1  0
  3 26  1  0
  4 27  1  0
  5 28  1  0
  6 29  1  0
 12 30  1  0
 13 31  1  0
 16 32  1  0
 19 33  1  1
 20 34  1  0
 20 35  1  0
 20 36  1  0
M  CHG  2  10  -1  19   1
M  END
>  <UniqueID>  (10) 
10

>  <SMILES>  (10) 
Cc1ccccc1C(=O)[N-]c1ccc2c(c1)C(=O)[N@H+](C)C2=O

>  <Energy>  (10) 
71.63235444108986

>  <Genealogy>  (10) 
Cc1ccccc1C(=O)[N-]c1ccc2c(c1)C(=O)[NH+](C)C2=O (protonated)
Cc1ccccc1C(=O)[N-]c1ccc2c(c1)C(=O)[N@H+](C)C2=O (chirality)
Cc1ccccc1C(=O)[N-]c1ccc2c(c1)C(=O)[N@H+](C)C2=O (3D coordinates assigned)
Cc1ccccc1C(=O)[N-]c1ccc2c(c1)C(=O)[N@H+](C)C2=O (nonaromatic ring conformer: 71.63235444108986 kcal/mol)

>  <smiles>  (10) 
Cc1ccccc1C(=O)Nc1ccc2c(c1)C(=O)N(C)C2=O

>  <score_type>  (10) 
oracle

>  <origin>  (10) 
adgpu

>  <m_score__min__energy>  (10) 
-9.5099999999999998

>  <m_primary>  (10) 
energy

$$$$
10:0
     RDKit          3D

 28 29  0  0  0  0  0  0  0  0999 V2000
   -0.4150   24.4660  -24.6420 N   0  0  0  0  0  0  0  0  0  0  0  0
   -0.8210   24.2870  -26.0010 C   0  0  0  0  0  0  0  0  0  0  0  0
   -0.9890   22.9980  -26.5230 C   0  0  0  0  0  0  0  0  0  0  0  0
   -1.3900   22.8240  -27.8510 C   0  0  0  0  0  0  0  0  0  0  0  0
   -1.6450   23.9320  -28.6670 C   0  0  0  0  0  0  0  0  0  0  0  0
   -2.0610   23.7100  -30.0210 N   0  0  0  0  0  0  0  0  0  0  0  0
   -3.1200   22.8390  -30.4410 C   0  0  0  0  0  0  0  0  0  0  0  0
   -2.8490   21.6360  -30.6960 O   0  0  0  0  0  0  0  0  0  0  0  0
   -4.5300   23.2930  -30.4800 C   0  0  0  0  0  0  0  0  0  0  0  0
   -5.5550   22.3420  -30.3210 C   0  0  0  0  0  0  0  0  0  0  0  0
   -6.8960   22.7240  -30.3970 C   0  0  0  0  0  0  0  0  0  0  0  0
   -7.2310   24.0550  -30.6400 C   0  0  0  0  0  0  0  0  0  0  0  0
   -6.2260   25.0110  -30.7970 C   0  0  0  0  0  0  0  0  0  0  0  0
   -4.8780   24.6470  -30.7070 C   0  0  0  0  0  0  0  0  0  0  0  0
   -3.9170   25.6550  -30.8180 O   0  0  0  0  0  0  0  0  0  0  0  0
   -1.4370   25.2290  -28.1550 C   0  0  0  0  0  0  0  0  0  0  0  0
   -1.5900   26.3490  -28.9640 O   0  0  0  0  0  0  0  0  0  0  0  0
   -1.0420   25.4010  -26.8240 C   0  0  0  0  0  0  0  0  0  0  0  0
   -0.8210   25.2310  -24.0580 H   0  0  0  0  0  0  0  0  0  0  0  0
    0.2960   23.8330  -24.2090 H   0  0  0  0  0  0  0  0  0  0  0  0
   -0.8049   22.1202  -25.8862 H   0  0  0  0  0  0  0  0  0  0  0  0
   -1.5060   21.8085  -28.2576 H   0  0  0  0  0  0  0  0  0  0  0  0
   -5.2977   21.2888  -30.1353 H   0  0  0  0  0  0  0  0  0  0  0  0
   -7.6892   21.9734  -30.2649 H   0  0  0  0  0  0  0  0  0  0  0  0
   -8.2879   24.3522  -30.7081 H   0  0  0  0  0  0  0  0  0  0  0  0
   -6.4960   26.0592  -30.9931 H   0  0  0  0  0  0  0  0  0  0  0  0
   -3.0660   25.6720  -30.2720 H   0  0  0  0  0  0  0  0  0  0  0  0
   -0.9040   26.4151  -26.4209 H   0  0  0  0  0  0  0  0  0  0  0  0
  1  2  1  0
  2  3  2  0
  3  4  1  0
  4  5  2  0
  5  6  1  0
  6  7  1  0
  7  8  2  0
  7  9  1  0
  9 10  2  0
 10 11  1  0
 11 12  2  0
 12 13  1  0
 13 14  2  0
 14 15  1  0
  5 16  1  0
 16 17  1  0
 16 18  2  0
 18  2  1  0
 14  9  1  0
  1 19  1  0
  1 20  1  0
  3 21  1  0
  4 22  1  0
 10 23  1  0
 11 24  1  0
 12 25  1  0
 13 26  1  0
 15 27  1  0
 18 28  1  0
M  CHG  2   6  -1  17  -1
M  END
>  <UniqueID>  (11) 
11

>  <SMILES>  (11) 
Nc1ccc([N-]C(=O)c2ccccc2O)c([O-])c1

>  <Energy>  (11) 
39.2460640276168

>  <Genealogy>  (11) 
Nc1ccc([N-]C(=O)c2ccccc2O)c([O-])c1 (protonated)
Nc1ccc([N-]C(=O)c2ccccc2O)c([O-])c1 (3D coordinates assigned)
Nc1ccc([N-]C(=O)c2ccccc2O)c([O-])c1 (optimized conformer: 39.2460640276168 kcal/mol)

>  <smiles>  (11) 
Nc1ccc(NC(=O)c2ccccc2O)c(O)c1

>  <score_type>  (11) 
oracle

>  <origin>  (11) 
adgpu

>  <m_score__min__energy>  (11) 
-10.880000000000001

>  <m_primary>  (11) 
energy

$$$$
11:0
     RDKit          3D

 57 60  0  0  0  0  0  0  0  0999 V2000
   -6.3300   24.2260  -29.9050 N   0  0  0  0  0  0  0  0  0  0  0  0
   -6.6840   22.9720  -30.5010 C   0  0  0  0  0  0  0  0  0  0  0  0
   -7.8900   22.3600  -30.1370 C   0  0  0  0  0  0  0  0  0  0  0  0
   -8.2770   21.1540  -30.7190 C   0  0  0  0  0  0  0  0  0  0  0  0
   -7.4750   20.5550  -31.6950 C   0  0  0  0  0  0  0  0  0  0  0  0
   -7.9550   19.0190  -32.4220 S   0  0  0  0  0  0  0  0  0  0  0  0
   -9.2920   19.1850  -33.0910 O   0  0  0  0  0  0  0  0  0  0  0  0
   -8.1030   17.9830  -31.3430 O   0  0  0  0  0  0  0  0  0  0  0  0
   -6.7780   18.4600  -33.5930 N   0  0  0  0  0  0  0  0  0  0  0  0
   -5.4030   18.6780  -33.1190 C   0  0  0  0  0  0  0  0  0  0  0  0
   -4.8000   17.3330  -32.7280 C   0  0  0  0  0  0  0  0  0  0  0  0
   -5.8880   16.3060  -32.9700 C   0  0  0  0  0  0  0  0  0  0  0  0
   -6.9150   17.0180  -33.8290 C   0  0  0  0  0  0  0  0  0  0  0  0
   -6.2730   21.1660  -32.0740 C   0  0  0  0  0  0  0  0  0  0  0  0
   -5.8420   22.3520  -31.4500 C   0  0  0  0  0  0  0  0  0  0  0  0
   -4.5820   22.9630  -31.7840 N   0  0  0  0  0  0  0  0  0  0  0  0
   -3.2740   22.4140  -31.5730 C   0  0  0  0  0  0  0  0  0  0  0  0
   -2.4750   22.2510  -32.5330 O   0  0  0  0  0  0  0  0  0  0  0  0
   -2.8540   22.0150  -30.2190 C   0  0  0  0  0  0  0  0  0  0  0  0
   -2.5340   20.6670  -29.9970 C   0  0  0  0  0  0  0  0  0  0  0  0
   -2.1170   20.2360  -28.7370 C   0  0  0  0  0  0  0  0  0  0  0  0
   -2.0190   21.1470  -27.6850 C   0  0  0  0  0  0  0  0  0  0  0  0
   -2.3500   22.4880  -27.8860 C   0  0  0  0  0  0  0  0  0  0  0  0
   -2.7810   22.9370  -29.1450 C   0  0  0  0  0  0  0  0  0  0  0  0
   -3.2700   24.6310  -29.3150 S   0  0  0  0  0  0  0  0  0  0  0  0
   -3.5560   24.9370  -30.7590 O   0  0  0  0  0  0  0  0  0  0  0  0
   -4.5040   24.9050  -28.4950 O   0  0  0  0  0  0  0  0  0  0  0  0
   -1.9910   25.6620  -28.7650 N   0  0  0  0  0  0  0  0  0  0  0  0
   -1.2930   25.4090  -27.5440 C   0  0  0  0  0  0  0  0  0  0  0  0
    0.0940   25.1890  -27.5820 C   0  0  0  0  0  0  0  0  0  0  0  0
    0.7980   24.9310  -26.4020 C   0  0  0  0  0  0  0  0  0  0  0  0
    0.1210   24.8940  -25.1790 C   0  0  0  0  0  0  0  0  0  0  0  0
   -1.2580   25.1270  -25.1330 C   0  0  0  0  0  0  0  0  0  0  0  0
   -1.9720   25.3950  -26.3090 C   0  0  0  0  0  0  0  0  0  0  0  0
   -3.3390   25.6570  -26.2220 O   0  0  0  0  0  0  0  0  0  0  0  0
   -5.6650   24.8740  -30.3840 H   0  0  0  0  0  0  0  0  0  0  0  0
   -6.6630   24.4890  -28.9530 H   0  0  0  0  0  0  0  0  0  0  0  0
   -8.5374   22.8352  -29.3853 H   0  0  0  0  0  0  0  0  0  0  0  0
   -9.2162   20.6722  -30.4095 H   0  0  0  0  0  0  0  0  0  0  0  0
   -4.8031   19.1332  -33.9208 H   0  0  0  0  0  0  0  0  0  0  0  0
   -5.4093   19.3521  -32.2498 H   0  0  0  0  0  0  0  0  0  0  0  0
   -3.9200   17.1125  -33.3501 H   0  0  0  0  0  0  0  0  0  0  0  0
   -4.4655   17.3288  -31.6801 H   0  0  0  0  0  0  0  0  0  0  0  0
   -5.4826   15.4302  -33.4979 H   0  0  0  0  0  0  0  0  0  0  0  0
   -6.3217   15.9339  -32.0301 H   0  0  0  0  0  0  0  0  0  0  0  0
   -6.7342   16.7941  -34.8907 H   0  0  0  0  0  0  0  0  0  0  0  0
   -7.9301   16.6820  -33.5707 H   0  0  0  0  0  0  0  0  0  0  0  0
   -5.6594   20.7144  -32.8675 H   0  0  0  0  0  0  0  0  0  0  0  0
   -2.6125   19.9444  -30.8226 H   0  0  0  0  0  0  0  0  0  0  0  0
   -1.8655   19.1777  -28.5732 H   0  0  0  0  0  0  0  0  0  0  0  0
   -1.6802   20.8078  -26.6950 H   0  0  0  0  0  0  0  0  0  0  0  0
   -2.2726   23.1996  -27.0507 H   0  0  0  0  0  0  0  0  0  0  0  0
    0.6278   25.2198  -28.5433 H   0  0  0  0  0  0  0  0  0  0  0  0
    1.8837   24.7572  -26.4356 H   0  0  0  0  0  0  0  0  0  0  0  0
    0.6733   24.6814  -24.2518 H   0  0  0  0  0  0  0  0  0  0  0  0
   -1.7850   25.0997  -24.1679 H   0  0  0  0  0  0  0  0  0  0  0  0
   -3.8950   25.9030  -27.0320 H   0  0  0  0  0  0  0  0  0  0  0  0
  1  2  1  0
  2  3  2  0
  3  4  1  0
  4  5  2  0
  5  6  1  0
  6  7  2  0
  6  8  2  0
  6  9  1  0
  9 10  1  0
 10 11  1  0
 11 12  1  0
 12 13  1  0
  5 14  1  0
 14 15  2  0
 15 16  1  0
 16 17  1  0
 17 18  2  0
 17 19  1  0
 19 20  2  0
 20 21  1  0
 21 22  2  0
 22 23  1  0
 23 24  2  0
 24 25  1  0
 25 26  2  0
 25 27  2  0
 25 28  1  0
 28 29  1  0
 29 30  2  0
 30 31  1  0
 31 32  2  0
 32 33  1  0
 33 34  2  0
 34 35  1  0
 15  2  1  0
 24 19  1  0
 34 29  1  0
 13  9  1  0
  1 36  1  0
  1 37  1  0
  3 38  1  0
  4 39  1  0
 10 40  1  0
 10 41  1  0
 11 42  1  0
 11 43  1  0
 12 44  1  0
 12 45  1  0
 13 46  1  0
 13 47  1  0
 14 48  1  0
 20 49  1  0
 21 50  1  0
 22 51  1  0
 23 52  1  0
 30 53  1  0
 31 54  1  0
 32 55  1  0
 33 56  1  0
 35 57  1  0
M  CHG  2  16  -1  28  -1
M  END
>  <UniqueID>  (12) 
12

>  <SMILES>  (12) 
Nc1ccc(S(=O)(=O)N2CCCC2)cc1[N-]C(=O)c1ccccc1S(=O)(=O)[N-]c1ccccc1O

>  <Energy>  (12) 
81.7469039747037

>  <Genealogy>  (12) 
Nc1ccc(S(=O)(=O)N2CCCC2)cc1[N-]C(=O)c1ccccc1S(=O)(=O)[N-]c1ccccc1O (protonated)
Nc1ccc(S(=O)(=O)N2CCCC2)cc1[N-]C(=O)c1ccccc1S(=O)(=O)[N-]c1ccccc1O (3D coordinates assigned)
Nc1ccc(S(=O)(=O)N2CCCC2)cc1[N-]C(=O)c1ccccc1S(=O)(=O)[N-]c1ccccc1O (nonaromatic ring conformer: 81.7469039747037 kcal/mol)

>  <smiles>  (12) 
Nc1ccc(S(=O)(=O)N2CCCC2)cc1NC(=O)c1ccccc1S(=O)(=O)Nc1ccccc1O

>  <score_type>  (12) 
oracle

>  <origin>  (12) 
adgpu

>  <m_score__min__energy>  (12) 
-11.67

>  <m_primary>  (12) 
energy

$$$$
12:0
     RDKit          3D

 52 54  0  0  0  0  0  0  0  0999 V2000
   -1.9410   21.1410  -32.9670 C   0  0  0  0  0  0  0  0  0  0  0  0
   -3.1030   21.9490  -32.8070 O   0  0  0  0  0  0  0  0  0  0  0  0
   -4.3970   21.4150  -32.7740 C   0  0  0  0  0  0  0  0  0  0  0  0
   -4.6780   20.2480  -33.4180 N   0  0  0  0  0  0  0  0  0  0  0  0
   -5.9190   19.6910  -33.4100 C   0  0  0  0  0  0  0  0  0  0  0  0
   -6.1420   18.4060  -34.1520 C   0  0  0  0  0  0  0  0  0  0  0  0
   -6.9610   20.3280  -32.7090 C   0  0  0  0  0  0  0  0  0  0  0  0
   -8.2910   19.7710  -32.6570 C   0  0  0  0  0  0  0  0  0  0  0  0
   -9.3560   19.3220  -32.6130 N   0  0  0  0  0  0  0  0  0  0  0  0
   -6.6960   21.5300  -32.0450 C   0  0  0  0  0  0  0  0  0  0  0  0
   -5.4140   22.0860  -32.0790 C   0  0  0  0  0  0  0  0  0  0  0  0
   -5.0960   23.6430  -31.2360 S   0  0  0  0  0  0  0  0  0  0  0  0
   -4.0040   22.9240  -29.9580 C   0  0  0  0  0  0  0  0  0  0  0  0
   -2.6730   23.6010  -29.9720 C   0  0  0  0  0  0  0  0  0  0  0  0
   -1.6570   22.9600  -30.3530 O   0  0  0  0  0  0  0  0  0  0  0  0
   -2.5580   24.9230  -29.4300 N   0  0  0  0  0  0  0  0  0  0  0  0
   -1.9620   25.2920  -28.1770 C   0  0  0  0  0  0  0  0  0  0  0  0
   -2.4550   24.8330  -26.9430 C   0  0  0  0  0  0  0  0  0  0  0  0
   -1.9000   25.3010  -25.7490 C   0  0  0  0  0  0  0  0  0  0  0  0
   -0.8450   26.2240  -25.7710 C   0  0  0  0  0  0  0  0  0  0  0  0
   -0.2140   26.8930  -24.2650 S   0  0  0  0  0  0  0  0  0  0  0  0
   -1.2770   26.8100  -23.2060 O   0  0  0  0  0  0  0  0  0  0  0  0
    0.1240   28.3420  -24.4760 O   0  0  0  0  0  0  0  0  0  0  0  0
    1.2120   26.0460  -23.7120 N   0  0  0  0  0  0  0  0  0  0  0  0
    2.4000   26.9040  -23.6950 C   0  0  0  0  0  0  0  0  0  0  0  0
    3.6040   25.9840  -23.8530 C   0  0  0  0  0  0  0  0  0  0  0  0
    3.0500   24.6770  -24.3990 C   0  0  0  0  0  0  0  0  0  0  0  0
    1.5570   24.9100  -24.5700 C   0  0  0  0  0  0  0  0  0  0  0  0
   -0.3060   26.6210  -27.0010 C   0  0  0  0  0  0  0  0  0  0  0  0
   -0.8580   26.1510  -28.1950 C   0  0  0  0  0  0  0  0  0  0  0  0
   -1.5462   20.8665  -31.9777 H   0  0  0  0  0  0  0  0  0  0  0  0
   -2.2024   20.2289  -33.5235 H   0  0  0  0  0  0  0  0  0  0  0  0
   -1.1769   21.7036  -33.5235 H   0  0  0  0  0  0  0  0  0  0  0  0
   -6.2842   17.5867  -33.4319 H   0  0  0  0  0  0  0  0  0  0  0  0
   -7.0376   18.4982  -34.7840 H   0  0  0  0  0  0  0  0  0  0  0  0
   -5.2677   18.1911  -34.7840 H   0  0  0  0  0  0  0  0  0  0  0  0
   -7.4998   22.0400  -31.4937 H   0  0  0  0  0  0  0  0  0  0  0  0
   -4.4675   23.0554  -28.9691 H   0  0  0  0  0  0  0  0  0  0  0  0
   -3.8630   21.8537  -30.1692 H   0  0  0  0  0  0  0  0  0  0  0  0
   -3.2788   24.1045  -26.9173 H   0  0  0  0  0  0  0  0  0  0  0  0
   -2.2932   24.9430  -24.7861 H   0  0  0  0  0  0  0  0  0  0  0  0
    1.0300   25.6980  -22.7410 H   0  0  0  0  0  0  0  0  0  0  0  0
    2.3605   27.6234  -24.5262 H   0  0  0  0  0  0  0  0  0  0  0  0
    2.4605   27.4791  -22.7593 H   0  0  0  0  0  0  0  0  0  0  0  0
    4.3292   26.4178  -24.5572 H   0  0  0  0  0  0  0  0  0  0  0  0
    4.1316   25.8360  -22.8992 H   0  0  0  0  0  0  0  0  0  0  0  0
    3.5150   24.4364  -25.3664 H   0  0  0  0  0  0  0  0  0  0  0  0
    3.2572   23.8323  -23.7255 H   0  0  0  0  0  0  0  0  0  0  0  0
    1.3267   25.1432  -25.6200 H   0  0  0  0  0  0  0  0  0  0  0  0
    0.9807   24.0144  -24.2948 H   0  0  0  0  0  0  0  0  0  0  0  0
    0.5549   27.3052  -27.0270 H   0  0  0  0  0  0  0  0  0  0  0  0
   -0.4213   26.4586  -29.1566 H   0  0  0  0  0  0  0  0  0  0  0  0
  1  2  1  0
  2  3  1  0
  3  4  2  0
  4  5  1  0
  5  6  1  0
  5  7  2  0
  7  8  1  0
  8  9  3  0
  7 10  1  0
 10 11  2  0
 11 12  1  0
 12 13  1  0
 13 14  1  0
 14 15  2  0
 14 16  1  0
 16 17  1  0
 17 18  2  0
 18 19  1  0
 19 20  2  0
 20 21  1  0
 21 22  2  0
 21 23  2  0
 21 24  1  0
 24 25  1  0
 25 26  1  0
 26 27  1  0
 27 28  1  0
 20 29  1  0
 29 30  2  0
 11  3  1  0
 30 17  1  0
 28 24  1  0
  1 31  1  0
  1 32  1  0
  1 33  1  0
  6 34  1  0
  6 35  1  0
  6 36  1  0
 10 37  1  0
 13 38  1  0
 13 39  1  0
 18 40  1  0
 19 41  1  0
 24 42  1  0
 25 43  1  0
 25 44  1  0
 26 45  1  0
 26 46  1  0
 27 47  1  0
 27 48  1  0
 28 49  1  0
 28 50  1  0
 29 51  1  0
 30 52  1  0
M  CHG  2  16  -1  24   1
M  END
>  <UniqueID>  (13) 
13

>  <SMILES>  (13) 
COc1nc(C)c(C#N)cc1SCC(=O)[N-]c1ccc(S(=O)(=O)[NH+]2CCCC2)cc1

>  <Energy>  (13) 
48.00628555480352

>  <Genealogy>  (13) 
COc1nc(C)c(C#N)cc1SCC(=O)[N-]c1ccc(S(=O)(=O)[NH+]2CCCC2)cc1 (protonated)
COc1nc(C)c(C#N)cc1SCC(=O)[N-]c1ccc(S(=O)(=O)[NH+]2CCCC2)cc1 (3D coordinates assigned)
COc1nc(C)c(C#N)cc1SCC(=O)[N-]c1ccc(S(=O)(=O)[NH+]2CCCC2)cc1 (nonaromatic ring conformer: 48.00628555480352 kcal/mol)

>  <smiles>  (13) 
COc1nc(C)c(C#N)cc1SCC(=O)Nc1ccc(S(=O)(=O)N2CCCC2)cc1

>  <score_type>  (13) 
oracle

>  <origin>  (13) 
adgpu

>  <m_score__min__energy>  (13) 
-11.859999999999999

>  <m_primary>  (13) 
energy

$$$$
13:0
     RDKit          3D

 45 47  0  0  0  0  0  0  0  0999 V2000
   -0.6720   20.8250  -30.6260 C   0  0  0  0  0  0  0  0  0  0  0  0
   -1.4050   21.8620  -29.8110 C   0  0  0  0  0  0  0  0  0  0  0  0
   -1.2690   21.8840  -28.4060 C   0  0  0  0  0  0  0  0  0  0  0  0
   -1.8760   22.8910  -27.6540 C   0  0  0  0  0  0  0  0  0  0  0  0
   -2.6190   23.8920  -28.2890 C   0  0  0  0  0  0  0  0  0  0  0  0
   -3.1800   24.9010  -27.5020 O   0  0  0  0  0  0  0  0  0  0  0  0
   -2.7890   23.8670  -29.6950 C   0  0  0  0  0  0  0  0  0  0  0  0
   -3.5640   24.8960  -30.3270 N   0  0  0  0  0  0  0  0  0  0  0  0
   -5.2880   25.0370  -30.2500 S   0  0  0  0  0  0  0  0  0  0  0  0
   -5.7240   26.1970  -31.0870 O   0  0  0  0  0  0  0  0  0  0  0  0
   -5.6870   25.2990  -28.8300 O   0  0  0  0  0  0  0  0  0  0  0  0
   -6.0620   23.5770  -30.8570 C   0  0  0  0  0  0  0  0  0  0  0  0
   -5.4930   22.8590  -31.9170 C   0  0  0  0  0  0  0  0  0  0  0  0
   -6.0920   21.6800  -32.3670 C   0  0  0  0  0  0  0  0  0  0  0  0
   -7.2610   21.2020  -31.7610 C   0  0  0  0  0  0  0  0  0  0  0  0
   -7.9620   19.6830  -32.3130 S   0  0  0  0  0  0  0  0  0  0  0  0
   -8.7280   19.0250  -31.1970 O   0  0  0  0  0  0  0  0  0  0  0  0
   -8.9030   19.9630  -33.4470 O   0  0  0  0  0  0  0  0  0  0  0  0
   -6.6760   18.6410  -32.8690 N   0  0  0  0  0  0  0  0  0  0  0  0
   -7.1490   17.2730  -33.0750 C   0  0  0  0  0  0  0  0  0  0  0  0
   -6.2650   16.6650  -34.1590 C   0  0  0  0  0  0  0  0  0  0  0  0
   -5.5320   17.8420  -34.7930 C   0  0  0  0  0  0  0  0  0  0  0  0
   -6.1560   19.0750  -34.1660 C   0  0  0  0  0  0  0  0  0  0  0  0
   -7.8360   21.9220  -30.7070 C   0  0  0  0  0  0  0  0  0  0  0  0
   -7.2370   23.1050  -30.2570 C   0  0  0  0  0  0  0  0  0  0  0  0
   -2.1810   22.8420  -30.4510 C   0  0  0  0  0  0  0  0  0  0  0  0
   -0.1706   20.1156  -29.9512 H   0  0  0  0  0  0  0  0  0  0  0  0
   -1.3890   20.2833  -31.2604 H   0  0  0  0  0  0  0  0  0  0  0  0
    0.0779   21.3201  -31.2604 H   0  0  0  0  0  0  0  0  0  0  0  0
   -0.6814   21.1031  -27.9011 H   0  0  0  0  0  0  0  0  0  0  0  0
   -1.7699   22.8976  -26.5591 H   0  0  0  0  0  0  0  0  0  0  0  0
   -3.9100   25.5110  -27.8460 H   0  0  0  0  0  0  0  0  0  0  0  0
   -4.5726   23.2245  -32.3959 H   0  0  0  0  0  0  0  0  0  0  0  0
   -5.6428   21.1233  -33.2027 H   0  0  0  0  0  0  0  0  0  0  0  0
   -7.0582   16.6956  -32.1431 H   0  0  0  0  0  0  0  0  0  0  0  0
   -8.2078   17.2599  -33.3729 H   0  0  0  0  0  0  0  0  0  0  0  0
   -5.5474   15.9574  -33.7181 H   0  0  0  0  0  0  0  0  0  0  0  0
   -6.8540   16.1038  -34.8994 H   0  0  0  0  0  0  0  0  0  0  0  0
   -4.4565   17.7952  -34.5669 H   0  0  0  0  0  0  0  0  0  0  0  0
   -5.6229   17.8442  -35.8892 H   0  0  0  0  0  0  0  0  0  0  0  0
   -5.3989   19.8616  -34.0317 H   0  0  0  0  0  0  0  0  0  0  0  0
   -6.9497   19.4953  -34.8011 H   0  0  0  0  0  0  0  0  0  0  0  0
   -8.7590   21.5581  -30.2320 H   0  0  0  0  0  0  0  0  0  0  0  0
   -7.6915   23.6670  -29.4278 H   0  0  0  0  0  0  0  0  0  0  0  0
   -2.3150   22.8107  -31.5424 H   0  0  0  0  0  0  0  0  0  0  0  0
  1  2  1  0
  2  3  2  0
  3  4  1  0
  4  5  2  0
  5  6  1  0
  5  7  1  0
  7  8  1  0
  8  9  1  0
  9 10  2  0
  9 11  2  0
  9 12  1  0
 12 13  2  0
 13 14  1  0
 14 15  2  0
 15 16  1  0
 16 17  2  0
 16 18  2  0
 16 19  1  0
 19 20  1  0
 20 21  1  0
 21 22  1  0
 22 23  1  0
 15 24  1  0
 24 25  2  0
  7 26  2  0
 26  2  1  0
 25 12  1  0
 23 19  1  0
  1 27  1  0
  1 28  1  0
  1 29  1  0
  3 30  1  0
  4 31  1  0
  6 32  1  0
 13 33  1  0
 14 34  1  0
 20 35  1  0
 20 36  1  0
 21 37  1  0
 21 38  1  0
 22 39  1  0
 22 40  1  0
 23 41  1  0
 23 42  1  0
 24 43  1  0
 25 44  1  0
 26 45  1  0
M  CHG  1   8  -1
M  END
>  <UniqueID>  (14) 
14

>  <SMILES>  (14) 
Cc1ccc(O)c([N-]S(=O)(=O)c2ccc(S(=O)(=O)N3CCCC3)cc2)c1

>  <Energy>  (14) 
50.47499557854757

>  <Genealogy>  (14) 
Cc1ccc(O)c([N-]S(=O)(=O)c2ccc(S(=O)(=O)N3CCCC3)cc2)c1 (protonated)
Cc1ccc(O)c([N-]S(=O)(=O)c2ccc(S(=O)(=O)N3CCCC3)cc2)c1 (3D coordinates assigned)
Cc1ccc(O)c([N-]S(=O)(=O)c2ccc(S(=O)(=O)N3CCCC3)cc2)c1 (nonaromatic ring conformer: 50.47499557854757 kcal/mol)

>  <smiles>  (14) 
Cc1ccc(O)c(NS(=O)(=O)c2ccc(S(=O)(=O)N3CCCC3)cc2)c1

>  <score_type>  (14) 
oracle

>  <origin>  (14) 
adgpu

>  <m_score__min__energy>  (14) 
-12.800000000000001

>  <m_primary>  (14) 
energy

$$$$
14:0
     RDKit          3D

 41 44  0  0  0  0  0  0  0  0999 V2000
   -6.9570   15.7570  -34.3060 O   0  0  0  0  0  0  0  0  0  0  0  0
   -6.7470   16.9050  -33.8410 C   0  0  0  0  0  0  0  0  0  0  0  0
   -5.9750   17.8220  -34.5570 C   0  0  0  0  0  0  0  0  0  0  0  0
   -5.7590   19.0950  -34.0270 C   0  0  0  0  0  0  0  0  0  0  0  0
   -6.3070   19.4460  -32.7820 C   0  0  0  0  0  0  0  0  0  0  0  0
   -6.0960   20.8010  -32.2090 C   0  0  0  0  0  0  0  0  0  0  0  0
   -7.0880   21.4060  -31.4170 C   0  0  0  0  0  0  0  0  0  0  0  0
   -6.8870   22.6790  -30.8760 C   0  0  0  0  0  0  0  0  0  0  0  0
   -5.6950   23.3680  -31.1210 C   0  0  0  0  0  0  0  0  0  0  0  0
   -5.4450   24.9870  -30.4740 S   0  0  0  0  0  0  0  0  0  0  0  0
   -5.9330   26.0320  -31.4390 O   0  0  0  0  0  0  0  0  0  0  0  0
   -6.2100   25.1170  -29.1880 O   0  0  0  0  0  0  0  0  0  0  0  0
   -3.7570   25.2430  -30.1630 N   0  0  0  0  0  0  0  0  0  0  0  0
   -2.9360   24.4130  -29.3280 C   0  0  0  0  0  0  0  0  0  0  0  0
   -3.3550   23.1290  -28.9120 C   0  0  0  0  0  0  0  0  0  0  0  0
   -2.5060   22.3780  -28.0990 C   0  0  0  0  0  0  0  0  0  0  0  0
   -1.2890   22.8460  -27.7170 C   0  0  0  0  0  0  0  0  0  0  0  0
   -0.8360   24.1030  -28.1150 C   0  0  0  0  0  0  0  0  0  0  0  0
   -1.6680   24.8920  -28.9260 C   0  0  0  0  0  0  0  0  0  0  0  0
   -1.2360   26.1480  -29.3360 O   0  0  0  0  0  0  0  0  0  0  0  0
   -0.6030   21.8520  -26.8650 C   0  0  0  0  0  0  0  0  0  0  0  0
   -1.5000   20.6790  -26.8070 N   0  0  0  0  0  0  0  0  0  0  0  0
   -2.7370   21.0330  -27.5320 C   0  0  0  0  0  0  0  0  0  0  0  0
   -4.7010   22.7730  -31.9060 C   0  0  0  0  0  0  0  0  0  0  0  0
   -4.8960   21.4990  -32.4440 C   0  0  0  0  0  0  0  0  0  0  0  0
   -7.0750   18.4860  -32.0980 C   0  0  0  0  0  0  0  0  0  0  0  0
   -7.2750   17.2530  -32.6390 N   0  0  0  0  0  0  0  0  0  0  0  0
   -5.5414   17.5440  -35.5290 H   0  0  0  0  0  0  0  0  0  0  0  0
   -5.1572   19.8264  -34.5864 H   0  0  0  0  0  0  0  0  0  0  0  0
   -8.0301   20.8729  -31.2216 H   0  0  0  0  0  0  0  0  0  0  0  0
   -7.6692   23.1405  -30.2553 H   0  0  0  0  0  0  0  0  0  0  0  0
   -4.3315   22.7296  -29.2232 H   0  0  0  0  0  0  0  0  0  0  0  0
    0.1524   24.4692  -27.8004 H   0  0  0  0  0  0  0  0  0  0  0  0
    0.3645   21.5721  -27.3072 H   0  0  0  0  0  0  0  0  0  0  0  0
   -0.3984   22.2534  -25.8615 H   0  0  0  0  0  0  0  0  0  0  0  0
   -1.0380   19.8840  -27.3120 H   0  0  0  0  0  0  0  0  0  0  0  0
   -2.9299   20.3073  -28.3358 H   0  0  0  0  0  0  0  0  0  0  0  0
   -3.6120   21.0215  -26.8655 H   0  0  0  0  0  0  0  0  0  0  0  0
   -3.7616   23.3113  -32.1002 H   0  0  0  0  0  0  0  0  0  0  0  0
   -4.1066   21.0377  -33.0556 H   0  0  0  0  0  0  0  0  0  0  0  0
   -7.5161   18.7330  -31.1211 H   0  0  0  0  0  0  0  0  0  0  0  0
  1  2  2  0
  2  3  1  0
  3  4  2  0
  4  5  1  0
  5  6  1  0
  6  7  2  0
  7  8  1  0
  8  9  2  0
  9 10  1  0
 10 11  2  0
 10 12  2  0
 10 13  1  0
 13 14  1  0
 14 15  2  0
 15 16  1  0
 16 17  2  0
 17 18  1  0
 18 19  2  0
 19 20  1  0
 17 21  1  0
 21 22  1  0
 22 23  1  0
  9 24  1  0
 24 25  2  0
  5 26  2  0
 26 27  1  0
 27  2  1  0
 25  6  1  0
 19 14  1  0
 23 16  1  0
  3 28  1  0
  4 29  1  0
  7 30  1  0
  8 31  1  0
 15 32  1  0
 18 33  1  0
 21 34  1  0
 21 35  1  0
 22 36  1  0
 23 37  1  0
 23 38  1  0
 24 39  1  0
 25 40  1  0
 26 41  1  0
M  CHG  3  13  -1  20  -1  27  -1
M  END
>  <UniqueID>  (15) 
15

>  <SMILES>  (15) 
O=c1ccc(-c2ccc(S(=O)(=O)[N-]c3cc4c(cc3[O-])CNC4)cc2)c[n-]1

>  <Energy>  (15) 
64.01599124116736

>  <Genealogy>  (15) 
O=c1ccc(-c2ccc(S(=O)(=O)[N-]c3cc4c(cc3[O-])CNC4)cc2)c[n-]1 (protonated)
O=c1ccc(-c2ccc(S(=O)(=O)[N-]c3cc4c(cc3[O-])CNC4)cc2)c[n-]1 (3D coordinates assigned)
O=c1ccc(-c2ccc(S(=O)(=O)[N-]c3cc4c(cc3[O-])CNC4)cc2)c[n-]1 (nonaromatic ring conformer: 64.01599124116736 kcal/mol)

>  <smiles>  (15) 
O=c1ccc(-c2ccc(S(=O)(=O)Nc3cc4c(cc3O)CNC4)cc2)c[nH]1

>  <score_type>  (15) 
oracle

>  <origin>  (15) 
adgpu

>  <m_score__min__energy>  (15) 
-14.06

>  <m_primary>  (15) 
energy

$$$$
15:0
     RDKit          3D

 42 44  0  0  0  0  0  0  0  0999 V2000
  -10.9810   20.3804  -32.4719 H   0  0  0  0  0  0  0  0  0  0  0  0
   -9.9040   20.5950  -32.4080 C   0  0  0  0  0  0  0  0  0  0  0  0
   -9.4670   21.8400  -31.9530 C   0  0  0  0  0  0  0  0  0  0  0  0
  -10.1996   22.6023  -31.6493 H   0  0  0  0  0  0  0  0  0  0  0  0
   -8.0990   22.1190  -31.8830 C   0  0  0  0  0  0  0  0  0  0  0  0
   -7.7585   23.0967  -31.5112 H   0  0  0  0  0  0  0  0  0  0  0  0
   -7.1540   21.1550  -32.2860 C   0  0  0  0  0  0  0  0  0  0  0  0
   -5.7390   21.4010  -32.1980 N   0  0  0  0  0  0  0  0  0  0  0  0
   -5.1520   22.2680  -31.4270 C   0  0  0  0  0  0  0  0  0  0  0  0
   -5.8050   23.1500  -30.6360 N   0  0  0  0  0  0  0  0  0  0  0  0
   -4.9480   23.9700  -29.9720 C   0  0  0  0  0  0  0  0  0  0  0  0
   -5.4510   24.9350  -28.9740 C   0  0  0  0  0  0  0  0  0  0  0  0
   -5.0130   24.9160  -27.7930 O   0  0  0  0  0  0  0  0  0  0  0  0
   -6.4680   25.8730  -29.3270 N   0  0  0  0  0  0  0  0  0  0  0  0
   -6.8430   25.9190  -30.3010 H   0  0  0  0  0  0  0  0  0  0  0  0
   -6.8350   26.5420  -28.6150 H   0  0  0  0  0  0  0  0  0  0  0  0
   -3.5970   23.7400  -30.2710 C   0  0  0  0  0  0  0  0  0  0  0  0
   -2.4610   24.4930  -29.8280 N   0  0  0  0  0  0  0  0  0  0  0  0
   -1.4160   24.0070  -28.9750 C   0  0  0  0  0  0  0  0  0  0  0  0
   -0.4210   24.7490  -28.7570 O   0  0  0  0  0  0  0  0  0  0  0  0
   -1.4800   22.6740  -28.3290 C   0  0  0  0  0  0  0  0  0  0  0  0
   -1.4270   22.5440  -26.9320 C   0  0  0  0  0  0  0  0  0  0  0  0
   -1.3169   23.4404  -26.3040 H   0  0  0  0  0  0  0  0  0  0  0  0
   -1.5130   21.2850  -26.3340 C   0  0  0  0  0  0  0  0  0  0  0  0
   -1.4811   21.1981  -25.2379 H   0  0  0  0  0  0  0  0  0  0  0  0
   -1.6400   20.1280  -27.1220 C   0  0  0  0  0  0  0  0  0  0  0  0
   -1.7340   18.7860  -26.4920 C   0  0  0  0  0  0  0  0  0  0  0  0
   -2.7640   18.5200  -25.5320 N   0  0  0  0  0  0  0  0  0  0  0  0
   -3.5120   19.2210  -25.3360 H   0  0  0  0  0  0  0  0  0  0  0  0
   -2.8160   17.5960  -25.0470 H   0  0  0  0  0  0  0  0  0  0  0  0
   -0.8850   17.8510  -26.7950 N   0  0  0  0  0  0  0  0  0  0  0  0
   -0.9510   16.9060  -26.3550 H   0  0  0  0  0  0  0  0  0  0  0  0
   -0.0980   18.0170  -27.4620 H   0  0  0  0  0  0  0  0  0  0  0  0
   -1.6650   20.2570  -28.5200 C   0  0  0  0  0  0  0  0  0  0  0  0
   -1.7521   19.3592  -29.1495 H   0  0  0  0  0  0  0  0  0  0  0  0
   -1.5800   21.5180  -29.1180 C   0  0  0  0  0  0  0  0  0  0  0  0
   -1.5916   21.6044  -30.2145 H   0  0  0  0  0  0  0  0  0  0  0  0
   -3.4860   22.4660  -31.3620 S   0  0  0  0  0  0  0  0  0  0  0  0
   -7.6040   19.8930  -32.7130 C   0  0  0  0  0  0  0  0  0  0  0  0
   -6.3630   18.5300  -33.2320 Br  0  0  0  0  0  0  0  0  0  0  0  0
   -8.9760   19.6220  -32.7820 C   0  0  0  0  0  0  0  0  0  0  0  0
   -9.3236   18.6389  -33.1322 H   0  0  0  0  0  0  0  0  0  0  0  0
  1  2  1  0
  2  3  2  0
  3  4  1  0
  3  5  1  0
  5  6  1  0
  5  7  2  0
  7  8  1  0
  8  9  2  0
  9 10  1  0
 10 11  1  0
 11 12  1  0
 12 13  2  0
 12 14  1  0
 14 15  1  0
 14 16  1  0
 11 17  2  0
 17 18  1  0
 18 19  1  0
 19 20  2  0
 19 21  1  0
 21 22  2  0
 22 23  1  0
 22 24  1  0
 24 25  1  0
 24 26  2  0
 26 27  1  0
 27 28  1  0
 28 29  1  0
 28 30  1  0
 27 31  2  0
 31 32  1  0
 31 33  1  0
 26 34  1  0
 34 35  1  0
 34 36  2  0
 36 37  1  0
 17 38  1  0
  7 39  1  0
 39 40  1  0
 39 41  2  0
 41 42  1  0
 41  2  1  0
 38  9  1  0
 36 21  1  0
M  CHG  3  10  -1  18  -1  31   1
M  END
>  <UniqueID>  (16) 
16

>  <SMILES>  (16) 
NC(=[NH2+])c1ccc(C(=O)[N-]c2s/c(=N/c3ccccc3Br)[n-]c2C(N)=O)cc1

>  <Energy>  (16) 
91.60517960648697

>  <Genealogy>  (16) 
NC(=[NH2+])c1ccc(C(=O)[N-]c2sc(=Nc3ccccc3Br)[n-]c2C(N)=O)cc1 (protonated)
NC(=[NH2+])c1ccc(C(=O)[N-]c2s/c(=N/c3ccccc3Br)[n-]c2C(N)=O)cc1 (cis-trans isomerization)
NC(=[NH2+])c1ccc(C(=O)[N-]c2s/c(=N/c3ccccc3Br)[n-]c2C(N)=O)cc1 (3D coordinates assigned)
NC(=[NH2+])c1ccc(C(=O)[N-]c2s/c(=N/c3ccccc3Br)[n-]c2C(N)=O)cc1 (optimized conformer: 91.60517960648697 kcal/mol)

>  <smiles>  (16) 
N=C(N)c1ccc(C(=O)Nc2sc(=Nc3ccccc3Br)[nH]c2C(N)=O)cc1

>  <score_type>  (16) 
oracle

>  <origin>  (16) 
adgpu

>  <m_score__min__energy>  (16) 
-11.94

>  <m_primary>  (16) 
energy

$$$$
16:0
     RDKit          3D

 47 48  0  0  0  0  0  0  0  0999 V2000
   -3.4280   20.1240  -32.0010 C   0  0  0  0  0  0  0  0  0  0  0  0
   -4.0520   19.9880  -33.3220 N   0  0  0  0  0  0  0  0  0  0  0  0
   -3.4410   18.8710  -34.0540 C   0  0  0  0  0  0  0  0  0  0  0  0
   -5.7640   19.6910  -33.1410 S   0  0  0  0  0  0  0  0  0  0  0  0
   -6.3650   19.4200  -34.4930 O   0  0  0  0  0  0  0  0  0  0  0  0
   -5.9990   18.4780  -32.2840 O   0  0  0  0  0  0  0  0  0  0  0  0
   -6.5620   21.1190  -32.4580 C   0  0  0  0  0  0  0  0  0  0  0  0
   -5.7790   22.2580  -32.2140 C   0  0  0  0  0  0  0  0  0  0  0  0
   -6.3450   23.4240  -31.6870 C   0  0  0  0  0  0  0  0  0  0  0  0
   -5.5000   24.5520  -31.4310 N   0  0  0  0  0  0  0  0  0  0  0  0
   -4.6440   24.7170  -30.2940 C   0  0  0  0  0  0  0  0  0  0  0  0
   -3.5070   25.2330  -30.4600 O   0  0  0  0  0  0  0  0  0  0  0  0
   -5.0930   24.3670  -28.9760 N   0  0  0  0  0  0  0  0  0  0  0  0
   -4.2490   24.5090  -27.7910 C   0  0  0  0  0  0  0  0  0  0  0  0
   -3.2260   23.3710  -27.7190 C   0  0  0  0  0  0  0  0  0  0  0  0
   -2.0310   23.7920  -26.9510 N   0  0  0  0  0  0  0  0  0  0  0  0
   -0.7750   23.3760  -27.6040 C   0  0  0  0  0  0  0  0  0  0  0  0
   -0.5010   24.1910  -28.8890 C   0  0  0  0  0  0  0  0  0  0  0  0
   -1.2710   25.3780  -28.9700 O   0  0  0  0  0  0  0  0  0  0  0  0
   -1.2540   26.0530  -27.7310 C   0  0  0  0  0  0  0  0  0  0  0  0
   -2.0230   25.2460  -26.6640 C   0  0  0  0  0  0  0  0  0  0  0  0
   -7.7080   23.4370  -31.3540 C   0  0  0  0  0  0  0  0  0  0  0  0
   -8.4960   22.3070  -31.5770 C   0  0  0  0  0  0  0  0  0  0  0  0
   -7.9370   21.1470  -32.1260 C   0  0  0  0  0  0  0  0  0  0  0  0
   -8.9990   19.7590  -32.3390 Cl  0  0  0  0  0  0  0  0  0  0  0  0
   -4.1843   19.9592  -31.2195 H   0  0  0  0  0  0  0  0  0  0  0  0
   -2.6247   19.3799  -31.8966 H   0  0  0  0  0  0  0  0  0  0  0  0
   -3.0072   21.1349  -31.8966 H   0  0  0  0  0  0  0  0  0  0  0  0
   -3.0404   18.1386  -33.3377 H   0  0  0  0  0  0  0  0  0  0  0  0
   -4.2005   18.3879  -34.6863 H   0  0  0  0  0  0  0  0  0  0  0  0
   -2.6245   19.2499  -34.6863 H   0  0  0  0  0  0  0  0  0  0  0  0
   -4.7029   22.2336  -32.4408 H   0  0  0  0  0  0  0  0  0  0  0  0
   -6.1010   24.1380  -28.8290 H   0  0  0  0  0  0  0  0  0  0  0  0
   -3.7173   25.4708  -27.8389 H   0  0  0  0  0  0  0  0  0  0  0  0
   -4.8859   24.4709  -26.8950 H   0  0  0  0  0  0  0  0  0  0  0  0
   -3.6857   22.5023  -27.2249 H   0  0  0  0  0  0  0  0  0  0  0  0
   -2.9161   23.1075  -28.7410 H   0  0  0  0  0  0  0  0  0  0  0  0
    0.0585   23.5264  -26.9020 H   0  0  0  0  0  0  0  0  0  0  0  0
   -0.8687   22.3163  -27.8837 H   0  0  0  0  0  0  0  0  0  0  0  0
    0.5646   24.4630  -28.9103 H   0  0  0  0  0  0  0  0  0  0  0  0
   -0.7823   23.5589  -29.7442 H   0  0  0  0  0  0  0  0  0  0  0  0
   -0.2117   26.1835  -27.4044 H   0  0  0  0  0  0  0  0  0  0  0  0
   -1.7391   27.0326  -27.8535 H   0  0  0  0  0  0  0  0  0  0  0  0
   -1.5469   25.4102  -25.6861 H   0  0  0  0  0  0  0  0  0  0  0  0
   -3.0665   25.5940  -26.6684 H   0  0  0  0  0  0  0  0  0  0  0  0
   -8.1568   24.3407  -30.9158 H   0  0  0  0  0  0  0  0  0  0  0  0
   -9.5652   22.3280  -31.3192 H   0  0  0  0  0  0  0  0  0  0  0  0
  1  2  1  0
  2  3  1  0
  2  4  1  0
  4  5  2  0
  4  6  2  0
  4  7  1  0
  7  8  2  0
  8  9  1  0
  9 10  1  0
 10 11  1  0
 11 12  2  0
 11 13  1  0
 13 14  1  0
 14 15  1  0
 15 16  1  0
 16 17  1  0
 17 18  1  0
 18 19  1  0
 19 20  1  0
 20 21  1  0
  9 22  2  0
 22 23  1  0
 23 24  2  0
 24 25  1  0
 24  7  1  0
 21 16  1  0
  1 26  1  0
  1 27  1  0
  1 28  1  0
  3 29  1  0
  3 30  1  0
  3 31  1  0
  8 32  1  0
 13 33  1  0
 14 34  1  0
 14 35  1  0
 15 36  1  0
 15 37  1  0
 17 38  1  0
 17 39  1  0
 18 40  1  0
 18 41  1  0
 20 42  1  0
 20 43  1  0
 21 44  1  0
 21 45  1  0
 22 46  1  0
 23 47  1  0
M  CHG  1  10  -1
M  END
>  <UniqueID>  (17) 
17

>  <SMILES>  (17) 
CN(C)S(=O)(=O)c1cc([N-]C(=O)NCCN2CCOCC2)ccc1Cl

>  <Energy>  (17) 
58.940754004031454

>  <Genealogy>  (17) 
CN(C)S(=O)(=O)c1cc([N-]C(=O)NCCN2CCOCC2)ccc1Cl (protonated)
CN(C)S(=O)(=O)c1cc([N-]C(=O)NCCN2CCOCC2)ccc1Cl (3D coordinates assigned)
CN(C)S(=O)(=O)c1cc([N-]C(=O)NCCN2CCOCC2)ccc1Cl (nonaromatic ring conformer: 58.940754004031454 kcal/mol)

>  <smiles>  (17) 
CN(C)S(=O)(=O)c1cc(NC(=O)NCCN2CCOCC2)ccc1Cl

>  <score_type>  (17) 
oracle

>  <origin>  (17) 
adgpu

>  <m_score__min__energy>  (17) 
-10.4

>  <m_primary>  (17) 
energy

$$$$
17:0
     RDKit          3D

 36 37  0  0  0  0  0  0  0  0999 V2000
   -2.0100   19.1480  -33.1330 N   0  0  0  0  0  0  0  0  0  0  0  0
   -2.2690   20.3260  -32.3520 C   0  0  0  0  0  0  0  0  0  0  0  0
   -1.2330   20.9380  -31.6120 C   0  0  0  0  0  0  0  0  0  0  0  0
    0.4050   20.2950  -31.5990 Cl  0  0  0  0  0  0  0  0  0  0  0  0
   -1.4930   22.0850  -30.8550 C   0  0  0  0  0  0  0  0  0  0  0  0
   -2.7790   22.6350  -30.8190 C   0  0  0  0  0  0  0  0  0  0  0  0
   -3.1210   24.0610  -29.8390 S   0  0  0  0  0  0  0  0  0  0  0  0
   -1.8230   24.5960  -29.3040 O   0  0  0  0  0  0  0  0  0  0  0  0
   -3.9990   23.6940  -28.6750 O   0  0  0  0  0  0  0  0  0  0  0  0
   -3.8990   25.3030  -30.7800 N   0  0  0  0  0  0  0  0  0  0  0  0
   -5.3050   25.4700  -30.4000 C   0  0  0  0  0  0  0  0  0  0  0  0
   -6.1270   24.2720  -30.7970 C   0  0  0  0  0  0  0  0  0  0  0  0
   -6.7970   23.5150  -29.8230 C   0  0  0  0  0  0  0  0  0  0  0  0
   -7.5760   22.4150  -30.1980 C   0  0  0  0  0  0  0  0  0  0  0  0
   -7.6840   22.0540  -31.5460 C   0  0  0  0  0  0  0  0  0  0  0  0
   -8.6830   20.6830  -32.0180 S   0  0  0  0  0  0  0  0  0  0  0  0
   -8.0080   19.9280  -33.4180 N   0  0  0  0  0  0  0  0  0  0  0  0
   -8.7480   19.6890  -30.8930 O   0  0  0  0  0  0  0  0  0  0  0  0
  -10.0770   21.1530  -32.3260 O   0  0  0  0  0  0  0  0  0  0  0  0
   -7.0150   22.8080  -32.5200 C   0  0  0  0  0  0  0  0  0  0  0  0
   -6.2380   23.9080  -32.1490 C   0  0  0  0  0  0  0  0  0  0  0  0
   -3.8080   22.0340  -31.5490 C   0  0  0  0  0  0  0  0  0  0  0  0
   -3.5640   20.8880  -32.3120 C   0  0  0  0  0  0  0  0  0  0  0  0
   -4.9100   20.1870  -33.2030 Cl  0  0  0  0  0  0  0  0  0  0  0  0
   -1.0380   18.8280  -33.3370 H   0  0  0  0  0  0  0  0  0  0  0  0
   -2.7820   18.5680  -33.5260 H   0  0  0  0  0  0  0  0  0  0  0  0
   -0.6806   22.5581  -30.2838 H   0  0  0  0  0  0  0  0  0  0  0  0
   -5.3679   25.6020  -29.3098 H   0  0  0  0  0  0  0  0  0  0  0  0
   -5.7029   26.3520  -30.9233 H   0  0  0  0  0  0  0  0  0  0  0  0
   -6.7092   23.7877  -28.7610 H   0  0  0  0  0  0  0  0  0  0  0  0
   -8.1056   21.8316  -29.4305 H   0  0  0  0  0  0  0  0  0  0  0  0
   -8.3840   18.9540  -33.4510 H   0  0  0  0  0  0  0  0  0  0  0  0
   -8.3940   20.4270  -34.2500 H   0  0  0  0  0  0  0  0  0  0  0  0
   -7.1022   22.5323  -33.5813 H   0  0  0  0  0  0  0  0  0  0  0  0
   -5.7111   24.4913  -32.9186 H   0  0  0  0  0  0  0  0  0  0  0  0
   -4.8191   22.4664  -31.5231 H   0  0  0  0  0  0  0  0  0  0  0  0
  1  2  1  0
  2  3  2  0
  3  4  1  0
  3  5  1  0
  5  6  2  0
  6  7  1  0
  7  8  2  0
  7  9  2  0
  7 10  1  0
 10 11  1  0
 11 12  1  0
 12 13  2  0
 13 14  1  0
 14 15  2  0
 15 16  1  0
 16 17  1  0
 16 18  2  0
 16 19  2  0
 15 20  1  0
 20 21  2  0
  6 22  1  0
 22 23  2  0
 23 24  1  0
 23  2  1  0
 21 12  1  0
  1 25  1  0
  1 26  1  0
  5 27  1  0
 11 28  1  0
 11 29  1  0
 13 30  1  0
 14 31  1  0
 17 32  1  0
 17 33  1  0
 20 34  1  0
 21 35  1  0
 22 36  1  0
M  CHG  1  10  -1
M  END
>  <UniqueID>  (18) 
18

>  <SMILES>  (18) 
Nc1c(Cl)cc(S(=O)(=O)[N-]Cc2ccc(S(N)(=O)=O)cc2)cc1Cl

>  <Energy>  (18) 
35.0944888697904

>  <Genealogy>  (18) 
Nc1c(Cl)cc(S(=O)(=O)[N-]Cc2ccc(S(N)(=O)=O)cc2)cc1Cl (protonated)
Nc1c(Cl)cc(S(=O)(=O)[N-]Cc2ccc(S(N)(=O)=O)cc2)cc1Cl (3D coordinates assigned)
Nc1c(Cl)cc(S(=O)(=O)[N-]Cc2ccc(S(N)(=O)=O)cc2)cc1Cl (optimized conformer: 35.0944888697904 kcal/mol)

>  <smiles>  (18) 
Nc1c(Cl)cc(S(=O)(=O)NCc2ccc(S(N)(=O)=O)cc2)cc1Cl

>  <score_type>  (18) 
oracle

>  <origin>  (18) 
adgpu

>  <m_score__min__energy>  (18) 
-10.789999999999999

>  <m_primary>  (18) 
energy

$$$$
18:0
     RDKit          3D

 50 53  0  0  0  0  0  0  0  0999 V2000
   -5.4220   25.5600  -31.2220 O   0  0  0  0  0  0  0  0  0  0  0  0
   -4.7700   24.4790  -30.4070 S   0  0  0  0  0  0  0  0  0  0  0  0
   -5.5010   24.3530  -29.0990 O   0  0  0  0  0  0  0  0  0  0  0  0
   -3.1230   24.9200  -30.0910 N   0  0  0  0  0  0  0  0  0  0  0  0
   -2.2540   24.2610  -29.1610 C   0  0  0  0  0  0  0  0  0  0  0  0
   -1.1030   24.9290  -28.7270 C   0  0  0  0  0  0  0  0  0  0  0  0
   -0.2290   24.3190  -27.8240 C   0  0  0  0  0  0  0  0  0  0  0  0
   -0.4940   23.0300  -27.3530 C   0  0  0  0  0  0  0  0  0  0  0  0
   -1.6370   22.3450  -27.7860 C   0  0  0  0  0  0  0  0  0  0  0  0
   -1.9520   20.6980  -27.2320 S   0  0  0  0  0  0  0  0  0  0  0  0
   -3.4390   20.4820  -27.1480 O   0  0  0  0  0  0  0  0  0  0  0  0
   -1.3800   20.5230  -25.8520 O   0  0  0  0  0  0  0  0  0  0  0  0
   -1.2580   19.5100  -28.3130 N   0  0  0  0  0  0  0  0  0  0  0  0
   -1.3040   19.9740  -29.7280 C   0  0  0  0  0  0  0  0  0  0  0  0
    0.0490   20.5000  -30.2300 C   0  0  0  0  0  0  0  0  0  0  0  0
    1.1390   19.4200  -30.1260 C   0  0  0  0  0  0  0  0  0  0  0  0
    0.9060   18.4510  -28.9530 C   0  0  0  0  0  0  0  0  0  0  0  0
    0.0940   19.1220  -27.8410 C   0  0  0  0  0  0  0  0  0  0  0  0
   -2.5220   22.9670  -28.6770 C   0  0  0  0  0  0  0  0  0  0  0  0
   -4.8370   22.9630  -31.3150 C   0  0  0  0  0  0  0  0  0  0  0  0
   -3.6520   22.3960  -31.8090 C   0  0  0  0  0  0  0  0  0  0  0  0
   -3.6860   21.2010  -32.5340 C   0  0  0  0  0  0  0  0  0  0  0  0
   -4.9010   20.5540  -32.7690 C   0  0  0  0  0  0  0  0  0  0  0  0
   -6.0930   21.1030  -32.2780 C   0  0  0  0  0  0  0  0  0  0  0  0
   -7.3250   20.4760  -32.5060 C   0  0  0  0  0  0  0  0  0  0  0  0
   -8.4990   21.0530  -32.0220 C   0  0  0  0  0  0  0  0  0  0  0  0
   -8.4320   22.2520  -31.3090 C   0  0  0  0  0  0  0  0  0  0  0  0
   -7.2300   22.8490  -31.0900 N   0  0  0  0  0  0  0  0  0  0  0  0
   -6.0650   22.3170  -31.5520 C   0  0  0  0  0  0  0  0  0  0  0  0
   -0.8853   25.9409  -29.0994 H   0  0  0  0  0  0  0  0  0  0  0  0
    0.6695   24.8541  -27.4830 H   0  0  0  0  0  0  0  0  0  0  0  0
    0.1958   22.5527  -26.6414 H   0  0  0  0  0  0  0  0  0  0  0  0
   -1.8700   18.6630  -28.2410 H   0  0  0  0  0  0  0  0  0  0  0  0
   -1.6102   19.1304  -30.3640 H   0  0  0  0  0  0  0  0  0  0  0  0
   -2.0208   20.8069  -29.7786 H   0  0  0  0  0  0  0  0  0  0  0  0
   -0.0530   20.8067  -31.2814 H   0  0  0  0  0  0  0  0  0  0  0  0
    0.3446   21.3545  -29.6036 H   0  0  0  0  0  0  0  0  0  0  0  0
    1.1524   18.8424  -31.0621 H   0  0  0  0  0  0  0  0  0  0  0  0
    2.0969   19.9310  -29.9492 H   0  0  0  0  0  0  0  0  0  0  0  0
    0.3576   17.5699  -29.3175 H   0  0  0  0  0  0  0  0  0  0  0  0
    1.8829   18.1541  -28.5438 H   0  0  0  0  0  0  0  0  0  0  0  0
   -0.0088   18.4201  -27.0003 H   0  0  0  0  0  0  0  0  0  0  0  0
    0.6248   20.0332  -27.5280 H   0  0  0  0  0  0  0  0  0  0  0  0
   -3.4321   22.4403  -29.0002 H   0  0  0  0  0  0  0  0  0  0  0  0
   -2.6894   22.8954  -31.6244 H   0  0  0  0  0  0  0  0  0  0  0  0
   -2.7515   20.7686  -32.9210 H   0  0  0  0  0  0  0  0  0  0  0  0
   -4.9223   19.6137  -33.3394 H   0  0  0  0  0  0  0  0  0  0  0  0
   -7.3663   19.5301  -33.0659 H   0  0  0  0  0  0  0  0  0  0  0  0
   -9.4698   20.5676  -32.2004 H   0  0  0  0  0  0  0  0  0  0  0  0
   -9.3530   22.7142  -30.9240 H   0  0  0  0  0  0  0  0  0  0  0  0
  1  2  2  0
  2  3  2  0
  2  4  1  0
  4  5  1  0
  5  6  2  0
  6  7  1  0
  7  8  2  0
  8  9  1  0
  9 10  1  0
 10 11  2  0
 10 12  2  0
 10 13  1  0
 13 14  1  0
 14 15  1  0
 15 16  1  0
 16 17  1  0
 17 18  1  0
  9 19  2  0
  2 20  1  0
 20 21  2  0
 21 22  1  0
 22 23  2  0
 23 24  1  0
 24 25  2  0
 25 26  1  0
 26 27  2  0
 27 28  1  0
 28 29  2  0
 19  5  1  0
 29 20  1  0
 18 13  1  0
 29 24  1  0
  6 30  1  0
  7 31  1  0
  8 32  1  0
 13 33  1  0
 14 34  1  0
 14 35  1  0
 15 36  1  0
 15 37  1  0
 16 38  1  0
 16 39  1  0
 17 40  1  0
 17 41  1  0
 18 42  1  0
 18 43  1  0
 19 44  1  0
 21 45  1  0
 22 46  1  0
 23 47  1  0
 25 48  1  0
 26 49  1  0
 27 50  1  0
M  CHG  2   4  -1  13   1
M  END
>  <UniqueID>  (19) 
19

>  <SMILES>  (19) 
O=S(=O)([N-]c1cccc(S(=O)(=O)[NH+]2CCCCC2)c1)c1cccc2cccnc12

>  <Energy>  (19) 
60.59082232282379

>  <Genealogy>  (19) 
O=S(=O)([N-]c1cccc(S(=O)(=O)[NH+]2CCCCC2)c1)c1cccc2cccnc12 (protonated)
O=S(=O)([N-]c1cccc(S(=O)(=O)[NH+]2CCCCC2)c1)c1cccc2cccnc12 (3D coordinates assigned)
O=S(=O)([N-]c1cccc(S(=O)(=O)[NH+]2CCCCC2)c1)c1cccc2cccnc12 (nonaromatic ring conformer: 60.59082232282379 kcal/mol)

>  <smiles>  (19) 
O=S(=O)(Nc1cccc(S(=O)(=O)N2CCCCC2)c1)c1cccc2cccnc12

>  <score_type>  (19) 
oracle

>  <origin>  (19) 
adgpu

>  <m_score__min__energy>  (19) 
-11.119999999999999

>  <m_primary>  (19) 
energy

$$$$
19:0
     RDKit          3D

 64 68  0  0  0  0  0  0  0  0999 V2000
   -6.8680   24.6700  -29.9700 C   0  0  0  0  0  0  0  0  0  0  0  0
   -6.2610   23.6150  -30.8510 C   0  0  0  0  0  0  0  0  0  0  0  0
   -4.9220   23.4910  -31.2060 C   0  0  0  0  0  0  0  0  0  0  0  0
   -3.8100   24.3150  -30.8460 N   0  0  0  0  0  0  0  0  0  0  0  0
   -2.8820   24.1400  -29.3930 S   0  0  0  0  0  0  0  0  0  0  0  0
   -3.8280   24.0630  -28.2270 O   0  0  0  0  0  0  0  0  0  0  0  0
   -1.9580   25.3110  -29.2140 O   0  0  0  0  0  0  0  0  0  0  0  0
   -1.9090   22.6730  -29.5460 C   0  0  0  0  0  0  0  0  0  0  0  0
   -1.5670   22.2490  -30.8460 C   0  0  0  0  0  0  0  0  0  0  0  0
   -0.8140   21.0900  -30.9840 C   0  0  0  0  0  0  0  0  0  0  0  0
   -0.3840   20.3770  -29.8990 C   0  0  0  0  0  0  0  0  0  0  0  0
   -0.6850   20.7680  -28.5970 C   0  0  0  0  0  0  0  0  0  0  0  0
   -1.4720   21.9290  -28.4100 C   0  0  0  0  0  0  0  0  0  0  0  0
   -1.8100   22.3830  -27.0910 N   0  0  0  0  0  0  0  0  0  0  0  0
   -0.6730   22.7780  -25.8410 S   0  0  0  0  0  0  0  0  0  0  0  0
   -0.8640   21.8680  -24.6620 O   0  0  0  0  0  0  0  0  0  0  0  0
    0.7160   22.5760  -26.3740 O   0  0  0  0  0  0  0  0  0  0  0  0
   -0.8610   24.4700  -25.3800 C   0  0  0  0  0  0  0  0  0  0  0  0
   -0.4870   24.9190  -24.1030 C   0  0  0  0  0  0  0  0  0  0  0  0
   -0.6690   26.2590  -23.7470 C   0  0  0  0  0  0  0  0  0  0  0  0
   -1.2110   27.1610  -24.6690 C   0  0  0  0  0  0  0  0  0  0  0  0
   -1.5750   26.7220  -25.9460 C   0  0  0  0  0  0  0  0  0  0  0  0
   -1.4060   25.3780  -26.2990 C   0  0  0  0  0  0  0  0  0  0  0  0
    0.3910   19.3550  -30.3140 N   0  0  0  0  0  0  0  0  0  0  0  0
    1.1600   18.4230  -29.4900 C   0  0  0  0  0  0  0  0  0  0  0  0
    0.4230   19.4910  -31.6650 C   0  0  0  0  0  0  0  0  0  0  0  0
    1.1030   18.7480  -32.4240 O   0  0  0  0  0  0  0  0  0  0  0  0
   -0.3250   20.5310  -32.1100 N   0  0  0  0  0  0  0  0  0  0  0  0
   -0.4030   21.0530  -33.4710 C   0  0  0  0  0  0  0  0  0  0  0  0
   -4.8340   22.2750  -31.8370 C   0  0  0  0  0  0  0  0  0  0  0  0
   -3.7740   21.7510  -32.2750 O   0  0  0  0  0  0  0  0  0  0  0  0
   -6.0550   21.7140  -31.9150 N   0  0  0  0  0  0  0  0  0  0  0  0
   -6.3360   20.4050  -32.4390 C   0  0  0  0  0  0  0  0  0  0  0  0
   -7.1050   19.4990  -31.6900 C   0  0  0  0  0  0  0  0  0  0  0  0
   -7.3610   18.2170  -32.1850 C   0  0  0  0  0  0  0  0  0  0  0  0
   -6.8470   17.8290  -33.4250 C   0  0  0  0  0  0  0  0  0  0  0  0
   -6.0700   18.7210  -34.1700 C   0  0  0  0  0  0  0  0  0  0  0  0
   -5.8100   20.0040  -33.6760 C   0  0  0  0  0  0  0  0  0  0  0  0
   -6.9290   22.5310  -31.3270 N   0  0  0  0  0  0  0  0  0  0  0  0
   -8.3230   22.1960  -31.0150 C   0  0  0  0  0  0  0  0  0  0  0  0
   -6.7129   24.4004  -28.9149 H   0  0  0  0  0  0  0  0  0  0  0  0
   -6.3893   25.6389  -30.1751 H   0  0  0  0  0  0  0  0  0  0  0  0
   -7.9462   24.7431  -30.1751 H   0  0  0  0  0  0  0  0  0  0  0  0
   -1.8882   22.8214  -31.7287 H   0  0  0  0  0  0  0  0  0  0  0  0
   -0.3203   20.1891  -27.7357 H   0  0  0  0  0  0  0  0  0  0  0  0
   -0.0495   24.2144  -23.3805 H   0  0  0  0  0  0  0  0  0  0  0  0
   -0.3859   26.6041  -22.7416 H   0  0  0  0  0  0  0  0  0  0  0  0
   -1.3509   28.2157  -24.3895 H   0  0  0  0  0  0  0  0  0  0  0  0
   -1.9942   27.4330  -26.6732 H   0  0  0  0  0  0  0  0  0  0  0  0
   -1.7018   25.0330  -27.3008 H   0  0  0  0  0  0  0  0  0  0  0  0
    0.9809   18.6400  -28.4266 H   0  0  0  0  0  0  0  0  0  0  0  0
    0.8460   17.3924  -29.7118 H   0  0  0  0  0  0  0  0  0  0  0  0
    2.2315   18.5356  -29.7118 H   0  0  0  0  0  0  0  0  0  0  0  0
   -0.5655   22.1404  -33.4379 H   0  0  0  0  0  0  0  0  0  0  0  0
    0.5371   20.8387  -34.0004 H   0  0  0  0  0  0  0  0  0  0  0  0
   -1.2394   20.5732  -34.0004 H   0  0  0  0  0  0  0  0  0  0  0  0
   -7.5069   19.7992  -30.7111 H   0  0  0  0  0  0  0  0  0  0  0  0
   -7.9680   17.5126  -31.5974 H   0  0  0  0  0  0  0  0  0  0  0  0
   -7.0538   16.8215  -33.8151 H   0  0  0  0  0  0  0  0  0  0  0  0
   -5.6630   18.4141  -35.1448 H   0  0  0  0  0  0  0  0  0  0  0  0
   -5.1908   20.7009  -34.2599 H   0  0  0  0  0  0  0  0  0  0  0  0
   -8.4569   22.1638  -29.9237 H   0  0  0  0  0  0  0  0  0  0  0  0
   -8.9884   22.9598  -31.4437 H   0  0  0  0  0  0  0  0  0  0  0  0
   -8.5687   21.2132  -31.4437 H   0  0  0  0  0  0  0  0  0  0  0  0
  1  2  1  0
  2  3  2  0
  3  4  1  0
  4  5  1  0
  5  6  2  0
  5  7  2  0
  5  8  1  0
  8  9  2  0
  9 10  1  0
 10 11  2  0
 11 12  1  0
 12 13  2  0
 13 14  1  0
 14 15  1  0
 15 16  2  0
 15 17  2  0
 15 18  1  0
 18 19  2  0
 19 20  1  0
 20 21  2  0
 21 22  1  0
 22 23  2  0
 11 24  1  0
 24 25  1  0
 24 26  1  0
 26 27  2  0
 26 28  1  0
 28 29  1  0
  3 30  1  0
 30 31  2  0
 30 32  1  0
 32 33  1  0
 33 34  2  0
 34 35  1  0
 35 36  2  0
 36 37  1  0
 37 38  2  0
 32 39  1  0
 39 40  1  0
 39  2  1  0
 13  8  1  0
 23 18  1  0
 38 33  1  0
 28 10  1  0
  1 41  1  0
  1 42  1  0
  1 43  1  0
  9 44  1  0
 12 45  1  0
 19 46  1  0
 20 47  1  0
 21 48  1  0
 22 49  1  0
 23 50  1  0
 25 51  1  0
 25 52  1  0
 25 53  1  0
 29 54  1  0
 29 55  1  0
 29 56  1  0
 34 57  1  0
 35 58  1  0
 36 59  1  0
 37 60  1  0
 38 61  1  0
 40 62  1  0
 40 63  1  0
 40 64  1  0
M  CHG  2   4  -1  14  -1
M  END
>  <UniqueID>  (20) 
20

>  <SMILES>  (20) 
Cc1c([N-]S(=O)(=O)c2cc3c(cc2[N-]S(=O)(=O)c2ccccc2)n(C)c(=O)n3C)c(=O)n(-c2ccccc2)n1C

>  <Energy>  (20) 
165.2467600965152

>  <Genealogy>  (20) 
Cc1c([N-]S(=O)(=O)c2cc3c(cc2[N-]S(=O)(=O)c2ccccc2)n(C)c(=O)n3C)c(=O)n(-c2ccccc2)n1C (protonated)
Cc1c([N-]S(=O)(=O)c2cc3c(cc2[N-]S(=O)(=O)c2ccccc2)n(C)c(=O)n3C)c(=O)n(-c2ccccc2)n1C (3D coordinates assigned)
Cc1c([N-]S(=O)(=O)c2cc3c(cc2[N-]S(=O)(=O)c2ccccc2)n(C)c(=O)n3C)c(=O)n(-c2ccccc2)n1C (optimized conformer: 165.2467600965152 kcal/mol)

>  <smiles>  (20) 
Cc1c(NS(=O)(=O)c2cc3c(cc2NS(=O)(=O)c2ccccc2)n(C)c(=O)n3C)c(=O)n(-c2ccccc2)n1C

>  <score_type>  (20) 
oracle

>  <origin>  (20) 
adgpu

>  <m_score__min__energy>  (20) 
-13.050000000000001

>  <m_primary>  (20) 
energy

$$$$
20:0
     RDKit          3D

 58 60  0  0  0  0  0  0  0  0999 V2000
    1.8600   20.8600  -34.9110 C   0  0  0  0  0  0  0  0  0  0  0  0
    0.8610   21.9680  -34.9670 C   0  0  0  0  0  0  0  0  0  0  0  0
    1.0510   22.9450  -35.7400 O   0  0  0  0  0  0  0  0  0  0  0  0
   -0.3450   21.8620  -34.1980 N   0  0  0  0  0  0  0  0  0  0  0  0
   -1.0580   20.6560  -33.8820 C   0  0  0  0  0  0  0  0  0  0  0  0
   -0.7610   19.4340  -34.5140 C   0  0  0  0  0  0  0  0  0  0  0  0
   -1.4820   18.2810  -34.1950 C   0  0  0  0  0  0  0  0  0  0  0  0
   -2.5080   18.3350  -33.2500 C   0  0  0  0  0  0  0  0  0  0  0  0
   -2.8320   19.5480  -32.6380 C   0  0  0  0  0  0  0  0  0  0  0  0
   -2.1280   20.7200  -32.9690 C   0  0  0  0  0  0  0  0  0  0  0  0
   -2.4280   21.9730  -32.3360 N   0  0  0  0  0  0  0  0  0  0  0  0
   -2.0070   22.3800  -31.0260 C   0  0  0  0  0  0  0  0  0  0  0  0
   -0.7910   22.6340  -30.8080 O   0  0  0  0  0  0  0  0  0  0  0  0
   -2.9900   22.3650  -29.8680 C   0  0  0  0  0  0  0  0  0  0  0  0
   -2.2440   22.9740  -28.6570 C   0  0  0  0  0  0  0  0  0  0  0  0
   -3.3860   20.9160  -29.5010 C   0  0  0  0  0  0  0  0  0  0  0  0
   -4.2740   23.1360  -30.2510 C   0  0  0  0  0  0  0  0  0  0  0  0
   -5.4720   22.4630  -30.5910 C   0  0  0  0  0  0  0  0  0  0  0  0
   -6.6110   23.1680  -31.0020 C   0  0  0  0  0  0  0  0  0  0  0  0
   -8.0780   22.2950  -31.4540 S   0  0  0  0  0  0  0  0  0  0  0  0
   -8.6500   21.6210  -30.2380 O   0  0  0  0  0  0  0  0  0  0  0  0
   -9.0980   23.2820  -31.9530 O   0  0  0  0  0  0  0  0  0  0  0  0
   -7.7810   21.0960  -32.6950 N   0  0  0  0  0  0  0  0  0  0  0  0
   -6.3540   20.7020  -32.7900 C   0  0  0  0  0  0  0  0  0  0  0  0
   -6.1230   19.1880  -32.7210 C   0  0  0  0  0  0  0  0  0  0  0  0
   -6.9100   18.5980  -31.5570 C   0  0  0  0  0  0  0  0  0  0  0  0
   -8.4160   18.8400  -31.7180 C   0  0  0  0  0  0  0  0  0  0  0  0
   -8.7670   19.9930  -32.6840 C   0  0  0  0  0  0  0  0  0  0  0  0
   -6.5820   24.5630  -31.0490 C   0  0  0  0  0  0  0  0  0  0  0  0
   -5.4130   25.2490  -30.7290 C   0  0  0  0  0  0  0  0  0  0  0  0
   -4.2630   24.5520  -30.3480 C   0  0  0  0  0  0  0  0  0  0  0  0
   -3.1130   25.2830  -30.0680 O   0  0  0  0  0  0  0  0  0  0  0  0
    2.0793   20.6168  -33.8609 H   0  0  0  0  0  0  0  0  0  0  0  0
    1.4513   19.9720  -35.4154 H   0  0  0  0  0  0  0  0  0  0  0  0
    2.7854   21.1748  -35.4154 H   0  0  0  0  0  0  0  0  0  0  0  0
    0.0431   19.3867  -35.2631 H   0  0  0  0  0  0  0  0  0  0  0  0
   -1.2408   17.3285  -34.6895 H   0  0  0  0  0  0  0  0  0  0  0  0
   -3.0617   17.4216  -32.9871 H   0  0  0  0  0  0  0  0  0  0  0  0
   -3.6412   19.5870  -31.8939 H   0  0  0  0  0  0  0  0  0  0  0  0
   -2.6960   22.6050  -27.7245 H   0  0  0  0  0  0  0  0  0  0  0  0
   -1.1848   22.6792  -28.6928 H   0  0  0  0  0  0  0  0  0  0  0  0
   -2.3208   24.0707  -28.6928 H   0  0  0  0  0  0  0  0  0  0  0  0
   -3.4150   20.8098  -28.4065 H   0  0  0  0  0  0  0  0  0  0  0  0
   -4.3787   20.6905  -29.9177 H   0  0  0  0  0  0  0  0  0  0  0  0
   -2.6460   20.2169  -29.9177 H   0  0  0  0  0  0  0  0  0  0  0  0
   -5.5095   21.3653  -30.5314 H   0  0  0  0  0  0  0  0  0  0  0  0
   -5.9558   21.0701  -33.7470 H   0  0  0  0  0  0  0  0  0  0  0  0
   -5.8418   21.1436  -31.9224 H   0  0  0  0  0  0  0  0  0  0  0  0
   -6.4580   18.7243  -33.6606 H   0  0  0  0  0  0  0  0  0  0  0  0
   -5.0512   18.9907  -32.5717 H   0  0  0  0  0  0  0  0  0  0  0  0
   -6.7246   17.5146  -31.5126 H   0  0  0  0  0  0  0  0  0  0  0  0
   -6.5780   19.0899  -30.6308 H   0  0  0  0  0  0  0  0  0  0  0  0
   -8.8759   17.9166  -32.0999 H   0  0  0  0  0  0  0  0  0  0  0  0
   -8.8001   19.1262  -30.7278 H   0  0  0  0  0  0  0  0  0  0  0  0
   -8.8358   19.5815  -33.7018 H   0  0  0  0  0  0  0  0  0  0  0  0
   -9.7172   20.4217  -32.3327 H   0  0  0  0  0  0  0  0  0  0  0  0
   -7.4842   25.1214  -31.3393 H   0  0  0  0  0  0  0  0  0  0  0  0
   -5.3946   26.3478  -30.7765 H   0  0  0  0  0  0  0  0  0  0  0  0
  1  2  1  0
  2  3  2  0
  2  4  1  0
  4  5  1  0
  5  6  2  0
  6  7  1  0
  7  8  2  0
  8  9  1  0
  9 10  2  0
 10 11  1  0
 11 12  1  0
 12 13  2  0
 12 14  1  0
 14 15  1  0
 14 16  1  0
 14 17  1  0
 17 18  2  0
 18 19  1  0
 19 20  1  0
 20 21  2  0
 20 22  2  0
 20 23  1  0
 23 24  1  0
 24 25  1  0
 25 26  1  0
 26 27  1  0
 27 28  1  0
 19 29  2  0
 29 30  1  0
 30 31  2  0
 31 32  1  0
 10  5  1  0
 31 17  1  0
 28 23  1  0
  1 33  1  0
  1 34  1  0
  1 35  1  0
  6 36  1  0
  7 37  1  0
  8 38  1  0
  9 39  1  0
 15 40  1  0
 15 41  1  0
 15 42  1  0
 16 43  1  0
 16 44  1  0
 16 45  1  0
 18 46  1  0
 24 47  1  0
 24 48  1  0
 25 49  1  0
 25 50  1  0
 26 51  1  0
 26 52  1  0
 27 53  1  0
 27 54  1  0
 28 55  1  0
 28 56  1  0
 29 57  1  0
 30 58  1  0
M  CHG  3   4  -1  11  -1  32  -1
M  END
>  <UniqueID>  (21) 
21

>  <SMILES>  (21) 
CC(=O)[N-]c1ccccc1[N-]C(=O)C(C)(C)c1cc(S(=O)(=O)N2CCCCC2)ccc1[O-]

>  <Energy>  (21) 
75.838855958133

>  <Genealogy>  (21) 
CC(=O)[N-]c1ccccc1[N-]C(=O)C(C)(C)c1cc(S(=O)(=O)N2CCCCC2)ccc1[O-] (protonated)
CC(=O)[N-]c1ccccc1[N-]C(=O)C(C)(C)c1cc(S(=O)(=O)N2CCCCC2)ccc1[O-] (3D coordinates assigned)
CC(=O)[N-]c1ccccc1[N-]C(=O)C(C)(C)c1cc(S(=O)(=O)N2CCCCC2)ccc1[O-] (nonaromatic ring conformer: 75.838855958133 kcal/mol)

>  <smiles>  (21) 
CC(=O)Nc1ccccc1NC(=O)C(C)(C)c1cc(S(=O)(=O)N2CCCCC2)ccc1O

>  <score_type>  (21) 
oracle

>  <origin>  (21) 
adgpu

>  <m_score__min__energy>  (21) 
-14.08

>  <m_primary>  (21) 
energy

$$$$
21:0
     RDKit          3D

 55 58  0  0  0  0  0  0  0  0999 V2000
   -1.9260   20.7570  -30.9190 C   0  0  0  0  0  0  0  0  0  0  0  0
   -2.7620   20.5400  -32.1840 C   0  0  0  0  0  0  0  0  0  0  0  0
   -2.1050   21.1490  -33.4290 C   0  0  0  0  0  0  0  0  0  0  0  0
   -4.1440   21.0310  -32.0070 N   0  0  0  0  0  0  0  0  0  0  0  0
   -5.3000   20.3720  -32.3230 C   0  0  0  0  0  0  0  0  0  0  0  0
   -5.3800   18.9710  -32.7800 C   0  0  0  0  0  0  0  0  0  0  0  0
   -4.4440   18.0200  -32.3480 C   0  0  0  0  0  0  0  0  0  0  0  0
   -4.5440   16.6910  -32.7690 C   0  0  0  0  0  0  0  0  0  0  0  0
   -5.5920   16.2950  -33.6090 C   0  0  0  0  0  0  0  0  0  0  0  0
   -5.6830   14.6230  -34.1610 S   0  0  0  0  0  0  0  0  0  0  0  0
   -5.6920   13.7170  -32.9600 O   0  0  0  0  0  0  0  0  0  0  0  0
   -6.9530   14.4050  -34.9360 O   0  0  0  0  0  0  0  0  0  0  0  0
   -4.3000   14.2650  -35.1640 N   0  0  0  0  0  0  0  0  0  0  0  0
   -3.4220   13.2730  -34.4970 C   0  0  0  0  0  0  0  0  0  0  0  0
   -1.9320   13.4210  -34.8820 C   0  0  0  0  0  0  0  0  0  0  0  0
   -1.7450   13.9370  -36.2520 N   0  0  0  0  0  0  0  0  0  0  0  0
   -2.0580   12.9200  -37.2700 C   0  0  0  0  0  0  0  0  0  0  0  0
   -2.4460   15.2230  -36.4940 C   0  0  0  0  0  0  0  0  0  0  0  0
   -3.5810   15.5060  -35.4900 C   0  0  0  0  0  0  0  0  0  0  0  0
   -6.5410   17.2380  -34.0250 C   0  0  0  0  0  0  0  0  0  0  0  0
   -6.4410   18.5670  -33.6050 C   0  0  0  0  0  0  0  0  0  0  0  0
   -6.4160   21.1290  -32.1710 N   0  0  0  0  0  0  0  0  0  0  0  0
   -5.9360   22.2990  -31.7260 C   0  0  0  0  0  0  0  0  0  0  0  0
   -6.6700   23.4380  -31.4050 C   0  0  0  0  0  0  0  0  0  0  0  0
   -5.9650   24.5690  -30.9580 C   0  0  0  0  0  0  0  0  0  0  0  0
   -4.5580   24.5330  -30.8440 C   0  0  0  0  0  0  0  0  0  0  0  0
   -3.8730   25.6560  -30.3980 O   0  0  0  0  0  0  0  0  0  0  0  0
   -3.8450   23.3660  -31.1770 C   0  0  0  0  0  0  0  0  0  0  0  0
   -4.5740   22.2540  -31.6210 C   0  0  0  0  0  0  0  0  0  0  0  0
   -2.5549   20.5938  -30.0314 H   0  0  0  0  0  0  0  0  0  0  0  0
   -1.0857   20.0472  -30.9086 H   0  0  0  0  0  0  0  0  0  0  0  0
   -1.5370   21.7859  -30.9086 H   0  0  0  0  0  0  0  0  0  0  0  0
   -2.8102   19.4538  -32.3510 H   0  0  0  0  0  0  0  0  0  0  0  0
   -1.3306   21.8669  -33.1209 H   0  0  0  0  0  0  0  0  0  0  0  0
   -1.6461   20.3498  -34.0295 H   0  0  0  0  0  0  0  0  0  0  0  0
   -2.8672   21.6671  -34.0295 H   0  0  0  0  0  0  0  0  0  0  0  0
   -3.6278   18.3214  -31.6750 H   0  0  0  0  0  0  0  0  0  0  0  0
   -3.7971   15.9538  -32.4394 H   0  0  0  0  0  0  0  0  0  0  0  0
   -4.6760   13.8550  -36.0520 H   0  0  0  0  0  0  0  0  0  0  0  0
   -3.5158   13.3995  -33.4083 H   0  0  0  0  0  0  0  0  0  0  0  0
   -3.7470   12.2753  -34.8271 H   0  0  0  0  0  0  0  0  0  0  0  0
   -1.4537   14.1160  -34.1761 H   0  0  0  0  0  0  0  0  0  0  0  0
   -1.4775   12.4202  -34.8396 H   0  0  0  0  0  0  0  0  0  0  0  0
   -2.3468   11.9816  -36.7741 H   0  0  0  0  0  0  0  0  0  0  0  0
   -2.8889   13.2736  -37.8982 H   0  0  0  0  0  0  0  0  0  0  0  0
   -1.1721   12.7452  -37.8982 H   0  0  0  0  0  0  0  0  0  0  0  0
   -1.7105   16.0381  -36.4261 H   0  0  0  0  0  0  0  0  0  0  0  0
   -2.9064   15.1567  -37.4908 H   0  0  0  0  0  0  0  0  0  0  0  0
   -3.1530   15.9292  -34.5693 H   0  0  0  0  0  0  0  0  0  0  0  0
   -4.2868   16.2186  -35.9417 H   0  0  0  0  0  0  0  0  0  0  0  0
   -7.3668   16.9315  -34.6838 H   0  0  0  0  0  0  0  0  0  0  0  0
   -7.1974   19.2999  -33.9225 H   0  0  0  0  0  0  0  0  0  0  0  0
   -7.7660   23.4522  -31.4982 H   0  0  0  0  0  0  0  0  0  0  0  0
   -6.5120   25.4866  -30.6957 H   0  0  0  0  0  0  0  0  0  0  0  0
   -2.7490   23.3277  -31.0914 H   0  0  0  0  0  0  0  0  0  0  0  0
  1  2  1  0
  2  3  1  0
  2  4  1  0
  4  5  1  0
  5  6  1  0
  6  7  2  0
  7  8  1  0
  8  9  2  0
  9 10  1  0
 10 11  2  0
 10 12  2  0
 10 13  1  0
 13 14  1  0
 14 15  1  0
 15 16  1  0
 16 17  1  0
 16 18  1  0
 18 19  1  0
  9 20  1  0
 20 21  2  0
  5 22  2  0
 22 23  1  0
 23 24  2  0
 24 25  1  0
 25 26  2  0
 26 27  1  0
 26 28  1  0
 28 29  2  0
 29  4  1  0
 21  6  1  0
 29 23  1  0
 19 13  1  0
  1 30  1  0
  1 31  1  0
  1 32  1  0
  2 33  1  0
  3 34  1  0
  3 35  1  0
  3 36  1  0
  7 37  1  0
  8 38  1  0
 13 39  1  0
 14 40  1  0
 14 41  1  0
 15 42  1  0
 15 43  1  0
 17 44  1  0
 17 45  1  0
 17 46  1  0
 18 47  1  0
 18 48  1  0
 19 49  1  0
 19 50  1  0
 20 51  1  0
 21 52  1  0
 24 53  1  0
 25 54  1  0
 28 55  1  0
M  CHG  2  13   1  27  -1
M  END
>  <UniqueID>  (22) 
22

>  <SMILES>  (22) 
CC(C)n1c(-c2ccc(S(=O)(=O)[NH+]3CCN(C)CC3)cc2)nc2ccc([O-])cc21

>  <Energy>  (22) 
108.60634733230565

>  <Genealogy>  (22) 
CC(C)n1c(-c2ccc(S(=O)(=O)[NH+]3CCN(C)CC3)cc2)nc2ccc([O-])cc21 (protonated)
CC(C)n1c(-c2ccc(S(=O)(=O)[NH+]3CCN(C)CC3)cc2)nc2ccc([O-])cc21 (3D coordinates assigned)
CC(C)n1c(-c2ccc(S(=O)(=O)[NH+]3CCN(C)CC3)cc2)nc2ccc([O-])cc21 (nonaromatic ring conformer: 108.60634733230565 kcal/mol)

>  <smiles>  (22) 
CC(C)n1c(-c2ccc(S(=O)(=O)N3CCN(C)CC3)cc2)nc2ccc(O)cc21

>  <score_type>  (22) 
oracle

>  <origin>  (22) 
adgpu

>  <m_score__min__energy>  (22) 
-10.07

>  <m_primary>  (22) 
energy

$$$$
22:0
     RDKit          3D

 52 55  0  0  0  0  0  0  0  0999 V2000
    0.2840   22.2870  -34.8500 O   0  0  0  0  0  0  0  0  0  0  0  0
    0.6200   21.2090  -34.2890 C   0  0  0  0  0  0  0  0  0  0  0  0
   -0.2780   20.5600  -33.3750 N   0  0  0  0  0  0  0  0  0  0  0  0
   -1.4020   21.2120  -32.7570 C   0  0  0  0  0  0  0  0  0  0  0  0
   -2.6050   21.3330  -33.4680 C   0  0  0  0  0  0  0  0  0  0  0  0
   -3.7170   21.9420  -32.8810 C   0  0  0  0  0  0  0  0  0  0  0  0
   -3.6440   22.4300  -31.5700 C   0  0  0  0  0  0  0  0  0  0  0  0
   -5.0530   23.1680  -30.8200 S   0  0  0  0  0  0  0  0  0  0  0  0
   -5.1570   24.6080  -31.2410 O   0  0  0  0  0  0  0  0  0  0  0  0
   -4.9220   23.1270  -29.3230 O   0  0  0  0  0  0  0  0  0  0  0  0
   -6.4910   22.2840  -31.3130 C   0  0  0  0  0  0  0  0  0  0  0  0
   -7.6980   22.9570  -31.5430 C   0  0  0  0  0  0  0  0  0  0  0  0
   -8.8320   22.2460  -31.9480 C   0  0  0  0  0  0  0  0  0  0  0  0
   -8.7640   20.8630  -32.1340 C   0  0  0  0  0  0  0  0  0  0  0  0
   -7.5560   20.1840  -31.9210 C   0  0  0  0  0  0  0  0  0  0  0  0
   -7.4580   18.4380  -32.1350 S   0  0  0  0  0  0  0  0  0  0  0  0
   -6.5570   17.8450  -31.0870 O   0  0  0  0  0  0  0  0  0  0  0  0
   -8.8360   17.8630  -31.9530 O   0  0  0  0  0  0  0  0  0  0  0  0
   -6.8770   18.0470  -33.7410 N   0  0  0  0  0  0  0  0  0  0  0  0
   -5.8140   18.9680  -34.1820 C   0  0  0  0  0  0  0  0  0  0  0  0
   -4.4700   18.7010  -33.4640 C   0  0  0  0  0  0  0  0  0  0  0  0
   -4.3920   17.4180  -32.8660 O   0  0  0  0  0  0  0  0  0  0  0  0
   -4.9400   16.4430  -33.7250 C   0  0  0  0  0  0  0  0  0  0  0  0
   -6.4640   16.6290  -33.8440 C   0  0  0  0  0  0  0  0  0  0  0  0
   -6.4240   20.8970  -31.5080 C   0  0  0  0  0  0  0  0  0  0  0  0
   -2.4550   22.2840  -30.8430 C   0  0  0  0  0  0  0  0  0  0  0  0
   -1.3420   21.6760  -31.4300 C   0  0  0  0  0  0  0  0  0  0  0  0
    1.9240   20.6130  -34.6220 C   0  0  0  0  0  0  0  0  0  0  0  0
    2.8830   21.1420  -35.4650 C   0  0  0  0  0  0  0  0  0  0  0  0
    3.9180   20.2310  -35.4690 C   0  0  0  0  0  0  0  0  0  0  0  0
    3.5290   19.2050  -34.6340 C   0  0  0  0  0  0  0  0  0  0  0  0
    2.3370   19.4610  -34.1450 O   0  0  0  0  0  0  0  0  0  0  0  0
   -0.1720   19.5310  -33.2250 H   0  0  0  0  0  0  0  0  0  0  0  0
   -2.6734   20.9456  -34.4952 H   0  0  0  0  0  0  0  0  0  0  0  0
   -4.6532   22.0386  -33.4504 H   0  0  0  0  0  0  0  0  0  0  0  0
   -7.7538   24.0468  -31.4047 H   0  0  0  0  0  0  0  0  0  0  0  0
   -9.7798   22.7769  -32.1205 H   0  0  0  0  0  0  0  0  0  0  0  0
   -9.6592   20.3062  -32.4479 H   0  0  0  0  0  0  0  0  0  0  0  0
   -5.6668   18.8454  -35.2652 H   0  0  0  0  0  0  0  0  0  0  0  0
   -6.1310   19.9914  -33.9327 H   0  0  0  0  0  0  0  0  0  0  0  0
   -3.6581   18.7915  -34.2006 H   0  0  0  0  0  0  0  0  0  0  0  0
   -4.3840   19.4405  -32.6542 H   0  0  0  0  0  0  0  0  0  0  0  0
   -4.4840   16.5400  -34.7213 H   0  0  0  0  0  0  0  0  0  0  0  0
   -4.7333   15.4452  -33.3106 H   0  0  0  0  0  0  0  0  0  0  0  0
   -6.7912   16.2372  -34.8184 H   0  0  0  0  0  0  0  0  0  0  0  0
   -6.9309   16.0858  -33.0092 H   0  0  0  0  0  0  0  0  0  0  0  0
   -5.4763   20.3659  -31.3354 H   0  0  0  0  0  0  0  0  0  0  0  0
   -2.3975   22.6491  -29.8070 H   0  0  0  0  0  0  0  0  0  0  0  0
   -0.4138   21.5595  -30.8514 H   0  0  0  0  0  0  0  0  0  0  0  0
    2.8313   22.0918  -36.0175 H   0  0  0  0  0  0  0  0  0  0  0  0
    4.8635   20.3073  -36.0260 H   0  0  0  0  0  0  0  0  0  0  0  0
    4.1261   18.3084  -34.4112 H   0  0  0  0  0  0  0  0  0  0  0  0
  1  2  2  0
  2  3  1  0
  3  4  1  0
  4  5  2  0
  5  6  1  0
  6  7  2  0
  7  8  1  0
  8  9  2  0
  8 10  2  0
  8 11  1  0
 11 12  2  0
 12 13  1  0
 13 14  2  0
 14 15  1  0
 15 16  1  0
 16 17  2  0
 16 18  2  0
 16 19  1  0
 19 20  1  0
 20 21  1  0
 21 22  1  0
 22 23  1  0
 23 24  1  0
 15 25  2  0
  7 26  1  0
 26 27  2  0
  2 28  1  0
 28 29  2  0
 29 30  1  0
 30 31  2  0
 31 32  1  0
 27  4  1  0
 32 28  1  0
 25 11  1  0
 24 19  1  0
  3 33  1  0
  5 34  1  0
  6 35  1  0
 12 36  1  0
 13 37  1  0
 14 38  1  0
 20 39  1  0
 20 40  1  0
 21 41  1  0
 21 42  1  0
 23 43  1  0
 23 44  1  0
 24 45  1  0
 24 46  1  0
 25 47  1  0
 26 48  1  0
 27 49  1  0
 29 50  1  0
 30 51  1  0
 31 52  1  0
M  END
>  <UniqueID>  (23) 
23

>  <SMILES>  (23) 
O=C(Nc1ccc(S(=O)(=O)c2cccc(S(=O)(=O)N3CCOCC3)c2)cc1)c1ccco1

>  <Energy>  (23) 
96.70079927965841

>  <Genealogy>  (23) 
O=C(Nc1ccc(S(=O)(=O)c2cccc(S(=O)(=O)N3CCOCC3)c2)cc1)c1ccco1 (3D coordinates assigned)
O=C(Nc1ccc(S(=O)(=O)c2cccc(S(=O)(=O)N3CCOCC3)c2)cc1)c1ccco1 (nonaromatic ring conformer: 96.70079927965841 kcal/mol)

>  <smiles>  (23) 
O=C(Nc1ccc(S(=O)(=O)c2cccc(S(=O)(=O)N3CCOCC3)c2)cc1)c1ccco1

>  <score_type>  (23) 
oracle

>  <origin>  (23) 
adgpu

>  <m_score__min__energy>  (23) 
-11.01

>  <m_primary>  (23) 
energy

$$$$
23:0
     RDKit          3D

 76 79  0  0  0  0  0  0  0  0999 V2000
   -3.5350   24.6470  -29.9990 C   0  0  0  0  0  0  0  0  0  0  0  0
   -2.6660   25.0730  -28.9090 N   0  0  0  0  0  0  0  0  0  0  0  0
   -2.9280   24.7840  -27.5320 C   0  0  0  0  0  0  0  0  0  0  0  0
   -4.1030   24.5040  -27.1730 O   0  0  0  0  0  0  0  0  0  0  0  0
   -1.8490   24.7800  -26.5310 C   0  0  0  0  0  0  0  0  0  0  0  0
   -1.8230   25.7920  -25.5610 C   0  0  0  0  0  0  0  0  0  0  0  0
   -0.8500   25.7880  -24.5500 C   0  0  0  0  0  0  0  0  0  0  0  0
   -0.8590   26.8670  -23.5020 C   0  0  0  0  0  0  0  0  0  0  0  0
   -0.4010   28.1340  -24.0900 N   0  0  0  0  0  0  0  0  0  0  0  0
    0.6100   27.9170  -25.1390 C   0  0  0  0  0  0  0  0  0  0  0  0
    0.2290   28.6900  -26.4160 C   0  0  0  0  0  0  0  0  0  0  0  0
   -0.7760   29.8120  -26.1140 C   0  0  0  0  0  0  0  0  0  0  0  0
   -0.3490   27.7350  -27.4680 C   0  0  0  0  0  0  0  0  0  0  0  0
    0.1070   24.7630  -24.5190 C   0  0  0  0  0  0  0  0  0  0  0  0
    0.0990   23.7640  -25.4940 C   0  0  0  0  0  0  0  0  0  0  0  0
   -0.8690   23.7650  -26.5080 C   0  0  0  0  0  0  0  0  0  0  0  0
   -0.8270   22.7450  -27.5210 N   0  0  0  0  0  0  0  0  0  0  0  0
   -0.1400   23.0060  -28.7930 C   0  0  0  0  0  0  0  0  0  0  0  0
   -1.0360   22.6080  -29.9670 C   0  0  0  0  0  0  0  0  0  0  0  0
   -1.6140   21.2720  -29.7660 N   0  0  0  0  0  0  0  0  0  0  0  0
   -2.4350   20.6990  -30.7920 C   0  0  0  0  0  0  0  0  0  0  0  0
   -3.7790   20.6990  -30.6250 N   0  0  0  0  0  0  0  0  0  0  0  0
   -4.5990   20.1810  -31.5350 N   0  0  0  0  0  0  0  0  0  0  0  0
   -4.1430   19.6420  -32.6960 C   0  0  0  0  0  0  0  0  0  0  0  0
   -5.1620   19.0290  -33.6260 C   0  0  0  0  0  0  0  0  0  0  0  0
   -6.5580   19.1450  -33.0680 C   0  0  0  0  0  0  0  0  0  0  0  0
   -7.2500   20.3680  -33.1330 C   0  0  0  0  0  0  0  0  0  0  0  0
   -8.5440   20.4760  -32.6180 C   0  0  0  0  0  0  0  0  0  0  0  0
   -9.1630   19.3630  -32.0420 C   0  0  0  0  0  0  0  0  0  0  0  0
   -8.4890   18.1400  -31.9830 C   0  0  0  0  0  0  0  0  0  0  0  0
   -7.1930   18.0280  -32.4970 C   0  0  0  0  0  0  0  0  0  0  0  0
   -2.7500   19.6380  -32.9570 C   0  0  0  0  0  0  0  0  0  0  0  0
   -2.2000   19.0560  -34.2420 C   0  0  0  0  0  0  0  0  0  0  0  0
   -1.8760   20.1240  -31.9510 C   0  0  0  0  0  0  0  0  0  0  0  0
   -0.3750   20.0430  -32.1150 C   0  0  0  0  0  0  0  0  0  0  0  0
   -1.4250   20.5490  -28.5040 C   0  0  0  0  0  0  0  0  0  0  0  0
   -1.5910   21.5050  -27.3210 C   0  0  0  0  0  0  0  0  0  0  0  0
   -4.4499   24.1985  -29.5846 H   0  0  0  0  0  0  0  0  0  0  0  0
   -3.8008   25.5170  -30.6175 H   0  0  0  0  0  0  0  0  0  0  0  0
   -3.0101   23.9041  -30.6175 H   0  0  0  0  0  0  0  0  0  0  0  0
   -2.5724   26.5966  -25.5928 H   0  0  0  0  0  0  0  0  0  0  0  0
   -1.8810   26.9921  -23.1150 H   0  0  0  0  0  0  0  0  0  0  0  0
   -0.1848   26.5823  -22.6808 H   0  0  0  0  0  0  0  0  0  0  0  0
    0.0260   28.7070  -23.3240 H   0  0  0  0  0  0  0  0  0  0  0  0
    1.5878   28.2698  -24.7793 H   0  0  0  0  0  0  0  0  0  0  0  0
    0.6596   26.8431  -25.3719 H   0  0  0  0  0  0  0  0  0  0  0  0
    1.1455   29.1508  -26.8132 H   0  0  0  0  0  0  0  0  0  0  0  0
   -0.8798   29.9279  -25.0251 H   0  0  0  0  0  0  0  0  0  0  0  0
   -0.4149   30.7550  -26.5503 H   0  0  0  0  0  0  0  0  0  0  0  0
   -1.7529   29.5565  -26.5503 H   0  0  0  0  0  0  0  0  0  0  0  0
   -0.8555   26.8982  -26.9647 H   0  0  0  0  0  0  0  0  0  0  0  0
   -1.0714   28.2760  -28.0968 H   0  0  0  0  0  0  0  0  0  0  0  0
    0.4653   27.3459  -28.0968 H   0  0  0  0  0  0  0  0  0  0  0  0
    0.8666   24.7463  -23.7235 H   0  0  0  0  0  0  0  0  0  0  0  0
    0.8589   22.9691  -25.4664 H   0  0  0  0  0  0  0  0  0  0  0  0
    0.0983   24.0775  -28.8644 H   0  0  0  0  0  0  0  0  0  0  0  0
    0.7857   22.4129  -28.8300 H   0  0  0  0  0  0  0  0  0  0  0  0
   -1.8508   23.3409  -30.0609 H   0  0  0  0  0  0  0  0  0  0  0  0
   -0.4241   22.5886  -30.8809 H   0  0  0  0  0  0  0  0  0  0  0  0
   -5.1198   19.5481  -34.5949 H   0  0  0  0  0  0  0  0  0  0  0  0
   -4.9244   17.9614  -33.7437 H   0  0  0  0  0  0  0  0  0  0  0  0
   -6.7693   21.2445  -33.5921 H   0  0  0  0  0  0  0  0  0  0  0  0
   -9.0761   21.4375  -32.6658 H   0  0  0  0  0  0  0  0  0  0  0  0
  -10.1812   19.4497  -31.6349 H   0  0  0  0  0  0  0  0  0  0  0  0
   -8.9785   17.2643  -31.5317 H   0  0  0  0  0  0  0  0  0  0  0  0
   -6.6684   17.0621  -32.4543 H   0  0  0  0  0  0  0  0  0  0  0  0
   -1.4623   18.2753  -34.0047 H   0  0  0  0  0  0  0  0  0  0  0  0
   -3.0219   18.6180  -34.8274 H   0  0  0  0  0  0  0  0  0  0  0  0
   -1.7163   19.8518  -34.8274 H   0  0  0  0  0  0  0  0  0  0  0  0
    0.1013   20.0173  -31.1238 H   0  0  0  0  0  0  0  0  0  0  0  0
   -0.1156   19.1295  -32.6703 H   0  0  0  0  0  0  0  0  0  0  0  0
   -0.0188   20.9232  -32.6703 H   0  0  0  0  0  0  0  0  0  0  0  0
   -2.1721   19.7450  -28.4298 H   0  0  0  0  0  0  0  0  0  0  0  0
   -0.4118   20.1213  -28.4821 H   0  0  0  0  0  0  0  0  0  0  0  0
   -2.6564   21.7552  -27.2100 H   0  0  0  0  0  0  0  0  0  0  0  0
   -1.2105   21.0063  -26.4174 H   0  0  0  0  0  0  0  0  0  0  0  0
  1  2  1  0
  2  3  1  0
  3  4  2  0
  3  5  1  0
  5  6  2  0
  6  7  1  0
  7  8  1  0
  8  9  1  0
  9 10  1  0
 10 11  1  0
 11 12  1  0
 11 13  1  0
  7 14  2  0
 14 15  1  0
 15 16  2  0
 16 17  1  0
 17 18  1  0
 18 19  1  0
 19 20  1  0
 20 21  1  0
 21 22  2  0
 22 23  1  0
 23 24  2  0
 24 25  1  0
 25 26  1  0
 26 27  2  0
 27 28  1  0
 28 29  2  0
 29 30  1  0
 30 31  2  0
 24 32  1  0
 32 33  1  0
 32 34  2  0
 34 35  1  0
 20 36  1  0
 36 37  1  0
 16  5  1  0
 37 17  1  0
 34 21  1  0
 31 26  1  0
  1 38  1  0
  1 39  1  0
  1 40  1  0
  6 41  1  0
  8 42  1  0
  8 43  1  0
  9 44  1  0
 10 45  1  0
 10 46  1  0
 11 47  1  0
 12 48  1  0
 12 49  1  0
 12 50  1  0
 13 51  1  0
 13 52  1  0
 13 53  1  0
 14 54  1  0
 15 55  1  0
 18 56  1  0
 18 57  1  0
 19 58  1  0
 19 59  1  0
 25 60  1  0
 25 61  1  0
 27 62  1  0
 28 63  1  0
 29 64  1  0
 30 65  1  0
 31 66  1  0
 33 67  1  0
 33 68  1  0
 33 69  1  0
 35 70  1  0
 35 71  1  0
 35 72  1  0
 36 73  1  0
 36 74  1  0
 37 75  1  0
 37 76  1  0
M  CHG  1   2  -1
M  END
>  <UniqueID>  (24) 
24

>  <SMILES>  (24) 
C[N-]C(=O)c1cc(CNCC(C)C)ccc1N1CCN(c2nnc(Cc3ccccc3)c(C)c2C)CC1

>  <Energy>  (24) 
92.6145502443435

>  <Genealogy>  (24) 
C[N-]C(=O)c1cc(CNCC(C)C)ccc1N1CCN(c2nnc(Cc3ccccc3)c(C)c2C)CC1 (protonated)
C[N-]C(=O)c1cc(CNCC(C)C)ccc1N1CCN(c2nnc(Cc3ccccc3)c(C)c2C)CC1 (3D coordinates assigned)
C[N-]C(=O)c1cc(CNCC(C)C)ccc1N1CCN(c2nnc(Cc3ccccc3)c(C)c2C)CC1 (nonaromatic ring conformer: 92.6145502443435 kcal/mol)

>  <smiles>  (24) 
CNC(=O)c1cc(CNCC(C)C)ccc1N1CCN(c2nnc(Cc3ccccc3)c(C)c2C)CC1

>  <score_type>  (24) 
oracle

>  <origin>  (24) 
adgpu

>  <m_score__min__energy>  (24) 
-10.640000000000001

>  <m_primary>  (24) 
energy

$$$$
24:0
     RDKit          3D

 59 62  0  0  0  0  0  0  0  0999 V2000
   -4.2380   14.0240  -31.6280 C   0  0  0  0  0  0  0  0  0  0  0  0
   -4.3670   15.2490  -32.4850 C   0  0  0  0  0  0  0  0  0  0  0  0
   -5.6270   15.7820  -32.7800 C   0  0  0  0  0  0  0  0  0  0  0  0
   -5.7390   16.9070  -33.5990 C   0  0  0  0  0  0  0  0  0  0  0  0
   -4.5930   17.5010  -34.1440 C   0  0  0  0  0  0  0  0  0  0  0  0
   -4.7080   18.6250  -34.9590 O   0  0  0  0  0  0  0  0  0  0  0  0
   -3.3250   16.9610  -33.8770 C   0  0  0  0  0  0  0  0  0  0  0  0
   -2.1750   17.5900  -34.4630 N   0  0  0  0  0  0  0  0  0  0  0  0
   -1.6130   19.2090  -34.1930 S   0  0  0  0  0  0  0  0  0  0  0  0
   -2.7060   20.2040  -34.4480 O   0  0  0  0  0  0  0  0  0  0  0  0
   -0.5040   19.4910  -35.1680 O   0  0  0  0  0  0  0  0  0  0  0  0
   -0.9900   19.3680  -32.5510 C   0  0  0  0  0  0  0  0  0  0  0  0
   -0.4970   18.2480  -31.8700 C   0  0  0  0  0  0  0  0  0  0  0  0
    0.0030   18.3770  -30.5720 C   0  0  0  0  0  0  0  0  0  0  0  0
    0.0080   19.6230  -29.9430 C   0  0  0  0  0  0  0  0  0  0  0  0
   -0.4730   20.7550  -30.6090 C   0  0  0  0  0  0  0  0  0  0  0  0
   -0.5060   22.0010  -29.9000 N   0  0  0  0  0  0  0  0  0  0  0  0
   -1.6390   22.6110  -29.2670 C   0  0  0  0  0  0  0  0  0  0  0  0
   -1.6100   22.8540  -28.0320 O   0  0  0  0  0  0  0  0  0  0  0  0
   -2.8650   22.9250  -30.0500 C   0  0  0  0  0  0  0  0  0  0  0  0
   -3.5360   21.8880  -30.7290 C   0  0  0  0  0  0  0  0  0  0  0  0
   -4.7090   22.1420  -31.4530 C   0  0  0  0  0  0  0  0  0  0  0  0
   -5.5460   20.8270  -32.2810 S   0  0  0  0  0  0  0  0  0  0  0  0
   -5.2000   19.5250  -31.6150 O   0  0  0  0  0  0  0  0  0  0  0  0
   -5.0700   20.7600  -33.7060 O   0  0  0  0  0  0  0  0  0  0  0  0
   -7.2790   21.0450  -32.2660 N   0  0  0  0  0  0  0  0  0  0  0  0
   -7.7240   21.5280  -30.9500 C   0  0  0  0  0  0  0  0  0  0  0  0
   -9.2620   21.6520  -30.9210 C   0  0  0  0  0  0  0  0  0  0  0  0
   -9.8430   21.2900  -32.1620 O   0  0  0  0  0  0  0  0  0  0  0  0
   -9.4910   19.9580  -32.4870 C   0  0  0  0  0  0  0  0  0  0  0  0
   -7.9620   19.7840  -32.5980 C   0  0  0  0  0  0  0  0  0  0  0  0
   -5.2200   23.4420  -31.5070 C   0  0  0  0  0  0  0  0  0  0  0  0
   -4.5660   24.4810  -30.8440 C   0  0  0  0  0  0  0  0  0  0  0  0
   -3.3980   24.2350  -30.1150 C   0  0  0  0  0  0  0  0  0  0  0  0
   -2.7910   25.3000  -29.4580 O   0  0  0  0  0  0  0  0  0  0  0  0
   -0.9830   20.6200  -31.9140 C   0  0  0  0  0  0  0  0  0  0  0  0
   -3.2190   15.8370  -33.0370 C   0  0  0  0  0  0  0  0  0  0  0  0
   -4.2685   14.3137  -30.5673 H   0  0  0  0  0  0  0  0  0  0  0  0
   -5.0687   13.3361  -31.8442 H   0  0  0  0  0  0  0  0  0  0  0  0
   -3.2823   13.5242  -31.8442 H   0  0  0  0  0  0  0  0  0  0  0  0
   -6.5316   15.3132  -32.3654 H   0  0  0  0  0  0  0  0  0  0  0  0
   -6.7311   17.3289  -33.8174 H   0  0  0  0  0  0  0  0  0  0  0  0
   -4.0060   19.3560  -34.9540 H   0  0  0  0  0  0  0  0  0  0  0  0
   -0.5035   17.2628  -32.3591 H   0  0  0  0  0  0  0  0  0  0  0  0
    0.3937   17.4945  -30.0443 H   0  0  0  0  0  0  0  0  0  0  0  0
    0.3928   19.7153  -28.9166 H   0  0  0  0  0  0  0  0  0  0  0  0
   -3.1335   20.8650  -30.6902 H   0  0  0  0  0  0  0  0  0  0  0  0
   -7.4019   20.8179  -30.1742 H   0  0  0  0  0  0  0  0  0  0  0  0
   -7.2802   22.5166  -30.7612 H   0  0  0  0  0  0  0  0  0  0  0  0
   -9.6577   20.9906  -30.1362 H   0  0  0  0  0  0  0  0  0  0  0  0
   -9.5164   22.7028  -30.7181 H   0  0  0  0  0  0  0  0  0  0  0  0
   -9.8703   19.2872  -31.7021 H   0  0  0  0  0  0  0  0  0  0  0  0
   -9.9362   19.7135  -33.4627 H   0  0  0  0  0  0  0  0  0  0  0  0
   -7.6345   18.9993  -31.9002 H   0  0  0  0  0  0  0  0  0  0  0  0
   -7.7081   19.5004  -33.6300 H   0  0  0  0  0  0  0  0  0  0  0  0
   -6.1403   23.6464  -32.0738 H   0  0  0  0  0  0  0  0  0  0  0  0
   -4.9723   25.5019  -30.8951 H   0  0  0  0  0  0  0  0  0  0  0  0
   -1.3791   21.5017  -32.4391 H   0  0  0  0  0  0  0  0  0  0  0  0
   -2.2281   15.4160  -32.8114 H   0  0  0  0  0  0  0  0  0  0  0  0
  1  2  1  0
  2  3  2  0
  3  4  1  0
  4  5  2  0
  5  6  1  0
  5  7  1  0
  7  8  1  0
  8  9  1  0
  9 10  2  0
  9 11  2  0
  9 12  1  0
 12 13  2  0
 13 14  1  0
 14 15  2  0
 15 16  1  0
 16 17  1  0
 17 18  1  0
 18 19  2  0
 18 20  1  0
 20 21  2  0
 21 22  1  0
 22 23  1  0
 23 24  2  0
 23 25  2  0
 23 26  1  0
 26 27  1  0
 27 28  1  0
 28 29  1  0
 29 30  1  0
 30 31  1  0
 22 32  2  0
 32 33  1  0
 33 34  2  0
 34 35  1  0
 16 36  2  0
  7 37  2  0
 37  2  1  0
 36 12  1  0
 34 20  1  0
 31 26  1  0
  1 38  1  0
  1 39  1  0
  1 40  1  0
  3 41  1  0
  4 42  1  0
  6 43  1  0
 13 44  1  0
 14 45  1  0
 15 46  1  0
 21 47  1  0
 27 48  1  0
 27 49  1  0
 28 50  1  0
 28 51  1  0
 30 52  1  0
 30 53  1  0
 31 54  1  0
 31 55  1  0
 32 56  1  0
 33 57  1  0
 36 58  1  0
 37 59  1  0
M  CHG  3   8  -1  17  -1  35  -1
M  END
>  <UniqueID>  (25) 
25

>  <SMILES>  (25) 
Cc1ccc(O)c([N-]S(=O)(=O)c2cccc([N-]C(=O)c3cc(S(=O)(=O)N4CCOCC4)ccc3[O-])c2)c1

>  <Energy>  (25) 
80.59833830318982

>  <Genealogy>  (25) 
Cc1ccc(O)c([N-]S(=O)(=O)c2cccc([N-]C(=O)c3cc(S(=O)(=O)N4CCOCC4)ccc3[O-])c2)c1 (protonated)
Cc1ccc(O)c([N-]S(=O)(=O)c2cccc([N-]C(=O)c3cc(S(=O)(=O)N4CCOCC4)ccc3[O-])c2)c1 (3D coordinates assigned)
Cc1ccc(O)c([N-]S(=O)(=O)c2cccc([N-]C(=O)c3cc(S(=O)(=O)N4CCOCC4)ccc3[O-])c2)c1 (nonaromatic ring conformer: 80.59833830318982 kcal/mol)

>  <smiles>  (25) 
Cc1ccc(O)c(NS(=O)(=O)c2cccc(NC(=O)c3cc(S(=O)(=O)N4CCOCC4)ccc3O)c2)c1

>  <score_type>  (25) 
oracle

>  <origin>  (25) 
adgpu

>  <m_score__min__energy>  (25) 
-14.359999999999999

>  <m_primary>  (25) 
energy

$$$$
25:0
     RDKit          3D

 52 54  0  0  0  0  0  0  0  0999 V2000
   -1.8340   20.4200  -29.1820 C   0  0  0  0  0  0  0  0  0  0  0  0
   -2.6420   21.6470  -28.9040 C   0  0  0  0  0  0  0  0  0  0  0  0
   -2.3270   22.5470  -27.9530 N   0  0  0  0  0  0  0  0  0  0  0  0
   -3.2200   23.5240  -28.0100 N   0  0  0  0  0  0  0  0  0  0  0  0
   -3.1540   24.7090  -27.1560 C   0  0  0  0  0  0  0  0  0  0  0  0
   -1.6980   25.0970  -26.8980 C   0  0  0  0  0  0  0  0  0  0  0  0
   -0.9530   25.2250  -28.1880 C   0  0  0  0  0  0  0  0  0  0  0  0
    0.2630   24.9040  -28.2540 O   0  0  0  0  0  0  0  0  0  0  0  0
   -1.6110   25.6630  -29.3300 O   0  0  0  0  0  0  0  0  0  0  0  0
   -4.1110   23.2710  -28.9960 C   0  0  0  0  0  0  0  0  0  0  0  0
   -5.2090   24.1980  -29.4320 C   0  0  0  0  0  0  0  0  0  0  0  0
   -3.7640   22.0730  -29.5980 C   0  0  0  0  0  0  0  0  0  0  0  0
   -4.4240   21.4100  -30.7690 C   0  0  0  0  0  0  0  0  0  0  0  0
   -4.9720   22.6690  -31.9700 S   0  0  0  0  0  0  0  0  0  0  0  0
   -6.6450   22.0120  -32.0800 C   0  0  0  0  0  0  0  0  0  0  0  0
   -7.6920   22.7730  -31.5390 C   0  0  0  0  0  0  0  0  0  0  0  0
   -9.0040   22.2930  -31.5680 C   0  0  0  0  0  0  0  0  0  0  0  0
   -9.2810   21.0530  -32.1440 C   0  0  0  0  0  0  0  0  0  0  0  0
   -8.2490   20.2960  -32.7060 C   0  0  0  0  0  0  0  0  0  0  0  0
   -6.9260   20.7690  -32.6910 C   0  0  0  0  0  0  0  0  0  0  0  0
   -5.6600   19.8160  -33.4840 S   0  0  0  0  0  0  0  0  0  0  0  0
   -4.4820   20.7120  -33.7440 O   0  0  0  0  0  0  0  0  0  0  0  0
   -6.1610   19.2980  -34.8050 O   0  0  0  0  0  0  0  0  0  0  0  0
   -5.1690   18.4770  -32.4690 N   0  0  0  0  0  0  0  0  0  0  0  0
   -4.2760   17.5800  -33.2100 C   0  0  0  0  0  0  0  0  0  0  0  0
   -5.1230   16.4870  -33.8410 C   0  0  0  0  0  0  0  0  0  0  0  0
   -6.4420   16.5150  -33.0950 C   0  0  0  0  0  0  0  0  0  0  0  0
   -6.3270   17.6560  -32.0980 C   0  0  0  0  0  0  0  0  0  0  0  0
   -1.5298   19.9581  -28.2312 H   0  0  0  0  0  0  0  0  0  0  0  0
   -2.4390   19.7057  -29.7597 H   0  0  0  0  0  0  0  0  0  0  0  0
   -0.9388   20.6936  -29.7597 H   0  0  0  0  0  0  0  0  0  0  0  0
   -3.6693   25.5439  -27.6535 H   0  0  0  0  0  0  0  0  0  0  0  0
   -3.6401   24.4849  -26.1950 H   0  0  0  0  0  0  0  0  0  0  0  0
   -1.6688   26.0595  -26.3662 H   0  0  0  0  0  0  0  0  0  0  0  0
   -1.2236   24.3128  -26.2898 H   0  0  0  0  0  0  0  0  0  0  0  0
   -5.7072   24.6186  -28.5460 H   0  0  0  0  0  0  0  0  0  0  0  0
   -4.7827   25.0135  -30.0347 H   0  0  0  0  0  0  0  0  0  0  0  0
   -5.9415   23.6410  -30.0347 H   0  0  0  0  0  0  0  0  0  0  0  0
   -3.7079   20.7306  -31.2544 H   0  0  0  0  0  0  0  0  0  0  0  0
   -5.2975   20.8414  -30.4174 H   0  0  0  0  0  0  0  0  0  0  0  0
   -7.4788   23.7539  -31.0891 H   0  0  0  0  0  0  0  0  0  0  0  0
   -9.8187   22.8931  -31.1365 H   0  0  0  0  0  0  0  0  0  0  0  0
  -10.3123   20.6707  -32.1559 H   0  0  0  0  0  0  0  0  0  0  0  0
   -8.4746   19.3216  -33.1639 H   0  0  0  0  0  0  0  0  0  0  0  0
   -3.7488   18.1429  -33.9943 H   0  0  0  0  0  0  0  0  0  0  0  0
   -3.5291   17.1404  -32.5326 H   0  0  0  0  0  0  0  0  0  0  0  0
   -5.2815   16.6924  -34.9100 H   0  0  0  0  0  0  0  0  0  0  0  0
   -4.6363   15.5029  -33.7724 H   0  0  0  0  0  0  0  0  0  0  0  0
   -7.2731   16.6973  -33.7922 H   0  0  0  0  0  0  0  0  0  0  0  0
   -6.6451   15.5571  -32.5938 H   0  0  0  0  0  0  0  0  0  0  0  0
   -7.2408   18.2677  -32.1257 H   0  0  0  0  0  0  0  0  0  0  0  0
   -6.1994   17.2586  -31.0803 H   0  0  0  0  0  0  0  0  0  0  0  0
  1  2  1  0
  2  3  2  0
  3  4  1  0
  4  5  1  0
  5  6  1  0
  6  7  1  0
  7  8  2  0
  7  9  1  0
  4 10  1  0
 10 11  1  0
 10 12  2  0
 12 13  1  0
 13 14  1  0
 14 15  1  0
 15 16  2  0
 16 17  1  0
 17 18  2  0
 18 19  1  0
 19 20  2  0
 20 21  1  0
 21 22  2  0
 21 23  2  0
 21 24  1  0
 24 25  1  0
 25 26  1  0
 26 27  1  0
 27 28  1  0
 12  2  1  0
 20 15  1  0
 28 24  1  0
  1 29  1  0
  1 30  1  0
  1 31  1  0
  5 32  1  0
  5 33  1  0
  6 34  1  0
  6 35  1  0
 11 36  1  0
 11 37  1  0
 11 38  1  0
 13 39  1  0
 13 40  1  0
 16 41  1  0
 17 42  1  0
 18 43  1  0
 19 44  1  0
 25 45  1  0
 25 46  1  0
 26 47  1  0
 26 48  1  0
 27 49  1  0
 27 50  1  0
 28 51  1  0
 28 52  1  0
M  CHG  1   9  -1
M  END
>  <UniqueID>  (26) 
26

>  <SMILES>  (26) 
Cc1nn(CCC(=O)[O-])c(C)c1CSc1ccccc1S(=O)(=O)N1CCCC1

>  <Energy>  (26) 
72.44083609405395

>  <Genealogy>  (26) 
Cc1nn(CCC(=O)[O-])c(C)c1CSc1ccccc1S(=O)(=O)N1CCCC1 (protonated)
Cc1nn(CCC(=O)[O-])c(C)c1CSc1ccccc1S(=O)(=O)N1CCCC1 (3D coordinates assigned)
Cc1nn(CCC(=O)[O-])c(C)c1CSc1ccccc1S(=O)(=O)N1CCCC1 (nonaromatic ring conformer: 72.44083609405395 kcal/mol)

>  <smiles>  (26) 
Cc1nn(CCC(=O)O)c(C)c1CSc1ccccc1S(=O)(=O)N1CCCC1

>  <score_type>  (26) 
oracle

>  <origin>  (26) 
adgpu

>  <m_score__min__energy>  (26) 
-12.01

>  <m_primary>  (26) 
energy

$$$$
26:0
     RDKit          3D

 51 55  0  0  0  0  0  0  0  0999 V2000
   -2.7280   21.4420  -27.2770 O   0  0  0  0  0  0  0  0  0  0  0  0
   -2.3240   22.3430  -28.0600 C   0  0  0  0  0  0  0  0  0  0  0  0
   -1.9380   23.6540  -27.5060 C   0  0  0  0  0  0  0  0  0  0  0  0
   -2.8710   24.4130  -26.7760 C   0  0  0  0  0  0  0  0  0  0  0  0
   -2.5380   25.6930  -26.3220 C   0  0  0  0  0  0  0  0  0  0  0  0
   -1.2730   26.2190  -26.5890 C   0  0  0  0  0  0  0  0  0  0  0  0
   -0.3170   25.4440  -27.2600 C   0  0  0  0  0  0  0  0  0  0  0  0
   -0.6470   24.1660  -27.7160 C   0  0  0  0  0  0  0  0  0  0  0  0
    0.9580   25.9750  -27.4790 O   0  0  0  0  0  0  0  0  0  0  0  0
    1.3860   27.1680  -26.8180 C   0  0  0  0  0  0  0  0  0  0  0  0
    0.2250   28.1670  -26.7200 C   0  0  0  0  0  0  0  0  0  0  0  0
   -0.9400   27.5200  -26.2010 O   0  0  0  0  0  0  0  0  0  0  0  0
   -2.2610   22.0590  -29.5120 C   0  0  0  0  0  0  0  0  0  0  0  0
   -1.3070   21.2900  -30.1460 C   0  0  0  0  0  0  0  0  0  0  0  0
   -0.2110   20.6760  -29.5520 O   0  0  0  0  0  0  0  0  0  0  0  0
   -1.6320   21.2420  -31.4810 C   0  0  0  0  0  0  0  0  0  0  0  0
   -0.8900   20.5610  -32.4450 O   0  0  0  0  0  0  0  0  0  0  0  0
   -2.7670   21.9420  -31.7130 N   0  0  0  0  0  0  0  0  0  0  0  0
   -3.4870   22.0660  -32.9880 C   0  0  0  0  0  0  0  0  0  0  0  0
   -4.4180   20.9000  -33.2040 C   0  0  0  0  0  0  0  0  0  0  0  0
   -5.8040   21.0660  -33.0610 C   0  0  0  0  0  0  0  0  0  0  0  0
   -6.6530   19.9750  -33.2580 C   0  0  0  0  0  0  0  0  0  0  0  0
   -6.1380   18.7570  -33.5700 N   0  0  0  0  0  0  0  0  0  0  0  0
   -4.7980   18.5620  -33.6970 C   0  0  0  0  0  0  0  0  0  0  0  0
   -3.9140   19.6270  -33.5100 C   0  0  0  0  0  0  0  0  0  0  0  0
   -3.1560   22.4480  -30.5130 C   0  0  0  0  0  0  0  0  0  0  0  0
   -4.4020   23.2140  -30.3020 C   0  0  0  0  0  0  0  0  0  0  0  0
   -5.6380   22.5490  -30.3120 C   0  0  0  0  0  0  0  0  0  0  0  0
   -6.8280   23.2700  -30.1810 C   0  0  0  0  0  0  0  0  0  0  0  0
   -8.0480   22.6060  -30.2080 O   0  0  0  0  0  0  0  0  0  0  0  0
   -6.7910   24.6600  -30.0330 C   0  0  0  0  0  0  0  0  0  0  0  0
   -5.5640   25.3290  -30.0170 C   0  0  0  0  0  0  0  0  0  0  0  0
   -4.3690   24.6130  -30.1510 C   0  0  0  0  0  0  0  0  0  0  0  0
   -3.1580   25.2950  -30.1350 O   0  0  0  0  0  0  0  0  0  0  0  0
   -3.8667   23.9977  -26.5615 H   0  0  0  0  0  0  0  0  0  0  0  0
   -3.2720   26.2846  -25.7552 H   0  0  0  0  0  0  0  0  0  0  0  0
    0.1056   23.5591  -28.2407 H   0  0  0  0  0  0  0  0  0  0  0  0
    1.7353   26.9168  -25.8056 H   0  0  0  0  0  0  0  0  0  0  0  0
    2.2034   27.6242  -27.3957 H   0  0  0  0  0  0  0  0  0  0  0  0
    0.5109   28.9921  -26.0511 H   0  0  0  0  0  0  0  0  0  0  0  0
    0.0017   28.5578  -27.7237 H   0  0  0  0  0  0  0  0  0  0  0  0
   -0.0600   20.0290  -32.2170 H   0  0  0  0  0  0  0  0  0  0  0  0
   -4.0734   22.9966  -32.9799 H   0  0  0  0  0  0  0  0  0  0  0  0
   -2.7499   22.0791  -33.8044 H   0  0  0  0  0  0  0  0  0  0  0  0
   -6.2191   22.0494  -32.7954 H   0  0  0  0  0  0  0  0  0  0  0  0
   -7.7413   20.1019  -33.1604 H   0  0  0  0  0  0  0  0  0  0  0  0
   -4.4098   17.5637  -33.9474 H   0  0  0  0  0  0  0  0  0  0  0  0
   -2.8294   19.4686  -33.6021 H   0  0  0  0  0  0  0  0  0  0  0  0
   -5.6702   21.4551  -30.4235 H   0  0  0  0  0  0  0  0  0  0  0  0
   -7.7278   25.2270  -29.9291 H   0  0  0  0  0  0  0  0  0  0  0  0
   -5.5374   26.4223  -29.8987 H   0  0  0  0  0  0  0  0  0  0  0  0
  1  2  2  0
  2  3  1  0
  3  4  2  0
  4  5  1  0
  5  6  2  0
  6  7  1  0
  7  8  2  0
  7  9  1  0
  9 10  1  0
 10 11  1  0
 11 12  1  0
  2 13  1  0
 13 14  1  0
 14 15  1  0
 14 16  2  0
 16 17  1  0
 16 18  1  0
 18 19  1  0
 19 20  1  0
 20 21  2  0
 21 22  1  0
 22 23  2  0
 23 24  1  0
 24 25  2  0
 18 26  1  0
 26 27  1  0
 27 28  2  0
 28 29  1  0
 29 30  1  0
 29 31  2  0
 31 32  1  0
 32 33  2  0
 33 34  1  0
  8  3  1  0
 26 13  2  0
 33 27  1  0
 12  6  1  0
 25 20  1  0
  4 35  1  0
  5 36  1  0
  8 37  1  0
 10 38  1  0
 10 39  1  0
 11 40  1  0
 11 41  1  0
 17 42  1  0
 19 43  1  0
 19 44  1  0
 21 45  1  0
 22 46  1  0
 24 47  1  0
 25 48  1  0
 28 49  1  0
 31 50  1  0
 32 51  1  0
M  CHG  3  15  -1  30  -1  34  -1
M  END
>  <UniqueID>  (27) 
27

>  <SMILES>  (27) 
O=C(c1ccc2c(c1)OCCO2)c1c([O-])c(O)n(Cc2ccncc2)c1-c1cc([O-])ccc1[O-]

>  <Energy>  (27) 
96.64715244916096

>  <Genealogy>  (27) 
O=C(c1ccc2c(c1)OCCO2)c1c([O-])c(O)n(Cc2ccncc2)c1-c1cc([O-])ccc1[O-] (protonated)
O=C(c1ccc2c(c1)OCCO2)c1c([O-])c(O)n(Cc2ccncc2)c1-c1cc([O-])ccc1[O-] (3D coordinates assigned)
O=C(c1ccc2c(c1)OCCO2)c1c([O-])c(O)n(Cc2ccncc2)c1-c1cc([O-])ccc1[O-] (nonaromatic ring conformer: 96.64715244916096 kcal/mol)

>  <smiles>  (27) 
O=C(c1ccc2c(c1)OCCO2)c1c(O)c(O)n(Cc2ccncc2)c1-c1cc(O)ccc1O

>  <score_type>  (27) 
oracle

>  <origin>  (27) 
adgpu

>  <m_score__min__energy>  (27) 
-11.06

>  <m_primary>  (27) 
energy

$$$$
27:0
     RDKit          3D

 62 65  0  0  0  0  0  0  0  0999 V2000
   -6.0360   24.3550  -31.4460 C   0  0  0  0  0  0  0  0  0  0  0  0
   -6.3380   22.8850  -31.5760 C   0  0  0  0  0  0  0  0  0  0  0  0
   -7.5620   22.4900  -32.1400 C   0  0  0  0  0  0  0  0  0  0  0  0
   -7.8570   21.1360  -32.3180 C   0  0  0  0  0  0  0  0  0  0  0  0
   -6.9380   20.1580  -31.9280 C   0  0  0  0  0  0  0  0  0  0  0  0
   -7.3120   18.4540  -32.1900 S   0  0  0  0  0  0  0  0  0  0  0  0
   -6.6100   17.6130  -31.1600 O   0  0  0  0  0  0  0  0  0  0  0  0
   -8.7940   18.2650  -32.0230 O   0  0  0  0  0  0  0  0  0  0  0  0
   -6.8430   17.9610  -33.8030 N   0  0  0  0  0  0  0  0  0  0  0  0
   -5.8870   18.9030  -34.4170 C   0  0  0  0  0  0  0  0  0  0  0  0
   -4.4670   18.7820  -33.8320 C   0  0  0  0  0  0  0  0  0  0  0  0
   -4.0460   17.3270  -33.5610 C   0  0  0  0  0  0  0  0  0  0  0  0
   -4.9580   16.3260  -34.2690 C   0  0  0  0  0  0  0  0  0  0  0  0
   -6.4210   16.5370  -33.8440 C   0  0  0  0  0  0  0  0  0  0  0  0
   -5.7200   20.5410  -31.3540 C   0  0  0  0  0  0  0  0  0  0  0  0
   -5.4230   21.8950  -31.1460 C   0  0  0  0  0  0  0  0  0  0  0  0
   -4.1680   22.2420  -30.5410 N   0  0  0  0  0  0  0  0  0  0  0  0
   -4.0540   22.5830  -29.1490 C   0  0  0  0  0  0  0  0  0  0  0  0
   -4.9970   22.2990  -28.3610 O   0  0  0  0  0  0  0  0  0  0  0  0
   -2.8390   23.2530  -28.6280 C   0  0  0  0  0  0  0  0  0  0  0  0
   -2.9260   24.5440  -28.0750 C   0  0  0  0  0  0  0  0  0  0  0  0
   -1.7820   25.1920  -27.6040 C   0  0  0  0  0  0  0  0  0  0  0  0
   -0.5300   24.5670  -27.6900 C   0  0  0  0  0  0  0  0  0  0  0  0
    0.9210   25.4070  -27.1360 S   0  0  0  0  0  0  0  0  0  0  0  0
    0.7720   26.8810  -27.4010 O   0  0  0  0  0  0  0  0  0  0  0  0
    2.1070   24.9130  -27.9190 O   0  0  0  0  0  0  0  0  0  0  0  0
    1.2170   25.1450  -25.4290 N   0  0  0  0  0  0  0  0  0  0  0  0
    0.4430   24.0040  -24.9280 C   0  0  0  0  0  0  0  0  0  0  0  0
   -0.8170   24.5410  -24.2720 C   0  0  0  0  0  0  0  0  0  0  0  0
   -0.5080   25.9840  -23.9260 C   0  0  0  0  0  0  0  0  0  0  0  0
    0.8060   26.3090  -24.6300 C   0  0  0  0  0  0  0  0  0  0  0  0
   -0.4360   23.2830  -28.2380 C   0  0  0  0  0  0  0  0  0  0  0  0
   -1.5790   22.6310  -28.7090 C   0  0  0  0  0  0  0  0  0  0  0  0
   -5.9805   24.6251  -30.3811 H   0  0  0  0  0  0  0  0  0  0  0  0
   -5.0737   24.5759  -31.9310 H   0  0  0  0  0  0  0  0  0  0  0  0
   -6.8333   24.9374  -31.9310 H   0  0  0  0  0  0  0  0  0  0  0  0
   -8.2942   23.2526  -32.4440 H   0  0  0  0  0  0  0  0  0  0  0  0
   -8.8162   20.8386  -32.7668 H   0  0  0  0  0  0  0  0  0  0  0  0
   -5.8400   18.7011  -35.4973 H   0  0  0  0  0  0  0  0  0  0  0  0
   -6.2453   19.9214  -34.2062 H   0  0  0  0  0  0  0  0  0  0  0  0
   -3.7560   19.2248  -34.5451 H   0  0  0  0  0  0  0  0  0  0  0  0
   -4.4649   19.3086  -32.8662 H   0  0  0  0  0  0  0  0  0  0  0  0
   -3.0156   17.1830  -33.9182 H   0  0  0  0  0  0  0  0  0  0  0  0
   -4.1204   17.1478  -32.4783 H   0  0  0  0  0  0  0  0  0  0  0  0
   -4.8732   16.4654  -35.3568 H   0  0  0  0  0  0  0  0  0  0  0  0
   -4.6504   15.3067  -33.9925 H   0  0  0  0  0  0  0  0  0  0  0  0
   -7.0678   16.0057  -34.5577 H   0  0  0  0  0  0  0  0  0  0  0  0
   -6.5115   16.1504  -32.8182 H   0  0  0  0  0  0  0  0  0  0  0  0
   -4.9890   19.7721  -31.0634 H   0  0  0  0  0  0  0  0  0  0  0  0
   -3.2950   22.0310  -31.0730 H   0  0  0  0  0  0  0  0  0  0  0  0
   -3.9025   25.0466  -28.0132 H   0  0  0  0  0  0  0  0  0  0  0  0
   -1.8636   26.1968  -27.1638 H   0  0  0  0  0  0  0  0  0  0  0  0
    0.1748   23.3398  -25.7628 H   0  0  0  0  0  0  0  0  0  0  0  0
    1.0366   23.4302  -24.2010 H   0  0  0  0  0  0  0  0  0  0  0  0
   -1.6667   24.4858  -24.9683 H   0  0  0  0  0  0  0  0  0  0  0  0
   -1.0948   23.9577  -23.3817 H   0  0  0  0  0  0  0  0  0  0  0  0
   -1.3097   26.6446  -24.2877 H   0  0  0  0  0  0  0  0  0  0  0  0
   -0.4317   26.1318  -22.8387 H   0  0  0  0  0  0  0  0  0  0  0  0
    0.6670   27.1789  -25.2887 H   0  0  0  0  0  0  0  0  0  0  0  0
    1.5808   26.5429  -23.8850 H   0  0  0  0  0  0  0  0  0  0  0  0
    0.5425   22.7842  -28.2984 H   0  0  0  0  0  0  0  0  0  0  0  0
   -1.4933   21.6251  -29.1459 H   0  0  0  0  0  0  0  0  0  0  0  0
  1  2  1  0
  2  3  2  0
  3  4  1  0
  4  5  2  0
  5  6  1  0
  6  7  2  0
  6  8  2  0
  6  9  1  0
  9 10  1  0
 10 11  1  0
 11 12  1  0
 12 13  1  0
 13 14  1  0
  5 15  1  0
 15 16  2  0
 16 17  1  0
 17 18  1  0
 18 19  2  0
 18 20  1  0
 20 21  2  0
 21 22  1  0
 22 23  2  0
 23 24  1  0
 24 25  2  0
 24 26  2  0
 24 27  1  0
 27 28  1  0
 28 29  1  0
 29 30  1  0
 30 31  1  0
 23 32  1  0
 32 33  2  0
 16  2  1  0
 33 20  1  0
 14  9  1  0
 31 27  1  0
  1 34  1  0
  1 35  1  0
  1 36  1  0
  3 37  1  0
  4 38  1  0
 10 39  1  0
 10 40  1  0
 11 41  1  0
 11 42  1  0
 12 43  1  0
 12 44  1  0
 13 45  1  0
 13 46  1  0
 14 47  1  0
 14 48  1  0
 15 49  1  0
 17 50  1  0
 21 51  1  0
 22 52  1  0
 28 53  1  0
 28 54  1  0
 29 55  1  0
 29 56  1  0
 30 57  1  0
 30 58  1  0
 31 59  1  0
 31 60  1  0
 32 61  1  0
 33 62  1  0
M  END
>  <UniqueID>  (28) 
28

>  <SMILES>  (28) 
Cc1ccc(S(=O)(=O)N2CCCCC2)cc1NC(=O)c1ccc(S(=O)(=O)N2CCCC2)cc1

>  <Energy>  (28) 
78.41252749544695

>  <Genealogy>  (28) 
Cc1ccc(S(=O)(=O)N2CCCCC2)cc1NC(=O)c1ccc(S(=O)(=O)N2CCCC2)cc1 (3D coordinates assigned)
Cc1ccc(S(=O)(=O)N2CCCCC2)cc1NC(=O)c1ccc(S(=O)(=O)N2CCCC2)cc1 (nonaromatic ring conformer: 78.41252749544695 kcal/mol)

>  <smiles>  (28) 
Cc1ccc(S(=O)(=O)N2CCCCC2)cc1NC(=O)c1ccc(S(=O)(=O)N2CCCC2)cc1

>  <score_type>  (28) 
oracle

>  <origin>  (28) 
adgpu

>  <m_score__min__energy>  (28) 
-10.640000000000001

>  <m_primary>  (28) 
energy

$$$$
28:0
     RDKit          3D

 51 54  0  0  0  0  0  0  0  0999 V2000
   -5.4970   24.9220  -28.7620 O   0  0  0  0  0  0  0  0  0  0  0  0
   -5.2840   24.9080  -30.2500 S   0  0  0  0  0  0  0  0  0  0  0  0
   -5.7530   26.2020  -30.8510 O   0  0  0  0  0  0  0  0  0  0  0  0
   -3.6020   24.6620  -30.5910 N   0  0  0  0  0  0  0  0  0  0  0  0
   -2.6320   23.9990  -29.7670 C   0  0  0  0  0  0  0  0  0  0  0  0
   -2.6080   22.5990  -29.7970 C   0  0  0  0  0  0  0  0  0  0  0  0
   -1.6570   21.8760  -29.0700 C   0  0  0  0  0  0  0  0  0  0  0  0
   -0.6800   22.5650  -28.3290 C   0  0  0  0  0  0  0  0  0  0  0  0
   -0.7110   23.9650  -28.2760 C   0  0  0  0  0  0  0  0  0  0  0  0
   -1.6680   24.6860  -28.9990 C   0  0  0  0  0  0  0  0  0  0  0  0
   -1.6200   26.0760  -28.9680 O   0  0  0  0  0  0  0  0  0  0  0  0
    0.3680   21.8060  -27.5530 C   0  0  0  0  0  0  0  0  0  0  0  0
    0.5750   20.4650  -28.1120 N   0  0  0  0  0  0  0  0  0  0  0  0
   -0.6940   19.7330  -28.1540 C   0  0  0  0  0  0  0  0  0  0  0  0
   -1.6290   20.3720  -29.1860 C   0  0  0  0  0  0  0  0  0  0  0  0
   -6.1870   23.5760  -30.9640 C   0  0  0  0  0  0  0  0  0  0  0  0
   -7.5870   23.5600  -30.8730 C   0  0  0  0  0  0  0  0  0  0  0  0
   -8.3180   22.5240  -31.4590 C   0  0  0  0  0  0  0  0  0  0  0  0
   -7.6580   21.4920  -32.1360 C   0  0  0  0  0  0  0  0  0  0  0  0
   -6.2590   21.4990  -32.2360 C   0  0  0  0  0  0  0  0  0  0  0  0
   -5.4140   20.2290  -33.1180 S   0  0  0  0  0  0  0  0  0  0  0  0
   -6.1570   19.9740  -34.4000 O   0  0  0  0  0  0  0  0  0  0  0  0
   -4.0200   20.6770  -33.4570 O   0  0  0  0  0  0  0  0  0  0  0  0
   -5.3630   18.7520  -32.1760 N   0  0  0  0  0  0  0  0  0  0  0  0
   -4.5540   17.7070  -32.8320 C   0  0  0  0  0  0  0  0  0  0  0  0
   -5.2840   17.0650  -34.0370 C   0  0  0  0  0  0  0  0  0  0  0  0
   -6.6840   17.2780  -34.0340 O   0  0  0  0  0  0  0  0  0  0  0  0
   -7.1990   17.1250  -32.7310 C   0  0  0  0  0  0  0  0  0  0  0  0
   -6.7200   18.2750  -31.8280 C   0  0  0  0  0  0  0  0  0  0  0  0
   -5.5270   22.5400  -31.6460 C   0  0  0  0  0  0  0  0  0  0  0  0
   -3.3502   22.0587  -30.4030 H   0  0  0  0  0  0  0  0  0  0  0  0
    0.0245   24.5028  -27.6597 H   0  0  0  0  0  0  0  0  0  0  0  0
    1.3165   22.3617  -27.5929 H   0  0  0  0  0  0  0  0  0  0  0  0
    0.0235   21.7007  -26.5137 H   0  0  0  0  0  0  0  0  0  0  0  0
    1.2250   19.9480  -27.4760 H   0  0  0  0  0  0  0  0  0  0  0  0
   -0.5026   18.6865  -28.4335 H   0  0  0  0  0  0  0  0  0  0  0  0
   -1.1680   19.7715  -27.1621 H   0  0  0  0  0  0  0  0  0  0  0  0
   -1.2835   20.1001  -30.1943 H   0  0  0  0  0  0  0  0  0  0  0  0
   -2.6466   19.9983  -28.9993 H   0  0  0  0  0  0  0  0  0  0  0  0
   -8.1107   24.3661  -30.3383 H   0  0  0  0  0  0  0  0  0  0  0  0
   -9.4157   22.5192  -31.3882 H   0  0  0  0  0  0  0  0  0  0  0  0
   -8.2371   20.6745  -32.5902 H   0  0  0  0  0  0  0  0  0  0  0  0
   -3.6154   18.1576  -33.1868 H   0  0  0  0  0  0  0  0  0  0  0  0
   -4.3664   16.9145  -32.0925 H   0  0  0  0  0  0  0  0  0  0  0  0
   -4.8697   17.4926  -34.9619 H   0  0  0  0  0  0  0  0  0  0  0  0
   -5.1240   15.9789  -33.9682 H   0  0  0  0  0  0  0  0  0  0  0  0
   -8.2982   17.1302  -32.7725 H   0  0  0  0  0  0  0  0  0  0  0  0
   -6.8416   16.1714  -32.3151 H   0  0  0  0  0  0  0  0  0  0  0  0
   -7.4234   19.1150  -31.9262 H   0  0  0  0  0  0  0  0  0  0  0  0
   -6.6817   17.8922  -30.7975 H   0  0  0  0  0  0  0  0  0  0  0  0
   -4.4294   22.5453  -31.7177 H   0  0  0  0  0  0  0  0  0  0  0  0
  1  2  2  0
  2  3  2  0
  2  4  1  0
  4  5  1  0
  5  6  2  0
  6  7  1  0
  7  8  2  0
  8  9  1  0
  9 10  2  0
 10 11  1  0
  8 12  1  0
 12 13  1  0
 13 14  1  0
 14 15  1  0
  2 16  1  0
 16 17  2  0
 17 18  1  0
 18 19  2  0
 19 20  1  0
 20 21  1  0
 21 22  2  0
 21 23  2  0
 21 24  1  0
 24 25  1  0
 25 26  1  0
 26 27  1  0
 27 28  1  0
 28 29  1  0
 20 30  2  0
 10  5  1  0
 30 16  1  0
 15  7  1  0
 29 24  1  0
  6 31  1  0
  9 32  1  0
 12 33  1  0
 12 34  1  0
 13 35  1  0
 14 36  1  0
 14 37  1  0
 15 38  1  0
 15 39  1  0
 17 40  1  0
 18 41  1  0
 19 42  1  0
 25 43  1  0
 25 44  1  0
 26 45  1  0
 26 46  1  0
 28 47  1  0
 28 48  1  0
 29 49  1  0
 29 50  1  0
 30 51  1  0
M  CHG  2   4  -1  11  -1
M  END
>  <UniqueID>  (29) 
29

>  <SMILES>  (29) 
O=S(=O)([N-]c1cc2c(cc1[O-])CNCC2)c1cccc(S(=O)(=O)N2CCOCC2)c1

>  <Energy>  (29) 
73.66749067552914

>  <Genealogy>  (29) 
O=S(=O)([N-]c1cc2c(cc1[O-])CNCC2)c1cccc(S(=O)(=O)N2CCOCC2)c1 (protonated)
O=S(=O)([N-]c1cc2c(cc1[O-])CNCC2)c1cccc(S(=O)(=O)N2CCOCC2)c1 (3D coordinates assigned)
O=S(=O)([N-]c1cc2c(cc1[O-])CNCC2)c1cccc(S(=O)(=O)N2CCOCC2)c1 (nonaromatic ring conformer: 73.66749067552914 kcal/mol)

>  <smiles>  (29) 
O=S(=O)(Nc1cc2c(cc1O)CNCC2)c1cccc(S(=O)(=O)N2CCOCC2)c1

>  <score_type>  (29) 
oracle

>  <origin>  (29) 
adgpu

>  <m_score__min__energy>  (29) 
-14.85

>  <m_primary>  (29) 
energy

$$$$
29:0
     RDKit          3D

 39 41  0  0  0  0  0  0  0  0999 V2000
   -6.0830   19.6350  -33.8830 C   0  0  0  0  0  0  0  0  0  0  0  0
   -5.8390   20.8920  -33.0930 C   0  0  0  0  0  0  0  0  0  0  0  0
   -6.8940   21.4720  -32.3680 C   0  0  0  0  0  0  0  0  0  0  0  0
   -6.6890   22.6360  -31.6270 C   0  0  0  0  0  0  0  0  0  0  0  0
   -5.4280   23.2400  -31.5980 C   0  0  0  0  0  0  0  0  0  0  0  0
   -5.1810   24.7000  -30.6450 S   0  0  0  0  0  0  0  0  0  0  0  0
   -5.9190   24.5610  -29.3440 O   0  0  0  0  0  0  0  0  0  0  0  0
   -5.6980   25.9100  -31.3740 O   0  0  0  0  0  0  0  0  0  0  0  0
   -3.4910   24.9130  -30.3210 N   0  0  0  0  0  0  0  0  0  0  0  0
   -2.7670   24.2900  -29.2490 C   0  0  0  0  0  0  0  0  0  0  0  0
   -3.0160   22.9620  -28.8570 C   0  0  0  0  0  0  0  0  0  0  0  0
   -2.2920   22.3810  -27.8060 C   0  0  0  0  0  0  0  0  0  0  0  0
   -1.3280   23.1430  -27.1170 C   0  0  0  0  0  0  0  0  0  0  0  0
   -1.0670   24.4600  -27.5230 C   0  0  0  0  0  0  0  0  0  0  0  0
   -1.7850   25.0290  -28.5780 C   0  0  0  0  0  0  0  0  0  0  0  0
   -1.5170   26.3400  -28.9570 O   0  0  0  0  0  0  0  0  0  0  0  0
   -0.5010   22.5250  -26.0150 C   0  0  0  0  0  0  0  0  0  0  0  0
   -1.1630   21.3500  -25.4340 N   0  0  0  0  0  0  0  0  0  0  0  0
   -1.5180   20.3890  -26.4840 C   0  0  0  0  0  0  0  0  0  0  0  0
   -2.6180   20.9740  -27.3710 C   0  0  0  0  0  0  0  0  0  0  0  0
   -4.3720   22.6710  -32.3190 C   0  0  0  0  0  0  0  0  0  0  0  0
   -4.5640   21.5010  -33.0620 C   0  0  0  0  0  0  0  0  0  0  0  0
   -3.4740   20.9710  -33.7550 O   0  0  0  0  0  0  0  0  0  0  0  0
   -6.2462   18.7941  -33.1929 H   0  0  0  0  0  0  0  0  0  0  0  0
   -6.9723   19.7671  -34.5168 H   0  0  0  0  0  0  0  0  0  0  0  0
   -5.2089   19.4248  -34.5168 H   0  0  0  0  0  0  0  0  0  0  0  0
   -7.8895   21.0043  -32.3850 H   0  0  0  0  0  0  0  0  0  0  0  0
   -7.5225   23.0805  -31.0633 H   0  0  0  0  0  0  0  0  0  0  0  0
   -3.7852   22.3744  -29.3794 H   0  0  0  0  0  0  0  0  0  0  0  0
   -0.2930   25.0480  -27.0081 H   0  0  0  0  0  0  0  0  0  0  0  0
    0.4715   22.2187  -26.4279 H   0  0  0  0  0  0  0  0  0  0  0  0
   -0.3729   23.2747  -25.2203 H   0  0  0  0  0  0  0  0  0  0  0  0
   -0.4810   20.8850  -24.7910 H   0  0  0  0  0  0  0  0  0  0  0  0
   -0.6305   20.1735  -27.0971 H   0  0  0  0  0  0  0  0  0  0  0  0
   -1.8815   19.4607  -26.0191 H   0  0  0  0  0  0  0  0  0  0  0  0
   -2.7305   20.3415  -28.2639 H   0  0  0  0  0  0  0  0  0  0  0  0
   -3.5508   21.0017  -26.7886 H   0  0  0  0  0  0  0  0  0  0  0  0
   -3.3811   23.1484  -32.3014 H   0  0  0  0  0  0  0  0  0  0  0  0
   -2.8470   21.5360  -34.3140 H   0  0  0  0  0  0  0  0  0  0  0  0
  1  2  1  0
  2  3  2  0
  3  4  1  0
  4  5  2  0
  5  6  1  0
  6  7  2  0
  6  8  2  0
  6  9  1  0
  9 10  1  0
 10 11  2  0
 11 12  1  0
 12 13  2  0
 13 14  1  0
 14 15  2  0
 15 16  1  0
 13 17  1  0
 17 18  1  0
 18 19  1  0
 19 20  1  0
  5 21  1  0
 21 22  2  0
 22 23  1  0
 22  2  1  0
 15 10  1  0
 20 12  1  0
  1 24  1  0
  1 25  1  0
  1 26  1  0
  3 27  1  0
  4 28  1  0
 11 29  1  0
 14 30  1  0
 17 31  1  0
 17 32  1  0
 18 33  1  0
 19 34  1  0
 19 35  1  0
 20 36  1  0
 20 37  1  0
 21 38  1  0
 23 39  1  0
M  CHG  2   9  -1  16  -1
M  END
>  <UniqueID>  (30) 
30

>  <SMILES>  (30) 
Cc1ccc(S(=O)(=O)[N-]c2cc3c(cc2[O-])CNCC3)cc1O

>  <Energy>  (30) 
45.193868847111666

>  <Genealogy>  (30) 
Cc1ccc(S(=O)(=O)[N-]c2cc3c(cc2[O-])CNCC3)cc1O (protonated)
Cc1ccc(S(=O)(=O)[N-]c2cc3c(cc2[O-])CNCC3)cc1O (3D coordinates assigned)
Cc1ccc(S(=O)(=O)[N-]c2cc3c(cc2[O-])CNCC3)cc1O (nonaromatic ring conformer: 45.193868847111666 kcal/mol)

>  <smiles>  (30) 
Cc1ccc(S(=O)(=O)Nc2cc3c(cc2O)CNCC3)cc1O

>  <score_type>  (30) 
oracle

>  <origin>  (30) 
adgpu

>  <m_score__min__energy>  (30) 
-12.85

>  <m_primary>  (30) 
energy

$$$$
30:0
     RDKit          3D

 48 50  0  0  0  0  0  0  0  0999 V2000
   -0.1020   18.3570  -28.3710 C   0  0  0  0  0  0  0  0  0  0  0  0
   -0.5210   19.1100  -27.1990 N   0  0  0  0  0  0  0  0  0  0  0  0
   -1.6750   19.9580  -27.1920 C   0  0  0  0  0  0  0  0  0  0  0  0
   -2.7650   19.5240  -26.7280 O   0  0  0  0  0  0  0  0  0  0  0  0
   -1.5900   21.3380  -27.7290 C   0  0  0  0  0  0  0  0  0  0  0  0
   -0.3450   21.8950  -28.0720 C   0  0  0  0  0  0  0  0  0  0  0  0
   -0.2670   23.1920  -28.5780 C   0  0  0  0  0  0  0  0  0  0  0  0
   -1.4280   23.9560  -28.7530 C   0  0  0  0  0  0  0  0  0  0  0  0
   -1.3430   25.2510  -29.2650 O   0  0  0  0  0  0  0  0  0  0  0  0
   -2.6780   23.4200  -28.4160 C   0  0  0  0  0  0  0  0  0  0  0  0
   -3.8470   24.2290  -28.6070 N   0  0  0  0  0  0  0  0  0  0  0  0
   -4.6290   24.5210  -30.1270 S   0  0  0  0  0  0  0  0  0  0  0  0
   -6.0640   24.9060  -29.9030 O   0  0  0  0  0  0  0  0  0  0  0  0
   -3.9100   25.6270  -30.8470 O   0  0  0  0  0  0  0  0  0  0  0  0
   -4.5750   23.0500  -31.0920 C   0  0  0  0  0  0  0  0  0  0  0  0
   -3.3400   22.5280  -31.4990 C   0  0  0  0  0  0  0  0  0  0  0  0
   -3.2900   21.3550  -32.2570 C   0  0  0  0  0  0  0  0  0  0  0  0
   -4.4710   20.6950  -32.6080 C   0  0  0  0  0  0  0  0  0  0  0  0
   -5.7100   21.2060  -32.2010 C   0  0  0  0  0  0  0  0  0  0  0  0
   -7.2080   20.3870  -32.6290 S   0  0  0  0  0  0  0  0  0  0  0  0
   -7.2080   20.0440  -34.0940 O   0  0  0  0  0  0  0  0  0  0  0  0
   -8.3550   21.3140  -32.3420 O   0  0  0  0  0  0  0  0  0  0  0  0
   -7.3680   18.9290  -31.6730 N   0  0  0  0  0  0  0  0  0  0  0  0
   -6.0480   18.3770  -31.3520 C   0  0  0  0  0  0  0  0  0  0  0  0
   -5.7060   17.3210  -32.3960 C   0  0  0  0  0  0  0  0  0  0  0  0
   -7.0030   17.0310  -33.1260 C   0  0  0  0  0  0  0  0  0  0  0  0
   -8.0570   17.8840  -32.4380 C   0  0  0  0  0  0  0  0  0  0  0  0
   -5.7590   22.3840  -31.4420 C   0  0  0  0  0  0  0  0  0  0  0  0
   -2.7540   22.1110  -27.9030 C   0  0  0  0  0  0  0  0  0  0  0  0
    0.4099   17.4371  -28.0521 H   0  0  0  0  0  0  0  0  0  0  0  0
   -0.9843   18.0956  -28.9736 H   0  0  0  0  0  0  0  0  0  0  0  0
    0.5853   18.9690  -28.9736 H   0  0  0  0  0  0  0  0  0  0  0  0
    0.5731   21.3037  -27.9403 H   0  0  0  0  0  0  0  0  0  0  0  0
    0.7124   23.6179  -28.8414 H   0  0  0  0  0  0  0  0  0  0  0  0
   -2.1140   25.6760  -29.7650 H   0  0  0  0  0  0  0  0  0  0  0  0
   -2.4082   23.0424  -31.2214 H   0  0  0  0  0  0  0  0  0  0  0  0
   -2.3189   20.9502  -32.5781 H   0  0  0  0  0  0  0  0  0  0  0  0
   -4.4273   19.7722  -33.2052 H   0  0  0  0  0  0  0  0  0  0  0  0
   -5.2945   19.1782  -31.3722 H   0  0  0  0  0  0  0  0  0  0  0  0
   -6.0580   17.9286  -30.3476 H   0  0  0  0  0  0  0  0  0  0  0  0
   -4.9493   17.7047  -33.0961 H   0  0  0  0  0  0  0  0  0  0  0  0
   -5.2882   16.4141  -31.9346 H   0  0  0  0  0  0  0  0  0  0  0  0
   -6.9170   17.3081  -34.1870 H   0  0  0  0  0  0  0  0  0  0  0  0
   -7.2589   15.9617  -33.0933 H   0  0  0  0  0  0  0  0  0  0  0  0
   -8.7138   18.3444  -33.1907 H   0  0  0  0  0  0  0  0  0  0  0  0
   -8.6722   17.2643  -31.7690 H   0  0  0  0  0  0  0  0  0  0  0  0
   -6.7301   22.7877  -31.1196 H   0  0  0  0  0  0  0  0  0  0  0  0
   -3.7333   21.6876  -27.6352 H   0  0  0  0  0  0  0  0  0  0  0  0
  1  2  1  0
  2  3  1  0
  3  4  2  0
  3  5  1  0
  5  6  2  0
  6  7  1  0
  7  8  2  0
  8  9  1  0
  8 10  1  0
 10 11  1  0
 11 12  1  0
 12 13  2  0
 12 14  2  0
 12 15  1  0
 15 16  2  0
 16 17  1  0
 17 18  2  0
 18 19  1  0
 19 20  1  0
 20 21  2  0
 20 22  2  0
 20 23  1  0
 23 24  1  0
 24 25  1  0
 25 26  1  0
 26 27  1  0
 19 28  2  0
 10 29  2  0
 29  5  1  0
 28 15  1  0
 27 23  1  0
  1 30  1  0
  1 31  1  0
  1 32  1  0
  6 33  1  0
  7 34  1  0
  9 35  1  0
 16 36  1  0
 17 37  1  0
 18 38  1  0
 24 39  1  0
 24 40  1  0
 25 41  1  0
 25 42  1  0
 26 43  1  0
 26 44  1  0
 27 45  1  0
 27 46  1  0
 28 47  1  0
 29 48  1  0
M  CHG  2   2  -1  11  -1
M  END
>  <UniqueID>  (31) 
31

>  <SMILES>  (31) 
C[N-]C(=O)c1ccc(O)c([N-]S(=O)(=O)c2cccc(S(=O)(=O)N3CCCC3)c2)c1

>  <Energy>  (31) 
52.233729471911175

>  <Genealogy>  (31) 
C[N-]C(=O)c1ccc(O)c([N-]S(=O)(=O)c2cccc(S(=O)(=O)N3CCCC3)c2)c1 (protonated)
C[N-]C(=O)c1ccc(O)c([N-]S(=O)(=O)c2cccc(S(=O)(=O)N3CCCC3)c2)c1 (3D coordinates assigned)
C[N-]C(=O)c1ccc(O)c([N-]S(=O)(=O)c2cccc(S(=O)(=O)N3CCCC3)c2)c1 (nonaromatic ring conformer: 52.233729471911175 kcal/mol)

>  <smiles>  (31) 
CNC(=O)c1ccc(O)c(NS(=O)(=O)c2cccc(S(=O)(=O)N3CCCC3)c2)c1

>  <score_type>  (31) 
oracle

>  <origin>  (31) 
adgpu

>  <m_score__min__energy>  (31) 
-10.789999999999999

>  <m_primary>  (31) 
energy

$$$$
31:0
     RDKit          3D

 45 46  0  0  0  0  0  0  0  0999 V2000
    0.3180   24.7720  -26.9950 C   0  0  0  0  0  0  0  0  0  0  0  0
    0.3300   24.2190  -28.3080 O   0  0  0  0  0  0  0  0  0  0  0  0
   -0.8120   23.7730  -28.9920 C   0  0  0  0  0  0  0  0  0  0  0  0
   -1.0000   22.4200  -29.3360 C   0  0  0  0  0  0  0  0  0  0  0  0
   -2.1540   22.0140  -30.0200 C   0  0  0  0  0  0  0  0  0  0  0  0
   -2.3680   20.5640  -30.3650 C   0  0  0  0  0  0  0  0  0  0  0  0
   -2.7160   20.4250  -31.7750 N   0  0  0  0  0  0  0  0  0  0  0  0
   -3.9670   20.8460  -32.3260 C   0  0  0  0  0  0  0  0  0  0  0  0
   -4.0170   21.8000  -33.1480 O   0  0  0  0  0  0  0  0  0  0  0  0
   -5.2320   20.1650  -31.8980 C   0  0  0  0  0  0  0  0  0  0  0  0
   -6.2880   20.1380  -33.0280 C   0  0  0  0  0  0  0  0  0  0  0  0
   -7.6180   20.8100  -32.5750 C   0  0  0  0  0  0  0  0  0  0  0  0
   -8.7750   19.8210  -32.3350 C   0  0  0  0  0  0  0  0  0  0  0  0
   -8.2790   18.5310  -31.6780 C   0  0  0  0  0  0  0  0  0  0  0  0
   -7.2350   17.7980  -32.5450 C   0  0  0  0  0  0  0  0  0  0  0  0
   -6.5360   18.7110  -33.5700 C   0  0  0  0  0  0  0  0  0  0  0  0
   -3.1300   22.9640  -30.3550 C   0  0  0  0  0  0  0  0  0  0  0  0
   -2.9550   24.3190  -30.0170 C   0  0  0  0  0  0  0  0  0  0  0  0
   -3.9080   25.2990  -30.3350 O   0  0  0  0  0  0  0  0  0  0  0  0
   -5.3170   25.1010  -30.2760 C   0  0  0  0  0  0  0  0  0  0  0  0
   -1.7920   24.7120  -29.3400 C   0  0  0  0  0  0  0  0  0  0  0  0
   -1.6130   26.0490  -29.0040 O   0  0  0  0  0  0  0  0  0  0  0  0
    0.3356   23.9588  -26.2545 H   0  0  0  0  0  0  0  0  0  0  0  0
    1.2025   25.4116  -26.8584 H   0  0  0  0  0  0  0  0  0  0  0  0
   -0.5934   25.3726  -26.8584 H   0  0  0  0  0  0  0  0  0  0  0  0
   -0.2355   21.6767  -29.0658 H   0  0  0  0  0  0  0  0  0  0  0  0
   -1.4441   20.0026  -30.1622 H   0  0  0  0  0  0  0  0  0  0  0  0
   -3.1916   20.1683  -29.7525 H   0  0  0  0  0  0  0  0  0  0  0  0
   -4.9972   19.1305  -31.6069 H   0  0  0  0  0  0  0  0  0  0  0  0
   -5.6529   20.7308  -31.0538 H   0  0  0  0  0  0  0  0  0  0  0  0
   -5.8761   20.7264  -33.8612 H   0  0  0  0  0  0  0  0  0  0  0  0
   -7.4283   21.3532  -31.6375 H   0  0  0  0  0  0  0  0  0  0  0  0
   -7.9330   21.4724  -33.3948 H   0  0  0  0  0  0  0  0  0  0  0  0
   -9.5197   20.2939  -31.6780 H   0  0  0  0  0  0  0  0  0  0  0  0
   -9.2197   19.5653  -33.3081 H   0  0  0  0  0  0  0  0  0  0  0  0
   -7.8221   18.7803  -30.7089 H   0  0  0  0  0  0  0  0  0  0  0  0
   -9.1434   17.8621  -31.5537 H   0  0  0  0  0  0  0  0  0  0  0  0
   -6.4695   17.3705  -31.8808 H   0  0  0  0  0  0  0  0  0  0  0  0
   -7.7727   17.0255  -33.1142 H   0  0  0  0  0  0  0  0  0  0  0  0
   -5.5676   18.2630  -33.8372 H   0  0  0  0  0  0  0  0  0  0  0  0
   -7.1992   18.7983  -34.4433 H   0  0  0  0  0  0  0  0  0  0  0  0
   -4.0397   22.6474  -30.8863 H   0  0  0  0  0  0  0  0  0  0  0  0
   -5.6372   25.0560  -29.2246 H   0  0  0  0  0  0  0  0  0  0  0  0
   -5.8260   25.9364  -30.7789 H   0  0  0  0  0  0  0  0  0  0  0  0
   -5.5761   24.1576  -30.7789 H   0  0  0  0  0  0  0  0  0  0  0  0
  1  2  1  0
  2  3  1  0
  3  4  2  0
  4  5  1  0
  5  6  1  0
  6  7  1  0
  7  8  1  0
  8  9  2  0
  8 10  1  0
 10 11  1  0
 11 12  1  0
 12 13  1  0
 13 14  1  0
 14 15  1  0
 15 16  1  0
  5 17  2  0
 17 18  1  0
 18 19  1  0
 19 20  1  0
 18 21  2  0
 21 22  1  0
 21  3  1  0
 16 11  1  0
  1 23  1  0
  1 24  1  0
  1 25  1  0
  4 26  1  0
  6 27  1  0
  6 28  1  0
 10 29  1  0
 10 30  1  0
 11 31  1  0
 12 32  1  0
 12 33  1  0
 13 34  1  0
 13 35  1  0
 14 36  1  0
 14 37  1  0
 15 38  1  0
 15 39  1  0
 16 40  1  0
 16 41  1  0
 17 42  1  0
 20 43  1  0
 20 44  1  0
 20 45  1  0
M  CHG  2   7  -1  22  -1
M  END
>  <UniqueID>  (32) 
32

>  <SMILES>  (32) 
COc1cc(C[N-]C(=O)CC2CCCCC2)cc(OC)c1[O-]

>  <Energy>  (32) 
41.35664715967349

>  <Genealogy>  (32) 
COc1cc(C[N-]C(=O)CC2CCCCC2)cc(OC)c1[O-] (protonated)
COc1cc(C[N-]C(=O)CC2CCCCC2)cc(OC)c1[O-] (3D coordinates assigned)
COc1cc(C[N-]C(=O)CC2CCCCC2)cc(OC)c1[O-] (nonaromatic ring conformer: 41.35664715967349 kcal/mol)

>  <smiles>  (32) 
COc1cc(CNC(=O)CC2CCCCC2)cc(OC)c1O

>  <score_type>  (32) 
oracle

>  <origin>  (32) 
adgpu

>  <m_score__min__energy>  (32) 
-11.1

>  <m_primary>  (32) 
energy

$$$$
32:0
     RDKit          3D

 27 28  0  0  0  0  0  0  0  0999 V2000
   -3.5370   24.0350  -28.2590 C   0  0  0  0  0  0  0  0  0  0  0  0
   -4.8950   24.5430  -28.4520 N   0  0  0  0  0  0  0  0  0  0  0  0
   -5.1580   24.8860  -30.1350 S   0  0  0  0  0  0  0  0  0  0  0  0
   -3.8610   25.2820  -30.7850 O   0  0  0  0  0  0  0  0  0  0  0  0
   -6.1230   26.0310  -30.2610 O   0  0  0  0  0  0  0  0  0  0  0  0
   -5.8360   23.4750  -30.9440 C   0  0  0  0  0  0  0  0  0  0  0  0
   -7.2240   23.2790  -30.9920 C   0  0  0  0  0  0  0  0  0  0  0  0
   -7.7540   22.1670  -31.6510 C   0  0  0  0  0  0  0  0  0  0  0  0
   -6.8960   21.2520  -32.2650 C   0  0  0  0  0  0  0  0  0  0  0  0
   -7.4880   19.8960  -33.0720 S   0  0  0  0  0  0  0  0  0  0  0  0
   -6.2380   18.9710  -33.7190 C   0  0  0  0  0  0  0  0  0  0  0  0
   -6.4940   17.9160  -34.3590 O   0  0  0  0  0  0  0  0  0  0  0  0
   -4.9210   19.4130  -33.5220 C   0  0  0  0  0  0  0  0  0  0  0  0
   -3.7790   18.6180  -34.0810 C   0  0  0  0  0  0  0  0  0  0  0  0
   -4.6330   20.5580  -32.8270 N   0  0  0  0  0  0  0  0  0  0  0  0
   -5.5000   21.4340  -32.2330 C   0  0  0  0  0  0  0  0  0  0  0  0
   -4.9810   22.5540  -31.5690 C   0  0  0  0  0  0  0  0  0  0  0  0
   -3.3247   23.9556  -27.1826 H   0  0  0  0  0  0  0  0  0  0  0  0
   -3.4472   23.0425  -28.7246 H   0  0  0  0  0  0  0  0  0  0  0  0
   -2.8178   24.7249  -28.7246 H   0  0  0  0  0  0  0  0  0  0  0  0
   -4.9710   25.4510  -27.9390 H   0  0  0  0  0  0  0  0  0  0  0  0
   -7.8971   24.0029  -30.5094 H   0  0  0  0  0  0  0  0  0  0  0  0
   -8.8426   22.0128  -31.6861 H   0  0  0  0  0  0  0  0  0  0  0  0
   -3.1825   18.2027  -33.2553 H   0  0  0  0  0  0  0  0  0  0  0  0
   -4.1716   17.7969  -34.6989 H   0  0  0  0  0  0  0  0  0  0  0  0
   -3.1453   19.2712  -34.6989 H   0  0  0  0  0  0  0  0  0  0  0  0
   -3.8930   22.7127  -31.5374 H   0  0  0  0  0  0  0  0  0  0  0  0
  1  2  1  0
  2  3  1  0
  3  4  2  0
  3  5  2  0
  3  6  1  0
  6  7  2  0
  7  8  1  0
  8  9  2  0
  9 10  1  0
 10 11  1  0
 11 12  2  0
 11 13  1  0
 13 14  1  0
 13 15  2  0
 15 16  1  0
 16 17  2  0
 17  6  1  0
 16  9  1  0
  1 18  1  0
  1 19  1  0
  1 20  1  0
  2 21  1  0
  7 22  1  0
  8 23  1  0
 14 24  1  0
 14 25  1  0
 14 26  1  0
 17 27  1  0
M  END
>  <UniqueID>  (33) 
33

>  <SMILES>  (33) 
CNS(=O)(=O)c1ccc2sc(=O)c(C)nc2c1

>  <Energy>  (33) 
29.450120803405895

>  <Genealogy>  (33) 
CNS(=O)(=O)c1ccc2sc(=O)c(C)nc2c1 (3D coordinates assigned)
CNS(=O)(=O)c1ccc2sc(=O)c(C)nc2c1 (optimized conformer: 29.450120803405895 kcal/mol)

>  <smiles>  (33) 
CNS(=O)(=O)c1ccc2sc(=O)c(C)nc2c1

>  <score_type>  (33) 
oracle

>  <origin>  (33) 
adgpu

>  <m_score__min__energy>  (33) 
-8.0899999999999999

>  <m_primary>  (33) 
energy

$$$$
33:0
     RDKit          3D

 61 64  0  0  0  0  0  0  0  0999 V2000
   -1.8680   25.3100  -29.3330 N   0  0  0  0  0  0  0  0  0  0  0  0
   -0.9050   24.4400  -28.1950 S   0  0  0  0  0  0  0  0  0  0  0  0
    0.5360   24.4940  -28.6140 O   0  0  0  0  0  0  0  0  0  0  0  0
   -1.0370   25.0710  -26.8370 O   0  0  0  0  0  0  0  0  0  0  0  0
   -1.4470   22.7670  -28.1270 C   0  0  0  0  0  0  0  0  0  0  0  0
   -2.8140   22.4690  -28.1860 C   0  0  0  0  0  0  0  0  0  0  0  0
   -3.2440   21.1390  -28.1640 C   0  0  0  0  0  0  0  0  0  0  0  0
   -2.3120   20.1000  -28.0860 C   0  0  0  0  0  0  0  0  0  0  0  0
   -0.9400   20.3860  -28.0230 C   0  0  0  0  0  0  0  0  0  0  0  0
    0.0640   19.2650  -27.9610 C   0  0  0  0  0  0  0  0  0  0  0  0
    1.2750   19.6170  -28.6950 N   0  0  0  0  0  0  0  0  0  0  0  0
    1.9770   18.7130  -29.5570 C   0  0  0  0  0  0  0  0  0  0  0  0
    2.7490   17.8410  -29.0720 O   0  0  0  0  0  0  0  0  0  0  0  0
    1.8320   18.8590  -31.0420 C   0  0  0  0  0  0  0  0  0  0  0  0
    0.5160   19.4870  -31.4240 C   0  0  0  0  0  0  0  0  0  0  0  0
   -0.6000   18.6850  -31.7080 C   0  0  0  0  0  0  0  0  0  0  0  0
   -1.8220   19.2710  -32.0500 C   0  0  0  0  0  0  0  0  0  0  0  0
   -1.9560   20.6670  -32.0910 C   0  0  0  0  0  0  0  0  0  0  0  0
   -3.2150   21.2450  -32.4700 N   0  0  0  0  0  0  0  0  0  0  0  0
   -4.4430   21.0170  -31.7540 C   0  0  0  0  0  0  0  0  0  0  0  0
   -4.5390   20.0360  -30.9670 O   0  0  0  0  0  0  0  0  0  0  0  0
   -5.5830   21.8720  -31.9660 N   0  0  0  0  0  0  0  0  0  0  0  0
   -5.4040   23.2800  -32.3480 C   0  0  0  0  0  0  0  0  0  0  0  0
   -6.3640   24.2070  -31.5910 C   0  0  0  0  0  0  0  0  0  0  0  0
   -6.5850   23.7150  -30.1530 C   0  0  0  0  0  0  0  0  0  0  0  0
   -7.7380   22.6970  -30.0180 C   0  0  0  0  0  0  0  0  0  0  0  0
   -7.9320   21.6980  -31.1490 C   0  0  0  0  0  0  0  0  0  0  0  0
   -9.1940   21.0820  -31.2600 C   0  0  0  0  0  0  0  0  0  0  0  0
   -9.4330   20.1060  -32.2300 C   0  0  0  0  0  0  0  0  0  0  0  0
   -8.4140   19.7170  -33.0970 C   0  0  0  0  0  0  0  0  0  0  0  0
   -7.1510   20.3010  -32.9940 C   0  0  0  0  0  0  0  0  0  0  0  0
   -6.8940   21.2840  -32.0240 C   0  0  0  0  0  0  0  0  0  0  0  0
   -0.8360   21.4710  -31.8120 C   0  0  0  0  0  0  0  0  0  0  0  0
    0.3890   20.8850  -31.4770 C   0  0  0  0  0  0  0  0  0  0  0  0
   -0.5120   21.7250  -28.0500 C   0  0  0  0  0  0  0  0  0  0  0  0
   -1.2280   25.9650  -29.8360 H   0  0  0  0  0  0  0  0  0  0  0  0
   -3.5510   23.2831  -28.2498 H   0  0  0  0  0  0  0  0  0  0  0  0
   -4.3189   20.9094  -28.2082 H   0  0  0  0  0  0  0  0  0  0  0  0
   -2.6554   19.0551  -28.0740 H   0  0  0  0  0  0  0  0  0  0  0  0
    0.3227   19.0695  -26.9099 H   0  0  0  0  0  0  0  0  0  0  0  0
   -0.3787   18.3677  -28.4180 H   0  0  0  0  0  0  0  0  0  0  0  0
    2.6494   19.4920  -31.4177 H   0  0  0  0  0  0  0  0  0  0  0  0
    1.8693   17.8535  -31.4866 H   0  0  0  0  0  0  0  0  0  0  0  0
   -0.5126   17.5895  -31.6612 H   0  0  0  0  0  0  0  0  0  0  0  0
   -2.6854   18.6327  -32.2889 H   0  0  0  0  0  0  0  0  0  0  0  0
   -3.2690   21.7440  -33.3850 H   0  0  0  0  0  0  0  0  0  0  0  0
   -4.3697   23.5801  -32.1239 H   0  0  0  0  0  0  0  0  0  0  0  0
   -5.6204   23.3708  -33.4227 H   0  0  0  0  0  0  0  0  0  0  0  0
   -5.9378   25.2207  -31.5628 H   0  0  0  0  0  0  0  0  0  0  0  0
   -7.3323   24.2104  -32.1129 H   0  0  0  0  0  0  0  0  0  0  0  0
   -5.6577   23.2386  -29.8021 H   0  0  0  0  0  0  0  0  0  0  0  0
   -6.8583   24.5935  -29.5500 H   0  0  0  0  0  0  0  0  0  0  0  0
   -7.5627   22.1215  -29.0971 H   0  0  0  0  0  0  0  0  0  0  0  0
   -8.6525   23.3083  -30.0255 H   0  0  0  0  0  0  0  0  0  0  0  0
  -10.0023   21.3737  -30.5733 H   0  0  0  0  0  0  0  0  0  0  0  0
  -10.4278   19.6434  -32.3097 H   0  0  0  0  0  0  0  0  0  0  0  0
   -8.6051   18.9501  -33.8621 H   0  0  0  0  0  0  0  0  0  0  0  0
   -6.3489   19.9887  -33.6789 H   0  0  0  0  0  0  0  0  0  0  0  0
   -0.9241   22.5665  -31.8575 H   0  0  0  0  0  0  0  0  0  0  0  0
    1.2575   21.5221  -31.2539 H   0  0  0  0  0  0  0  0  0  0  0  0
    0.5626   21.9565  -28.0105 H   0  0  0  0  0  0  0  0  0  0  0  0
  1  2  1  0
  2  3  2  0
  2  4  2  0
  2  5  1  0
  5  6  2  0
  6  7  1  0
  7  8  2  0
  8  9  1  0
  9 10  1  0
 10 11  1  0
 11 12  1  0
 12 13  2  0
 12 14  1  0
 14 15  1  0
 15 16  2  0
 16 17  1  0
 17 18  2  0
 18 19  1  0
 19 20  1  0
 20 21  2  0
 20 22  1  0
 22 23  1  0
 23 24  1  0
 24 25  1  0
 25 26  1  0
 26 27  1  0
 27 28  2  0
 28 29  1  0
 29 30  2  0
 30 31  1  0
 31 32  2  0
 18 33  1  0
 33 34  2  0
  9 35  2  0
 35  5  1  0
 34 15  1  0
 32 22  1  0
 32 27  1  0
  1 36  1  0
  6 37  1  0
  7 38  1  0
  8 39  1  0
 10 40  1  0
 10 41  1  0
 14 42  1  0
 14 43  1  0
 16 44  1  0
 17 45  1  0
 19 46  1  0
 23 47  1  0
 23 48  1  0
 24 49  1  0
 24 50  1  0
 25 51  1  0
 25 52  1  0
 26 53  1  0
 26 54  1  0
 28 55  1  0
 29 56  1  0
 30 57  1  0
 31 58  1  0
 33 59  1  0
 34 60  1  0
 35 61  1  0
M  CHG  2   1  -1  11  -1
M  END
>  <UniqueID>  (34) 
34

>  <SMILES>  (34) 
[NH-]S(=O)(=O)c1cccc(C[N-]C(=O)Cc2ccc(NC(=O)N3CCCCc4ccccc43)cc2)c1

>  <Energy>  (34) 
79.18708338740501

>  <Genealogy>  (34) 
[NH-]S(=O)(=O)c1cccc(C[N-]C(=O)Cc2ccc(NC(=O)N3CCCCc4ccccc43)cc2)c1 (protonated)
[NH-]S(=O)(=O)c1cccc(C[N-]C(=O)Cc2ccc(NC(=O)N3CCCCc4ccccc43)cc2)c1 (3D coordinates assigned)
[NH-]S(=O)(=O)c1cccc(C[N-]C(=O)Cc2ccc(NC(=O)N3CCCCc4ccccc43)cc2)c1 (nonaromatic ring conformer: 79.18708338740501 kcal/mol)

>  <smiles>  (34) 
NS(=O)(=O)c1cccc(CNC(=O)Cc2ccc(NC(=O)N3CCCCc4ccccc43)cc2)c1

>  <score_type>  (34) 
oracle

>  <origin>  (34) 
adgpu

>  <m_score__min__energy>  (34) 
-10.109999999999999

>  <m_primary>  (34) 
energy

$$$$
34:0
     RDKit          3D

 60 63  0  0  0  0  0  0  0  0999 V2000
   -5.8070   25.4930  -28.8990 O   0  0  0  0  0  0  0  0  0  0  0  0
   -5.3260   25.1100  -30.2690 S   0  0  0  0  0  0  0  0  0  0  0  0
   -5.6790   26.2190  -31.2210 O   0  0  0  0  0  0  0  0  0  0  0  0
   -3.6050   24.9240  -30.2300 N   0  0  0  0  0  0  0  0  0  0  0  0
   -2.9730   23.8560  -29.5230 C   0  0  0  0  0  0  0  0  0  0  0  0
   -2.2500   22.8770  -30.2210 C   0  0  0  0  0  0  0  0  0  0  0  0
   -1.6320   21.8270  -29.5320 C   0  0  0  0  0  0  0  0  0  0  0  0
   -0.7730   20.5730  -30.4260 S   0  0  0  0  0  0  0  0  0  0  0  0
   -0.0660   19.6620  -29.4600 O   0  0  0  0  0  0  0  0  0  0  0  0
    0.2630   21.2370  -31.2910 O   0  0  0  0  0  0  0  0  0  0  0  0
   -1.8730   19.6590  -31.4400 N   0  0  0  0  0  0  0  0  0  0  0  0
   -1.2090   19.1200  -32.6450 C   0  0  0  0  0  0  0  0  0  0  0  0
   -0.9030   20.2060  -33.6950 C   0  0  0  0  0  0  0  0  0  0  0  0
   -2.0240   21.2520  -33.8260 C   0  0  0  0  0  0  0  0  0  0  0  0
   -3.3310   20.7690  -33.2010 C   0  0  0  0  0  0  0  0  0  0  0  0
   -3.1260   20.4070  -31.7180 C   0  0  0  0  0  0  0  0  0  0  0  0
   -1.7400   21.7560  -28.1370 C   0  0  0  0  0  0  0  0  0  0  0  0
   -2.4760   22.7160  -27.4390 C   0  0  0  0  0  0  0  0  0  0  0  0
   -3.1010   23.7620  -28.1240 C   0  0  0  0  0  0  0  0  0  0  0  0
   -3.8310   24.7030  -27.3980 O   0  0  0  0  0  0  0  0  0  0  0  0
   -6.1190   23.6140  -30.7530 C   0  0  0  0  0  0  0  0  0  0  0  0
   -5.7290   22.9480  -31.9240 C   0  0  0  0  0  0  0  0  0  0  0  0
   -6.3950   21.7870  -32.3280 C   0  0  0  0  0  0  0  0  0  0  0  0
   -7.4500   21.2730  -31.5600 C   0  0  0  0  0  0  0  0  0  0  0  0
   -8.3490   19.8540  -32.1130 S   0  0  0  0  0  0  0  0  0  0  0  0
   -9.0510   19.2310  -30.9390 O   0  0  0  0  0  0  0  0  0  0  0  0
   -9.3950   20.2940  -33.1000 O   0  0  0  0  0  0  0  0  0  0  0  0
   -7.3270   18.6510  -32.8630 N   0  0  0  0  0  0  0  0  0  0  0  0
   -6.4310   17.9960  -31.9010 C   0  0  0  0  0  0  0  0  0  0  0  0
   -5.0520   17.8890  -32.5500 C   0  0  0  0  0  0  0  0  0  0  0  0
   -5.2530   18.3480  -33.9790 C   0  0  0  0  0  0  0  0  0  0  0  0
   -6.4810   19.2260  -33.9090 C   0  0  0  0  0  0  0  0  0  0  0  0
   -7.8260   21.9330  -30.3790 C   0  0  0  0  0  0  0  0  0  0  0  0
   -7.1610   23.0940  -29.9760 C   0  0  0  0  0  0  0  0  0  0  0  0
   -2.1683   22.9350  -31.3164 H   0  0  0  0  0  0  0  0  0  0  0  0
   -0.2630   18.6468  -32.3430 H   0  0  0  0  0  0  0  0  0  0  0  0
   -1.8976   18.3974  -33.1072 H   0  0  0  0  0  0  0  0  0  0  0  0
    0.0246   20.7214  -33.4054 H   0  0  0  0  0  0  0  0  0  0  0  0
   -0.8081   19.7032  -34.6688 H   0  0  0  0  0  0  0  0  0  0  0  0
   -1.7084   22.1764  -33.3201 H   0  0  0  0  0  0  0  0  0  0  0  0
   -2.2031   21.4267  -34.8972 H   0  0  0  0  0  0  0  0  0  0  0  0
   -4.0839   21.5674  -33.2768 H   0  0  0  0  0  0  0  0  0  0  0  0
   -3.6695   19.8718  -33.7398 H   0  0  0  0  0  0  0  0  0  0  0  0
   -3.1073   21.3396  -31.1349 H   0  0  0  0  0  0  0  0  0  0  0  0
   -3.9579   19.7444  -31.4371 H   0  0  0  0  0  0  0  0  0  0  0  0
   -1.2434   20.9413  -27.5896 H   0  0  0  0  0  0  0  0  0  0  0  0
   -2.5643   22.6487  -26.3446 H   0  0  0  0  0  0  0  0  0  0  0  0
   -4.3800   25.4260  -27.8460 H   0  0  0  0  0  0  0  0  0  0  0  0
   -4.8965   23.3403  -32.5265 H   0  0  0  0  0  0  0  0  0  0  0  0
   -6.0902   21.2744  -33.2523 H   0  0  0  0  0  0  0  0  0  0  0  0
   -6.3666   18.5952  -30.9808 H   0  0  0  0  0  0  0  0  0  0  0  0
   -6.8115   16.9981  -31.6374 H   0  0  0  0  0  0  0  0  0  0  0  0
   -4.3304   18.5389  -32.0333 H   0  0  0  0  0  0  0  0  0  0  0  0
   -4.6497   16.8665  -32.4978 H   0  0  0  0  0  0  0  0  0  0  0  0
   -4.3825   18.9200  -34.3325 H   0  0  0  0  0  0  0  0  0  0  0  0
   -5.3702   17.5097  -34.6815 H   0  0  0  0  0  0  0  0  0  0  0  0
   -6.1996   20.2572  -33.6494 H   0  0  0  0  0  0  0  0  0  0  0  0
   -7.0047   19.2650  -34.8755 H   0  0  0  0  0  0  0  0  0  0  0  0
   -8.6487   21.5338  -29.7676 H   0  0  0  0  0  0  0  0  0  0  0  0
   -7.4571   23.6008  -29.0457 H   0  0  0  0  0  0  0  0  0  0  0  0
  1  2  2  0
  2  3  2  0
  2  4  1  0
  4  5  1  0
  5  6  2  0
  6  7  1  0
  7  8  1  0
  8  9  2  0
  8 10  2  0
  8 11  1  0
 11 12  1  0
 12 13  1  0
 13 14  1  0
 14 15  1  0
 15 16  1  0
  7 17  2  0
 17 18  1  0
 18 19  2  0
 19 20  1  0
  2 21  1  0
 21 22  2  0
 22 23  1  0
 23 24  2  0
 24 25  1  0
 25 26  2  0
 25 27  2  0
 25 28  1  0
 28 29  1  0
 29 30  1  0
 30 31  1  0
 31 32  1  0
 24 33  1  0
 33 34  2  0
 19  5  1  0
 34 21  1  0
 16 11  1  0
 32 28  1  0
  6 35  1  0
 12 36  1  0
 12 37  1  0
 13 38  1  0
 13 39  1  0
 14 40  1  0
 14 41  1  0
 15 42  1  0
 15 43  1  0
 16 44  1  0
 16 45  1  0
 17 46  1  0
 18 47  1  0
 20 48  1  0
 22 49  1  0
 23 50  1  0
 29 51  1  0
 29 52  1  0
 30 53  1  0
 30 54  1  0
 31 55  1  0
 31 56  1  0
 32 57  1  0
 32 58  1  0
 33 59  1  0
 34 60  1  0
M  CHG  1   4  -1
M  END
>  <UniqueID>  (35) 
35

>  <SMILES>  (35) 
O=S(=O)([N-]c1cc(S(=O)(=O)N2CCCCC2)ccc1O)c1ccc(S(=O)(=O)N2CCCC2)cc1

>  <Energy>  (35) 
75.31427393987585

>  <Genealogy>  (35) 
O=S(=O)([N-]c1cc(S(=O)(=O)N2CCCCC2)ccc1O)c1ccc(S(=O)(=O)N2CCCC2)cc1 (protonated)
O=S(=O)([N-]c1cc(S(=O)(=O)N2CCCCC2)ccc1O)c1ccc(S(=O)(=O)N2CCCC2)cc1 (3D coordinates assigned)
O=S(=O)([N-]c1cc(S(=O)(=O)N2CCCCC2)ccc1O)c1ccc(S(=O)(=O)N2CCCC2)cc1 (nonaromatic ring conformer: 75.31427393987585 kcal/mol)

>  <smiles>  (35) 
O=S(=O)(Nc1cc(S(=O)(=O)N2CCCCC2)ccc1O)c1ccc(S(=O)(=O)N2CCCC2)cc1

>  <score_type>  (35) 
oracle

>  <origin>  (35) 
adgpu

>  <m_score__min__energy>  (35) 
-12.92

>  <m_primary>  (35) 
energy

$$$$
35:0
     RDKit          3D

 61 66  0  0  0  0  0  0  0  0999 V2000
   -0.1890   18.9430  -30.0430 O   0  0  0  0  0  0  0  0  0  0  0  0
   -0.6960   19.1650  -31.1760 C   0  0  0  0  0  0  0  0  0  0  0  0
   -0.5930   18.2840  -32.3340 C   0  0  0  0  0  0  0  0  0  0  0  0
    0.0740   17.0710  -32.4980 C   0  0  0  0  0  0  0  0  0  0  0  0
   -0.0180   16.4300  -33.7470 C   0  0  0  0  0  0  0  0  0  0  0  0
   -0.7690   17.0080  -34.7950 C   0  0  0  0  0  0  0  0  0  0  0  0
   -1.4360   18.2320  -34.6030 C   0  0  0  0  0  0  0  0  0  0  0  0
   -1.3280   18.8470  -33.3550 C   0  0  0  0  0  0  0  0  0  0  0  0
   -1.8980   20.0930  -32.8570 C   0  0  0  0  0  0  0  0  0  0  0  0
   -2.5930   20.8980  -33.5320 O   0  0  0  0  0  0  0  0  0  0  0  0
   -1.5080   20.3010  -31.4940 N   0  0  0  0  0  0  0  0  0  0  0  0
   -1.9010   21.3730  -30.6160 C   0  0  0  0  0  0  0  0  0  0  0  0
   -1.1970   21.6120  -29.4280 C   0  0  0  0  0  0  0  0  0  0  0  0
   -1.5960   22.6340  -28.5640 C   0  0  0  0  0  0  0  0  0  0  0  0
   -2.7090   23.4240  -28.8670 C   0  0  0  0  0  0  0  0  0  0  0  0
   -3.1200   24.3870  -27.9390 O   0  0  0  0  0  0  0  0  0  0  0  0
   -2.2460   25.2630  -27.2760 C   0  0  0  0  0  0  0  0  0  0  0  0
   -2.3350   25.3560  -25.8800 C   0  0  0  0  0  0  0  0  0  0  0  0
   -1.4650   26.1860  -25.1680 C   0  0  0  0  0  0  0  0  0  0  0  0
   -0.5080   26.9440  -25.8460 C   0  0  0  0  0  0  0  0  0  0  0  0
   -0.4290   26.8840  -27.2400 C   0  0  0  0  0  0  0  0  0  0  0  0
   -1.3010   26.0600  -27.9610 C   0  0  0  0  0  0  0  0  0  0  0  0
   -1.2320   26.0620  -29.3500 O   0  0  0  0  0  0  0  0  0  0  0  0
   -3.3900   23.2330  -30.0880 C   0  0  0  0  0  0  0  0  0  0  0  0
   -4.7260   24.2740  -30.5870 S   0  0  0  0  0  0  0  0  0  0  0  0
   -4.2160   25.6700  -30.8250 O   0  0  0  0  0  0  0  0  0  0  0  0
   -5.7700   24.3410  -29.5090 O   0  0  0  0  0  0  0  0  0  0  0  0
   -5.4310   23.6440  -32.0370 N   0  0  0  0  0  0  0  0  0  0  0  0
   -5.9380   22.3100  -32.0910 C   0  0  0  0  0  0  0  0  0  0  0  0
   -5.1820   21.3150  -32.7190 C   0  0  0  0  0  0  0  0  0  0  0  0
   -5.6770   20.0090  -32.8240 C   0  0  0  0  0  0  0  0  0  0  0  0
   -6.9460   19.6950  -32.2980 C   0  0  0  0  0  0  0  0  0  0  0  0
   -7.6800   20.6840  -31.6250 C   0  0  0  0  0  0  0  0  0  0  0  0
   -7.1800   21.9890  -31.5190 C   0  0  0  0  0  0  0  0  0  0  0  0
   -7.9060   22.9620  -30.8340 O   0  0  0  0  0  0  0  0  0  0  0  0
   -7.4810   18.2860  -32.3800 C   0  0  0  0  0  0  0  0  0  0  0  0
   -6.8740   17.5220  -33.5630 C   0  0  0  0  0  0  0  0  0  0  0  0
   -5.3450   17.6040  -33.5300 C   0  0  0  0  0  0  0  0  0  0  0  0
   -4.9100   19.0000  -33.5010 N   0  0  0  0  0  0  0  0  0  0  0  0
   -2.9930   22.1930  -30.9410 C   0  0  0  0  0  0  0  0  0  0  0  0
    0.6549   16.6282  -31.6755 H   0  0  0  0  0  0  0  0  0  0  0  0
    0.4983   15.4723  -33.9088 H   0  0  0  0  0  0  0  0  0  0  0  0
   -0.8327   16.4977  -35.7674 H   0  0  0  0  0  0  0  0  0  0  0  0
   -2.0244   18.6900  -35.4117 H   0  0  0  0  0  0  0  0  0  0  0  0
   -0.3251   20.9910  -29.1746 H   0  0  0  0  0  0  0  0  0  0  0  0
   -1.0307   22.8187  -27.6386 H   0  0  0  0  0  0  0  0  0  0  0  0
   -3.0952   24.7714  -25.3412 H   0  0  0  0  0  0  0  0  0  0  0  0
   -1.5341   26.2424  -24.0716 H   0  0  0  0  0  0  0  0  0  0  0  0
    0.1835   27.5881  -25.2830 H   0  0  0  0  0  0  0  0  0  0  0  0
    0.3214   27.4867  -27.7727 H   0  0  0  0  0  0  0  0  0  0  0  0
   -4.1927   21.5596  -33.1330 H   0  0  0  0  0  0  0  0  0  0  0  0
   -8.6534   20.4334  -31.1781 H   0  0  0  0  0  0  0  0  0  0  0  0
   -7.5080   23.8700  -30.6190 H   0  0  0  0  0  0  0  0  0  0  0  0
   -7.2353   17.7556  -31.4481 H   0  0  0  0  0  0  0  0  0  0  0  0
   -8.5701   18.3384  -32.5254 H   0  0  0  0  0  0  0  0  0  0  0  0
   -7.1808   16.4671  -33.5078 H   0  0  0  0  0  0  0  0  0  0  0  0
   -7.2333   17.9742  -34.4992 H   0  0  0  0  0  0  0  0  0  0  0  0
   -4.9737   17.0899  -32.6312 H   0  0  0  0  0  0  0  0  0  0  0  0
   -4.9422   17.1234  -34.4338 H   0  0  0  0  0  0  0  0  0  0  0  0
   -3.9790   19.2400  -33.9080 H   0  0  0  0  0  0  0  0  0  0  0  0
   -3.5443   22.0176  -31.8766 H   0  0  0  0  0  0  0  0  0  0  0  0
  1  2  2  0
  2  3  1  0
  3  4  2  0
  4  5  1  0
  5  6  2  0
  6  7  1  0
  7  8  2  0
  8  9  1  0
  9 10  2  0
  9 11  1  0
 11 12  1  0
 12 13  2  0
 13 14  1  0
 14 15  2  0
 15 16  1  0
 16 17  1  0
 17 18  2  0
 18 19  1  0
 19 20  2  0
 20 21  1  0
 21 22  2  0
 22 23  1  0
 15 24  1  0
 24 25  1  0
 25 26  2  0
 25 27  2  0
 25 28  1  0
 28 29  1  0
 29 30  2  0
 30 31  1  0
 31 32  2  0
 32 33  1  0
 33 34  2  0
 34 35  1  0
 32 36  1  0
 36 37  1  0
 37 38  1  0
 38 39  1  0
 24 40  2  0
 11  2  1  0
 40 12  1  0
  8  3  1  0
 22 17  1  0
 34 29  1  0
 39 31  1  0
  4 41  1  0
  5 42  1  0
  6 43  1  0
  7 44  1  0
 13 45  1  0
 14 46  1  0
 18 47  1  0
 19 48  1  0
 20 49  1  0
 21 50  1  0
 30 51  1  0
 33 52  1  0
 35 53  1  0
 36 54  1  0
 36 55  1  0
 37 56  1  0
 37 57  1  0
 38 58  1  0
 38 59  1  0
 39 60  1  0
 40 61  1  0
M  CHG  2  23  -1  28  -1
M  END
>  <UniqueID>  (36) 
36

>  <SMILES>  (36) 
O=C1c2ccccc2C(=O)N1c1ccc(Oc2ccccc2[O-])c(S(=O)(=O)[N-]c2cc3c(cc2O)CCCN3)c1

>  <Energy>  (36) 
123.17867793662082

>  <Genealogy>  (36) 
O=C1c2ccccc2C(=O)N1c1ccc(Oc2ccccc2[O-])c(S(=O)(=O)[N-]c2cc3c(cc2O)CCCN3)c1 (protonated)
O=C1c2ccccc2C(=O)N1c1ccc(Oc2ccccc2[O-])c(S(=O)(=O)[N-]c2cc3c(cc2O)CCCN3)c1 (3D coordinates assigned)
O=C1c2ccccc2C(=O)N1c1ccc(Oc2ccccc2[O-])c(S(=O)(=O)[N-]c2cc3c(cc2O)CCCN3)c1 (nonaromatic ring conformer: 123.17867793662082 kcal/mol)

>  <smiles>  (36) 
O=C1c2ccccc2C(=O)N1c1ccc(Oc2ccccc2O)c(S(=O)(=O)Nc2cc3c(cc2O)CCCN3)c1

>  <score_type>  (36) 
oracle

>  <origin>  (36) 
adgpu

>  <m_score__min__energy>  (36) 
-14.050000000000001

>  <m_primary>  (36) 
energy

$$$$
36:0
     RDKit          3D

 39 40  0  0  0  0  0  0  0  0999 V2000
   -2.3670   21.1530  -34.1060 N   0  0  0  0  0  0  0  0  0  0  0  0
   -2.6190   20.5420  -32.8380 C   0  0  0  0  0  0  0  0  0  0  0  0
   -3.2120   19.4300  -32.8060 O   0  0  0  0  0  0  0  0  0  0  0  0
   -2.1860   21.1780  -31.5700 C   0  0  0  0  0  0  0  0  0  0  0  0
   -1.1810   20.6010  -30.7710 C   0  0  0  0  0  0  0  0  0  0  0  0
   -0.7770   21.2210  -29.5860 C   0  0  0  0  0  0  0  0  0  0  0  0
   -1.3640   22.4220  -29.1850 C   0  0  0  0  0  0  0  0  0  0  0  0
   -2.3630   23.0120  -29.9680 C   0  0  0  0  0  0  0  0  0  0  0  0
   -3.0790   24.5430  -29.4680 S   0  0  0  0  0  0  0  0  0  0  0  0
   -4.0490   24.3160  -28.3410 O   0  0  0  0  0  0  0  0  0  0  0  0
   -1.9910   25.4580  -28.9820 O   0  0  0  0  0  0  0  0  0  0  0  0
   -3.8970   25.2920  -30.8050 N   0  0  0  0  0  0  0  0  0  0  0  0
   -5.2940   25.5450  -30.4550 C   0  0  0  0  0  0  0  0  0  0  0  0
   -6.1100   24.2590  -30.5910 C   0  0  0  0  0  0  0  0  0  0  0  0
   -5.8260   23.5370  -31.9150 C   0  0  0  0  0  0  0  0  0  0  0  0
   -6.7540   22.3650  -32.0870 C   0  0  0  0  0  0  0  0  0  0  0  0
   -6.2900   21.1730  -32.6700 C   0  0  0  0  0  0  0  0  0  0  0  0
   -7.1450   20.0750  -32.8000 C   0  0  0  0  0  0  0  0  0  0  0  0
   -8.4630   20.1540  -32.3420 C   0  0  0  0  0  0  0  0  0  0  0  0
   -8.9270   21.3310  -31.7500 C   0  0  0  0  0  0  0  0  0  0  0  0
   -8.0760   22.4320  -31.6170 C   0  0  0  0  0  0  0  0  0  0  0  0
   -2.7650   22.3950  -31.1610 C   0  0  0  0  0  0  0  0  0  0  0  0
   -1.7480   21.9860  -34.2020 H   0  0  0  0  0  0  0  0  0  0  0  0
   -2.7360   20.7120  -34.9780 H   0  0  0  0  0  0  0  0  0  0  0  0
   -0.7109   19.6562  -31.0815 H   0  0  0  0  0  0  0  0  0  0  0  0
    0.0069   20.7607  -28.9666 H   0  0  0  0  0  0  0  0  0  0  0  0
   -1.0409   22.9060  -28.2515 H   0  0  0  0  0  0  0  0  0  0  0  0
   -5.3499   25.9034  -29.4165 H   0  0  0  0  0  0  0  0  0  0  0  0
   -5.7040   26.3057  -31.1356 H   0  0  0  0  0  0  0  0  0  0  0  0
   -5.8557   23.5870  -29.7581 H   0  0  0  0  0  0  0  0  0  0  0  0
   -7.1762   24.5288  -30.5723 H   0  0  0  0  0  0  0  0  0  0  0  0
   -5.9720   24.2395  -32.7488 H   0  0  0  0  0  0  0  0  0  0  0  0
   -4.7889   23.1705  -31.9045 H   0  0  0  0  0  0  0  0  0  0  0  0
   -5.2511   21.1042  -33.0249 H   0  0  0  0  0  0  0  0  0  0  0  0
   -6.7798   19.1468  -33.2637 H   0  0  0  0  0  0  0  0  0  0  0  0
   -9.1349   19.2895  -32.4477 H   0  0  0  0  0  0  0  0  0  0  0  0
   -9.9639   21.3916  -31.3878 H   0  0  0  0  0  0  0  0  0  0  0  0
   -8.4429   23.3541  -31.1426 H   0  0  0  0  0  0  0  0  0  0  0  0
   -3.5400   22.8659  -31.7835 H   0  0  0  0  0  0  0  0  0  0  0  0
  1  2  1  0
  2  3  2  0
  2  4  1  0
  4  5  2  0
  5  6  1  0
  6  7  2  0
  7  8  1  0
  8  9  1  0
  9 10  2  0
  9 11  2  0
  9 12  1  0
 12 13  1  0
 13 14  1  0
 14 15  1  0
 15 16  1  0
 16 17  2  0
 17 18  1  0
 18 19  2  0
 19 20  1  0
 20 21  2  0
  8 22  2  0
 22  4  1  0
 21 16  1  0
  1 23  1  0
  1 24  1  0
  5 25  1  0
  6 26  1  0
  7 27  1  0
 13 28  1  0
 13 29  1  0
 14 30  1  0
 14 31  1  0
 15 32  1  0
 15 33  1  0
 17 34  1  0
 18 35  1  0
 19 36  1  0
 20 37  1  0
 21 38  1  0
 22 39  1  0
M  CHG  1  12  -1
M  END
>  <UniqueID>  (37) 
37

>  <SMILES>  (37) 
NC(=O)c1cccc(S(=O)(=O)[N-]CCCc2ccccc2)c1

>  <Energy>  (37) 
34.13840568681363

>  <Genealogy>  (37) 
NC(=O)c1cccc(S(=O)(=O)[N-]CCCc2ccccc2)c1 (protonated)
NC(=O)c1cccc(S(=O)(=O)[N-]CCCc2ccccc2)c1 (3D coordinates assigned)
NC(=O)c1cccc(S(=O)(=O)[N-]CCCc2ccccc2)c1 (optimized conformer: 34.13840568681363 kcal/mol)

>  <smiles>  (37) 
NC(=O)c1cccc(S(=O)(=O)NCCCc2ccccc2)c1

>  <score_type>  (37) 
oracle

>  <origin>  (37) 
adgpu

>  <m_score__min__energy>  (37) 
-9.9100000000000001

>  <m_primary>  (37) 
energy

$$$$
37:0
     RDKit          3D

 49 53  0  0  0  0  0  0  0  0999 V2000
   -8.6300   20.5220  -32.0790 O   0  0  0  0  0  0  0  0  0  0  0  0
   -7.1590   20.2550  -32.2320 S   0  0  0  0  0  0  0  0  0  0  0  0
   -6.7390   19.2200  -31.2250 O   0  0  0  0  0  0  0  0  0  0  0  0
   -6.8380   19.6710  -33.8360 N   0  0  0  0  0  0  0  0  0  0  0  0
   -5.7880   18.7260  -34.0540 C   0  0  0  0  0  0  0  0  0  0  0  0
   -6.1270   17.3850  -34.2590 C   0  0  0  0  0  0  0  0  0  0  0  0
   -5.1440   16.3970  -34.2490 C   0  0  0  0  0  0  0  0  0  0  0  0
   -3.8110   16.7340  -34.0120 C   0  0  0  0  0  0  0  0  0  0  0  0
   -3.4370   18.0780  -33.8230 C   0  0  0  0  0  0  0  0  0  0  0  0
   -2.0970   18.4370  -33.5440 C   0  0  0  0  0  0  0  0  0  0  0  0
   -1.0800   17.4450  -33.3540 N   0  0  0  0  0  0  0  0  0  0  0  0
   -0.6240   16.6490  -34.4990 C   0  0  0  0  0  0  0  0  0  0  0  0
    0.8740   16.2760  -34.3950 C   0  0  0  0  0  0  0  0  0  0  0  0
    1.4470   16.4800  -33.0530 N   0  0  0  0  0  0  0  0  0  0  0  0
    0.4920   16.1220  -32.0030 C   0  0  0  0  0  0  0  0  0  0  0  0
   -0.6300   17.1530  -31.9900 C   0  0  0  0  0  0  0  0  0  0  0  0
   -1.7550   19.7860  -33.3930 C   0  0  0  0  0  0  0  0  0  0  0  0
   -2.7230   20.7800  -33.5130 C   0  0  0  0  0  0  0  0  0  0  0  0
   -4.0530   20.4390  -33.7580 C   0  0  0  0  0  0  0  0  0  0  0  0
   -4.4320   19.0900  -33.8900 C   0  0  0  0  0  0  0  0  0  0  0  0
   -6.2460   21.7400  -31.9580 C   0  0  0  0  0  0  0  0  0  0  0  0
   -6.8110   22.9840  -32.3340 C   0  0  0  0  0  0  0  0  0  0  0  0
   -6.1960   24.1930  -31.9620 C   0  0  0  0  0  0  0  0  0  0  0  0
   -5.0240   24.1270  -31.2120 C   0  0  0  0  0  0  0  0  0  0  0  0
   -4.3270   25.1660  -30.7180 N   0  0  0  0  0  0  0  0  0  0  0  0
   -3.3130   24.5780  -30.0390 C   0  0  0  0  0  0  0  0  0  0  0  0
   -2.3470   25.3010  -29.3500 O   0  0  0  0  0  0  0  0  0  0  0  0
   -3.3570   23.1930  -30.0980 C   0  0  0  0  0  0  0  0  0  0  0  0
   -4.4680   22.9240  -30.8610 C   0  0  0  0  0  0  0  0  0  0  0  0
   -5.0410   21.7080  -31.2260 C   0  0  0  0  0  0  0  0  0  0  0  0
   -7.1777   17.1077  -34.4295 H   0  0  0  0  0  0  0  0  0  0  0  0
   -5.4202   15.3475  -34.4287 H   0  0  0  0  0  0  0  0  0  0  0  0
   -3.0467   15.9438  -33.9725 H   0  0  0  0  0  0  0  0  0  0  0  0
   -1.2167   15.7235  -34.5450 H   0  0  0  0  0  0  0  0  0  0  0  0
   -0.7574   17.2568  -35.4061 H   0  0  0  0  0  0  0  0  0  0  0  0
    0.9863   15.2149  -34.6622 H   0  0  0  0  0  0  0  0  0  0  0  0
    1.4180   16.9431  -35.0799 H   0  0  0  0  0  0  0  0  0  0  0  0
    2.2830   15.8560  -32.9590 H   0  0  0  0  0  0  0  0  0  0  0  0
    0.0755   15.1244  -32.2061 H   0  0  0  0  0  0  0  0  0  0  0  0
    0.9977   16.1064  -31.0262 H   0  0  0  0  0  0  0  0  0  0  0  0
   -1.4757   16.7592  -31.4071 H   0  0  0  0  0  0  0  0  0  0  0  0
   -0.2528   18.0809  -31.5354 H   0  0  0  0  0  0  0  0  0  0  0  0
   -0.7125   20.0633  -33.1777 H   0  0  0  0  0  0  0  0  0  0  0  0
   -2.4376   21.8377  -33.4142 H   0  0  0  0  0  0  0  0  0  0  0  0
   -4.8115   21.2304  -33.8488 H   0  0  0  0  0  0  0  0  0  0  0  0
   -7.7400   23.0043  -32.9228 H   0  0  0  0  0  0  0  0  0  0  0  0
   -6.6276   25.1616  -32.2545 H   0  0  0  0  0  0  0  0  0  0  0  0
   -2.6619   22.4744  -29.6392 H   0  0  0  0  0  0  0  0  0  0  0  0
   -4.5686   20.7531  -30.9520 H   0  0  0  0  0  0  0  0  0  0  0  0
  1  2  2  0
  2  3  2  0
  2  4  1  0
  4  5  1  0
  5  6  2  0
  6  7  1  0
  7  8  2  0
  8  9  1  0
  9 10  2  0
 10 11  1  0
 11 12  1  0
 12 13  1  0
 13 14  1  0
 14 15  1  0
 15 16  1  0
 10 17  1  0
 17 18  2  0
 18 19  1  0
 19 20  2  0
  2 21  1  0
 21 22  2  0
 22 23  1  0
 23 24  2  0
 24 25  1  0
 25 26  1  0
 26 27  1  0
 26 28  2  0
 28 29  1  0
 29 30  2  0
 20  5  1  0
 30 21  1  0
 20  9  1  0
 29 24  1  0
 16 11  1  0
  6 31  1  0
  7 32  1  0
  8 33  1  0
 12 34  1  0
 12 35  1  0
 13 36  1  0
 13 37  1  0
 14 38  1  0
 15 39  1  0
 15 40  1  0
 16 41  1  0
 16 42  1  0
 17 43  1  0
 18 44  1  0
 19 45  1  0
 22 46  1  0
 23 47  1  0
 28 48  1  0
 30 49  1  0
M  CHG  3   4  -1  25  -1  27  -1
M  END
>  <UniqueID>  (38) 
38

>  <SMILES>  (38) 
O=S(=O)([N-]c1cccc2c(N3CCNCC3)cccc12)c1ccc2[n-]c([O-])cc2c1

>  <Energy>  (38) 
107.1289832573087

>  <Genealogy>  (38) 
O=S(=O)([N-]c1cccc2c(N3CCNCC3)cccc12)c1ccc2[n-]c([O-])cc2c1 (protonated)
O=S(=O)([N-]c1cccc2c(N3CCNCC3)cccc12)c1ccc2[n-]c([O-])cc2c1 (3D coordinates assigned)
O=S(=O)([N-]c1cccc2c(N3CCNCC3)cccc12)c1ccc2[n-]c([O-])cc2c1 (nonaromatic ring conformer: 107.1289832573087 kcal/mol)

>  <smiles>  (38) 
O=S(=O)(Nc1cccc2c(N3CCNCC3)cccc12)c1ccc2[nH]c(O)cc2c1

>  <score_type>  (38) 
oracle

>  <origin>  (38) 
adgpu

>  <m_score__min__energy>  (38) 
-13.07

>  <m_primary>  (38) 
energy

$$$$
38:0
     RDKit          3D

 56 59  0  0  0  0  0  0  0  0999 V2000
    0.2610   21.4260  -34.2200 O   0  0  0  0  0  0  0  0  0  0  0  0
   -0.3990   21.1570  -33.1800 C   0  0  0  0  0  0  0  0  0  0  0  0
    0.2080   21.2990  -31.8870 N   0  0  0  0  0  0  0  0  0  0  0  0
   -0.4730   21.5400  -30.6450 C   0  0  0  0  0  0  0  0  0  0  0  0
   -1.2820   22.6770  -30.4630 C   0  0  0  0  0  0  0  0  0  0  0  0
   -1.9400   22.8960  -29.2460 C   0  0  0  0  0  0  0  0  0  0  0  0
   -2.9440   24.3340  -29.0220 S   0  0  0  0  0  0  0  0  0  0  0  0
   -3.6690   24.2250  -27.7090 O   0  0  0  0  0  0  0  0  0  0  0  0
   -2.0570   25.5470  -28.9630 O   0  0  0  0  0  0  0  0  0  0  0  0
   -4.1140   24.5480  -30.3020 N   0  0  0  0  0  0  0  0  0  0  0  0
   -4.4310   23.2900  -30.9730 C   0  0  0  0  0  0  0  0  0  0  0  0
   -5.8220   23.4570  -31.5640 C   0  0  0  0  0  0  0  0  0  0  0  0
   -6.4470   24.6160  -30.8020 C   0  0  0  0  0  0  0  0  0  0  0  0
   -5.3890   25.0580  -29.8030 C   0  0  0  0  0  0  0  0  0  0  0  0
   -1.8200   21.9540  -28.2170 C   0  0  0  0  0  0  0  0  0  0  0  0
   -1.0470   20.8070  -28.4010 C   0  0  0  0  0  0  0  0  0  0  0  0
   -0.3760   20.5910  -29.6090 C   0  0  0  0  0  0  0  0  0  0  0  0
    0.3850   19.4310  -29.7560 O   0  0  0  0  0  0  0  0  0  0  0  0
   -1.7830   20.6420  -33.2950 C   0  0  0  0  0  0  0  0  0  0  0  0
   -2.0250   19.2640  -33.4410 C   0  0  0  0  0  0  0  0  0  0  0  0
   -3.3330   18.7800  -33.5500 C   0  0  0  0  0  0  0  0  0  0  0  0
   -4.4180   19.6640  -33.5130 C   0  0  0  0  0  0  0  0  0  0  0  0
   -6.0700   19.0730  -33.6680 S   0  0  0  0  0  0  0  0  0  0  0  0
   -6.8680   19.9970  -34.5460 O   0  0  0  0  0  0  0  0  0  0  0  0
   -6.0310   17.7140  -34.3100 O   0  0  0  0  0  0  0  0  0  0  0  0
   -6.8040   18.9570  -32.0820 N   0  0  0  0  0  0  0  0  0  0  0  0
   -7.1210   20.2920  -31.5620 C   0  0  0  0  0  0  0  0  0  0  0  0
   -8.5620   20.6150  -31.9320 C   0  0  0  0  0  0  0  0  0  0  0  0
   -9.1880   19.2920  -32.3290 C   0  0  0  0  0  0  0  0  0  0  0  0
   -8.0880   18.2540  -32.1610 C   0  0  0  0  0  0  0  0  0  0  0  0
   -4.1850   21.0380  -33.3720 C   0  0  0  0  0  0  0  0  0  0  0  0
   -2.8790   21.5240  -33.2620 C   0  0  0  0  0  0  0  0  0  0  0  0
   -1.3987   23.4001  -31.2837 H   0  0  0  0  0  0  0  0  0  0  0  0
   -3.7004   23.0896  -31.7705 H   0  0  0  0  0  0  0  0  0  0  0  0
   -4.3950   22.4437  -30.2712 H   0  0  0  0  0  0  0  0  0  0  0  0
   -5.7589   23.6910  -32.6370 H   0  0  0  0  0  0  0  0  0  0  0  0
   -6.4189   22.5375  -31.4727 H   0  0  0  0  0  0  0  0  0  0  0  0
   -6.6960   25.4386  -31.4885 H   0  0  0  0  0  0  0  0  0  0  0  0
   -7.3828   24.3218  -30.3043 H   0  0  0  0  0  0  0  0  0  0  0  0
   -5.3610   26.1558  -29.7388 H   0  0  0  0  0  0  0  0  0  0  0  0
   -5.6059   24.6740  -28.7953 H   0  0  0  0  0  0  0  0  0  0  0  0
   -2.3370   22.1188  -27.2601 H   0  0  0  0  0  0  0  0  0  0  0  0
   -0.9648   20.0677  -27.5906 H   0  0  0  0  0  0  0  0  0  0  0  0
    0.8870   19.2150  -30.6100 H   0  0  0  0  0  0  0  0  0  0  0  0
   -1.1791   18.5615  -33.4697 H   0  0  0  0  0  0  0  0  0  0  0  0
   -3.5097   17.7004  -33.6652 H   0  0  0  0  0  0  0  0  0  0  0  0
   -7.0057   20.3029  -30.4681 H   0  0  0  0  0  0  0  0  0  0  0  0
   -6.4402   21.0403  -31.9940 H   0  0  0  0  0  0  0  0  0  0  0  0
   -9.0919   21.0472  -31.0704 H   0  0  0  0  0  0  0  0  0  0  0  0
   -8.6174   21.3520  -32.7467 H   0  0  0  0  0  0  0  0  0  0  0  0
  -10.0402   19.0582  -31.6740 H   0  0  0  0  0  0  0  0  0  0  0  0
   -9.5723   19.3157  -33.3594 H   0  0  0  0  0  0  0  0  0  0  0  0
   -8.2556   17.6797  -31.2379 H   0  0  0  0  0  0  0  0  0  0  0  0
   -8.0887   17.5580  -33.0128 H   0  0  0  0  0  0  0  0  0  0  0  0
   -5.0335   21.7376  -33.3477 H   0  0  0  0  0  0  0  0  0  0  0  0
   -2.7066   22.6045  -33.1487 H   0  0  0  0  0  0  0  0  0  0  0  0
  1  2  2  0
  2  3  1  0
  3  4  1  0
  4  5  2  0
  5  6  1  0
  6  7  1  0
  7  8  2  0
  7  9  2  0
  7 10  1  0
 10 11  1  0
 11 12  1  0
 12 13  1  0
 13 14  1  0
  6 15  2  0
 15 16  1  0
 16 17  2  0
 17 18  1  0
  2 19  1  0
 19 20  2  0
 20 21  1  0
 21 22  2  0
 22 23  1  0
 23 24  2  0
 23 25  2  0
 23 26  1  0
 26 27  1  0
 27 28  1  0
 28 29  1  0
 29 30  1  0
 22 31  1  0
 31 32  2  0
 17  4  1  0
 32 19  1  0
 14 10  1  0
 30 26  1  0
  5 33  1  0
 11 34  1  0
 11 35  1  0
 12 36  1  0
 12 37  1  0
 13 38  1  0
 13 39  1  0
 14 40  1  0
 14 41  1  0
 15 42  1  0
 16 43  1  0
 18 44  1  0
 20 45  1  0
 21 46  1  0
 27 47  1  0
 27 48  1  0
 28 49  1  0
 28 50  1  0
 29 51  1  0
 29 52  1  0
 30 53  1  0
 30 54  1  0
 31 55  1  0
 32 56  1  0
M  CHG  1   3  -1
M  END
>  <UniqueID>  (39) 
39

>  <SMILES>  (39) 
O=C([N-]c1cc(S(=O)(=O)N2CCCC2)ccc1O)c1ccc(S(=O)(=O)N2CCCC2)cc1

>  <Energy>  (39) 
64.51967762573855

>  <Genealogy>  (39) 
O=C([N-]c1cc(S(=O)(=O)N2CCCC2)ccc1O)c1ccc(S(=O)(=O)N2CCCC2)cc1 (protonated)
O=C([N-]c1cc(S(=O)(=O)N2CCCC2)ccc1O)c1ccc(S(=O)(=O)N2CCCC2)cc1 (3D coordinates assigned)
O=C([N-]c1cc(S(=O)(=O)N2CCCC2)ccc1O)c1ccc(S(=O)(=O)N2CCCC2)cc1 (nonaromatic ring conformer: 64.51967762573855 kcal/mol)

>  <smiles>  (39) 
O=C(Nc1cc(S(=O)(=O)N2CCCC2)ccc1O)c1ccc(S(=O)(=O)N2CCCC2)cc1

>  <score_type>  (39) 
oracle

>  <origin>  (39) 
adgpu

>  <m_score__min__energy>  (39) 
-12.869999999999999

>  <m_primary>  (39) 
energy

$$$$
39:0
     RDKit          3D

 66 69  0  0  0  0  0  0  0  0999 V2000
   -5.2090   17.2180  -34.5540 C   0  0  0  0  0  0  0  0  0  0  0  0
   -4.5780   18.4600  -34.0030 C   0  0  0  0  0  0  0  0  0  0  0  0
   -3.2420   18.7860  -34.1390 C   0  0  0  0  0  0  0  0  0  0  0  0
   -3.0470   19.9450  -33.4120 C   0  0  0  0  0  0  0  0  0  0  0  0
   -1.7170   20.5970  -33.1600 C   0  0  0  0  0  0  0  0  0  0  0  0
   -1.1190   20.0760  -31.8820 C   0  0  0  0  0  0  0  0  0  0  0  0
   -1.3720   18.8930  -31.5340 O   0  0  0  0  0  0  0  0  0  0  0  0
   -0.2860   20.8750  -31.0310 N   0  0  0  0  0  0  0  0  0  0  0  0
   -0.5360   22.2530  -30.6180 C   0  0  0  0  0  0  0  0  0  0  0  0
   -1.8070   22.3700  -29.8090 C   0  0  0  0  0  0  0  0  0  0  0  0
   -2.7880   23.2950  -30.2080 C   0  0  0  0  0  0  0  0  0  0  0  0
   -3.9760   23.4390  -29.4830 C   0  0  0  0  0  0  0  0  0  0  0  0
   -5.1650   24.6350  -29.9940 S   0  0  0  0  0  0  0  0  0  0  0  0
   -6.4720   23.8320  -30.8960 C   0  0  0  0  0  0  0  0  0  0  0  0
   -4.4960   25.6560  -30.8710 O   0  0  0  0  0  0  0  0  0  0  0  0
   -5.7530   25.3310  -28.7980 O   0  0  0  0  0  0  0  0  0  0  0  0
   -4.2040   22.6380  -28.3610 C   0  0  0  0  0  0  0  0  0  0  0  0
   -3.2500   21.7020  -27.9630 C   0  0  0  0  0  0  0  0  0  0  0  0
   -2.0530   21.5540  -28.6800 C   0  0  0  0  0  0  0  0  0  0  0  0
   -1.0860   20.5930  -28.2320 N   0  0  0  0  0  0  0  0  0  0  0  0
   -1.5560   19.2510  -27.8620 C   0  0  0  0  0  0  0  0  0  0  0  0
   -0.4060   18.3670  -27.3600 C   0  0  0  0  0  0  0  0  0  0  0  0
    0.8440   18.6010  -28.2110 C   0  0  0  0  0  0  0  0  0  0  0  0
    1.3430   20.0550  -28.0990 C   0  0  0  0  0  0  0  0  0  0  0  0
    0.2280   21.0710  -27.7830 C   0  0  0  0  0  0  0  0  0  0  0  0
   -4.2790   20.2910  -32.8710 C   0  0  0  0  0  0  0  0  0  0  0  0
   -4.5380   21.4750  -31.9860 C   0  0  0  0  0  0  0  0  0  0  0  0
   -5.2090   19.3750  -33.2350 N   0  0  0  0  0  0  0  0  0  0  0  0
   -6.5860   19.3350  -32.8230 C   0  0  0  0  0  0  0  0  0  0  0  0
   -7.4270   20.4340  -33.0550 C   0  0  0  0  0  0  0  0  0  0  0  0
   -8.7670   20.3930  -32.6550 C   0  0  0  0  0  0  0  0  0  0  0  0
   -9.2730   19.2560  -32.0180 C   0  0  0  0  0  0  0  0  0  0  0  0
   -8.4400   18.1600  -31.7810 C   0  0  0  0  0  0  0  0  0  0  0  0
   -7.1020   18.1950  -32.1840 C   0  0  0  0  0  0  0  0  0  0  0  0
   -5.5362   16.5740  -33.7245 H   0  0  0  0  0  0  0  0  0  0  0  0
   -6.0778   17.4909  -35.1711 H   0  0  0  0  0  0  0  0  0  0  0  0
   -4.4763   16.6772  -35.1711 H   0  0  0  0  0  0  0  0  0  0  0  0
   -2.4838   18.2325  -34.7124 H   0  0  0  0  0  0  0  0  0  0  0  0
   -1.0383   20.3740  -33.9965 H   0  0  0  0  0  0  0  0  0  0  0  0
   -1.8601   21.6842  -33.0732 H   0  0  0  0  0  0  0  0  0  0  0  0
    0.3095   22.6013  -30.0066 H   0  0  0  0  0  0  0  0  0  0  0  0
   -0.6466   22.8685  -31.5230 H   0  0  0  0  0  0  0  0  0  0  0  0
   -2.6192   23.9135  -31.1018 H   0  0  0  0  0  0  0  0  0  0  0  0
   -7.1892   23.3914  -30.1879 H   0  0  0  0  0  0  0  0  0  0  0  0
   -6.9875   24.5694  -31.5289 H   0  0  0  0  0  0  0  0  0  0  0  0
   -6.0472   23.0389  -31.5289 H   0  0  0  0  0  0  0  0  0  0  0  0
   -5.1382   22.7460  -27.7904 H   0  0  0  0  0  0  0  0  0  0  0  0
   -3.4375   21.0743  -27.0794 H   0  0  0  0  0  0  0  0  0  0  0  0
   -2.3088   19.3437  -27.0653 H   0  0  0  0  0  0  0  0  0  0  0  0
   -1.9868   18.7788  -28.7572 H   0  0  0  0  0  0  0  0  0  0  0  0
   -0.1851   18.6171  -26.3118 H   0  0  0  0  0  0  0  0  0  0  0  0
   -0.7026   17.3105  -27.4370 H   0  0  0  0  0  0  0  0  0  0  0  0
    1.6402   17.9231  -27.8697 H   0  0  0  0  0  0  0  0  0  0  0  0
    0.5858   18.4060  -29.2623 H   0  0  0  0  0  0  0  0  0  0  0  0
    2.0942   20.1034  -27.2969 H   0  0  0  0  0  0  0  0  0  0  0  0
    1.7579   20.3285  -29.0803 H   0  0  0  0  0  0  0  0  0  0  0  0
    0.1946   21.2370  -26.6961 H   0  0  0  0  0  0  0  0  0  0  0  0
    0.4540   22.0053  -28.3178 H   0  0  0  0  0  0  0  0  0  0  0  0
   -4.4706   21.1668  -30.9322 H   0  0  0  0  0  0  0  0  0  0  0  0
   -3.7892   22.2549  -32.1886 H   0  0  0  0  0  0  0  0  0  0  0  0
   -5.5440   21.8711  -32.1886 H   0  0  0  0  0  0  0  0  0  0  0  0
   -7.0312   21.3312  -33.5533 H   0  0  0  0  0  0  0  0  0  0  0  0
   -9.4230   21.2560  -32.8418 H   0  0  0  0  0  0  0  0  0  0  0  0
  -10.3266   19.2245  -31.7036 H   0  0  0  0  0  0  0  0  0  0  0  0
   -8.8379   17.2674  -31.2761 H   0  0  0  0  0  0  0  0  0  0  0  0
   -6.4511   17.3275  -32.0003 H   0  0  0  0  0  0  0  0  0  0  0  0
  1  2  1  0
  2  3  2  0
  3  4  1  0
  4  5  1  0
  5  6  1  0
  6  7  2  0
  6  8  1  0
  8  9  1  0
  9 10  1  0
 10 11  2  0
 11 12  1  0
 12 13  1  0
 13 14  1  0
 13 15  2  0
 13 16  2  0
 12 17  2  0
 17 18  1  0
 18 19  2  0
 19 20  1  0
 20 21  1  0
 21 22  1  0
 22 23  1  0
 23 24  1  0
 24 25  1  0
  4 26  2  0
 26 27  1  0
 26 28  1  0
 28 29  1  0
 29 30  2  0
 30 31  1  0
 31 32  2  0
 32 33  1  0
 33 34  2  0
 28  2  1  0
 34 29  1  0
 19 10  1  0
 25 20  1  0
  1 35  1  0
  1 36  1  0
  1 37  1  0
  3 38  1  0
  5 39  1  0
  5 40  1  0
  9 41  1  0
  9 42  1  0
 11 43  1  0
 14 44  1  0
 14 45  1  0
 14 46  1  0
 17 47  1  0
 18 48  1  0
 21 49  1  0
 21 50  1  0
 22 51  1  0
 22 52  1  0
 23 53  1  0
 23 54  1  0
 24 55  1  0
 24 56  1  0
 25 57  1  0
 25 58  1  0
 27 59  1  0
 27 60  1  0
 27 61  1  0
 30 62  1  0
 31 63  1  0
 32 64  1  0
 33 65  1  0
 34 66  1  0
M  CHG  1   8  -1
M  END
>  <UniqueID>  (40) 
40

>  <SMILES>  (40) 
Cc1cc(CC(=O)[N-]Cc2cc(S(C)(=O)=O)ccc2N2CCCCC2)c(C)n1-c1ccccc1

>  <Energy>  (40) 
97.30276293336273

>  <Genealogy>  (40) 
Cc1cc(CC(=O)[N-]Cc2cc(S(C)(=O)=O)ccc2N2CCCCC2)c(C)n1-c1ccccc1 (protonated)
Cc1cc(CC(=O)[N-]Cc2cc(S(C)(=O)=O)ccc2N2CCCCC2)c(C)n1-c1ccccc1 (3D coordinates assigned)
Cc1cc(CC(=O)[N-]Cc2cc(S(C)(=O)=O)ccc2N2CCCCC2)c(C)n1-c1ccccc1 (nonaromatic ring conformer: 97.30276293336273 kcal/mol)

>  <smiles>  (40) 
Cc1cc(CC(=O)NCc2cc(S(C)(=O)=O)ccc2N2CCCCC2)c(C)n1-c1ccccc1

>  <score_type>  (40) 
oracle

>  <origin>  (40) 
adgpu

>  <m_score__min__energy>  (40) 
-12.44

>  <m_primary>  (40) 
energy

$$$$
40:0
     RDKit          3D

 45 48  0  0  0  0  0  0  0  0999 V2000
   -1.9570   24.9720  -29.2300 O   0  0  0  0  0  0  0  0  0  0  0  0
   -3.0330   24.5350  -29.7130 C   0  0  0  0  0  0  0  0  0  0  0  0
   -3.8560   25.3050  -30.4680 N   0  0  0  0  0  0  0  0  0  0  0  0
   -4.8460   24.4500  -30.7620 C   0  0  0  0  0  0  0  0  0  0  0  0
   -5.9730   24.6880  -31.5410 C   0  0  0  0  0  0  0  0  0  0  0  0
   -6.8740   23.6250  -31.7340 C   0  0  0  0  0  0  0  0  0  0  0  0
   -6.6390   22.3530  -31.1390 C   0  0  0  0  0  0  0  0  0  0  0  0
   -7.5450   21.2510  -31.3200 N   0  0  0  0  0  0  0  0  0  0  0  0
   -7.1650   19.8110  -32.2100 S   0  0  0  0  0  0  0  0  0  0  0  0
   -7.4490   18.6070  -31.3540 O   0  0  0  0  0  0  0  0  0  0  0  0
   -8.0280   19.7430  -33.4370 O   0  0  0  0  0  0  0  0  0  0  0  0
   -5.4760   19.8450  -32.7090 C   0  0  0  0  0  0  0  0  0  0  0  0
   -4.7500   18.6520  -32.7770 C   0  0  0  0  0  0  0  0  0  0  0  0
   -3.4070   18.6690  -33.1590 C   0  0  0  0  0  0  0  0  0  0  0  0
   -2.7770   19.8820  -33.4740 C   0  0  0  0  0  0  0  0  0  0  0  0
   -1.0650   19.9080  -33.9090 S   0  0  0  0  0  0  0  0  0  0  0  0
   -0.6220   18.5170  -34.2690 O   0  0  0  0  0  0  0  0  0  0  0  0
   -0.8730   20.7850  -35.1150 O   0  0  0  0  0  0  0  0  0  0  0  0
   -0.0750   20.4990  -32.5930 N   0  0  0  0  0  0  0  0  0  0  0  0
    0.6440   19.3990  -31.9160 C   0  0  0  0  0  0  0  0  0  0  0  0
    0.0020   19.0370  -30.5630 C   0  0  0  0  0  0  0  0  0  0  0  0
   -0.0610   20.1280  -29.6540 O   0  0  0  0  0  0  0  0  0  0  0  0
   -0.2130   21.3930  -30.2870 C   0  0  0  0  0  0  0  0  0  0  0  0
   -0.8810   21.3190  -31.6690 C   0  0  0  0  0  0  0  0  0  0  0  0
   -3.5110   21.0740  -33.4250 C   0  0  0  0  0  0  0  0  0  0  0  0
   -4.8520   21.0560  -33.0380 C   0  0  0  0  0  0  0  0  0  0  0  0
   -5.4760   22.1610  -30.3610 C   0  0  0  0  0  0  0  0  0  0  0  0
   -4.6050   23.2340  -30.2010 C   0  0  0  0  0  0  0  0  0  0  0  0
   -3.4490   23.2570  -29.5220 N   0  0  0  0  0  0  0  0  0  0  0  0
   -6.1541   25.6750  -31.9915 H   0  0  0  0  0  0  0  0  0  0  0  0
   -7.7709   23.7784  -32.3521 H   0  0  0  0  0  0  0  0  0  0  0  0
   -8.5110   21.3220  -30.9300 H   0  0  0  0  0  0  0  0  0  0  0  0
   -5.2379   17.6978  -32.5290 H   0  0  0  0  0  0  0  0  0  0  0  0
   -2.8409   17.7274  -33.2131 H   0  0  0  0  0  0  0  0  0  0  0  0
    0.6280   18.5114  -32.5656 H   0  0  0  0  0  0  0  0  0  0  0  0
    1.6744   19.7333  -31.7248 H   0  0  0  0  0  0  0  0  0  0  0  0
   -1.0215   18.6789  -30.7482 H   0  0  0  0  0  0  0  0  0  0  0  0
    0.6367   18.2671  -30.1000 H   0  0  0  0  0  0  0  0  0  0  0  0
   -0.8284   22.0337  -29.6383 H   0  0  0  0  0  0  0  0  0  0  0  0
    0.7982   21.7975  -30.4413 H   0  0  0  0  0  0  0  0  0  0  0  0
   -1.8794   20.8694  -31.5641 H   0  0  0  0  0  0  0  0  0  0  0  0
   -0.9626   22.3369  -32.0780 H   0  0  0  0  0  0  0  0  0  0  0  0
   -3.0296   22.0263  -33.6921 H   0  0  0  0  0  0  0  0  0  0  0  0
   -5.4213   21.9961  -32.9911 H   0  0  0  0  0  0  0  0  0  0  0  0
   -5.2643   21.1880  -29.8935 H   0  0  0  0  0  0  0  0  0  0  0  0
  1  2  2  0
  2  3  1  0
  3  4  1  0
  4  5  2  0
  5  6  1  0
  6  7  2  0
  7  8  1  0
  8  9  1  0
  9 10  2  0
  9 11  2  0
  9 12  1  0
 12 13  2  0
 13 14  1  0
 14 15  2  0
 15 16  1  0
 16 17  2  0
 16 18  2  0
 16 19  1  0
 19 20  1  0
 20 21  1  0
 21 22  1  0
 22 23  1  0
 23 24  1  0
 15 25  1  0
 25 26  2  0
  7 27  1  0
 27 28  2  0
 28 29  1  0
 29  2  1  0
 28  4  1  0
 26 12  1  0
 24 19  1  0
  5 30  1  0
  6 31  1  0
  8 32  1  0
 13 33  1  0
 14 34  1  0
 20 35  1  0
 20 36  1  0
 21 37  1  0
 21 38  1  0
 23 39  1  0
 23 40  1  0
 24 41  1  0
 24 42  1  0
 25 43  1  0
 26 44  1  0
 27 45  1  0
M  CHG  2   3  -1  29  -1
M  END
>  <UniqueID>  (41) 
41

>  <SMILES>  (41) 
O=c1[n-]c2ccc(NS(=O)(=O)c3ccc(S(=O)(=O)N4CCOCC4)cc3)cc2[n-]1

>  <Energy>  (41) 
98.24854411068658

>  <Genealogy>  (41) 
O=c1[n-]c2ccc(NS(=O)(=O)c3ccc(S(=O)(=O)N4CCOCC4)cc3)cc2[n-]1 (protonated)
O=c1[n-]c2ccc(NS(=O)(=O)c3ccc(S(=O)(=O)N4CCOCC4)cc3)cc2[n-]1 (3D coordinates assigned)
O=c1[n-]c2ccc(NS(=O)(=O)c3ccc(S(=O)(=O)N4CCOCC4)cc3)cc2[n-]1 (nonaromatic ring conformer: 98.24854411068658 kcal/mol)

>  <smiles>  (41) 
O=c1[nH]c2ccc(NS(=O)(=O)c3ccc(S(=O)(=O)N4CCOCC4)cc3)cc2[nH]1

>  <score_type>  (41) 
oracle

>  <origin>  (41) 
adgpu

>  <m_score__min__energy>  (41) 
-11.94

>  <m_primary>  (41) 
energy

$$$$
41:0
     RDKit          3D

 43 46  0  0  0  0  0  0  0  0999 V2000
   -6.7530   23.4990  -29.8570 C   0  0  0  0  0  0  0  0  0  0  0  0
   -5.5350   22.7870  -30.2360 N   0  0  0  0  0  0  0  0  0  0  0  0
   -5.3760   21.6670  -31.0110 C   0  0  0  0  0  0  0  0  0  0  0  0
   -6.4830   20.9000  -31.6220 C   0  0  0  0  0  0  0  0  0  0  0  0
   -7.8210   21.2390  -31.3720 C   0  0  0  0  0  0  0  0  0  0  0  0
   -8.8560   20.4800  -31.9260 C   0  0  0  0  0  0  0  0  0  0  0  0
   -8.5630   19.3690  -32.7210 C   0  0  0  0  0  0  0  0  0  0  0  0
   -7.2260   19.0060  -32.9660 C   0  0  0  0  0  0  0  0  0  0  0  0
   -6.8790   17.8670  -33.7660 N   0  0  0  0  0  0  0  0  0  0  0  0
   -5.2770   17.4540  -34.2830 S   0  0  0  0  0  0  0  0  0  0  0  0
   -4.3180   18.5120  -33.8160 O   0  0  0  0  0  0  0  0  0  0  0  0
   -5.2430   17.4120  -35.7850 O   0  0  0  0  0  0  0  0  0  0  0  0
   -4.8440   15.8590  -33.6650 C   0  0  0  0  0  0  0  0  0  0  0  0
   -4.3570   14.8980  -34.5620 C   0  0  0  0  0  0  0  0  0  0  0  0
   -4.0040   13.6240  -34.1070 C   0  0  0  0  0  0  0  0  0  0  0  0
   -4.1470   13.2990  -32.7550 C   0  0  0  0  0  0  0  0  0  0  0  0
   -4.6350   14.2490  -31.8550 C   0  0  0  0  0  0  0  0  0  0  0  0
   -4.9810   15.5290  -32.3030 C   0  0  0  0  0  0  0  0  0  0  0  0
   -5.4540   16.4300  -31.4060 F   0  0  0  0  0  0  0  0  0  0  0  0
   -6.1950   19.7740  -32.4100 C   0  0  0  0  0  0  0  0  0  0  0  0
   -4.0680   21.3020  -31.1860 N   0  0  0  0  0  0  0  0  0  0  0  0
   -3.4400   22.2400  -30.4630 C   0  0  0  0  0  0  0  0  0  0  0  0
   -1.8430   22.5730  -30.0940 S   0  0  0  0  0  0  0  0  0  0  0  0
   -2.3030   23.9320  -29.1500 C   0  0  0  0  0  0  0  0  0  0  0  0
   -1.1650   24.9570  -28.2950 S   0  0  0  0  0  0  0  0  0  0  0  0
   -1.2050   26.5500  -28.9630 N   0  0  0  0  0  0  0  0  0  0  0  0
   -1.5390   25.0270  -26.8410 O   0  0  0  0  0  0  0  0  0  0  0  0
    0.2190   24.3900  -28.4290 O   0  0  0  0  0  0  0  0  0  0  0  0
   -3.6980   24.1010  -29.1360 C   0  0  0  0  0  0  0  0  0  0  0  0
   -4.2780   23.1020  -29.9040 C   0  0  0  0  0  0  0  0  0  0  0  0
   -6.8264   23.5419  -28.7603 H   0  0  0  0  0  0  0  0  0  0  0  0
   -6.7216   24.5210  -30.2627 H   0  0  0  0  0  0  0  0  0  0  0  0
   -7.6281   22.9702  -30.2627 H   0  0  0  0  0  0  0  0  0  0  0  0
   -8.0569   22.1059  -30.7372 H   0  0  0  0  0  0  0  0  0  0  0  0
   -9.9031   20.7580  -31.7357 H   0  0  0  0  0  0  0  0  0  0  0  0
   -9.3806   18.7760  -33.1569 H   0  0  0  0  0  0  0  0  0  0  0  0
   -4.2522   15.1473  -35.6282 H   0  0  0  0  0  0  0  0  0  0  0  0
   -3.6134   12.8768  -34.8135 H   0  0  0  0  0  0  0  0  0  0  0  0
   -3.8749   12.2942  -32.3996 H   0  0  0  0  0  0  0  0  0  0  0  0
   -4.7477   13.9906  -30.7917 H   0  0  0  0  0  0  0  0  0  0  0  0
   -5.1476   19.4918  -32.5928 H   0  0  0  0  0  0  0  0  0  0  0  0
   -0.8660   26.4770  -29.9480 H   0  0  0  0  0  0  0  0  0  0  0  0
   -4.2411   24.8955  -28.6032 H   0  0  0  0  0  0  0  0  0  0  0  0
  1  2  1  0
  2  3  1  0
  3  4  1  0
  4  5  2  0
  5  6  1  0
  6  7  2  0
  7  8  1  0
  8  9  1  0
  9 10  1  0
 10 11  2  0
 10 12  2  0
 10 13  1  0
 13 14  2  0
 14 15  1  0
 15 16  2  0
 16 17  1  0
 17 18  2  0
 18 19  1  0
  8 20  2  0
  3 21  2  0
 21 22  1  0
 22 23  1  0
 23 24  1  0
 24 25  1  0
 25 26  1  0
 25 27  2  0
 25 28  2  0
 24 29  2  0
 29 30  1  0
 30  2  1  0
 20  4  1  0
 30 22  2  0
 18 13  1  0
  1 31  1  0
  1 32  1  0
  1 33  1  0
  5 34  1  0
  6 35  1  0
  7 36  1  0
 14 37  1  0
 15 38  1  0
 16 39  1  0
 17 40  1  0
 20 41  1  0
 26 42  1  0
 29 43  1  0
M  CHG  2   9  -1  26  -1
M  END
>  <UniqueID>  (42) 
42

>  <SMILES>  (42) 
Cn1c(-c2cccc([N-]S(=O)(=O)c3ccccc3F)c2)nc2sc(S([NH-])(=O)=O)cc21

>  <Energy>  (42) 
135.69851148907574

>  <Genealogy>  (42) 
Cn1c(-c2cccc([N-]S(=O)(=O)c3ccccc3F)c2)nc2sc(S([NH-])(=O)=O)cc21 (protonated)
Cn1c(-c2cccc([N-]S(=O)(=O)c3ccccc3F)c2)nc2sc(S([NH-])(=O)=O)cc21 (3D coordinates assigned)
Cn1c(-c2cccc([N-]S(=O)(=O)c3ccccc3F)c2)nc2sc(S([NH-])(=O)=O)cc21 (optimized conformer: 135.69851148907574 kcal/mol)

>  <smiles>  (42) 
Cn1c(-c2cccc(NS(=O)(=O)c3ccccc3F)c2)nc2sc(S(N)(=O)=O)cc21

>  <score_type>  (42) 
oracle

>  <origin>  (42) 
adgpu

>  <m_score__min__energy>  (42) 
-11.109999999999999

>  <m_primary>  (42) 
energy

$$$$
42:0
     RDKit          3D

 44 47  0  0  0  0  0  0  0  0999 V2000
   -1.9110   22.4310  -29.9320 C   0  0  0  0  0  0  0  0  0  0  0  0
   -3.1220   23.2280  -30.1120 N   0  0  0  0  0  0  0  0  0  0  0  0
   -3.2850   24.5400  -29.8220 C   0  0  0  0  0  0  0  0  0  0  0  0
   -2.2710   25.3600  -29.3420 O   0  0  0  0  0  0  0  0  0  0  0  0
   -4.5900   24.9570  -30.0490 C   0  0  0  0  0  0  0  0  0  0  0  0
   -5.2450   23.8240  -30.4840 C   0  0  0  0  0  0  0  0  0  0  0  0
   -6.5790   23.6370  -30.8330 C   0  0  0  0  0  0  0  0  0  0  0  0
   -6.9870   22.3410  -31.2210 C   0  0  0  0  0  0  0  0  0  0  0  0
   -8.6570   22.0310  -31.6840 S   0  0  0  0  0  0  0  0  0  0  0  0
   -9.2850   23.2530  -32.2940 O   0  0  0  0  0  0  0  0  0  0  0  0
   -9.4370   21.6520  -30.4570 O   0  0  0  0  0  0  0  0  0  0  0  0
   -8.7170   20.7240  -32.8220 N   0  0  0  0  0  0  0  0  0  0  0  0
   -7.8200   19.6050  -32.8490 C   0  0  0  0  0  0  0  0  0  0  0  0
   -6.7300   19.5480  -33.7380 C   0  0  0  0  0  0  0  0  0  0  0  0
   -5.8850   18.4300  -33.7540 C   0  0  0  0  0  0  0  0  0  0  0  0
   -6.1210   17.3590  -32.8760 C   0  0  0  0  0  0  0  0  0  0  0  0
   -7.1930   17.4240  -31.9750 C   0  0  0  0  0  0  0  0  0  0  0  0
   -8.0450   18.5360  -31.9650 C   0  0  0  0  0  0  0  0  0  0  0  0
   -9.1160   18.5910  -31.0740 O   0  0  0  0  0  0  0  0  0  0  0  0
   -5.1510   16.2080  -32.8490 C   0  0  0  0  0  0  0  0  0  0  0  0
   -4.6550   15.8090  -34.2590 C   0  0  0  0  0  0  0  0  0  0  0  0
   -4.6300   16.9560  -35.3010 C   0  0  0  0  0  0  0  0  0  0  0  0
   -4.7020   18.3540  -34.6770 C   0  0  0  0  0  0  0  0  0  0  0  0
   -6.0500   21.2810  -31.2440 C   0  0  0  0  0  0  0  0  0  0  0  0
   -4.7100   21.5010  -30.8820 C   0  0  0  0  0  0  0  0  0  0  0  0
   -4.3350   22.7940  -30.5070 C   0  0  0  0  0  0  0  0  0  0  0  0
   -1.7138   22.3012  -28.8576 H   0  0  0  0  0  0  0  0  0  0  0  0
   -2.0474   21.4456  -30.4014 H   0  0  0  0  0  0  0  0  0  0  0  0
   -1.0599   22.9461  -30.4014 H   0  0  0  0  0  0  0  0  0  0  0  0
   -5.0078   25.9654  -29.9124 H   0  0  0  0  0  0  0  0  0  0  0  0
   -7.2940   24.4725  -30.8076 H   0  0  0  0  0  0  0  0  0  0  0  0
   -6.5403   20.3863  -34.4245 H   0  0  0  0  0  0  0  0  0  0  0  0
   -7.3663   16.5965  -31.2713 H   0  0  0  0  0  0  0  0  0  0  0  0
   -9.5380   19.4730  -30.8070 H   0  0  0  0  0  0  0  0  0  0  0  0
   -4.2819   16.4950  -32.2389 H   0  0  0  0  0  0  0  0  0  0  0  0
   -5.6782   15.3404  -32.4255 H   0  0  0  0  0  0  0  0  0  0  0  0
   -3.6321   15.4164  -34.1610 H   0  0  0  0  0  0  0  0  0  0  0  0
   -5.3762   15.0697  -34.6374 H   0  0  0  0  0  0  0  0  0  0  0  0
   -3.6969   16.8807  -35.8786 H   0  0  0  0  0  0  0  0  0  0  0  0
   -5.5234   16.8381  -35.9318 H   0  0  0  0  0  0  0  0  0  0  0  0
   -3.7806   18.5499  -34.1090 H   0  0  0  0  0  0  0  0  0  0  0  0
   -4.8089   19.1058  -35.4729 H   0  0  0  0  0  0  0  0  0  0  0  0
   -6.3736   20.2747  -31.5483 H   0  0  0  0  0  0  0  0  0  0  0  0
   -3.9781   20.6799  -30.8935 H   0  0  0  0  0  0  0  0  0  0  0  0
  1  2  1  0
  2  3  1  0
  3  4  1  0
  3  5  2  0
  5  6  1  0
  6  7  2  0
  7  8  1  0
  8  9  1  0
  9 10  2  0
  9 11  2  0
  9 12  1  0
 12 13  1  0
 13 14  2  0
 14 15  1  0
 15 16  2  0
 16 17  1  0
 17 18  2  0
 18 19  1  0
 16 20  1  0
 20 21  1  0
 21 22  1  0
 22 23  1  0
  8 24  2  0
 24 25  1  0
 25 26  2  0
 26  2  1  0
 26  6  1  0
 18 13  1  0
 23 15  1  0
  1 27  1  0
  1 28  1  0
  1 29  1  0
  5 30  1  0
  7 31  1  0
 14 32  1  0
 17 33  1  0
 19 34  1  0
 20 35  1  0
 20 36  1  0
 21 37  1  0
 21 38  1  0
 22 39  1  0
 22 40  1  0
 23 41  1  0
 23 42  1  0
 24 43  1  0
 25 44  1  0
M  CHG  2   4  -1  12  -1
M  END
>  <UniqueID>  (43) 
43

>  <SMILES>  (43) 
Cn1c([O-])cc2cc(S(=O)(=O)[N-]c3cc4c(cc3O)CCCC4)ccc21

>  <Energy>  (43) 
88.50473535725123

>  <Genealogy>  (43) 
Cn1c([O-])cc2cc(S(=O)(=O)[N-]c3cc4c(cc3O)CCCC4)ccc21 (protonated)
Cn1c([O-])cc2cc(S(=O)(=O)[N-]c3cc4c(cc3O)CCCC4)ccc21 (3D coordinates assigned)
Cn1c([O-])cc2cc(S(=O)(=O)[N-]c3cc4c(cc3O)CCCC4)ccc21 (nonaromatic ring conformer: 88.50473535725123 kcal/mol)

>  <smiles>  (43) 
Cn1c(O)cc2cc(S(=O)(=O)Nc3cc4c(cc3O)CCCC4)ccc21

>  <score_type>  (43) 
oracle

>  <origin>  (43) 
adgpu

>  <m_score__min__energy>  (43) 
-12.119999999999999

>  <m_primary>  (43) 
energy

$$$$
43:0
     RDKit          3D

 48 49  0  0  0  0  0  0  0  0999 V2000
   -2.5570   20.9110  -32.6580 C   0  0  0  0  0  0  0  0  0  0  0  0
   -1.5260   21.7670  -31.9270 C   0  0  0  0  0  0  0  0  0  0  0  0
   -0.1830   21.0390  -31.8140 C   0  0  0  0  0  0  0  0  0  0  0  0
   -0.1410   20.2000  -30.5650 C   0  0  0  0  0  0  0  0  0  0  0  0
   -0.8920   20.5710  -29.4410 C   0  0  0  0  0  0  0  0  0  0  0  0
   -0.8850   19.7870  -28.2740 C   0  0  0  0  0  0  0  0  0  0  0  0
   -1.6940   20.2560  -27.0610 C   0  0  2  0  0  0  0  0  0  0  0  0
   -3.1760   19.8150  -27.1460 C   0  0  0  0  0  0  0  0  0  0  0  0
   -3.4870   18.6340  -26.2250 C   0  0  0  0  0  0  0  0  0  0  0  0
   -1.5770   21.7580  -26.8300 C   0  0  0  0  0  0  0  0  0  0  0  0
   -0.9690   22.1790  -25.8060 O   0  0  0  0  0  0  0  0  0  0  0  0
   -2.1520   22.7610  -27.7730 C   0  0  0  0  0  0  0  0  0  0  0  0
   -3.4130   22.5220  -28.3540 C   0  0  0  0  0  0  0  0  0  0  0  0
   -3.9750   23.4420  -29.2440 C   0  0  0  0  0  0  0  0  0  0  0  0
   -3.2870   24.6130  -29.5710 C   0  0  0  0  0  0  0  0  0  0  0  0
   -3.8530   25.5230  -30.4560 O   0  0  0  0  0  0  0  0  0  0  0  0
   -2.0320   24.8630  -29.0080 C   0  0  0  0  0  0  0  0  0  0  0  0
   -1.3420   26.0260  -29.3340 O   0  0  0  0  0  0  0  0  0  0  0  0
   -1.4660   23.9450  -28.1170 C   0  0  0  0  0  0  0  0  0  0  0  0
   -0.1180   18.5960  -28.2560 C   0  0  0  0  0  0  0  0  0  0  0  0
   -0.0940   17.7910  -27.1230 O   0  0  0  0  0  0  0  0  0  0  0  0
    0.6200   18.2120  -29.3900 C   0  0  0  0  0  0  0  0  0  0  0  0
    1.5830   16.7320  -29.3710 S   0  0  0  0  0  0  0  0  0  0  0  0
    2.3460   16.5430  -27.7760 C   0  0  0  0  0  0  0  0  0  0  0  0
    2.6560   16.7950  -30.4230 O   0  0  0  0  0  0  0  0  0  0  0  0
    0.6990   15.5490  -29.6560 O   0  0  0  0  0  0  0  0  0  0  0  0
    0.6050   19.0160  -30.5350 C   0  0  0  0  0  0  0  0  0  0  0  0
   -3.1868   20.3881  -31.9232 H   0  0  0  0  0  0  0  0  0  0  0  0
   -3.1873   21.5550  -33.2888 H   0  0  0  0  0  0  0  0  0  0  0  0
   -2.0399   20.1730  -33.2888 H   0  0  0  0  0  0  0  0  0  0  0  0
   -1.3801   22.7054  -32.4821 H   0  0  0  0  0  0  0  0  0  0  0  0
   -1.8985   21.9711  -30.9123 H   0  0  0  0  0  0  0  0  0  0  0  0
   -0.0487   20.3891  -32.6912 H   0  0  0  0  0  0  0  0  0  0  0  0
    0.6234   21.7857  -31.7680 H   0  0  0  0  0  0  0  0  0  0  0  0
   -1.4961   21.4897  -29.4725 H   0  0  0  0  0  0  0  0  0  0  0  0
   -1.2507   19.7592  -26.1854 H   0  0  0  0  0  0  0  0  0  0  0  0
   -3.8141   20.6639  -26.8595 H   0  0  0  0  0  0  0  0  0  0  0  0
   -3.3716   19.4944  -28.1799 H   0  0  0  0  0  0  0  0  0  0  0  0
   -3.4025   18.9548  -25.1762 H   0  0  0  0  0  0  0  0  0  0  0  0
   -4.5096   18.2777  -26.4182 H   0  0  0  0  0  0  0  0  0  0  0  0
   -2.7725   17.8203  -26.4182 H   0  0  0  0  0  0  0  0  0  0  0  0
   -3.9613   21.6016  -28.1047 H   0  0  0  0  0  0  0  0  0  0  0  0
   -4.9616   23.2433  -29.6880 H   0  0  0  0  0  0  0  0  0  0  0  0
   -0.4769   24.1481  -27.6805 H   0  0  0  0  0  0  0  0  0  0  0  0
    1.6004   16.7277  -26.9887 H   0  0  0  0  0  0  0  0  0  0  0  0
    2.7389   15.5204  -27.6763 H   0  0  0  0  0  0  0  0  0  0  0  0
    3.1708   17.2640  -27.6763 H   0  0  0  0  0  0  0  0  0  0  0  0
    1.1849   18.7148  -31.4199 H   0  0  0  0  0  0  0  0  0  0  0  0
  1  2  1  0
  2  3  1  0
  3  4  1  0
  4  5  2  0
  5  6  1  0
  6  7  1  0
  7  8  1  0
  8  9  1  0
  7 10  1  0
 10 11  2  0
 10 12  1  0
 12 13  2  0
 13 14  1  0
 14 15  2  0
 15 16  1  0
 15 17  1  0
 17 18  1  0
 17 19  2  0
  6 20  2  0
 20 21  1  0
 20 22  1  0
 22 23  1  0
 23 24  1  0
 23 25  2  0
 23 26  2  0
 22 27  2  0
 27  4  1  0
 19 12  1  0
  1 28  1  0
  1 29  1  0
  1 30  1  0
  2 31  1  0
  2 32  1  0
  3 33  1  0
  3 34  1  0
  5 35  1  0
  7 36  1  1
  8 37  1  0
  8 38  1  0
  9 39  1  0
  9 40  1  0
  9 41  1  0
 13 42  1  0
 14 43  1  0
 19 44  1  0
 24 45  1  0
 24 46  1  0
 24 47  1  0
 27 48  1  0
M  CHG  3  16  -1  18  -1  21  -1
M  END
>  <UniqueID>  (44) 
44

>  <SMILES>  (44) 
CCCc1cc([C@H](CC)C(=O)c2ccc([O-])c([O-])c2)c([O-])c(S(C)(=O)=O)c1

>  <Energy>  (44) 
44.00084154819341

>  <Genealogy>  (44) 
CCCc1cc(C(CC)C(=O)c2ccc([O-])c([O-])c2)c([O-])c(S(C)(=O)=O)c1 (protonated)
CCCc1cc([C@H](CC)C(=O)c2ccc([O-])c([O-])c2)c([O-])c(S(C)(=O)=O)c1 (chirality)
CCCc1cc([C@H](CC)C(=O)c2ccc([O-])c([O-])c2)c([O-])c(S(C)(=O)=O)c1 (3D coordinates assigned)
CCCc1cc([C@H](CC)C(=O)c2ccc([O-])c([O-])c2)c([O-])c(S(C)(=O)=O)c1 (optimized conformer: 44.00084154819341 kcal/mol)

>  <smiles>  (44) 
CCCc1cc(C(CC)C(=O)c2ccc(O)c(O)c2)c(O)c(S(C)(=O)=O)c1

>  <score_type>  (44) 
oracle

>  <origin>  (44) 
adgpu

>  <m_score__min__energy>  (44) 
-13.23

>  <m_primary>  (44) 
energy

$$$$
44:0
     RDKit          3D

 50 53  0  0  0  0  0  0  0  0999 V2000
   -1.9820   16.9870  -33.1520 H   0  0  0  0  0  0  0  0  0  0  0  0
   -2.2420   17.7570  -33.7550 O   0  0  0  0  0  0  0  0  0  0  0  0
   -2.6020   19.0150  -33.2700 C   0  0  0  0  0  0  0  0  0  0  0  0
   -1.6310   19.7840  -32.6220 C   0  0  0  0  0  0  0  0  0  0  0  0
   -0.6014   19.4055  -32.5403 H   0  0  0  0  0  0  0  0  0  0  0  0
   -1.9560   21.0290  -32.0770 C   0  0  0  0  0  0  0  0  0  0  0  0
   -0.6990   21.9590  -31.1980 S   0  0  0  0  0  0  0  0  0  0  0  0
   -1.2580   21.4880  -29.5470 C   0  0  0  0  0  0  0  0  0  0  0  0
   -1.3120   20.1180  -29.2450 C   0  0  0  0  0  0  0  0  0  0  0  0
   -0.9014   19.3864  -29.9565 H   0  0  0  0  0  0  0  0  0  0  0  0
   -1.8820   19.6760  -28.0500 C   0  0  0  0  0  0  0  0  0  0  0  0
   -1.8995   18.6020  -27.8130 H   0  0  0  0  0  0  0  0  0  0  0  0
   -2.4290   20.5960  -27.1570 C   0  0  0  0  0  0  0  0  0  0  0  0
   -2.8857   20.2465  -26.2193 H   0  0  0  0  0  0  0  0  0  0  0  0
   -2.3980   21.9600  -27.4510 C   0  0  0  0  0  0  0  0  0  0  0  0
   -2.8590   22.6780  -26.7568 H   0  0  0  0  0  0  0  0  0  0  0  0
   -1.7830   22.4240  -28.6260 C   0  0  0  0  0  0  0  0  0  0  0  0
   -1.8040   24.1970  -28.9700 S   0  0  0  0  0  0  0  0  0  0  0  0
   -3.5030   24.2320  -29.5760 C   0  0  0  0  0  0  0  0  0  0  0  0
   -3.8780   25.1850  -30.4700 N   0  0  0  0  0  0  0  0  0  0  0  0
   -5.1490   25.2620  -30.9470 C   0  0  0  0  0  0  0  0  0  0  0  0
   -5.4166   26.0422  -31.6747 H   0  0  0  0  0  0  0  0  0  0  0  0
   -6.1140   24.3520  -30.5140 C   0  0  0  0  0  0  0  0  0  0  0  0
   -7.1423   24.4039  -30.9013 H   0  0  0  0  0  0  0  0  0  0  0  0
   -5.7580   23.3760  -29.5840 C   0  0  0  0  0  0  0  0  0  0  0  0
   -6.5081   22.6552  -29.2266 H   0  0  0  0  0  0  0  0  0  0  0  0
   -4.4480   23.3160  -29.1080 C   0  0  0  0  0  0  0  0  0  0  0  0
   -4.1614   22.5528  -28.3695 H   0  0  0  0  0  0  0  0  0  0  0  0
   -3.2400   21.5530  -32.2610 C   0  0  0  0  0  0  0  0  0  0  0  0
   -3.4798   22.5617  -31.8937 H   0  0  0  0  0  0  0  0  0  0  0  0
   -4.2180   20.7960  -32.9110 C   0  0  0  0  0  0  0  0  0  0  0  0
   -5.2313   21.2043  -33.0392 H   0  0  0  0  0  0  0  0  0  0  0  0
   -3.9130   19.5170  -33.4010 C   0  0  0  0  0  0  0  0  0  0  0  0
   -4.9870   18.6980  -33.9910 C   0  0  0  0  0  0  0  0  0  0  0  0
   -4.8822   18.3588  -35.0321 H   0  0  0  0  0  0  0  0  0  0  0  0
   -6.0570   18.3600  -33.3260 N   0  0  0  0  0  0  0  0  0  0  0  0
   -6.3490   18.7170  -31.9290 C   0  0  0  0  0  0  0  0  0  0  0  0
   -6.6587   17.8126  -31.3848 H   0  0  0  0  0  0  0  0  0  0  0  0
   -5.4403   19.1465  -31.4820 H   0  0  0  0  0  0  0  0  0  0  0  0
   -7.4560   19.7460  -31.8470 C   0  0  0  0  0  0  0  0  0  0  0  0
   -7.2140   20.9990  -31.2550 C   0  0  0  0  0  0  0  0  0  0  0  0
   -6.2292   21.2210  -30.8180 H   0  0  0  0  0  0  0  0  0  0  0  0
   -8.2300   21.9640  -31.2230 C   0  0  0  0  0  0  0  0  0  0  0  0
   -8.0395   22.9444  -30.7620 H   0  0  0  0  0  0  0  0  0  0  0  0
   -9.4860   21.6860  -31.7750 C   0  0  0  0  0  0  0  0  0  0  0  0
  -10.2748   22.4526  -31.7608 H   0  0  0  0  0  0  0  0  0  0  0  0
   -9.7380   20.4350  -32.3440 C   0  0  0  0  0  0  0  0  0  0  0  0
  -10.7267   20.2151  -32.7731 H   0  0  0  0  0  0  0  0  0  0  0  0
   -8.7330   19.4620  -32.3680 C   0  0  0  0  0  0  0  0  0  0  0  0
   -8.9414   18.4703  -32.7959 H   0  0  0  0  0  0  0  0  0  0  0  0
  1  2  1  0
  2  3  1  0
  3  4  2  0
  4  5  1  0
  4  6  1  0
  6  7  1  0
  7  8  1  0
  8  9  2  0
  9 10  1  0
  9 11  1  0
 11 12  1  0
 11 13  2  0
 13 14  1  0
 13 15  1  0
 15 16  1  0
 15 17  2  0
 17 18  1  0
 18 19  1  0
 19 20  2  0
 20 21  1  0
 21 22  1  0
 21 23  2  0
 23 24  1  0
 23 25  1  0
 25 26  1  0
 25 27  2  0
 27 28  1  0
  6 29  2  0
 29 30  1  0
 29 31  1  0
 31 32  1  0
 31 33  2  0
 33 34  1  0
 34 35  1  0
 34 36  2  0
 36 37  1  0
 37 38  1  0
 37 39  1  0
 37 40  1  0
 40 41  2  0
 41 42  1  0
 41 43  1  0
 43 44  1  0
 43 45  2  0
 45 46  1  0
 45 47  1  0
 47 48  1  0
 47 49  2  0
 49 50  1  0
 33  3  1  0
 49 40  1  0
 17  8  1  0
 27 19  1  0
M  END
>  <UniqueID>  (45) 
45

>  <SMILES>  (45) 
Oc1cc(Sc2ccccc2Sc2ccccn2)ccc1/C=N\Cc1ccccc1

>  <Energy>  (45) 
54.756410645043864

>  <Genealogy>  (45) 
Oc1cc(Sc2ccccc2Sc2ccccn2)ccc1/C=N\Cc1ccccc1 (cis-trans isomerization)
Oc1cc(Sc2ccccc2Sc2ccccn2)ccc1/C=N\Cc1ccccc1 (3D coordinates assigned)
Oc1cc(Sc2ccccc2Sc2ccccn2)ccc1/C=N\Cc1ccccc1 (optimized conformer: 54.756410645043864 kcal/mol)

>  <smiles>  (45) 
Oc1cc(Sc2ccccc2Sc2ccccn2)ccc1C=NCc1ccccc1

>  <score_type>  (45) 
oracle

>  <origin>  (45) 
adgpu

>  <m_score__min__energy>  (45) 
-10.710000000000001

>  <m_primary>  (45) 
energy

$$$$
45:0
     RDKit          3D

 53 56  0  0  0  0  0  0  0  0999 V2000
   -5.3730   25.4100  -30.1150 O   0  0  0  0  0  0  0  0  0  0  0  0
   -4.4100   24.6960  -30.5040 C   0  0  0  0  0  0  0  0  0  0  0  0
   -4.6410   23.5560  -31.3360 N   0  0  0  0  0  0  0  0  0  0  0  0
   -5.8990   22.8940  -31.5350 C   0  0  0  0  0  0  0  0  0  0  0  0
   -7.1090   23.6100  -31.4860 C   0  0  0  0  0  0  0  0  0  0  0  0
   -8.3250   22.9580  -31.7070 C   0  0  0  0  0  0  0  0  0  0  0  0
   -8.3450   21.5900  -31.9910 C   0  0  0  0  0  0  0  0  0  0  0  0
   -9.8730   20.7760  -32.2740 Cl  0  0  0  0  0  0  0  0  0  0  0  0
   -7.1480   20.8740  -32.0620 C   0  0  0  0  0  0  0  0  0  0  0  0
   -5.9210   21.5170  -31.8370 C   0  0  0  0  0  0  0  0  0  0  0  0
   -4.4190   20.5880  -31.9170 S   0  0  0  0  0  0  0  0  0  0  0  0
   -3.9070   20.3840  -30.5190 O   0  0  0  0  0  0  0  0  0  0  0  0
   -3.3870   21.3400  -32.7130 O   0  0  0  0  0  0  0  0  0  0  0  0
   -4.7210   19.0400  -32.6670 N   0  0  0  0  0  0  0  0  0  0  0  0
   -5.6430   18.2460  -31.8410 C   0  0  0  0  0  0  0  0  0  0  0  0
   -5.8910   16.8740  -32.5040 C   0  0  0  0  0  0  0  0  0  0  0  0
   -5.3530   16.8010  -33.8130 O   0  0  0  0  0  0  0  0  0  0  0  0
   -5.8120   17.8960  -34.5810 C   0  0  0  0  0  0  0  0  0  0  0  0
   -5.2800   19.2290  -34.0170 C   0  0  0  0  0  0  0  0  0  0  0  0
   -3.0830   24.9540  -30.0360 N   0  0  0  0  0  0  0  0  0  0  0  0
   -2.4360   24.2670  -28.9550 C   0  0  0  0  0  0  0  0  0  0  0  0
   -2.3670   24.9060  -27.7180 C   0  0  0  0  0  0  0  0  0  0  0  0
   -1.7760   24.2720  -26.6290 C   0  0  0  0  0  0  0  0  0  0  0  0
   -1.2290   22.9930  -26.7600 C   0  0  0  0  0  0  0  0  0  0  0  0
   -0.5370   22.2850  -25.3040 Cl  0  0  0  0  0  0  0  0  0  0  0  0
   -1.2840   22.3210  -28.0080 C   0  0  0  0  0  0  0  0  0  0  0  0
   -0.5300   20.7190  -28.2380 S   0  0  0  0  0  0  0  0  0  0  0  0
   -0.2330   20.5370  -29.7010 O   0  0  0  0  0  0  0  0  0  0  0  0
    0.7830   20.6230  -27.5130 O   0  0  0  0  0  0  0  0  0  0  0  0
   -1.5730   19.3610  -27.6980 C   0  0  0  0  0  0  0  0  0  0  0  0
   -2.0490   19.4900  -26.2590 C   0  0  0  0  0  0  0  0  0  0  0  0
   -3.0320   19.6830  -27.4010 C   0  0  0  0  0  0  0  0  0  0  0  0
   -1.9540   22.9490  -29.0930 C   0  0  0  0  0  0  0  0  0  0  0  0
   -2.2030   22.2750  -30.2920 O   0  0  0  0  0  0  0  0  0  0  0  0
   -7.0978   24.6890  -31.2725 H   0  0  0  0  0  0  0  0  0  0  0  0
   -9.2678   23.5225  -31.6573 H   0  0  0  0  0  0  0  0  0  0  0  0
   -7.1671   19.7993  -32.2958 H   0  0  0  0  0  0  0  0  0  0  0  0
   -5.2027   18.0955  -30.8443 H   0  0  0  0  0  0  0  0  0  0  0  0
   -6.5991   18.7818  -31.7472 H   0  0  0  0  0  0  0  0  0  0  0  0
   -5.4234   16.0934  -31.8859 H   0  0  0  0  0  0  0  0  0  0  0  0
   -6.9789   16.7303  -32.5802 H   0  0  0  0  0  0  0  0  0  0  0  0
   -5.4633   17.7794  -35.6177 H   0  0  0  0  0  0  0  0  0  0  0  0
   -6.9112   17.9137  -34.5436 H   0  0  0  0  0  0  0  0  0  0  0  0
   -4.4932   19.6138  -34.6825 H   0  0  0  0  0  0  0  0  0  0  0  0
   -6.1137   19.9440  -33.9564 H   0  0  0  0  0  0  0  0  0  0  0  0
   -2.7824   25.9179  -27.6018 H   0  0  0  0  0  0  0  0  0  0  0  0
   -1.7392   24.7829  -25.6555 H   0  0  0  0  0  0  0  0  0  0  0  0
   -1.0716   18.5958  -28.3088 H   0  0  0  0  0  0  0  0  0  0  0  0
   -2.1169   18.5969  -25.6204 H   0  0  0  0  0  0  0  0  0  0  0  0
   -1.7409   20.0891  -25.3894 H   0  0  0  0  0  0  0  0  0  0  0  0
   -3.8109   18.9295  -27.5895 H   0  0  0  0  0  0  0  0  0  0  0  0
   -3.7295   20.4790  -27.7008 H   0  0  0  0  0  0  0  0  0  0  0  0
   -3.0580   22.3650  -30.8240 H   0  0  0  0  0  0  0  0  0  0  0  0
  1  2  2  0
  2  3  1  0
  3  4  1  0
  4  5  2  0
  5  6  1  0
  6  7  2  0
  7  8  1  0
  7  9  1  0
  9 10  2  0
 10 11  1  0
 11 12  2  0
 11 13  2  0
 11 14  1  0
 14 15  1  0
 15 16  1  0
 16 17  1  0
 17 18  1  0
 18 19  1  0
  2 20  1  0
 20 21  1  0
 21 22  2  0
 22 23  1  0
 23 24  2  0
 24 25  1  0
 24 26  1  0
 26 27  1  0
 27 28  2  0
 27 29  2  0
 27 30  1  0
 30 31  1  0
 31 32  1  0
 26 33  2  0
 33 34  1  0
 10  4  1  0
 19 14  1  0
 33 21  1  0
 32 30  1  0
  5 35  1  0
  6 36  1  0
  9 37  1  0
 15 38  1  0
 15 39  1  0
 16 40  1  0
 16 41  1  0
 18 42  1  0
 18 43  1  0
 19 44  1  0
 19 45  1  0
 22 46  1  0
 23 47  1  0
 30 48  1  0
 31 49  1  0
 31 50  1  0
 32 51  1  0
 32 52  1  0
 34 53  1  0
M  CHG  2   3  -1  20  -1
M  END
>  <UniqueID>  (46) 
46

>  <SMILES>  (46) 
O=C([N-]c1ccc(Cl)cc1S(=O)(=O)N1CCOCC1)[N-]c1ccc(Cl)c(S(=O)(=O)C2CC2)c1O

>  <Energy>  (46) 
340.8145899057888

>  <Genealogy>  (46) 
O=C([N-]c1ccc(Cl)cc1S(=O)(=O)N1CCOCC1)[N-]c1ccc(Cl)c(S(=O)(=O)C2CC2)c1O (protonated)
O=C([N-]c1ccc(Cl)cc1S(=O)(=O)N1CCOCC1)[N-]c1ccc(Cl)c(S(=O)(=O)C2CC2)c1O (3D coordinates assigned)
O=C([N-]c1ccc(Cl)cc1S(=O)(=O)N1CCOCC1)[N-]c1ccc(Cl)c(S(=O)(=O)C2CC2)c1O (nonaromatic ring conformer: 340.8145899057888 kcal/mol)

>  <smiles>  (46) 
O=C(Nc1ccc(Cl)cc1S(=O)(=O)N1CCOCC1)Nc1ccc(Cl)c(S(=O)(=O)C2CC2)c1O

>  <score_type>  (46) 
oracle

>  <origin>  (46) 
adgpu

>  <m_score__min__energy>  (46) 
-13.859999999999999

>  <m_primary>  (46) 
energy

$$$$
46:0
     RDKit          3D

 31 32  0  0  0  0  0  0  0  0999 V2000
   -5.6488   15.8641  -33.8306 H   0  0  0  0  0  0  0  0  0  0  0  0
   -6.0670   16.8400  -33.5430 C   0  0  0  0  0  0  0  0  0  0  0  0
   -7.2380   16.9830  -32.8640 N   0  0  0  0  0  0  0  0  0  0  0  0
   -7.3480   18.3210  -32.7420 C   0  0  0  0  0  0  0  0  0  0  0  0
   -8.3650   19.0620  -32.1670 C   0  0  0  0  0  0  0  0  0  0  0  0
   -9.3450   18.4660  -31.6410 O   0  0  0  0  0  0  0  0  0  0  0  0
   -8.2850   20.4440  -32.2000 N   0  0  0  0  0  0  0  0  0  0  0  0
   -9.5000   21.2080  -31.8620 C   0  0  0  0  0  0  0  0  0  0  0  0
   -9.6009   21.2714  -30.7685 H   0  0  0  0  0  0  0  0  0  0  0  0
   -9.4247   22.2216  -32.2827 H   0  0  0  0  0  0  0  0  0  0  0  0
  -10.3809   20.7009  -32.2827 H   0  0  0  0  0  0  0  0  0  0  0  0
   -7.1280   21.0520  -32.7080 C   0  0  0  0  0  0  0  0  0  0  0  0
   -6.8460   22.3270  -32.5800 N   0  0  0  0  0  0  0  0  0  0  0  0
   -7.4390   23.4240  -31.8140 C   0  0  0  0  0  0  0  0  0  0  0  0
   -8.3604   23.0697  -31.3287 H   0  0  0  0  0  0  0  0  0  0  0  0
   -7.6659   24.2540  -32.4993 H   0  0  0  0  0  0  0  0  0  0  0  0
   -6.4670   23.9180  -30.7460 C   0  0  0  0  0  0  0  0  0  0  0  0
   -6.8804   23.7079  -29.7485 H   0  0  0  0  0  0  0  0  0  0  0  0
   -5.5031   23.4004  -30.8599 H   0  0  0  0  0  0  0  0  0  0  0  0
   -6.3169   25.0018  -30.8599 H   0  0  0  0  0  0  0  0  0  0  0  0
   -6.1780   20.2830  -33.3300 N   0  0  0  0  0  0  0  0  0  0  0  0
   -5.3280   20.7260  -33.7490 H   0  0  0  0  0  0  0  0  0  0  0  0
   -6.3080   18.9380  -33.3250 C   0  0  0  0  0  0  0  0  0  0  0  0
   -5.4680   18.0230  -33.8290 N   0  0  0  0  0  0  0  0  0  0  0  0
   -4.2380   18.2300  -34.5930 C   0  0  0  0  0  0  0  0  0  0  0  0
   -3.7785   17.2549  -34.8120 H   0  0  0  0  0  0  0  0  0  0  0  0
   -4.4827   18.7506  -35.5306 H   0  0  0  0  0  0  0  0  0  0  0  0
   -3.2570   19.0800  -33.7960 C   0  0  0  0  0  0  0  0  0  0  0  0
   -3.4310   18.9293  -32.7204 H   0  0  0  0  0  0  0  0  0  0  0  0
   -2.2276   18.7835  -34.0460 H   0  0  0  0  0  0  0  0  0  0  0  0
   -3.4039   20.1411  -34.0460 H   0  0  0  0  0  0  0  0  0  0  0  0
  1  2  1  0
  2  3  2  0
  3  4  1  0
  4  5  1  0
  5  6  2  0
  5  7  1  0
  7  8  1  0
  8  9  1  0
  8 10  1  0
  8 11  1  0
  7 12  1  0
 12 13  2  0
 13 14  1  0
 14 15  1  0
 14 16  1  0
 14 17  1  0
 17 18  1  0
 17 19  1  0
 17 20  1  0
 12 21  1  0
 21 22  1  0
 21 23  1  0
 23 24  1  0
 24 25  1  0
 25 26  1  0
 25 27  1  0
 25 28  1  0
 28 29  1  0
 28 30  1  0
 28 31  1  0
 24  2  1  0
 23  4  2  0
M  END
>  <UniqueID>  (47) 
47

>  <SMILES>  (47) 
CC/N=c1/[nH]c2c(ncn2CC)c(=O)n1C

>  <Energy>  (47) 
84.52325939943219

>  <Genealogy>  (47) 
CC/N=c1/[nH]c2c(ncn2CC)c(=O)n1C (cis-trans isomerization)
CC/N=c1/[nH]c2c(ncn2CC)c(=O)n1C (3D coordinates assigned)
CC/N=c1/[nH]c2c(ncn2CC)c(=O)n1C (optimized conformer: 84.52325939943219 kcal/mol)

>  <smiles>  (47) 
CCN=c1[nH]c2c(ncn2CC)c(=O)n1C

>  <score_type>  (47) 
oracle

>  <origin>  (47) 
adgpu

>  <m_score__min__energy>  (47) 
-5.5499999999999998

>  <m_primary>  (47) 
energy

$$$$
47:0
     RDKit          3D

 40 43  0  0  0  0  0  0  0  0999 V2000
   -0.8887   15.9544  -36.3706 H   0  0  0  0  0  0  0  0  0  0  0  0
   -1.7980   15.4800  -35.9730 C   0  0  0  0  0  0  0  0  0  0  0  0
   -2.8230   16.2750  -35.4510 C   0  0  0  0  0  0  0  0  0  0  0  0
   -2.7118   17.3693  -35.4387 H   0  0  0  0  0  0  0  0  0  0  0  0
   -3.9940   15.6880  -34.9420 C   0  0  0  0  0  0  0  0  0  0  0  0
   -5.0750   16.5370  -34.3920 C   0  0  0  0  0  0  0  0  0  0  0  0
   -5.3900   17.7600  -34.8840 N   0  0  0  0  0  0  0  0  0  0  0  0
   -6.4020   18.3460  -34.2460 N   0  0  0  0  0  0  0  0  0  0  0  0
   -6.7600   19.2730  -34.5570 H   0  0  0  0  0  0  0  0  0  0  0  0
   -6.9090   17.5960  -33.2380 C   0  0  0  0  0  0  0  0  0  0  0  0
   -7.9130   17.9200  -32.4750 N   0  0  0  0  0  0  0  0  0  0  0  0
   -8.6550   19.1520  -32.4420 C   0  0  0  0  0  0  0  0  0  0  0  0
   -9.8670   19.1820  -32.7880 O   0  0  0  0  0  0  0  0  0  0  0  0
   -7.9700   20.4110  -32.0620 C   0  0  0  0  0  0  0  0  0  0  0  0
   -6.7810   20.7990  -32.7020 C   0  0  0  0  0  0  0  0  0  0  0  0
   -6.3551   20.1636  -33.4925 H   0  0  0  0  0  0  0  0  0  0  0  0
   -6.1340   21.9860  -32.3430 C   0  0  0  0  0  0  0  0  0  0  0  0
   -5.2041   22.2755  -32.8543 H   0  0  0  0  0  0  0  0  0  0  0  0
   -6.6600   22.8120  -31.3360 C   0  0  0  0  0  0  0  0  0  0  0  0
   -5.9830   24.0340  -30.9780 N   0  0  0  0  0  0  0  0  0  0  0  0
   -4.7030   24.2820  -31.2010 N   0  0  0  0  0  0  0  0  0  0  0  0
   -4.4180   25.4950  -30.7520 N   0  0  0  0  0  0  0  0  0  0  0  0
   -5.5030   26.0500  -30.2300 N   0  0  0  0  0  0  0  0  0  0  0  0
   -6.4780   25.1330  -30.3750 C   0  0  0  0  0  0  0  0  0  0  0  0
   -7.5211   25.2614  -30.0503 H   0  0  0  0  0  0  0  0  0  0  0  0
   -7.8510   22.4230  -30.6950 C   0  0  0  0  0  0  0  0  0  0  0  0
   -8.2763   23.0571  -29.9031 H   0  0  0  0  0  0  0  0  0  0  0  0
   -8.4980   21.2380  -31.0560 C   0  0  0  0  0  0  0  0  0  0  0  0
   -9.4299   20.9498  -30.5476 H   0  0  0  0  0  0  0  0  0  0  0  0
   -6.0980   16.1300  -33.1080 S   0  0  0  0  0  0  0  0  0  0  0  0
   -4.1150   14.2850  -34.9610 C   0  0  0  0  0  0  0  0  0  0  0  0
   -5.0226   13.8098  -34.5606 H   0  0  0  0  0  0  0  0  0  0  0  0
   -3.0900   13.4920  -35.4850 C   0  0  0  0  0  0  0  0  0  0  0  0
   -3.1987   12.3975  -35.4998 H   0  0  0  0  0  0  0  0  0  0  0  0
   -1.9190   14.0860  -35.9940 C   0  0  0  0  0  0  0  0  0  0  0  0
   -0.8620   13.3330  -36.5230 O   0  0  0  0  0  0  0  0  0  0  0  0
    0.0270   13.7940  -37.5360 C   0  0  0  0  0  0  0  0  0  0  0  0
    0.9106   14.2522  -37.0676 H   0  0  0  0  0  0  0  0  0  0  0  0
    0.3419   12.9456  -38.1613 H   0  0  0  0  0  0  0  0  0  0  0  0
   -0.4850   14.5402  -38.1613 H   0  0  0  0  0  0  0  0  0  0  0  0
  1  2  1  0
  2  3  2  0
  3  4  1  0
  3  5  1  0
  5  6  1  0
  6  7  2  0
  7  8  1  0
  8  9  1  0
  8 10  1  0
 10 11  2  0
 11 12  1  0
 12 13  2  0
 12 14  1  0
 14 15  2  0
 15 16  1  0
 15 17  1  0
 17 18  1  0
 17 19  2  0
 19 20  1  0
 20 21  1  0
 21 22  2  0
 22 23  1  0
 23 24  2  0
 24 25  1  0
 19 26  1  0
 26 27  1  0
 26 28  2  0
 28 29  1  0
 10 30  1  0
  5 31  2  0
 31 32  1  0
 31 33  1  0
 33 34  1  0
 33 35  2  0
 35 36  1  0
 36 37  1  0
 37 38  1  0
 37 39  1  0
 37 40  1  0
 35  2  1  0
 30  6  1  0
 28 14  1  0
 24 20  1  0
M  END
>  <UniqueID>  (48) 
48

>  <SMILES>  (48) 
COc1ccc(-c2n[nH]/c(=N\C(=O)c3ccc(-n4cnnn4)cc3)s2)cc1

>  <Energy>  (48) 
126.90290207870308

>  <Genealogy>  (48) 
COc1ccc(-c2n[nH]/c(=N\C(=O)c3ccc(-n4cnnn4)cc3)s2)cc1 (cis-trans isomerization)
COc1ccc(-c2n[nH]/c(=N\C(=O)c3ccc(-n4cnnn4)cc3)s2)cc1 (3D coordinates assigned)
COc1ccc(-c2n[nH]/c(=N\C(=O)c3ccc(-n4cnnn4)cc3)s2)cc1 (optimized conformer: 126.90290207870308 kcal/mol)

>  <smiles>  (48) 
COc1ccc(-c2n[nH]c(=NC(=O)c3ccc(-n4cnnn4)cc3)s2)cc1

>  <score_type>  (48) 
oracle

>  <origin>  (48) 
adgpu

>  <m_score__min__energy>  (48) 
-9.1300000000000008

>  <m_primary>  (48) 
energy

$$$$
48:0
     RDKit          3D

 59 62  0  0  0  0  0  0  0  0999 V2000
   -4.2080   25.2940  -26.0130 C   0  0  0  0  0  0  0  0  0  0  0  0
   -2.7120   25.4260  -25.9370 C   0  0  0  0  0  0  0  0  0  0  0  0
   -2.1230   26.4210  -25.1410 C   0  0  0  0  0  0  0  0  0  0  0  0
   -0.7250   26.5370  -25.0680 C   0  0  0  0  0  0  0  0  0  0  0  0
   -0.1000   27.5960  -24.2040 C   0  0  0  0  0  0  0  0  0  0  0  0
    0.0850   25.6160  -25.7560 C   0  0  0  0  0  0  0  0  0  0  0  0
   -0.4950   24.6020  -26.5300 C   0  0  0  0  0  0  0  0  0  0  0  0
    0.5310   23.4720  -27.4170 S   0  0  0  0  0  0  0  0  0  0  0  0
    1.0400   24.1760  -28.6500 O   0  0  0  0  0  0  0  0  0  0  0  0
    1.7060   23.0860  -26.5550 O   0  0  0  0  0  0  0  0  0  0  0  0
   -0.3900   22.0240  -27.8690 C   0  0  0  0  0  0  0  0  0  0  0  0
   -0.1390   20.8270  -27.1760 C   0  0  0  0  0  0  0  0  0  0  0  0
   -0.9330   19.6980  -27.3960 C   0  0  0  0  0  0  0  0  0  0  0  0
   -1.9950   19.7540  -28.3020 C   0  0  0  0  0  0  0  0  0  0  0  0
   -2.2450   20.9260  -29.0150 C   0  0  0  0  0  0  0  0  0  0  0  0
   -1.4250   22.0570  -28.8410 C   0  0  0  0  0  0  0  0  0  0  0  0
   -1.6930   23.2430  -29.6790 C   0  0  0  0  0  0  0  0  0  0  0  0
   -1.2200   24.3580  -29.3330 O   0  0  0  0  0  0  0  0  0  0  0  0
   -2.4890   23.1640  -30.8720 N   0  0  0  0  0  0  0  0  0  0  0  0
   -3.9200   23.2810  -30.9290 C   0  0  0  0  0  0  0  0  0  0  0  0
   -4.6760   22.1610  -31.2910 C   0  0  0  0  0  0  0  0  0  0  0  0
   -6.0770   22.2210  -31.3170 C   0  0  0  0  0  0  0  0  0  0  0  0
   -7.0190   20.7770  -31.6980 S   0  0  0  0  0  0  0  0  0  0  0  0
   -8.2040   20.7070  -30.7780 O   0  0  0  0  0  0  0  0  0  0  0  0
   -7.5350   20.8820  -33.1040 O   0  0  0  0  0  0  0  0  0  0  0  0
   -6.0770   19.3090  -31.5350 N   0  0  0  0  0  0  0  0  0  0  0  0
   -5.1550   19.1460  -32.6640 C   0  0  0  0  0  0  0  0  0  0  0  0
   -5.7940   18.2000  -33.6720 C   0  0  0  0  0  0  0  0  0  0  0  0
   -6.9460   17.5360  -32.9430 C   0  0  0  0  0  0  0  0  0  0  0  0
   -6.9400   18.1230  -31.5390 C   0  0  0  0  0  0  0  0  0  0  0  0
   -6.7200   23.4300  -31.0310 C   0  0  0  0  0  0  0  0  0  0  0  0
   -5.9700   24.5710  -30.7410 C   0  0  0  0  0  0  0  0  0  0  0  0
   -4.5740   24.5070  -30.7020 C   0  0  0  0  0  0  0  0  0  0  0  0
   -3.8500   25.6720  -30.4760 O   0  0  0  0  0  0  0  0  0  0  0  0
   -1.8930   24.5110  -26.6210 C   0  0  0  0  0  0  0  0  0  0  0  0
   -4.6250   25.2572  -24.9958 H   0  0  0  0  0  0  0  0  0  0  0  0
   -4.6256   26.1588  -26.5494 H   0  0  0  0  0  0  0  0  0  0  0  0
   -4.4677   24.3694  -26.5494 H   0  0  0  0  0  0  0  0  0  0  0  0
   -2.7598   27.1137  -24.5712 H   0  0  0  0  0  0  0  0  0  0  0  0
   -0.2506   27.3409  -23.1446 H   0  0  0  0  0  0  0  0  0  0  0  0
    0.9775   27.6546  -24.4175 H   0  0  0  0  0  0  0  0  0  0  0  0
   -0.5695   28.5676  -24.4175 H   0  0  0  0  0  0  0  0  0  0  0  0
    1.1801   25.6920  -25.6862 H   0  0  0  0  0  0  0  0  0  0  0  0
    0.6896   20.7785  -26.4542 H   0  0  0  0  0  0  0  0  0  0  0  0
   -0.7214   18.7639  -26.8550 H   0  0  0  0  0  0  0  0  0  0  0  0
   -2.6350   18.8722  -28.4531 H   0  0  0  0  0  0  0  0  0  0  0  0
   -3.0894   20.9671  -29.7188 H   0  0  0  0  0  0  0  0  0  0  0  0
   -4.1663   21.2235  -31.5580 H   0  0  0  0  0  0  0  0  0  0  0  0
   -4.9692   20.1220  -33.1361 H   0  0  0  0  0  0  0  0  0  0  0  0
   -4.1967   18.7349  -32.3138 H   0  0  0  0  0  0  0  0  0  0  0  0
   -6.1642   18.7612  -34.5426 H   0  0  0  0  0  0  0  0  0  0  0  0
   -5.0717   17.4598  -34.0468 H   0  0  0  0  0  0  0  0  0  0  0  0
   -7.8979   17.7585  -33.4474 H   0  0  0  0  0  0  0  0  0  0  0  0
   -6.8375   16.4415  -32.9252 H   0  0  0  0  0  0  0  0  0  0  0  0
   -7.9629   18.4073  -31.2511 H   0  0  0  0  0  0  0  0  0  0  0  0
   -6.5631   17.3798  -30.8210 H   0  0  0  0  0  0  0  0  0  0  0  0
   -7.8188   23.4816  -31.0346 H   0  0  0  0  0  0  0  0  0  0  0  0
   -6.4799   25.5252  -30.5422 H   0  0  0  0  0  0  0  0  0  0  0  0
   -2.3504   23.7185  -27.2315 H   0  0  0  0  0  0  0  0  0  0  0  0
  1  2  1  0
  2  3  2  0
  3  4  1  0
  4  5  1  0
  4  6  2  0
  6  7  1  0
  7  8  1  0
  8  9  2  0
  8 10  2  0
  8 11  1  0
 11 12  2  0
 12 13  1  0
 13 14  2  0
 14 15  1  0
 15 16  2  0
 16 17  1  0
 17 18  2  0
 17 19  1  0
 19 20  1  0
 20 21  2  0
 21 22  1  0
 22 23  1  0
 23 24  2  0
 23 25  2  0
 23 26  1  0
 26 27  1  0
 27 28  1  0
 28 29  1  0
 29 30  1  0
 22 31  2  0
 31 32  1  0
 32 33  2  0
 33 34  1  0
  7 35  2  0
 35  2  1  0
 16 11  1  0
 33 20  1  0
 30 26  1  0
  1 36  1  0
  1 37  1  0
  1 38  1  0
  3 39  1  0
  5 40  1  0
  5 41  1  0
  5 42  1  0
  6 43  1  0
 12 44  1  0
 13 45  1  0
 14 46  1  0
 15 47  1  0
 21 48  1  0
 27 49  1  0
 27 50  1  0
 28 51  1  0
 28 52  1  0
 29 53  1  0
 29 54  1  0
 30 55  1  0
 30 56  1  0
 31 57  1  0
 32 58  1  0
 35 59  1  0
M  CHG  2  19  -1  34  -1
M  END
>  <UniqueID>  (49) 
49

>  <SMILES>  (49) 
Cc1cc(C)cc(S(=O)(=O)c2ccccc2C(=O)[N-]c2cc(S(=O)(=O)N3CCCC3)ccc2[O-])c1

>  <Energy>  (49) 
76.68296816773187

>  <Genealogy>  (49) 
Cc1cc(C)cc(S(=O)(=O)c2ccccc2C(=O)[N-]c2cc(S(=O)(=O)N3CCCC3)ccc2[O-])c1 (protonated)
Cc1cc(C)cc(S(=O)(=O)c2ccccc2C(=O)[N-]c2cc(S(=O)(=O)N3CCCC3)ccc2[O-])c1 (3D coordinates assigned)
Cc1cc(C)cc(S(=O)(=O)c2ccccc2C(=O)[N-]c2cc(S(=O)(=O)N3CCCC3)ccc2[O-])c1 (nonaromatic ring conformer: 76.68296816773187 kcal/mol)

>  <smiles>  (49) 
Cc1cc(C)cc(S(=O)(=O)c2ccccc2C(=O)Nc2cc(S(=O)(=O)N3CCCC3)ccc2O)c1

>  <score_type>  (49) 
oracle

>  <origin>  (49) 
adgpu

>  <m_score__min__energy>  (49) 
-14.460000000000001

>  <m_primary>  (49) 
energy

$$$$
