0:0
     RDKit          3D

 40 42  0  0  0  0  0  0  0  0999 V2000
   -3.8630   22.1550  -33.8250 O   0  0  0  0  0  0  0  0  0  0  0  0
   -3.4960   21.1500  -33.1550 C   0  0  0  0  0  0  0  0  0  0  0  0
   -2.0860   20.7000  -33.2320 C   0  0  0  0  0  0  0  0  0  0  0  0
   -1.7140   19.4480  -32.7150 C   0  0  0  0  0  0  0  0  0  0  0  0
   -0.3840   19.0210  -32.7860 C   0  0  0  0  0  0  0  0  0  0  0  0
    0.5880   19.8410  -33.3650 C   0  0  0  0  0  0  0  0  0  0  0  0
    1.9060   19.4070  -33.4330 O   0  0  0  0  0  0  0  0  0  0  0  0
    0.2330   21.0960  -33.8720 C   0  0  0  0  0  0  0  0  0  0  0  0
    1.2080   21.9130  -34.4410 O   0  0  0  0  0  0  0  0  0  0  0  0
   -1.1000   21.5250  -33.8010 C   0  0  0  0  0  0  0  0  0  0  0  0
   -4.4590   20.4540  -32.3370 N   0  0  0  0  0  0  0  0  0  0  0  0
   -4.5550   20.7880  -30.9070 C   0  0  0  0  0  0  0  0  0  0  0  0
   -5.1020   22.1800  -30.7210 C   0  0  0  0  0  0  0  0  0  0  0  0
   -6.4880   22.3860  -30.6130 C   0  0  0  0  0  0  0  0  0  0  0  0
   -6.9990   23.6790  -30.4670 C   0  0  0  0  0  0  0  0  0  0  0  0
   -6.1330   24.7750  -30.4300 C   0  0  0  0  0  0  0  0  0  0  0  0
   -4.7530   24.5810  -30.5410 C   0  0  0  0  0  0  0  0  0  0  0  0
   -3.8930   25.6720  -30.5080 O   0  0  0  0  0  0  0  0  0  0  0  0
   -4.2380   23.2880  -30.6870 C   0  0  0  0  0  0  0  0  0  0  0  0
   -5.1440   19.2950  -32.8590 C   0  0  0  0  0  0  0  0  0  0  0  0
   -4.7770   18.7410  -34.0990 C   0  0  0  0  0  0  0  0  0  0  0  0
   -5.4300   17.6060  -34.5910 C   0  0  0  0  0  0  0  0  0  0  0  0
   -6.4550   17.0120  -33.8500 C   0  0  0  0  0  0  0  0  0  0  0  0
   -7.1020   15.8830  -34.3390 O   0  0  0  0  0  0  0  0  0  0  0  0
   -6.8290   17.5520  -32.6160 C   0  0  0  0  0  0  0  0  0  0  0  0
   -6.1790   18.6860  -32.1220 C   0  0  0  0  0  0  0  0  0  0  0  0
   -2.4727   18.8000  -32.2519 H   0  0  0  0  0  0  0  0  0  0  0  0
   -0.1023   18.0363  -32.3847 H   0  0  0  0  0  0  0  0  0  0  0  0
    2.1780   21.6220  -34.4940 H   0  0  0  0  0  0  0  0  0  0  0  0
   -1.3764   22.5147  -34.1935 H   0  0  0  0  0  0  0  0  0  0  0  0
   -5.2235   20.0682  -30.4121 H   0  0  0  0  0  0  0  0  0  0  0  0
   -3.5491   20.7411  -30.4644 H   0  0  0  0  0  0  0  0  0  0  0  0
   -7.1736   21.5263  -30.6435 H   0  0  0  0  0  0  0  0  0  0  0  0
   -8.0846   23.8339  -30.3811 H   0  0  0  0  0  0  0  0  0  0  0  0
   -6.5375   25.7913  -30.3134 H   0  0  0  0  0  0  0  0  0  0  0  0
   -3.1519   23.1381  -30.7756 H   0  0  0  0  0  0  0  0  0  0  0  0
   -3.9703   19.2040  -34.6862 H   0  0  0  0  0  0  0  0  0  0  0  0
   -5.1364   17.1807  -35.5620 H   0  0  0  0  0  0  0  0  0  0  0  0
   -7.6359   17.0837  -32.0332 H   0  0  0  0  0  0  0  0  0  0  0  0
   -6.4776   19.1065  -31.1504 H   0  0  0  0  0  0  0  0  0  0  0  0
  1  2  2  0
  2  3  1  0
  3  4  2  0
  4  5  1  0
  5  6  2  0
  6  7  1  0
  6  8  1  0
  8  9  1  0
  8 10  2  0
  2 11  1  0
 11 12  1  0
 12 13  1  0
 13 14  2  0
 14 15  1  0
 15 16  2  0
 16 17  1  0
 17 18  1  0
 17 19  2  0
 11 20  1  0
 20 21  2  0
 21 22  1  0
 22 23  2  0
 23 24  1  0
 23 25  1  0
 25 26  2  0
 10  3  1  0
 19 13  1  0
 26 20  1  0
  4 27  1  0
  5 28  1  0
  9 29  1  0
 10 30  1  0
 12 31  1  0
 12 32  1  0
 14 33  1  0
 15 34  1  0
 16 35  1  0
 19 36  1  0
 21 37  1  0
 22 38  1  0
 25 39  1  0
 26 40  1  0
M  CHG  3   7  -1  18  -1  24  -1
M  END
>  <UniqueID>  (1) 
1

>  <SMILES>  (1) 
O=C(c1ccc([O-])c(O)c1)N(Cc1cccc([O-])c1)c1ccc([O-])cc1

>  <Energy>  (1) 
50.9044911978082

>  <Genealogy>  (1) 
O=C(c1ccc([O-])c(O)c1)N(Cc1cccc([O-])c1)c1ccc([O-])cc1 (protonated)
O=C(c1ccc([O-])c(O)c1)N(Cc1cccc([O-])c1)c1ccc([O-])cc1 (3D coordinates assigned)
O=C(c1ccc([O-])c(O)c1)N(Cc1cccc([O-])c1)c1ccc([O-])cc1 (optimized conformer: 50.9044911978082 kcal/mol)

>  <smiles>  (1) 
O=C(c1ccc(O)c(O)c1)N(Cc1cccc(O)c1)c1ccc(O)cc1

>  <score_type>  (1) 
oracle

>  <origin>  (1) 
adgpu

>  <m_score__min__energy>  (1) 
-10.949999999999999

>  <m_primary>  (1) 
energy

$$$$
1:0
     RDKit          3D

 44 47  0  0  0  0  0  0  0  0999 V2000
   -4.2970   14.5470  -34.9930 C   0  0  0  0  0  0  0  0  0  0  0  0
   -4.8410   15.8350  -34.4530 C   0  0  0  0  0  0  0  0  0  0  0  0
   -6.0710   15.8570  -33.7790 C   0  0  0  0  0  0  0  0  0  0  0  0
   -6.5610   17.0510  -33.2430 C   0  0  0  0  0  0  0  0  0  0  0  0
   -5.8270   18.2450  -33.3650 C   0  0  0  0  0  0  0  0  0  0  0  0
   -6.3510   19.5060  -32.7870 C   0  0  0  0  0  0  0  0  0  0  0  0
   -7.3630   19.4700  -32.0320 O   0  0  0  0  0  0  0  0  0  0  0  0
   -5.7540   20.7720  -33.1150 N   0  0  0  0  0  0  0  0  0  0  0  0
   -5.9150   21.9610  -32.3220 C   0  0  0  0  0  0  0  0  0  0  0  0
   -7.0870   22.7280  -32.3880 C   0  0  0  0  0  0  0  0  0  0  0  0
   -7.2310   23.8630  -31.5900 C   0  0  0  0  0  0  0  0  0  0  0  0
   -6.2150   24.2510  -30.7100 C   0  0  0  0  0  0  0  0  0  0  0  0
   -6.5230   25.6650  -29.7040 Cl  0  0  0  0  0  0  0  0  0  0  0  0
   -5.0270   23.4830  -30.6220 C   0  0  0  0  0  0  0  0  0  0  0  0
   -3.9050   23.8400  -29.7150 C   0  0  0  0  0  0  0  0  0  0  0  0
   -3.5600   23.0730  -28.6430 N   0  0  0  0  0  0  0  0  0  0  0  0
   -2.5080   23.7290  -28.1330 C   0  0  0  0  0  0  0  0  0  0  0  0
   -1.7480   23.3850  -27.0180 C   0  0  0  0  0  0  0  0  0  0  0  0
   -0.6770   24.2340  -26.6630 C   0  0  0  0  0  0  0  0  0  0  0  0
    0.1990   23.8910  -25.4960 C   0  0  0  0  0  0  0  0  0  0  0  0
   -0.3910   25.3780  -27.4540 C   0  0  0  0  0  0  0  0  0  0  0  0
   -1.1840   25.6880  -28.5750 C   0  0  0  0  0  0  0  0  0  0  0  0
   -2.2390   24.8320  -28.8780 C   0  0  0  0  0  0  0  0  0  0  0  0
   -3.1080   24.9280  -29.8940 N   0  0  0  0  0  0  0  0  0  0  0  0
   -4.9030   22.3340  -31.4260 C   0  0  0  0  0  0  0  0  0  0  0  0
   -4.5800   18.2110  -34.0170 C   0  0  0  0  0  0  0  0  0  0  0  0
   -4.0910   17.0160  -34.5520 C   0  0  0  0  0  0  0  0  0  0  0  0
   -4.0185   13.8877  -34.1577 H   0  0  0  0  0  0  0  0  0  0  0  0
   -5.0640   14.0546  -35.6088 H   0  0  0  0  0  0  0  0  0  0  0  0
   -3.4092   14.7535  -35.6088 H   0  0  0  0  0  0  0  0  0  0  0  0
   -6.6529   14.9297  -33.6718 H   0  0  0  0  0  0  0  0  0  0  0  0
   -7.5293   17.0573  -32.7210 H   0  0  0  0  0  0  0  0  0  0  0  0
   -5.2710   20.8620  -34.0370 H   0  0  0  0  0  0  0  0  0  0  0  0
   -7.8964   22.4333  -33.0721 H   0  0  0  0  0  0  0  0  0  0  0  0
   -8.1532   24.4593  -31.6533 H   0  0  0  0  0  0  0  0  0  0  0  0
   -1.9746   22.4815  -26.4329 H   0  0  0  0  0  0  0  0  0  0  0  0
   -0.3386   24.1015  -24.5597 H   0  0  0  0  0  0  0  0  0  0  0  0
    0.4617   22.8236  -25.5360 H   0  0  0  0  0  0  0  0  0  0  0  0
    1.1167   24.4962  -25.5360 H   0  0  0  0  0  0  0  0  0  0  0  0
    0.4567   26.0269  -27.1888 H   0  0  0  0  0  0  0  0  0  0  0  0
   -0.9771   26.5760  -29.1903 H   0  0  0  0  0  0  0  0  0  0  0  0
   -3.9953   21.7174  -31.3499 H   0  0  0  0  0  0  0  0  0  0  0  0
   -3.9856   19.1323  -34.1062 H   0  0  0  0  0  0  0  0  0  0  0  0
   -3.1122   17.0017  -35.0537 H   0  0  0  0  0  0  0  0  0  0  0  0
  1  2  1  0
  2  3  2  0
  3  4  1  0
  4  5  2  0
  5  6  1  0
  6  7  2  0
  6  8  1  0
  8  9  1  0
  9 10  2  0
 10 11  1  0
 11 12  2  0
 12 13  1  0
 12 14  1  0
 14 15  1  0
 15 16  2  0
 16 17  1  0
 17 18  2  0
 18 19  1  0
 19 20  1  0
 19 21  2  0
 21 22  1  0
 22 23  2  0
 23 24  1  0
 14 25  2  0
  5 26  1  0
 26 27  2  0
 27  2  1  0
 25  9  1  0
 24 15  1  0
 23 17  1  0
  1 28  1  0
  1 29  1  0
  1 30  1  0
  3 31  1  0
  4 32  1  0
  8 33  1  0
 10 34  1  0
 11 35  1  0
 18 36  1  0
 20 37  1  0
 20 38  1  0
 20 39  1  0
 21 40  1  0
 22 41  1  0
 25 42  1  0
 26 43  1  0
 27 44  1  0
M  CHG  1  24  -1
M  END
>  <UniqueID>  (2) 
2

>  <SMILES>  (2) 
Cc1ccc(C(=O)Nc2ccc(Cl)c(-c3nc4cc(C)ccc4[n-]3)c2)cc1

>  <Energy>  (2) 
91.78143230791193

>  <Genealogy>  (2) 
Cc1ccc(C(=O)Nc2ccc(Cl)c(-c3nc4cc(C)ccc4[n-]3)c2)cc1 (protonated)
Cc1ccc(C(=O)Nc2ccc(Cl)c(-c3nc4cc(C)ccc4[n-]3)c2)cc1 (3D coordinates assigned)
Cc1ccc(C(=O)Nc2ccc(Cl)c(-c3nc4cc(C)ccc4[n-]3)c2)cc1 (optimized conformer: 91.78143230791193 kcal/mol)

>  <smiles>  (2) 
Cc1ccc(C(=O)Nc2ccc(Cl)c(-c3nc4cc(C)ccc4[nH]3)c2)cc1

>  <score_type>  (2) 
oracle

>  <origin>  (2) 
adgpu

>  <m_score__min__energy>  (2) 
-10.199999999999999

>  <m_primary>  (2) 
energy

$$$$
2:0
     RDKit          3D

 56 59  0  0  0  0  0  0  0  0999 V2000
   -0.6280   28.9050  -25.1940 C   0  0  0  0  0  0  0  0  0  0  0  0
   -0.7110   27.4020  -25.2200 C   0  0  0  0  0  0  0  0  0  0  0  0
   -1.1900   26.7610  -26.3750 C   0  0  0  0  0  0  0  0  0  0  0  0
   -1.2800   25.3610  -26.4400 C   0  0  0  0  0  0  0  0  0  0  0  0
   -1.7160   24.6960  -27.6920 C   0  0  0  0  0  0  0  0  0  0  0  0
   -3.0900   24.5410  -27.9470 C   0  0  0  0  0  0  0  0  0  0  0  0
   -3.5340   23.7540  -29.0190 C   0  0  0  0  0  0  0  0  0  0  0  0
   -4.9230   23.4650  -29.2070 N   0  0  0  0  0  0  0  0  0  0  0  0
   -5.8990   24.0810  -30.5120 S   0  0  0  0  0  0  0  0  0  0  0  0
   -6.8160   25.1410  -29.9660 O   0  0  0  0  0  0  0  0  0  0  0  0
   -5.0020   24.7070  -31.5440 O   0  0  0  0  0  0  0  0  0  0  0  0
   -6.8590   22.8220  -31.2950 C   0  0  0  0  0  0  0  0  0  0  0  0
   -8.2590   22.8540  -31.2350 C   0  0  0  0  0  0  0  0  0  0  0  0
   -9.0070   21.8050  -31.7720 C   0  0  0  0  0  0  0  0  0  0  0  0
   -8.3640   20.7070  -32.3490 C   0  0  0  0  0  0  0  0  0  0  0  0
   -6.9610   20.6540  -32.4100 C   0  0  0  0  0  0  0  0  0  0  0  0
   -6.2930   19.4500  -32.9530 C   0  0  0  0  0  0  0  0  0  0  0  0
   -6.8100   18.1620  -32.9980 C   0  0  0  0  0  0  0  0  0  0  0  0
   -5.8390   17.4250  -33.6410 C   0  0  0  0  0  0  0  0  0  0  0  0
   -5.9000   15.9580  -33.9340 C   0  0  0  0  0  0  0  0  0  0  0  0
   -7.2180   15.6030  -34.2520 O   0  0  0  0  0  0  0  0  0  0  0  0
   -4.8090   18.2400  -33.9510 N   0  0  0  0  0  0  0  0  0  0  0  0
   -3.5580   17.8630  -34.6010 C   0  0  0  0  0  0  0  0  0  0  0  0
   -5.0770   19.4690  -33.5390 N   0  0  0  0  0  0  0  0  0  0  0  0
   -6.2160   21.7370  -31.9080 C   0  0  0  0  0  0  0  0  0  0  0  0
   -2.6020   23.2370  -29.9240 C   0  0  0  0  0  0  0  0  0  0  0  0
   -1.2350   23.4380  -29.7210 C   0  0  0  0  0  0  0  0  0  0  0  0
   -0.7830   24.1520  -28.6010 C   0  0  0  0  0  0  0  0  0  0  0  0
    0.5860   24.3350  -28.4010 O   0  0  0  0  0  0  0  0  0  0  0  0
   -0.8750   24.6000  -25.3330 C   0  0  0  0  0  0  0  0  0  0  0  0
   -0.3960   25.2260  -24.1810 C   0  0  0  0  0  0  0  0  0  0  0  0
   -0.3080   26.6230  -24.1100 C   0  0  0  0  0  0  0  0  0  0  0  0
    0.1950   27.2280  -22.9090 N   0  0  0  0  0  0  0  0  0  0  0  0
   -0.6088   29.2532  -24.1507 H   0  0  0  0  0  0  0  0  0  0  0  0
    0.2895   29.2305  -25.7061 H   0  0  0  0  0  0  0  0  0  0  0  0
   -1.5041   29.3295  -25.7061 H   0  0  0  0  0  0  0  0  0  0  0  0
   -1.4991   27.3647  -27.2411 H   0  0  0  0  0  0  0  0  0  0  0  0
   -3.8240   25.0422  -27.2989 H   0  0  0  0  0  0  0  0  0  0  0  0
   -8.7691   23.7072  -30.7639 H   0  0  0  0  0  0  0  0  0  0  0  0
  -10.1059   21.8429  -31.7408 H   0  0  0  0  0  0  0  0  0  0  0  0
   -8.9601   19.8782  -32.7584 H   0  0  0  0  0  0  0  0  0  0  0  0
   -7.7764   17.8095  -32.6084 H   0  0  0  0  0  0  0  0  0  0  0  0
   -5.2417   15.7255  -34.7840 H   0  0  0  0  0  0  0  0  0  0  0  0
   -5.5691   15.3920  -33.0507 H   0  0  0  0  0  0  0  0  0  0  0  0
   -7.1540   14.7780  -34.8010 H   0  0  0  0  0  0  0  0  0  0  0  0
   -2.8014   17.6350  -33.8358 H   0  0  0  0  0  0  0  0  0  0  0  0
   -3.7240   16.9750  -35.2286 H   0  0  0  0  0  0  0  0  0  0  0  0
   -3.2057   18.6949  -35.2286 H   0  0  0  0  0  0  0  0  0  0  0  0
   -5.1196   21.7325  -31.9972 H   0  0  0  0  0  0  0  0  0  0  0  0
   -2.9473   22.6690  -30.8004 H   0  0  0  0  0  0  0  0  0  0  0  0
   -0.5093   23.0347  -30.4426 H   0  0  0  0  0  0  0  0  0  0  0  0
    0.9720   24.4860  -27.4760 H   0  0  0  0  0  0  0  0  0  0  0  0
   -0.9354   23.5024  -25.3732 H   0  0  0  0  0  0  0  0  0  0  0  0
   -0.0843   24.6166  -23.3199 H   0  0  0  0  0  0  0  0  0  0  0  0
   -0.2300   28.1070  -22.5430 H   0  0  0  0  0  0  0  0  0  0  0  0
    0.9920   26.8200  -22.3720 H   0  0  0  0  0  0  0  0  0  0  0  0
  1  2  1  0
  2  3  2  0
  3  4  1  0
  4  5  1  0
  5  6  2  0
  6  7  1  0
  7  8  1  0
  8  9  1  0
  9 10  2  0
  9 11  2  0
  9 12  1  0
 12 13  2  0
 13 14  1  0
 14 15  2  0
 15 16  1  0
 16 17  1  0
 17 18  1  0
 18 19  2  0
 19 20  1  0
 20 21  1  0
 19 22  1  0
 22 23  1  0
 22 24  1  0
 16 25  2  0
  7 26  2  0
 26 27  1  0
 27 28  2  0
 28 29  1  0
  4 30  2  0
 30 31  1  0
 31 32  2  0
 32 33  1  0
 32  2  1  0
 28  5  1  0
 25 12  1  0
 24 17  2  0
  1 34  1  0
  1 35  1  0
  1 36  1  0
  3 37  1  0
  6 38  1  0
 13 39  1  0
 14 40  1  0
 15 41  1  0
 18 42  1  0
 20 43  1  0
 20 44  1  0
 21 45  1  0
 23 46  1  0
 23 47  1  0
 23 48  1  0
 25 49  1  0
 26 50  1  0
 27 51  1  0
 29 52  1  0
 30 53  1  0
 31 54  1  0
 33 55  1  0
 33 56  1  0
M  CHG  1   8  -1
M  END
>  <UniqueID>  (3) 
3

>  <SMILES>  (3) 
Cc1cc(-c2cc([N-]S(=O)(=O)c3cccc(-c4cc(CO)n(C)n4)c3)ccc2O)ccc1N

>  <Energy>  (3) 
97.9382626741761

>  <Genealogy>  (3) 
Cc1cc(-c2cc([N-]S(=O)(=O)c3cccc(-c4cc(CO)n(C)n4)c3)ccc2O)ccc1N (protonated)
Cc1cc(-c2cc([N-]S(=O)(=O)c3cccc(-c4cc(CO)n(C)n4)c3)ccc2O)ccc1N (3D coordinates assigned)
Cc1cc(-c2cc([N-]S(=O)(=O)c3cccc(-c4cc(CO)n(C)n4)c3)ccc2O)ccc1N (optimized conformer: 97.9382626741761 kcal/mol)

>  <smiles>  (3) 
Cc1cc(-c2cc(NS(=O)(=O)c3cccc(-c4cc(CO)n(C)n4)c3)ccc2O)ccc1N

>  <score_type>  (3) 
oracle

>  <origin>  (3) 
adgpu

>  <m_score__min__energy>  (3) 
-11.33

>  <m_primary>  (3) 
energy

$$$$
3:0
     RDKit          3D

 54 56  0  0  1  0  0  0  0  0999 V2000
   -4.6530   25.3250  -30.4610 C   0  0  0  0  0  0  0  0  0  0  0  0
   -6.1290   25.5040  -30.2010 C   0  0  0  0  0  0  0  0  0  0  0  0
   -6.6590   24.2850  -29.6380 N   0  0  0  0  0  0  0  0  0  0  0  0
   -6.8580   23.0880  -30.3510 C   0  0  0  0  0  0  0  0  0  0  0  0
   -5.9100   22.5810  -31.2500 C   0  0  0  0  0  0  0  0  0  0  0  0
   -6.0870   21.4230  -31.9440 C   0  0  0  0  0  0  0  0  0  0  0  0
   -7.2300   20.6690  -31.8010 C   0  0  0  0  0  0  0  0  0  0  0  0
   -7.5230   19.1860  -32.6490 S   0  0  0  0  0  0  0  0  0  0  0  0
   -8.9770   19.1020  -33.0880 O   0  0  0  0  0  0  0  0  0  0  0  0
   -7.3300   18.0350  -31.7050 O   0  0  0  0  0  0  0  0  0  0  0  0
   -6.4860   19.0040  -34.0400 N   0  0  0  0  0  0  0  0  0  0  0  0
   -5.1010   18.7710  -33.8210 C   0  0  0  0  0  0  0  0  0  0  0  0
   -4.6410   17.4590  -33.9620 C   0  0  0  0  0  0  0  0  0  0  0  0
   -3.2910   17.1770  -33.7580 C   0  0  0  0  0  0  0  0  0  0  0  0
   -2.4030   18.1840  -33.4170 C   0  0  0  0  0  0  0  0  0  0  0  0
   -2.8400   19.4660  -33.2760 C   0  0  0  0  0  0  0  0  0  0  0  0
   -1.8140   20.8220  -32.8560 S   0  0  0  0  0  0  0  0  0  0  0  0
   -1.2510   21.4270  -34.0960 O   0  0  0  0  0  0  0  0  0  0  0  0
   -0.5820   20.2790  -32.1060 O   0  0  0  0  0  0  0  0  0  0  0  0
   -2.5410   21.9190  -31.7790 N   0  0  0  0  0  0  0  0  0  0  0  0
   -2.5890   21.7240  -30.5370 C   0  0  0  0  0  0  0  0  0  0  0  0
   -2.0710   20.6220  -29.8990 C   0  0  0  0  0  0  0  0  0  0  0  0
   -2.1940   20.5390  -28.5360 C   0  0  0  0  0  0  0  0  0  0  0  0
   -1.6310   19.3460  -27.8550 C   0  0  0  0  0  0  0  0  0  0  0  0
   -2.7960   21.4850  -27.7990 N   0  0  0  0  0  0  0  0  0  0  0  0
   -3.3010   22.5620  -28.4300 C   0  0  0  0  0  0  0  0  0  0  0  0
   -3.9790   23.6440  -27.6660 C   0  0  0  0  0  0  0  0  0  0  0  0
   -3.1990   22.6790  -29.7740 N   0  0  0  0  0  0  0  0  0  0  0  0
   -4.1970   19.7380  -33.4830 C   0  0  0  0  0  0  0  0  0  0  0  0
   -8.1850   21.1350  -30.9240 C   0  0  0  0  0  0  0  0  0  0  0  0
   -8.0020   22.3190  -30.2150 C   0  0  0  0  0  0  0  0  0  0  0  0
   -4.1171   25.2600  -29.5026 H   0  0  0  0  0  0  0  0  0  0  0  0
   -4.4912   24.4007  -31.0350 H   0  0  0  0  0  0  0  0  0  0  0  0
   -4.2750   26.1839  -31.0350 H   0  0  0  0  0  0  0  0  0  0  0  0
   -6.2809   26.3331  -29.4942 H   0  0  0  0  0  0  0  0  0  0  0  0
   -6.6470   25.7334  -31.1439 H   0  0  0  0  0  0  0  0  0  0  0  0
   -6.9240   24.2710  -28.6140 H   0  0  0  0  0  0  0  0  0  0  0  0
   -4.9783   23.1456  -31.4023 H   0  0  0  0  0  0  0  0  0  0  0  0
   -5.3002   21.0828  -32.6334 H   0  0  0  0  0  0  0  0  0  0  0  0
   -6.8630   19.0630  -35.0080 H   0  0  0  0  0  0  0  0  0  0  0  0
   -5.3398   16.6537  -34.2323 H   0  0  0  0  0  0  0  0  0  0  0  0
   -2.9274   16.1448  -33.8689 H   0  0  0  0  0  0  0  0  0  0  0  0
   -1.3404   17.9471  -33.2595 H   0  0  0  0  0  0  0  0  0  0  0  0
   -1.5697   19.8256  -30.4686 H   0  0  0  0  0  0  0  0  0  0  0  0
   -1.6950   19.4816  -26.7653 H   0  0  0  0  0  0  0  0  0  0  0  0
   -2.2027   18.4529  -28.1476 H   0  0  0  0  0  0  0  0  0  0  0  0
   -0.5782   19.2195  -28.1476 H   0  0  0  0  0  0  0  0  0  0  0  0
   -2.8510   21.3570  -26.7850 H   0  0  0  0  0  0  0  0  0  0  0  0
   -3.8633   23.4594  -26.5878 H   0  0  0  0  0  0  0  0  0  0  0  0
   -3.5264   24.6131  -27.9227 H   0  0  0  0  0  0  0  0  0  0  0  0
   -5.0485   23.6593  -27.9227 H   0  0  0  0  0  0  0  0  0  0  0  0
   -4.5505   20.7734  -33.3688 H   0  0  0  0  0  0  0  0  0  0  0  0
   -9.1114   20.5594  -30.7810 H   0  0  0  0  0  0  0  0  0  0  0  0
   -8.7905   22.6543  -29.5252 H   0  0  0  0  0  0  0  0  0  0  0  0
  1  2  1  0
  2  3  1  0
  3  4  1  0
  4  5  2  0
  5  6  1  0
  6  7  2  0
  7  8  1  0
  8  9  2  0
  8 10  2  0
  8 11  1  0
 11 12  1  0
 12 13  2  0
 13 14  1  0
 14 15  2  0
 15 16  1  0
 16 17  1  0
 17 18  2  0
 17 19  2  0
 17 20  1  0
 20 21  2  0
 21 22  1  0
 22 23  2  0
 23 24  1  0
 23 25  1  0
 25 26  1  0
 26 27  1  0
 26 28  2  0
 16 29  2  0
  7 30  1  0
 30 31  2  0
 31  4  1  0
 29 12  1  0
 28 21  1  0
  1 32  1  0
  1 33  1  0
  1 34  1  0
  2 35  1  0
  2 36  1  0
  3 37  1  0
  5 38  1  0
  6 39  1  0
 11 40  1  0
 13 41  1  0
 14 42  1  0
 15 43  1  0
 22 44  1  0
 24 45  1  0
 24 46  1  0
 24 47  1  0
 25 48  1  0
 27 49  1  0
 27 50  1  0
 27 51  1  0
 29 52  1  0
 30 53  1  0
 31 54  1  0
M  END
>  <smiles>  (4) 
CCNc1ccc(S(=O)(=O)Nc2cccc(S(=O)(=O)N=c3cc(C)[nH]c(C)n3)c2)cc1

>  <score_type>  (4) 
oracle

>  <origin>  (4) 
adgpu

>  <m_score__min__energy>  (4) 
-10.970000000000001

>  <m_primary>  (4) 
energy

$$$$
4:0
     RDKit          3D

 50 52  0  0  0  0  0  0  0  0999 V2000
   -3.0050   21.8820  -32.4870 C   0  0  0  0  0  0  0  0  0  0  0  0
   -2.8730   21.0600  -33.6980 N   0  0  0  0  0  0  0  0  0  0  0  0
   -1.4580   20.8960  -34.0600 C   0  0  0  0  0  0  0  0  0  0  0  0
   -3.6090   19.4990  -33.4380 S   0  0  0  0  0  0  0  0  0  0  0  0
   -3.4760   18.6530  -34.6750 O   0  0  0  0  0  0  0  0  0  0  0  0
   -2.9220   18.7940  -32.3010 O   0  0  0  0  0  0  0  0  0  0  0  0
   -5.3120   19.7010  -33.0310 C   0  0  0  0  0  0  0  0  0  0  0  0
   -6.2390   18.6880  -33.3140 C   0  0  0  0  0  0  0  0  0  0  0  0
   -7.5910   18.8680  -33.0030 C   0  0  0  0  0  0  0  0  0  0  0  0
   -8.0200   20.0550  -32.4030 C   0  0  0  0  0  0  0  0  0  0  0  0
   -7.0980   21.0730  -32.1160 C   0  0  0  0  0  0  0  0  0  0  0  0
   -7.6180   22.5650  -31.3400 S   0  0  0  0  0  0  0  0  0  0  0  0
   -8.5510   22.2710  -30.1960 O   0  0  0  0  0  0  0  0  0  0  0  0
   -8.3360   23.4190  -32.3470 O   0  0  0  0  0  0  0  0  0  0  0  0
   -6.2010   23.4010  -30.7100 C   0  0  0  0  0  0  0  0  0  0  0  0
   -5.7650   24.6050  -31.2790 C   0  0  0  0  0  0  0  0  0  0  0  0
   -4.6020   25.2220  -30.8100 C   0  0  0  0  0  0  0  0  0  0  0  0
   -3.8520   24.6330  -29.7840 C   0  0  0  0  0  0  0  0  0  0  0  0
   -2.6520   25.2810  -29.3410 N   0  0  0  0  0  0  0  0  0  0  0  0
   -1.4530   24.6250  -28.9040 C   0  0  0  0  0  0  0  0  0  0  0  0
   -0.4580   25.3320  -28.5970 O   0  0  0  0  0  0  0  0  0  0  0  0
   -1.3360   23.1480  -28.8530 C   0  0  0  0  0  0  0  0  0  0  0  0
   -0.9730   22.4290  -30.0060 C   0  0  0  0  0  0  0  0  0  0  0  0
   -0.8670   21.0360  -29.9680 C   0  0  0  0  0  0  0  0  0  0  0  0
   -1.1350   20.3450  -28.7840 C   0  0  0  0  0  0  0  0  0  0  0  0
   -1.5100   21.0460  -27.6370 C   0  0  0  0  0  0  0  0  0  0  0  0
   -1.6140   22.4400  -27.6690 C   0  0  0  0  0  0  0  0  0  0  0  0
   -4.3080   23.4410  -29.1930 C   0  0  0  0  0  0  0  0  0  0  0  0
   -5.4710   22.8260  -29.6620 C   0  0  0  0  0  0  0  0  0  0  0  0
   -5.7470   20.8940  -32.4420 C   0  0  0  0  0  0  0  0  0  0  0  0
   -2.9024   21.2433  -31.5973 H   0  0  0  0  0  0  0  0  0  0  0  0
   -2.2189   22.6514  -32.4786 H   0  0  0  0  0  0  0  0  0  0  0  0
   -3.9925   22.3666  -32.4786 H   0  0  0  0  0  0  0  0  0  0  0  0
   -3.3720   21.5350  -34.4870 H   0  0  0  0  0  0  0  0  0  0  0  0
   -0.8513   20.8257  -33.1452 H   0  0  0  0  0  0  0  0  0  0  0  0
   -1.3353   19.9776  -34.6529 H   0  0  0  0  0  0  0  0  0  0  0  0
   -1.1285   21.7620  -34.6529 H   0  0  0  0  0  0  0  0  0  0  0  0
   -5.9028   17.7506  -33.7811 H   0  0  0  0  0  0  0  0  0  0  0  0
   -8.3174   18.0741  -33.2310 H   0  0  0  0  0  0  0  0  0  0  0  0
   -9.0830   20.1916  -32.1551 H   0  0  0  0  0  0  0  0  0  0  0  0
   -6.3392   25.0655  -32.0964 H   0  0  0  0  0  0  0  0  0  0  0  0
   -4.2737   26.1756  -31.2491 H   0  0  0  0  0  0  0  0  0  0  0  0
   -0.7711   22.9668  -30.9441 H   0  0  0  0  0  0  0  0  0  0  0  0
   -0.5721   20.4829  -30.8719 H   0  0  0  0  0  0  0  0  0  0  0  0
   -1.0505   19.2486  -28.7557 H   0  0  0  0  0  0  0  0  0  0  0  0
   -1.7242   20.5008  -26.7059 H   0  0  0  0  0  0  0  0  0  0  0  0
   -1.9150   22.9866  -26.7631 H   0  0  0  0  0  0  0  0  0  0  0  0
   -3.7475   22.9922  -28.3597 H   0  0  0  0  0  0  0  0  0  0  0  0
   -5.8152   21.8859  -29.2063 H   0  0  0  0  0  0  0  0  0  0  0  0
   -5.0237   21.6961  -32.2337 H   0  0  0  0  0  0  0  0  0  0  0  0
  1  2  1  0
  2  3  1  0
  2  4  1  0
  4  5  2  0
  4  6  2  0
  4  7  1  0
  7  8  2  0
  8  9  1  0
  9 10  2  0
 10 11  1  0
 11 12  1  0
 12 13  2  0
 12 14  2  0
 12 15  1  0
 15 16  2  0
 16 17  1  0
 17 18  2  0
 18 19  1  0
 19 20  1  0
 20 21  2  0
 20 22  1  0
 22 23  2  0
 23 24  1  0
 24 25  2  0
 25 26  1  0
 26 27  2  0
 18 28  1  0
 28 29  2  0
 11 30  2  0
 30  7  1  0
 29 15  1  0
 27 22  1  0
  1 31  1  0
  1 32  1  0
  1 33  1  0
  2 34  1  0
  3 35  1  0
  3 36  1  0
  3 37  1  0
  8 38  1  0
  9 39  1  0
 10 40  1  0
 16 41  1  0
 17 42  1  0
 23 43  1  0
 24 44  1  0
 25 45  1  0
 26 46  1  0
 27 47  1  0
 28 48  1  0
 29 49  1  0
 30 50  1  0
M  CHG  2   2   1  19  -1
M  END
>  <UniqueID>  (5) 
4

>  <SMILES>  (5) 
C[NH+](C)S(=O)(=O)c1cccc(S(=O)(=O)c2ccc([N-]C(=O)c3ccccc3)cc2)c1

>  <Energy>  (5) 
57.51536680787448

>  <Genealogy>  (5) 
C[NH+](C)S(=O)(=O)c1cccc(S(=O)(=O)c2ccc([N-]C(=O)c3ccccc3)cc2)c1 (protonated)
C[NH+](C)S(=O)(=O)c1cccc(S(=O)(=O)c2ccc([N-]C(=O)c3ccccc3)cc2)c1 (3D coordinates assigned)
C[NH+](C)S(=O)(=O)c1cccc(S(=O)(=O)c2ccc([N-]C(=O)c3ccccc3)cc2)c1 (optimized conformer: 57.51536680787448 kcal/mol)

>  <smiles>  (5) 
CN(C)S(=O)(=O)c1cccc(S(=O)(=O)c2ccc(NC(=O)c3ccccc3)cc2)c1

>  <score_type>  (5) 
oracle

>  <origin>  (5) 
adgpu

>  <m_score__min__energy>  (5) 
-12.02

>  <m_primary>  (5) 
energy

$$$$
5:0
     RDKit          3D

 37 39  0  0  1  0  0  0  0  0999 V2000
   -0.9120   25.2510  -28.2220 C   0  0  0  0  0  0  0  0  0  0  0  0
   -2.3610   24.9220  -28.4240 C   0  0  0  0  0  0  0  0  0  0  0  0
   -2.9860   24.6670  -27.0710 C   0  0  0  0  0  0  0  0  0  0  0  0
   -2.5960   23.8230  -29.3100 N   0  0  0  0  0  0  0  0  0  0  0  0
   -1.8450   22.6920  -29.3430 C   0  0  0  0  0  0  0  0  0  0  0  0
   -2.3710   21.8900  -30.3040 N   0  0  0  0  0  0  0  0  0  0  0  0
   -3.4330   22.5240  -30.8540 C   0  0  0  0  0  0  0  0  0  0  0  0
   -4.3170   22.1890  -31.8440 C   0  0  0  0  0  0  0  0  0  0  0  0
   -4.1710   21.0490  -32.4190 N   0  0  0  0  0  0  0  0  0  0  0  0
   -5.0060   20.5310  -33.4780 C   0  0  0  0  0  0  0  0  0  0  0  0
   -6.2200   19.8400  -32.9720 C   0  0  0  0  0  0  0  0  0  0  0  0
   -6.2300   18.4650  -32.7080 C   0  0  0  0  0  0  0  0  0  0  0  0
   -7.3550   17.8200  -32.2380 C   0  0  0  0  0  0  0  0  0  0  0  0
   -8.5290   18.5060  -32.0070 C   0  0  0  0  0  0  0  0  0  0  0  0
   -9.6100   17.8410  -31.5470 F   0  0  0  0  0  0  0  0  0  0  0  0
   -8.5430   19.8600  -32.2600 C   0  0  0  0  0  0  0  0  0  0  0  0
   -9.6980   20.5220  -32.0290 F   0  0  0  0  0  0  0  0  0  0  0  0
   -7.4100   20.4980  -32.7310 C   0  0  0  0  0  0  0  0  0  0  0  0
   -5.3180   22.9840  -32.2400 N   0  0  0  0  0  0  0  0  0  0  0  0
   -5.4490   24.1680  -31.6250 C   0  0  0  0  0  0  0  0  0  0  0  0
   -4.5890   24.5380  -30.6350 N   0  0  0  0  0  0  0  0  0  0  0  0
   -3.5790   23.7460  -30.2290 C   0  0  0  0  0  0  0  0  0  0  0  0
   -0.6939   25.3005  -27.1450 H   0  0  0  0  0  0  0  0  0  0  0  0
   -0.2907   24.4711  -28.6864 H   0  0  0  0  0  0  0  0  0  0  0  0
   -0.6884   26.2228  -28.6864 H   0  0  0  0  0  0  0  0  0  0  0  0
   -2.8293   25.7859  -28.9184 H   0  0  0  0  0  0  0  0  0  0  0  0
   -2.2783   24.9557  -26.2799 H   0  0  0  0  0  0  0  0  0  0  0  0
   -3.9065   25.2615  -26.9744 H   0  0  0  0  0  0  0  0  0  0  0  0
   -3.2279   23.5983  -26.9744 H   0  0  0  0  0  0  0  0  0  0  0  0
   -0.9739   22.4677  -28.7099 H   0  0  0  0  0  0  0  0  0  0  0  0
   -5.3201   21.3683  -34.1186 H   0  0  0  0  0  0  0  0  0  0  0  0
   -4.4123   19.7903  -34.0339 H   0  0  0  0  0  0  0  0  0  0  0  0
   -5.3134   17.8818  -32.8805 H   0  0  0  0  0  0  0  0  0  0  0  0
   -7.3151   16.7380  -32.0437 H   0  0  0  0  0  0  0  0  0  0  0  0
   -7.4590   21.5801  -32.9226 H   0  0  0  0  0  0  0  0  0  0  0  0
   -5.9660   22.7050  -32.9860 H   0  0  0  0  0  0  0  0  0  0  0  0
   -6.2601   24.8486  -31.9230 H   0  0  0  0  0  0  0  0  0  0  0  0
  1  2  1  0
  2  3  1  0
  2  4  1  0
  4  5  1  0
  5  6  2  0
  6  7  1  0
  7  8  1  0
  8  9  2  0
  9 10  1  0
 10 11  1  0
 11 12  2  0
 12 13  1  0
 13 14  2  0
 14 15  1  0
 14 16  1  0
 16 17  1  0
 16 18  2  0
  8 19  1  0
 19 20  1  0
 20 21  2  0
 21 22  1  0
 22  4  1  0
 22  7  2  0
 18 11  1  0
  1 23  1  0
  1 24  1  0
  1 25  1  0
  2 26  1  0
  3 27  1  0
  3 28  1  0
  3 29  1  0
  5 30  1  0
 10 31  1  0
 10 32  1  0
 12 33  1  0
 13 34  1  0
 18 35  1  0
 19 36  1  0
 20 37  1  0
M  END
>  <smiles>  (6) 
CC(C)n1cnc2c(=NCc3ccc(F)c(F)c3)[nH]cnc21

>  <score_type>  (6) 
oracle

>  <origin>  (6) 
adgpu

>  <m_score__min__energy>  (6) 
-6.9800000000000004

>  <m_primary>  (6) 
energy

$$$$
6:0
     RDKit          3D

 61 64  0  0  0  0  0  0  0  0999 V2000
   -5.6160   25.3170  -31.4350 O   0  0  0  0  0  0  0  0  0  0  0  0
   -4.7110   24.6250  -30.8980 C   0  0  0  0  0  0  0  0  0  0  0  0
   -4.1930   23.4870  -31.6000 N   0  0  0  0  0  0  0  0  0  0  0  0
   -4.9030   22.2680  -31.8450 C   0  0  0  0  0  0  0  0  0  0  0  0
   -4.2470   21.0440  -31.6740 C   0  0  0  0  0  0  0  0  0  0  0  0
   -4.9410   19.8420  -31.8310 C   0  0  0  0  0  0  0  0  0  0  0  0
   -6.3120   19.8540  -32.1350 C   0  0  0  0  0  0  0  0  0  0  0  0
   -7.2460   18.3600  -32.2090 S   0  0  0  0  0  0  0  0  0  0  0  0
   -8.7180   18.6510  -32.1000 O   0  0  0  0  0  0  0  0  0  0  0  0
   -6.8420   17.4850  -31.0550 O   0  0  0  0  0  0  0  0  0  0  0  0
   -6.9060   17.5360  -33.7190 N   0  0  0  0  0  0  0  0  0  0  0  0
   -6.4760   16.1380  -33.5040 C   0  0  0  0  0  0  0  0  0  0  0  0
   -4.9940   16.0230  -33.0930 C   0  0  0  0  0  0  0  0  0  0  0  0
   -4.1170   17.0190  -33.7290 N   0  0  0  0  0  0  0  0  0  0  0  0
   -4.7070   17.5850  -34.9460 C   0  0  0  0  0  0  0  0  0  0  0  0
   -6.0180   18.3210  -34.6110 C   0  0  0  0  0  0  0  0  0  0  0  0
   -6.9680   21.0800  -32.3170 C   0  0  0  0  0  0  0  0  0  0  0  0
   -6.2720   22.2790  -32.1680 C   0  0  0  0  0  0  0  0  0  0  0  0
   -4.2590   24.9720  -29.5810 N   0  0  0  0  0  0  0  0  0  0  0  0
   -3.3840   24.1740  -28.7680 C   0  0  0  0  0  0  0  0  0  0  0  0
   -3.8030   22.9030  -28.3890 C   0  0  0  0  0  0  0  0  0  0  0  0
   -2.9970   22.1040  -27.5800 C   0  0  0  0  0  0  0  0  0  0  0  0
   -1.7350   22.5590  -27.1270 C   0  0  0  0  0  0  0  0  0  0  0  0
   -0.9360   21.6580  -26.1980 C   0  0  0  0  0  0  0  0  0  0  0  0
   -0.6970   22.3190  -25.0010 F   0  0  0  0  0  0  0  0  0  0  0  0
   -1.6210   20.4920  -25.9090 F   0  0  0  0  0  0  0  0  0  0  0  0
    0.2710   21.2900  -26.7800 F   0  0  0  0  0  0  0  0  0  0  0  0
   -1.2930   23.8610  -27.5190 C   0  0  0  0  0  0  0  0  0  0  0  0
    0.2810   24.5460  -27.0200 S   0  0  0  0  0  0  0  0  0  0  0  0
    1.1280   24.9060  -28.2120 O   0  0  0  0  0  0  0  0  0  0  0  0
    1.0510   23.5340  -26.2190 O   0  0  0  0  0  0  0  0  0  0  0  0
   -0.0130   26.0130  -26.0220 C   0  0  2  0  0  0  0  0  0  0  0  0
    0.4870   25.8760  -24.6020 C   0  0  0  0  0  0  0  0  0  0  0  0
   -0.3850   26.8580  -23.8210 C   0  0  0  0  0  0  0  0  0  0  0  0
   -1.5860   27.1480  -24.6240 N   0  0  0  0  0  0  0  0  0  0  0  0
   -1.4850   26.3320  -25.8380 C   0  0  0  0  0  0  0  0  0  0  0  0
   -2.1110   24.6340  -28.3780 C   0  0  0  0  0  0  0  0  0  0  0  0
   -1.6500   25.8500  -28.8800 O   0  0  0  0  0  0  0  0  0  0  0  0
   -3.1782   21.0282  -31.4143 H   0  0  0  0  0  0  0  0  0  0  0  0
   -4.4126   18.8841  -31.7163 H   0  0  0  0  0  0  0  0  0  0  0  0
   -7.0960   15.6983  -32.7088 H   0  0  0  0  0  0  0  0  0  0  0  0
   -6.5964   15.6048  -34.4586 H   0  0  0  0  0  0  0  0  0  0  0  0
   -4.9268   16.1493  -32.0023 H   0  0  0  0  0  0  0  0  0  0  0  0
   -4.6471   15.0341  -33.4273 H   0  0  0  0  0  0  0  0  0  0  0  0
   -3.9450   17.8050  -33.0550 H   0  0  0  0  0  0  0  0  0  0  0  0
   -3.9976   18.2942  -35.3974 H   0  0  0  0  0  0  0  0  0  0  0  0
   -4.9242   16.7695  -35.6515 H   0  0  0  0  0  0  0  0  0  0  0  0
   -5.7708   19.2706  -34.1138 H   0  0  0  0  0  0  0  0  0  0  0  0
   -6.5574   18.4835  -35.5558 H   0  0  0  0  0  0  0  0  0  0  0  0
   -8.0364   21.0959  -32.5785 H   0  0  0  0  0  0  0  0  0  0  0  0
   -6.7954   23.2370  -32.3035 H   0  0  0  0  0  0  0  0  0  0  0  0
   -4.7781   22.5255  -28.7304 H   0  0  0  0  0  0  0  0  0  0  0  0
   -3.3473   21.1028  -27.2885 H   0  0  0  0  0  0  0  0  0  0  0  0
    0.5194   26.7918  -26.5878 H   0  0  0  0  0  0  0  0  0  0  0  0
    0.3489   24.8487  -24.2338 H   0  0  0  0  0  0  0  0  0  0  0  0
    1.5623   26.0861  -24.5041 H   0  0  0  0  0  0  0  0  0  0  0  0
   -0.6789   26.4115  -22.8596 H   0  0  0  0  0  0  0  0  0  0  0  0
    0.1721   27.7855  -23.6227 H   0  0  0  0  0  0  0  0  0  0  0  0
   -2.4370   26.8560  -24.0890 H   0  0  0  0  0  0  0  0  0  0  0  0
   -2.0632   25.4036  -25.7209 H   0  0  0  0  0  0  0  0  0  0  0  0
   -1.8882   26.8663  -26.7109 H   0  0  0  0  0  0  0  0  0  0  0  0
  1  2  2  0
  2  3  1  0
  3  4  1  0
  4  5  2  0
  5  6  1  0
  6  7  2  0
  7  8  1  0
  8  9  2  0
  8 10  2  0
  8 11  1  0
 11 12  1  0
 12 13  1  0
 13 14  1  0
 14 15  1  0
 15 16  1  0
  7 17  1  0
 17 18  2  0
  2 19  1  0
 19 20  1  0
 20 21  2  0
 21 22  1  0
 22 23  2  0
 23 24  1  0
 24 25  1  0
 24 26  1  0
 24 27  1  0
 23 28  1  0
 28 29  1  0
 29 30  2  0
 29 31  2  0
 29 32  1  0
 32 33  1  0
 33 34  1  0
 34 35  1  0
 35 36  1  0
 28 37  2  0
 37 38  1  0
 18  4  1  0
 37 20  1  0
 16 11  1  0
 36 32  1  0
  5 39  1  0
  6 40  1  0
 12 41  1  0
 12 42  1  0
 13 43  1  0
 13 44  1  0
 14 45  1  0
 15 46  1  0
 15 47  1  0
 16 48  1  0
 16 49  1  0
 17 50  1  0
 18 51  1  0
 21 52  1  0
 22 53  1  0
 32 54  1  6
 33 55  1  0
 33 56  1  0
 34 57  1  0
 34 58  1  0
 35 59  1  0
 36 60  1  0
 36 61  1  0
M  CHG  3   3  -1  19  -1  38  -1
M  END
>  <UniqueID>  (7) 
5

>  <SMILES>  (7) 
O=C([N-]c1ccc(S(=O)(=O)N2CCNCC2)cc1)[N-]c1ccc(C(F)(F)F)c(S(=O)(=O)[C@@H]2CCNC2)c1[O-]

>  <Energy>  (7) 
87.47525802033928

>  <Genealogy>  (7) 
O=C([N-]c1ccc(S(=O)(=O)N2CCNCC2)cc1)[N-]c1ccc(C(F)(F)F)c(S(=O)(=O)C2CCNC2)c1[O-] (protonated)
O=C([N-]c1ccc(S(=O)(=O)N2CCNCC2)cc1)[N-]c1ccc(C(F)(F)F)c(S(=O)(=O)[C@@H]2CCNC2)c1[O-] (chirality)
O=C([N-]c1ccc(S(=O)(=O)N2CCNCC2)cc1)[N-]c1ccc(C(F)(F)F)c(S(=O)(=O)[C@@H]2CCNC2)c1[O-] (3D coordinates assigned)
O=C([N-]c1ccc(S(=O)(=O)N2CCNCC2)cc1)[N-]c1ccc(C(F)(F)F)c(S(=O)(=O)[C@@H]2CCNC2)c1[O-] (nonaromatic ring conformer: 87.47525802033928 kcal/mol)

>  <smiles>  (7) 
O=C(Nc1ccc(S(=O)(=O)N2CCNCC2)cc1)Nc1ccc(C(F)(F)F)c(S(=O)(=O)C2CCNC2)c1O

>  <score_type>  (7) 
oracle

>  <origin>  (7) 
adgpu

>  <m_score__min__energy>  (7) 
-17.34

>  <m_primary>  (7) 
energy

$$$$
7:0
     RDKit          3D

 45 47  0  0  0  0  0  0  0  0999 V2000
   -1.3100   21.7450  -30.8610 N   0  0  0  0  0  0  0  0  0  0  0  0
   -2.4420   21.1580  -31.5140 C   0  0  0  0  0  0  0  0  0  0  0  0
   -3.5200   20.7040  -30.7400 C   0  0  0  0  0  0  0  0  0  0  0  0
   -4.6050   20.0630  -31.3400 C   0  0  0  0  0  0  0  0  0  0  0  0
   -4.6270   19.8610  -32.7260 C   0  0  0  0  0  0  0  0  0  0  0  0
   -6.0090   19.0680  -33.4860 S   0  0  0  0  0  0  0  0  0  0  0  0
   -6.1990   17.7070  -32.8750 O   0  0  0  0  0  0  0  0  0  0  0  0
   -5.7300   18.8840  -34.9530 O   0  0  0  0  0  0  0  0  0  0  0  0
   -7.4750   20.0010  -33.2830 N   0  0  0  0  0  0  0  0  0  0  0  0
   -8.5540   19.1940  -32.6600 C   0  0  0  0  0  0  0  0  0  0  0  0
   -8.7640   19.5190  -31.1740 C   0  0  0  0  0  0  0  0  0  0  0  0
   -9.1050   21.0060  -30.9730 C   0  0  0  0  0  0  0  0  0  0  0  0
   -8.4550   21.9140  -32.0310 C   0  0  0  0  0  0  0  0  0  0  0  0
   -7.1810   21.2770  -32.5960 C   0  0  0  0  0  0  0  0  0  0  0  0
   -3.5540   20.3090  -33.5050 C   0  0  0  0  0  0  0  0  0  0  0  0
   -2.4730   20.9800  -32.9160 C   0  0  0  0  0  0  0  0  0  0  0  0
   -1.4190   21.4660  -33.7600 N   0  0  0  0  0  0  0  0  0  0  0  0
   -0.0520   21.0620  -33.5820 C   0  0  0  0  0  0  0  0  0  0  0  0
    0.2680   20.3250  -32.6110 O   0  0  0  0  0  0  0  0  0  0  0  0
    0.9990   21.5080  -34.5120 C   0  0  0  0  0  0  0  0  0  0  0  0
    2.1910   20.8560  -34.7900 C   0  0  0  0  0  0  0  0  0  0  0  0
    2.8500   21.6490  -35.7070 C   0  0  0  0  0  0  0  0  0  0  0  0
    2.0180   22.7280  -35.9240 C   0  0  0  0  0  0  0  0  0  0  0  0
    2.2820   23.8230  -36.8040 N   0  0  0  0  0  0  0  0  0  0  0  0
    1.3520   24.5500  -37.2100 O   0  0  0  0  0  0  0  0  0  0  0  0
    3.5710   24.0810  -37.2080 O   0  0  0  0  0  0  0  0  0  0  0  0
    0.9270   22.6230  -35.2040 O   0  0  0  0  0  0  0  0  0  0  0  0
   -1.4420   22.4000  -30.0580 H   0  0  0  0  0  0  0  0  0  0  0  0
   -0.3320   21.4840  -31.1150 H   0  0  0  0  0  0  0  0  0  0  0  0
   -3.5102   20.8545  -29.6504 H   0  0  0  0  0  0  0  0  0  0  0  0
   -5.4460   19.7151  -30.7222 H   0  0  0  0  0  0  0  0  0  0  0  0
   -9.4933   19.3898  -33.1979 H   0  0  0  0  0  0  0  0  0  0  0  0
   -8.2553   18.1374  -32.7269 H   0  0  0  0  0  0  0  0  0  0  0  0
   -9.5904   18.9056  -30.7858 H   0  0  0  0  0  0  0  0  0  0  0  0
   -7.8313   19.2992  -30.6339 H   0  0  0  0  0  0  0  0  0  0  0  0
  -10.1969   21.1270  -31.0287 H   0  0  0  0  0  0  0  0  0  0  0  0
   -8.7112   21.3067  -29.9909 H   0  0  0  0  0  0  0  0  0  0  0  0
   -9.1691   22.0781  -32.8515 H   0  0  0  0  0  0  0  0  0  0  0  0
   -8.1872   22.8690  -31.5553 H   0  0  0  0  0  0  0  0  0  0  0  0
   -6.7212   21.9723  -33.3137 H   0  0  0  0  0  0  0  0  0  0  0  0
   -6.4969   21.0704  -31.7597 H   0  0  0  0  0  0  0  0  0  0  0  0
   -3.5589   20.1328  -34.5908 H   0  0  0  0  0  0  0  0  0  0  0  0
   -1.6250   22.2970  -34.3580 H   0  0  0  0  0  0  0  0  0  0  0  0
    2.5395   19.9025  -34.3665 H   0  0  0  0  0  0  0  0  0  0  0  0
    3.8311   21.4607  -36.1675 H   0  0  0  0  0  0  0  0  0  0  0  0
  1  2  1  0
  2  3  2  0
  3  4  1  0
  4  5  2  0
  5  6  1  0
  6  7  2  0
  6  8  2  0
  6  9  1  0
  9 10  1  0
 10 11  1  0
 11 12  1  0
 12 13  1  0
 13 14  1  0
  5 15  1  0
 15 16  2  0
 16 17  1  0
 17 18  1  0
 18 19  2  0
 18 20  1  0
 20 21  2  0
 21 22  1  0
 22 23  2  0
 23 24  1  0
 24 25  2  0
 24 26  1  0
 23 27  1  0
 16  2  1  0
 27 20  1  0
 14  9  1  0
  1 28  1  0
  1 29  1  0
  3 30  1  0
  4 31  1  0
 10 32  1  0
 10 33  1  0
 11 34  1  0
 11 35  1  0
 12 36  1  0
 12 37  1  0
 13 38  1  0
 13 39  1  0
 14 40  1  0
 14 41  1  0
 15 42  1  0
 17 43  1  0
 21 44  1  0
 22 45  1  0
M  CHG  2  24   1  26  -1
M  END
>  <UniqueID>  (8) 
6

>  <SMILES>  (8) 
Nc1ccc(S(=O)(=O)N2CCCCC2)cc1NC(=O)c1ccc([N+](=O)[O-])o1

>  <Energy>  (8) 
81.37091669937989

>  <Genealogy>  (8) 
Nc1ccc(S(=O)(=O)N2CCCCC2)cc1NC(=O)c1ccc([N+](=O)[O-])o1 (3D coordinates assigned)
Nc1ccc(S(=O)(=O)N2CCCCC2)cc1NC(=O)c1ccc([N+](=O)[O-])o1 (nonaromatic ring conformer: 81.37091669937989 kcal/mol)

>  <smiles>  (8) 
Nc1ccc(S(=O)(=O)N2CCCCC2)cc1NC(=O)c1ccc([N+](=O)[O-])o1

>  <score_type>  (8) 
oracle

>  <origin>  (8) 
adgpu

>  <m_score__min__energy>  (8) 
-9.2200000000000006

>  <m_primary>  (8) 
energy

$$$$
8:0
     RDKit          3D

 39 41  0  0  0  0  0  0  0  0999 V2000
   -4.8680   24.5210  -28.5000 N   0  0  0  0  0  0  0  0  0  0  0  0
   -5.3970   25.0190  -30.0680 S   0  0  0  0  0  0  0  0  0  0  0  0
   -4.2460   25.6330  -30.8140 O   0  0  0  0  0  0  0  0  0  0  0  0
   -6.4830   26.0490  -29.9260 O   0  0  0  0  0  0  0  0  0  0  0  0
   -6.0090   23.6270  -30.9560 C   0  0  0  0  0  0  0  0  0  0  0  0
   -5.1220   22.7700  -31.6230 C   0  0  0  0  0  0  0  0  0  0  0  0
   -5.6090   21.6730  -32.3410 C   0  0  0  0  0  0  0  0  0  0  0  0
   -6.9910   21.4170  -32.3920 C   0  0  0  0  0  0  0  0  0  0  0  0
   -7.5190   20.3360  -33.1140 O   0  0  0  0  0  0  0  0  0  0  0  0
   -6.9130   19.0800  -33.2550 C   0  0  0  0  0  0  0  0  0  0  0  0
   -7.5560   17.8970  -32.8520 C   0  0  0  0  0  0  0  0  0  0  0  0
   -6.9130   16.6720  -33.0310 C   0  0  0  0  0  0  0  0  0  0  0  0
   -5.6490   16.6290  -33.6190 C   0  0  0  0  0  0  0  0  0  0  0  0
   -5.0390   17.8240  -34.0350 C   0  0  0  0  0  0  0  0  0  0  0  0
   -3.6720   17.8320  -34.6820 C   0  0  2  0  0  0  0  0  0  0  0  0
   -2.8770   16.5560  -34.4210 C   0  0  0  0  0  0  0  0  0  0  0  0
   -1.6230   17.0140  -33.6950 C   0  0  0  0  0  0  0  0  0  0  0  0
   -1.4420   18.4370  -33.9730 N   0  0  0  0  0  0  0  0  0  0  0  0
   -2.7860   18.9730  -34.1740 C   0  0  0  0  0  0  0  0  0  0  0  0
   -5.6890   19.0060  -33.8430 N   0  0  0  0  0  0  0  0  0  0  0  0
   -7.8730   22.2910  -31.7480 C   0  0  0  0  0  0  0  0  0  0  0  0
   -7.3880   23.3880  -31.0310 C   0  0  0  0  0  0  0  0  0  0  0  0
   -4.6150   25.3870  -27.9740 H   0  0  0  0  0  0  0  0  0  0  0  0
   -5.6970   24.1070  -28.0160 H   0  0  0  0  0  0  0  0  0  0  0  0
   -4.0395   22.9611  -31.5814 H   0  0  0  0  0  0  0  0  0  0  0  0
   -4.9087   21.0081  -32.8677 H   0  0  0  0  0  0  0  0  0  0  0  0
   -8.5577   17.9367  -32.3993 H   0  0  0  0  0  0  0  0  0  0  0  0
   -7.4023   15.7410  -32.7088 H   0  0  0  0  0  0  0  0  0  0  0  0
   -5.1338   15.6668  -33.7559 H   0  0  0  0  0  0  0  0  0  0  0  0
   -3.8973   17.9430  -35.7530 H   0  0  0  0  0  0  0  0  0  0  0  0
   -3.4552   15.8620  -33.7933 H   0  0  0  0  0  0  0  0  0  0  0  0
   -2.6421   16.0185  -35.3516 H   0  0  0  0  0  0  0  0  0  0  0  0
   -1.7381   16.8556  -32.6126 H   0  0  0  0  0  0  0  0  0  0  0  0
   -0.7490   16.4408  -34.0377 H   0  0  0  0  0  0  0  0  0  0  0  0
   -0.9260   18.5200  -34.8830 H   0  0  0  0  0  0  0  0  0  0  0  0
   -3.1813   19.3591  -33.2229 H   0  0  0  0  0  0  0  0  0  0  0  0
   -2.7665   19.7982  -34.9011 H   0  0  0  0  0  0  0  0  0  0  0  0
   -8.9570   22.1134  -31.8064 H   0  0  0  0  0  0  0  0  0  0  0  0
   -8.0905   24.0659  -30.5240 H   0  0  0  0  0  0  0  0  0  0  0  0
  1  2  1  0
  2  3  2  0
  2  4  2  0
  2  5  1  0
  5  6  2  0
  6  7  1  0
  7  8  2  0
  8  9  1  0
  9 10  1  0
 10 11  2  0
 11 12  1  0
 12 13  2  0
 13 14  1  0
 14 15  1  0
 15 16  1  0
 16 17  1  0
 17 18  1  0
 18 19  1  0
 14 20  2  0
  8 21  1  0
 21 22  2  0
 22  5  1  0
 20 10  1  0
 19 15  1  0
  1 23  1  0
  1 24  1  0
  6 25  1  0
  7 26  1  0
 11 27  1  0
 12 28  1  0
 13 29  1  0
 15 30  1  6
 16 31  1  0
 16 32  1  0
 17 33  1  0
 17 34  1  0
 18 35  1  0
 19 36  1  0
 19 37  1  0
 21 38  1  0
 22 39  1  0
M  END
>  <UniqueID>  (9) 
7

>  <SMILES>  (9) 
NS(=O)(=O)c1ccc(Oc2cccc([C@@H]3CCNC3)n2)cc1

>  <Energy>  (9) 
47.56163225059194

>  <Genealogy>  (9) 
NS(=O)(=O)c1ccc(Oc2cccc([C@@H]3CCNC3)n2)cc1 (chirality)
NS(=O)(=O)c1ccc(Oc2cccc([C@@H]3CCNC3)n2)cc1 (3D coordinates assigned)
NS(=O)(=O)c1ccc(Oc2cccc([C@@H]3CCNC3)n2)cc1 (nonaromatic ring conformer: 47.56163225059194 kcal/mol)

>  <smiles>  (9) 
NS(=O)(=O)c1ccc(Oc2cccc(C3CCNC3)n2)cc1

>  <score_type>  (9) 
oracle

>  <origin>  (9) 
adgpu

>  <m_score__min__energy>  (9) 
-8.7300000000000004

>  <m_primary>  (9) 
energy

$$$$
9:0
     RDKit          3D

 48 51  0  0  0  0  0  0  0  0999 V2000
   -0.2690   26.3710  -27.3220 H   0  0  0  0  0  0  0  0  0  0  0  0
    0.1900   25.4780  -27.1860 O   0  0  0  0  0  0  0  0  0  0  0  0
   -0.1080   24.3650  -27.9730 C   0  0  0  0  0  0  0  0  0  0  0  0
   -1.0260   24.4470  -29.0280 C   0  0  0  0  0  0  0  0  0  0  0  0
   -1.6200   25.6620  -29.3460 O   0  0  0  0  0  0  0  0  0  0  0  0
   -1.3340   23.3120  -29.7830 C   0  0  0  0  0  0  0  0  0  0  0  0
   -2.0515   23.3918  -30.6130 H   0  0  0  0  0  0  0  0  0  0  0  0
   -0.7370   22.0620  -29.4960 C   0  0  0  0  0  0  0  0  0  0  0  0
   -0.9980   20.8600  -30.2280 C   0  0  0  0  0  0  0  0  0  0  0  0
   -2.0190   20.6660  -31.0230 N   0  0  0  0  0  0  0  0  0  0  0  0
   -3.2380   21.4110  -31.1460 C   0  0  0  0  0  0  0  0  0  0  0  0
   -3.5150   22.0880  -32.3390 C   0  0  0  0  0  0  0  0  0  0  0  0
   -2.7700   22.1008  -33.1482 H   0  0  0  0  0  0  0  0  0  0  0  0
   -4.7360   22.7480  -32.5050 C   0  0  0  0  0  0  0  0  0  0  0  0
   -4.9369   23.3027  -33.4334 H   0  0  0  0  0  0  0  0  0  0  0  0
   -5.7070   22.7060  -31.4920 C   0  0  0  0  0  0  0  0  0  0  0  0
   -7.0140   23.3590  -31.6880 C   0  0  0  0  0  0  0  0  0  0  0  0
   -7.1890   24.5280  -31.2550 O   0  0  0  0  0  0  0  0  0  0  0  0
   -8.0980   22.6920  -32.3480 N   0  0  0  0  0  0  0  0  0  0  0  0
   -8.7710   21.5060  -31.8310 C   0  0  0  0  0  0  0  0  0  0  0  0
   -8.8077   21.5559  -30.7327 H   0  0  0  0  0  0  0  0  0  0  0  0
   -9.7940   21.4631  -32.2331 H   0  0  0  0  0  0  0  0  0  0  0  0
   -8.0180   20.2720  -32.2510 C   0  0  0  0  0  0  0  0  0  0  0  0
   -8.3490   19.0270  -31.6980 C   0  0  0  0  0  0  0  0  0  0  0  0
   -9.1214   18.9633  -30.9174 H   0  0  0  0  0  0  0  0  0  0  0  0
   -7.7030   17.8660  -32.1330 C   0  0  0  0  0  0  0  0  0  0  0  0
   -7.9716   16.8941  -31.6933 H   0  0  0  0  0  0  0  0  0  0  0  0
   -6.7130   17.9320  -33.1280 C   0  0  0  0  0  0  0  0  0  0  0  0
   -6.0590   16.6730  -33.6400 C   0  0  0  0  0  0  0  0  0  0  0  0
   -7.0080   15.7960  -34.1360 F   0  0  0  0  0  0  0  0  0  0  0  0
   -5.3690   16.0340  -32.6240 F   0  0  0  0  0  0  0  0  0  0  0  0
   -5.1740   16.9990  -34.6500 F   0  0  0  0  0  0  0  0  0  0  0  0
   -6.4120   19.1750  -33.7080 C   0  0  0  0  0  0  0  0  0  0  0  0
   -5.6688   19.2343  -34.5168 H   0  0  0  0  0  0  0  0  0  0  0  0
   -7.0500   20.3380  -33.2650 C   0  0  0  0  0  0  0  0  0  0  0  0
   -6.7920   21.3088  -33.7133 H   0  0  0  0  0  0  0  0  0  0  0  0
   -5.4450   21.9920  -30.3130 C   0  0  0  0  0  0  0  0  0  0  0  0
   -6.2103   21.9345  -29.5250 H   0  0  0  0  0  0  0  0  0  0  0  0
   -4.2130   21.3530  -30.1370 C   0  0  0  0  0  0  0  0  0  0  0  0
   -4.0076   20.8039  -29.2062 H   0  0  0  0  0  0  0  0  0  0  0  0
   -0.1270   19.7750  -30.0620 C   0  0  0  0  0  0  0  0  0  0  0  0
   -0.2283   18.8899  -30.7072 H   0  0  0  0  0  0  0  0  0  0  0  0
    0.8650   19.8090  -29.0870 C   0  0  0  0  0  0  0  0  0  0  0  0
    1.5202   18.9377  -28.9404 H   0  0  0  0  0  0  0  0  0  0  0  0
    1.0260   20.9120  -28.3180 N   0  0  0  0  0  0  0  0  0  0  0  0
    0.2730   22.0280  -28.4960 C   0  0  0  0  0  0  0  0  0  0  0  0
    0.5450   23.1590  -27.7190 C   0  0  0  0  0  0  0  0  0  0  0  0
    1.2790   23.0968  -26.9020 H   0  0  0  0  0  0  0  0  0  0  0  0
  1  2  1  0
  2  3  1  0
  3  4  2  0
  4  5  1  0
  4  6  1  0
  6  7  1  0
  6  8  2  0
  8  9  1  0
  9 10  2  0
 10 11  1  0
 11 12  2  0
 12 13  1  0
 12 14  1  0
 14 15  1  0
 14 16  2  0
 16 17  1  0
 17 18  2  0
 17 19  1  0
 19 20  1  0
 20 21  1  0
 20 22  1  0
 20 23  1  0
 23 24  2  0
 24 25  1  0
 24 26  1  0
 26 27  1  0
 26 28  2  0
 28 29  1  0
 29 30  1  0
 29 31  1  0
 29 32  1  0
 28 33  1  0
 33 34  1  0
 33 35  2  0
 35 36  1  0
 16 37  1  0
 37 38  1  0
 37 39  2  0
 39 40  1  0
  9 41  1  0
 41 42  1  0
 41 43  2  0
 43 44  1  0
 43 45  1  0
 45 46  1  0
 46 47  2  0
 47 48  1  0
 47  3  1  0
 46  8  1  0
 39 11  1  0
 35 23  1  0
M  CHG  3   5  -1  19  -1  45  -1
M  END
>  <UniqueID>  (10) 
8

>  <SMILES>  (10) 
O=C([N-]Cc1ccc(C(F)(F)F)cc1)c1ccc(/N=c2/cc[n-]c3cc(O)c([O-])cc23)cc1

>  <Energy>  (10) 
79.29689433066503

>  <Genealogy>  (10) 
O=C([N-]Cc1ccc(C(F)(F)F)cc1)c1ccc(N=c2cc[n-]c3cc(O)c([O-])cc23)cc1 (protonated)
O=C([N-]Cc1ccc(C(F)(F)F)cc1)c1ccc(/N=c2/cc[n-]c3cc(O)c([O-])cc23)cc1 (cis-trans isomerization)
O=C([N-]Cc1ccc(C(F)(F)F)cc1)c1ccc(/N=c2/cc[n-]c3cc(O)c([O-])cc23)cc1 (3D coordinates assigned)
O=C([N-]Cc1ccc(C(F)(F)F)cc1)c1ccc(/N=c2/cc[n-]c3cc(O)c([O-])cc23)cc1 (optimized conformer: 79.29689433066503 kcal/mol)

>  <smiles>  (10) 
O=C(NCc1ccc(C(F)(F)F)cc1)c1ccc(N=c2cc[nH]c3cc(O)c(O)cc23)cc1

>  <score_type>  (10) 
oracle

>  <origin>  (10) 
adgpu

>  <m_score__min__energy>  (10) 
-11.380000000000001

>  <m_primary>  (10) 
energy

$$$$
10:0
     RDKit          3D

 39 41  0  0  0  0  0  0  0  0999 V2000
   -4.2090   24.9550  -26.3410 O   0  0  0  0  0  0  0  0  0  0  0  0
   -3.0990   24.7660  -26.9070 C   0  0  0  0  0  0  0  0  0  0  0  0
   -2.9260   23.5760  -27.7730 C   0  0  0  0  0  0  0  0  0  0  0  0
   -1.7240   22.8480  -27.6900 C   0  0  0  0  0  0  0  0  0  0  0  0
   -1.5410   21.6880  -28.4420 C   0  0  0  0  0  0  0  0  0  0  0  0
   -0.0370   20.7930  -28.3240 Cl  0  0  0  0  0  0  0  0  0  0  0  0
   -2.5560   21.2370  -29.2850 C   0  0  0  0  0  0  0  0  0  0  0  0
   -3.7530   21.9470  -29.3840 C   0  0  0  0  0  0  0  0  0  0  0  0
   -3.9560   23.1240  -28.6360 C   0  0  0  0  0  0  0  0  0  0  0  0
   -5.1620   23.8940  -28.8030 N   0  0  0  0  0  0  0  0  0  0  0  0
   -5.7940   24.3600  -30.3520 S   0  0  0  0  0  0  0  0  0  0  0  0
   -6.7900   25.4700  -30.1620 O   0  0  0  0  0  0  0  0  0  0  0  0
   -4.6680   24.8600  -31.2120 O   0  0  0  0  0  0  0  0  0  0  0  0
   -6.5540   22.9810  -31.1370 C   0  0  0  0  0  0  0  0  0  0  0  0
   -7.8650   22.6130  -30.8010 C   0  0  0  0  0  0  0  0  0  0  0  0
   -8.4710   21.5200  -31.4290 C   0  0  0  0  0  0  0  0  0  0  0  0
   -7.7680   20.7880  -32.3900 C   0  0  0  0  0  0  0  0  0  0  0  0
   -6.4590   21.1470  -32.7230 C   0  0  0  0  0  0  0  0  0  0  0  0
   -5.8510   22.2400  -32.0970 C   0  0  0  0  0  0  0  0  0  0  0  0
   -1.9800   25.7020  -26.6330 C   0  0  0  0  0  0  0  0  0  0  0  0
   -1.6590   26.0130  -25.3010 C   0  0  0  0  0  0  0  0  0  0  0  0
   -0.6010   26.8780  -25.0270 C   0  0  0  0  0  0  0  0  0  0  0  0
    0.1250   27.4350  -26.0770 C   0  0  0  0  0  0  0  0  0  0  0  0
   -0.2250   27.1240  -27.3910 C   0  0  0  0  0  0  0  0  0  0  0  0
   -1.2610   26.2790  -27.6510 N   0  0  0  0  0  0  0  0  0  0  0  0
   -1.6040   26.0550  -28.9660 O   0  0  0  0  0  0  0  0  0  0  0  0
   -0.9207   23.1978  -27.0250 H   0  0  0  0  0  0  0  0  0  0  0  0
   -2.4126   20.3189  -29.8736 H   0  0  0  0  0  0  0  0  0  0  0  0
   -4.5470   21.5841  -30.0532 H   0  0  0  0  0  0  0  0  0  0  0  0
   -5.7080   24.1940  -27.9660 H   0  0  0  0  0  0  0  0  0  0  0  0
   -8.4180   23.1854  -30.0417 H   0  0  0  0  0  0  0  0  0  0  0  0
   -9.5009   21.2365  -31.1666 H   0  0  0  0  0  0  0  0  0  0  0  0
   -8.2452   19.9290  -32.8844 H   0  0  0  0  0  0  0  0  0  0  0  0
   -5.9062   20.5692  -33.4784 H   0  0  0  0  0  0  0  0  0  0  0  0
   -4.8195   22.5186  -32.3584 H   0  0  0  0  0  0  0  0  0  0  0  0
   -2.2410   25.5751  -24.4767 H   0  0  0  0  0  0  0  0  0  0  0  0
   -0.3405   27.1197  -23.9860 H   0  0  0  0  0  0  0  0  0  0  0  0
    0.9662   28.1135  -25.8721 H   0  0  0  0  0  0  0  0  0  0  0  0
    0.3409   27.5652  -28.2247 H   0  0  0  0  0  0  0  0  0  0  0  0
  1  2  2  0
  2  3  1  0
  3  4  2  0
  4  5  1  0
  5  6  1  0
  5  7  2  0
  7  8  1  0
  8  9  2  0
  9 10  1  0
 10 11  1  0
 11 12  2  0
 11 13  2  0
 11 14  1  0
 14 15  2  0
 15 16  1  0
 16 17  2  0
 17 18  1  0
 18 19  2  0
  2 20  1  0
 20 21  2  0
 21 22  1  0
 22 23  2  0
 23 24  1  0
 24 25  2  0
 25 26  1  0
  9  3  1  0
 19 14  1  0
 25 20  1  0
  4 27  1  0
  7 28  1  0
  8 29  1  0
 10 30  1  0
 15 31  1  0
 16 32  1  0
 17 33  1  0
 18 34  1  0
 19 35  1  0
 21 36  1  0
 22 37  1  0
 23 38  1  0
 24 39  1  0
M  CHG  2  25   1  26  -1
M  END
>  <UniqueID>  (11) 
9

>  <SMILES>  (11) 
O=C(c1cc(Cl)ccc1NS(=O)(=O)c1ccccc1)c1cccc[n+]1[O-]

>  <Energy>  (11) 
55.90272700912057

>  <Genealogy>  (11) 
O=C(c1cc(Cl)ccc1NS(=O)(=O)c1ccccc1)c1cccc[n+]1[O-] (3D coordinates assigned)
O=C(c1cc(Cl)ccc1NS(=O)(=O)c1ccccc1)c1cccc[n+]1[O-] (optimized conformer: 55.90272700912057 kcal/mol)

>  <smiles>  (11) 
O=C(c1cc(Cl)ccc1NS(=O)(=O)c1ccccc1)c1cccc[n+]1[O-]

>  <score_type>  (11) 
oracle

>  <origin>  (11) 
adgpu

>  <m_score__min__energy>  (11) 
-11.029999999999999

>  <m_primary>  (11) 
energy

$$$$
11:0
     RDKit          3D

 56 59  0  0  0  0  0  0  0  0999 V2000
    0.0910   27.4810  -23.5890 C   0  0  0  0  0  0  0  0  0  0  0  0
   -0.0740   26.2020  -24.3560 C   0  0  0  0  0  0  0  0  0  0  0  0
    1.0150   25.3400  -24.5310 C   0  0  0  0  0  0  0  0  0  0  0  0
    0.8680   24.1620  -25.2640 C   0  0  0  0  0  0  0  0  0  0  0  0
   -0.3650   23.8200  -25.8330 C   0  0  0  0  0  0  0  0  0  0  0  0
   -0.4440   22.5890  -26.5060 O   0  0  0  0  0  0  0  0  0  0  0  0
   -1.2450   22.3230  -27.6300 C   0  0  0  0  0  0  0  0  0  0  0  0
   -2.0460   21.1660  -27.6210 C   0  0  0  0  0  0  0  0  0  0  0  0
   -2.0900   20.2900  -26.3990 C   0  0  0  0  0  0  0  0  0  0  0  0
   -2.7850   20.8170  -28.7600 C   0  0  0  0  0  0  0  0  0  0  0  0
   -2.7420   21.6130  -29.9160 C   0  0  0  0  0  0  0  0  0  0  0  0
   -3.5120   21.2470  -31.1320 C   0  0  0  0  0  0  0  0  0  0  0  0
   -2.8750   20.9160  -32.3380 C   0  0  0  0  0  0  0  0  0  0  0  0
   -3.6610   20.5880  -33.4410 C   0  0  0  0  0  0  0  0  0  0  0  0
   -5.0140   20.5990  -33.3390 N   0  0  0  0  0  0  0  0  0  0  0  0
   -5.6310   20.9280  -32.1710 C   0  0  0  0  0  0  0  0  0  0  0  0
   -7.0710   20.9380  -32.0830 N   0  0  0  0  0  0  0  0  0  0  0  0
   -7.8240   19.6900  -32.2740 C   0  0  0  0  0  0  0  0  0  0  0  0
   -9.2600   19.9930  -32.7080 C   0  0  0  0  0  0  0  0  0  0  0  0
   -9.8620   20.9270  -31.8350 O   0  0  0  0  0  0  0  0  0  0  0  0
   -9.2020   22.1710  -31.9470 C   0  0  0  0  0  0  0  0  0  0  0  0
   -7.7580   22.0700  -31.4470 C   0  0  0  0  0  0  0  0  0  0  0  0
   -4.8720   21.2500  -31.0870 N   0  0  0  0  0  0  0  0  0  0  0  0
   -1.9890   22.7980  -29.8970 C   0  0  0  0  0  0  0  0  0  0  0  0
   -1.2610   23.1770  -28.7600 C   0  0  0  0  0  0  0  0  0  0  0  0
   -0.5760   24.4870  -28.7640 C   0  0  0  0  0  0  0  0  0  0  0  0
   -1.2860   25.6710  -29.1180 N   0  0  0  0  0  0  0  0  0  0  0  0
    0.6540   24.5570  -28.4980 O   0  0  0  0  0  0  0  0  0  0  0  0
   -1.4520   24.7280  -25.7310 C   0  0  0  0  0  0  0  0  0  0  0  0
   -2.7610   24.4980  -26.4370 C   0  0  0  0  0  0  0  0  0  0  0  0
   -1.2970   25.9010  -24.9730 C   0  0  0  0  0  0  0  0  0  0  0  0
    0.0635   27.2678  -22.5102 H   0  0  0  0  0  0  0  0  0  0  0  0
    1.0560   27.9415  -23.8472 H   0  0  0  0  0  0  0  0  0  0  0  0
   -0.7255   28.1714  -23.8472 H   0  0  0  0  0  0  0  0  0  0  0  0
    1.9902   25.5923  -24.0890 H   0  0  0  0  0  0  0  0  0  0  0  0
    1.7314   23.4935  -25.3966 H   0  0  0  0  0  0  0  0  0  0  0  0
   -2.0585   20.9179  -25.4964 H   0  0  0  0  0  0  0  0  0  0  0  0
   -3.0189   19.7008  -26.4035 H   0  0  0  0  0  0  0  0  0  0  0  0
   -1.2248   19.6107  -26.4035 H   0  0  0  0  0  0  0  0  0  0  0  0
   -3.4058   19.9090  -28.7480 H   0  0  0  0  0  0  0  0  0  0  0  0
   -1.7774   20.9155  -32.4111 H   0  0  0  0  0  0  0  0  0  0  0  0
   -3.1841   20.3199  -34.3953 H   0  0  0  0  0  0  0  0  0  0  0  0
   -7.3314   19.0847  -33.0492 H   0  0  0  0  0  0  0  0  0  0  0  0
   -7.8482   19.1392  -31.3221 H   0  0  0  0  0  0  0  0  0  0  0  0
   -9.2489   20.4071  -33.7270 H   0  0  0  0  0  0  0  0  0  0  0  0
   -9.8410   19.0594  -32.6802 H   0  0  0  0  0  0  0  0  0  0  0  0
   -9.1970   22.4824  -33.0020 H   0  0  0  0  0  0  0  0  0  0  0  0
   -9.7365   22.9093  -31.3312 H   0  0  0  0  0  0  0  0  0  0  0  0
   -7.2246   23.0005  -31.6910 H   0  0  0  0  0  0  0  0  0  0  0  0
   -7.7688   21.9133  -30.3583 H   0  0  0  0  0  0  0  0  0  0  0  0
   -1.9698   23.4404  -30.7898 H   0  0  0  0  0  0  0  0  0  0  0  0
   -1.2410   26.0530  -30.0890 H   0  0  0  0  0  0  0  0  0  0  0  0
   -3.5591   24.3578  -25.6931 H   0  0  0  0  0  0  0  0  0  0  0  0
   -2.9958   25.3687  -27.0670 H   0  0  0  0  0  0  0  0  0  0  0  0
   -2.6849   23.5995  -27.0670 H   0  0  0  0  0  0  0  0  0  0  0  0
   -2.1457   26.5920  -24.8621 H   0  0  0  0  0  0  0  0  0  0  0  0
  1  2  1  0
  2  3  2  0
  3  4  1  0
  4  5  2  0
  5  6  1  0
  6  7  1  0
  7  8  2  0
  8  9  1  0
  8 10  1  0
 10 11  2  0
 11 12  1  0
 12 13  2  0
 13 14  1  0
 14 15  2  0
 15 16  1  0
 16 17  1  0
 17 18  1  0
 18 19  1  0
 19 20  1  0
 20 21  1  0
 21 22  1  0
 16 23  2  0
 11 24  1  0
 24 25  2  0
 25 26  1  0
 26 27  1  0
 26 28  2  0
  5 29  1  0
 29 30  1  0
 29 31  2  0
 31  2  1  0
 25  7  1  0
 23 12  1  0
 22 17  1  0
  1 32  1  0
  1 33  1  0
  1 34  1  0
  3 35  1  0
  4 36  1  0
  9 37  1  0
  9 38  1  0
  9 39  1  0
 10 40  1  0
 13 41  1  0
 14 42  1  0
 18 43  1  0
 18 44  1  0
 19 45  1  0
 19 46  1  0
 21 47  1  0
 21 48  1  0
 22 49  1  0
 22 50  1  0
 24 51  1  0
 27 52  1  0
 30 53  1  0
 30 54  1  0
 30 55  1  0
 31 56  1  0
M  CHG  1  27  -1
M  END
>  <UniqueID>  (12) 
10

>  <SMILES>  (12) 
Cc1ccc(Oc2c(C)cc(-c3ccnc(N4CCOCC4)n3)cc2C([NH-])=O)c(C)c1

>  <Energy>  (12) 
78.49873856117348

>  <Genealogy>  (12) 
Cc1ccc(Oc2c(C)cc(-c3ccnc(N4CCOCC4)n3)cc2C([NH-])=O)c(C)c1 (protonated)
Cc1ccc(Oc2c(C)cc(-c3ccnc(N4CCOCC4)n3)cc2C([NH-])=O)c(C)c1 (3D coordinates assigned)
Cc1ccc(Oc2c(C)cc(-c3ccnc(N4CCOCC4)n3)cc2C([NH-])=O)c(C)c1 (nonaromatic ring conformer: 78.49873856117348 kcal/mol)

>  <smiles>  (12) 
Cc1ccc(Oc2c(C)cc(-c3ccnc(N4CCOCC4)n3)cc2C(N)=O)c(C)c1

>  <score_type>  (12) 
oracle

>  <origin>  (12) 
adgpu

>  <m_score__min__energy>  (12) 
-11.609999999999999

>  <m_primary>  (12) 
energy

$$$$
12:0
     RDKit          3D

 60 63  0  0  0  0  0  0  0  0999 V2000
   -1.2270   26.4350  -26.3860 C   0  0  0  0  0  0  0  0  0  0  0  0
   -1.0130   26.1850  -28.1750 S   0  0  0  0  0  0  0  0  0  0  0  0
   -1.7560   24.5500  -28.1710 C   0  0  0  0  0  0  0  0  0  0  0  0
   -1.2090   23.5840  -27.3870 N   0  0  0  0  0  0  0  0  0  0  0  0
   -1.7190   22.3520  -27.3060 N   0  0  0  0  0  0  0  0  0  0  0  0
   -1.0650   21.3870  -26.4150 C   0  0  0  0  0  0  0  0  0  0  0  0
   -0.4450   20.2780  -27.2210 C   0  0  0  0  0  0  0  0  0  0  0  0
   -0.9140   18.9600  -27.0800 C   0  0  0  0  0  0  0  0  0  0  0  0
   -0.3610   17.9310  -27.8490 C   0  0  0  0  0  0  0  0  0  0  0  0
    0.6560   18.2110  -28.7660 C   0  0  0  0  0  0  0  0  0  0  0  0
    1.1200   19.5210  -28.9190 C   0  0  0  0  0  0  0  0  0  0  0  0
    0.5690   20.5540  -28.1540 C   0  0  0  0  0  0  0  0  0  0  0  0
   -2.8620   22.0320  -27.9900 C   0  0  0  0  0  0  0  0  0  0  0  0
   -3.3760   20.8840  -27.8920 O   0  0  0  0  0  0  0  0  0  0  0  0
   -3.4720   22.9880  -28.7990 C   0  0  0  0  0  0  0  0  0  0  0  0
   -2.8990   24.2600  -28.9250 C   0  0  0  0  0  0  0  0  0  0  0  0
   -3.4980   25.2780  -29.7450 N   0  0  0  0  0  0  0  0  0  0  0  0
   -4.8080   25.2310  -30.3330 C   0  0  0  0  0  0  0  0  0  0  0  0
   -5.7720   25.7550  -29.7200 O   0  0  0  0  0  0  0  0  0  0  0  0
   -5.0490   24.5950  -31.5960 N   0  0  0  0  0  0  0  0  0  0  0  0
   -5.8000   23.3860  -31.7720 C   0  0  0  0  0  0  0  0  0  0  0  0
   -5.1600   22.1410  -31.8610 C   0  0  0  0  0  0  0  0  0  0  0  0
   -5.9130   20.9700  -31.9810 C   0  0  0  0  0  0  0  0  0  0  0  0
   -7.3120   21.0330  -32.0340 C   0  0  0  0  0  0  0  0  0  0  0  0
   -8.2660   19.5540  -32.1660 S   0  0  0  0  0  0  0  0  0  0  0  0
   -9.4430   19.8060  -33.0680 O   0  0  0  0  0  0  0  0  0  0  0  0
   -8.7940   19.1810  -30.8070 O   0  0  0  0  0  0  0  0  0  0  0  0
   -7.3210   18.2320  -32.8070 N   0  0  0  0  0  0  0  0  0  0  0  0
   -6.4560   18.7040  -33.9010 C   0  0  0  0  0  0  0  0  0  0  0  0
   -5.8070   17.5100  -34.6270 C   0  0  0  0  0  0  0  0  0  0  0  0
   -5.7360   16.2530  -33.7410 C   0  0  0  0  0  0  0  0  0  0  0  0
   -5.4630   16.6240  -32.2810 C   0  0  0  0  0  0  0  0  0  0  0  0
   -6.5210   17.6080  -31.7320 C   0  0  0  0  0  0  0  0  0  0  0  0
   -7.9490   22.2810  -31.9810 C   0  0  0  0  0  0  0  0  0  0  0  0
   -7.1950   23.4530  -31.8620 C   0  0  0  0  0  0  0  0  0  0  0  0
   -0.6069   25.7105  -25.8378 H   0  0  0  0  0  0  0  0  0  0  0  0
   -0.9195   27.4569  -26.1192 H   0  0  0  0  0  0  0  0  0  0  0  0
   -2.2841   26.2888  -26.1192 H   0  0  0  0  0  0  0  0  0  0  0  0
   -0.2815   21.8986  -25.8367 H   0  0  0  0  0  0  0  0  0  0  0  0
   -1.8152   20.9607  -25.7327 H   0  0  0  0  0  0  0  0  0  0  0  0
   -1.7180   18.7376  -26.3630 H   0  0  0  0  0  0  0  0  0  0  0  0
   -0.7268   16.9002  -27.7320 H   0  0  0  0  0  0  0  0  0  0  0  0
    1.0918   17.3999  -29.3679 H   0  0  0  0  0  0  0  0  0  0  0  0
    1.9196   19.7395  -29.6421 H   0  0  0  0  0  0  0  0  0  0  0  0
    0.9302   21.5850  -28.2829 H   0  0  0  0  0  0  0  0  0  0  0  0
   -4.4002   22.7449  -29.3369 H   0  0  0  0  0  0  0  0  0  0  0  0
   -4.0616   22.0863  -31.8362 H   0  0  0  0  0  0  0  0  0  0  0  0
   -5.4059   19.9953  -32.0341 H   0  0  0  0  0  0  0  0  0  0  0  0
   -7.0601   19.2792  -34.6181 H   0  0  0  0  0  0  0  0  0  0  0  0
   -5.6627   19.3389  -33.4796 H   0  0  0  0  0  0  0  0  0  0  0  0
   -6.3999   17.2771  -35.5238 H   0  0  0  0  0  0  0  0  0  0  0  0
   -4.7771   17.7953  -34.8877 H   0  0  0  0  0  0  0  0  0  0  0  0
   -6.6937   15.7154  -33.8023 H   0  0  0  0  0  0  0  0  0  0  0  0
   -4.9131   15.6177  -34.1003 H   0  0  0  0  0  0  0  0  0  0  0  0
   -5.4784   15.7082  -31.6719 H   0  0  0  0  0  0  0  0  0  0  0  0
   -4.4801   17.1153  -32.2308 H   0  0  0  0  0  0  0  0  0  0  0  0
   -7.1982   17.0601  -31.0602 H   0  0  0  0  0  0  0  0  0  0  0  0
   -5.9889   18.4108  -31.2006 H   0  0  0  0  0  0  0  0  0  0  0  0
   -9.0463   22.3386  -32.0332 H   0  0  0  0  0  0  0  0  0  0  0  0
   -7.6998   24.4300  -31.8391 H   0  0  0  0  0  0  0  0  0  0  0  0
  1  2  1  0
  2  3  1  0
  3  4  2  0
  4  5  1  0
  5  6  1  0
  6  7  1  0
  7  8  2  0
  8  9  1  0
  9 10  2  0
 10 11  1  0
 11 12  2  0
  5 13  1  0
 13 14  2  0
 13 15  1  0
 15 16  2  0
 16 17  1  0
 17 18  1  0
 18 19  2  0
 18 20  1  0
 20 21  1  0
 21 22  2  0
 22 23  1  0
 23 24  2  0
 24 25  1  0
 25 26  2  0
 25 27  2  0
 25 28  1  0
 28 29  1  0
 29 30  1  0
 30 31  1  0
 31 32  1  0
 32 33  1  0
 24 34  1  0
 34 35  2  0
 16  3  1  0
 35 21  1  0
 12  7  1  0
 33 28  1  0
  1 36  1  0
  1 37  1  0
  1 38  1  0
  6 39  1  0
  6 40  1  0
  8 41  1  0
  9 42  1  0
 10 43  1  0
 11 44  1  0
 12 45  1  0
 15 46  1  0
 22 47  1  0
 23 48  1  0
 29 49  1  0
 29 50  1  0
 30 51  1  0
 30 52  1  0
 31 53  1  0
 31 54  1  0
 32 55  1  0
 32 56  1  0
 33 57  1  0
 33 58  1  0
 34 59  1  0
 35 60  1  0
M  CHG  2  17  -1  20  -1
M  END
>  <UniqueID>  (13) 
11

>  <SMILES>  (13) 
CSc1nn(Cc2ccccc2)c(=O)cc1[N-]C(=O)[N-]c1ccc(S(=O)(=O)N2CCCCC2)cc1

>  <Energy>  (13) 
68.97801606458728

>  <Genealogy>  (13) 
CSc1nn(Cc2ccccc2)c(=O)cc1[N-]C(=O)[N-]c1ccc(S(=O)(=O)N2CCCCC2)cc1 (protonated)
CSc1nn(Cc2ccccc2)c(=O)cc1[N-]C(=O)[N-]c1ccc(S(=O)(=O)N2CCCCC2)cc1 (3D coordinates assigned)
CSc1nn(Cc2ccccc2)c(=O)cc1[N-]C(=O)[N-]c1ccc(S(=O)(=O)N2CCCCC2)cc1 (nonaromatic ring conformer: 68.97801606458728 kcal/mol)

>  <smiles>  (13) 
CSc1nn(Cc2ccccc2)c(=O)cc1NC(=O)Nc1ccc(S(=O)(=O)N2CCCCC2)cc1

>  <score_type>  (13) 
oracle

>  <origin>  (13) 
adgpu

>  <m_score__min__energy>  (13) 
-13

>  <m_primary>  (13) 
energy

$$$$
13:0
     RDKit          3D

 63 66  0  0  0  0  0  0  0  0999 V2000
   -0.0140   20.6650  -34.3800 C   0  0  0  0  0  0  0  0  0  0  0  0
   -0.7090   19.8680  -33.4270 O   0  0  0  0  0  0  0  0  0  0  0  0
   -2.0860   19.5890  -33.4710 C   0  0  0  0  0  0  0  0  0  0  0  0
   -2.6080   18.5640  -34.2840 C   0  0  0  0  0  0  0  0  0  0  0  0
   -3.9830   18.3220  -34.3250 C   0  0  0  0  0  0  0  0  0  0  0  0
   -4.8620   19.1040  -33.5660 C   0  0  0  0  0  0  0  0  0  0  0  0
   -6.3420   18.8150  -33.5870 C   0  0  0  0  0  0  0  0  0  0  0  0
   -6.9000   18.7960  -32.2150 N   0  0  0  0  0  0  0  0  0  0  0  0
   -8.0200   17.8310  -32.0700 C   0  0  0  0  0  0  0  0  0  0  0  0
   -9.4040   18.5020  -31.9460 C   0  0  0  0  0  0  0  0  0  0  0  0
   -9.4910   19.6930  -32.7950 N   0  0  0  0  0  0  0  0  0  0  0  0
   -8.5040   20.7190  -32.4150 C   0  0  0  0  0  0  0  0  0  0  0  0
   -7.2540   20.1420  -31.7150 C   0  0  0  0  0  0  0  0  0  0  0  0
   -4.3500   20.1250  -32.7550 C   0  0  0  0  0  0  0  0  0  0  0  0
   -2.9680   20.3680  -32.6920 C   0  0  0  0  0  0  0  0  0  0  0  0
   -2.4630   21.4250  -31.7850 C   0  0  0  0  0  0  0  0  0  0  0  0
   -3.3090   22.4680  -31.3760 C   0  0  0  0  0  0  0  0  0  0  0  0
   -2.8630   23.4200  -30.4570 C   0  0  0  0  0  0  0  0  0  0  0  0
   -1.5710   23.3350  -29.9240 C   0  0  0  0  0  0  0  0  0  0  0  0
   -1.0850   24.4270  -28.6320 S   0  0  0  0  0  0  0  0  0  0  0  0
    0.4140   24.4470  -28.5240 O   0  0  0  0  0  0  0  0  0  0  0  0
   -1.5700   25.8200  -28.9220 O   0  0  0  0  0  0  0  0  0  0  0  0
   -1.7570   23.8660  -27.1400 N   0  0  0  0  0  0  0  0  0  0  0  0
   -1.5920   22.5050  -26.7380 C   0  0  0  0  0  0  0  0  0  0  0  0
   -0.8910   22.0550  -25.6360 C   0  0  0  0  0  0  0  0  0  0  0  0
   -0.0430   22.8780  -24.7230 C   0  0  0  0  0  0  0  0  0  0  0  0
   -1.2260   20.7710  -25.3920 N   0  0  0  0  0  0  0  0  0  0  0  0
   -2.0950   20.3980  -26.3210 N   0  0  0  0  0  0  0  0  0  0  0  0
   -2.7870   19.1140  -26.2960 C   0  0  0  0  0  0  0  0  0  0  0  0
   -2.3590   21.4340  -27.1450 C   0  0  0  0  0  0  0  0  0  0  0  0
   -3.4280   21.4470  -28.1960 C   0  0  0  0  0  0  0  0  0  0  0  0
   -0.7170   22.3040  -30.3400 C   0  0  0  0  0  0  0  0  0  0  0  0
   -1.1590   21.3560  -31.2660 C   0  0  0  0  0  0  0  0  0  0  0  0
    0.6213   21.3936  -33.8551 H   0  0  0  0  0  0  0  0  0  0  0  0
    0.6138   20.0184  -35.0107 H   0  0  0  0  0  0  0  0  0  0  0  0
   -0.7401   21.1989  -35.0107 H   0  0  0  0  0  0  0  0  0  0  0  0
   -1.9274   17.9493  -34.8914 H   0  0  0  0  0  0  0  0  0  0  0  0
   -4.3774   17.5127  -34.9570 H   0  0  0  0  0  0  0  0  0  0  0  0
   -6.8522   19.5945  -34.1718 H   0  0  0  0  0  0  0  0  0  0  0  0
   -6.4989   17.8260  -34.0423 H   0  0  0  0  0  0  0  0  0  0  0  0
   -8.0298   17.1750  -32.9529 H   0  0  0  0  0  0  0  0  0  0  0  0
   -7.8471   17.2753  -31.1366 H   0  0  0  0  0  0  0  0  0  0  0  0
  -10.1797   17.7848  -32.2526 H   0  0  0  0  0  0  0  0  0  0  0  0
   -9.5516   18.8074  -30.8996 H   0  0  0  0  0  0  0  0  0  0  0  0
   -9.3310   19.4070  -33.7890 H   0  0  0  0  0  0  0  0  0  0  0  0
   -8.1814   21.2458  -33.3252 H   0  0  0  0  0  0  0  0  0  0  0  0
   -8.9961   21.3909  -31.6964 H   0  0  0  0  0  0  0  0  0  0  0  0
   -6.4055   20.8193  -31.8921 H   0  0  0  0  0  0  0  0  0  0  0  0
   -7.4809   20.0529  -30.6423 H   0  0  0  0  0  0  0  0  0  0  0  0
   -5.0383   20.7437  -32.1605 H   0  0  0  0  0  0  0  0  0  0  0  0
   -4.3292   22.5357  -31.7818 H   0  0  0  0  0  0  0  0  0  0  0  0
   -3.5292   24.2399  -30.1506 H   0  0  0  0  0  0  0  0  0  0  0  0
   -0.2898   22.6385  -23.6781 H   0  0  0  0  0  0  0  0  0  0  0  0
    1.0182   22.6564  -24.9092 H   0  0  0  0  0  0  0  0  0  0  0  0
   -0.2328   23.9454  -24.9092 H   0  0  0  0  0  0  0  0  0  0  0  0
   -2.9525   18.8069  -25.2528 H   0  0  0  0  0  0  0  0  0  0  0  0
   -3.7558   19.2096  -26.8082 H   0  0  0  0  0  0  0  0  0  0  0  0
   -2.1745   18.3573  -26.8082 H   0  0  0  0  0  0  0  0  0  0  0  0
   -4.4165   21.4590  -27.7135 H   0  0  0  0  0  0  0  0  0  0  0  0
   -3.3150   22.3438  -28.8228 H   0  0  0  0  0  0  0  0  0  0  0  0
   -3.3369   20.5477  -28.8228 H   0  0  0  0  0  0  0  0  0  0  0  0
    0.3042   22.2413  -29.9360 H   0  0  0  0  0  0  0  0  0  0  0  0
   -0.4828   20.5514  -31.5905 H   0  0  0  0  0  0  0  0  0  0  0  0
  1  2  1  0
  2  3  1  0
  3  4  2  0
  4  5  1  0
  5  6  2  0
  6  7  1  0
  7  8  1  0
  8  9  1  0
  9 10  1  0
 10 11  1  0
 11 12  1  0
 12 13  1  0
  6 14  1  0
 14 15  2  0
 15 16  1  0
 16 17  2  0
 17 18  1  0
 18 19  2  0
 19 20  1  0
 20 21  2  0
 20 22  2  0
 20 23  1  0
 23 24  1  0
 24 25  1  0
 25 26  1  0
 25 27  2  0
 27 28  1  0
 28 29  1  0
 28 30  1  0
 30 31  1  0
 19 32  1  0
 32 33  2  0
 15  3  1  0
 33 16  1  0
 13  8  1  0
 30 24  2  0
  1 34  1  0
  1 35  1  0
  1 36  1  0
  4 37  1  0
  5 38  1  0
  7 39  1  0
  7 40  1  0
  9 41  1  0
  9 42  1  0
 10 43  1  0
 10 44  1  0
 11 45  1  0
 12 46  1  0
 12 47  1  0
 13 48  1  0
 13 49  1  0
 14 50  1  0
 17 51  1  0
 18 52  1  0
 26 53  1  0
 26 54  1  0
 26 55  1  0
 29 56  1  0
 29 57  1  0
 29 58  1  0
 31 59  1  0
 31 60  1  0
 31 61  1  0
 32 62  1  0
 33 63  1  0
M  CHG  1  23  -1
M  END
>  <UniqueID>  (14) 
12

>  <SMILES>  (14) 
COc1ccc(CN2CCNCC2)cc1-c1ccc(S(=O)(=O)[N-]c2c(C)nn(C)c2C)cc1

>  <Energy>  (14) 
117.25160844697186

>  <Genealogy>  (14) 
COc1ccc(CN2CCNCC2)cc1-c1ccc(S(=O)(=O)[N-]c2c(C)nn(C)c2C)cc1 (protonated)
COc1ccc(CN2CCNCC2)cc1-c1ccc(S(=O)(=O)[N-]c2c(C)nn(C)c2C)cc1 (3D coordinates assigned)
COc1ccc(CN2CCNCC2)cc1-c1ccc(S(=O)(=O)[N-]c2c(C)nn(C)c2C)cc1 (nonaromatic ring conformer: 117.25160844697186 kcal/mol)

>  <smiles>  (14) 
COc1ccc(CN2CCNCC2)cc1-c1ccc(S(=O)(=O)Nc2c(C)nn(C)c2C)cc1

>  <score_type>  (14) 
oracle

>  <origin>  (14) 
adgpu

>  <m_score__min__energy>  (14) 
-10.460000000000001

>  <m_primary>  (14) 
energy

$$$$
14:0
     RDKit          3D

 32 34  0  0  0  0  0  0  0  0999 V2000
   -1.1710   25.3740  -29.3180 O   0  0  0  0  0  0  0  0  0  0  0  0
   -2.4150   24.5440  -29.1830 S   0  0  0  0  0  0  0  0  0  0  0  0
   -3.0930   24.8850  -27.8850 O   0  0  0  0  0  0  0  0  0  0  0  0
   -3.4880   24.9140  -30.4940 N   0  0  0  0  0  0  0  0  0  0  0  0
   -4.8480   24.4670  -30.6070 C   0  0  0  0  0  0  0  0  0  0  0  0
   -5.9160   25.1980  -30.0490 C   0  0  0  0  0  0  0  0  0  0  0  0
   -7.2280   24.7360  -30.1730 C   0  0  0  0  0  0  0  0  0  0  0  0
   -7.4900   23.5450  -30.8530 C   0  0  0  0  0  0  0  0  0  0  0  0
   -6.4410   22.8140  -31.4120 C   0  0  0  0  0  0  0  0  0  0  0  0
   -5.1220   23.2710  -31.2950 C   0  0  0  0  0  0  0  0  0  0  0  0
   -3.7960   22.3040  -32.0250 S   0  0  0  0  0  0  0  0  0  0  0  0
   -4.8820   20.9330  -32.3960 C   0  0  0  0  0  0  0  0  0  0  0  0
   -5.1310   19.9150  -31.5500 N   0  0  0  0  0  0  0  0  0  0  0  0
   -5.9680   19.1300  -32.2090 N   0  0  0  0  0  0  0  0  0  0  0  0
   -6.2090   19.6550  -33.3980 N   0  0  0  0  0  0  0  0  0  0  0  0
   -5.5470   20.7880  -33.5560 N   0  0  0  0  0  0  0  0  0  0  0  0
   -1.9720   22.8410  -29.2240 C   0  0  0  0  0  0  0  0  0  0  0  0
   -0.9250   22.4080  -30.0510 C   0  0  0  0  0  0  0  0  0  0  0  0
   -0.5760   21.0550  -30.0920 C   0  0  0  0  0  0  0  0  0  0  0  0
   -1.2670   20.1300  -29.3040 C   0  0  0  0  0  0  0  0  0  0  0  0
   -2.3070   20.5580  -28.4740 C   0  0  0  0  0  0  0  0  0  0  0  0
   -2.6590   21.9110  -28.4310 C   0  0  0  0  0  0  0  0  0  0  0  0
   -5.7151   26.1373  -29.5130 H   0  0  0  0  0  0  0  0  0  0  0  0
   -8.0565   25.3114  -29.7342 H   0  0  0  0  0  0  0  0  0  0  0  0
   -8.5242   23.1826  -30.9482 H   0  0  0  0  0  0  0  0  0  0  0  0
   -6.6506   21.8756  -31.9464 H   0  0  0  0  0  0  0  0  0  0  0  0
   -6.8380   19.2320  -34.1160 H   0  0  0  0  0  0  0  0  0  0  0  0
   -0.3773   23.1349  -30.6688 H   0  0  0  0  0  0  0  0  0  0  0  0
    0.2428   20.7180  -30.7447 H   0  0  0  0  0  0  0  0  0  0  0  0
   -0.9923   19.0654  -29.3371 H   0  0  0  0  0  0  0  0  0  0  0  0
   -2.8496   19.8295  -27.8536 H   0  0  0  0  0  0  0  0  0  0  0  0
   -3.4756   22.2457  -27.7744 H   0  0  0  0  0  0  0  0  0  0  0  0
  1  2  2  0
  2  3  2  0
  2  4  1  0
  4  5  1  0
  5  6  2  0
  6  7  1  0
  7  8  2  0
  8  9  1  0
  9 10  2  0
 10 11  1  0
 11 12  1  0
 12 13  1  0
 13 14  2  0
 14 15  1  0
 15 16  1  0
  2 17  1  0
 17 18  2  0
 18 19  1  0
 19 20  2  0
 20 21  1  0
 21 22  2  0
 10  5  1  0
 16 12  2  0
 22 17  1  0
  6 23  1  0
  7 24  1  0
  8 25  1  0
  9 26  1  0
 15 27  1  0
 18 28  1  0
 19 29  1  0
 20 30  1  0
 21 31  1  0
 22 32  1  0
M  CHG  1   4  -1
M  END
>  <UniqueID>  (15) 
13

>  <SMILES>  (15) 
O=S(=O)([N-]c1ccccc1Sc1nn[nH]n1)c1ccccc1

>  <Energy>  (15) 
72.41886679319022

>  <Genealogy>  (15) 
O=S(=O)([N-]c1ccccc1Sc1nn[nH]n1)c1ccccc1 (protonated)
O=S(=O)([N-]c1ccccc1Sc1nn[nH]n1)c1ccccc1 (3D coordinates assigned)
O=S(=O)([N-]c1ccccc1Sc1nn[nH]n1)c1ccccc1 (optimized conformer: 72.41886679319022 kcal/mol)

>  <smiles>  (15) 
O=S(=O)(Nc1ccccc1Sc1nn[nH]n1)c1ccccc1

>  <score_type>  (15) 
oracle

>  <origin>  (15) 
adgpu

>  <m_score__min__energy>  (15) 
-8.9800000000000004

>  <m_primary>  (15) 
energy

$$$$
15:0
     RDKit          3D

 35 37  0  0  0  0  0  0  0  0999 V2000
   -0.4122   25.7123  -23.2301 H   0  0  0  0  0  0  0  0  0  0  0  0
   -0.6780   25.5780  -24.2890 C   0  0  0  0  0  0  0  0  0  0  0  0
   -0.4560   24.3860  -24.8990 N   0  0  0  0  0  0  0  0  0  0  0  0
   -0.7690   24.1620  -26.2050 C   0  0  0  0  0  0  0  0  0  0  0  0
   -0.4510   22.8120  -26.7770 C   0  0  0  0  0  0  0  0  0  0  0  0
   -0.2826   22.0972  -25.9580 H   0  0  0  0  0  0  0  0  0  0  0  0
   -1.2928   22.4686  -27.3962 H   0  0  0  0  0  0  0  0  0  0  0  0
    0.4556   22.8804  -27.3962 H   0  0  0  0  0  0  0  0  0  0  0  0
   -1.3630   25.2020  -26.9720 C   0  0  0  0  0  0  0  0  0  0  0  0
   -1.7580   25.0420  -28.3970 C   0  0  0  0  0  0  0  0  0  0  0  0
   -1.2360   25.7640  -29.2880 O   0  0  0  0  0  0  0  0  0  0  0  0
   -2.7230   24.0370  -28.7540 N   0  0  0  0  0  0  0  0  0  0  0  0
   -3.6660   24.1550  -29.6400 C   0  0  0  0  0  0  0  0  0  0  0  0
   -3.8910   25.2680  -30.3750 N   0  0  0  0  0  0  0  0  0  0  0  0
   -4.9200   25.1370  -31.2110 N   0  0  0  0  0  0  0  0  0  0  0  0
   -5.5090   23.9190  -31.1480 C   0  0  0  0  0  0  0  0  0  0  0  0
   -6.7130   23.5450  -31.9500 C   0  0  0  0  0  0  0  0  0  0  0  0
   -7.6205   23.7975  -31.3820 H   0  0  0  0  0  0  0  0  0  0  0  0
   -6.6975   24.0995  -32.8999 H   0  0  0  0  0  0  0  0  0  0  0  0
   -6.7050   22.0660  -32.2440 C   0  0  0  0  0  0  0  0  0  0  0  0
   -5.5210   21.4690  -32.7140 C   0  0  0  0  0  0  0  0  0  0  0  0
   -4.6142   22.0794  -32.8368 H   0  0  0  0  0  0  0  0  0  0  0  0
   -5.4870   20.1080  -33.0260 C   0  0  0  0  0  0  0  0  0  0  0  0
   -4.5539   19.6505  -33.3867 H   0  0  0  0  0  0  0  0  0  0  0  0
   -6.6340   19.3280  -32.8810 C   0  0  0  0  0  0  0  0  0  0  0  0
   -6.6042   18.2557  -33.1244 H   0  0  0  0  0  0  0  0  0  0  0  0
   -7.8200   19.9080  -32.4270 C   0  0  0  0  0  0  0  0  0  0  0  0
   -8.7229   19.2896  -32.3159 H   0  0  0  0  0  0  0  0  0  0  0  0
   -7.8680   21.2720  -32.1120 C   0  0  0  0  0  0  0  0  0  0  0  0
   -9.3990   21.9420  -31.5570 Cl  0  0  0  0  0  0  0  0  0  0  0  0
   -4.7610   22.9330  -30.0010 S   0  0  0  0  0  0  0  0  0  0  0  0
   -1.5820   26.4420  -26.3430 C   0  0  0  0  0  0  0  0  0  0  0  0
   -2.0259   27.2711  -26.9136 H   0  0  0  0  0  0  0  0  0  0  0  0
   -1.2420   26.6300  -25.0040 C   0  0  0  0  0  0  0  0  0  0  0  0
   -1.4179   27.6007  -24.5175 H   0  0  0  0  0  0  0  0  0  0  0  0
  1  2  1  0
  2  3  2  0
  3  4  1  0
  4  5  1  0
  5  6  1  0
  5  7  1  0
  5  8  1  0
  4  9  2  0
  9 10  1  0
 10 11  2  0
 10 12  1  0
 12 13  2  0
 13 14  1  0
 14 15  1  0
 15 16  2  0
 16 17  1  0
 17 18  1  0
 17 19  1  0
 17 20  1  0
 20 21  2  0
 21 22  1  0
 21 23  1  0
 23 24  1  0
 23 25  2  0
 25 26  1  0
 25 27  1  0
 27 28  1  0
 27 29  2  0
 29 30  1  0
 16 31  1  0
  9 32  1  0
 32 33  1  0
 32 34  2  0
 34 35  1  0
 34  2  1  0
 31 13  1  0
 29 20  1  0
M  CHG  1  14  -1
M  END
>  <UniqueID>  (16) 
14

>  <SMILES>  (16) 
Cc1ncccc1C(=O)/N=c1\[n-]nc(Cc2ccccc2Cl)s1

>  <Energy>  (16) 
77.53953612683904

>  <Genealogy>  (16) 
Cc1ncccc1C(=O)N=c1[n-]nc(Cc2ccccc2Cl)s1 (protonated)
Cc1ncccc1C(=O)/N=c1\[n-]nc(Cc2ccccc2Cl)s1 (cis-trans isomerization)
Cc1ncccc1C(=O)/N=c1\[n-]nc(Cc2ccccc2Cl)s1 (3D coordinates assigned)
Cc1ncccc1C(=O)/N=c1\[n-]nc(Cc2ccccc2Cl)s1 (optimized conformer: 77.53953612683904 kcal/mol)

>  <smiles>  (16) 
Cc1ncccc1C(=O)N=c1[nH]nc(Cc2ccccc2Cl)s1

>  <score_type>  (16) 
oracle

>  <origin>  (16) 
adgpu

>  <m_score__min__energy>  (16) 
-11.029999999999999

>  <m_primary>  (16) 
energy

$$$$
16:0
     RDKit          3D

 47 49  0  0  0  0  0  0  0  0999 V2000
   -1.2440   23.4940  -26.2850 C   0  0  0  0  0  0  0  0  0  0  0  0
   -2.1950   23.7130  -27.4320 C   0  0  0  0  0  0  0  0  0  0  0  0
   -3.5090   24.1320  -27.1680 C   0  0  0  0  0  0  0  0  0  0  0  0
   -4.4120   24.3410  -28.2110 C   0  0  0  0  0  0  0  0  0  0  0  0
   -4.0180   24.1470  -29.5420 C   0  0  0  0  0  0  0  0  0  0  0  0
   -4.9870   24.3610  -30.6420 C   0  0  0  0  0  0  0  0  0  0  0  0
   -5.0370   25.4880  -31.2070 O   0  0  0  0  0  0  0  0  0  0  0  0
   -5.8860   23.3230  -31.0680 N   0  0  0  0  0  0  0  0  0  0  0  0
   -7.2240   23.4340  -31.1910 C   0  0  0  0  0  0  0  0  0  0  0  0
   -7.7210   22.2330  -31.6660 C   0  0  0  0  0  0  0  0  0  0  0  0
   -9.1660   21.9360  -31.9220 C   0  0  0  0  0  0  0  0  0  0  0  0
   -6.6870   21.3830  -31.8710 N   0  0  0  0  0  0  0  0  0  0  0  0
   -6.7270   20.0360  -32.3740 C   0  0  0  0  0  0  0  0  0  0  0  0
   -7.6620   19.1180  -31.8770 C   0  0  0  0  0  0  0  0  0  0  0  0
   -7.7010   17.8130  -32.3700 C   0  0  0  0  0  0  0  0  0  0  0  0
   -6.8070   17.4000  -33.3730 C   0  0  0  0  0  0  0  0  0  0  0  0
   -6.8800   15.9860  -33.8880 C   0  0  0  0  0  0  0  0  0  0  0  0
   -5.8750   18.3270  -33.8970 C   0  0  0  0  0  0  0  0  0  0  0  0
   -4.9010   17.9320  -34.9750 C   0  0  0  0  0  0  0  0  0  0  0  0
   -5.8430   19.6360  -33.3860 C   0  0  0  0  0  0  0  0  0  0  0  0
   -5.5900   22.0780  -31.5020 C   0  0  0  0  0  0  0  0  0  0  0  0
   -4.4150   21.6340  -31.6080 O   0  0  0  0  0  0  0  0  0  0  0  0
   -2.7140   23.7030  -29.8120 C   0  0  0  0  0  0  0  0  0  0  0  0
   -1.7950   23.4870  -28.7710 C   0  0  0  0  0  0  0  0  0  0  0  0
   -0.3990   23.0260  -29.1010 C   0  0  0  0  0  0  0  0  0  0  0  0
   -1.7822   23.6179  -25.3337 H   0  0  0  0  0  0  0  0  0  0  0  0
   -0.8291   22.4768  -26.3418 H   0  0  0  0  0  0  0  0  0  0  0  0
   -0.4260   24.2273  -26.3418 H   0  0  0  0  0  0  0  0  0  0  0  0
   -3.8296   24.2971  -26.1288 H   0  0  0  0  0  0  0  0  0  0  0  0
   -5.4405   24.6603  -27.9870 H   0  0  0  0  0  0  0  0  0  0  0  0
   -7.8197   24.3278  -30.9539 H   0  0  0  0  0  0  0  0  0  0  0  0
   -9.6936   21.8276  -30.9629 H   0  0  0  0  0  0  0  0  0  0  0  0
   -9.6138   22.7609  -32.4956 H   0  0  0  0  0  0  0  0  0  0  0  0
   -9.2522   21.0014  -32.4956 H   0  0  0  0  0  0  0  0  0  0  0  0
   -8.3694   19.4279  -31.0937 H   0  0  0  0  0  0  0  0  0  0  0  0
   -8.4381   17.1011  -31.9700 H   0  0  0  0  0  0  0  0  0  0  0  0
   -6.9160   15.2879  -33.0387 H   0  0  0  0  0  0  0  0  0  0  0  0
   -7.7856   15.8652  -34.5006 H   0  0  0  0  0  0  0  0  0  0  0  0
   -5.9917   15.7726  -34.5006 H   0  0  0  0  0  0  0  0  0  0  0  0
   -3.9757   17.5567  -34.5135 H   0  0  0  0  0  0  0  0  0  0  0  0
   -5.3454   17.1430  -35.5995 H   0  0  0  0  0  0  0  0  0  0  0  0
   -4.6703   18.8076  -35.5995 H   0  0  0  0  0  0  0  0  0  0  0  0
   -5.1143   20.3566  -33.7856 H   0  0  0  0  0  0  0  0  0  0  0  0
   -2.4073   23.5217  -30.8527 H   0  0  0  0  0  0  0  0  0  0  0  0
    0.1564   22.8426  -28.1694 H   0  0  0  0  0  0  0  0  0  0  0  0
   -0.4488   22.0966  -29.6873 H   0  0  0  0  0  0  0  0  0  0  0  0
    0.1145   23.8023  -29.6873 H   0  0  0  0  0  0  0  0  0  0  0  0
  1  2  1  0
  2  3  2  0
  3  4  1  0
  4  5  2  0
  5  6  1  0
  6  7  2  0
  6  8  1  0
  8  9  1  0
  9 10  2  0
 10 11  1  0
 10 12  1  0
 12 13  1  0
 13 14  2  0
 14 15  1  0
 15 16  2  0
 16 17  1  0
 16 18  1  0
 18 19  1  0
 18 20  2  0
 12 21  1  0
 21 22  2  0
  5 23  1  0
 23 24  2  0
 24 25  1  0
 24  2  1  0
 21  8  1  0
 20 13  1  0
  1 26  1  0
  1 27  1  0
  1 28  1  0
  3 29  1  0
  4 30  1  0
  9 31  1  0
 11 32  1  0
 11 33  1  0
 11 34  1  0
 14 35  1  0
 15 36  1  0
 17 37  1  0
 17 38  1  0
 17 39  1  0
 19 40  1  0
 19 41  1  0
 19 42  1  0
 20 43  1  0
 23 44  1  0
 25 45  1  0
 25 46  1  0
 25 47  1  0
M  END
>  <UniqueID>  (17) 
15

>  <SMILES>  (17) 
Cc1ccc(C(=O)n2cc(C)n(-c3ccc(C)c(C)c3)c2=O)cc1C

>  <Energy>  (17) 
92.61620889251236

>  <Genealogy>  (17) 
Cc1ccc(C(=O)n2cc(C)n(-c3ccc(C)c(C)c3)c2=O)cc1C (3D coordinates assigned)
Cc1ccc(C(=O)n2cc(C)n(-c3ccc(C)c(C)c3)c2=O)cc1C (optimized conformer: 92.61620889251236 kcal/mol)

>  <smiles>  (17) 
Cc1ccc(C(=O)n2cc(C)n(-c3ccc(C)c(C)c3)c2=O)cc1C

>  <score_type>  (17) 
oracle

>  <origin>  (17) 
adgpu

>  <m_score__min__energy>  (17) 
-9.3499999999999996

>  <m_primary>  (17) 
energy

$$$$
17:0
     RDKit          3D

 58 62  0  0  1  0  0  0  0  0999 V2000
   -6.0620   24.4520  -31.2410 C   0  0  0  0  0  0  0  0  0  0  0  0
   -6.9280   23.2930  -31.5720 C   0  0  0  0  0  0  0  0  0  0  0  0
   -8.2810   23.4050  -31.6760 C   0  0  0  0  0  0  0  0  0  0  0  0
   -9.1390   22.3780  -31.9780 C   0  0  0  0  0  0  0  0  0  0  0  0
   -8.6090   21.1450  -32.1900 C   0  0  0  0  0  0  0  0  0  0  0  0
   -9.4570   20.1440  -32.4860 N   0  0  0  0  0  0  0  0  0  0  0  0
   -8.9880   18.9070  -32.7070 C   0  0  0  0  0  0  0  0  0  0  0  0
   -7.6670   18.7250  -32.6200 N   0  0  0  0  0  0  0  0  0  0  0  0
   -6.7830   19.7060  -32.3240 C   0  0  0  0  0  0  0  0  0  0  0  0
   -5.5830   19.4280  -32.2680 N   0  0  0  0  0  0  0  0  0  0  0  0
   -4.4490   20.1350  -32.0080 C   0  0  0  0  0  0  0  0  0  0  0  0
   -3.5080   20.5130  -32.9900 C   0  0  0  0  0  0  0  0  0  0  0  0
   -2.3250   21.1300  -32.6780 C   0  0  0  0  0  0  0  0  0  0  0  0
   -1.9770   21.4260  -31.3350 C   0  0  0  0  0  0  0  0  0  0  0  0
   -0.8850   22.0070  -30.9100 N   0  0  0  0  0  0  0  0  0  0  0  0
   -0.6690   22.2300  -29.6420 C   0  0  0  0  0  0  0  0  0  0  0  0
    0.2610   22.7520  -28.9980 N   0  0  0  0  0  0  0  0  0  0  0  0
    0.1620   22.8340  -27.5530 C   0  0  0  0  0  0  0  0  0  0  0  0
    0.7060   24.1360  -27.0030 C   0  0  0  0  0  0  0  0  0  0  0  0
   -0.3930   24.8840  -26.4680 N   0  0  0  0  0  0  0  0  0  0  0  0
   -1.5320   24.0920  -26.1340 C   0  0  0  0  0  0  0  0  0  0  0  0
   -2.6950   24.5520  -26.9890 C   0  0  0  0  0  0  0  0  0  0  0  0
   -2.2190   24.5260  -28.3780 N   0  0  0  0  0  0  0  0  0  0  0  0
   -3.3080   24.5430  -29.3130 C   0  0  0  0  0  0  0  0  0  0  0  0
   -1.2810   25.6150  -28.5830 C   0  0  0  0  0  0  0  0  0  0  0  0
   -0.7170   26.0510  -27.2640 C   0  0  0  0  0  0  0  0  0  0  0  0
   -2.2070   21.5440  -28.7850 S   0  0  0  0  0  0  0  0  0  0  0  0
   -2.9230   21.0370  -30.4330 C   0  0  0  0  0  0  0  0  0  0  0  0
   -4.1100   20.4260  -30.6650 C   0  0  0  0  0  0  0  0  0  0  0  0
   -7.2350   20.9730  -32.0970 C   0  0  0  0  0  0  0  0  0  0  0  0
   -6.3980   22.0090  -31.7950 C   0  0  0  0  0  0  0  0  0  0  0  0
   -5.9865   24.5530  -30.1483 H   0  0  0  0  0  0  0  0  0  0  0  0
   -5.0593   24.2934  -31.6647 H   0  0  0  0  0  0  0  0  0  0  0  0
   -6.4983   25.3686  -31.6647 H   0  0  0  0  0  0  0  0  0  0  0  0
   -8.7213   24.3983  -31.5041 H   0  0  0  0  0  0  0  0  0  0  0  0
  -10.2237   22.5477  -32.0465 H   0  0  0  0  0  0  0  0  0  0  0  0
   -9.6646   18.0745  -32.9504 H   0  0  0  0  0  0  0  0  0  0  0  0
   -7.3280   17.7380  -32.7980 H   0  0  0  0  0  0  0  0  0  0  0  0
   -3.7331   20.3042  -34.0463 H   0  0  0  0  0  0  0  0  0  0  0  0
   -1.6302   21.4016  -33.4863 H   0  0  0  0  0  0  0  0  0  0  0  0
   -0.1050   22.3300  -31.6110 H   0  0  0  0  0  0  0  0  0  0  0  0
   -0.8966   22.7462  -27.2672 H   0  0  0  0  0  0  0  0  0  0  0  0
    0.7661   22.0170  -27.1316 H   0  0  0  0  0  0  0  0  0  0  0  0
    1.4384   23.9288  -26.2088 H   0  0  0  0  0  0  0  0  0  0  0  0
    1.2062   24.7077  -27.7986 H   0  0  0  0  0  0  0  0  0  0  0  0
   -1.3196   23.0313  -26.3336 H   0  0  0  0  0  0  0  0  0  0  0  0
   -1.7754   24.2069  -25.0674 H   0  0  0  0  0  0  0  0  0  0  0  0
   -3.5507   23.8717  -26.8665 H   0  0  0  0  0  0  0  0  0  0  0  0
   -3.0312   25.5586  -26.6997 H   0  0  0  0  0  0  0  0  0  0  0  0
   -4.2616   24.5579  -28.7649 H   0  0  0  0  0  0  0  0  0  0  0  0
   -3.2344   25.4401  -29.9453 H   0  0  0  0  0  0  0  0  0  0  0  0
   -3.2625   23.6440  -29.9453 H   0  0  0  0  0  0  0  0  0  0  0  0
   -0.4635   25.2754  -29.2360 H   0  0  0  0  0  0  0  0  0  0  0  0
   -1.8025   26.4613  -29.0539 H   0  0  0  0  0  0  0  0  0  0  0  0
    0.1938   26.6442  -27.4327 H   0  0  0  0  0  0  0  0  0  0  0  0
   -1.4599   26.6633  -26.7318 H   0  0  0  0  0  0  0  0  0  0  0  0
   -4.7868   20.1651  -29.8380 H   0  0  0  0  0  0  0  0  0  0  0  0
   -5.3132   21.8401  -31.7263 H   0  0  0  0  0  0  0  0  0  0  0  0
  1  2  1  0
  2  3  2  0
  3  4  1  0
  4  5  2  0
  5  6  1  0
  6  7  2  0
  7  8  1  0
  8  9  1  0
  9 10  2  0
 10 11  1  0
 11 12  2  0
 12 13  1  0
 13 14  2  0
 14 15  1  0
 15 16  1  0
 16 17  2  0
 17 18  1  0
 18 19  1  0
 19 20  1  0
 20 21  1  0
 21 22  1  0
 22 23  1  0
 23 24  1  0
 23 25  1  0
 25 26  1  0
 16 27  1  0
 27 28  1  0
 28 29  2  0
  9 30  1  0
 30 31  2  0
 31  2  1  0
 30  5  1  0
 29 11  1  0
 28 14  1  0
 26 20  1  0
  1 32  1  0
  1 33  1  0
  1 34  1  0
  3 35  1  0
  4 36  1  0
  7 37  1  0
  8 38  1  0
 12 39  1  0
 13 40  1  0
 15 41  1  0
 18 42  1  0
 18 43  1  0
 19 44  1  0
 19 45  1  0
 21 46  1  0
 21 47  1  0
 22 48  1  0
 22 49  1  0
 24 50  1  0
 24 51  1  0
 24 52  1  0
 25 53  1  0
 25 54  1  0
 26 55  1  0
 26 56  1  0
 29 57  1  0
 31 58  1  0
M  END
>  <smiles>  (18) 
Cc1ccc2nc[nH]c(=Nc3ccc4[nH]c(=NCCN5CCN(C)CC5)sc4c3)c2c1

>  <score_type>  (18) 
oracle

>  <origin>  (18) 
adgpu

>  <m_score__min__energy>  (18) 
-10.15

>  <m_primary>  (18) 
energy

$$$$
18:0
     RDKit          3D

 52 55  0  0  0  0  0  0  0  0999 V2000
   -6.5080   25.6900  -29.3410 C   0  0  0  0  0  0  0  0  0  0  0  0
   -6.0290   24.6440  -30.2890 C   0  0  0  0  0  0  0  0  0  0  0  0
   -5.0320   24.8420  -31.1790 N   0  0  0  0  0  0  0  0  0  0  0  0
   -4.7270   23.7510  -31.8800 N   0  0  0  0  0  0  0  0  0  0  0  0
   -5.4680   22.6730  -31.5380 C   0  0  0  0  0  0  0  0  0  0  0  0
   -5.3410   21.3860  -32.1740 N   0  0  0  0  0  0  0  0  0  0  0  0
   -6.4470   20.4620  -32.1580 C   0  0  0  0  0  0  0  0  0  0  0  0
   -7.5810   20.8610  -31.7780 O   0  0  0  0  0  0  0  0  0  0  0  0
   -6.2750   19.0450  -32.5630 C   0  0  0  0  0  0  0  0  0  0  0  0
   -6.1280   18.0430  -31.5870 C   0  0  0  0  0  0  0  0  0  0  0  0
   -5.9700   16.7050  -31.9620 C   0  0  0  0  0  0  0  0  0  0  0  0
   -5.9660   16.3540  -33.3140 C   0  0  0  0  0  0  0  0  0  0  0  0
   -6.1260   17.3380  -34.2920 C   0  0  0  0  0  0  0  0  0  0  0  0
   -6.2840   18.6770  -33.9210 C   0  0  0  0  0  0  0  0  0  0  0  0
   -4.0500   20.9340  -32.6290 C   0  0  0  0  0  0  0  0  0  0  0  0
   -3.9030   20.6160  -33.8400 O   0  0  0  0  0  0  0  0  0  0  0  0
   -2.8840   20.8580  -31.7110 C   0  0  0  0  0  0  0  0  0  0  0  0
   -1.6160   20.4750  -32.1850 C   0  0  0  0  0  0  0  0  0  0  0  0
   -0.5310   20.3920  -31.3090 C   0  0  0  0  0  0  0  0  0  0  0  0
   -0.6990   20.6740  -29.9530 C   0  0  0  0  0  0  0  0  0  0  0  0
   -1.9600   21.0360  -29.4600 C   0  0  0  0  0  0  0  0  0  0  0  0
   -2.1820   21.3520  -27.7360 S   0  0  0  0  0  0  0  0  0  0  0  0
   -1.0250   20.7680  -26.9730 O   0  0  0  0  0  0  0  0  0  0  0  0
   -3.4400   20.6750  -27.2680 O   0  0  0  0  0  0  0  0  0  0  0  0
   -2.2930   23.0660  -27.4050 N   0  0  0  0  0  0  0  0  0  0  0  0
   -0.9890   23.7200  -27.6250 C   0  0  0  0  0  0  0  0  0  0  0  0
   -1.1700   25.2320  -27.8450 C   0  0  0  0  0  0  0  0  0  0  0  0
   -1.9810   25.5630  -28.9660 O   0  0  0  0  0  0  0  0  0  0  0  0
   -2.8760   24.5280  -29.3520 C   0  0  0  0  0  0  0  0  0  0  0  0
   -3.3940   23.6990  -28.1630 C   0  0  0  0  0  0  0  0  0  0  0  0
   -3.0460   21.1330  -30.3410 C   0  0  0  0  0  0  0  0  0  0  0  0
   -6.5700   23.0490  -30.3160 S   0  0  0  0  0  0  0  0  0  0  0  0
   -6.3512   25.3476  -28.3075 H   0  0  0  0  0  0  0  0  0  0  0  0
   -5.9465   26.6210  -29.5080 H   0  0  0  0  0  0  0  0  0  0  0  0
   -7.5797   25.8732  -29.5080 H   0  0  0  0  0  0  0  0  0  0  0  0
   -6.1374   18.3137  -30.5209 H   0  0  0  0  0  0  0  0  0  0  0  0
   -5.8488   15.9288  -31.1920 H   0  0  0  0  0  0  0  0  0  0  0  0
   -5.8368   15.3021  -33.6085 H   0  0  0  0  0  0  0  0  0  0  0  0
   -6.1277   17.0593  -35.3561 H   0  0  0  0  0  0  0  0  0  0  0  0
   -6.4161   19.4470  -34.6953 H   0  0  0  0  0  0  0  0  0  0  0  0
   -1.4782   20.2397  -33.2507 H   0  0  0  0  0  0  0  0  0  0  0  0
    0.4597   20.1032  -31.6898 H   0  0  0  0  0  0  0  0  0  0  0  0
    0.1604   20.6121  -29.2691 H   0  0  0  0  0  0  0  0  0  0  0  0
   -0.3500   23.5570  -26.7446 H   0  0  0  0  0  0  0  0  0  0  0  0
   -0.5217   23.2854  -28.5210 H   0  0  0  0  0  0  0  0  0  0  0  0
   -1.6350   25.6589  -26.9442 H   0  0  0  0  0  0  0  0  0  0  0  0
   -0.1702   25.6455  -28.0437 H   0  0  0  0  0  0  0  0  0  0  0  0
   -3.7375   24.9832  -29.8624 H   0  0  0  0  0  0  0  0  0  0  0  0
   -2.3200   23.8438  -30.0098 H   0  0  0  0  0  0  0  0  0  0  0  0
   -3.9556   24.3606  -27.4871 H   0  0  0  0  0  0  0  0  0  0  0  0
   -4.0350   22.8988  -28.5614 H   0  0  0  0  0  0  0  0  0  0  0  0
   -4.0342   21.4269  -29.9574 H   0  0  0  0  0  0  0  0  0  0  0  0
  1  2  1  0
  2  3  2  0
  3  4  1  0
  4  5  2  0
  5  6  1  0
  6  7  1  0
  7  8  2  0
  7  9  1  0
  9 10  2  0
 10 11  1  0
 11 12  2  0
 12 13  1  0
 13 14  2  0
  6 15  1  0
 15 16  2  0
 15 17  1  0
 17 18  2  0
 18 19  1  0
 19 20  2  0
 20 21  1  0
 21 22  1  0
 22 23  2  0
 22 24  2  0
 22 25  1  0
 25 26  1  0
 26 27  1  0
 27 28  1  0
 28 29  1  0
 29 30  1  0
 21 31  2  0
  5 32  1  0
 32  2  1  0
 14  9  1  0
 31 17  1  0
 30 25  1  0
  1 33  1  0
  1 34  1  0
  1 35  1  0
 10 36  1  0
 11 37  1  0
 12 38  1  0
 13 39  1  0
 14 40  1  0
 18 41  1  0
 19 42  1  0
 20 43  1  0
 26 44  1  0
 26 45  1  0
 27 46  1  0
 27 47  1  0
 29 48  1  0
 29 49  1  0
 30 50  1  0
 30 51  1  0
 31 52  1  0
M  END
>  <UniqueID>  (19) 
16

>  <SMILES>  (19) 
Cc1nnc(N(C(=O)c2ccccc2)C(=O)c2cccc(S(=O)(=O)N3CCOCC3)c2)s1

>  <Energy>  (19) 
111.1211615611478

>  <Genealogy>  (19) 
Cc1nnc(N(C(=O)c2ccccc2)C(=O)c2cccc(S(=O)(=O)N3CCOCC3)c2)s1 (3D coordinates assigned)
Cc1nnc(N(C(=O)c2ccccc2)C(=O)c2cccc(S(=O)(=O)N3CCOCC3)c2)s1 (nonaromatic ring conformer: 111.1211615611478 kcal/mol)

>  <smiles>  (19) 
Cc1nnc(N(C(=O)c2ccccc2)C(=O)c2cccc(S(=O)(=O)N3CCOCC3)c2)s1

>  <score_type>  (19) 
oracle

>  <origin>  (19) 
adgpu

>  <m_score__min__energy>  (19) 
-11.07

>  <m_primary>  (19) 
energy

$$$$
19:0
     RDKit          3D

 37 39  0  0  0  0  0  0  0  0999 V2000
   -8.1591   18.0341  -32.4030 H   0  0  0  0  0  0  0  0  0  0  0  0
   -8.0380   19.1260  -32.3470 C   0  0  0  0  0  0  0  0  0  0  0  0
   -9.1040   19.9260  -31.9290 C   0  0  0  0  0  0  0  0  0  0  0  0
  -10.0644   19.4634  -31.6577 H   0  0  0  0  0  0  0  0  0  0  0  0
   -8.9520   21.3140  -31.8550 C   0  0  0  0  0  0  0  0  0  0  0  0
   -9.7958   21.9414  -31.5319 H   0  0  0  0  0  0  0  0  0  0  0  0
   -7.7250   21.9100  -32.1920 C   0  0  0  0  0  0  0  0  0  0  0  0
   -7.5730   23.4070  -32.1450 C   0  0  0  0  0  0  0  0  0  0  0  0
   -8.5061   23.8552  -31.7730 H   0  0  0  0  0  0  0  0  0  0  0  0
   -7.3555   23.7771  -33.1578 H   0  0  0  0  0  0  0  0  0  0  0  0
   -6.4410   23.7870  -31.2310 C   0  0  0  0  0  0  0  0  0  0  0  0
   -5.3650   24.4380  -31.7380 N   0  0  0  0  0  0  0  0  0  0  0  0
   -4.3260   24.7650  -30.9710 N   0  0  0  0  0  0  0  0  0  0  0  0
   -4.3010   24.4520  -29.6490 C   0  0  0  0  0  0  0  0  0  0  0  0
   -3.2640   24.8030  -28.9450 N   0  0  0  0  0  0  0  0  0  0  0  0
   -3.0290   24.5170  -27.2480 S   0  0  0  0  0  0  0  0  0  0  0  0
   -4.3560   24.6050  -26.5460 O   0  0  0  0  0  0  0  0  0  0  0  0
   -2.4680   23.1370  -27.0580 O   0  0  0  0  0  0  0  0  0  0  0  0
   -1.8930   25.6870  -26.5830 C   0  0  0  0  0  0  0  0  0  0  0  0
   -1.9440   26.0180  -25.2210 C   0  0  0  0  0  0  0  0  0  0  0  0
   -2.6972   25.5500  -24.5701 H   0  0  0  0  0  0  0  0  0  0  0  0
   -1.0390   26.9420  -24.6890 C   0  0  0  0  0  0  0  0  0  0  0  0
   -1.0795   27.1983  -23.6200 H   0  0  0  0  0  0  0  0  0  0  0  0
   -0.0830   27.5400  -25.5150 C   0  0  0  0  0  0  0  0  0  0  0  0
    0.6296   28.2652  -25.0953 H   0  0  0  0  0  0  0  0  0  0  0  0
   -0.0320   27.2170  -26.8740 C   0  0  0  0  0  0  0  0  0  0  0  0
    0.7200   27.6893  -27.5232 H   0  0  0  0  0  0  0  0  0  0  0  0
   -0.9360   26.2940  -27.4090 C   0  0  0  0  0  0  0  0  0  0  0  0
   -0.8964   26.0437  -28.4794 H   0  0  0  0  0  0  0  0  0  0  0  0
   -5.3610   23.7840  -29.1040 N   0  0  0  0  0  0  0  0  0  0  0  0
   -5.3770   23.5160  -28.0960 H   0  0  0  0  0  0  0  0  0  0  0  0
   -6.4300   23.4430  -29.8720 C   0  0  0  0  0  0  0  0  0  0  0  0
   -7.3990   22.8220  -29.3570 O   0  0  0  0  0  0  0  0  0  0  0  0
   -6.6610   21.1000  -32.6210 C   0  0  0  0  0  0  0  0  0  0  0  0
   -5.7010   21.5586  -32.9005 H   0  0  0  0  0  0  0  0  0  0  0  0
   -6.8180   19.7120  -32.6940 C   0  0  0  0  0  0  0  0  0  0  0  0
   -5.9800   19.0810  -33.0250 H   0  0  0  0  0  0  0  0  0  0  0  0
  1  2  1  0
  2  3  2  0
  3  4  1  0
  3  5  1  0
  5  6  1  0
  5  7  2  0
  7  8  1  0
  8  9  1  0
  8 10  1  0
  8 11  1  0
 11 12  2  0
 12 13  1  0
 13 14  1  0
 14 15  2  0
 15 16  1  0
 16 17  2  0
 16 18  2  0
 16 19  1  0
 19 20  2  0
 20 21  1  0
 20 22  1  0
 22 23  1  0
 22 24  2  0
 24 25  1  0
 24 26  1  0
 26 27  1  0
 26 28  2  0
 28 29  1  0
 14 30  1  0
 30 31  1  0
 30 32  1  0
 32 33  2  0
  7 34  1  0
 34 35  1  0
 34 36  2  0
 36 37  1  0
 36  2  1  0
 32 11  1  0
 28 19  1  0
M  CHG  1  13  -1
M  END
>  <UniqueID>  (20) 
17

>  <SMILES>  (20) 
O=c1[nH]/c(=N\S(=O)(=O)c2ccccc2)[n-]nc1Cc1ccccc1

>  <Energy>  (20) 
45.6610715737282

>  <Genealogy>  (20) 
O=c1[nH]c(=NS(=O)(=O)c2ccccc2)[n-]nc1Cc1ccccc1 (protonated)
O=c1[nH]/c(=N\S(=O)(=O)c2ccccc2)[n-]nc1Cc1ccccc1 (cis-trans isomerization)
O=c1[nH]/c(=N\S(=O)(=O)c2ccccc2)[n-]nc1Cc1ccccc1 (3D coordinates assigned)
O=c1[nH]/c(=N\S(=O)(=O)c2ccccc2)[n-]nc1Cc1ccccc1 (optimized conformer: 45.6610715737282 kcal/mol)

>  <smiles>  (20) 
O=c1[nH]c(=NS(=O)(=O)c2ccccc2)[nH]nc1Cc1ccccc1

>  <score_type>  (20) 
oracle

>  <origin>  (20) 
adgpu

>  <m_score__min__energy>  (20) 
-10.68

>  <m_primary>  (20) 
energy

$$$$
20:0
     RDKit          3D

 53 55  0  0  0  0  0  0  0  0999 V2000
   -1.1770   25.2320  -24.8710 C   0  0  0  0  0  0  0  0  0  0  0  0
   -2.0420   24.8780  -26.0520 C   0  0  0  0  0  0  0  0  0  0  0  0
   -3.4000   25.2340  -26.0050 C   0  0  0  0  0  0  0  0  0  0  0  0
   -4.2560   24.9310  -27.0600 C   0  0  0  0  0  0  0  0  0  0  0  0
   -3.7800   24.2530  -28.1860 C   0  0  0  0  0  0  0  0  0  0  0  0
   -4.6520   23.9500  -29.2880 N   0  0  0  0  0  0  0  0  0  0  0  0
   -4.6960   24.7150  -30.5060 C   0  0  0  0  0  0  0  0  0  0  0  0
   -3.8660   25.6390  -30.7120 O   0  0  0  0  0  0  0  0  0  0  0  0
   -5.6630   24.4220  -31.5210 N   0  0  0  0  0  0  0  0  0  0  0  0
   -6.2930   23.1520  -31.7360 C   0  0  0  0  0  0  0  0  0  0  0  0
   -5.5880   22.0620  -32.2750 C   0  0  0  0  0  0  0  0  0  0  0  0
   -6.2210   20.8270  -32.4430 C   0  0  0  0  0  0  0  0  0  0  0  0
   -7.5590   20.6630  -32.0640 C   0  0  0  0  0  0  0  0  0  0  0  0
   -8.3510   19.1040  -32.2630 S   0  0  0  0  0  0  0  0  0  0  0  0
   -9.8500   19.3240  -33.0930 N   0  0  0  0  0  0  0  0  0  0  0  0
   -8.6080   18.4880  -30.9160 O   0  0  0  0  0  0  0  0  0  0  0  0
   -7.4680   18.1810  -33.0550 O   0  0  0  0  0  0  0  0  0  0  0  0
   -8.2530   21.7390  -31.4940 C   0  0  0  0  0  0  0  0  0  0  0  0
   -7.6200   22.9740  -31.3260 C   0  0  0  0  0  0  0  0  0  0  0  0
   -2.4190   23.9180  -28.2650 C   0  0  0  0  0  0  0  0  0  0  0  0
   -1.9520   23.2550  -29.3990 O   0  0  0  0  0  0  0  0  0  0  0  0
   -1.5340   24.2280  -27.2100 C   0  0  0  0  0  0  0  0  0  0  0  0
    0.1750   23.7470  -27.3870 S   0  0  0  0  0  0  0  0  0  0  0  0
    1.0710   24.4660  -26.4200 O   0  0  0  0  0  0  0  0  0  0  0  0
    0.6270   24.0990  -28.7760 O   0  0  0  0  0  0  0  0  0  0  0  0
    0.3380   21.9710  -27.1540 C   0  0  0  0  0  0  0  0  0  0  0  0
   -0.8860   21.4210  -26.3810 C   0  0  0  0  0  0  0  0  0  0  0  0
   -1.1060   19.9330  -26.6620 C   0  0  0  0  0  0  0  0  0  0  0  0
   -1.3960   19.6750  -28.1560 C   0  0  0  0  0  0  0  0  0  0  0  0
   -0.7180   20.6910  -29.0980 C   0  0  0  0  0  0  0  0  0  0  0  0
    0.5830   21.2370  -28.4980 C   0  0  0  0  0  0  0  0  0  0  0  0
   -1.7191   25.0102  -23.9399 H   0  0  0  0  0  0  0  0  0  0  0  0
   -0.2499   24.6410  -24.9053 H   0  0  0  0  0  0  0  0  0  0  0  0
   -0.9303   26.3034  -24.9053 H   0  0  0  0  0  0  0  0  0  0  0  0
   -3.7925   25.7596  -25.1220 H   0  0  0  0  0  0  0  0  0  0  0  0
   -5.3141   25.2271  -27.0073 H   0  0  0  0  0  0  0  0  0  0  0  0
   -5.3420   23.1760  -29.1610 H   0  0  0  0  0  0  0  0  0  0  0  0
   -4.5339   22.1813  -32.5658 H   0  0  0  0  0  0  0  0  0  0  0  0
   -5.6660   19.9809  -32.8745 H   0  0  0  0  0  0  0  0  0  0  0  0
   -9.6180   19.5840  -34.0780 H   0  0  0  0  0  0  0  0  0  0  0  0
   -9.2988   21.6113  -31.1779 H   0  0  0  0  0  0  0  0  0  0  0  0
   -8.1678   23.8112  -30.8689 H   0  0  0  0  0  0  0  0  0  0  0  0
    1.2300   21.7749  -26.5409 H   0  0  0  0  0  0  0  0  0  0  0  0
   -0.7194   21.5600  -25.3026 H   0  0  0  0  0  0  0  0  0  0  0  0
   -1.7790   21.9702  -26.7139 H   0  0  0  0  0  0  0  0  0  0  0  0
   -0.2019   19.3773  -26.3725 H   0  0  0  0  0  0  0  0  0  0  0  0
   -1.9763   19.5972  -26.0790 H   0  0  0  0  0  0  0  0  0  0  0  0
   -1.0351   18.6679  -28.4120 H   0  0  0  0  0  0  0  0  0  0  0  0
   -2.4821   19.7769  -28.2974 H   0  0  0  0  0  0  0  0  0  0  0  0
   -0.4900   20.1951  -30.0530 H   0  0  0  0  0  0  0  0  0  0  0  0
   -1.4080   21.5345  -29.2478 H   0  0  0  0  0  0  0  0  0  0  0  0
    1.2736   20.3986  -28.3243 H   0  0  0  0  0  0  0  0  0  0  0  0
    1.0081   21.9610  -29.2087 H   0  0  0  0  0  0  0  0  0  0  0  0
  1  2  1  0
  2  3  2  0
  3  4  1  0
  4  5  2  0
  5  6  1  0
  6  7  1  0
  7  8  2  0
  7  9  1  0
  9 10  1  0
 10 11  2  0
 11 12  1  0
 12 13  2  0
 13 14  1  0
 14 15  1  0
 14 16  2  0
 14 17  2  0
 13 18  1  0
 18 19  2  0
  5 20  1  0
 20 21  1  0
 20 22  2  0
 22 23  1  0
 23 24  2  0
 23 25  2  0
 23 26  1  0
 26 27  1  0
 27 28  1  0
 28 29  1  0
 29 30  1  0
 30 31  1  0
 22  2  1  0
 31 26  1  0
 19 10  1  0
  1 32  1  0
  1 33  1  0
  1 34  1  0
  3 35  1  0
  4 36  1  0
  6 37  1  0
 11 38  1  0
 12 39  1  0
 15 40  1  0
 18 41  1  0
 19 42  1  0
 26 43  1  0
 27 44  1  0
 27 45  1  0
 28 46  1  0
 28 47  1  0
 29 48  1  0
 29 49  1  0
 30 50  1  0
 30 51  1  0
 31 52  1  0
 31 53  1  0
M  CHG  3   9  -1  15  -1  21  -1
M  END
>  <UniqueID>  (21) 
18

>  <SMILES>  (21) 
Cc1ccc(NC(=O)[N-]c2ccc(S([NH-])(=O)=O)cc2)c([O-])c1S(=O)(=O)C1CCCCC1

>  <Energy>  (21) 
65.93335153698413

>  <Genealogy>  (21) 
Cc1ccc(NC(=O)[N-]c2ccc(S([NH-])(=O)=O)cc2)c([O-])c1S(=O)(=O)C1CCCCC1 (protonated)
Cc1ccc(NC(=O)[N-]c2ccc(S([NH-])(=O)=O)cc2)c([O-])c1S(=O)(=O)C1CCCCC1 (3D coordinates assigned)
Cc1ccc(NC(=O)[N-]c2ccc(S([NH-])(=O)=O)cc2)c([O-])c1S(=O)(=O)C1CCCCC1 (nonaromatic ring conformer: 65.93335153698413 kcal/mol)

>  <smiles>  (21) 
Cc1ccc(NC(=O)Nc2ccc(S(N)(=O)=O)cc2)c(O)c1S(=O)(=O)C1CCCCC1

>  <score_type>  (21) 
oracle

>  <origin>  (21) 
adgpu

>  <m_score__min__energy>  (21) 
-13.66

>  <m_primary>  (21) 
energy

$$$$
21:0
     RDKit          3D

 49 52  0  0  0  0  0  0  0  0999 V2000
   -4.4120   17.3910  -34.2920 C   0  0  0  0  0  0  0  0  0  0  0  0
   -5.1010   17.4560  -33.0480 O   0  0  0  0  0  0  0  0  0  0  0  0
   -6.2140   18.2730  -32.8010 C   0  0  0  0  0  0  0  0  0  0  0  0
   -6.2240   19.5640  -33.3400 C   0  0  0  0  0  0  0  0  0  0  0  0
   -7.3080   20.4180  -33.1200 C   0  0  0  0  0  0  0  0  0  0  0  0
   -8.4020   19.9910  -32.3490 C   0  0  0  0  0  0  0  0  0  0  0  0
   -9.5460   20.9320  -32.0790 C   0  0  0  0  0  0  0  0  0  0  0  0
   -9.0400   22.2640  -31.7050 N   0  0  0  0  0  0  0  0  0  0  0  0
   -8.2550   22.2450  -30.4600 C   0  0  0  0  0  0  0  0  0  0  0  0
   -6.9810   23.0380  -30.5960 C   0  0  0  0  0  0  0  0  0  0  0  0
   -6.9930   24.4330  -30.4370 C   0  0  0  0  0  0  0  0  0  0  0  0
   -5.8060   25.1620  -30.5350 C   0  0  0  0  0  0  0  0  0  0  0  0
   -4.6000   24.5090  -30.8000 C   0  0  0  0  0  0  0  0  0  0  0  0
   -4.5740   23.1170  -30.9840 C   0  0  0  0  0  0  0  0  0  0  0  0
   -3.2880   22.4170  -31.2140 C   0  0  0  0  0  0  0  0  0  0  0  0
   -3.2230   21.4790  -32.2580 C   0  0  0  0  0  0  0  0  0  0  0  0
   -2.0140   20.8730  -32.6000 C   0  0  0  0  0  0  0  0  0  0  0  0
   -0.8520   21.1940  -31.9010 C   0  0  0  0  0  0  0  0  0  0  0  0
   -0.8990   22.1060  -30.8450 C   0  0  0  0  0  0  0  0  0  0  0  0
   -2.1110   22.7150  -30.4730 C   0  0  0  0  0  0  0  0  0  0  0  0
   -2.1170   23.6040  -29.2850 C   0  0  0  0  0  0  0  0  0  0  0  0
   -1.9130   24.9350  -29.3480 N   0  0  0  0  0  0  0  0  0  0  0  0
   -1.9660   25.2920  -28.0510 C   0  0  0  0  0  0  0  0  0  0  0  0
   -2.1790   24.2400  -27.2420 N   0  0  0  0  0  0  0  0  0  0  0  0
   -2.2690   23.1750  -28.0180 N   0  0  0  0  0  0  0  0  0  0  0  0
   -5.7700   22.3870  -30.8800 C   0  0  0  0  0  0  0  0  0  0  0  0
   -8.3980   18.6930  -31.8140 C   0  0  0  0  0  0  0  0  0  0  0  0
   -7.3120   17.8410  -32.0320 C   0  0  0  0  0  0  0  0  0  0  0  0
   -3.3323   17.2891  -34.1082 H   0  0  0  0  0  0  0  0  0  0  0  0
   -4.7700   16.5226  -34.8645 H   0  0  0  0  0  0  0  0  0  0  0  0
   -4.6013   18.3110  -34.8645 H   0  0  0  0  0  0  0  0  0  0  0  0
   -5.3710   19.9099  -33.9423 H   0  0  0  0  0  0  0  0  0  0  0  0
   -7.3047   21.4294  -33.5526 H   0  0  0  0  0  0  0  0  0  0  0  0
  -10.1637   21.0205  -32.9849 H   0  0  0  0  0  0  0  0  0  0  0  0
  -10.1468   20.5331  -31.2484 H   0  0  0  0  0  0  0  0  0  0  0  0
   -9.8700   22.8790  -31.5350 H   0  0  0  0  0  0  0  0  0  0  0  0
   -8.8601   22.6777  -29.6497 H   0  0  0  0  0  0  0  0  0  0  0  0
   -7.9887   21.2013  -30.2368 H   0  0  0  0  0  0  0  0  0  0  0  0
   -7.9407   24.9534  -30.2345 H   0  0  0  0  0  0  0  0  0  0  0  0
   -5.8208   26.2540  -30.4031 H   0  0  0  0  0  0  0  0  0  0  0  0
   -3.6667   25.0875  -30.8648 H   0  0  0  0  0  0  0  0  0  0  0  0
   -4.1368   21.2193  -32.8125 H   0  0  0  0  0  0  0  0  0  0  0  0
   -1.9779   20.1420  -33.4212 H   0  0  0  0  0  0  0  0  0  0  0  0
    0.1040   20.7280  -32.1818 H   0  0  0  0  0  0  0  0  0  0  0  0
    0.0229   22.3512  -30.2973 H   0  0  0  0  0  0  0  0  0  0  0  0
   -1.8485   26.3259  -27.6943 H   0  0  0  0  0  0  0  0  0  0  0  0
   -5.7574   21.2963  -31.0223 H   0  0  0  0  0  0  0  0  0  0  0  0
   -9.2553   18.3444  -31.2194 H   0  0  0  0  0  0  0  0  0  0  0  0
   -7.3147   16.8288  -31.6013 H   0  0  0  0  0  0  0  0  0  0  0  0
  1  2  1  0
  2  3  1  0
  3  4  2  0
  4  5  1  0
  5  6  2  0
  6  7  1  0
  7  8  1  0
  8  9  1  0
  9 10  1  0
 10 11  2  0
 11 12  1  0
 12 13  2  0
 13 14  1  0
 14 15  1  0
 15 16  2  0
 16 17  1  0
 17 18  2  0
 18 19  1  0
 19 20  2  0
 20 21  1  0
 21 22  1  0
 22 23  2  0
 23 24  1  0
 24 25  1  0
 14 26  2  0
  6 27  1  0
 27 28  2  0
 28  3  1  0
 26 10  1  0
 20 15  1  0
 25 21  2  0
  1 29  1  0
  1 30  1  0
  1 31  1  0
  4 32  1  0
  5 33  1  0
  7 34  1  0
  7 35  1  0
  8 36  1  0
  9 37  1  0
  9 38  1  0
 11 39  1  0
 12 40  1  0
 13 41  1  0
 16 42  1  0
 17 43  1  0
 18 44  1  0
 19 45  1  0
 23 46  1  0
 26 47  1  0
 27 48  1  0
 28 49  1  0
M  CHG  1  24  -1
M  END
>  <UniqueID>  (22) 
19

>  <SMILES>  (22) 
COc1ccc(CNCc2cccc(-c3ccccc3-c3nc[n-]n3)c2)cc1

>  <Energy>  (22) 
89.32361236494987

>  <Genealogy>  (22) 
COc1ccc(CNCc2cccc(-c3ccccc3-c3nc[n-]n3)c2)cc1 (protonated)
COc1ccc(CNCc2cccc(-c3ccccc3-c3nc[n-]n3)c2)cc1 (3D coordinates assigned)
COc1ccc(CNCc2cccc(-c3ccccc3-c3nc[n-]n3)c2)cc1 (optimized conformer: 89.32361236494987 kcal/mol)

>  <smiles>  (22) 
COc1ccc(CNCc2cccc(-c3ccccc3-c3nc[nH]n3)c2)cc1

>  <score_type>  (22) 
oracle

>  <origin>  (22) 
adgpu

>  <m_score__min__energy>  (22) 
-10.029999999999999

>  <m_primary>  (22) 
energy

$$$$
22:0
     RDKit          3D

 44 46  0  0  0  0  0  0  0  0999 V2000
   -6.1620   17.2870  -31.4670 C   0  0  0  0  0  0  0  0  0  0  0  0
   -7.2330   17.4100  -32.4730 N   0  0  0  0  0  0  0  0  0  0  0  0
   -8.3810   18.2060  -31.9620 C   0  0  0  0  0  0  0  0  0  0  0  0
   -8.4550   19.6340  -32.5350 C   0  0  0  0  0  0  0  0  0  0  0  0
   -7.1090   20.1410  -32.8140 N   0  0  0  0  0  0  0  0  0  0  0  0
   -6.6390   21.3750  -32.2370 C   0  0  0  0  0  0  0  0  0  0  0  0
   -7.5420   22.2760  -31.6550 C   0  0  0  0  0  0  0  0  0  0  0  0
   -7.0870   23.4680  -31.0880 C   0  0  0  0  0  0  0  0  0  0  0  0
   -5.7180   23.7870  -31.0810 C   0  0  0  0  0  0  0  0  0  0  0  0
   -5.2870   25.0990  -30.5370 C   0  0  0  0  0  0  0  0  0  0  0  0
   -3.9030   25.4460  -30.5100 N   0  0  0  0  0  0  0  0  0  0  0  0
   -6.1300   25.9100  -30.0710 O   0  0  0  0  0  0  0  0  0  0  0  0
   -4.7980   22.8540  -31.6240 C   0  0  0  0  0  0  0  0  0  0  0  0
   -3.3800   23.0740  -31.5790 N   0  0  0  0  0  0  0  0  0  0  0  0
   -2.4060   22.0240  -31.7270 C   0  0  0  0  0  0  0  0  0  0  0  0
   -1.7340   21.5460  -30.5900 C   0  0  0  0  0  0  0  0  0  0  0  0
   -0.7820   20.5280  -30.7060 C   0  0  0  0  0  0  0  0  0  0  0  0
   -0.4870   19.9830  -31.9580 C   0  0  0  0  0  0  0  0  0  0  0  0
   -1.1410   20.4590  -33.0970 C   0  0  0  0  0  0  0  0  0  0  0  0
   -2.0940   21.4760  -32.9870 C   0  0  0  0  0  0  0  0  0  0  0  0
   -5.2690   21.6720  -32.2120 C   0  0  0  0  0  0  0  0  0  0  0  0
   -6.2320   19.3530  -33.6860 C   0  0  0  0  0  0  0  0  0  0  0  0
   -6.7150   17.8950  -33.7710 C   0  0  0  0  0  0  0  0  0  0  0  0
   -6.5986   17.3371  -30.4586 H   0  0  0  0  0  0  0  0  0  0  0  0
   -5.6467   16.3238  -31.5960 H   0  0  0  0  0  0  0  0  0  0  0  0
   -5.4417   18.1083  -31.5960 H   0  0  0  0  0  0  0  0  0  0  0  0
   -9.3109   17.6795  -32.2230 H   0  0  0  0  0  0  0  0  0  0  0  0
   -8.2423   18.3049  -30.8753 H   0  0  0  0  0  0  0  0  0  0  0  0
   -9.0382   19.6209  -33.4676 H   0  0  0  0  0  0  0  0  0  0  0  0
   -8.9386   20.2908  -31.7969 H   0  0  0  0  0  0  0  0  0  0  0  0
   -8.6168   22.0420  -31.6450 H   0  0  0  0  0  0  0  0  0  0  0  0
   -7.8094   24.1667  -30.6408 H   0  0  0  0  0  0  0  0  0  0  0  0
   -3.4840   26.0410  -31.2580 H   0  0  0  0  0  0  0  0  0  0  0  0
   -3.0480   24.0660  -31.5810 H   0  0  0  0  0  0  0  0  0  0  0  0
   -1.9579   21.9750  -29.6021 H   0  0  0  0  0  0  0  0  0  0  0  0
   -0.2645   20.1557  -29.8096 H   0  0  0  0  0  0  0  0  0  0  0  0
    0.2594   19.1799  -32.0469 H   0  0  0  0  0  0  0  0  0  0  0  0
   -0.9055   20.0324  -34.0832 H   0  0  0  0  0  0  0  0  0  0  0  0
   -2.6024   21.8499  -33.8879 H   0  0  0  0  0  0  0  0  0  0  0  0
   -4.5533   20.9672  -32.6604 H   0  0  0  0  0  0  0  0  0  0  0  0
   -6.2351   19.7935  -34.6940 H   0  0  0  0  0  0  0  0  0  0  0  0
   -5.2150   19.3641  -33.2670 H   0  0  0  0  0  0  0  0  0  0  0  0
   -7.5168   17.8289  -34.5212 H   0  0  0  0  0  0  0  0  0  0  0  0
   -5.8568   17.2670  -34.0522 H   0  0  0  0  0  0  0  0  0  0  0  0
  1  2  1  0
  2  3  1  0
  3  4  1  0
  4  5  1  0
  5  6  1  0
  6  7  2  0
  7  8  1  0
  8  9  2  0
  9 10  1  0
 10 11  1  0
 10 12  2  0
  9 13  1  0
 13 14  1  0
 14 15  1  0
 15 16  2  0
 16 17  1  0
 17 18  2  0
 18 19  1  0
 19 20  2  0
 13 21  2  0
  5 22  1  0
 22 23  1  0
 23  2  1  0
 21  6  1  0
 20 15  1  0
  1 24  1  0
  1 25  1  0
  1 26  1  0
  3 27  1  0
  3 28  1  0
  4 29  1  0
  4 30  1  0
  7 31  1  0
  8 32  1  0
 11 33  1  0
 14 34  1  0
 16 35  1  0
 17 36  1  0
 18 37  1  0
 19 38  1  0
 20 39  1  0
 21 40  1  0
 22 41  1  0
 22 42  1  0
 23 43  1  0
 23 44  1  0
M  CHG  1  11  -1
M  END
>  <UniqueID>  (23) 
20

>  <SMILES>  (23) 
CN1CCN(c2ccc(C([NH-])=O)c(Nc3ccccc3)c2)CC1

>  <Energy>  (23) 
66.27821964466908

>  <Genealogy>  (23) 
CN1CCN(c2ccc(C([NH-])=O)c(Nc3ccccc3)c2)CC1 (protonated)
CN1CCN(c2ccc(C([NH-])=O)c(Nc3ccccc3)c2)CC1 (3D coordinates assigned)
CN1CCN(c2ccc(C([NH-])=O)c(Nc3ccccc3)c2)CC1 (nonaromatic ring conformer: 66.27821964466908 kcal/mol)

>  <smiles>  (23) 
CN1CCN(c2ccc(C(N)=O)c(Nc3ccccc3)c2)CC1

>  <score_type>  (23) 
oracle

>  <origin>  (23) 
adgpu

>  <m_score__min__energy>  (23) 
-11.18

>  <m_primary>  (23) 
energy

$$$$
23:0
     RDKit          3D

 31 32  0  0  0  0  0  0  0  0999 V2000
   -6.0480   18.2970  -34.0790 C   0  0  0  0  0  0  0  0  0  0  0  0
   -6.8680   17.7660  -32.5440 S   0  0  0  0  0  0  0  0  0  0  0  0
   -7.5500   19.3940  -32.2020 C   0  0  0  0  0  0  0  0  0  0  0  0
   -8.8810   19.6620  -32.5510 C   0  0  0  0  0  0  0  0  0  0  0  0
   -9.4360   20.9160  -32.2920 C   0  0  0  0  0  0  0  0  0  0  0  0
   -8.6670   21.9100  -31.6860 C   0  0  0  0  0  0  0  0  0  0  0  0
   -7.3370   21.6530  -31.3380 C   0  0  0  0  0  0  0  0  0  0  0  0
   -6.7670   20.3920  -31.5920 C   0  0  0  0  0  0  0  0  0  0  0  0
   -5.4070   20.0950  -31.2410 N   0  0  0  0  0  0  0  0  0  0  0  0
   -4.0040   20.7270  -32.0400 S   0  0  0  0  0  0  0  0  0  0  0  0
   -2.9440   19.6640  -32.0890 O   0  0  0  0  0  0  0  0  0  0  0  0
   -4.3730   21.1180  -33.4440 O   0  0  0  0  0  0  0  0  0  0  0  0
   -3.3800   22.1130  -31.1500 C   0  0  0  0  0  0  0  0  0  0  0  0
   -2.2180   21.9820  -30.3790 C   0  0  0  0  0  0  0  0  0  0  0  0
   -1.7250   23.0740  -29.6600 C   0  0  0  0  0  0  0  0  0  0  0  0
   -2.3860   24.3050  -29.7120 C   0  0  0  0  0  0  0  0  0  0  0  0
   -1.8910   25.3880  -28.9940 O   0  0  0  0  0  0  0  0  0  0  0  0
   -3.5460   24.4460  -30.4870 C   0  0  0  0  0  0  0  0  0  0  0  0
   -4.2000   25.6770  -30.5360 O   0  0  0  0  0  0  0  0  0  0  0  0
   -4.0400   23.3480  -31.2060 C   0  0  0  0  0  0  0  0  0  0  0  0
   -5.1484   18.8796  -33.8315 H   0  0  0  0  0  0  0  0  0  0  0  0
   -5.7618   17.4123  -34.6667 H   0  0  0  0  0  0  0  0  0  0  0  0
   -6.7381   18.9201  -34.6667 H   0  0  0  0  0  0  0  0  0  0  0  0
   -9.4899   18.8814  -33.0305 H   0  0  0  0  0  0  0  0  0  0  0  0
  -10.4814   21.1211  -32.5661 H   0  0  0  0  0  0  0  0  0  0  0  0
   -9.1073   22.8971  -31.4817 H   0  0  0  0  0  0  0  0  0  0  0  0
   -6.7335   22.4407  -30.8633 H   0  0  0  0  0  0  0  0  0  0  0  0
   -1.6920   21.0167  -30.3394 H   0  0  0  0  0  0  0  0  0  0  0  0
   -0.8150   22.9650  -29.0518 H   0  0  0  0  0  0  0  0  0  0  0  0
   -3.8660   26.4750  -30.0090 H   0  0  0  0  0  0  0  0  0  0  0  0
   -4.9488   23.4565  -31.8161 H   0  0  0  0  0  0  0  0  0  0  0  0
  1  2  1  0
  2  3  1  0
  3  4  2  0
  4  5  1  0
  5  6  2  0
  6  7  1  0
  7  8  2  0
  8  9  1  0
  9 10  1  0
 10 11  2  0
 10 12  2  0
 10 13  1  0
 13 14  2  0
 14 15  1  0
 15 16  2  0
 16 17  1  0
 16 18  1  0
 18 19  1  0
 18 20  2  0
  8  3  1  0
 20 13  1  0
  1 21  1  0
  1 22  1  0
  1 23  1  0
  4 24  1  0
  5 25  1  0
  6 26  1  0
  7 27  1  0
 14 28  1  0
 15 29  1  0
 19 30  1  0
 20 31  1  0
M  CHG  2   9  -1  17  -1
M  END
>  <UniqueID>  (24) 
21

>  <SMILES>  (24) 
CSc1ccccc1[N-]S(=O)(=O)c1ccc([O-])c(O)c1

>  <Energy>  (24) 
30.399571839379334

>  <Genealogy>  (24) 
CSc1ccccc1[N-]S(=O)(=O)c1ccc([O-])c(O)c1 (protonated)
CSc1ccccc1[N-]S(=O)(=O)c1ccc([O-])c(O)c1 (3D coordinates assigned)
CSc1ccccc1[N-]S(=O)(=O)c1ccc([O-])c(O)c1 (optimized conformer: 30.399571839379334 kcal/mol)

>  <smiles>  (24) 
CSc1ccccc1NS(=O)(=O)c1ccc(O)c(O)c1

>  <score_type>  (24) 
oracle

>  <origin>  (24) 
adgpu

>  <m_score__min__energy>  (24) 
-10.18

>  <m_primary>  (24) 
energy

$$$$
24:0
     RDKit          3D

 41 43  0  0  0  0  0  0  0  0999 V2000
   -4.8910   27.1230  -29.7380 H   0  0  0  0  0  0  0  0  0  0  0  0
   -5.7740   26.6240  -29.7220 O   0  0  0  0  0  0  0  0  0  0  0  0
   -5.9040   25.3560  -30.2850 C   0  0  0  0  0  0  0  0  0  0  0  0
   -7.1610   24.7450  -30.3780 C   0  0  0  0  0  0  0  0  0  0  0  0
   -8.0537   25.2684  -30.0049 H   0  0  0  0  0  0  0  0  0  0  0  0
   -7.2850   23.4730  -30.9430 C   0  0  0  0  0  0  0  0  0  0  0  0
   -8.2757   22.9998  -31.0113 H   0  0  0  0  0  0  0  0  0  0  0  0
   -6.1540   22.7950  -31.4240 C   0  0  0  0  0  0  0  0  0  0  0  0
   -6.3100   21.4520  -32.0180 C   0  0  0  0  0  0  0  0  0  0  0  0
   -7.2520   21.1859  -32.5198 H   0  0  0  0  0  0  0  0  0  0  0  0
   -5.3470   20.5800  -31.9550 N   0  0  0  0  0  0  0  0  0  0  0  0
   -5.3580   19.2490  -32.4980 C   0  0  0  0  0  0  0  0  0  0  0  0
   -4.9440   18.9550  -33.8140 C   0  0  0  0  0  0  0  0  0  0  0  0
   -4.6024   19.7654  -34.4747 H   0  0  0  0  0  0  0  0  0  0  0  0
   -4.9660   17.6380  -34.2820 C   0  0  0  0  0  0  0  0  0  0  0  0
   -4.6514   17.4182  -35.3129 H   0  0  0  0  0  0  0  0  0  0  0  0
   -5.3870   16.5960  -33.4440 C   0  0  0  0  0  0  0  0  0  0  0  0
   -5.4230   14.9380  -34.0330 S   0  0  0  0  0  0  0  0  0  0  0  0
   -4.3970   14.7640  -35.1180 O   0  0  0  0  0  0  0  0  0  0  0  0
   -6.7940   14.6400  -34.5720 O   0  0  0  0  0  0  0  0  0  0  0  0
   -5.0530   13.8600  -32.7240 N   0  0  0  0  0  0  0  0  0  0  0  0
   -3.8610   13.6770  -32.2440 C   0  0  0  0  0  0  0  0  0  0  0  0
   -3.6180   12.8310  -31.2220 N   0  0  0  0  0  0  0  0  0  0  0  0
   -2.3330   12.7890  -30.8740 N   0  0  0  0  0  0  0  0  0  0  0  0
   -1.5480   13.5940  -31.6260 C   0  0  0  0  0  0  0  0  0  0  0  0
   -0.0820   13.7690  -31.3920 C   0  0  0  0  0  0  0  0  0  0  0  0
    0.4732   13.3278  -32.2329 H   0  0  0  0  0  0  0  0  0  0  0  0
    0.1886   13.2673  -30.4512 H   0  0  0  0  0  0  0  0  0  0  0  0
    0.2720   15.2460  -31.2790 C   0  0  0  0  0  0  0  0  0  0  0  0
    0.3393   15.5268  -30.2176 H   0  0  0  0  0  0  0  0  0  0  0  0
    1.2396   15.4297  -31.7689 H   0  0  0  0  0  0  0  0  0  0  0  0
   -0.5072   15.8483  -31.7689 H   0  0  0  0  0  0  0  0  0  0  0  0
   -2.4490   14.4370  -32.7750 S   0  0  0  0  0  0  0  0  0  0  0  0
   -5.7920   16.8840  -32.1350 C   0  0  0  0  0  0  0  0  0  0  0  0
   -6.1271   16.0714  -31.4736 H   0  0  0  0  0  0  0  0  0  0  0  0
   -5.7720   18.2000  -31.6660 C   0  0  0  0  0  0  0  0  0  0  0  0
   -6.0843   18.4148  -30.6334 H   0  0  0  0  0  0  0  0  0  0  0  0
   -4.8930   23.4130  -31.3270 C   0  0  0  0  0  0  0  0  0  0  0  0
   -3.9986   22.8913  -31.6984 H   0  0  0  0  0  0  0  0  0  0  0  0
   -4.7700   24.6870  -30.7610 C   0  0  0  0  0  0  0  0  0  0  0  0
   -3.5190   25.2850  -30.6730 O   0  0  0  0  0  0  0  0  0  0  0  0
  1  2  1  0
  2  3  1  0
  3  4  2  0
  4  5  1  0
  4  6  1  0
  6  7  1  0
  6  8  2  0
  8  9  1  0
  9 10  1  0
  9 11  2  0
 11 12  1  0
 12 13  2  0
 13 14  1  0
 13 15  1  0
 15 16  1  0
 15 17  2  0
 17 18  1  0
 18 19  2  0
 18 20  2  0
 18 21  1  0
 21 22  2  0
 22 23  1  0
 23 24  1  0
 24 25  2  0
 25 26  1  0
 26 27  1  0
 26 28  1  0
 26 29  1  0
 29 30  1  0
 29 31  1  0
 29 32  1  0
 25 33  1  0
 17 34  1  0
 34 35  1  0
 34 36  2  0
 36 37  1  0
  8 38  1  0
 38 39  1  0
 38 40  2  0
 40 41  1  0
 40  3  1  0
 36 12  1  0
 33 22  1  0
M  CHG  2  23  -1  41  -1
M  END
>  <UniqueID>  (25) 
22

>  <SMILES>  (25) 
CCc1n[n-]/c(=N/S(=O)(=O)c2ccc(/N=C/c3ccc(O)c([O-])c3)cc2)s1

>  <Energy>  (25) 
80.54912452952334

>  <Genealogy>  (25) 
CCc1n[n-]c(=NS(=O)(=O)c2ccc(N=Cc3ccc(O)c([O-])c3)cc2)s1 (protonated)
CCc1n[n-]/c(=N/S(=O)(=O)c2ccc(/N=C/c3ccc(O)c([O-])c3)cc2)s1 (cis-trans isomerization)
CCc1n[n-]/c(=N/S(=O)(=O)c2ccc(/N=C/c3ccc(O)c([O-])c3)cc2)s1 (3D coordinates assigned)
CCc1n[n-]/c(=N/S(=O)(=O)c2ccc(/N=C/c3ccc(O)c([O-])c3)cc2)s1 (optimized conformer: 80.54912452952334 kcal/mol)

>  <smiles>  (25) 
CCc1n[nH]c(=NS(=O)(=O)c2ccc(N=Cc3ccc(O)c(O)c3)cc2)s1

>  <score_type>  (25) 
oracle

>  <origin>  (25) 
adgpu

>  <m_score__min__energy>  (25) 
-10.35

>  <m_primary>  (25) 
energy

$$$$
25:0
     RDKit          3D

 44 47  0  0  0  0  0  0  0  0999 V2000
   -1.0050   29.1390  -36.4990 C   0  0  0  0  0  0  0  0  0  0  0  0
   -0.5160   27.7320  -36.3210 C   0  0  0  0  0  0  0  0  0  0  0  0
    0.6300   27.4710  -35.5550 C   0  0  0  0  0  0  0  0  0  0  0  0
    1.1040   26.1630  -35.4200 C   0  0  0  0  0  0  0  0  0  0  0  0
    0.4530   25.1010  -36.0680 C   0  0  0  0  0  0  0  0  0  0  0  0
    0.9570   23.7190  -35.9040 C   0  0  0  0  0  0  0  0  0  0  0  0
    0.1880   22.7430  -35.3400 N   0  0  0  0  0  0  0  0  0  0  0  0
    0.8310   21.5500  -35.2820 C   0  0  0  0  0  0  0  0  0  0  0  0
    0.3450   20.4510  -34.7820 N   0  0  0  0  0  0  0  0  0  0  0  0
   -0.9810   20.2150  -34.2890 C   0  0  0  0  0  0  0  0  0  0  0  0
   -1.8830   21.1920  -34.0200 N   0  0  0  0  0  0  0  0  0  0  0  0
   -3.0770   20.6590  -33.6560 C   0  0  0  0  0  0  0  0  0  0  0  0
   -4.2000   21.4070  -33.3050 C   0  0  0  0  0  0  0  0  0  0  0  0
   -5.3800   20.7300  -32.9530 C   0  0  0  0  0  0  0  0  0  0  0  0
   -5.4290   19.3180  -32.9620 C   0  0  0  0  0  0  0  0  0  0  0  0
   -6.9110   18.4870  -32.5040 S   0  0  0  0  0  0  0  0  0  0  0  0
   -8.2460   19.6580  -32.4230 C   0  0  0  0  0  0  0  0  0  0  0  0
   -6.7350   17.8330  -31.1610 O   0  0  0  0  0  0  0  0  0  0  0  0
   -7.2320   17.4240  -33.5180 O   0  0  0  0  0  0  0  0  0  0  0  0
   -4.2860   18.5780  -33.3150 C   0  0  0  0  0  0  0  0  0  0  0  0
   -3.1300   19.2740  -33.6570 C   0  0  0  0  0  0  0  0  0  0  0  0
   -1.6390   18.6660  -34.1280 S   0  0  0  0  0  0  0  0  0  0  0  0
    2.3880   21.6580  -35.8960 S   0  0  0  0  0  0  0  0  0  0  0  0
    2.2430   23.2940  -36.2700 C   0  0  0  0  0  0  0  0  0  0  0  0
    3.3360   24.1160  -36.8760 C   0  0  0  0  0  0  0  0  0  0  0  0
   -0.6920   25.3650  -36.8370 C   0  0  0  0  0  0  0  0  0  0  0  0
   -1.1670   26.6740  -36.9710 C   0  0  0  0  0  0  0  0  0  0  0  0
   -1.1649   29.5991  -35.5127 H   0  0  0  0  0  0  0  0  0  0  0  0
   -0.2560   29.7196  -37.0574 H   0  0  0  0  0  0  0  0  0  0  0  0
   -1.9527   29.1299  -37.0574 H   0  0  0  0  0  0  0  0  0  0  0  0
    1.1576   28.2989  -35.0587 H   0  0  0  0  0  0  0  0  0  0  0  0
    1.9923   25.9644  -34.8024 H   0  0  0  0  0  0  0  0  0  0  0  0
   -0.7730   22.9290  -34.9860 H   0  0  0  0  0  0  0  0  0  0  0  0
   -4.1630   22.5064  -33.3036 H   0  0  0  0  0  0  0  0  0  0  0  0
   -6.2736   21.3046  -32.6679 H   0  0  0  0  0  0  0  0  0  0  0  0
   -8.4858   19.8684  -31.3703 H   0  0  0  0  0  0  0  0  0  0  0  0
   -7.9469   20.5903  -32.9243 H   0  0  0  0  0  0  0  0  0  0  0  0
   -9.1314   19.2399  -32.9243 H   0  0  0  0  0  0  0  0  0  0  0  0
   -4.3052   17.4782  -33.3206 H   0  0  0  0  0  0  0  0  0  0  0  0
    3.9397   24.5700  -36.0764 H   0  0  0  0  0  0  0  0  0  0  0  0
    3.9759   23.4734  -37.4986 H   0  0  0  0  0  0  0  0  0  0  0  0
    2.8962   24.9090  -37.4986 H   0  0  0  0  0  0  0  0  0  0  0  0
   -1.2181   24.5382  -37.3366 H   0  0  0  0  0  0  0  0  0  0  0  0
   -2.0548   26.8740  -37.5888 H   0  0  0  0  0  0  0  0  0  0  0  0
  1  2  1  0
  2  3  2  0
  3  4  1  0
  4  5  2  0
  5  6  1  0
  6  7  1  0
  7  8  1  0
  8  9  2  3
  9 10  1  0
 10 11  2  0
 11 12  1  0
 12 13  2  0
 13 14  1  0
 14 15  2  0
 15 16  1  0
 16 17  1  0
 16 18  2  0
 16 19  2  0
 15 20  1  0
 20 21  2  0
 21 22  1  0
  8 23  1  0
 23 24  1  0
 24 25  1  0
  5 26  1  0
 26 27  2  0
 27  2  1  0
 24  6  2  0
 22 10  1  0
 21 12  1  0
  1 28  1  0
  1 29  1  0
  1 30  1  0
  3 31  1  0
  4 32  1  0
  7 33  1  0
 13 34  1  0
 14 35  1  0
 17 36  1  0
 17 37  1  0
 17 38  1  0
 20 39  1  0
 25 40  1  0
 25 41  1  0
 25 42  1  0
 26 43  1  0
 27 44  1  0
M  END
>  <UniqueID>  (26) 
23

>  <SMILES>  (26) 
Cc1ccc(-c2[nH]c(=Nc3nc4ccc(S(C)(=O)=O)cc4s3)sc2C)cc1

>  <Energy>  (26) 
118.06116906402389

>  <Genealogy>  (26) 
Cc1ccc(-c2[nH]c(=Nc3nc4ccc(S(C)(=O)=O)cc4s3)sc2C)cc1 (3D coordinates assigned)
Cc1ccc(-c2[nH]c(=Nc3nc4ccc(S(C)(=O)=O)cc4s3)sc2C)cc1 (optimized conformer: 118.06116906402389 kcal/mol)

>  <smiles>  (26) 
Cc1ccc(-c2[nH]c(=Nc3nc4ccc(S(C)(=O)=O)cc4s3)sc2C)cc1

>  <score_type>  (26) 
oracle

>  <origin>  (26) 
adgpu

>  <m_score__min__energy>  (26) 
-9.1500000000000004

>  <m_primary>  (26) 
energy

$$$$
26:0
     RDKit          3D

 26 27  0  0  0  0  0  0  0  0999 V2000
   -8.3510   22.8870  -31.5900 O   0  0  0  0  0  0  0  0  0  0  0  0
   -7.1940   22.6130  -32.0050 C   0  0  0  0  0  0  0  0  0  0  0  0
   -7.0500   21.6280  -33.0390 N   0  0  0  0  0  0  0  0  0  0  0  0
   -7.2210   20.2100  -32.8900 C   0  0  0  0  0  0  0  0  0  0  0  0
   -8.1890   19.6670  -32.0260 C   0  0  0  0  0  0  0  0  0  0  0  0
   -8.3180   18.2800  -31.8990 C   0  0  0  0  0  0  0  0  0  0  0  0
   -7.4760   17.4290  -32.6180 C   0  0  0  0  0  0  0  0  0  0  0  0
   -6.4960   17.9640  -33.4590 C   0  0  0  0  0  0  0  0  0  0  0  0
   -6.3640   19.3500  -33.5890 C   0  0  0  0  0  0  0  0  0  0  0  0
   -6.0260   23.2880  -31.3910 C   0  0  0  0  0  0  0  0  0  0  0  0
   -6.2140   24.5090  -30.7190 C   0  0  0  0  0  0  0  0  0  0  0  0
   -5.1290   25.1760  -30.1470 C   0  0  0  0  0  0  0  0  0  0  0  0
   -3.8470   24.6290  -30.2270 C   0  0  0  0  0  0  0  0  0  0  0  0
   -2.7690   25.2980  -29.6610 O   0  0  0  0  0  0  0  0  0  0  0  0
   -3.6500   23.4070  -30.8740 C   0  0  0  0  0  0  0  0  0  0  0  0
   -4.7340   22.7250  -31.4480 C   0  0  0  0  0  0  0  0  0  0  0  0
   -4.5280   21.4840  -32.0520 O   0  0  0  0  0  0  0  0  0  0  0  0
   -8.8459   20.3345  -31.4490 H   0  0  0  0  0  0  0  0  0  0  0  0
   -9.0842   17.8588  -31.2315 H   0  0  0  0  0  0  0  0  0  0  0  0
   -7.5839   16.3385  -32.5226 H   0  0  0  0  0  0  0  0  0  0  0  0
   -5.8276   17.2937  -34.0194 H   0  0  0  0  0  0  0  0  0  0  0  0
   -5.5839   19.7669  -34.2429 H   0  0  0  0  0  0  0  0  0  0  0  0
   -7.2226   24.9414  -30.6435 H   0  0  0  0  0  0  0  0  0  0  0  0
   -5.2847   26.1353  -29.6318 H   0  0  0  0  0  0  0  0  0  0  0  0
   -2.6395   22.9767  -30.9340 H   0  0  0  0  0  0  0  0  0  0  0  0
   -5.1320   21.1460  -32.7910 H   0  0  0  0  0  0  0  0  0  0  0  0
  1  2  2  0
  2  3  1  0
  3  4  1  0
  4  5  2  0
  5  6  1  0
  6  7  2  0
  7  8  1  0
  8  9  2  0
  2 10  1  0
 10 11  2  0
 11 12  1  0
 12 13  2  0
 13 14  1  0
 13 15  1  0
 15 16  2  0
 16 17  1  0
  9  4  1  0
 16 10  1  0
  5 18  1  0
  6 19  1  0
  7 20  1  0
  8 21  1  0
  9 22  1  0
 11 23  1  0
 12 24  1  0
 15 25  1  0
 17 26  1  0
M  CHG  2   3  -1  14  -1
M  END
>  <UniqueID>  (27) 
24

>  <SMILES>  (27) 
O=C([N-]c1ccccc1)c1ccc([O-])cc1O

>  <Energy>  (27) 
34.928163876213425

>  <Genealogy>  (27) 
O=C([N-]c1ccccc1)c1ccc([O-])cc1O (protonated)
O=C([N-]c1ccccc1)c1ccc([O-])cc1O (3D coordinates assigned)
O=C([N-]c1ccccc1)c1ccc([O-])cc1O (optimized conformer: 34.928163876213425 kcal/mol)

>  <smiles>  (27) 
O=C(Nc1ccccc1)c1ccc(O)cc1O

>  <score_type>  (27) 
oracle

>  <origin>  (27) 
adgpu

>  <m_score__min__energy>  (27) 
-8.9800000000000004

>  <m_primary>  (27) 
energy

$$$$
27:0
     RDKit          3D

 42 45  0  0  0  0  0  0  0  0999 V2000
   -7.5460   16.7830  -33.9700 H   0  0  0  0  0  0  0  0  0  0  0  0
   -6.8400   16.0580  -34.2090 N   0  0  0  0  0  0  0  0  0  0  0  0
   -5.5570   16.2450  -34.1730 C   0  0  0  0  0  0  0  0  0  0  0  0
   -4.9730   17.4620  -33.7810 C   0  0  0  0  0  0  0  0  0  0  0  0
   -5.4360   18.6750  -33.2670 C   0  0  0  0  0  0  0  0  0  0  0  0
   -6.7850   19.0140  -32.7860 C   0  0  0  0  0  0  0  0  0  0  0  0
   -7.3870   20.2310  -33.1470 C   0  0  0  0  0  0  0  0  0  0  0  0
   -6.8316   20.9573  -33.7585 H   0  0  0  0  0  0  0  0  0  0  0  0
   -8.6910   20.5220  -32.7310 C   0  0  0  0  0  0  0  0  0  0  0  0
   -9.1536   21.4823  -33.0026 H   0  0  0  0  0  0  0  0  0  0  0  0
   -9.4060   19.5920  -31.9700 C   0  0  0  0  0  0  0  0  0  0  0  0
  -10.4289   19.8231  -31.6378 H   0  0  0  0  0  0  0  0  0  0  0  0
   -8.8200   18.3670  -31.6310 C   0  0  0  0  0  0  0  0  0  0  0  0
   -9.3856   17.6334  -31.0378 H   0  0  0  0  0  0  0  0  0  0  0  0
   -7.5170   18.0740  -32.0450 C   0  0  0  0  0  0  0  0  0  0  0  0
   -7.0648   17.1044  -31.7892 H   0  0  0  0  0  0  0  0  0  0  0  0
   -4.3860   19.5190  -33.1230 N   0  0  0  0  0  0  0  0  0  0  0  0
   -3.2910   18.8830  -33.5180 N   0  0  0  0  0  0  0  0  0  0  0  0
   -1.7030   19.5730  -33.4660 S   0  0  0  0  0  0  0  0  0  0  0  0
   -1.3960   20.2350  -34.7800 O   0  0  0  0  0  0  0  0  0  0  0  0
   -0.7050   18.4760  -33.2240 O   0  0  0  0  0  0  0  0  0  0  0  0
   -1.6270   20.7770  -32.1850 C   0  0  0  0  0  0  0  0  0  0  0  0
   -2.5900   21.7920  -32.1020 C   0  0  0  0  0  0  0  0  0  0  0  0
   -3.4087   21.8332  -32.8355 H   0  0  0  0  0  0  0  0  0  0  0  0
   -2.5120   22.7520  -31.0890 C   0  0  0  0  0  0  0  0  0  0  0  0
   -3.2699   23.5470  -31.0283 H   0  0  0  0  0  0  0  0  0  0  0  0
   -1.4720   22.7060  -30.1500 C   0  0  0  0  0  0  0  0  0  0  0  0
   -1.3900   23.9180  -28.8770 S   0  0  0  0  0  0  0  0  0  0  0  0
   -1.8870   23.3400  -27.5800 O   0  0  0  0  0  0  0  0  0  0  0  0
    0.0360   24.3590  -28.6950 O   0  0  0  0  0  0  0  0  0  0  0  0
   -2.3690   25.2760  -29.3070 N   0  0  0  0  0  0  0  0  0  0  0  0
   -2.4200   25.2970  -30.3520 H   0  0  0  0  0  0  0  0  0  0  0  0
   -0.5150   21.6840  -30.2270 C   0  0  0  0  0  0  0  0  0  0  0  0
    0.2980   21.6365  -29.4875 H   0  0  0  0  0  0  0  0  0  0  0  0
   -0.5920   20.7250  -31.2420 C   0  0  0  0  0  0  0  0  0  0  0  0
    0.1628   19.9269  -31.3002 H   0  0  0  0  0  0  0  0  0  0  0  0
   -3.6240   17.6400  -33.9050 C   0  0  0  0  0  0  0  0  0  0  0  0
   -2.8010   16.6130  -34.3510 C   0  0  0  0  0  0  0  0  0  0  0  0
   -1.7132   16.7514  -34.4384 H   0  0  0  0  0  0  0  0  0  0  0  0
   -3.3900   15.4290  -34.6760 N   0  0  0  0  0  0  0  0  0  0  0  0
   -4.7170   15.2470  -34.5900 N   0  0  0  0  0  0  0  0  0  0  0  0
   -5.1130   14.3240  -34.8770 H   0  0  0  0  0  0  0  0  0  0  0  0
  1  2  1  0
  2  3  2  0
  3  4  1  0
  4  5  1  0
  5  6  1  0
  6  7  2  0
  7  8  1  0
  7  9  1  0
  9 10  1  0
  9 11  2  0
 11 12  1  0
 11 13  1  0
 13 14  1  0
 13 15  2  0
 15 16  1  0
  5 17  2  0
 17 18  1  0
 18 19  1  0
 19 20  2  0
 19 21  2  0
 19 22  1  0
 22 23  2  0
 23 24  1  0
 23 25  1  0
 25 26  1  0
 25 27  2  0
 27 28  1  0
 28 29  2  0
 28 30  2  0
 28 31  1  0
 31 32  1  0
 27 33  1  0
 33 34  1  0
 33 35  2  0
 35 36  1  0
 18 37  1  0
 37 38  1  0
 38 39  1  0
 38 40  2  0
 40 41  1  0
 41 42  1  0
 41  3  1  0
 37  4  2  0
 15  6  1  0
 35 22  1  0
M  CHG  1  31  -1
M  END
>  <UniqueID>  (28) 
25

>  <SMILES>  (28) 
[H]/N=c1/[nH]ncc2c1c(-c1ccccc1)nn2S(=O)(=O)c1ccc(S([NH-])(=O)=O)cc1

>  <Energy>  (28) 
98.6209556592767

>  <Genealogy>  (28) 
N=c1[nH]ncc2c1c(-c1ccccc1)nn2S(=O)(=O)c1ccc(S([NH-])(=O)=O)cc1 (protonated)
[H]/N=c1/[nH]ncc2c1c(-c1ccccc1)nn2S(=O)(=O)c1ccc(S([NH-])(=O)=O)cc1 (cis-trans isomerization)
[H]/N=c1/[nH]ncc2c1c(-c1ccccc1)nn2S(=O)(=O)c1ccc(S([NH-])(=O)=O)cc1 (3D coordinates assigned)
[H]/N=c1/[nH]ncc2c1c(-c1ccccc1)nn2S(=O)(=O)c1ccc(S([NH-])(=O)=O)cc1 (optimized conformer: 98.6209556592767 kcal/mol)

>  <smiles>  (28) 
N=c1[nH]ncc2c1c(-c1ccccc1)nn2S(=O)(=O)c1ccc(S(N)(=O)=O)cc1

>  <score_type>  (28) 
oracle

>  <origin>  (28) 
adgpu

>  <m_score__min__energy>  (28) 
-11.130000000000001

>  <m_primary>  (28) 
energy

$$$$
28:0
     RDKit          3D

 69 74  0  0  1  0  0  0  0  0999 V2000
   -2.7560   19.1660  -26.2910 C   0  0  0  0  0  0  0  0  0  0  0  0
   -1.6310   19.5790  -27.1270 C   0  0  0  0  0  0  0  0  0  0  0  0
   -1.4370   20.8820  -27.4880 C   0  0  0  0  0  0  0  0  0  0  0  0
   -0.3600   21.1980  -28.2800 C   0  0  0  0  0  0  0  0  0  0  0  0
   -0.1910   22.4040  -28.6290 N   0  0  0  0  0  0  0  0  0  0  0  0
   -1.1510   23.7560  -28.2420 S   0  0  0  0  0  0  0  0  0  0  0  0
   -0.5760   24.9440  -28.9630 O   0  0  0  0  0  0  0  0  0  0  0  0
   -1.1360   24.1080  -26.7850 O   0  0  0  0  0  0  0  0  0  0  0  0
   -2.8140   23.5830  -28.8230 C   0  0  0  0  0  0  0  0  0  0  0  0
   -3.7010   22.8560  -28.0600 C   0  0  0  0  0  0  0  0  0  0  0  0
   -4.9800   22.6880  -28.5090 C   0  0  0  0  0  0  0  0  0  0  0  0
   -5.4310   23.2400  -29.7380 C   0  0  0  0  0  0  0  0  0  0  0  0
   -6.6850   22.9070  -30.1290 N   0  0  0  0  0  0  0  0  0  0  0  0
   -7.2160   22.1440  -30.9940 C   0  0  0  0  0  0  0  0  0  0  0  0
   -8.5810   22.1340  -31.0330 N   0  0  0  0  0  0  0  0  0  0  0  0
   -9.0280   21.0140  -32.3370 S   0  0  0  0  0  0  0  0  0  0  0  0
   -7.3770   20.6410  -32.7360 C   0  0  0  0  0  0  0  0  0  0  0  0
   -7.1420   19.7820  -33.8030 N   0  0  0  0  0  0  0  0  0  0  0  0
   -6.3460   18.5940  -33.5920 C   0  0  0  0  0  0  0  0  0  0  0  0
   -5.4560   18.1840  -34.5680 C   0  0  0  0  0  0  0  0  0  0  0  0
   -4.6890   17.0470  -34.4530 C   0  0  0  0  0  0  0  0  0  0  0  0
   -4.8370   16.3060  -33.3000 C   0  0  0  0  0  0  0  0  0  0  0  0
   -3.9540   14.8170  -33.0330 S   0  0  0  0  0  0  0  0  0  0  0  0
   -4.1020   13.7870  -34.3840 N   0  0  0  0  0  0  0  0  0  0  0  0
   -2.4860   15.1500  -32.7740 O   0  0  0  0  0  0  0  0  0  0  0  0
   -4.4690   14.2170  -31.7560 O   0  0  0  0  0  0  0  0  0  0  0  0
   -5.7200   16.6820  -32.2930 C   0  0  0  0  0  0  0  0  0  0  0  0
   -6.4840   17.8460  -32.4460 C   0  0  0  0  0  0  0  0  0  0  0  0
   -6.5610   21.3740  -31.8670 C   0  0  0  0  0  0  0  0  0  0  0  0
   -5.0930   21.1660  -31.9310 C   0  0  0  0  0  0  0  0  0  0  0  0
   -4.2080   20.6210  -31.1280 N   0  0  0  0  0  0  0  0  0  0  0  0
   -2.9730   20.5610  -31.5950 C   0  0  0  0  0  0  0  0  0  0  0  0
   -1.8030   20.0630  -31.0510 C   0  0  0  0  0  0  0  0  0  0  0  0
   -0.6430   20.1440  -31.8170 C   0  0  0  0  0  0  0  0  0  0  0  0
   -0.7010   20.7170  -33.0870 C   0  0  0  0  0  0  0  0  0  0  0  0
   -1.8870   21.1990  -33.5810 C   0  0  0  0  0  0  0  0  0  0  0  0
   -3.0450   21.1290  -32.8430 C   0  0  0  0  0  0  0  0  0  0  0  0
   -4.3360   21.4890  -33.0280 N   0  0  0  0  0  0  0  0  0  0  0  0
   -4.5090   23.9890  -30.5130 C   0  0  0  0  0  0  0  0  0  0  0  0
   -3.2030   24.1460  -30.0310 C   0  0  0  0  0  0  0  0  0  0  0  0
    0.4860   20.2370  -28.6900 N   0  0  0  0  0  0  0  0  0  0  0  0
    0.3000   18.9620  -28.3410 C   0  0  0  0  0  0  0  0  0  0  0  0
    1.2320   17.8670  -28.7960 C   0  0  0  0  0  0  0  0  0  0  0  0
   -0.7380   18.6570  -27.5760 N   0  0  0  0  0  0  0  0  0  0  0  0
   -2.4813   19.2668  -25.2306 H   0  0  0  0  0  0  0  0  0  0  0  0
   -3.6263   19.8032  -26.5065 H   0  0  0  0  0  0  0  0  0  0  0  0
   -3.0073   18.1170  -26.5065 H   0  0  0  0  0  0  0  0  0  0  0  0
   -2.1316   21.6652  -27.1502 H   0  0  0  0  0  0  0  0  0  0  0  0
   -3.3838   22.4169  -27.1026 H   0  0  0  0  0  0  0  0  0  0  0  0
   -5.6851   22.1053  -27.8980 H   0  0  0  0  0  0  0  0  0  0  0  0
   -9.2800   22.6710  -30.4210 H   0  0  0  0  0  0  0  0  0  0  0  0
   -7.5310   19.9430  -34.7660 H   0  0  0  0  0  0  0  0  0  0  0  0
   -5.3566   18.7945  -35.4777 H   0  0  0  0  0  0  0  0  0  0  0  0
   -3.9893   16.7432  -35.2455 H   0  0  0  0  0  0  0  0  0  0  0  0
   -3.7910   14.2530  -35.2460 H   0  0  0  0  0  0  0  0  0  0  0  0
   -5.0730   13.4110  -34.4180 H   0  0  0  0  0  0  0  0  0  0  0  0
   -5.8175   16.0702  -31.3840 H   0  0  0  0  0  0  0  0  0  0  0  0
   -7.1861   18.1582  -31.6589 H   0  0  0  0  0  0  0  0  0  0  0  0
   -1.7893   19.6172  -30.0455 H   0  0  0  0  0  0  0  0  0  0  0  0
    0.3099   19.7597  -31.4241 H   0  0  0  0  0  0  0  0  0  0  0  0
    0.2114   20.7831  -33.6978 H   0  0  0  0  0  0  0  0  0  0  0  0
   -1.9117   21.6490  -34.5844 H   0  0  0  0  0  0  0  0  0  0  0  0
   -4.6220   21.9280  -33.9090 H   0  0  0  0  0  0  0  0  0  0  0  0
   -4.8126   24.4365  -31.4709 H   0  0  0  0  0  0  0  0  0  0  0  0
   -2.4747   24.7241  -30.6186 H   0  0  0  0  0  0  0  0  0  0  0  0
    1.3170   20.4890  -29.3000 H   0  0  0  0  0  0  0  0  0  0  0  0
    1.6614   17.3625  -27.9178 H   0  0  0  0  0  0  0  0  0  0  0  0
    0.6732   17.1378  -29.4010 H   0  0  0  0  0  0  0  0  0  0  0  0
    2.0411   18.3021  -29.4010 H   0  0  0  0  0  0  0  0  0  0  0  0
  1  2  1  0
  2  3  2  0
  3  4  1  0
  4  5  2  0
  5  6  1  0
  6  7  2  0
  6  8  2  0
  6  9  1  0
  9 10  2  0
 10 11  1  0
 11 12  2  0
 12 13  1  0
 13 14  2  0
 14 15  1  0
 15 16  1  0
 16 17  1  0
 17 18  1  0
 18 19  1  0
 19 20  2  0
 20 21  1  0
 21 22  2  0
 22 23  1  0
 23 24  1  0
 23 25  2  0
 23 26  2  0
 22 27  1  0
 27 28  2  0
 17 29  2  0
 29 30  1  0
 30 31  2  0
 31 32  1  0
 32 33  2  0
 33 34  1  0
 34 35  2  0
 35 36  1  0
 36 37  2  0
 37 38  1  0
 12 39  1  0
 39 40  2  0
  4 41  1  0
 41 42  1  0
 42 43  1  0
 42 44  2  0
 44  2  1  0
 40  9  1  0
 29 14  1  0
 38 30  1  0
 28 19  1  0
 37 32  1  0
  1 45  1  0
  1 46  1  0
  1 47  1  0
  3 48  1  0
 10 49  1  0
 11 50  1  0
 15 51  1  0
 18 52  1  0
 20 53  1  0
 21 54  1  0
 24 55  1  0
 24 56  1  0
 27 57  1  0
 28 58  1  0
 33 59  1  0
 34 60  1  0
 35 61  1  0
 36 62  1  0
 38 63  1  0
 39 64  1  0
 40 65  1  0
 41 66  1  0
 43 67  1  0
 43 68  1  0
 43 69  1  0
M  END
>  <smiles>  (29) 
Cc1cc(=NS(=O)(=O)c2ccc(N=c3[nH]sc(Nc4ccc(S(N)(=O)=O)cc4)c3-c3nc4ccccc4[nH]3)cc2)[nH]c(C)n1

>  <score_type>  (29) 
oracle

>  <origin>  (29) 
adgpu

>  <m_score__min__energy>  (29) 
-12.220000000000001

>  <m_primary>  (29) 
energy

$$$$
29:0
     RDKit          3D

 51 54  0  0  0  0  0  0  0  0999 V2000
   -0.4890   29.4330  -36.0860 C   0  0  0  0  0  0  0  0  0  0  0  0
    0.0090   28.0360  -36.3110 C   0  0  0  0  0  0  0  0  0  0  0  0
   -0.8820   27.0200  -36.6880 C   0  0  0  0  0  0  0  0  0  0  0  0
   -0.4240   25.7100  -36.8610 C   0  0  0  0  0  0  0  0  0  0  0  0
    0.9310   25.4010  -36.6650 C   0  0  0  0  0  0  0  0  0  0  0  0
    1.4250   24.0610  -36.7970 N   0  0  0  0  0  0  0  0  0  0  0  0
    1.2310   22.9740  -35.8820 C   0  0  0  0  0  0  0  0  0  0  0  0
    2.2300   22.5290  -35.2570 O   0  0  0  0  0  0  0  0  0  0  0  0
   -0.0860   22.2570  -35.7570 C   0  0  0  0  0  0  0  0  0  0  0  0
   -0.0400   21.0290  -34.4580 S   0  0  0  0  0  0  0  0  0  0  0  0
    0.7470   21.5600  -33.2940 O   0  0  0  0  0  0  0  0  0  0  0  0
    0.6180   19.7700  -34.9530 O   0  0  0  0  0  0  0  0  0  0  0  0
   -1.6700   20.6610  -33.9300 C   0  0  0  0  0  0  0  0  0  0  0  0
   -2.2290   19.4630  -34.2290 N   0  0  0  0  0  0  0  0  0  0  0  0
   -3.4650   19.1700  -33.8290 N   0  0  0  0  0  0  0  0  0  0  0  0
   -4.2100   20.0490  -33.1060 C   0  0  0  0  0  0  0  0  0  0  0  0
   -5.6040   19.6830  -32.7700 C   0  0  0  0  0  0  0  0  0  0  0  0
   -6.6910   20.3850  -33.3200 C   0  0  0  0  0  0  0  0  0  0  0  0
   -8.0020   20.0190  -33.0020 C   0  0  0  0  0  0  0  0  0  0  0  0
   -8.2400   18.9400  -32.1450 C   0  0  0  0  0  0  0  0  0  0  0  0
   -9.5110   18.5850  -31.8380 F   0  0  0  0  0  0  0  0  0  0  0  0
   -7.1660   18.2230  -31.6110 C   0  0  0  0  0  0  0  0  0  0  0  0
   -5.8530   18.5860  -31.9270 C   0  0  0  0  0  0  0  0  0  0  0  0
   -3.6230   21.2870  -32.7530 C   0  0  0  0  0  0  0  0  0  0  0  0
   -4.2900   22.2830  -31.8840 C   0  0  0  0  0  0  0  0  0  0  0  0
   -3.8770   22.4310  -30.5490 C   0  0  0  0  0  0  0  0  0  0  0  0
   -4.5100   23.3560  -29.7140 C   0  0  0  0  0  0  0  0  0  0  0  0
   -5.5670   24.1310  -30.1990 C   0  0  0  0  0  0  0  0  0  0  0  0
   -6.0000   23.9740  -31.5190 C   0  0  0  0  0  0  0  0  0  0  0  0
   -5.3710   23.0480  -32.3570 C   0  0  0  0  0  0  0  0  0  0  0  0
   -2.3670   21.5590  -33.1920 N   0  0  0  0  0  0  0  0  0  0  0  0
    1.8080   26.4060  -36.2420 C   0  0  0  0  0  0  0  0  0  0  0  0
    1.3540   27.7170  -36.0680 C   0  0  0  0  0  0  0  0  0  0  0  0
   -0.5585   29.6279  -35.0056 H   0  0  0  0  0  0  0  0  0  0  0  0
    0.2092   30.1493  -36.5437 H   0  0  0  0  0  0  0  0  0  0  0  0
   -1.4828   29.5462  -36.5437 H   0  0  0  0  0  0  0  0  0  0  0  0
   -1.9447   27.2546  -36.8481 H   0  0  0  0  0  0  0  0  0  0  0  0
   -1.1293   24.9177  -37.1522 H   0  0  0  0  0  0  0  0  0  0  0  0
   -0.8727   22.9909  -35.5279 H   0  0  0  0  0  0  0  0  0  0  0  0
   -0.2937   21.7463  -36.7088 H   0  0  0  0  0  0  0  0  0  0  0  0
   -6.5087   21.2268  -34.0042 H   0  0  0  0  0  0  0  0  0  0  0  0
   -8.8474   20.5804  -33.4264 H   0  0  0  0  0  0  0  0  0  0  0  0
   -7.3538   17.3713  -30.9407 H   0  0  0  0  0  0  0  0  0  0  0  0
   -5.0113   18.0106  -31.5141 H   0  0  0  0  0  0  0  0  0  0  0  0
   -3.0521   21.8163  -30.1595 H   0  0  0  0  0  0  0  0  0  0  0  0
   -4.1755   23.4742  -28.6728 H   0  0  0  0  0  0  0  0  0  0  0  0
   -6.0581   24.8643  -29.5424 H   0  0  0  0  0  0  0  0  0  0  0  0
   -6.8362   24.5794  -31.8987 H   0  0  0  0  0  0  0  0  0  0  0  0
   -5.7234   22.9174  -33.3908 H   0  0  0  0  0  0  0  0  0  0  0  0
    2.8625   26.1628  -36.0449 H   0  0  0  0  0  0  0  0  0  0  0  0
    2.0529   28.5005  -35.7398 H   0  0  0  0  0  0  0  0  0  0  0  0
  1  2  1  0
  2  3  2  0
  3  4  1  0
  4  5  2  0
  5  6  1  0
  6  7  1  0
  7  8  2  0
  7  9  1  0
  9 10  1  0
 10 11  2  0
 10 12  2  0
 10 13  1  0
 13 14  2  0
 14 15  1  0
 15 16  2  0
 16 17  1  0
 17 18  2  0
 18 19  1  0
 19 20  2  0
 20 21  1  0
 20 22  1  0
 22 23  2  0
 16 24  1  0
 24 25  1  0
 25 26  2  0
 26 27  1  0
 27 28  2  0
 28 29  1  0
 29 30  2  0
 24 31  2  0
  5 32  1  0
 32 33  2  0
 33  2  1  0
 31 13  1  0
 23 17  1  0
 30 25  1  0
  1 34  1  0
  1 35  1  0
  1 36  1  0
  3 37  1  0
  4 38  1  0
  9 39  1  0
  9 40  1  0
 18 41  1  0
 19 42  1  0
 22 43  1  0
 23 44  1  0
 26 45  1  0
 27 46  1  0
 28 47  1  0
 29 48  1  0
 30 49  1  0
 32 50  1  0
 33 51  1  0
M  CHG  1   6  -1
M  END
>  <UniqueID>  (30) 
26

>  <SMILES>  (30) 
Cc1ccc([N-]C(=O)CS(=O)(=O)c2nnc(-c3ccc(F)cc3)c(-c3ccccc3)n2)cc1

>  <Energy>  (30) 
70.19515996345706

>  <Genealogy>  (30) 
Cc1ccc([N-]C(=O)CS(=O)(=O)c2nnc(-c3ccc(F)cc3)c(-c3ccccc3)n2)cc1 (protonated)
Cc1ccc([N-]C(=O)CS(=O)(=O)c2nnc(-c3ccc(F)cc3)c(-c3ccccc3)n2)cc1 (3D coordinates assigned)
Cc1ccc([N-]C(=O)CS(=O)(=O)c2nnc(-c3ccc(F)cc3)c(-c3ccccc3)n2)cc1 (optimized conformer: 70.19515996345706 kcal/mol)

>  <smiles>  (30) 
Cc1ccc(NC(=O)CS(=O)(=O)c2nnc(-c3ccc(F)cc3)c(-c3ccccc3)n2)cc1

>  <score_type>  (30) 
oracle

>  <origin>  (30) 
adgpu

>  <m_score__min__energy>  (30) 
-12.369999999999999

>  <m_primary>  (30) 
energy

$$$$
30:0
     RDKit          3D

 44 46  0  0  0  0  0  0  0  0999 V2000
   -4.1990   25.6190  -30.5170 N   0  0  0  0  0  0  0  0  0  0  0  0
   -4.0120   23.9000  -30.5130 S   0  0  0  0  0  0  0  0  0  0  0  0
   -5.2310   23.2580  -29.9140 O   0  0  0  0  0  0  0  0  0  0  0  0
   -3.8540   23.4230  -31.9290 O   0  0  0  0  0  0  0  0  0  0  0  0
   -2.5930   23.4710  -29.5560 C   0  0  0  0  0  0  0  0  0  0  0  0
   -2.4130   24.0220  -28.2770 C   0  0  0  0  0  0  0  0  0  0  0  0
   -1.2940   23.6810  -27.5140 C   0  0  0  0  0  0  0  0  0  0  0  0
   -0.3450   22.7930  -28.0220 C   0  0  0  0  0  0  0  0  0  0  0  0
   -0.5140   22.2390  -29.2930 C   0  0  0  0  0  0  0  0  0  0  0  0
   -1.6470   22.5620  -30.0630 C   0  0  0  0  0  0  0  0  0  0  0  0
   -1.8260   22.0300  -31.3500 O   0  0  0  0  0  0  0  0  0  0  0  0
   -2.8320   21.1270  -31.7250 C   0  0  0  0  0  0  0  0  0  0  0  0
   -3.7010   20.5480  -30.7840 C   0  0  0  0  0  0  0  0  0  0  0  0
   -4.7070   19.6720  -31.2010 C   0  0  0  0  0  0  0  0  0  0  0  0
   -4.8660   19.3770  -32.5610 C   0  0  0  0  0  0  0  0  0  0  0  0
   -6.1580   18.2970  -33.0790 S   0  0  0  0  0  0  0  0  0  0  0  0
   -6.2870   17.1850  -32.0780 O   0  0  0  0  0  0  0  0  0  0  0  0
   -5.8510   17.7090  -34.4280 O   0  0  0  0  0  0  0  0  0  0  0  0
   -7.6570   19.1670  -33.1670 N   0  0  0  0  0  0  0  0  0  0  0  0
   -7.8560   20.4810  -32.6160 C   0  0  0  0  0  0  0  0  0  0  0  0
   -8.9930   20.7280  -31.8320 C   0  0  0  0  0  0  0  0  0  0  0  0
   -9.2100   21.9910  -31.2730 C   0  0  0  0  0  0  0  0  0  0  0  0
   -8.2950   23.0210  -31.4940 C   0  0  0  0  0  0  0  0  0  0  0  0
   -7.1590   22.7970  -32.2810 C   0  0  0  0  0  0  0  0  0  0  0  0
   -6.2230   23.8530  -32.5110 N   0  0  0  0  0  0  0  0  0  0  0  0
   -6.9440   21.5300  -32.8450 C   0  0  0  0  0  0  0  0  0  0  0  0
   -4.0090   19.9620  -33.5010 C   0  0  0  0  0  0  0  0  0  0  0  0
   -3.0020   20.8390  -33.0840 C   0  0  0  0  0  0  0  0  0  0  0  0
   -3.5370   25.9950  -31.2320 H   0  0  0  0  0  0  0  0  0  0  0  0
   -3.1567   24.7254  -27.8742 H   0  0  0  0  0  0  0  0  0  0  0  0
   -1.1606   24.1130  -26.5112 H   0  0  0  0  0  0  0  0  0  0  0  0
    0.5374   22.5289  -27.4207 H   0  0  0  0  0  0  0  0  0  0  0  0
    0.2416   21.5473  -29.6939 H   0  0  0  0  0  0  0  0  0  0  0  0
   -3.5889   20.7852  -29.7157 H   0  0  0  0  0  0  0  0  0  0  0  0
   -5.3762   19.2126  -30.4586 H   0  0  0  0  0  0  0  0  0  0  0  0
   -8.4770   18.6560  -33.5660 H   0  0  0  0  0  0  0  0  0  0  0  0
   -9.7197   19.9213  -31.6557 H   0  0  0  0  0  0  0  0  0  0  0  0
  -10.1036   22.1730  -30.6579 H   0  0  0  0  0  0  0  0  0  0  0  0
   -8.4668   24.0120  -31.0485 H   0  0  0  0  0  0  0  0  0  0  0  0
   -5.7950   24.3710  -31.7120 H   0  0  0  0  0  0  0  0  0  0  0  0
   -5.9520   24.1270  -33.4830 H   0  0  0  0  0  0  0  0  0  0  0  0
   -6.0565   21.3547  -33.4707 H   0  0  0  0  0  0  0  0  0  0  0  0
   -4.1278   19.7315  -34.5700 H   0  0  0  0  0  0  0  0  0  0  0  0
   -2.3399   21.3050  -33.8286 H   0  0  0  0  0  0  0  0  0  0  0  0
  1  2  1  0
  2  3  2  0
  2  4  2  0
  2  5  1  0
  5  6  2  0
  6  7  1  0
  7  8  2  0
  8  9  1  0
  9 10  2  0
 10 11  1  0
 11 12  1  0
 12 13  2  0
 13 14  1  0
 14 15  2  0
 15 16  1  0
 16 17  2  0
 16 18  2  0
 16 19  1  0
 19 20  1  0
 20 21  2  0
 21 22  1  0
 22 23  2  0
 23 24  1  0
 24 25  1  0
 24 26  2  0
 15 27  1  0
 27 28  2  0
 10  5  1  0
 28 12  1  0
 26 20  1  0
  1 29  1  0
  6 30  1  0
  7 31  1  0
  8 32  1  0
  9 33  1  0
 13 34  1  0
 14 35  1  0
 19 36  1  0
 21 37  1  0
 22 38  1  0
 23 39  1  0
 25 40  1  0
 25 41  1  0
 26 42  1  0
 27 43  1  0
 28 44  1  0
M  CHG  1   1  -1
M  END
>  <UniqueID>  (31) 
27

>  <SMILES>  (31) 
[NH-]S(=O)(=O)c1ccccc1Oc1ccc(S(=O)(=O)Nc2cccc(N)c2)cc1

>  <Energy>  (31) 
54.74115008388737

>  <Genealogy>  (31) 
[NH-]S(=O)(=O)c1ccccc1Oc1ccc(S(=O)(=O)Nc2cccc(N)c2)cc1 (protonated)
[NH-]S(=O)(=O)c1ccccc1Oc1ccc(S(=O)(=O)Nc2cccc(N)c2)cc1 (3D coordinates assigned)
[NH-]S(=O)(=O)c1ccccc1Oc1ccc(S(=O)(=O)Nc2cccc(N)c2)cc1 (optimized conformer: 54.74115008388737 kcal/mol)

>  <smiles>  (31) 
Nc1cccc(NS(=O)(=O)c2ccc(Oc3ccccc3S(N)(=O)=O)cc2)c1

>  <score_type>  (31) 
oracle

>  <origin>  (31) 
adgpu

>  <m_score__min__energy>  (31) 
-10.94

>  <m_primary>  (31) 
energy

$$$$
31:0
     RDKit          3D

 54 57  0  0  0  0  0  0  0  0999 V2000
   -0.5030   24.2040  -24.4230 C   0  0  0  0  0  0  0  0  0  0  0  0
   -0.3890   25.7020  -24.5480 C   0  0  0  0  0  0  0  0  0  0  0  0
   -0.2590   26.4820  -23.3910 C   0  0  0  0  0  0  0  0  0  0  0  0
   -0.1580   27.8320  -23.4770 N   0  0  0  0  0  0  0  0  0  0  0  0
   -0.1700   28.4810  -24.6700 C   0  0  0  0  0  0  0  0  0  0  0  0
   -0.0640   29.8770  -24.6970 C   0  0  0  0  0  0  0  0  0  0  0  0
   -0.0690   30.5560  -25.9160 C   0  0  0  0  0  0  0  0  0  0  0  0
   -0.1800   29.8480  -27.1130 C   0  0  0  0  0  0  0  0  0  0  0  0
   -0.2870   28.4530  -27.1000 C   0  0  0  0  0  0  0  0  0  0  0  0
   -0.2880   27.7500  -25.8760 C   0  0  0  0  0  0  0  0  0  0  0  0
   -0.3960   26.3400  -25.8100 C   0  0  0  0  0  0  0  0  0  0  0  0
   -0.5300   25.5310  -27.0460 C   0  0  0  0  0  0  0  0  0  0  0  0
   -1.7100   25.5960  -27.7970 C   0  0  0  0  0  0  0  0  0  0  0  0
   -1.8420   24.8530  -28.9720 C   0  0  0  0  0  0  0  0  0  0  0  0
   -3.0710   24.9250  -29.7090 N   0  0  0  0  0  0  0  0  0  0  0  0
   -3.8460   23.8110  -30.1630 C   0  0  0  0  0  0  0  0  0  0  0  0
   -3.7890   22.7260  -29.5260 O   0  0  0  0  0  0  0  0  0  0  0  0
   -4.7550   23.9560  -31.2610 N   0  0  0  0  0  0  0  0  0  0  0  0
   -5.9130   23.1430  -31.4930 C   0  0  0  0  0  0  0  0  0  0  0  0
   -7.1570   23.7730  -31.5980 C   0  0  0  0  0  0  0  0  0  0  0  0
   -8.3120   23.0250  -31.8250 C   0  0  0  0  0  0  0  0  0  0  0  0
   -8.2340   21.6400  -31.9630 C   0  0  0  0  0  0  0  0  0  0  0  0
   -6.9910   20.9900  -31.9070 C   0  0  0  0  0  0  0  0  0  0  0  0
   -6.9470   19.5200  -32.0450 C   0  0  0  0  0  0  0  0  0  0  0  0
   -7.5010   18.8140  -31.1580 O   0  0  0  0  0  0  0  0  0  0  0  0
   -6.2990   18.8840  -33.1660 N   0  0  0  0  0  0  0  0  0  0  0  0
   -5.3560   19.6330  -34.0050 C   0  0  0  0  0  0  0  0  0  0  0  0
   -6.5220   17.4550  -33.4040 C   0  0  0  0  0  0  0  0  0  0  0  0
   -5.8170   21.7470  -31.6870 C   0  0  0  0  0  0  0  0  0  0  0  0
   -4.5550   21.1450  -31.7100 O   0  0  0  0  0  0  0  0  0  0  0  0
   -0.7870   24.0090  -29.3580 C   0  0  0  0  0  0  0  0  0  0  0  0
    0.3500   23.9540  -28.6160 N   0  0  0  0  0  0  0  0  0  0  0  0
    0.5080   24.6930  -27.4860 C   0  0  0  0  0  0  0  0  0  0  0  0
    1.5880   24.6160  -26.8410 O   0  0  0  0  0  0  0  0  0  0  0  0
   -0.5242   23.9254  -23.3591 H   0  0  0  0  0  0  0  0  0  0  0  0
   -1.4295   23.8649  -24.9094 H   0  0  0  0  0  0  0  0  0  0  0  0
    0.3616   23.7286  -24.9094 H   0  0  0  0  0  0  0  0  0  0  0  0
   -0.2387   25.9954  -22.4047 H   0  0  0  0  0  0  0  0  0  0  0  0
    0.0234   30.4393  -23.7556 H   0  0  0  0  0  0  0  0  0  0  0  0
    0.0148   31.6527  -25.9332 H   0  0  0  0  0  0  0  0  0  0  0  0
   -0.1834   30.3887  -28.0709 H   0  0  0  0  0  0  0  0  0  0  0  0
   -0.3707   27.9015  -28.0481 H   0  0  0  0  0  0  0  0  0  0  0  0
   -2.5382   26.2363  -27.4593 H   0  0  0  0  0  0  0  0  0  0  0  0
   -7.2251   24.8666  -31.5008 H   0  0  0  0  0  0  0  0  0  0  0  0
   -9.2871   23.5292  -31.8953 H   0  0  0  0  0  0  0  0  0  0  0  0
   -9.1516   21.0532  -32.1166 H   0  0  0  0  0  0  0  0  0  0  0  0
   -4.6562   20.1888  -33.3637 H   0  0  0  0  0  0  0  0  0  0  0  0
   -4.7939   18.9325  -34.6401 H   0  0  0  0  0  0  0  0  0  0  0  0
   -5.9111   20.3391  -34.6401 H   0  0  0  0  0  0  0  0  0  0  0  0
   -6.6037   16.9311  -32.4402 H   0  0  0  0  0  0  0  0  0  0  0  0
   -7.4522   17.3192  -33.9752 H   0  0  0  0  0  0  0  0  0  0  0  0
   -5.6774   17.0422  -33.9752 H   0  0  0  0  0  0  0  0  0  0  0  0
   -3.7190   21.6010  -31.3660 H   0  0  0  0  0  0  0  0  0  0  0  0
   -0.8818   23.3912  -30.2632 H   0  0  0  0  0  0  0  0  0  0  0  0
  1  2  1  0
  2  3  2  0
  3  4  1  0
  4  5  2  0
  5  6  1  0
  6  7  2  0
  7  8  1  0
  8  9  2  0
  9 10  1  0
 10 11  2  0
 11 12  1  0
 12 13  2  0
 13 14  1  0
 14 15  1  0
 15 16  1  0
 16 17  2  0
 16 18  1  0
 18 19  1  0
 19 20  2  0
 20 21  1  0
 21 22  2  0
 22 23  1  0
 23 24  1  0
 24 25  2  0
 24 26  1  0
 26 27  1  0
 26 28  1  0
 23 29  2  0
 29 30  1  0
 14 31  2  0
 31 32  1  0
 32 33  1  0
 33 34  2  0
 11  2  1  0
 33 12  1  0
 10  5  1  0
 29 19  1  0
  1 35  1  0
  1 36  1  0
  1 37  1  0
  3 38  1  0
  6 39  1  0
  7 40  1  0
  8 41  1  0
  9 42  1  0
 13 43  1  0
 20 44  1  0
 21 45  1  0
 22 46  1  0
 27 47  1  0
 27 48  1  0
 27 49  1  0
 28 50  1  0
 28 51  1  0
 28 52  1  0
 30 53  1  0
 31 54  1  0
M  CHG  3  15  -1  18  -1  32  -1
M  END
>  <UniqueID>  (32) 
28

>  <SMILES>  (32) 
Cc1cnc2ccccc2c1-c1cc([N-]C(=O)[N-]c2cccc(C(=O)N(C)C)c2O)c[n-]c1=O

>  <Energy>  (32) 
86.41740018350862

>  <Genealogy>  (32) 
Cc1cnc2ccccc2c1-c1cc([N-]C(=O)[N-]c2cccc(C(=O)N(C)C)c2O)c[n-]c1=O (protonated)
Cc1cnc2ccccc2c1-c1cc([N-]C(=O)[N-]c2cccc(C(=O)N(C)C)c2O)c[n-]c1=O (3D coordinates assigned)
Cc1cnc2ccccc2c1-c1cc([N-]C(=O)[N-]c2cccc(C(=O)N(C)C)c2O)c[n-]c1=O (optimized conformer: 86.41740018350862 kcal/mol)

>  <smiles>  (32) 
Cc1cnc2ccccc2c1-c1cc(NC(=O)Nc2cccc(C(=O)N(C)C)c2O)c[nH]c1=O

>  <score_type>  (32) 
oracle

>  <origin>  (32) 
adgpu

>  <m_score__min__energy>  (32) 
-12.710000000000001

>  <m_primary>  (32) 
energy

$$$$
32:0
     RDKit          3D

 41 43  0  0  0  0  0  0  0  0999 V2000
   -2.0910   25.2750  -29.2500 N   0  0  0  0  0  0  0  0  0  0  0  0
   -3.5960   24.6200  -29.7870 S   0  0  0  0  0  0  0  0  0  0  0  0
   -4.1890   25.5150  -30.8400 O   0  0  0  0  0  0  0  0  0  0  0  0
   -4.5530   24.5380  -28.6290 O   0  0  0  0  0  0  0  0  0  0  0  0
   -3.3290   23.0140  -30.4530 C   0  0  0  0  0  0  0  0  0  0  0  0
   -3.6700   22.7350  -31.7830 C   0  0  0  0  0  0  0  0  0  0  0  0
   -3.4490   21.4610  -32.3150 C   0  0  0  0  0  0  0  0  0  0  0  0
   -2.8950   20.4490  -31.5220 C   0  0  0  0  0  0  0  0  0  0  0  0
   -2.6690   19.1560  -32.1040 N   0  0  0  0  0  0  0  0  0  0  0  0
   -2.9990   18.7620  -33.4430 C   0  0  0  0  0  0  0  0  0  0  0  0
   -2.3500   19.2660  -34.3970 O   0  0  0  0  0  0  0  0  0  0  0  0
   -4.1310   17.8480  -33.7310 C   0  0  0  0  0  0  0  0  0  0  0  0
   -3.8770   16.4770  -33.9130 C   0  0  0  0  0  0  0  0  0  0  0  0
   -4.9250   15.5880  -34.1560 C   0  0  0  0  0  0  0  0  0  0  0  0
   -6.2380   16.0520  -34.2160 C   0  0  0  0  0  0  0  0  0  0  0  0
   -6.5080   17.4100  -34.0350 C   0  0  0  0  0  0  0  0  0  0  0  0
   -5.4660   18.3180  -33.7790 C   0  0  0  0  0  0  0  0  0  0  0  0
   -5.7530   19.7240  -33.6710 N   0  0  0  0  0  0  0  0  0  0  0  0
   -6.8170   20.2690  -32.8700 C   0  0  0  0  0  0  0  0  0  0  0  0
   -7.8750   19.4630  -32.4100 C   0  0  0  0  0  0  0  0  0  0  0  0
   -8.8850   20.0120  -31.6140 C   0  0  0  0  0  0  0  0  0  0  0  0
   -8.8430   21.3630  -31.2610 C   0  0  0  0  0  0  0  0  0  0  0  0
   -7.7860   22.1660  -31.6980 C   0  0  0  0  0  0  0  0  0  0  0  0
   -6.7740   21.6210  -32.4940 C   0  0  0  0  0  0  0  0  0  0  0  0
   -2.5210   20.7390  -30.1970 C   0  0  0  0  0  0  0  0  0  0  0  0
   -2.7430   22.0130  -29.6660 C   0  0  0  0  0  0  0  0  0  0  0  0
   -1.6130   25.6710  -30.0900 H   0  0  0  0  0  0  0  0  0  0  0  0
   -4.1134   23.5215  -32.4113 H   0  0  0  0  0  0  0  0  0  0  0  0
   -3.7119   21.2527  -33.3626 H   0  0  0  0  0  0  0  0  0  0  0  0
   -2.8440   16.1022  -33.8634 H   0  0  0  0  0  0  0  0  0  0  0  0
   -4.7143   14.5181  -34.3006 H   0  0  0  0  0  0  0  0  0  0  0  0
   -7.0617   15.3482  -34.4060 H   0  0  0  0  0  0  0  0  0  0  0  0
   -7.5450   17.7723  -34.0933 H   0  0  0  0  0  0  0  0  0  0  0  0
   -5.1730   20.3860  -34.2350 H   0  0  0  0  0  0  0  0  0  0  0  0
   -7.9075   18.3966  -32.6778 H   0  0  0  0  0  0  0  0  0  0  0  0
   -9.7142   19.3789  -31.2651 H   0  0  0  0  0  0  0  0  0  0  0  0
   -9.6414   21.7945  -30.6394 H   0  0  0  0  0  0  0  0  0  0  0  0
   -7.7502   23.2284  -31.4153 H   0  0  0  0  0  0  0  0  0  0  0  0
   -5.9394   22.2551  -32.8276 H   0  0  0  0  0  0  0  0  0  0  0  0
   -2.0524   19.9607  -29.5768 H   0  0  0  0  0  0  0  0  0  0  0  0
   -2.4567   22.2308  -28.6265 H   0  0  0  0  0  0  0  0  0  0  0  0
  1  2  1  0
  2  3  2  0
  2  4  2  0
  2  5  1  0
  5  6  2  0
  6  7  1  0
  7  8  2  0
  8  9  1  0
  9 10  1  0
 10 11  2  0
 10 12  1  0
 12 13  2  0
 13 14  1  0
 14 15  2  0
 15 16  1  0
 16 17  2  0
 17 18  1  0
 18 19  1  0
 19 20  2  0
 20 21  1  0
 21 22  2  0
 22 23  1  0
 23 24  2  0
  8 25  1  0
 25 26  2  0
 26  5  1  0
 17 12  1  0
 24 19  1  0
  1 27  1  0
  6 28  1  0
  7 29  1  0
 13 30  1  0
 14 31  1  0
 15 32  1  0
 16 33  1  0
 18 34  1  0
 20 35  1  0
 21 36  1  0
 22 37  1  0
 23 38  1  0
 24 39  1  0
 25 40  1  0
 26 41  1  0
M  CHG  2   1  -1   9  -1
M  END
>  <UniqueID>  (33) 
29

>  <SMILES>  (33) 
[NH-]S(=O)(=O)c1ccc([N-]C(=O)c2ccccc2Nc2ccccc2)cc1

>  <Energy>  (33) 
57.6269699106349

>  <Genealogy>  (33) 
[NH-]S(=O)(=O)c1ccc([N-]C(=O)c2ccccc2Nc2ccccc2)cc1 (protonated)
[NH-]S(=O)(=O)c1ccc([N-]C(=O)c2ccccc2Nc2ccccc2)cc1 (3D coordinates assigned)
[NH-]S(=O)(=O)c1ccc([N-]C(=O)c2ccccc2Nc2ccccc2)cc1 (optimized conformer: 57.6269699106349 kcal/mol)

>  <smiles>  (33) 
NS(=O)(=O)c1ccc(NC(=O)c2ccccc2Nc2ccccc2)cc1

>  <score_type>  (33) 
oracle

>  <origin>  (33) 
adgpu

>  <m_score__min__energy>  (33) 
-11.199999999999999

>  <m_primary>  (33) 
energy

$$$$
33:0
     RDKit          3D

 49 51  0  0  0  0  0  0  0  0999 V2000
    0.0480   19.0590  -35.1450 C   0  0  0  0  0  0  0  0  0  0  0  0
    0.1850   20.4790  -34.5440 C   0  0  0  0  0  0  0  0  0  0  0  0
    0.1670   21.4860  -35.7160 C   0  0  0  0  0  0  0  0  0  0  0  0
    1.5480   20.5550  -33.8240 C   0  0  0  0  0  0  0  0  0  0  0  0
   -0.9430   20.8260  -33.5500 C   0  0  0  0  0  0  0  0  0  0  0  0
   -0.6170   21.1740  -32.2210 C   0  0  0  0  0  0  0  0  0  0  0  0
   -1.6100   21.4950  -31.2920 C   0  0  0  0  0  0  0  0  0  0  0  0
   -2.9610   21.4900  -31.6660 C   0  0  0  0  0  0  0  0  0  0  0  0
   -4.0030   21.7960  -30.7220 N   0  0  0  0  0  0  0  0  0  0  0  0
   -5.2780   22.3570  -31.0850 C   0  0  0  0  0  0  0  0  0  0  0  0
   -6.2650   21.5350  -31.6580 C   0  0  0  0  0  0  0  0  0  0  0  0
   -7.5310   22.0440  -31.9480 C   0  0  0  0  0  0  0  0  0  0  0  0
   -7.8330   23.3740  -31.6590 C   0  0  0  0  0  0  0  0  0  0  0  0
   -6.8680   24.2000  -31.0790 C   0  0  0  0  0  0  0  0  0  0  0  0
   -5.5870   23.7040  -30.7790 C   0  0  0  0  0  0  0  0  0  0  0  0
   -4.5760   24.6170  -30.1940 C   0  0  0  0  0  0  0  0  0  0  0  0
   -4.1870   25.6160  -30.8570 O   0  0  0  0  0  0  0  0  0  0  0  0
   -4.0830   24.4430  -28.8590 N   0  0  0  0  0  0  0  0  0  0  0  0
   -2.8620   23.7860  -28.4850 C   0  0  0  0  0  0  0  0  0  0  0  0
   -2.8650   22.4980  -27.9180 C   0  0  0  0  0  0  0  0  0  0  0  0
   -1.6600   21.8750  -27.5800 C   0  0  0  0  0  0  0  0  0  0  0  0
   -0.4460   22.5230  -27.8190 C   0  0  0  0  0  0  0  0  0  0  0  0
   -0.4330   23.7910  -28.4050 C   0  0  0  0  0  0  0  0  0  0  0  0
   -1.6370   24.4200  -28.7440 C   0  0  0  0  0  0  0  0  0  0  0  0
   -1.6120   25.6800  -29.3310 O   0  0  0  0  0  0  0  0  0  0  0  0
   -3.3020   21.1240  -32.9730 C   0  0  0  0  0  0  0  0  0  0  0  0
   -2.3120   20.8030  -33.9050 C   0  0  0  0  0  0  0  0  0  0  0  0
   -0.0231   18.3219  -34.3316 H   0  0  0  0  0  0  0  0  0  0  0  0
   -0.8591   19.0093  -35.7652 H   0  0  0  0  0  0  0  0  0  0  0  0
    0.9289   18.8368  -35.7652 H   0  0  0  0  0  0  0  0  0  0  0  0
    0.1487   22.5114  -35.3182 H   0  0  0  0  0  0  0  0  0  0  0  0
    1.0678   21.3478  -36.3321 H   0  0  0  0  0  0  0  0  0  0  0  0
   -0.7282   21.3157  -36.3321 H   0  0  0  0  0  0  0  0  0  0  0  0
    1.3887   20.5461  -32.7356 H   0  0  0  0  0  0  0  0  0  0  0  0
    2.1634   19.6898  -34.1116 H   0  0  0  0  0  0  0  0  0  0  0  0
    2.0634   21.4833  -34.1116 H   0  0  0  0  0  0  0  0  0  0  0  0
    0.4383   21.1927  -31.9113 H   0  0  0  0  0  0  0  0  0  0  0  0
   -1.3298   21.7534  -30.2602 H   0  0  0  0  0  0  0  0  0  0  0  0
   -3.8380   21.5680  -29.7150 H   0  0  0  0  0  0  0  0  0  0  0  0
   -6.0367   20.4820  -31.8793 H   0  0  0  0  0  0  0  0  0  0  0  0
   -8.2922   21.3949  -32.4054 H   0  0  0  0  0  0  0  0  0  0  0  0
   -8.8322   23.7730  -31.8880 H   0  0  0  0  0  0  0  0  0  0  0  0
   -7.1123   25.2488  -30.8547 H   0  0  0  0  0  0  0  0  0  0  0  0
   -3.8188   21.9797  -27.7401 H   0  0  0  0  0  0  0  0  0  0  0  0
   -1.6680   20.8734  -27.1253 H   0  0  0  0  0  0  0  0  0  0  0  0
    0.5008   22.0344  -27.5455 H   0  0  0  0  0  0  0  0  0  0  0  0
    0.5245   24.2960  -28.6004 H   0  0  0  0  0  0  0  0  0  0  0  0
   -4.3607   21.0887  -33.2696 H   0  0  0  0  0  0  0  0  0  0  0  0
   -2.6014   20.5283  -34.9301 H   0  0  0  0  0  0  0  0  0  0  0  0
  1  2  1  0
  2  3  1  0
  2  4  1  0
  2  5  1  0
  5  6  2  0
  6  7  1  0
  7  8  2  0
  8  9  1  0
  9 10  1  0
 10 11  2  0
 11 12  1  0
 12 13  2  0
 13 14  1  0
 14 15  2  0
 15 16  1  0
 16 17  2  0
 16 18  1  0
 18 19  1  0
 19 20  2  0
 20 21  1  0
 21 22  2  0
 22 23  1  0
 23 24  2  0
 24 25  1  0
  8 26  1  0
 26 27  2  0
 27  5  1  0
 15 10  1  0
 24 19  1  0
  1 28  1  0
  1 29  1  0
  1 30  1  0
  3 31  1  0
  3 32  1  0
  3 33  1  0
  4 34  1  0
  4 35  1  0
  4 36  1  0
  6 37  1  0
  7 38  1  0
  9 39  1  0
 11 40  1  0
 12 41  1  0
 13 42  1  0
 14 43  1  0
 20 44  1  0
 21 45  1  0
 22 46  1  0
 23 47  1  0
 26 48  1  0
 27 49  1  0
M  CHG  2  18  -1  25  -1
M  END
>  <UniqueID>  (34) 
30

>  <SMILES>  (34) 
CC(C)(C)c1ccc(Nc2ccccc2C(=O)[N-]c2ccccc2[O-])cc1

>  <Energy>  (34) 
66.9022801031185

>  <Genealogy>  (34) 
CC(C)(C)c1ccc(Nc2ccccc2C(=O)[N-]c2ccccc2[O-])cc1 (protonated)
CC(C)(C)c1ccc(Nc2ccccc2C(=O)[N-]c2ccccc2[O-])cc1 (3D coordinates assigned)
CC(C)(C)c1ccc(Nc2ccccc2C(=O)[N-]c2ccccc2[O-])cc1 (optimized conformer: 66.9022801031185 kcal/mol)

>  <smiles>  (34) 
CC(C)(C)c1ccc(Nc2ccccc2C(=O)Nc2ccccc2O)cc1

>  <score_type>  (34) 
oracle

>  <origin>  (34) 
adgpu

>  <m_score__min__energy>  (34) 
-13.109999999999999

>  <m_primary>  (34) 
energy

$$$$
34:0
     RDKit          3D

 45 47  0  0  0  0  0  0  0  0999 V2000
   -1.2240   21.4710  -27.0110 C   0  0  0  0  0  0  0  0  0  0  0  0
   -1.8490   22.4900  -27.9260 C   0  0  0  0  0  0  0  0  0  0  0  0
   -2.9390   22.0890  -28.7170 C   0  0  0  0  0  0  0  0  0  0  0  0
   -3.5650   22.9830  -29.5800 C   0  0  0  0  0  0  0  0  0  0  0  0
   -3.1070   24.3030  -29.6860 C   0  0  0  0  0  0  0  0  0  0  0  0
   -3.7550   25.2550  -30.5430 N   0  0  0  0  0  0  0  0  0  0  0  0
   -5.1510   25.2940  -30.8620 C   0  0  0  0  0  0  0  0  0  0  0  0
   -5.9170   26.0070  -30.1610 O   0  0  0  0  0  0  0  0  0  0  0  0
   -5.6690   24.5400  -31.9650 N   0  0  0  0  0  0  0  0  0  0  0  0
   -6.3380   23.2750  -31.8700 C   0  0  0  0  0  0  0  0  0  0  0  0
   -7.6090   23.2330  -31.2810 C   0  0  0  0  0  0  0  0  0  0  0  0
   -8.2930   22.0200  -31.1610 C   0  0  0  0  0  0  0  0  0  0  0  0
   -7.7030   20.8360  -31.6130 C   0  0  0  0  0  0  0  0  0  0  0  0
   -6.4240   20.8630  -32.1710 C   0  0  0  0  0  0  0  0  0  0  0  0
   -5.7290   22.0730  -32.2890 C   0  0  0  0  0  0  0  0  0  0  0  0
   -4.4320   22.0620  -32.7850 O   0  0  0  0  0  0  0  0  0  0  0  0
   -2.0380   24.7270  -28.8860 C   0  0  0  0  0  0  0  0  0  0  0  0
   -1.6240   26.0530  -28.9640 O   0  0  0  0  0  0  0  0  0  0  0  0
   -1.3840   23.8300  -28.0140 C   0  0  0  0  0  0  0  0  0  0  0  0
   -0.0300   24.4680  -27.0460 S   0  0  0  0  0  0  0  0  0  0  0  0
    0.6170   25.5810  -27.8240 O   0  0  0  0  0  0  0  0  0  0  0  0
    1.0210   23.4330  -26.7590 O   0  0  0  0  0  0  0  0  0  0  0  0
   -0.6480   25.1020  -25.5400 N   0  0  0  0  0  0  0  0  0  0  0  0
    0.4640   25.6050  -24.7110 C   0  0  0  0  0  0  0  0  0  0  0  0
   -0.0550   26.5860  -23.6470 C   0  0  0  0  0  0  0  0  0  0  0  0
   -0.7190   27.7270  -24.1780 O   0  0  0  0  0  0  0  0  0  0  0  0
   -1.1960   27.5470  -25.5040 C   0  0  0  0  0  0  0  0  0  0  0  0
   -1.6980   26.1180  -25.7760 C   0  0  0  0  0  0  0  0  0  0  0  0
   -1.4013   21.7601  -25.9646 H   0  0  0  0  0  0  0  0  0  0  0  0
   -1.6726   20.4846  -27.1999 H   0  0  0  0  0  0  0  0  0  0  0  0
   -0.1414   21.4237  -27.1999 H   0  0  0  0  0  0  0  0  0  0  0  0
   -3.3028   21.0529  -28.6530 H   0  0  0  0  0  0  0  0  0  0  0  0
   -4.4239   22.6518  -30.1822 H   0  0  0  0  0  0  0  0  0  0  0  0
   -8.0710   24.1601  -30.9110 H   0  0  0  0  0  0  0  0  0  0  0  0
   -9.2963   21.9970  -30.7106 H   0  0  0  0  0  0  0  0  0  0  0  0
   -8.2466   19.8834  -31.5289 H   0  0  0  0  0  0  0  0  0  0  0  0
   -5.9595   19.9289  -32.5199 H   0  0  0  0  0  0  0  0  0  0  0  0
    0.9551   24.7568  -24.2117 H   0  0  0  0  0  0  0  0  0  0  0  0
    1.1799   26.1313  -25.3595 H   0  0  0  0  0  0  0  0  0  0  0  0
   -0.7607   26.0479  -22.9971 H   0  0  0  0  0  0  0  0  0  0  0  0
    0.8265   26.9582  -23.1044 H   0  0  0  0  0  0  0  0  0  0  0  0
   -2.0259   28.2483  -25.6758 H   0  0  0  0  0  0  0  0  0  0  0  0
   -0.3520   27.7333  -26.1844 H   0  0  0  0  0  0  0  0  0  0  0  0
   -2.5490   25.9090  -25.1111 H   0  0  0  0  0  0  0  0  0  0  0  0
   -1.9928   26.0594  -26.8341 H   0  0  0  0  0  0  0  0  0  0  0  0
  1  2  1  0
  2  3  2  0
  3  4  1  0
  4  5  2  0
  5  6  1  0
  6  7  1  0
  7  8  2  0
  7  9  1  0
  9 10  1  0
 10 11  2  0
 11 12  1  0
 12 13  2  0
 13 14  1  0
 14 15  2  0
 15 16  1  0
  5 17  1  0
 17 18  1  0
 17 19  2  0
 19 20  1  0
 20 21  2  0
 20 22  2  0
 20 23  1  0
 23 24  1  0
 24 25  1  0
 25 26  1  0
 26 27  1  0
 27 28  1  0
 19  2  1  0
 28 23  1  0
 15 10  1  0
  1 29  1  0
  1 30  1  0
  1 31  1  0
  3 32  1  0
  4 33  1  0
 11 34  1  0
 12 35  1  0
 13 36  1  0
 14 37  1  0
 24 38  1  0
 24 39  1  0
 25 40  1  0
 25 41  1  0
 27 42  1  0
 27 43  1  0
 28 44  1  0
 28 45  1  0
M  CHG  4   6  -1   9  -1  16  -1  18  -1
M  END
>  <UniqueID>  (35) 
31

>  <SMILES>  (35) 
Cc1ccc([N-]C(=O)[N-]c2ccccc2[O-])c([O-])c1S(=O)(=O)N1CCOCC1

>  <Energy>  (35) 
72.50906973590622

>  <Genealogy>  (35) 
Cc1ccc([N-]C(=O)[N-]c2ccccc2[O-])c([O-])c1S(=O)(=O)N1CCOCC1 (protonated)
Cc1ccc([N-]C(=O)[N-]c2ccccc2[O-])c([O-])c1S(=O)(=O)N1CCOCC1 (3D coordinates assigned)
Cc1ccc([N-]C(=O)[N-]c2ccccc2[O-])c([O-])c1S(=O)(=O)N1CCOCC1 (nonaromatic ring conformer: 72.50906973590622 kcal/mol)

>  <smiles>  (35) 
Cc1ccc(NC(=O)Nc2ccccc2O)c(O)c1S(=O)(=O)N1CCOCC1

>  <score_type>  (35) 
oracle

>  <origin>  (35) 
adgpu

>  <m_score__min__energy>  (35) 
-15.01

>  <m_primary>  (35) 
energy

$$$$
35:0
     RDKit          3D

 56 59  0  0  1  0  0  0  0  0999 V2000
    1.3010   19.6930  -31.6130 C   0  0  0  0  0  0  0  0  0  0  0  0
    0.1010   19.7990  -30.7060 C   0  0  0  0  0  0  0  0  0  0  0  0
   -0.9180   20.3110  -31.2160 O   0  0  0  0  0  0  0  0  0  0  0  0
    0.1720   19.3400  -29.3770 N   0  0  0  0  0  0  0  0  0  0  0  0
   -0.8650   19.3750  -28.4230 C   0  0  0  0  0  0  0  0  0  0  0  0
   -1.0500   18.4660  -27.4140 C   0  0  0  0  0  0  0  0  0  0  0  0
   -2.1000   18.5540  -26.4980 C   0  0  0  0  0  0  0  0  0  0  0  0
   -3.0080   19.5880  -26.5810 C   0  0  0  0  0  0  0  0  0  0  0  0
   -2.8140   20.4990  -27.6000 C   0  0  0  0  0  0  0  0  0  0  0  0
   -3.6930   21.5380  -27.7150 O   0  0  0  0  0  0  0  0  0  0  0  0
   -3.4790   22.6710  -28.4820 C   0  0  0  0  0  0  0  0  0  0  0  0
   -2.5240   23.6230  -28.1880 C   0  0  0  0  0  0  0  0  0  0  0  0
   -2.4170   24.7050  -29.0380 C   0  0  0  0  0  0  0  0  0  0  0  0
   -1.5400   25.6220  -28.8070 N   0  0  0  0  0  0  0  0  0  0  0  0
   -0.6700   25.5450  -27.6830 C   0  0  0  0  0  0  0  0  0  0  0  0
   -0.8370   26.3050  -26.5440 C   0  0  0  0  0  0  0  0  0  0  0  0
    0.0900   26.1320  -25.5110 C   0  0  0  0  0  0  0  0  0  0  0  0
    1.1400   25.2220  -25.6420 C   0  0  0  0  0  0  0  0  0  0  0  0
    2.0830   25.1070  -24.4800 C   0  0  0  0  0  0  0  0  0  0  0  0
    1.3040   24.4620  -26.7830 C   0  0  0  0  0  0  0  0  0  0  0  0
    0.3870   24.6360  -27.8000 C   0  0  0  0  0  0  0  0  0  0  0  0
   -3.2120   24.8330  -30.1200 N   0  0  0  0  0  0  0  0  0  0  0  0
   -4.1480   23.8900  -30.4000 C   0  0  0  0  0  0  0  0  0  0  0  0
   -4.9220   24.0120  -31.4500 N   0  0  0  0  0  0  0  0  0  0  0  0
   -5.8700   22.9630  -31.6480 C   0  0  0  0  0  0  0  0  0  0  0  0
   -5.5060   21.8200  -32.3380 C   0  0  0  0  0  0  0  0  0  0  0  0
   -6.4180   20.8090  -32.5290 C   0  0  0  0  0  0  0  0  0  0  0  0
   -7.7010   20.9810  -32.0070 C   0  0  0  0  0  0  0  0  0  0  0  0
   -8.6270   19.9080  -32.2240 C   0  0  0  0  0  0  0  0  0  0  0  0
   -9.3910   19.0500  -32.3960 N   0  0  0  0  0  0  0  0  0  0  0  0
   -8.0410   22.1250  -31.3240 C   0  0  0  0  0  0  0  0  0  0  0  0
   -7.1290   23.1450  -31.1290 C   0  0  0  0  0  0  0  0  0  0  0  0
   -4.2770   22.8100  -29.5760 N   0  0  0  0  0  0  0  0  0  0  0  0
   -1.7760   20.4080  -28.5020 C   0  0  0  0  0  0  0  0  0  0  0  0
    2.2142   19.6123  -31.0050 H   0  0  0  0  0  0  0  0  0  0  0  0
    1.2031   18.8000  -32.2478 H   0  0  0  0  0  0  0  0  0  0  0  0
    1.3611   20.5893  -32.2478 H   0  0  0  0  0  0  0  0  0  0  0  0
    1.1100   18.9280  -29.0880 H   0  0  0  0  0  0  0  0  0  0  0  0
   -0.3402   17.6307  -27.3219 H   0  0  0  0  0  0  0  0  0  0  0  0
   -2.2031   17.7959  -25.7076 H   0  0  0  0  0  0  0  0  0  0  0  0
   -3.8438   19.6823  -25.8721 H   0  0  0  0  0  0  0  0  0  0  0  0
   -1.8717   23.5230  -27.3080 H   0  0  0  0  0  0  0  0  0  0  0  0
   -1.6678   27.0200  -26.4516 H   0  0  0  0  0  0  0  0  0  0  0  0
   -0.0095   26.7191  -24.5861 H   0  0  0  0  0  0  0  0  0  0  0  0
    1.5164   25.1761  -23.5397 H   0  0  0  0  0  0  0  0  0  0  0  0
    2.6032   24.1388  -24.5243 H   0  0  0  0  0  0  0  0  0  0  0  0
    2.8206   25.9218  -24.5243 H   0  0  0  0  0  0  0  0  0  0  0  0
    2.1333   23.7456  -26.8779 H   0  0  0  0  0  0  0  0  0  0  0  0
    0.4897   24.0467  -28.7231 H   0  0  0  0  0  0  0  0  0  0  0  0
   -3.0990   25.6760  -30.7460 H   0  0  0  0  0  0  0  0  0  0  0  0
   -4.4848   21.7201  -32.7345 H   0  0  0  0  0  0  0  0  0  0  0  0
   -6.1453   19.8941  -33.0755 H   0  0  0  0  0  0  0  0  0  0  0  0
   -9.0604   22.2306  -30.9244 H   0  0  0  0  0  0  0  0  0  0  0  0
   -7.3989   24.0610  -30.5830 H   0  0  0  0  0  0  0  0  0  0  0  0
   -5.0100   22.0710  -29.7950 H   0  0  0  0  0  0  0  0  0  0  0  0
   -1.6729   21.1661  -29.2923 H   0  0  0  0  0  0  0  0  0  0  0  0
  1  2  1  0
  2  3  2  0
  2  4  1  0
  4  5  1  0
  5  6  2  0
  6  7  1  0
  7  8  2  0
  8  9  1  0
  9 10  1  0
 10 11  1  0
 11 12  2  0
 12 13  1  0
 13 14  2  0
 14 15  1  0
 15 16  2  0
 16 17  1  0
 17 18  2  0
 18 19  1  0
 18 20  1  0
 20 21  2  0
 13 22  1  0
 22 23  1  0
 23 24  2  0
 24 25  1  0
 25 26  2  0
 26 27  1  0
 27 28  2  0
 28 29  1  0
 29 30  3  0
 28 31  1  0
 31 32  2  0
 23 33  1  0
  9 34  2  0
 34  5  1  0
 33 11  1  0
 21 15  1  0
 32 25  1  0
  1 35  1  0
  1 36  1  0
  1 37  1  0
  4 38  1  0
  6 39  1  0
  7 40  1  0
  8 41  1  0
 12 42  1  0
 16 43  1  0
 17 44  1  0
 19 45  1  0
 19 46  1  0
 19 47  1  0
 20 48  1  0
 21 49  1  0
 22 50  1  0
 26 51  1  0
 27 52  1  0
 31 53  1  0
 32 54  1  0
 33 55  1  0
 34 56  1  0
M  END
>  <smiles>  (36) 
CC(=O)Nc1cccc(Oc2cc(=Nc3ccc(C)cc3)[nH]c(=Nc3ccc(C#N)cc3)[nH]2)c1

>  <score_type>  (36) 
oracle

>  <origin>  (36) 
adgpu

>  <m_score__min__energy>  (36) 
-10.66

>  <m_primary>  (36) 
energy

$$$$
36:0
     RDKit          3D

 60 63  0  0  0  0  0  0  0  0999 V2000
    1.2230   16.1000  -26.6780 O   0  0  0  0  0  0  0  0  0  0  0  0
    1.8440   17.1130  -27.6010 S   0  0  0  0  0  0  0  0  0  0  0  0
    3.1200   17.5940  -26.9670 O   0  0  0  0  0  0  0  0  0  0  0  0
    0.7410   18.4780  -27.7890 C   0  0  0  0  0  0  0  0  0  0  0  0
   -0.6110   18.3460  -27.4450 C   0  0  0  0  0  0  0  0  0  0  0  0
   -1.4780   19.4350  -27.5690 C   0  0  0  0  0  0  0  0  0  0  0  0
   -1.0020   20.6730  -28.0250 C   0  0  0  0  0  0  0  0  0  0  0  0
   -1.9160   21.7730  -28.1650 N   0  0  0  0  0  0  0  0  0  0  0  0
   -3.0990   21.7570  -28.9790 C   0  0  0  0  0  0  0  0  0  0  0  0
   -3.2660   20.6720  -30.2080 S   0  0  0  0  0  0  0  0  0  0  0  0
   -4.1320   22.7210  -28.7120 N   0  0  0  0  0  0  0  0  0  0  0  0
   -5.0440   23.2330  -29.6990 C   0  0  0  0  0  0  0  0  0  0  0  0
   -6.2230   22.5380  -30.0160 C   0  0  0  0  0  0  0  0  0  0  0  0
   -7.0840   23.0110  -31.0170 C   0  0  0  0  0  0  0  0  0  0  0  0
   -8.5520   22.1160  -31.4210 S   0  0  0  0  0  0  0  0  0  0  0  0
   -9.1760   21.5960  -30.1550 O   0  0  0  0  0  0  0  0  0  0  0  0
   -9.5360   23.0470  -32.0750 O   0  0  0  0  0  0  0  0  0  0  0  0
   -8.2200   20.7770  -32.4970 N   0  0  0  0  0  0  0  0  0  0  0  0
   -9.2320   19.7060  -32.3700 C   0  0  0  0  0  0  0  0  0  0  0  0
   -8.6980   18.4990  -31.5780 C   0  0  0  0  0  0  0  0  0  0  0  0
   -7.5330   17.9180  -32.1490 O   0  0  0  0  0  0  0  0  0  0  0  0
   -6.6950   18.8520  -32.8200 C   0  0  0  0  0  0  0  0  0  0  0  0
   -6.8380   20.2940  -32.3090 C   0  0  0  0  0  0  0  0  0  0  0  0
   -6.7630   24.1890  -31.7030 C   0  0  0  0  0  0  0  0  0  0  0  0
   -5.5850   24.8760  -31.4070 C   0  0  0  0  0  0  0  0  0  0  0  0
   -4.7180   24.4000  -30.4130 C   0  0  0  0  0  0  0  0  0  0  0  0
   -3.5380   25.0850  -30.1260 O   0  0  0  0  0  0  0  0  0  0  0  0
    0.3450   20.7920  -28.4050 C   0  0  0  0  0  0  0  0  0  0  0  0
    1.2110   19.7030  -28.2830 C   0  0  0  0  0  0  0  0  0  0  0  0
    2.2130   16.3520  -29.1350 N   0  0  0  0  0  0  0  0  0  0  0  0
    0.9940   15.8750  -29.7960 C   0  0  0  0  0  0  0  0  0  0  0  0
    0.5650   16.9170  -30.8190 C   0  0  0  0  0  0  0  0  0  0  0  0
    1.7690   17.8160  -31.0180 C   0  0  0  0  0  0  0  0  0  0  0  0
    2.8370   17.3020  -30.0620 C   0  0  0  0  0  0  0  0  0  0  0  0
   -0.9911   17.3819  -27.0761 H   0  0  0  0  0  0  0  0  0  0  0  0
   -2.5403   19.3205  -27.3074 H   0  0  0  0  0  0  0  0  0  0  0  0
   -1.6720   22.6720  -27.6920 H   0  0  0  0  0  0  0  0  0  0  0  0
   -4.2130   23.0770  -27.7330 H   0  0  0  0  0  0  0  0  0  0  0  0
   -6.4733   21.6141  -29.4740 H   0  0  0  0  0  0  0  0  0  0  0  0
  -10.1133   20.1100  -31.8503 H   0  0  0  0  0  0  0  0  0  0  0  0
   -9.4903   19.3609  -33.3820 H   0  0  0  0  0  0  0  0  0  0  0  0
   -8.4573   18.8310  -30.5573 H   0  0  0  0  0  0  0  0  0  0  0  0
   -9.4838   17.7294  -31.5913 H   0  0  0  0  0  0  0  0  0  0  0  0
   -5.6492   18.5386  -32.6852 H   0  0  0  0  0  0  0  0  0  0  0  0
   -7.0014   18.8552  -33.8765 H   0  0  0  0  0  0  0  0  0  0  0  0
   -6.5867   20.3248  -31.2385 H   0  0  0  0  0  0  0  0  0  0  0  0
   -6.1554   20.9416  -32.8788 H   0  0  0  0  0  0  0  0  0  0  0  0
   -7.4420   24.5741  -32.4780 H   0  0  0  0  0  0  0  0  0  0  0  0
   -5.3352   25.7957  -31.9563 H   0  0  0  0  0  0  0  0  0  0  0  0
   -3.0950   25.6900  -30.8090 H   0  0  0  0  0  0  0  0  0  0  0  0
    0.7197   21.7476  -28.8006 H   0  0  0  0  0  0  0  0  0  0  0  0
    2.2662   19.8069  -28.5757 H   0  0  0  0  0  0  0  0  0  0  0  0
    1.1949   14.9187  -30.3012 H   0  0  0  0  0  0  0  0  0  0  0  0
    0.1963   15.7218  -29.0543 H   0  0  0  0  0  0  0  0  0  0  0  0
    0.2872   16.4325  -31.7667 H   0  0  0  0  0  0  0  0  0  0  0  0
   -0.3133   17.4842  -30.4771 H   0  0  0  0  0  0  0  0  0  0  0  0
    2.1244   17.7549  -32.0572 H   0  0  0  0  0  0  0  0  0  0  0  0
    1.5231   18.8697  -30.8197 H   0  0  0  0  0  0  0  0  0  0  0  0
    3.6324   16.7978  -30.6305 H   0  0  0  0  0  0  0  0  0  0  0  0
    3.2775   18.1405  -29.5027 H   0  0  0  0  0  0  0  0  0  0  0  0
  1  2  2  0
  2  3  2  0
  2  4  1  0
  4  5  2  0
  5  6  1  0
  6  7  2  0
  7  8  1  0
  8  9  1  0
  9 10  2  0
  9 11  1  0
 11 12  1  0
 12 13  2  0
 13 14  1  0
 14 15  1  0
 15 16  2  0
 15 17  2  0
 15 18  1  0
 18 19  1  0
 19 20  1  0
 20 21  1  0
 21 22  1  0
 22 23  1  0
 14 24  2  0
 24 25  1  0
 25 26  2  0
 26 27  1  0
  7 28  1  0
 28 29  2  0
  2 30  1  0
 30 31  1  0
 31 32  1  0
 32 33  1  0
 33 34  1  0
 29  4  1  0
 34 30  1  0
 26 12  1  0
 23 18  1  0
  5 35  1  0
  6 36  1  0
  8 37  1  0
 11 38  1  0
 13 39  1  0
 19 40  1  0
 19 41  1  0
 20 42  1  0
 20 43  1  0
 22 44  1  0
 22 45  1  0
 23 46  1  0
 23 47  1  0
 24 48  1  0
 25 49  1  0
 27 50  1  0
 28 51  1  0
 29 52  1  0
 31 53  1  0
 31 54  1  0
 32 55  1  0
 32 56  1  0
 33 57  1  0
 33 58  1  0
 34 59  1  0
 34 60  1  0
M  END
>  <UniqueID>  (37) 
32

>  <SMILES>  (37) 
O=S(=O)(c1ccc(NC(=S)Nc2cc(S(=O)(=O)N3CCOCC3)ccc2O)cc1)N1CCCC1

>  <Energy>  (37) 
84.04465926850091

>  <Genealogy>  (37) 
O=S(=O)(c1ccc(NC(=S)Nc2cc(S(=O)(=O)N3CCOCC3)ccc2O)cc1)N1CCCC1 (3D coordinates assigned)
O=S(=O)(c1ccc(NC(=S)Nc2cc(S(=O)(=O)N3CCOCC3)ccc2O)cc1)N1CCCC1 (nonaromatic ring conformer: 84.04465926850091 kcal/mol)

>  <smiles>  (37) 
O=S(=O)(c1ccc(NC(=S)Nc2cc(S(=O)(=O)N3CCOCC3)ccc2O)cc1)N1CCCC1

>  <score_type>  (37) 
oracle

>  <origin>  (37) 
adgpu

>  <m_score__min__energy>  (37) 
-10.42

>  <m_primary>  (37) 
energy

$$$$
37:0
     RDKit          3D

 44 46  0  0  0  0  0  0  0  0999 V2000
   -8.9000   18.3660  -33.4740 H   0  0  0  0  0  0  0  0  0  0  0  0
   -8.7050   19.2820  -33.0120 N   0  0  0  0  0  0  0  0  0  0  0  0
   -7.5140   19.7600  -32.8080 C   0  0  0  0  0  0  0  0  0  0  0  0
   -6.3520   19.0600  -33.2130 C   0  0  0  0  0  0  0  0  0  0  0  0
   -6.4550   17.7980  -33.9180 C   0  0  0  0  0  0  0  0  0  0  0  0
   -6.5370   16.7890  -34.4810 N   0  0  0  0  0  0  0  0  0  0  0  0
   -5.0860   19.6320  -32.9630 C   0  0  0  0  0  0  0  0  0  0  0  0
   -3.8230   18.9500  -33.3410 C   0  0  0  0  0  0  0  0  0  0  0  0
   -2.7610   19.6860  -33.8910 C   0  0  0  0  0  0  0  0  0  0  0  0
   -2.8718   20.7684  -34.0528 H   0  0  0  0  0  0  0  0  0  0  0  0
   -1.5640   19.0510  -34.2340 C   0  0  0  0  0  0  0  0  0  0  0  0
   -0.7365   19.6365  -34.6611 H   0  0  0  0  0  0  0  0  0  0  0  0
   -1.4130   17.6700  -34.0360 C   0  0  0  0  0  0  0  0  0  0  0  0
   -0.1150   16.9950  -34.3650 C   0  0  0  0  0  0  0  0  0  0  0  0
    0.4043   16.7250  -33.4336 H   0  0  0  0  0  0  0  0  0  0  0  0
   -0.3129   16.0856  -34.9514 H   0  0  0  0  0  0  0  0  0  0  0  0
    0.5158   17.6793  -34.9514 H   0  0  0  0  0  0  0  0  0  0  0  0
   -2.4620   16.9390  -33.4580 C   0  0  0  0  0  0  0  0  0  0  0  0
   -2.3413   15.8614  -33.2732 H   0  0  0  0  0  0  0  0  0  0  0  0
   -3.6590   17.5730  -33.1160 C   0  0  0  0  0  0  0  0  0  0  0  0
   -4.4777   16.9907  -32.6680 H   0  0  0  0  0  0  0  0  0  0  0  0
   -5.0120   20.8830  -32.3400 C   0  0  0  0  0  0  0  0  0  0  0  0
   -4.0311   21.3445  -32.1534 H   0  0  0  0  0  0  0  0  0  0  0  0
   -6.1810   21.5500  -31.9530 C   0  0  0  0  0  0  0  0  0  0  0  0
   -6.1020   22.8720  -31.2790 C   0  0  0  0  0  0  0  0  0  0  0  0
   -7.2740   23.5350  -30.8800 C   0  0  0  0  0  0  0  0  0  0  0  0
   -8.2545   23.0731  -31.0680 H   0  0  0  0  0  0  0  0  0  0  0  0
   -7.2020   24.7770  -30.2460 C   0  0  0  0  0  0  0  0  0  0  0  0
   -8.1252   25.2889  -29.9367 H   0  0  0  0  0  0  0  0  0  0  0  0
   -5.9610   25.3720  -30.0030 C   0  0  0  0  0  0  0  0  0  0  0  0
   -5.9099   26.3489  -29.4999 H   0  0  0  0  0  0  0  0  0  0  0  0
   -4.7780   24.7250  -30.4000 C   0  0  0  0  0  0  0  0  0  0  0  0
   -3.4810   25.2980  -30.1780 N   0  0  0  0  0  0  0  0  0  0  0  0
   -2.2550   24.6630  -29.1280 S   0  0  0  0  0  0  0  0  0  0  0  0
   -1.1960   25.7120  -28.9350 O   0  0  0  0  0  0  0  0  0  0  0  0
   -1.6250   23.4490  -29.7490 O   0  0  0  0  0  0  0  0  0  0  0  0
   -2.9550   24.2590  -27.5420 C   0  0  0  0  0  0  0  0  0  0  0  0
   -2.2989   24.6377  -26.7444 H   0  0  0  0  0  0  0  0  0  0  0  0
   -3.9483   24.7227  -27.4507 H   0  0  0  0  0  0  0  0  0  0  0  0
   -3.0504   23.1670  -27.4507 H   0  0  0  0  0  0  0  0  0  0  0  0
   -4.8570   23.4780  -31.0330 C   0  0  0  0  0  0  0  0  0  0  0  0
   -3.9335   22.9662  -31.3416 H   0  0  0  0  0  0  0  0  0  0  0  0
   -7.3940   20.9710  -32.1930 N   0  0  0  0  0  0  0  0  0  0  0  0
   -8.2660   21.4810  -31.9210 H   0  0  0  0  0  0  0  0  0  0  0  0
  1  2  1  0
  2  3  2  0
  3  4  1  0
  4  5  1  0
  5  6  3  0
  4  7  2  0
  7  8  1  0
  8  9  2  0
  9 10  1  0
  9 11  1  0
 11 12  1  0
 11 13  2  0
 13 14  1  0
 14 15  1  0
 14 16  1  0
 14 17  1  0
 13 18  1  0
 18 19  1  0
 18 20  2  0
 20 21  1  0
  7 22  1  0
 22 23  1  0
 22 24  2  0
 24 25  1  0
 25 26  2  0
 26 27  1  0
 26 28  1  0
 28 29  1  0
 28 30  2  0
 30 31  1  0
 30 32  1  0
 32 33  1  0
 33 34  1  0
 34 35  2  0
 34 36  2  0
 34 37  1  0
 37 38  1  0
 37 39  1  0
 37 40  1  0
 32 41  2  0
 41 42  1  0
 24 43  1  0
 43 44  1  0
 43  3  1  0
 20  8  1  0
 41 25  1  0
M  CHG  1  33  -1
M  END
>  <UniqueID>  (38) 
33

>  <SMILES>  (38) 
[H]/N=c1/[nH]c(-c2cccc([N-]S(C)(=O)=O)c2)cc(-c2ccc(C)cc2)c1C#N

>  <Energy>  (38) 
59.72716367248399

>  <Genealogy>  (38) 
Cc1ccc(-c2cc(-c3cccc([N-]S(C)(=O)=O)c3)[nH]c(=N)c2C#N)cc1 (protonated)
[H]/N=c1/[nH]c(-c2cccc([N-]S(C)(=O)=O)c2)cc(-c2ccc(C)cc2)c1C#N (cis-trans isomerization)
[H]/N=c1/[nH]c(-c2cccc([N-]S(C)(=O)=O)c2)cc(-c2ccc(C)cc2)c1C#N (3D coordinates assigned)
[H]/N=c1/[nH]c(-c2cccc([N-]S(C)(=O)=O)c2)cc(-c2ccc(C)cc2)c1C#N (optimized conformer: 59.72716367248399 kcal/mol)

>  <smiles>  (38) 
Cc1ccc(-c2cc(-c3cccc(NS(C)(=O)=O)c3)[nH]c(=N)c2C#N)cc1

>  <score_type>  (38) 
oracle

>  <origin>  (38) 
adgpu

>  <m_score__min__energy>  (38) 
-11.140000000000001

>  <m_primary>  (38) 
energy

$$$$
38:0
     RDKit          3D

 45 48  0  0  0  0  0  0  0  0999 V2000
   -0.9280   25.6250  -28.9570 O   0  0  0  0  0  0  0  0  0  0  0  0
   -2.1210   24.7520  -28.6950 S   0  0  0  0  0  0  0  0  0  0  0  0
   -2.7720   25.1960  -27.4150 O   0  0  0  0  0  0  0  0  0  0  0  0
   -3.2490   24.9240  -30.0000 N   0  0  0  0  0  0  0  0  0  0  0  0
   -4.1400   23.9010  -30.4650 C   0  0  0  0  0  0  0  0  0  0  0  0
   -5.5170   24.0680  -30.2660 C   0  0  0  0  0  0  0  0  0  0  0  0
   -6.4230   23.1050  -30.7170 C   0  0  0  0  0  0  0  0  0  0  0  0
   -5.9610   21.9580  -31.3820 C   0  0  0  0  0  0  0  0  0  0  0  0
   -6.8840   20.9690  -31.8670 N   0  0  0  0  0  0  0  0  0  0  0  0
   -6.3880   19.8380  -32.6560 C   0  0  0  0  0  0  0  0  0  0  0  0
   -7.3220   18.6370  -32.4780 C   0  0  0  0  0  0  0  0  0  0  0  0
   -8.6660   19.0000  -32.7360 O   0  0  0  0  0  0  0  0  0  0  0  0
   -9.1030   19.9450  -31.7750 C   0  0  0  0  0  0  0  0  0  0  0  0
   -8.3190   21.2540  -31.9080 C   0  0  0  0  0  0  0  0  0  0  0  0
   -4.5830   21.7840  -31.5740 C   0  0  0  0  0  0  0  0  0  0  0  0
   -3.6780   22.7440  -31.1140 C   0  0  0  0  0  0  0  0  0  0  0  0
   -1.5860   23.0800  -28.5820 C   0  0  0  0  0  0  0  0  0  0  0  0
   -0.5690   22.6230  -29.4310 C   0  0  0  0  0  0  0  0  0  0  0  0
   -0.1430   21.2930  -29.3720 C   0  0  0  0  0  0  0  0  0  0  0  0
   -0.7360   20.4010  -28.4680 C   0  0  0  0  0  0  0  0  0  0  0  0
   -0.3220   19.0590  -28.4080 C   0  0  0  0  0  0  0  0  0  0  0  0
   -0.9260   18.1800  -27.5040 C   0  0  0  0  0  0  0  0  0  0  0  0
   -1.9450   18.6300  -26.6600 C   0  0  0  0  0  0  0  0  0  0  0  0
   -2.3660   19.9610  -26.7120 C   0  0  0  0  0  0  0  0  0  0  0  0
   -1.7670   20.8570  -27.6120 C   0  0  0  0  0  0  0  0  0  0  0  0
   -2.1820   22.1980  -27.6710 C   0  0  0  0  0  0  0  0  0  0  0  0
   -5.8880   24.9657  -29.7499 H   0  0  0  0  0  0  0  0  0  0  0  0
   -7.5012   23.2457  -30.5507 H   0  0  0  0  0  0  0  0  0  0  0  0
   -6.3535   20.1203  -33.7186 H   0  0  0  0  0  0  0  0  0  0  0  0
   -5.3781   19.5688  -32.3130 H   0  0  0  0  0  0  0  0  0  0  0  0
   -7.0232   17.8417  -33.1767 H   0  0  0  0  0  0  0  0  0  0  0  0
   -7.2464   18.2838  -31.4390 H   0  0  0  0  0  0  0  0  0  0  0  0
  -10.1732   20.1478  -31.9286 H   0  0  0  0  0  0  0  0  0  0  0  0
   -8.9335   19.5316  -30.7698 H   0  0  0  0  0  0  0  0  0  0  0  0
   -8.5700   21.7363  -32.8643 H   0  0  0  0  0  0  0  0  0  0  0  0
   -8.5834   21.9259  -31.0782 H   0  0  0  0  0  0  0  0  0  0  0  0
   -4.2121   20.8861  -32.0900 H   0  0  0  0  0  0  0  0  0  0  0  0
   -2.5983   22.5930  -31.2608 H   0  0  0  0  0  0  0  0  0  0  0  0
   -0.1032   23.3150  -30.1481 H   0  0  0  0  0  0  0  0  0  0  0  0
    0.6607   20.9451  -30.0376 H   0  0  0  0  0  0  0  0  0  0  0  0
    0.4777   18.7002  -29.0727 H   0  0  0  0  0  0  0  0  0  0  0  0
   -0.5982   17.1310  -27.4569 H   0  0  0  0  0  0  0  0  0  0  0  0
   -2.4174   17.9333  -25.9519 H   0  0  0  0  0  0  0  0  0  0  0  0
   -3.1694   20.3083  -26.0457 H   0  0  0  0  0  0  0  0  0  0  0  0
   -2.9768   22.5563  -27.0003 H   0  0  0  0  0  0  0  0  0  0  0  0
  1  2  2  0
  2  3  2  0
  2  4  1  0
  4  5  1  0
  5  6  2  0
  6  7  1  0
  7  8  2  0
  8  9  1  0
  9 10  1  0
 10 11  1  0
 11 12  1  0
 12 13  1  0
 13 14  1  0
  8 15  1  0
 15 16  2  0
  2 17  1  0
 17 18  2  0
 18 19  1  0
 19 20  2  0
 20 21  1  0
 21 22  2  0
 22 23  1  0
 23 24  2  0
 24 25  1  0
 25 26  2  0
 16  5  1  0
 26 17  1  0
 14  9  1  0
 25 20  1  0
  6 27  1  0
  7 28  1  0
 10 29  1  0
 10 30  1  0
 11 31  1  0
 11 32  1  0
 13 33  1  0
 13 34  1  0
 14 35  1  0
 14 36  1  0
 15 37  1  0
 16 38  1  0
 18 39  1  0
 19 40  1  0
 21 41  1  0
 22 42  1  0
 23 43  1  0
 24 44  1  0
 26 45  1  0
M  CHG  1   4  -1
M  END
>  <UniqueID>  (39) 
34

>  <SMILES>  (39) 
O=S(=O)([N-]c1ccc(N2CCOCC2)cc1)c1ccc2ccccc2c1

>  <Energy>  (39) 
60.06765504052262

>  <Genealogy>  (39) 
O=S(=O)([N-]c1ccc(N2CCOCC2)cc1)c1ccc2ccccc2c1 (protonated)
O=S(=O)([N-]c1ccc(N2CCOCC2)cc1)c1ccc2ccccc2c1 (3D coordinates assigned)
O=S(=O)([N-]c1ccc(N2CCOCC2)cc1)c1ccc2ccccc2c1 (nonaromatic ring conformer: 60.06765504052262 kcal/mol)

>  <smiles>  (39) 
O=S(=O)(Nc1ccc(N2CCOCC2)cc1)c1ccc2ccccc2c1

>  <score_type>  (39) 
oracle

>  <origin>  (39) 
adgpu

>  <m_score__min__energy>  (39) 
-10.6

>  <m_primary>  (39) 
energy

$$$$
39:0
     RDKit          3D

 46 49  0  0  0  0  0  0  0  0999 V2000
   -2.9040   20.0570  -27.6360 C   0  0  0  0  0  0  0  0  0  0  0  0
   -2.5670   21.5050  -27.7580 C   0  0  0  0  0  0  0  0  0  0  0  0
   -2.8690   22.3150  -28.8340 C   0  0  0  0  0  0  0  0  0  0  0  0
   -2.4000   23.5610  -28.4660 C   0  0  0  0  0  0  0  0  0  0  0  0
   -2.4430   24.7580  -29.3370 C   0  0  0  0  0  0  0  0  0  0  0  0
   -1.4970   25.5860  -29.2740 O   0  0  0  0  0  0  0  0  0  0  0  0
   -3.5080   25.0060  -30.2650 N   0  0  0  0  0  0  0  0  0  0  0  0
   -4.5700   24.1060  -30.6070 C   0  0  0  0  0  0  0  0  0  0  0  0
   -5.8230   24.2840  -30.0130 C   0  0  0  0  0  0  0  0  0  0  0  0
   -6.8940   23.4570  -30.3590 C   0  0  0  0  0  0  0  0  0  0  0  0
   -6.7260   22.4200  -31.2930 C   0  0  0  0  0  0  0  0  0  0  0  0
   -7.8450   21.5870  -31.6540 N   0  0  0  0  0  0  0  0  0  0  0  0
   -7.8750   20.2630  -31.8960 C   0  0  0  0  0  0  0  0  0  0  0  0
   -9.1270   19.8850  -32.2090 N   0  0  0  0  0  0  0  0  0  0  0  0
   -9.8520   20.9930  -32.1540 N   0  0  0  0  0  0  0  0  0  0  0  0
   -9.0840   22.0180  -31.8210 N   0  0  0  0  0  0  0  0  0  0  0  0
   -5.4520   22.2180  -31.8570 C   0  0  0  0  0  0  0  0  0  0  0  0
   -4.3820   23.0500  -31.5120 C   0  0  0  0  0  0  0  0  0  0  0  0
   -1.8850   23.4750  -27.2120 N   0  0  0  0  0  0  0  0  0  0  0  0
   -1.3400   24.5260  -26.4000 C   0  0  0  0  0  0  0  0  0  0  0  0
   -2.1010   25.6790  -26.1620 C   0  0  0  0  0  0  0  0  0  0  0  0
   -1.6140   26.6890  -25.3290 C   0  0  0  0  0  0  0  0  0  0  0  0
   -0.3480   26.5700  -24.7330 C   0  0  0  0  0  0  0  0  0  0  0  0
    0.1540   27.6340  -23.8290 C   0  0  0  0  0  0  0  0  0  0  0  0
    0.8810   27.2810  -22.6460 N   0  0  0  0  0  0  0  0  0  0  0  0
   -0.0480   28.8890  -24.1070 N   0  0  0  0  0  0  0  0  0  0  0  0
    0.4330   25.4350  -25.0110 C   0  0  0  0  0  0  0  0  0  0  0  0
   -0.0540   24.4220  -25.8440 C   0  0  0  0  0  0  0  0  0  0  0  0
    0.7340   23.3540  -26.1210 F   0  0  0  0  0  0  0  0  0  0  0  0
   -1.9830   22.2260  -26.7830 N   0  0  0  0  0  0  0  0  0  0  0  0
   -2.9676   19.7837  -26.5724 H   0  0  0  0  0  0  0  0  0  0  0  0
   -3.8712   19.8634  -28.1228 H   0  0  0  0  0  0  0  0  0  0  0  0
   -2.1217   19.4562  -28.1228 H   0  0  0  0  0  0  0  0  0  0  0  0
   -3.3696   22.0324  -29.7718 H   0  0  0  0  0  0  0  0  0  0  0  0
   -5.9663   25.0807  -29.2682 H   0  0  0  0  0  0  0  0  0  0  0  0
   -7.8786   23.6187  -29.8961 H   0  0  0  0  0  0  0  0  0  0  0  0
   -7.0056   19.5910  -31.8453 H   0  0  0  0  0  0  0  0  0  0  0  0
   -5.2968   21.3991  -32.5749 H   0  0  0  0  0  0  0  0  0  0  0  0
   -3.3889   22.8759  -31.9519 H   0  0  0  0  0  0  0  0  0  0  0  0
   -3.0883   25.7891  -26.6344 H   0  0  0  0  0  0  0  0  0  0  0  0
   -2.2259   27.5831  -25.1387 H   0  0  0  0  0  0  0  0  0  0  0  0
    0.9880   26.2850  -22.3570 H   0  0  0  0  0  0  0  0  0  0  0  0
    1.2790   28.0200  -22.0230 H   0  0  0  0  0  0  0  0  0  0  0  0
   -0.5380   29.1850  -24.9800 H   0  0  0  0  0  0  0  0  0  0  0  0
    0.3040   29.6390  -23.4710 H   0  0  0  0  0  0  0  0  0  0  0  0
    1.4363   25.3424  -24.5696 H   0  0  0  0  0  0  0  0  0  0  0  0
  1  2  1  0
  2  3  1  0
  3  4  2  0
  4  5  1  0
  5  6  2  0
  5  7  1  0
  7  8  1  0
  8  9  2  0
  9 10  1  0
 10 11  2  0
 11 12  1  0
 12 13  1  0
 13 14  2  0
 14 15  1  0
 15 16  2  0
 11 17  1  0
 17 18  2  0
  4 19  1  0
 19 20  1  0
 20 21  2  0
 21 22  1  0
 22 23  2  0
 23 24  1  0
 24 25  1  0
 24 26  2  0
 23 27  1  0
 27 28  2  0
 28 29  1  0
 19 30  1  0
 30  2  2  0
 18  8  1  0
 28 20  1  0
 16 12  1  0
  1 31  1  0
  1 32  1  0
  1 33  1  0
  3 34  1  0
  9 35  1  0
 10 36  1  0
 13 37  1  0
 17 38  1  0
 18 39  1  0
 21 40  1  0
 22 41  1  0
 25 42  1  0
 25 43  1  0
 26 44  1  0
 26 45  1  0
 27 46  1  0
M  CHG  2   7  -1  26   1
M  END
>  <UniqueID>  (40) 
35

>  <SMILES>  (40) 
Cc1cc(C(=O)[N-]c2ccc(-n3cnnn3)cc2)n(-c2ccc(C(N)=[NH2+])cc2F)n1

>  <Energy>  (40) 
132.08784418563837

>  <Genealogy>  (40) 
Cc1cc(C(=O)[N-]c2ccc(-n3cnnn3)cc2)n(-c2ccc(C(N)=[NH2+])cc2F)n1 (protonated)
Cc1cc(C(=O)[N-]c2ccc(-n3cnnn3)cc2)n(-c2ccc(C(N)=[NH2+])cc2F)n1 (3D coordinates assigned)
Cc1cc(C(=O)[N-]c2ccc(-n3cnnn3)cc2)n(-c2ccc(C(N)=[NH2+])cc2F)n1 (optimized conformer: 132.08784418563837 kcal/mol)

>  <smiles>  (40) 
Cc1cc(C(=O)Nc2ccc(-n3cnnn3)cc2)n(-c2ccc(C(=N)N)cc2F)n1

>  <score_type>  (40) 
oracle

>  <origin>  (40) 
adgpu

>  <m_score__min__energy>  (40) 
-12.23

>  <m_primary>  (40) 
energy

$$$$
40:0
     RDKit          3D

 33 34  0  0  0  0  0  0  0  0999 V2000
   -0.8620   26.8850  -26.7940 C   0  0  0  0  0  0  0  0  0  0  0  0
   -0.6510   25.9080  -27.9110 C   0  0  0  0  0  0  0  0  0  0  0  0
    0.3950   25.2070  -27.9180 O   0  0  0  0  0  0  0  0  0  0  0  0
   -1.6180   25.7240  -28.9520 N   0  0  0  0  0  0  0  0  0  0  0  0
   -2.3660   24.5270  -29.1980 C   0  0  0  0  0  0  0  0  0  0  0  0
   -1.9360   23.3290  -28.6160 C   0  0  0  0  0  0  0  0  0  0  0  0
   -2.6370   22.1370  -28.8400 C   0  0  0  0  0  0  0  0  0  0  0  0
   -2.0770   20.6400  -28.1000 S   0  0  0  0  0  0  0  0  0  0  0  0
   -3.2380   19.8210  -27.6070 O   0  0  0  0  0  0  0  0  0  0  0  0
   -1.1860   20.9760  -26.9380 O   0  0  0  0  0  0  0  0  0  0  0  0
   -1.1780   19.7130  -29.2570 N   0  0  0  0  0  0  0  0  0  0  0  0
   -0.0110   18.9270  -28.9680 C   0  0  0  0  0  0  0  0  0  0  0  0
    1.0960   18.9010  -29.8380 C   0  0  0  0  0  0  0  0  0  0  0  0
    2.2220   18.1340  -29.5270 C   0  0  0  0  0  0  0  0  0  0  0  0
    2.2580   17.3880  -28.3500 C   0  0  0  0  0  0  0  0  0  0  0  0
    1.1630   17.3990  -27.4830 C   0  0  0  0  0  0  0  0  0  0  0  0
    0.0290   18.1630  -27.7840 C   0  0  0  0  0  0  0  0  0  0  0  0
   -1.0430   18.1510  -26.8900 O   0  0  0  0  0  0  0  0  0  0  0  0
   -3.7710   22.1430  -29.6630 C   0  0  0  0  0  0  0  0  0  0  0  0
   -4.1830   23.3270  -30.2770 C   0  0  0  0  0  0  0  0  0  0  0  0
   -3.4770   24.5160  -30.0640 C   0  0  0  0  0  0  0  0  0  0  0  0
   -3.8670   25.6680  -30.7370 O   0  0  0  0  0  0  0  0  0  0  0  0
   -0.7505   26.3686  -25.8292 H   0  0  0  0  0  0  0  0  0  0  0  0
   -0.1173   27.6913  -26.8665 H   0  0  0  0  0  0  0  0  0  0  0  0
   -1.8731   27.3121  -26.8665 H   0  0  0  0  0  0  0  0  0  0  0  0
   -1.0403   23.3234  -27.9775 H   0  0  0  0  0  0  0  0  0  0  0  0
    1.0743   19.4880  -30.7680 H   0  0  0  0  0  0  0  0  0  0  0  0
    3.0820   18.1189  -30.2127 H   0  0  0  0  0  0  0  0  0  0  0  0
    3.1485   16.7909  -28.1041 H   0  0  0  0  0  0  0  0  0  0  0  0
    1.1917   16.8039  -26.5583 H   0  0  0  0  0  0  0  0  0  0  0  0
   -1.7530   18.8740  -26.8830 H   0  0  0  0  0  0  0  0  0  0  0  0
   -4.3371   21.2139  -29.8254 H   0  0  0  0  0  0  0  0  0  0  0  0
   -5.0671   23.3252  -30.9315 H   0  0  0  0  0  0  0  0  0  0  0  0
  1  2  1  0
  2  3  2  0
  2  4  1  0
  4  5  1  0
  5  6  2  0
  6  7  1  0
  7  8  1  0
  8  9  2  0
  8 10  2  0
  8 11  1  0
 11 12  1  0
 12 13  2  0
 13 14  1  0
 14 15  2  0
 15 16  1  0
 16 17  2  0
 17 18  1  0
  7 19  2  0
 19 20  1  0
 20 21  2  0
 21 22  1  0
 21  5  1  0
 17 12  1  0
  1 23  1  0
  1 24  1  0
  1 25  1  0
  6 26  1  0
 13 27  1  0
 14 28  1  0
 15 29  1  0
 16 30  1  0
 18 31  1  0
 19 32  1  0
 20 33  1  0
M  CHG  3   4  -1  11  -1  22  -1
M  END
>  <UniqueID>  (41) 
36

>  <SMILES>  (41) 
CC(=O)[N-]c1cc(S(=O)(=O)[N-]c2ccccc2O)ccc1[O-]

>  <Energy>  (41) 
42.20462717349948

>  <Genealogy>  (41) 
CC(=O)[N-]c1cc(S(=O)(=O)[N-]c2ccccc2O)ccc1[O-] (protonated)
CC(=O)[N-]c1cc(S(=O)(=O)[N-]c2ccccc2O)ccc1[O-] (3D coordinates assigned)
CC(=O)[N-]c1cc(S(=O)(=O)[N-]c2ccccc2O)ccc1[O-] (optimized conformer: 42.20462717349948 kcal/mol)

>  <smiles>  (41) 
CC(=O)Nc1cc(S(=O)(=O)Nc2ccccc2O)ccc1O

>  <score_type>  (41) 
oracle

>  <origin>  (41) 
adgpu

>  <m_score__min__energy>  (41) 
-10.6

>  <m_primary>  (41) 
energy

$$$$
41:0
     RDKit          3D

 34 35  0  0  0  0  0  0  0  0999 V2000
   -8.0750   19.0980  -31.9600 C   0  0  0  0  0  0  0  0  0  0  0  0
   -8.2530   20.4420  -32.3960 O   0  0  0  0  0  0  0  0  0  0  0  0
   -7.5290   21.5380  -31.9030 C   0  0  0  0  0  0  0  0  0  0  0  0
   -7.9130   22.0920  -30.6770 C   0  0  0  0  0  0  0  0  0  0  0  0
   -7.2220   23.1830  -30.1420 C   0  0  0  0  0  0  0  0  0  0  0  0
   -6.1320   23.7300  -30.8310 C   0  0  0  0  0  0  0  0  0  0  0  0
   -5.2460   25.0950  -30.1570 S   0  0  0  0  0  0  0  0  0  0  0  0
   -5.7330   26.3590  -30.8060 O   0  0  0  0  0  0  0  0  0  0  0  0
   -5.4620   25.1900  -28.6730 O   0  0  0  0  0  0  0  0  0  0  0  0
   -3.5510   24.9140  -30.4720 N   0  0  0  0  0  0  0  0  0  0  0  0
   -2.7450   23.8000  -30.0600 C   0  0  0  0  0  0  0  0  0  0  0  0
   -2.9100   22.5190  -30.6220 C   0  0  0  0  0  0  0  0  0  0  0  0
   -2.1050   21.4550  -30.2050 C   0  0  0  0  0  0  0  0  0  0  0  0
   -1.1320   21.6550  -29.2250 C   0  0  0  0  0  0  0  0  0  0  0  0
   -0.9600   22.9200  -28.6590 C   0  0  0  0  0  0  0  0  0  0  0  0
   -1.7580   23.9930  -29.0740 C   0  0  0  0  0  0  0  0  0  0  0  0
   -1.5050   25.6090  -28.3290 S   0  0  0  0  0  0  0  0  0  0  0  0
   -2.3500   25.1620  -26.7800 C   0  0  0  0  0  0  0  0  0  0  0  0
   -5.7460   23.1850  -32.0610 C   0  0  0  0  0  0  0  0  0  0  0  0
   -6.4370   22.0930  -32.5960 C   0  0  0  0  0  0  0  0  0  0  0  0
   -8.0709   19.0667  -30.8605 H   0  0  0  0  0  0  0  0  0  0  0  0
   -8.8987   18.4767  -32.3414 H   0  0  0  0  0  0  0  0  0  0  0  0
   -7.1180   18.7125  -32.3414 H   0  0  0  0  0  0  0  0  0  0  0  0
   -8.7662   21.6653  -30.1293 H   0  0  0  0  0  0  0  0  0  0  0  0
   -7.5346   23.6125  -29.1788 H   0  0  0  0  0  0  0  0  0  0  0  0
   -3.6767   22.3549  -31.3935 H   0  0  0  0  0  0  0  0  0  0  0  0
   -2.2388   20.4581  -30.6503 H   0  0  0  0  0  0  0  0  0  0  0  0
   -0.5002   20.8159  -28.8982 H   0  0  0  0  0  0  0  0  0  0  0  0
   -0.1946   23.0740  -27.8841 H   0  0  0  0  0  0  0  0  0  0  0  0
   -1.7401   25.4846  -25.9233 H   0  0  0  0  0  0  0  0  0  0  0  0
   -3.3303   25.6595  -26.7403 H   0  0  0  0  0  0  0  0  0  0  0  0
   -2.4903   24.0717  -26.7403 H   0  0  0  0  0  0  0  0  0  0  0  0
   -4.8958   23.6172  -32.6091 H   0  0  0  0  0  0  0  0  0  0  0  0
   -6.1261   21.6667  -33.5612 H   0  0  0  0  0  0  0  0  0  0  0  0
  1  2  1  0
  2  3  1  0
  3  4  2  0
  4  5  1  0
  5  6  2  0
  6  7  1  0
  7  8  2  0
  7  9  2  0
  7 10  1  0
 10 11  1  0
 11 12  2  0
 12 13  1  0
 13 14  2  0
 14 15  1  0
 15 16  2  0
 16 17  1  0
 17 18  1  0
  6 19  1  0
 19 20  2  0
 20  3  1  0
 16 11  1  0
  1 21  1  0
  1 22  1  0
  1 23  1  0
  4 24  1  0
  5 25  1  0
 12 26  1  0
 13 27  1  0
 14 28  1  0
 15 29  1  0
 18 30  1  0
 18 31  1  0
 18 32  1  0
 19 33  1  0
 20 34  1  0
M  CHG  1  10  -1
M  END
>  <UniqueID>  (42) 
37

>  <SMILES>  (42) 
COc1ccc(S(=O)(=O)[N-]c2ccccc2SC)cc1

>  <Energy>  (42) 
32.59622563605218

>  <Genealogy>  (42) 
COc1ccc(S(=O)(=O)[N-]c2ccccc2SC)cc1 (protonated)
COc1ccc(S(=O)(=O)[N-]c2ccccc2SC)cc1 (3D coordinates assigned)
COc1ccc(S(=O)(=O)[N-]c2ccccc2SC)cc1 (optimized conformer: 32.59622563605218 kcal/mol)

>  <smiles>  (42) 
COc1ccc(S(=O)(=O)Nc2ccccc2SC)cc1

>  <score_type>  (42) 
oracle

>  <origin>  (42) 
adgpu

>  <m_score__min__energy>  (42) 
-8.2400000000000002

>  <m_primary>  (42) 
energy

$$$$
42:0
     RDKit          3D

 40 42  0  0  0  0  0  0  0  0999 V2000
   -1.2360   25.7260  -24.9470 C   0  0  0  0  0  0  0  0  0  0  0  0
    0.0460   26.3590  -25.4790 C   0  0  0  0  0  0  0  0  0  0  0  0
    1.0270   25.3310  -26.0540 C   0  0  0  0  0  0  0  0  0  0  0  0
    0.9160   25.2450  -27.4770 O   0  0  0  0  0  0  0  0  0  0  0  0
   -0.2230   24.8550  -28.2040 C   0  0  0  0  0  0  0  0  0  0  0  0
   -1.2300   25.7480  -28.6070 C   0  0  0  0  0  0  0  0  0  0  0  0
   -2.3000   25.2930  -29.3090 N   0  0  0  0  0  0  0  0  0  0  0  0
   -2.4260   23.9790  -29.6420 C   0  0  0  0  0  0  0  0  0  0  0  0
   -3.6050   23.5090  -30.4090 C   0  0  0  0  0  0  0  0  0  0  0  0
   -4.8980   23.9610  -30.0860 C   0  0  0  0  0  0  0  0  0  0  0  0
   -6.0090   23.5170  -30.8080 C   0  0  0  0  0  0  0  0  0  0  0  0
   -5.8550   22.6040  -31.8560 C   0  0  0  0  0  0  0  0  0  0  0  0
   -6.9930   22.1930  -32.5640 O   0  0  0  0  0  0  0  0  0  0  0  0
   -7.5770   20.9190  -32.4990 C   0  0  0  0  0  0  0  0  0  0  0  0
   -6.8650   19.7500  -32.8190 C   0  0  0  0  0  0  0  0  0  0  0  0
   -7.4880   18.5050  -32.7190 C   0  0  0  0  0  0  0  0  0  0  0  0
   -8.8140   18.4370  -32.2900 C   0  0  0  0  0  0  0  0  0  0  0  0
   -9.4840   19.5750  -31.9650 N   0  0  0  0  0  0  0  0  0  0  0  0
   -8.8980   20.7990  -32.0540 C   0  0  0  0  0  0  0  0  0  0  0  0
   -4.5660   22.1620  -32.1970 C   0  0  0  0  0  0  0  0  0  0  0  0
   -3.4530   22.6060  -31.4770 C   0  0  0  0  0  0  0  0  0  0  0  0
   -1.4560   23.1030  -29.2630 N   0  0  0  0  0  0  0  0  0  0  0  0
   -0.3680   23.5100  -28.5600 C   0  0  0  0  0  0  0  0  0  0  0  0
    0.5080   22.6670  -28.2280 O   0  0  0  0  0  0  0  0  0  0  0  0
   -1.2198   25.7340  -23.8471 H   0  0  0  0  0  0  0  0  0  0  0  0
   -2.1039   26.2991  -25.3051 H   0  0  0  0  0  0  0  0  0  0  0  0
   -1.3086   24.6885  -25.3051 H   0  0  0  0  0  0  0  0  0  0  0  0
   -0.2187   27.0732  -26.2727 H   0  0  0  0  0  0  0  0  0  0  0  0
    0.5453   26.8529  -24.6324 H   0  0  0  0  0  0  0  0  0  0  0  0
    2.0529   25.6294  -25.7922 H   0  0  0  0  0  0  0  0  0  0  0  0
    0.7868   24.3460  -25.6273 H   0  0  0  0  0  0  0  0  0  0  0  0
   -1.1518   26.8156  -28.3540 H   0  0  0  0  0  0  0  0  0  0  0  0
   -5.0355   24.6708  -29.2570 H   0  0  0  0  0  0  0  0  0  0  0  0
   -7.0118   23.8883  -30.5501 H   0  0  0  0  0  0  0  0  0  0  0  0
   -5.8175   19.8163  -33.1480 H   0  0  0  0  0  0  0  0  0  0  0  0
   -6.9393   17.5869  -32.9758 H   0  0  0  0  0  0  0  0  0  0  0  0
   -9.3179   17.4621  -32.2146 H   0  0  0  0  0  0  0  0  0  0  0  0
   -9.4654   21.6991  -31.7748 H   0  0  0  0  0  0  0  0  0  0  0  0
   -4.4316   21.4626  -33.0353 H   0  0  0  0  0  0  0  0  0  0  0  0
   -2.4495   22.2461  -31.7479 H   0  0  0  0  0  0  0  0  0  0  0  0
  1  2  1  0
  2  3  1  0
  3  4  1  0
  4  5  1  0
  5  6  2  0
  6  7  1  0
  7  8  2  0
  8  9  1  0
  9 10  2  0
 10 11  1  0
 11 12  2  0
 12 13  1  0
 13 14  1  0
 14 15  2  0
 15 16  1  0
 16 17  2  0
 17 18  1  0
 18 19  2  0
 12 20  1  0
 20 21  2  0
  8 22  1  0
 22 23  1  0
 23 24  2  0
 23  5  1  0
 21  9  1  0
 19 14  1  0
  1 25  1  0
  1 26  1  0
  1 27  1  0
  2 28  1  0
  2 29  1  0
  3 30  1  0
  3 31  1  0
  6 32  1  0
 10 33  1  0
 11 34  1  0
 15 35  1  0
 16 36  1  0
 17 37  1  0
 19 38  1  0
 20 39  1  0
 21 40  1  0
M  CHG  1  22  -1
M  END
>  <UniqueID>  (43) 
38

>  <SMILES>  (43) 
CCCOc1cnc(-c2ccc(Oc3cccnc3)cc2)[n-]c1=O

>  <Energy>  (43) 
50.506225304470604

>  <Genealogy>  (43) 
CCCOc1cnc(-c2ccc(Oc3cccnc3)cc2)[n-]c1=O (protonated)
CCCOc1cnc(-c2ccc(Oc3cccnc3)cc2)[n-]c1=O (3D coordinates assigned)
CCCOc1cnc(-c2ccc(Oc3cccnc3)cc2)[n-]c1=O (optimized conformer: 50.506225304470604 kcal/mol)

>  <smiles>  (43) 
CCCOc1cnc(-c2ccc(Oc3cccnc3)cc2)[nH]c1=O

>  <score_type>  (43) 
oracle

>  <origin>  (43) 
adgpu

>  <m_score__min__energy>  (43) 
-8.0399999999999991

>  <m_primary>  (43) 
energy

$$$$
43:0
     RDKit          3D

 63 66  0  0  0  0  0  0  0  0999 V2000
   -4.3154   19.0411  -30.7505 H   0  0  0  0  0  0  0  0  0  0  0  0
   -4.2070   19.9590  -31.3470 C   0  0  0  0  0  0  0  0  0  0  0  0
   -4.6810   21.1720  -30.8430 C   0  0  0  0  0  0  0  0  0  0  0  0
   -5.1674   21.2035  -29.8569 H   0  0  0  0  0  0  0  0  0  0  0  0
   -4.5390   22.3480  -31.5890 C   0  0  0  0  0  0  0  0  0  0  0  0
   -5.0960   23.8870  -30.9350 S   0  0  0  0  0  0  0  0  0  0  0  0
   -5.9420   23.6180  -29.7200 O   0  0  0  0  0  0  0  0  0  0  0  0
   -5.9200   24.6250  -31.9530 O   0  0  0  0  0  0  0  0  0  0  0  0
   -3.7430   24.8750  -30.4780 N   0  0  0  0  0  0  0  0  0  0  0  0
   -2.8120   24.5050  -29.6520 C   0  0  0  0  0  0  0  0  0  0  0  0
   -1.7820   25.3000  -29.3140 N   0  0  0  0  0  0  0  0  0  0  0  0
   -1.0560   24.6220  -28.4730 O   0  0  0  0  0  0  0  0  0  0  0  0
   -1.5700   23.4330  -28.2500 C   0  0  0  0  0  0  0  0  0  0  0  0
   -0.9690   22.4030  -27.3520 C   0  0  0  0  0  0  0  0  0  0  0  0
   -1.1358   22.6889  -26.3030 H   0  0  0  0  0  0  0  0  0  0  0  0
   -1.4399   21.4279  -27.5457 H   0  0  0  0  0  0  0  0  0  0  0  0
    0.1116   22.3332  -27.5457 H   0  0  0  0  0  0  0  0  0  0  0  0
   -2.7200   23.2900  -28.9960 C   0  0  0  0  0  0  0  0  0  0  0  0
   -3.3967   22.4248  -29.0553 H   0  0  0  0  0  0  0  0  0  0  0  0
   -3.9230   22.2990  -32.8460 C   0  0  0  0  0  0  0  0  0  0  0  0
   -3.8102   23.2200  -33.4368 H   0  0  0  0  0  0  0  0  0  0  0  0
   -3.4510   21.0850  -33.3530 C   0  0  0  0  0  0  0  0  0  0  0  0
   -2.9655   21.0546  -34.3396 H   0  0  0  0  0  0  0  0  0  0  0  0
   -3.5950   19.9010  -32.6050 C   0  0  0  0  0  0  0  0  0  0  0  0
   -3.0600   18.6400  -33.0390 N   0  0  0  0  0  0  0  0  0  0  0  0
   -3.1570   18.0340  -34.3360 C   0  0  0  0  0  0  0  0  0  0  0  0
   -2.1260   17.7590  -35.0030 O   0  0  0  0  0  0  0  0  0  0  0  0
   -4.5090   17.8180  -34.9450 C   0  0  0  0  0  0  0  0  0  0  0  0
   -4.4276   17.0813  -35.7578 H   0  0  0  0  0  0  0  0  0  0  0  0
   -4.8809   18.7748  -35.3402 H   0  0  0  0  0  0  0  0  0  0  0  0
   -5.4470   17.3220  -33.9350 N   0  0  0  0  0  0  0  0  0  0  0  0
   -6.4230   18.2010  -33.3630 C   0  0  0  0  0  0  0  0  0  0  0  0
   -7.3150   17.7210  -32.3950 C   0  0  0  0  0  0  0  0  0  0  0  0
   -7.2792   16.6643  -32.0914 H   0  0  0  0  0  0  0  0  0  0  0  0
   -8.2510   18.5830  -31.8140 C   0  0  0  0  0  0  0  0  0  0  0  0
   -8.9490   18.2006  -31.0546 H   0  0  0  0  0  0  0  0  0  0  0  0
   -8.3050   19.9390  -32.1960 C   0  0  0  0  0  0  0  0  0  0  0  0
   -9.2120   20.8460  -31.6290 O   0  0  0  0  0  0  0  0  0  0  0  0
   -9.0210   22.2560  -31.5930 C   0  0  0  0  0  0  0  0  0  0  0  0
   -8.9753   22.5932  -30.5470 H   0  0  0  0  0  0  0  0  0  0  0  0
   -8.0800   22.5117  -32.1021 H   0  0  0  0  0  0  0  0  0  0  0  0
   -9.8601   22.7528  -32.1021 H   0  0  0  0  0  0  0  0  0  0  0  0
   -7.4220   20.4060  -33.1770 C   0  0  0  0  0  0  0  0  0  0  0  0
   -7.4628   21.4595  -33.4910 H   0  0  0  0  0  0  0  0  0  0  0  0
   -6.4900   19.5450  -33.7600 C   0  0  0  0  0  0  0  0  0  0  0  0
   -5.8053   19.9221  -34.5339 H   0  0  0  0  0  0  0  0  0  0  0  0
   -5.3340   15.6880  -33.3550 S   0  0  0  0  0  0  0  0  0  0  0  0
   -6.5050   14.8800  -33.8490 O   0  0  0  0  0  0  0  0  0  0  0  0
   -5.3610   15.6900  -31.8480 O   0  0  0  0  0  0  0  0  0  0  0  0
   -3.8390   14.9620  -33.9360 C   0  0  0  0  0  0  0  0  0  0  0  0
   -3.7280   14.5490  -35.2700 C   0  0  0  0  0  0  0  0  0  0  0  0
   -4.6028   14.6037  -35.9347 H   0  0  0  0  0  0  0  0  0  0  0  0
   -2.5090   14.0670  -35.7610 C   0  0  0  0  0  0  0  0  0  0  0  0
   -2.4236   13.7642  -36.8150 H   0  0  0  0  0  0  0  0  0  0  0  0
   -1.3960   13.9690  -34.9130 C   0  0  0  0  0  0  0  0  0  0  0  0
   -0.0750   13.4920  -35.4430 C   0  0  0  0  0  0  0  0  0  0  0  0
    0.5921   13.2511  -34.6022 H   0  0  0  0  0  0  0  0  0  0  0  0
   -0.2296   12.5929  -36.0576 H   0  0  0  0  0  0  0  0  0  0  0  0
    0.3805   14.2824  -36.0576 H   0  0  0  0  0  0  0  0  0  0  0  0
   -1.5100   14.3820  -33.5770 C   0  0  0  0  0  0  0  0  0  0  0  0
   -0.6379   14.3215  -32.9093 H   0  0  0  0  0  0  0  0  0  0  0  0
   -2.7260   14.8700  -33.0900 C   0  0  0  0  0  0  0  0  0  0  0  0
   -2.8094   15.1829  -32.0387 H   0  0  0  0  0  0  0  0  0  0  0  0
  1  2  1  0
  2  3  2  0
  3  4  1  0
  3  5  1  0
  5  6  1  0
  6  7  2  0
  6  8  2  0
  6  9  1  0
  9 10  2  0
 10 11  1  0
 11 12  1  0
 12 13  1  0
 13 14  1  0
 14 15  1  0
 14 16  1  0
 14 17  1  0
 13 18  2  0
 18 19  1  0
  5 20  2  0
 20 21  1  0
 20 22  1  0
 22 23  1  0
 22 24  2  0
 24 25  1  0
 25 26  1  0
 26 27  2  0
 26 28  1  0
 28 29  1  0
 28 30  1  0
 28 31  1  0
 31 32  1  0
 32 33  2  0
 33 34  1  0
 33 35  1  0
 35 36  1  0
 35 37  2  0
 37 38  1  0
 38 39  1  0
 39 40  1  0
 39 41  1  0
 39 42  1  0
 37 43  1  0
 43 44  1  0
 43 45  2  0
 45 46  1  0
 31 47  1  0
 47 48  2  0
 47 49  2  0
 47 50  1  0
 50 51  2  0
 51 52  1  0
 51 53  1  0
 53 54  1  0
 53 55  2  0
 55 56  1  0
 56 57  1  0
 56 58  1  0
 56 59  1  0
 55 60  1  0
 60 61  1  0
 60 62  2  0
 62 63  1  0
 24  2  1  0
 45 32  1  0
 62 50  1  0
 18 10  1  0
M  CHG  2  11  -1  25  -1
M  END
>  <UniqueID>  (44) 
39

>  <SMILES>  (44) 
COc1ccc(N(CC(=O)[N-]c2ccc(S(=O)(=O)/N=c3\cc(C)o[n-]3)cc2)S(=O)(=O)c2ccc(C)cc2)cc1

>  <Energy>  (44) 
103.3381069255804

>  <Genealogy>  (44) 
COc1ccc(N(CC(=O)[N-]c2ccc(S(=O)(=O)N=c3cc(C)o[n-]3)cc2)S(=O)(=O)c2ccc(C)cc2)cc1 (protonated)
COc1ccc(N(CC(=O)[N-]c2ccc(S(=O)(=O)/N=c3\cc(C)o[n-]3)cc2)S(=O)(=O)c2ccc(C)cc2)cc1 (cis-trans isomerization)
COc1ccc(N(CC(=O)[N-]c2ccc(S(=O)(=O)/N=c3\cc(C)o[n-]3)cc2)S(=O)(=O)c2ccc(C)cc2)cc1 (3D coordinates assigned)
COc1ccc(N(CC(=O)[N-]c2ccc(S(=O)(=O)/N=c3\cc(C)o[n-]3)cc2)S(=O)(=O)c2ccc(C)cc2)cc1 (optimized conformer: 103.3381069255804 kcal/mol)

>  <smiles>  (44) 
COc1ccc(N(CC(=O)Nc2ccc(S(=O)(=O)N=c3cc(C)o[nH]3)cc2)S(=O)(=O)c2ccc(C)cc2)cc1

>  <score_type>  (44) 
oracle

>  <origin>  (44) 
adgpu

>  <m_score__min__energy>  (44) 
-12.08

>  <m_primary>  (44) 
energy

$$$$
44:0
     RDKit          3D

 35 36  0  0  0  0  0  0  0  0999 V2000
   -1.9960   24.1820  -30.1520 H   0  0  0  0  0  0  0  0  0  0  0  0
   -2.5400   23.3310  -30.0720 O   0  0  0  0  0  0  0  0  0  0  0  0
   -3.8800   23.2840  -30.4530 C   0  0  0  0  0  0  0  0  0  0  0  0
   -4.5790   22.0690  -30.4450 C   0  0  0  0  0  0  0  0  0  0  0  0
   -4.0696   21.1449  -30.1343 H   0  0  0  0  0  0  0  0  0  0  0  0
   -5.9220   22.0290  -30.8310 C   0  0  0  0  0  0  0  0  0  0  0  0
   -6.4705   21.0758  -30.8060 H   0  0  0  0  0  0  0  0  0  0  0  0
   -6.5750   23.2010  -31.2510 C   0  0  0  0  0  0  0  0  0  0  0  0
   -8.0030   23.1940  -31.6400 C   0  0  0  0  0  0  0  0  0  0  0  0
   -8.5296   24.1597  -31.6461 H   0  0  0  0  0  0  0  0  0  0  0  0
   -8.7080   22.1050  -31.9860 C   0  0  0  0  0  0  0  0  0  0  0  0
   -9.7930   22.2266  -32.1198 H   0  0  0  0  0  0  0  0  0  0  0  0
   -8.1430   20.7540  -32.2020 C   0  0  0  0  0  0  0  0  0  0  0  0
   -8.5560   19.6570  -31.4300 C   0  0  0  0  0  0  0  0  0  0  0  0
   -9.3281   19.7907  -30.6580 H   0  0  0  0  0  0  0  0  0  0  0  0
   -7.9920   18.3980  -31.6370 C   0  0  0  0  0  0  0  0  0  0  0  0
   -8.3341   17.5410  -31.0383 H   0  0  0  0  0  0  0  0  0  0  0  0
   -6.9880   18.2170  -32.6070 C   0  0  0  0  0  0  0  0  0  0  0  0
   -6.4010   16.9640  -32.8450 O   0  0  0  0  0  0  0  0  0  0  0  0
   -6.5380   16.2250  -34.0550 C   0  0  0  0  0  0  0  0  0  0  0  0
   -6.7338   15.1686  -33.8193 H   0  0  0  0  0  0  0  0  0  0  0  0
   -7.3761   16.6316  -34.6401 H   0  0  0  0  0  0  0  0  0  0  0  0
   -5.6099   16.3042  -34.6401 H   0  0  0  0  0  0  0  0  0  0  0  0
   -6.5480   19.3150  -33.3610 C   0  0  0  0  0  0  0  0  0  0  0  0
   -5.5380   19.1060  -34.3140 O   0  0  0  0  0  0  0  0  0  0  0  0
   -4.1690   18.8680  -34.0000 C   0  0  0  0  0  0  0  0  0  0  0  0
   -4.0419   18.8459  -32.9076 H   0  0  0  0  0  0  0  0  0  0  0  0
   -3.8579   17.9023  -34.4250 H   0  0  0  0  0  0  0  0  0  0  0  0
   -3.5502   19.6720  -34.4250 H   0  0  0  0  0  0  0  0  0  0  0  0
   -7.1230   20.5830  -33.1470 C   0  0  0  0  0  0  0  0  0  0  0  0
   -6.7677   21.4472  -33.7275 H   0  0  0  0  0  0  0  0  0  0  0  0
   -5.8790   24.4190  -31.2290 C   0  0  0  0  0  0  0  0  0  0  0  0
   -6.3929   25.3478  -31.5176 H   0  0  0  0  0  0  0  0  0  0  0  0
   -4.5350   24.4590  -30.8420 C   0  0  0  0  0  0  0  0  0  0  0  0
   -3.8530   25.6710  -30.8430 O   0  0  0  0  0  0  0  0  0  0  0  0
  1  2  1  0
  2  3  1  0
  3  4  2  0
  4  5  1  0
  4  6  1  0
  6  7  1  0
  6  8  2  0
  8  9  1  0
  9 10  1  0
  9 11  2  0
 11 12  1  0
 11 13  1  0
 13 14  2  0
 14 15  1  0
 14 16  1  0
 16 17  1  0
 16 18  2  0
 18 19  1  0
 19 20  1  0
 20 21  1  0
 20 22  1  0
 20 23  1  0
 18 24  1  0
 24 25  1  0
 25 26  1  0
 26 27  1  0
 26 28  1  0
 26 29  1  0
 24 30  2  0
 30 31  1  0
  8 32  1  0
 32 33  1  0
 32 34  2  0
 34 35  1  0
 34  3  1  0
 30 13  1  0
M  CHG  1  35  -1
M  END
>  <UniqueID>  (45) 
40

>  <SMILES>  (45) 
COc1ccc(/C=C\c2ccc(O)c([O-])c2)cc1OC

>  <Energy>  (45) 
43.76693039274866

>  <Genealogy>  (45) 
COc1ccc(C=Cc2ccc(O)c([O-])c2)cc1OC (protonated)
COc1ccc(/C=C\c2ccc(O)c([O-])c2)cc1OC (cis-trans isomerization)
COc1ccc(/C=C\c2ccc(O)c([O-])c2)cc1OC (3D coordinates assigned)
COc1ccc(/C=C\c2ccc(O)c([O-])c2)cc1OC (optimized conformer: 43.76693039274866 kcal/mol)

>  <smiles>  (45) 
COc1ccc(C=Cc2ccc(O)c(O)c2)cc1OC

>  <score_type>  (45) 
oracle

>  <origin>  (45) 
adgpu

>  <m_score__min__energy>  (45) 
-9.8800000000000008

>  <m_primary>  (45) 
energy

$$$$
45:0
     RDKit          3D

 40 42  0  0  0  0  0  0  0  0999 V2000
   -5.5800   18.7580  -34.7690 O   0  0  0  0  0  0  0  0  0  0  0  0
   -6.5010   18.8470  -33.7310 C   0  0  0  0  0  0  0  0  0  0  0  0
   -6.8070   17.7160  -32.9690 C   0  0  0  0  0  0  0  0  0  0  0  0
   -7.7270   17.8060  -31.9220 C   0  0  0  0  0  0  0  0  0  0  0  0
   -8.3420   19.0280  -31.6310 C   0  0  0  0  0  0  0  0  0  0  0  0
   -8.0430   20.1680  -32.3950 C   0  0  0  0  0  0  0  0  0  0  0  0
   -8.6670   21.4980  -32.0540 C   0  0  0  0  0  0  0  0  0  0  0  0
   -8.6490   21.7660  -30.5430 C   0  0  0  0  0  0  0  0  0  0  0  0
   -7.5320   22.6570  -30.1780 N   0  0  0  0  0  0  0  0  0  0  0  0
   -7.2470   23.6810  -31.1940 C   0  0  0  0  0  0  0  0  0  0  0  0
   -5.8750   24.2650  -31.0100 C   0  0  0  0  0  0  0  0  0  0  0  0
   -5.5980   25.5190  -30.5110 C   0  0  0  0  0  0  0  0  0  0  0  0
   -4.2650   25.6790  -30.4220 N   0  0  0  0  0  0  0  0  0  0  0  0
   -3.6790   24.5680  -30.8420 N   0  0  0  0  0  0  0  0  0  0  0  0
   -4.6280   23.6860  -31.2160 C   0  0  0  0  0  0  0  0  0  0  0  0
   -4.3060   22.3180  -31.6860 C   0  0  0  0  0  0  0  0  0  0  0  0
   -4.5370   21.1840  -30.8870 C   0  0  0  0  0  0  0  0  0  0  0  0
   -4.2500   19.9040  -31.3700 C   0  0  0  0  0  0  0  0  0  0  0  0
   -3.7330   19.7380  -32.6620 C   0  0  0  0  0  0  0  0  0  0  0  0
   -3.4420   18.4670  -33.1530 O   0  0  0  0  0  0  0  0  0  0  0  0
   -3.5130   20.8580  -33.4670 C   0  0  0  0  0  0  0  0  0  0  0  0
   -3.8050   22.1380  -32.9870 C   0  0  0  0  0  0  0  0  0  0  0  0
   -7.1190   20.0700  -33.4480 C   0  0  0  0  0  0  0  0  0  0  0  0
   -6.3229   16.7542  -33.1941 H   0  0  0  0  0  0  0  0  0  0  0  0
   -7.9684   16.9141  -31.3251 H   0  0  0  0  0  0  0  0  0  0  0  0
   -9.0616   19.0964  -30.8018 H   0  0  0  0  0  0  0  0  0  0  0  0
   -8.1062   22.2954  -32.5636 H   0  0  0  0  0  0  0  0  0  0  0  0
   -9.7158   21.4782  -32.3850 H   0  0  0  0  0  0  0  0  0  0  0  0
   -9.5976   22.2398  -30.2503 H   0  0  0  0  0  0  0  0  0  0  0  0
   -8.5191   20.8079  -30.0185 H   0  0  0  0  0  0  0  0  0  0  0  0
   -7.7940   23.1620  -29.2980 H   0  0  0  0  0  0  0  0  0  0  0  0
   -7.3107   23.2230  -32.1921 H   0  0  0  0  0  0  0  0  0  0  0  0
   -7.9856   24.4894  -31.0891 H   0  0  0  0  0  0  0  0  0  0  0  0
   -6.3491   26.2717  -30.2294 H   0  0  0  0  0  0  0  0  0  0  0  0
   -4.9470   21.3053  -29.8735 H   0  0  0  0  0  0  0  0  0  0  0  0
   -4.4304   19.0246  -30.7343 H   0  0  0  0  0  0  0  0  0  0  0  0
   -4.0040   18.0380  -33.8780 H   0  0  0  0  0  0  0  0  0  0  0  0
   -3.1086   20.7324  -34.4822 H   0  0  0  0  0  0  0  0  0  0  0  0
   -3.6412   23.0127  -33.6335 H   0  0  0  0  0  0  0  0  0  0  0  0
   -6.8803   20.9576  -34.0523 H   0  0  0  0  0  0  0  0  0  0  0  0
  1  2  1  0
  2  3  2  0
  3  4  1  0
  4  5  2  0
  5  6  1  0
  6  7  1  0
  7  8  1  0
  8  9  1  0
  9 10  1  0
 10 11  1  0
 11 12  1  0
 12 13  2  0
 13 14  1  0
 14 15  1  0
 15 16  1  0
 16 17  2  0
 17 18  1  0
 18 19  2  0
 19 20  1  0
 19 21  1  0
 21 22  2  0
  6 23  2  0
 23  2  1  0
 15 11  2  0
 22 16  1  0
  3 24  1  0
  4 25  1  0
  5 26  1  0
  7 27  1  0
  7 28  1  0
  8 29  1  0
  8 30  1  0
  9 31  1  0
 10 32  1  0
 10 33  1  0
 12 34  1  0
 17 35  1  0
 18 36  1  0
 20 37  1  0
 21 38  1  0
 22 39  1  0
 23 40  1  0
M  CHG  2   1  -1  14  -1
M  END
>  <UniqueID>  (46) 
41

>  <SMILES>  (46) 
[O-]c1cccc(CCNCc2cn[n-]c2-c2ccc(O)cc2)c1

>  <Energy>  (46) 
72.02255904505253

>  <Genealogy>  (46) 
[O-]c1cccc(CCNCc2cn[n-]c2-c2ccc(O)cc2)c1 (protonated)
[O-]c1cccc(CCNCc2cn[n-]c2-c2ccc(O)cc2)c1 (3D coordinates assigned)
[O-]c1cccc(CCNCc2cn[n-]c2-c2ccc(O)cc2)c1 (optimized conformer: 72.02255904505253 kcal/mol)

>  <smiles>  (46) 
Oc1ccc(-c2[nH]ncc2CNCCc2cccc(O)c2)cc1

>  <score_type>  (46) 
oracle

>  <origin>  (46) 
adgpu

>  <m_score__min__energy>  (46) 
-11.57

>  <m_primary>  (46) 
energy

$$$$
46:0
     RDKit          3D

 64 68  0  0  0  0  0  0  0  0999 V2000
   -4.8730   17.2410  -35.4470 O   0  0  0  0  0  0  0  0  0  0  0  0
   -4.5340   18.1210  -34.6080 C   0  0  0  0  0  0  0  0  0  0  0  0
   -5.4190   19.2100  -34.3070 N   0  0  0  0  0  0  0  0  0  0  0  0
   -6.4660   19.2360  -33.3240 C   0  0  0  0  0  0  0  0  0  0  0  0
   -7.1630   18.0770  -32.9310 C   0  0  0  0  0  0  0  0  0  0  0  0
   -8.1760   18.1570  -31.9700 C   0  0  0  0  0  0  0  0  0  0  0  0
   -8.5130   19.3870  -31.4040 C   0  0  0  0  0  0  0  0  0  0  0  0
   -7.8560   20.5550  -31.8160 C   0  0  0  0  0  0  0  0  0  0  0  0
   -8.3030   22.1180  -31.1320 S   0  0  0  0  0  0  0  0  0  0  0  0
   -9.4950   21.9300  -30.2350 O   0  0  0  0  0  0  0  0  0  0  0  0
   -8.6880   23.0620  -32.2380 O   0  0  0  0  0  0  0  0  0  0  0  0
   -6.9660   22.7760  -30.2110 N   0  0  0  0  0  0  0  0  0  0  0  0
   -5.6710   22.2020  -30.6590 C   0  0  0  0  0  0  0  0  0  0  0  0
   -4.8880   23.1810  -31.5530 C   0  0  0  0  0  0  0  0  0  0  0  0
   -4.5840   24.4050  -30.8970 O   0  0  0  0  0  0  0  0  0  0  0  0
   -5.5940   24.8420  -29.9970 C   0  0  0  0  0  0  0  0  0  0  0  0
   -6.9900   24.2530  -30.2830 C   0  0  0  0  0  0  0  0  0  0  0  0
   -6.8420   20.4740  -32.7820 C   0  0  0  0  0  0  0  0  0  0  0  0
   -3.2440   17.9910  -33.8920 C   0  0  0  0  0  0  0  0  0  0  0  0
   -2.6530   16.7280  -33.6970 C   0  0  0  0  0  0  0  0  0  0  0  0
   -1.4230   16.6160  -33.0460 C   0  0  0  0  0  0  0  0  0  0  0  0
   -0.7690   17.7560  -32.5760 C   0  0  0  0  0  0  0  0  0  0  0  0
   -1.3500   19.0200  -32.7490 C   0  0  0  0  0  0  0  0  0  0  0  0
   -0.5240   20.4720  -32.1870 S   0  0  0  0  0  0  0  0  0  0  0  0
   -0.6720   21.5560  -33.2190 O   0  0  0  0  0  0  0  0  0  0  0  0
    0.9330   20.1480  -32.0150 O   0  0  0  0  0  0  0  0  0  0  0  0
   -1.1920   21.0170  -30.6660 N   0  0  0  0  0  0  0  0  0  0  0  0
   -2.5940   20.5830  -30.5560 C   0  0  0  0  0  0  0  0  0  0  0  0
   -3.1070   20.8720  -29.1430 C   0  0  0  0  0  0  0  0  0  0  0  0
   -2.8010   22.2840  -28.7210 C   0  0  0  0  0  0  0  0  0  0  0  0
   -3.4620   22.8330  -27.6100 C   0  0  0  0  0  0  0  0  0  0  0  0
   -3.1520   24.1230  -27.1720 C   0  0  0  0  0  0  0  0  0  0  0  0
   -2.1740   24.8700  -27.8300 C   0  0  0  0  0  0  0  0  0  0  0  0
   -1.5010   24.3310  -28.9290 C   0  0  0  0  0  0  0  0  0  0  0  0
   -1.7960   23.0310  -29.3710 C   0  0  0  0  0  0  0  0  0  0  0  0
   -1.1100   22.4890  -30.6000 C   0  0  0  0  0  0  0  0  0  0  0  0
   -2.5790   19.1350  -33.4100 C   0  0  0  0  0  0  0  0  0  0  0  0
   -6.9099   17.1058  -33.3813 H   0  0  0  0  0  0  0  0  0  0  0  0
   -8.7092   17.2465  -31.6591 H   0  0  0  0  0  0  0  0  0  0  0  0
   -9.2957   19.4404  -30.6330 H   0  0  0  0  0  0  0  0  0  0  0  0
   -7.1190   22.4940  -29.2130 H   0  0  0  0  0  0  0  0  0  0  0  0
   -5.0624   21.9639  -29.7742 H   0  0  0  0  0  0  0  0  0  0  0  0
   -5.8843   21.2980  -31.2484 H   0  0  0  0  0  0  0  0  0  0  0  0
   -3.9456   22.7020  -31.8571 H   0  0  0  0  0  0  0  0  0  0  0  0
   -5.5235   23.4188  -32.4188 H   0  0  0  0  0  0  0  0  0  0  0  0
   -5.2984   24.5509  -28.9783 H   0  0  0  0  0  0  0  0  0  0  0  0
   -5.6784   25.9319  -30.1199 H   0  0  0  0  0  0  0  0  0  0  0  0
   -7.7025   24.6381  -29.5386 H   0  0  0  0  0  0  0  0  0  0  0  0
   -7.2950   24.5499  -31.2973 H   0  0  0  0  0  0  0  0  0  0  0  0
   -6.3363   21.3912  -33.1181 H   0  0  0  0  0  0  0  0  0  0  0  0
   -3.1636   15.8238  -34.0599 H   0  0  0  0  0  0  0  0  0  0  0  0
   -0.9674   15.6251  -32.9029 H   0  0  0  0  0  0  0  0  0  0  0  0
    0.2030   17.6625  -32.0695 H   0  0  0  0  0  0  0  0  0  0  0  0
   -3.2061   21.1307  -31.2877 H   0  0  0  0  0  0  0  0  0  0  0  0
   -2.6611   19.5037  -30.7574 H   0  0  0  0  0  0  0  0  0  0  0  0
   -4.1963   20.7208  -29.1207 H   0  0  0  0  0  0  0  0  0  0  0  0
   -2.6013   20.1872  -28.4464 H   0  0  0  0  0  0  0  0  0  0  0  0
   -4.2272   22.2447  -27.0824 H   0  0  0  0  0  0  0  0  0  0  0  0
   -3.6798   24.5506  -26.3068 H   0  0  0  0  0  0  0  0  0  0  0  0
   -1.9326   25.8854  -27.4825 H   0  0  0  0  0  0  0  0  0  0  0  0
   -0.7372   24.9269  -29.4501 H   0  0  0  0  0  0  0  0  0  0  0  0
   -1.5914   22.9133  -31.4934 H   0  0  0  0  0  0  0  0  0  0  0  0
   -0.0480   22.7717  -30.5529 H   0  0  0  0  0  0  0  0  0  0  0  0
   -3.0293   20.1282  -33.5541 H   0  0  0  0  0  0  0  0  0  0  0  0
  1  2  2  0
  2  3  1  0
  3  4  1  0
  4  5  2  0
  5  6  1  0
  6  7  2  0
  7  8  1  0
  8  9  1  0
  9 10  2  0
  9 11  2  0
  9 12  1  0
 12 13  1  0
 13 14  1  0
 14 15  1  0
 15 16  1  0
 16 17  1  0
  8 18  2  0
  2 19  1  0
 19 20  2  0
 20 21  1  0
 21 22  2  0
 22 23  1  0
 23 24  1  0
 24 25  2  0
 24 26  2  0
 24 27  1  0
 27 28  1  0
 28 29  1  0
 29 30  1  0
 30 31  2  0
 31 32  1  0
 32 33  2  0
 33 34  1  0
 34 35  2  0
 35 36  1  0
 23 37  2  0
 18  4  1  0
 37 19  1  0
 17 12  1  0
 36 27  1  0
 35 30  1  0
  5 38  1  0
  6 39  1  0
  7 40  1  0
 12 41  1  0
 13 42  1  0
 13 43  1  0
 14 44  1  0
 14 45  1  0
 16 46  1  0
 16 47  1  0
 17 48  1  0
 17 49  1  0
 18 50  1  0
 20 51  1  0
 21 52  1  0
 22 53  1  0
 28 54  1  0
 28 55  1  0
 29 56  1  0
 29 57  1  0
 31 58  1  0
 32 59  1  0
 33 60  1  0
 34 61  1  0
 36 62  1  0
 36 63  1  0
 37 64  1  0
M  CHG  2   3  -1  12   1
M  END
>  <UniqueID>  (47) 
42

>  <SMILES>  (47) 
O=C([N-]c1cccc(S(=O)(=O)[NH+]2CCOCC2)c1)c1cccc(S(=O)(=O)N2CCc3ccccc3C2)c1

>  <Energy>  (47) 
87.43332905655937

>  <Genealogy>  (47) 
O=C([N-]c1cccc(S(=O)(=O)[NH+]2CCOCC2)c1)c1cccc(S(=O)(=O)N2CCc3ccccc3C2)c1 (protonated)
O=C([N-]c1cccc(S(=O)(=O)[NH+]2CCOCC2)c1)c1cccc(S(=O)(=O)N2CCc3ccccc3C2)c1 (3D coordinates assigned)
O=C([N-]c1cccc(S(=O)(=O)[NH+]2CCOCC2)c1)c1cccc(S(=O)(=O)N2CCc3ccccc3C2)c1 (nonaromatic ring conformer: 87.43332905655937 kcal/mol)

>  <smiles>  (47) 
O=C(Nc1cccc(S(=O)(=O)N2CCOCC2)c1)c1cccc(S(=O)(=O)N2CCc3ccccc3C2)c1

>  <score_type>  (47) 
oracle

>  <origin>  (47) 
adgpu

>  <m_score__min__energy>  (47) 
-12.59

>  <m_primary>  (47) 
energy

$$$$
47:0
     RDKit          3D

 39 41  0  0  0  0  0  0  0  0999 V2000
   -5.3890   26.3910  -30.4540 O   0  0  0  0  0  0  0  0  0  0  0  0
   -4.9030   25.2330  -30.5400 C   0  0  0  0  0  0  0  0  0  0  0  0
   -3.4910   25.0670  -30.3460 N   0  0  0  0  0  0  0  0  0  0  0  0
   -2.8630   24.1690  -29.4180 C   0  0  0  0  0  0  0  0  0  0  0  0
   -3.6140   23.2890  -28.6170 C   0  0  0  0  0  0  0  0  0  0  0  0
   -2.9710   22.4390  -27.7130 C   0  0  0  0  0  0  0  0  0  0  0  0
   -1.5790   22.4700  -27.5920 C   0  0  0  0  0  0  0  0  0  0  0  0
   -0.8290   23.3580  -28.3680 C   0  0  0  0  0  0  0  0  0  0  0  0
    0.5200   23.3950  -28.2420 F   0  0  0  0  0  0  0  0  0  0  0  0
   -1.4710   24.2090  -29.2730 C   0  0  0  0  0  0  0  0  0  0  0  0
   -5.7880   24.0970  -30.8900 C   0  0  0  0  0  0  0  0  0  0  0  0
   -5.5240   23.3240  -32.0340 C   0  0  0  0  0  0  0  0  0  0  0  0
   -6.3550   22.2510  -32.3700 C   0  0  0  0  0  0  0  0  0  0  0  0
   -7.4500   21.9260  -31.5620 C   0  0  0  0  0  0  0  0  0  0  0  0
   -8.5010   20.5820  -31.9980 S   0  0  0  0  0  0  0  0  0  0  0  0
   -8.5780   19.6130  -30.8500 O   0  0  0  0  0  0  0  0  0  0  0  0
   -9.8700   21.1150  -32.3140 O   0  0  0  0  0  0  0  0  0  0  0  0
   -7.8450   19.7700  -33.3820 N   0  0  0  0  0  0  0  0  0  0  0  0
   -6.8050   18.7840  -33.3460 C   0  0  0  0  0  0  0  0  0  0  0  0
   -5.7840   18.8510  -34.3050 C   0  0  0  0  0  0  0  0  0  0  0  0
   -4.7510   17.9090  -34.3040 C   0  0  0  0  0  0  0  0  0  0  0  0
   -4.7290   16.8930  -33.3450 C   0  0  0  0  0  0  0  0  0  0  0  0
   -5.7420   16.8190  -32.3860 C   0  0  0  0  0  0  0  0  0  0  0  0
   -6.7780   17.7590  -32.3830 C   0  0  0  0  0  0  0  0  0  0  0  0
   -7.7130   22.6870  -30.4160 C   0  0  0  0  0  0  0  0  0  0  0  0
   -6.8840   23.7590  -30.0770 C   0  0  0  0  0  0  0  0  0  0  0  0
   -4.7105   23.2700  -28.7026 H   0  0  0  0  0  0  0  0  0  0  0  0
   -3.5609   21.7450  -27.0962 H   0  0  0  0  0  0  0  0  0  0  0  0
   -1.0734   21.7951  -26.8856 H   0  0  0  0  0  0  0  0  0  0  0  0
   -0.8788   24.9142  -29.8747 H   0  0  0  0  0  0  0  0  0  0  0  0
   -4.6584   23.5647  -32.6687 H   0  0  0  0  0  0  0  0  0  0  0  0
   -6.1469   21.6596  -33.2738 H   0  0  0  0  0  0  0  0  0  0  0  0
   -5.7960   19.6490  -35.0620 H   0  0  0  0  0  0  0  0  0  0  0  0
   -3.9539   17.9678  -35.0597 H   0  0  0  0  0  0  0  0  0  0  0  0
   -3.9154   16.1527  -33.3452 H   0  0  0  0  0  0  0  0  0  0  0  0
   -5.7250   16.0192  -31.6310 H   0  0  0  0  0  0  0  0  0  0  0  0
   -7.5734   17.6965  -31.6258 H   0  0  0  0  0  0  0  0  0  0  0  0
   -8.5759   22.4395  -29.7803 H   0  0  0  0  0  0  0  0  0  0  0  0
   -7.0902   24.3427  -29.1677 H   0  0  0  0  0  0  0  0  0  0  0  0
  1  2  2  0
  2  3  1  0
  3  4  1  0
  4  5  2  0
  5  6  1  0
  6  7  2  0
  7  8  1  0
  8  9  1  0
  8 10  2  0
  2 11  1  0
 11 12  2  0
 12 13  1  0
 13 14  2  0
 14 15  1  0
 15 16  2  0
 15 17  2  0
 15 18  1  0
 18 19  1  0
 19 20  2  0
 20 21  1  0
 21 22  2  0
 22 23  1  0
 23 24  2  0
 14 25  1  0
 25 26  2  0
 10  4  1  0
 26 11  1  0
 24 19  1  0
  5 27  1  0
  6 28  1  0
  7 29  1  0
 10 30  1  0
 12 31  1  0
 13 32  1  0
 20 33  1  0
 21 34  1  0
 22 35  1  0
 23 36  1  0
 24 37  1  0
 25 38  1  0
 26 39  1  0
M  CHG  2   3  -1  18  -1
M  END
>  <UniqueID>  (48) 
43

>  <SMILES>  (48) 
O=C([N-]c1cccc(F)c1)c1ccc(S(=O)(=O)[N-]c2ccccc2)cc1

>  <Energy>  (48) 
52.9413510414674

>  <Genealogy>  (48) 
O=C([N-]c1cccc(F)c1)c1ccc(S(=O)(=O)[N-]c2ccccc2)cc1 (protonated)
O=C([N-]c1cccc(F)c1)c1ccc(S(=O)(=O)[N-]c2ccccc2)cc1 (3D coordinates assigned)
O=C([N-]c1cccc(F)c1)c1ccc(S(=O)(=O)[N-]c2ccccc2)cc1 (optimized conformer: 52.9413510414674 kcal/mol)

>  <smiles>  (48) 
O=C(Nc1cccc(F)c1)c1ccc(S(=O)(=O)Nc2ccccc2)cc1

>  <score_type>  (48) 
oracle

>  <origin>  (48) 
adgpu

>  <m_score__min__energy>  (48) 
-10.65

>  <m_primary>  (48) 
energy

$$$$
48:0
     RDKit          3D

 63 66  0  0  0  0  0  0  0  0999 V2000
   -2.2353   18.4610  -26.0412 H   0  0  0  0  0  0  0  0  0  0  0  0
   -2.0890   19.2270  -26.8170 C   0  0  0  0  0  0  0  0  0  0  0  0
   -3.1080   20.1310  -27.1020 C   0  0  0  0  0  0  0  0  0  0  0  0
   -4.0589   20.0783  -26.5516 H   0  0  0  0  0  0  0  0  0  0  0  0
   -2.9250   21.1030  -28.0840 C   0  0  0  0  0  0  0  0  0  0  0  0
   -3.7332   21.8189  -28.2943 H   0  0  0  0  0  0  0  0  0  0  0  0
   -1.7220   21.1830  -28.8110 C   0  0  0  0  0  0  0  0  0  0  0  0
   -1.6380   22.2870  -29.8560 C   0  0  0  0  0  0  0  0  0  0  0  0
   -1.2110   23.1791  -29.3745 H   0  0  0  0  0  0  0  0  0  0  0  0
   -1.0177   21.8875  -30.6719 H   0  0  0  0  0  0  0  0  0  0  0  0
   -2.9280   22.6730  -30.4730 N   0  0  0  0  0  0  0  0  0  0  0  0
   -3.5030   21.7810  -31.3570 C   0  0  0  0  0  0  0  0  0  0  0  0
   -3.0250   20.6150  -31.4710 O   0  0  0  0  0  0  0  0  0  0  0  0
   -4.5900   22.1360  -32.1140 N   0  0  0  0  0  0  0  0  0  0  0  0
   -5.1900   21.1950  -33.0870 C   0  0  0  0  0  0  0  0  0  0  0  0
   -5.4499   21.7443  -34.0039 H   0  0  0  0  0  0  0  0  0  0  0  0
   -4.4573   20.4036  -33.3034 H   0  0  0  0  0  0  0  0  0  0  0  0
   -6.4430   20.5490  -32.5250 C   0  0  0  0  0  0  0  0  0  0  0  0
   -7.2230   21.3060  -31.6290 C   0  0  0  0  0  0  0  0  0  0  0  0
   -6.9073   22.3259  -31.3641 H   0  0  0  0  0  0  0  0  0  0  0  0
   -8.3890   20.7820  -31.0730 C   0  0  0  0  0  0  0  0  0  0  0  0
   -8.9951   21.3945  -30.3893 H   0  0  0  0  0  0  0  0  0  0  0  0
   -8.7870   19.4850  -31.3820 C   0  0  0  0  0  0  0  0  0  0  0  0
   -9.7136   19.0770  -30.9521 H   0  0  0  0  0  0  0  0  0  0  0  0
   -8.0110   18.7020  -32.2370 C   0  0  0  0  0  0  0  0  0  0  0  0
   -8.3251   17.6725  -32.4638 H   0  0  0  0  0  0  0  0  0  0  0  0
   -6.8330   19.2100  -32.8130 C   0  0  0  0  0  0  0  0  0  0  0  0
   -5.8690   18.1140  -33.8260 S   0  0  0  0  0  0  0  0  0  0  0  0
   -5.9530   18.5390  -35.2650 O   0  0  0  0  0  0  0  0  0  0  0  0
   -4.4240   18.1510  -33.4140 O   0  0  0  0  0  0  0  0  0  0  0  0
   -6.5040   16.4550  -33.7100 C   0  0  0  0  0  0  0  0  0  0  0  0
   -6.6106   16.1764  -32.6512 H   0  0  0  0  0  0  0  0  0  0  0  0
   -7.4857   16.4028  -34.2035 H   0  0  0  0  0  0  0  0  0  0  0  0
   -5.8081   15.7607  -34.2035 H   0  0  0  0  0  0  0  0  0  0  0  0
   -5.1170   23.3850  -31.9690 C   0  0  0  0  0  0  0  0  0  0  0  0
   -6.1110   23.7520  -32.6510 O   0  0  0  0  0  0  0  0  0  0  0  0
   -4.5850   24.2430  -31.0780 N   0  0  0  0  0  0  0  0  0  0  0  0
   -3.5230   23.9150  -30.3080 C   0  0  0  0  0  0  0  0  0  0  0  0
   -3.1520   24.8150  -29.4310 N   0  0  0  0  0  0  0  0  0  0  0  0
   -2.2060   24.7730  -28.3600 C   0  0  0  0  0  0  0  0  0  0  0  0
   -2.5900   24.3070  -27.0950 C   0  0  0  0  0  0  0  0  0  0  0  0
   -3.6326   24.0072  -26.9128 H   0  0  0  0  0  0  0  0  0  0  0  0
   -1.6480   24.2230  -26.0640 C   0  0  0  0  0  0  0  0  0  0  0  0
   -1.9595   23.8913  -25.0625 H   0  0  0  0  0  0  0  0  0  0  0  0
   -0.3090   24.5600  -26.3030 C   0  0  0  0  0  0  0  0  0  0  0  0
    0.8780   24.4790  -25.0060 S   0  0  0  0  0  0  0  0  0  0  0  0
    2.2370   24.8470  -25.5330 O   0  0  0  0  0  0  0  0  0  0  0  0
    0.9350   23.0800  -24.4600 O   0  0  0  0  0  0  0  0  0  0  0  0
    0.4310   25.5790  -23.7500 N   0  0  0  0  0  0  0  0  0  0  0  0
    1.2580   25.6730  -23.1180 H   0  0  0  0  0  0  0  0  0  0  0  0
   -0.3220   25.1150  -23.1930 H   0  0  0  0  0  0  0  0  0  0  0  0
    0.0900   24.9410  -27.5920 C   0  0  0  0  0  0  0  0  0  0  0  0
    1.1463   25.1716  -27.7947 H   0  0  0  0  0  0  0  0  0  0  0  0
   -0.8530   25.0280  -28.6190 C   0  0  0  0  0  0  0  0  0  0  0  0
   -0.5317   25.2980  -29.6358 H   0  0  0  0  0  0  0  0  0  0  0  0
   -0.6800   20.2620  -28.5180 C   0  0  0  0  0  0  0  0  0  0  0  0
    0.5220   20.3040  -29.2430 O   0  0  0  0  0  0  0  0  0  0  0  0
    0.8680   19.4180  -30.3020 C   0  0  0  0  0  0  0  0  0  0  0  0
    1.2378   18.4711  -29.8818 H   0  0  0  0  0  0  0  0  0  0  0  0
   -0.0198   19.2224  -30.9213 H   0  0  0  0  0  0  0  0  0  0  0  0
    1.6534   19.8758  -30.9213 H   0  0  0  0  0  0  0  0  0  0  0  0
   -0.8820   19.2910  -27.5140 C   0  0  0  0  0  0  0  0  0  0  0  0
   -0.0792   18.5769  -27.2784 H   0  0  0  0  0  0  0  0  0  0  0  0
  1  2  1  0
  2  3  2  0
  3  4  1  0
  3  5  1  0
  5  6  1  0
  5  7  2  0
  7  8  1  0
  8  9  1  0
  8 10  1  0
  8 11  1  0
 11 12  1  0
 12 13  2  0
 12 14  1  0
 14 15  1  0
 15 16  1  0
 15 17  1  0
 15 18  1  0
 18 19  2  0
 19 20  1  0
 19 21  1  0
 21 22  1  0
 21 23  2  0
 23 24  1  0
 23 25  1  0
 25 26  1  0
 25 27  2  0
 27 28  1  0
 28 29  2  0
 28 30  2  0
 28 31  1  0
 31 32  1  0
 31 33  1  0
 31 34  1  0
 14 35  1  0
 35 36  2  0
 35 37  1  0
 37 38  1  0
 38 39  2  0
 39 40  1  0
 40 41  2  0
 41 42  1  0
 41 43  1  0
 43 44  1  0
 43 45  2  0
 45 46  1  0
 46 47  2  0
 46 48  2  0
 46 49  1  0
 49 50  1  0
 49 51  1  0
 45 52  1  0
 52 53  1  0
 52 54  2  0
 54 55  1  0
  7 56  1  0
 56 57  1  0
 57 58  1  0
 58 59  1  0
 58 60  1  0
 58 61  1  0
 56 62  2  0
 62 63  1  0
 62  2  1  0
 38 11  1  0
 54 40  1  0
 27 18  1  0
M  CHG  1  37  -1
M  END
>  <UniqueID>  (49) 
44

>  <SMILES>  (49) 
COc1ccccc1Cn1c(=O)n(Cc2ccccc2S(C)(=O)=O)c(=O)[n-]/c1=N/c1ccc(S(N)(=O)=O)cc1

>  <Energy>  (49) 
95.60649762961569

>  <Genealogy>  (49) 
COc1ccccc1Cn1c(=Nc2ccc(S(N)(=O)=O)cc2)[n-]c(=O)n(Cc2ccccc2S(C)(=O)=O)c1=O (protonated)
COc1ccccc1Cn1c(=O)n(Cc2ccccc2S(C)(=O)=O)c(=O)[n-]/c1=N/c1ccc(S(N)(=O)=O)cc1 (cis-trans isomerization)
COc1ccccc1Cn1c(=O)n(Cc2ccccc2S(C)(=O)=O)c(=O)[n-]/c1=N/c1ccc(S(N)(=O)=O)cc1 (3D coordinates assigned)
COc1ccccc1Cn1c(=O)n(Cc2ccccc2S(C)(=O)=O)c(=O)[n-]/c1=N/c1ccc(S(N)(=O)=O)cc1 (optimized conformer: 95.60649762961569 kcal/mol)

>  <smiles>  (49) 
COc1ccccc1Cn1c(=Nc2ccc(S(N)(=O)=O)cc2)[nH]c(=O)n(Cc2ccccc2S(C)(=O)=O)c1=O

>  <score_type>  (49) 
oracle

>  <origin>  (49) 
adgpu

>  <m_score__min__energy>  (49) 
-12.109999999999999

>  <m_primary>  (49) 
energy

$$$$
49:0
     RDKit          3D

 59 62  0  0  0  0  0  0  0  0999 V2000
   -3.1160   20.4660  -32.0690 C   0  0  0  0  0  0  0  0  0  0  0  0
   -2.1930   19.7910  -32.9200 O   0  0  0  0  0  0  0  0  0  0  0  0
   -2.3930   18.5030  -33.4400 C   0  0  0  0  0  0  0  0  0  0  0  0
   -1.7330   17.4280  -32.8300 C   0  0  0  0  0  0  0  0  0  0  0  0
   -1.8920   16.1270  -33.3200 C   0  0  0  0  0  0  0  0  0  0  0  0
   -2.7090   15.8850  -34.4340 C   0  0  0  0  0  0  0  0  0  0  0  0
   -2.8620   14.5530  -34.9500 N   0  0  0  0  0  0  0  0  0  0  0  0
   -3.7320   13.6090  -34.5460 C   0  0  0  0  0  0  0  0  0  0  0  0
   -4.8620   13.7770  -33.1600 S   0  0  0  0  0  0  0  0  0  0  0  0
   -6.0050   14.9040  -34.0340 C   0  0  0  0  0  0  0  0  0  0  0  0
   -6.0470   16.2380  -33.3550 C   0  0  0  0  0  0  0  0  0  0  0  0
   -5.6970   16.3280  -32.1460 O   0  0  0  0  0  0  0  0  0  0  0  0
   -6.5520   17.3820  -34.0590 N   0  0  0  0  0  0  0  0  0  0  0  0
   -6.8270   18.6380  -33.4200 C   0  0  0  0  0  0  0  0  0  0  0  0
   -5.9880   19.7500  -33.6080 C   0  0  0  0  0  0  0  0  0  0  0  0
   -6.2690   20.9600  -32.9670 C   0  0  0  0  0  0  0  0  0  0  0  0
   -7.3840   21.0710  -32.1230 C   0  0  0  0  0  0  0  0  0  0  0  0
   -7.7120   22.5870  -31.2750 S   0  0  0  0  0  0  0  0  0  0  0  0
   -8.7990   23.3300  -32.0000 O   0  0  0  0  0  0  0  0  0  0  0  0
   -8.2030   22.2790  -29.8870 O   0  0  0  0  0  0  0  0  0  0  0  0
   -6.2880   23.5930  -31.1590 N   0  0  0  0  0  0  0  0  0  0  0  0
   -5.2470   22.9350  -30.3560 C   0  0  0  0  0  0  0  0  0  0  0  0
   -3.9800   23.8160  -30.3280 C   0  0  0  0  0  0  0  0  0  0  0  0
   -4.2130   25.1160  -30.8520 O   0  0  0  0  0  0  0  0  0  0  0  0
   -5.3470   25.6920  -30.2290 C   0  0  0  0  0  0  0  0  0  0  0  0
   -6.6270   24.9040  -30.5750 C   0  0  0  0  0  0  0  0  0  0  0  0
   -8.2360   19.9700  -31.9560 C   0  0  0  0  0  0  0  0  0  0  0  0
   -7.9640   18.7650  -32.6100 C   0  0  0  0  0  0  0  0  0  0  0  0
   -3.6190   12.4870  -35.2790 N   0  0  0  0  0  0  0  0  0  0  0  0
   -2.6710   12.7060  -36.1770 N   0  0  0  0  0  0  0  0  0  0  0  0
   -2.2210   13.9620  -35.9810 C   0  0  0  0  0  0  0  0  0  0  0  0
   -1.1380   14.5860  -36.8120 C   0  0  0  0  0  0  0  0  0  0  0  0
   -1.6860   15.1610  -37.9450 F   0  0  0  0  0  0  0  0  0  0  0  0
   -0.2300   13.6160  -37.1950 F   0  0  0  0  0  0  0  0  0  0  0  0
   -0.4840   15.5700  -36.0910 F   0  0  0  0  0  0  0  0  0  0  0  0
   -3.3810   16.9560  -35.0390 C   0  0  0  0  0  0  0  0  0  0  0  0
   -3.2270   18.2570  -34.5470 C   0  0  0  0  0  0  0  0  0  0  0  0
   -2.8536   20.2741  -31.0181 H   0  0  0  0  0  0  0  0  0  0  0  0
   -3.0731   21.5474  -32.2661 H   0  0  0  0  0  0  0  0  0  0  0  0
   -4.1335   20.0974  -32.2661 H   0  0  0  0  0  0  0  0  0  0  0  0
   -1.0851   17.6081  -31.9595 H   0  0  0  0  0  0  0  0  0  0  0  0
   -1.3737   15.2901  -32.8291 H   0  0  0  0  0  0  0  0  0  0  0  0
   -5.6612   15.0360  -35.0705 H   0  0  0  0  0  0  0  0  0  0  0  0
   -7.0143   14.4667  -34.0222 H   0  0  0  0  0  0  0  0  0  0  0  0
   -6.9190   17.2330  -35.0280 H   0  0  0  0  0  0  0  0  0  0  0  0
   -5.1072   19.6677  -34.2618 H   0  0  0  0  0  0  0  0  0  0  0  0
   -5.6131   21.8288  -33.1250 H   0  0  0  0  0  0  0  0  0  0  0  0
   -5.6142   22.7892  -29.3294 H   0  0  0  0  0  0  0  0  0  0  0  0
   -5.0037   21.9595  -30.8023 H   0  0  0  0  0  0  0  0  0  0  0  0
   -3.6385   23.9108  -29.2867 H   0  0  0  0  0  0  0  0  0  0  0  0
   -3.2202   23.3312  -30.9586 H   0  0  0  0  0  0  0  0  0  0  0  0
   -5.2022   25.6824  -29.1386 H   0  0  0  0  0  0  0  0  0  0  0  0
   -5.4611   26.7237  -30.5932 H   0  0  0  0  0  0  0  0  0  0  0  0
   -7.2155   24.7501  -29.6585 H   0  0  0  0  0  0  0  0  0  0  0  0
   -7.2097   25.4792  -31.3096 H   0  0  0  0  0  0  0  0  0  0  0  0
   -9.1211   20.0548  -31.3084 H   0  0  0  0  0  0  0  0  0  0  0  0
   -8.6465   17.9109  -32.4883 H   0  0  0  0  0  0  0  0  0  0  0  0
   -4.0332   16.7728  -35.9056 H   0  0  0  0  0  0  0  0  0  0  0  0
   -3.7599   19.0909  -35.0273 H   0  0  0  0  0  0  0  0  0  0  0  0
  1  2  1  0
  2  3  1  0
  3  4  2  0
  4  5  1  0
  5  6  2  0
  6  7  1  0
  7  8  1  0
  8  9  1  0
  9 10  1  0
 10 11  1  0
 11 12  2  0
 11 13  1  0
 13 14  1  0
 14 15  2  0
 15 16  1  0
 16 17  2  0
 17 18  1  0
 18 19  2  0
 18 20  2  0
 18 21  1  0
 21 22  1  0
 22 23  1  0
 23 24  1  0
 24 25  1  0
 25 26  1  0
 17 27  1  0
 27 28  2  0
  8 29  2  0
 29 30  1  0
 30 31  2  0
 31 32  1  0
 32 33  1  0
 32 34  1  0
 32 35  1  0
  6 36  1  0
 36 37  2  0
 37  3  1  0
 31  7  1  0
 28 14  1  0
 26 21  1  0
  1 38  1  0
  1 39  1  0
  1 40  1  0
  4 41  1  0
  5 42  1  0
 10 43  1  0
 10 44  1  0
 13 45  1  0
 15 46  1  0
 16 47  1  0
 22 48  1  0
 22 49  1  0
 23 50  1  0
 23 51  1  0
 25 52  1  0
 25 53  1  0
 26 54  1  0
 26 55  1  0
 27 56  1  0
 28 57  1  0
 36 58  1  0
 37 59  1  0
M  END
>  <UniqueID>  (50) 
45

>  <SMILES>  (50) 
COc1ccc(-n2c(SCC(=O)Nc3ccc(S(=O)(=O)N4CCOCC4)cc3)nnc2C(F)(F)F)cc1

>  <Energy>  (50) 
107.89332364826939

>  <Genealogy>  (50) 
COc1ccc(-n2c(SCC(=O)Nc3ccc(S(=O)(=O)N4CCOCC4)cc3)nnc2C(F)(F)F)cc1 (3D coordinates assigned)
COc1ccc(-n2c(SCC(=O)Nc3ccc(S(=O)(=O)N4CCOCC4)cc3)nnc2C(F)(F)F)cc1 (nonaromatic ring conformer: 107.89332364826939 kcal/mol)

>  <smiles>  (50) 
COc1ccc(-n2c(SCC(=O)Nc3ccc(S(=O)(=O)N4CCOCC4)cc3)nnc2C(F)(F)F)cc1

>  <score_type>  (50) 
oracle

>  <origin>  (50) 
adgpu

>  <m_score__min__energy>  (50) 
-10.48

>  <m_primary>  (50) 
energy

$$$$
