0:0
     RDKit          3D

 52 55  0  0  0  0  0  0  0  0999 V2000
    2.7380   15.5770  -30.6860 C   0  0  0  0  0  0  0  0  0  0  0  0
    1.8060   16.3020  -29.7610 C   0  0  0  0  0  0  0  0  0  0  0  0
    1.1010   17.4290  -30.2090 C   0  0  0  0  0  0  0  0  0  0  0  0
    0.2580   18.1260  -29.3380 C   0  0  0  0  0  0  0  0  0  0  0  0
    0.1220   17.7140  -28.0030 C   0  0  0  0  0  0  0  0  0  0  0  0
   -0.8040   18.4560  -27.0790 C   0  0  0  0  0  0  0  0  0  0  0  0
   -1.1370   19.7630  -27.6390 N   0  0  0  0  0  0  0  0  0  0  0  0
   -2.4320   20.3590  -27.4810 C   0  0  0  0  0  0  0  0  0  0  0  0
   -3.3690   19.7010  -26.9550 O   0  0  0  0  0  0  0  0  0  0  0  0
   -2.7040   21.7210  -27.9710 C   0  0  0  0  0  0  0  0  0  0  0  0
   -3.8470   22.1190  -28.6590 C   0  0  0  0  0  0  0  0  0  0  0  0
   -3.7650   23.4290  -28.9780 N   0  0  0  0  0  0  0  0  0  0  0  0
   -4.9470   24.3370  -29.8660 S   0  0  0  0  0  0  0  0  0  0  0  0
   -5.7220   25.2210  -28.9290 O   0  0  0  0  0  0  0  0  0  0  0  0
   -4.2400   25.1950  -30.8790 O   0  0  0  0  0  0  0  0  0  0  0  0
   -6.0610   23.2320  -30.6630 C   0  0  0  0  0  0  0  0  0  0  0  0
   -5.7390   22.6730  -31.9060 C   0  0  0  0  0  0  0  0  0  0  0  0
   -6.6240   21.7880  -32.5290 C   0  0  0  0  0  0  0  0  0  0  0  0
   -7.8470   21.4650  -31.9220 C   0  0  0  0  0  0  0  0  0  0  0  0
   -8.7780   20.4840  -32.5700 C   0  0  0  0  0  0  0  0  0  0  0  0
   -8.1610   22.0170  -30.6700 C   0  0  0  0  0  0  0  0  0  0  0  0
   -7.2760   22.9020  -30.0490 C   0  0  0  0  0  0  0  0  0  0  0  0
   -2.5920   23.8760  -28.4910 C   0  0  0  0  0  0  0  0  0  0  0  0
   -2.0740   25.1710  -28.5540 C   0  0  0  0  0  0  0  0  0  0  0  0
   -0.8360   25.4180  -27.9360 C   0  0  0  0  0  0  0  0  0  0  0  0
   -0.1540   24.3820  -27.2650 C   0  0  0  0  0  0  0  0  0  0  0  0
   -0.6960   23.0860  -27.2150 C   0  0  0  0  0  0  0  0  0  0  0  0
   -1.9150   22.8580  -27.8600 C   0  0  0  0  0  0  0  0  0  0  0  0
    0.8370   16.5940  -27.5520 C   0  0  0  0  0  0  0  0  0  0  0  0
    1.6800   15.8970  -28.4240 C   0  0  0  0  0  0  0  0  0  0  0  0
    3.4706   15.0071  -30.0957 H   0  0  0  0  0  0  0  0  0  0  0  0
    2.1620   14.8872  -31.3203 H   0  0  0  0  0  0  0  0  0  0  0  0
    3.2649   16.3050  -31.3203 H   0  0  0  0  0  0  0  0  0  0  0  0
    1.2119   17.7659  -31.2502 H   0  0  0  0  0  0  0  0  0  0  0  0
   -0.3012   19.0012  -29.7006 H   0  0  0  0  0  0  0  0  0  0  0  0
   -1.7269   17.8728  -26.9446 H   0  0  0  0  0  0  0  0  0  0  0  0
   -0.3043   18.5984  -26.1095 H   0  0  0  0  0  0  0  0  0  0  0  0
   -0.4340   20.2220  -28.2610 H   0  0  0  0  0  0  0  0  0  0  0  0
   -4.6938   21.4621  -28.9068 H   0  0  0  0  0  0  0  0  0  0  0  0
   -4.7872   22.9309  -32.3935 H   0  0  0  0  0  0  0  0  0  0  0  0
   -6.3602   21.3428  -33.4997 H   0  0  0  0  0  0  0  0  0  0  0  0
   -9.3141   19.9191  -31.7932 H   0  0  0  0  0  0  0  0  0  0  0  0
   -9.5029   21.0249  -33.1961 H   0  0  0  0  0  0  0  0  0  0  0  0
   -8.1999   19.7884  -33.1961 H   0  0  0  0  0  0  0  0  0  0  0  0
   -9.1074   21.7518  -30.1760 H   0  0  0  0  0  0  0  0  0  0  0  0
   -7.5344   23.3413  -29.0742 H   0  0  0  0  0  0  0  0  0  0  0  0
   -2.6186   25.9742  -29.0719 H   0  0  0  0  0  0  0  0  0  0  0  0
   -0.3964   26.4256  -27.9760 H   0  0  0  0  0  0  0  0  0  0  0  0
    0.8097   24.5897  -26.7769 H   0  0  0  0  0  0  0  0  0  0  0  0
   -0.1761   22.2750  -26.6839 H   0  0  0  0  0  0  0  0  0  0  0  0
    0.7342   16.2626  -26.5082 H   0  0  0  0  0  0  0  0  0  0  0  0
    2.2466   15.0274  -28.0596 H   0  0  0  0  0  0  0  0  0  0  0  0
  1  2  1  0
  2  3  2  0
  3  4  1  0
  4  5  2  0
  5  6  1  0
  6  7  1  0
  7  8  1  0
  8  9  2  0
  8 10  1  0
 10 11  2  0
 11 12  1  0
 12 13  1  0
 13 14  2  0
 13 15  2  0
 13 16  1  0
 16 17  2  0
 17 18  1  0
 18 19  2  0
 19 20  1  0
 19 21  1  0
 21 22  2  0
 12 23  1  0
 23 24  2  0
 24 25  1  0
 25 26  2  0
 26 27  1  0
 27 28  2  0
  5 29  1  0
 29 30  2  0
 30  2  1  0
 28 10  1  0
 22 16  1  0
 28 23  1  0
  1 31  1  0
  1 32  1  0
  1 33  1  0
  3 34  1  0
  4 35  1  0
  6 36  1  0
  6 37  1  0
  7 38  1  0
 11 39  1  0
 17 40  1  0
 18 41  1  0
 20 42  1  0
 20 43  1  0
 20 44  1  0
 21 45  1  0
 22 46  1  0
 24 47  1  0
 25 48  1  0
 26 49  1  0
 27 50  1  0
 29 51  1  0
 30 52  1  0
M  END
>  <UniqueID>  (1) 
1

>  <SMILES>  (1) 
Cc1ccc(CNC(=O)c2cn(S(=O)(=O)c3ccc(C)cc3)c3ccccc23)cc1

>  <Energy>  (1) 
90.25883359708423

>  <Genealogy>  (1) 
Cc1ccc(CNC(=O)c2cn(S(=O)(=O)c3ccc(C)cc3)c3ccccc23)cc1 (3D coordinates assigned)
Cc1ccc(CNC(=O)c2cn(S(=O)(=O)c3ccc(C)cc3)c3ccccc23)cc1 (optimized conformer: 90.25883359708423 kcal/mol)

>  <smiles>  (1) 
Cc1ccc(CNC(=O)c2cn(S(=O)(=O)c3ccc(C)cc3)c3ccccc23)cc1

>  <score_type>  (1) 
oracle

>  <origin>  (1) 
adgpu

>  <m_score__min__energy>  (1) 
-10.23

>  <m_primary>  (1) 
energy

$$$$
1:0
     RDKit          3D

 76 80  0  0  0  0  0  0  0  0999 V2000
   -0.0600   29.3660  -26.5830 C   0  0  0  0  0  0  0  0  0  0  0  0
    0.1020   28.7140  -25.2810 N   0  0  0  0  0  0  0  0  0  0  0  0
    0.6010   29.4970  -24.1500 C   0  0  0  0  0  0  0  0  0  0  0  0
   -0.3250   27.3530  -25.0600 C   0  0  0  0  0  0  0  0  0  0  0  0
   -0.8120   27.0340  -23.9390 O   0  0  0  0  0  0  0  0  0  0  0  0
   -0.1960   26.3110  -26.1060 C   0  0  0  0  0  0  0  0  0  0  0  0
    0.7720   25.3020  -25.9740 C   0  0  0  0  0  0  0  0  0  0  0  0
    0.8980   24.3120  -26.9490 C   0  0  0  0  0  0  0  0  0  0  0  0
    0.0710   24.3240  -28.0870 C   0  0  0  0  0  0  0  0  0  0  0  0
    0.1780   23.3520  -29.0920 O   0  0  0  0  0  0  0  0  0  0  0  0
   -0.5570   22.1290  -29.1300 C   0  0  0  0  0  0  0  0  0  0  0  0
   -1.5430   22.1580  -30.3060 C   0  0  0  0  0  0  0  0  0  0  0  0
   -0.8850   21.8400  -31.5940 N   0  0  0  0  0  0  0  0  0  0  0  0
   -1.8780   21.5250  -32.6600 C   0  0  0  0  0  0  0  0  0  0  0  0
   -1.4370   20.4220  -33.6390 C   0  0  0  0  0  0  0  0  0  0  0  0
   -0.9500   19.1340  -32.9350 C   0  0  0  0  0  0  0  0  0  0  0  0
   -1.9660   18.0130  -32.9880 C   0  0  0  0  0  0  0  0  0  0  0  0
   -1.6370   16.7210  -32.7380 N   0  0  0  0  0  0  0  0  0  0  0  0
   -2.7060   15.9920  -32.9080 O   0  0  0  0  0  0  0  0  0  0  0  0
   -3.7170   16.7430  -33.2590 C   0  0  0  0  0  0  0  0  0  0  0  0
   -5.0240   16.3520  -33.5370 C   0  0  0  0  0  0  0  0  0  0  0  0
   -5.9410   17.3520  -33.9080 C   0  0  0  0  0  0  0  0  0  0  0  0
   -7.2280   17.0200  -34.1870 F   0  0  0  0  0  0  0  0  0  0  0  0
   -5.5320   18.7030  -33.9760 C   0  0  0  0  0  0  0  0  0  0  0  0
   -4.2060   19.0660  -33.6740 C   0  0  0  0  0  0  0  0  0  0  0  0
   -3.3130   18.0490  -33.3290 C   0  0  0  0  0  0  0  0  0  0  0  0
   -0.4170   19.3860  -31.5140 C   0  0  0  0  0  0  0  0  0  0  0  0
    0.1600   20.8020  -31.4110 C   0  0  0  0  0  0  0  0  0  0  0  0
   -0.8810   25.3420  -28.2410 C   0  0  0  0  0  0  0  0  0  0  0  0
   -1.7850   25.2700  -29.3510 N   0  0  0  0  0  0  0  0  0  0  0  0
   -3.1640   24.8910  -29.2990 C   0  0  0  0  0  0  0  0  0  0  0  0
   -3.6820   24.5290  -28.2090 O   0  0  0  0  0  0  0  0  0  0  0  0
   -3.9940   25.0260  -30.4560 N   0  0  0  0  0  0  0  0  0  0  0  0
   -4.9210   24.0430  -30.9410 C   0  0  0  0  0  0  0  0  0  0  0  0
   -6.2890   24.2320  -30.7040 C   0  0  0  0  0  0  0  0  0  0  0  0
   -7.2170   23.2600  -31.0910 C   0  0  0  0  0  0  0  0  0  0  0  0
   -6.7860   22.0820  -31.7180 C   0  0  0  0  0  0  0  0  0  0  0  0
   -7.9360   20.8240  -32.1610 S   0  0  0  0  0  0  0  0  0  0  0  0
   -9.5920   21.4520  -31.9920 C   0  0  0  0  0  0  0  0  0  0  0  0
   -7.7500   19.6310  -31.2650 O   0  0  0  0  0  0  0  0  0  0  0  0
   -7.7210   20.3990  -33.5840 O   0  0  0  0  0  0  0  0  0  0  0  0
   -5.4190   21.8870  -31.9570 C   0  0  0  0  0  0  0  0  0  0  0  0
   -4.4900   22.8540  -31.5630 C   0  0  0  0  0  0  0  0  0  0  0  0
   -1.0140   26.3290  -27.2470 C   0  0  0  0  0  0  0  0  0  0  0  0
   -0.3228   30.4236  -26.4333 H   0  0  0  0  0  0  0  0  0  0  0  0
    0.8822   29.2985  -27.1466 H   0  0  0  0  0  0  0  0  0  0  0  0
   -0.8611   28.8654  -27.1466 H   0  0  0  0  0  0  0  0  0  0  0  0
    0.2952   29.0172  -23.2086 H   0  0  0  0  0  0  0  0  0  0  0  0
    1.6988   29.5485  -24.1956 H   0  0  0  0  0  0  0  0  0  0  0  0
    0.1840   30.5139  -24.1956 H   0  0  0  0  0  0  0  0  0  0  0  0
    1.4350   25.2922  -25.0963 H   0  0  0  0  0  0  0  0  0  0  0  0
    1.6486   23.5172  -26.8271 H   0  0  0  0  0  0  0  0  0  0  0  0
    0.1394   21.2870  -29.2567 H   0  0  0  0  0  0  0  0  0  0  0  0
   -1.1137   22.0076  -28.1891 H   0  0  0  0  0  0  0  0  0  0  0  0
   -2.3367   21.4191  -30.1215 H   0  0  0  0  0  0  0  0  0  0  0  0
   -1.9536   23.1760  -30.3782 H   0  0  0  0  0  0  0  0  0  0  0  0
   -2.8109   21.2011  -32.1754 H   0  0  0  0  0  0  0  0  0  0  0  0
   -1.9980   22.4418  -33.2559 H   0  0  0  0  0  0  0  0  0  0  0  0
   -2.2911   20.1656  -34.2830 H   0  0  0  0  0  0  0  0  0  0  0  0
   -0.5871   20.8189  -34.2136 H   0  0  0  0  0  0  0  0  0  0  0  0
   -0.0857   18.7879  -33.5207 H   0  0  0  0  0  0  0  0  0  0  0  0
   -5.3290   15.2973  -33.4689 H   0  0  0  0  0  0  0  0  0  0  0  0
   -6.2563   19.4778  -34.2675 H   0  0  0  0  0  0  0  0  0  0  0  0
   -3.8834   20.1170  -33.7086 H   0  0  0  0  0  0  0  0  0  0  0  0
   -1.2394   19.2749  -30.7920 H   0  0  0  0  0  0  0  0  0  0  0  0
    0.3765   18.6571  -31.2927 H   0  0  0  0  0  0  0  0  0  0  0  0
    0.6170   20.9285  -30.4184 H   0  0  0  0  0  0  0  0  0  0  0  0
    0.9063   20.9250  -32.2097 H   0  0  0  0  0  0  0  0  0  0  0  0
   -6.6356   25.1517  -30.2099 H   0  0  0  0  0  0  0  0  0  0  0  0
   -8.2889   23.4201  -30.9029 H   0  0  0  0  0  0  0  0  0  0  0  0
   -9.8412   21.5465  -30.9248 H   0  0  0  0  0  0  0  0  0  0  0  0
   -9.6609   22.4387  -32.4734 H   0  0  0  0  0  0  0  0  0  0  0  0
  -10.2978   20.7591  -32.4734 H   0  0  0  0  0  0  0  0  0  0  0  0
   -5.0758   20.9691  -32.4567 H   0  0  0  0  0  0  0  0  0  0  0  0
   -3.4172   22.6863  -31.7392 H   0  0  0  0  0  0  0  0  0  0  0  0
   -1.7664   27.1227  -27.3650 H   0  0  0  0  0  0  0  0  0  0  0  0
  1  2  1  0
  2  3  1  0
  2  4  1  0
  4  5  2  0
  4  6  1  0
  6  7  2  0
  7  8  1  0
  8  9  2  0
  9 10  1  0
 10 11  1  0
 11 12  1  0
 12 13  1  0
 13 14  1  0
 14 15  1  0
 15 16  1  0
 16 17  1  0
 17 18  2  0
 18 19  1  0
 19 20  1  0
 20 21  2  0
 21 22  1  0
 22 23  1  0
 22 24  2  0
 24 25  1  0
 25 26  2  0
 16 27  1  0
 27 28  1  0
  9 29  1  0
 29 30  1  0
 30 31  1  0
 31 32  2  0
 31 33  1  0
 33 34  1  0
 34 35  2  0
 35 36  1  0
 36 37  2  0
 37 38  1  0
 38 39  1  0
 38 40  2  0
 38 41  2  0
 37 42  1  0
 42 43  2  0
 29 44  2  0
 44  6  1  0
 28 13  1  0
 43 34  1  0
 26 17  1  0
 26 20  1  0
  1 45  1  0
  1 46  1  0
  1 47  1  0
  3 48  1  0
  3 49  1  0
  3 50  1  0
  7 51  1  0
  8 52  1  0
 11 53  1  0
 11 54  1  0
 12 55  1  0
 12 56  1  0
 14 57  1  0
 14 58  1  0
 15 59  1  0
 15 60  1  0
 16 61  1  0
 21 62  1  0
 24 63  1  0
 25 64  1  0
 27 65  1  0
 27 66  1  0
 28 67  1  0
 28 68  1  0
 35 69  1  0
 36 70  1  0
 39 71  1  0
 39 72  1  0
 39 73  1  0
 42 74  1  0
 43 75  1  0
 44 76  1  0
M  CHG  2  30  -1  33  -1
M  END
>  <UniqueID>  (2) 
2

>  <SMILES>  (2) 
CN(C)C(=O)c1ccc(OCCN2CCC(c3noc4cc(F)ccc34)CC2)c([N-]C(=O)[N-]c2ccc(S(C)(=O)=O)cc2)c1

>  <Energy>  (2) 
135.11110902701216

>  <Genealogy>  (2) 
CN(C)C(=O)c1ccc(OCCN2CCC(c3noc4cc(F)ccc34)CC2)c([N-]C(=O)[N-]c2ccc(S(C)(=O)=O)cc2)c1 (protonated)
CN(C)C(=O)c1ccc(OCCN2CCC(c3noc4cc(F)ccc34)CC2)c([N-]C(=O)[N-]c2ccc(S(C)(=O)=O)cc2)c1 (3D coordinates assigned)
CN(C)C(=O)c1ccc(OCCN2CCC(c3noc4cc(F)ccc34)CC2)c([N-]C(=O)[N-]c2ccc(S(C)(=O)=O)cc2)c1 (nonaromatic ring conformer: 135.11110902701216 kcal/mol)

>  <smiles>  (2) 
CN(C)C(=O)c1ccc(OCCN2CCC(c3noc4cc(F)ccc34)CC2)c(NC(=O)Nc2ccc(S(C)(=O)=O)cc2)c1

>  <score_type>  (2) 
oracle

>  <origin>  (2) 
adgpu

>  <m_score__min__energy>  (2) 
-13.300000000000001

>  <m_primary>  (2) 
energy

$$$$
2:0
     RDKit          3D

 34 36  0  0  0  0  0  0  0  0999 V2000
    0.7620   20.4510  -28.0090 N   0  0  0  0  0  0  0  0  0  0  0  0
   -0.1900   21.0980  -28.1300 C   0  0  0  0  0  0  0  0  0  0  0  0
   -1.3740   21.9040  -28.2810 C   0  0  0  0  0  0  0  0  0  0  0  0
   -2.6260   21.3770  -27.9500 C   0  0  0  0  0  0  0  0  0  0  0  0
   -3.7760   22.1570  -28.0960 C   0  0  0  0  0  0  0  0  0  0  0  0
   -3.6890   23.4810  -28.5690 C   0  0  0  0  0  0  0  0  0  0  0  0
   -4.8630   24.3030  -28.7220 N   0  0  0  0  0  0  0  0  0  0  0  0
   -5.5750   24.6880  -30.2570 S   0  0  0  0  0  0  0  0  0  0  0  0
   -4.5270   25.2820  -31.1560 O   0  0  0  0  0  0  0  0  0  0  0  0
   -6.6760   25.6900  -30.0580 O   0  0  0  0  0  0  0  0  0  0  0  0
   -6.2500   23.2420  -30.9820 C   0  0  0  0  0  0  0  0  0  0  0  0
   -7.6000   22.9420  -31.0740 C   0  0  0  0  0  0  0  0  0  0  0  0
   -7.8470   21.6990  -31.6690 C   0  0  0  0  0  0  0  0  0  0  0  0
   -6.6860   21.0160  -32.0470 C   0  0  0  0  0  0  0  0  0  0  0  0
   -6.6100   19.6800  -32.6940 C   0  0  0  0  0  0  0  0  0  0  0  0
   -5.8290   19.4660  -33.8450 C   0  0  0  0  0  0  0  0  0  0  0  0
   -5.7750   18.2010  -34.4340 C   0  0  0  0  0  0  0  0  0  0  0  0
   -6.5000   17.1530  -33.8710 C   0  0  0  0  0  0  0  0  0  0  0  0
   -7.2510   17.3660  -32.7590 N   0  0  0  0  0  0  0  0  0  0  0  0
   -7.3210   18.5860  -32.1640 C   0  0  0  0  0  0  0  0  0  0  0  0
   -5.3610   21.9760  -31.6280 S   0  0  0  0  0  0  0  0  0  0  0  0
   -2.4240   23.9990  -28.9080 C   0  0  0  0  0  0  0  0  0  0  0  0
   -2.2960   25.3010  -29.3830 O   0  0  0  0  0  0  0  0  0  0  0  0
   -1.2750   23.2130  -28.7610 C   0  0  0  0  0  0  0  0  0  0  0  0
   -2.7058   20.3464  -27.5739 H   0  0  0  0  0  0  0  0  0  0  0  0
   -4.7582   21.7334  -27.8393 H   0  0  0  0  0  0  0  0  0  0  0  0
   -5.3860   24.6150  -27.8750 H   0  0  0  0  0  0  0  0  0  0  0  0
   -8.3958   23.6119  -30.7162 H   0  0  0  0  0  0  0  0  0  0  0  0
   -8.8590   21.2971  -31.8247 H   0  0  0  0  0  0  0  0  0  0  0  0
   -5.2587   20.2987  -34.2825 H   0  0  0  0  0  0  0  0  0  0  0  0
   -5.1656   18.0335  -35.3343 H   0  0  0  0  0  0  0  0  0  0  0  0
   -6.4644   16.1526  -34.3270 H   0  0  0  0  0  0  0  0  0  0  0  0
   -7.9371   18.7197  -31.2626 H   0  0  0  0  0  0  0  0  0  0  0  0
   -0.2905   23.6271  -29.0242 H   0  0  0  0  0  0  0  0  0  0  0  0
  1  2  3  0
  2  3  1  0
  3  4  2  0
  4  5  1  0
  5  6  2  0
  6  7  1  0
  7  8  1  0
  8  9  2  0
  8 10  2  0
  8 11  1  0
 11 12  2  0
 12 13  1  0
 13 14  2  0
 14 15  1  0
 15 16  2  0
 16 17  1  0
 17 18  2  0
 18 19  1  0
 19 20  2  0
 14 21  1  0
  6 22  1  0
 22 23  1  0
 22 24  2  0
 24  3  1  0
 21 11  1  0
 20 15  1  0
  4 25  1  0
  5 26  1  0
  7 27  1  0
 12 28  1  0
 13 29  1  0
 16 30  1  0
 17 31  1  0
 18 32  1  0
 20 33  1  0
 24 34  1  0
M  CHG  1  23  -1
M  END
>  <UniqueID>  (3) 
3

>  <SMILES>  (3) 
N#Cc1ccc(NS(=O)(=O)c2ccc(-c3cccnc3)s2)c([O-])c1

>  <Energy>  (3) 
68.81409664236926

>  <Genealogy>  (3) 
N#Cc1ccc(NS(=O)(=O)c2ccc(-c3cccnc3)s2)c([O-])c1 (protonated)
N#Cc1ccc(NS(=O)(=O)c2ccc(-c3cccnc3)s2)c([O-])c1 (3D coordinates assigned)
N#Cc1ccc(NS(=O)(=O)c2ccc(-c3cccnc3)s2)c([O-])c1 (optimized conformer: 68.81409664236926 kcal/mol)

>  <smiles>  (3) 
N#Cc1ccc(NS(=O)(=O)c2ccc(-c3cccnc3)s2)c(O)c1

>  <score_type>  (3) 
oracle

>  <origin>  (3) 
adgpu

>  <m_score__min__energy>  (3) 
-12.869999999999999

>  <m_primary>  (3) 
energy

$$$$
3:0
     RDKit          3D

 64 67  0  0  0  0  0  0  0  0999 V2000
   -8.7380   19.7230  -31.2670 C   0  0  0  0  0  0  0  0  0  0  0  0
   -7.8750   20.9440  -31.4500 C   0  0  0  0  0  0  0  0  0  0  0  0
   -8.3430   22.1550  -30.9160 C   0  0  0  0  0  0  0  0  0  0  0  0
   -7.6200   23.3310  -31.0720 C   0  0  0  0  0  0  0  0  0  0  0  0
   -6.4120   23.3310  -31.7640 C   0  0  0  0  0  0  0  0  0  0  0  0
   -5.7030   24.5690  -31.8850 N   0  0  0  0  0  0  0  0  0  0  0  0
   -5.1960   25.3180  -30.7740 C   0  0  0  0  0  0  0  0  0  0  0  0
   -5.9800   25.9810  -30.0470 O   0  0  0  0  0  0  0  0  0  0  0  0
   -3.7990   25.3010  -30.4560 N   0  0  0  0  0  0  0  0  0  0  0  0
   -3.1030   24.2780  -29.7280 C   0  0  0  0  0  0  0  0  0  0  0  0
   -1.9550   24.5550  -28.9650 C   0  0  0  0  0  0  0  0  0  0  0  0
   -1.3140   23.5290  -28.2630 C   0  0  0  0  0  0  0  0  0  0  0  0
   -1.8300   22.2270  -28.2820 C   0  0  0  0  0  0  0  0  0  0  0  0
   -0.9980   20.9280  -27.4280 S   0  0  0  0  0  0  0  0  0  0  0  0
    0.4370   21.3260  -27.2260 O   0  0  0  0  0  0  0  0  0  0  0  0
   -1.6200   20.7700  -26.0680 O   0  0  0  0  0  0  0  0  0  0  0  0
   -1.0460   19.3890  -28.2630 N   0  0  0  0  0  0  0  0  0  0  0  0
   -0.4010   18.2800  -27.5320 C   0  0  0  0  0  0  0  0  0  0  0  0
    1.0980   18.1410  -27.8360 C   0  0  0  0  0  0  0  0  0  0  0  0
    1.3460   18.0840  -29.3380 C   0  0  0  0  0  0  0  0  0  0  0  0
    0.7690   19.3270  -30.0060 C   0  0  0  0  0  0  0  0  0  0  0  0
   -0.7280   19.4650  -29.7040 C   0  0  0  0  0  0  0  0  0  0  0  0
   -2.9820   21.9550  -29.0320 C   0  0  0  0  0  0  0  0  0  0  0  0
   -3.6220   22.9780  -29.7380 C   0  0  0  0  0  0  0  0  0  0  0  0
   -5.9440   22.1400  -32.3610 C   0  0  0  0  0  0  0  0  0  0  0  0
   -4.7920   22.1540  -33.1500 O   0  0  0  0  0  0  0  0  0  0  0  0
   -6.6570   20.9270  -32.1880 C   0  0  0  0  0  0  0  0  0  0  0  0
   -6.0220   19.4330  -32.9460 S   0  0  0  0  0  0  0  0  0  0  0  0
   -5.7800   19.7010  -34.4050 O   0  0  0  0  0  0  0  0  0  0  0  0
   -7.0490   18.3360  -32.8850 O   0  0  0  0  0  0  0  0  0  0  0  0
   -4.5140   18.8660  -32.2470 N   0  0  0  0  0  0  0  0  0  0  0  0
   -3.7280   18.0260  -33.1670 C   0  0  0  0  0  0  0  0  0  0  0  0
   -2.8390   18.8540  -34.1220 C   0  0  0  0  0  0  0  0  0  0  0  0
   -2.9480   20.2440  -33.8960 O   0  0  0  0  0  0  0  0  0  0  0  0
   -2.6490   20.5250  -32.5480 C   0  0  0  0  0  0  0  0  0  0  0  0
   -3.7090   19.9250  -31.6060 C   0  0  0  0  0  0  0  0  0  0  0  0
   -8.8753   19.5287  -30.1930 H   0  0  0  0  0  0  0  0  0  0  0  0
   -9.7179   19.8927  -31.7372 H   0  0  0  0  0  0  0  0  0  0  0  0
   -8.2510   18.8560  -31.7372 H   0  0  0  0  0  0  0  0  0  0  0  0
   -9.2956   22.1730  -30.3663 H   0  0  0  0  0  0  0  0  0  0  0  0
   -8.0049   24.2691  -30.6456 H   0  0  0  0  0  0  0  0  0  0  0  0
   -1.5601   25.5807  -28.9200 H   0  0  0  0  0  0  0  0  0  0  0  0
   -0.3989   23.7460  -27.6924 H   0  0  0  0  0  0  0  0  0  0  0  0
   -0.5234   18.4555  -26.4530 H   0  0  0  0  0  0  0  0  0  0  0  0
   -0.8869   17.3488  -27.8589 H   0  0  0  0  0  0  0  0  0  0  0  0
    1.6323   19.0057  -27.4155 H   0  0  0  0  0  0  0  0  0  0  0  0
    1.4627   17.2067  -27.3843 H   0  0  0  0  0  0  0  0  0  0  0  0
    2.4285   18.0372  -29.5275 H   0  0  0  0  0  0  0  0  0  0  0  0
    0.8573   17.1899  -29.7524 H   0  0  0  0  0  0  0  0  0  0  0  0
    1.2960   20.2160  -29.6291 H   0  0  0  0  0  0  0  0  0  0  0  0
    0.9012   19.2348  -31.0941 H   0  0  0  0  0  0  0  0  0  0  0  0
   -1.0725   20.4372  -30.0862 H   0  0  0  0  0  0  0  0  0  0  0  0
   -1.2368   18.6215  -30.1935 H   0  0  0  0  0  0  0  0  0  0  0  0
   -3.3846   20.9319  -29.0654 H   0  0  0  0  0  0  0  0  0  0  0  0
   -4.5391   22.7600  -30.3049 H   0  0  0  0  0  0  0  0  0  0  0  0
   -4.6660   21.5570  -33.9580 H   0  0  0  0  0  0  0  0  0  0  0  0
   -3.0826   17.3626  -32.5726 H   0  0  0  0  0  0  0  0  0  0  0  0
   -4.4384   17.4575  -33.7852 H   0  0  0  0  0  0  0  0  0  0  0  0
   -1.7907   18.5544  -33.9762 H   0  0  0  0  0  0  0  0  0  0  0  0
   -3.1781   18.6555  -35.1494 H   0  0  0  0  0  0  0  0  0  0  0  0
   -1.6663   20.0966  -32.3016 H   0  0  0  0  0  0  0  0  0  0  0  0
   -2.6410   21.6167  -32.4131 H   0  0  0  0  0  0  0  0  0  0  0  0
   -3.1986   19.4966  -30.7308 H   0  0  0  0  0  0  0  0  0  0  0  0
   -4.3960   20.7361  -31.3229 H   0  0  0  0  0  0  0  0  0  0  0  0
  1  2  1  0
  2  3  2  0
  3  4  1  0
  4  5  2  0
  5  6  1  0
  6  7  1  0
  7  8  2  0
  7  9  1  0
  9 10  1  0
 10 11  2  0
 11 12  1  0
 12 13  2  0
 13 14  1  0
 14 15  2  0
 14 16  2  0
 14 17  1  0
 17 18  1  0
 18 19  1  0
 19 20  1  0
 20 21  1  0
 21 22  1  0
 13 23  1  0
 23 24  2  0
  5 25  1  0
 25 26  1  0
 25 27  2  0
 27 28  1  0
 28 29  2  0
 28 30  2  0
 28 31  1  0
 31 32  1  0
 32 33  1  0
 33 34  1  0
 34 35  1  0
 35 36  1  0
 27  2  1  0
 36 31  1  0
 24 10  1  0
 22 17  1  0
  1 37  1  0
  1 38  1  0
  1 39  1  0
  3 40  1  0
  4 41  1  0
 11 42  1  0
 12 43  1  0
 18 44  1  0
 18 45  1  0
 19 46  1  0
 19 47  1  0
 20 48  1  0
 20 49  1  0
 21 50  1  0
 21 51  1  0
 22 52  1  0
 22 53  1  0
 23 54  1  0
 24 55  1  0
 26 56  1  0
 32 57  1  0
 32 58  1  0
 33 59  1  0
 33 60  1  0
 35 61  1  0
 35 62  1  0
 36 63  1  0
 36 64  1  0
M  CHG  2   6  -1   9  -1
M  END
>  <UniqueID>  (4) 
4

>  <SMILES>  (4) 
Cc1ccc([N-]C(=O)[N-]c2ccc(S(=O)(=O)N3CCCCC3)cc2)c(O)c1S(=O)(=O)N1CCOCC1

>  <Energy>  (4) 
93.78772301569089

>  <Genealogy>  (4) 
Cc1ccc([N-]C(=O)[N-]c2ccc(S(=O)(=O)N3CCCCC3)cc2)c(O)c1S(=O)(=O)N1CCOCC1 (protonated)
Cc1ccc([N-]C(=O)[N-]c2ccc(S(=O)(=O)N3CCCCC3)cc2)c(O)c1S(=O)(=O)N1CCOCC1 (3D coordinates assigned)
Cc1ccc([N-]C(=O)[N-]c2ccc(S(=O)(=O)N3CCCCC3)cc2)c(O)c1S(=O)(=O)N1CCOCC1 (nonaromatic ring conformer: 93.78772301569089 kcal/mol)

>  <smiles>  (4) 
Cc1ccc(NC(=O)Nc2ccc(S(=O)(=O)N3CCCCC3)cc2)c(O)c1S(=O)(=O)N1CCOCC1

>  <score_type>  (4) 
oracle

>  <origin>  (4) 
adgpu

>  <m_score__min__energy>  (4) 
-14.6

>  <m_primary>  (4) 
energy

$$$$
4:0
     RDKit          3D

 59 62  0  0  0  0  0  0  0  0999 V2000
   -5.2850   13.8840  -34.3190 C   0  0  0  0  0  0  0  0  0  0  0  0
   -5.3350   15.4110  -34.1790 C   0  0  0  0  0  0  0  0  0  0  0  0
   -5.4320   15.8340  -32.6970 C   0  0  0  0  0  0  0  0  0  0  0  0
   -4.6940   17.1500  -32.3750 C   0  0  0  0  0  0  0  0  0  0  0  0
   -4.6690   18.1200  -33.4890 N   0  0  0  0  0  0  0  0  0  0  0  0
   -6.1000   19.1270  -33.5570 S   0  0  0  0  0  0  0  0  0  0  0  0
   -7.2550   18.3960  -32.9300 O   0  0  0  0  0  0  0  0  0  0  0  0
   -6.4520   19.3910  -34.9950 O   0  0  0  0  0  0  0  0  0  0  0  0
   -5.8810   20.6650  -32.7210 C   0  0  0  0  0  0  0  0  0  0  0  0
   -4.5910   21.1690  -32.5010 C   0  0  0  0  0  0  0  0  0  0  0  0
   -4.4130   22.3820  -31.8300 C   0  0  0  0  0  0  0  0  0  0  0  0
   -5.5260   23.1100  -31.3860 C   0  0  0  0  0  0  0  0  0  0  0  0
   -5.3180   24.6880  -30.6250 S   0  0  0  0  0  0  0  0  0  0  0  0
   -6.0600   24.7150  -29.3130 O   0  0  0  0  0  0  0  0  0  0  0  0
   -5.8980   25.7410  -31.5330 O   0  0  0  0  0  0  0  0  0  0  0  0
   -3.6410   25.0470  -30.3350 N   0  0  0  0  0  0  0  0  0  0  0  0
   -2.7660   24.2250  -29.5550 C   0  0  0  0  0  0  0  0  0  0  0  0
   -3.1040   22.9030  -29.2380 C   0  0  0  0  0  0  0  0  0  0  0  0
   -2.2110   22.0880  -28.5280 C   0  0  0  0  0  0  0  0  0  0  0  0
   -0.9990   22.6300  -28.0560 C   0  0  0  0  0  0  0  0  0  0  0  0
   -0.6850   23.9670  -28.3360 C   0  0  0  0  0  0  0  0  0  0  0  0
   -1.5670   24.7610  -29.0750 C   0  0  0  0  0  0  0  0  0  0  0  0
   -1.2380   26.0820  -29.3450 O   0  0  0  0  0  0  0  0  0  0  0  0
    0.0140   21.7670  -27.3400 C   0  0  0  0  0  0  0  0  0  0  0  0
   -0.5790   20.5500  -26.7480 N   0  0  0  0  0  0  0  0  0  0  0  0
   -1.2910   20.8400  -25.4880 C   0  0  0  0  0  0  0  0  0  0  0  0
   -1.4190   19.8290  -27.7220 C   0  0  0  0  0  0  0  0  0  0  0  0
   -2.6070   20.6720  -28.2080 C   0  0  0  0  0  0  0  0  0  0  0  0
   -6.8170   22.6140  -31.6180 C   0  0  0  0  0  0  0  0  0  0  0  0
   -6.9940   21.4010  -32.2890 C   0  0  0  0  0  0  0  0  0  0  0  0
   -4.2630   17.5890  -34.8110 C   0  0  0  0  0  0  0  0  0  0  0  0
   -4.1250   16.0620  -34.8530 C   0  0  0  0  0  0  0  0  0  0  0  0
   -5.2700   13.4245  -33.3197 H   0  0  0  0  0  0  0  0  0  0  0  0
   -6.1723   13.5370  -34.8688 H   0  0  0  0  0  0  0  0  0  0  0  0
   -4.3769   13.5957  -34.8688 H   0  0  0  0  0  0  0  0  0  0  0  0
   -6.2428   15.7644  -34.6900 H   0  0  0  0  0  0  0  0  0  0  0  0
   -6.4944   15.9608  -32.4414 H   0  0  0  0  0  0  0  0  0  0  0  0
   -4.9480   15.0426  -32.1058 H   0  0  0  0  0  0  0  0  0  0  0  0
   -5.1927   17.6237  -31.5166 H   0  0  0  0  0  0  0  0  0  0  0  0
   -3.6477   16.8821  -32.1664 H   0  0  0  0  0  0  0  0  0  0  0  0
   -3.7153   20.6072  -32.8581 H   0  0  0  0  0  0  0  0  0  0  0  0
   -3.3981   22.7662  -31.6499 H   0  0  0  0  0  0  0  0  0  0  0  0
   -4.0793   22.5005  -29.5491 H   0  0  0  0  0  0  0  0  0  0  0  0
    0.2611   24.3941  -27.9721 H   0  0  0  0  0  0  0  0  0  0  0  0
    0.7883   21.4647  -28.0604 H   0  0  0  0  0  0  0  0  0  0  0  0
    0.4304   22.3643  -26.5155 H   0  0  0  0  0  0  0  0  0  0  0  0
   -0.6480   20.5781  -24.6348 H   0  0  0  0  0  0  0  0  0  0  0  0
   -1.5390   21.9108  -25.4451 H   0  0  0  0  0  0  0  0  0  0  0  0
   -2.2166   20.2472  -25.4451 H   0  0  0  0  0  0  0  0  0  0  0  0
   -0.7999   19.5577  -28.5898 H   0  0  0  0  0  0  0  0  0  0  0  0
   -1.8234   18.9373  -27.2207 H   0  0  0  0  0  0  0  0  0  0  0  0
   -3.0226   20.2077  -29.1145 H   0  0  0  0  0  0  0  0  0  0  0  0
   -3.3492   20.7058  -27.3968 H   0  0  0  0  0  0  0  0  0  0  0  0
   -7.6930   23.1815  -31.2708 H   0  0  0  0  0  0  0  0  0  0  0  0
   -8.0092   21.0224  -32.4789 H   0  0  0  0  0  0  0  0  0  0  0  0
   -5.0192   17.8887  -35.5515 H   0  0  0  0  0  0  0  0  0  0  0  0
   -3.2685   18.0051  -35.0299 H   0  0  0  0  0  0  0  0  0  0  0  0
   -4.0680   15.7296  -35.9000 H   0  0  0  0  0  0  0  0  0  0  0  0
   -3.2101   15.7662  -34.3187 H   0  0  0  0  0  0  0  0  0  0  0  0
  1  2  1  0
  2  3  1  0
  3  4  1  0
  4  5  1  0
  5  6  1  0
  6  7  2  0
  6  8  2  0
  6  9  1  0
  9 10  2  0
 10 11  1  0
 11 12  2  0
 12 13  1  0
 13 14  2  0
 13 15  2  0
 13 16  1  0
 16 17  1  0
 17 18  2  0
 18 19  1  0
 19 20  2  0
 20 21  1  0
 21 22  2  0
 22 23  1  0
 20 24  1  0
 24 25  1  0
 25 26  1  0
 25 27  1  0
 27 28  1  0
 12 29  1  0
 29 30  2  0
  5 31  1  0
 31 32  1  0
 32  2  1  0
 30  9  1  0
 22 17  1  0
 28 19  1  0
  1 33  1  0
  1 34  1  0
  1 35  1  0
  2 36  1  0
  3 37  1  0
  3 38  1  0
  4 39  1  0
  4 40  1  0
 10 41  1  0
 11 42  1  0
 18 43  1  0
 21 44  1  0
 24 45  1  0
 24 46  1  0
 26 47  1  0
 26 48  1  0
 26 49  1  0
 27 50  1  0
 27 51  1  0
 28 52  1  0
 28 53  1  0
 29 54  1  0
 30 55  1  0
 31 56  1  0
 31 57  1  0
 32 58  1  0
 32 59  1  0
M  CHG  2  16  -1  23  -1
M  END
>  <UniqueID>  (5) 
5

>  <SMILES>  (5) 
CC1CCN(S(=O)(=O)c2ccc(S(=O)(=O)[N-]c3cc4c(cc3[O-])CN(C)CC4)cc2)CC1

>  <Energy>  (5) 
79.38594812393733

>  <Genealogy>  (5) 
CC1CCN(S(=O)(=O)c2ccc(S(=O)(=O)[N-]c3cc4c(cc3[O-])CN(C)CC4)cc2)CC1 (protonated)
CC1CCN(S(=O)(=O)c2ccc(S(=O)(=O)[N-]c3cc4c(cc3[O-])CN(C)CC4)cc2)CC1 (3D coordinates assigned)
CC1CCN(S(=O)(=O)c2ccc(S(=O)(=O)[N-]c3cc4c(cc3[O-])CN(C)CC4)cc2)CC1 (nonaromatic ring conformer: 79.38594812393733 kcal/mol)

>  <smiles>  (5) 
CC1CCN(S(=O)(=O)c2ccc(S(=O)(=O)Nc3cc4c(cc3O)CN(C)CC4)cc2)CC1

>  <score_type>  (5) 
oracle

>  <origin>  (5) 
adgpu

>  <m_score__min__energy>  (5) 
-15.710000000000001

>  <m_primary>  (5) 
energy

$$$$
5:0
     RDKit          3D

 66 70  0  0  0  0  0  0  0  0999 V2000
    1.0110   22.4580  -26.9310 O   0  0  0  0  0  0  0  0  0  0  0  0
   -0.0140   23.1610  -26.7060 C   0  0  0  0  0  0  0  0  0  0  0  0
   -1.2940   22.4650  -26.3180 C   0  0  0  0  0  0  0  0  0  0  0  0
   -2.1710   22.2530  -27.5200 C   0  0  0  0  0  0  0  0  0  0  0  0
   -3.1720   23.0970  -27.9530 C   0  0  0  0  0  0  0  0  0  0  0  0
   -3.6380   22.6380  -29.1350 N   0  0  0  0  0  0  0  0  0  0  0  0
   -4.6770   23.2340  -29.9410 C   0  0  0  0  0  0  0  0  0  0  0  0
   -5.8460   22.5100  -30.2480 C   0  0  0  0  0  0  0  0  0  0  0  0
   -6.8600   23.0820  -31.0280 C   0  0  0  0  0  0  0  0  0  0  0  0
   -8.3240   22.1760  -31.4080 S   0  0  0  0  0  0  0  0  0  0  0  0
   -8.8680   21.5880  -30.1360 O   0  0  0  0  0  0  0  0  0  0  0  0
   -9.3620   23.0940  -31.9910 O   0  0  0  0  0  0  0  0  0  0  0  0
   -7.9450   20.9010  -32.5420 N   0  0  0  0  0  0  0  0  0  0  0  0
   -8.9550   19.8130  -32.4810 C   0  0  0  0  0  0  0  0  0  0  0  0
   -8.4730   18.5890  -31.6890 C   0  0  0  0  0  0  0  0  0  0  0  0
   -7.1860   18.0050  -32.2990 C   0  0  0  0  0  0  0  0  0  0  0  0
   -6.3060   19.0760  -32.9680 C   0  0  0  0  0  0  0  0  0  0  0  0
   -6.5480   20.4540  -32.3440 C   0  0  0  0  0  0  0  0  0  0  0  0
   -6.7170   24.3920  -31.4950 C   0  0  0  0  0  0  0  0  0  0  0  0
   -5.5660   25.1210  -31.1990 C   0  0  0  0  0  0  0  0  0  0  0  0
   -4.5460   24.5510  -30.4310 C   0  0  0  0  0  0  0  0  0  0  0  0
   -3.4010   25.2980  -30.1760 O   0  0  0  0  0  0  0  0  0  0  0  0
   -2.9730   21.5440  -29.4770 N   0  0  0  0  0  0  0  0  0  0  0  0
   -2.0790   21.2760  -28.5060 C   0  0  0  0  0  0  0  0  0  0  0  0
   -1.1170   20.1600  -28.5790 C   0  0  0  0  0  0  0  0  0  0  0  0
   -0.2610   20.0130  -29.6840 C   0  0  0  0  0  0  0  0  0  0  0  0
    0.6390   18.9470  -29.7410 C   0  0  0  0  0  0  0  0  0  0  0  0
    0.6980   18.0230  -28.6940 C   0  0  0  0  0  0  0  0  0  0  0  0
   -0.1360   18.1720  -27.5830 C   0  0  0  0  0  0  0  0  0  0  0  0
   -1.0360   19.2410  -27.5200 C   0  0  0  0  0  0  0  0  0  0  0  0
    0.0650   24.5960  -26.8290 N   0  0  0  0  0  0  0  0  0  0  0  0
    1.3760   25.2550  -26.8220 C   0  0  0  0  0  0  0  0  0  0  0  0
    1.2460   26.6790  -26.2600 C   0  0  0  0  0  0  0  0  0  0  0  0
    0.2120   27.4940  -26.9310 N   0  0  0  0  0  0  0  0  0  0  0  0
   -0.7410   26.7350  -27.7590 C   0  0  0  0  0  0  0  0  0  0  0  0
   -1.1310   25.3980  -27.1180 C   0  0  0  0  0  0  0  0  0  0  0  0
   -1.0529   21.4894  -25.8708 H   0  0  0  0  0  0  0  0  0  0  0  0
   -1.8328   23.0947  -25.5947 H   0  0  0  0  0  0  0  0  0  0  0  0
   -3.5305   23.9929  -27.4250 H   0  0  0  0  0  0  0  0  0  0  0  0
   -5.9642   21.4834  -29.8709 H   0  0  0  0  0  0  0  0  0  0  0  0
   -9.8638   20.2051  -32.0010 H   0  0  0  0  0  0  0  0  0  0  0  0
   -9.1448   19.4827  -33.5129 H   0  0  0  0  0  0  0  0  0  0  0  0
   -8.2736   18.8894  -30.6498 H   0  0  0  0  0  0  0  0  0  0  0  0
   -9.2574   17.8186  -31.7254 H   0  0  0  0  0  0  0  0  0  0  0  0
   -6.6054   17.5219  -31.4993 H   0  0  0  0  0  0  0  0  0  0  0  0
   -7.4836   17.2865  -33.0769 H   0  0  0  0  0  0  0  0  0  0  0  0
   -5.2480   18.8038  -32.8395 H   0  0  0  0  0  0  0  0  0  0  0  0
   -6.5646   19.1248  -34.0361 H   0  0  0  0  0  0  0  0  0  0  0  0
   -6.3395   20.3996  -31.2653 H   0  0  0  0  0  0  0  0  0  0  0  0
   -5.8810   21.1776  -32.8355 H   0  0  0  0  0  0  0  0  0  0  0  0
   -7.5154   24.8491  -32.0981 H   0  0  0  0  0  0  0  0  0  0  0  0
   -5.4597   26.1504  -31.5718 H   0  0  0  0  0  0  0  0  0  0  0  0
   -0.3003   20.7410  -30.5077 H   0  0  0  0  0  0  0  0  0  0  0  0
    1.3025   18.8343  -30.6111 H   0  0  0  0  0  0  0  0  0  0  0  0
    1.4010   17.1785  -28.7447 H   0  0  0  0  0  0  0  0  0  0  0  0
   -0.0848   17.4477  -26.7567 H   0  0  0  0  0  0  0  0  0  0  0  0
   -1.6824   19.3623  -26.6382 H   0  0  0  0  0  0  0  0  0  0  0  0
    2.0705   24.6776  -26.1940 H   0  0  0  0  0  0  0  0  0  0  0  0
    1.7592   25.3071  -27.8518 H   0  0  0  0  0  0  0  0  0  0  0  0
    0.9925   26.6083  -25.1919 H   0  0  0  0  0  0  0  0  0  0  0  0
    2.2099   27.1801  -26.4322 H   0  0  0  0  0  0  0  0  0  0  0  0
   -0.3330   28.0040  -26.1950 H   0  0  0  0  0  0  0  0  0  0  0  0
   -1.6495   27.3396  -27.8972 H   0  0  0  0  0  0  0  0  0  0  0  0
   -0.2533   26.5180  -28.7208 H   0  0  0  0  0  0  0  0  0  0  0  0
   -1.6725   25.5908  -26.1801 H   0  0  0  0  0  0  0  0  0  0  0  0
   -1.7708   24.8416  -27.8187 H   0  0  0  0  0  0  0  0  0  0  0  0
  1  2  2  0
  2  3  1  0
  3  4  1  0
  4  5  2  0
  5  6  1  0
  6  7  1  0
  7  8  2  0
  8  9  1  0
  9 10  1  0
 10 11  2  0
 10 12  2  0
 10 13  1  0
 13 14  1  0
 14 15  1  0
 15 16  1  0
 16 17  1  0
 17 18  1  0
  9 19  2  0
 19 20  1  0
 20 21  2  0
 21 22  1  0
  6 23  1  0
 23 24  2  0
 24 25  1  0
 25 26  2  0
 26 27  1  0
 27 28  2  0
 28 29  1  0
 29 30  2  0
  2 31  1  0
 31 32  1  0
 32 33  1  0
 33 34  1  0
 34 35  1  0
 35 36  1  0
 24  4  1  0
 30 25  1  0
 36 31  1  0
 21  7  1  0
 18 13  1  0
  3 37  1  0
  3 38  1  0
  5 39  1  0
  8 40  1  0
 14 41  1  0
 14 42  1  0
 15 43  1  0
 15 44  1  0
 16 45  1  0
 16 46  1  0
 17 47  1  0
 17 48  1  0
 18 49  1  0
 18 50  1  0
 19 51  1  0
 20 52  1  0
 26 53  1  0
 27 54  1  0
 28 55  1  0
 29 56  1  0
 30 57  1  0
 32 58  1  0
 32 59  1  0
 33 60  1  0
 33 61  1  0
 34 62  1  0
 35 63  1  0
 35 64  1  0
 36 65  1  0
 36 66  1  0
M  CHG  1  22  -1
M  END
>  <UniqueID>  (6) 
6

>  <SMILES>  (6) 
O=C(Cc1cn(-c2cc(S(=O)(=O)N3CCCCC3)ccc2[O-])nc1-c1ccccc1)N1CCNCC1

>  <Energy>  (6) 
115.51272781393544

>  <Genealogy>  (6) 
O=C(Cc1cn(-c2cc(S(=O)(=O)N3CCCCC3)ccc2[O-])nc1-c1ccccc1)N1CCNCC1 (protonated)
O=C(Cc1cn(-c2cc(S(=O)(=O)N3CCCCC3)ccc2[O-])nc1-c1ccccc1)N1CCNCC1 (3D coordinates assigned)
O=C(Cc1cn(-c2cc(S(=O)(=O)N3CCCCC3)ccc2[O-])nc1-c1ccccc1)N1CCNCC1 (nonaromatic ring conformer: 115.51272781393544 kcal/mol)

>  <smiles>  (6) 
O=C(Cc1cn(-c2cc(S(=O)(=O)N3CCCCC3)ccc2O)nc1-c1ccccc1)N1CCNCC1

>  <score_type>  (6) 
oracle

>  <origin>  (6) 
adgpu

>  <m_score__min__energy>  (6) 
-14.800000000000001

>  <m_primary>  (6) 
energy

$$$$
6:0
     RDKit          3D

 51 53  0  0  1  0  0  0  0  0999 V2000
   -7.2740   23.2650  -31.3730 C   0  0  0  0  0  0  0  0  0  0  0  0
   -8.2130   22.2240  -30.8060 C   0  0  0  0  0  0  0  0  0  0  0  0
   -9.1250   21.7870  -31.9580 C   0  0  0  0  0  0  0  0  0  0  0  0
   -9.3100   20.3540  -31.7980 N   0  0  0  0  0  0  0  0  0  0  0  0
   -8.4470   19.5230  -32.2730 C   0  0  0  0  0  0  0  0  0  0  0  0
   -7.3410   20.0430  -32.9380 C   0  0  0  0  0  0  0  0  0  0  0  0
   -6.3800   19.2030  -33.4690 C   0  0  0  0  0  0  0  0  0  0  0  0
   -5.2960   19.7720  -34.1240 O   0  0  0  0  0  0  0  0  0  0  0  0
   -4.2430   20.3230  -33.4060 C   0  0  0  0  0  0  0  0  0  0  0  0
   -4.4810   21.5000  -32.7270 C   0  0  0  0  0  0  0  0  0  0  0  0
   -3.5100   22.1330  -31.9830 C   0  0  0  0  0  0  0  0  0  0  0  0
   -2.2410   21.5990  -31.8910 C   0  0  0  0  0  0  0  0  0  0  0  0
   -1.2940   22.2960  -31.1150 N   0  0  0  0  0  0  0  0  0  0  0  0
   -1.5060   22.8440  -29.8330 C   0  0  0  0  0  0  0  0  0  0  0  0
   -2.5880   22.7760  -29.2100 O   0  0  0  0  0  0  0  0  0  0  0  0
   -0.4390   23.5360  -29.1510 N   0  0  0  0  0  0  0  0  0  0  0  0
   -0.6400   24.0930  -27.8580 C   0  0  0  0  0  0  0  0  0  0  0  0
   -0.3030   23.4850  -26.6890 C   0  0  0  0  0  0  0  0  0  0  0  0
   -0.5450   24.1190  -25.4860 C   0  0  0  0  0  0  0  0  0  0  0  0
   -0.1700   23.4380  -24.2050 C   0  0  0  0  0  0  0  0  0  0  0  0
   -1.1290   25.3700  -25.4510 C   0  0  0  0  0  0  0  0  0  0  0  0
   -1.4770   26.0040  -26.6260 C   0  0  0  0  0  0  0  0  0  0  0  0
   -1.2290   25.3570  -27.8120 C   0  0  0  0  0  0  0  0  0  0  0  0
   -1.5830   26.0060  -28.9610 F   0  0  0  0  0  0  0  0  0  0  0  0
   -2.0120   20.4300  -32.5690 C   0  0  0  0  0  0  0  0  0  0  0  0
   -2.9940   19.7850  -33.3250 C   0  0  0  0  0  0  0  0  0  0  0  0
   -6.5460   17.8760  -33.3260 N   0  0  0  0  0  0  0  0  0  0  0  0
   -7.6100   17.3470  -32.6850 C   0  0  0  0  0  0  0  0  0  0  0  0
   -8.5380   18.2020  -32.1720 N   0  0  0  0  0  0  0  0  0  0  0  0
   -6.7859   23.8061  -30.5490 H   0  0  0  0  0  0  0  0  0  0  0  0
   -6.5096   22.7715  -31.9912 H   0  0  0  0  0  0  0  0  0  0  0  0
   -7.8435   23.9746  -31.9912 H   0  0  0  0  0  0  0  0  0  0  0  0
   -7.6421   21.3639  -30.4260 H   0  0  0  0  0  0  0  0  0  0  0  0
   -8.7979   22.6303  -29.9677 H   0  0  0  0  0  0  0  0  0  0  0  0
  -10.0926   22.3068  -31.8983 H   0  0  0  0  0  0  0  0  0  0  0  0
   -8.6850   22.0307  -32.9363 H   0  0  0  0  0  0  0  0  0  0  0  0
   -7.2303   21.1324  -33.0422 H   0  0  0  0  0  0  0  0  0  0  0  0
   -5.4834   21.9497  -32.7818 H   0  0  0  0  0  0  0  0  0  0  0  0
   -3.7477   23.0704  -31.4587 H   0  0  0  0  0  0  0  0  0  0  0  0
   -0.3160   22.4380  -31.5100 H   0  0  0  0  0  0  0  0  0  0  0  0
    0.4880   23.6330  -29.6040 H   0  0  0  0  0  0  0  0  0  0  0  0
    0.1623   22.4883  -26.7016 H   0  0  0  0  0  0  0  0  0  0  0  0
   -0.5059   24.0480  -23.3535 H   0  0  0  0  0  0  0  0  0  0  0  0
   -0.6512   22.4498  -24.1606 H   0  0  0  0  0  0  0  0  0  0  0  0
    0.9223   23.3163  -24.1606 H   0  0  0  0  0  0  0  0  0  0  0  0
   -1.3170   25.8616  -24.4851 H   0  0  0  0  0  0  0  0  0  0  0  0
   -1.9408   27.0013  -26.6133 H   0  0  0  0  0  0  0  0  0  0  0  0
   -1.0100   19.9794  -32.5155 H   0  0  0  0  0  0  0  0  0  0  0  0
   -2.7600   18.8481  -33.8518 H   0  0  0  0  0  0  0  0  0  0  0  0
   -7.7241   16.2580  -32.5802 H   0  0  0  0  0  0  0  0  0  0  0  0
   -9.3880   17.8200  -31.6620 H   0  0  0  0  0  0  0  0  0  0  0  0
  1  2  1  0
  2  3  1  0
  3  4  1  0
  4  5  2  0
  5  6  1  0
  6  7  2  0
  7  8  1  0
  8  9  1  0
  9 10  2  0
 10 11  1  0
 11 12  2  0
 12 13  1  0
 13 14  1  0
 14 15  2  0
 14 16  1  0
 16 17  1  0
 17 18  2  0
 18 19  1  0
 19 20  1  0
 19 21  2  0
 21 22  1  0
 22 23  2  0
 23 24  1  0
 12 25  1  0
 25 26  2  0
  7 27  1  0
 27 28  2  0
 28 29  1  0
 29  5  1  0
 26  9  1  0
 23 17  1  0
  1 30  1  0
  1 31  1  0
  1 32  1  0
  2 33  1  0
  2 34  1  0
  3 35  1  0
  3 36  1  0
  6 37  1  0
 10 38  1  0
 11 39  1  0
 13 40  1  0
 16 41  1  0
 18 42  1  0
 20 43  1  0
 20 44  1  0
 20 45  1  0
 21 46  1  0
 22 47  1  0
 25 48  1  0
 26 49  1  0
 28 50  1  0
 29 51  1  0
M  END
>  <smiles>  (7) 
CCCN=c1cc(Oc2ccc(NC(=O)Nc3cc(C)ccc3F)cc2)nc[nH]1

>  <score_type>  (7) 
oracle

>  <origin>  (7) 
adgpu

>  <m_score__min__energy>  (7) 
-8.7100000000000009

>  <m_primary>  (7) 
energy

$$$$
7:0
     RDKit          3D

 49 52  0  0  0  0  0  0  0  0999 V2000
   -4.0510   25.3170  -30.8500 O   0  0  0  0  0  0  0  0  0  0  0  0
   -5.1390   24.5460  -30.1560 S   0  0  0  0  0  0  0  0  0  0  0  0
   -6.3760   25.3990  -30.1050 O   0  0  0  0  0  0  0  0  0  0  0  0
   -4.6380   24.1860  -28.5410 N   0  0  0  0  0  0  0  0  0  0  0  0
   -3.3620   23.6050  -28.2740 C   0  0  0  0  0  0  0  0  0  0  0  0
   -3.2810   22.2850  -27.8090 C   0  0  0  0  0  0  0  0  0  0  0  0
   -2.0350   21.6920  -27.5700 C   0  0  0  0  0  0  0  0  0  0  0  0
   -1.9420   20.0190  -27.0130 S   0  0  0  0  0  0  0  0  0  0  0  0
   -1.9350   20.0020  -25.5090 O   0  0  0  0  0  0  0  0  0  0  0  0
   -3.1590   19.2720  -27.4800 O   0  0  0  0  0  0  0  0  0  0  0  0
   -0.5070   19.2190  -27.6040 N   0  0  0  0  0  0  0  0  0  0  0  0
   -0.4290   19.3170  -29.0700 C   0  0  0  0  0  0  0  0  0  0  0  0
    0.9480   18.8330  -29.5650 C   0  0  0  0  0  0  0  0  0  0  0  0
    1.6390   17.8950  -28.5610 C   0  0  0  0  0  0  0  0  0  0  0  0
    0.6190   16.9900  -27.8660 C   0  0  0  0  0  0  0  0  0  0  0  0
   -0.4930   17.8060  -27.1700 C   0  0  0  0  0  0  0  0  0  0  0  0
   -0.8650   22.4280  -27.7970 C   0  0  0  0  0  0  0  0  0  0  0  0
   -0.9400   23.7430  -28.2640 C   0  0  0  0  0  0  0  0  0  0  0  0
   -2.1820   24.3360  -28.5100 C   0  0  0  0  0  0  0  0  0  0  0  0
   -2.2230   25.6470  -28.9830 O   0  0  0  0  0  0  0  0  0  0  0  0
   -5.4450   23.0610  -31.0500 C   0  0  0  0  0  0  0  0  0  0  0  0
   -6.7460   22.7170  -31.4390 C   0  0  0  0  0  0  0  0  0  0  0  0
   -6.9780   21.5370  -32.1520 C   0  0  0  0  0  0  0  0  0  0  0  0
   -5.9120   20.6800  -32.4750 C   0  0  0  0  0  0  0  0  0  0  0  0
   -6.1620   19.4180  -33.2010 C   0  0  0  0  0  0  0  0  0  0  0  0
   -5.6460   19.1180  -34.4090 N   0  0  0  0  0  0  0  0  0  0  0  0
   -6.1270   17.9190  -34.6920 N   0  0  0  0  0  0  0  0  0  0  0  0
   -6.9020   17.5030  -33.7030 N   0  0  0  0  0  0  0  0  0  0  0  0
   -6.9460   18.4210  -32.7530 N   0  0  0  0  0  0  0  0  0  0  0  0
   -4.6090   21.0310  -32.0840 C   0  0  0  0  0  0  0  0  0  0  0  0
   -4.3770   22.2190  -31.3840 C   0  0  0  0  0  0  0  0  0  0  0  0
   -4.2023   21.7111  -27.6306 H   0  0  0  0  0  0  0  0  0  0  0  0
   -1.2159   18.6924  -29.5180 H   0  0  0  0  0  0  0  0  0  0  0  0
   -0.5675   20.3671  -29.3667 H   0  0  0  0  0  0  0  0  0  0  0  0
    0.8122   18.2947  -30.5146 H   0  0  0  0  0  0  0  0  0  0  0  0
    1.5883   19.7187  -29.6898 H   0  0  0  0  0  0  0  0  0  0  0  0
    2.3691   17.2699  -29.0961 H   0  0  0  0  0  0  0  0  0  0  0  0
    2.1424   18.5070  -27.7981 H   0  0  0  0  0  0  0  0  0  0  0  0
    0.1594   16.3299  -28.6163 H   0  0  0  0  0  0  0  0  0  0  0  0
    1.1474   16.4075  -27.0969 H   0  0  0  0  0  0  0  0  0  0  0  0
   -1.4665   17.3529  -27.4088 H   0  0  0  0  0  0  0  0  0  0  0  0
   -0.2964   17.7882  -26.0879 H   0  0  0  0  0  0  0  0  0  0  0  0
    0.1165   21.9692  -27.6070 H   0  0  0  0  0  0  0  0  0  0  0  0
   -0.0167   24.3147  -28.4390 H   0  0  0  0  0  0  0  0  0  0  0  0
   -3.0780   26.0740  -29.3220 H   0  0  0  0  0  0  0  0  0  0  0  0
   -7.5876   23.3773  -31.1827 H   0  0  0  0  0  0  0  0  0  0  0  0
   -8.0011   21.2778  -32.4621 H   0  0  0  0  0  0  0  0  0  0  0  0
   -3.7667   20.3676  -32.3299 H   0  0  0  0  0  0  0  0  0  0  0  0
   -3.3518   22.4932  -31.0946 H   0  0  0  0  0  0  0  0  0  0  0  0
  1  2  2  0
  2  3  2  0
  2  4  1  0
  4  5  1  0
  5  6  2  0
  6  7  1  0
  7  8  1  0
  8  9  2  0
  8 10  2  0
  8 11  1  0
 11 12  1  0
 12 13  1  0
 13 14  1  0
 14 15  1  0
 15 16  1  0
  7 17  2  0
 17 18  1  0
 18 19  2  0
 19 20  1  0
  2 21  1  0
 21 22  2  0
 22 23  1  0
 23 24  2  0
 24 25  1  0
 25 26  1  0
 26 27  2  0
 27 28  1  0
 28 29  1  0
 24 30  1  0
 30 31  2  0
 19  5  1  0
 31 21  1  0
 16 11  1  0
 29 25  2  0
  6 32  1  0
 12 33  1  0
 12 34  1  0
 13 35  1  0
 13 36  1  0
 14 37  1  0
 14 38  1  0
 15 39  1  0
 15 40  1  0
 16 41  1  0
 16 42  1  0
 17 43  1  0
 18 44  1  0
 20 45  1  0
 22 46  1  0
 23 47  1  0
 30 48  1  0
 31 49  1  0
M  CHG  2   4  -1  28  -1
M  END
>  <UniqueID>  (8) 
7

>  <SMILES>  (8) 
O=S(=O)([N-]c1cc(S(=O)(=O)N2CCCCC2)ccc1O)c1ccc(-c2nn[n-]n2)cc1

>  <Energy>  (8) 
98.38273798950371

>  <Genealogy>  (8) 
O=S(=O)([N-]c1cc(S(=O)(=O)N2CCCCC2)ccc1O)c1ccc(-c2nn[n-]n2)cc1 (protonated)
O=S(=O)([N-]c1cc(S(=O)(=O)N2CCCCC2)ccc1O)c1ccc(-c2nn[n-]n2)cc1 (3D coordinates assigned)
O=S(=O)([N-]c1cc(S(=O)(=O)N2CCCCC2)ccc1O)c1ccc(-c2nn[n-]n2)cc1 (nonaromatic ring conformer: 98.38273798950371 kcal/mol)

>  <smiles>  (8) 
O=S(=O)(Nc1cc(S(=O)(=O)N2CCCCC2)ccc1O)c1ccc(-c2nn[nH]n2)cc1

>  <score_type>  (8) 
oracle

>  <origin>  (8) 
adgpu

>  <m_score__min__energy>  (8) 
-11.359999999999999

>  <m_primary>  (8) 
energy

$$$$
8:0
     RDKit          3D

 55 58  0  0  0  0  0  0  0  0999 V2000
   -7.1980   19.3500  -33.2750 O   0  0  0  0  0  0  0  0  0  0  0  0
   -5.9840   19.6430  -33.4550 C   0  0  0  0  0  0  0  0  0  0  0  0
   -5.5560   21.0070  -33.3210 N   0  0  0  0  0  0  0  0  0  0  0  0
   -6.1920   21.9650  -32.4560 C   0  0  0  0  0  0  0  0  0  0  0  0
   -7.5930   21.9840  -32.3630 C   0  0  0  0  0  0  0  0  0  0  0  0
   -8.2360   22.9290  -31.5600 C   0  0  0  0  0  0  0  0  0  0  0  0
   -7.4890   23.8730  -30.8530 C   0  0  0  0  0  0  0  0  0  0  0  0
   -6.0910   23.8770  -30.9470 C   0  0  0  0  0  0  0  0  0  0  0  0
   -5.1690   25.0950  -30.0700 S   0  0  0  0  0  0  0  0  0  0  0  0
   -5.6690   26.4570  -30.4630 O   0  0  0  0  0  0  0  0  0  0  0  0
   -5.3370   24.9390  -28.5840 O   0  0  0  0  0  0  0  0  0  0  0  0
   -3.4900   24.9680  -30.4820 N   0  0  0  0  0  0  0  0  0  0  0  0
   -2.4880   24.3130  -29.6910 C   0  0  0  0  0  0  0  0  0  0  0  0
   -1.8730   24.9290  -28.5880 C   0  0  0  0  0  0  0  0  0  0  0  0
   -0.8960   24.2460  -27.8630 C   0  0  0  0  0  0  0  0  0  0  0  0
   -0.5420   22.9500  -28.2430 C   0  0  0  0  0  0  0  0  0  0  0  0
   -1.1500   22.3640  -29.3070 N   0  0  0  0  0  0  0  0  0  0  0  0
   -2.1050   23.0090  -30.0290 C   0  0  0  0  0  0  0  0  0  0  0  0
   -5.4460   22.9280  -31.7510 C   0  0  0  0  0  0  0  0  0  0  0  0
   -5.0240   18.5800  -33.8420 C   0  0  0  0  0  0  0  0  0  0  0  0
   -3.8670   18.3420  -33.0780 C   0  0  0  0  0  0  0  0  0  0  0  0
   -2.9820   17.3190  -33.4310 C   0  0  0  0  0  0  0  0  0  0  0  0
   -3.2430   16.5120  -34.5470 C   0  0  0  0  0  0  0  0  0  0  0  0
   -2.1490   15.1940  -34.9630 S   0  0  0  0  0  0  0  0  0  0  0  0
   -2.0370   15.0990  -36.4590 O   0  0  0  0  0  0  0  0  0  0  0  0
   -0.7820   15.5110  -34.4220 O   0  0  0  0  0  0  0  0  0  0  0  0
   -2.6770   13.6510  -34.3210 N   0  0  0  0  0  0  0  0  0  0  0  0
   -4.0950   13.3720  -34.6160 C   0  0  0  0  0  0  0  0  0  0  0  0
   -5.0670   14.0500  -33.6210 C   0  0  0  0  0  0  0  0  0  0  0  0
   -4.4140   14.6310  -32.5100 O   0  0  0  0  0  0  0  0  0  0  0  0
   -3.5130   13.7040  -31.9500 C   0  0  0  0  0  0  0  0  0  0  0  0
   -2.3240   13.4710  -32.8970 C   0  0  0  0  0  0  0  0  0  0  0  0
   -4.3880   16.7510  -35.3170 C   0  0  0  0  0  0  0  0  0  0  0  0
   -5.2750   17.7720  -34.9660 C   0  0  0  0  0  0  0  0  0  0  0  0
   -4.7860   21.3410  -33.9440 H   0  0  0  0  0  0  0  0  0  0  0  0
   -8.1880   21.2500  -32.9261 H   0  0  0  0  0  0  0  0  0  0  0  0
   -9.3334   22.9294  -31.4846 H   0  0  0  0  0  0  0  0  0  0  0  0
   -7.9989   24.6150  -30.2210 H   0  0  0  0  0  0  0  0  0  0  0  0
   -2.1618   25.9495  -28.2962 H   0  0  0  0  0  0  0  0  0  0  0  0
   -0.4092   24.7241  -27.0002 H   0  0  0  0  0  0  0  0  0  0  0  0
    0.2294   22.4034  -27.6807 H   0  0  0  0  0  0  0  0  0  0  0  0
   -2.5793   22.5037  -30.8832 H   0  0  0  0  0  0  0  0  0  0  0  0
   -4.3490   22.9356  -31.8318 H   0  0  0  0  0  0  0  0  0  0  0  0
   -3.6571   18.9654  -32.1964 H   0  0  0  0  0  0  0  0  0  0  0  0
   -2.0768   17.1466  -32.8303 H   0  0  0  0  0  0  0  0  0  0  0  0
   -4.3202   13.7369  -35.6290 H   0  0  0  0  0  0  0  0  0  0  0  0
   -4.2406   12.2853  -34.5277 H   0  0  0  0  0  0  0  0  0  0  0  0
   -5.6182   14.8388  -34.1539 H   0  0  0  0  0  0  0  0  0  0  0  0
   -5.7354   13.2670  -33.2335 H   0  0  0  0  0  0  0  0  0  0  0  0
   -3.1413   14.0941  -30.9910 H   0  0  0  0  0  0  0  0  0  0  0  0
   -4.0359   12.7491  -31.7931 H   0  0  0  0  0  0  0  0  0  0  0  0
   -1.5265   14.1839  -32.6406 H   0  0  0  0  0  0  0  0  0  0  0  0
   -1.9991   12.4281  -32.7674 H   0  0  0  0  0  0  0  0  0  0  0  0
   -4.5903   16.1315  -36.2032 H   0  0  0  0  0  0  0  0  0  0  0  0
   -6.1760   17.9452  -35.5728 H   0  0  0  0  0  0  0  0  0  0  0  0
  1  2  2  0
  2  3  1  0
  3  4  1  0
  4  5  2  0
  5  6  1  0
  6  7  2  0
  7  8  1  0
  8  9  1  0
  9 10  2  0
  9 11  2  0
  9 12  1  0
 12 13  1  0
 13 14  2  0
 14 15  1  0
 15 16  2  0
 16 17  1  0
 17 18  2  0
  8 19  2  0
  2 20  1  0
 20 21  2  0
 21 22  1  0
 22 23  2  0
 23 24  1  0
 24 25  2  0
 24 26  2  0
 24 27  1  0
 27 28  1  0
 28 29  1  0
 29 30  1  0
 30 31  1  0
 31 32  1  0
 23 33  1  0
 33 34  2  0
 19  4  1  0
 34 20  1  0
 18 13  1  0
 32 27  1  0
  3 35  1  0
  5 36  1  0
  6 37  1  0
  7 38  1  0
 14 39  1  0
 15 40  1  0
 16 41  1  0
 18 42  1  0
 19 43  1  0
 21 44  1  0
 22 45  1  0
 28 46  1  0
 28 47  1  0
 29 48  1  0
 29 49  1  0
 31 50  1  0
 31 51  1  0
 32 52  1  0
 32 53  1  0
 33 54  1  0
 34 55  1  0
M  CHG  1  12  -1
M  END
>  <UniqueID>  (9) 
8

>  <SMILES>  (9) 
O=C(Nc1cccc(S(=O)(=O)[N-]c2cccnc2)c1)c1ccc(S(=O)(=O)N2CCOCC2)cc1

>  <Energy>  (9) 
78.71275227648509

>  <Genealogy>  (9) 
O=C(Nc1cccc(S(=O)(=O)[N-]c2cccnc2)c1)c1ccc(S(=O)(=O)N2CCOCC2)cc1 (protonated)
O=C(Nc1cccc(S(=O)(=O)[N-]c2cccnc2)c1)c1ccc(S(=O)(=O)N2CCOCC2)cc1 (3D coordinates assigned)
O=C(Nc1cccc(S(=O)(=O)[N-]c2cccnc2)c1)c1ccc(S(=O)(=O)N2CCOCC2)cc1 (nonaromatic ring conformer: 78.71275227648509 kcal/mol)

>  <smiles>  (9) 
O=C(Nc1cccc(S(=O)(=O)Nc2cccnc2)c1)c1ccc(S(=O)(=O)N2CCOCC2)cc1

>  <score_type>  (9) 
oracle

>  <origin>  (9) 
adgpu

>  <m_score__min__energy>  (9) 
-10.25

>  <m_primary>  (9) 
energy

$$$$
9:0
     RDKit          3D

 47 49  0  0  0  0  0  0  0  0999 V2000
   -0.9590   20.5220  -32.7780 C   0  0  0  0  0  0  0  0  0  0  0  0
   -1.8610   20.0280  -33.7610 O   0  0  0  0  0  0  0  0  0  0  0  0
   -2.9670   19.1820  -33.5360 C   0  0  0  0  0  0  0  0  0  0  0  0
   -2.9120   17.7750  -33.6980 C   0  0  0  0  0  0  0  0  0  0  0  0
   -1.7370   17.1320  -34.0690 O   0  0  0  0  0  0  0  0  0  0  0  0
   -4.0660   17.0030  -33.5270 C   0  0  0  0  0  0  0  0  0  0  0  0
   -4.0360   15.6130  -33.8740 N   0  0  0  0  0  0  0  0  0  0  0  0
   -4.2560   14.3610  -32.6940 S   0  0  0  0  0  0  0  0  0  0  0  0
   -5.0740   13.2520  -33.2930 O   0  0  0  0  0  0  0  0  0  0  0  0
   -4.9720   14.9210  -31.4990 O   0  0  0  0  0  0  0  0  0  0  0  0
   -2.6720   13.7720  -32.1880 C   0  0  0  0  0  0  0  0  0  0  0  0
   -1.5100   14.5090  -32.4620 C   0  0  0  0  0  0  0  0  0  0  0  0
   -0.2700   14.0640  -31.9900 C   0  0  0  0  0  0  0  0  0  0  0  0
   -0.1850   12.8850  -31.2440 C   0  0  0  0  0  0  0  0  0  0  0  0
   -1.3380   12.1460  -30.9720 C   0  0  0  0  0  0  0  0  0  0  0  0
   -2.5790   12.5850  -31.4450 C   0  0  0  0  0  0  0  0  0  0  0  0
   -5.2550   17.6080  -33.1040 C   0  0  0  0  0  0  0  0  0  0  0  0
   -5.3220   18.9890  -32.9210 C   0  0  0  0  0  0  0  0  0  0  0  0
   -6.5260   19.5720  -32.5230 O   0  0  0  0  0  0  0  0  0  0  0  0
   -4.1880   19.7870  -33.1610 C   0  0  0  0  0  0  0  0  0  0  0  0
   -4.3160   21.2920  -33.1980 C   0  0  0  0  0  0  0  0  0  0  0  0
   -4.9470   21.7430  -31.9630 N   0  0  0  0  0  0  0  0  0  0  0  0
   -4.6970   23.0270  -31.3800 C   0  0  0  0  0  0  0  0  0  0  0  0
   -5.5150   23.9670  -31.5730 O   0  0  0  0  0  0  0  0  0  0  0  0
   -3.4820   23.2670  -30.5630 C   0  0  0  0  0  0  0  0  0  0  0  0
   -2.6950   22.1730  -30.1540 C   0  0  0  0  0  0  0  0  0  0  0  0
   -1.5620   22.3660  -29.3620 C   0  0  0  0  0  0  0  0  0  0  0  0
   -1.1980   23.6530  -28.9600 C   0  0  0  0  0  0  0  0  0  0  0  0
   -0.0680   23.8350  -28.1720 O   0  0  0  0  0  0  0  0  0  0  0  0
   -1.9720   24.7510  -29.3480 C   0  0  0  0  0  0  0  0  0  0  0  0
   -1.6130   26.0300  -28.9370 O   0  0  0  0  0  0  0  0  0  0  0  0
   -3.1120   24.5660  -30.1430 C   0  0  0  0  0  0  0  0  0  0  0  0
   -3.8750   25.6770  -30.4880 O   0  0  0  0  0  0  0  0  0  0  0  0
   -1.3550   20.3051  -31.7749 H   0  0  0  0  0  0  0  0  0  0  0  0
    0.0192   20.0337  -32.8995 H   0  0  0  0  0  0  0  0  0  0  0  0
   -0.8437   21.6092  -32.8995 H   0  0  0  0  0  0  0  0  0  0  0  0
   -1.5737   15.4375  -33.0484 H   0  0  0  0  0  0  0  0  0  0  0  0
    0.6397   14.6433  -32.2065 H   0  0  0  0  0  0  0  0  0  0  0  0
    0.7904   12.5393  -30.8711 H   0  0  0  0  0  0  0  0  0  0  0  0
   -1.2704   11.2180  -30.3854 H   0  0  0  0  0  0  0  0  0  0  0  0
   -3.4850   11.9980  -31.2339 H   0  0  0  0  0  0  0  0  0  0  0  0
   -6.1443   16.9890  -32.9142 H   0  0  0  0  0  0  0  0  0  0  0  0
   -6.5640   20.5110  -32.1440 H   0  0  0  0  0  0  0  0  0  0  0  0
   -3.3179   21.7453  -33.2896 H   0  0  0  0  0  0  0  0  0  0  0  0
   -4.9284   21.5928  -34.0608 H   0  0  0  0  0  0  0  0  0  0  0  0
   -2.9763   21.1552  -30.4621 H   0  0  0  0  0  0  0  0  0  0  0  0
   -0.9544   21.5024  -29.0537 H   0  0  0  0  0  0  0  0  0  0  0  0
  1  2  1  0
  2  3  1  0
  3  4  2  0
  4  5  1  0
  4  6  1  0
  6  7  1  0
  7  8  1  0
  8  9  2  0
  8 10  2  0
  8 11  1  0
 11 12  2  0
 12 13  1  0
 13 14  2  0
 14 15  1  0
 15 16  2  0
  6 17  2  0
 17 18  1  0
 18 19  1  0
 18 20  2  0
 20 21  1  0
 21 22  1  0
 22 23  1  0
 23 24  2  0
 23 25  1  0
 25 26  2  0
 26 27  1  0
 27 28  2  0
 28 29  1  0
 28 30  1  0
 30 31  1  0
 30 32  2  0
 32 33  1  0
 20  3  1  0
 32 25  1  0
 16 11  1  0
  1 34  1  0
  1 35  1  0
  1 36  1  0
 12 37  1  0
 13 38  1  0
 14 39  1  0
 15 40  1  0
 16 41  1  0
 17 42  1  0
 19 43  1  0
 21 44  1  0
 21 45  1  0
 26 46  1  0
 27 47  1  0
M  CHG  6   5  -1   7  -1  22  -1  29  -1  31  -1  33  -1
M  END
>  <UniqueID>  (10) 
9

>  <SMILES>  (10) 
COc1c([O-])c([N-]S(=O)(=O)c2ccccc2)cc(O)c1C[N-]C(=O)c1ccc([O-])c([O-])c1[O-]

>  <Energy>  (10) 
58.3407254810833

>  <Genealogy>  (10) 
COc1c([O-])c([N-]S(=O)(=O)c2ccccc2)cc(O)c1C[N-]C(=O)c1ccc([O-])c([O-])c1[O-] (protonated)
COc1c([O-])c([N-]S(=O)(=O)c2ccccc2)cc(O)c1C[N-]C(=O)c1ccc([O-])c([O-])c1[O-] (3D coordinates assigned)
COc1c([O-])c([N-]S(=O)(=O)c2ccccc2)cc(O)c1C[N-]C(=O)c1ccc([O-])c([O-])c1[O-] (optimized conformer: 58.3407254810833 kcal/mol)

>  <smiles>  (10) 
COc1c(O)c(NS(=O)(=O)c2ccccc2)cc(O)c1CNC(=O)c1ccc(O)c(O)c1O

>  <score_type>  (10) 
oracle

>  <origin>  (10) 
adgpu

>  <m_score__min__energy>  (10) 
-14.07

>  <m_primary>  (10) 
energy

$$$$
10:0
     RDKit          3D

 58 62  0  0  0  0  0  0  0  0999 V2000
   -3.2617   15.6831  -36.0361 H   0  0  0  0  0  0  0  0  0  0  0  0
   -3.8650   16.0620  -35.1980 C   0  0  0  0  0  0  0  0  0  0  0  0
   -3.6540   17.3090  -34.7110 N   0  0  0  0  0  0  0  0  0  0  0  0
   -4.3770   17.8180  -33.6760 C   0  0  0  0  0  0  0  0  0  0  0  0
   -4.0420   19.1900  -33.2490 C   0  0  0  0  0  0  0  0  0  0  0  0
   -4.9220   20.2490  -33.5240 C   0  0  0  0  0  0  0  0  0  0  0  0
   -5.8470   20.0598  -34.0884 H   0  0  0  0  0  0  0  0  0  0  0  0
   -4.6280   21.5420  -33.0840 C   0  0  0  0  0  0  0  0  0  0  0  0
   -5.3052   22.3728  -33.3313 H   0  0  0  0  0  0  0  0  0  0  0  0
   -3.4750   21.7830  -32.3300 C   0  0  0  0  0  0  0  0  0  0  0  0
   -3.1920   23.0500  -31.9350 F   0  0  0  0  0  0  0  0  0  0  0  0
   -2.6330   20.7180  -31.9700 C   0  0  0  0  0  0  0  0  0  0  0  0
   -1.3950   20.9720  -31.1610 C   0  0  0  0  0  0  0  0  0  0  0  0
   -1.6402   20.9217  -30.0899 H   0  0  0  0  0  0  0  0  0  0  0  0
   -0.6381   20.2104  -31.4000 H   0  0  0  0  0  0  0  0  0  0  0  0
   -0.9991   21.9701  -31.4000 H   0  0  0  0  0  0  0  0  0  0  0  0
   -2.9300   19.4200  -32.4230 C   0  0  0  0  0  0  0  0  0  0  0  0
   -2.2861   18.5784  -32.1279 H   0  0  0  0  0  0  0  0  0  0  0  0
   -5.3950   17.0020  -33.0850 C   0  0  0  0  0  0  0  0  0  0  0  0
   -6.3110   17.3860  -31.9270 C   0  0  0  0  0  0  0  0  0  0  0  0
   -6.3293   16.3843  -31.4729 H   0  0  0  0  0  0  0  0  0  0  0  0
   -7.5390   18.1600  -32.2830 C   0  0  0  0  0  0  0  0  0  0  0  0
   -8.4523   17.7386  -31.8376 H   0  0  0  0  0  0  0  0  0  0  0  0
   -7.8136   18.2089  -33.3471 H   0  0  0  0  0  0  0  0  0  0  0  0
   -7.1140   19.4170  -31.6350 N   0  0  0  0  0  0  0  0  0  0  0  0
   -7.5310   20.7780  -31.5910 C   0  0  0  0  0  0  0  0  0  0  0  0
   -6.7270   21.7100  -31.0190 N   0  0  0  0  0  0  0  0  0  0  0  0
   -7.0630   23.0290  -31.0090 C   0  0  0  0  0  0  0  0  0  0  0  0
   -6.2990   23.9130  -30.4340 N   0  0  0  0  0  0  0  0  0  0  0  0
   -5.0160   23.6810  -29.8250 C   0  0  0  0  0  0  0  0  0  0  0  0
   -4.6130   22.4030  -29.3930 C   0  0  0  0  0  0  0  0  0  0  0  0
   -5.2879   21.5433  -29.5173 H   0  0  0  0  0  0  0  0  0  0  0  0
   -3.3580   22.2250  -28.8070 C   0  0  0  0  0  0  0  0  0  0  0  0
   -3.0555   21.2291  -28.4512 H   0  0  0  0  0  0  0  0  0  0  0  0
   -2.4850   23.3080  -28.6710 C   0  0  0  0  0  0  0  0  0  0  0  0
   -1.5083   23.1663  -28.1853 H   0  0  0  0  0  0  0  0  0  0  0  0
   -2.8480   24.5720  -29.1500 C   0  0  0  0  0  0  0  0  0  0  0  0
   -1.9400   25.6670  -28.9680 N   0  0  0  0  0  0  0  0  0  0  0  0
   -0.8770   25.7500  -28.0090 C   0  0  0  0  0  0  0  0  0  0  0  0
    0.1590   25.0540  -28.1880 O   0  0  0  0  0  0  0  0  0  0  0  0
   -0.9370   26.6730  -26.8300 C   0  0  0  0  0  0  0  0  0  0  0  0
   -0.8988   26.0846  -25.9014 H   0  0  0  0  0  0  0  0  0  0  0  0
   -0.0819   27.3642  -26.8616 H   0  0  0  0  0  0  0  0  0  0  0  0
   -1.8744   27.2477  -26.8616 H   0  0  0  0  0  0  0  0  0  0  0  0
   -4.1220   24.7540  -29.7170 C   0  0  0  0  0  0  0  0  0  0  0  0
   -4.4195   25.7491  -30.0794 H   0  0  0  0  0  0  0  0  0  0  0  0
   -8.2380   23.4250  -31.5750 N   0  0  0  0  0  0  0  0  0  0  0  0
   -8.5110   24.4350  -31.5670 H   0  0  0  0  0  0  0  0  0  0  0  0
   -9.0730   22.5220  -32.1570 C   0  0  0  0  0  0  0  0  0  0  0  0
  -10.0157   22.8591  -32.6127 H   0  0  0  0  0  0  0  0  0  0  0  0
   -8.7350   21.1720  -32.1760 C   0  0  0  0  0  0  0  0  0  0  0  0
   -9.4023   20.4320  -32.6419 H   0  0  0  0  0  0  0  0  0  0  0  0
   -5.9500   18.6310  -31.1800 C   0  0  0  0  0  0  0  0  0  0  0  0
   -5.9343   18.4846  -30.0899 H   0  0  0  0  0  0  0  0  0  0  0  0
   -4.9518   19.0565  -31.3604 H   0  0  0  0  0  0  0  0  0  0  0  0
   -5.5830   15.7540  -33.5960 N   0  0  0  0  0  0  0  0  0  0  0  0
   -4.8520   15.2670  -34.6270 C   0  0  0  0  0  0  0  0  0  0  0  0
   -5.0376   14.2522  -35.0088 H   0  0  0  0  0  0  0  0  0  0  0  0
  1  2  1  0
  2  3  2  0
  3  4  1  0
  4  5  1  0
  5  6  2  0
  6  7  1  0
  6  8  1  0
  8  9  1  0
  8 10  2  0
 10 11  1  0
 10 12  1  0
 12 13  1  0
 13 14  1  0
 13 15  1  0
 13 16  1  0
 12 17  2  0
 17 18  1  0
  4 19  2  0
 19 20  1  0
 20 21  1  0
 20 22  1  0
 22 23  1  0
 22 24  1  0
 22 25  1  0
 25 26  1  0
 26 27  2  0
 27 28  1  0
 28 29  2  0
 29 30  1  0
 30 31  2  0
 31 32  1  0
 31 33  1  0
 33 34  1  0
 33 35  2  0
 35 36  1  0
 35 37  1  0
 37 38  1  0
 38 39  1  0
 39 40  2  0
 39 41  1  0
 41 42  1  0
 41 43  1  0
 41 44  1  0
 37 45  2  0
 45 46  1  0
 28 47  1  0
 47 48  1  0
 47 49  1  0
 49 50  1  0
 49 51  2  0
 51 52  1  0
 25 53  1  0
 53 54  1  0
 53 55  1  0
 19 56  1  0
 56 57  2  0
 57 58  1  0
 57  2  1  0
 17  5  1  0
 53 20  1  0
 51 26  1  0
 45 30  1  0
M  CHG  1  38  -1
M  END
>  <UniqueID>  (11) 
10

>  <SMILES>  (11) 
CC(=O)[N-]c1cccc(/N=c2\nc(N3CC(c4nccnc4-c4ccc(F)c(C)c4)C3)cc[nH]2)c1

>  <Energy>  (11) 
129.47409399752638

>  <Genealogy>  (11) 
CC(=O)[N-]c1cccc(N=c2nc(N3CC(c4nccnc4-c4ccc(F)c(C)c4)C3)cc[nH]2)c1 (protonated)
CC(=O)[N-]c1cccc(/N=c2\nc(N3CC(c4nccnc4-c4ccc(F)c(C)c4)C3)cc[nH]2)c1 (cis-trans isomerization)
CC(=O)[N-]c1cccc(/N=c2\nc(N3CC(c4nccnc4-c4ccc(F)c(C)c4)C3)cc[nH]2)c1 (3D coordinates assigned)
CC(=O)[N-]c1cccc(/N=c2\nc(N3CC(c4nccnc4-c4ccc(F)c(C)c4)C3)cc[nH]2)c1 (nonaromatic ring conformer: 129.47409399752638 kcal/mol)

>  <smiles>  (11) 
CC(=O)Nc1cccc(N=c2nc(N3CC(c4nccnc4-c4ccc(F)c(C)c4)C3)cc[nH]2)c1

>  <score_type>  (11) 
oracle

>  <origin>  (11) 
adgpu

>  <m_score__min__energy>  (11) 
-12.49

>  <m_primary>  (11) 
energy

$$$$
11:0
     RDKit          3D

 43 45  0  0  0  0  0  0  0  0999 V2000
   -1.1560   25.4210  -29.3000 N   0  0  0  0  0  0  0  0  0  0  0  0
   -1.4130   24.6820  -27.7590 S   0  0  0  0  0  0  0  0  0  0  0  0
   -0.2420   24.9920  -26.8680 O   0  0  0  0  0  0  0  0  0  0  0  0
   -2.6530   25.2470  -27.1250 O   0  0  0  0  0  0  0  0  0  0  0  0
   -1.5670   22.9310  -27.9540 C   0  0  0  0  0  0  0  0  0  0  0  0
   -1.1620   22.0910  -26.9050 C   0  0  0  0  0  0  0  0  0  0  0  0
   -1.3040   20.7060  -27.0110 C   0  0  0  0  0  0  0  0  0  0  0  0
   -1.8430   20.1440  -28.1680 C   0  0  0  0  0  0  0  0  0  0  0  0
   -2.2360   20.9660  -29.2260 C   0  0  0  0  0  0  0  0  0  0  0  0
   -2.1110   22.3620  -29.1270 C   0  0  0  0  0  0  0  0  0  0  0  0
   -2.5140   23.1870  -30.2310 N   0  0  0  0  0  0  0  0  0  0  0  0
   -3.8670   23.2500  -30.7270 C   0  0  0  0  0  0  0  0  0  0  0  0
   -4.5710   22.0790  -31.0670 C   0  0  0  0  0  0  0  0  0  0  0  0
   -5.9100   22.1360  -31.4680 C   0  0  0  0  0  0  0  0  0  0  0  0
   -6.7750   20.6410  -31.8250 S   0  0  0  0  0  0  0  0  0  0  0  0
   -7.9590   20.5120  -30.9080 O   0  0  0  0  0  0  0  0  0  0  0  0
   -7.2700   20.6650  -33.2440 O   0  0  0  0  0  0  0  0  0  0  0  0
   -5.7300   19.2810  -31.5670 N   0  0  0  0  0  0  0  0  0  0  0  0
   -5.7110   18.1500  -32.4410 C   0  0  0  0  0  0  0  0  0  0  0  0
   -4.4780   17.6050  -32.8200 C   0  0  0  0  0  0  0  0  0  0  0  0
   -4.4270   16.5250  -33.7090 C   0  0  0  0  0  0  0  0  0  0  0  0
   -5.6090   15.9770  -34.2110 C   0  0  0  0  0  0  0  0  0  0  0  0
   -6.8440   16.5020  -33.8220 C   0  0  0  0  0  0  0  0  0  0  0  0
   -6.9030   17.5820  -32.9290 C   0  0  0  0  0  0  0  0  0  0  0  0
   -8.1370   18.0820  -32.5220 O   0  0  0  0  0  0  0  0  0  0  0  0
   -6.5520   23.3780  -31.5550 C   0  0  0  0  0  0  0  0  0  0  0  0
   -5.8600   24.5490  -31.2360 C   0  0  0  0  0  0  0  0  0  0  0  0
   -4.5270   24.4890  -30.8170 C   0  0  0  0  0  0  0  0  0  0  0  0
   -3.8650   25.6680  -30.4910 O   0  0  0  0  0  0  0  0  0  0  0  0
   -2.0090   25.2440  -29.8770 H   0  0  0  0  0  0  0  0  0  0  0  0
   -0.7294   22.5271  -25.9925 H   0  0  0  0  0  0  0  0  0  0  0  0
   -0.9901   20.0569  -26.1803 H   0  0  0  0  0  0  0  0  0  0  0  0
   -1.9585   19.0529  -28.2471 H   0  0  0  0  0  0  0  0  0  0  0  0
   -2.6461   20.5178  -30.1430 H   0  0  0  0  0  0  0  0  0  0  0  0
   -1.8010   23.8360  -30.6300 H   0  0  0  0  0  0  0  0  0  0  0  0
   -4.0610   21.1057  -31.0166 H   0  0  0  0  0  0  0  0  0  0  0  0
   -3.5456   18.0274  -32.4174 H   0  0  0  0  0  0  0  0  0  0  0  0
   -3.4554   16.1079  -34.0122 H   0  0  0  0  0  0  0  0  0  0  0  0
   -5.5679   15.1313  -34.9133 H   0  0  0  0  0  0  0  0  0  0  0  0
   -7.7735   16.0667  -34.2176 H   0  0  0  0  0  0  0  0  0  0  0  0
   -8.2400   19.0340  -32.1870 H   0  0  0  0  0  0  0  0  0  0  0  0
   -7.6030   23.4314  -31.8751 H   0  0  0  0  0  0  0  0  0  0  0  0
   -6.3659   25.5226  -31.3147 H   0  0  0  0  0  0  0  0  0  0  0  0
  1  2  1  0
  2  3  2  0
  2  4  2  0
  2  5  1  0
  5  6  2  0
  6  7  1  0
  7  8  2  0
  8  9  1  0
  9 10  2  0
 10 11  1  0
 11 12  1  0
 12 13  2  0
 13 14  1  0
 14 15  1  0
 15 16  2  0
 15 17  2  0
 15 18  1  0
 18 19  1  0
 19 20  2  0
 20 21  1  0
 21 22  2  0
 22 23  1  0
 23 24  2  0
 24 25  1  0
 14 26  2  0
 26 27  1  0
 27 28  2  0
 28 29  1  0
 10  5  1  0
 28 12  1  0
 24 19  1  0
  1 30  1  0
  6 31  1  0
  7 32  1  0
  8 33  1  0
  9 34  1  0
 11 35  1  0
 13 36  1  0
 20 37  1  0
 21 38  1  0
 22 39  1  0
 23 40  1  0
 25 41  1  0
 26 42  1  0
 27 43  1  0
M  CHG  3   1  -1  18  -1  29  -1
M  END
>  <UniqueID>  (12) 
11

>  <SMILES>  (12) 
[NH-]S(=O)(=O)c1ccccc1Nc1cc(S(=O)(=O)[N-]c2ccccc2O)ccc1[O-]

>  <Energy>  (12) 
58.148132330415926

>  <Genealogy>  (12) 
[NH-]S(=O)(=O)c1ccccc1Nc1cc(S(=O)(=O)[N-]c2ccccc2O)ccc1[O-] (protonated)
[NH-]S(=O)(=O)c1ccccc1Nc1cc(S(=O)(=O)[N-]c2ccccc2O)ccc1[O-] (3D coordinates assigned)
[NH-]S(=O)(=O)c1ccccc1Nc1cc(S(=O)(=O)[N-]c2ccccc2O)ccc1[O-] (optimized conformer: 58.148132330415926 kcal/mol)

>  <smiles>  (12) 
NS(=O)(=O)c1ccccc1Nc1cc(S(=O)(=O)Nc2ccccc2O)ccc1O

>  <score_type>  (12) 
oracle

>  <origin>  (12) 
adgpu

>  <m_score__min__energy>  (12) 
-13.83

>  <m_primary>  (12) 
energy

$$$$
12:0
     RDKit          3D

 73 77  0  0  0  0  0  0  0  0999 V2000
   -1.2910   20.3290  -28.3420 O   0  0  0  0  0  0  0  0  0  0  0  0
   -1.0970   21.5300  -28.0180 C   0  0  0  0  0  0  0  0  0  0  0  0
   -1.8050   22.6050  -28.7290 C   0  0  0  0  0  0  0  0  0  0  0  0
   -1.7270   23.9290  -28.2740 C   0  0  0  0  0  0  0  0  0  0  0  0
   -2.4250   24.9400  -28.9370 C   0  0  0  0  0  0  0  0  0  0  0  0
   -3.2110   24.6390  -30.0520 C   0  0  0  0  0  0  0  0  0  0  0  0
   -3.8700   25.6660  -30.7150 O   0  0  0  0  0  0  0  0  0  0  0  0
   -3.3130   23.3100  -30.5010 C   0  0  0  0  0  0  0  0  0  0  0  0
   -4.1590   22.9570  -31.5970 N   0  0  0  0  0  0  0  0  0  0  0  0
   -5.8870   22.9480  -31.4620 S   0  0  0  0  0  0  0  0  0  0  0  0
   -6.3070   23.2630  -30.0550 O   0  0  0  0  0  0  0  0  0  0  0  0
   -6.4470   24.0040  -32.3730 O   0  0  0  0  0  0  0  0  0  0  0  0
   -6.5080   21.3700  -31.9490 C   0  0  0  0  0  0  0  0  0  0  0  0
   -7.7650   20.9430  -31.5050 C   0  0  0  0  0  0  0  0  0  0  0  0
   -8.2450   19.6820  -31.8660 C   0  0  0  0  0  0  0  0  0  0  0  0
   -7.4770   18.8380  -32.6770 C   0  0  0  0  0  0  0  0  0  0  0  0
   -7.9840   17.5900  -33.0250 O   0  0  0  0  0  0  0  0  0  0  0  0
   -6.2150   19.2610  -33.1350 C   0  0  0  0  0  0  0  0  0  0  0  0
   -5.2470   18.2640  -34.2380 S   0  0  0  0  0  0  0  0  0  0  0  0
   -3.8230   18.7480  -34.1980 O   0  0  0  0  0  0  0  0  0  0  0  0
   -5.7490   18.4410  -35.6440 O   0  0  0  0  0  0  0  0  0  0  0  0
   -5.2680   16.5640  -33.8370 N   0  0  0  0  0  0  0  0  0  0  0  0
   -4.1480   15.8370  -34.4350 C   0  0  0  0  0  0  0  0  0  0  0  0
   -3.9260   14.6060  -33.5670 C   0  0  0  0  0  0  0  0  0  0  0  0
   -4.6380   14.9090  -32.2540 C   0  0  0  0  0  0  0  0  0  0  0  0
   -5.1430   16.3350  -32.4020 C   0  0  0  0  0  0  0  0  0  0  0  0
   -5.7380   20.5260  -32.7600 C   0  0  0  0  0  0  0  0  0  0  0  0
   -2.5810   22.3050  -29.8570 C   0  0  0  0  0  0  0  0  0  0  0  0
   -0.2470   21.8360  -26.9070 N   0  0  0  0  0  0  0  0  0  0  0  0
    1.1590   22.1950  -27.1080 C   0  0  0  0  0  0  0  0  0  0  0  0
    1.4150   23.6360  -26.6330 C   0  0  0  0  0  0  0  0  0  0  0  0
    0.8550   23.8650  -25.2080 C   0  0  0  0  0  0  0  0  0  0  0  0
    1.1180   25.2270  -24.6600 N   0  0  0  0  0  0  0  0  0  0  0  0
    1.8660   26.1560  -25.5390 C   0  0  0  0  0  0  0  0  0  0  0  0
    0.9480   27.1350  -26.2990 C   0  0  0  0  0  0  0  0  0  0  0  0
   -0.0370   27.8300  -25.3600 C   0  0  0  0  0  0  0  0  0  0  0  0
   -0.8260   26.8010  -24.5540 C   0  0  0  0  0  0  0  0  0  0  0  0
    0.1320   25.8950  -23.7780 C   0  0  0  0  0  0  0  0  0  0  0  0
   -0.6400   23.4710  -25.1490 C   0  0  0  0  0  0  0  0  0  0  0  0
   -0.8300   22.0170  -25.5780 C   0  0  0  0  0  0  0  0  0  0  0  0
   -1.1147   24.1715  -27.3930 H   0  0  0  0  0  0  0  0  0  0  0  0
   -2.3558   25.9781  -28.5799 H   0  0  0  0  0  0  0  0  0  0  0  0
   -8.3760   21.6019  -30.8705 H   0  0  0  0  0  0  0  0  0  0  0  0
   -9.2319   19.3502  -31.5111 H   0  0  0  0  0  0  0  0  0  0  0  0
   -4.3942   15.5378  -35.4645 H   0  0  0  0  0  0  0  0  0  0  0  0
   -3.2442   16.4623  -34.4810 H   0  0  0  0  0  0  0  0  0  0  0  0
   -4.3593   13.7145  -34.0439 H   0  0  0  0  0  0  0  0  0  0  0  0
   -2.8567   14.3969  -33.4160 H   0  0  0  0  0  0  0  0  0  0  0  0
   -5.4777   14.2152  -32.1002 H   0  0  0  0  0  0  0  0  0  0  0  0
   -3.9721   14.7939  -31.3861 H   0  0  0  0  0  0  0  0  0  0  0  0
   -6.1198   16.4488  -31.9092 H   0  0  0  0  0  0  0  0  0  0  0  0
   -4.4586   17.0580  -31.9342 H   0  0  0  0  0  0  0  0  0  0  0  0
   -4.7485   20.8589  -33.1066 H   0  0  0  0  0  0  0  0  0  0  0  0
   -2.6152   21.2739  -30.2386 H   0  0  0  0  0  0  0  0  0  0  0  0
    1.7953   21.5052  -26.5341 H   0  0  0  0  0  0  0  0  0  0  0  0
    1.3970   22.1237  -28.1796 H   0  0  0  0  0  0  0  0  0  0  0  0
    2.4987   23.8243  -26.6269 H   0  0  0  0  0  0  0  0  0  0  0  0
    0.9048   24.3251  -27.3220 H   0  0  0  0  0  0  0  0  0  0  0  0
    1.4143   23.1981  -24.5354 H   0  0  0  0  0  0  0  0  0  0  0  0
    2.5644   26.7386  -24.9202 H   0  0  0  0  0  0  0  0  0  0  0  0
    2.3924   25.5479  -26.2893 H   0  0  0  0  0  0  0  0  0  0  0  0
    1.5696   27.8973  -26.7914 H   0  0  0  0  0  0  0  0  0  0  0  0
    0.3703   26.5602  -27.0379 H   0  0  0  0  0  0  0  0  0  0  0  0
    0.5193   28.4810  -24.6696 H   0  0  0  0  0  0  0  0  0  0  0  0
   -0.7401   28.4259  -25.9605 H   0  0  0  0  0  0  0  0  0  0  0  0
   -1.4873   27.3224  -23.8463 H   0  0  0  0  0  0  0  0  0  0  0  0
   -1.4249   26.1865  -25.2423 H   0  0  0  0  0  0  0  0  0  0  0  0
    0.6742   26.5042  -23.0399 H   0  0  0  0  0  0  0  0  0  0  0  0
   -0.4677   25.1114  -23.2919 H   0  0  0  0  0  0  0  0  0  0  0  0
   -1.0062   23.5949  -24.1192 H   0  0  0  0  0  0  0  0  0  0  0  0
   -1.2051   24.1198  -25.8343 H   0  0  0  0  0  0  0  0  0  0  0  0
   -0.3277   21.3515  -24.8605 H   0  0  0  0  0  0  0  0  0  0  0  0
   -1.9023   21.7730  -25.6046 H   0  0  0  0  0  0  0  0  0  0  0  0
  1  2  2  0
  2  3  1  0
  3  4  2  0
  4  5  1  0
  5  6  2  0
  6  7  1  0
  6  8  1  0
  8  9  1  0
  9 10  1  0
 10 11  2  0
 10 12  2  0
 10 13  1  0
 13 14  2  0
 14 15  1  0
 15 16  2  0
 16 17  1  0
 16 18  1  0
 18 19  1  0
 19 20  2  0
 19 21  2  0
 19 22  1  0
 22 23  1  0
 23 24  1  0
 24 25  1  0
 25 26  1  0
 18 27  2  0
  8 28  2  0
  2 29  1  0
 29 30  1  0
 30 31  1  0
 31 32  1  0
 32 33  1  0
 33 34  1  0
 34 35  1  0
 35 36  1  0
 36 37  1  0
 37 38  1  0
 32 39  1  0
 39 40  1  0
 28  3  1  0
 40 29  1  0
 27 13  1  0
 38 33  1  0
 26 22  1  0
  4 41  1  0
  5 42  1  0
 14 43  1  0
 15 44  1  0
 23 45  1  0
 23 46  1  0
 24 47  1  0
 24 48  1  0
 25 49  1  0
 25 50  1  0
 26 51  1  0
 26 52  1  0
 27 53  1  0
 28 54  1  0
 30 55  1  0
 30 56  1  0
 31 57  1  0
 31 58  1  0
 32 59  1  0
 34 60  1  0
 34 61  1  0
 35 62  1  0
 35 63  1  0
 36 64  1  0
 36 65  1  0
 37 66  1  0
 37 67  1  0
 38 68  1  0
 38 69  1  0
 39 70  1  0
 39 71  1  0
 40 72  1  0
 40 73  1  0
M  CHG  3   7  -1   9  -1  17  -1
M  END
>  <UniqueID>  (13) 
12

>  <SMILES>  (13) 
O=C(c1ccc([O-])c([N-]S(=O)(=O)c2ccc([O-])c(S(=O)(=O)N3CCCC3)c2)c1)N1CCC(N2CCCCC2)CC1

>  <Energy>  (13) 
101.09258070803382

>  <Genealogy>  (13) 
O=C(c1ccc([O-])c([N-]S(=O)(=O)c2ccc([O-])c(S(=O)(=O)N3CCCC3)c2)c1)N1CCC(N2CCCCC2)CC1 (protonated)
O=C(c1ccc([O-])c([N-]S(=O)(=O)c2ccc([O-])c(S(=O)(=O)N3CCCC3)c2)c1)N1CCC(N2CCCCC2)CC1 (3D coordinates assigned)
O=C(c1ccc([O-])c([N-]S(=O)(=O)c2ccc([O-])c(S(=O)(=O)N3CCCC3)c2)c1)N1CCC(N2CCCCC2)CC1 (nonaromatic ring conformer: 101.09258070803382 kcal/mol)

>  <smiles>  (13) 
O=C(c1ccc(O)c(NS(=O)(=O)c2ccc(O)c(S(=O)(=O)N3CCCC3)c2)c1)N1CCC(N2CCCCC2)CC1

>  <score_type>  (13) 
oracle

>  <origin>  (13) 
adgpu

>  <m_score__min__energy>  (13) 
-15.050000000000001

>  <m_primary>  (13) 
energy

$$$$
13:0
     RDKit          3D

 28 30  0  0  0  0  0  0  0  0999 V2000
   -6.1130   16.7110  -30.9310 O   0  0  0  0  0  0  0  0  0  0  0  0
   -6.0300   17.2560  -32.0610 C   0  0  0  0  0  0  0  0  0  0  0  0
   -5.4240   16.5750  -33.0720 N   0  0  0  0  0  0  0  0  0  0  0  0
   -5.2740   17.1080  -34.3120 C   0  0  0  0  0  0  0  0  0  0  0  0
   -5.7390   18.3950  -34.5790 C   0  0  0  0  0  0  0  0  0  0  0  0
   -6.3650   19.1180  -33.5630 C   0  0  0  0  0  0  0  0  0  0  0  0
   -6.5330   18.5580  -32.2910 C   0  0  0  0  0  0  0  0  0  0  0  0
   -7.2000   19.3490  -31.2940 N   0  0  0  0  0  0  0  0  0  0  0  0
   -8.0570   20.8400  -31.5270 S   0  0  0  0  0  0  0  0  0  0  0  0
   -8.6900   20.8410  -32.8900 O   0  0  0  0  0  0  0  0  0  0  0  0
   -9.1360   20.9480  -30.4870 O   0  0  0  0  0  0  0  0  0  0  0  0
   -6.9660   22.2100  -31.3410 C   0  0  0  0  0  0  0  0  0  0  0  0
   -7.2080   23.4130  -32.0460 C   0  0  0  0  0  0  0  0  0  0  0  0
   -6.3370   24.5090  -31.9110 C   0  0  0  0  0  0  0  0  0  0  0  0
   -5.2390   24.3720  -31.0650 C   0  0  0  0  0  0  0  0  0  0  0  0
   -4.2990   25.3010  -30.8090 N   0  0  0  0  0  0  0  0  0  0  0  0
   -3.4670   24.6840  -29.9360 C   0  0  0  0  0  0  0  0  0  0  0  0
   -2.3400   25.2980  -29.4060 O   0  0  0  0  0  0  0  0  0  0  0  0
   -3.8630   23.3880  -29.6390 C   0  0  0  0  0  0  0  0  0  0  0  0
   -5.0060   23.2090  -30.3770 C   0  0  0  0  0  0  0  0  0  0  0  0
   -5.8490   22.1060  -30.4860 C   0  0  0  0  0  0  0  0  0  0  0  0
   -4.7855   16.5241  -35.1060 H   0  0  0  0  0  0  0  0  0  0  0  0
   -5.6138   18.8354  -35.5792 H   0  0  0  0  0  0  0  0  0  0  0  0
   -6.7295   20.1364  -33.7631 H   0  0  0  0  0  0  0  0  0  0  0  0
   -8.0850   23.4915  -32.7053 H   0  0  0  0  0  0  0  0  0  0  0  0
   -6.5175   25.4465  -32.4573 H   0  0  0  0  0  0  0  0  0  0  0  0
   -3.3731   22.6688  -28.9662 H   0  0  0  0  0  0  0  0  0  0  0  0
   -5.6500   21.1823  -29.9228 H   0  0  0  0  0  0  0  0  0  0  0  0
  1  2  2  0
  2  3  1  0
  3  4  1  0
  4  5  2  0
  5  6  1  0
  6  7  2  0
  7  8  1  0
  8  9  1  0
  9 10  2  0
  9 11  2  0
  9 12  1  0
 12 13  2  0
 13 14  1  0
 14 15  2  0
 15 16  1  0
 16 17  1  0
 17 18  1  0
 17 19  2  0
 19 20  1  0
 20 21  2  0
  7  2  1  0
 21 12  1  0
 20 15  1  0
  4 22  1  0
  5 23  1  0
  6 24  1  0
 13 25  1  0
 14 26  1  0
 19 27  1  0
 21 28  1  0
M  CHG  4   3  -1   8  -1  16  -1  18  -1
M  END
>  <UniqueID>  (14) 
13

>  <SMILES>  (14) 
O=c1[n-]cccc1[N-]S(=O)(=O)c1ccc2[n-]c([O-])cc2c1

>  <Energy>  (14) 
70.22947014552571

>  <Genealogy>  (14) 
O=c1[n-]cccc1[N-]S(=O)(=O)c1ccc2[n-]c([O-])cc2c1 (protonated)
O=c1[n-]cccc1[N-]S(=O)(=O)c1ccc2[n-]c([O-])cc2c1 (3D coordinates assigned)
O=c1[n-]cccc1[N-]S(=O)(=O)c1ccc2[n-]c([O-])cc2c1 (optimized conformer: 70.22947014552571 kcal/mol)

>  <smiles>  (14) 
O=c1[nH]cccc1NS(=O)(=O)c1ccc2[nH]c(O)cc2c1

>  <score_type>  (14) 
oracle

>  <origin>  (14) 
adgpu

>  <m_score__min__energy>  (14) 
-11.85

>  <m_primary>  (14) 
energy

$$$$
14:0
     RDKit          3D

 40 41  0  0  0  0  0  0  0  0999 V2000
    0.1850   20.1560  -30.0100 C   0  0  0  0  0  0  0  0  0  0  0  0
   -0.1810   20.8660  -31.1900 O   0  0  0  0  0  0  0  0  0  0  0  0
   -1.3770   20.6680  -31.8960 C   0  0  0  0  0  0  0  0  0  0  0  0
   -2.3650   21.6680  -31.9970 C   0  0  0  0  0  0  0  0  0  0  0  0
   -3.5490   21.4300  -32.7150 C   0  0  0  0  0  0  0  0  0  0  0  0
   -4.5910   22.5080  -32.8580 C   0  0  0  0  0  0  0  0  0  0  0  0
   -5.2270   22.7730  -31.5490 N   0  0  0  0  0  0  0  0  0  0  0  0
   -6.2960   21.7940  -31.2850 C   0  0  0  0  0  0  0  0  0  0  0  0
   -5.7650   24.1470  -31.4760 C   0  0  0  0  0  0  0  0  0  0  0  0
   -4.9620   24.9860  -30.5180 C   0  0  0  0  0  0  0  0  0  0  0  0
   -5.5610   25.7190  -29.6890 O   0  0  0  0  0  0  0  0  0  0  0  0
   -3.5300   24.9180  -30.4730 N   0  0  0  0  0  0  0  0  0  0  0  0
   -2.7700   24.2050  -29.4910 C   0  0  0  0  0  0  0  0  0  0  0  0
   -3.1230   22.8980  -29.1200 C   0  0  0  0  0  0  0  0  0  0  0  0
   -2.3700   22.2070  -28.1660 C   0  0  0  0  0  0  0  0  0  0  0  0
   -2.8340   20.5830  -27.6930 Cl  0  0  0  0  0  0  0  0  0  0  0  0
   -1.2420   22.8080  -27.5980 C   0  0  0  0  0  0  0  0  0  0  0  0
   -0.8630   24.0950  -27.9930 C   0  0  0  0  0  0  0  0  0  0  0  0
   -1.6200   24.7910  -28.9420 C   0  0  0  0  0  0  0  0  0  0  0  0
   -1.2320   26.0690  -29.3300 O   0  0  0  0  0  0  0  0  0  0  0  0
   -3.7400   20.1880  -33.3380 C   0  0  0  0  0  0  0  0  0  0  0  0
   -2.7650   19.1940  -33.2390 C   0  0  0  0  0  0  0  0  0  0  0  0
   -1.5890   19.4320  -32.5210 C   0  0  0  0  0  0  0  0  0  0  0  0
   -0.6270   18.4330  -32.4320 O   0  0  0  0  0  0  0  0  0  0  0  0
   -0.1143   20.7367  -29.1250 H   0  0  0  0  0  0  0  0  0  0  0  0
   -0.3224   19.1801  -29.9970 H   0  0  0  0  0  0  0  0  0  0  0  0
    1.2743   20.0031  -29.9970 H   0  0  0  0  0  0  0  0  0  0  0  0
   -2.2080   22.6418  -31.5102 H   0  0  0  0  0  0  0  0  0  0  0  0
   -4.1144   23.4291  -33.2247 H   0  0  0  0  0  0  0  0  0  0  0  0
   -5.3589   22.1758  -33.5721 H   0  0  0  0  0  0  0  0  0  0  0  0
   -6.4250   21.6759  -30.1990 H   0  0  0  0  0  0  0  0  0  0  0  0
   -7.2371   22.1500  -31.7295 H   0  0  0  0  0  0  0  0  0  0  0  0
   -6.0240   20.8253  -31.7295 H   0  0  0  0  0  0  0  0  0  0  0  0
   -5.7248   24.6035  -32.4760 H   0  0  0  0  0  0  0  0  0  0  0  0
   -6.8039   24.1000  -31.1177 H   0  0  0  0  0  0  0  0  0  0  0  0
   -3.9965   22.4150  -29.5822 H   0  0  0  0  0  0  0  0  0  0  0  0
   -0.6534   22.2688  -26.8412 H   0  0  0  0  0  0  0  0  0  0  0  0
    0.0325   24.5613  -27.5565 H   0  0  0  0  0  0  0  0  0  0  0  0
   -4.6618   19.9965  -33.9069 H   0  0  0  0  0  0  0  0  0  0  0  0
   -2.9222   18.2209  -33.7271 H   0  0  0  0  0  0  0  0  0  0  0  0
  1  2  1  0
  2  3  1  0
  3  4  2  0
  4  5  1  0
  5  6  1  0
  6  7  1  0
  7  8  1  0
  7  9  1  0
  9 10  1  0
 10 11  2  0
 10 12  1  0
 12 13  1  0
 13 14  2  0
 14 15  1  0
 15 16  1  0
 15 17  2  0
 17 18  1  0
 18 19  2  0
 19 20  1  0
  5 21  2  0
 21 22  1  0
 22 23  2  0
 23 24  1  0
 23  3  1  0
 19 13  1  0
  1 25  1  0
  1 26  1  0
  1 27  1  0
  4 28  1  0
  6 29  1  0
  6 30  1  0
  8 31  1  0
  8 32  1  0
  8 33  1  0
  9 34  1  0
  9 35  1  0
 14 36  1  0
 17 37  1  0
 18 38  1  0
 21 39  1  0
 22 40  1  0
M  CHG  3  12  -1  20  -1  24  -1
M  END
>  <UniqueID>  (15) 
14

>  <SMILES>  (15) 
COc1cc(CN(C)CC(=O)[N-]c2cc(Cl)ccc2[O-])ccc1[O-]

>  <Energy>  (15) 
44.76983955379007

>  <Genealogy>  (15) 
COc1cc(CN(C)CC(=O)[N-]c2cc(Cl)ccc2[O-])ccc1[O-] (protonated)
COc1cc(CN(C)CC(=O)[N-]c2cc(Cl)ccc2[O-])ccc1[O-] (3D coordinates assigned)
COc1cc(CN(C)CC(=O)[N-]c2cc(Cl)ccc2[O-])ccc1[O-] (optimized conformer: 44.76983955379007 kcal/mol)

>  <smiles>  (15) 
COc1cc(CN(C)CC(=O)Nc2cc(Cl)ccc2O)ccc1O

>  <score_type>  (15) 
oracle

>  <origin>  (15) 
adgpu

>  <m_score__min__energy>  (15) 
-12.609999999999999

>  <m_primary>  (15) 
energy

$$$$
15:0
     RDKit          3D

 53 56  0  0  0  0  0  0  0  0999 V2000
   -3.8950   17.1010  -35.3390 C   0  0  0  0  0  0  0  0  0  0  0  0
   -3.3260   17.5340  -34.0500 N   0  0  0  0  0  0  0  0  0  0  0  0
   -3.5200   16.5390  -32.9760 C   0  0  0  0  0  0  0  0  0  0  0  0
   -5.0040   16.3450  -32.6090 C   0  0  0  0  0  0  0  0  0  0  0  0
   -5.7630   17.6430  -32.5520 C   0  0  0  0  0  0  0  0  0  0  0  0
   -7.0620   17.6520  -32.0200 C   0  0  0  0  0  0  0  0  0  0  0  0
   -7.8380   18.8150  -32.0530 C   0  0  0  0  0  0  0  0  0  0  0  0
   -9.1310   18.7960  -31.5340 O   0  0  0  0  0  0  0  0  0  0  0  0
   -7.3250   19.9850  -32.6260 C   0  0  0  0  0  0  0  0  0  0  0  0
   -8.1630   21.1440  -32.7170 N   0  0  0  0  0  0  0  0  0  0  0  0
   -8.4820   22.2100  -31.3840 S   0  0  0  0  0  0  0  0  0  0  0  0
   -9.5520   23.1910  -31.7740 O   0  0  0  0  0  0  0  0  0  0  0  0
   -8.9590   21.4070  -30.2040 O   0  0  0  0  0  0  0  0  0  0  0  0
   -7.0110   23.1000  -30.9930 C   0  0  0  0  0  0  0  0  0  0  0  0
   -7.0400   24.4970  -30.9480 C   0  0  0  0  0  0  0  0  0  0  0  0
   -5.8630   25.2200  -30.7380 C   0  0  0  0  0  0  0  0  0  0  0  0
   -4.6460   24.5530  -30.5780 C   0  0  0  0  0  0  0  0  0  0  0  0
   -3.4860   25.2980  -30.4030 O   0  0  0  0  0  0  0  0  0  0  0  0
   -4.6090   23.1450  -30.6060 C   0  0  0  0  0  0  0  0  0  0  0  0
   -3.1000   22.2460  -30.4310 S   0  0  0  0  0  0  0  0  0  0  0  0
   -2.1960   22.4800  -31.6120 O   0  0  0  0  0  0  0  0  0  0  0  0
   -3.4200   20.7800  -30.3450 O   0  0  0  0  0  0  0  0  0  0  0  0
   -2.3030   22.7580  -28.9650 N   0  0  0  0  0  0  0  0  0  0  0  0
   -3.2580   23.3180  -28.0080 C   0  0  0  0  0  0  0  0  0  0  0  0
   -2.4680   24.2690  -27.1250 C   0  0  0  0  0  0  0  0  0  0  0  0
   -1.2360   24.6360  -27.9350 C   0  0  0  0  0  0  0  0  0  0  0  0
   -1.3410   23.8280  -29.2210 C   0  0  0  0  0  0  0  0  0  0  0  0
   -5.7960   22.4280  -30.8150 C   0  0  0  0  0  0  0  0  0  0  0  0
   -6.0090   19.9900  -33.1220 C   0  0  0  0  0  0  0  0  0  0  0  0
   -5.2370   18.8200  -33.1180 C   0  0  0  0  0  0  0  0  0  0  0  0
   -3.8220   18.8610  -33.6460 C   0  0  0  0  0  0  0  0  0  0  0  0
   -4.7582   16.4441  -35.1566 H   0  0  0  0  0  0  0  0  0  0  0  0
   -4.2196   17.9826  -35.9112 H   0  0  0  0  0  0  0  0  0  0  0  0
   -3.1318   16.5532  -35.9112 H   0  0  0  0  0  0  0  0  0  0  0  0
   -3.1110   15.5745  -33.3112 H   0  0  0  0  0  0  0  0  0  0  0  0
   -3.0010   16.9104  -32.0800 H   0  0  0  0  0  0  0  0  0  0  0  0
   -5.4716   15.6969  -33.3649 H   0  0  0  0  0  0  0  0  0  0  0  0
   -5.0419   15.8939  -31.6065 H   0  0  0  0  0  0  0  0  0  0  0  0
   -7.4736   16.7352  -31.5727 H   0  0  0  0  0  0  0  0  0  0  0  0
   -7.9937   25.0294  -31.0785 H   0  0  0  0  0  0  0  0  0  0  0  0
   -5.8948   26.3188  -30.6985 H   0  0  0  0  0  0  0  0  0  0  0  0
   -4.0536   23.8623  -28.5379 H   0  0  0  0  0  0  0  0  0  0  0  0
   -3.7394   22.5272  -27.4139 H   0  0  0  0  0  0  0  0  0  0  0  0
   -3.0615   25.1668  -26.8977 H   0  0  0  0  0  0  0  0  0  0  0  0
   -2.2038   23.8103  -26.1608 H   0  0  0  0  0  0  0  0  0  0  0  0
   -1.2285   25.7133  -28.1571 H   0  0  0  0  0  0  0  0  0  0  0  0
   -0.3071   24.4156  -27.3886 H   0  0  0  0  0  0  0  0  0  0  0  0
   -1.6946   24.4675  -30.0432 H   0  0  0  0  0  0  0  0  0  0  0  0
   -0.3624   23.4197  -29.5138 H   0  0  0  0  0  0  0  0  0  0  0  0
   -5.7721   21.3285  -30.8393 H   0  0  0  0  0  0  0  0  0  0  0  0
   -5.5806   20.9227  -33.5176 H   0  0  0  0  0  0  0  0  0  0  0  0
   -3.7919   19.5287  -34.5197 H   0  0  0  0  0  0  0  0  0  0  0  0
   -3.1752   19.2237  -32.8335 H   0  0  0  0  0  0  0  0  0  0  0  0
  1  2  1  0
  2  3  1  0
  3  4  1  0
  4  5  1  0
  5  6  2  0
  6  7  1  0
  7  8  1  0
  7  9  2  0
  9 10  1  0
 10 11  1  0
 11 12  2  0
 11 13  2  0
 11 14  1  0
 14 15  2  0
 15 16  1  0
 16 17  2  0
 17 18  1  0
 17 19  1  0
 19 20  1  0
 20 21  2  0
 20 22  2  0
 20 23  1  0
 23 24  1  0
 24 25  1  0
 25 26  1  0
 26 27  1  0
 19 28  2  0
  9 29  1  0
 29 30  2  0
 30 31  1  0
 31  2  1  0
 30  5  1  0
 28 14  1  0
 27 23  1  0
  1 32  1  0
  1 33  1  0
  1 34  1  0
  3 35  1  0
  3 36  1  0
  4 37  1  0
  4 38  1  0
  6 39  1  0
 15 40  1  0
 16 41  1  0
 24 42  1  0
 24 43  1  0
 25 44  1  0
 25 45  1  0
 26 46  1  0
 26 47  1  0
 27 48  1  0
 27 49  1  0
 28 50  1  0
 29 51  1  0
 31 52  1  0
 31 53  1  0
M  CHG  3   8  -1  10  -1  18  -1
M  END
>  <UniqueID>  (16) 
15

>  <SMILES>  (16) 
CN1CCc2cc([O-])c([N-]S(=O)(=O)c3ccc([O-])c(S(=O)(=O)N4CCCC4)c3)cc2C1

>  <Energy>  (16) 
65.1267498652023

>  <Genealogy>  (16) 
CN1CCc2cc([O-])c([N-]S(=O)(=O)c3ccc([O-])c(S(=O)(=O)N4CCCC4)c3)cc2C1 (protonated)
CN1CCc2cc([O-])c([N-]S(=O)(=O)c3ccc([O-])c(S(=O)(=O)N4CCCC4)c3)cc2C1 (3D coordinates assigned)
CN1CCc2cc([O-])c([N-]S(=O)(=O)c3ccc([O-])c(S(=O)(=O)N4CCCC4)c3)cc2C1 (nonaromatic ring conformer: 65.1267498652023 kcal/mol)

>  <smiles>  (16) 
CN1CCc2cc(O)c(NS(=O)(=O)c3ccc(O)c(S(=O)(=O)N4CCCC4)c3)cc2C1

>  <score_type>  (16) 
oracle

>  <origin>  (16) 
adgpu

>  <m_score__min__energy>  (16) 
-14.67

>  <m_primary>  (16) 
energy

$$$$
16:0
     RDKit          3D

 44 46  0  0  0  0  0  0  0  0999 V2000
   -8.7390   18.8170  -32.3260 C   0  0  0  0  0  0  0  0  0  0  0  0
   -8.1290   20.1580  -32.0380 C   0  0  0  0  0  0  0  0  0  0  0  0
   -8.7650   21.0500  -31.1630 C   0  0  0  0  0  0  0  0  0  0  0  0
   -8.1780   22.2840  -30.8650 C   0  0  0  0  0  0  0  0  0  0  0  0
   -6.9480   22.6390  -31.4370 C   0  0  0  0  0  0  0  0  0  0  0  0
   -6.2920   23.9450  -31.0810 C   0  0  0  0  0  0  0  0  0  0  0  0
   -5.0970   23.7000  -30.2770 N   0  0  0  0  0  0  0  0  0  0  0  0
   -4.9040   22.6610  -29.4360 C   0  0  0  0  0  0  0  0  0  0  0  0
   -3.6870   22.8010  -28.7860 C   0  0  0  0  0  0  0  0  0  0  0  0
   -3.1190   21.8800  -27.7900 C   0  0  0  0  0  0  0  0  0  0  0  0
   -3.8320   20.9570  -27.3120 O   0  0  0  0  0  0  0  0  0  0  0  0
   -1.7750   22.0770  -27.3350 N   0  0  0  0  0  0  0  0  0  0  0  0
   -0.6680   21.1760  -27.4980 C   0  0  0  0  0  0  0  0  0  0  0  0
   -0.8640   19.7860  -27.6050 C   0  0  0  0  0  0  0  0  0  0  0  0
    0.2230   18.9310  -27.7950 C   0  0  0  0  0  0  0  0  0  0  0  0
    1.5130   19.4520  -27.8970 C   0  0  0  0  0  0  0  0  0  0  0  0
    1.7210   20.8300  -27.8170 C   0  0  0  0  0  0  0  0  0  0  0  0
    0.6370   21.7000  -27.6210 C   0  0  0  0  0  0  0  0  0  0  0  0
    0.9140   23.4440  -27.5330 S   0  0  0  0  0  0  0  0  0  0  0  0
   -0.2040   24.1920  -26.4470 N   0  0  0  0  0  0  0  0  0  0  0  0
    2.3130   23.7010  -27.0460 O   0  0  0  0  0  0  0  0  0  0  0  0
    0.7400   24.0500  -28.8970 O   0  0  0  0  0  0  0  0  0  0  0  0
   -3.1340   23.9810  -29.2500 C   0  0  0  0  0  0  0  0  0  0  0  0
   -1.9150   24.5320  -28.8660 O   0  0  0  0  0  0  0  0  0  0  0  0
   -4.0250   24.5090  -30.1550 C   0  0  0  0  0  0  0  0  0  0  0  0
   -3.8630   25.7060  -30.8450 O   0  0  0  0  0  0  0  0  0  0  0  0
   -6.2970   21.7330  -32.2880 C   0  0  0  0  0  0  0  0  0  0  0  0
   -6.8830   20.4990  -32.5860 C   0  0  0  0  0  0  0  0  0  0  0  0
   -8.9704   18.3083  -31.3785 H   0  0  0  0  0  0  0  0  0  0  0  0
   -9.6643   18.9519  -32.9053 H   0  0  0  0  0  0  0  0  0  0  0  0
   -8.0293   18.2081  -32.9053 H   0  0  0  0  0  0  0  0  0  0  0  0
   -9.7294   20.7782  -30.7091 H   0  0  0  0  0  0  0  0  0  0  0  0
   -8.6836   22.9793  -30.1787 H   0  0  0  0  0  0  0  0  0  0  0  0
   -6.0088   24.4739  -32.0030 H   0  0  0  0  0  0  0  0  0  0  0  0
   -6.9980   24.5581  -30.5017 H   0  0  0  0  0  0  0  0  0  0  0  0
   -5.6072   21.8280  -29.2886 H   0  0  0  0  0  0  0  0  0  0  0  0
   -1.8805   19.3709  -27.5384 H   0  0  0  0  0  0  0  0  0  0  0  0
    0.0621   17.8450  -27.8644 H   0  0  0  0  0  0  0  0  0  0  0  0
    2.3683   18.7754  -28.0408 H   0  0  0  0  0  0  0  0  0  0  0  0
    2.7393   21.2361  -27.9080 H   0  0  0  0  0  0  0  0  0  0  0  0
   -1.1510   24.1150  -26.8810 H   0  0  0  0  0  0  0  0  0  0  0  0
   -1.3120   24.0530  -28.2070 H   0  0  0  0  0  0  0  0  0  0  0  0
   -5.3211   21.9948  -32.7227 H   0  0  0  0  0  0  0  0  0  0  0  0
   -6.3655   19.7931  -33.2523 H   0  0  0  0  0  0  0  0  0  0  0  0
  1  2  1  0
  2  3  2  0
  3  4  1  0
  4  5  2  0
  5  6  1  0
  6  7  1  0
  7  8  1  0
  8  9  2  0
  9 10  1  0
 10 11  2  0
 10 12  1  0
 12 13  1  0
 13 14  2  0
 14 15  1  0
 15 16  2  0
 16 17  1  0
 17 18  2  0
 18 19  1  0
 19 20  1  0
 19 21  2  0
 19 22  2  0
  9 23  1  0
 23 24  1  0
 23 25  2  0
 25 26  1  0
  5 27  1  0
 27 28  2  0
 28  2  1  0
 25  7  1  0
 18 13  1  0
  1 29  1  0
  1 30  1  0
  1 31  1  0
  3 32  1  0
  4 33  1  0
  6 34  1  0
  6 35  1  0
  8 36  1  0
 14 37  1  0
 15 38  1  0
 16 39  1  0
 17 40  1  0
 20 41  1  0
 24 42  1  0
 27 43  1  0
 28 44  1  0
M  CHG  3  12  -1  20  -1  26  -1
M  END
>  <UniqueID>  (17) 
16

>  <SMILES>  (17) 
Cc1ccc(Cn2cc(C(=O)[N-]c3ccccc3S([NH-])(=O)=O)c(O)c2[O-])cc1

>  <Energy>  (17) 
75.84283329273207

>  <Genealogy>  (17) 
Cc1ccc(Cn2cc(C(=O)[N-]c3ccccc3S([NH-])(=O)=O)c(O)c2[O-])cc1 (protonated)
Cc1ccc(Cn2cc(C(=O)[N-]c3ccccc3S([NH-])(=O)=O)c(O)c2[O-])cc1 (3D coordinates assigned)
Cc1ccc(Cn2cc(C(=O)[N-]c3ccccc3S([NH-])(=O)=O)c(O)c2[O-])cc1 (optimized conformer: 75.84283329273207 kcal/mol)

>  <smiles>  (17) 
Cc1ccc(Cn2cc(C(=O)Nc3ccccc3S(N)(=O)=O)c(O)c2O)cc1

>  <score_type>  (17) 
oracle

>  <origin>  (17) 
adgpu

>  <m_score__min__energy>  (17) 
-12.01

>  <m_primary>  (17) 
energy

$$$$
17:0
     RDKit          3D

 36 37  0  0  1  0  0  0  0  0999 V2000
   -6.4470   25.5940  -29.4640 C   0  0  0  0  0  0  0  0  0  0  0  0
   -5.5410   24.9290  -30.8640 S   0  0  0  0  0  0  0  0  0  0  0  0
   -6.3130   23.3790  -31.3370 C   0  0  0  0  0  0  0  0  0  0  0  0
   -5.6110   22.3700  -31.8980 N   0  0  0  0  0  0  0  0  0  0  0  0
   -6.2070   21.2040  -32.2490 C   0  0  0  0  0  0  0  0  0  0  0  0
   -5.4930   20.2990  -32.7700 N   0  0  0  0  0  0  0  0  0  0  0  0
   -5.9800   19.0480  -33.1810 C   0  0  0  0  0  0  0  0  0  0  0  0
   -4.8140   18.7630  -34.2240 C   0  0  0  0  0  0  0  0  0  0  0  0
   -5.0650   17.4520  -34.9020 C   0  0  0  0  0  0  0  0  0  0  0  0
   -6.3050   16.7630  -34.3740 C   0  0  0  0  0  0  0  0  0  0  0  0
   -6.2930   16.6420  -32.8740 C   0  0  0  0  0  0  0  0  0  0  0  0
   -5.7260   17.8950  -32.2670 C   0  0  0  0  0  0  0  0  0  0  0  0
   -7.5280   20.9980  -32.0570 C   0  0  0  0  0  0  0  0  0  0  0  0
   -8.2610   19.8210  -32.3820 C   0  0  0  0  0  0  0  0  0  0  0  0
   -8.8760   18.8670  -32.6400 N   0  0  0  0  0  0  0  0  0  0  0  0
   -8.2620   22.0400  -31.4770 C   0  0  0  0  0  0  0  0  0  0  0  0
   -9.7090   21.9270  -31.2200 C   0  0  0  0  0  0  0  0  0  0  0  0
   -7.6260   23.1630  -31.1510 N   0  0  0  0  0  0  0  0  0  0  0  0
   -5.9801   25.2513  -28.5288 H   0  0  0  0  0  0  0  0  0  0  0  0
   -6.4266   26.6931  -29.5027 H   0  0  0  0  0  0  0  0  0  0  0  0
   -7.4895   25.2450  -29.5027 H   0  0  0  0  0  0  0  0  0  0  0  0
   -7.0576   19.1001  -33.3956 H   0  0  0  0  0  0  0  0  0  0  0  0
   -4.7888   19.5661  -34.9752 H   0  0  0  0  0  0  0  0  0  0  0  0
   -3.8493   18.7260  -33.6967 H   0  0  0  0  0  0  0  0  0  0  0  0
   -5.1903   17.6292  -35.9804 H   0  0  0  0  0  0  0  0  0  0  0  0
   -4.2039   16.7977  -34.7010 H   0  0  0  0  0  0  0  0  0  0  0  0
   -7.1888   17.3444  -34.6754 H   0  0  0  0  0  0  0  0  0  0  0  0
   -6.3317   15.7469  -34.7945 H   0  0  0  0  0  0  0  0  0  0  0  0
   -7.3208   16.4932  -32.5113 H   0  0  0  0  0  0  0  0  0  0  0  0
   -5.6697   15.7834  -32.5837 H   0  0  0  0  0  0  0  0  0  0  0  0
   -6.2080   18.0831  -31.2963 H   0  0  0  0  0  0  0  0  0  0  0  0
   -4.6425   17.7743  -32.1203 H   0  0  0  0  0  0  0  0  0  0  0  0
   -9.8887   21.9130  -30.1349 H   0  0  0  0  0  0  0  0  0  0  0  0
  -10.2290   22.7873  -31.6667 H   0  0  0  0  0  0  0  0  0  0  0  0
  -10.0892   20.9964  -31.6667 H   0  0  0  0  0  0  0  0  0  0  0  0
   -8.1720   23.9490  -30.7150 H   0  0  0  0  0  0  0  0  0  0  0  0
  1  2  1  0
  2  3  1  0
  3  4  2  0
  4  5  1  0
  5  6  2  0
  6  7  1  0
  7  8  1  0
  8  9  1  0
  9 10  1  0
 10 11  1  0
 11 12  1  0
  5 13  1  0
 13 14  1  0
 14 15  3  0
 13 16  2  0
 16 17  1  0
 16 18  1  0
 18  3  1  0
 12  7  1  0
  1 19  1  0
  1 20  1  0
  1 21  1  0
  7 22  1  0
  8 23  1  0
  8 24  1  0
  9 25  1  0
  9 26  1  0
 10 27  1  0
 10 28  1  0
 11 29  1  0
 11 30  1  0
 12 31  1  0
 12 32  1  0
 17 33  1  0
 17 34  1  0
 17 35  1  0
 18 36  1  0
M  END
>  <smiles>  (18) 
CSc1nc(=NC2CCCCC2)c(C#N)c(C)[nH]1

>  <score_type>  (18) 
oracle

>  <origin>  (18) 
adgpu

>  <m_score__min__energy>  (18) 
-7.4800000000000004

>  <m_primary>  (18) 
energy

$$$$
18:0
     RDKit          3D

 51 54  0  0  0  0  0  0  0  0999 V2000
   -1.3040   18.6660  -27.2000 C   0  0  0  0  0  0  0  0  0  0  0  0
   -1.5750   20.1330  -27.3570 C   0  0  0  0  0  0  0  0  0  0  0  0
   -0.5530   21.0750  -27.1520 C   0  0  0  0  0  0  0  0  0  0  0  0
   -0.8250   22.4440  -27.2520 C   0  0  0  0  0  0  0  0  0  0  0  0
   -2.1240   22.8850  -27.5380 C   0  0  0  0  0  0  0  0  0  0  0  0
   -2.4910   24.6040  -27.6430 S   0  0  0  0  0  0  0  0  0  0  0  0
   -1.3280   25.3820  -27.0940 O   0  0  0  0  0  0  0  0  0  0  0  0
   -3.7200   24.9480  -26.8460 O   0  0  0  0  0  0  0  0  0  0  0  0
   -2.7370   25.0370  -29.3030 N   0  0  0  0  0  0  0  0  0  0  0  0
   -3.7810   24.5270  -30.1500 C   0  0  0  0  0  0  0  0  0  0  0  0
   -5.0110   25.1940  -30.2630 C   0  0  0  0  0  0  0  0  0  0  0  0
   -6.0270   24.6840  -31.0670 C   0  0  0  0  0  0  0  0  0  0  0  0
   -5.8550   23.4850  -31.7590 C   0  0  0  0  0  0  0  0  0  0  0  0
   -6.9740   22.9510  -32.4810 N   0  0  0  0  0  0  0  0  0  0  0  0
   -7.8540   21.9390  -31.9680 C   0  0  0  0  0  0  0  0  0  0  0  0
   -8.8090   22.2840  -31.2240 O   0  0  0  0  0  0  0  0  0  0  0  0
   -7.6680   20.5080  -32.2940 C   0  0  0  0  0  0  0  0  0  0  0  0
   -8.3970   19.5300  -31.6030 C   0  0  0  0  0  0  0  0  0  0  0  0
   -8.2350   18.1790  -31.9170 C   0  0  0  0  0  0  0  0  0  0  0  0
   -7.3390   17.7860  -32.9160 C   0  0  0  0  0  0  0  0  0  0  0  0
   -7.1950   16.4330  -33.2060 O   0  0  0  0  0  0  0  0  0  0  0  0
   -6.5960   18.7560  -33.6130 C   0  0  0  0  0  0  0  0  0  0  0  0
   -5.6030   18.3800  -34.6780 C   0  0  0  0  0  0  0  0  0  0  0  0
   -6.7530   20.1110  -33.2820 C   0  0  0  0  0  0  0  0  0  0  0  0
   -4.6080   22.8200  -31.7070 C   0  0  0  0  0  0  0  0  0  0  0  0
   -4.3640   21.6580  -32.4650 C   0  0  0  0  0  0  0  0  0  0  0  0
   -3.1310   21.0090  -32.3920 C   0  0  0  0  0  0  0  0  0  0  0  0
   -2.1210   21.5070  -31.5720 C   0  0  0  0  0  0  0  0  0  0  0  0
   -2.3300   22.6660  -30.8280 C   0  0  0  0  0  0  0  0  0  0  0  0
   -3.5670   23.3440  -30.8900 C   0  0  0  0  0  0  0  0  0  0  0  0
   -3.1480   21.9480  -27.7280 C   0  0  0  0  0  0  0  0  0  0  0  0
   -2.8750   20.5780  -27.6420 C   0  0  0  0  0  0  0  0  0  0  0  0
   -1.2575   18.4142  -26.1302 H   0  0  0  0  0  0  0  0  0  0  0  0
   -2.1111   18.0909  -27.6773 H   0  0  0  0  0  0  0  0  0  0  0  0
   -0.3447   18.4172  -27.6773 H   0  0  0  0  0  0  0  0  0  0  0  0
    0.4652   20.7350  -26.9119 H   0  0  0  0  0  0  0  0  0  0  0  0
   -0.0170   23.1759  -27.1057 H   0  0  0  0  0  0  0  0  0  0  0  0
   -5.1741   26.1307  -29.7098 H   0  0  0  0  0  0  0  0  0  0  0  0
   -6.9760   25.2328  -31.1575 H   0  0  0  0  0  0  0  0  0  0  0  0
   -9.0993   19.8280  -30.8105 H   0  0  0  0  0  0  0  0  0  0  0  0
   -8.8163   17.4187  -31.3747 H   0  0  0  0  0  0  0  0  0  0  0  0
   -4.6740   18.0283  -34.2054 H   0  0  0  0  0  0  0  0  0  0  0  0
   -6.0224   17.5784  -35.3038 H   0  0  0  0  0  0  0  0  0  0  0  0
   -5.3863   19.2583  -35.3038 H   0  0  0  0  0  0  0  0  0  0  0  0
   -6.1520   20.8709  -33.8029 H   0  0  0  0  0  0  0  0  0  0  0  0
   -5.1523   21.2588  -33.1201 H   0  0  0  0  0  0  0  0  0  0  0  0
   -2.9556   20.0993  -32.9851 H   0  0  0  0  0  0  0  0  0  0  0  0
   -1.1555   20.9834  -31.5118 H   0  0  0  0  0  0  0  0  0  0  0  0
   -1.5253   23.0559  -30.1874 H   0  0  0  0  0  0  0  0  0  0  0  0
   -4.1705   22.2903  -27.9456 H   0  0  0  0  0  0  0  0  0  0  0  0
   -3.6824   19.8474  -27.7984 H   0  0  0  0  0  0  0  0  0  0  0  0
  1  2  1  0
  2  3  2  0
  3  4  1  0
  4  5  2  0
  5  6  1  0
  6  7  2  0
  6  8  2  0
  6  9  1  0
  9 10  1  0
 10 11  2  0
 11 12  1  0
 12 13  2  0
 13 14  1  0
 14 15  1  0
 15 16  2  0
 15 17  1  0
 17 18  2  0
 18 19  1  0
 19 20  2  0
 20 21  1  0
 20 22  1  0
 22 23  1  0
 22 24  2  0
 13 25  1  0
 25 26  2  0
 26 27  1  0
 27 28  2  0
 28 29  1  0
 29 30  2  0
  5 31  1  0
 31 32  2  0
 32  2  1  0
 30 10  1  0
 24 17  1  0
 30 25  1  0
  1 33  1  0
  1 34  1  0
  1 35  1  0
  3 36  1  0
  4 37  1  0
 11 38  1  0
 12 39  1  0
 18 40  1  0
 19 41  1  0
 23 42  1  0
 23 43  1  0
 23 44  1  0
 24 45  1  0
 26 46  1  0
 27 47  1  0
 28 48  1  0
 29 49  1  0
 31 50  1  0
 32 51  1  0
M  CHG  3   9  -1  14  -1  21  -1
M  END
>  <UniqueID>  (19) 
17

>  <SMILES>  (19) 
Cc1ccc(S(=O)(=O)[N-]c2ccc([N-]C(=O)c3ccc([O-])c(C)c3)c3ccccc23)cc1

>  <Energy>  (19) 
71.4782564343138

>  <Genealogy>  (19) 
Cc1ccc(S(=O)(=O)[N-]c2ccc([N-]C(=O)c3ccc([O-])c(C)c3)c3ccccc23)cc1 (protonated)
Cc1ccc(S(=O)(=O)[N-]c2ccc([N-]C(=O)c3ccc([O-])c(C)c3)c3ccccc23)cc1 (3D coordinates assigned)
Cc1ccc(S(=O)(=O)[N-]c2ccc([N-]C(=O)c3ccc([O-])c(C)c3)c3ccccc23)cc1 (optimized conformer: 71.4782564343138 kcal/mol)

>  <smiles>  (19) 
Cc1ccc(S(=O)(=O)Nc2ccc(NC(=O)c3ccc(O)c(C)c3)c3ccccc23)cc1

>  <score_type>  (19) 
oracle

>  <origin>  (19) 
adgpu

>  <m_score__min__energy>  (19) 
-12.210000000000001

>  <m_primary>  (19) 
energy

$$$$
19:0
     RDKit          3D

 39 41  0  0  0  0  0  0  0  0999 V2000
   -7.2430   18.5130  -31.8240 C   0  0  0  0  0  0  0  0  0  0  0  0
   -7.3530   19.9490  -32.8740 S   0  0  0  0  0  0  0  0  0  0  0  0
   -8.8130   20.2370  -33.0880 O   0  0  0  0  0  0  0  0  0  0  0  0
   -6.7040   19.6360  -34.1930 O   0  0  0  0  0  0  0  0  0  0  0  0
   -6.5670   21.3630  -32.1480 C   0  0  0  0  0  0  0  0  0  0  0  0
   -5.1650   21.4290  -32.1340 C   0  0  0  0  0  0  0  0  0  0  0  0
   -4.5050   22.4890  -31.5120 C   0  0  0  0  0  0  0  0  0  0  0  0
   -5.2320   23.5130  -30.8860 C   0  0  0  0  0  0  0  0  0  0  0  0
   -4.5280   24.6350  -30.2200 C   0  0  0  0  0  0  0  0  0  0  0  0
   -4.2470   25.6790  -30.8700 O   0  0  0  0  0  0  0  0  0  0  0  0
   -4.1680   24.5410  -28.8390 N   0  0  0  0  0  0  0  0  0  0  0  0
   -2.5240   24.5660  -28.2990 S   0  0  0  0  0  0  0  0  0  0  0  0
   -2.4390   25.3230  -27.0040 O   0  0  0  0  0  0  0  0  0  0  0  0
   -1.6630   25.2610  -29.3170 O   0  0  0  0  0  0  0  0  0  0  0  0
   -1.9560   22.9270  -28.0460 C   0  0  0  0  0  0  0  0  0  0  0  0
   -2.6870   21.9110  -27.4370 C   0  0  0  0  0  0  0  0  0  0  0  0
   -1.9800   20.7050  -27.4010 C   0  0  0  0  0  0  0  0  0  0  0  0
   -2.4300   19.5010  -26.8540 C   0  0  0  0  0  0  0  0  0  0  0  0
   -1.5870   18.3780  -26.9040 C   0  0  0  0  0  0  0  0  0  0  0  0
   -0.3100   18.4680  -27.4920 C   0  0  0  0  0  0  0  0  0  0  0  0
    0.4940   17.3770  -27.5310 F   0  0  0  0  0  0  0  0  0  0  0  0
    0.1340   19.6830  -28.0370 C   0  0  0  0  0  0  0  0  0  0  0  0
   -0.7190   20.7830  -27.9780 C   0  0  0  0  0  0  0  0  0  0  0  0
   -0.4510   22.3410  -28.5450 S   0  0  0  0  0  0  0  0  0  0  0  0
   -6.6360   23.4600  -30.9090 C   0  0  0  0  0  0  0  0  0  0  0  0
   -7.3130   22.4050  -31.5460 C   0  0  0  0  0  0  0  0  0  0  0  0
   -8.7490   22.4190  -31.5780 N   0  0  0  0  0  0  0  0  0  0  0  0
   -9.3990   21.7250  -30.7680 O   0  0  0  0  0  0  0  0  0  0  0  0
   -9.4140   23.3600  -32.3300 O   0  0  0  0  0  0  0  0  0  0  0  0
   -7.2670   18.8268  -30.7700 H   0  0  0  0  0  0  0  0  0  0  0  0
   -8.0926   17.8444  -32.0270 H   0  0  0  0  0  0  0  0  0  0  0  0
   -6.3015   17.9816  -32.0270 H   0  0  0  0  0  0  0  0  0  0  0  0
   -4.5792   20.6347  -32.6197 H   0  0  0  0  0  0  0  0  0  0  0  0
   -3.4055   22.5224  -31.5123 H   0  0  0  0  0  0  0  0  0  0  0  0
   -3.7013   22.0414  -27.0318 H   0  0  0  0  0  0  0  0  0  0  0  0
   -3.4262   19.4333  -26.3925 H   0  0  0  0  0  0  0  0  0  0  0  0
   -1.9268   17.4212  -26.4808 H   0  0  0  0  0  0  0  0  0  0  0  0
    1.1292   19.7645  -28.4985 H   0  0  0  0  0  0  0  0  0  0  0  0
   -7.2153   24.2573  -30.4204 H   0  0  0  0  0  0  0  0  0  0  0  0
  1  2  1  0
  2  3  2  0
  2  4  2  0
  2  5  1  0
  5  6  2  0
  6  7  1  0
  7  8  2  0
  8  9  1  0
  9 10  2  0
  9 11  1  0
 11 12  1  0
 12 13  2  0
 12 14  2  0
 12 15  1  0
 15 16  2  0
 16 17  1  0
 17 18  2  0
 18 19  1  0
 19 20  2  0
 20 21  1  0
 20 22  1  0
 22 23  2  0
 23 24  1  0
  8 25  1  0
 25 26  2  0
 26 27  1  0
 27 28  2  0
 27 29  1  0
 26  5  1  0
 24 15  1  0
 23 17  1  0
  1 30  1  0
  1 31  1  0
  1 32  1  0
  6 33  1  0
  7 34  1  0
 16 35  1  0
 18 36  1  0
 19 37  1  0
 22 38  1  0
 25 39  1  0
M  CHG  3  11  -1  27   1  29  -1
M  END
>  <UniqueID>  (20) 
18

>  <SMILES>  (20) 
CS(=O)(=O)c1ccc(C(=O)[N-]S(=O)(=O)c2cc3ccc(F)cc3s2)cc1[N+](=O)[O-]

>  <Energy>  (20) 
79.96561828120883

>  <Genealogy>  (20) 
CS(=O)(=O)c1ccc(C(=O)[N-]S(=O)(=O)c2cc3ccc(F)cc3s2)cc1[N+](=O)[O-] (protonated)
CS(=O)(=O)c1ccc(C(=O)[N-]S(=O)(=O)c2cc3ccc(F)cc3s2)cc1[N+](=O)[O-] (3D coordinates assigned)
CS(=O)(=O)c1ccc(C(=O)[N-]S(=O)(=O)c2cc3ccc(F)cc3s2)cc1[N+](=O)[O-] (optimized conformer: 79.96561828120883 kcal/mol)

>  <smiles>  (20) 
CS(=O)(=O)c1ccc(C(=O)NS(=O)(=O)c2cc3ccc(F)cc3s2)cc1[N+](=O)[O-]

>  <score_type>  (20) 
oracle

>  <origin>  (20) 
adgpu

>  <m_score__min__energy>  (20) 
-11.33

>  <m_primary>  (20) 
energy

$$$$
20:0
     RDKit          3D

 61 64  0  0  0  0  0  0  0  0999 V2000
   -0.9190   19.2650  -29.0910 C   0  0  0  0  0  0  0  0  0  0  0  0
   -0.6690   20.6470  -28.5480 C   0  0  0  0  0  0  0  0  0  0  0  0
    0.3620   20.8330  -27.6120 C   0  0  0  0  0  0  0  0  0  0  0  0
    0.6380   22.0990  -27.0980 C   0  0  0  0  0  0  0  0  0  0  0  0
   -0.1150   23.2030  -27.5050 C   0  0  0  0  0  0  0  0  0  0  0  0
    0.2570   24.8110  -26.8800 S   0  0  0  0  0  0  0  0  0  0  0  0
    0.8560   24.6810  -25.5070 O   0  0  0  0  0  0  0  0  0  0  0  0
    1.2800   25.4630  -27.7700 O   0  0  0  0  0  0  0  0  0  0  0  0
   -1.1660   25.8290  -26.8030 N   0  0  0  0  0  0  0  0  0  0  0  0
   -0.8070   27.2510  -26.8460 C   0  0  0  0  0  0  0  0  0  0  0  0
   -0.8320   27.7990  -25.4250 C   0  0  0  0  0  0  0  0  0  0  0  0
   -1.4770   26.7230  -24.5760 C   0  0  0  0  0  0  0  0  0  0  0  0
   -1.8910   25.6270  -25.5460 C   0  0  0  0  0  0  0  0  0  0  0  0
   -1.1570   23.0290  -28.4230 C   0  0  0  0  0  0  0  0  0  0  0  0
   -1.4440   21.7600  -28.9640 C   0  0  0  0  0  0  0  0  0  0  0  0
   -2.5070   21.5990  -29.9300 N   0  0  0  0  0  0  0  0  0  0  0  0
   -2.7890   22.5820  -30.9810 C   0  0  0  0  0  0  0  0  0  0  0  0
   -4.1640   23.1720  -30.8010 C   0  0  0  0  0  0  0  0  0  0  0  0
   -5.2990   22.4110  -31.1270 C   0  0  0  0  0  0  0  0  0  0  0  0
   -6.5820   22.9600  -31.0070 C   0  0  0  0  0  0  0  0  0  0  0  0
   -7.9880   21.9950  -31.4500 S   0  0  0  0  0  0  0  0  0  0  0  0
   -8.4810   21.2860  -30.2200 O   0  0  0  0  0  0  0  0  0  0  0  0
   -9.0860   22.8930  -31.9500 O   0  0  0  0  0  0  0  0  0  0  0  0
   -7.5590   20.8080  -32.6660 N   0  0  0  0  0  0  0  0  0  0  0  0
   -8.7200   20.0010  -33.0820 C   0  0  0  0  0  0  0  0  0  0  0  0
   -9.1350   18.9730  -32.0030 C   0  0  0  0  0  0  0  0  0  0  0  0
   -8.1210   18.7100  -31.0470 O   0  0  0  0  0  0  0  0  0  0  0  0
   -6.8680   18.5990  -31.6820 C   0  0  0  0  0  0  0  0  0  0  0  0
   -6.4210   19.9670  -32.2320 C   0  0  0  0  0  0  0  0  0  0  0  0
   -6.7320   24.2840  -30.5740 C   0  0  0  0  0  0  0  0  0  0  0  0
   -5.6080   25.0520  -30.2630 C   0  0  0  0  0  0  0  0  0  0  0  0
   -4.3260   24.5060  -30.3810 C   0  0  0  0  0  0  0  0  0  0  0  0
   -3.2200   25.2960  -30.0850 O   0  0  0  0  0  0  0  0  0  0  0  0
   -1.0465   18.5604  -28.2559 H   0  0  0  0  0  0  0  0  0  0  0  0
   -1.8304   19.2724  -29.7069 H   0  0  0  0  0  0  0  0  0  0  0  0
   -0.0628   18.9526  -29.7069 H   0  0  0  0  0  0  0  0  0  0  0  0
    0.9582   19.9699  -27.2810 H   0  0  0  0  0  0  0  0  0  0  0  0
    1.4517   22.2292  -26.3693 H   0  0  0  0  0  0  0  0  0  0  0  0
    0.2012   27.3665  -27.2705 H   0  0  0  0  0  0  0  0  0  0  0  0
   -1.5222   27.8014  -27.4748 H   0  0  0  0  0  0  0  0  0  0  0  0
    0.1910   28.0007  -25.0747 H   0  0  0  0  0  0  0  0  0  0  0  0
   -1.3882   28.7463  -25.3673 H   0  0  0  0  0  0  0  0  0  0  0  0
   -0.7584   26.3328  -23.8402 H   0  0  0  0  0  0  0  0  0  0  0  0
   -2.3373   27.1122  -24.0116 H   0  0  0  0  0  0  0  0  0  0  0  0
   -1.6388   24.6426  -25.1249 H   0  0  0  0  0  0  0  0  0  0  0  0
   -2.9759   25.6667  -25.7230 H   0  0  0  0  0  0  0  0  0  0  0  0
   -1.7613   23.8964  -28.7269 H   0  0  0  0  0  0  0  0  0  0  0  0
   -3.0970   20.7380  -29.9020 H   0  0  0  0  0  0  0  0  0  0  0  0
   -2.0411   23.3872  -30.9329 H   0  0  0  0  0  0  0  0  0  0  0  0
   -2.7444   22.0788  -31.9581 H   0  0  0  0  0  0  0  0  0  0  0  0
   -5.1792   21.3758  -31.4793 H   0  0  0  0  0  0  0  0  0  0  0  0
   -9.5684   20.6742  -33.2746 H   0  0  0  0  0  0  0  0  0  0  0  0
   -8.4367   19.4441  -33.9873 H   0  0  0  0  0  0  0  0  0  0  0  0
  -10.0182   19.3613  -31.4747 H   0  0  0  0  0  0  0  0  0  0  0  0
   -9.3403   18.0257  -32.5232 H   0  0  0  0  0  0  0  0  0  0  0  0
   -6.1242   18.2399  -30.9555 H   0  0  0  0  0  0  0  0  0  0  0  0
   -6.9535   17.8892  -32.5180 H   0  0  0  0  0  0  0  0  0  0  0  0
   -5.8700   20.5003  -31.4433 H   0  0  0  0  0  0  0  0  0  0  0  0
   -5.7906   19.7805  -33.1139 H   0  0  0  0  0  0  0  0  0  0  0  0
   -7.7376   24.7196  -30.4788 H   0  0  0  0  0  0  0  0  0  0  0  0
   -5.7315   26.0910  -29.9237 H   0  0  0  0  0  0  0  0  0  0  0  0
  1  2  1  0
  2  3  2  0
  3  4  1  0
  4  5  2  0
  5  6  1  0
  6  7  2  0
  6  8  2  0
  6  9  1  0
  9 10  1  0
 10 11  1  0
 11 12  1  0
 12 13  1  0
  5 14  1  0
 14 15  2  0
 15 16  1  0
 16 17  1  0
 17 18  1  0
 18 19  2  0
 19 20  1  0
 20 21  1  0
 21 22  2  0
 21 23  2  0
 21 24  1  0
 24 25  1  0
 25 26  1  0
 26 27  1  0
 27 28  1  0
 28 29  1  0
 20 30  2  0
 30 31  1  0
 31 32  2  0
 32 33  1  0
 15  2  1  0
 32 18  1  0
 13  9  1  0
 29 24  1  0
  1 34  1  0
  1 35  1  0
  1 36  1  0
  3 37  1  0
  4 38  1  0
 10 39  1  0
 10 40  1  0
 11 41  1  0
 11 42  1  0
 12 43  1  0
 12 44  1  0
 13 45  1  0
 13 46  1  0
 14 47  1  0
 16 48  1  0
 17 49  1  0
 17 50  1  0
 19 51  1  0
 25 52  1  0
 25 53  1  0
 26 54  1  0
 26 55  1  0
 28 56  1  0
 28 57  1  0
 29 58  1  0
 29 59  1  0
 30 60  1  0
 31 61  1  0
M  CHG  1  33  -1
M  END
>  <UniqueID>  (21) 
19

>  <SMILES>  (21) 
Cc1ccc(S(=O)(=O)N2CCCC2)cc1NCc1cc(S(=O)(=O)N2CCOCC2)ccc1[O-]

>  <Energy>  (21) 
74.45529783936264

>  <Genealogy>  (21) 
Cc1ccc(S(=O)(=O)N2CCCC2)cc1NCc1cc(S(=O)(=O)N2CCOCC2)ccc1[O-] (protonated)
Cc1ccc(S(=O)(=O)N2CCCC2)cc1NCc1cc(S(=O)(=O)N2CCOCC2)ccc1[O-] (3D coordinates assigned)
Cc1ccc(S(=O)(=O)N2CCCC2)cc1NCc1cc(S(=O)(=O)N2CCOCC2)ccc1[O-] (nonaromatic ring conformer: 74.45529783936264 kcal/mol)

>  <smiles>  (21) 
Cc1ccc(S(=O)(=O)N2CCCC2)cc1NCc1cc(S(=O)(=O)N2CCOCC2)ccc1O

>  <score_type>  (21) 
oracle

>  <origin>  (21) 
adgpu

>  <m_score__min__energy>  (21) 
-12.99

>  <m_primary>  (21) 
energy

$$$$
21:0
     RDKit          3D

 52 55  0  0  0  0  0  0  0  0999 V2000
   -5.4780   24.3080  -31.1950 O   0  0  0  0  0  0  0  0  0  0  0  0
   -4.3160   23.8690  -30.9910 C   0  0  0  0  0  0  0  0  0  0  0  0
   -3.3650   24.7240  -30.3400 N   0  0  0  0  0  0  0  0  0  0  0  0
   -2.7100   24.4660  -29.0890 C   0  0  0  0  0  0  0  0  0  0  0  0
   -3.0760   23.3250  -28.3620 C   0  0  0  0  0  0  0  0  0  0  0  0
   -2.4760   23.0470  -27.1320 C   0  0  0  0  0  0  0  0  0  0  0  0
   -1.4920   23.8990  -26.6250 C   0  0  0  0  0  0  0  0  0  0  0  0
   -1.0950   25.0210  -27.3570 C   0  0  0  0  0  0  0  0  0  0  0  0
   -1.6870   25.3020  -28.5940 C   0  0  0  0  0  0  0  0  0  0  0  0
   -1.2330   26.3900  -29.3300 O   0  0  0  0  0  0  0  0  0  0  0  0
   -3.9600   22.5080  -31.4660 C   0  0  0  0  0  0  0  0  0  0  0  0
   -3.6100   22.3010  -32.8110 C   0  0  0  0  0  0  0  0  0  0  0  0
   -3.2770   21.0230  -33.2710 C   0  0  0  0  0  0  0  0  0  0  0  0
   -3.2810   19.9300  -32.3900 C   0  0  0  0  0  0  0  0  0  0  0  0
   -2.9310   18.5500  -32.8770 C   0  0  0  0  0  0  0  0  0  0  0  0
   -3.7400   18.1890  -34.0440 N   0  0  0  0  0  0  0  0  0  0  0  0
   -5.1280   17.2500  -33.5730 S   0  0  0  0  0  0  0  0  0  0  0  0
   -4.7640   16.3920  -32.3960 O   0  0  0  0  0  0  0  0  0  0  0  0
   -5.5450   16.3580  -34.7100 O   0  0  0  0  0  0  0  0  0  0  0  0
   -6.4530   18.3180  -33.1090 C   0  0  0  0  0  0  0  0  0  0  0  0
   -7.6860   17.7650  -32.7400 C   0  0  0  0  0  0  0  0  0  0  0  0
   -8.7420   18.5940  -32.3450 C   0  0  0  0  0  0  0  0  0  0  0  0
   -8.5650   19.9830  -32.3080 C   0  0  0  0  0  0  0  0  0  0  0  0
   -7.3320   20.5420  -32.6800 C   0  0  0  0  0  0  0  0  0  0  0  0
   -6.2780   19.7100  -33.0860 C   0  0  0  0  0  0  0  0  0  0  0  0
   -7.1930   22.0420  -32.6770 C   0  0  0  0  0  0  0  0  0  0  0  0
   -7.8160   22.6510  -31.4070 C   0  0  0  0  0  0  0  0  0  0  0  0
   -9.1530   21.9990  -30.9580 C   0  0  0  0  0  0  0  0  0  0  0  0
   -9.6810   20.9090  -31.9070 C   0  0  0  0  0  0  0  0  0  0  0  0
   -3.6150   20.1350  -31.0420 C   0  0  0  0  0  0  0  0  0  0  0  0
   -3.9420   21.4140  -30.5810 C   0  0  0  0  0  0  0  0  0  0  0  0
   -3.8410   22.6439  -28.7630 H   0  0  0  0  0  0  0  0  0  0  0  0
   -2.7785   22.1563  -26.5619 H   0  0  0  0  0  0  0  0  0  0  0  0
   -1.0298   23.6867  -25.6497 H   0  0  0  0  0  0  0  0  0  0  0  0
   -0.3142   25.6861  -26.9597 H   0  0  0  0  0  0  0  0  0  0  0  0
   -3.5978   23.1517  -33.5083 H   0  0  0  0  0  0  0  0  0  0  0  0
   -3.0108   20.8735  -34.3278 H   0  0  0  0  0  0  0  0  0  0  0  0
   -1.8668   18.5246  -33.1542 H   0  0  0  0  0  0  0  0  0  0  0  0
   -3.1342   17.8297  -32.0708 H   0  0  0  0  0  0  0  0  0  0  0  0
   -7.8248   16.6740  -32.7608 H   0  0  0  0  0  0  0  0  0  0  0  0
   -9.7106   18.1550  -32.0637 H   0  0  0  0  0  0  0  0  0  0  0  0
   -5.3149   20.1486  -33.3861 H   0  0  0  0  0  0  0  0  0  0  0  0
   -6.1255   22.3045  -32.7155 H   0  0  0  0  0  0  0  0  0  0  0  0
   -7.7206   22.4448  -33.5542 H   0  0  0  0  0  0  0  0  0  0  0  0
   -7.0914   22.5451  -30.5862 H   0  0  0  0  0  0  0  0  0  0  0  0
   -8.0491   23.6984  -31.6490 H   0  0  0  0  0  0  0  0  0  0  0  0
   -8.9992   21.5469  -29.9671 H   0  0  0  0  0  0  0  0  0  0  0  0
   -9.9060   22.8008  -30.9524 H   0  0  0  0  0  0  0  0  0  0  0  0
  -10.4660   20.3319  -31.3963 H   0  0  0  0  0  0  0  0  0  0  0  0
  -10.0920   21.3868  -32.8086 H   0  0  0  0  0  0  0  0  0  0  0  0
   -3.6195   19.2846  -30.3443 H   0  0  0  0  0  0  0  0  0  0  0  0
   -4.1868   21.5660  -29.5194 H   0  0  0  0  0  0  0  0  0  0  0  0
  1  2  2  0
  2  3  1  0
  3  4  1  0
  4  5  2  0
  5  6  1  0
  6  7  2  0
  7  8  1  0
  8  9  2  0
  9 10  1  0
  2 11  1  0
 11 12  2  0
 12 13  1  0
 13 14  2  0
 14 15  1  0
 15 16  1  0
 16 17  1  0
 17 18  2  0
 17 19  2  0
 17 20  1  0
 20 21  2  0
 21 22  1  0
 22 23  2  0
 23 24  1  0
 24 25  2  0
 24 26  1  0
 26 27  1  0
 27 28  1  0
 28 29  1  0
 14 30  1  0
 30 31  2  0
  9  4  1  0
 31 11  1  0
 25 20  1  0
 29 23  1  0
  5 32  1  0
  6 33  1  0
  7 34  1  0
  8 35  1  0
 12 36  1  0
 13 37  1  0
 15 38  1  0
 15 39  1  0
 21 40  1  0
 22 41  1  0
 25 42  1  0
 26 43  1  0
 26 44  1  0
 27 45  1  0
 27 46  1  0
 28 47  1  0
 28 48  1  0
 29 49  1  0
 29 50  1  0
 30 51  1  0
 31 52  1  0
M  CHG  3   3  -1  10  -1  16  -1
M  END
>  <UniqueID>  (22) 
20

>  <SMILES>  (22) 
O=C([N-]c1ccccc1[O-])c1ccc(C[N-]S(=O)(=O)c2ccc3c(c2)CCCC3)cc1

>  <Energy>  (22) 
67.33064105225847

>  <Genealogy>  (22) 
O=C([N-]c1ccccc1[O-])c1ccc(C[N-]S(=O)(=O)c2ccc3c(c2)CCCC3)cc1 (protonated)
O=C([N-]c1ccccc1[O-])c1ccc(C[N-]S(=O)(=O)c2ccc3c(c2)CCCC3)cc1 (3D coordinates assigned)
O=C([N-]c1ccccc1[O-])c1ccc(C[N-]S(=O)(=O)c2ccc3c(c2)CCCC3)cc1 (nonaromatic ring conformer: 67.33064105225847 kcal/mol)

>  <smiles>  (22) 
O=C(Nc1ccccc1O)c1ccc(CNS(=O)(=O)c2ccc3c(c2)CCCC3)cc1

>  <score_type>  (22) 
oracle

>  <origin>  (22) 
adgpu

>  <m_score__min__energy>  (22) 
-15.710000000000001

>  <m_primary>  (22) 
energy

$$$$
22:0
     RDKit          3D

 59 62  0  0  0  0  0  0  0  0999 V2000
   -0.2160   23.9430  -25.8720 C   0  0  0  0  0  0  0  0  0  0  0  0
   -1.1440   24.2560  -27.0090 C   0  0  0  0  0  0  0  0  0  0  0  0
   -2.4330   23.7100  -27.0490 C   0  0  0  0  0  0  0  0  0  0  0  0
   -3.3020   24.0370  -28.0920 C   0  0  0  0  0  0  0  0  0  0  0  0
   -2.8720   24.9220  -29.1030 C   0  0  0  0  0  0  0  0  0  0  0  0
   -3.6270   25.2810  -30.1050 N   0  0  0  0  0  0  0  0  0  0  0  0
   -4.9200   24.7820  -30.4830 C   0  0  0  0  0  0  0  0  0  0  0  0
   -5.9410   25.2550  -29.9160 O   0  0  0  0  0  0  0  0  0  0  0  0
   -5.0570   23.8050  -31.5240 N   0  0  0  0  0  0  0  0  0  0  0  0
   -4.1010   22.7960  -31.8790 C   0  0  0  0  0  0  0  0  0  0  0  0
   -4.1870   22.0790  -33.0860 C   0  0  0  0  0  0  0  0  0  0  0  0
   -3.2200   21.1230  -33.4070 C   0  0  0  0  0  0  0  0  0  0  0  0
   -2.1490   20.8810  -32.5380 C   0  0  0  0  0  0  0  0  0  0  0  0
   -0.9480   19.6580  -32.9350 S   0  0  0  0  0  0  0  0  0  0  0  0
   -0.1240   19.3430  -31.7160 O   0  0  0  0  0  0  0  0  0  0  0  0
   -0.0250   20.1700  -34.0050 O   0  0  0  0  0  0  0  0  0  0  0  0
   -1.7700   18.2110  -33.5080 C   0  0  0  0  0  0  0  0  0  0  0  0
   -1.0180   17.1260  -33.9780 C   0  0  0  0  0  0  0  0  0  0  0  0
   -1.6610   15.9790  -34.4490 C   0  0  0  0  0  0  0  0  0  0  0  0
   -3.0560   15.9070  -34.4510 C   0  0  0  0  0  0  0  0  0  0  0  0
   -3.8180   16.9850  -33.9790 C   0  0  0  0  0  0  0  0  0  0  0  0
   -5.5800   16.8850  -33.9550 S   0  0  0  0  0  0  0  0  0  0  0  0
   -6.1250   17.4090  -35.2560 O   0  0  0  0  0  0  0  0  0  0  0  0
   -5.9940   15.4450  -33.8250 O   0  0  0  0  0  0  0  0  0  0  0  0
   -6.2570   17.8010  -32.6280 N   0  0  0  0  0  0  0  0  0  0  0  0
   -5.9670   19.2520  -32.7620 C   0  0  0  0  0  0  0  0  0  0  0  0
   -7.1780   20.0630  -33.2480 C   0  0  0  0  0  0  0  0  0  0  0  0
   -8.3760   19.8990  -32.2960 C   0  0  0  0  0  0  0  0  0  0  0  0
   -8.4040   18.5240  -31.6040 C   0  0  0  0  0  0  0  0  0  0  0  0
   -7.6870   17.4700  -32.4510 C   0  0  0  0  0  0  0  0  0  0  0  0
   -3.1700   18.1410  -33.5170 C   0  0  0  0  0  0  0  0  0  0  0  0
   -2.0540   21.6030  -31.3400 C   0  0  0  0  0  0  0  0  0  0  0  0
   -3.0190   22.5630  -31.0210 C   0  0  0  0  0  0  0  0  0  0  0  0
   -1.6290   25.4680  -29.0110 N   0  0  0  0  0  0  0  0  0  0  0  0
   -0.7670   25.1620  -28.0060 C   0  0  0  0  0  0  0  0  0  0  0  0
   -0.7338   24.1177  -24.9174 H   0  0  0  0  0  0  0  0  0  0  0  0
    0.0960   22.8899  -25.9326 H   0  0  0  0  0  0  0  0  0  0  0  0
    0.6701   24.5920  -25.9326 H   0  0  0  0  0  0  0  0  0  0  0  0
   -2.7619   23.0216  -26.2566 H   0  0  0  0  0  0  0  0  0  0  0  0
   -4.3143   23.6078  -28.1251 H   0  0  0  0  0  0  0  0  0  0  0  0
   -5.0186   22.2716  -33.7798 H   0  0  0  0  0  0  0  0  0  0  0  0
   -3.3004   20.5576  -34.3471 H   0  0  0  0  0  0  0  0  0  0  0  0
    0.0808   17.1777  -33.9760 H   0  0  0  0  0  0  0  0  0  0  0  0
   -1.0673   15.1302  -34.8193 H   0  0  0  0  0  0  0  0  0  0  0  0
   -3.5580   15.0021  -34.8239 H   0  0  0  0  0  0  0  0  0  0  0  0
   -5.6564   19.6396  -31.7805 H   0  0  0  0  0  0  0  0  0  0  0  0
   -5.1735   19.3611  -33.5160 H   0  0  0  0  0  0  0  0  0  0  0  0
   -6.9014   21.1265  -33.2967 H   0  0  0  0  0  0  0  0  0  0  0  0
   -7.4695   19.6921  -34.2417 H   0  0  0  0  0  0  0  0  0  0  0  0
   -8.3206   20.6802  -31.5236 H   0  0  0  0  0  0  0  0  0  0  0  0
   -9.2922   19.9853  -32.8986 H   0  0  0  0  0  0  0  0  0  0  0  0
   -7.9036   18.6023  -30.6275 H   0  0  0  0  0  0  0  0  0  0  0  0
   -9.4525   18.2171  -31.4757 H   0  0  0  0  0  0  0  0  0  0  0  0
   -7.7690   16.4933  -31.9516 H   0  0  0  0  0  0  0  0  0  0  0  0
   -8.1611   17.4424  -33.4432 H   0  0  0  0  0  0  0  0  0  0  0  0
   -3.7633   18.9959  -33.1604 H   0  0  0  0  0  0  0  0  0  0  0  0
   -1.2187   21.4138  -30.6498 H   0  0  0  0  0  0  0  0  0  0  0  0
   -2.9277   23.1398  -30.0888 H   0  0  0  0  0  0  0  0  0  0  0  0
    0.2292   25.6276  -27.9764 H   0  0  0  0  0  0  0  0  0  0  0  0
  1  2  1  0
  2  3  1  0
  3  4  2  0
  4  5  1  0
  5  6  2  3
  6  7  1  0
  7  8  2  0
  7  9  1  0
  9 10  1  0
 10 11  2  0
 11 12  1  0
 12 13  2  0
 13 14  1  0
 14 15  2  0
 14 16  2  0
 14 17  1  0
 17 18  2  0
 18 19  1  0
 19 20  2  0
 20 21  1  0
 21 22  1  0
 22 23  2  0
 22 24  2  0
 22 25  1  0
 25 26  1  0
 26 27  1  0
 27 28  1  0
 28 29  1  0
 29 30  1  0
 21 31  2  0
 13 32  1  0
 32 33  2  0
  5 34  1  0
 34 35  1  0
 35  2  2  0
 33 10  1  0
 31 17  1  0
 30 25  1  0
  1 36  1  0
  1 37  1  0
  1 38  1  0
  3 39  1  0
  4 40  1  0
 11 41  1  0
 12 42  1  0
 18 43  1  0
 19 44  1  0
 20 45  1  0
 26 46  1  0
 26 47  1  0
 27 48  1  0
 27 49  1  0
 28 50  1  0
 28 51  1  0
 29 52  1  0
 29 53  1  0
 30 54  1  0
 30 55  1  0
 31 56  1  0
 32 57  1  0
 33 58  1  0
 35 59  1  0
M  CHG  2   9  -1  34  -1
M  END
>  <UniqueID>  (23) 
21

>  <SMILES>  (23) 
Cc1ccc(=NC(=O)[N-]c2ccc(S(=O)(=O)c3cccc(S(=O)(=O)N4CCCCC4)c3)cc2)[n-]c1

>  <Energy>  (23) 
79.73369616917594

>  <Genealogy>  (23) 
Cc1ccc(=NC(=O)[N-]c2ccc(S(=O)(=O)c3cccc(S(=O)(=O)N4CCCCC4)c3)cc2)[n-]c1 (protonated)
Cc1ccc(=NC(=O)[N-]c2ccc(S(=O)(=O)c3cccc(S(=O)(=O)N4CCCCC4)c3)cc2)[n-]c1 (3D coordinates assigned)
Cc1ccc(=NC(=O)[N-]c2ccc(S(=O)(=O)c3cccc(S(=O)(=O)N4CCCCC4)c3)cc2)[n-]c1 (nonaromatic ring conformer: 79.73369616917594 kcal/mol)

>  <smiles>  (23) 
Cc1ccc(=NC(=O)Nc2ccc(S(=O)(=O)c3cccc(S(=O)(=O)N4CCCCC4)c3)cc2)[nH]c1

>  <score_type>  (23) 
oracle

>  <origin>  (23) 
adgpu

>  <m_score__min__energy>  (23) 
-13.44

>  <m_primary>  (23) 
energy

$$$$
23:0
     RDKit          3D

 45 47  0  0  0  0  0  0  0  0999 V2000
   -3.2040   21.9060  -33.3460 O   0  0  0  0  0  0  0  0  0  0  0  0
   -3.0550   20.4350  -33.0700 S   0  0  0  0  0  0  0  0  0  0  0  0
   -2.1260   19.8490  -34.0960 O   0  0  0  0  0  0  0  0  0  0  0  0
   -2.3590   20.2190  -31.4870 N   0  0  0  0  0  0  0  0  0  0  0  0
   -3.2330   20.7330  -30.4290 C   0  0  0  0  0  0  0  0  0  0  0  0
   -2.8500   22.1330  -30.0280 C   0  0  0  0  0  0  0  0  0  0  0  0
   -1.6750   22.3600  -29.2940 C   0  0  0  0  0  0  0  0  0  0  0  0
   -1.3080   23.6610  -28.9370 C   0  0  0  0  0  0  0  0  0  0  0  0
   -2.1080   24.7440  -29.3110 C   0  0  0  0  0  0  0  0  0  0  0  0
   -1.7330   26.0350  -28.9540 O   0  0  0  0  0  0  0  0  0  0  0  0
   -3.2830   24.5300  -30.0430 C   0  0  0  0  0  0  0  0  0  0  0  0
   -4.0730   25.6150  -30.4170 O   0  0  0  0  0  0  0  0  0  0  0  0
   -3.6540   23.2250  -30.3980 C   0  0  0  0  0  0  0  0  0  0  0  0
   -4.6170   19.6300  -33.2020 C   0  0  0  0  0  0  0  0  0  0  0  0
   -4.7630   18.4680  -33.9730 C   0  0  0  0  0  0  0  0  0  0  0  0
   -6.0180   17.8680  -34.1030 C   0  0  0  0  0  0  0  0  0  0  0  0
   -7.1320   18.4270  -33.4730 C   0  0  0  0  0  0  0  0  0  0  0  0
   -6.9970   19.5920  -32.7030 C   0  0  0  0  0  0  0  0  0  0  0  0
   -8.4100   20.3250  -31.9380 S   0  0  0  0  0  0  0  0  0  0  0  0
   -8.7010   19.6010  -30.6520 O   0  0  0  0  0  0  0  0  0  0  0  0
   -9.5990   20.1590  -32.8430 O   0  0  0  0  0  0  0  0  0  0  0  0
   -8.1870   22.0250  -31.5980 N   0  0  0  0  0  0  0  0  0  0  0  0
   -7.1980   22.6360  -32.4840 C   0  0  0  0  0  0  0  0  0  0  0  0
   -6.6480   23.8430  -31.7410 C   0  0  0  0  0  0  0  0  0  0  0  0
   -6.9490   23.5820  -30.2720 C   0  0  0  0  0  0  0  0  0  0  0  0
   -7.6950   22.2560  -30.2420 C   0  0  0  0  0  0  0  0  0  0  0  0
   -5.7320   20.1760  -32.5520 C   0  0  0  0  0  0  0  0  0  0  0  0
   -4.2709   20.7369  -30.7933 H   0  0  0  0  0  0  0  0  0  0  0  0
   -3.1292   20.0814  -29.5488 H   0  0  0  0  0  0  0  0  0  0  0  0
   -1.0408   21.5112  -28.9987 H   0  0  0  0  0  0  0  0  0  0  0  0
   -0.3872   23.8325  -28.3602 H   0  0  0  0  0  0  0  0  0  0  0  0
   -3.8660   26.5550  -30.1010 H   0  0  0  0  0  0  0  0  0  0  0  0
   -4.5788   23.0551  -30.9689 H   0  0  0  0  0  0  0  0  0  0  0  0
   -3.8889   18.0285  -34.4758 H   0  0  0  0  0  0  0  0  0  0  0  0
   -6.1290   16.9529  -34.7032 H   0  0  0  0  0  0  0  0  0  0  0  0
   -8.1185   17.9524  -33.5808 H   0  0  0  0  0  0  0  0  0  0  0  0
   -6.3899   21.9224  -32.7025 H   0  0  0  0  0  0  0  0  0  0  0  0
   -7.6478   22.9283  -33.4443 H   0  0  0  0  0  0  0  0  0  0  0  0
   -5.5636   23.9332  -31.9020 H   0  0  0  0  0  0  0  0  0  0  0  0
   -7.1011   24.7819  -32.0919 H   0  0  0  0  0  0  0  0  0  0  0  0
   -6.0155   23.5116  -29.6944 H   0  0  0  0  0  0  0  0  0  0  0  0
   -7.5406   24.3945  -29.8249 H   0  0  0  0  0  0  0  0  0  0  0  0
   -7.0158   21.4448  -29.9410 H   0  0  0  0  0  0  0  0  0  0  0  0
   -8.5227   22.2820  -29.5180 H   0  0  0  0  0  0  0  0  0  0  0  0
   -5.6136   21.0682  -31.9196 H   0  0  0  0  0  0  0  0  0  0  0  0
  1  2  2  0
  2  3  2  0
  2  4  1  0
  4  5  1  0
  5  6  1  0
  6  7  2  0
  7  8  1  0
  8  9  2  0
  9 10  1  0
  9 11  1  0
 11 12  1  0
 11 13  2  0
  2 14  1  0
 14 15  2  0
 15 16  1  0
 16 17  2  0
 17 18  1  0
 18 19  1  0
 19 20  2  0
 19 21  2  0
 19 22  1  0
 22 23  1  0
 23 24  1  0
 24 25  1  0
 25 26  1  0
 18 27  2  0
 13  6  1  0
 27 14  1  0
 26 22  1  0
  5 28  1  0
  5 29  1  0
  7 30  1  0
  8 31  1  0
 12 32  1  0
 13 33  1  0
 15 34  1  0
 16 35  1  0
 17 36  1  0
 23 37  1  0
 23 38  1  0
 24 39  1  0
 24 40  1  0
 25 41  1  0
 25 42  1  0
 26 43  1  0
 26 44  1  0
 27 45  1  0
M  CHG  2   4  -1  10  -1
M  END
>  <UniqueID>  (24) 
22

>  <SMILES>  (24) 
O=S(=O)([N-]Cc1ccc([O-])c(O)c1)c1cccc(S(=O)(=O)N2CCCC2)c1

>  <Energy>  (24) 
44.4546519621515

>  <Genealogy>  (24) 
O=S(=O)([N-]Cc1ccc([O-])c(O)c1)c1cccc(S(=O)(=O)N2CCCC2)c1 (protonated)
O=S(=O)([N-]Cc1ccc([O-])c(O)c1)c1cccc(S(=O)(=O)N2CCCC2)c1 (3D coordinates assigned)
O=S(=O)([N-]Cc1ccc([O-])c(O)c1)c1cccc(S(=O)(=O)N2CCCC2)c1 (nonaromatic ring conformer: 44.4546519621515 kcal/mol)

>  <smiles>  (24) 
O=S(=O)(NCc1ccc(O)c(O)c1)c1cccc(S(=O)(=O)N2CCCC2)c1

>  <score_type>  (24) 
oracle

>  <origin>  (24) 
adgpu

>  <m_score__min__energy>  (24) 
-13.07

>  <m_primary>  (24) 
energy

$$$$
24:0
     RDKit          3D

 60 63  0  0  0  0  0  0  0  0999 V2000
   -8.5170   23.4410  -32.0680 C   0  0  0  0  0  0  0  0  0  0  0  0
   -7.8870   22.0780  -32.0090 C   0  0  0  0  0  0  0  0  0  0  0  0
   -8.6880   20.9450  -31.8650 C   0  0  0  0  0  0  0  0  0  0  0  0
   -8.1070   19.6720  -31.7560 C   0  0  0  0  0  0  0  0  0  0  0  0
   -9.0240   18.4840  -31.5860 C   0  0  0  0  0  0  0  0  0  0  0  0
   -6.7340   19.5340  -31.7920 N   0  0  0  0  0  0  0  0  0  0  0  0
   -6.0960   18.2080  -31.6200 C   0  0  0  0  0  0  0  0  0  0  0  0
   -5.4550   17.7210  -32.8970 C   0  0  0  0  0  0  0  0  0  0  0  0
   -4.3940   16.7990  -32.8450 C   0  0  0  0  0  0  0  0  0  0  0  0
   -3.7730   16.3740  -34.0230 C   0  0  0  0  0  0  0  0  0  0  0  0
   -4.1920   16.8730  -35.2600 C   0  0  0  0  0  0  0  0  0  0  0  0
   -5.2310   17.8070  -35.3210 C   0  0  0  0  0  0  0  0  0  0  0  0
   -5.8610   18.2310  -34.1480 C   0  0  0  0  0  0  0  0  0  0  0  0
   -5.9410   20.6440  -31.9660 C   0  0  0  0  0  0  0  0  0  0  0  0
   -4.6930   20.5230  -32.0790 O   0  0  0  0  0  0  0  0  0  0  0  0
   -6.4970   21.9270  -32.0260 C   0  0  0  0  0  0  0  0  0  0  0  0
   -5.6490   23.0780  -32.1070 N   0  0  0  0  0  0  0  0  0  0  0  0
   -5.3340   24.0800  -30.7310 S   0  0  0  0  0  0  0  0  0  0  0  0
   -4.9560   25.4540  -31.2060 O   0  0  0  0  0  0  0  0  0  0  0  0
   -6.5760   24.1860  -29.8970 O   0  0  0  0  0  0  0  0  0  0  0  0
   -4.0210   23.4160  -29.7600 C   0  0  0  0  0  0  0  0  0  0  0  0
   -3.9210   22.0310  -29.5740 C   0  0  0  0  0  0  0  0  0  0  0  0
   -2.8240   21.4900  -28.8980 C   0  0  0  0  0  0  0  0  0  0  0  0
   -1.8180   22.3280  -28.4080 C   0  0  0  0  0  0  0  0  0  0  0  0
   -1.9110   23.7150  -28.5810 C   0  0  0  0  0  0  0  0  0  0  0  0
   -0.6090   24.7520  -28.0010 S   0  0  0  0  0  0  0  0  0  0  0  0
   -0.8690   26.1560  -28.4730 O   0  0  0  0  0  0  0  0  0  0  0  0
    0.7060   24.2910  -28.5660 O   0  0  0  0  0  0  0  0  0  0  0  0
   -0.5560   24.7160  -26.2510 N   0  0  0  0  0  0  0  0  0  0  0  0
    0.5330   25.5620  -25.7490 C   0  0  0  0  0  0  0  0  0  0  0  0
   -0.0480   26.9110  -25.3430 C   0  0  0  0  0  0  0  0  0  0  0  0
   -1.5480   26.7650  -25.4410 C   0  0  0  0  0  0  0  0  0  0  0  0
   -1.7860   25.2840  -25.6880 C   0  0  0  0  0  0  0  0  0  0  0  0
   -3.0180   24.2570  -29.2530 C   0  0  0  0  0  0  0  0  0  0  0  0
   -8.6878   23.8105  -31.0461 H   0  0  0  0  0  0  0  0  0  0  0  0
   -7.8469   24.1319  -32.6005 H   0  0  0  0  0  0  0  0  0  0  0  0
   -9.4774   23.3783  -32.6005 H   0  0  0  0  0  0  0  0  0  0  0  0
   -9.7826   21.0500  -31.8367 H   0  0  0  0  0  0  0  0  0  0  0  0
   -9.1753   18.2880  -30.5142 H   0  0  0  0  0  0  0  0  0  0  0  0
   -9.9933   18.6982  -32.0600 H   0  0  0  0  0  0  0  0  0  0  0  0
   -8.5713   17.6006  -32.0600 H   0  0  0  0  0  0  0  0  0  0  0  0
   -5.3233   18.2837  -30.8408 H   0  0  0  0  0  0  0  0  0  0  0  0
   -6.8777   17.4883  -31.3353 H   0  0  0  0  0  0  0  0  0  0  0  0
   -4.0518   16.4112  -31.8742 H   0  0  0  0  0  0  0  0  0  0  0  0
   -2.9514   15.6441  -33.9766 H   0  0  0  0  0  0  0  0  0  0  0  0
   -3.7046   16.5310  -36.1849 H   0  0  0  0  0  0  0  0  0  0  0  0
   -5.5527   18.2083  -36.2934 H   0  0  0  0  0  0  0  0  0  0  0  0
   -6.6776   18.9661  -34.2004 H   0  0  0  0  0  0  0  0  0  0  0  0
   -4.7083   21.3674  -29.9612 H   0  0  0  0  0  0  0  0  0  0  0  0
   -2.7519   20.4022  -28.7511 H   0  0  0  0  0  0  0  0  0  0  0  0
   -0.9513   21.8972  -27.8853 H   0  0  0  0  0  0  0  0  0  0  0  0
    1.0027   25.0831  -24.8772 H   0  0  0  0  0  0  0  0  0  0  0  0
    1.2933   25.7002  -26.5318 H   0  0  0  0  0  0  0  0  0  0  0  0
    0.2453   27.1588  -24.3122 H   0  0  0  0  0  0  0  0  0  0  0  0
    0.3211   27.7199  -25.9906 H   0  0  0  0  0  0  0  0  0  0  0  0
   -2.0290   27.0825  -24.5041 H   0  0  0  0  0  0  0  0  0  0  0  0
   -1.9717   27.3898  -26.2411 H   0  0  0  0  0  0  0  0  0  0  0  0
   -2.0296   24.7817  -24.7402 H   0  0  0  0  0  0  0  0  0  0  0  0
   -2.6262   25.1423  -26.3837 H   0  0  0  0  0  0  0  0  0  0  0  0
   -3.0998   25.3462  -29.3829 H   0  0  0  0  0  0  0  0  0  0  0  0
  1  2  1  0
  2  3  1  0
  3  4  2  0
  4  5  1  0
  4  6  1  0
  6  7  1  0
  7  8  1  0
  8  9  2  0
  9 10  1  0
 10 11  2  0
 11 12  1  0
 12 13  2  0
  6 14  1  0
 14 15  2  0
 14 16  1  0
 16 17  1  0
 17 18  1  0
 18 19  2  0
 18 20  2  0
 18 21  1  0
 21 22  2  0
 22 23  1  0
 23 24  2  0
 24 25  1  0
 25 26  1  0
 26 27  2  0
 26 28  2  0
 26 29  1  0
 29 30  1  0
 30 31  1  0
 31 32  1  0
 32 33  1  0
 25 34  2  0
 16  2  2  0
 34 21  1  0
 13  8  1  0
 33 29  1  0
  1 35  1  0
  1 36  1  0
  1 37  1  0
  3 38  1  0
  5 39  1  0
  5 40  1  0
  5 41  1  0
  7 42  1  0
  7 43  1  0
  9 44  1  0
 10 45  1  0
 11 46  1  0
 12 47  1  0
 13 48  1  0
 22 49  1  0
 23 50  1  0
 24 51  1  0
 30 52  1  0
 30 53  1  0
 31 54  1  0
 31 55  1  0
 32 56  1  0
 32 57  1  0
 33 58  1  0
 33 59  1  0
 34 60  1  0
M  CHG  1  17  -1
M  END
>  <UniqueID>  (25) 
23

>  <SMILES>  (25) 
Cc1cc(C)n(Cc2ccccc2)c(=O)c1[N-]S(=O)(=O)c1cccc(S(=O)(=O)N2CCCC2)c1

>  <Energy>  (25) 
76.64811289095641

>  <Genealogy>  (25) 
Cc1cc(C)n(Cc2ccccc2)c(=O)c1[N-]S(=O)(=O)c1cccc(S(=O)(=O)N2CCCC2)c1 (protonated)
Cc1cc(C)n(Cc2ccccc2)c(=O)c1[N-]S(=O)(=O)c1cccc(S(=O)(=O)N2CCCC2)c1 (3D coordinates assigned)
Cc1cc(C)n(Cc2ccccc2)c(=O)c1[N-]S(=O)(=O)c1cccc(S(=O)(=O)N2CCCC2)c1 (nonaromatic ring conformer: 76.64811289095641 kcal/mol)

>  <smiles>  (25) 
Cc1cc(C)n(Cc2ccccc2)c(=O)c1NS(=O)(=O)c1cccc(S(=O)(=O)N2CCCC2)c1

>  <score_type>  (25) 
oracle

>  <origin>  (25) 
adgpu

>  <m_score__min__energy>  (25) 
-12.210000000000001

>  <m_primary>  (25) 
energy

$$$$
25:0
     RDKit          3D

 57 60  0  0  0  0  0  0  0  0999 V2000
   -5.6680   26.1240  -30.0830 O   0  0  0  0  0  0  0  0  0  0  0  0
   -4.9710   25.1300  -30.4120 C   0  0  0  0  0  0  0  0  0  0  0  0
   -3.5430   25.2620  -30.4580 N   0  0  0  0  0  0  0  0  0  0  0  0
   -2.6460   24.3930  -29.7510 C   0  0  0  0  0  0  0  0  0  0  0  0
   -2.8070   22.9990  -29.8130 C   0  0  0  0  0  0  0  0  0  0  0  0
   -1.8930   22.1470  -29.1820 C   0  0  0  0  0  0  0  0  0  0  0  0
   -2.0910   20.3960  -29.2840 S   0  0  0  0  0  0  0  0  0  0  0  0
   -1.6790   19.7950  -27.9680 O   0  0  0  0  0  0  0  0  0  0  0  0
   -3.5410   20.0710  -29.5180 O   0  0  0  0  0  0  0  0  0  0  0  0
   -1.0960   19.7550  -30.5800 N   0  0  0  0  0  0  0  0  0  0  0  0
   -0.1200   20.7550  -31.0270 C   0  0  0  0  0  0  0  0  0  0  0  0
   -0.7210   21.5210  -32.1980 C   0  0  0  0  0  0  0  0  0  0  0  0
   -1.9300   20.7150  -32.6320 C   0  0  0  0  0  0  0  0  0  0  0  0
   -1.9090   19.4670  -31.7660 C   0  0  0  0  0  0  0  0  0  0  0  0
   -0.8260   22.6980  -28.4590 C   0  0  0  0  0  0  0  0  0  0  0  0
   -0.6890   24.0860  -28.3540 C   0  0  0  0  0  0  0  0  0  0  0  0
   -1.5990   24.9380  -28.9950 C   0  0  0  0  0  0  0  0  0  0  0  0
   -1.4570   26.3200  -28.9010 O   0  0  0  0  0  0  0  0  0  0  0  0
   -5.6300   23.8560  -30.7740 C   0  0  0  0  0  0  0  0  0  0  0  0
   -6.6560   23.3360  -29.9700 C   0  0  0  0  0  0  0  0  0  0  0  0
   -7.3040   22.1520  -30.3270 C   0  0  0  0  0  0  0  0  0  0  0  0
   -6.9550   21.4850  -31.5080 C   0  0  0  0  0  0  0  0  0  0  0  0
   -7.7910   20.0090  -31.9880 S   0  0  0  0  0  0  0  0  0  0  0  0
   -9.0980   19.9250  -31.2510 O   0  0  0  0  0  0  0  0  0  0  0  0
   -8.0650   20.0950  -33.4630 O   0  0  0  0  0  0  0  0  0  0  0  0
   -6.8070   18.5940  -31.6570 N   0  0  0  0  0  0  0  0  0  0  0  0
   -7.1850   17.4240  -32.4730 C   0  0  0  0  0  0  0  0  0  0  0  0
   -6.5590   17.4570  -33.8770 C   0  0  0  0  0  0  0  0  0  0  0  0
   -5.1580   17.6130  -33.8010 O   0  0  0  0  0  0  0  0  0  0  0  0
   -4.8540   18.8510  -33.1930 C   0  0  0  0  0  0  0  0  0  0  0  0
   -5.3640   18.8830  -31.7440 C   0  0  0  0  0  0  0  0  0  0  0  0
   -5.9120   21.9850  -32.3000 C   0  0  0  0  0  0  0  0  0  0  0  0
   -5.2460   23.1600  -31.9320 C   0  0  0  0  0  0  0  0  0  0  0  0
   -3.6593   22.5729  -30.3625 H   0  0  0  0  0  0  0  0  0  0  0  0
    0.1040   21.4497  -30.2040 H   0  0  0  0  0  0  0  0  0  0  0  0
    0.8131   20.2615  -31.3364 H   0  0  0  0  0  0  0  0  0  0  0  0
   -1.0249   22.5299  -31.8820 H   0  0  0  0  0  0  0  0  0  0  0  0
    0.0017   21.6459  -33.0178 H   0  0  0  0  0  0  0  0  0  0  0  0
   -2.8550   21.2860  -32.4633 H   0  0  0  0  0  0  0  0  0  0  0  0
   -1.8984   20.4717  -33.7043 H   0  0  0  0  0  0  0  0  0  0  0  0
   -2.9334   19.2055  -31.4624 H   0  0  0  0  0  0  0  0  0  0  0  0
   -1.4847   18.6199  -32.3249 H   0  0  0  0  0  0  0  0  0  0  0  0
   -0.0939   22.0366  -27.9726 H   0  0  0  0  0  0  0  0  0  0  0  0
    0.1372   24.5112  -27.7653 H   0  0  0  0  0  0  0  0  0  0  0  0
   -1.2520   26.8890  -29.7140 H   0  0  0  0  0  0  0  0  0  0  0  0
   -6.9517   23.8650  -29.0520 H   0  0  0  0  0  0  0  0  0  0  0  0
   -8.0917   21.7414  -29.6782 H   0  0  0  0  0  0  0  0  0  0  0  0
   -6.8488   16.5118  -31.9584 H   0  0  0  0  0  0  0  0  0  0  0  0
   -8.2781   17.4409  -32.5945 H   0  0  0  0  0  0  0  0  0  0  0  0
   -6.7887   16.5146  -34.3959 H   0  0  0  0  0  0  0  0  0  0  0  0
   -6.9781   18.3116  -34.4284 H   0  0  0  0  0  0  0  0  0  0  0  0
   -3.7637   18.9967  -33.1956 H   0  0  0  0  0  0  0  0  0  0  0  0
   -5.3472   19.6544  -33.7598 H   0  0  0  0  0  0  0  0  0  0  0  0
   -4.8157   18.1304  -31.1584 H   0  0  0  0  0  0  0  0  0  0  0  0
   -5.1972   19.8959  -31.3487 H   0  0  0  0  0  0  0  0  0  0  0  0
   -5.6155   21.4514  -33.2151 H   0  0  0  0  0  0  0  0  0  0  0  0
   -4.4198   23.5392  -32.5513 H   0  0  0  0  0  0  0  0  0  0  0  0
  1  2  2  0
  2  3  1  0
  3  4  1  0
  4  5  2  0
  5  6  1  0
  6  7  1  0
  7  8  2  0
  7  9  2  0
  7 10  1  0
 10 11  1  0
 11 12  1  0
 12 13  1  0
 13 14  1  0
  6 15  2  0
 15 16  1  0
 16 17  2  0
 17 18  1  0
  2 19  1  0
 19 20  2  0
 20 21  1  0
 21 22  2  0
 22 23  1  0
 23 24  2  0
 23 25  2  0
 23 26  1  0
 26 27  1  0
 27 28  1  0
 28 29  1  0
 29 30  1  0
 30 31  1  0
 22 32  1  0
 32 33  2  0
 17  4  1  0
 33 19  1  0
 14 10  1  0
 31 26  1  0
  5 34  1  0
 11 35  1  0
 11 36  1  0
 12 37  1  0
 12 38  1  0
 13 39  1  0
 13 40  1  0
 14 41  1  0
 14 42  1  0
 15 43  1  0
 16 44  1  0
 18 45  1  0
 20 46  1  0
 21 47  1  0
 27 48  1  0
 27 49  1  0
 28 50  1  0
 28 51  1  0
 30 52  1  0
 30 53  1  0
 31 54  1  0
 31 55  1  0
 32 56  1  0
 33 57  1  0
M  CHG  1   3  -1
M  END
>  <UniqueID>  (26) 
24

>  <SMILES>  (26) 
O=C([N-]c1cc(S(=O)(=O)N2CCCC2)ccc1O)c1ccc(S(=O)(=O)N2CCOCC2)cc1

>  <Energy>  (26) 
68.86495999871268

>  <Genealogy>  (26) 
O=C([N-]c1cc(S(=O)(=O)N2CCCC2)ccc1O)c1ccc(S(=O)(=O)N2CCOCC2)cc1 (protonated)
O=C([N-]c1cc(S(=O)(=O)N2CCCC2)ccc1O)c1ccc(S(=O)(=O)N2CCOCC2)cc1 (3D coordinates assigned)
O=C([N-]c1cc(S(=O)(=O)N2CCCC2)ccc1O)c1ccc(S(=O)(=O)N2CCOCC2)cc1 (nonaromatic ring conformer: 68.86495999871268 kcal/mol)

>  <smiles>  (26) 
O=C(Nc1cc(S(=O)(=O)N2CCCC2)ccc1O)c1ccc(S(=O)(=O)N2CCOCC2)cc1

>  <score_type>  (26) 
oracle

>  <origin>  (26) 
adgpu

>  <m_score__min__energy>  (26) 
-12.720000000000001

>  <m_primary>  (26) 
energy

$$$$
26:0
     RDKit          3D

 58 61  0  0  0  0  0  0  0  0999 V2000
   -4.4700   24.5550  -30.8510 O   0  0  0  0  0  0  0  0  0  0  0  0
   -4.9100   23.6500  -30.0890 C   0  0  0  0  0  0  0  0  0  0  0  0
   -4.6160   23.7010  -28.6810 N   0  0  0  0  0  0  0  0  0  0  0  0
   -3.4550   24.3500  -28.1360 C   0  0  0  0  0  0  0  0  0  0  0  0
   -3.4670   24.9050  -26.8440 C   0  0  0  0  0  0  0  0  0  0  0  0
   -2.3350   25.5570  -26.3440 C   0  0  0  0  0  0  0  0  0  0  0  0
   -1.1810   25.6710  -27.1320 C   0  0  0  0  0  0  0  0  0  0  0  0
    0.2660   26.4640  -26.5070 S   0  0  0  0  0  0  0  0  0  0  0  0
    1.3940   26.2060  -27.4660 O   0  0  0  0  0  0  0  0  0  0  0  0
    0.0400   27.9470  -26.4240 O   0  0  0  0  0  0  0  0  0  0  0  0
    0.6600   25.8010  -24.9330 N   0  0  0  0  0  0  0  0  0  0  0  0
   -0.5190   25.7010  -24.0510 C   0  0  0  0  0  0  0  0  0  0  0  0
   -0.8390   27.0280  -23.3500 C   0  0  0  0  0  0  0  0  0  0  0  0
    0.2920   27.5110  -22.6530 O   0  0  0  0  0  0  0  0  0  0  0  0
    1.3260   27.7930  -23.5730 C   0  0  0  0  0  0  0  0  0  0  0  0
    1.7830   26.5140  -24.2920 C   0  0  0  0  0  0  0  0  0  0  0  0
   -1.1710   25.1320  -28.4250 C   0  0  0  0  0  0  0  0  0  0  0  0
   -2.3030   24.4840  -28.9270 C   0  0  0  0  0  0  0  0  0  0  0  0
   -5.7430   22.5560  -30.6470 C   0  0  0  0  0  0  0  0  0  0  0  0
   -5.1560   21.3500  -31.0750 C   0  0  0  0  0  0  0  0  0  0  0  0
   -5.9440   20.3300  -31.6150 C   0  0  0  0  0  0  0  0  0  0  0  0
   -7.3300   20.4980  -31.7420 C   0  0  0  0  0  0  0  0  0  0  0  0
   -8.3280   19.2140  -32.4230 S   0  0  0  0  0  0  0  0  0  0  0  0
   -9.4120   19.8410  -33.2600 O   0  0  0  0  0  0  0  0  0  0  0  0
   -8.9740   18.4280  -31.3140 O   0  0  0  0  0  0  0  0  0  0  0  0
   -7.3620   18.1460  -33.4180 N   0  0  0  0  0  0  0  0  0  0  0  0
   -6.4090   18.9360  -34.2180 C   0  0  0  0  0  0  0  0  0  0  0  0
   -5.4540   18.0010  -34.9870 C   0  0  0  0  0  0  0  0  0  0  0  0
   -4.8970   16.9250  -34.2290 O   0  0  0  0  0  0  0  0  0  0  0  0
   -5.1810   17.0230  -32.8450 C   0  0  0  0  0  0  0  0  0  0  0  0
   -6.6960   17.1160  -32.5850 C   0  0  0  0  0  0  0  0  0  0  0  0
   -7.9220   21.6980  -31.3280 C   0  0  0  0  0  0  0  0  0  0  0  0
   -7.1350   22.7220  -30.7880 C   0  0  0  0  0  0  0  0  0  0  0  0
   -5.3470   23.3580  -28.0140 H   0  0  0  0  0  0  0  0  0  0  0  0
   -4.3716   24.8260  -26.2231 H   0  0  0  0  0  0  0  0  0  0  0  0
   -2.3502   25.9816  -25.3294 H   0  0  0  0  0  0  0  0  0  0  0  0
   -1.3881   25.4022  -24.6555 H   0  0  0  0  0  0  0  0  0  0  0  0
   -0.2940   24.9564  -23.2732 H   0  0  0  0  0  0  0  0  0  0  0  0
   -1.1429   27.7700  -24.1031 H   0  0  0  0  0  0  0  0  0  0  0  0
   -1.6529   26.8597  -22.6294 H   0  0  0  0  0  0  0  0  0  0  0  0
    0.9584   28.5136  -24.3184 H   0  0  0  0  0  0  0  0  0  0  0  0
    2.1815   28.2123  -23.0231 H   0  0  0  0  0  0  0  0  0  0  0  0
    2.5171   26.7855  -25.0649 H   0  0  0  0  0  0  0  0  0  0  0  0
    2.2225   25.8430  -23.5393 H   0  0  0  0  0  0  0  0  0  0  0  0
   -0.2685   25.2191  -29.0478 H   0  0  0  0  0  0  0  0  0  0  0  0
   -2.2912   24.0763  -29.9486 H   0  0  0  0  0  0  0  0  0  0  0  0
   -4.0688   21.2096  -30.9837 H   0  0  0  0  0  0  0  0  0  0  0  0
   -5.4744   19.3906  -31.9420 H   0  0  0  0  0  0  0  0  0  0  0  0
   -6.9649   19.5573  -34.9356 H   0  0  0  0  0  0  0  0  0  0  0  0
   -5.8194   19.5754  -33.5445 H   0  0  0  0  0  0  0  0  0  0  0  0
   -6.0117   17.5673  -35.8301 H   0  0  0  0  0  0  0  0  0  0  0  0
   -4.6018   18.6266  -35.2908 H   0  0  0  0  0  0  0  0  0  0  0  0
   -4.7848   16.1326  -32.3349 H   0  0  0  0  0  0  0  0  0  0  0  0
   -4.7078   17.9382  -32.4595 H   0  0  0  0  0  0  0  0  0  0  0  0
   -7.1506   16.1388  -32.8051 H   0  0  0  0  0  0  0  0  0  0  0  0
   -6.8333   17.4034  -31.5321 H   0  0  0  0  0  0  0  0  0  0  0  0
   -9.0087   21.8362  -31.4275 H   0  0  0  0  0  0  0  0  0  0  0  0
   -7.6071   23.6637  -30.4712 H   0  0  0  0  0  0  0  0  0  0  0  0
  1  2  2  0
  2  3  1  0
  3  4  1  0
  4  5  2  0
  5  6  1  0
  6  7  2  0
  7  8  1  0
  8  9  2  0
  8 10  2  0
  8 11  1  0
 11 12  1  0
 12 13  1  0
 13 14  1  0
 14 15  1  0
 15 16  1  0
  7 17  1  0
 17 18  2  0
  2 19  1  0
 19 20  2  0
 20 21  1  0
 21 22  2  0
 22 23  1  0
 23 24  2  0
 23 25  2  0
 23 26  1  0
 26 27  1  0
 27 28  1  0
 28 29  1  0
 29 30  1  0
 30 31  1  0
 22 32  1  0
 32 33  2  0
 18  4  1  0
 33 19  1  0
 16 11  1  0
 31 26  1  0
  3 34  1  0
  5 35  1  0
  6 36  1  0
 12 37  1  0
 12 38  1  0
 13 39  1  0
 13 40  1  0
 15 41  1  0
 15 42  1  0
 16 43  1  0
 16 44  1  0
 17 45  1  0
 18 46  1  0
 20 47  1  0
 21 48  1  0
 27 49  1  0
 27 50  1  0
 28 51  1  0
 28 52  1  0
 30 53  1  0
 30 54  1  0
 31 55  1  0
 31 56  1  0
 32 57  1  0
 33 58  1  0
M  END
>  <UniqueID>  (27) 
25

>  <SMILES>  (27) 
O=C(Nc1ccc(S(=O)(=O)N2CCOCC2)cc1)c1ccc(S(=O)(=O)N2CCOCC2)cc1

>  <Energy>  (27) 
82.4736499229226

>  <Genealogy>  (27) 
O=C(Nc1ccc(S(=O)(=O)N2CCOCC2)cc1)c1ccc(S(=O)(=O)N2CCOCC2)cc1 (3D coordinates assigned)
O=C(Nc1ccc(S(=O)(=O)N2CCOCC2)cc1)c1ccc(S(=O)(=O)N2CCOCC2)cc1 (nonaromatic ring conformer: 82.4736499229226 kcal/mol)

>  <smiles>  (27) 
O=C(Nc1ccc(S(=O)(=O)N2CCOCC2)cc1)c1ccc(S(=O)(=O)N2CCOCC2)cc1

>  <score_type>  (27) 
oracle

>  <origin>  (27) 
adgpu

>  <m_score__min__energy>  (27) 
-10.4

>  <m_primary>  (27) 
energy

$$$$
27:0
     RDKit          3D

 46 48  0  0  0  0  0  0  0  0999 V2000
    0.5060   24.0580  -25.8890 C   0  0  0  0  0  0  0  0  0  0  0  0
   -0.0350   24.0380  -27.2880 C   0  0  0  0  0  0  0  0  0  0  0  0
    0.6650   24.5400  -28.2090 O   0  0  0  0  0  0  0  0  0  0  0  0
   -1.3640   23.4500  -27.6080 C   0  0  0  0  0  0  0  0  0  0  0  0
   -1.5350   22.0530  -27.6000 C   0  0  0  0  0  0  0  0  0  0  0  0
   -2.7850   21.4890  -27.8580 C   0  0  0  0  0  0  0  0  0  0  0  0
   -3.8810   22.3070  -28.1350 C   0  0  0  0  0  0  0  0  0  0  0  0
   -3.7300   23.6980  -28.1810 C   0  0  0  0  0  0  0  0  0  0  0  0
   -4.8700   24.5220  -28.4610 N   0  0  0  0  0  0  0  0  0  0  0  0
   -5.3500   24.9000  -30.0820 S   0  0  0  0  0  0  0  0  0  0  0  0
   -6.4770   25.8950  -30.0420 O   0  0  0  0  0  0  0  0  0  0  0  0
   -4.2090   25.5170  -30.8420 O   0  0  0  0  0  0  0  0  0  0  0  0
   -5.9070   23.4320  -30.8770 C   0  0  0  0  0  0  0  0  0  0  0  0
   -7.2590   23.0780  -30.8130 C   0  0  0  0  0  0  0  0  0  0  0  0
   -7.7130   21.9190  -31.4410 C   0  0  0  0  0  0  0  0  0  0  0  0
   -6.8160   21.0910  -32.1310 C   0  0  0  0  0  0  0  0  0  0  0  0
   -5.4380   21.3970  -32.1440 C   0  0  0  0  0  0  0  0  0  0  0  0
   -5.0010   22.5940  -31.5410 C   0  0  0  0  0  0  0  0  0  0  0  0
   -4.5110   20.5110  -32.8270 N   0  0  0  0  0  0  0  0  0  0  0  0
   -3.1050   20.5110  -32.5190 C   0  0  0  0  0  0  0  0  0  0  0  0
   -2.0710   20.4750  -33.6000 C   0  0  0  0  0  0  0  0  0  0  0  0
   -2.7290   20.5940  -31.3190 O   0  0  0  0  0  0  0  0  0  0  0  0
   -4.9960   19.4160  -33.6830 C   0  0  0  0  0  0  0  0  0  0  0  0
   -6.4680   19.5870  -34.0710 C   0  0  0  0  0  0  0  0  0  0  0  0
   -7.3160   19.8600  -32.8320 C   0  0  0  0  0  0  0  0  0  0  0  0
   -2.4730   24.2660  -27.9130 C   0  0  0  0  0  0  0  0  0  0  0  0
   -0.3283   24.0272  -25.1728 H   0  0  0  0  0  0  0  0  0  0  0  0
    1.1547   23.1832  -25.7342 H   0  0  0  0  0  0  0  0  0  0  0  0
    1.0883   24.9783  -25.7342 H   0  0  0  0  0  0  0  0  0  0  0  0
   -0.6755   21.3999  -27.3885 H   0  0  0  0  0  0  0  0  0  0  0  0
   -2.9068   20.3959  -27.8430 H   0  0  0  0  0  0  0  0  0  0  0  0
   -4.8679   21.8569  -28.3180 H   0  0  0  0  0  0  0  0  0  0  0  0
   -5.5960   24.6380  -27.7180 H   0  0  0  0  0  0  0  0  0  0  0  0
   -7.9670   23.7169  -30.2648 H   0  0  0  0  0  0  0  0  0  0  0  0
   -8.7794   21.6530  -31.3950 H   0  0  0  0  0  0  0  0  0  0  0  0
   -3.9382   22.8730  -31.5922 H   0  0  0  0  0  0  0  0  0  0  0  0
   -1.0689   20.4401  -33.1478 H   0  0  0  0  0  0  0  0  0  0  0  0
   -2.2233   19.5816  -34.2234 H   0  0  0  0  0  0  0  0  0  0  0  0
   -2.1608   21.3768  -34.2234 H   0  0  0  0  0  0  0  0  0  0  0  0
   -4.3896   19.3895  -34.6003 H   0  0  0  0  0  0  0  0  0  0  0  0
   -4.9057   18.4794  -33.1132 H   0  0  0  0  0  0  0  0  0  0  0  0
   -6.5632   20.4320  -34.7688 H   0  0  0  0  0  0  0  0  0  0  0  0
   -6.8212   18.6611  -34.5485 H   0  0  0  0  0  0  0  0  0  0  0  0
   -8.3631   20.0116  -33.1329 H   0  0  0  0  0  0  0  0  0  0  0  0
   -7.2460   19.0007  -32.1488 H   0  0  0  0  0  0  0  0  0  0  0  0
   -2.3527   25.3590  -27.9414 H   0  0  0  0  0  0  0  0  0  0  0  0
  1  2  1  0
  2  3  2  0
  2  4  1  0
  4  5  2  0
  5  6  1  0
  6  7  2  0
  7  8  1  0
  8  9  1  0
  9 10  1  0
 10 11  2  0
 10 12  2  0
 10 13  1  0
 13 14  2  0
 14 15  1  0
 15 16  2  0
 16 17  1  0
 17 18  2  0
 17 19  1  0
 19 20  1  0
 20 21  1  0
 20 22  2  0
 19 23  1  0
 23 24  1  0
 24 25  1  0
  8 26  2  0
 26  4  1  0
 18 13  1  0
 25 16  1  0
  1 27  1  0
  1 28  1  0
  1 29  1  0
  5 30  1  0
  6 31  1  0
  7 32  1  0
  9 33  1  0
 14 34  1  0
 15 35  1  0
 18 36  1  0
 21 37  1  0
 21 38  1  0
 21 39  1  0
 23 40  1  0
 23 41  1  0
 24 42  1  0
 24 43  1  0
 25 44  1  0
 25 45  1  0
 26 46  1  0
M  END
>  <UniqueID>  (28) 
26

>  <SMILES>  (28) 
CC(=O)c1cccc(NS(=O)(=O)c2ccc3c(c2)N(C(C)=O)CCC3)c1

>  <Energy>  (28) 
55.66514104901656

>  <Genealogy>  (28) 
CC(=O)c1cccc(NS(=O)(=O)c2ccc3c(c2)N(C(C)=O)CCC3)c1 (3D coordinates assigned)
CC(=O)c1cccc(NS(=O)(=O)c2ccc3c(c2)N(C(C)=O)CCC3)c1 (nonaromatic ring conformer: 55.66514104901656 kcal/mol)

>  <smiles>  (28) 
CC(=O)c1cccc(NS(=O)(=O)c2ccc3c(c2)N(C(C)=O)CCC3)c1

>  <score_type>  (28) 
oracle

>  <origin>  (28) 
adgpu

>  <m_score__min__energy>  (28) 
-10.24

>  <m_primary>  (28) 
energy

$$$$
28:0
     RDKit          3D

 59 63  0  0  0  0  0  0  0  0999 V2000
   -0.7190   18.1810  -34.4450 O   0  0  0  0  0  0  0  0  0  0  0  0
   -1.5970   18.3250  -33.5510 C   0  0  0  0  0  0  0  0  0  0  0  0
   -1.2680   19.1010  -32.3300 C   0  0  0  0  0  0  0  0  0  0  0  0
   -0.2740   18.6360  -31.4560 C   0  0  0  0  0  0  0  0  0  0  0  0
    0.0860   19.3640  -30.3680 N   0  0  0  0  0  0  0  0  0  0  0  0
   -0.4930   20.5560  -30.0770 C   0  0  0  0  0  0  0  0  0  0  0  0
   -0.0680   21.2840  -28.9610 C   0  0  0  0  0  0  0  0  0  0  0  0
   -0.6340   22.5290  -28.6770 C   0  0  0  0  0  0  0  0  0  0  0  0
   -1.6480   23.0490  -29.4920 C   0  0  0  0  0  0  0  0  0  0  0  0
   -2.3070   24.6550  -29.1790 S   0  0  0  0  0  0  0  0  0  0  0  0
   -2.8280   24.7470  -27.7730 O   0  0  0  0  0  0  0  0  0  0  0  0
   -1.2220   25.6810  -29.3440 O   0  0  0  0  0  0  0  0  0  0  0  0
   -3.5660   24.9930  -30.3270 N   0  0  0  0  0  0  0  0  0  0  0  0
   -4.7460   24.1940  -30.4860 C   0  0  0  0  0  0  0  0  0  0  0  0
   -4.8180   23.1800  -31.4540 C   0  0  0  0  0  0  0  0  0  0  0  0
   -5.9980   22.4450  -31.6360 C   0  0  0  0  0  0  0  0  0  0  0  0
   -7.1330   22.7410  -30.8430 C   0  0  0  0  0  0  0  0  0  0  0  0
   -7.0350   23.7140  -29.8400 C   0  0  0  0  0  0  0  0  0  0  0  0
   -5.8500   24.4370  -29.6590 C   0  0  0  0  0  0  0  0  0  0  0  0
   -5.7690   25.4130  -28.6650 O   0  0  0  0  0  0  0  0  0  0  0  0
   -8.4160   21.9540  -30.9790 C   0  0  0  0  0  0  0  0  0  0  0  0
   -8.5200   21.2330  -32.3250 C   0  0  0  0  0  0  0  0  0  0  0  0
   -7.2320   20.4600  -32.6110 C   0  0  0  0  0  0  0  0  0  0  0  0
   -6.0480   21.4210  -32.7490 C   0  0  0  0  0  0  0  0  0  0  0  0
   -2.0960   22.3100  -30.5960 C   0  0  0  0  0  0  0  0  0  0  0  0
   -1.5100   21.0710  -30.9130 C   0  0  0  0  0  0  0  0  0  0  0  0
   -1.8930   20.3350  -32.0510 C   0  0  0  0  0  0  0  0  0  0  0  0
   -2.7960   20.7750  -32.8170 O   0  0  0  0  0  0  0  0  0  0  0  0
   -2.8850   17.7040  -33.7200 N   0  0  0  0  0  0  0  0  0  0  0  0
   -4.1090   18.3920  -33.2820 C   0  0  0  0  0  0  0  0  0  0  0  0
   -5.2320   18.1530  -34.2940 C   0  0  0  0  0  0  0  0  0  0  0  0
   -5.5160   16.6510  -34.5090 C   0  0  0  0  0  0  0  0  0  0  0  0
   -4.3200   15.7380  -34.1780 C   0  0  0  0  0  0  0  0  0  0  0  0
   -2.9740   16.4230  -34.4360 C   0  0  0  0  0  0  0  0  0  0  0  0
    0.2184   17.6725  -31.6541 H   0  0  0  0  0  0  0  0  0  0  0  0
    0.7144   20.8749  -28.3049 H   0  0  0  0  0  0  0  0  0  0  0  0
   -0.2815   23.1045  -27.8084 H   0  0  0  0  0  0  0  0  0  0  0  0
   -3.9386   22.9595  -32.0769 H   0  0  0  0  0  0  0  0  0  0  0  0
   -7.8983   23.9120  -29.1877 H   0  0  0  0  0  0  0  0  0  0  0  0
   -4.8850   25.6640  -28.2360 H   0  0  0  0  0  0  0  0  0  0  0  0
   -8.4583   21.2059  -30.1736 H   0  0  0  0  0  0  0  0  0  0  0  0
   -9.2531   22.6647  -30.9144 H   0  0  0  0  0  0  0  0  0  0  0  0
   -9.3664   20.5310  -32.2967 H   0  0  0  0  0  0  0  0  0  0  0  0
   -8.6758   21.9774  -33.1198 H   0  0  0  0  0  0  0  0  0  0  0  0
   -7.0372   19.7625  -31.7830 H   0  0  0  0  0  0  0  0  0  0  0  0
   -7.3519   19.9062  -33.5538 H   0  0  0  0  0  0  0  0  0  0  0  0
   -5.1161   20.8368  -32.7326 H   0  0  0  0  0  0  0  0  0  0  0  0
   -6.1687   21.9649  -33.6975 H   0  0  0  0  0  0  0  0  0  0  0  0
   -2.9127   22.7024  -31.2197 H   0  0  0  0  0  0  0  0  0  0  0  0
   -4.4145   18.0027  -32.2996 H   0  0  0  0  0  0  0  0  0  0  0  0
   -3.9111   19.4716  -33.2092 H   0  0  0  0  0  0  0  0  0  0  0  0
   -6.1486   18.6374  -33.9264 H   0  0  0  0  0  0  0  0  0  0  0  0
   -4.9129   18.5768  -35.2576 H   0  0  0  0  0  0  0  0  0  0  0  0
   -6.3608   16.3624  -33.8663 H   0  0  0  0  0  0  0  0  0  0  0  0
   -5.7352   16.5165  -35.5785 H   0  0  0  0  0  0  0  0  0  0  0  0
   -4.3747   15.4549  -33.1165 H   0  0  0  0  0  0  0  0  0  0  0  0
   -4.3791   14.8566  -34.8335 H   0  0  0  0  0  0  0  0  0  0  0  0
   -2.1636   15.7629  -34.0931 H   0  0  0  0  0  0  0  0  0  0  0  0
   -2.8834   16.6191  -35.5146 H   0  0  0  0  0  0  0  0  0  0  0  0
  1  2  2  0
  2  3  1  0
  3  4  2  0
  4  5  1  0
  5  6  1  0
  6  7  2  0
  7  8  1  0
  8  9  2  0
  9 10  1  0
 10 11  2  0
 10 12  2  0
 10 13  1  0
 13 14  1  0
 14 15  2  0
 15 16  1  0
 16 17  2  0
 17 18  1  0
 18 19  2  0
 19 20  1  0
 17 21  1  0
 21 22  1  0
 22 23  1  0
 23 24  1  0
  9 25  1  0
 25 26  2  0
 26 27  1  0
 27 28  2  0
  2 29  1  0
 29 30  1  0
 30 31  1  0
 31 32  1  0
 32 33  1  0
 33 34  1  0
 27  3  1  0
 34 29  1  0
 26  6  1  0
 19 14  1  0
 24 16  1  0
  4 35  1  0
  7 36  1  0
  8 37  1  0
 15 38  1  0
 18 39  1  0
 20 40  1  0
 21 41  1  0
 21 42  1  0
 22 43  1  0
 22 44  1  0
 23 45  1  0
 23 46  1  0
 24 47  1  0
 24 48  1  0
 25 49  1  0
 30 50  1  0
 30 51  1  0
 31 52  1  0
 31 53  1  0
 32 54  1  0
 32 55  1  0
 33 56  1  0
 33 57  1  0
 34 58  1  0
 34 59  1  0
M  CHG  2   5  -1  13  -1
M  END
>  <UniqueID>  (29) 
27

>  <SMILES>  (29) 
O=C(c1c[n-]c2ccc(S(=O)(=O)[N-]c3cc4c(cc3O)CCCC4)cc2c1=O)N1CCCCC1

>  <Energy>  (29) 
79.12683679255869

>  <Genealogy>  (29) 
O=C(c1c[n-]c2ccc(S(=O)(=O)[N-]c3cc4c(cc3O)CCCC4)cc2c1=O)N1CCCCC1 (protonated)
O=C(c1c[n-]c2ccc(S(=O)(=O)[N-]c3cc4c(cc3O)CCCC4)cc2c1=O)N1CCCCC1 (3D coordinates assigned)
O=C(c1c[n-]c2ccc(S(=O)(=O)[N-]c3cc4c(cc3O)CCCC4)cc2c1=O)N1CCCCC1 (nonaromatic ring conformer: 79.12683679255869 kcal/mol)

>  <smiles>  (29) 
O=C(c1c[nH]c2ccc(S(=O)(=O)Nc3cc4c(cc3O)CCCC4)cc2c1=O)N1CCCCC1

>  <score_type>  (29) 
oracle

>  <origin>  (29) 
adgpu

>  <m_score__min__energy>  (29) 
-13.369999999999999

>  <m_primary>  (29) 
energy

$$$$
29:0
     RDKit          3D

 45 47  0  0  0  0  0  0  0  0999 V2000
   -0.6400   21.5480  -34.1750 N   0  0  0  0  0  0  0  0  0  0  0  0
   -1.5020   21.0310  -33.1620 C   0  0  0  0  0  0  0  0  0  0  0  0
   -1.7120   21.7160  -32.1250 O   0  0  0  0  0  0  0  0  0  0  0  0
   -2.1470   19.7060  -33.3260 C   0  0  0  0  0  0  0  0  0  0  0  0
   -1.4980   18.6810  -34.0380 C   0  0  0  0  0  0  0  0  0  0  0  0
   -2.1020   17.4300  -34.1890 C   0  0  0  0  0  0  0  0  0  0  0  0
   -3.3610   17.1890  -33.6350 C   0  0  0  0  0  0  0  0  0  0  0  0
   -4.0250   18.1980  -32.9290 C   0  0  0  0  0  0  0  0  0  0  0  0
   -5.6040   17.8700  -32.2210 S   0  0  0  0  0  0  0  0  0  0  0  0
   -5.7410   16.3980  -31.9420 O   0  0  0  0  0  0  0  0  0  0  0  0
   -5.7070   18.6150  -30.9190 O   0  0  0  0  0  0  0  0  0  0  0  0
   -6.8490   18.4090  -33.3280 N   0  0  0  0  0  0  0  0  0  0  0  0
   -8.1670   18.5460  -32.6650 C   0  0  0  0  0  0  0  0  0  0  0  0
   -8.5210   19.9990  -32.3070 C   0  0  0  0  0  0  0  0  0  0  0  0
   -7.2970   20.7410  -31.9880 N   0  0  0  0  0  0  0  0  0  0  0  0
   -7.6830   22.3050  -31.3140 S   0  0  0  0  0  0  0  0  0  0  0  0
   -8.5710   22.1260  -30.1140 O   0  0  0  0  0  0  0  0  0  0  0  0
   -8.4380   23.1120  -32.3340 O   0  0  0  0  0  0  0  0  0  0  0  0
   -6.2290   23.1870  -30.8410 C   0  0  0  0  0  0  0  0  0  0  0  0
   -5.0660   22.4930  -30.4770 C   0  0  0  0  0  0  0  0  0  0  0  0
   -3.9140   23.1950  -30.1110 C   0  0  0  0  0  0  0  0  0  0  0  0
   -3.9160   24.5940  -30.1040 C   0  0  0  0  0  0  0  0  0  0  0  0
   -2.7670   25.2860  -29.7400 O   0  0  0  0  0  0  0  0  0  0  0  0
   -5.0760   25.2920  -30.4650 C   0  0  0  0  0  0  0  0  0  0  0  0
   -5.0840   26.6810  -30.4610 O   0  0  0  0  0  0  0  0  0  0  0  0
   -6.2290   24.5890  -30.8300 C   0  0  0  0  0  0  0  0  0  0  0  0
   -6.4370   20.8870  -33.1770 C   0  0  0  0  0  0  0  0  0  0  0  0
   -6.4450   19.6220  -34.0640 C   0  0  0  0  0  0  0  0  0  0  0  0
   -3.4160   19.4530  -32.7730 C   0  0  0  0  0  0  0  0  0  0  0  0
   -1.0280   22.0450  -35.0070 H   0  0  0  0  0  0  0  0  0  0  0  0
   -0.5075   18.8657  -34.4793 H   0  0  0  0  0  0  0  0  0  0  0  0
   -1.5851   16.6340  -34.7450 H   0  0  0  0  0  0  0  0  0  0  0  0
   -3.8324   16.2023  -33.7541 H   0  0  0  0  0  0  0  0  0  0  0  0
   -8.9406   18.1551  -33.3423 H   0  0  0  0  0  0  0  0  0  0  0  0
   -8.1171   17.9816  -31.7222 H   0  0  0  0  0  0  0  0  0  0  0  0
   -9.0244   20.4741  -33.1619 H   0  0  0  0  0  0  0  0  0  0  0  0
   -9.1900   20.0067  -31.4339 H   0  0  0  0  0  0  0  0  0  0  0  0
   -5.0603   21.3930  -30.4795 H   0  0  0  0  0  0  0  0  0  0  0  0
   -3.0037   22.6462  -29.8278 H   0  0  0  0  0  0  0  0  0  0  0  0
   -7.1398   25.1387  -31.1097 H   0  0  0  0  0  0  0  0  0  0  0  0
   -6.7976   21.7389  -33.7722 H   0  0  0  0  0  0  0  0  0  0  0  0
   -5.4059   21.0483  -32.8294 H   0  0  0  0  0  0  0  0  0  0  0  0
   -7.1489   19.7797  -34.8944 H   0  0  0  0  0  0  0  0  0  0  0  0
   -5.4176   19.4638  -34.4237 H   0  0  0  0  0  0  0  0  0  0  0  0
   -3.9351   20.2454  -32.2138 H   0  0  0  0  0  0  0  0  0  0  0  0
  1  2  1  0
  2  3  2  0
  2  4  1  0
  4  5  2  0
  5  6  1  0
  6  7  2  0
  7  8  1  0
  8  9  1  0
  9 10  2  0
  9 11  2  0
  9 12  1  0
 12 13  1  0
 13 14  1  0
 14 15  1  0
 15 16  1  0
 16 17  2  0
 16 18  2  0
 16 19  1  0
 19 20  2  0
 20 21  1  0
 21 22  2  0
 22 23  1  0
 22 24  1  0
 24 25  1  0
 24 26  2  0
 15 27  1  0
 27 28  1  0
  8 29  2  0
 29  4  1  0
 28 12  1  0
 26 19  1  0
  1 30  1  0
  5 31  1  0
  6 32  1  0
  7 33  1  0
 13 34  1  0
 13 35  1  0
 14 36  1  0
 14 37  1  0
 20 38  1  0
 21 39  1  0
 26 40  1  0
 27 41  1  0
 27 42  1  0
 28 43  1  0
 28 44  1  0
 29 45  1  0
M  CHG  3   1  -1  23  -1  25  -1
M  END
>  <UniqueID>  (30) 
28

>  <SMILES>  (30) 
[NH-]C(=O)c1cccc(S(=O)(=O)N2CCN(S(=O)(=O)c3ccc([O-])c([O-])c3)CC2)c1

>  <Energy>  (30) 
55.41412058273671

>  <Genealogy>  (30) 
[NH-]C(=O)c1cccc(S(=O)(=O)N2CCN(S(=O)(=O)c3ccc([O-])c([O-])c3)CC2)c1 (protonated)
[NH-]C(=O)c1cccc(S(=O)(=O)N2CCN(S(=O)(=O)c3ccc([O-])c([O-])c3)CC2)c1 (3D coordinates assigned)
[NH-]C(=O)c1cccc(S(=O)(=O)N2CCN(S(=O)(=O)c3ccc([O-])c([O-])c3)CC2)c1 (nonaromatic ring conformer: 55.41412058273671 kcal/mol)

>  <smiles>  (30) 
NC(=O)c1cccc(S(=O)(=O)N2CCN(S(=O)(=O)c3ccc(O)c(O)c3)CC2)c1

>  <score_type>  (30) 
oracle

>  <origin>  (30) 
adgpu

>  <m_score__min__energy>  (30) 
-13.75

>  <m_primary>  (30) 
energy

$$$$
30:0
     RDKit          3D

 55 59  0  0  0  0  0  0  0  0999 V2000
    1.9880   22.0270  -27.4670 C   0  0  0  0  0  0  0  0  0  0  0  0
    0.6250   22.5420  -27.5730 N   0  0  0  0  0  0  0  0  0  0  0  0
   -0.5000   21.6520  -27.5260 C   0  0  0  0  0  0  0  0  0  0  0  0
   -0.9160   21.1450  -26.2860 C   0  0  0  0  0  0  0  0  0  0  0  0
   -1.9970   20.2650  -26.2090 C   0  0  0  0  0  0  0  0  0  0  0  0
   -2.6700   19.8800  -27.3690 C   0  0  0  0  0  0  0  0  0  0  0  0
   -2.2690   20.3790  -28.6110 C   0  0  0  0  0  0  0  0  0  0  0  0
   -1.1930   21.2790  -28.7030 C   0  0  0  0  0  0  0  0  0  0  0  0
   -0.7820   21.7900  -30.0570 C   0  0  0  0  0  0  0  0  0  0  0  0
   -1.2320   20.8580  -31.0880 N   0  0  0  0  0  0  0  0  0  0  0  0
   -2.4490   20.8120  -31.5380 C   0  0  0  0  0  0  0  0  0  0  0  0
   -3.3950   21.6780  -31.0730 N   0  0  0  0  0  0  0  0  0  0  0  0
   -4.6500   21.5900  -31.5680 C   0  0  0  0  0  0  0  0  0  0  0  0
   -5.7510   22.3750  -31.2840 C   0  0  0  0  0  0  0  0  0  0  0  0
   -5.8820   23.4120  -30.4440 C   0  0  0  0  0  0  0  0  0  0  0  0
   -4.8290   23.8690  -29.5210 C   0  0  0  0  0  0  0  0  0  0  0  0
   -4.5370   23.2670  -28.3570 N   0  0  0  0  0  0  0  0  0  0  0  0
   -3.4640   23.9340  -27.8880 C   0  0  0  0  0  0  0  0  0  0  0  0
   -2.9060   23.6530  -26.7950 O   0  0  0  0  0  0  0  0  0  0  0  0
   -3.0300   24.9220  -28.7000 N   0  0  0  0  0  0  0  0  0  0  0  0
   -3.8920   24.8600  -29.7330 C   0  0  0  0  0  0  0  0  0  0  0  0
   -3.7970   25.6650  -30.8610 O   0  0  0  0  0  0  0  0  0  0  0  0
   -6.7310   21.8820  -32.1400 C   0  0  0  0  0  0  0  0  0  0  0  0
   -6.2310   20.8600  -32.8760 N   0  0  0  0  0  0  0  0  0  0  0  0
   -4.9680   20.7000  -32.5140 N   0  0  0  0  0  0  0  0  0  0  0  0
   -4.0390   19.8250  -33.0000 C   0  0  0  0  0  0  0  0  0  0  0  0
   -4.3060   18.9360  -33.9140 N   0  0  0  0  0  0  0  0  0  0  0  0
   -5.5930   18.7200  -34.5670 C   0  0  0  0  0  0  0  0  0  0  0  0
   -6.6260   18.0420  -33.6840 C   0  0  0  0  0  0  0  0  0  0  0  0
   -5.9030   17.2470  -34.7610 C   0  0  0  0  0  0  0  0  0  0  0  0
   -2.7760   19.8930  -32.4950 N   0  0  0  0  0  0  0  0  0  0  0  0
    0.3700   24.2370  -27.8460 S   0  0  0  0  0  0  0  0  0  0  0  0
   -0.4930   24.9440  -26.4630 C   0  0  0  0  0  0  0  0  0  0  0  0
    1.6920   24.9320  -28.0180 O   0  0  0  0  0  0  0  0  0  0  0  0
   -0.4430   24.4300  -29.0960 O   0  0  0  0  0  0  0  0  0  0  0  0
    2.2597   21.9243  -26.4060 H   0  0  0  0  0  0  0  0  0  0  0  0
    2.0478   21.0443  -27.9576 H   0  0  0  0  0  0  0  0  0  0  0  0
    2.6827   22.7246  -27.9576 H   0  0  0  0  0  0  0  0  0  0  0  0
   -0.3871   21.4427  -25.3686 H   0  0  0  0  0  0  0  0  0  0  0  0
   -2.3187   19.8745  -25.2323 H   0  0  0  0  0  0  0  0  0  0  0  0
   -3.5180   19.1822  -27.3056 H   0  0  0  0  0  0  0  0  0  0  0  0
   -2.7987   20.0656  -29.5227 H   0  0  0  0  0  0  0  0  0  0  0  0
   -1.2377   22.7760  -30.2303 H   0  0  0  0  0  0  0  0  0  0  0  0
    0.3136   21.8794  -30.0974 H   0  0  0  0  0  0  0  0  0  0  0  0
   -6.8377   23.9566  -30.4442 H   0  0  0  0  0  0  0  0  0  0  0  0
   -5.0290   22.4590  -27.9150 H   0  0  0  0  0  0  0  0  0  0  0  0
   -7.7597   22.2653  -32.2090 H   0  0  0  0  0  0  0  0  0  0  0  0
   -5.5912   19.6169  -35.2039 H   0  0  0  0  0  0  0  0  0  0  0  0
   -6.4059   17.8569  -32.6223 H   0  0  0  0  0  0  0  0  0  0  0  0
   -7.6798   18.2320  -33.4320 H   0  0  0  0  0  0  0  0  0  0  0  0
   -5.1602   16.4866  -34.4781 H   0  0  0  0  0  0  0  0  0  0  0  0
   -6.2174   16.6235  -35.6109 H   0  0  0  0  0  0  0  0  0  0  0  0
   -0.0467   24.5783  -25.5265 H   0  0  0  0  0  0  0  0  0  0  0  0
   -0.4141   26.0404  -26.5032 H   0  0  0  0  0  0  0  0  0  0  0  0
   -1.5525   24.6509  -26.5032 H   0  0  0  0  0  0  0  0  0  0  0  0
  1  2  1  0
  2  3  1  0
  3  4  2  0
  4  5  1  0
  5  6  2  0
  6  7  1  0
  7  8  2  0
  8  9  1  0
  9 10  1  0
 10 11  2  3
 11 12  1  0
 12 13  2  0
 13 14  1  0
 14 15  2  3
 15 16  1  0
 16 17  1  0
 17 18  1  0
 18 19  2  0
 18 20  1  0
 20 21  1  0
 21 22  1  0
 14 23  1  0
 23 24  2  0
 24 25  1  0
 25 26  1  0
 26 27  2  3
 27 28  1  0
 28 29  1  0
 29 30  1  0
 26 31  1  0
  2 32  1  0
 32 33  1  0
 32 34  2  0
 32 35  2  0
  8  3  1  0
 31 11  1  0
 25 13  1  0
 30 28  1  0
 21 16  2  0
  1 36  1  0
  1 37  1  0
  1 38  1  0
  4 39  1  0
  5 40  1  0
  6 41  1  0
  7 42  1  0
  9 43  1  0
  9 44  1  0
 15 45  1  0
 17 46  1  0
 23 47  1  0
 28 48  1  0
 29 49  1  0
 29 50  1  0
 30 51  1  0
 30 52  1  0
 33 53  1  0
 33 54  1  0
 33 55  1  0
M  CHG  3  20  -1  22  -1  31  -1
M  END
>  <UniqueID>  (31) 
29

>  <SMILES>  (31) 
CN(c1ccccc1CN=c1nc2c(=Cc3[nH]c(=O)[n-]c3[O-])cnn2c(=NC2CC2)[n-]1)S(C)(=O)=O

>  <Energy>  (31) 
401.5310977663148

>  <Genealogy>  (31) 
CN(c1ccccc1CN=c1nc2c(=Cc3[nH]c(=O)[n-]c3[O-])cnn2c(=NC2CC2)[n-]1)S(C)(=O)=O (protonated)
CN(c1ccccc1CN=c1nc2c(=Cc3[nH]c(=O)[n-]c3[O-])cnn2c(=NC2CC2)[n-]1)S(C)(=O)=O (3D coordinates assigned)
CN(c1ccccc1CN=c1nc2c(=Cc3[nH]c(=O)[n-]c3[O-])cnn2c(=NC2CC2)[n-]1)S(C)(=O)=O (nonaromatic ring conformer: 401.5310977663148 kcal/mol)

>  <smiles>  (31) 
CN(c1ccccc1CN=c1nc2c(=Cc3[nH]c(=O)[nH]c3O)cnn2c(=NC2CC2)[nH]1)S(C)(=O)=O

>  <score_type>  (31) 
oracle

>  <origin>  (31) 
adgpu

>  <m_score__min__energy>  (31) 
-12.66

>  <m_primary>  (31) 
energy

$$$$
31:0
     RDKit          3D

 45 48  0  0  0  0  0  0  0  0999 V2000
   -4.7720   23.2680  -31.5620 O   0  0  0  0  0  0  0  0  0  0  0  0
   -5.3770   22.1970  -31.8340 C   0  0  0  0  0  0  0  0  0  0  0  0
   -6.8240   22.0790  -31.9320 C   0  0  0  0  0  0  0  0  0  0  0  0
   -7.8350   23.0170  -31.7270 C   0  0  0  0  0  0  0  0  0  0  0  0
   -9.1660   22.6020  -31.9180 C   0  0  0  0  0  0  0  0  0  0  0  0
   -9.4510   21.2760  -32.3100 C   0  0  0  0  0  0  0  0  0  0  0  0
   -8.4060   20.3560  -32.5140 C   0  0  0  0  0  0  0  0  0  0  0  0
   -7.0990   20.7970  -32.3100 C   0  0  0  0  0  0  0  0  0  0  0  0
   -5.8250   20.1090  -32.4530 C   0  0  0  0  0  0  0  0  0  0  0  0
   -5.7050   18.9280  -32.8770 O   0  0  0  0  0  0  0  0  0  0  0  0
   -4.7010   20.9550  -32.1250 N   0  0  0  0  0  0  0  0  0  0  0  0
   -3.9820   20.4730  -30.9270 C   0  0  0  0  0  0  0  0  0  0  0  0
   -3.2300   21.5900  -30.2440 C   0  0  0  0  0  0  0  0  0  0  0  0
   -1.9770   22.0050  -30.7230 C   0  0  0  0  0  0  0  0  0  0  0  0
   -1.2930   23.0510  -30.0960 C   0  0  0  0  0  0  0  0  0  0  0  0
   -1.8580   23.6990  -28.9900 C   0  0  0  0  0  0  0  0  0  0  0  0
   -0.9800   25.0000  -28.1910 S   0  0  0  0  0  0  0  0  0  0  0  0
   -1.2160   26.2950  -28.9200 O   0  0  0  0  0  0  0  0  0  0  0  0
    0.4920   24.6950  -28.2230 O   0  0  0  0  0  0  0  0  0  0  0  0
   -1.5120   25.1230  -26.5340 N   0  0  0  0  0  0  0  0  0  0  0  0
   -1.4990   26.5100  -26.0720 C   0  0  0  0  0  0  0  0  0  0  0  0
   -1.3010   26.4640  -24.5660 C   0  0  0  0  0  0  0  0  0  0  0  0
   -0.7170   25.0900  -24.2780 C   0  0  0  0  0  0  0  0  0  0  0  0
   -0.6130   24.4040  -25.6310 C   0  0  0  0  0  0  0  0  0  0  0  0
   -3.1060   23.2850  -28.5060 C   0  0  0  0  0  0  0  0  0  0  0  0
   -3.7900   22.2390  -29.1310 C   0  0  0  0  0  0  0  0  0  0  0  0
   -7.5997   24.0484  -31.4256 H   0  0  0  0  0  0  0  0  0  0  0  0
   -9.9890   23.3148  -31.7610 H   0  0  0  0  0  0  0  0  0  0  0  0
  -10.4946   20.9606  -32.4566 H   0  0  0  0  0  0  0  0  0  0  0  0
   -8.6136   19.3214  -32.8246 H   0  0  0  0  0  0  0  0  0  0  0  0
   -4.0720   21.0770  -32.9530 H   0  0  0  0  0  0  0  0  0  0  0  0
   -4.7102   20.0484  -30.2203 H   0  0  0  0  0  0  0  0  0  0  0  0
   -3.2541   19.7121  -31.2452 H   0  0  0  0  0  0  0  0  0  0  0  0
   -1.5314   21.5049  -31.5956 H   0  0  0  0  0  0  0  0  0  0  0  0
   -0.3085   23.3659  -30.4723 H   0  0  0  0  0  0  0  0  0  0  0  0
   -0.6734   27.0605  -26.5467 H   0  0  0  0  0  0  0  0  0  0  0  0
   -2.4357   27.0241  -26.3335 H   0  0  0  0  0  0  0  0  0  0  0  0
   -0.6051   27.2531  -24.2449 H   0  0  0  0  0  0  0  0  0  0  0  0
   -2.2437   26.6299  -24.0239 H   0  0  0  0  0  0  0  0  0  0  0  0
    0.2771   25.1834  -23.8164 H   0  0  0  0  0  0  0  0  0  0  0  0
   -1.3424   24.5184  -23.5765 H   0  0  0  0  0  0  0  0  0  0  0  0
    0.4205   24.4552  -26.0041 H   0  0  0  0  0  0  0  0  0  0  0  0
   -0.8887   23.3415  -25.5595 H   0  0  0  0  0  0  0  0  0  0  0  0
   -3.5485   23.7847  -27.6317 H   0  0  0  0  0  0  0  0  0  0  0  0
   -4.7719   21.9222  -28.7496 H   0  0  0  0  0  0  0  0  0  0  0  0
  1  2  2  0
  2  3  1  0
  3  4  2  0
  4  5  1  0
  5  6  2  0
  6  7  1  0
  7  8  2  0
  8  9  1  0
  9 10  2  0
  9 11  1  0
 11 12  1  0
 12 13  1  0
 13 14  2  0
 14 15  1  0
 15 16  2  0
 16 17  1  0
 17 18  2  0
 17 19  2  0
 17 20  1  0
 20 21  1  0
 21 22  1  0
 22 23  1  0
 23 24  1  0
 16 25  1  0
 25 26  2  0
 11  2  1  0
 26 13  1  0
  8  3  1  0
 24 20  1  0
  4 27  1  0
  5 28  1  0
  6 29  1  0
  7 30  1  0
 11 31  1  0
 12 32  1  0
 12 33  1  0
 14 34  1  0
 15 35  1  0
 21 36  1  0
 21 37  1  0
 22 38  1  0
 22 39  1  0
 23 40  1  0
 23 41  1  0
 24 42  1  0
 24 43  1  0
 25 44  1  0
 26 45  1  0
M  CHG  1  11   1
M  END
>  <UniqueID>  (32) 
30

>  <SMILES>  (32) 
O=C1c2ccccc2C(=O)[NH+]1Cc1ccc(S(=O)(=O)N2CCCC2)cc1

>  <Energy>  (32) 
74.26531143102973

>  <Genealogy>  (32) 
O=C1c2ccccc2C(=O)[NH+]1Cc1ccc(S(=O)(=O)N2CCCC2)cc1 (protonated)
O=C1c2ccccc2C(=O)[NH+]1Cc1ccc(S(=O)(=O)N2CCCC2)cc1 (3D coordinates assigned)
O=C1c2ccccc2C(=O)[NH+]1Cc1ccc(S(=O)(=O)N2CCCC2)cc1 (nonaromatic ring conformer: 74.26531143102973 kcal/mol)

>  <smiles>  (32) 
O=C1c2ccccc2C(=O)N1Cc1ccc(S(=O)(=O)N2CCCC2)cc1

>  <score_type>  (32) 
oracle

>  <origin>  (32) 
adgpu

>  <m_score__min__energy>  (32) 
-9.0399999999999991

>  <m_primary>  (32) 
energy

$$$$
32:0
     RDKit          3D

 50 53  0  0  0  0  0  0  0  0999 V2000
    0.1500   18.0990  -31.9700 C   0  0  0  0  0  0  0  0  0  0  0  0
   -0.1600   19.1530  -31.0090 N   0  0  0  0  0  0  0  0  0  0  0  0
    0.5880   19.5660  -29.9540 C   0  0  0  0  0  0  0  0  0  0  0  0
    1.6820   19.0330  -29.6270 O   0  0  0  0  0  0  0  0  0  0  0  0
    0.0490   20.6280  -29.3050 N   0  0  0  0  0  0  0  0  0  0  0  0
    0.6140   21.3800  -28.1860 C   0  0  0  0  0  0  0  0  0  0  0  0
   -1.0670   20.9120  -30.0090 C   0  0  0  0  0  0  0  0  0  0  0  0
   -1.9740   21.9520  -29.8230 C   0  0  0  0  0  0  0  0  0  0  0  0
   -3.0560   22.0600  -30.7230 C   0  0  0  0  0  0  0  0  0  0  0  0
   -4.2670   23.3210  -30.4740 S   0  0  0  0  0  0  0  0  0  0  0  0
   -4.7930   23.7850  -31.8070 O   0  0  0  0  0  0  0  0  0  0  0  0
   -5.3860   22.7580  -29.6380 O   0  0  0  0  0  0  0  0  0  0  0  0
   -3.5400   24.6550  -29.6350 N   0  0  0  0  0  0  0  0  0  0  0  0
   -2.6170   24.5650  -28.5420 C   0  0  0  0  0  0  0  0  0  0  0  0
   -2.8190   23.5470  -27.5980 C   0  0  0  0  0  0  0  0  0  0  0  0
   -1.9730   23.4190  -26.4930 C   0  0  0  0  0  0  0  0  0  0  0  0
   -0.9040   24.3010  -26.3270 C   0  0  0  0  0  0  0  0  0  0  0  0
   -0.6710   25.3040  -27.2730 C   0  0  0  0  0  0  0  0  0  0  0  0
   -1.5130   25.4350  -28.3870 C   0  0  0  0  0  0  0  0  0  0  0  0
   -1.2170   26.4060  -29.3380 O   0  0  0  0  0  0  0  0  0  0  0  0
   -3.1870   21.1310  -31.7950 C   0  0  0  0  0  0  0  0  0  0  0  0
   -4.2750   21.2550  -32.7170 N   0  0  0  0  0  0  0  0  0  0  0  0
   -5.5090   20.0500  -32.8710 S   0  0  0  0  0  0  0  0  0  0  0  0
   -5.5660   19.5850  -34.3020 O   0  0  0  0  0  0  0  0  0  0  0  0
   -5.2140   18.8590  -31.9990 O   0  0  0  0  0  0  0  0  0  0  0  0
   -7.0450   20.7640  -32.4050 C   0  0  0  0  0  0  0  0  0  0  0  0
   -8.2020   19.9730  -32.3120 C   0  0  0  0  0  0  0  0  0  0  0  0
   -9.4310   20.5600  -31.9960 C   0  0  0  0  0  0  0  0  0  0  0  0
   -9.5120   21.9390  -31.7760 C   0  0  0  0  0  0  0  0  0  0  0  0
   -8.3640   22.7340  -31.8720 C   0  0  0  0  0  0  0  0  0  0  0  0
   -7.1330   22.1480  -32.1870 C   0  0  0  0  0  0  0  0  0  0  0  0
   -2.2330   20.1020  -31.9600 C   0  0  0  0  0  0  0  0  0  0  0  0
   -1.1920   20.0190  -31.0390 C   0  0  0  0  0  0  0  0  0  0  0  0
    0.4205   17.1792  -31.4308 H   0  0  0  0  0  0  0  0  0  0  0  0
   -0.7301   17.9083  -32.6017 H   0  0  0  0  0  0  0  0  0  0  0  0
    0.9932   18.4152  -32.6017 H   0  0  0  0  0  0  0  0  0  0  0  0
    0.2788   20.9339  -27.2380 H   0  0  0  0  0  0  0  0  0  0  0  0
    1.7122   21.3465  -28.2390 H   0  0  0  0  0  0  0  0  0  0  0  0
    0.2761   22.4255  -28.2390 H   0  0  0  0  0  0  0  0  0  0  0  0
   -1.8508   22.6691  -28.9980 H   0  0  0  0  0  0  0  0  0  0  0  0
   -3.6528   22.8415  -27.7291 H   0  0  0  0  0  0  0  0  0  0  0  0
   -2.1495   22.6233  -25.7542 H   0  0  0  0  0  0  0  0  0  0  0  0
   -0.2446   24.2070  -25.4516 H   0  0  0  0  0  0  0  0  0  0  0  0
    0.1763   25.9933  -27.1429 H   0  0  0  0  0  0  0  0  0  0  0  0
   -8.1410   18.8889  -32.4882 H   0  0  0  0  0  0  0  0  0  0  0  0
  -10.3345   19.9372  -31.9204 H   0  0  0  0  0  0  0  0  0  0  0  0
  -10.4795   22.3994  -31.5271 H   0  0  0  0  0  0  0  0  0  0  0  0
   -8.4295   23.8185  -31.7000 H   0  0  0  0  0  0  0  0  0  0  0  0
   -6.2316   22.7737  -32.2640 H   0  0  0  0  0  0  0  0  0  0  0  0
   -2.3104   19.3869  -32.7922 H   0  0  0  0  0  0  0  0  0  0  0  0
  1  2  1  0
  2  3  1  0
  3  4  2  0
  3  5  1  0
  5  6  1  0
  5  7  1  0
  7  8  2  0
  8  9  1  0
  9 10  1  0
 10 11  2  0
 10 12  2  0
 10 13  1  0
 13 14  1  0
 14 15  2  0
 15 16  1  0
 16 17  2  0
 17 18  1  0
 18 19  2  0
 19 20  1  0
  9 21  2  0
 21 22  1  0
 22 23  1  0
 23 24  2  0
 23 25  2  0
 23 26  1  0
 26 27  2  0
 27 28  1  0
 28 29  2  0
 29 30  1  0
 30 31  2  0
 21 32  1  0
 32 33  2  0
 33  2  1  0
 33  7  1  0
 19 14  1  0
 31 26  1  0
  1 34  1  0
  1 35  1  0
  1 36  1  0
  6 37  1  0
  6 38  1  0
  6 39  1  0
  8 40  1  0
 15 41  1  0
 16 42  1  0
 17 43  1  0
 18 44  1  0
 27 45  1  0
 28 46  1  0
 29 47  1  0
 30 48  1  0
 31 49  1  0
 32 50  1  0
M  CHG  3  13  -1  20  -1  22  -1
M  END
>  <UniqueID>  (33) 
31

>  <SMILES>  (33) 
Cn1c(=O)n(C)c2cc(S(=O)(=O)[N-]c3ccccc3[O-])c([N-]S(=O)(=O)c3ccccc3)cc21

>  <Energy>  (33) 
110.08113196260761

>  <Genealogy>  (33) 
Cn1c(=O)n(C)c2cc(S(=O)(=O)[N-]c3ccccc3[O-])c([N-]S(=O)(=O)c3ccccc3)cc21 (protonated)
Cn1c(=O)n(C)c2cc(S(=O)(=O)[N-]c3ccccc3[O-])c([N-]S(=O)(=O)c3ccccc3)cc21 (3D coordinates assigned)
Cn1c(=O)n(C)c2cc(S(=O)(=O)[N-]c3ccccc3[O-])c([N-]S(=O)(=O)c3ccccc3)cc21 (optimized conformer: 110.08113196260761 kcal/mol)

>  <smiles>  (33) 
Cn1c(=O)n(C)c2cc(S(=O)(=O)Nc3ccccc3O)c(NS(=O)(=O)c3ccccc3)cc21

>  <score_type>  (33) 
oracle

>  <origin>  (33) 
adgpu

>  <m_score__min__energy>  (33) 
-15.300000000000001

>  <m_primary>  (33) 
energy

$$$$
33:0
     RDKit          3D

 37 39  0  0  0  0  0  0  0  0999 V2000
   -5.4630   24.9900  -31.5800 O   0  0  0  0  0  0  0  0  0  0  0  0
   -4.6680   24.5960  -30.6870 C   0  0  0  0  0  0  0  0  0  0  0  0
   -3.4920   25.2970  -30.4530 O   0  0  0  0  0  0  0  0  0  0  0  0
   -5.0120   23.4100  -29.8450 C   0  0  0  0  0  0  0  0  0  0  0  0
   -5.4380   22.2680  -30.7170 C   0  0  0  0  0  0  0  0  0  0  0  0
   -4.5990   21.3870  -31.3890 C   0  0  0  0  0  0  0  0  0  0  0  0
   -5.3290   20.5390  -32.1480 N   0  0  0  0  0  0  0  0  0  0  0  0
   -4.6980   19.2930  -33.1790 S   0  0  0  0  0  0  0  0  0  0  0  0
   -5.5720   19.1910  -34.3960 O   0  0  0  0  0  0  0  0  0  0  0  0
   -4.7280   17.9820  -32.4420 O   0  0  0  0  0  0  0  0  0  0  0  0
   -3.0310   19.6520  -33.6490 C   0  0  0  0  0  0  0  0  0  0  0  0
   -2.5180   20.9420  -33.4470 C   0  0  0  0  0  0  0  0  0  0  0  0
   -1.2080   21.2520  -33.8150 C   0  0  0  0  0  0  0  0  0  0  0  0
   -0.3730   20.2700  -34.3690 C   0  0  0  0  0  0  0  0  0  0  0  0
    1.0270   20.6180  -34.8130 C   0  0  0  0  0  0  0  0  0  0  0  0
    1.2250   21.9880  -34.7740 F   0  0  0  0  0  0  0  0  0  0  0  0
    1.9360   20.0060  -33.9710 F   0  0  0  0  0  0  0  0  0  0  0  0
    1.2520   20.1860  -36.1090 F   0  0  0  0  0  0  0  0  0  0  0  0
   -0.8870   18.9820  -34.5850 C   0  0  0  0  0  0  0  0  0  0  0  0
   -2.2010   18.6640  -34.2180 C   0  0  0  0  0  0  0  0  0  0  0  0
   -2.7940   16.8620  -34.5090 Br  0  0  0  0  0  0  0  0  0  0  0  0
   -6.6220   20.8840  -31.9780 C   0  0  0  0  0  0  0  0  0  0  0  0
   -7.7500   20.3290  -32.5890 C   0  0  0  0  0  0  0  0  0  0  0  0
   -9.0050   20.8850  -32.2810 C   0  0  0  0  0  0  0  0  0  0  0  0
   -9.1070   21.9730  -31.3870 C   0  0  0  0  0  0  0  0  0  0  0  0
   -7.9540   22.5180  -30.7930 C   0  0  0  0  0  0  0  0  0  0  0  0
   -6.7230   21.9430  -31.1110 C   0  0  0  0  0  0  0  0  0  0  0  0
   -4.1304   23.1115  -29.2588 H   0  0  0  0  0  0  0  0  0  0  0  0
   -5.8378   23.6751  -29.1684 H   0  0  0  0  0  0  0  0  0  0  0  0
   -3.5016   21.3806  -31.3143 H   0  0  0  0  0  0  0  0  0  0  0  0
   -3.1544   21.7166  -32.9942 H   0  0  0  0  0  0  0  0  0  0  0  0
   -0.8273   22.2737  -33.6696 H   0  0  0  0  0  0  0  0  0  0  0  0
   -0.2507   18.2133  -35.0478 H   0  0  0  0  0  0  0  0  0  0  0  0
   -7.6593   19.4847  -33.2882 H   0  0  0  0  0  0  0  0  0  0  0  0
   -9.9138   20.4689  -32.7402 H   0  0  0  0  0  0  0  0  0  0  0  0
  -10.0946   22.3974  -31.1534 H   0  0  0  0  0  0  0  0  0  0  0  0
   -8.0207   23.3699  -30.1003 H   0  0  0  0  0  0  0  0  0  0  0  0
  1  2  2  0
  2  3  1  0
  2  4  1  0
  4  5  1  0
  5  6  2  0
  6  7  1  0
  7  8  1  0
  8  9  2  0
  8 10  2  0
  8 11  1  0
 11 12  2  0
 12 13  1  0
 13 14  2  0
 14 15  1  0
 15 16  1  0
 15 17  1  0
 15 18  1  0
 14 19  1  0
 19 20  2  0
 20 21  1  0
  7 22  1  0
 22 23  2  0
 23 24  1  0
 24 25  2  0
 25 26  1  0
 26 27  2  0
 27  5  1  0
 20 11  1  0
 27 22  1  0
  4 28  1  0
  4 29  1  0
  6 30  1  0
 12 31  1  0
 13 32  1  0
 19 33  1  0
 23 34  1  0
 24 35  1  0
 25 36  1  0
 26 37  1  0
M  CHG  1   3  -1
M  END
>  <UniqueID>  (34) 
32

>  <SMILES>  (34) 
O=C([O-])Cc1cn(S(=O)(=O)c2ccc(C(F)(F)F)cc2Br)c2ccccc12

>  <Energy>  (34) 
75.15635264227821

>  <Genealogy>  (34) 
O=C([O-])Cc1cn(S(=O)(=O)c2ccc(C(F)(F)F)cc2Br)c2ccccc12 (protonated)
O=C([O-])Cc1cn(S(=O)(=O)c2ccc(C(F)(F)F)cc2Br)c2ccccc12 (3D coordinates assigned)
O=C([O-])Cc1cn(S(=O)(=O)c2ccc(C(F)(F)F)cc2Br)c2ccccc12 (optimized conformer: 75.15635264227821 kcal/mol)

>  <smiles>  (34) 
O=C(O)Cc1cn(S(=O)(=O)c2ccc(C(F)(F)F)cc2Br)c2ccccc12

>  <score_type>  (34) 
oracle

>  <origin>  (34) 
adgpu

>  <m_score__min__energy>  (34) 
-10.65

>  <m_primary>  (34) 
energy

$$$$
34:0
     RDKit          3D

 53 56  0  0  0  0  0  0  0  0999 V2000
   -4.1370   24.2790  -26.7200 O   0  0  0  0  0  0  0  0  0  0  0  0
   -3.4510   23.9280  -27.7140 C   0  0  0  0  0  0  0  0  0  0  0  0
   -4.0360   23.0360  -28.6720 N   0  0  0  0  0  0  0  0  0  0  0  0
   -4.9110   23.4140  -29.7450 C   0  0  0  0  0  0  0  0  0  0  0  0
   -6.1020   22.7000  -29.9240 C   0  0  0  0  0  0  0  0  0  0  0  0
   -6.9830   23.0310  -30.9630 C   0  0  0  0  0  0  0  0  0  0  0  0
   -8.4810   22.1340  -31.1900 S   0  0  0  0  0  0  0  0  0  0  0  0
   -9.4820   22.9820  -31.9290 O   0  0  0  0  0  0  0  0  0  0  0  0
   -9.0460   21.7960  -29.8390 O   0  0  0  0  0  0  0  0  0  0  0  0
   -8.1630   20.6670  -32.0820 N   0  0  0  0  0  0  0  0  0  0  0  0
   -8.5860   19.5040  -31.2800 C   0  0  0  0  0  0  0  0  0  0  0  0
   -8.3590   18.2060  -32.0650 C   0  0  0  0  0  0  0  0  0  0  0  0
   -6.8900   18.0780  -32.4760 C   0  0  0  0  0  0  0  0  0  0  0  0
   -6.4260   19.3330  -33.2190 C   0  0  0  0  0  0  0  0  0  0  0  0
   -6.7240   20.5880  -32.3910 C   0  0  0  0  0  0  0  0  0  0  0  0
   -6.6830   24.1050  -31.8090 C   0  0  0  0  0  0  0  0  0  0  0  0
   -5.5120   24.8430  -31.6170 C   0  0  0  0  0  0  0  0  0  0  0  0
   -4.6310   24.5140  -30.5820 C   0  0  0  0  0  0  0  0  0  0  0  0
   -3.5030   25.2990  -30.3790 O   0  0  0  0  0  0  0  0  0  0  0  0
   -2.0420   24.3620  -27.8210 C   0  0  0  0  0  0  0  0  0  0  0  0
   -1.1280   23.9220  -28.7600 C   0  0  0  0  0  0  0  0  0  0  0  0
    0.0400   24.4790  -28.5370 O   0  0  0  0  0  0  0  0  0  0  0  0
   -0.0500   25.2660  -27.4890 C   0  0  0  0  0  0  0  0  0  0  0  0
   -1.3480   25.2360  -26.9970 C   0  0  0  0  0  0  0  0  0  0  0  0
   -1.8770   26.0570  -25.8570 C   0  0  0  0  0  0  0  0  0  0  0  0
   -1.2120   25.6900  -24.5200 C   0  0  0  0  0  0  0  0  0  0  0  0
    0.3320   25.6290  -24.5500 C   0  0  0  0  0  0  0  0  0  0  0  0
    0.9730   26.6190  -25.5360 C   0  0  0  0  0  0  0  0  0  0  0  0
    1.1230   26.0550  -26.9650 C   0  0  0  0  0  0  0  0  0  0  0  0
   -6.3486   21.8719  -29.2433 H   0  0  0  0  0  0  0  0  0  0  0  0
   -8.0004   19.4725  -30.3493 H   0  0  0  0  0  0  0  0  0  0  0  0
   -9.6570   19.5995  -31.0479 H   0  0  0  0  0  0  0  0  0  0  0  0
   -8.6343   17.3483  -31.4337 H   0  0  0  0  0  0  0  0  0  0  0  0
   -8.9817   18.2250  -32.9716 H   0  0  0  0  0  0  0  0  0  0  0  0
   -6.2733   17.9427  -31.5753 H   0  0  0  0  0  0  0  0  0  0  0  0
   -6.7836   17.2110  -33.1445 H   0  0  0  0  0  0  0  0  0  0  0  0
   -5.3429   19.2672  -33.3995 H   0  0  0  0  0  0  0  0  0  0  0  0
   -6.9663   19.4008  -34.1748 H   0  0  0  0  0  0  0  0  0  0  0  0
   -6.1529   20.5472  -31.4518 H   0  0  0  0  0  0  0  0  0  0  0  0
   -6.4331   21.4765  -32.9705 H   0  0  0  0  0  0  0  0  0  0  0  0
   -7.3702   24.3686  -32.6265 H   0  0  0  0  0  0  0  0  0  0  0  0
   -5.2820   25.6873  -32.2836 H   0  0  0  0  0  0  0  0  0  0  0  0
   -1.3462   23.2123  -29.5716 H   0  0  0  0  0  0  0  0  0  0  0  0
   -1.6867   27.1198  -26.0675 H   0  0  0  0  0  0  0  0  0  0  0  0
   -2.9542   25.8539  -25.7656 H   0  0  0  0  0  0  0  0  0  0  0  0
   -1.5088   26.4421  -23.7742 H   0  0  0  0  0  0  0  0  0  0  0  0
   -1.5538   24.6731  -24.2771 H   0  0  0  0  0  0  0  0  0  0  0  0
    0.7076   25.8526  -23.5406 H   0  0  0  0  0  0  0  0  0  0  0  0
    0.6062   24.6184  -24.8869 H   0  0  0  0  0  0  0  0  0  0  0  0
    0.3447   27.5208  -25.5818 H   0  0  0  0  0  0  0  0  0  0  0  0
    1.9860   26.8346  -25.1653 H   0  0  0  0  0  0  0  0  0  0  0  0
    1.2899   26.9027  -27.6459 H   0  0  0  0  0  0  0  0  0  0  0  0
    1.9617   25.3448  -26.9177 H   0  0  0  0  0  0  0  0  0  0  0  0
  1  2  2  0
  2  3  1  0
  3  4  1  0
  4  5  2  0
  5  6  1  0
  6  7  1  0
  7  8  2  0
  7  9  2  0
  7 10  1  0
 10 11  1  0
 11 12  1  0
 12 13  1  0
 13 14  1  0
 14 15  1  0
  6 16  2  0
 16 17  1  0
 17 18  2  0
 18 19  1  0
  2 20  1  0
 20 21  2  0
 21 22  1  0
 22 23  1  0
 23 24  2  0
 24 25  1  0
 25 26  1  0
 26 27  1  0
 27 28  1  0
 28 29  1  0
 18  4  1  0
 24 20  1  0
 15 10  1  0
 29 23  1  0
  5 30  1  0
 11 31  1  0
 11 32  1  0
 12 33  1  0
 12 34  1  0
 13 35  1  0
 13 36  1  0
 14 37  1  0
 14 38  1  0
 15 39  1  0
 15 40  1  0
 16 41  1  0
 17 42  1  0
 21 43  1  0
 25 44  1  0
 25 45  1  0
 26 46  1  0
 26 47  1  0
 27 48  1  0
 27 49  1  0
 28 50  1  0
 28 51  1  0
 29 52  1  0
 29 53  1  0
M  CHG  2   3  -1  19  -1
M  END
>  <UniqueID>  (35) 
33

>  <SMILES>  (35) 
O=C([N-]c1cc(S(=O)(=O)N2CCCCC2)ccc1[O-])c1coc2c1CCCCC2

>  <Energy>  (35) 
88.67501667507906

>  <Genealogy>  (35) 
O=C([N-]c1cc(S(=O)(=O)N2CCCCC2)ccc1[O-])c1coc2c1CCCCC2 (protonated)
O=C([N-]c1cc(S(=O)(=O)N2CCCCC2)ccc1[O-])c1coc2c1CCCCC2 (3D coordinates assigned)
O=C([N-]c1cc(S(=O)(=O)N2CCCCC2)ccc1[O-])c1coc2c1CCCCC2 (nonaromatic ring conformer: 88.67501667507906 kcal/mol)

>  <smiles>  (35) 
O=C(Nc1cc(S(=O)(=O)N2CCCCC2)ccc1O)c1coc2c1CCCCC2

>  <score_type>  (35) 
oracle

>  <origin>  (35) 
adgpu

>  <m_score__min__energy>  (35) 
-11.81

>  <m_primary>  (35) 
energy

$$$$
35:0
     RDKit          3D

 65 69  0  0  0  0  0  0  0  0999 V2000
   -9.1440   22.6990  -31.9310 C   0  0  0  0  0  0  0  0  0  0  0  0
   -9.1550   21.2730  -31.9270 O   0  0  0  0  0  0  0  0  0  0  0  0
   -8.0320   20.4690  -32.1790 C   0  0  0  0  0  0  0  0  0  0  0  0
   -6.7260   20.9910  -32.2020 C   0  0  0  0  0  0  0  0  0  0  0  0
   -5.6270   20.1600  -32.4670 C   0  0  0  0  0  0  0  0  0  0  0  0
   -4.2640   20.7320  -32.4670 C   0  0  0  0  0  0  0  0  0  0  0  0
   -3.1730   20.0130  -32.8020 N   0  0  0  0  0  0  0  0  0  0  0  0
   -2.1110   20.7970  -32.6910 N   0  0  0  0  0  0  0  0  0  0  0  0
   -0.7600   20.3530  -32.9320 C   0  0  0  0  0  0  0  0  0  0  0  0
   -0.2910   19.1280  -32.4140 C   0  0  0  0  0  0  0  0  0  0  0  0
    1.0190   18.7080  -32.6660 C   0  0  0  0  0  0  0  0  0  0  0  0
    1.8760   19.5030  -33.4310 C   0  0  0  0  0  0  0  0  0  0  0  0
    1.4250   20.7230  -33.9460 C   0  0  0  0  0  0  0  0  0  0  0  0
    0.1180   21.1470  -33.6960 C   0  0  0  0  0  0  0  0  0  0  0  0
   -2.4980   22.0180  -32.2750 C   0  0  0  0  0  0  0  0  0  0  0  0
   -3.8710   22.0230  -32.1250 C   0  0  0  0  0  0  0  0  0  0  0  0
   -4.6650   23.1130  -31.5170 C   0  0  0  0  0  0  0  0  0  0  0  0
   -5.3630   23.8620  -32.2480 O   0  0  0  0  0  0  0  0  0  0  0  0
   -4.7420   23.2670  -30.0920 N   0  0  0  0  0  0  0  0  0  0  0  0
   -3.6260   23.0850  -29.2110 C   0  0  0  0  0  0  0  0  0  0  0  0
   -3.4890   21.8700  -28.5260 C   0  0  0  0  0  0  0  0  0  0  0  0
   -2.3620   21.6290  -27.7270 C   0  0  0  0  0  0  0  0  0  0  0  0
   -2.1040   20.0270  -27.0390 S   0  0  0  0  0  0  0  0  0  0  0  0
   -1.3060   20.1330  -25.7670 O   0  0  0  0  0  0  0  0  0  0  0  0
   -3.4430   19.4170  -26.7150 O   0  0  0  0  0  0  0  0  0  0  0  0
   -1.2530   19.0460  -28.2180 N   0  0  0  0  0  0  0  0  0  0  0  0
   -0.0050   18.5140  -27.6580 C   0  0  0  0  0  0  0  0  0  0  0  0
    1.1030   19.4900  -27.9990 C   0  0  0  0  0  0  0  0  0  0  0  0
    0.6300   20.1860  -29.2550 C   0  0  0  0  0  0  0  0  0  0  0  0
   -0.8550   19.8580  -29.3790 C   0  0  0  0  0  0  0  0  0  0  0  0
   -1.3960   22.6330  -27.5710 C   0  0  0  0  0  0  0  0  0  0  0  0
   -1.5420   23.8560  -28.2290 C   0  0  0  0  0  0  0  0  0  0  0  0
   -2.6460   24.0820  -29.0580 C   0  0  0  0  0  0  0  0  0  0  0  0
   -2.7670   25.2980  -29.7200 O   0  0  0  0  0  0  0  0  0  0  0  0
   -5.8390   18.7870  -32.6720 C   0  0  0  0  0  0  0  0  0  0  0  0
   -7.1410   18.2540  -32.6600 C   0  0  0  0  0  0  0  0  0  0  0  0
   -7.3950   16.8920  -32.8840 O   0  0  0  0  0  0  0  0  0  0  0  0
   -6.7260   16.0980  -33.8600 C   0  0  0  0  0  0  0  0  0  0  0  0
   -8.2290   19.1030  -32.4160 C   0  0  0  0  0  0  0  0  0  0  0  0
   -9.5180   18.5810  -32.4020 O   0  0  0  0  0  0  0  0  0  0  0  0
   -9.1411   23.0686  -30.8949 H   0  0  0  0  0  0  0  0  0  0  0  0
   -8.2431   23.0573  -32.4506 H   0  0  0  0  0  0  0  0  0  0  0  0
  -10.0393   23.0711  -32.4506 H   0  0  0  0  0  0  0  0  0  0  0  0
   -6.5646   22.0621  -32.0102 H   0  0  0  0  0  0  0  0  0  0  0  0
   -0.9597   18.4990  -31.8080 H   0  0  0  0  0  0  0  0  0  0  0  0
    1.3754   17.7494  -32.2609 H   0  0  0  0  0  0  0  0  0  0  0  0
    2.9055   19.1696  -33.6284 H   0  0  0  0  0  0  0  0  0  0  0  0
    2.1002   21.3487  -34.5482 H   0  0  0  0  0  0  0  0  0  0  0  0
   -0.2291   22.1097  -34.0993 H   0  0  0  0  0  0  0  0  0  0  0  0
   -1.8302   22.8713  -32.0857 H   0  0  0  0  0  0  0  0  0  0  0  0
   -4.2702   21.1008  -28.6156 H   0  0  0  0  0  0  0  0  0  0  0  0
   -0.0956   18.4160  -26.5661 H   0  0  0  0  0  0  0  0  0  0  0  0
    0.2133   17.5203  -28.0762 H   0  0  0  0  0  0  0  0  0  0  0  0
    1.2453   20.2151  -27.1841 H   0  0  0  0  0  0  0  0  0  0  0  0
    2.0707   18.9869  -28.1419 H   0  0  0  0  0  0  0  0  0  0  0  0
    0.7762   21.2728  -29.1687 H   0  0  0  0  0  0  0  0  0  0  0  0
    1.1932   19.8522  -30.1390 H   0  0  0  0  0  0  0  0  0  0  0  0
   -1.4402   20.7892  -29.3985 H   0  0  0  0  0  0  0  0  0  0  0  0
   -1.0414   19.3016  -30.3094 H   0  0  0  0  0  0  0  0  0  0  0  0
   -0.5207   22.4569  -26.9285 H   0  0  0  0  0  0  0  0  0  0  0  0
   -0.7865   24.6442  -28.0951 H   0  0  0  0  0  0  0  0  0  0  0  0
   -4.9795   18.1223  -32.8435 H   0  0  0  0  0  0  0  0  0  0  0  0
   -6.0962   15.3505  -33.3555 H   0  0  0  0  0  0  0  0  0  0  0  0
   -7.4695   15.5866  -34.4890 H   0  0  0  0  0  0  0  0  0  0  0  0
   -6.0959   16.7440  -34.4890 H   0  0  0  0  0  0  0  0  0  0  0  0
  1  2  1  0
  2  3  1  0
  3  4  2  0
  4  5  1  0
  5  6  1  0
  6  7  2  0
  7  8  1  0
  8  9  1  0
  9 10  2  0
 10 11  1  0
 11 12  2  0
 12 13  1  0
 13 14  2  0
  8 15  1  0
 15 16  2  0
 16 17  1  0
 17 18  2  0
 17 19  1  0
 19 20  1  0
 20 21  2  0
 21 22  1  0
 22 23  1  0
 23 24  2  0
 23 25  2  0
 23 26  1  0
 26 27  1  0
 27 28  1  0
 28 29  1  0
 29 30  1  0
 22 31  2  0
 31 32  1  0
 32 33  2  0
 33 34  1  0
  5 35  2  0
 35 36  1  0
 36 37  1  0
 37 38  1  0
 36 39  2  0
 39 40  1  0
 39  3  1  0
 16  6  1  0
 33 20  1  0
 14  9  1  0
 30 26  1  0
  1 41  1  0
  1 42  1  0
  1 43  1  0
  4 44  1  0
 10 45  1  0
 11 46  1  0
 12 47  1  0
 13 48  1  0
 14 49  1  0
 15 50  1  0
 21 51  1  0
 27 52  1  0
 27 53  1  0
 28 54  1  0
 28 55  1  0
 29 56  1  0
 29 57  1  0
 30 58  1  0
 30 59  1  0
 31 60  1  0
 32 61  1  0
 35 62  1  0
 38 63  1  0
 38 64  1  0
 38 65  1  0
M  CHG  3  19  -1  34  -1  40  -1
M  END
>  <UniqueID>  (36) 
34

>  <SMILES>  (36) 
COc1cc(-c2nn(-c3ccccc3)cc2C(=O)[N-]c2cc(S(=O)(=O)N3CCCC3)ccc2[O-])cc(OC)c1[O-]

>  <Energy>  (36) 
114.9973929894885

>  <Genealogy>  (36) 
COc1cc(-c2nn(-c3ccccc3)cc2C(=O)[N-]c2cc(S(=O)(=O)N3CCCC3)ccc2[O-])cc(OC)c1[O-] (protonated)
COc1cc(-c2nn(-c3ccccc3)cc2C(=O)[N-]c2cc(S(=O)(=O)N3CCCC3)ccc2[O-])cc(OC)c1[O-] (3D coordinates assigned)
COc1cc(-c2nn(-c3ccccc3)cc2C(=O)[N-]c2cc(S(=O)(=O)N3CCCC3)ccc2[O-])cc(OC)c1[O-] (nonaromatic ring conformer: 114.9973929894885 kcal/mol)

>  <smiles>  (36) 
COc1cc(-c2nn(-c3ccccc3)cc2C(=O)Nc2cc(S(=O)(=O)N3CCCC3)ccc2O)cc(OC)c1O

>  <score_type>  (36) 
oracle

>  <origin>  (36) 
adgpu

>  <m_score__min__energy>  (36) 
-14.76

>  <m_primary>  (36) 
energy

$$$$
36:0
     RDKit          3D

 63 67  0  0  0  0  0  0  0  0999 V2000
   -6.5150   13.5980  -34.5400 C   0  0  0  0  0  0  0  0  0  0  0  0
   -5.6880   14.7650  -34.0870 C   0  0  0  0  0  0  0  0  0  0  0  0
   -4.2890   14.7050  -34.1360 C   0  0  0  0  0  0  0  0  0  0  0  0
   -3.5270   15.7850  -33.6950 C   0  0  0  0  0  0  0  0  0  0  0  0
   -4.1530   16.9250  -33.1840 C   0  0  0  0  0  0  0  0  0  0  0  0
   -5.5590   17.0040  -33.0870 C   0  0  0  0  0  0  0  0  0  0  0  0
   -6.1970   18.2680  -32.4810 C   0  0  0  0  0  0  0  0  0  0  0  0
   -5.6570   18.4630  -31.1890 O   0  0  0  0  0  0  0  0  0  0  0  0
   -7.7320   18.1440  -32.3030 C   0  0  0  0  0  0  0  0  0  0  0  0
   -8.3030   19.3790  -31.5900 C   0  0  0  0  0  0  0  0  0  0  0  0
   -7.6520   20.6140  -32.0440 N   0  0  0  0  0  0  0  0  0  0  0  0
   -7.9480   21.8440  -31.3610 C   0  0  0  0  0  0  0  0  0  0  0  0
   -9.1290   22.0630  -30.9750 O   0  0  0  0  0  0  0  0  0  0  0  0
   -6.8890   22.8420  -31.0630 C   0  0  0  0  0  0  0  0  0  0  0  0
   -7.2200   24.1690  -30.7440 C   0  0  0  0  0  0  0  0  0  0  0  0
   -6.2190   25.1040  -30.4760 C   0  0  0  0  0  0  0  0  0  0  0  0
   -4.8700   24.7380  -30.5720 C   0  0  0  0  0  0  0  0  0  0  0  0
   -3.8690   25.6750  -30.3140 O   0  0  0  0  0  0  0  0  0  0  0  0
   -4.5210   23.4320  -30.9450 C   0  0  0  0  0  0  0  0  0  0  0  0
   -3.1310   23.0990  -31.0790 N   0  0  0  0  0  0  0  0  0  0  0  0
   -2.0340   22.7590  -29.7740 S   0  0  0  0  0  0  0  0  0  0  0  0
   -2.0900   21.2910  -29.4480 O   0  0  0  0  0  0  0  0  0  0  0  0
   -0.6260   23.1330  -30.1560 O   0  0  0  0  0  0  0  0  0  0  0  0
   -2.4930   23.7040  -28.3500 C   0  0  0  0  0  0  0  0  0  0  0  0
   -3.8210   23.6810  -27.8960 C   0  0  0  0  0  0  0  0  0  0  0  0
   -4.2100   24.4540  -26.7980 C   0  0  0  0  0  0  0  0  0  0  0  0
   -3.2800   25.2610  -26.1370 C   0  0  0  0  0  0  0  0  0  0  0  0
   -1.9460   25.2900  -26.5690 C   0  0  0  0  0  0  0  0  0  0  0  0
   -0.9940   26.0890  -25.9200 C   0  0  0  0  0  0  0  0  0  0  0  0
    0.3280   26.0920  -26.3650 C   0  0  0  0  0  0  0  0  0  0  0  0
    0.6880   25.2950  -27.4550 C   0  0  0  0  0  0  0  0  0  0  0  0
   -0.2450   24.5290  -28.0800 N   0  0  0  0  0  0  0  0  0  0  0  0
   -1.5460   24.5030  -27.6750 C   0  0  0  0  0  0  0  0  0  0  0  0
   -5.5350   22.4790  -31.1500 C   0  0  0  0  0  0  0  0  0  0  0  0
   -6.9460   20.6240  -33.3320 C   0  0  0  0  0  0  0  0  0  0  0  0
   -5.8940   19.4970  -33.4050 C   0  0  0  0  0  0  0  0  0  0  0  0
   -6.3180   15.9060  -33.5630 C   0  0  0  0  0  0  0  0  0  0  0  0
   -6.8982   13.0573  -33.6620 H   0  0  0  0  0  0  0  0  0  0  0  0
   -7.3594   13.9598  -35.1451 H   0  0  0  0  0  0  0  0  0  0  0  0
   -5.8938   12.9212  -35.1451 H   0  0  0  0  0  0  0  0  0  0  0  0
   -3.7914   13.8037  -34.5233 H   0  0  0  0  0  0  0  0  0  0  0  0
   -2.4293   15.7400  -33.7493 H   0  0  0  0  0  0  0  0  0  0  0  0
   -3.5396   17.7754  -32.8516 H   0  0  0  0  0  0  0  0  0  0  0  0
   -5.3610   19.4060  -31.0870 H   0  0  0  0  0  0  0  0  0  0  0  0
   -8.2028   18.0498  -33.2927 H   0  0  0  0  0  0  0  0  0  0  0  0
   -7.9440   17.2553  -31.6904 H   0  0  0  0  0  0  0  0  0  0  0  0
   -9.3808   19.4457  -31.7995 H   0  0  0  0  0  0  0  0  0  0  0  0
   -8.1187   19.2694  -30.5111 H   0  0  0  0  0  0  0  0  0  0  0  0
   -8.2762   24.4738  -30.7051 H   0  0  0  0  0  0  0  0  0  0  0  0
   -6.4899   26.1307  -30.1887 H   0  0  0  0  0  0  0  0  0  0  0  0
   -2.9770   25.6490  -30.8010 H   0  0  0  0  0  0  0  0  0  0  0  0
   -4.5618   23.0495  -28.4084 H   0  0  0  0  0  0  0  0  0  0  0  0
   -5.2539   24.4269  -26.4524 H   0  0  0  0  0  0  0  0  0  0  0  0
   -3.5940   25.8730  -25.2786 H   0  0  0  0  0  0  0  0  0  0  0  0
   -1.2888   26.7116  -25.0624 H   0  0  0  0  0  0  0  0  0  0  0  0
    1.0810   26.7166  -25.8621 H   0  0  0  0  0  0  0  0  0  0  0  0
    1.7297   25.2875  -27.8084 H   0  0  0  0  0  0  0  0  0  0  0  0
   -5.2646   21.4381  -31.3810 H   0  0  0  0  0  0  0  0  0  0  0  0
   -7.6769   20.4846  -34.1421 H   0  0  0  0  0  0  0  0  0  0  0  0
   -6.4282   21.5889  -33.4360 H   0  0  0  0  0  0  0  0  0  0  0  0
   -5.8423   19.1414  -34.4446 H   0  0  0  0  0  0  0  0  0  0  0  0
   -4.9460   19.9290  -33.0521 H   0  0  0  0  0  0  0  0  0  0  0  0
   -7.4164   15.9478  -33.5216 H   0  0  0  0  0  0  0  0  0  0  0  0
  1  2  1  0
  2  3  2  0
  3  4  1  0
  4  5  2  0
  5  6  1  0
  6  7  1  0
  7  8  1  0
  7  9  1  0
  9 10  1  0
 10 11  1  0
 11 12  1  0
 12 13  2  0
 12 14  1  0
 14 15  2  0
 15 16  1  0
 16 17  2  0
 17 18  1  0
 17 19  1  0
 19 20  1  0
 20 21  1  0
 21 22  2  0
 21 23  2  0
 21 24  1  0
 24 25  2  0
 25 26  1  0
 26 27  2  0
 27 28  1  0
 28 29  2  0
 29 30  1  0
 30 31  2  0
 31 32  1  0
 32 33  2  0
 19 34  2  0
 11 35  1  0
 35 36  1  0
  6 37  2  0
 37  2  1  0
 36  7  1  0
 34 14  1  0
 33 24  1  0
 33 28  1  0
  1 38  1  0
  1 39  1  0
  1 40  1  0
  3 41  1  0
  4 42  1  0
  5 43  1  0
  8 44  1  0
  9 45  1  0
  9 46  1  0
 10 47  1  0
 10 48  1  0
 15 49  1  0
 16 50  1  0
 18 51  1  0
 25 52  1  0
 26 53  1  0
 27 54  1  0
 29 55  1  0
 30 56  1  0
 31 57  1  0
 34 58  1  0
 35 59  1  0
 35 60  1  0
 36 61  1  0
 36 62  1  0
 37 63  1  0
M  CHG  1  20  -1
M  END
>  <UniqueID>  (37) 
35

>  <SMILES>  (37) 
Cc1cccc(C2(O)CCN(C(=O)c3ccc(O)c([N-]S(=O)(=O)c4cccc5cccnc45)c3)CC2)c1

>  <Energy>  (37) 
95.54797768453197

>  <Genealogy>  (37) 
Cc1cccc(C2(O)CCN(C(=O)c3ccc(O)c([N-]S(=O)(=O)c4cccc5cccnc45)c3)CC2)c1 (protonated)
Cc1cccc(C2(O)CCN(C(=O)c3ccc(O)c([N-]S(=O)(=O)c4cccc5cccnc45)c3)CC2)c1 (3D coordinates assigned)
Cc1cccc(C2(O)CCN(C(=O)c3ccc(O)c([N-]S(=O)(=O)c4cccc5cccnc45)c3)CC2)c1 (nonaromatic ring conformer: 95.54797768453197 kcal/mol)

>  <smiles>  (37) 
Cc1cccc(C2(O)CCN(C(=O)c3ccc(O)c(NS(=O)(=O)c4cccc5cccnc45)c3)CC2)c1

>  <score_type>  (37) 
oracle

>  <origin>  (37) 
adgpu

>  <m_score__min__energy>  (37) 
-13.15

>  <m_primary>  (37) 
energy

$$$$
37:0
     RDKit          3D

 53 56  0  0  0  0  0  0  0  0999 V2000
   -1.2980   18.9940  -31.1310 O   0  0  0  0  0  0  0  0  0  0  0  0
   -1.7710   19.2740  -32.2670 C   0  0  0  0  0  0  0  0  0  0  0  0
   -1.8360   18.2170  -33.3010 C   0  0  0  0  0  0  0  0  0  0  0  0
   -0.7120   17.9170  -34.0850 C   0  0  0  0  0  0  0  0  0  0  0  0
   -0.7790   16.9160  -35.0570 C   0  0  0  0  0  0  0  0  0  0  0  0
   -1.9570   16.1890  -35.2460 C   0  0  0  0  0  0  0  0  0  0  0  0
   -1.9800   15.1950  -36.2260 O   0  0  0  0  0  0  0  0  0  0  0  0
   -3.0860   16.4590  -34.4500 C   0  0  0  0  0  0  0  0  0  0  0  0
   -4.2810   15.6890  -34.6450 N   0  0  0  0  0  0  0  0  0  0  0  0
   -5.6590   15.6930  -33.5920 S   0  0  0  0  0  0  0  0  0  0  0  0
   -5.2730   15.0790  -32.2760 O   0  0  0  0  0  0  0  0  0  0  0  0
   -6.7590   14.8770  -34.2130 O   0  0  0  0  0  0  0  0  0  0  0  0
   -6.1890   17.3490  -33.3100 C   0  0  0  0  0  0  0  0  0  0  0  0
   -6.0350   18.3270  -34.3030 C   0  0  0  0  0  0  0  0  0  0  0  0
   -6.4530   19.6400  -34.0640 C   0  0  0  0  0  0  0  0  0  0  0  0
   -7.0260   19.9800  -32.8350 C   0  0  0  0  0  0  0  0  0  0  0  0
   -7.1830   19.0080  -31.8440 C   0  0  0  0  0  0  0  0  0  0  0  0
   -6.7680   17.6930  -32.0800 C   0  0  0  0  0  0  0  0  0  0  0  0
   -3.0150   17.4750  -33.4780 C   0  0  0  0  0  0  0  0  0  0  0  0
   -2.2460   20.6080  -32.5270 N   0  0  0  0  0  0  0  0  0  0  0  0
   -1.5370   21.7640  -31.9610 C   0  0  0  0  0  0  0  0  0  0  0  0
   -2.4970   22.5940  -31.1010 C   0  0  0  0  0  0  0  0  0  0  0  0
   -3.7830   22.7990  -31.7840 N   0  0  0  0  0  0  0  0  0  0  0  0
   -4.8720   23.4110  -31.0720 C   0  0  0  0  0  0  0  0  0  0  0  0
   -6.1280   22.7820  -31.0450 C   0  0  0  0  0  0  0  0  0  0  0  0
   -7.1930   23.3610  -30.3490 C   0  0  0  0  0  0  0  0  0  0  0  0
   -7.0120   24.5730  -29.6760 C   0  0  0  0  0  0  0  0  0  0  0  0
   -5.7680   25.2090  -29.7020 C   0  0  0  0  0  0  0  0  0  0  0  0
   -4.6990   24.6360  -30.4010 C   0  0  0  0  0  0  0  0  0  0  0  0
   -3.4790   25.2990  -30.4400 O   0  0  0  0  0  0  0  0  0  0  0  0
   -3.9980   22.2640  -33.1340 C   0  0  0  0  0  0  0  0  0  0  0  0
   -3.5480   20.8000  -33.1910 C   0  0  0  0  0  0  0  0  0  0  0  0
    0.2256   18.4721  -33.9338 H   0  0  0  0  0  0  0  0  0  0  0  0
    0.1023   16.6985  -35.6783 H   0  0  0  0  0  0  0  0  0  0  0  0
   -2.7920   14.6130  -36.3910 H   0  0  0  0  0  0  0  0  0  0  0  0
   -5.5850   18.0612  -35.2709 H   0  0  0  0  0  0  0  0  0  0  0  0
   -6.3308   20.4060  -34.8439 H   0  0  0  0  0  0  0  0  0  0  0  0
   -7.3534   21.0134  -32.6482 H   0  0  0  0  0  0  0  0  0  0  0  0
   -7.6334   19.2769  -30.8771 H   0  0  0  0  0  0  0  0  0  0  0  0
   -6.8960   16.9281  -31.2999 H   0  0  0  0  0  0  0  0  0  0  0  0
   -3.8925   17.6899  -32.8505 H   0  0  0  0  0  0  0  0  0  0  0  0
   -0.7019   21.4107  -31.3383 H   0  0  0  0  0  0  0  0  0  0  0  0
   -1.1513   22.3891  -32.7798 H   0  0  0  0  0  0  0  0  0  0  0  0
   -2.6750   22.0670  -30.1520 H   0  0  0  0  0  0  0  0  0  0  0  0
   -2.0391   23.5775  -30.9193 H   0  0  0  0  0  0  0  0  0  0  0  0
   -6.2740   21.8289  -31.5744 H   0  0  0  0  0  0  0  0  0  0  0  0
   -8.1736   22.8630  -30.3308 H   0  0  0  0  0  0  0  0  0  0  0  0
   -7.8496   25.0263  -29.1256 H   0  0  0  0  0  0  0  0  0  0  0  0
   -5.6284   26.1626  -29.1717 H   0  0  0  0  0  0  0  0  0  0  0  0
   -5.0669   22.3274  -33.3858 H   0  0  0  0  0  0  0  0  0  0  0  0
   -3.4114   22.8522  -33.8550 H   0  0  0  0  0  0  0  0  0  0  0  0
   -4.3009   20.1750  -32.6886 H   0  0  0  0  0  0  0  0  0  0  0  0
   -3.4419   20.5128  -34.2475 H   0  0  0  0  0  0  0  0  0  0  0  0
  1  2  2  0
  2  3  1  0
  3  4  2  0
  4  5  1  0
  5  6  2  0
  6  7  1  0
  6  8  1  0
  8  9  1  0
  9 10  1  0
 10 11  2  0
 10 12  2  0
 10 13  1  0
 13 14  2  0
 14 15  1  0
 15 16  2  0
 16 17  1  0
 17 18  2  0
  8 19  2  0
  2 20  1  0
 20 21  1  0
 21 22  1  0
 22 23  1  0
 23 24  1  0
 24 25  2  0
 25 26  1  0
 26 27  2  0
 27 28  1  0
 28 29  2  0
 29 30  1  0
 23 31  1  0
 31 32  1  0
 19  3  1  0
 32 20  1  0
 18 13  1  0
 29 24  1  0
  4 33  1  0
  5 34  1  0
  7 35  1  0
 14 36  1  0
 15 37  1  0
 16 38  1  0
 17 39  1  0
 18 40  1  0
 19 41  1  0
 21 42  1  0
 21 43  1  0
 22 44  1  0
 22 45  1  0
 25 46  1  0
 26 47  1  0
 27 48  1  0
 28 49  1  0
 31 50  1  0
 31 51  1  0
 32 52  1  0
 32 53  1  0
M  CHG  2   9  -1  30  -1
M  END
>  <UniqueID>  (38) 
36

>  <SMILES>  (38) 
O=C(c1ccc(O)c([N-]S(=O)(=O)c2ccccc2)c1)N1CCN(c2ccccc2[O-])CC1

>  <Energy>  (38) 
71.6324561479048

>  <Genealogy>  (38) 
O=C(c1ccc(O)c([N-]S(=O)(=O)c2ccccc2)c1)N1CCN(c2ccccc2[O-])CC1 (protonated)
O=C(c1ccc(O)c([N-]S(=O)(=O)c2ccccc2)c1)N1CCN(c2ccccc2[O-])CC1 (3D coordinates assigned)
O=C(c1ccc(O)c([N-]S(=O)(=O)c2ccccc2)c1)N1CCN(c2ccccc2[O-])CC1 (nonaromatic ring conformer: 71.6324561479048 kcal/mol)

>  <smiles>  (38) 
O=C(c1ccc(O)c(NS(=O)(=O)c2ccccc2)c1)N1CCN(c2ccccc2O)CC1

>  <score_type>  (38) 
oracle

>  <origin>  (38) 
adgpu

>  <m_score__min__energy>  (38) 
-13.02

>  <m_primary>  (38) 
energy

$$$$
38:0
     RDKit          3D

 52 55  0  0  0  0  0  0  0  0999 V2000
   -0.2150   26.1360  -27.8340 O   0  0  0  0  0  0  0  0  0  0  0  0
   -0.0190   24.6670  -27.5770 S   0  0  0  0  0  0  0  0  0  0  0  0
    1.1180   24.1810  -28.4310 O   0  0  0  0  0  0  0  0  0  0  0  0
    0.3690   24.4030  -25.9020 N   0  0  0  0  0  0  0  0  0  0  0  0
   -0.8520   24.4970  -25.0930 C   0  0  0  0  0  0  0  0  0  0  0  0
   -1.7020   25.7090  -25.5030 C   0  0  0  0  0  0  0  0  0  0  0  0
   -1.6150   26.8370  -24.5430 N   0  0  0  0  0  0  0  0  0  0  0  0
   -0.7950   26.4910  -23.3500 C   0  0  0  0  0  0  0  0  0  0  0  0
    0.6060   27.1450  -23.3300 C   0  0  0  0  0  0  0  0  0  0  0  0
    1.1810   27.2850  -24.7400 C   0  0  0  0  0  0  0  0  0  0  0  0
    0.2490   28.0980  -25.6560 C   0  0  0  0  0  0  0  0  0  0  0  0
   -1.2040   28.1240  -25.1510 C   0  0  0  0  0  0  0  0  0  0  0  0
   -1.4850   23.7820  -27.9930 C   0  0  0  0  0  0  0  0  0  0  0  0
   -1.7270   22.5190  -27.4360 C   0  0  0  0  0  0  0  0  0  0  0  0
   -2.9370   21.8640  -27.6820 C   0  0  0  0  0  0  0  0  0  0  0  0
   -3.9190   22.4770  -28.4660 C   0  0  0  0  0  0  0  0  0  0  0  0
   -3.6840   23.7400  -29.0260 C   0  0  0  0  0  0  0  0  0  0  0  0
   -4.9560   24.5710  -29.9120 S   0  0  0  0  0  0  0  0  0  0  0  0
   -5.8610   25.2980  -28.9580 O   0  0  0  0  0  0  0  0  0  0  0  0
   -4.3490   25.5840  -30.8430 O   0  0  0  0  0  0  0  0  0  0  0  0
   -5.8780   23.3750  -30.8290 C   0  0  0  0  0  0  0  0  0  0  0  0
   -7.2750   23.3040  -30.6860 C   0  0  0  0  0  0  0  0  0  0  0  0
   -8.0280   22.3800  -31.4290 C   0  0  0  0  0  0  0  0  0  0  0  0
   -7.4020   21.5130  -32.3330 C   0  0  0  0  0  0  0  0  0  0  0  0
   -6.0180   21.5770  -32.4920 C   0  0  0  0  0  0  0  0  0  0  0  0
   -5.3440   20.7830  -33.3600 N   0  0  0  0  0  0  0  0  0  0  0  0
   -3.8020   21.3300  -33.1180 S   0  0  0  0  0  0  0  0  0  0  0  0
   -3.9120   22.5180  -31.9740 N   0  0  0  0  0  0  0  0  0  0  0  0
   -5.2490   22.5130  -31.7420 C   0  0  0  0  0  0  0  0  0  0  0  0
   -2.4600   24.3810  -28.8010 C   0  0  0  0  0  0  0  0  0  0  0  0
    0.7360   23.4270  -25.8440 H   0  0  0  0  0  0  0  0  0  0  0  0
   -1.4446   23.5807  -25.2311 H   0  0  0  0  0  0  0  0  0  0  0  0
   -0.5614   24.6177  -24.0390 H   0  0  0  0  0  0  0  0  0  0  0  0
   -1.3579   26.0603  -26.4870 H   0  0  0  0  0  0  0  0  0  0  0  0
   -2.7512   25.3794  -25.5250 H   0  0  0  0  0  0  0  0  0  0  0  0
   -1.3398   26.8160  -22.4514 H   0  0  0  0  0  0  0  0  0  0  0  0
   -0.6346   25.4032  -23.3824 H   0  0  0  0  0  0  0  0  0  0  0  0
    0.5275   28.1436  -22.8755 H   0  0  0  0  0  0  0  0  0  0  0  0
    1.2790   26.4999  -22.7460 H   0  0  0  0  0  0  0  0  0  0  0  0
    2.1542   27.7940  -24.6793 H   0  0  0  0  0  0  0  0  0  0  0  0
    1.2895   26.2775  -25.1680 H   0  0  0  0  0  0  0  0  0  0  0  0
    0.6217   29.1316  -25.7093 H   0  0  0  0  0  0  0  0  0  0  0  0
    0.2491   27.6144  -26.6440 H   0  0  0  0  0  0  0  0  0  0  0  0
   -1.3012   28.9181  -24.3960 H   0  0  0  0  0  0  0  0  0  0  0  0
   -1.8563   28.3085  -26.0173 H   0  0  0  0  0  0  0  0  0  0  0  0
   -0.9633   22.0422  -26.8040 H   0  0  0  0  0  0  0  0  0  0  0  0
   -3.1169   20.8650  -27.2582 H   0  0  0  0  0  0  0  0  0  0  0  0
   -4.8774   21.9672  -28.6435 H   0  0  0  0  0  0  0  0  0  0  0  0
   -7.7844   23.9803  -29.9837 H   0  0  0  0  0  0  0  0  0  0  0  0
   -9.1195   22.3370  -31.2995 H   0  0  0  0  0  0  0  0  0  0  0  0
   -7.9953   20.7895  -32.9113 H   0  0  0  0  0  0  0  0  0  0  0  0
   -2.2627   25.3604  -29.2612 H   0  0  0  0  0  0  0  0  0  0  0  0
  1  2  2  0
  2  3  2  0
  2  4  1  0
  4  5  1  0
  5  6  1  0
  6  7  1  0
  7  8  1  0
  8  9  1  0
  9 10  1  0
 10 11  1  0
 11 12  1  0
  2 13  1  0
 13 14  2  0
 14 15  1  0
 15 16  2  0
 16 17  1  0
 17 18  1  0
 18 19  2  0
 18 20  2  0
 18 21  1  0
 21 22  2  0
 22 23  1  0
 23 24  2  0
 24 25  1  0
 25 26  2  0
 26 27  1  0
 27 28  1  0
 28 29  2  0
 17 30  2  0
 12  7  1  0
 30 13  1  0
 29 21  1  0
 29 25  1  0
  4 31  1  0
  5 32  1  0
  5 33  1  0
  6 34  1  0
  6 35  1  0
  8 36  1  0
  8 37  1  0
  9 38  1  0
  9 39  1  0
 10 40  1  0
 10 41  1  0
 11 42  1  0
 11 43  1  0
 12 44  1  0
 12 45  1  0
 14 46  1  0
 15 47  1  0
 16 48  1  0
 22 49  1  0
 23 50  1  0
 24 51  1  0
 30 52  1  0
M  END
>  <UniqueID>  (39) 
37

>  <SMILES>  (39) 
O=S(=O)(NCCN1CCCCC1)c1cccc(S(=O)(=O)c2cccc3nsnc23)c1

>  <Energy>  (39) 
96.53371021068548

>  <Genealogy>  (39) 
O=S(=O)(NCCN1CCCCC1)c1cccc(S(=O)(=O)c2cccc3nsnc23)c1 (3D coordinates assigned)
O=S(=O)(NCCN1CCCCC1)c1cccc(S(=O)(=O)c2cccc3nsnc23)c1 (nonaromatic ring conformer: 96.53371021068548 kcal/mol)

>  <smiles>  (39) 
O=S(=O)(NCCN1CCCCC1)c1cccc(S(=O)(=O)c2cccc3nsnc23)c1

>  <score_type>  (39) 
oracle

>  <origin>  (39) 
adgpu

>  <m_score__min__energy>  (39) 
-10.640000000000001

>  <m_primary>  (39) 
energy

$$$$
39:0
     RDKit          3D

 54 57  0  0  0  0  0  0  0  0999 V2000
    3.5590   17.7420  -30.5160 C   0  0  0  0  0  0  0  0  0  0  0  0
    2.2610   17.2800  -29.9230 C   0  0  0  0  0  0  0  0  0  0  0  0
    1.9960   16.0480  -29.9590 O   0  0  0  0  0  0  0  0  0  0  0  0
    1.3330   18.2020  -29.3020 N   0  0  0  0  0  0  0  0  0  0  0  0
   -0.0820   17.8170  -29.1630 C   0  0  0  0  0  0  0  0  0  0  0  0
   -0.6740   18.3840  -27.8740 C   0  0  0  0  0  0  0  0  0  0  0  0
   -0.3530   19.8090  -27.7590 N   0  0  0  0  0  0  0  0  0  0  0  0
   -1.2880   20.6980  -27.1220 C   0  0  0  0  0  0  0  0  0  0  0  0
   -1.9810   20.2760  -26.1550 O   0  0  0  0  0  0  0  0  0  0  0  0
   -1.4660   22.0910  -27.5950 C   0  0  0  0  0  0  0  0  0  0  0  0
   -0.3530   22.9030  -27.8590 C   0  0  0  0  0  0  0  0  0  0  0  0
   -0.5250   24.2120  -28.3100 C   0  0  0  0  0  0  0  0  0  0  0  0
   -1.8070   24.7250  -28.5160 C   0  0  0  0  0  0  0  0  0  0  0  0
   -1.9500   26.0330  -28.9680 O   0  0  0  0  0  0  0  0  0  0  0  0
   -2.9400   23.9250  -28.2760 C   0  0  0  0  0  0  0  0  0  0  0  0
   -4.2560   24.4690  -28.4870 N   0  0  0  0  0  0  0  0  0  0  0  0
   -4.9260   24.7990  -30.0560 S   0  0  0  0  0  0  0  0  0  0  0  0
   -3.8980   25.5100  -30.8920 O   0  0  0  0  0  0  0  0  0  0  0  0
   -6.1520   25.6580  -29.9240 O   0  0  0  0  0  0  0  0  0  0  0  0
   -5.3840   23.2790  -30.8180 C   0  0  0  0  0  0  0  0  0  0  0  0
   -6.7000   22.8150  -30.6920 C   0  0  0  0  0  0  0  0  0  0  0  0
   -7.0880   21.6150  -31.2930 C   0  0  0  0  0  0  0  0  0  0  0  0
   -6.1610   20.8650  -32.0320 C   0  0  0  0  0  0  0  0  0  0  0  0
   -6.5400   19.6580  -32.6410 C   0  0  0  0  0  0  0  0  0  0  0  0
   -5.6080   18.9190  -33.3760 C   0  0  0  0  0  0  0  0  0  0  0  0
   -6.1300   17.2780  -34.2010 Br  0  0  0  0  0  0  0  0  0  0  0  0
   -4.2930   19.3800  -33.5070 C   0  0  0  0  0  0  0  0  0  0  0  0
   -3.9050   20.5790  -32.9050 C   0  0  0  0  0  0  0  0  0  0  0  0
   -4.8310   21.3290  -32.1650 C   0  0  0  0  0  0  0  0  0  0  0  0
   -4.4520   22.5360  -31.5560 C   0  0  0  0  0  0  0  0  0  0  0  0
   -2.7570   22.6060  -27.8120 C   0  0  0  0  0  0  0  0  0  0  0  0
    1.0590   20.1890  -27.8620 C   0  0  0  0  0  0  0  0  0  0  0  0
    1.6650   19.6280  -29.1490 C   0  0  0  0  0  0  0  0  0  0  0  0
    4.2626   17.9924  -29.7084 H   0  0  0  0  0  0  0  0  0  0  0  0
    3.9843   16.9400  -31.1373 H   0  0  0  0  0  0  0  0  0  0  0  0
    3.3820   18.6323  -31.1373 H   0  0  0  0  0  0  0  0  0  0  0  0
   -0.6479   18.2069  -30.0219 H   0  0  0  0  0  0  0  0  0  0  0  0
   -0.1471   16.7195  -29.1281 H   0  0  0  0  0  0  0  0  0  0  0  0
   -1.7665   18.2568  -27.8882 H   0  0  0  0  0  0  0  0  0  0  0  0
   -0.2468   17.8473  -27.0141 H   0  0  0  0  0  0  0  0  0  0  0  0
    0.6616   22.5052  -27.7095 H   0  0  0  0  0  0  0  0  0  0  0  0
    0.3545   24.8435  -28.5044 H   0  0  0  0  0  0  0  0  0  0  0  0
   -4.8360   24.7460  -27.6640 H   0  0  0  0  0  0  0  0  0  0  0  0
   -7.4326   23.3995  -30.1160 H   0  0  0  0  0  0  0  0  0  0  0  0
   -8.1228   21.2574  -31.1865 H   0  0  0  0  0  0  0  0  0  0  0  0
   -7.5727   19.2929  -32.5396 H   0  0  0  0  0  0  0  0  0  0  0  0
   -3.5626   18.7959  -34.0861 H   0  0  0  0  0  0  0  0  0  0  0  0
   -2.8701   20.9363  -33.0115 H   0  0  0  0  0  0  0  0  0  0  0  0
   -3.4191   22.9003  -31.6584 H   0  0  0  0  0  0  0  0  0  0  0  0
   -3.6346   21.9720  -27.6173 H   0  0  0  0  0  0  0  0  0  0  0  0
    1.1403   21.2860  -27.8703 H   0  0  0  0  0  0  0  0  0  0  0  0
    1.6048   19.7782  -26.9998 H   0  0  0  0  0  0  0  0  0  0  0  0
    1.2661   20.1859  -30.0090 H   0  0  0  0  0  0  0  0  0  0  0  0
    2.7589   19.7331  -29.1000 H   0  0  0  0  0  0  0  0  0  0  0  0
  1  2  1  0
  2  3  2  0
  2  4  1  0
  4  5  1  0
  5  6  1  0
  6  7  1  0
  7  8  1  0
  8  9  2  0
  8 10  1  0
 10 11  2  0
 11 12  1  0
 12 13  2  0
 13 14  1  0
 13 15  1  0
 15 16  1  0
 16 17  1  0
 17 18  2  0
 17 19  2  0
 17 20  1  0
 20 21  2  0
 21 22  1  0
 22 23  2  0
 23 24  1  0
 24 25  2  0
 25 26  1  0
 25 27  1  0
 27 28  2  0
 28 29  1  0
 29 30  2  0
 15 31  2  0
  7 32  1  0
 32 33  1  0
 33  4  1  0
 31 10  1  0
 30 20  1  0
 29 23  1  0
  1 34  1  0
  1 35  1  0
  1 36  1  0
  5 37  1  0
  5 38  1  0
  6 39  1  0
  6 40  1  0
 11 41  1  0
 12 42  1  0
 16 43  1  0
 21 44  1  0
 22 45  1  0
 24 46  1  0
 27 47  1  0
 28 48  1  0
 30 49  1  0
 31 50  1  0
 32 51  1  0
 32 52  1  0
 33 53  1  0
 33 54  1  0
M  CHG  1  14  -1
M  END
>  <UniqueID>  (40) 
38

>  <SMILES>  (40) 
CC(=O)N1CCN(C(=O)c2ccc([O-])c(NS(=O)(=O)c3ccc4cc(Br)ccc4c3)c2)CC1

>  <Energy>  (40) 
68.68491233666228

>  <Genealogy>  (40) 
CC(=O)N1CCN(C(=O)c2ccc([O-])c(NS(=O)(=O)c3ccc4cc(Br)ccc4c3)c2)CC1 (protonated)
CC(=O)N1CCN(C(=O)c2ccc([O-])c(NS(=O)(=O)c3ccc4cc(Br)ccc4c3)c2)CC1 (3D coordinates assigned)
CC(=O)N1CCN(C(=O)c2ccc([O-])c(NS(=O)(=O)c3ccc4cc(Br)ccc4c3)c2)CC1 (nonaromatic ring conformer: 68.68491233666228 kcal/mol)

>  <smiles>  (40) 
CC(=O)N1CCN(C(=O)c2ccc(O)c(NS(=O)(=O)c3ccc4cc(Br)ccc4c3)c2)CC1

>  <score_type>  (40) 
oracle

>  <origin>  (40) 
adgpu

>  <m_score__min__energy>  (40) 
-14.1

>  <m_primary>  (40) 
energy

$$$$
40:0
     RDKit          3D

 47 50  0  0  0  0  0  0  0  0999 V2000
   -9.0930   18.1820  -31.5980 C   0  0  0  0  0  0  0  0  0  0  0  0
   -8.8230   19.4620  -32.3260 C   0  0  0  0  0  0  0  0  0  0  0  0
   -9.7890   20.1880  -32.6840 O   0  0  0  0  0  0  0  0  0  0  0  0
   -7.4770   19.9040  -32.5630 N   0  0  0  0  0  0  0  0  0  0  0  0
   -6.7330   19.2380  -33.6420 C   0  0  0  0  0  0  0  0  0  0  0  0
   -5.2260   19.4300  -33.4670 C   0  0  0  0  0  0  0  0  0  0  0  0
   -4.9230   20.8060  -33.2540 O   0  0  0  0  0  0  0  0  0  0  0  0
   -5.6960   21.5890  -32.3940 C   0  0  0  0  0  0  0  0  0  0  0  0
   -5.1980   22.8090  -31.9260 C   0  0  0  0  0  0  0  0  0  0  0  0
   -5.9440   23.5730  -31.0190 C   0  0  0  0  0  0  0  0  0  0  0  0
   -5.3060   25.0900  -30.3910 S   0  0  0  0  0  0  0  0  0  0  0  0
   -5.7370   26.2490  -31.2470 O   0  0  0  0  0  0  0  0  0  0  0  0
   -5.8270   25.2920  -28.9960 O   0  0  0  0  0  0  0  0  0  0  0  0
   -3.5730   25.0270  -30.3500 N   0  0  0  0  0  0  0  0  0  0  0  0
   -2.7990   24.2900  -29.3890 C   0  0  0  0  0  0  0  0  0  0  0  0
   -3.1850   23.0120  -28.9490 C   0  0  0  0  0  0  0  0  0  0  0  0
   -2.4310   22.3350  -27.9760 C   0  0  0  0  0  0  0  0  0  0  0  0
   -1.2910   22.9520  -27.4190 C   0  0  0  0  0  0  0  0  0  0  0  0
   -0.8870   24.2090  -27.8890 C   0  0  0  0  0  0  0  0  0  0  0  0
   -1.6380   24.8750  -28.8620 C   0  0  0  0  0  0  0  0  0  0  0  0
   -1.2320   26.1330  -29.2980 O   0  0  0  0  0  0  0  0  0  0  0  0
   -0.4440   22.2280  -26.3980 C   0  0  0  0  0  0  0  0  0  0  0  0
   -1.2050   21.1750  -25.7120 N   0  0  0  0  0  0  0  0  0  0  0  0
   -1.8130   20.2660  -26.6890 C   0  0  0  0  0  0  0  0  0  0  0  0
   -2.9100   20.9980  -27.4660 C   0  0  0  0  0  0  0  0  0  0  0  0
   -7.1910   23.1090  -30.5850 C   0  0  0  0  0  0  0  0  0  0  0  0
   -7.7010   21.8980  -31.0640 C   0  0  0  0  0  0  0  0  0  0  0  0
   -6.9690   21.1390  -32.0000 C   0  0  0  0  0  0  0  0  0  0  0  0
   -9.0550   18.3620  -30.5135 H   0  0  0  0  0  0  0  0  0  0  0  0
  -10.0900   17.8071  -31.8728 H   0  0  0  0  0  0  0  0  0  0  0  0
   -8.3324   17.4364  -31.8728 H   0  0  0  0  0  0  0  0  0  0  0  0
   -6.9629   18.1624  -33.6269 H   0  0  0  0  0  0  0  0  0  0  0  0
   -7.0341   19.6826  -34.6020 H   0  0  0  0  0  0  0  0  0  0  0  0
   -4.8841   18.8450  -32.6004 H   0  0  0  0  0  0  0  0  0  0  0  0
   -4.7141   19.0884  -34.3787 H   0  0  0  0  0  0  0  0  0  0  0  0
   -4.2178   23.1699  -32.2709 H   0  0  0  0  0  0  0  0  0  0  0  0
   -4.0843   22.5384  -29.3697 H   0  0  0  0  0  0  0  0  0  0  0  0
    0.0264   24.6743  -27.4899 H   0  0  0  0  0  0  0  0  0  0  0  0
    0.4171   21.7714  -26.9079 H   0  0  0  0  0  0  0  0  0  0  0  0
   -0.1131   22.9588  -25.6454 H   0  0  0  0  0  0  0  0  0  0  0  0
   -0.5290   20.6210  -25.1330 H   0  0  0  0  0  0  0  0  0  0  0  0
   -1.0416   19.9144  -27.3900 H   0  0  0  0  0  0  0  0  0  0  0  0
   -2.2533   19.4073  -26.1610 H   0  0  0  0  0  0  0  0  0  0  0  0
   -3.2158   20.3781  -28.3217 H   0  0  0  0  0  0  0  0  0  0  0  0
   -3.7563   21.1723  -26.7852 H   0  0  0  0  0  0  0  0  0  0  0  0
   -7.7734   23.7002  -29.8630 H   0  0  0  0  0  0  0  0  0  0  0  0
   -8.6773   21.5362  -30.7090 H   0  0  0  0  0  0  0  0  0  0  0  0
  1  2  1  0
  2  3  2  0
  2  4  1  0
  4  5  1  0
  5  6  1  0
  6  7  1  0
  7  8  1  0
  8  9  2  0
  9 10  1  0
 10 11  1  0
 11 12  2  0
 11 13  2  0
 11 14  1  0
 14 15  1  0
 15 16  2  0
 16 17  1  0
 17 18  2  0
 18 19  1  0
 19 20  2  0
 20 21  1  0
 18 22  1  0
 22 23  1  0
 23 24  1  0
 24 25  1  0
 10 26  2  0
 26 27  1  0
 27 28  2  0
 28  4  1  0
 28  8  1  0
 20 15  1  0
 25 17  1  0
  1 29  1  0
  1 30  1  0
  1 31  1  0
  5 32  1  0
  5 33  1  0
  6 34  1  0
  6 35  1  0
  9 36  1  0
 16 37  1  0
 19 38  1  0
 22 39  1  0
 22 40  1  0
 23 41  1  0
 24 42  1  0
 24 43  1  0
 25 44  1  0
 25 45  1  0
 26 46  1  0
 27 47  1  0
M  CHG  2  14  -1  21  -1
M  END
>  <UniqueID>  (41) 
39

>  <SMILES>  (41) 
CC(=O)N1CCOc2cc(S(=O)(=O)[N-]c3cc4c(cc3[O-])CNCC4)ccc21

>  <Energy>  (41) 
61.37370560191434

>  <Genealogy>  (41) 
CC(=O)N1CCOc2cc(S(=O)(=O)[N-]c3cc4c(cc3[O-])CNCC4)ccc21 (protonated)
CC(=O)N1CCOc2cc(S(=O)(=O)[N-]c3cc4c(cc3[O-])CNCC4)ccc21 (3D coordinates assigned)
CC(=O)N1CCOc2cc(S(=O)(=O)[N-]c3cc4c(cc3[O-])CNCC4)ccc21 (nonaromatic ring conformer: 61.37370560191434 kcal/mol)

>  <smiles>  (41) 
CC(=O)N1CCOc2cc(S(=O)(=O)Nc3cc4c(cc3O)CNCC4)ccc21

>  <score_type>  (41) 
oracle

>  <origin>  (41) 
adgpu

>  <m_score__min__energy>  (41) 
-14.550000000000001

>  <m_primary>  (41) 
energy

$$$$
41:0
     RDKit          3D

 55 58  0  0  0  0  0  0  0  0999 V2000
    0.3870   21.5080  -33.8950 O   0  0  0  0  0  0  0  0  0  0  0  0
   -0.2930   21.1990  -32.8810 C   0  0  0  0  0  0  0  0  0  0  0  0
    0.2490   21.4670  -31.5810 N   0  0  0  0  0  0  0  0  0  0  0  0
   -0.5070   21.7020  -30.3830 C   0  0  0  0  0  0  0  0  0  0  0  0
   -0.1870   21.0640  -29.1710 C   0  0  0  0  0  0  0  0  0  0  0  0
   -0.9480   21.3090  -28.0250 C   0  0  0  0  0  0  0  0  0  0  0  0
   -2.0410   22.1760  -28.0820 C   0  0  0  0  0  0  0  0  0  0  0  0
   -2.3810   22.8000  -29.2880 C   0  0  0  0  0  0  0  0  0  0  0  0
   -3.7780   23.8720  -29.3450 S   0  0  0  0  0  0  0  0  0  0  0  0
   -3.8960   24.5670  -28.0170 O   0  0  0  0  0  0  0  0  0  0  0  0
   -3.5930   24.9090  -30.4190 O   0  0  0  0  0  0  0  0  0  0  0  0
   -5.2250   22.9370  -29.6530 N   0  0  0  0  0  0  0  0  0  0  0  0
   -5.0940   22.1810  -30.9040 C   0  0  0  0  0  0  0  0  0  0  0  0
   -5.6890   23.0180  -32.0280 C   0  0  0  0  0  0  0  0  0  0  0  0
   -6.5200   24.0870  -31.3430 C   0  0  0  0  0  0  0  0  0  0  0  0
   -6.3760   23.8250  -29.8510 C   0  0  0  0  0  0  0  0  0  0  0  0
   -1.6180   22.5520  -30.4390 C   0  0  0  0  0  0  0  0  0  0  0  0
   -1.6060   20.5350  -33.0610 C   0  0  0  0  0  0  0  0  0  0  0  0
   -2.7730   21.2920  -33.2510 C   0  0  0  0  0  0  0  0  0  0  0  0
   -4.0020   20.6590  -33.4560 C   0  0  0  0  0  0  0  0  0  0  0  0
   -4.0820   19.2600  -33.4700 C   0  0  0  0  0  0  0  0  0  0  0  0
   -5.6310   18.4600  -33.7670 S   0  0  0  0  0  0  0  0  0  0  0  0
   -5.4280   16.9720  -33.7230 O   0  0  0  0  0  0  0  0  0  0  0  0
   -6.1130   18.8240  -35.1440 O   0  0  0  0  0  0  0  0  0  0  0  0
   -6.8530   18.9040  -32.5990 N   0  0  0  0  0  0  0  0  0  0  0  0
   -7.6100   20.0840  -33.0150 C   0  0  0  0  0  0  0  0  0  0  0  0
   -8.9760   19.9820  -32.3480 C   0  0  0  0  0  0  0  0  0  0  0  0
   -9.1040   18.5300  -31.9090 C   0  0  0  0  0  0  0  0  0  0  0  0
   -7.8450   17.8480  -32.4170 C   0  0  0  0  0  0  0  0  0  0  0  0
   -2.9260   18.5010  -33.2400 C   0  0  0  0  0  0  0  0  0  0  0  0
   -1.6970   19.1330  -33.0350 C   0  0  0  0  0  0  0  0  0  0  0  0
    0.6651   20.3699  -29.1252 H   0  0  0  0  0  0  0  0  0  0  0  0
   -0.6856   20.8180  -27.0763 H   0  0  0  0  0  0  0  0  0  0  0  0
   -2.6361   22.3691  -27.1773 H   0  0  0  0  0  0  0  0  0  0  0  0
   -4.0319   21.9819  -31.1097 H   0  0  0  0  0  0  0  0  0  0  0  0
   -5.6222   21.2194  -30.8248 H   0  0  0  0  0  0  0  0  0  0  0  0
   -4.8904   23.4782  -32.6285 H   0  0  0  0  0  0  0  0  0  0  0  0
   -6.2951   22.4077  -32.7137 H   0  0  0  0  0  0  0  0  0  0  0  0
   -6.1407   25.0883  -31.5952 H   0  0  0  0  0  0  0  0  0  0  0  0
   -7.5720   24.0512  -31.6625 H   0  0  0  0  0  0  0  0  0  0  0  0
   -6.2104   24.7741  -29.3201 H   0  0  0  0  0  0  0  0  0  0  0  0
   -7.2902   23.3576  -29.4563 H   0  0  0  0  0  0  0  0  0  0  0  0
   -1.8944   23.0283  -31.3912 H   0  0  0  0  0  0  0  0  0  0  0  0
   -2.7197   22.3906  -33.2384 H   0  0  0  0  0  0  0  0  0  0  0  0
   -4.9100   21.2612  -33.6069 H   0  0  0  0  0  0  0  0  0  0  0  0
   -7.0955   20.9997  -32.6882 H   0  0  0  0  0  0  0  0  0  0  0  0
   -7.7054   20.1285  -34.1099 H   0  0  0  0  0  0  0  0  0  0  0  0
   -9.0307   20.6533  -31.4783 H   0  0  0  0  0  0  0  0  0  0  0  0
   -9.7873   20.2762  -33.0301 H   0  0  0  0  0  0  0  0  0  0  0  0
   -9.1639   18.4623  -30.8127 H   0  0  0  0  0  0  0  0  0  0  0  0
  -10.0154   18.0592  -32.3060 H   0  0  0  0  0  0  0  0  0  0  0  0
   -7.4874   17.1118  -31.6820 H   0  0  0  0  0  0  0  0  0  0  0  0
   -8.0333   17.3094  -33.3574 H   0  0  0  0  0  0  0  0  0  0  0  0
   -2.9869   17.4029  -33.2209 H   0  0  0  0  0  0  0  0  0  0  0  0
   -0.7955   18.5297  -32.8522 H   0  0  0  0  0  0  0  0  0  0  0  0
  1  2  2  0
  2  3  1  0
  3  4  1  0
  4  5  2  0
  5  6  1  0
  6  7  2  0
  7  8  1  0
  8  9  1  0
  9 10  2  0
  9 11  2  0
  9 12  1  0
 12 13  1  0
 13 14  1  0
 14 15  1  0
 15 16  1  0
  8 17  2  0
  2 18  1  0
 18 19  2  0
 19 20  1  0
 20 21  2  0
 21 22  1  0
 22 23  2  0
 22 24  2  0
 22 25  1  0
 25 26  1  0
 26 27  1  0
 27 28  1  0
 28 29  1  0
 21 30  1  0
 30 31  2  0
 17  4  1  0
 31 18  1  0
 16 12  1  0
 29 25  1  0
  5 32  1  0
  6 33  1  0
  7 34  1  0
 13 35  1  0
 13 36  1  0
 14 37  1  0
 14 38  1  0
 15 39  1  0
 15 40  1  0
 16 41  1  0
 16 42  1  0
 17 43  1  0
 19 44  1  0
 20 45  1  0
 26 46  1  0
 26 47  1  0
 27 48  1  0
 27 49  1  0
 28 50  1  0
 28 51  1  0
 29 52  1  0
 29 53  1  0
 30 54  1  0
 31 55  1  0
M  CHG  1   3  -1
M  END
>  <UniqueID>  (42) 
40

>  <SMILES>  (42) 
O=C([N-]c1cccc(S(=O)(=O)N2CCCC2)c1)c1ccc(S(=O)(=O)N2CCCC2)cc1

>  <Energy>  (42) 
65.4261962783844

>  <Genealogy>  (42) 
O=C([N-]c1cccc(S(=O)(=O)N2CCCC2)c1)c1ccc(S(=O)(=O)N2CCCC2)cc1 (protonated)
O=C([N-]c1cccc(S(=O)(=O)N2CCCC2)c1)c1ccc(S(=O)(=O)N2CCCC2)cc1 (3D coordinates assigned)
O=C([N-]c1cccc(S(=O)(=O)N2CCCC2)c1)c1ccc(S(=O)(=O)N2CCCC2)cc1 (nonaromatic ring conformer: 65.4261962783844 kcal/mol)

>  <smiles>  (42) 
O=C(Nc1cccc(S(=O)(=O)N2CCCC2)c1)c1ccc(S(=O)(=O)N2CCCC2)cc1

>  <score_type>  (42) 
oracle

>  <origin>  (42) 
adgpu

>  <m_score__min__energy>  (42) 
-12.99

>  <m_primary>  (42) 
energy

$$$$
42:0
     RDKit          3D

 61 64  0  0  0  0  0  0  0  0999 V2000
   -5.3800   13.7300  -33.5070 C   0  0  0  0  0  0  0  0  0  0  0  0
   -4.0570   13.7100  -32.8100 C   0  0  0  0  0  0  0  0  0  0  0  0
   -3.7900   12.8920  -31.7740 N   0  0  0  0  0  0  0  0  0  0  0  0
   -2.5600   13.1130  -31.4130 O   0  0  0  0  0  0  0  0  0  0  0  0
   -1.9990   14.0290  -32.1680 C   0  0  0  0  0  0  0  0  0  0  0  0
   -0.6080   14.5320  -31.9620 C   0  0  0  0  0  0  0  0  0  0  0  0
   -2.9220   14.4480  -33.1110 C   0  0  0  0  0  0  0  0  0  0  0  0
   -2.7000   15.6840  -34.3600 S   0  0  0  0  0  0  0  0  0  0  0  0
   -1.2770   16.1660  -34.3460 O   0  0  0  0  0  0  0  0  0  0  0  0
   -2.9540   15.0650  -35.7060 O   0  0  0  0  0  0  0  0  0  0  0  0
   -3.7820   17.0410  -34.1520 N   0  0  0  0  0  0  0  0  0  0  0  0
   -4.9760   16.8890  -35.0110 C   0  0  0  0  0  0  0  0  0  0  0  0
   -6.0770   17.8680  -34.5960 C   0  0  0  0  0  0  0  0  0  0  0  0
   -6.5800   17.5450  -33.1720 C   0  0  0  0  0  0  0  0  0  0  0  0
   -7.1320   18.7870  -32.5180 C   0  0  0  0  0  0  0  0  0  0  0  0
   -8.3200   18.7950  -32.0940 O   0  0  0  0  0  0  0  0  0  0  0  0
   -6.2780   19.9210  -32.2980 N   0  0  0  0  0  0  0  0  0  0  0  0
   -6.7510   21.2230  -31.9150 C   0  0  0  0  0  0  0  0  0  0  0  0
   -8.0640   21.6420  -32.2000 C   0  0  0  0  0  0  0  0  0  0  0  0
   -8.4910   22.9210  -31.8320 C   0  0  0  0  0  0  0  0  0  0  0  0
   -7.6130   23.7970  -31.1910 C   0  0  0  0  0  0  0  0  0  0  0  0
   -6.2950   23.4050  -30.9280 C   0  0  0  0  0  0  0  0  0  0  0  0
   -5.1950   24.5040  -30.1020 S   0  0  0  0  0  0  0  0  0  0  0  0
   -4.3690   25.2500  -31.1160 O   0  0  0  0  0  0  0  0  0  0  0  0
   -5.9940   25.5000  -29.3100 O   0  0  0  0  0  0  0  0  0  0  0  0
   -4.1700   23.5910  -29.0260 N   0  0  0  0  0  0  0  0  0  0  0  0
   -2.7900   23.5610  -29.5070 C   0  0  0  0  0  0  0  0  0  0  0  0
   -1.9130   23.3660  -28.2820 C   0  0  0  0  0  0  0  0  0  0  0  0
   -2.7560   23.8340  -27.1080 C   0  0  0  0  0  0  0  0  0  0  0  0
   -4.1080   24.2040  -27.7000 C   0  0  0  0  0  0  0  0  0  0  0  0
   -5.8670   22.1190  -31.2920 C   0  0  0  0  0  0  0  0  0  0  0  0
   -5.4870   16.8770  -32.3010 C   0  0  0  0  0  0  0  0  0  0  0  0
   -4.0750   17.3150  -32.7240 C   0  0  0  0  0  0  0  0  0  0  0  0
   -6.1877   13.7422  -32.7603 H   0  0  0  0  0  0  0  0  0  0  0  0
   -5.4492   14.6293  -34.1367 H   0  0  0  0  0  0  0  0  0  0  0  0
   -5.4763   12.8332  -34.1367 H   0  0  0  0  0  0  0  0  0  0  0  0
   -0.4010   14.6068  -30.8842 H   0  0  0  0  0  0  0  0  0  0  0  0
    0.1062   13.8352  -32.4250 H   0  0  0  0  0  0  0  0  0  0  0  0
   -0.5046   15.5244  -32.4250 H   0  0  0  0  0  0  0  0  0  0  0  0
   -4.6949   17.0855  -36.0562 H   0  0  0  0  0  0  0  0  0  0  0  0
   -5.3587   15.8635  -34.9018 H   0  0  0  0  0  0  0  0  0  0  0  0
   -5.6764   18.8923  -34.6147 H   0  0  0  0  0  0  0  0  0  0  0  0
   -6.9178   17.7765  -35.2994 H   0  0  0  0  0  0  0  0  0  0  0  0
   -7.3933   16.8099  -33.2623 H   0  0  0  0  0  0  0  0  0  0  0  0
   -5.2440   19.7730  -32.3590 H   0  0  0  0  0  0  0  0  0  0  0  0
   -8.7570   20.9601  -32.7145 H   0  0  0  0  0  0  0  0  0  0  0  0
   -9.5218   23.2383  -32.0481 H   0  0  0  0  0  0  0  0  0  0  0  0
   -7.9577   24.7978  -30.8918 H   0  0  0  0  0  0  0  0  0  0  0  0
   -2.6506   22.7276  -30.2113 H   0  0  0  0  0  0  0  0  0  0  0  0
   -2.5325   24.4892  -30.0381 H   0  0  0  0  0  0  0  0  0  0  0  0
   -1.6443   22.3058  -28.1652 H   0  0  0  0  0  0  0  0  0  0  0  0
   -0.9696   23.9264  -28.3592 H   0  0  0  0  0  0  0  0  0  0  0  0
   -2.8678   23.0268  -26.3691 H   0  0  0  0  0  0  0  0  0  0  0  0
   -2.2926   24.6843  -26.5862 H   0  0  0  0  0  0  0  0  0  0  0  0
   -4.9184   23.8163  -27.0652 H   0  0  0  0  0  0  0  0  0  0  0  0
   -4.2257   25.2958  -27.7638 H   0  0  0  0  0  0  0  0  0  0  0  0
   -4.8311   21.8104  -31.0878 H   0  0  0  0  0  0  0  0  0  0  0  0
   -5.6475   17.1587  -31.2499 H   0  0  0  0  0  0  0  0  0  0  0  0
   -5.5618   15.7876  -32.4335 H   0  0  0  0  0  0  0  0  0  0  0  0
   -3.9769   18.3964  -32.5481 H   0  0  0  0  0  0  0  0  0  0  0  0
   -3.3589   16.7327  -32.1256 H   0  0  0  0  0  0  0  0  0  0  0  0
  1  2  1  0
  2  3  2  0
  3  4  1  0
  4  5  1  0
  5  6  1  0
  5  7  2  0
  7  8  1  0
  8  9  2  0
  8 10  2  0
  8 11  1  0
 11 12  1  0
 12 13  1  0
 13 14  1  0
 14 15  1  0
 15 16  2  0
 15 17  1  0
 17 18  1  0
 18 19  2  0
 19 20  1  0
 20 21  2  0
 21 22  1  0
 22 23  1  0
 23 24  2  0
 23 25  2  0
 23 26  1  0
 26 27  1  0
 27 28  1  0
 28 29  1  0
 29 30  1  0
 22 31  2  0
 14 32  1  0
 32 33  1  0
  7  2  1  0
 33 11  1  0
 31 18  1  0
 30 26  1  0
  1 34  1  0
  1 35  1  0
  1 36  1  0
  6 37  1  0
  6 38  1  0
  6 39  1  0
 12 40  1  0
 12 41  1  0
 13 42  1  0
 13 43  1  0
 14 44  1  0
 17 45  1  0
 19 46  1  0
 20 47  1  0
 21 48  1  0
 27 49  1  0
 27 50  1  0
 28 51  1  0
 28 52  1  0
 29 53  1  0
 29 54  1  0
 30 55  1  0
 30 56  1  0
 31 57  1  0
 32 58  1  0
 32 59  1  0
 33 60  1  0
 33 61  1  0
M  END
>  <UniqueID>  (43) 
41

>  <SMILES>  (43) 
Cc1noc(C)c1S(=O)(=O)N1CCC(C(=O)Nc2cccc(S(=O)(=O)N3CCCC3)c2)CC1

>  <Energy>  (43) 
101.72628941562962

>  <Genealogy>  (43) 
Cc1noc(C)c1S(=O)(=O)N1CCC(C(=O)Nc2cccc(S(=O)(=O)N3CCCC3)c2)CC1 (3D coordinates assigned)
Cc1noc(C)c1S(=O)(=O)N1CCC(C(=O)Nc2cccc(S(=O)(=O)N3CCCC3)c2)CC1 (nonaromatic ring conformer: 101.72628941562962 kcal/mol)

>  <smiles>  (43) 
Cc1noc(C)c1S(=O)(=O)N1CCC(C(=O)Nc2cccc(S(=O)(=O)N3CCCC3)c2)CC1

>  <score_type>  (43) 
oracle

>  <origin>  (43) 
adgpu

>  <m_score__min__energy>  (43) 
-10.640000000000001

>  <m_primary>  (43) 
energy

$$$$
43:0
     RDKit          3D

 36 38  0  0  0  0  0  0  0  0999 V2000
   -2.0830   18.2450  -34.3290 C   0  0  0  0  0  0  0  0  0  0  0  0
   -3.0120   19.3210  -34.4100 O   0  0  0  0  0  0  0  0  0  0  0  0
   -3.3770   20.1480  -33.3340 C   0  0  0  0  0  0  0  0  0  0  0  0
   -2.6610   21.3250  -33.0400 C   0  0  0  0  0  0  0  0  0  0  0  0
   -3.0220   22.1240  -31.9560 C   0  0  0  0  0  0  0  0  0  0  0  0
   -4.1000   21.7640  -31.1380 C   0  0  0  0  0  0  0  0  0  0  0  0
   -4.5160   22.6530  -29.9980 C   0  0  0  0  0  0  0  0  0  0  0  0
   -3.3500   23.4620  -29.5230 C   0  0  0  0  0  0  0  0  0  0  0  0
   -2.0590   22.8650  -28.6210 S   0  0  0  0  0  0  0  0  0  0  0  0
   -1.2520   24.3390  -28.6470 C   0  0  0  0  0  0  0  0  0  0  0  0
   -0.1420   24.5490  -28.0940 O   0  0  0  0  0  0  0  0  0  0  0  0
   -1.9220   25.2870  -29.3350 N   0  0  0  0  0  0  0  0  0  0  0  0
   -3.0890   24.7960  -29.8310 C   0  0  0  0  0  0  0  0  0  0  0  0
   -3.9510   25.5780  -30.5920 O   0  0  0  0  0  0  0  0  0  0  0  0
   -4.8270   20.6020  -31.4320 C   0  0  0  0  0  0  0  0  0  0  0  0
   -4.4770   19.7840  -32.5230 C   0  0  0  0  0  0  0  0  0  0  0  0
   -5.2750   18.5650  -32.8180 C   0  0  0  0  0  0  0  0  0  0  0  0
   -6.6540   18.5770  -33.0490 C   0  0  0  0  0  0  0  0  0  0  0  0
   -7.1500   16.9980  -33.3490 S   0  0  0  0  0  0  0  0  0  0  0  0
   -5.6040   16.3700  -33.1790 C   0  0  0  0  0  0  0  0  0  0  0  0
   -5.1850   14.6390  -33.3440 S   0  0  0  0  0  0  0  0  0  0  0  0
   -6.6740   14.2560  -34.3170 C   0  0  0  0  0  0  0  0  0  0  0  0
   -4.7020   17.3320  -32.8930 N   0  0  0  0  0  0  0  0  0  0  0  0
   -1.8823   18.0126  -33.2727 H   0  0  0  0  0  0  0  0  0  0  0  0
   -2.5043   17.3586  -34.8258 H   0  0  0  0  0  0  0  0  0  0  0  0
   -1.1447   18.5325  -34.8258 H   0  0  0  0  0  0  0  0  0  0  0  0
   -1.8089   21.6165  -33.6717 H   0  0  0  0  0  0  0  0  0  0  0  0
   -2.4565   23.0429  -31.7420 H   0  0  0  0  0  0  0  0  0  0  0  0
   -5.3140   23.3298  -30.3372 H   0  0  0  0  0  0  0  0  0  0  0  0
   -4.8812   22.0281  -29.1697 H   0  0  0  0  0  0  0  0  0  0  0  0
   -3.8250   25.6630  -31.5940 H   0  0  0  0  0  0  0  0  0  0  0  0
   -5.6841   20.3251  -30.8005 H   0  0  0  0  0  0  0  0  0  0  0  0
   -7.3024   19.4655  -33.0367 H   0  0  0  0  0  0  0  0  0  0  0  0
   -7.5112   14.0407  -33.6367 H   0  0  0  0  0  0  0  0  0  0  0  0
   -6.9292   15.1177  -34.9513 H   0  0  0  0  0  0  0  0  0  0  0  0
   -6.4818   13.3781  -34.9513 H   0  0  0  0  0  0  0  0  0  0  0  0
  1  2  1  0
  2  3  1  0
  3  4  2  0
  4  5  1  0
  5  6  2  0
  6  7  1  0
  7  8  1  0
  8  9  1  0
  9 10  1  0
 10 11  2  0
 10 12  1  0
 12 13  1  0
 13 14  1  0
  6 15  1  0
 15 16  2  0
 16 17  1  0
 17 18  2  0
 18 19  1  0
 19 20  1  0
 20 21  1  0
 21 22  1  0
 20 23  2  0
 16  3  1  0
 23 17  1  0
 13  8  2  0
  1 24  1  0
  1 25  1  0
  1 26  1  0
  4 27  1  0
  5 28  1  0
  7 29  1  0
  7 30  1  0
 14 31  1  0
 15 32  1  0
 18 33  1  0
 22 34  1  0
 22 35  1  0
 22 36  1  0
M  CHG  1  12  -1
M  END
>  <UniqueID>  (44) 
42

>  <SMILES>  (44) 
COc1ccc(Cc2sc(=O)[n-]c2O)cc1-c1csc(SC)n1

>  <Energy>  (44) 
95.23494508170381

>  <Genealogy>  (44) 
COc1ccc(Cc2sc(=O)[n-]c2O)cc1-c1csc(SC)n1 (protonated)
COc1ccc(Cc2sc(=O)[n-]c2O)cc1-c1csc(SC)n1 (3D coordinates assigned)
COc1ccc(Cc2sc(=O)[n-]c2O)cc1-c1csc(SC)n1 (optimized conformer: 95.23494508170381 kcal/mol)

>  <smiles>  (44) 
COc1ccc(Cc2sc(=O)[nH]c2O)cc1-c1csc(SC)n1

>  <score_type>  (44) 
oracle

>  <origin>  (44) 
adgpu

>  <m_score__min__energy>  (44) 
-9.7400000000000002

>  <m_primary>  (44) 
energy

$$$$
44:0
     RDKit          3D

 50 53  0  0  0  0  0  0  0  0999 V2000
   -5.7290   25.1700  -29.9010 C   0  0  0  0  0  0  0  0  0  0  0  0
   -4.3450   25.2290  -30.2360 O   0  0  0  0  0  0  0  0  0  0  0  0
   -3.5010   24.1100  -30.3260 C   0  0  0  0  0  0  0  0  0  0  0  0
   -3.8820   22.9420  -31.0140 C   0  0  0  0  0  0  0  0  0  0  0  0
   -3.0140   21.8500  -31.0850 C   0  0  0  0  0  0  0  0  0  0  0  0
   -1.7590   21.9060  -30.4700 C   0  0  0  0  0  0  0  0  0  0  0  0
   -0.6660   20.5280  -30.5960 S   0  0  0  0  0  0  0  0  0  0  0  0
   -1.3350   19.3380  -29.9650 O   0  0  0  0  0  0  0  0  0  0  0  0
    0.6040   20.8090  -29.8390 O   0  0  0  0  0  0  0  0  0  0  0  0
   -0.3060   20.1640  -32.2740 N   0  0  0  0  0  0  0  0  0  0  0  0
   -0.5460   18.7430  -32.6020 C   0  0  0  0  0  0  0  0  0  0  0  0
   -2.0320   18.3740  -32.5010 C   0  0  0  0  0  0  0  0  0  0  0  0
   -2.8840   19.4490  -33.0240 N   0  0  0  0  0  0  0  0  0  0  0  0
   -4.3130   19.3380  -32.8650 C   0  0  0  0  0  0  0  0  0  0  0  0
   -5.1190   20.4190  -32.7050 N   0  0  0  0  0  0  0  0  0  0  0  0
   -6.4190   20.0460  -32.5820 C   0  0  0  0  0  0  0  0  0  0  0  0
   -7.4800   20.9360  -32.4070 C   0  0  0  0  0  0  0  0  0  0  0  0
   -8.7820   20.4190  -32.2930 C   0  0  0  0  0  0  0  0  0  0  0  0
   -9.0070   19.0290  -32.3540 C   0  0  0  0  0  0  0  0  0  0  0  0
   -7.9310   18.1440  -32.5310 C   0  0  0  0  0  0  0  0  0  0  0  0
   -6.6510   18.6820  -32.6410 C   0  0  0  0  0  0  0  0  0  0  0  0
   -5.1920   17.8830  -32.8570 S   0  0  0  0  0  0  0  0  0  0  0  0
   -2.2800   20.4990  -33.8530 C   0  0  0  0  0  0  0  0  0  0  0  0
   -1.0180   21.0950  -33.1890 C   0  0  0  0  0  0  0  0  0  0  0  0
   -1.3750   23.0650  -29.7830 C   0  0  0  0  0  0  0  0  0  0  0  0
   -2.2410   24.1730  -29.7100 C   0  0  0  0  0  0  0  0  0  0  0  0
   -1.8860   25.3530  -29.0380 O   0  0  0  0  0  0  0  0  0  0  0  0
   -1.5580   25.4260  -27.6540 C   0  0  0  0  0  0  0  0  0  0  0  0
   -5.8415   25.1652  -28.8068 H   0  0  0  0  0  0  0  0  0  0  0  0
   -6.2451   26.0470  -30.3188 H   0  0  0  0  0  0  0  0  0  0  0  0
   -6.1686   24.2523  -30.3188 H   0  0  0  0  0  0  0  0  0  0  0  0
   -4.8684   22.8893  -31.4981 H   0  0  0  0  0  0  0  0  0  0  0  0
   -3.3186   20.9424  -31.6267 H   0  0  0  0  0  0  0  0  0  0  0  0
    0.7220   20.3320  -32.3860 H   0  0  0  0  0  0  0  0  0  0  0  0
   -0.2015   18.5523  -33.6291 H   0  0  0  0  0  0  0  0  0  0  0  0
    0.0073   18.1282  -31.8768 H   0  0  0  0  0  0  0  0  0  0  0  0
   -2.2141   17.4576  -33.0815 H   0  0  0  0  0  0  0  0  0  0  0  0
   -2.2803   18.2181  -31.4408 H   0  0  0  0  0  0  0  0  0  0  0  0
   -7.3007   22.0202  -32.3593 H   0  0  0  0  0  0  0  0  0  0  0  0
   -9.6315   21.1041  -32.1552 H   0  0  0  0  0  0  0  0  0  0  0  0
  -10.0301   18.6355  -32.2626 H   0  0  0  0  0  0  0  0  0  0  0  0
   -8.0944   17.0574  -32.5813 H   0  0  0  0  0  0  0  0  0  0  0  0
   -2.0015   20.0689  -34.8264 H   0  0  0  0  0  0  0  0  0  0  0  0
   -3.0172   21.3062  -33.9756 H   0  0  0  0  0  0  0  0  0  0  0  0
   -0.3204   21.3957  -33.9846 H   0  0  0  0  0  0  0  0  0  0  0  0
   -1.3577   21.9409  -32.5733 H   0  0  0  0  0  0  0  0  0  0  0  0
   -0.3893   23.1098  -29.2968 H   0  0  0  0  0  0  0  0  0  0  0  0
   -2.4573   25.2259  -27.0530 H   0  0  0  0  0  0  0  0  0  0  0  0
   -0.7866   24.6776  -27.4200 H   0  0  0  0  0  0  0  0  0  0  0  0
   -1.1768   26.4310  -27.4200 H   0  0  0  0  0  0  0  0  0  0  0  0
  1  2  1  0
  2  3  1  0
  3  4  2  0
  4  5  1  0
  5  6  2  0
  6  7  1  0
  7  8  2  0
  7  9  2  0
  7 10  1  0
 10 11  1  0
 11 12  1  0
 12 13  1  0
 13 14  1  0
 14 15  2  0
 15 16  1  0
 16 17  2  0
 17 18  1  0
 18 19  2  0
 19 20  1  0
 20 21  2  0
 21 22  1  0
 13 23  1  0
 23 24  1  0
  6 25  1  0
 25 26  2  0
 26 27  1  0
 27 28  1  0
 26  3  1  0
 24 10  1  0
 22 14  1  0
 21 16  1  0
  1 29  1  0
  1 30  1  0
  1 31  1  0
  4 32  1  0
  5 33  1  0
 10 34  1  0
 11 35  1  0
 11 36  1  0
 12 37  1  0
 12 38  1  0
 17 39  1  0
 18 40  1  0
 19 41  1  0
 20 42  1  0
 23 43  1  0
 23 44  1  0
 24 45  1  0
 24 46  1  0
 25 47  1  0
 28 48  1  0
 28 49  1  0
 28 50  1  0
M  CHG  1  10   1
M  END
>  <UniqueID>  (45) 
43

>  <SMILES>  (45) 
COc1ccc(S(=O)(=O)[NH+]2CCN(c3nc4ccccc4s3)CC2)cc1OC

>  <Energy>  (45) 
93.04168364881077

>  <Genealogy>  (45) 
COc1ccc(S(=O)(=O)[NH+]2CCN(c3nc4ccccc4s3)CC2)cc1OC (protonated)
COc1ccc(S(=O)(=O)[NH+]2CCN(c3nc4ccccc4s3)CC2)cc1OC (3D coordinates assigned)
COc1ccc(S(=O)(=O)[NH+]2CCN(c3nc4ccccc4s3)CC2)cc1OC (nonaromatic ring conformer: 93.04168364881077 kcal/mol)

>  <smiles>  (45) 
COc1ccc(S(=O)(=O)N2CCN(c3nc4ccccc4s3)CC2)cc1OC

>  <score_type>  (45) 
oracle

>  <origin>  (45) 
adgpu

>  <m_score__min__energy>  (45) 
-8.0500000000000007

>  <m_primary>  (45) 
energy

$$$$
45:0
     RDKit          3D

 31 33  0  0  0  0  0  0  0  0999 V2000
   -5.4560   24.5940  -29.4710 C   0  0  0  0  0  0  0  0  0  0  0  0
   -6.8280   24.7240  -30.1500 C   0  0  0  0  0  0  0  0  0  0  0  0
   -7.2360   23.5290  -30.9320 N   0  0  2  0  0  0  0  0  0  0  0  0
   -7.7190   22.4310  -30.0450 C   0  0  0  0  0  0  0  0  0  0  0  0
   -8.2270   21.2070  -30.8460 C   0  0  0  0  0  0  0  0  0  0  0  0
   -7.1800   20.8090  -31.8360 C   0  0  0  0  0  0  0  0  0  0  0  0
   -6.2430   21.6870  -32.3220 C   0  0  0  0  0  0  0  0  0  0  0  0
   -5.4560   21.1130  -33.2600 N   0  0  0  0  0  0  0  0  0  0  0  0
   -5.9220   19.8530  -33.3740 C   0  0  0  0  0  0  0  0  0  0  0  0
   -5.4600   18.8560  -34.2330 C   0  0  0  0  0  0  0  0  0  0  0  0
   -6.1120   17.6090  -34.2050 C   0  0  0  0  0  0  0  0  0  0  0  0
   -7.2020   17.3890  -33.3320 C   0  0  0  0  0  0  0  0  0  0  0  0
   -7.6520   18.4120  -32.4770 C   0  0  0  0  0  0  0  0  0  0  0  0
   -6.9830   19.6320  -32.5230 C   0  0  0  0  0  0  0  0  0  0  0  0
   -6.2030   23.0750  -31.8550 C   0  0  0  0  0  0  0  0  0  0  0  0
   -5.3650   23.8780  -32.3510 O   0  0  0  0  0  0  0  0  0  0  0  0
   -5.5849   24.6062  -28.3786 H   0  0  0  0  0  0  0  0  0  0  0  0
   -4.9851   23.6472  -29.7741 H   0  0  0  0  0  0  0  0  0  0  0  0
   -4.8157   25.4355  -29.7741 H   0  0  0  0  0  0  0  0  0  0  0  0
   -7.5835   24.9004  -29.3702 H   0  0  0  0  0  0  0  0  0  0  0  0
   -6.7497   25.5573  -30.8638 H   0  0  0  0  0  0  0  0  0  0  0  0
   -8.0480   23.8260  -31.5250 H   0  0  0  0  0  0  0  0  0  0  0  0
   -6.8904   22.1100  -29.3966 H   0  0  0  0  0  0  0  0  0  0  0  0
   -8.5626   22.8210  -29.4566 H   0  0  0  0  0  0  0  0  0  0  0  0
   -8.4223   20.3708  -30.1585 H   0  0  0  0  0  0  0  0  0  0  0  0
   -9.1583   21.4653  -31.3713 H   0  0  0  0  0  0  0  0  0  0  0  0
   -4.6760   21.5560  -33.7960 H   0  0  0  0  0  0  0  0  0  0  0  0
   -4.6130   19.0385  -34.9108 H   0  0  0  0  0  0  0  0  0  0  0  0
   -5.7710   16.7996  -34.8673 H   0  0  0  0  0  0  0  0  0  0  0  0
   -7.7027   16.4096  -33.3210 H   0  0  0  0  0  0  0  0  0  0  0  0
   -8.5018   18.2534  -31.7968 H   0  0  0  0  0  0  0  0  0  0  0  0
  1  2  1  0
  2  3  1  0
  3  4  1  0
  4  5  1  0
  5  6  1  0
  6  7  2  0
  7  8  1  0
  8  9  1  0
  9 10  2  0
 10 11  1  0
 11 12  2  0
 12 13  1  0
 13 14  2  0
  7 15  1  0
 15 16  2  0
 15  3  1  0
 14  6  1  0
 14  9  1  0
  1 17  1  0
  1 18  1  0
  1 19  1  0
  2 20  1  0
  2 21  1  0
  3 22  1  6
  4 23  1  0
  4 24  1  0
  5 25  1  0
  5 26  1  0
  8 27  1  0
 10 28  1  0
 11 29  1  0
 12 30  1  0
 13 31  1  0
M  CHG  1   3   1
M  END
>  <UniqueID>  (46) 
44

>  <SMILES>  (46) 
CC[N@@H+]1CCc2c([nH]c3ccccc23)C1=O

>  <Energy>  (46) 
74.62803389467769

>  <Genealogy>  (46) 
CC[NH+]1CCc2c([nH]c3ccccc23)C1=O (protonated)
CC[N@@H+]1CCc2c([nH]c3ccccc23)C1=O (chirality)
CC[N@@H+]1CCc2c([nH]c3ccccc23)C1=O (3D coordinates assigned)
CC[N@@H+]1CCc2c([nH]c3ccccc23)C1=O (nonaromatic ring conformer: 74.62803389467769 kcal/mol)

>  <smiles>  (46) 
CCN1CCc2c([nH]c3ccccc23)C1=O

>  <score_type>  (46) 
oracle

>  <origin>  (46) 
adgpu

>  <m_score__min__energy>  (46) 
-6.2999999999999998

>  <m_primary>  (46) 
energy

$$$$
46:0
     RDKit          3D

 46 49  0  0  0  0  0  0  0  0999 V2000
   -5.7990   26.0830  -30.0720 O   0  0  0  0  0  0  0  0  0  0  0  0
   -5.1230   25.0760  -30.4110 C   0  0  0  0  0  0  0  0  0  0  0  0
   -3.6950   25.2020  -30.4840 N   0  0  0  0  0  0  0  0  0  0  0  0
   -2.7400   24.4300  -29.7410 C   0  0  0  0  0  0  0  0  0  0  0  0
   -2.8110   23.0330  -29.8060 C   0  0  0  0  0  0  0  0  0  0  0  0
   -1.9190   22.2380  -29.0730 C   0  0  0  0  0  0  0  0  0  0  0  0
   -2.0490   20.4780  -29.1200 S   0  0  0  0  0  0  0  0  0  0  0  0
   -3.4530   20.0790  -28.7560 O   0  0  0  0  0  0  0  0  0  0  0  0
   -1.1210   19.8880  -28.0940 O   0  0  0  0  0  0  0  0  0  0  0  0
   -1.6700   19.8300  -30.7020 N   0  0  0  0  0  0  0  0  0  0  0  0
   -0.4820   20.4740  -31.2780 C   0  0  0  0  0  0  0  0  0  0  0  0
   -0.9320   21.4870  -32.3230 C   0  0  0  0  0  0  0  0  0  0  0  0
   -2.4320   21.3180  -32.4480 C   0  0  0  0  0  0  0  0  0  0  0  0
   -2.7660   20.0710  -31.6470 C   0  0  0  0  0  0  0  0  0  0  0  0
   -0.9310   22.8510  -28.2910 C   0  0  0  0  0  0  0  0  0  0  0  0
   -0.8290   24.2430  -28.2510 C   0  0  0  0  0  0  0  0  0  0  0  0
   -1.7180   25.0360  -28.9820 C   0  0  0  0  0  0  0  0  0  0  0  0
   -1.5600   26.4170  -28.9680 O   0  0  0  0  0  0  0  0  0  0  0  0
   -5.8220   23.8170  -30.7650 C   0  0  0  0  0  0  0  0  0  0  0  0
   -6.9760   23.4100  -30.0680 C   0  0  0  0  0  0  0  0  0  0  0  0
   -7.6350   22.2260  -30.4150 C   0  0  0  0  0  0  0  0  0  0  0  0
   -7.1400   21.4330  -31.4510 C   0  0  0  0  0  0  0  0  0  0  0  0
   -5.9670   21.8040  -32.1210 C   0  0  0  0  0  0  0  0  0  0  0  0
   -5.3160   22.9950  -31.7900 C   0  0  0  0  0  0  0  0  0  0  0  0
   -5.4640   20.9680  -33.1240 O   0  0  0  0  0  0  0  0  0  0  0  0
   -5.9530   19.6340  -33.2870 C   0  0  0  0  0  0  0  0  0  0  0  0
   -7.4690   19.5920  -33.0540 C   0  0  0  0  0  0  0  0  0  0  0  0
   -7.8010   20.2610  -31.8330 O   0  0  0  0  0  0  0  0  0  0  0  0
   -3.5738   22.5550  -30.4381 H   0  0  0  0  0  0  0  0  0  0  0  0
    0.0821   20.9866  -30.4848 H   0  0  0  0  0  0  0  0  0  0  0  0
    0.1647   19.7167  -31.7452 H   0  0  0  0  0  0  0  0  0  0  0  0
   -0.6883   22.5084  -31.9953 H   0  0  0  0  0  0  0  0  0  0  0  0
   -0.4262   21.3246  -33.2862 H   0  0  0  0  0  0  0  0  0  0  0  0
   -2.9537   22.1930  -32.0331 H   0  0  0  0  0  0  0  0  0  0  0  0
   -2.7471   21.2262  -33.4979 H   0  0  0  0  0  0  0  0  0  0  0  0
   -3.7065   20.2219  -31.0968 H   0  0  0  0  0  0  0  0  0  0  0  0
   -2.8877   19.2079  -32.3180 H   0  0  0  0  0  0  0  0  0  0  0  0
   -0.2332   22.2334  -27.7065 H   0  0  0  0  0  0  0  0  0  0  0  0
   -0.0457   24.7175  -27.6416 H   0  0  0  0  0  0  0  0  0  0  0  0
   -7.3622   24.0281  -29.2441 H   0  0  0  0  0  0  0  0  0  0  0  0
   -8.5417   21.9206  -29.8722 H   0  0  0  0  0  0  0  0  0  0  0  0
   -4.4056   23.2913  -32.3317 H   0  0  0  0  0  0  0  0  0  0  0  0
   -5.7328   19.2887  -34.3079 H   0  0  0  0  0  0  0  0  0  0  0  0
   -5.4594   18.9792  -32.5538 H   0  0  0  0  0  0  0  0  0  0  0  0
   -7.9791   20.0904  -33.8915 H   0  0  0  0  0  0  0  0  0  0  0  0
   -7.7926   18.5428  -32.9874 H   0  0  0  0  0  0  0  0  0  0  0  0
  1  2  2  0
  2  3  1  0
  3  4  1  0
  4  5  2  0
  5  6  1  0
  6  7  1  0
  7  8  2  0
  7  9  2  0
  7 10  1  0
 10 11  1  0
 11 12  1  0
 12 13  1  0
 13 14  1  0
  6 15  2  0
 15 16  1  0
 16 17  2  0
 17 18  1  0
  2 19  1  0
 19 20  2  0
 20 21  1  0
 21 22  2  0
 22 23  1  0
 23 24  2  0
 23 25  1  0
 25 26  1  0
 26 27  1  0
 27 28  1  0
 17  4  1  0
 24 19  1  0
 14 10  1  0
 28 22  1  0
  5 29  1  0
 11 30  1  0
 11 31  1  0
 12 32  1  0
 12 33  1  0
 13 34  1  0
 13 35  1  0
 14 36  1  0
 14 37  1  0
 15 38  1  0
 16 39  1  0
 20 40  1  0
 21 41  1  0
 24 42  1  0
 26 43  1  0
 26 44  1  0
 27 45  1  0
 27 46  1  0
M  CHG  2   3  -1  18  -1
M  END
>  <UniqueID>  (47) 
45

>  <SMILES>  (47) 
O=C([N-]c1cc(S(=O)(=O)N2CCCC2)ccc1[O-])c1ccc2c(c1)OCCO2

>  <Energy>  (47) 
57.41595595138335

>  <Genealogy>  (47) 
O=C([N-]c1cc(S(=O)(=O)N2CCCC2)ccc1[O-])c1ccc2c(c1)OCCO2 (protonated)
O=C([N-]c1cc(S(=O)(=O)N2CCCC2)ccc1[O-])c1ccc2c(c1)OCCO2 (3D coordinates assigned)
O=C([N-]c1cc(S(=O)(=O)N2CCCC2)ccc1[O-])c1ccc2c(c1)OCCO2 (nonaromatic ring conformer: 57.41595595138335 kcal/mol)

>  <smiles>  (47) 
O=C(Nc1cc(S(=O)(=O)N2CCCC2)ccc1O)c1ccc2c(c1)OCCO2

>  <score_type>  (47) 
oracle

>  <origin>  (47) 
adgpu

>  <m_score__min__energy>  (47) 
-13.42

>  <m_primary>  (47) 
energy

$$$$
47:0
     RDKit          3D

 41 42  0  0  0  0  0  0  0  0999 V2000
   -3.3450   18.7910  -26.2920 C   0  0  0  0  0  0  0  0  0  0  0  0
   -2.9020   19.7420  -27.3970 C   0  0  0  0  0  0  0  0  0  0  0  0
   -1.3900   20.5840  -26.9560 S   0  0  0  0  0  0  0  0  0  0  0  0
   -1.2860   20.6950  -25.4610 O   0  0  0  0  0  0  0  0  0  0  0  0
   -0.2170   19.7880  -27.4580 O   0  0  0  0  0  0  0  0  0  0  0  0
   -1.3580   22.1890  -27.6800 C   0  0  0  0  0  0  0  0  0  0  0  0
   -0.1400   22.8550  -27.8590 C   0  0  0  0  0  0  0  0  0  0  0  0
   -0.1140   24.1290  -28.4300 C   0  0  0  0  0  0  0  0  0  0  0  0
   -1.3000   24.7420  -28.8440 C   0  0  0  0  0  0  0  0  0  0  0  0
   -1.2510   26.0360  -29.3500 O   0  0  0  0  0  0  0  0  0  0  0  0
   -2.5260   24.0560  -28.7180 C   0  0  0  0  0  0  0  0  0  0  0  0
   -3.7680   24.6230  -29.1610 N   0  0  0  0  0  0  0  0  0  0  0  0
   -4.3100   24.5470  -30.4860 C   0  0  0  0  0  0  0  0  0  0  0  0
   -4.6370   25.6140  -31.0680 O   0  0  0  0  0  0  0  0  0  0  0  0
   -4.5020   23.2640  -31.1920 C   0  0  0  0  0  0  0  0  0  0  0  0
   -3.4920   22.6150  -31.8000 N   0  0  0  0  0  0  0  0  0  0  0  0
   -3.9930   21.4730  -32.3060 C   0  0  0  0  0  0  0  0  0  0  0  0
   -3.1530   20.4660  -33.0310 C   0  0  0  0  0  0  0  0  0  0  0  0
   -5.3560   21.3840  -32.0390 C   0  0  0  0  0  0  0  0  0  0  0  0
   -6.2730   20.2800  -32.4070 C   0  0  0  0  0  0  0  0  0  0  0  0
   -7.2090   20.4360  -33.4710 N   0  0  0  0  0  0  0  0  0  0  0  0
   -6.2310   19.1850  -31.7850 O   0  0  0  0  0  0  0  0  0  0  0  0
   -5.6840   22.5450  -31.3410 C   0  0  0  0  0  0  0  0  0  0  0  0
   -7.0590   22.9590  -30.9030 C   0  0  0  0  0  0  0  0  0  0  0  0
   -2.5470   22.7960  -28.1050 C   0  0  0  0  0  0  0  0  0  0  0  0
   -3.1340   19.2439  -25.3120 H   0  0  0  0  0  0  0  0  0  0  0  0
   -4.4245   18.6005  -26.3831 H   0  0  0  0  0  0  0  0  0  0  0  0
   -2.7963   17.8420  -26.3831 H   0  0  0  0  0  0  0  0  0  0  0  0
   -2.7366   19.1673  -28.3202 H   0  0  0  0  0  0  0  0  0  0  0  0
   -3.6899   20.4952  -27.5452 H   0  0  0  0  0  0  0  0  0  0  0  0
    0.7992   22.3735  -27.5490 H   0  0  0  0  0  0  0  0  0  0  0  0
    0.8451   24.6531  -28.5547 H   0  0  0  0  0  0  0  0  0  0  0  0
   -2.4950   22.9270  -31.8440 H   0  0  0  0  0  0  0  0  0  0  0  0
   -2.6260   19.8343  -32.3008 H   0  0  0  0  0  0  0  0  0  0  0  0
   -3.7979   19.8369  -33.6622 H   0  0  0  0  0  0  0  0  0  0  0  0
   -2.4185   20.9876  -33.6622 H   0  0  0  0  0  0  0  0  0  0  0  0
   -7.2580   19.7400  -34.2490 H   0  0  0  0  0  0  0  0  0  0  0  0
   -7.1051   22.9729  -29.8041 H   0  0  0  0  0  0  0  0  0  0  0  0
   -7.2807   23.9637  -31.2920 H   0  0  0  0  0  0  0  0  0  0  0  0
   -7.7986   22.2437  -31.2920 H   0  0  0  0  0  0  0  0  0  0  0  0
   -3.5062   22.2786  -27.9561 H   0  0  0  0  0  0  0  0  0  0  0  0
  1  2  1  0
  2  3  1  0
  3  4  2  0
  3  5  2  0
  3  6  1  0
  6  7  2  0
  7  8  1  0
  8  9  2  0
  9 10  1  0
  9 11  1  0
 11 12  1  0
 12 13  1  0
 13 14  2  0
 13 15  1  0
 15 16  1  0
 16 17  1  0
 17 18  1  0
 17 19  2  0
 19 20  1  0
 20 21  1  0
 20 22  2  0
 19 23  1  0
 23 24  1  0
 11 25  2  0
 25  6  1  0
 23 15  2  0
  1 26  1  0
  1 27  1  0
  1 28  1  0
  2 29  1  0
  2 30  1  0
  7 31  1  0
  8 32  1  0
 16 33  1  0
 18 34  1  0
 18 35  1  0
 18 36  1  0
 21 37  1  0
 24 38  1  0
 24 39  1  0
 24 40  1  0
 25 41  1  0
M  CHG  3  10  -1  12  -1  21  -1
M  END
>  <UniqueID>  (48) 
46

>  <SMILES>  (48) 
CCS(=O)(=O)c1ccc([O-])c([N-]C(=O)c2[nH]c(C)c(C([NH-])=O)c2C)c1

>  <Energy>  (48) 
68.52707874895015

>  <Genealogy>  (48) 
CCS(=O)(=O)c1ccc([O-])c([N-]C(=O)c2[nH]c(C)c(C([NH-])=O)c2C)c1 (protonated)
CCS(=O)(=O)c1ccc([O-])c([N-]C(=O)c2[nH]c(C)c(C([NH-])=O)c2C)c1 (3D coordinates assigned)
CCS(=O)(=O)c1ccc([O-])c([N-]C(=O)c2[nH]c(C)c(C([NH-])=O)c2C)c1 (optimized conformer: 68.52707874895015 kcal/mol)

>  <smiles>  (48) 
CCS(=O)(=O)c1ccc(O)c(NC(=O)c2[nH]c(C)c(C(N)=O)c2C)c1

>  <score_type>  (48) 
oracle

>  <origin>  (48) 
adgpu

>  <m_score__min__energy>  (48) 
-12.4

>  <m_primary>  (48) 
energy

$$$$
48:0
     RDKit          3D

 71 75  0  0  0  0  0  0  0  0999 V2000
   -5.4850   26.3630  -30.4190 O   0  0  0  0  0  0  0  0  0  0  0  0
   -4.8420   25.2790  -30.4130 C   0  0  0  0  0  0  0  0  0  0  0  0
   -3.4820   25.2950  -29.9530 N   0  0  0  0  0  0  0  0  0  0  0  0
   -2.8910   24.4660  -28.9380 C   0  0  0  0  0  0  0  0  0  0  0  0
   -3.5320   23.2720  -28.5860 C   0  0  0  0  0  0  0  0  0  0  0  0
   -2.9680   22.4210  -27.6320 C   0  0  0  0  0  0  0  0  0  0  0  0
   -1.7520   22.7520  -27.0290 C   0  0  0  0  0  0  0  0  0  0  0  0
   -1.1120   23.9550  -27.3540 C   0  0  0  0  0  0  0  0  0  0  0  0
    0.4370   24.3730  -26.6260 S   0  0  0  0  0  0  0  0  0  0  0  0
    1.1350   25.3550  -27.5270 O   0  0  0  0  0  0  0  0  0  0  0  0
    1.2920   23.1410  -26.5100 O   0  0  0  0  0  0  0  0  0  0  0  0
    0.1740   25.0890  -25.0500 N   0  0  0  0  0  0  0  0  0  0  0  0
   -1.2510   25.3530  -24.8170 C   0  0  0  0  0  0  0  0  0  0  0  0
   -1.5340   26.7800  -25.2690 C   0  0  0  0  0  0  0  0  0  0  0  0
   -0.1780   27.4640  -25.3290 C   0  0  0  0  0  0  0  0  0  0  0  0
    0.8390   26.3960  -24.9460 C   0  0  0  0  0  0  0  0  0  0  0  0
   -1.7030   24.8270  -28.2790 C   0  0  0  0  0  0  0  0  0  0  0  0
   -5.5350   24.0340  -30.8220 C   0  0  0  0  0  0  0  0  0  0  0  0
   -6.8930   23.8530  -30.5130 C   0  0  0  0  0  0  0  0  0  0  0  0
   -7.5680   22.7090  -30.9460 C   0  0  0  0  0  0  0  0  0  0  0  0
   -6.8980   21.7410  -31.6990 C   0  0  0  0  0  0  0  0  0  0  0  0
   -5.5390   21.8990  -32.0020 C   0  0  0  0  0  0  0  0  0  0  0  0
   -4.7050   20.7150  -33.0110 S   0  0  0  0  0  0  0  0  0  0  0  0
   -5.7200   19.8910  -33.7580 O   0  0  0  0  0  0  0  0  0  0  0  0
   -3.8620   21.4490  -34.0190 O   0  0  0  0  0  0  0  0  0  0  0  0
   -3.6900   19.7030  -31.9940 N   0  0  0  0  0  0  0  0  0  0  0  0
   -2.8660   20.5020  -31.0620 C   0  0  0  0  0  0  0  0  0  0  0  0
   -1.6410   21.1040  -31.7640 C   0  0  0  0  0  0  0  0  0  0  0  0
   -0.9220   20.0720  -32.5150 N   0  0  0  0  0  0  0  0  0  0  0  0
    0.0970   20.4560  -33.4480 C   0  0  0  0  0  0  0  0  0  0  0  0
   -0.2620   21.2670  -34.5350 C   0  0  0  0  0  0  0  0  0  0  0  0
    0.6970   21.6690  -35.4650 C   0  0  0  0  0  0  0  0  0  0  0  0
    2.0240   21.2720  -35.3130 C   0  0  0  0  0  0  0  0  0  0  0  0
    2.3960   20.4620  -34.2380 C   0  0  0  0  0  0  0  0  0  0  0  0
    1.4380   20.0200  -33.3040 C   0  0  0  0  0  0  0  0  0  0  0  0
    1.8750   19.1630  -32.1350 C   0  0  0  0  0  0  0  0  0  0  0  0
    1.3570   19.6880  -30.9660 F   0  0  0  0  0  0  0  0  0  0  0  0
    1.4350   17.8610  -32.2850 F   0  0  0  0  0  0  0  0  0  0  0  0
    3.2560   19.1320  -32.0320 F   0  0  0  0  0  0  0  0  0  0  0  0
   -1.4180   18.6950  -32.5050 C   0  0  0  0  0  0  0  0  0  0  0  0
   -2.9280   18.6940  -32.7820 C   0  0  0  0  0  0  0  0  0  0  0  0
   -4.8540   23.0270  -31.5270 C   0  0  0  0  0  0  0  0  0  0  0  0
   -4.4855   23.0022  -29.0635 H   0  0  0  0  0  0  0  0  0  0  0  0
   -3.4823   21.4888  -27.3553 H   0  0  0  0  0  0  0  0  0  0  0  0
   -1.2967   22.0673  -26.2983 H   0  0  0  0  0  0  0  0  0  0  0  0
    0.5460   24.4350  -24.3220 H   0  0  0  0  0  0  0  0  0  0  0  0
   -1.8632   24.6471  -25.3974 H   0  0  0  0  0  0  0  0  0  0  0  0
   -1.4984   25.2283  -23.7525 H   0  0  0  0  0  0  0  0  0  0  0  0
   -2.0096   26.7818  -26.2609 H   0  0  0  0  0  0  0  0  0  0  0  0
   -2.2213   27.2965  -24.5828 H   0  0  0  0  0  0  0  0  0  0  0  0
    0.0198   27.8352  -26.3454 H   0  0  0  0  0  0  0  0  0  0  0  0
   -0.1302   28.3312  -24.6540 H   0  0  0  0  0  0  0  0  0  0  0  0
    1.6989   26.4345  -25.6309 H   0  0  0  0  0  0  0  0  0  0  0  0
    1.2054   26.5619  -23.9222 H   0  0  0  0  0  0  0  0  0  0  0  0
   -1.2343   25.7995  -28.4904 H   0  0  0  0  0  0  0  0  0  0  0  0
   -7.4276   24.6154  -29.9274 H   0  0  0  0  0  0  0  0  0  0  0  0
   -8.6296   22.5699  -30.6936 H   0  0  0  0  0  0  0  0  0  0  0  0
   -7.4392   20.8520  -32.0551 H   0  0  0  0  0  0  0  0  0  0  0  0
   -3.4797   21.3181  -30.6529 H   0  0  0  0  0  0  0  0  0  0  0  0
   -2.5110   19.8373  -30.2606 H   0  0  0  0  0  0  0  0  0  0  0  0
   -1.9715   21.8919  -32.4568 H   0  0  0  0  0  0  0  0  0  0  0  0
   -0.9669   21.5260  -31.0041 H   0  0  0  0  0  0  0  0  0  0  0  0
   -1.3072   21.5882  -34.6549 H   0  0  0  0  0  0  0  0  0  0  0  0
    0.4057   22.2993  -36.3182 H   0  0  0  0  0  0  0  0  0  0  0  0
    2.7807   21.5976  -36.0419 H   0  0  0  0  0  0  0  0  0  0  0  0
    3.4486   20.1657  -34.1190 H   0  0  0  0  0  0  0  0  0  0  0  0
   -0.9019   18.1135  -33.2832 H   0  0  0  0  0  0  0  0  0  0  0  0
   -1.2250   18.2424  -31.5212 H   0  0  0  0  0  0  0  0  0  0  0  0
   -3.0835   18.9009  -33.8511 H   0  0  0  0  0  0  0  0  0  0  0  0
   -3.3056   17.7053  -32.4822 H   0  0  0  0  0  0  0  0  0  0  0  0
   -3.7734   23.1244  -31.7081 H   0  0  0  0  0  0  0  0  0  0  0  0
  1  2  2  0
  2  3  1  0
  3  4  1  0
  4  5  2  0
  5  6  1  0
  6  7  2  0
  7  8  1  0
  8  9  1  0
  9 10  2  0
  9 11  2  0
  9 12  1  0
 12 13  1  0
 13 14  1  0
 14 15  1  0
 15 16  1  0
  8 17  2  0
  2 18  1  0
 18 19  2  0
 19 20  1  0
 20 21  2  0
 21 22  1  0
 22 23  1  0
 23 24  2  0
 23 25  2  0
 23 26  1  0
 26 27  1  0
 27 28  1  0
 28 29  1  0
 29 30  1  0
 30 31  2  0
 31 32  1  0
 32 33  2  0
 33 34  1  0
 34 35  2  0
 35 36  1  0
 36 37  1  0
 36 38  1  0
 36 39  1  0
 29 40  1  0
 40 41  1  0
 22 42  2  0
 17  4  1  0
 42 18  1  0
 16 12  1  0
 41 26  1  0
 35 30  1  0
  5 43  1  0
  6 44  1  0
  7 45  1  0
 12 46  1  0
 13 47  1  0
 13 48  1  0
 14 49  1  0
 14 50  1  0
 15 51  1  0
 15 52  1  0
 16 53  1  0
 16 54  1  0
 17 55  1  0
 19 56  1  0
 20 57  1  0
 21 58  1  0
 27 59  1  0
 27 60  1  0
 28 61  1  0
 28 62  1  0
 31 63  1  0
 32 64  1  0
 33 65  1  0
 34 66  1  0
 40 67  1  0
 40 68  1  0
 41 69  1  0
 41 70  1  0
 42 71  1  0
M  CHG  2   3  -1  12   1
M  END
>  <UniqueID>  (49) 
47

>  <SMILES>  (49) 
O=C([N-]c1cccc(S(=O)(=O)[NH+]2CCCC2)c1)c1cccc(S(=O)(=O)N2CCN(c3ccccc3C(F)(F)F)CC2)c1

>  <Energy>  (49) 
95.62848690396139

>  <Genealogy>  (49) 
O=C([N-]c1cccc(S(=O)(=O)[NH+]2CCCC2)c1)c1cccc(S(=O)(=O)N2CCN(c3ccccc3C(F)(F)F)CC2)c1 (protonated)
O=C([N-]c1cccc(S(=O)(=O)[NH+]2CCCC2)c1)c1cccc(S(=O)(=O)N2CCN(c3ccccc3C(F)(F)F)CC2)c1 (3D coordinates assigned)
O=C([N-]c1cccc(S(=O)(=O)[NH+]2CCCC2)c1)c1cccc(S(=O)(=O)N2CCN(c3ccccc3C(F)(F)F)CC2)c1 (nonaromatic ring conformer: 95.62848690396139 kcal/mol)

>  <smiles>  (49) 
O=C(Nc1cccc(S(=O)(=O)N2CCCC2)c1)c1cccc(S(=O)(=O)N2CCN(c3ccccc3C(F)(F)F)CC2)c1

>  <score_type>  (49) 
oracle

>  <origin>  (49) 
adgpu

>  <m_score__min__energy>  (49) 
-13.039999999999999

>  <m_primary>  (49) 
energy

$$$$
49:0
     RDKit          3D

 56 60  0  0  0  0  0  0  0  0999 V2000
   -5.9610   26.0900  -29.9100 O   0  0  0  0  0  0  0  0  0  0  0  0
   -5.2510   25.1580  -30.3740 C   0  0  0  0  0  0  0  0  0  0  0  0
   -3.8250   25.3030  -30.4330 N   0  0  0  0  0  0  0  0  0  0  0  0
   -2.8480   24.3680  -29.9500 C   0  0  0  0  0  0  0  0  0  0  0  0
   -2.9880   22.9810  -30.1510 C   0  0  0  0  0  0  0  0  0  0  0  0
   -2.0190   22.0930  -29.6640 C   0  0  0  0  0  0  0  0  0  0  0  0
   -2.2220   20.3580  -29.8740 S   0  0  0  0  0  0  0  0  0  0  0  0
   -2.1720   19.6980  -28.5270 O   0  0  0  0  0  0  0  0  0  0  0  0
   -3.5440   20.0550  -30.5200 O   0  0  0  0  0  0  0  0  0  0  0  0
   -0.9500   19.7200  -30.8620 N   0  0  0  0  0  0  0  0  0  0  0  0
   -0.7310   20.0530  -32.2390 C   0  0  0  0  0  0  0  0  0  0  0  0
   -1.4400   19.3290  -33.2280 C   0  0  0  0  0  0  0  0  0  0  0  0
   -1.2750   19.6240  -34.5940 C   0  0  0  0  0  0  0  0  0  0  0  0
   -0.3900   20.6430  -34.9320 C   0  0  0  0  0  0  0  0  0  0  0  0
   -0.0860   21.0900  -36.1590 N   0  0  0  0  0  0  0  0  0  0  0  0
    0.8020   22.0800  -35.8880 C   0  0  0  0  0  0  0  0  0  0  0  0
    1.3370   22.7710  -36.7930 O   0  0  0  0  0  0  0  0  0  0  0  0
    1.0700   22.2740  -34.5700 N   0  0  0  0  0  0  0  0  0  0  0  0
    0.2980   21.3430  -33.9890 C   0  0  0  0  0  0  0  0  0  0  0  0
    0.1570   21.0840  -32.6290 C   0  0  0  0  0  0  0  0  0  0  0  0
   -0.9100   22.5890  -28.9690 C   0  0  0  0  0  0  0  0  0  0  0  0
   -0.7810   23.9630  -28.7400 C   0  0  0  0  0  0  0  0  0  0  0  0
   -1.7540   24.8480  -29.2140 C   0  0  0  0  0  0  0  0  0  0  0  0
   -1.6200   26.2110  -28.9590 O   0  0  0  0  0  0  0  0  0  0  0  0
   -5.8830   23.8920  -30.8040 C   0  0  0  0  0  0  0  0  0  0  0  0
   -5.4670   23.2450  -31.9820 C   0  0  0  0  0  0  0  0  0  0  0  0
   -6.0700   22.0510  -32.3870 C   0  0  0  0  0  0  0  0  0  0  0  0
   -7.0990   21.4860  -31.6240 C   0  0  0  0  0  0  0  0  0  0  0  0
   -7.8490   19.9660  -32.1070 S   0  0  0  0  0  0  0  0  0  0  0  0
   -8.8210   20.2060  -33.2300 O   0  0  0  0  0  0  0  0  0  0  0  0
   -8.5980   19.3970  -30.9340 O   0  0  0  0  0  0  0  0  0  0  0  0
   -6.6070   18.8430  -32.6060 N   0  0  0  0  0  0  0  0  0  0  0  0
   -6.0690   19.1960  -33.9180 C   0  0  0  0  0  0  0  0  0  0  0  0
   -5.5610   17.9030  -34.5390 C   0  0  0  0  0  0  0  0  0  0  0  0
   -6.2710   16.7880  -33.7860 C   0  0  0  0  0  0  0  0  0  0  0  0
   -7.1420   17.4890  -32.7520 C   0  0  0  0  0  0  0  0  0  0  0  0
   -7.5160   22.1190  -30.4480 C   0  0  0  0  0  0  0  0  0  0  0  0
   -6.9170   23.3150  -30.0400 C   0  0  0  0  0  0  0  0  0  0  0  0
   -3.8627   22.5925  -30.6932 H   0  0  0  0  0  0  0  0  0  0  0  0
   -2.1282   18.5262  -32.9248 H   0  0  0  0  0  0  0  0  0  0  0  0
   -1.8262   19.0687  -35.3672 H   0  0  0  0  0  0  0  0  0  0  0  0
    0.7182   21.6625  -31.8804 H   0  0  0  0  0  0  0  0  0  0  0  0
   -0.1380   21.8967  -28.6020 H   0  0  0  0  0  0  0  0  0  0  0  0
    0.0878   24.3479  -28.1858 H   0  0  0  0  0  0  0  0  0  0  0  0
   -4.6607   23.6824  -32.5891 H   0  0  0  0  0  0  0  0  0  0  0  0
   -5.7348   21.5532  -33.3089 H   0  0  0  0  0  0  0  0  0  0  0  0
   -6.8578   19.6352  -34.5465 H   0  0  0  0  0  0  0  0  0  0  0  0
   -5.2625   19.9388  -33.8304 H   0  0  0  0  0  0  0  0  0  0  0  0
   -5.8120   17.8653  -35.6093 H   0  0  0  0  0  0  0  0  0  0  0  0
   -4.4670   17.8152  -34.4646 H   0  0  0  0  0  0  0  0  0  0  0  0
   -6.8917   16.1942  -34.4731 H   0  0  0  0  0  0  0  0  0  0  0  0
   -5.5588   16.0930  -33.3173 H   0  0  0  0  0  0  0  0  0  0  0  0
   -8.1854   17.5281  -33.0980 H   0  0  0  0  0  0  0  0  0  0  0  0
   -7.1302   16.9514  -31.7924 H   0  0  0  0  0  0  0  0  0  0  0  0
   -8.3186   21.6739  -29.8416 H   0  0  0  0  0  0  0  0  0  0  0  0
   -7.2551   23.8085  -29.1169 H   0  0  0  0  0  0  0  0  0  0  0  0
  1  2  2  0
  2  3  1  0
  3  4  1  0
  4  5  2  0
  5  6  1  0
  6  7  1  0
  7  8  2  0
  7  9  2  0
  7 10  1  0
 10 11  1  0
 11 12  2  0
 12 13  1  0
 13 14  2  0
 14 15  1  0
 15 16  1  0
 16 17  2  0
 16 18  1  0
 18 19  1  0
 19 20  2  0
  6 21  2  0
 21 22  1  0
 22 23  2  0
 23 24  1  0
  2 25  1  0
 25 26  2  0
 26 27  1  0
 27 28  2  0
 28 29  1  0
 29 30  2  0
 29 31  2  0
 29 32  1  0
 32 33  1  0
 33 34  1  0
 34 35  1  0
 35 36  1  0
 28 37  1  0
 37 38  2  0
 23  4  1  0
 38 25  1  0
 20 11  1  0
 36 32  1  0
 19 14  1  0
  5 39  1  0
 12 40  1  0
 13 41  1  0
 20 42  1  0
 21 43  1  0
 22 44  1  0
 26 45  1  0
 27 46  1  0
 33 47  1  0
 33 48  1  0
 34 49  1  0
 34 50  1  0
 35 51  1  0
 35 52  1  0
 36 53  1  0
 36 54  1  0
 37 55  1  0
 38 56  1  0
M  CHG  5   3  -1  10  -1  15  -1  18  -1  24  -1
M  END
>  <UniqueID>  (50) 
48

>  <SMILES>  (50) 
O=C([N-]c1cc(S(=O)(=O)[N-]c2ccc3[n-]c(=O)[n-]c3c2)ccc1[O-])c1ccc(S(=O)(=O)N2CCCC2)cc1

>  <Energy>  (50) 
105.22193057370178

>  <Genealogy>  (50) 
O=C([N-]c1cc(S(=O)(=O)[N-]c2ccc3[n-]c(=O)[n-]c3c2)ccc1[O-])c1ccc(S(=O)(=O)N2CCCC2)cc1 (protonated)
O=C([N-]c1cc(S(=O)(=O)[N-]c2ccc3[n-]c(=O)[n-]c3c2)ccc1[O-])c1ccc(S(=O)(=O)N2CCCC2)cc1 (3D coordinates assigned)
O=C([N-]c1cc(S(=O)(=O)[N-]c2ccc3[n-]c(=O)[n-]c3c2)ccc1[O-])c1ccc(S(=O)(=O)N2CCCC2)cc1 (nonaromatic ring conformer: 105.22193057370178 kcal/mol)

>  <smiles>  (50) 
O=C(Nc1cc(S(=O)(=O)Nc2ccc3[nH]c(=O)[nH]c3c2)ccc1O)c1ccc(S(=O)(=O)N2CCCC2)cc1

>  <score_type>  (50) 
oracle

>  <origin>  (50) 
adgpu

>  <m_score__min__energy>  (50) 
-17.550000000000001

>  <m_primary>  (50) 
energy

$$$$
