0:0
     RDKit          3D

 47 49  0  0  0  0  0  0  0  0999 V2000
   -6.4140   17.2560  -34.1600 C   0  0  0  0  0  0  0  0  0  0  0  0
   -6.3930   18.6960  -33.8650 N   0  0  0  0  0  0  0  0  0  0  0  0
   -5.0150   19.2080  -33.8810 C   0  0  0  0  0  0  0  0  0  0  0  0
   -7.1380   19.0080  -32.3160 S   0  0  0  0  0  0  0  0  0  0  0  0
   -6.2640   18.4620  -31.2200 O   0  0  0  0  0  0  0  0  0  0  0  0
   -8.4640   18.3030  -32.2460 O   0  0  0  0  0  0  0  0  0  0  0  0
   -7.3810   20.7360  -32.0580 C   0  0  0  0  0  0  0  0  0  0  0  0
   -8.6700   21.2440  -31.8480 C   0  0  0  0  0  0  0  0  0  0  0  0
   -8.8580   22.6080  -31.6210 C   0  0  0  0  0  0  0  0  0  0  0  0
   -7.7630   23.4770  -31.6110 C   0  0  0  0  0  0  0  0  0  0  0  0
   -6.4670   22.9830  -31.8450 C   0  0  0  0  0  0  0  0  0  0  0  0
   -5.3100   23.8320  -31.8150 N   0  0  0  0  0  0  0  0  0  0  0  0
   -4.8050   24.5510  -30.6830 C   0  0  0  0  0  0  0  0  0  0  0  0
   -4.2020   25.6490  -30.8280 O   0  0  0  0  0  0  0  0  0  0  0  0
   -4.9740   23.9770  -29.3170 C   0  0  0  0  0  0  0  0  0  0  0  0
   -3.5460   22.9160  -28.9250 S   0  0  0  0  0  0  0  0  0  0  0  0
   -2.5430   24.2860  -28.3620 C   0  0  0  0  0  0  0  0  0  0  0  0
   -1.8360   25.0860  -29.1900 N   0  0  0  0  0  0  0  0  0  0  0  0
   -1.1640   26.0380  -28.5460 N   0  0  0  0  0  0  0  0  0  0  0  0
   -1.3460   25.9960  -27.2070 C   0  0  0  0  0  0  0  0  0  0  0  0
   -0.7690   26.7980  -26.3610 N   0  0  0  0  0  0  0  0  0  0  0  0
    0.0720   27.9210  -26.6770 C   0  0  0  0  0  0  0  0  0  0  0  0
    1.4790   27.8310  -26.6690 C   0  0  0  0  0  0  0  0  0  0  0  0
    2.2580   28.9380  -27.0220 C   0  0  0  0  0  0  0  0  0  0  0  0
    1.6440   30.1330  -27.4050 C   0  0  0  0  0  0  0  0  0  0  0  0
    0.2490   30.2200  -27.4440 C   0  0  0  0  0  0  0  0  0  0  0  0
   -0.5320   29.1150  -27.0910 C   0  0  0  0  0  0  0  0  0  0  0  0
   -2.3560   24.7330  -26.7490 S   0  0  0  0  0  0  0  0  0  0  0  0
   -6.2840   21.6090  -32.0480 C   0  0  0  0  0  0  0  0  0  0  0  0
   -6.4223   16.6887  -33.2176 H   0  0  0  0  0  0  0  0  0  0  0  0
   -7.3158   17.0140  -34.7416 H   0  0  0  0  0  0  0  0  0  0  0  0
   -5.5197   16.9878  -34.7416 H   0  0  0  0  0  0  0  0  0  0  0  0
   -6.9460   19.1970  -34.5990 H   0  0  0  0  0  0  0  0  0  0  0  0
   -4.6607   19.3396  -32.8480 H   0  0  0  0  0  0  0  0  0  0  0  0
   -4.3638   18.4918  -34.4035 H   0  0  0  0  0  0  0  0  0  0  0  0
   -4.9894   20.1756  -34.4035 H   0  0  0  0  0  0  0  0  0  0  0  0
   -9.5359   20.5658  -31.8621 H   0  0  0  0  0  0  0  0  0  0  0  0
   -9.8711   23.0007  -31.4494 H   0  0  0  0  0  0  0  0  0  0  0  0
   -7.9153   24.5495  -31.4197 H   0  0  0  0  0  0  0  0  0  0  0  0
   -5.0380   24.7926  -28.5816 H   0  0  0  0  0  0  0  0  0  0  0  0
   -5.8966   23.3790  -29.2815 H   0  0  0  0  0  0  0  0  0  0  0  0
    1.9660   26.8867  -26.3841 H   0  0  0  0  0  0  0  0  0  0  0  0
    3.3555   28.8675  -26.9980 H   0  0  0  0  0  0  0  0  0  0  0  0
    2.2576   31.0049  -27.6757 H   0  0  0  0  0  0  0  0  0  0  0  0
   -0.2346   31.1586  -27.7527 H   0  0  0  0  0  0  0  0  0  0  0  0
   -1.6288   29.1840  -27.1388 H   0  0  0  0  0  0  0  0  0  0  0  0
   -5.2699   21.2113  -32.2010 H   0  0  0  0  0  0  0  0  0  0  0  0
  1  2  1  0
  2  3  1  0
  2  4  1  0
  4  5  2  0
  4  6  2  0
  4  7  1  0
  7  8  2  0
  8  9  1  0
  9 10  2  0
 10 11  1  0
 11 12  1  0
 12 13  1  0
 13 14  2  0
 13 15  1  0
 15 16  1  0
 16 17  1  0
 17 18  2  0
 18 19  1  0
 19 20  1  0
 20 21  2  3
 21 22  1  0
 22 23  2  0
 23 24  1  0
 24 25  2  0
 25 26  1  0
 26 27  2  0
 20 28  1  0
 11 29  2  0
 29  7  1  0
 28 17  1  0
 27 22  1  0
  1 30  1  0
  1 31  1  0
  1 32  1  0
  2 33  1  0
  3 34  1  0
  3 35  1  0
  3 36  1  0
  8 37  1  0
  9 38  1  0
 10 39  1  0
 15 40  1  0
 15 41  1  0
 23 42  1  0
 24 43  1  0
 25 44  1  0
 26 45  1  0
 27 46  1  0
 29 47  1  0
M  CHG  3   2   1  12  -1  19  -1
M  END
>  <UniqueID>  (1) 
1

>  <SMILES>  (1) 
C[NH+](C)S(=O)(=O)c1cccc([N-]C(=O)CSc2n[n-]c(=Nc3ccccc3)s2)c1

>  <Energy>  (1) 
84.84918178817661

>  <Genealogy>  (1) 
C[NH+](C)S(=O)(=O)c1cccc([N-]C(=O)CSc2n[n-]c(=Nc3ccccc3)s2)c1 (protonated)
C[NH+](C)S(=O)(=O)c1cccc([N-]C(=O)CSc2n[n-]c(=Nc3ccccc3)s2)c1 (3D coordinates assigned)
C[NH+](C)S(=O)(=O)c1cccc([N-]C(=O)CSc2n[n-]c(=Nc3ccccc3)s2)c1 (optimized conformer: 84.84918178817661 kcal/mol)

>  <smiles>  (1) 
CN(C)S(=O)(=O)c1cccc(NC(=O)CSc2n[nH]c(=Nc3ccccc3)s2)c1

>  <score_type>  (1) 
oracle

>  <origin>  (1) 
adgpu

>  <m_score__min__energy>  (1) 
-11.15

>  <m_primary>  (1) 
energy

$$$$
1:0
     RDKit          3D

 35 36  0  0  0  0  0  0  0  0999 V2000
   -8.3567   23.6476  -31.4927 H   0  0  0  0  0  0  0  0  0  0  0  0
   -7.2840   23.4230  -31.5870 C   0  0  0  0  0  0  0  0  0  0  0  0
   -6.3430   24.2370  -30.9510 C   0  0  0  0  0  0  0  0  0  0  0  0
   -6.6770   25.0890  -30.3406 H   0  0  0  0  0  0  0  0  0  0  0  0
   -4.9720   23.9690  -31.0900 C   0  0  0  0  0  0  0  0  0  0  0  0
   -3.9970   24.7560  -30.3920 N   0  0  0  0  0  0  0  0  0  0  0  0
   -3.1680   24.3860  -29.4520 C   0  0  0  0  0  0  0  0  0  0  0  0
   -2.2440   25.2880  -29.0390 N   0  0  0  0  0  0  0  0  0  0  0  0
   -1.3360   24.9990  -28.0790 C   0  0  0  0  0  0  0  0  0  0  0  0
   -0.1640   26.2080  -27.5960 Cl  0  0  0  0  0  0  0  0  0  0  0  0
   -1.3370   23.7400  -27.4890 C   0  0  0  0  0  0  0  0  0  0  0  0
   -0.5888   23.4958  -26.7205 H   0  0  0  0  0  0  0  0  0  0  0  0
   -2.2640   22.8020  -27.8590 N   0  0  0  0  0  0  0  0  0  0  0  0
   -2.2550   21.4720  -27.1990 C   0  0  0  0  0  0  0  0  0  0  0  0
   -3.2542   21.2997  -26.7726 H   0  0  0  0  0  0  0  0  0  0  0  0
   -1.2450   21.4360  -26.0460 C   0  0  0  0  0  0  0  0  0  0  0  0
   -1.7829   21.4552  -25.0867 H   0  0  0  0  0  0  0  0  0  0  0  0
   -0.6458   20.5159  -26.1121 H   0  0  0  0  0  0  0  0  0  0  0  0
   -0.5818   22.3111  -26.1121 H   0  0  0  0  0  0  0  0  0  0  0  0
   -1.9850   20.3520  -28.2140 C   0  0  0  0  0  0  0  0  0  0  0  0
   -1.7599   19.4181  -27.6782 H   0  0  0  0  0  0  0  0  0  0  0  0
   -2.8740   20.2073  -28.8455 H   0  0  0  0  0  0  0  0  0  0  0  0
   -1.1277   20.6283  -28.8455 H   0  0  0  0  0  0  0  0  0  0  0  0
   -3.2020   23.1130  -28.8190 C   0  0  0  0  0  0  0  0  0  0  0  0
   -4.1080   22.2830  -29.1030 O   0  0  0  0  0  0  0  0  0  0  0  0
   -4.5580   22.8460  -31.8170 C   0  0  0  0  0  0  0  0  0  0  0  0
   -3.4866   22.6063  -31.8852 H   0  0  0  0  0  0  0  0  0  0  0  0
   -5.4940   22.0250  -32.4580 C   0  0  0  0  0  0  0  0  0  0  0  0
   -5.0230   20.9250  -33.1910 O   0  0  0  0  0  0  0  0  0  0  0  0
   -5.8040   19.7760  -33.5080 C   0  0  0  0  0  0  0  0  0  0  0  0
   -6.1346   19.2896  -32.5785 H   0  0  0  0  0  0  0  0  0  0  0  0
   -6.6829   20.0806  -34.0951 H   0  0  0  0  0  0  0  0  0  0  0  0
   -5.1973   19.0709  -34.0951 H   0  0  0  0  0  0  0  0  0  0  0  0
   -6.8660   22.3250  -32.3420 C   0  0  0  0  0  0  0  0  0  0  0  0
   -7.6102   21.6922  -32.8478 H   0  0  0  0  0  0  0  0  0  0  0  0
  1  2  1  0
  2  3  2  0
  3  4  1  0
  3  5  1  0
  5  6  1  0
  6  7  2  0
  7  8  1  0
  8  9  1  0
  9 10  1  0
  9 11  2  0
 11 12  1  0
 11 13  1  0
 13 14  1  0
 14 15  1  0
 14 16  1  0
 16 17  1  0
 16 18  1  0
 16 19  1  0
 14 20  1  0
 20 21  1  0
 20 22  1  0
 20 23  1  0
 13 24  1  0
 24 25  2  0
  5 26  2  0
 26 27  1  0
 26 28  1  0
 28 29  1  0
 29 30  1  0
 30 31  1  0
 30 32  1  0
 30 33  1  0
 28 34  2  0
 34 35  1  0
 34  2  1  0
 24  7  1  0
M  CHG  1   8  -1
M  END
>  <UniqueID>  (2) 
2

>  <SMILES>  (2) 
COc1cccc(/N=c2/[n-]c(Cl)cn(C(C)C)c2=O)c1

>  <Energy>  (2) 
49.33114382659182

>  <Genealogy>  (2) 
COc1cccc(N=c2[n-]c(Cl)cn(C(C)C)c2=O)c1 (protonated)
COc1cccc(/N=c2/[n-]c(Cl)cn(C(C)C)c2=O)c1 (cis-trans isomerization)
COc1cccc(/N=c2/[n-]c(Cl)cn(C(C)C)c2=O)c1 (3D coordinates assigned)
COc1cccc(/N=c2/[n-]c(Cl)cn(C(C)C)c2=O)c1 (optimized conformer: 49.33114382659182 kcal/mol)

>  <smiles>  (2) 
COc1cccc(N=c2[nH]c(Cl)cn(C(C)C)c2=O)c1

>  <score_type>  (2) 
oracle

>  <origin>  (2) 
adgpu

>  <m_score__min__energy>  (2) 
-7.75

>  <m_primary>  (2) 
energy

$$$$
2:0
     RDKit          3D

 50 53  0  0  0  0  0  0  0  0999 V2000
   -7.8000   20.3590  -33.3380 N   0  0  0  0  0  0  0  0  0  0  0  0
   -8.3200   21.2720  -31.9660 S   0  0  0  0  0  0  0  0  0  0  0  0
   -8.7290   20.3320  -30.8670 O   0  0  0  0  0  0  0  0  0  0  0  0
   -9.5050   22.1170  -32.3440 O   0  0  0  0  0  0  0  0  0  0  0  0
   -7.0040   22.3030  -31.4130 C   0  0  0  0  0  0  0  0  0  0  0  0
   -5.7140   22.1340  -31.9320 C   0  0  0  0  0  0  0  0  0  0  0  0
   -4.6640   22.9420  -31.4870 C   0  0  0  0  0  0  0  0  0  0  0  0
   -4.8890   23.9150  -30.4930 C   0  0  0  0  0  0  0  0  0  0  0  0
   -3.8430   24.7840  -30.0240 N   0  0  0  0  0  0  0  0  0  0  0  0
   -2.8200   24.4470  -29.2940 C   0  0  0  0  0  0  0  0  0  0  0  0
   -2.6840   23.1850  -28.8090 N   0  0  0  0  0  0  0  0  0  0  0  0
   -1.6200   22.8510  -28.0320 C   0  0  0  0  0  0  0  0  0  0  0  0
   -1.4810   21.5050  -27.5320 N   0  0  0  0  0  0  0  0  0  0  0  0
   -0.1630   20.9790  -27.1410 C   0  0  0  0  0  0  0  0  0  0  0  0
   -0.0110   19.4830  -27.5000 C   0  0  0  0  0  0  0  0  0  0  0  0
   -1.2930   18.7530  -27.6030 N   0  0  0  0  0  0  0  0  0  0  0  0
   -2.3360   19.3210  -26.7430 C   0  0  0  0  0  0  0  0  0  0  0  0
   -2.6910   20.7310  -27.2200 C   0  0  0  0  0  0  0  0  0  0  0  0
   -0.6960   23.8010  -27.7330 N   0  0  0  0  0  0  0  0  0  0  0  0
   -0.8330   25.0730  -28.1910 C   0  0  0  0  0  0  0  0  0  0  0  0
    0.0540   25.9850  -27.9270 N   0  0  0  0  0  0  0  0  0  0  0  0
    1.2100   25.8460  -27.0830 C   0  0  0  0  0  0  0  0  0  0  0  0
    2.3440   25.1100  -27.4810 C   0  0  0  0  0  0  0  0  0  0  0  0
    3.4360   24.9760  -26.6180 C   0  0  0  0  0  0  0  0  0  0  0  0
    3.3990   25.5540  -25.3460 C   0  0  0  0  0  0  0  0  0  0  0  0
    2.2650   26.2580  -24.9330 C   0  0  0  0  0  0  0  0  0  0  0  0
    1.1720   26.3950  -25.7930 C   0  0  0  0  0  0  0  0  0  0  0  0
   -1.8940   25.3870  -28.9760 N   0  0  0  0  0  0  0  0  0  0  0  0
   -6.1860   24.0950  -29.9970 C   0  0  0  0  0  0  0  0  0  0  0  0
   -7.2360   23.2860  -30.4430 C   0  0  0  0  0  0  0  0  0  0  0  0
   -8.6610   20.0670  -33.8530 H   0  0  0  0  0  0  0  0  0  0  0  0
   -5.5266   21.3621  -32.6930 H   0  0  0  0  0  0  0  0  0  0  0  0
   -3.6581   22.8179  -31.9144 H   0  0  0  0  0  0  0  0  0  0  0  0
    0.6178   21.5514  -27.6633 H   0  0  0  0  0  0  0  0  0  0  0  0
   -0.0651   21.0799  -26.0500 H   0  0  0  0  0  0  0  0  0  0  0  0
    0.5062   19.4110  -28.4682 H   0  0  0  0  0  0  0  0  0  0  0  0
    0.5546   19.0162  -26.6801 H   0  0  0  0  0  0  0  0  0  0  0  0
   -1.1380   17.7540  -27.3310 H   0  0  0  0  0  0  0  0  0  0  0  0
   -1.6210   18.7630  -28.5990 H   0  0  0  0  0  0  0  0  0  0  0  0
   -3.2320   18.6844  -26.7868 H   0  0  0  0  0  0  0  0  0  0  0  0
   -1.9662   19.3703  -25.7082 H   0  0  0  0  0  0  0  0  0  0  0  0
   -3.3138   20.6582  -28.1238 H   0  0  0  0  0  0  0  0  0  0  0  0
   -3.2363   21.2450  -26.4147 H   0  0  0  0  0  0  0  0  0  0  0  0
    2.3702   24.6390  -28.4747 H   0  0  0  0  0  0  0  0  0  0  0  0
    4.3254   24.4149  -26.9407 H   0  0  0  0  0  0  0  0  0  0  0  0
    4.2617   25.4548  -24.6708 H   0  0  0  0  0  0  0  0  0  0  0  0
    2.2325   26.7054  -23.9286 H   0  0  0  0  0  0  0  0  0  0  0  0
    0.2761   26.9369  -25.4560 H   0  0  0  0  0  0  0  0  0  0  0  0
   -6.3806   24.8791  -29.2505 H   0  0  0  0  0  0  0  0  0  0  0  0
   -8.2467   23.4222  -30.0308 H   0  0  0  0  0  0  0  0  0  0  0  0
  1  2  1  0
  2  3  2  0
  2  4  2  0
  2  5  1  0
  5  6  2  0
  6  7  1  0
  7  8  2  0
  8  9  1  0
  9 10  2  3
 10 11  1  0
 11 12  1  0
 12 13  1  0
 13 14  1  0
 14 15  1  0
 15 16  1  0
 16 17  1  0
 17 18  1  0
 12 19  2  0
 19 20  1  0
 20 21  2  3
 21 22  1  0
 22 23  2  0
 23 24  1  0
 24 25  2  0
 25 26  1  0
 26 27  2  0
 20 28  1  0
  8 29  1  0
 29 30  2  0
 30  5  1  0
 28 10  1  0
 18 13  1  0
 27 22  1  0
  1 31  1  0
  6 32  1  0
  7 33  1  0
 14 34  1  0
 14 35  1  0
 15 36  1  0
 15 37  1  0
 16 38  1  0
 16 39  1  0
 17 40  1  0
 17 41  1  0
 18 42  1  0
 18 43  1  0
 23 44  1  0
 24 45  1  0
 25 46  1  0
 26 47  1  0
 27 48  1  0
 29 49  1  0
 30 50  1  0
M  CHG  4   1  -1  11  -1  16   1  28  -1
M  END
>  <UniqueID>  (3) 
3

>  <SMILES>  (3) 
[NH-]S(=O)(=O)c1ccc(N=c2[n-]c(N3CC[NH2+]CC3)nc(=Nc3ccccc3)[n-]2)cc1

>  <Energy>  (3) 
69.42312960169117

>  <Genealogy>  (3) 
[NH-]S(=O)(=O)c1ccc(N=c2[n-]c(N3CC[NH2+]CC3)nc(=Nc3ccccc3)[n-]2)cc1 (protonated)
[NH-]S(=O)(=O)c1ccc(N=c2[n-]c(N3CC[NH2+]CC3)nc(=Nc3ccccc3)[n-]2)cc1 (3D coordinates assigned)
[NH-]S(=O)(=O)c1ccc(N=c2[n-]c(N3CC[NH2+]CC3)nc(=Nc3ccccc3)[n-]2)cc1 (nonaromatic ring conformer: 69.42312960169117 kcal/mol)

>  <smiles>  (3) 
NS(=O)(=O)c1ccc(N=c2[nH]c(N3CCNCC3)nc(=Nc3ccccc3)[nH]2)cc1

>  <score_type>  (3) 
oracle

>  <origin>  (3) 
adgpu

>  <m_score__min__energy>  (3) 
-9.8300000000000001

>  <m_primary>  (3) 
energy

$$$$
3:0
     RDKit          3D

 56 59  0  0  0  0  0  0  0  0999 V2000
   -1.0090   25.2730  -28.2490 C   0  0  0  0  0  0  0  0  0  0  0  0
   -1.9920   25.2970  -29.3260 N   0  0  0  0  0  0  0  0  0  0  0  0
   -2.7310   23.7320  -29.4830 S   0  0  0  0  0  0  0  0  0  0  0  0
   -2.7020   23.0390  -28.1500 O   0  0  0  0  0  0  0  0  0  0  0  0
   -1.9580   22.9000  -30.4680 O   0  0  0  0  0  0  0  0  0  0  0  0
   -4.4050   23.8960  -30.0090 C   0  0  0  0  0  0  0  0  0  0  0  0
   -5.2740   24.7470  -29.3150 C   0  0  0  0  0  0  0  0  0  0  0  0
   -6.6000   24.8880  -29.7300 C   0  0  0  0  0  0  0  0  0  0  0  0
   -7.0620   24.1880  -30.8490 C   0  0  0  0  0  0  0  0  0  0  0  0
   -6.1930   23.3530  -31.5720 C   0  0  0  0  0  0  0  0  0  0  0  0
   -6.6500   22.6090  -32.7160 N   0  0  0  0  0  0  0  0  0  0  0  0
   -6.4210   21.2030  -32.9090 C   0  0  0  0  0  0  0  0  0  0  0  0
   -7.5000   20.3150  -32.8430 C   0  0  0  0  0  0  0  0  0  0  0  0
   -7.3010   18.9440  -33.0100 C   0  0  0  0  0  0  0  0  0  0  0  0
   -6.0130   18.4280  -33.2490 C   0  0  0  0  0  0  0  0  0  0  0  0
   -5.8280   16.9550  -33.3730 C   0  0  0  0  0  0  0  0  0  0  0  0
   -6.8360   16.2080  -33.4760 O   0  0  0  0  0  0  0  0  0  0  0  0
   -4.5270   16.3600  -33.5100 N   0  0  0  0  0  0  0  0  0  0  0  0
   -4.0320   15.3510  -32.8470 C   0  0  0  0  0  0  0  0  0  0  0  0
   -4.7870   14.5940  -31.9300 C   0  0  0  0  0  0  0  0  0  0  0  0
   -4.1920   13.5200  -31.2650 C   0  0  0  0  0  0  0  0  0  0  0  0
   -2.8930   13.1990  -31.5070 N   0  0  0  0  0  0  0  0  0  0  0  0
   -2.1450   13.9030  -32.3980 C   0  0  0  0  0  0  0  0  0  0  0  0
   -2.7020   14.9830  -33.0860 C   0  0  0  0  0  0  0  0  0  0  0  0
   -4.9180   19.3250  -33.2990 C   0  0  0  0  0  0  0  0  0  0  0  0
   -3.5840   18.8650  -33.5510 N   0  0  0  0  0  0  0  0  0  0  0  0
   -2.4180   19.6380  -33.2210 C   0  0  0  0  0  0  0  0  0  0  0  0
   -1.7960   20.4100  -34.2140 C   0  0  0  0  0  0  0  0  0  0  0  0
   -0.6640   21.1740  -33.9120 C   0  0  0  0  0  0  0  0  0  0  0  0
   -0.1390   21.1640  -32.6180 C   0  0  0  0  0  0  0  0  0  0  0  0
   -0.7390   20.3860  -31.6250 C   0  0  0  0  0  0  0  0  0  0  0  0
   -1.8700   19.6200  -31.9240 C   0  0  0  0  0  0  0  0  0  0  0  0
   -5.1280   20.6960  -33.1070 C   0  0  0  0  0  0  0  0  0  0  0  0
   -4.8690   23.1980  -31.1350 C   0  0  0  0  0  0  0  0  0  0  0  0
   -1.5275   25.2857  -27.2790 H   0  0  0  0  0  0  0  0  0  0  0  0
   -0.4009   24.3597  -28.3278 H   0  0  0  0  0  0  0  0  0  0  0  0
   -0.3571   26.1555  -28.3278 H   0  0  0  0  0  0  0  0  0  0  0  0
   -4.9110   25.3063  -28.4401 H   0  0  0  0  0  0  0  0  0  0  0  0
   -7.2816   25.5503  -29.1762 H   0  0  0  0  0  0  0  0  0  0  0  0
   -8.1106   24.2914  -31.1648 H   0  0  0  0  0  0  0  0  0  0  0  0
   -7.1760   23.1250  -33.4570 H   0  0  0  0  0  0  0  0  0  0  0  0
   -8.5134   20.7006  -32.6580 H   0  0  0  0  0  0  0  0  0  0  0  0
   -8.1598   18.2589  -32.9543 H   0  0  0  0  0  0  0  0  0  0  0  0
   -5.8401   14.8476  -31.7387 H   0  0  0  0  0  0  0  0  0  0  0  0
   -4.7764   12.9313  -30.5425 H   0  0  0  0  0  0  0  0  0  0  0  0
   -2.4630   12.3920  -31.0020 H   0  0  0  0  0  0  0  0  0  0  0  0
   -1.0971   13.6207  -32.5775 H   0  0  0  0  0  0  0  0  0  0  0  0
   -2.0974   15.5436  -33.8142 H   0  0  0  0  0  0  0  0  0  0  0  0
   -3.4650   17.9130  -33.9620 H   0  0  0  0  0  0  0  0  0  0  0  0
   -2.2013   20.4144  -35.2366 H   0  0  0  0  0  0  0  0  0  0  0  0
   -0.1871   21.7830  -34.6941 H   0  0  0  0  0  0  0  0  0  0  0  0
    0.7481   21.7695  -32.3804 H   0  0  0  0  0  0  0  0  0  0  0  0
   -0.3216   20.3759  -30.6073 H   0  0  0  0  0  0  0  0  0  0  0  0
   -2.3338   19.0004  -31.1423 H   0  0  0  0  0  0  0  0  0  0  0  0
   -4.2693   21.3834  -33.1115 H   0  0  0  0  0  0  0  0  0  0  0  0
   -4.1897   22.5248  -31.6785 H   0  0  0  0  0  0  0  0  0  0  0  0
  1  2  1  0
  2  3  1  0
  3  4  2  0
  3  5  2  0
  3  6  1  0
  6  7  2  0
  7  8  1  0
  8  9  2  0
  9 10  1  0
 10 11  1  0
 11 12  1  0
 12 13  2  0
 13 14  1  0
 14 15  2  0
 15 16  1  0
 16 17  2  0
 16 18  1  0
 18 19  2  3
 19 20  1  0
 20 21  2  0
 21 22  1  0
 22 23  1  0
 23 24  2  0
 15 25  1  0
 25 26  1  0
 26 27  1  0
 27 28  2  0
 28 29  1  0
 29 30  2  0
 30 31  1  0
 31 32  2  0
 25 33  2  0
 10 34  2  0
 34  6  1  0
 33 12  1  0
 24 19  1  0
 32 27  1  0
  1 35  1  0
  1 36  1  0
  1 37  1  0
  7 38  1  0
  8 39  1  0
  9 40  1  0
 11 41  1  0
 13 42  1  0
 14 43  1  0
 20 44  1  0
 21 45  1  0
 22 46  1  0
 23 47  1  0
 24 48  1  0
 26 49  1  0
 28 50  1  0
 29 51  1  0
 30 52  1  0
 31 53  1  0
 32 54  1  0
 33 55  1  0
 34 56  1  0
M  CHG  1   2  -1
M  END
>  <UniqueID>  (4) 
4

>  <SMILES>  (4) 
C[N-]S(=O)(=O)c1cccc(Nc2ccc(C(=O)N=c3cc[nH]cc3)c(Nc3ccccc3)c2)c1

>  <Energy>  (4) 
82.40191273905668

>  <Genealogy>  (4) 
C[N-]S(=O)(=O)c1cccc(Nc2ccc(C(=O)N=c3cc[nH]cc3)c(Nc3ccccc3)c2)c1 (protonated)
C[N-]S(=O)(=O)c1cccc(Nc2ccc(C(=O)N=c3cc[nH]cc3)c(Nc3ccccc3)c2)c1 (3D coordinates assigned)
C[N-]S(=O)(=O)c1cccc(Nc2ccc(C(=O)N=c3cc[nH]cc3)c(Nc3ccccc3)c2)c1 (optimized conformer: 82.40191273905668 kcal/mol)

>  <smiles>  (4) 
CNS(=O)(=O)c1cccc(Nc2ccc(C(=O)N=c3cc[nH]cc3)c(Nc3ccccc3)c2)c1

>  <score_type>  (4) 
oracle

>  <origin>  (4) 
adgpu

>  <m_score__min__energy>  (4) 
-11.09

>  <m_primary>  (4) 
energy

$$$$
4:0
     RDKit          3D

 48 50  0  0  0  0  0  0  0  0999 V2000
   -4.1970   24.6230  -26.8020 C   0  0  0  0  0  0  0  0  0  0  0  0
   -4.2280   23.9150  -28.1250 C   0  0  0  0  0  0  0  0  0  0  0  0
   -3.6940   22.6230  -28.2470 C   0  0  0  0  0  0  0  0  0  0  0  0
   -3.7510   21.9490  -29.4710 C   0  0  0  0  0  0  0  0  0  0  0  0
   -4.3650   22.5500  -30.5810 C   0  0  0  0  0  0  0  0  0  0  0  0
   -4.3760   21.8460  -31.9100 C   0  0  0  0  0  0  0  0  0  0  0  0
   -5.5160   22.2930  -32.7110 N   0  0  0  0  0  0  0  0  0  0  0  0
   -6.8660   21.9370  -32.3760 C   0  0  0  0  0  0  0  0  0  0  0  0
   -7.7750   22.9590  -32.0670 C   0  0  0  0  0  0  0  0  0  0  0  0
   -9.0770   22.6530  -31.6650 C   0  0  0  0  0  0  0  0  0  0  0  0
   -9.4860   21.3220  -31.5780 C   0  0  0  0  0  0  0  0  0  0  0  0
   -8.5990   20.2950  -31.9060 C   0  0  0  0  0  0  0  0  0  0  0  0
   -7.2880   20.5880  -32.3150 C   0  0  0  0  0  0  0  0  0  0  0  0
   -6.4300   19.5140  -32.7370 N   0  0  0  0  0  0  0  0  0  0  0  0
   -5.9900   18.4950  -31.7800 C   0  0  0  0  0  0  0  0  0  0  0  0
   -6.3970   17.0800  -32.2460 C   0  0  0  0  0  0  0  0  0  0  0  0
   -6.6250   16.9820  -33.7130 N   0  0  0  0  0  0  0  0  0  0  0  0
   -6.4410   15.5950  -34.1700 C   0  0  0  0  0  0  0  0  0  0  0  0
   -5.7430   17.8940  -34.4710 C   0  0  0  0  0  0  0  0  0  0  0  0
   -6.1100   19.3520  -34.1620 C   0  0  0  0  0  0  0  0  0  0  0  0
   -4.9040   23.8400  -30.4570 C   0  0  0  0  0  0  0  0  0  0  0  0
   -4.8450   24.5150  -29.2340 C   0  0  0  0  0  0  0  0  0  0  0  0
   -4.2294   23.8826  -25.9891 H   0  0  0  0  0  0  0  0  0  0  0  0
   -3.2721   25.2133  -26.7236 H   0  0  0  0  0  0  0  0  0  0  0  0
   -5.0667   25.2919  -26.7236 H   0  0  0  0  0  0  0  0  0  0  0  0
   -3.2286   22.1383  -27.3761 H   0  0  0  0  0  0  0  0  0  0  0  0
   -3.3131   20.9442  -29.5642 H   0  0  0  0  0  0  0  0  0  0  0  0
   -3.4435   22.0716  -32.4481 H   0  0  0  0  0  0  0  0  0  0  0  0
   -4.4601   20.7624  -31.7407 H   0  0  0  0  0  0  0  0  0  0  0  0
   -5.3690   23.1250  -33.3260 H   0  0  0  0  0  0  0  0  0  0  0  0
   -7.4600   24.0103  -32.1418 H   0  0  0  0  0  0  0  0  0  0  0  0
   -9.7802   23.4616  -31.4169 H   0  0  0  0  0  0  0  0  0  0  0  0
  -10.5083   21.0815  -31.2507 H   0  0  0  0  0  0  0  0  0  0  0  0
   -8.9298   19.2478  -31.8435 H   0  0  0  0  0  0  0  0  0  0  0  0
   -4.8951   18.5406  -31.6851 H   0  0  0  0  0  0  0  0  0  0  0  0
   -6.4714   18.6952  -30.8114 H   0  0  0  0  0  0  0  0  0  0  0  0
   -5.5957   16.3786  -31.9704 H   0  0  0  0  0  0  0  0  0  0  0  0
   -7.3502   16.8383  -31.7531 H   0  0  0  0  0  0  0  0  0  0  0  0
   -7.6210   17.2440  -33.9100 H   0  0  0  0  0  0  0  0  0  0  0  0
   -6.3528   14.9303  -33.2980 H   0  0  0  0  0  0  0  0  0  0  0  0
   -7.3067   15.2910  -34.7768 H   0  0  0  0  0  0  0  0  0  0  0  0
   -5.5260   15.5272  -34.7768 H   0  0  0  0  0  0  0  0  0  0  0  0
   -4.6969   17.7124  -34.1835 H   0  0  0  0  0  0  0  0  0  0  0  0
   -5.8701   17.7089  -35.5478 H   0  0  0  0  0  0  0  0  0  0  0  0
   -5.2593   20.0008  -34.4175 H   0  0  0  0  0  0  0  0  0  0  0  0
   -6.9924   19.6294  -34.7573 H   0  0  0  0  0  0  0  0  0  0  0  0
   -5.3751   24.3223  -31.3262 H   0  0  0  0  0  0  0  0  0  0  0  0
   -5.2835   25.5195  -29.1405 H   0  0  0  0  0  0  0  0  0  0  0  0
  1  2  1  0
  2  3  2  0
  3  4  1  0
  4  5  2  0
  5  6  1  0
  6  7  1  0
  7  8  1  0
  8  9  2  0
  9 10  1  0
 10 11  2  0
 11 12  1  0
 12 13  2  0
 13 14  1  0
 14 15  1  0
 15 16  1  0
 16 17  1  0
 17 18  1  0
 17 19  1  0
 19 20  1  0
  5 21  1  0
 21 22  2  0
 22  2  1  0
 13  8  1  0
 20 14  1  0
  1 23  1  0
  1 24  1  0
  1 25  1  0
  3 26  1  0
  4 27  1  0
  6 28  1  0
  6 29  1  0
  7 30  1  0
  9 31  1  0
 10 32  1  0
 11 33  1  0
 12 34  1  0
 15 35  1  0
 15 36  1  0
 16 37  1  0
 16 38  1  0
 17 39  1  0
 18 40  1  0
 18 41  1  0
 18 42  1  0
 19 43  1  0
 19 44  1  0
 20 45  1  0
 20 46  1  0
 21 47  1  0
 22 48  1  0
M  CHG  1  17   1
M  END
>  <UniqueID>  (5) 
5

>  <SMILES>  (5) 
Cc1ccc(CNc2ccccc2N2CC[NH+](C)CC2)cc1

>  <Energy>  (5) 
60.09717284142294

>  <Genealogy>  (5) 
Cc1ccc(CNc2ccccc2N2CC[NH+](C)CC2)cc1 (protonated)
Cc1ccc(CNc2ccccc2N2CC[NH+](C)CC2)cc1 (3D coordinates assigned)
Cc1ccc(CNc2ccccc2N2CC[NH+](C)CC2)cc1 (nonaromatic ring conformer: 60.09717284142294 kcal/mol)

>  <smiles>  (5) 
Cc1ccc(CNc2ccccc2N2CCN(C)CC2)cc1

>  <score_type>  (5) 
oracle

>  <origin>  (5) 
adgpu

>  <m_score__min__energy>  (5) 
-7.3099999999999996

>  <m_primary>  (5) 
energy

$$$$
5:0
     RDKit          3D

 39 41  0  0  0  0  0  0  0  0999 V2000
   -3.3820   12.9830  -33.1110 C   0  0  0  0  0  0  0  0  0  0  0  0
   -4.6110   13.4410  -33.7510 N   0  0  0  0  0  0  0  0  0  0  0  0
   -5.2610   14.6850  -33.4290 C   0  0  0  0  0  0  0  0  0  0  0  0
   -4.8480   15.4010  -32.2960 C   0  0  0  0  0  0  0  0  0  0  0  0
   -5.4590   16.6110  -31.9560 C   0  0  0  0  0  0  0  0  0  0  0  0
   -6.4990   17.1310  -32.7450 C   0  0  0  0  0  0  0  0  0  0  0  0
   -7.1500   18.4170  -32.3850 C   0  0  0  0  0  0  0  0  0  0  0  0
   -8.5490   18.5450  -32.4240 C   0  0  0  0  0  0  0  0  0  0  0  0
   -9.1580   19.7540  -32.0860 C   0  0  0  0  0  0  0  0  0  0  0  0
   -8.3830   20.8510  -31.7060 C   0  0  0  0  0  0  0  0  0  0  0  0
   -6.9810   20.7490  -31.6590 C   0  0  0  0  0  0  0  0  0  0  0  0
   -6.1550   21.9150  -31.2540 C   0  0  0  0  0  0  0  0  0  0  0  0
   -4.7940   21.7510  -30.9390 C   0  0  0  0  0  0  0  0  0  0  0  0
   -4.0160   22.8490  -30.5590 C   0  0  0  0  0  0  0  0  0  0  0  0
   -4.5850   24.1270  -30.4890 C   0  0  0  0  0  0  0  0  0  0  0  0
   -3.7870   25.2490  -30.1000 N   0  0  0  0  0  0  0  0  0  0  0  0
   -5.9390   24.2980  -30.8020 C   0  0  0  0  0  0  0  0  0  0  0  0
   -6.7190   23.2020  -31.1810 C   0  0  0  0  0  0  0  0  0  0  0  0
   -6.3740   19.5270  -32.0010 C   0  0  0  0  0  0  0  0  0  0  0  0
   -6.9140   16.4140  -33.8810 C   0  0  0  0  0  0  0  0  0  0  0  0
   -6.3020   15.2040  -34.2200 C   0  0  0  0  0  0  0  0  0  0  0  0
   -3.4994   13.0267  -32.0182 H   0  0  0  0  0  0  0  0  0  0  0  0
   -3.1738   11.9469  -33.4162 H   0  0  0  0  0  0  0  0  0  0  0  0
   -2.5465   13.6301  -33.4162 H   0  0  0  0  0  0  0  0  0  0  0  0
   -5.0350   12.8240  -34.4810 H   0  0  0  0  0  0  0  0  0  0  0  0
   -4.0351   15.0063  -31.6688 H   0  0  0  0  0  0  0  0  0  0  0  0
   -5.1233   17.1604  -31.0641 H   0  0  0  0  0  0  0  0  0  0  0  0
   -9.1680   17.6863  -32.7230 H   0  0  0  0  0  0  0  0  0  0  0  0
  -10.2539   19.8431  -32.1191 H   0  0  0  0  0  0  0  0  0  0  0  0
   -8.8715   21.8005  -31.4418 H   0  0  0  0  0  0  0  0  0  0  0  0
   -4.3382   20.7513  -30.9920 H   0  0  0  0  0  0  0  0  0  0  0  0
   -2.9529   22.7085  -30.3141 H   0  0  0  0  0  0  0  0  0  0  0  0
   -3.1030   25.6760  -30.7640 H   0  0  0  0  0  0  0  0  0  0  0  0
   -3.8750   25.6620  -29.1440 H   0  0  0  0  0  0  0  0  0  0  0  0
   -6.3909   25.2995  -30.7494 H   0  0  0  0  0  0  0  0  0  0  0  0
   -7.7820   23.3466  -31.4241 H   0  0  0  0  0  0  0  0  0  0  0  0
   -5.2781   19.4375  -31.9679 H   0  0  0  0  0  0  0  0  0  0  0  0
   -7.7270   16.8086  -34.5081 H   0  0  0  0  0  0  0  0  0  0  0  0
   -6.6368   14.6537  -35.1117 H   0  0  0  0  0  0  0  0  0  0  0  0
  1  2  1  0
  2  3  1  0
  3  4  2  0
  4  5  1  0
  5  6  2  0
  6  7  1  0
  7  8  2  0
  8  9  1  0
  9 10  2  0
 10 11  1  0
 11 12  1  0
 12 13  2  0
 13 14  1  0
 14 15  2  0
 15 16  1  0
 15 17  1  0
 17 18  2  0
 11 19  2  0
  6 20  1  0
 20 21  2  0
 21  3  1  0
 19  7  1  0
 18 12  1  0
  1 22  1  0
  1 23  1  0
  1 24  1  0
  2 25  1  0
  4 26  1  0
  5 27  1  0
  8 28  1  0
  9 29  1  0
 10 30  1  0
 13 31  1  0
 14 32  1  0
 16 33  1  0
 16 34  1  0
 17 35  1  0
 18 36  1  0
 19 37  1  0
 20 38  1  0
 21 39  1  0
M  END
>  <UniqueID>  (6) 
6

>  <SMILES>  (6) 
CNc1ccc(-c2cccc(-c3ccc(N)cc3)c2)cc1

>  <Energy>  (6) 
49.67487611598846

>  <Genealogy>  (6) 
CNc1ccc(-c2cccc(-c3ccc(N)cc3)c2)cc1 (3D coordinates assigned)
CNc1ccc(-c2cccc(-c3ccc(N)cc3)c2)cc1 (optimized conformer: 49.67487611598846 kcal/mol)

>  <smiles>  (6) 
CNc1ccc(-c2cccc(-c3ccc(N)cc3)c2)cc1

>  <score_type>  (6) 
oracle

>  <origin>  (6) 
adgpu

>  <m_score__min__energy>  (6) 
-8.5600000000000005

>  <m_primary>  (6) 
energy

$$$$
6:0
     RDKit          3D

 52 55  0  0  0  0  0  0  0  0999 V2000
   -6.1140   25.3280  -30.4490 C   0  0  0  0  0  0  0  0  0  0  0  0
   -6.2250   24.5380  -31.6280 O   0  0  0  0  0  0  0  0  0  0  0  0
   -6.8570   23.2860  -31.6900 C   0  0  0  0  0  0  0  0  0  0  0  0
   -8.2350   23.1570  -31.9530 C   0  0  0  0  0  0  0  0  0  0  0  0
   -8.8230   21.8910  -32.0340 C   0  0  0  0  0  0  0  0  0  0  0  0
   -8.0470   20.7440  -31.8550 C   0  0  0  0  0  0  0  0  0  0  0  0
   -6.6810   20.8610  -31.5890 C   0  0  0  0  0  0  0  0  0  0  0  0
   -6.0820   22.1260  -31.4960 C   0  0  0  0  0  0  0  0  0  0  0  0
   -4.6770   22.2270  -31.2150 N   0  0  0  0  0  0  0  0  0  0  0  0
   -3.6630   21.9290  -32.0600 C   0  0  0  0  0  0  0  0  0  0  0  0
   -3.8270   21.4120  -33.4570 C   0  0  0  0  0  0  0  0  0  0  0  0
   -2.4460   22.1360  -31.4380 C   0  0  0  0  0  0  0  0  0  0  0  0
   -2.7330   22.6130  -30.1710 C   0  0  0  0  0  0  0  0  0  0  0  0
   -1.7280   22.9730  -29.1460 C   0  0  0  0  0  0  0  0  0  0  0  0
   -0.7190   22.0620  -28.8240 C   0  0  0  0  0  0  0  0  0  0  0  0
    0.2330   22.4030  -27.8670 C   0  0  0  0  0  0  0  0  0  0  0  0
    1.3110   21.4390  -27.4870 C   0  0  0  0  0  0  0  0  0  0  0  0
    0.1540   23.6100  -27.2510 N   0  0  0  0  0  0  0  0  0  0  0  0
   -0.7980   24.5020  -27.5430 N   0  0  0  0  0  0  0  0  0  0  0  0
   -0.7900   25.7560  -26.8340 C   0  0  0  0  0  0  0  0  0  0  0  0
   -0.2940   26.9130  -27.4600 C   0  0  0  0  0  0  0  0  0  0  0  0
   -0.2630   28.1300  -26.7720 C   0  0  0  0  0  0  0  0  0  0  0  0
   -0.7120   28.2000  -25.4510 C   0  0  0  0  0  0  0  0  0  0  0  0
   -1.1900   27.0530  -24.8140 C   0  0  0  0  0  0  0  0  0  0  0  0
   -1.2250   25.8330  -25.4980 C   0  0  0  0  0  0  0  0  0  0  0  0
   -1.7340   24.2260  -28.5070 C   0  0  0  0  0  0  0  0  0  0  0  0
   -2.5720   25.1050  -28.8550 O   0  0  0  0  0  0  0  0  0  0  0  0
   -4.1180   22.6400  -30.0560 C   0  0  0  0  0  0  0  0  0  0  0  0
   -4.9010   23.0150  -28.8290 C   0  0  0  0  0  0  0  0  0  0  0  0
   -6.2049   24.6809  -29.5641 H   0  0  0  0  0  0  0  0  0  0  0  0
   -5.1362   25.8318  -30.4359 H   0  0  0  0  0  0  0  0  0  0  0  0
   -6.9151   26.0817  -30.4359 H   0  0  0  0  0  0  0  0  0  0  0  0
   -8.8515   24.0568  -32.0953 H   0  0  0  0  0  0  0  0  0  0  0  0
   -9.8997   21.7984  -32.2393 H   0  0  0  0  0  0  0  0  0  0  0  0
   -8.5112   19.7491  -31.9234 H   0  0  0  0  0  0  0  0  0  0  0  0
   -6.0712   19.9559  -31.4516 H   0  0  0  0  0  0  0  0  0  0  0  0
   -4.1594   20.3640  -33.4235 H   0  0  0  0  0  0  0  0  0  0  0  0
   -4.5771   22.0178  -33.9865 H   0  0  0  0  0  0  0  0  0  0  0  0
   -2.8649   21.4747  -33.9865 H   0  0  0  0  0  0  0  0  0  0  0  0
   -1.4482   21.9572  -31.8651 H   0  0  0  0  0  0  0  0  0  0  0  0
   -0.6770   21.0825  -29.3229 H   0  0  0  0  0  0  0  0  0  0  0  0
    1.3789   21.3783  -26.3908 H   0  0  0  0  0  0  0  0  0  0  0  0
    1.0749   20.4453  -27.8953 H   0  0  0  0  0  0  0  0  0  0  0  0
    2.2723   21.7843  -27.8953 H   0  0  0  0  0  0  0  0  0  0  0  0
    0.0715   26.8607  -28.4962 H   0  0  0  0  0  0  0  0  0  0  0  0
    0.1156   29.0338  -27.2718 H   0  0  0  0  0  0  0  0  0  0  0  0
   -0.6890   29.1589  -24.9125 H   0  0  0  0  0  0  0  0  0  0  0  0
   -1.5397   27.1087  -23.7725 H   0  0  0  0  0  0  0  0  0  0  0  0
   -1.5941   24.9302  -24.9893 H   0  0  0  0  0  0  0  0  0  0  0  0
   -4.3285   22.7408  -27.9307 H   0  0  0  0  0  0  0  0  0  0  0  0
   -5.0858   24.0994  -28.8292 H   0  0  0  0  0  0  0  0  0  0  0  0
   -5.8617   22.4793  -28.8292 H   0  0  0  0  0  0  0  0  0  0  0  0
  1  2  1  0
  2  3  1  0
  3  4  2  0
  4  5  1  0
  5  6  2  0
  6  7  1  0
  7  8  2  0
  8  9  1  0
  9 10  1  0
 10 11  1  0
 10 12  2  0
 12 13  1  0
 13 14  1  0
 14 15  2  0
 15 16  1  0
 16 17  1  0
 16 18  2  0
 18 19  1  0
 19 20  1  0
 20 21  2  0
 21 22  1  0
 22 23  2  0
 23 24  1  0
 24 25  2  0
 19 26  1  0
 26 27  2  0
 13 28  2  0
 28 29  1  0
  8  3  1  0
 28  9  1  0
 26 14  1  0
 25 20  1  0
  1 30  1  0
  1 31  1  0
  1 32  1  0
  4 33  1  0
  5 34  1  0
  6 35  1  0
  7 36  1  0
 11 37  1  0
 11 38  1  0
 11 39  1  0
 12 40  1  0
 15 41  1  0
 17 42  1  0
 17 43  1  0
 17 44  1  0
 21 45  1  0
 22 46  1  0
 23 47  1  0
 24 48  1  0
 25 49  1  0
 29 50  1  0
 29 51  1  0
 29 52  1  0
M  END
>  <UniqueID>  (7) 
7

>  <SMILES>  (7) 
COc1ccccc1-n1c(C)cc(-c2cc(C)nn(-c3ccccc3)c2=O)c1C

>  <Energy>  (7) 
99.36456202742374

>  <Genealogy>  (7) 
COc1ccccc1-n1c(C)cc(-c2cc(C)nn(-c3ccccc3)c2=O)c1C (3D coordinates assigned)
COc1ccccc1-n1c(C)cc(-c2cc(C)nn(-c3ccccc3)c2=O)c1C (optimized conformer: 99.36456202742374 kcal/mol)

>  <smiles>  (7) 
COc1ccccc1-n1c(C)cc(-c2cc(C)nn(-c3ccccc3)c2=O)c1C

>  <score_type>  (7) 
oracle

>  <origin>  (7) 
adgpu

>  <m_score__min__energy>  (7) 
-8.7400000000000002

>  <m_primary>  (7) 
energy

$$$$
7:0
     RDKit          3D

 42 45  0  0  0  0  0  0  0  0999 V2000
    1.3221   22.4305  -33.8307 H   0  0  0  0  0  0  0  0  0  0  0  0
    0.7520   21.5370  -34.1250 C   0  0  0  0  0  0  0  0  0  0  0  0
    0.0140   20.8110  -33.3170 O   0  0  0  0  0  0  0  0  0  0  0  0
   -0.5180   19.8290  -34.0070 C   0  0  0  0  0  0  0  0  0  0  0  0
   -1.4040   18.7790  -33.4260 C   0  0  0  0  0  0  0  0  0  0  0  0
   -1.1251   18.6009  -32.3770 H   0  0  0  0  0  0  0  0  0  0  0  0
   -1.2923   17.8438  -33.9943 H   0  0  0  0  0  0  0  0  0  0  0  0
   -2.7880   19.2320  -33.4930 N   0  0  0  0  0  0  0  0  0  0  0  0
   -3.2600   20.2640  -32.8580 C   0  0  0  0  0  0  0  0  0  0  0  0
   -2.5190   21.0600  -32.0430 N   0  0  0  0  0  0  0  0  0  0  0  0
   -1.5100   20.9770  -31.7870 H   0  0  0  0  0  0  0  0  0  0  0  0
   -3.3840   22.0110  -31.6530 C   0  0  0  0  0  0  0  0  0  0  0  0
   -3.1400   23.1030  -30.8230 C   0  0  0  0  0  0  0  0  0  0  0  0
   -2.1478   23.2663  -30.3769 H   0  0  0  0  0  0  0  0  0  0  0  0
   -4.2050   23.9920  -30.5730 C   0  0  0  0  0  0  0  0  0  0  0  0
   -4.0050   25.1290  -29.7280 N   0  0  0  0  0  0  0  0  0  0  0  0
   -4.7450   25.4290  -29.0550 H   0  0  0  0  0  0  0  0  0  0  0  0
   -3.1170   25.6770  -29.7710 H   0  0  0  0  0  0  0  0  0  0  0  0
   -5.4740   23.7610  -31.1630 C   0  0  0  0  0  0  0  0  0  0  0  0
   -6.3011   24.4588  -30.9655 H   0  0  0  0  0  0  0  0  0  0  0  0
   -5.6860   22.6490  -31.9980 C   0  0  0  0  0  0  0  0  0  0  0  0
   -6.6663   22.4648  -32.4619 H   0  0  0  0  0  0  0  0  0  0  0  0
   -4.6100   21.7870  -32.2180 C   0  0  0  0  0  0  0  0  0  0  0  0
   -4.5490   20.6740  -32.9770 N   0  0  0  0  0  0  0  0  0  0  0  0
   -5.5850   20.0990  -33.8400 C   0  0  0  0  0  0  0  0  0  0  0  0
   -5.9298   20.8620  -34.5534 H   0  0  0  0  0  0  0  0  0  0  0  0
   -5.1654   19.2410  -34.3856 H   0  0  0  0  0  0  0  0  0  0  0  0
   -6.7480   19.6340  -33.0070 C   0  0  0  0  0  0  0  0  0  0  0  0
   -6.6970   18.3960  -32.3430 C   0  0  0  0  0  0  0  0  0  0  0  0
   -5.7871   17.7804  -32.3993 H   0  0  0  0  0  0  0  0  0  0  0  0
   -7.8000   17.9450  -31.6110 C   0  0  0  0  0  0  0  0  0  0  0  0
   -7.7544   16.9773  -31.0900 H   0  0  0  0  0  0  0  0  0  0  0  0
   -8.9600   18.7210  -31.5400 C   0  0  0  0  0  0  0  0  0  0  0  0
   -9.8256   18.3651  -30.9620 H   0  0  0  0  0  0  0  0  0  0  0  0
   -9.0200   19.9500  -32.2040 C   0  0  0  0  0  0  0  0  0  0  0  0
   -9.9331   20.5607  -32.1474 H   0  0  0  0  0  0  0  0  0  0  0  0
   -7.9210   20.4040  -32.9400 C   0  0  0  0  0  0  0  0  0  0  0  0
   -7.9752   21.3673  -33.4683 H   0  0  0  0  0  0  0  0  0  0  0  0
   -0.1160   19.9030  -35.3250 C   0  0  0  0  0  0  0  0  0  0  0  0
   -0.3918   19.2224  -36.1440 H   0  0  0  0  0  0  0  0  0  0  0  0
    0.7040   21.0090  -35.4000 C   0  0  0  0  0  0  0  0  0  0  0  0
    1.2163   21.3930  -36.2945 H   0  0  0  0  0  0  0  0  0  0  0  0
  1  2  1  0
  2  3  1  0
  3  4  1  0
  4  5  1  0
  5  6  1  0
  5  7  1  0
  5  8  1  0
  8  9  2  0
  9 10  1  0
 10 11  1  0
 10 12  1  0
 12 13  2  0
 13 14  1  0
 13 15  1  0
 15 16  1  0
 16 17  1  0
 16 18  1  0
 15 19  2  0
 19 20  1  0
 19 21  1  0
 21 22  1  0
 21 23  2  0
 23 24  1  0
 24 25  1  0
 25 26  1  0
 25 27  1  0
 25 28  1  0
 28 29  2  0
 29 30  1  0
 29 31  1  0
 31 32  1  0
 31 33  2  0
 33 34  1  0
 33 35  1  0
 35 36  1  0
 35 37  2  0
 37 38  1  0
  4 39  2  0
 39 40  1  0
 39 41  1  0
 41 42  1  0
 41  2  2  0
 24  9  1  0
 37 28  1  0
 23 12  1  0
M  END
>  <UniqueID>  (8) 
8

>  <SMILES>  (8) 
Nc1ccc2c(c1)[nH]/c(=N\Cc1ccco1)n2Cc1ccccc1

>  <Energy>  (8) 
106.44292901122934

>  <Genealogy>  (8) 
Nc1ccc2c(c1)[nH]/c(=N\Cc1ccco1)n2Cc1ccccc1 (cis-trans isomerization)
Nc1ccc2c(c1)[nH]/c(=N\Cc1ccco1)n2Cc1ccccc1 (3D coordinates assigned)
Nc1ccc2c(c1)[nH]/c(=N\Cc1ccco1)n2Cc1ccccc1 (optimized conformer: 106.44292901122934 kcal/mol)

>  <smiles>  (8) 
Nc1ccc2c(c1)[nH]c(=NCc1ccco1)n2Cc1ccccc1

>  <score_type>  (8) 
oracle

>  <origin>  (8) 
adgpu

>  <m_score__min__energy>  (8) 
-7.7300000000000004

>  <m_primary>  (8) 
energy

$$$$
8:0
     RDKit          3D

 60 63  0  0  0  0  0  0  0  0999 V2000
   -0.4850   23.1710  -24.4720 C   0  0  0  0  0  0  0  0  0  0  0  0
   -0.5930   24.4550  -25.2400 C   0  0  0  0  0  0  0  0  0  0  0  0
   -0.4310   25.6880  -24.5910 C   0  0  0  0  0  0  0  0  0  0  0  0
   -0.5310   26.8800  -25.3140 C   0  0  0  0  0  0  0  0  0  0  0  0
   -0.8250   26.8530  -26.6820 C   0  0  0  0  0  0  0  0  0  0  0  0
   -0.8450   28.0210  -27.3770 F   0  0  0  0  0  0  0  0  0  0  0  0
   -1.0480   25.6230  -27.3290 C   0  0  0  0  0  0  0  0  0  0  0  0
   -1.3600   25.5530  -28.7260 N   0  0  0  0  0  0  0  0  0  0  0  0
   -2.2320   24.5940  -29.3340 C   0  0  0  0  0  0  0  0  0  0  0  0
   -1.7740   23.4580  -29.6250 O   0  0  0  0  0  0  0  0  0  0  0  0
   -3.6250   24.8860  -29.5250 N   0  0  0  0  0  0  0  0  0  0  0  0
   -4.5130   24.1100  -30.3490 C   0  0  0  0  0  0  0  0  0  0  0  0
   -4.5490   22.7150  -30.1940 C   0  0  0  0  0  0  0  0  0  0  0  0
   -5.4190   21.9360  -30.9610 C   0  0  0  0  0  0  0  0  0  0  0  0
   -6.2690   22.5440  -31.9030 C   0  0  0  0  0  0  0  0  0  0  0  0
   -7.1480   21.8030  -32.7070 O   0  0  0  0  0  0  0  0  0  0  0  0
   -7.4810   20.4560  -32.5060 C   0  0  0  0  0  0  0  0  0  0  0  0
   -8.7020   20.1710  -31.8850 C   0  0  0  0  0  0  0  0  0  0  0  0
   -9.0710   18.8530  -31.6150 C   0  0  0  0  0  0  0  0  0  0  0  0
   -8.2210   17.8060  -31.9690 C   0  0  0  0  0  0  0  0  0  0  0  0
   -7.0130   18.0720  -32.6170 C   0  0  0  0  0  0  0  0  0  0  0  0
   -6.6400   19.3920  -32.9200 C   0  0  0  0  0  0  0  0  0  0  0  0
   -5.3970   19.6150  -33.6980 C   0  0  0  0  0  0  0  0  0  0  0  0
   -5.0920   18.7990  -34.6090 O   0  0  0  0  0  0  0  0  0  0  0  0
   -4.5130   20.7140  -33.4400 N   0  0  0  0  0  0  0  0  0  0  0  0
   -3.1250   20.6280  -33.0850 C   0  0  0  0  0  0  0  0  0  0  0  0
   -2.7830   20.2760  -31.7730 C   0  0  0  0  0  0  0  0  0  0  0  0
   -1.4410   20.1910  -31.3920 C   0  0  0  0  0  0  0  0  0  0  0  0
   -0.4290   20.4480  -32.3200 C   0  0  0  0  0  0  0  0  0  0  0  0
   -0.7580   20.7860  -33.6400 C   0  0  0  0  0  0  0  0  0  0  0  0
    0.5150   21.0940  -34.8170 S   0  0  0  0  0  0  0  0  0  0  0  0
    2.0490   20.4270  -34.2170 C   0  0  0  0  0  0  0  0  0  0  0  0
    0.1660   20.4470  -36.1280 O   0  0  0  0  0  0  0  0  0  0  0  0
    0.6590   22.5750  -35.0290 O   0  0  0  0  0  0  0  0  0  0  0  0
   -2.1050   20.8530  -34.0260 C   0  0  0  0  0  0  0  0  0  0  0  0
   -6.2660   23.9380  -32.0270 C   0  0  0  0  0  0  0  0  0  0  0  0
   -5.4000   24.7180  -31.2570 C   0  0  0  0  0  0  0  0  0  0  0  0
   -0.9080   24.4290  -26.6070 C   0  0  0  0  0  0  0  0  0  0  0  0
   -0.5031   23.3863  -23.3934 H   0  0  0  0  0  0  0  0  0  0  0  0
   -1.3313   22.5173  -24.7297 H   0  0  0  0  0  0  0  0  0  0  0  0
    0.4586   22.6679  -24.7297 H   0  0  0  0  0  0  0  0  0  0  0  0
   -0.2248   25.7168  -23.5109 H   0  0  0  0  0  0  0  0  0  0  0  0
   -0.3780   27.8434  -24.8056 H   0  0  0  0  0  0  0  0  0  0  0  0
   -4.0350   25.6630  -28.9630 H   0  0  0  0  0  0  0  0  0  0  0  0
   -3.8860   22.2309  -29.4618 H   0  0  0  0  0  0  0  0  0  0  0  0
   -5.4395   20.8443  -30.8280 H   0  0  0  0  0  0  0  0  0  0  0  0
   -9.3772   20.9938  -31.6071 H   0  0  0  0  0  0  0  0  0  0  0  0
  -10.0316   18.6400  -31.1233 H   0  0  0  0  0  0  0  0  0  0  0  0
   -8.5026   16.7682  -31.7373 H   0  0  0  0  0  0  0  0  0  0  0  0
   -6.3476   17.2406  -32.8926 H   0  0  0  0  0  0  0  0  0  0  0  0
   -3.5747   20.0654  -31.0389 H   0  0  0  0  0  0  0  0  0  0  0  0
   -1.1808   19.9208  -30.3579 H   0  0  0  0  0  0  0  0  0  0  0  0
    0.6260   20.3851  -32.0149 H   0  0  0  0  0  0  0  0  0  0  0  0
    2.0444   20.4290  -33.1170 H   0  0  0  0  0  0  0  0  0  0  0  0
    2.1679   19.3959  -34.5813 H   0  0  0  0  0  0  0  0  0  0  0  0
    2.8842   21.0432  -34.5813 H   0  0  0  0  0  0  0  0  0  0  0  0
   -2.3644   21.0827  -35.0700 H   0  0  0  0  0  0  0  0  0  0  0  0
   -6.9516   24.4237  -32.7370 H   0  0  0  0  0  0  0  0  0  0  0  0
   -5.4114   25.8130  -31.3608 H   0  0  0  0  0  0  0  0  0  0  0  0
   -1.0463   23.4640  -27.1166 H   0  0  0  0  0  0  0  0  0  0  0  0
  1  2  1  0
  2  3  2  0
  3  4  1  0
  4  5  2  0
  5  6  1  0
  5  7  1  0
  7  8  1  0
  8  9  1  0
  9 10  2  0
  9 11  1  0
 11 12  1  0
 12 13  2  0
 13 14  1  0
 14 15  2  0
 15 16  1  0
 16 17  1  0
 17 18  2  0
 18 19  1  0
 19 20  2  0
 20 21  1  0
 21 22  2  0
 22 23  1  0
 23 24  2  0
 23 25  1  0
 25 26  1  0
 26 27  2  0
 27 28  1  0
 28 29  2  0
 29 30  1  0
 30 31  1  0
 31 32  1  0
 31 33  2  0
 31 34  2  0
 30 35  2  0
 15 36  1  0
 36 37  2  0
  7 38  2  0
 38  2  1  0
 37 12  1  0
 22 17  1  0
 35 26  1  0
  1 39  1  0
  1 40  1  0
  1 41  1  0
  3 42  1  0
  4 43  1  0
 11 44  1  0
 13 45  1  0
 14 46  1  0
 18 47  1  0
 19 48  1  0
 20 49  1  0
 21 50  1  0
 27 51  1  0
 28 52  1  0
 29 53  1  0
 32 54  1  0
 32 55  1  0
 32 56  1  0
 35 57  1  0
 36 58  1  0
 37 59  1  0
 38 60  1  0
M  CHG  2   8  -1  25  -1
M  END
>  <UniqueID>  (9) 
9

>  <SMILES>  (9) 
Cc1ccc(F)c([N-]C(=O)Nc2ccc(Oc3ccccc3C(=O)[N-]c3cccc(S(C)(=O)=O)c3)cc2)c1

>  <Energy>  (9) 
83.25482216575182

>  <Genealogy>  (9) 
Cc1ccc(F)c([N-]C(=O)Nc2ccc(Oc3ccccc3C(=O)[N-]c3cccc(S(C)(=O)=O)c3)cc2)c1 (protonated)
Cc1ccc(F)c([N-]C(=O)Nc2ccc(Oc3ccccc3C(=O)[N-]c3cccc(S(C)(=O)=O)c3)cc2)c1 (3D coordinates assigned)
Cc1ccc(F)c([N-]C(=O)Nc2ccc(Oc3ccccc3C(=O)[N-]c3cccc(S(C)(=O)=O)c3)cc2)c1 (optimized conformer: 83.25482216575182 kcal/mol)

>  <smiles>  (9) 
Cc1ccc(F)c(NC(=O)Nc2ccc(Oc3ccccc3C(=O)Nc3cccc(S(C)(=O)=O)c3)cc2)c1

>  <score_type>  (9) 
oracle

>  <origin>  (9) 
adgpu

>  <m_score__min__energy>  (9) 
-12.6

>  <m_primary>  (9) 
energy

$$$$
9:0
     RDKit          3D

 46 48  0  0  0  0  0  0  0  0999 V2000
   -5.0130   12.1390  -32.0880 C   0  0  0  0  0  0  0  0  0  0  0  0
   -5.2290   12.8800  -33.2860 O   0  0  0  0  0  0  0  0  0  0  0  0
   -5.3520   14.2780  -33.3460 C   0  0  0  0  0  0  0  0  0  0  0  0
   -4.5100   15.1340  -32.6100 C   0  0  0  0  0  0  0  0  0  0  0  0
   -4.6690   16.5180  -32.6870 C   0  0  0  0  0  0  0  0  0  0  0  0
   -5.6610   17.0700  -33.5050 C   0  0  0  0  0  0  0  0  0  0  0  0
   -5.8580   18.8190  -33.5680 S   0  0  0  0  0  0  0  0  0  0  0  0
   -6.1850   19.2690  -34.9650 O   0  0  0  0  0  0  0  0  0  0  0  0
   -4.5630   19.4560  -33.1460 O   0  0  0  0  0  0  0  0  0  0  0  0
   -7.1420   19.2890  -32.4940 N   0  0  0  0  0  0  0  0  0  0  0  0
   -8.0660   18.2650  -31.9980 C   0  0  0  0  0  0  0  0  0  0  0  0
   -7.3110   20.6650  -32.1090 C   0  0  0  0  0  0  0  0  0  0  0  0
   -8.5760   21.2710  -32.1730 C   0  0  0  0  0  0  0  0  0  0  0  0
   -8.7370   22.6060  -31.8020 C   0  0  0  0  0  0  0  0  0  0  0  0
   -7.6400   23.3520  -31.3650 C   0  0  0  0  0  0  0  0  0  0  0  0
   -6.3650   22.7680  -31.3010 C   0  0  0  0  0  0  0  0  0  0  0  0
   -5.2030   23.5630  -30.8490 C   0  0  0  0  0  0  0  0  0  0  0  0
   -4.9850   24.8480  -31.2000 N   0  0  0  0  0  0  0  0  0  0  0  0
   -3.8830   25.1800  -30.5990 O   0  0  0  0  0  0  0  0  0  0  0  0
   -3.4350   24.1600  -29.9120 C   0  0  0  0  0  0  0  0  0  0  0  0
   -2.1990   24.1860  -29.0780 C   0  0  0  0  0  0  0  0  0  0  0  0
   -4.2410   23.0870  -30.0270 N   0  0  0  0  0  0  0  0  0  0  0  0
   -6.2080   21.4230  -31.6780 C   0  0  0  0  0  0  0  0  0  0  0  0
   -6.5060   16.2250  -34.2380 C   0  0  0  0  0  0  0  0  0  0  0  0
   -6.3550   14.8260  -34.1650 C   0  0  0  0  0  0  0  0  0  0  0  0
   -7.1810   13.9480  -34.8850 O   0  0  0  0  0  0  0  0  0  0  0  0
   -7.9200   12.8760  -34.3060 C   0  0  0  0  0  0  0  0  0  0  0  0
   -5.2014   12.7853  -31.2181 H   0  0  0  0  0  0  0  0  0  0  0  0
   -5.6977   11.2785  -32.0606 H   0  0  0  0  0  0  0  0  0  0  0  0
   -3.9732   11.7812  -32.0606 H   0  0  0  0  0  0  0  0  0  0  0  0
   -3.7223   14.7089  -31.9706 H   0  0  0  0  0  0  0  0  0  0  0  0
   -4.0116   17.1781  -32.1021 H   0  0  0  0  0  0  0  0  0  0  0  0
   -8.0620   18.2694  -30.8980 H   0  0  0  0  0  0  0  0  0  0  0  0
   -9.0815   18.4802  -32.3619 H   0  0  0  0  0  0  0  0  0  0  0  0
   -7.7479   17.2769  -32.3619 H   0  0  0  0  0  0  0  0  0  0  0  0
   -9.4443   20.6901  -32.5174 H   0  0  0  0  0  0  0  0  0  0  0  0
   -9.7316   23.0730  -31.8538 H   0  0  0  0  0  0  0  0  0  0  0  0
   -7.7758   24.4028  -31.0694 H   0  0  0  0  0  0  0  0  0  0  0  0
   -2.4750   24.1802  -28.0132 H   0  0  0  0  0  0  0  0  0  0  0  0
   -1.5863   23.3005  -29.3028 H   0  0  0  0  0  0  0  0  0  0  0  0
   -1.6241   25.0964  -29.3028 H   0  0  0  0  0  0  0  0  0  0  0  0
   -5.2118   20.9586  -31.6354 H   0  0  0  0  0  0  0  0  0  0  0  0
   -7.2923   16.6571  -34.8745 H   0  0  0  0  0  0  0  0  0  0  0  0
   -7.8710   12.9471  -33.2094 H   0  0  0  0  0  0  0  0  0  0  0  0
   -8.9692   12.9364  -34.6308 H   0  0  0  0  0  0  0  0  0  0  0  0
   -7.4903   11.9169  -34.6308 H   0  0  0  0  0  0  0  0  0  0  0  0
  1  2  1  0
  2  3  1  0
  3  4  2  0
  4  5  1  0
  5  6  2  0
  6  7  1  0
  7  8  2  0
  7  9  2  0
  7 10  1  0
 10 11  1  0
 10 12  1  0
 12 13  2  0
 13 14  1  0
 14 15  2  0
 15 16  1  0
 16 17  1  0
 17 18  2  0
 18 19  1  0
 19 20  1  0
 20 21  1  0
 20 22  2  0
 16 23  2  0
  6 24  1  0
 24 25  2  0
 25 26  1  0
 26 27  1  0
 25  3  1  0
 23 12  1  0
 22 17  1  0
  1 28  1  0
  1 29  1  0
  1 30  1  0
  4 31  1  0
  5 32  1  0
 11 33  1  0
 11 34  1  0
 11 35  1  0
 13 36  1  0
 14 37  1  0
 15 38  1  0
 21 39  1  0
 21 40  1  0
 21 41  1  0
 23 42  1  0
 24 43  1  0
 27 44  1  0
 27 45  1  0
 27 46  1  0
M  END
>  <UniqueID>  (10) 
10

>  <SMILES>  (10) 
COc1ccc(S(=O)(=O)N(C)c2cccc(-c3noc(C)n3)c2)cc1OC

>  <Energy>  (10) 
83.57262686156399

>  <Genealogy>  (10) 
COc1ccc(S(=O)(=O)N(C)c2cccc(-c3noc(C)n3)c2)cc1OC (3D coordinates assigned)
COc1ccc(S(=O)(=O)N(C)c2cccc(-c3noc(C)n3)c2)cc1OC (optimized conformer: 83.57262686156399 kcal/mol)

>  <smiles>  (10) 
COc1ccc(S(=O)(=O)N(C)c2cccc(-c3noc(C)n3)c2)cc1OC

>  <score_type>  (10) 
oracle

>  <origin>  (10) 
adgpu

>  <m_score__min__energy>  (10) 
-8.9700000000000006

>  <m_primary>  (10) 
energy

$$$$
10:0
     RDKit          3D

 40 42  0  0  0  0  0  0  0  0999 V2000
   -4.6140   14.5240  -32.1390 C   0  0  0  0  0  0  0  0  0  0  0  0
   -4.2770   15.7240  -32.8260 O   0  0  0  0  0  0  0  0  0  0  0  0
   -5.1430   16.8180  -32.9810 C   0  0  0  0  0  0  0  0  0  0  0  0
   -5.0940   17.6680  -34.1000 C   0  0  0  0  0  0  0  0  0  0  0  0
   -5.9800   18.7440  -34.2090 C   0  0  0  0  0  0  0  0  0  0  0  0
   -6.9350   18.9870  -33.2040 C   0  0  0  0  0  0  0  0  0  0  0  0
   -7.8680   20.0800  -33.2860 N   0  0  0  0  0  0  0  0  0  0  0  0
   -8.4470   20.9660  -31.9110 S   0  0  0  0  0  0  0  0  0  0  0  0
   -9.4510   21.9860  -32.3650 O   0  0  0  0  0  0  0  0  0  0  0  0
   -9.1130   20.0130  -30.9570 O   0  0  0  0  0  0  0  0  0  0  0  0
   -7.1080   21.8000  -31.1260 C   0  0  0  0  0  0  0  0  0  0  0  0
   -7.3550   22.9360  -30.3460 C   0  0  0  0  0  0  0  0  0  0  0  0
   -6.2970   23.6110  -29.7320 C   0  0  0  0  0  0  0  0  0  0  0  0
   -4.9760   23.1590  -29.8860 C   0  0  0  0  0  0  0  0  0  0  0  0
   -3.8690   23.8910  -29.2290 C   0  0  0  0  0  0  0  0  0  0  0  0
   -3.4350   23.7660  -27.9210 C   0  0  0  0  0  0  0  0  0  0  0  0
   -2.3980   24.6700  -27.8380 C   0  0  0  0  0  0  0  0  0  0  0  0
   -1.5250   24.8940  -26.6490 C   0  0  0  0  0  0  0  0  0  0  0  0
   -2.2210   25.2740  -29.0280 N   0  0  0  0  0  0  0  0  0  0  0  0
   -3.1220   24.7900  -29.8310 O   0  0  0  0  0  0  0  0  0  0  0  0
   -4.7350   22.0120  -30.6660 C   0  0  0  0  0  0  0  0  0  0  0  0
   -5.7950   21.3390  -31.2800 C   0  0  0  0  0  0  0  0  0  0  0  0
   -6.9730   18.1390  -32.0860 C   0  0  0  0  0  0  0  0  0  0  0  0
   -6.0860   17.0650  -31.9780 C   0  0  0  0  0  0  0  0  0  0  0  0
   -4.5655   14.6968  -31.0537 H   0  0  0  0  0  0  0  0  0  0  0  0
   -5.6332   14.2167  -32.4161 H   0  0  0  0  0  0  0  0  0  0  0  0
   -3.9038   13.7310  -32.4161 H   0  0  0  0  0  0  0  0  0  0  0  0
   -4.3547   17.4854  -34.8938 H   0  0  0  0  0  0  0  0  0  0  0  0
   -5.9304   19.4054  -35.0865 H   0  0  0  0  0  0  0  0  0  0  0  0
   -8.1690   20.4200  -34.2270 H   0  0  0  0  0  0  0  0  0  0  0  0
   -8.3855   23.2983  -30.2161 H   0  0  0  0  0  0  0  0  0  0  0  0
   -6.5002   24.5040  -29.1228 H   0  0  0  0  0  0  0  0  0  0  0  0
   -3.8249   23.1029  -27.1346 H   0  0  0  0  0  0  0  0  0  0  0  0
   -2.1110   24.7436  -25.7303 H   0  0  0  0  0  0  0  0  0  0  0  0
   -0.6870   24.1818  -26.6700 H   0  0  0  0  0  0  0  0  0  0  0  0
   -1.1334   25.9217  -26.6700 H   0  0  0  0  0  0  0  0  0  0  0  0
   -3.7064   21.6433  -30.7929 H   0  0  0  0  0  0  0  0  0  0  0  0
   -5.5968   20.4432  -31.8869 H   0  0  0  0  0  0  0  0  0  0  0  0
   -7.7076   18.3217  -31.2879 H   0  0  0  0  0  0  0  0  0  0  0  0
   -6.1296   16.4081  -31.0967 H   0  0  0  0  0  0  0  0  0  0  0  0
  1  2  1  0
  2  3  1  0
  3  4  2  0
  4  5  1  0
  5  6  2  0
  6  7  1  0
  7  8  1  0
  8  9  2  0
  8 10  2  0
  8 11  1  0
 11 12  2  0
 12 13  1  0
 13 14  2  0
 14 15  1  0
 15 16  2  0
 16 17  1  0
 17 18  1  0
 17 19  2  0
 19 20  1  0
 14 21  1  0
 21 22  2  0
  6 23  1  0
 23 24  2  0
 24  3  1  0
 22 11  1  0
 20 15  1  0
  1 25  1  0
  1 26  1  0
  1 27  1  0
  4 28  1  0
  5 29  1  0
  7 30  1  0
 12 31  1  0
 13 32  1  0
 16 33  1  0
 18 34  1  0
 18 35  1  0
 18 36  1  0
 21 37  1  0
 22 38  1  0
 23 39  1  0
 24 40  1  0
M  END
>  <UniqueID>  (11) 
11

>  <SMILES>  (11) 
COc1ccc(NS(=O)(=O)c2ccc(-c3cc(C)no3)cc2)cc1

>  <Energy>  (11) 
74.05366295402469

>  <Genealogy>  (11) 
COc1ccc(NS(=O)(=O)c2ccc(-c3cc(C)no3)cc2)cc1 (3D coordinates assigned)
COc1ccc(NS(=O)(=O)c2ccc(-c3cc(C)no3)cc2)cc1 (optimized conformer: 74.05366295402469 kcal/mol)

>  <smiles>  (11) 
COc1ccc(NS(=O)(=O)c2ccc(-c3cc(C)no3)cc2)cc1

>  <score_type>  (11) 
oracle

>  <origin>  (11) 
adgpu

>  <m_score__min__energy>  (11) 
-9.3000000000000007

>  <m_primary>  (11) 
energy

$$$$
11:0
     RDKit          3D

 52 54  0  0  0  0  0  0  0  0999 V2000
   -0.5140   22.6740  -25.2200 C   0  0  0  0  0  0  0  0  0  0  0  0
   -0.4050   24.1530  -25.3340 C   0  0  0  0  0  0  0  0  0  0  0  0
    0.1050   24.8930  -24.3110 N   0  0  0  0  0  0  0  0  0  0  0  0
    0.1920   26.2260  -24.4400 C   0  0  0  0  0  0  0  0  0  0  0  0
    0.6750   26.9420  -23.4750 N   0  0  0  0  0  0  0  0  0  0  0  0
   -0.2080   26.8780  -25.5530 N   0  0  0  0  0  0  0  0  0  0  0  0
   -0.7110   26.1530  -26.5660 C   0  0  0  0  0  0  0  0  0  0  0  0
   -1.1180   26.7190  -27.6740 N   0  0  0  0  0  0  0  0  0  0  0  0
   -0.8320   24.7770  -26.5060 C   0  0  0  0  0  0  0  0  0  0  0  0
   -1.3770   23.9770  -27.5980 C   0  0  0  0  0  0  0  0  0  0  0  0
   -0.5150   23.2760  -28.4200 C   0  0  0  0  0  0  0  0  0  0  0  0
   -1.0770   22.5350  -29.4370 C   0  0  0  0  0  0  0  0  0  0  0  0
   -2.4400   22.4730  -29.6560 C   0  0  0  0  0  0  0  0  0  0  0  0
   -2.8830   21.6700  -30.7430 N   0  0  0  0  0  0  0  0  0  0  0  0
   -3.6600   20.4600  -30.5800 C   0  0  0  0  0  0  0  0  0  0  0  0
   -4.9990   20.6050  -31.2720 C   0  0  0  0  0  0  0  0  0  0  0  0
   -4.8390   21.1550  -32.6470 C   0  0  0  0  0  0  0  0  0  0  0  0
   -5.5200   22.4450  -32.7140 N   0  0  0  0  0  0  0  0  0  0  0  0
   -3.4060   21.2910  -33.1090 C   0  0  0  0  0  0  0  0  0  0  0  0
   -2.5600   22.0500  -32.1180 C   0  0  0  0  0  0  0  0  0  0  0  0
   -3.2930   23.1610  -28.8500 C   0  0  0  0  0  0  0  0  0  0  0  0
   -4.6940   23.1120  -29.0550 N   0  0  0  0  0  0  0  0  0  0  0  0
   -5.4870   24.3070  -30.0130 S   0  0  0  0  0  0  0  0  0  0  0  0
   -6.1130   25.6330  -29.0510 C   0  0  0  0  0  0  0  0  0  0  0  0
   -4.5260   24.8290  -31.0400 O   0  0  0  0  0  0  0  0  0  0  0  0
   -6.6200   23.6790  -30.7720 O   0  0  0  0  0  0  0  0  0  0  0  0
   -2.7560   23.9100  -27.8230 C   0  0  0  0  0  0  0  0  0  0  0  0
   -0.5350   22.3887  -24.1579 H   0  0  0  0  0  0  0  0  0  0  0  0
   -1.4395   22.3358  -25.7089 H   0  0  0  0  0  0  0  0  0  0  0  0
    0.3519   22.2037  -25.7089 H   0  0  0  0  0  0  0  0  0  0  0  0
    0.4260   24.4160  -23.4280 H   0  0  0  0  0  0  0  0  0  0  0  0
    1.0060   26.5130  -22.5810 H   0  0  0  0  0  0  0  0  0  0  0  0
   -0.1380   27.9240  -25.6530 H   0  0  0  0  0  0  0  0  0  0  0  0
   -1.0570   27.7580  -27.7920 H   0  0  0  0  0  0  0  0  0  0  0  0
    0.5741   23.3082  -28.2688 H   0  0  0  0  0  0  0  0  0  0  0  0
   -0.4111   21.9678  -30.1040 H   0  0  0  0  0  0  0  0  0  0  0  0
   -3.1124   19.6138  -31.0205 H   0  0  0  0  0  0  0  0  0  0  0  0
   -3.8263   20.2803  -29.5076 H   0  0  0  0  0  0  0  0  0  0  0  0
   -5.4792   19.6173  -31.3344 H   0  0  0  0  0  0  0  0  0  0  0  0
   -5.6186   21.3019  -30.6884 H   0  0  0  0  0  0  0  0  0  0  0  0
   -5.2903   20.4263  -33.3365 H   0  0  0  0  0  0  0  0  0  0  0  0
   -5.0440   23.1660  -32.1320 H   0  0  0  0  0  0  0  0  0  0  0  0
   -6.5150   22.3230  -32.4400 H   0  0  0  0  0  0  0  0  0  0  0  0
   -2.9796   20.2859  -33.2429 H   0  0  0  0  0  0  0  0  0  0  0  0
   -3.4069   21.8534  -34.0544 H   0  0  0  0  0  0  0  0  0  0  0  0
   -1.4993   21.8311  -32.3105 H   0  0  0  0  0  0  0  0  0  0  0  0
   -2.7636   23.1243  -32.2384 H   0  0  0  0  0  0  0  0  0  0  0  0
   -5.2530   22.3450  -28.6230 H   0  0  0  0  0  0  0  0  0  0  0  0
   -6.0010   25.3958  -27.9827 H   0  0  0  0  0  0  0  0  0  0  0  0
   -5.5531   26.5509  -29.2834 H   0  0  0  0  0  0  0  0  0  0  0  0
   -7.1775   25.7840  -29.2834 H   0  0  0  0  0  0  0  0  0  0  0  0
   -3.4325   24.4711  -27.1615 H   0  0  0  0  0  0  0  0  0  0  0  0
  1  2  1  0
  2  3  1  0
  3  4  1  0
  4  5  2  3
  4  6  1  0
  6  7  1  0
  7  8  2  3
  7  9  1  0
  9 10  1  0
 10 11  2  0
 11 12  1  0
 12 13  2  0
 13 14  1  0
 14 15  1  0
 15 16  1  0
 16 17  1  0
 17 18  1  0
 17 19  1  0
 19 20  1  0
 13 21  1  0
 21 22  1  0
 22 23  1  0
 23 24  1  0
 23 25  2  0
 23 26  2  0
 21 27  2  0
  9  2  2  0
 27 10  1  0
 20 14  1  0
  1 28  1  0
  1 29  1  0
  1 30  1  0
  3 31  1  0
  5 32  1  0
  6 33  1  0
  8 34  1  0
 11 35  1  0
 12 36  1  0
 15 37  1  0
 15 38  1  0
 16 39  1  0
 16 40  1  0
 17 41  1  0
 18 42  1  0
 18 43  1  0
 19 44  1  0
 19 45  1  0
 20 46  1  0
 20 47  1  0
 22 48  1  0
 24 49  1  0
 24 50  1  0
 24 51  1  0
 27 52  1  0
M  END
>  <smiles>  (12) 
Cc1[nH]c(=N)[nH]c(=N)c1-c1ccc(N2CCC(N)CC2)c(NS(C)(=O)=O)c1

>  <score_type>  (12) 
oracle

>  <origin>  (12) 
adgpu

>  <m_score__min__energy>  (12) 
-8.6600000000000001

>  <m_primary>  (12) 
energy

$$$$
12:0
     RDKit          3D

 46 49  0  0  0  0  0  0  0  0999 V2000
   -5.5140   26.4260  -29.6350 H   0  0  0  0  0  0  0  0  0  0  0  0
   -5.5800   25.6180  -30.2940 N   0  0  0  0  0  0  0  0  0  0  0  0
   -4.6900   24.6750  -30.3220 C   0  0  0  0  0  0  0  0  0  0  0  0
   -4.8380   23.6220  -31.2270 C   0  0  0  0  0  0  0  0  0  0  0  0
   -5.7008   23.5961  -31.9088 H   0  0  0  0  0  0  0  0  0  0  0  0
   -3.8840   22.6010  -31.2620 C   0  0  0  0  0  0  0  0  0  0  0  0
   -4.0390   21.5250  -32.1510 C   0  0  0  0  0  0  0  0  0  0  0  0
   -4.8992   21.5038  -32.8363 H   0  0  0  0  0  0  0  0  0  0  0  0
   -3.1060   20.4760  -32.1730 C   0  0  0  0  0  0  0  0  0  0  0  0
   -3.2840   19.3450  -33.1140 C   0  0  0  0  0  0  0  0  0  0  0  0
   -4.5330   18.7100  -33.3050 C   0  0  0  0  0  0  0  0  0  0  0  0
   -5.7250   19.1790  -32.6550 N   0  0  0  0  0  0  0  0  0  0  0  0
   -6.1240   18.5220  -31.4110 C   0  0  0  0  0  0  0  0  0  0  0  0
   -5.7661   19.1113  -30.5539 H   0  0  0  0  0  0  0  0  0  0  0  0
   -7.2207   18.4464  -31.3716 H   0  0  0  0  0  0  0  0  0  0  0  0
   -5.6854   17.5140  -31.3716 H   0  0  0  0  0  0  0  0  0  0  0  0
   -6.7600   19.8320  -33.4670 C   0  0  0  0  0  0  0  0  0  0  0  0
   -6.2761   20.4422  -34.2439 H   0  0  0  0  0  0  0  0  0  0  0  0
   -7.3894   19.0544  -33.9245 H   0  0  0  0  0  0  0  0  0  0  0  0
   -7.6300   20.7150  -32.6200 C   0  0  0  0  0  0  0  0  0  0  0  0
   -8.8290   20.2860  -32.0580 C   0  0  0  0  0  0  0  0  0  0  0  0
   -9.2609   19.2782  -32.1464 H   0  0  0  0  0  0  0  0  0  0  0  0
   -9.5010   21.5800  -31.2200 S   0  0  0  0  0  0  0  0  0  0  0  0
   -8.2870   22.6920  -31.5580 C   0  0  0  0  0  0  0  0  0  0  0  0
   -8.2557   23.7379  -31.2186 H   0  0  0  0  0  0  0  0  0  0  0  0
   -7.3300   22.0590  -32.3410 C   0  0  0  0  0  0  0  0  0  0  0  0
   -6.4233   22.5622  -32.7078 H   0  0  0  0  0  0  0  0  0  0  0  0
   -4.6240   17.6460  -34.1500 N   0  0  0  0  0  0  0  0  0  0  0  0
   -3.5530   17.1690  -34.8350 C   0  0  0  0  0  0  0  0  0  0  0  0
   -3.6689   16.3037  -35.5042 H   0  0  0  0  0  0  0  0  0  0  0  0
   -2.3070   17.7760  -34.6900 C   0  0  0  0  0  0  0  0  0  0  0  0
   -1.4375   17.4008  -35.2497 H   0  0  0  0  0  0  0  0  0  0  0  0
   -2.1740   18.8640  -33.8280 C   0  0  0  0  0  0  0  0  0  0  0  0
   -1.1940   19.3485  -33.7064 H   0  0  0  0  0  0  0  0  0  0  0  0
   -1.9950   20.5300  -31.3180 C   0  0  0  0  0  0  0  0  0  0  0  0
   -1.2472   19.7238  -31.3453 H   0  0  0  0  0  0  0  0  0  0  0  0
   -1.8290   21.5980  -30.4320 C   0  0  0  0  0  0  0  0  0  0  0  0
   -0.9536   21.6235  -29.7665 H   0  0  0  0  0  0  0  0  0  0  0  0
   -2.7750   22.6440  -30.3840 C   0  0  0  0  0  0  0  0  0  0  0  0
   -2.6620   23.7290  -29.4800 C   0  0  0  0  0  0  0  0  0  0  0  0
   -1.5170   23.8240  -28.5050 C   0  0  0  0  0  0  0  0  0  0  0  0
   -1.9071   23.7916  -27.4770 H   0  0  0  0  0  0  0  0  0  0  0  0
   -0.8298   22.9798  -28.6631 H   0  0  0  0  0  0  0  0  0  0  0  0
   -0.9783   24.7699  -28.6631 H   0  0  0  0  0  0  0  0  0  0  0  0
   -3.6190   24.7060  -29.4770 N   0  0  0  0  0  0  0  0  0  0  0  0
   -3.5330   25.5020  -28.8040 H   0  0  0  0  0  0  0  0  0  0  0  0
  1  2  1  0
  2  3  2  0
  3  4  1  0
  4  5  1  0
  4  6  2  0
  6  7  1  0
  7  8  1  0
  7  9  2  0
  9 10  1  0
 10 11  1  0
 11 12  1  0
 12 13  1  0
 13 14  1  0
 13 15  1  0
 13 16  1  0
 12 17  1  0
 17 18  1  0
 17 19  1  0
 17 20  1  0
 20 21  2  0
 21 22  1  0
 21 23  1  0
 23 24  1  0
 24 25  1  0
 24 26  2  0
 26 27  1  0
 11 28  2  0
 28 29  1  0
 29 30  1  0
 29 31  2  0
 31 32  1  0
 31 33  1  0
 33 34  1  0
  9 35  1  0
 35 36  1  0
 35 37  2  0
 37 38  1  0
 37 39  1  0
 39 40  2  0
 40 41  1  0
 41 42  1  0
 41 43  1  0
 41 44  1  0
 40 45  1  0
 45 46  1  0
 45  3  1  0
 39  6  1  0
 33 10  2  0
 26 20  1  0
M  END
>  <UniqueID>  (13) 
12

>  <SMILES>  (13) 
[H]/N=c1/cc2cc(-c3cccnc3N(C)Cc3ccsc3)ccc2c(C)[nH]1

>  <Energy>  (13) 
86.6289563667981

>  <Genealogy>  (13) 
[H]/N=c1/cc2cc(-c3cccnc3N(C)Cc3ccsc3)ccc2c(C)[nH]1 (cis-trans isomerization)
[H]/N=c1/cc2cc(-c3cccnc3N(C)Cc3ccsc3)ccc2c(C)[nH]1 (3D coordinates assigned)
[H]/N=c1/cc2cc(-c3cccnc3N(C)Cc3ccsc3)ccc2c(C)[nH]1 (optimized conformer: 86.6289563667981 kcal/mol)

>  <smiles>  (13) 
Cc1[nH]c(=N)cc2cc(-c3cccnc3N(C)Cc3ccsc3)ccc12

>  <score_type>  (13) 
oracle

>  <origin>  (13) 
adgpu

>  <m_score__min__energy>  (13) 
-8.7300000000000004

>  <m_primary>  (13) 
energy

$$$$
13:0
     RDKit          3D

 30 31  0  0  0  0  0  0  0  0999 V2000
    0.9230   25.1260  -28.5940 H   0  0  0  0  0  0  0  0  0  0  0  0
    0.5790   24.1770  -28.5000 O   0  0  0  0  0  0  0  0  0  0  0  0
   -0.7830   23.8880  -28.5430 C   0  0  0  0  0  0  0  0  0  0  0  0
   -1.2550   22.6260  -28.1540 C   0  0  0  0  0  0  0  0  0  0  0  0
   -0.5470   21.8572  -27.8111 H   0  0  0  0  0  0  0  0  0  0  0  0
   -2.6220   22.3430  -28.2010 C   0  0  0  0  0  0  0  0  0  0  0  0
   -2.9884   21.3575  -27.8778 H   0  0  0  0  0  0  0  0  0  0  0  0
   -3.5310   23.3110  -28.6590 C   0  0  0  0  0  0  0  0  0  0  0  0
   -4.9830   23.0480  -28.6610 C   0  0  0  0  0  0  0  0  0  0  0  0
   -5.4438   22.7604  -27.7045 H   0  0  0  0  0  0  0  0  0  0  0  0
   -5.7890   23.1300  -29.7310 C   0  0  0  0  0  0  0  0  0  0  0  0
   -6.8241   22.7800  -29.6044 H   0  0  0  0  0  0  0  0  0  0  0  0
   -5.4120   23.6500  -31.0710 C   0  0  0  0  0  0  0  0  0  0  0  0
   -4.7610   24.7200  -31.1900 O   0  0  0  0  0  0  0  0  0  0  0  0
   -5.7590   22.9310  -32.2620 N   0  0  0  0  0  0  0  0  0  0  0  0
   -6.7070   21.8610  -32.3610 C   0  0  0  0  0  0  0  0  0  0  0  0
   -8.0420   22.0180  -31.9440 C   0  0  0  0  0  0  0  0  0  0  0  0
   -8.3706   22.9712  -31.5042 H   0  0  0  0  0  0  0  0  0  0  0  0
   -8.9520   20.9660  -32.0870 C   0  0  0  0  0  0  0  0  0  0  0  0
   -9.9904   21.0877  -31.7450 H   0  0  0  0  0  0  0  0  0  0  0  0
   -8.5440   19.7600  -32.6640 C   0  0  0  0  0  0  0  0  0  0  0  0
   -9.2591   18.9308  -32.7694 H   0  0  0  0  0  0  0  0  0  0  0  0
   -7.2270   19.6080  -33.1070 C   0  0  0  0  0  0  0  0  0  0  0  0
   -6.9080   18.6617  -33.5683 H   0  0  0  0  0  0  0  0  0  0  0  0
   -6.3140   20.6590  -32.9640 C   0  0  0  0  0  0  0  0  0  0  0  0
   -5.2824   20.5407  -33.3270 H   0  0  0  0  0  0  0  0  0  0  0  0
   -3.0590   24.5820  -29.0190 C   0  0  0  0  0  0  0  0  0  0  0  0
   -3.7686   25.3589  -29.3397 H   0  0  0  0  0  0  0  0  0  0  0  0
   -1.6900   24.8660  -28.9720 C   0  0  0  0  0  0  0  0  0  0  0  0
   -1.2330   26.1230  -29.3480 O   0  0  0  0  0  0  0  0  0  0  0  0
  1  2  1  0
  2  3  1  0
  3  4  2  0
  4  5  1  0
  4  6  1  0
  6  7  1  0
  6  8  2  0
  8  9  1  0
  9 10  1  0
  9 11  2  0
 11 12  1  0
 11 13  1  0
 13 14  2  0
 13 15  1  0
 15 16  1  0
 16 17  2  0
 17 18  1  0
 17 19  1  0
 19 20  1  0
 19 21  2  0
 21 22  1  0
 21 23  1  0
 23 24  1  0
 23 25  2  0
 25 26  1  0
  8 27  1  0
 27 28  1  0
 27 29  2  0
 29 30  1  0
 29  3  1  0
 25 16  1  0
M  CHG  2  15  -1  30  -1
M  END
>  <UniqueID>  (14) 
13

>  <SMILES>  (14) 
O=C(/C=C\c1ccc(O)c([O-])c1)[N-]c1ccccc1

>  <Energy>  (14) 
44.24352944874896

>  <Genealogy>  (14) 
O=C(C=Cc1ccc(O)c([O-])c1)[N-]c1ccccc1 (protonated)
O=C(/C=C\c1ccc(O)c([O-])c1)[N-]c1ccccc1 (cis-trans isomerization)
O=C(/C=C\c1ccc(O)c([O-])c1)[N-]c1ccccc1 (3D coordinates assigned)
O=C(/C=C\c1ccc(O)c([O-])c1)[N-]c1ccccc1 (optimized conformer: 44.24352944874896 kcal/mol)

>  <smiles>  (14) 
O=C(C=Cc1ccc(O)c(O)c1)Nc1ccccc1

>  <score_type>  (14) 
oracle

>  <origin>  (14) 
adgpu

>  <m_score__min__energy>  (14) 
-10.93

>  <m_primary>  (14) 
energy

$$$$
14:0
     RDKit          3D

 30 31  0  0  0  0  0  0  0  0999 V2000
   -8.6700   19.8120  -32.1500 C   0  0  0  0  0  0  0  0  0  0  0  0
   -8.6600   21.2260  -31.9840 O   0  0  0  0  0  0  0  0  0  0  0  0
   -7.5430   21.9670  -31.5710 C   0  0  0  0  0  0  0  0  0  0  0  0
   -6.3810   21.9090  -32.3500 C   0  0  0  0  0  0  0  0  0  0  0  0
   -5.2410   22.6270  -31.9800 C   0  0  0  0  0  0  0  0  0  0  0  0
   -5.2400   23.4130  -30.8140 C   0  0  0  0  0  0  0  0  0  0  0  0
   -4.0430   24.1930  -30.4200 C   0  0  0  0  0  0  0  0  0  0  0  0
   -3.9200   25.3770  -30.8330 O   0  0  0  0  0  0  0  0  0  0  0  0
   -2.9980   23.6310  -29.5400 C   0  0  0  0  0  0  0  0  0  0  0  0
   -1.9580   24.2930  -28.8960 C   0  0  0  0  0  0  0  0  0  0  0  0
   -1.6210   25.6740  -29.0360 N   0  0  0  0  0  0  0  0  0  0  0  0
   -1.2610   23.4390  -28.1170 N   0  0  0  0  0  0  0  0  0  0  0  0
   -1.8240   22.2470  -28.2410 N   0  0  0  0  0  0  0  0  0  0  0  0
   -1.4020   21.0670  -27.4970 C   0  0  0  0  0  0  0  0  0  0  0  0
   -2.8780   22.3350  -29.0730 C   0  0  0  0  0  0  0  0  0  0  0  0
   -3.6530   21.3780  -29.3390 O   0  0  0  0  0  0  0  0  0  0  0  0
   -6.4110   23.4830  -30.0410 C   0  0  0  0  0  0  0  0  0  0  0  0
   -7.5520   22.7620  -30.4110 C   0  0  0  0  0  0  0  0  0  0  0  0
   -8.6734   19.3269  -31.1627 H   0  0  0  0  0  0  0  0  0  0  0  0
   -9.5703   19.5147  -32.7078 H   0  0  0  0  0  0  0  0  0  0  0  0
   -7.7740   19.5019  -32.7078 H   0  0  0  0  0  0  0  0  0  0  0  0
   -6.3655   21.2929  -33.2611 H   0  0  0  0  0  0  0  0  0  0  0  0
   -4.3375   22.5771  -32.6055 H   0  0  0  0  0  0  0  0  0  0  0  0
   -0.9030   25.9640  -29.7360 H   0  0  0  0  0  0  0  0  0  0  0  0
   -2.1060   26.4100  -28.4800 H   0  0  0  0  0  0  0  0  0  0  0  0
   -1.4741   21.2686  -26.4180 H   0  0  0  0  0  0  0  0  0  0  0  0
   -2.0524   20.2184  -27.7557 H   0  0  0  0  0  0  0  0  0  0  0  0
   -0.3610   20.8233  -27.7557 H   0  0  0  0  0  0  0  0  0  0  0  0
   -6.4312   24.1098  -29.1373 H   0  0  0  0  0  0  0  0  0  0  0  0
   -8.4596   22.8174  -29.7919 H   0  0  0  0  0  0  0  0  0  0  0  0
  1  2  1  0
  2  3  1  0
  3  4  2  0
  4  5  1  0
  5  6  2  0
  6  7  1  0
  7  8  2  0
  7  9  1  0
  9 10  2  0
 10 11  1  0
 10 12  1  0
 12 13  1  0
 13 14  1  0
 13 15  1  0
 15 16  2  0
  6 17  1  0
 17 18  2  0
 18  3  1  0
 15  9  1  0
  1 19  1  0
  1 20  1  0
  1 21  1  0
  4 22  1  0
  5 23  1  0
 11 24  1  0
 11 25  1  0
 14 26  1  0
 14 27  1  0
 14 28  1  0
 17 29  1  0
 18 30  1  0
M  CHG  1  12  -1
M  END
>  <UniqueID>  (15) 
14

>  <SMILES>  (15) 
COc1ccc(C(=O)c2c(N)[n-]n(C)c2=O)cc1

>  <Energy>  (15) 
66.96971294717693

>  <Genealogy>  (15) 
COc1ccc(C(=O)c2c(N)[n-]n(C)c2=O)cc1 (protonated)
COc1ccc(C(=O)c2c(N)[n-]n(C)c2=O)cc1 (3D coordinates assigned)
COc1ccc(C(=O)c2c(N)[n-]n(C)c2=O)cc1 (optimized conformer: 66.96971294717693 kcal/mol)

>  <smiles>  (15) 
COc1ccc(C(=O)c2c(N)[nH]n(C)c2=O)cc1

>  <score_type>  (15) 
oracle

>  <origin>  (15) 
adgpu

>  <m_score__min__energy>  (15) 
-7.96

>  <m_primary>  (15) 
energy

$$$$
15:0
     RDKit          3D

 42 45  0  0  0  0  0  0  0  0999 V2000
   -1.8520   25.2550  -26.4760 C   0  0  0  0  0  0  0  0  0  0  0  0
   -1.2360   25.2660  -27.7300 C   0  0  0  0  0  0  0  0  0  0  0  0
   -1.9630   24.9170  -28.8720 C   0  0  0  0  0  0  0  0  0  0  0  0
   -3.3160   24.5500  -28.7680 C   0  0  0  0  0  0  0  0  0  0  0  0
   -4.0700   24.2020  -29.9450 N   0  0  0  0  0  0  0  0  0  0  0  0
   -3.5980   23.1120  -30.8130 C   0  0  0  0  0  0  0  0  0  0  0  0
   -4.6150   22.7750  -31.9110 C   0  0  0  0  0  0  0  0  0  0  0  0
   -5.9810   22.7430  -31.3590 N   0  0  0  0  0  0  0  0  0  0  0  0
   -6.9270   21.7390  -31.7850 C   0  0  0  0  0  0  0  0  0  0  0  0
   -8.2630   21.9510  -31.6350 N   0  0  0  0  0  0  0  0  0  0  0  0
   -9.1700   21.0220  -32.0300 C   0  0  0  0  0  0  0  0  0  0  0  0
   -8.7400   19.8270  -32.6040 C   0  0  0  0  0  0  0  0  0  0  0  0
   -7.3630   19.6130  -32.7590 C   0  0  0  0  0  0  0  0  0  0  0  0
   -6.8290   18.3720  -33.3580 C   0  0  0  0  0  0  0  0  0  0  0  0
   -7.2130   17.0850  -33.0230 C   0  0  0  0  0  0  0  0  0  0  0  0
   -6.4690   16.2380  -33.8190 C   0  0  0  0  0  0  0  0  0  0  0  0
   -5.6550   16.9500  -34.6180 N   0  0  0  0  0  0  0  0  0  0  0  0
   -5.8650   18.2510  -34.3460 C   0  0  0  0  0  0  0  0  0  0  0  0
   -6.4960   20.5760  -32.3460 N   0  0  0  0  0  0  0  0  0  0  0  0
   -6.4320   23.8140  -30.4550 C   0  0  0  0  0  0  0  0  0  0  0  0
   -5.3430   24.8670  -30.2410 C   0  0  0  0  0  0  0  0  0  0  0  0
   -3.9300   24.5470  -27.5030 C   0  0  0  0  0  0  0  0  0  0  0  0
   -3.1980   24.8960  -26.3620 C   0  0  0  0  0  0  0  0  0  0  0  0
   -1.2778   25.5288  -25.5786 H   0  0  0  0  0  0  0  0  0  0  0  0
   -0.1770   25.5498  -27.8189 H   0  0  0  0  0  0  0  0  0  0  0  0
   -1.4737   24.9296  -29.8571 H   0  0  0  0  0  0  0  0  0  0  0  0
   -2.6526   23.4173  -31.2853 H   0  0  0  0  0  0  0  0  0  0  0  0
   -3.4585   22.2160  -30.1904 H   0  0  0  0  0  0  0  0  0  0  0  0
   -4.5616   23.5392  -32.7004 H   0  0  0  0  0  0  0  0  0  0  0  0
   -4.3758   21.7842  -32.3246 H   0  0  0  0  0  0  0  0  0  0  0  0
  -10.2452   21.2123  -31.8970 H   0  0  0  0  0  0  0  0  0  0  0  0
   -9.4661   19.0672  -32.9288 H   0  0  0  0  0  0  0  0  0  0  0  0
   -7.9623   16.7950  -32.2717 H   0  0  0  0  0  0  0  0  0  0  0  0
   -6.5327   15.1400  -33.8022 H   0  0  0  0  0  0  0  0  0  0  0  0
   -4.9840   16.5660  -35.3190 H   0  0  0  0  0  0  0  0  0  0  0  0
   -5.3495   19.0912  -34.8341 H   0  0  0  0  0  0  0  0  0  0  0  0
   -7.3174   24.2998  -30.8910 H   0  0  0  0  0  0  0  0  0  0  0  0
   -6.6708   23.3634  -29.4804 H   0  0  0  0  0  0  0  0  0  0  0  0
   -5.2362   25.4741  -31.1520 H   0  0  0  0  0  0  0  0  0  0  0  0
   -5.6218   25.5161  -29.3978 H   0  0  0  0  0  0  0  0  0  0  0  0
   -4.9902   24.2692  -27.4096 H   0  0  0  0  0  0  0  0  0  0  0  0
   -3.6826   24.8877  -25.3745 H   0  0  0  0  0  0  0  0  0  0  0  0
  1  2  2  0
  2  3  1  0
  3  4  2  0
  4  5  1  0
  5  6  1  0
  6  7  1  0
  7  8  1  0
  8  9  1  0
  9 10  2  0
 10 11  1  0
 11 12  2  0
 12 13  1  0
 13 14  1  0
 14 15  1  0
 15 16  2  0
 16 17  1  0
 17 18  1  0
 13 19  2  0
  8 20  1  0
 20 21  1  0
  4 22  1  0
 22 23  2  0
 23  1  1  0
 21  5  1  0
 19  9  1  0
 18 14  2  0
  1 24  1  0
  2 25  1  0
  3 26  1  0
  6 27  1  0
  6 28  1  0
  7 29  1  0
  7 30  1  0
 11 31  1  0
 12 32  1  0
 15 33  1  0
 16 34  1  0
 17 35  1  0
 18 36  1  0
 20 37  1  0
 20 38  1  0
 21 39  1  0
 21 40  1  0
 22 41  1  0
 23 42  1  0
M  END
>  <UniqueID>  (16) 
15

>  <SMILES>  (16) 
c1ccc(N2CCN(c3nccc(-c4cc[nH]c4)n3)CC2)cc1

>  <Energy>  (16) 
77.25194969027635

>  <Genealogy>  (16) 
c1ccc(N2CCN(c3nccc(-c4cc[nH]c4)n3)CC2)cc1 (3D coordinates assigned)
c1ccc(N2CCN(c3nccc(-c4cc[nH]c4)n3)CC2)cc1 (nonaromatic ring conformer: 77.25194969027635 kcal/mol)

>  <smiles>  (16) 
c1ccc(N2CCN(c3nccc(-c4cc[nH]c4)n3)CC2)cc1

>  <score_type>  (16) 
oracle

>  <origin>  (16) 
adgpu

>  <m_score__min__energy>  (16) 
-7.8399999999999999

>  <m_primary>  (16) 
energy

$$$$
16:0
     RDKit          3D

 45 46  0  0  0  0  0  0  0  0999 V2000
    1.2070   19.8060  -28.2600 C   0  0  0  0  0  0  0  0  0  0  0  0
    1.0660   21.1840  -27.9360 O   0  0  0  0  0  0  0  0  0  0  0  0
   -0.0880   21.9480  -28.1770 C   0  0  0  0  0  0  0  0  0  0  0  0
   -1.3250   21.3000  -28.1260 C   0  0  0  0  0  0  0  0  0  0  0  0
   -2.5050   22.0040  -28.3480 C   0  0  0  0  0  0  0  0  0  0  0  0
   -2.4740   23.3770  -28.6390 C   0  0  0  0  0  0  0  0  0  0  0  0
   -3.7110   24.0670  -28.9070 N   0  0  0  0  0  0  0  0  0  0  0  0
   -4.5140   24.5490  -27.7730 C   0  0  0  0  0  0  0  0  0  0  0  0
   -4.1740   24.2980  -30.2590 C   0  0  0  0  0  0  0  0  0  0  0  0
   -3.8640   25.3760  -30.8430 O   0  0  0  0  0  0  0  0  0  0  0  0
   -5.0180   23.3050  -30.9920 C   0  0  0  0  0  0  0  0  0  0  0  0
   -6.4260   23.2780  -30.8520 C   0  0  0  0  0  0  0  0  0  0  0  0
   -7.0750   24.2210  -29.9790 N   0  0  0  0  0  0  0  0  0  0  0  0
   -7.1670   22.3600  -31.5630 N   0  0  0  0  0  0  0  0  0  0  0  0
   -8.6400   22.3340  -31.4420 C   0  0  0  0  0  0  0  0  0  0  0  0
   -6.5410   21.4420  -32.3690 C   0  0  0  0  0  0  0  0  0  0  0  0
   -7.2250   20.5660  -32.9720 O   0  0  0  0  0  0  0  0  0  0  0  0
   -5.1780   21.4600  -32.5300 N   0  0  0  0  0  0  0  0  0  0  0  0
   -4.5330   20.4690  -33.4110 C   0  0  0  0  0  0  0  0  0  0  0  0
   -4.4130   22.3330  -31.8040 C   0  0  0  0  0  0  0  0  0  0  0  0
   -3.1510   22.2530  -31.8460 O   0  0  0  0  0  0  0  0  0  0  0  0
   -1.2390   24.0530  -28.6840 C   0  0  0  0  0  0  0  0  0  0  0  0
   -1.2360   25.4370  -28.9380 O   0  0  0  0  0  0  0  0  0  0  0  0
   -0.8540   26.4320  -27.9950 C   0  0  0  0  0  0  0  0  0  0  0  0
   -0.0460   23.3300  -28.4600 C   0  0  0  0  0  0  0  0  0  0  0  0
    1.2674   19.2159  -27.3337 H   0  0  0  0  0  0  0  0  0  0  0  0
    0.3378   19.4769  -28.8484 H   0  0  0  0  0  0  0  0  0  0  0  0
    2.1248   19.6597  -28.8484 H   0  0  0  0  0  0  0  0  0  0  0  0
   -1.3666   20.2226  -27.9082 H   0  0  0  0  0  0  0  0  0  0  0  0
   -3.4706   21.4798  -28.2949 H   0  0  0  0  0  0  0  0  0  0  0  0
   -4.0286   24.2576  -26.8299 H   0  0  0  0  0  0  0  0  0  0  0  0
   -4.5948   25.6450  -27.8205 H   0  0  0  0  0  0  0  0  0  0  0  0
   -5.5192   24.1049  -27.8205 H   0  0  0  0  0  0  0  0  0  0  0  0
   -6.8310   24.2940  -28.9670 H   0  0  0  0  0  0  0  0  0  0  0  0
   -7.7890   24.8940  -30.3350 H   0  0  0  0  0  0  0  0  0  0  0  0
   -8.9205   22.3290  -30.3784 H   0  0  0  0  0  0  0  0  0  0  0  0
   -9.0637   23.2248  -31.9288 H   0  0  0  0  0  0  0  0  0  0  0  0
   -9.0320   21.4288  -31.9288 H   0  0  0  0  0  0  0  0  0  0  0  0
   -4.0346   19.7032  -32.7984 H   0  0  0  0  0  0  0  0  0  0  0  0
   -5.2944   19.9923  -34.0459 H   0  0  0  0  0  0  0  0  0  0  0  0
   -3.7889   20.9722  -34.0459 H   0  0  0  0  0  0  0  0  0  0  0  0
   -1.0019   26.0468  -26.9753 H   0  0  0  0  0  0  0  0  0  0  0  0
    0.2061   26.6872  -28.1404 H   0  0  0  0  0  0  0  0  0  0  0  0
   -1.4709   27.3311  -28.1404 H   0  0  0  0  0  0  0  0  0  0  0  0
    0.9231   23.8483  -28.5065 H   0  0  0  0  0  0  0  0  0  0  0  0
  1  2  1  0
  2  3  1  0
  3  4  2  0
  4  5  1  0
  5  6  2  0
  6  7  1  0
  7  8  1  0
  7  9  1  0
  9 10  2  0
  9 11  1  0
 11 12  2  0
 12 13  1  0
 12 14  1  0
 14 15  1  0
 14 16  1  0
 16 17  2  0
 16 18  1  0
 18 19  1  0
 18 20  1  0
 20 21  2  0
  6 22  1  0
 22 23  1  0
 23 24  1  0
 22 25  2  0
 25  3  1  0
 20 11  1  0
  1 26  1  0
  1 27  1  0
  1 28  1  0
  4 29  1  0
  5 30  1  0
  8 31  1  0
  8 32  1  0
  8 33  1  0
 13 34  1  0
 13 35  1  0
 15 36  1  0
 15 37  1  0
 15 38  1  0
 19 39  1  0
 19 40  1  0
 19 41  1  0
 24 42  1  0
 24 43  1  0
 24 44  1  0
 25 45  1  0
M  END
>  <UniqueID>  (17) 
16

>  <SMILES>  (17) 
COc1ccc(N(C)C(=O)c2c(N)n(C)c(=O)n(C)c2=O)c(OC)c1

>  <Energy>  (17) 
66.31972177802373

>  <Genealogy>  (17) 
COc1ccc(N(C)C(=O)c2c(N)n(C)c(=O)n(C)c2=O)c(OC)c1 (3D coordinates assigned)
COc1ccc(N(C)C(=O)c2c(N)n(C)c(=O)n(C)c2=O)c(OC)c1 (optimized conformer: 66.31972177802373 kcal/mol)

>  <smiles>  (17) 
COc1ccc(N(C)C(=O)c2c(N)n(C)c(=O)n(C)c2=O)c(OC)c1

>  <score_type>  (17) 
oracle

>  <origin>  (17) 
adgpu

>  <m_score__min__energy>  (17) 
-7.1100000000000003

>  <m_primary>  (17) 
energy

$$$$
17:0
     RDKit          3D

 39 41  0  0  0  0  0  0  0  0999 V2000
   -9.4400   18.9750  -32.5540 C   0  0  0  0  0  0  0  0  0  0  0  0
   -9.5230   20.3920  -32.4410 O   0  0  0  0  0  0  0  0  0  0  0  0
   -8.4930   21.2080  -31.9490 C   0  0  0  0  0  0  0  0  0  0  0  0
   -8.5970   21.9020  -30.7290 C   0  0  0  0  0  0  0  0  0  0  0  0
   -7.5410   22.7040  -30.2820 C   0  0  0  0  0  0  0  0  0  0  0  0
   -6.3670   22.8260  -31.0420 C   0  0  0  0  0  0  0  0  0  0  0  0
   -5.2510   23.6740  -30.5690 C   0  0  0  0  0  0  0  0  0  0  0  0
   -4.8660   24.8160  -31.1730 N   0  0  0  0  0  0  0  0  0  0  0  0
   -3.8490   25.2910  -30.4770 N   0  0  0  0  0  0  0  0  0  0  0  0
   -3.6400   24.4260  -29.4700 C   0  0  0  0  0  0  0  0  0  0  0  0
   -2.3590   24.6280  -28.2400 S   0  0  0  0  0  0  0  0  0  0  0  0
   -1.0420   24.0360  -29.3480 C   0  0  0  0  0  0  0  0  0  0  0  0
   -1.4590   22.7410  -29.9670 C   0  0  0  0  0  0  0  0  0  0  0  0
   -1.0330   21.6590  -29.4800 O   0  0  0  0  0  0  0  0  0  0  0  0
   -2.4080   22.7350  -31.0450 N   0  0  0  0  0  0  0  0  0  0  0  0
   -2.7420   21.5710  -31.8210 C   0  0  0  0  0  0  0  0  0  0  0  0
   -2.1830   21.3510  -33.0940 C   0  0  0  0  0  0  0  0  0  0  0  0
   -2.5440   20.2230  -33.8370 C   0  0  0  0  0  0  0  0  0  0  0  0
   -3.4740   19.3120  -33.3250 C   0  0  0  0  0  0  0  0  0  0  0  0
   -3.9260   17.8990  -34.2600 Cl  0  0  0  0  0  0  0  0  0  0  0  0
   -4.0500   19.5370  -32.0710 C   0  0  0  0  0  0  0  0  0  0  0  0
   -3.6920   20.6650  -31.3260 C   0  0  0  0  0  0  0  0  0  0  0  0
   -4.5000   23.3900  -29.4850 N   0  0  0  0  0  0  0  0  0  0  0  0
   -6.2670   22.1310  -32.2600 C   0  0  0  0  0  0  0  0  0  0  0  0
   -7.3230   21.3300  -32.7050 C   0  0  0  0  0  0  0  0  0  0  0  0
   -9.4138   18.5280  -31.5493 H   0  0  0  0  0  0  0  0  0  0  0  0
  -10.3176   18.5987  -33.1000 H   0  0  0  0  0  0  0  0  0  0  0  0
   -8.5244   18.7037  -33.1000 H   0  0  0  0  0  0  0  0  0  0  0  0
   -9.5118   21.8136  -30.1246 H   0  0  0  0  0  0  0  0  0  0  0  0
   -7.6315   23.2432  -29.3275 H   0  0  0  0  0  0  0  0  0  0  0  0
   -0.8651   24.7804  -30.1383 H   0  0  0  0  0  0  0  0  0  0  0  0
   -0.1167   23.8870  -28.7722 H   0  0  0  0  0  0  0  0  0  0  0  0
   -2.9490   23.6130  -31.2190 H   0  0  0  0  0  0  0  0  0  0  0  0
   -1.4591   22.0695  -33.5059 H   0  0  0  0  0  0  0  0  0  0  0  0
   -2.0956   20.0514  -34.8267 H   0  0  0  0  0  0  0  0  0  0  0  0
   -4.7863   18.8252  -31.6696 H   0  0  0  0  0  0  0  0  0  0  0  0
   -4.1582   20.8431  -30.3457 H   0  0  0  0  0  0  0  0  0  0  0  0
   -5.3531   22.2179  -32.8661 H   0  0  0  0  0  0  0  0  0  0  0  0
   -7.2325   20.7904  -33.6593 H   0  0  0  0  0  0  0  0  0  0  0  0
  1  2  1  0
  2  3  1  0
  3  4  2  0
  4  5  1  0
  5  6  2  0
  6  7  1  0
  7  8  2  0
  8  9  1  0
  9 10  1  0
 10 11  1  0
 11 12  1  0
 12 13  1  0
 13 14  2  0
 13 15  1  0
 15 16  1  0
 16 17  2  0
 17 18  1  0
 18 19  2  0
 19 20  1  0
 19 21  1  0
 21 22  2  0
 10 23  2  0
  6 24  1  0
 24 25  2  0
 25  3  1  0
 23  7  1  0
 22 16  1  0
  1 26  1  0
  1 27  1  0
  1 28  1  0
  4 29  1  0
  5 30  1  0
 12 31  1  0
 12 32  1  0
 15 33  1  0
 17 34  1  0
 18 35  1  0
 21 36  1  0
 22 37  1  0
 24 38  1  0
 25 39  1  0
M  CHG  1   9  -1
M  END
>  <UniqueID>  (18) 
17

>  <SMILES>  (18) 
COc1ccc(-c2n[n-]c(SCC(=O)Nc3ccc(Cl)cc3)n2)cc1

>  <Energy>  (18) 
71.25111676245567

>  <Genealogy>  (18) 
COc1ccc(-c2n[n-]c(SCC(=O)Nc3ccc(Cl)cc3)n2)cc1 (protonated)
COc1ccc(-c2n[n-]c(SCC(=O)Nc3ccc(Cl)cc3)n2)cc1 (3D coordinates assigned)
COc1ccc(-c2n[n-]c(SCC(=O)Nc3ccc(Cl)cc3)n2)cc1 (optimized conformer: 71.25111676245567 kcal/mol)

>  <smiles>  (18) 
COc1ccc(-c2n[nH]c(SCC(=O)Nc3ccc(Cl)cc3)n2)cc1

>  <score_type>  (18) 
oracle

>  <origin>  (18) 
adgpu

>  <m_score__min__energy>  (18) 
-8.9700000000000006

>  <m_primary>  (18) 
energy

$$$$
18:0
     RDKit          3D

 61 62  0  0  0  0  0  0  0  0999 V2000
   -0.1855   19.1556  -29.9016 H   0  0  0  0  0  0  0  0  0  0  0  0
   -0.7930   19.9900  -30.2820 C   0  0  0  0  0  0  0  0  0  0  0  0
   -1.3490   20.8170  -29.3780 C   0  0  0  0  0  0  0  0  0  0  0  0
   -1.2526   20.5462  -28.3162 H   0  0  0  0  0  0  0  0  0  0  0  0
   -2.0810   22.0640  -29.7010 C   0  0  0  0  0  0  0  0  0  0  0  0
   -1.6790   23.2650  -29.1160 C   0  0  0  0  0  0  0  0  0  0  0  0
   -0.8127   23.2734  -28.4382 H   0  0  0  0  0  0  0  0  0  0  0  0
   -2.3640   24.4660  -29.3790 C   0  0  0  0  0  0  0  0  0  0  0  0
   -1.9430   25.6720  -28.7930 O   0  0  0  0  0  0  0  0  0  0  0  0
   -1.3260   25.7920  -27.5140 C   0  0  0  0  0  0  0  0  0  0  0  0
   -2.0809   25.6452  -26.7275 H   0  0  0  0  0  0  0  0  0  0  0  0
   -0.5390   25.0301  -27.4136 H   0  0  0  0  0  0  0  0  0  0  0  0
   -0.8819   26.7933  -27.4136 H   0  0  0  0  0  0  0  0  0  0  0  0
   -3.4870   24.4540  -30.2540 C   0  0  0  0  0  0  0  0  0  0  0  0
   -4.2730   25.5950  -30.4990 O   0  0  0  0  0  0  0  0  0  0  0  0
   -5.6610   25.7570  -30.2240 C   0  0  0  0  0  0  0  0  0  0  0  0
   -5.8194   25.7755  -29.1356 H   0  0  0  0  0  0  0  0  0  0  0  0
   -6.0137   26.7024  -30.6620 H   0  0  0  0  0  0  0  0  0  0  0  0
   -6.2219   24.9182  -30.6620 H   0  0  0  0  0  0  0  0  0  0  0  0
   -3.8410   23.2430  -30.9050 C   0  0  0  0  0  0  0  0  0  0  0  0
   -4.8880   23.1190  -31.8390 O   0  0  0  0  0  0  0  0  0  0  0  0
   -6.2500   22.8030  -31.5730 C   0  0  0  0  0  0  0  0  0  0  0  0
   -6.5190   23.1531  -30.5655 H   0  0  0  0  0  0  0  0  0  0  0  0
   -6.8958   23.2974  -32.3136 H   0  0  0  0  0  0  0  0  0  0  0  0
   -6.4400   21.2820  -31.6560 C   0  0  0  0  0  0  0  0  0  0  0  0
   -5.6490   20.8023  -31.0608 H   0  0  0  0  0  0  0  0  0  0  0  0
   -7.4491   21.0676  -31.2742 H   0  0  0  0  0  0  0  0  0  0  0  0
   -6.3780   20.7150  -33.0910 C   0  0  0  0  0  0  0  0  0  0  0  0
   -7.4076   20.5311  -33.4317 H   0  0  0  0  0  0  0  0  0  0  0  0
   -5.8487   21.4638  -33.6986 H   0  0  0  0  0  0  0  0  0  0  0  0
   -5.6120   19.4470  -33.2250 N   0  0  0  0  0  0  0  0  0  0  0  0
   -4.6010   19.6580  -33.3910 H   0  0  0  0  0  0  0  0  0  0  0  0
   -6.1130   18.6150  -34.3370 C   0  0  0  0  0  0  0  0  0  0  0  0
   -6.6404   17.7392  -33.9310 H   0  0  0  0  0  0  0  0  0  0  0  0
   -6.8054   19.2063  -34.9543 H   0  0  0  0  0  0  0  0  0  0  0  0
   -5.2665   18.2796  -34.9543 H   0  0  0  0  0  0  0  0  0  0  0  0
   -5.7040   18.6860  -31.9630 C   0  0  0  0  0  0  0  0  0  0  0  0
   -5.6205   19.3770  -31.1112 H   0  0  0  0  0  0  0  0  0  0  0  0
   -6.6717   18.1648  -31.9188 H   0  0  0  0  0  0  0  0  0  0  0  0
   -4.8884   17.9492  -31.9188 H   0  0  0  0  0  0  0  0  0  0  0  0
   -3.1280   22.0750  -30.6280 C   0  0  0  0  0  0  0  0  0  0  0  0
   -3.3953   21.1442  -31.1497 H   0  0  0  0  0  0  0  0  0  0  0  0
   -0.9370   20.1180  -31.7500 C   0  0  0  0  0  0  0  0  0  0  0  0
   -0.0920   20.9980  -32.4430 C   0  0  0  0  0  0  0  0  0  0  0  0
    0.6724   21.5670  -31.8936 H   0  0  0  0  0  0  0  0  0  0  0  0
   -0.2150   21.1580  -33.8350 C   0  0  0  0  0  0  0  0  0  0  0  0
    0.5980   22.0440  -34.5620 O   0  0  0  0  0  0  0  0  0  0  0  0
    0.6760   22.0830  -35.9840 C   0  0  0  0  0  0  0  0  0  0  0  0
    1.6219   22.5560  -36.2865 H   0  0  0  0  0  0  0  0  0  0  0  0
    0.6348   21.0582  -36.3817 H   0  0  0  0  0  0  0  0  0  0  0  0
   -0.1685   22.6649  -36.3817 H   0  0  0  0  0  0  0  0  0  0  0  0
   -1.1740   20.4120  -34.5310 C   0  0  0  0  0  0  0  0  0  0  0  0
   -1.2793   20.5405  -35.6184 H   0  0  0  0  0  0  0  0  0  0  0  0
   -2.0060   19.4980  -33.8530 C   0  0  0  0  0  0  0  0  0  0  0  0
   -2.9720   18.7220  -34.5120 O   0  0  0  0  0  0  0  0  0  0  0  0
   -2.9380   17.3020  -34.6150 C   0  0  0  0  0  0  0  0  0  0  0  0
   -2.9275   16.8614  -33.6071 H   0  0  0  0  0  0  0  0  0  0  0  0
   -3.8280   16.9524  -35.1587 H   0  0  0  0  0  0  0  0  0  0  0  0
   -2.0323   16.9954  -35.1587 H   0  0  0  0  0  0  0  0  0  0  0  0
   -1.8700   19.3500  -32.4690 C   0  0  0  0  0  0  0  0  0  0  0  0
   -2.5010   18.6235  -31.9360 H   0  0  0  0  0  0  0  0  0  0  0  0
  1  2  1  0
  2  3  2  0
  3  4  1  0
  3  5  1  0
  5  6  2  0
  6  7  1  0
  6  8  1  0
  8  9  1  0
  9 10  1  0
 10 11  1  0
 10 12  1  0
 10 13  1  0
  8 14  2  0
 14 15  1  0
 15 16  1  0
 16 17  1  0
 16 18  1  0
 16 19  1  0
 14 20  1  0
 20 21  1  0
 21 22  1  0
 22 23  1  0
 22 24  1  0
 22 25  1  0
 25 26  1  0
 25 27  1  0
 25 28  1  0
 28 29  1  0
 28 30  1  0
 28 31  1  0
 31 32  1  0
 31 33  1  0
 33 34  1  0
 33 35  1  0
 33 36  1  0
 31 37  1  0
 37 38  1  0
 37 39  1  0
 37 40  1  0
 20 41  2  0
 41 42  1  0
  2 43  1  0
 43 44  2  0
 44 45  1  0
 44 46  1  0
 46 47  1  0
 47 48  1  0
 48 49  1  0
 48 50  1  0
 48 51  1  0
 46 52  2  0
 52 53  1  0
 52 54  1  0
 54 55  1  0
 55 56  1  0
 56 57  1  0
 56 58  1  0
 56 59  1  0
 54 60  2  0
 60 61  1  0
 41  5  1  0
 60 43  1  0
M  CHG  1  31   1
M  END
>  <UniqueID>  (19) 
18

>  <SMILES>  (19) 
COc1cc(/C=C\c2cc(OC)c(OC)c(OCCC[NH+](C)C)c2)cc(OC)c1

>  <Energy>  (19) 
69.6169471828143

>  <Genealogy>  (19) 
COc1cc(C=Cc2cc(OC)c(OC)c(OCCC[NH+](C)C)c2)cc(OC)c1 (protonated)
COc1cc(/C=C\c2cc(OC)c(OC)c(OCCC[NH+](C)C)c2)cc(OC)c1 (cis-trans isomerization)
COc1cc(/C=C\c2cc(OC)c(OC)c(OCCC[NH+](C)C)c2)cc(OC)c1 (3D coordinates assigned)
COc1cc(/C=C\c2cc(OC)c(OC)c(OCCC[NH+](C)C)c2)cc(OC)c1 (optimized conformer: 69.6169471828143 kcal/mol)

>  <smiles>  (19) 
COc1cc(C=Cc2cc(OC)c(OC)c(OCCCN(C)C)c2)cc(OC)c1

>  <score_type>  (19) 
oracle

>  <origin>  (19) 
adgpu

>  <m_score__min__energy>  (19) 
-7.6100000000000003

>  <m_primary>  (19) 
energy

$$$$
19:0
     RDKit          3D

 46 49  0  0  0  0  0  0  0  0999 V2000
   -5.5380   23.9030  -31.0230 O   0  0  0  0  0  0  0  0  0  0  0  0
   -4.3740   23.4210  -31.0820 C   0  0  0  0  0  0  0  0  0  0  0  0
   -3.2460   24.1810  -30.6130 N   0  0  0  0  0  0  0  0  0  0  0  0
   -2.9320   24.5230  -29.3940 C   0  0  0  0  0  0  0  0  0  0  0  0
   -3.6340   24.0630  -28.2580 C   0  0  0  0  0  0  0  0  0  0  0  0
   -3.2250   24.4730  -26.9860 C   0  0  0  0  0  0  0  0  0  0  0  0
   -2.1250   25.3200  -26.8450 C   0  0  0  0  0  0  0  0  0  0  0  0
   -1.6000   25.8360  -25.2520 Cl  0  0  0  0  0  0  0  0  0  0  0  0
   -1.4400   25.7400  -27.9850 C   0  0  0  0  0  0  0  0  0  0  0  0
   -1.8530   25.3350  -29.2140 N   0  0  0  0  0  0  0  0  0  0  0  0
   -4.1590   22.1030  -31.7230 C   0  0  0  0  0  0  0  0  0  0  0  0
   -3.3100   21.9800  -32.8390 C   0  0  0  0  0  0  0  0  0  0  0  0
   -3.1080   20.7370  -33.4440 C   0  0  0  0  0  0  0  0  0  0  0  0
   -3.7530   19.5980  -32.9510 C   0  0  0  0  0  0  0  0  0  0  0  0
   -3.4670   18.0340  -33.7120 S   0  0  0  0  0  0  0  0  0  0  0  0
   -2.2070   18.0850  -34.5330 O   0  0  0  0  0  0  0  0  0  0  0  0
   -3.2820   17.0080  -32.6280 O   0  0  0  0  0  0  0  0  0  0  0  0
   -4.8340   17.5770  -34.7080 N   0  0  0  0  0  0  0  0  0  0  0  0
   -5.4880   16.3340  -34.2620 C   0  0  0  0  0  0  0  0  0  0  0  0
   -6.1660   16.4790  -32.8920 C   0  0  0  0  0  0  0  0  0  0  0  0
   -6.9300   17.7700  -32.7650 C   0  0  0  0  0  0  0  0  0  0  0  0
   -7.8130   17.9390  -31.6880 C   0  0  0  0  0  0  0  0  0  0  0  0
   -8.4910   19.1480  -31.5130 C   0  0  0  0  0  0  0  0  0  0  0  0
   -8.2880   20.2000  -32.4080 C   0  0  0  0  0  0  0  0  0  0  0  0
   -7.4020   20.0480  -33.4770 C   0  0  0  0  0  0  0  0  0  0  0  0
   -6.7040   18.8420  -33.6550 C   0  0  0  0  0  0  0  0  0  0  0  0
   -5.7970   18.6840  -34.8530 C   0  0  0  0  0  0  0  0  0  0  0  0
   -4.5990   19.7100  -31.8400 C   0  0  0  0  0  0  0  0  0  0  0  0
   -4.8030   20.9520  -31.2320 C   0  0  0  0  0  0  0  0  0  0  0  0
   -4.4949   23.3881  -28.3734 H   0  0  0  0  0  0  0  0  0  0  0  0
   -3.7706   24.1278  -26.0954 H   0  0  0  0  0  0  0  0  0  0  0  0
   -0.5649   26.3995  -27.8888 H   0  0  0  0  0  0  0  0  0  0  0  0
   -2.8014   22.8699  -33.2381 H   0  0  0  0  0  0  0  0  0  0  0  0
   -2.4382   20.6536  -34.3126 H   0  0  0  0  0  0  0  0  0  0  0  0
   -6.2499   16.0518  -35.0035 H   0  0  0  0  0  0  0  0  0  0  0  0
   -4.7080   15.5643  -34.1666 H   0  0  0  0  0  0  0  0  0  0  0  0
   -6.8637   15.6401  -32.7523 H   0  0  0  0  0  0  0  0  0  0  0  0
   -5.3774   16.4785  -32.1251 H   0  0  0  0  0  0  0  0  0  0  0  0
   -7.9725   17.1148  -30.9772 H   0  0  0  0  0  0  0  0  0  0  0  0
   -9.1856   19.2711  -30.6690 H   0  0  0  0  0  0  0  0  0  0  0  0
   -8.8263   21.1495  -32.2712 H   0  0  0  0  0  0  0  0  0  0  0  0
   -7.2499   20.8773  -34.1835 H   0  0  0  0  0  0  0  0  0  0  0  0
   -6.4189   18.4930  -35.7400 H   0  0  0  0  0  0  0  0  0  0  0  0
   -5.2162   19.6132  -34.9492 H   0  0  0  0  0  0  0  0  0  0  0  0
   -5.1048   18.8169  -31.4445 H   0  0  0  0  0  0  0  0  0  0  0  0
   -5.4724   21.0304  -30.3626 H   0  0  0  0  0  0  0  0  0  0  0  0
  1  2  2  0
  2  3  1  0
  3  4  2  3
  4  5  1  0
  5  6  2  0
  6  7  1  0
  7  8  1  0
  7  9  2  0
  9 10  1  0
  2 11  1  0
 11 12  2  0
 12 13  1  0
 13 14  2  0
 14 15  1  0
 15 16  2  0
 15 17  2  0
 15 18  1  0
 18 19  1  0
 19 20  1  0
 20 21  1  0
 21 22  2  0
 22 23  1  0
 23 24  2  0
 24 25  1  0
 25 26  2  0
 26 27  1  0
 14 28  1  0
 28 29  2  0
 10  4  1  0
 29 11  1  0
 27 18  1  0
 26 21  1  0
  5 30  1  0
  6 31  1  0
  9 32  1  0
 12 33  1  0
 13 34  1  0
 19 35  1  0
 19 36  1  0
 20 37  1  0
 20 38  1  0
 22 39  1  0
 23 40  1  0
 24 41  1  0
 25 42  1  0
 27 43  1  0
 27 44  1  0
 28 45  1  0
 29 46  1  0
M  CHG  1  10  -1
M  END
>  <UniqueID>  (20) 
19

>  <SMILES>  (20) 
O=C(N=c1ccc(Cl)c[n-]1)c1ccc(S(=O)(=O)N2CCc3ccccc3C2)cc1

>  <Energy>  (20) 
63.836050658185826

>  <Genealogy>  (20) 
O=C(N=c1ccc(Cl)c[n-]1)c1ccc(S(=O)(=O)N2CCc3ccccc3C2)cc1 (protonated)
O=C(N=c1ccc(Cl)c[n-]1)c1ccc(S(=O)(=O)N2CCc3ccccc3C2)cc1 (3D coordinates assigned)
O=C(N=c1ccc(Cl)c[n-]1)c1ccc(S(=O)(=O)N2CCc3ccccc3C2)cc1 (nonaromatic ring conformer: 63.836050658185826 kcal/mol)

>  <smiles>  (20) 
O=C(N=c1ccc(Cl)c[nH]1)c1ccc(S(=O)(=O)N2CCc3ccccc3C2)cc1

>  <score_type>  (20) 
oracle

>  <origin>  (20) 
adgpu

>  <m_score__min__energy>  (20) 
-12.48

>  <m_primary>  (20) 
energy

$$$$
20:0
     RDKit          3D

 54 58  0  0  0  0  0  0  0  0999 V2000
   -1.0040   21.8780  -30.6060 C   0  0  0  0  0  0  0  0  0  0  0  0
   -1.5670   21.5300  -29.3770 C   0  0  0  0  0  0  0  0  0  0  0  0
   -2.8200   21.0050  -29.3270 N   0  0  0  0  0  0  0  0  0  0  0  0
   -3.5560   20.8040  -30.4520 C   0  0  0  0  0  0  0  0  0  0  0  0
   -3.0310   21.1420  -31.7090 C   0  0  0  0  0  0  0  0  0  0  0  0
   -3.8330   20.8940  -32.9580 C   0  0  0  0  0  0  0  0  0  0  0  0
   -4.8920   21.8940  -33.0920 N   0  0  0  0  0  0  0  0  0  0  0  0
   -6.2020   21.7490  -32.5080 C   0  0  0  0  0  0  0  0  0  0  0  0
   -6.8760   20.5140  -32.5770 C   0  0  0  0  0  0  0  0  0  0  0  0
   -8.1520   20.3660  -32.0310 C   0  0  0  0  0  0  0  0  0  0  0  0
   -8.7780   21.4460  -31.4140 C   0  0  0  0  0  0  0  0  0  0  0  0
   -8.1290   22.6780  -31.3350 C   0  0  0  0  0  0  0  0  0  0  0  0
   -6.8380   22.8450  -31.8680 C   0  0  0  0  0  0  0  0  0  0  0  0
   -6.1730   24.1950  -31.7440 C   0  0  0  0  0  0  0  0  0  0  0  0
   -5.1530   24.1870  -30.6480 C   0  0  0  0  0  0  0  0  0  0  0  0
   -5.3850   23.6280  -29.4260 N   0  0  0  0  0  0  0  0  0  0  0  0
   -4.2290   23.8610  -28.7810 C   0  0  0  0  0  0  0  0  0  0  0  0
   -3.8630   23.5230  -27.4890 C   0  0  0  0  0  0  0  0  0  0  0  0
   -2.6140   23.8860  -27.0710 N   0  0  0  0  0  0  0  0  0  0  0  0
   -1.7420   24.5620  -27.8940 C   0  0  0  0  0  0  0  0  0  0  0  0
   -0.4320   24.9280  -27.4100 N   0  0  0  0  0  0  0  0  0  0  0  0
    0.6540   23.9440  -27.4770 C   0  0  0  0  0  0  0  0  0  0  0  0
    1.9530   24.5180  -26.9050 C   0  0  0  0  0  0  0  0  0  0  0  0
    2.1820   25.8680  -27.4300 N   0  0  0  0  0  0  0  0  0  0  0  0
    1.1400   26.8250  -27.0110 C   0  0  0  0  0  0  0  0  0  0  0  0
   -0.2240   26.1840  -26.6730 C   0  0  0  0  0  0  0  0  0  0  0  0
   -2.1270   24.8870  -29.1680 N   0  0  0  0  0  0  0  0  0  0  0  0
   -3.3640   24.5250  -29.5770 C   0  0  0  0  0  0  0  0  0  0  0  0
   -3.9230   24.7510  -30.7700 N   0  0  0  0  0  0  0  0  0  0  0  0
   -1.7380   21.6820  -31.7770 C   0  0  0  0  0  0  0  0  0  0  0  0
    0.0095   22.3031  -30.6513 H   0  0  0  0  0  0  0  0  0  0  0  0
   -0.9966   21.6806  -28.4486 H   0  0  0  0  0  0  0  0  0  0  0  0
   -4.5662   20.3751  -30.3770 H   0  0  0  0  0  0  0  0  0  0  0  0
   -3.1683   20.9508  -33.8326 H   0  0  0  0  0  0  0  0  0  0  0  0
   -4.2911   19.8959  -32.8951 H   0  0  0  0  0  0  0  0  0  0  0  0
   -4.6390   22.7850  -33.5720 H   0  0  0  0  0  0  0  0  0  0  0  0
   -6.3913   19.6566  -33.0667 H   0  0  0  0  0  0  0  0  0  0  0  0
   -8.6641   19.3942  -32.0882 H   0  0  0  0  0  0  0  0  0  0  0  0
   -9.7854   21.3274  -30.9885 H   0  0  0  0  0  0  0  0  0  0  0  0
   -8.6320   23.5280  -30.8508 H   0  0  0  0  0  0  0  0  0  0  0  0
   -5.6785   24.4420  -32.6950 H   0  0  0  0  0  0  0  0  0  0  0  0
   -6.9409   24.9455  -31.5053 H   0  0  0  0  0  0  0  0  0  0  0  0
   -4.5523   22.9823  -26.8239 H   0  0  0  0  0  0  0  0  0  0  0  0
    0.3686   23.0537  -26.8974 H   0  0  0  0  0  0  0  0  0  0  0  0
    0.8226   23.6806  -28.5316 H   0  0  0  0  0  0  0  0  0  0  0  0
    1.8795   24.5618  -25.8083 H   0  0  0  0  0  0  0  0  0  0  0  0
    2.7925   23.8706  -27.1984 H   0  0  0  0  0  0  0  0  0  0  0  0
    2.1970   25.8190  -28.4760 H   0  0  0  0  0  0  0  0  0  0  0  0
    1.5007   27.3553  -26.1173 H   0  0  0  0  0  0  0  0  0  0  0  0
    0.9668   27.4921  -27.8683 H   0  0  0  0  0  0  0  0  0  0  0  0
   -0.2619   25.9746  -25.5938 H   0  0  0  0  0  0  0  0  0  0  0  0
   -1.0162   26.8888  -26.9657 H   0  0  0  0  0  0  0  0  0  0  0  0
   -3.5110   25.2440  -31.5930 H   0  0  0  0  0  0  0  0  0  0  0  0
   -1.3034   21.9504  -32.7512 H   0  0  0  0  0  0  0  0  0  0  0  0
  1  2  2  0
  2  3  1  0
  3  4  2  0
  4  5  1  0
  5  6  1  0
  6  7  1  0
  7  8  1  0
  8  9  2  0
  9 10  1  0
 10 11  2  0
 11 12  1  0
 12 13  2  0
 13 14  1  0
 14 15  1  0
 15 16  2  0
 16 17  1  0
 17 18  2  0
 18 19  1  0
 19 20  2  0
 20 21  1  0
 21 22  1  0
 22 23  1  0
 23 24  1  0
 24 25  1  0
 25 26  1  0
 20 27  1  0
 27 28  2  0
 28 29  1  0
  5 30  2  0
 30  1  1  0
 13  8  1  0
 29 15  1  0
 28 17  1  0
 26 21  1  0
  1 31  1  0
  2 32  1  0
  4 33  1  0
  6 34  1  0
  6 35  1  0
  7 36  1  0
  9 37  1  0
 10 38  1  0
 11 39  1  0
 12 40  1  0
 14 41  1  0
 14 42  1  0
 18 43  1  0
 22 44  1  0
 22 45  1  0
 23 46  1  0
 23 47  1  0
 24 48  1  0
 25 49  1  0
 25 50  1  0
 26 51  1  0
 26 52  1  0
 29 53  1  0
 30 54  1  0
M  END
>  <UniqueID>  (21) 
20

>  <SMILES>  (21) 
c1cncc(CNc2ccccc2Cc2nc3cnc(N4CCNCC4)nc3[nH]2)c1

>  <Energy>  (21) 
104.00743401946005

>  <Genealogy>  (21) 
c1cncc(CNc2ccccc2Cc2nc3cnc(N4CCNCC4)nc3[nH]2)c1 (3D coordinates assigned)
c1cncc(CNc2ccccc2Cc2nc3cnc(N4CCNCC4)nc3[nH]2)c1 (nonaromatic ring conformer: 104.00743401946005 kcal/mol)

>  <smiles>  (21) 
c1cncc(CNc2ccccc2Cc2nc3cnc(N4CCNCC4)nc3[nH]2)c1

>  <score_type>  (21) 
oracle

>  <origin>  (21) 
adgpu

>  <m_score__min__energy>  (21) 
-9.4600000000000009

>  <m_primary>  (21) 
energy

$$$$
21:0
     RDKit          3D

 33 35  0  0  0  0  0  0  0  0999 V2000
   -1.6170   26.0640  -29.8030 H   0  0  0  0  0  0  0  0  0  0  0  0
   -0.8750   26.4310  -29.2190 O   0  0  0  0  0  0  0  0  0  0  0  0
   -0.9650   26.4230  -27.8270 C   0  0  0  0  0  0  0  0  0  0  0  0
   -0.1590   27.2950  -27.0790 C   0  0  0  0  0  0  0  0  0  0  0  0
    0.5621   27.9484  -27.5919 H   0  0  0  0  0  0  0  0  0  0  0  0
   -0.2670   27.3380  -25.6880 C   0  0  0  0  0  0  0  0  0  0  0  0
    0.3701   28.0216  -25.1077 H   0  0  0  0  0  0  0  0  0  0  0  0
   -1.1830   26.5140  -25.0340 C   0  0  0  0  0  0  0  0  0  0  0  0
   -1.2727   26.5547  -23.9384 H   0  0  0  0  0  0  0  0  0  0  0  0
   -1.9860   25.6380  -25.7660 C   0  0  0  0  0  0  0  0  0  0  0  0
   -2.7105   24.9966  -25.2429 H   0  0  0  0  0  0  0  0  0  0  0  0
   -1.8770   25.5680  -27.1680 C   0  0  0  0  0  0  0  0  0  0  0  0
   -2.7410   24.6170  -27.9070 C   0  0  0  0  0  0  0  0  0  0  0  0
   -3.1070   24.8500  -29.1990 N   0  0  0  0  0  0  0  0  0  0  0  0
   -3.9200   23.8870  -29.6780 C   0  0  0  0  0  0  0  0  0  0  0  0
   -4.3470   23.8940  -30.9070 N   0  0  0  0  0  0  0  0  0  0  0  0
   -5.2450   22.9460  -31.5040 C   0  0  0  0  0  0  0  0  0  0  0  0
   -4.7740   21.8480  -32.2450 C   0  0  0  0  0  0  0  0  0  0  0  0
   -3.6935   21.7189  -32.4056 H   0  0  0  0  0  0  0  0  0  0  0  0
   -5.6730   20.9190  -32.7790 C   0  0  0  0  0  0  0  0  0  0  0  0
   -5.2989   20.0787  -33.3823 H   0  0  0  0  0  0  0  0  0  0  0  0
   -7.0500   21.0550  -32.5480 C   0  0  0  0  0  0  0  0  0  0  0  0
   -8.0180   20.0810  -33.1530 C   0  0  0  0  0  0  0  0  0  0  0  0
   -8.5493   19.5464  -32.3518 H   0  0  0  0  0  0  0  0  0  0  0  0
   -8.7442   20.6244  -33.7754 H   0  0  0  0  0  0  0  0  0  0  0  0
   -7.4701   19.3582  -33.7754 H   0  0  0  0  0  0  0  0  0  0  0  0
   -7.5190   22.1420  -31.7950 C   0  0  0  0  0  0  0  0  0  0  0  0
   -8.5986   22.2646  -31.6233 H   0  0  0  0  0  0  0  0  0  0  0  0
   -6.6190   23.0700  -31.2620 C   0  0  0  0  0  0  0  0  0  0  0  0
   -6.9926   23.9031  -30.6485 H   0  0  0  0  0  0  0  0  0  0  0  0
   -4.2140   22.6940  -28.5240 S   0  0  0  0  0  0  0  0  0  0  0  0
   -3.2760   23.4510  -27.3510 C   0  0  0  0  0  0  0  0  0  0  0  0
   -3.1119   23.0912  -26.3245 H   0  0  0  0  0  0  0  0  0  0  0  0
  1  2  1  0
  2  3  1  0
  3  4  2  0
  4  5  1  0
  4  6  1  0
  6  7  1  0
  6  8  2  0
  8  9  1  0
  8 10  1  0
 10 11  1  0
 10 12  2  0
 12 13  1  0
 13 14  1  0
 14 15  1  0
 15 16  2  0
 16 17  1  0
 17 18  2  0
 18 19  1  0
 18 20  1  0
 20 21  1  0
 20 22  2  0
 22 23  1  0
 23 24  1  0
 23 25  1  0
 23 26  1  0
 22 27  1  0
 27 28  1  0
 27 29  2  0
 29 30  1  0
 15 31  1  0
 31 32  1  0
 32 33  1  0
 12  3  1  0
 32 13  2  0
 29 17  1  0
M  CHG  1  14  -1
M  END
>  <UniqueID>  (22) 
21

>  <SMILES>  (22) 
Cc1ccc(/N=c2/[n-]c(-c3ccccc3O)cs2)cc1

>  <Energy>  (22) 
76.5661244636163

>  <Genealogy>  (22) 
Cc1ccc(N=c2[n-]c(-c3ccccc3O)cs2)cc1 (protonated)
Cc1ccc(/N=c2/[n-]c(-c3ccccc3O)cs2)cc1 (cis-trans isomerization)
Cc1ccc(/N=c2/[n-]c(-c3ccccc3O)cs2)cc1 (3D coordinates assigned)
Cc1ccc(/N=c2/[n-]c(-c3ccccc3O)cs2)cc1 (optimized conformer: 76.5661244636163 kcal/mol)

>  <smiles>  (22) 
Cc1ccc(N=c2[nH]c(-c3ccccc3O)cs2)cc1

>  <score_type>  (22) 
oracle

>  <origin>  (22) 
adgpu

>  <m_score__min__energy>  (22) 
-9.5700000000000003

>  <m_primary>  (22) 
energy

$$$$
22:0
     RDKit          3D

 30 31  0  0  0  0  0  0  0  0999 V2000
   -9.7320   21.5660  -30.7310 C   0  0  0  0  0  0  0  0  0  0  0  0
   -9.4110   21.2110  -32.1790 C   0  0  0  0  0  0  0  0  0  0  0  0
   -8.2610   20.2340  -32.2500 C   0  0  0  0  0  0  0  0  0  0  0  0
   -8.5210   18.8580  -32.1320 C   0  0  0  0  0  0  0  0  0  0  0  0
   -7.4810   17.9300  -32.2230 C   0  0  0  0  0  0  0  0  0  0  0  0
   -6.1730   18.3660  -32.4340 C   0  0  0  0  0  0  0  0  0  0  0  0
   -5.9010   19.7290  -32.5670 C   0  0  0  0  0  0  0  0  0  0  0  0
   -6.9420   20.6730  -32.5000 C   0  0  0  0  0  0  0  0  0  0  0  0
   -6.6720   22.0770  -32.6370 N   0  0  0  0  0  0  0  0  0  0  0  0
   -6.6720   23.0470  -31.5800 C   0  0  0  0  0  0  0  0  0  0  0  0
   -7.7720   23.5330  -31.2090 O   0  0  0  0  0  0  0  0  0  0  0  0
   -5.4160   23.5270  -30.9540 C   0  0  0  0  0  0  0  0  0  0  0  0
   -4.5960   22.6410  -30.2380 C   0  0  0  0  0  0  0  0  0  0  0  0
   -3.4190   23.0990  -29.6440 C   0  0  0  0  0  0  0  0  0  0  0  0
   -3.0740   24.4480  -29.7610 C   0  0  0  0  0  0  0  0  0  0  0  0
   -2.0140   24.8770  -29.2330 O   0  0  0  0  0  0  0  0  0  0  0  0
   -3.8830   25.2990  -30.4430 N   0  0  0  0  0  0  0  0  0  0  0  0
   -5.0340   24.8780  -31.0310 C   0  0  0  0  0  0  0  0  0  0  0  0
   -9.1487   20.9210  -30.0574 H   0  0  0  0  0  0  0  0  0  0  0  0
   -9.4732   22.6189  -30.5456 H   0  0  0  0  0  0  0  0  0  0  0  0
  -10.8056   21.4142  -30.5456 H   0  0  0  0  0  0  0  0  0  0  0  0
  -10.2986   20.7575  -32.6443 H   0  0  0  0  0  0  0  0  0  0  0  0
   -9.1261   22.1299  -32.7123 H   0  0  0  0  0  0  0  0  0  0  0  0
   -9.5511   18.5092  -31.9668 H   0  0  0  0  0  0  0  0  0  0  0  0
   -7.6936   16.8549  -32.1282 H   0  0  0  0  0  0  0  0  0  0  0  0
   -5.3539   17.6344  -32.4958 H   0  0  0  0  0  0  0  0  0  0  0  0
   -4.8662   20.0669  -32.7252 H   0  0  0  0  0  0  0  0  0  0  0  0
   -4.8818   21.5829  -30.1448 H   0  0  0  0  0  0  0  0  0  0  0  0
   -2.7698   22.4053  -29.0896 H   0  0  0  0  0  0  0  0  0  0  0  0
   -5.6691   25.5971  -31.5692 H   0  0  0  0  0  0  0  0  0  0  0  0
  1  2  1  0
  2  3  1  0
  3  4  2  0
  4  5  1  0
  5  6  2  0
  6  7  1  0
  7  8  2  0
  8  9  1  0
  9 10  1  0
 10 11  2  0
 10 12  1  0
 12 13  1  0
 13 14  2  0
 14 15  1  0
 15 16  2  0
 15 17  1  0
 17 18  1  0
  8  3  1  0
 18 12  2  0
  1 19  1  0
  1 20  1  0
  1 21  1  0
  2 22  1  0
  2 23  1  0
  4 24  1  0
  5 25  1  0
  6 26  1  0
  7 27  1  0
 13 28  1  0
 14 29  1  0
 18 30  1  0
M  CHG  2   9  -1  17  -1
M  END
>  <UniqueID>  (23) 
22

>  <SMILES>  (23) 
CCc1ccccc1[N-]C(=O)c1ccc(=O)[n-]c1

>  <Energy>  (23) 
35.618836226303245

>  <Genealogy>  (23) 
CCc1ccccc1[N-]C(=O)c1ccc(=O)[n-]c1 (protonated)
CCc1ccccc1[N-]C(=O)c1ccc(=O)[n-]c1 (3D coordinates assigned)
CCc1ccccc1[N-]C(=O)c1ccc(=O)[n-]c1 (optimized conformer: 35.618836226303245 kcal/mol)

>  <smiles>  (23) 
CCc1ccccc1NC(=O)c1ccc(=O)[nH]c1

>  <score_type>  (23) 
oracle

>  <origin>  (23) 
adgpu

>  <m_score__min__energy>  (23) 
-9.0399999999999991

>  <m_primary>  (23) 
energy

$$$$
23:0
     RDKit          3D

 36 38  0  0  0  0  0  0  0  0999 V2000
    1.2890   26.0250  -35.3310 C   0  0  0  0  0  0  0  0  0  0  0  0
    1.0340   24.4750  -36.1680 S   0  0  0  0  0  0  0  0  0  0  0  0
   -0.4400   24.1800  -36.1860 O   0  0  0  0  0  0  0  0  0  0  0  0
    1.5250   24.5540  -37.5850 O   0  0  0  0  0  0  0  0  0  0  0  0
    1.8500   23.1970  -35.3240 N   0  0  0  0  0  0  0  0  0  0  0  0
    1.3090   21.8800  -35.1140 C   0  0  0  0  0  0  0  0  0  0  0  0
    2.0810   20.7130  -35.2690 C   0  0  0  0  0  0  0  0  0  0  0  0
    1.5240   19.4900  -35.0620 N   0  0  0  0  0  0  0  0  0  0  0  0
    0.2210   19.3450  -34.7040 C   0  0  0  0  0  0  0  0  0  0  0  0
   -0.5870   20.4730  -34.5430 C   0  0  0  0  0  0  0  0  0  0  0  0
   -1.9700   20.3290  -34.1670 C   0  0  0  0  0  0  0  0  0  0  0  0
   -3.1270   20.2100  -33.8520 C   0  0  0  0  0  0  0  0  0  0  0  0
   -4.5070   20.0670  -33.4770 C   0  0  0  0  0  0  0  0  0  0  0  0
   -5.1610   18.8410  -33.6450 C   0  0  0  0  0  0  0  0  0  0  0  0
   -6.5020   18.7210  -33.2740 C   0  0  0  0  0  0  0  0  0  0  0  0
   -7.1780   19.8250  -32.7390 C   0  0  0  0  0  0  0  0  0  0  0  0
   -8.5260   19.7400  -32.3560 C   0  0  0  0  0  0  0  0  0  0  0  0
   -9.1720   20.8610  -31.8250 C   0  0  0  0  0  0  0  0  0  0  0  0
   -8.4800   22.0680  -31.6750 C   0  0  0  0  0  0  0  0  0  0  0  0
   -7.1360   22.1610  -32.0540 C   0  0  0  0  0  0  0  0  0  0  0  0
   -6.4810   21.0450  -32.5860 C   0  0  0  0  0  0  0  0  0  0  0  0
   -5.1750   21.1310  -32.9560 N   0  0  0  0  0  0  0  0  0  0  0  0
   -0.0390   21.7420  -34.7510 C   0  0  0  0  0  0  0  0  0  0  0  0
    1.2624   25.8631  -34.2433 H   0  0  0  0  0  0  0  0  0  0  0  0
    2.2673   26.4391  -35.6162 H   0  0  0  0  0  0  0  0  0  0  0  0
    0.4949   26.7307  -35.6162 H   0  0  0  0  0  0  0  0  0  0  0  0
    2.8220   23.4000  -34.9960 H   0  0  0  0  0  0  0  0  0  0  0  0
    3.1393   20.7909  -35.5588 H   0  0  0  0  0  0  0  0  0  0  0  0
   -0.1968   18.3406  -34.5412 H   0  0  0  0  0  0  0  0  0  0  0  0
   -4.6230   17.9788  -34.0659 H   0  0  0  0  0  0  0  0  0  0  0  0
   -7.0259   17.7622  -33.4016 H   0  0  0  0  0  0  0  0  0  0  0  0
   -9.0733   18.7931  -32.4734 H   0  0  0  0  0  0  0  0  0  0  0  0
  -10.2279   20.7937  -31.5242 H   0  0  0  0  0  0  0  0  0  0  0  0
   -8.9940   22.9465  -31.2579 H   0  0  0  0  0  0  0  0  0  0  0  0
   -6.5948   23.1111  -31.9337 H   0  0  0  0  0  0  0  0  0  0  0  0
   -0.6676   22.6365  -34.6295 H   0  0  0  0  0  0  0  0  0  0  0  0
  1  2  1  0
  2  3  2  0
  2  4  2  0
  2  5  1  0
  5  6  1  0
  6  7  2  0
  7  8  1  0
  8  9  2  0
  9 10  1  0
 10 11  1  0
 11 12  3  0
 12 13  1  0
 13 14  2  0
 14 15  1  0
 15 16  2  0
 16 17  1  0
 17 18  2  0
 18 19  1  0
 19 20  2  0
 20 21  1  0
 21 22  2  0
 10 23  2  0
 23  6  1  0
 22 13  1  0
 21 16  1  0
  1 24  1  0
  1 25  1  0
  1 26  1  0
  5 27  1  0
  7 28  1  0
  9 29  1  0
 14 30  1  0
 15 31  1  0
 17 32  1  0
 18 33  1  0
 19 34  1  0
 20 35  1  0
 23 36  1  0
M  END
>  <UniqueID>  (24) 
23

>  <SMILES>  (24) 
CS(=O)(=O)Nc1cncc(C#Cc2ccc3ccccc3n2)c1

>  <Energy>  (24) 
37.40966656367122

>  <Genealogy>  (24) 
CS(=O)(=O)Nc1cncc(C#Cc2ccc3ccccc3n2)c1 (3D coordinates assigned)
CS(=O)(=O)Nc1cncc(C#Cc2ccc3ccccc3n2)c1 (optimized conformer: 37.40966656367122 kcal/mol)

>  <smiles>  (24) 
CS(=O)(=O)Nc1cncc(C#Cc2ccc3ccccc3n2)c1

>  <score_type>  (24) 
oracle

>  <origin>  (24) 
adgpu

>  <m_score__min__energy>  (24) 
-8.5399999999999991

>  <m_primary>  (24) 
energy

$$$$
24:0
     RDKit          3D

 68 72  0  0  1  0  0  0  0  0999 V2000
   -6.6050   25.0130  -30.1980 C   0  0  0  0  0  0  0  0  0  0  0  0
   -5.3290   24.9420  -30.9720 C   0  0  1  0  0  0  0  0  0  0  0  0
   -4.1950   25.4580  -30.2260 N   0  0  0  0  0  0  0  0  0  0  0  0
   -3.4940   24.6260  -29.3140 C   0  0  0  0  0  0  0  0  0  0  0  0
   -4.1800   23.8800  -28.3560 C   0  0  0  0  0  0  0  0  0  0  0  0
   -3.5300   23.0610  -27.4570 C   0  0  0  0  0  0  0  0  0  0  0  0
   -2.1490   22.9490  -27.4740 C   0  0  0  0  0  0  0  0  0  0  0  0
   -1.5710   22.1150  -26.5490 O   0  0  0  0  0  0  0  0  0  0  0  0
   -1.2720   20.8010  -26.8940 C   0  0  0  0  0  0  0  0  0  0  0  0
   -2.0100   19.7210  -26.4590 C   0  0  0  0  0  0  0  0  0  0  0  0
   -1.6060   18.4670  -26.8740 C   0  0  0  0  0  0  0  0  0  0  0  0
   -0.4940   18.3010  -27.7000 C   0  0  0  0  0  0  0  0  0  0  0  0
    0.2440   19.3770  -28.1340 C   0  0  0  0  0  0  0  0  0  0  0  0
   -0.1590   20.6310  -27.7200 C   0  0  0  0  0  0  0  0  0  0  0  0
   -1.4580   23.6780  -28.4130 C   0  0  0  0  0  0  0  0  0  0  0  0
   -2.1290   24.5020  -29.3160 C   0  0  0  0  0  0  0  0  0  0  0  0
   -5.0810   23.5580  -31.4500 C   0  0  0  0  0  0  0  0  0  0  0  0
   -6.1550   22.7560  -31.7930 C   0  0  0  0  0  0  0  0  0  0  0  0
   -5.9130   21.4700  -32.2360 C   0  0  0  0  0  0  0  0  0  0  0  0
   -6.8900   20.7120  -32.5590 N   0  0  0  0  0  0  0  0  0  0  0  0
   -6.7470   19.3710  -33.0280 C   0  0  0  0  0  0  0  0  0  0  0  0
   -6.1170   19.0480  -34.2050 C   0  0  0  0  0  0  0  0  0  0  0  0
   -6.0440   17.7020  -34.5510 C   0  0  0  0  0  0  0  0  0  0  0  0
   -6.5700   16.7030  -33.7660 C   0  0  0  0  0  0  0  0  0  0  0  0
   -6.4440   15.3240  -34.2110 C   0  0  0  0  0  0  0  0  0  0  0  0
   -5.2150   14.6250  -34.2290 N   0  0  0  0  0  0  0  0  0  0  0  0
   -7.4660   14.7140  -34.5990 O   0  0  0  0  0  0  0  0  0  0  0  0
   -7.2000   17.0320  -32.5840 C   0  0  0  0  0  0  0  0  0  0  0  0
   -7.2870   18.3690  -32.2180 C   0  0  0  0  0  0  0  0  0  0  0  0
   -4.6620   20.9750  -32.3460 N   0  0  0  0  0  0  0  0  0  0  0  0
   -3.6220   21.7730  -32.0060 C   0  0  0  0  0  0  0  0  0  0  0  0
   -2.3090   21.2420  -32.1230 N   0  0  0  0  0  0  0  0  0  0  0  0
   -1.6470   21.1490  -33.4250 C   0  0  0  0  0  0  0  0  0  0  0  0
   -0.8150   19.8750  -33.3870 C   0  0  0  0  0  0  0  0  0  0  0  0
    0.1520   19.8900  -32.4180 O   0  0  0  0  0  0  0  0  0  0  0  0
   -0.0730   20.8290  -31.4180 C   0  0  0  0  0  0  0  0  0  0  0  0
   -1.5440   20.7630  -30.9860 C   0  0  0  0  0  0  0  0  0  0  0  0
   -3.8500   23.0430  -31.5660 N   0  0  0  0  0  0  0  0  0  0  0  0
   -6.3817   25.0006  -29.1210 H   0  0  0  0  0  0  0  0  0  0  0  0
   -7.1365   25.9421  -30.4516 H   0  0  0  0  0  0  0  0  0  0  0  0
   -7.2363   24.1486  -30.4516 H   0  0  0  0  0  0  0  0  0  0  0  0
   -5.4450   25.5957  -31.8491 H   0  0  0  0  0  0  0  0  0  0  0  0
   -3.8780   26.4440  -30.3450 H   0  0  0  0  0  0  0  0  0  0  0  0
   -5.2772   23.9472  -28.3161 H   0  0  0  0  0  0  0  0  0  0  0  0
   -4.1136   22.4910  -26.7191 H   0  0  0  0  0  0  0  0  0  0  0  0
   -2.8861   19.8526  -25.8071 H   0  0  0  0  0  0  0  0  0  0  0  0
   -2.1719   17.5823  -26.5469 H   0  0  0  0  0  0  0  0  0  0  0  0
   -0.2012   17.2873  -28.0109 H   0  0  0  0  0  0  0  0  0  0  0  0
    1.1206   19.2440  -28.7851 H   0  0  0  0  0  0  0  0  0  0  0  0
    0.4085   21.5145  -28.0476 H   0  0  0  0  0  0  0  0  0  0  0  0
   -0.3608   23.6103  -28.4524 H   0  0  0  0  0  0  0  0  0  0  0  0
   -1.5439   25.0708  -30.0537 H   0  0  0  0  0  0  0  0  0  0  0  0
   -7.1843   23.1360  -31.7143 H   0  0  0  0  0  0  0  0  0  0  0  0
   -5.6852   19.8261  -34.8516 H   0  0  0  0  0  0  0  0  0  0  0  0
   -5.5448   17.4258  -35.4915 H   0  0  0  0  0  0  0  0  0  0  0  0
   -4.6410   14.5810  -35.1110 H   0  0  0  0  0  0  0  0  0  0  0  0
   -4.8990   14.1620  -33.3580 H   0  0  0  0  0  0  0  0  0  0  0  0
   -7.6268   16.2479  -31.9413 H   0  0  0  0  0  0  0  0  0  0  0  0
   -7.7879   18.6426  -31.2776 H   0  0  0  0  0  0  0  0  0  0  0  0
   -4.5230   19.9910  -32.6870 H   0  0  0  0  0  0  0  0  0  0  0  0
   -2.3946   21.0926  -34.2299 H   0  0  0  0  0  0  0  0  0  0  0  0
   -1.0205   22.0318  -33.6206 H   0  0  0  0  0  0  0  0  0  0  0  0
   -1.4865   19.0247  -33.1974 H   0  0  0  0  0  0  0  0  0  0  0  0
   -0.3036   19.7900  -34.3572 H   0  0  0  0  0  0  0  0  0  0  0  0
    0.5739   20.6104  -30.5556 H   0  0  0  0  0  0  0  0  0  0  0  0
    0.1559   21.8356  -31.7978 H   0  0  0  0  0  0  0  0  0  0  0  0
   -1.8262   19.7281  -30.7424 H   0  0  0  0  0  0  0  0  0  0  0  0
   -1.7307   21.3685  -30.0868 H   0  0  0  0  0  0  0  0  0  0  0  0
  1  2  1  0
  2  3  1  0
  3  4  1  0
  4  5  2  0
  5  6  1  0
  6  7  2  0
  7  8  1  0
  8  9  1  0
  9 10  2  0
 10 11  1  0
 11 12  2  0
 12 13  1  0
 13 14  2  0
  7 15  1  0
 15 16  2  0
  2 17  1  0
 17 18  2  0
 18 19  1  0
 19 20  2  0
 20 21  1  0
 21 22  2  0
 22 23  1  0
 23 24  2  0
 24 25  1  0
 25 26  1  0
 25 27  2  0
 24 28  1  0
 28 29  2  0
 19 30  1  0
 30 31  1  0
 31 32  1  0
 32 33  1  0
 33 34  1  0
 34 35  1  0
 35 36  1  0
 36 37  1  0
 31 38  2  0
 16  4  1  0
 38 17  1  0
 14  9  1  0
 29 21  1  0
 37 32  1  0
  1 39  1  0
  1 40  1  0
  1 41  1  0
  2 42  1  6
  3 43  1  0
  5 44  1  0
  6 45  1  0
 10 46  1  0
 11 47  1  0
 12 48  1  0
 13 49  1  0
 14 50  1  0
 15 51  1  0
 16 52  1  0
 18 53  1  0
 22 54  1  0
 23 55  1  0
 26 56  1  0
 26 57  1  0
 28 58  1  0
 29 59  1  0
 30 60  1  0
 33 61  1  0
 33 62  1  0
 34 63  1  0
 34 64  1  0
 36 65  1  0
 36 66  1  0
 37 67  1  0
 37 68  1  0
M  END
>  <smiles>  (25) 
CC(Nc1ccc(Oc2ccccc2)cc1)c1cc(=Nc2ccc(C(N)=O)cc2)[nH]c(N2CCOCC2)n1

>  <score_type>  (25) 
oracle

>  <origin>  (25) 
adgpu

>  <m_score__min__energy>  (25) 
-10.779999999999999

>  <m_primary>  (25) 
energy

$$$$
25:0
     RDKit          3D

 33 34  0  0  0  0  0  0  0  0999 V2000
   -2.6150   26.1710  -28.9770 H   0  0  0  0  0  0  0  0  0  0  0  0
   -1.8760   25.4390  -28.9430 N   0  0  0  0  0  0  0  0  0  0  0  0
   -2.0280   24.2210  -28.5200 C   0  0  0  0  0  0  0  0  0  0  0  0
   -0.9460   23.3980  -28.5560 N   0  0  0  0  0  0  0  0  0  0  0  0
   -0.9860   22.1020  -28.1480 C   0  0  0  0  0  0  0  0  0  0  0  0
    0.2600   21.2740  -28.2280 C   0  0  0  0  0  0  0  0  0  0  0  0
    0.6111   21.0407  -27.2120 H   0  0  0  0  0  0  0  0  0  0  0  0
    0.0448   20.3386  -28.7654 H   0  0  0  0  0  0  0  0  0  0  0  0
    1.0390   21.8347  -28.7654 H   0  0  0  0  0  0  0  0  0  0  0  0
   -2.1900   21.5680  -27.6660 C   0  0  0  0  0  0  0  0  0  0  0  0
   -2.3110   19.8960  -27.1290 Cl  0  0  0  0  0  0  0  0  0  0  0  0
   -3.3200   22.3830  -27.6120 C   0  0  0  0  0  0  0  0  0  0  0  0
   -4.2684   21.9705  -27.2373 H   0  0  0  0  0  0  0  0  0  0  0  0
   -3.2650   23.7230  -28.0290 C   0  0  0  0  0  0  0  0  0  0  0  0
   -4.5450   24.5290  -27.9500 C   0  0  0  0  0  0  0  0  0  0  0  0
   -5.1163   24.2163  -27.0635 H   0  0  0  0  0  0  0  0  0  0  0  0
   -4.2908   25.5968  -27.8781 H   0  0  0  0  0  0  0  0  0  0  0  0
   -5.3560   24.3140  -29.1460 N   0  0  0  0  0  0  0  0  0  0  0  0
   -6.2760   23.8280  -29.0430 H   0  0  0  0  0  0  0  0  0  0  0  0
   -4.9520   24.7410  -30.4510 C   0  0  0  0  0  0  0  0  0  0  0  0
   -3.8550   25.3390  -30.6120 O   0  0  0  0  0  0  0  0  0  0  0  0
   -5.7870   24.4380  -31.5760 N   0  0  0  0  0  0  0  0  0  0  0  0
   -6.5440   23.2360  -31.7810 C   0  0  0  0  0  0  0  0  0  0  0  0
   -7.8930   23.1310  -31.3930 C   0  0  0  0  0  0  0  0  0  0  0  0
   -8.3999   23.9923  -30.9334 H   0  0  0  0  0  0  0  0  0  0  0  0
   -8.5910   21.9350  -31.5900 C   0  0  0  0  0  0  0  0  0  0  0  0
   -9.6485   21.8620  -31.2963 H   0  0  0  0  0  0  0  0  0  0  0  0
   -7.9480   20.8330  -32.1590 C   0  0  0  0  0  0  0  0  0  0  0  0
   -8.6260   19.6730  -32.3470 F   0  0  0  0  0  0  0  0  0  0  0  0
   -6.6020   20.9220  -32.5240 C   0  0  0  0  0  0  0  0  0  0  0  0
   -6.0939   20.0522  -32.9659 H   0  0  0  0  0  0  0  0  0  0  0  0
   -5.9000   22.1160  -32.3280 C   0  0  0  0  0  0  0  0  0  0  0  0
   -4.5920   22.1880  -32.6830 F   0  0  0  0  0  0  0  0  0  0  0  0
  1  2  1  0
  2  3  2  0
  3  4  1  0
  4  5  1  0
  5  6  1  0
  6  7  1  0
  6  8  1  0
  6  9  1  0
  5 10  2  0
 10 11  1  0
 10 12  1  0
 12 13  1  0
 12 14  2  0
 14 15  1  0
 15 16  1  0
 15 17  1  0
 15 18  1  0
 18 19  1  0
 18 20  1  0
 20 21  2  0
 20 22  1  0
 22 23  1  0
 23 24  2  0
 24 25  1  0
 24 26  1  0
 26 27  1  0
 26 28  2  0
 28 29  1  0
 28 30  1  0
 30 31  1  0
 30 32  2  0
 32 33  1  0
 14  3  1  0
 32 23  1  0
M  CHG  2   4  -1  22  -1
M  END
>  <UniqueID>  (26) 
24

>  <SMILES>  (26) 
[H]/N=c1/[n-]c(C)c(Cl)cc1CNC(=O)[N-]c1ccc(F)cc1F

>  <Energy>  (26) 
39.44459307359837

>  <Genealogy>  (26) 
Cc1[n-]c(=N)c(CNC(=O)[N-]c2ccc(F)cc2F)cc1Cl (protonated)
[H]/N=c1/[n-]c(C)c(Cl)cc1CNC(=O)[N-]c1ccc(F)cc1F (cis-trans isomerization)
[H]/N=c1/[n-]c(C)c(Cl)cc1CNC(=O)[N-]c1ccc(F)cc1F (3D coordinates assigned)
[H]/N=c1/[n-]c(C)c(Cl)cc1CNC(=O)[N-]c1ccc(F)cc1F (optimized conformer: 39.44459307359837 kcal/mol)

>  <smiles>  (26) 
Cc1[nH]c(=N)c(CNC(=O)Nc2ccc(F)cc2F)cc1Cl

>  <score_type>  (26) 
oracle

>  <origin>  (26) 
adgpu

>  <m_score__min__energy>  (26) 
-10.210000000000001

>  <m_primary>  (26) 
energy

$$$$
26:0
     RDKit          3D

 44 46  0  0  0  0  0  0  0  0999 V2000
   -0.2080   18.9480  -31.9480 C   0  0  0  0  0  0  0  0  0  0  0  0
   -1.3940   19.2610  -31.2250 O   0  0  0  0  0  0  0  0  0  0  0  0
   -1.7700   20.5550  -30.8270 C   0  0  0  0  0  0  0  0  0  0  0  0
   -1.2570   21.1450  -29.6550 C   0  0  0  0  0  0  0  0  0  0  0  0
   -1.6270   22.4430  -29.2950 C   0  0  0  0  0  0  0  0  0  0  0  0
   -2.4960   23.1820  -30.1070 C   0  0  0  0  0  0  0  0  0  0  0  0
   -2.8970   24.5530  -29.7330 C   0  0  0  0  0  0  0  0  0  0  0  0
   -2.3900   25.0810  -28.7080 O   0  0  0  0  0  0  0  0  0  0  0  0
   -3.8750   25.2920  -30.4750 N   0  0  0  0  0  0  0  0  0  0  0  0
   -5.2820   25.4070  -30.1120 C   0  0  0  0  0  0  0  0  0  0  0  0
   -6.0350   24.2540  -30.6890 C   0  0  0  0  0  0  0  0  0  0  0  0
   -6.7630   23.3170  -29.9680 C   0  0  0  0  0  0  0  0  0  0  0  0
   -7.3000   22.3030  -30.7720 C   0  0  0  0  0  0  0  0  0  0  0  0
   -6.9820   22.4310  -32.1190 C   0  0  0  0  0  0  0  0  0  0  0  0
   -6.0320   23.8060  -32.3090 S   0  0  0  0  0  0  0  0  0  0  0  0
   -3.0290   22.5910  -31.2600 C   0  0  0  0  0  0  0  0  0  0  0  0
   -2.6790   21.2810  -31.6210 C   0  0  0  0  0  0  0  0  0  0  0  0
   -3.3610   20.5850  -33.0960 S   0  0  0  0  0  0  0  0  0  0  0  0
   -4.1810   21.6370  -33.7890 O   0  0  0  0  0  0  0  0  0  0  0  0
   -2.2560   20.1350  -34.0140 O   0  0  0  0  0  0  0  0  0  0  0  0
   -4.3820   19.2240  -32.6980 N   0  0  0  0  0  0  0  0  0  0  0  0
   -5.2010   18.8150  -33.8410 C   0  0  0  0  0  0  0  0  0  0  0  0
   -6.4630   18.1850  -33.2700 C   0  0  0  0  0  0  0  0  0  0  0  0
   -6.5310   18.6520  -31.8250 C   0  0  0  0  0  0  0  0  0  0  0  0
   -5.3310   19.5660  -31.6410 C   0  0  0  0  0  0  0  0  0  0  0  0
    0.6066   18.7330  -31.2407 H   0  0  0  0  0  0  0  0  0  0  0  0
   -0.3864   18.0662  -32.5809 H   0  0  0  0  0  0  0  0  0  0  0  0
    0.0720   19.8030  -32.5809 H   0  0  0  0  0  0  0  0  0  0  0  0
   -0.5601   20.5795  -29.0189 H   0  0  0  0  0  0  0  0  0  0  0  0
   -1.2336   22.8870  -28.3687 H   0  0  0  0  0  0  0  0  0  0  0  0
   -5.3809   25.3995  -29.0165 H   0  0  0  0  0  0  0  0  0  0  0  0
   -5.6894   26.3490  -30.5078 H   0  0  0  0  0  0  0  0  0  0  0  0
   -6.9036   23.3657  -28.8781 H   0  0  0  0  0  0  0  0  0  0  0  0
   -7.9155   21.4826  -30.3745 H   0  0  0  0  0  0  0  0  0  0  0  0
   -7.2975   21.7498  -32.9230 H   0  0  0  0  0  0  0  0  0  0  0  0
   -3.7294   23.1600  -31.8890 H   0  0  0  0  0  0  0  0  0  0  0  0
   -5.4586   19.6902  -34.4556 H   0  0  0  0  0  0  0  0  0  0  0  0
   -4.6591   18.1047  -34.4827 H   0  0  0  0  0  0  0  0  0  0  0  0
   -7.3486   18.5258  -33.8264 H   0  0  0  0  0  0  0  0  0  0  0  0
   -6.4412   17.0877  -33.3440 H   0  0  0  0  0  0  0  0  0  0  0  0
   -7.4658   19.2021  -31.6416 H   0  0  0  0  0  0  0  0  0  0  0  0
   -6.5146   17.8075  -31.1203 H   0  0  0  0  0  0  0  0  0  0  0  0
   -5.6377   20.6185  -31.7318 H   0  0  0  0  0  0  0  0  0  0  0  0
   -4.8812   19.4358  -30.6457 H   0  0  0  0  0  0  0  0  0  0  0  0
  1  2  1  0
  2  3  1  0
  3  4  2  0
  4  5  1  0
  5  6  2  0
  6  7  1  0
  7  8  2  0
  7  9  1  0
  9 10  1  0
 10 11  1  0
 11 12  2  0
 12 13  1  0
 13 14  2  0
 14 15  1  0
  6 16  1  0
 16 17  2  0
 17 18  1  0
 18 19  2  0
 18 20  2  0
 18 21  1  0
 21 22  1  0
 22 23  1  0
 23 24  1  0
 24 25  1  0
 17  3  1  0
 25 21  1  0
 15 11  1  0
  1 26  1  0
  1 27  1  0
  1 28  1  0
  4 29  1  0
  5 30  1  0
 10 31  1  0
 10 32  1  0
 12 33  1  0
 13 34  1  0
 14 35  1  0
 16 36  1  0
 22 37  1  0
 22 38  1  0
 23 39  1  0
 23 40  1  0
 24 41  1  0
 24 42  1  0
 25 43  1  0
 25 44  1  0
M  CHG  1   9  -1
M  END
>  <UniqueID>  (27) 
25

>  <SMILES>  (27) 
COc1ccc(C(=O)[N-]Cc2cccs2)cc1S(=O)(=O)N1CCCC1

>  <Energy>  (27) 
74.32066965024399

>  <Genealogy>  (27) 
COc1ccc(C(=O)[N-]Cc2cccs2)cc1S(=O)(=O)N1CCCC1 (protonated)
COc1ccc(C(=O)[N-]Cc2cccs2)cc1S(=O)(=O)N1CCCC1 (3D coordinates assigned)
COc1ccc(C(=O)[N-]Cc2cccs2)cc1S(=O)(=O)N1CCCC1 (nonaromatic ring conformer: 74.32066965024399 kcal/mol)

>  <smiles>  (27) 
COc1ccc(C(=O)NCc2cccs2)cc1S(=O)(=O)N1CCCC1

>  <score_type>  (27) 
oracle

>  <origin>  (27) 
adgpu

>  <m_score__min__energy>  (27) 
-10.66

>  <m_primary>  (27) 
energy

$$$$
27:0
     RDKit          3D

 56 60  0  0  0  0  0  0  0  0999 V2000
   -5.6988   22.2397  -32.3574 H   0  0  0  0  0  0  0  0  0  0  0  0
   -4.6760   22.2710  -32.7610 C   0  0  0  0  0  0  0  0  0  0  0  0
   -4.1530   23.2337  -32.8599 H   0  0  0  0  0  0  0  0  0  0  0  0
   -4.0690   21.1400  -33.1310 C   0  0  0  0  0  0  0  0  0  0  0  0
   -4.6210   19.8640  -33.1250 C   0  0  0  0  0  0  0  0  0  0  0  0
   -5.9770   19.4770  -32.6770 C   0  0  0  0  0  0  0  0  0  0  0  0
   -7.0940   20.2390  -33.0540 C   0  0  0  0  0  0  0  0  0  0  0  0
   -6.9622   21.1273  -33.6892 H   0  0  0  0  0  0  0  0  0  0  0  0
   -8.3740   19.8730  -32.6250 C   0  0  0  0  0  0  0  0  0  0  0  0
   -9.2461   20.4730  -32.9240 H   0  0  0  0  0  0  0  0  0  0  0  0
   -8.5460   18.7460  -31.8170 C   0  0  0  0  0  0  0  0  0  0  0  0
   -9.5531   18.4593  -31.4800 H   0  0  0  0  0  0  0  0  0  0  0  0
   -7.4380   17.9830  -31.4370 C   0  0  0  0  0  0  0  0  0  0  0  0
   -7.5740   17.0952  -30.8020 H   0  0  0  0  0  0  0  0  0  0  0  0
   -6.1580   18.3470  -31.8630 C   0  0  0  0  0  0  0  0  0  0  0  0
   -5.2883   17.7458  -31.5595 H   0  0  0  0  0  0  0  0  0  0  0  0
   -3.6500   19.0210  -33.6510 C   0  0  0  0  0  0  0  0  0  0  0  0
   -3.7700   17.5380  -33.8610 C   0  0  0  0  0  0  0  0  0  0  0  0
   -3.8110   17.0316  -32.8853 H   0  0  0  0  0  0  0  0  0  0  0  0
   -4.6887   17.3208  -34.4257 H   0  0  0  0  0  0  0  0  0  0  0  0
   -2.8982   17.1759  -34.4257 H   0  0  0  0  0  0  0  0  0  0  0  0
   -2.5520   19.8210  -33.9560 C   0  0  0  0  0  0  0  0  0  0  0  0
   -1.4180   19.3940  -34.5410 C   0  0  0  0  0  0  0  0  0  0  0  0
   -1.3726   18.3422  -34.8600 H   0  0  0  0  0  0  0  0  0  0  0  0
   -0.2320   20.2350  -34.7850 C   0  0  0  0  0  0  0  0  0  0  0  0
    1.0790   19.8010  -34.8920 C   0  0  0  0  0  0  0  0  0  0  0  0
    1.4490   18.7769  -34.7361 H   0  0  0  0  0  0  0  0  0  0  0  0
    1.8290   20.9080  -35.2330 C   0  0  0  0  0  0  0  0  0  0  0  0
    2.9169   20.9413  -35.3921 H   0  0  0  0  0  0  0  0  0  0  0  0
    0.9430   21.9710  -35.3360 C   0  0  0  0  0  0  0  0  0  0  0  0
    1.2970   23.3660  -35.7010 C   0  0  0  0  0  0  0  0  0  0  0  0
    2.6260   23.8160  -35.6010 C   0  0  0  0  0  0  0  0  0  0  0  0
    3.4090   23.1295  -35.2467 H   0  0  0  0  0  0  0  0  0  0  0  0
    2.9600   25.1280  -35.9480 C   0  0  0  0  0  0  0  0  0  0  0  0
    4.0016   25.4696  -35.8565 H   0  0  0  0  0  0  0  0  0  0  0  0
    1.9730   26.0130  -36.4130 C   0  0  0  0  0  0  0  0  0  0  0  0
    2.2680   27.3400  -36.7540 O   0  0  0  0  0  0  0  0  0  0  0  0
    1.3510   28.4020  -36.7580 C   0  0  0  0  0  0  0  0  0  0  0  0
    1.2140   29.2740  -35.6610 C   0  0  0  0  0  0  0  0  0  0  0  0
    1.8290   29.1239  -34.7614 H   0  0  0  0  0  0  0  0  0  0  0  0
    0.2990   30.3300  -35.7110 C   0  0  0  0  0  0  0  0  0  0  0  0
    0.1892   31.0032  -34.8480 H   0  0  0  0  0  0  0  0  0  0  0  0
   -0.4760   30.5310  -36.8560 C   0  0  0  0  0  0  0  0  0  0  0  0
   -1.1990   31.3592  -36.8920 H   0  0  0  0  0  0  0  0  0  0  0  0
   -0.3330   29.6800  -37.9560 C   0  0  0  0  0  0  0  0  0  0  0  0
   -0.9409   29.8409  -38.8585 H   0  0  0  0  0  0  0  0  0  0  0  0
    0.5830   28.6240  -37.9090 C   0  0  0  0  0  0  0  0  0  0  0  0
    0.7013   27.9637  -38.7808 H   0  0  0  0  0  0  0  0  0  0  0  0
    0.6490   25.5750  -36.4950 C   0  0  0  0  0  0  0  0  0  0  0  0
   -0.1346   26.2688  -36.8336 H   0  0  0  0  0  0  0  0  0  0  0  0
    0.3110   24.2640  -36.1510 C   0  0  0  0  0  0  0  0  0  0  0  0
   -0.7341   23.9308  -36.2325 H   0  0  0  0  0  0  0  0  0  0  0  0
   -0.3110   21.5470  -35.0740 N   0  0  0  0  0  0  0  0  0  0  0  0
   -1.1900   22.1090  -35.1160 H   0  0  0  0  0  0  0  0  0  0  0  0
   -2.8170   21.1080  -33.6330 N   0  0  0  0  0  0  0  0  0  0  0  0
   -2.2160   21.9430  -33.8050 H   0  0  0  0  0  0  0  0  0  0  0  0
  1  2  1  0
  2  3  1  0
  2  4  2  0
  4  5  1  0
  5  6  1  0
  6  7  2  0
  7  8  1  0
  7  9  1  0
  9 10  1  0
  9 11  2  0
 11 12  1  0
 11 13  1  0
 13 14  1  0
 13 15  2  0
 15 16  1  0
  5 17  2  0
 17 18  1  0
 18 19  1  0
 18 20  1  0
 18 21  1  0
 17 22  1  0
 22 23  2  0
 23 24  1  0
 23 25  1  0
 25 26  2  0
 26 27  1  0
 26 28  1  0
 28 29  1  0
 28 30  2  0
 30 31  1  0
 31 32  2  0
 32 33  1  0
 32 34  1  0
 34 35  1  0
 34 36  2  0
 36 37  1  0
 37 38  1  0
 38 39  2  0
 39 40  1  0
 39 41  1  0
 41 42  1  0
 41 43  2  0
 43 44  1  0
 43 45  1  0
 45 46  1  0
 45 47  2  0
 47 48  1  0
 36 49  1  0
 49 50  1  0
 49 51  2  0
 51 52  1  0
 30 53  1  0
 53 54  1  0
 22 55  1  0
 55 56  1  0
 55  4  1  0
 15  6  1  0
 53 25  1  0
 51 31  1  0
 47 38  1  0
M  END
>  <UniqueID>  (28) 
26

>  <SMILES>  (28) 
C=c1[nH]/c(=C\c2ccc(-c3ccc(Oc4ccccc4)cc3)[nH]2)c(C)c1-c1ccccc1

>  <Energy>  (28) 
134.44135653068147

>  <Genealogy>  (28) 
C=c1[nH]/c(=C\c2ccc(-c3ccc(Oc4ccccc4)cc3)[nH]2)c(C)c1-c1ccccc1 (cis-trans isomerization)
C=c1[nH]/c(=C\c2ccc(-c3ccc(Oc4ccccc4)cc3)[nH]2)c(C)c1-c1ccccc1 (3D coordinates assigned)
C=c1[nH]/c(=C\c2ccc(-c3ccc(Oc4ccccc4)cc3)[nH]2)c(C)c1-c1ccccc1 (optimized conformer: 134.44135653068147 kcal/mol)

>  <smiles>  (28) 
C=c1[nH]c(=Cc2ccc(-c3ccc(Oc4ccccc4)cc3)[nH]2)c(C)c1-c1ccccc1

>  <score_type>  (28) 
oracle

>  <origin>  (28) 
adgpu

>  <m_score__min__energy>  (28) 
-10.449999999999999

>  <m_primary>  (28) 
energy

$$$$
28:0
     RDKit          3D

 44 46  0  0  0  0  0  0  0  0999 V2000
   -8.7801   18.8552  -31.8627 H   0  0  0  0  0  0  0  0  0  0  0  0
   -8.3260   19.8530  -31.9530 C   0  0  0  0  0  0  0  0  0  0  0  0
   -9.0420   20.9850  -31.5530 C   0  0  0  0  0  0  0  0  0  0  0  0
  -10.0587   20.8770  -31.1473 H   0  0  0  0  0  0  0  0  0  0  0  0
   -8.4670   22.2550  -31.6680 C   0  0  0  0  0  0  0  0  0  0  0  0
   -9.0341   23.1434  -31.3531 H   0  0  0  0  0  0  0  0  0  0  0  0
   -7.1680   22.4010  -32.1840 C   0  0  0  0  0  0  0  0  0  0  0  0
   -6.5480   23.7730  -32.2640 C   0  0  0  0  0  0  0  0  0  0  0  0
   -7.1071   24.3766  -32.9941 H   0  0  0  0  0  0  0  0  0  0  0  0
   -5.4982   23.6615  -32.5729 H   0  0  0  0  0  0  0  0  0  0  0  0
   -6.5850   24.6160  -30.6420 S   0  0  0  0  0  0  0  0  0  0  0  0
   -4.8910   24.2130  -30.2270 C   0  0  0  0  0  0  0  0  0  0  0  0
   -3.9660   25.1950  -30.0920 N   0  0  0  0  0  0  0  0  0  0  0  0
   -2.6950   24.9030  -29.8180 N   0  0  0  0  0  0  0  0  0  0  0  0
   -2.0070   25.6840  -29.7230 H   0  0  0  0  0  0  0  0  0  0  0  0
   -2.2840   23.6140  -29.6700 C   0  0  0  0  0  0  0  0  0  0  0  0
   -1.0700   23.3800  -29.4230 O   0  0  0  0  0  0  0  0  0  0  0  0
   -3.2380   22.5760  -29.8010 C   0  0  0  0  0  0  0  0  0  0  0  0
   -2.9540   21.3070  -29.6840 N   0  0  0  0  0  0  0  0  0  0  0  0
   -1.6680   20.7290  -29.4100 C   0  0  0  0  0  0  0  0  0  0  0  0
   -0.7170   20.6150  -30.4440 C   0  0  0  0  0  0  0  0  0  0  0  0
   -1.0330   21.1090  -31.8290 C   0  0  0  0  0  0  0  0  0  0  0  0
   -1.6247   22.0339  -31.7623 H   0  0  0  0  0  0  0  0  0  0  0  0
   -0.0961   21.3112  -32.3688 H   0  0  0  0  0  0  0  0  0  0  0  0
   -1.6093   20.3432  -32.3688 H   0  0  0  0  0  0  0  0  0  0  0  0
    0.5410   20.0560  -30.1700 C   0  0  0  0  0  0  0  0  0  0  0  0
    1.2856   19.9672  -30.9748 H   0  0  0  0  0  0  0  0  0  0  0  0
    0.8560   19.6100  -28.8790 C   0  0  0  0  0  0  0  0  0  0  0  0
    2.1910   18.9820  -28.6040 C   0  0  0  0  0  0  0  0  0  0  0  0
    2.3452   18.9095  -27.5173 H   0  0  0  0  0  0  0  0  0  0  0  0
    2.2208   17.9754  -29.0466 H   0  0  0  0  0  0  0  0  0  0  0  0
    2.9855   19.6008  -29.0466 H   0  0  0  0  0  0  0  0  0  0  0  0
   -0.1060   19.6910  -27.8640 C   0  0  0  0  0  0  0  0  0  0  0  0
    0.1330   19.3209  -26.8561 H   0  0  0  0  0  0  0  0  0  0  0  0
   -1.3720   20.2400  -28.1210 C   0  0  0  0  0  0  0  0  0  0  0  0
   -2.3820   20.3430  -27.0120 C   0  0  0  0  0  0  0  0  0  0  0  0
   -1.8673   20.2905  -26.0413 H   0  0  0  0  0  0  0  0  0  0  0  0
   -2.9177   21.3004  -27.0917 H   0  0  0  0  0  0  0  0  0  0  0  0
   -3.0999   19.5134  -27.0917 H   0  0  0  0  0  0  0  0  0  0  0  0
   -4.5210   22.9180  -30.0740 N   0  0  0  0  0  0  0  0  0  0  0  0
   -6.4520   21.2550  -32.5820 C   0  0  0  0  0  0  0  0  0  0  0  0
   -5.1890   21.3580  -33.0670 F   0  0  0  0  0  0  0  0  0  0  0  0
   -7.0350   19.9880  -32.4670 C   0  0  0  0  0  0  0  0  0  0  0  0
   -6.4744   19.0957  -32.7825 H   0  0  0  0  0  0  0  0  0  0  0  0
  1  2  1  0
  2  3  2  0
  3  4  1  0
  3  5  1  0
  5  6  1  0
  5  7  2  0
  7  8  1  0
  8  9  1  0
  8 10  1  0
  8 11  1  0
 11 12  1  0
 12 13  2  0
 13 14  1  0
 14 15  1  0
 14 16  1  0
 16 17  2  0
 16 18  1  0
 18 19  2  0
 19 20  1  0
 20 21  2  0
 21 22  1  0
 22 23  1  0
 22 24  1  0
 22 25  1  0
 21 26  1  0
 26 27  1  0
 26 28  2  0
 28 29  1  0
 29 30  1  0
 29 31  1  0
 29 32  1  0
 28 33  1  0
 33 34  1  0
 33 35  2  0
 35 36  1  0
 36 37  1  0
 36 38  1  0
 36 39  1  0
 18 40  1  0
  7 41  1  0
 41 42  1  0
 41 43  2  0
 43 44  1  0
 43  2  1  0
 40 12  1  0
 35 20  1  0
M  CHG  1  40  -1
M  END
>  <UniqueID>  (29) 
27

>  <SMILES>  (29) 
Cc1cc(C)c(/N=c2/[n-]c(SCc3ccccc3F)n[nH]c2=O)c(C)c1

>  <Energy>  (29) 
54.01249492709616

>  <Genealogy>  (29) 
Cc1cc(C)c(N=c2[n-]c(SCc3ccccc3F)n[nH]c2=O)c(C)c1 (protonated)
Cc1cc(C)c(/N=c2/[n-]c(SCc3ccccc3F)n[nH]c2=O)c(C)c1 (cis-trans isomerization)
Cc1cc(C)c(/N=c2/[n-]c(SCc3ccccc3F)n[nH]c2=O)c(C)c1 (3D coordinates assigned)
Cc1cc(C)c(/N=c2/[n-]c(SCc3ccccc3F)n[nH]c2=O)c(C)c1 (optimized conformer: 54.01249492709616 kcal/mol)

>  <smiles>  (29) 
Cc1cc(C)c(N=c2[nH]c(SCc3ccccc3F)n[nH]c2=O)c(C)c1

>  <score_type>  (29) 
oracle

>  <origin>  (29) 
adgpu

>  <m_score__min__energy>  (29) 
-9.4700000000000006

>  <m_primary>  (29) 
energy

$$$$
29:0
     RDKit          3D

 58 61  0  0  0  0  0  0  0  0999 V2000
   -0.5050   21.3310  -31.3780 C   0  0  0  0  0  0  0  0  0  0  0  0
   -0.2930   21.5200  -29.9830 O   0  0  0  0  0  0  0  0  0  0  0  0
   -1.0250   20.8780  -28.9720 C   0  0  0  0  0  0  0  0  0  0  0  0
   -0.8270   19.5180  -28.6580 C   0  0  0  0  0  0  0  0  0  0  0  0
   -1.5750   18.9110  -27.6450 C   0  0  0  0  0  0  0  0  0  0  0  0
   -2.5220   19.6490  -26.9340 C   0  0  0  0  0  0  0  0  0  0  0  0
   -2.7250   20.9970  -27.2330 C   0  0  0  0  0  0  0  0  0  0  0  0
   -1.9870   21.6150  -28.2530 C   0  0  0  0  0  0  0  0  0  0  0  0
   -2.2160   23.0420  -28.5410 C   0  0  0  0  0  0  0  0  0  0  0  0
   -1.3170   24.0890  -28.2930 C   0  0  0  0  0  0  0  0  0  0  0  0
   -0.0010   24.0730  -27.6060 C   0  0  0  0  0  0  0  0  0  0  0  0
    1.0460   24.1920  -28.2990 O   0  0  0  0  0  0  0  0  0  0  0  0
    0.1490   23.9970  -26.1090 C   0  0  0  0  0  0  0  0  0  0  0  0
   -0.1970   25.3390  -25.4290 C   0  0  0  0  0  0  0  0  0  0  0  0
   -1.7160   25.5370  -25.3190 C   0  0  0  0  0  0  0  0  0  0  0  0
    0.4290   26.5040  -26.2030 C   0  0  0  0  0  0  0  0  0  0  0  0
   -1.8610   25.1940  -28.9290 C   0  0  0  0  0  0  0  0  0  0  0  0
   -1.3210   26.4730  -28.9680 O   0  0  0  0  0  0  0  0  0  0  0  0
   -3.0270   24.7940  -29.5360 C   0  0  0  0  0  0  0  0  0  0  0  0
   -3.8650   25.6030  -30.3000 O   0  0  0  0  0  0  0  0  0  0  0  0
   -3.2460   23.4860  -29.3040 N   0  0  0  0  0  0  0  0  0  0  0  0
   -4.2800   22.6930  -29.9090 C   0  0  0  0  0  0  0  0  0  0  0  0
   -3.9470   21.5560  -30.6580 C   0  0  0  0  0  0  0  0  0  0  0  0
   -4.9490   20.7690  -31.2320 C   0  0  0  0  0  0  0  0  0  0  0  0
   -6.3050   21.1090  -31.0710 C   0  0  0  0  0  0  0  0  0  0  0  0
   -7.3710   20.2710  -31.6780 C   0  0  0  0  0  0  0  0  0  0  0  0
   -8.5610   20.8550  -32.1480 C   0  0  0  0  0  0  0  0  0  0  0  0
   -9.5510   20.0470  -32.7150 C   0  0  0  0  0  0  0  0  0  0  0  0
   -9.3640   18.7040  -32.8110 N   0  0  0  0  0  0  0  0  0  0  0  0
   -8.2260   18.1100  -32.3660 C   0  0  0  0  0  0  0  0  0  0  0  0
   -7.2110   18.8790  -31.7930 C   0  0  0  0  0  0  0  0  0  0  0  0
   -6.6330   22.2570  -30.3280 C   0  0  0  0  0  0  0  0  0  0  0  0
   -5.6280   23.0430  -29.7550 C   0  0  0  0  0  0  0  0  0  0  0  0
   -1.3182   20.6061  -31.5304 H   0  0  0  0  0  0  0  0  0  0  0  0
   -0.7780   22.2909  -31.8407 H   0  0  0  0  0  0  0  0  0  0  0  0
    0.4174   20.9500  -31.8407 H   0  0  0  0  0  0  0  0  0  0  0  0
   -0.0800   18.9314  -29.2130 H   0  0  0  0  0  0  0  0  0  0  0  0
   -1.4166   17.8486  -27.4077 H   0  0  0  0  0  0  0  0  0  0  0  0
   -3.1088   19.1681  -26.1375 H   0  0  0  0  0  0  0  0  0  0  0  0
   -3.4675   21.5776  -26.6659 H   0  0  0  0  0  0  0  0  0  0  0  0
   -0.5249   23.2181  -25.7228 H   0  0  0  0  0  0  0  0  0  0  0  0
    1.1989   23.7597  -25.8823 H   0  0  0  0  0  0  0  0  0  0  0  0
    0.2183   25.3159  -24.4107 H   0  0  0  0  0  0  0  0  0  0  0  0
   -2.0050   25.5747  -24.2583 H   0  0  0  0  0  0  0  0  0  0  0  0
   -1.9994   26.4797  -25.8100 H   0  0  0  0  0  0  0  0  0  0  0  0
   -2.2316   24.6985  -25.8100 H   0  0  0  0  0  0  0  0  0  0  0  0
    0.8267   27.2442  -25.4931 H   0  0  0  0  0  0  0  0  0  0  0  0
    1.2460   26.1269  -26.8357 H   0  0  0  0  0  0  0  0  0  0  0  0
   -0.3363   26.9772  -26.8357 H   0  0  0  0  0  0  0  0  0  0  0  0
   -3.8740   26.6080  -30.1760 H   0  0  0  0  0  0  0  0  0  0  0  0
   -2.8906   21.2815  -30.7948 H   0  0  0  0  0  0  0  0  0  0  0  0
   -4.6756   19.8767  -31.8143 H   0  0  0  0  0  0  0  0  0  0  0  0
   -8.7120   21.9418  -32.0699 H   0  0  0  0  0  0  0  0  0  0  0  0
  -10.4834   20.4990  -33.0843 H   0  0  0  0  0  0  0  0  0  0  0  0
   -8.1039   17.0206  -32.4573 H   0  0  0  0  0  0  0  0  0  0  0  0
   -6.2898   18.3975  -31.4330 H   0  0  0  0  0  0  0  0  0  0  0  0
   -7.6881   22.5390  -30.1965 H   0  0  0  0  0  0  0  0  0  0  0  0
   -5.8974   23.9412  -29.1800 H   0  0  0  0  0  0  0  0  0  0  0  0
  1  2  1  0
  2  3  1  0
  3  4  2  0
  4  5  1  0
  5  6  2  0
  6  7  1  0
  7  8  2  0
  8  9  1  0
  9 10  2  0
 10 11  1  0
 11 12  2  0
 11 13  1  0
 13 14  1  0
 14 15  1  0
 14 16  1  0
 10 17  1  0
 17 18  1  0
 17 19  2  0
 19 20  1  0
 19 21  1  0
 21 22  1  0
 22 23  2  0
 23 24  1  0
 24 25  2  0
 25 26  1  0
 26 27  2  0
 27 28  1  0
 28 29  2  0
 29 30  1  0
 30 31  2  0
 25 32  1  0
 32 33  2  0
  8  3  1  0
 21  9  1  0
 33 22  1  0
 31 26  1  0
  1 34  1  0
  1 35  1  0
  1 36  1  0
  4 37  1  0
  5 38  1  0
  6 39  1  0
  7 40  1  0
 13 41  1  0
 13 42  1  0
 14 43  1  0
 15 44  1  0
 15 45  1  0
 15 46  1  0
 16 47  1  0
 16 48  1  0
 16 49  1  0
 20 50  1  0
 23 51  1  0
 24 52  1  0
 27 53  1  0
 28 54  1  0
 30 55  1  0
 31 56  1  0
 32 57  1  0
 33 58  1  0
M  CHG  1  18  -1
M  END
>  <UniqueID>  (30) 
28

>  <SMILES>  (30) 
COc1ccccc1-c1c(C(=O)CC(C)C)c([O-])c(O)n1-c1ccc(-c2ccncc2)cc1

>  <Energy>  (30) 
103.95748921045202

>  <Genealogy>  (30) 
COc1ccccc1-c1c(C(=O)CC(C)C)c([O-])c(O)n1-c1ccc(-c2ccncc2)cc1 (protonated)
COc1ccccc1-c1c(C(=O)CC(C)C)c([O-])c(O)n1-c1ccc(-c2ccncc2)cc1 (3D coordinates assigned)
COc1ccccc1-c1c(C(=O)CC(C)C)c([O-])c(O)n1-c1ccc(-c2ccncc2)cc1 (optimized conformer: 103.95748921045202 kcal/mol)

>  <smiles>  (30) 
COc1ccccc1-c1c(C(=O)CC(C)C)c(O)c(O)n1-c1ccc(-c2ccncc2)cc1

>  <score_type>  (30) 
oracle

>  <origin>  (30) 
adgpu

>  <m_score__min__energy>  (30) 
-12.85

>  <m_primary>  (30) 
energy

$$$$
30:0
     RDKit          3D

 44 46  0  0  0  0  0  0  0  0999 V2000
   -4.2640   23.8020  -29.2040 O   0  0  0  0  0  0  0  0  0  0  0  0
   -4.5800   24.3000  -30.3020 N   0  0  0  0  0  0  0  0  0  0  0  0
   -3.8590   25.3530  -30.8030 O   0  0  0  0  0  0  0  0  0  0  0  0
   -5.7170   23.8170  -31.0190 C   0  0  0  0  0  0  0  0  0  0  0  0
   -5.7950   23.8300  -32.3660 N   0  0  0  0  0  0  0  0  0  0  0  0
   -7.0100   23.2910  -32.5790 C   0  0  0  0  0  0  0  0  0  0  0  0
   -7.6150   22.9790  -31.4210 N   0  0  0  0  0  0  0  0  0  0  0  0
   -8.9270   22.3600  -31.2560 C   0  0  0  0  0  0  0  0  0  0  0  0
   -8.8090   20.8350  -31.1560 C   0  0  0  0  0  0  0  0  0  0  0  0
   -9.1050   20.1380  -32.5020 C   0  0  0  0  0  0  0  0  0  0  0  0
   -8.0040   19.2200  -32.9020 N   0  0  0  0  0  0  0  0  0  0  0  0
   -6.8740   19.9900  -33.4800 C   0  0  0  0  0  0  0  0  0  0  0  0
   -5.5460   19.1880  -33.5420 C   0  0  0  0  0  0  0  0  0  0  0  0
   -5.7590   17.7520  -33.3240 N   0  0  0  0  0  0  0  0  0  0  0  0
   -4.9580   16.7890  -34.0400 C   0  0  0  0  0  0  0  0  0  0  0  0
   -5.1280   15.4110  -33.8230 C   0  0  0  0  0  0  0  0  0  0  0  0
   -4.3400   14.4830  -34.5120 C   0  0  0  0  0  0  0  0  0  0  0  0
   -3.3700   14.9190  -35.4130 C   0  0  0  0  0  0  0  0  0  0  0  0
   -3.1960   16.2850  -35.6400 C   0  0  0  0  0  0  0  0  0  0  0  0
   -3.9890   17.2180  -34.9620 C   0  0  0  0  0  0  0  0  0  0  0  0
   -6.6060   17.3030  -32.2110 C   0  0  0  0  0  0  0  0  0  0  0  0
   -7.5400   18.4240  -31.7440 C   0  0  0  0  0  0  0  0  0  0  0  0
   -6.8120   23.3040  -30.4270 N   0  0  0  0  0  0  0  0  0  0  0  0
   -7.4507   23.1271  -33.5734 H   0  0  0  0  0  0  0  0  0  0  0  0
   -9.3930   22.7453  -30.3371 H   0  0  0  0  0  0  0  0  0  0  0  0
   -9.5423   22.6060  -32.1340 H   0  0  0  0  0  0  0  0  0  0  0  0
   -7.7866   20.5786  -30.8415 H   0  0  0  0  0  0  0  0  0  0  0  0
   -9.5522   20.4858  -30.4240 H   0  0  0  0  0  0  0  0  0  0  0  0
  -10.0349   19.5583  -32.4060 H   0  0  0  0  0  0  0  0  0  0  0  0
   -9.2015   20.9142  -33.2754 H   0  0  0  0  0  0  0  0  0  0  0  0
   -8.3610   18.5710  -33.6470 H   0  0  0  0  0  0  0  0  0  0  0  0
   -7.1458   20.2931  -34.5019 H   0  0  0  0  0  0  0  0  0  0  0  0
   -6.7002   20.8535  -32.8212 H   0  0  0  0  0  0  0  0  0  0  0  0
   -5.0898   19.3328  -34.5324 H   0  0  0  0  0  0  0  0  0  0  0  0
   -4.8880   19.5587  -32.7422 H   0  0  0  0  0  0  0  0  0  0  0  0
   -5.8855   15.0599  -33.1068 H   0  0  0  0  0  0  0  0  0  0  0  0
   -4.4863   13.4061  -34.3422 H   0  0  0  0  0  0  0  0  0  0  0  0
   -2.7428   14.1878  -35.9441 H   0  0  0  0  0  0  0  0  0  0  0  0
   -2.4333   16.6294  -36.3539 H   0  0  0  0  0  0  0  0  0  0  0  0
   -3.8527   18.2928  -35.1522 H   0  0  0  0  0  0  0  0  0  0  0  0
   -7.2106   16.4458  -32.5423 H   0  0  0  0  0  0  0  0  0  0  0  0
   -5.9568   17.0154  -31.3709 H   0  0  0  0  0  0  0  0  0  0  0  0
   -8.4096   17.9834  -31.2344 H   0  0  0  0  0  0  0  0  0  0  0  0
   -6.9926   19.0820  -31.0531 H   0  0  0  0  0  0  0  0  0  0  0  0
  1  2  2  0
  2  3  1  0
  2  4  1  0
  4  5  1  0
  5  6  2  0
  6  7  1  0
  7  8  1  0
  8  9  1  0
  9 10  1  0
 10 11  1  0
 11 12  1  0
 12 13  1  0
 13 14  1  0
 14 15  1  0
 15 16  2  0
 16 17  1  0
 17 18  2  0
 18 19  1  0
 19 20  2  0
 14 21  1  0
 21 22  1  0
  7 23  1  0
 23  4  2  0
 22 11  1  0
 20 15  1  0
  6 24  1  0
  8 25  1  0
  8 26  1  0
  9 27  1  0
  9 28  1  0
 10 29  1  0
 10 30  1  0
 11 31  1  0
 12 32  1  0
 12 33  1  0
 13 34  1  0
 13 35  1  0
 16 36  1  0
 17 37  1  0
 18 38  1  0
 19 39  1  0
 20 40  1  0
 21 41  1  0
 21 42  1  0
 22 43  1  0
 22 44  1  0
M  CHG  3   2   1   3  -1  11   1
M  END
>  <UniqueID>  (31) 
29

>  <SMILES>  (31) 
O=[N+]([O-])c1ncn(CCC[NH+]2CCN(c3ccccc3)CC2)n1

>  <Energy>  (31) 
86.06423634397689

>  <Genealogy>  (31) 
O=[N+]([O-])c1ncn(CCC[NH+]2CCN(c3ccccc3)CC2)n1 (protonated)
O=[N+]([O-])c1ncn(CCC[NH+]2CCN(c3ccccc3)CC2)n1 (3D coordinates assigned)
O=[N+]([O-])c1ncn(CCC[NH+]2CCN(c3ccccc3)CC2)n1 (nonaromatic ring conformer: 86.06423634397689 kcal/mol)

>  <smiles>  (31) 
O=[N+]([O-])c1ncn(CCCN2CCN(c3ccccc3)CC2)n1

>  <score_type>  (31) 
oracle

>  <origin>  (31) 
adgpu

>  <m_score__min__energy>  (31) 
-8.6999999999999993

>  <m_primary>  (31) 
energy

$$$$
31:0
     RDKit          3D

 41 44  0  0  0  0  0  0  0  0999 V2000
   -0.1364   23.8769  -29.5106 H   0  0  0  0  0  0  0  0  0  0  0  0
   -0.1130   24.5110  -28.6120 C   0  0  0  0  0  0  0  0  0  0  0  0
    1.0060   24.5530  -27.8410 N   0  0  0  0  0  0  0  0  0  0  0  0
    1.0850   25.3340  -26.7280 C   0  0  0  0  0  0  0  0  0  0  0  0
    2.2440   25.3540  -25.9480 O   0  0  0  0  0  0  0  0  0  0  0  0
    2.2140   25.3660  -24.5250 C   0  0  0  0  0  0  0  0  0  0  0  0
    3.1689   24.9840  -24.1349 H   0  0  0  0  0  0  0  0  0  0  0  0
    2.0585   26.3955  -24.1702 H   0  0  0  0  0  0  0  0  0  0  0  0
    1.3914   24.7277  -24.1702 H   0  0  0  0  0  0  0  0  0  0  0  0
   -0.0020   26.1330  -26.3650 C   0  0  0  0  0  0  0  0  0  0  0  0
    0.0545   26.7747  -25.4733 H   0  0  0  0  0  0  0  0  0  0  0  0
   -1.1610   26.1100  -27.1440 C   0  0  0  0  0  0  0  0  0  0  0  0
   -2.0142   26.7503  -26.8757 H   0  0  0  0  0  0  0  0  0  0  0  0
   -1.2410   25.2760  -28.2640 C   0  0  0  0  0  0  0  0  0  0  0  0
   -2.4330   25.2990  -29.0660 N   0  0  0  0  0  0  0  0  0  0  0  0
   -2.9840   24.2910  -29.6760 C   0  0  0  0  0  0  0  0  0  0  0  0
   -2.4990   23.0270  -29.5320 N   0  0  0  0  0  0  0  0  0  0  0  0
   -3.0720   21.9640  -30.1540 C   0  0  0  0  0  0  0  0  0  0  0  0
   -2.4930   20.6660  -29.9650 N   0  0  0  0  0  0  0  0  0  0  0  0
   -1.3820   20.4450  -29.3280 C   0  0  0  0  0  0  0  0  0  0  0  0
   -0.8090   19.2060  -29.1590 C   0  0  0  0  0  0  0  0  0  0  0  0
   -1.1687   18.2322  -29.5228 H   0  0  0  0  0  0  0  0  0  0  0  0
    0.3290   19.4800  -28.4210 C   0  0  0  0  0  0  0  0  0  0  0  0
    1.2930   18.4670  -27.9020 C   0  0  0  0  0  0  0  0  0  0  0  0
    1.2812   18.4794  -26.8021 H   0  0  0  0  0  0  0  0  0  0  0  0
    1.0037   17.4681  -28.2606 H   0  0  0  0  0  0  0  0  0  0  0  0
    2.3050   18.7064  -28.2606 H   0  0  0  0  0  0  0  0  0  0  0  0
    0.4060   20.8000  -28.1500 N   0  0  0  0  0  0  0  0  0  0  0  0
   -0.6380   21.3850  -28.7130 N   0  0  0  0  0  0  0  0  0  0  0  0
   -0.8330   22.4100  -28.6550 H   0  0  0  0  0  0  0  0  0  0  0  0
   -4.2270   22.1610  -30.9380 C   0  0  0  0  0  0  0  0  0  0  0  0
   -4.9140   21.1040  -31.5650 C   0  0  0  0  0  0  0  0  0  0  0  0
   -4.5553   20.0706  -31.4489 H   0  0  0  0  0  0  0  0  0  0  0  0
   -6.0530   21.3660  -32.3360 C   0  0  0  0  0  0  0  0  0  0  0  0
   -6.9000   20.0470  -33.1230 Cl  0  0  0  0  0  0  0  0  0  0  0  0
   -6.5200   22.6770  -32.4760 C   0  0  0  0  0  0  0  0  0  0  0  0
   -7.4123   22.8791  -33.0867 H   0  0  0  0  0  0  0  0  0  0  0  0
   -5.8560   23.7310  -31.8420 C   0  0  0  0  0  0  0  0  0  0  0  0
   -6.2299   24.7599  -31.9499 H   0  0  0  0  0  0  0  0  0  0  0  0
   -4.7160   23.4790  -31.0700 C   0  0  0  0  0  0  0  0  0  0  0  0
   -4.0870   24.5030  -30.4380 N   0  0  0  0  0  0  0  0  0  0  0  0
  1  2  1  0
  2  3  2  0
  3  4  1  0
  4  5  1  0
  5  6  1  0
  6  7  1  0
  6  8  1  0
  6  9  1  0
  4 10  2  0
 10 11  1  0
 10 12  1  0
 12 13  1  0
 12 14  2  0
 14 15  1  0
 15 16  2  0
 16 17  1  0
 17 18  2  0
 18 19  1  0
 19 20  2  0
 20 21  1  0
 21 22  1  0
 21 23  2  0
 23 24  1  0
 24 25  1  0
 24 26  1  0
 24 27  1  0
 23 28  1  0
 28 29  1  0
 29 30  1  0
 18 31  1  0
 31 32  2  0
 32 33  1  0
 32 34  1  0
 34 35  1  0
 34 36  2  0
 36 37  1  0
 36 38  1  0
 38 39  1  0
 38 40  2  0
 40 41  1  0
 14  2  1  0
 41 16  1  0
 29 20  1  0
 40 31  1  0
M  CHG  2  28  -1  41  -1
M  END
>  <UniqueID>  (32) 
30

>  <SMILES>  (32) 
COc1ccc(/N=c2\nc(/N=c3/cc(C)[n-][nH]3)c3cc(Cl)ccc3[n-]2)cn1

>  <Energy>  (32) 
92.20142494799357

>  <Genealogy>  (32) 
COc1ccc(N=c2nc(N=c3cc(C)[n-][nH]3)c3cc(Cl)ccc3[n-]2)cn1 (protonated)
COc1ccc(/N=c2\nc(/N=c3/cc(C)[n-][nH]3)c3cc(Cl)ccc3[n-]2)cn1 (cis-trans isomerization)
COc1ccc(/N=c2\nc(/N=c3/cc(C)[n-][nH]3)c3cc(Cl)ccc3[n-]2)cn1 (3D coordinates assigned)
COc1ccc(/N=c2\nc(/N=c3/cc(C)[n-][nH]3)c3cc(Cl)ccc3[n-]2)cn1 (optimized conformer: 92.20142494799357 kcal/mol)

>  <smiles>  (32) 
COc1ccc(N=c2nc(N=c3cc(C)[nH][nH]3)c3cc(Cl)ccc3[nH]2)cn1

>  <score_type>  (32) 
oracle

>  <origin>  (32) 
adgpu

>  <m_score__min__energy>  (32) 
-9.0700000000000003

>  <m_primary>  (32) 
energy

$$$$
32:0
     RDKit          3D

 38 40  0  0  0  0  0  0  0  0999 V2000
   -5.6590   25.8720  -30.4370 O   0  0  0  0  0  0  0  0  0  0  0  0
   -4.9380   24.8670  -30.6770 C   0  0  0  0  0  0  0  0  0  0  0  0
   -3.5180   24.9480  -30.4860 N   0  0  0  0  0  0  0  0  0  0  0  0
   -2.7910   24.5840  -29.3040 C   0  0  0  0  0  0  0  0  0  0  0  0
   -3.4320   24.1080  -28.1480 C   0  0  0  0  0  0  0  0  0  0  0  0
   -2.6660   23.7470  -27.0370 C   0  0  0  0  0  0  0  0  0  0  0  0
   -1.3090   23.8420  -27.0780 N   0  0  0  0  0  0  0  0  0  0  0  0
   -0.6620   24.2780  -28.1950 C   0  0  0  0  0  0  0  0  0  0  0  0
    0.5960   24.3460  -28.2090 O   0  0  0  0  0  0  0  0  0  0  0  0
   -1.3940   24.6490  -29.3280 C   0  0  0  0  0  0  0  0  0  0  0  0
   -5.5450   23.6170  -31.2150 C   0  0  0  0  0  0  0  0  0  0  0  0
   -6.9470   23.4810  -31.2350 C   0  0  0  0  0  0  0  0  0  0  0  0
   -7.5570   22.3130  -31.7190 C   0  0  0  0  0  0  0  0  0  0  0  0
   -9.0620   22.2070  -31.7740 C   0  0  0  0  0  0  0  0  0  0  0  0
   -9.6170   23.3910  -32.2300 F   0  0  0  0  0  0  0  0  0  0  0  0
   -9.4150   21.1840  -32.6330 F   0  0  0  0  0  0  0  0  0  0  0  0
   -9.5820   21.9430  -30.5180 F   0  0  0  0  0  0  0  0  0  0  0  0
   -6.7540   21.2910  -32.2400 C   0  0  0  0  0  0  0  0  0  0  0  0
   -5.3660   21.4090  -32.2300 C   0  0  0  0  0  0  0  0  0  0  0  0
   -4.7470   22.5550  -31.7050 C   0  0  0  0  0  0  0  0  0  0  0  0
   -3.3480   22.6770  -31.7220 O   0  0  0  0  0  0  0  0  0  0  0  0
   -2.4570   21.9410  -30.9270 C   0  0  0  0  0  0  0  0  0  0  0  0
   -1.0890   21.8380  -31.2310 C   0  0  0  0  0  0  0  0  0  0  0  0
   -0.2480   21.0780  -30.4160 C   0  0  0  0  0  0  0  0  0  0  0  0
   -0.7850   20.4150  -29.3090 C   0  0  0  0  0  0  0  0  0  0  0  0
    0.2460   19.4520  -28.2710 Cl  0  0  0  0  0  0  0  0  0  0  0  0
   -2.1140   20.5100  -29.0400 N   0  0  0  0  0  0  0  0  0  0  0  0
   -2.9510   21.2450  -29.8190 C   0  0  0  0  0  0  0  0  0  0  0  0
   -4.5281   24.0203  -28.1180 H   0  0  0  0  0  0  0  0  0  0  0  0
   -3.1620   23.3842  -26.1247 H   0  0  0  0  0  0  0  0  0  0  0  0
   -0.7580   23.5650  -26.2350 H   0  0  0  0  0  0  0  0  0  0  0  0
   -0.8728   24.9906  -30.2345 H   0  0  0  0  0  0  0  0  0  0  0  0
   -7.5750   24.3048  -30.8647 H   0  0  0  0  0  0  0  0  0  0  0  0
   -7.2224   20.3887  -32.6601 H   0  0  0  0  0  0  0  0  0  0  0  0
   -4.7480   20.5955  -32.6378 H   0  0  0  0  0  0  0  0  0  0  0  0
   -0.6807   22.3562  -32.1112 H   0  0  0  0  0  0  0  0  0  0  0  0
    0.8257   21.0018  -30.6427 H   0  0  0  0  0  0  0  0  0  0  0  0
   -4.0229   21.2927  -29.5766 H   0  0  0  0  0  0  0  0  0  0  0  0
  1  2  2  0
  2  3  1  0
  3  4  1  0
  4  5  1  0
  5  6  2  0
  6  7  1  0
  7  8  1  0
  8  9  2  0
  8 10  1  0
  2 11  1  0
 11 12  2  0
 12 13  1  0
 13 14  1  0
 14 15  1  0
 14 16  1  0
 14 17  1  0
 13 18  2  0
 18 19  1  0
 19 20  2  0
 20 21  1  0
 21 22  1  0
 22 23  2  0
 23 24  1  0
 24 25  2  0
 25 26  1  0
 25 27  1  0
 27 28  2  0
 10  4  2  0
 20 11  1  0
 28 22  1  0
  5 29  1  0
  6 30  1  0
  7 31  1  0
 10 32  1  0
 12 33  1  0
 18 34  1  0
 19 35  1  0
 23 36  1  0
 24 37  1  0
 28 38  1  0
M  CHG  1   3  -1
M  END
>  <UniqueID>  (33) 
31

>  <SMILES>  (33) 
O=C([N-]c1cc[nH]c(=O)c1)c1cc(C(F)(F)F)ccc1Oc1ccc(Cl)nc1

>  <Energy>  (33) 
55.125756620333675

>  <Genealogy>  (33) 
O=C([N-]c1cc[nH]c(=O)c1)c1cc(C(F)(F)F)ccc1Oc1ccc(Cl)nc1 (protonated)
O=C([N-]c1cc[nH]c(=O)c1)c1cc(C(F)(F)F)ccc1Oc1ccc(Cl)nc1 (3D coordinates assigned)
O=C([N-]c1cc[nH]c(=O)c1)c1cc(C(F)(F)F)ccc1Oc1ccc(Cl)nc1 (optimized conformer: 55.125756620333675 kcal/mol)

>  <smiles>  (33) 
O=C(Nc1cc[nH]c(=O)c1)c1cc(C(F)(F)F)ccc1Oc1ccc(Cl)nc1

>  <score_type>  (33) 
oracle

>  <origin>  (33) 
adgpu

>  <m_score__min__energy>  (33) 
-9.2100000000000009

>  <m_primary>  (33) 
energy

$$$$
33:0
     RDKit          3D

 56 59  0  0  0  0  0  0  0  0999 V2000
   -0.3610   15.6960  -32.1110 C   0  0  0  0  0  0  0  0  0  0  0  0
   -1.1650   15.1820  -33.1700 O   0  0  0  0  0  0  0  0  0  0  0  0
   -2.4610   15.6290  -33.4720 C   0  0  0  0  0  0  0  0  0  0  0  0
   -2.6980   16.7080  -34.3440 C   0  0  0  0  0  0  0  0  0  0  0  0
   -4.0030   17.1110  -34.6380 C   0  0  0  0  0  0  0  0  0  0  0  0
   -5.0930   16.4510  -34.0590 C   0  0  0  0  0  0  0  0  0  0  0  0
   -6.4970   16.9490  -34.2790 C   0  0  0  0  0  0  0  0  0  0  0  0
   -6.6090   18.3220  -33.7820 N   0  0  0  0  0  0  0  0  0  0  0  0
   -6.2970   18.6910  -32.4300 C   0  0  0  0  0  0  0  0  0  0  0  0
   -6.0880   17.8030  -31.5610 O   0  0  0  0  0  0  0  0  0  0  0  0
   -6.0730   20.1130  -32.0850 C   0  0  0  0  0  0  0  0  0  0  0  0
   -4.7500   20.5450  -31.9390 C   0  0  0  0  0  0  0  0  0  0  0  0
   -4.4410   21.8670  -31.7870 N   0  0  0  0  0  0  0  0  0  0  0  0
   -3.0250   22.2520  -31.6320 C   0  0  0  0  0  0  0  0  0  0  0  0
   -2.1140   21.2140  -32.2370 C   0  0  0  0  0  0  0  0  0  0  0  0
   -2.0120   21.0840  -33.6330 C   0  0  0  0  0  0  0  0  0  0  0  0
   -1.1900   20.0990  -34.1930 C   0  0  0  0  0  0  0  0  0  0  0  0
   -0.4370   19.2640  -33.3630 C   0  0  0  0  0  0  0  0  0  0  0  0
   -0.5150   19.4010  -31.9740 C   0  0  0  0  0  0  0  0  0  0  0  0
   -1.3580   20.3620  -31.4120 C   0  0  0  0  0  0  0  0  0  0  0  0
   -5.4250   22.8190  -31.7840 C   0  0  0  0  0  0  0  0  0  0  0  0
   -5.1170   24.0430  -31.6870 O   0  0  0  0  0  0  0  0  0  0  0  0
   -6.7780   22.4410  -31.8920 C   0  0  0  0  0  0  0  0  0  0  0  0
   -7.8030   23.4110  -31.8910 C   0  0  0  0  0  0  0  0  0  0  0  0
   -9.1430   23.0250  -31.9720 C   0  0  0  0  0  0  0  0  0  0  0  0
   -9.4770   21.6730  -32.0370 C   0  0  0  0  0  0  0  0  0  0  0  0
   -8.4770   20.6980  -32.0660 C   0  0  0  0  0  0  0  0  0  0  0  0
   -7.1140   21.0680  -32.0220 C   0  0  0  0  0  0  0  0  0  0  0  0
   -4.8640   15.3810  -33.1850 C   0  0  0  0  0  0  0  0  0  0  0  0
   -3.5500   14.9700  -32.8780 C   0  0  0  0  0  0  0  0  0  0  0  0
   -3.2860   13.9260  -31.9770 O   0  0  0  0  0  0  0  0  0  0  0  0
   -4.2730   13.2800  -31.1790 C   0  0  0  0  0  0  0  0  0  0  0  0
   -0.8033   15.4132  -31.1444 H   0  0  0  0  0  0  0  0  0  0  0  0
    0.6541   15.2790  -32.1857 H   0  0  0  0  0  0  0  0  0  0  0  0
   -0.3134   16.7924  -32.1857 H   0  0  0  0  0  0  0  0  0  0  0  0
   -1.8482   17.2387  -34.7981 H   0  0  0  0  0  0  0  0  0  0  0  0
   -4.1746   17.9507  -35.3276 H   0  0  0  0  0  0  0  0  0  0  0  0
   -6.7299   16.9275  -35.3538 H   0  0  0  0  0  0  0  0  0  0  0  0
   -7.2050   16.3035  -33.7386 H   0  0  0  0  0  0  0  0  0  0  0  0
   -6.7930   19.0820  -34.4790 H   0  0  0  0  0  0  0  0  0  0  0  0
   -3.9390   19.8019  -31.9468 H   0  0  0  0  0  0  0  0  0  0  0  0
   -2.8569   23.2155  -32.1353 H   0  0  0  0  0  0  0  0  0  0  0  0
   -2.7993   22.3338  -30.5585 H   0  0  0  0  0  0  0  0  0  0  0  0
   -2.5810   21.7597  -34.2886 H   0  0  0  0  0  0  0  0  0  0  0  0
   -1.1368   19.9823  -35.2855 H   0  0  0  0  0  0  0  0  0  0  0  0
    0.2180   18.4978  -33.8034 H   0  0  0  0  0  0  0  0  0  0  0  0
    0.0883   18.7511  -31.3231 H   0  0  0  0  0  0  0  0  0  0  0  0
   -1.4312   20.4531  -30.3182 H   0  0  0  0  0  0  0  0  0  0  0  0
   -7.5450   24.4783  -31.8260 H   0  0  0  0  0  0  0  0  0  0  0  0
   -9.9351   23.7881  -31.9845 H   0  0  0  0  0  0  0  0  0  0  0  0
  -10.5347   21.3721  -32.0656 H   0  0  0  0  0  0  0  0  0  0  0  0
   -8.7526   19.6346  -32.1235 H   0  0  0  0  0  0  0  0  0  0  0  0
   -5.7181   14.8554  -32.7330 H   0  0  0  0  0  0  0  0  0  0  0  0
   -4.0409   13.4319  -30.1146 H   0  0  0  0  0  0  0  0  0  0  0  0
   -5.2621   13.7061  -31.4030 H   0  0  0  0  0  0  0  0  0  0  0  0
   -4.2784   12.2031  -31.4030 H   0  0  0  0  0  0  0  0  0  0  0  0
  1  2  1  0
  2  3  1  0
  3  4  2  0
  4  5  1  0
  5  6  2  0
  6  7  1  0
  7  8  1  0
  8  9  1  0
  9 10  2  0
  9 11  1  0
 11 12  2  0
 12 13  1  0
 13 14  1  0
 14 15  1  0
 15 16  2  0
 16 17  1  0
 17 18  2  0
 18 19  1  0
 19 20  2  0
 13 21  1  0
 21 22  2  0
 21 23  1  0
 23 24  2  0
 24 25  1  0
 25 26  2  0
 26 27  1  0
 27 28  2  0
  6 29  1  0
 29 30  2  0
 30 31  1  0
 31 32  1  0
 30  3  1  0
 28 11  1  0
 20 15  1  0
 28 23  1  0
  1 33  1  0
  1 34  1  0
  1 35  1  0
  4 36  1  0
  5 37  1  0
  7 38  1  0
  7 39  1  0
  8 40  1  0
 12 41  1  0
 14 42  1  0
 14 43  1  0
 16 44  1  0
 17 45  1  0
 18 46  1  0
 19 47  1  0
 20 48  1  0
 24 49  1  0
 25 50  1  0
 26 51  1  0
 27 52  1  0
 29 53  1  0
 32 54  1  0
 32 55  1  0
 32 56  1  0
M  END
>  <UniqueID>  (34) 
32

>  <SMILES>  (34) 
COc1ccc(CNC(=O)c2cn(Cc3ccccc3)c(=O)c3ccccc23)cc1OC

>  <Energy>  (34) 
73.97487127082356

>  <Genealogy>  (34) 
COc1ccc(CNC(=O)c2cn(Cc3ccccc3)c(=O)c3ccccc23)cc1OC (3D coordinates assigned)
COc1ccc(CNC(=O)c2cn(Cc3ccccc3)c(=O)c3ccccc23)cc1OC (optimized conformer: 73.97487127082356 kcal/mol)

>  <smiles>  (34) 
COc1ccc(CNC(=O)c2cn(Cc3ccccc3)c(=O)c3ccccc23)cc1OC

>  <score_type>  (34) 
oracle

>  <origin>  (34) 
adgpu

>  <m_score__min__energy>  (34) 
-10.31

>  <m_primary>  (34) 
energy

$$$$
34:0
     RDKit          3D

 40 42  0  0  0  0  0  0  0  0999 V2000
   -3.5690   22.5020  -32.9360 H   0  0  0  0  0  0  0  0  0  0  0  0
   -3.8590   21.6370  -33.3750 O   0  0  0  0  0  0  0  0  0  0  0  0
   -5.0590   21.0010  -33.0560 C   0  0  0  0  0  0  0  0  0  0  0  0
   -5.2620   19.6880  -33.4960 C   0  0  0  0  0  0  0  0  0  0  0  0
   -4.4789   19.1780  -34.0762 H   0  0  0  0  0  0  0  0  0  0  0  0
   -6.4540   19.0220  -33.2020 C   0  0  0  0  0  0  0  0  0  0  0  0
   -6.6031   17.9867  -33.5425 H   0  0  0  0  0  0  0  0  0  0  0  0
   -7.4560   19.6680  -32.4770 C   0  0  0  0  0  0  0  0  0  0  0  0
   -8.3977   19.1451  -32.2540 H   0  0  0  0  0  0  0  0  0  0  0  0
   -7.2630   20.9800  -32.0340 C   0  0  0  0  0  0  0  0  0  0  0  0
   -8.0618   21.4916  -31.4770 H   0  0  0  0  0  0  0  0  0  0  0  0
   -6.0530   21.6510  -32.2960 C   0  0  0  0  0  0  0  0  0  0  0  0
   -5.8450   23.0130  -31.8790 N   0  0  0  0  0  0  0  0  0  0  0  0
   -4.8510   23.4690  -31.1710 C   0  0  0  0  0  0  0  0  0  0  0  0
   -3.8130   22.6630  -30.8110 N   0  0  0  0  0  0  0  0  0  0  0  0
   -2.7570   23.1290  -30.0930 C   0  0  0  0  0  0  0  0  0  0  0  0
   -1.7120   22.2670  -29.7320 C   0  0  0  0  0  0  0  0  0  0  0  0
   -1.8290   20.9260  -30.1510 O   0  0  0  0  0  0  0  0  0  0  0  0
   -1.2280   19.7850  -29.5500 C   0  0  0  0  0  0  0  0  0  0  0  0
   -1.2773   19.8786  -28.4551 H   0  0  0  0  0  0  0  0  0  0  0  0
   -1.7657   18.8786  -29.8651 H   0  0  0  0  0  0  0  0  0  0  0  0
   -0.1764   19.7157  -29.8651 H   0  0  0  0  0  0  0  0  0  0  0  0
   -0.6140   22.7720  -28.9790 C   0  0  0  0  0  0  0  0  0  0  0  0
    0.4210   21.8840  -28.6330 O   0  0  0  0  0  0  0  0  0  0  0  0
    0.9020   21.5820  -27.3270 C   0  0  0  0  0  0  0  0  0  0  0  0
    0.2204   22.0100  -26.5772 H   0  0  0  0  0  0  0  0  0  0  0  0
    0.9510   20.4907  -27.1975 H   0  0  0  0  0  0  0  0  0  0  0  0
    1.9061   22.0120  -27.1975 H   0  0  0  0  0  0  0  0  0  0  0  0
   -0.5980   24.1470  -28.6060 C   0  0  0  0  0  0  0  0  0  0  0  0
    0.4780   24.6610  -27.8630 O   0  0  0  0  0  0  0  0  0  0  0  0
    0.3650   25.3360  -26.6140 C   0  0  0  0  0  0  0  0  0  0  0  0
    0.4861   24.6128  -25.7941 H   0  0  0  0  0  0  0  0  0  0  0  0
    1.1466   26.1066  -26.5416 H   0  0  0  0  0  0  0  0  0  0  0  0
   -0.6250   25.8100  -26.5416 H   0  0  0  0  0  0  0  0  0  0  0  0
   -1.6660   24.9830  -28.9850 C   0  0  0  0  0  0  0  0  0  0  0  0
   -1.6554   26.0444  -28.6962 H   0  0  0  0  0  0  0  0  0  0  0  0
   -2.7330   24.4810  -29.7200 C   0  0  0  0  0  0  0  0  0  0  0  0
   -3.7600   25.2930  -30.0860 N   0  0  0  0  0  0  0  0  0  0  0  0
   -4.8140   24.8230  -30.8030 C   0  0  0  0  0  0  0  0  0  0  0  0
   -5.7460   25.6070  -31.1270 O   0  0  0  0  0  0  0  0  0  0  0  0
  1  2  1  0
  2  3  1  0
  3  4  2  0
  4  5  1  0
  4  6  1  0
  6  7  1  0
  6  8  2  0
  8  9  1  0
  8 10  1  0
 10 11  1  0
 10 12  2  0
 12 13  1  0
 13 14  2  0
 14 15  1  0
 15 16  1  0
 16 17  2  0
 17 18  1  0
 18 19  1  0
 19 20  1  0
 19 21  1  0
 19 22  1  0
 17 23  1  0
 23 24  1  0
 24 25  1  0
 25 26  1  0
 25 27  1  0
 25 28  1  0
 23 29  2  0
 29 30  1  0
 30 31  1  0
 31 32  1  0
 31 33  1  0
 31 34  1  0
 29 35  1  0
 35 36  1  0
 35 37  2  0
 37 38  1  0
 38 39  1  0
 39 40  2  0
 12  3  1  0
 39 14  1  0
 37 16  1  0
M  CHG  2  15  -1  38  -1
M  END
>  <UniqueID>  (35) 
33

>  <SMILES>  (35) 
COc1cc2[n-]c(=O)/c(=N/c3ccccc3O)[n-]c2c(OC)c1OC

>  <Energy>  (35) 
58.72999357677514

>  <Genealogy>  (35) 
COc1cc2[n-]c(=O)c(=Nc3ccccc3O)[n-]c2c(OC)c1OC (protonated)
COc1cc2[n-]c(=O)/c(=N/c3ccccc3O)[n-]c2c(OC)c1OC (cis-trans isomerization)
COc1cc2[n-]c(=O)/c(=N/c3ccccc3O)[n-]c2c(OC)c1OC (3D coordinates assigned)
COc1cc2[n-]c(=O)/c(=N/c3ccccc3O)[n-]c2c(OC)c1OC (optimized conformer: 58.72999357677514 kcal/mol)

>  <smiles>  (35) 
COc1cc2[nH]c(=O)c(=Nc3ccccc3O)[nH]c2c(OC)c1OC

>  <score_type>  (35) 
oracle

>  <origin>  (35) 
adgpu

>  <m_score__min__energy>  (35) 
-8.3300000000000001

>  <m_primary>  (35) 
energy

$$$$
35:0
     RDKit          3D

 51 53  0  0  0  0  0  0  0  0999 V2000
    1.1480   27.8160  -22.9800 C   0  0  0  0  0  0  0  0  0  0  0  0
    1.4390   26.6410  -23.9270 C   0  0  0  0  0  0  0  0  0  0  0  0
    0.3140   25.6860  -24.0930 N   0  0  0  0  0  0  0  0  0  0  0  0
    0.7660   24.3740  -24.6220 C   0  0  0  0  0  0  0  0  0  0  0  0
   -0.1170   23.2220  -24.1280 C   0  0  0  0  0  0  0  0  0  0  0  0
   -0.7520   26.2640  -24.8960 C   0  0  0  0  0  0  0  0  0  0  0  0
   -1.2280   27.3920  -24.5840 O   0  0  0  0  0  0  0  0  0  0  0  0
   -1.3180   25.5590  -26.0820 C   0  0  0  0  0  0  0  0  0  0  0  0
   -0.6290   25.4940  -27.3100 C   0  0  0  0  0  0  0  0  0  0  0  0
   -1.1840   24.8240  -28.4030 C   0  0  0  0  0  0  0  0  0  0  0  0
   -2.4370   24.2000  -28.2970 C   0  0  0  0  0  0  0  0  0  0  0  0
   -3.0090   23.5080  -29.4290 N   0  0  0  0  0  0  0  0  0  0  0  0
   -2.2110   22.5660  -30.1780 C   0  0  0  0  0  0  0  0  0  0  0  0
   -2.5270   22.2710  -31.5170 C   0  0  0  0  0  0  0  0  0  0  0  0
   -1.7520   21.3590  -32.2410 C   0  0  0  0  0  0  0  0  0  0  0  0
   -0.6570   20.7360  -31.6370 C   0  0  0  0  0  0  0  0  0  0  0  0
   -0.3350   21.0220  -30.3080 C   0  0  0  0  0  0  0  0  0  0  0  0
   -1.1070   21.9320  -29.5800 C   0  0  0  0  0  0  0  0  0  0  0  0
   -4.3800   23.7590  -29.8100 C   0  0  0  0  0  0  0  0  0  0  0  0
   -5.3070   22.7020  -29.8760 C   0  0  0  0  0  0  0  0  0  0  0  0
   -6.6330   22.9470  -30.2460 C   0  0  0  0  0  0  0  0  0  0  0  0
   -7.0460   24.2460  -30.5520 C   0  0  0  0  0  0  0  0  0  0  0  0
   -6.1350   25.3030  -30.4890 C   0  0  0  0  0  0  0  0  0  0  0  0
   -4.8080   25.0630  -30.1200 C   0  0  0  0  0  0  0  0  0  0  0  0
   -3.1240   24.2570  -27.0750 C   0  0  0  0  0  0  0  0  0  0  0  0
   -2.5700   24.9260  -25.9810 C   0  0  0  0  0  0  0  0  0  0  0  0
    1.2322   27.4760  -21.9372 H   0  0  0  0  0  0  0  0  0  0  0  0
    1.8736   28.6224  -23.1625 H   0  0  0  0  0  0  0  0  0  0  0  0
    0.1300   28.1906  -23.1625 H   0  0  0  0  0  0  0  0  0  0  0  0
    1.6888   27.0518  -24.9164 H   0  0  0  0  0  0  0  0  0  0  0  0
    2.2649   26.0732  -23.4737 H   0  0  0  0  0  0  0  0  0  0  0  0
   -0.0560   25.4970  -23.1340 H   0  0  0  0  0  0  0  0  0  0  0  0
    0.7307   24.4027  -25.7211 H   0  0  0  0  0  0  0  0  0  0  0  0
    1.7901   24.1964  -24.2619 H   0  0  0  0  0  0  0  0  0  0  0  0
   -0.1249   23.2117  -23.0281 H   0  0  0  0  0  0  0  0  0  0  0  0
   -1.1426   23.3603  -24.5008 H   0  0  0  0  0  0  0  0  0  0  0  0
    0.2830   22.2675  -24.5008 H   0  0  0  0  0  0  0  0  0  0  0  0
    0.3551   25.9755  -27.4086 H   0  0  0  0  0  0  0  0  0  0  0  0
   -0.6344   24.7851  -29.3550 H   0  0  0  0  0  0  0  0  0  0  0  0
   -3.3877   22.7599  -31.9968 H   0  0  0  0  0  0  0  0  0  0  0  0
   -2.0050   21.1320  -33.2872 H   0  0  0  0  0  0  0  0  0  0  0  0
   -0.0480   20.0199  -32.2082 H   0  0  0  0  0  0  0  0  0  0  0  0
    0.5272   20.5304  -29.8338 H   0  0  0  0  0  0  0  0  0  0  0  0
   -0.8497   22.1535  -28.5337 H   0  0  0  0  0  0  0  0  0  0  0  0
   -4.9866   21.6776  -29.6352 H   0  0  0  0  0  0  0  0  0  0  0  0
   -7.3518   22.1159  -30.2962 H   0  0  0  0  0  0  0  0  0  0  0  0
   -8.0896   24.4366  -30.8428 H   0  0  0  0  0  0  0  0  0  0  0  0
   -6.4620   26.3253  -30.7300 H   0  0  0  0  0  0  0  0  0  0  0  0
   -4.0943   25.8986  -30.0717 H   0  0  0  0  0  0  0  0  0  0  0  0
   -4.1061   23.7713  -26.9777 H   0  0  0  0  0  0  0  0  0  0  0  0
   -3.1197   24.9582  -25.0287 H   0  0  0  0  0  0  0  0  0  0  0  0
  1  2  1  0
  2  3  1  0
  3  4  1  0
  4  5  1  0
  3  6  1  0
  6  7  2  0
  6  8  1  0
  8  9  2  0
  9 10  1  0
 10 11  2  0
 11 12  1  0
 12 13  1  0
 13 14  2  0
 14 15  1  0
 15 16  2  0
 16 17  1  0
 17 18  2  0
 12 19  1  0
 19 20  2  0
 20 21  1  0
 21 22  2  0
 22 23  1  0
 23 24  2  0
 11 25  1  0
 25 26  2  0
 26  8  1  0
 18 13  1  0
 24 19  1  0
  1 27  1  0
  1 28  1  0
  1 29  1  0
  2 30  1  0
  2 31  1  0
  3 32  1  0
  4 33  1  0
  4 34  1  0
  5 35  1  0
  5 36  1  0
  5 37  1  0
  9 38  1  0
 10 39  1  0
 14 40  1  0
 15 41  1  0
 16 42  1  0
 17 43  1  0
 18 44  1  0
 20 45  1  0
 21 46  1  0
 22 47  1  0
 23 48  1  0
 24 49  1  0
 25 50  1  0
 26 51  1  0
M  CHG  1   3   1
M  END
>  <UniqueID>  (36) 
34

>  <SMILES>  (36) 
CC[NH+](CC)C(=O)c1ccc(N(c2ccccc2)c2ccccc2)cc1

>  <Energy>  (36) 
70.37801762441381

>  <Genealogy>  (36) 
CC[NH+](CC)C(=O)c1ccc(N(c2ccccc2)c2ccccc2)cc1 (protonated)
CC[NH+](CC)C(=O)c1ccc(N(c2ccccc2)c2ccccc2)cc1 (3D coordinates assigned)
CC[NH+](CC)C(=O)c1ccc(N(c2ccccc2)c2ccccc2)cc1 (optimized conformer: 70.37801762441381 kcal/mol)

>  <smiles>  (36) 
CCN(CC)C(=O)c1ccc(N(c2ccccc2)c2ccccc2)cc1

>  <score_type>  (36) 
oracle

>  <origin>  (36) 
adgpu

>  <m_score__min__energy>  (36) 
-7.4400000000000004

>  <m_primary>  (36) 
energy

$$$$
36:0
     RDKit          3D

 33 35  0  0  0  0  0  0  0  0999 V2000
   -4.2130   22.3390  -28.3390 C   0  0  0  0  0  0  0  0  0  0  0  0
   -4.0030   23.7480  -28.6780 N   0  0  0  0  0  0  0  0  0  0  0  0
   -3.0270   24.5360  -27.9620 C   0  0  0  0  0  0  0  0  0  0  0  0
   -3.2540   24.9270  -26.6280 C   0  0  0  0  0  0  0  0  0  0  0  0
   -2.3100   25.6980  -25.9430 C   0  0  0  0  0  0  0  0  0  0  0  0
   -1.1300   26.0900  -26.5780 C   0  0  0  0  0  0  0  0  0  0  0  0
   -0.8930   25.7140  -27.9010 C   0  0  0  0  0  0  0  0  0  0  0  0
   -1.8340   24.9450  -28.5920 C   0  0  0  0  0  0  0  0  0  0  0  0
   -4.9460   24.4540  -29.9630 S   0  0  0  0  0  0  0  0  0  0  0  0
   -6.0120   25.3420  -29.3860 O   0  0  0  0  0  0  0  0  0  0  0  0
   -4.0420   25.2910  -30.8260 O   0  0  0  0  0  0  0  0  0  0  0  0
   -5.7010   23.1950  -30.9360 C   0  0  0  0  0  0  0  0  0  0  0  0
   -4.9610   22.5330  -31.9500 C   0  0  0  0  0  0  0  0  0  0  0  0
   -5.5600   21.5300  -32.7340 C   0  0  0  0  0  0  0  0  0  0  0  0
   -6.8900   21.2170  -32.4730 C   0  0  0  0  0  0  0  0  0  0  0  0
   -7.6710   20.3090  -33.0770 N   0  0  0  0  0  0  0  0  0  0  0  0
   -8.8480   20.4390  -32.4190 C   0  0  0  0  0  0  0  0  0  0  0  0
   -9.8670   19.7500  -32.6860 O   0  0  0  0  0  0  0  0  0  0  0  0
   -8.8200   21.3590  -31.4690 O   0  0  0  0  0  0  0  0  0  0  0  0
   -7.6050   21.8480  -31.4960 C   0  0  0  0  0  0  0  0  0  0  0  0
   -7.0490   22.8460  -30.7010 C   0  0  0  0  0  0  0  0  0  0  0  0
   -4.2302   22.2237  -27.2452 H   0  0  0  0  0  0  0  0  0  0  0  0
   -5.1716   21.9999  -28.7586 H   0  0  0  0  0  0  0  0  0  0  0  0
   -3.3949   21.7351  -28.7586 H   0  0  0  0  0  0  0  0  0  0  0  0
   -4.1817   24.6232  -26.1209 H   0  0  0  0  0  0  0  0  0  0  0  0
   -2.4975   25.9965  -24.9010 H   0  0  0  0  0  0  0  0  0  0  0  0
   -0.3878   26.6946  -26.0361 H   0  0  0  0  0  0  0  0  0  0  0  0
    0.0365   26.0235  -28.4012 H   0  0  0  0  0  0  0  0  0  0  0  0
   -1.6420   24.6566  -29.6360 H   0  0  0  0  0  0  0  0  0  0  0  0
   -3.9099   22.8065  -32.1245 H   0  0  0  0  0  0  0  0  0  0  0  0
   -4.9971   21.0122  -33.5246 H   0  0  0  0  0  0  0  0  0  0  0  0
   -7.4320   19.6620  -33.8610 H   0  0  0  0  0  0  0  0  0  0  0  0
   -7.6385   23.3450  -29.9177 H   0  0  0  0  0  0  0  0  0  0  0  0
  1  2  1  0
  2  3  1  0
  3  4  2  0
  4  5  1  0
  5  6  2  0
  6  7  1  0
  7  8  2  0
  2  9  1  0
  9 10  2  0
  9 11  2  0
  9 12  1  0
 12 13  2  0
 13 14  1  0
 14 15  2  0
 15 16  1  0
 16 17  1  0
 17 18  2  0
 17 19  1  0
 19 20  1  0
 20 21  2  0
  8  3  1  0
 21 12  1  0
 20 15  1  0
  1 22  1  0
  1 23  1  0
  1 24  1  0
  4 25  1  0
  5 26  1  0
  6 27  1  0
  7 28  1  0
  8 29  1  0
 13 30  1  0
 14 31  1  0
 16 32  1  0
 21 33  1  0
M  END
>  <UniqueID>  (37) 
35

>  <SMILES>  (37) 
CN(c1ccccc1)S(=O)(=O)c1ccc2[nH]c(=O)oc2c1

>  <Energy>  (37) 
79.75320434984575

>  <Genealogy>  (37) 
CN(c1ccccc1)S(=O)(=O)c1ccc2[nH]c(=O)oc2c1 (3D coordinates assigned)
CN(c1ccccc1)S(=O)(=O)c1ccc2[nH]c(=O)oc2c1 (optimized conformer: 79.75320434984575 kcal/mol)

>  <smiles>  (37) 
CN(c1ccccc1)S(=O)(=O)c1ccc2[nH]c(=O)oc2c1

>  <score_type>  (37) 
oracle

>  <origin>  (37) 
adgpu

>  <m_score__min__energy>  (37) 
-8.1600000000000001

>  <m_primary>  (37) 
energy

$$$$
37:0
     RDKit          3D

 34 35  0  0  0  0  0  0  0  0999 V2000
   -5.3270   26.2230  -30.5150 O   0  0  0  0  0  0  0  0  0  0  0  0
   -4.8940   25.0420  -30.4450 C   0  0  0  0  0  0  0  0  0  0  0  0
   -3.4820   24.8190  -30.4270 N   0  0  0  0  0  0  0  0  0  0  0  0
   -2.8280   23.5410  -30.4640 C   0  0  0  0  0  0  0  0  0  0  0  0
   -3.2720   22.5250  -31.3290 C   0  0  0  0  0  0  0  0  0  0  0  0
   -2.6180   21.2920  -31.3690 C   0  0  0  0  0  0  0  0  0  0  0  0
   -1.4980   21.0520  -30.5560 C   0  0  0  0  0  0  0  0  0  0  0  0
   -0.8240   19.7800  -30.5940 N   0  0  0  0  0  0  0  0  0  0  0  0
   -0.5360   19.2440  -31.6840 O   0  0  0  0  0  0  0  0  0  0  0  0
   -0.4850   19.1330  -29.4280 O   0  0  0  0  0  0  0  0  0  0  0  0
   -1.0390   22.0760  -29.7110 C   0  0  0  0  0  0  0  0  0  0  0  0
   -1.6890   23.3190  -29.6680 C   0  0  0  0  0  0  0  0  0  0  0  0
   -1.0890   24.5860  -28.5920 S   0  0  0  0  0  0  0  0  0  0  0  0
    0.3610   24.3620  -28.2700 O   0  0  0  0  0  0  0  0  0  0  0  0
   -1.8830   24.5770  -27.3170 O   0  0  0  0  0  0  0  0  0  0  0  0
   -1.2490   26.0800  -29.3460 O   0  0  0  0  0  0  0  0  0  0  0  0
   -5.7830   23.9660  -30.3380 O   0  0  0  0  0  0  0  0  0  0  0  0
   -7.0770   23.9540  -30.9370 C   0  0  0  0  0  0  0  0  0  0  0  0
   -7.3740   22.5980  -31.5160 C   0  0  0  0  0  0  0  0  0  0  0  0
   -8.6220   21.9970  -31.2870 C   0  0  0  0  0  0  0  0  0  0  0  0
   -8.9130   20.7450  -31.8380 C   0  0  0  0  0  0  0  0  0  0  0  0
   -7.9620   20.0870  -32.6210 C   0  0  0  0  0  0  0  0  0  0  0  0
   -6.7190   20.6810  -32.8590 C   0  0  0  0  0  0  0  0  0  0  0  0
   -6.4240   21.9330  -32.3100 C   0  0  0  0  0  0  0  0  0  0  0  0
   -4.1413   22.7030  -31.9791 H   0  0  0  0  0  0  0  0  0  0  0  0
   -2.9827   20.5024  -32.0425 H   0  0  0  0  0  0  0  0  0  0  0  0
   -0.1588   21.9013  -29.0748 H   0  0  0  0  0  0  0  0  0  0  0  0
   -7.8318   24.1957  -30.1742 H   0  0  0  0  0  0  0  0  0  0  0  0
   -7.1034   24.7004  -31.7445 H   0  0  0  0  0  0  0  0  0  0  0  0
   -9.3739   22.5129  -30.6718 H   0  0  0  0  0  0  0  0  0  0  0  0
   -9.8919   20.2780  -31.6545 H   0  0  0  0  0  0  0  0  0  0  0  0
   -8.1911   19.1007  -33.0507 H   0  0  0  0  0  0  0  0  0  0  0  0
   -5.9722   20.1631  -33.4787 H   0  0  0  0  0  0  0  0  0  0  0  0
   -5.4457   22.3985  -32.5002 H   0  0  0  0  0  0  0  0  0  0  0  0
  1  2  2  0
  2  3  1  0
  3  4  1  0
  4  5  2  0
  5  6  1  0
  6  7  2  0
  7  8  1  0
  8  9  2  0
  8 10  1  0
  7 11  1  0
 11 12  2  0
 12 13  1  0
 13 14  2  0
 13 15  2  0
 13 16  1  0
  2 17  1  0
 17 18  1  0
 18 19  1  0
 19 20  2  0
 20 21  1  0
 21 22  2  0
 22 23  1  0
 23 24  2  0
 12  4  1  0
 24 19  1  0
  5 25  1  0
  6 26  1  0
 11 27  1  0
 18 28  1  0
 18 29  1  0
 20 30  1  0
 21 31  1  0
 22 32  1  0
 23 33  1  0
 24 34  1  0
M  CHG  4   3  -1   8   1  10  -1  16  -1
M  END
>  <UniqueID>  (38) 
36

>  <SMILES>  (38) 
O=C([N-]c1ccc([N+](=O)[O-])cc1S(=O)(=O)[O-])OCc1ccccc1

>  <Energy>  (38) 
38.8356404012036

>  <Genealogy>  (38) 
O=C([N-]c1ccc([N+](=O)[O-])cc1S(=O)(=O)[O-])OCc1ccccc1 (protonated)
O=C([N-]c1ccc([N+](=O)[O-])cc1S(=O)(=O)[O-])OCc1ccccc1 (3D coordinates assigned)
O=C([N-]c1ccc([N+](=O)[O-])cc1S(=O)(=O)[O-])OCc1ccccc1 (optimized conformer: 38.8356404012036 kcal/mol)

>  <smiles>  (38) 
O=C(Nc1ccc([N+](=O)[O-])cc1S(=O)(=O)O)OCc1ccccc1

>  <score_type>  (38) 
oracle

>  <origin>  (38) 
adgpu

>  <m_score__min__energy>  (38) 
-12.16

>  <m_primary>  (38) 
energy

$$$$
38:0
     RDKit          3D

 53 55  0  0  0  0  0  0  0  0999 V2000
    0.2460   20.4300  -30.5880 C   0  0  0  0  0  0  0  0  0  0  0  0
   -0.5720   21.1670  -31.4920 O   0  0  0  0  0  0  0  0  0  0  0  0
   -1.7110   20.6550  -32.1320 C   0  0  0  0  0  0  0  0  0  0  0  0
   -2.9010   21.3960  -32.2720 C   0  0  0  0  0  0  0  0  0  0  0  0
   -4.0020   20.8430  -32.9330 C   0  0  0  0  0  0  0  0  0  0  0  0
   -3.9330   19.5460  -33.4650 C   0  0  0  0  0  0  0  0  0  0  0  0
   -5.1340   18.9480  -34.1460 C   0  0  0  0  0  0  0  0  0  0  0  0
   -6.3330   19.7010  -33.7830 N   0  0  0  0  0  0  0  0  0  0  0  0
   -7.3070   19.2280  -32.8380 C   0  0  0  0  0  0  0  0  0  0  0  0
   -7.7100   17.6400  -32.7740 S   0  0  0  0  0  0  0  0  0  0  0  0
   -8.0750   20.1710  -32.0780 N   0  0  0  0  0  0  0  0  0  0  0  0
   -7.5300   21.4350  -31.6790 C   0  0  0  0  0  0  0  0  0  0  0  0
   -7.5990   21.8480  -30.3390 C   0  0  0  0  0  0  0  0  0  0  0  0
   -6.9890   23.0370  -29.9360 C   0  0  0  0  0  0  0  0  0  0  0  0
   -6.2990   23.8260  -30.8680 C   0  0  0  0  0  0  0  0  0  0  0  0
   -5.4120   25.2450  -30.3210 S   0  0  0  0  0  0  0  0  0  0  0  0
   -5.8250   25.5570  -28.9090 O   0  0  0  0  0  0  0  0  0  0  0  0
   -5.7160   26.4280  -31.1960 O   0  0  0  0  0  0  0  0  0  0  0  0
   -3.7070   24.9230  -30.3650 N   0  0  0  0  0  0  0  0  0  0  0  0
   -3.0370   23.9370  -29.5690 C   0  0  0  0  0  0  0  0  0  0  0  0
   -1.6510   23.9750  -29.3390 C   0  0  0  0  0  0  0  0  0  0  0  0
   -1.0250   22.9510  -28.6160 C   0  0  0  0  0  0  0  0  0  0  0  0
   -1.7820   21.8790  -28.1060 C   0  0  0  0  0  0  0  0  0  0  0  0
   -1.2000   20.8090  -27.4130 O   0  0  0  0  0  0  0  0  0  0  0  0
   -1.9290   19.7210  -26.8530 C   0  0  0  0  0  0  0  0  0  0  0  0
   -3.1670   21.8670  -28.3070 C   0  0  0  0  0  0  0  0  0  0  0  0
   -3.7900   22.8880  -29.0300 C   0  0  0  0  0  0  0  0  0  0  0  0
   -6.2690   23.4400  -32.2160 C   0  0  0  0  0  0  0  0  0  0  0  0
   -6.8940   22.2560  -32.6220 C   0  0  0  0  0  0  0  0  0  0  0  0
   -2.7530   18.8000  -33.3120 C   0  0  0  0  0  0  0  0  0  0  0  0
   -1.6510   19.3550  -32.6520 C   0  0  0  0  0  0  0  0  0  0  0  0
   -0.0324   20.6808  -29.5538 H   0  0  0  0  0  0  0  0  0  0  0  0
    0.0998   19.3528  -30.7561 H   0  0  0  0  0  0  0  0  0  0  0  0
    1.3022   20.6873  -30.7561 H   0  0  0  0  0  0  0  0  0  0  0  0
   -2.9642   22.4138  -31.8596 H   0  0  0  0  0  0  0  0  0  0  0  0
   -4.9278   21.4279  -33.0367 H   0  0  0  0  0  0  0  0  0  0  0  0
   -4.9935   18.9879  -35.2363 H   0  0  0  0  0  0  0  0  0  0  0  0
   -5.2505   17.9020  -33.8261 H   0  0  0  0  0  0  0  0  0  0  0  0
   -6.3600   20.7080  -34.0570 H   0  0  0  0  0  0  0  0  0  0  0  0
   -9.0710   19.9550  -31.8520 H   0  0  0  0  0  0  0  0  0  0  0  0
   -8.1363   21.2317  -29.6032 H   0  0  0  0  0  0  0  0  0  0  0  0
   -7.0496   23.3560  -28.8850 H   0  0  0  0  0  0  0  0  0  0  0  0
   -1.0545   24.8131  -29.7287 H   0  0  0  0  0  0  0  0  0  0  0  0
    0.0613   22.9847  -28.4463 H   0  0  0  0  0  0  0  0  0  0  0  0
   -1.8897   19.7797  -25.7553 H   0  0  0  0  0  0  0  0  0  0  0  0
   -2.9763   19.7715  -27.1856 H   0  0  0  0  0  0  0  0  0  0  0  0
   -1.4840   18.7716  -27.1856 H   0  0  0  0  0  0  0  0  0  0  0  0
   -3.7708   21.0464  -27.8921 H   0  0  0  0  0  0  0  0  0  0  0  0
   -4.8800   22.8668  -29.1764 H   0  0  0  0  0  0  0  0  0  0  0  0
   -5.7529   24.0696  -32.9557 H   0  0  0  0  0  0  0  0  0  0  0  0
   -6.8867   21.9681  -33.6836 H   0  0  0  0  0  0  0  0  0  0  0  0
   -2.6949   17.7769  -33.7120 H   0  0  0  0  0  0  0  0  0  0  0  0
   -0.7291   18.7654  -32.5403 H   0  0  0  0  0  0  0  0  0  0  0  0
  1  2  1  0
  2  3  1  0
  3  4  2  0
  4  5  1  0
  5  6  2  0
  6  7  1  0
  7  8  1  0
  8  9  1  0
  9 10  2  0
  9 11  1  0
 11 12  1  0
 12 13  2  0
 13 14  1  0
 14 15  2  0
 15 16  1  0
 16 17  2  0
 16 18  2  0
 16 19  1  0
 19 20  1  0
 20 21  2  0
 21 22  1  0
 22 23  2  0
 23 24  1  0
 24 25  1  0
 23 26  1  0
 26 27  2  0
 15 28  1  0
 28 29  2  0
  6 30  1  0
 30 31  2  0
 31  3  1  0
 29 12  1  0
 27 20  1  0
  1 32  1  0
  1 33  1  0
  1 34  1  0
  4 35  1  0
  5 36  1  0
  7 37  1  0
  7 38  1  0
  8 39  1  0
 11 40  1  0
 13 41  1  0
 14 42  1  0
 21 43  1  0
 22 44  1  0
 25 45  1  0
 25 46  1  0
 25 47  1  0
 26 48  1  0
 27 49  1  0
 28 50  1  0
 29 51  1  0
 30 52  1  0
 31 53  1  0
M  CHG  1  19  -1
M  END
>  <UniqueID>  (39) 
37

>  <SMILES>  (39) 
COc1ccc(CNC(=S)Nc2ccc(S(=O)(=O)[N-]c3ccc(OC)cc3)cc2)cc1

>  <Energy>  (39) 
55.79902811493667

>  <Genealogy>  (39) 
COc1ccc(CNC(=S)Nc2ccc(S(=O)(=O)[N-]c3ccc(OC)cc3)cc2)cc1 (protonated)
COc1ccc(CNC(=S)Nc2ccc(S(=O)(=O)[N-]c3ccc(OC)cc3)cc2)cc1 (3D coordinates assigned)
COc1ccc(CNC(=S)Nc2ccc(S(=O)(=O)[N-]c3ccc(OC)cc3)cc2)cc1 (optimized conformer: 55.79902811493667 kcal/mol)

>  <smiles>  (39) 
COc1ccc(CNC(=S)Nc2ccc(S(=O)(=O)Nc3ccc(OC)cc3)cc2)cc1

>  <score_type>  (39) 
oracle

>  <origin>  (39) 
adgpu

>  <m_score__min__energy>  (39) 
-10.31

>  <m_primary>  (39) 
energy

$$$$
39:0
     RDKit          3D

 51 54  0  0  0  0  0  0  0  0999 V2000
   -3.9380   24.8910  -30.6110 O   0  0  0  0  0  0  0  0  0  0  0  0
   -3.6060   23.6830  -30.4870 C   0  0  0  0  0  0  0  0  0  0  0  0
   -2.4730   23.3450  -29.6730 N   0  0  0  0  0  0  0  0  0  0  0  0
   -1.9730   24.1680  -28.6060 C   0  0  0  0  0  0  0  0  0  0  0  0
   -2.7890   24.5490  -27.5270 C   0  0  0  0  0  0  0  0  0  0  0  0
   -2.2740   25.3360  -26.4930 C   0  0  0  0  0  0  0  0  0  0  0  0
   -0.9290   25.7420  -26.5060 C   0  0  0  0  0  0  0  0  0  0  0  0
   -0.3860   26.5760  -25.4050 C   0  0  0  0  0  0  0  0  0  0  0  0
    0.4160   27.6980  -25.6830 C   0  0  0  0  0  0  0  0  0  0  0  0
    0.9350   28.4760  -24.6420 C   0  0  0  0  0  0  0  0  0  0  0  0
    0.6540   28.1430  -23.3160 C   0  0  0  0  0  0  0  0  0  0  0  0
   -0.1430   27.0330  -23.0280 C   0  0  0  0  0  0  0  0  0  0  0  0
   -0.6600   26.2500  -24.0640 C   0  0  0  0  0  0  0  0  0  0  0  0
   -0.1080   25.3380  -27.5710 C   0  0  0  0  0  0  0  0  0  0  0  0
   -0.6260   24.5570  -28.6080 C   0  0  0  0  0  0  0  0  0  0  0  0
   -4.3650   22.6390  -31.2180 C   0  0  0  0  0  0  0  0  0  0  0  0
   -5.7590   22.7310  -31.3680 C   0  0  0  0  0  0  0  0  0  0  0  0
   -6.4650   21.7480  -32.0620 C   0  0  0  0  0  0  0  0  0  0  0  0
   -5.7950   20.6590  -32.6390 C   0  0  0  0  0  0  0  0  0  0  0  0
   -6.5570   19.6350  -33.3020 N   0  0  0  0  0  0  0  0  0  0  0  0
   -7.6890   18.9830  -32.6400 C   0  0  0  0  0  0  0  0  0  0  0  0
   -7.4670   17.4660  -32.6650 C   0  0  0  0  0  0  0  0  0  0  0  0
   -7.2180   17.0100  -33.9840 O   0  0  0  0  0  0  0  0  0  0  0  0
   -6.0080   17.5680  -34.4670 C   0  0  0  0  0  0  0  0  0  0  0  0
   -6.1240   19.0910  -34.5870 C   0  0  0  0  0  0  0  0  0  0  0  0
   -4.3870   20.5650  -32.5220 C   0  0  0  0  0  0  0  0  0  0  0  0
   -3.6560   19.5110  -33.1710 N   0  0  0  0  0  0  0  0  0  0  0  0
   -3.6840   18.3520  -32.7100 O   0  0  0  0  0  0  0  0  0  0  0  0
   -2.7910   19.7960  -34.2020 O   0  0  0  0  0  0  0  0  0  0  0  0
   -3.6900   21.5520  -31.8050 C   0  0  0  0  0  0  0  0  0  0  0  0
   -1.9190   22.5010  -29.9330 H   0  0  0  0  0  0  0  0  0  0  0  0
   -3.8400   24.2257  -27.4960 H   0  0  0  0  0  0  0  0  0  0  0  0
   -2.9274   25.6401  -25.6619 H   0  0  0  0  0  0  0  0  0  0  0  0
    0.6368   27.9658  -26.7268 H   0  0  0  0  0  0  0  0  0  0  0  0
    1.5640   29.3495  -24.8686 H   0  0  0  0  0  0  0  0  0  0  0  0
    1.0605   28.7552  -22.4975 H   0  0  0  0  0  0  0  0  0  0  0  0
   -0.3647   26.7740  -21.9822 H   0  0  0  0  0  0  0  0  0  0  0  0
   -1.2840   25.3749  -23.8298 H   0  0  0  0  0  0  0  0  0  0  0  0
    0.9501   25.6382  -27.5894 H   0  0  0  0  0  0  0  0  0  0  0  0
    0.0298   24.2444  -29.4340 H   0  0  0  0  0  0  0  0  0  0  0  0
   -6.2986   23.5858  -30.9343 H   0  0  0  0  0  0  0  0  0  0  0  0
   -7.5579   21.8277  -32.1577 H   0  0  0  0  0  0  0  0  0  0  0  0
   -7.7582   19.3297  -31.5984 H   0  0  0  0  0  0  0  0  0  0  0  0
   -8.6236   19.2333  -33.1633 H   0  0  0  0  0  0  0  0  0  0  0  0
   -6.6036   17.2184  -32.0299 H   0  0  0  0  0  0  0  0  0  0  0  0
   -8.3759   16.9729  -32.2898 H   0  0  0  0  0  0  0  0  0  0  0  0
   -5.1933   17.3217  -33.7702 H   0  0  0  0  0  0  0  0  0  0  0  0
   -5.7982   17.1497  -35.4625 H   0  0  0  0  0  0  0  0  0  0  0  0
   -5.1459   19.5157  -34.8571 H   0  0  0  0  0  0  0  0  0  0  0  0
   -6.8558   19.3489  -35.3667 H   0  0  0  0  0  0  0  0  0  0  0  0
   -2.5978   21.4740  -31.7005 H   0  0  0  0  0  0  0  0  0  0  0  0
  1  2  2  0
  2  3  1  0
  3  4  1  0
  4  5  2  0
  5  6  1  0
  6  7  2  0
  7  8  1  0
  8  9  2  0
  9 10  1  0
 10 11  2  0
 11 12  1  0
 12 13  2  0
  7 14  1  0
 14 15  2  0
  2 16  1  0
 16 17  2  0
 17 18  1  0
 18 19  2  0
 19 20  1  0
 20 21  1  0
 21 22  1  0
 22 23  1  0
 23 24  1  0
 24 25  1  0
 19 26  1  0
 26 27  1  0
 27 28  2  0
 27 29  1  0
 26 30  2  0
 15  4  1  0
 30 16  1  0
 13  8  1  0
 25 20  1  0
  3 31  1  0
  5 32  1  0
  6 33  1  0
  9 34  1  0
 10 35  1  0
 11 36  1  0
 12 37  1  0
 13 38  1  0
 14 39  1  0
 15 40  1  0
 17 41  1  0
 18 42  1  0
 21 43  1  0
 21 44  1  0
 22 45  1  0
 22 46  1  0
 24 47  1  0
 24 48  1  0
 25 49  1  0
 25 50  1  0
 30 51  1  0
M  CHG  2  27   1  29  -1
M  END
>  <UniqueID>  (40) 
38

>  <SMILES>  (40) 
O=C(Nc1ccc(-c2ccccc2)cc1)c1ccc(N2CCOCC2)c([N+](=O)[O-])c1

>  <Energy>  (40) 
76.86036939043878

>  <Genealogy>  (40) 
O=C(Nc1ccc(-c2ccccc2)cc1)c1ccc(N2CCOCC2)c([N+](=O)[O-])c1 (3D coordinates assigned)
O=C(Nc1ccc(-c2ccccc2)cc1)c1ccc(N2CCOCC2)c([N+](=O)[O-])c1 (nonaromatic ring conformer: 76.86036939043878 kcal/mol)

>  <smiles>  (40) 
O=C(Nc1ccc(-c2ccccc2)cc1)c1ccc(N2CCOCC2)c([N+](=O)[O-])c1

>  <score_type>  (40) 
oracle

>  <origin>  (40) 
adgpu

>  <m_score__min__energy>  (40) 
-9.2400000000000002

>  <m_primary>  (40) 
energy

$$$$
40:0
     RDKit          3D

 43 45  0  0  0  0  0  0  0  0999 V2000
   -6.8630   16.7060  -33.0860 C   0  0  0  0  0  0  0  0  0  0  0  0
   -5.6670   17.5050  -33.5110 C   0  0  0  0  0  0  0  0  0  0  0  0
   -4.7720   16.9900  -34.4620 C   0  0  0  0  0  0  0  0  0  0  0  0
   -3.6280   17.7110  -34.8120 C   0  0  0  0  0  0  0  0  0  0  0  0
   -3.3580   18.9390  -34.2040 C   0  0  0  0  0  0  0  0  0  0  0  0
   -4.2380   19.4580  -33.2440 C   0  0  0  0  0  0  0  0  0  0  0  0
   -3.9010   20.9940  -32.4510 S   0  0  0  0  0  0  0  0  0  0  0  0
   -2.6350   21.5840  -33.0050 O   0  0  0  0  0  0  0  0  0  0  0  0
   -3.7260   20.7730  -30.9760 O   0  0  0  0  0  0  0  0  0  0  0  0
   -5.2150   22.0930  -32.7030 N   0  0  0  0  0  0  0  0  0  0  0  0
   -6.5110   21.7940  -32.1850 C   0  0  0  0  0  0  0  0  0  0  0  0
   -7.3210   20.8780  -32.8680 C   0  0  0  0  0  0  0  0  0  0  0  0
   -8.5750   20.5310  -32.3620 C   0  0  0  0  0  0  0  0  0  0  0  0
   -9.0290   21.0990  -31.1720 C   0  0  0  0  0  0  0  0  0  0  0  0
   -8.2330   22.0190  -30.4870 C   0  0  0  0  0  0  0  0  0  0  0  0
   -6.9650   22.3770  -30.9810 C   0  0  0  0  0  0  0  0  0  0  0  0
   -6.1660   23.3430  -30.2690 N   0  0  0  0  0  0  0  0  0  0  0  0
   -6.5360   24.7630  -30.2470 C   0  0  0  0  0  0  0  0  0  0  0  0
   -5.3700   25.6260  -30.7810 C   0  0  0  0  0  0  0  0  0  0  0  0
   -4.1240   24.9460  -30.8230 O   0  0  0  0  0  0  0  0  0  0  0  0
   -3.9350   24.1710  -29.6560 C   0  0  0  0  0  0  0  0  0  0  0  0
   -4.8740   22.9600  -29.6870 C   0  0  0  0  0  0  0  0  0  0  0  0
   -5.3900   18.7360  -32.8990 C   0  0  0  0  0  0  0  0  0  0  0  0
   -6.9110   16.6739  -31.9875 H   0  0  0  0  0  0  0  0  0  0  0  0
   -7.7765   17.1759  -33.4794 H   0  0  0  0  0  0  0  0  0  0  0  0
   -6.7787   15.6822  -33.4794 H   0  0  0  0  0  0  0  0  0  0  0  0
   -4.9721   16.0162  -34.9328 H   0  0  0  0  0  0  0  0  0  0  0  0
   -2.9376   17.3104  -35.5689 H   0  0  0  0  0  0  0  0  0  0  0  0
   -2.4528   19.5002  -34.4790 H   0  0  0  0  0  0  0  0  0  0  0  0
   -5.1280   22.8080  -33.4580 H   0  0  0  0  0  0  0  0  0  0  0  0
   -6.9672   20.4296  -33.8081 H   0  0  0  0  0  0  0  0  0  0  0  0
   -9.2053   19.8092  -32.9022 H   0  0  0  0  0  0  0  0  0  0  0  0
  -10.0157   20.8218  -30.7725 H   0  0  0  0  0  0  0  0  0  0  0  0
   -8.6005   22.4681  -29.5525 H   0  0  0  0  0  0  0  0  0  0  0  0
   -7.4222   24.9176  -30.8800 H   0  0  0  0  0  0  0  0  0  0  0  0
   -6.7581   25.0604  -29.2115 H   0  0  0  0  0  0  0  0  0  0  0  0
   -5.6203   25.9539  -31.8007 H   0  0  0  0  0  0  0  0  0  0  0  0
   -5.2509   26.4687  -30.0841 H   0  0  0  0  0  0  0  0  0  0  0  0
   -2.8919   23.8247  -29.6112 H   0  0  0  0  0  0  0  0  0  0  0  0
   -4.1573   24.7837  -28.7699 H   0  0  0  0  0  0  0  0  0  0  0  0
   -4.4216   22.1635  -30.2960 H   0  0  0  0  0  0  0  0  0  0  0  0
   -5.0327   22.5990  -28.6601 H   0  0  0  0  0  0  0  0  0  0  0  0
   -6.0808   19.1381  -32.1433 H   0  0  0  0  0  0  0  0  0  0  0  0
  1  2  1  0
  2  3  2  0
  3  4  1  0
  4  5  2  0
  5  6  1  0
  6  7  1  0
  7  8  2  0
  7  9  2  0
  7 10  1  0
 10 11  1  0
 11 12  2  0
 12 13  1  0
 13 14  2  0
 14 15  1  0
 15 16  2  0
 16 17  1  0
 17 18  1  0
 18 19  1  0
 19 20  1  0
 20 21  1  0
 21 22  1  0
  6 23  2  0
 23  2  1  0
 16 11  1  0
 22 17  1  0
  1 24  1  0
  1 25  1  0
  1 26  1  0
  3 27  1  0
  4 28  1  0
  5 29  1  0
 10 30  1  0
 12 31  1  0
 13 32  1  0
 14 33  1  0
 15 34  1  0
 18 35  1  0
 18 36  1  0
 19 37  1  0
 19 38  1  0
 21 39  1  0
 21 40  1  0
 22 41  1  0
 22 42  1  0
 23 43  1  0
M  END
>  <UniqueID>  (41) 
39

>  <SMILES>  (41) 
Cc1cccc(S(=O)(=O)Nc2ccccc2N2CCOCC2)c1

>  <Energy>  (41) 
60.12686626607759

>  <Genealogy>  (41) 
Cc1cccc(S(=O)(=O)Nc2ccccc2N2CCOCC2)c1 (3D coordinates assigned)
Cc1cccc(S(=O)(=O)Nc2ccccc2N2CCOCC2)c1 (nonaromatic ring conformer: 60.12686626607759 kcal/mol)

>  <smiles>  (41) 
Cc1cccc(S(=O)(=O)Nc2ccccc2N2CCOCC2)c1

>  <score_type>  (41) 
oracle

>  <origin>  (41) 
adgpu

>  <m_score__min__energy>  (41) 
-8.9100000000000001

>  <m_primary>  (41) 
energy

$$$$
41:0
     RDKit          3D

 44 47  0  0  0  0  0  0  0  0999 V2000
   -6.0094   24.8718  -31.2638 H   0  0  0  0  0  0  0  0  0  0  0  0
   -5.0450   24.3780  -31.0740 C   0  0  0  0  0  0  0  0  0  0  0  0
   -4.6500   23.3410  -31.8520 N   0  0  0  0  0  0  0  0  0  0  0  0
   -3.4580   22.7170  -31.6390 C   0  0  0  0  0  0  0  0  0  0  0  0
   -3.0740   21.7290  -32.3920 N   0  0  0  0  0  0  0  0  0  0  0  0
   -3.8340   21.1940  -33.5210 C   0  0  0  0  0  0  0  0  0  0  0  0
   -4.0986   22.0170  -34.2012 H   0  0  0  0  0  0  0  0  0  0  0  0
   -3.2149   20.4513  -34.0455 H   0  0  0  0  0  0  0  0  0  0  0  0
   -5.0940   20.5240  -33.0410 C   0  0  0  0  0  0  0  0  0  0  0  0
   -6.2670   21.2690  -32.8330 C   0  0  0  0  0  0  0  0  0  0  0  0
   -6.2640   22.3553  -33.0060 H   0  0  0  0  0  0  0  0  0  0  0  0
   -7.4380   20.6350  -32.4070 C   0  0  0  0  0  0  0  0  0  0  0  0
   -8.3527   21.2239  -32.2438 H   0  0  0  0  0  0  0  0  0  0  0  0
   -7.4490   19.2540  -32.1880 C   0  0  0  0  0  0  0  0  0  0  0  0
   -9.0500   18.3900  -31.6080 Br  0  0  0  0  0  0  0  0  0  0  0  0
   -6.2850   18.5060  -32.3960 C   0  0  0  0  0  0  0  0  0  0  0  0
   -6.2923   17.4196  -32.2240 H   0  0  0  0  0  0  0  0  0  0  0  0
   -5.1130   19.1370  -32.8220 C   0  0  0  0  0  0  0  0  0  0  0  0
   -4.2010   18.5443  -32.9865 H   0  0  0  0  0  0  0  0  0  0  0  0
   -2.6550   23.1320  -30.6250 N   0  0  0  0  0  0  0  0  0  0  0  0
   -3.0170   24.1540  -29.8040 C   0  0  0  0  0  0  0  0  0  0  0  0
   -2.0900   24.5800  -28.7380 C   0  0  0  0  0  0  0  0  0  0  0  0
   -1.7490   25.8680  -28.5550 N   0  0  0  0  0  0  0  0  0  0  0  0
   -0.9690   25.8440  -27.4560 C   0  0  0  0  0  0  0  0  0  0  0  0
   -0.2330   27.3150  -26.7530 S   0  0  0  0  0  0  0  0  0  0  0  0
   -1.1850   27.1910  -25.2090 C   0  0  0  0  0  0  0  0  0  0  0  0
   -0.5036   27.2797  -24.3500 H   0  0  0  0  0  0  0  0  0  0  0  0
   -1.9297   27.9997  -25.1714 H   0  0  0  0  0  0  0  0  0  0  0  0
   -1.6977   26.2185  -25.1714 H   0  0  0  0  0  0  0  0  0  0  0  0
   -0.7900   24.6150  -26.9330 N   0  0  0  0  0  0  0  0  0  0  0  0
   -1.4930   23.8090  -27.7500 C   0  0  0  0  0  0  0  0  0  0  0  0
   -1.4940   22.3370  -27.6100 C   0  0  0  0  0  0  0  0  0  0  0  0
   -2.7130   21.6510  -27.4900 C   0  0  0  0  0  0  0  0  0  0  0  0
   -3.6605   22.2092  -27.5171 H   0  0  0  0  0  0  0  0  0  0  0  0
   -2.7280   20.2600  -27.3360 C   0  0  0  0  0  0  0  0  0  0  0  0
   -3.6864   19.7266  -27.2535 H   0  0  0  0  0  0  0  0  0  0  0  0
   -1.5260   19.5480  -27.2870 C   0  0  0  0  0  0  0  0  0  0  0  0
   -1.5430   18.2010  -27.1370 F   0  0  0  0  0  0  0  0  0  0  0  0
   -0.3080   20.2260  -27.3820 C   0  0  0  0  0  0  0  0  0  0  0  0
    0.6376   19.6659  -27.3364 H   0  0  0  0  0  0  0  0  0  0  0  0
   -0.2900   21.6160  -27.5350 C   0  0  0  0  0  0  0  0  0  0  0  0
    0.6711   22.1475  -27.5969 H   0  0  0  0  0  0  0  0  0  0  0  0
   -4.2290   24.8190  -30.0330 C   0  0  0  0  0  0  0  0  0  0  0  0
   -4.5301   25.6705  -29.4051 H   0  0  0  0  0  0  0  0  0  0  0  0
  1  2  1  0
  2  3  1  0
  3  4  1  0
  4  5  2  0
  5  6  1  0
  6  7  1  0
  6  8  1  0
  6  9  1  0
  9 10  2  0
 10 11  1  0
 10 12  1  0
 12 13  1  0
 12 14  2  0
 14 15  1  0
 14 16  1  0
 16 17  1  0
 16 18  2  0
 18 19  1  0
  4 20  1  0
 20 21  2  0
 21 22  1  0
 22 23  1  0
 23 24  2  0
 24 25  1  0
 25 26  1  0
 26 27  1  0
 26 28  1  0
 26 29  1  0
 24 30  1  0
 30 31  1  0
 31 32  1  0
 32 33  2  0
 33 34  1  0
 33 35  1  0
 35 36  1  0
 35 37  2  0
 37 38  1  0
 37 39  1  0
 39 40  1  0
 39 41  2  0
 41 42  1  0
 21 43  1  0
 43 44  1  0
 43  2  2  0
 18  9  1  0
 31 22  2  0
 41 32  1  0
M  CHG  2   3  -1  30  -1
M  END
>  <UniqueID>  (42) 
40

>  <SMILES>  (42) 
CSc1nc(-c2cc[n-]/c(=N\Cc3ccc(Br)cc3)n2)c(-c2ccc(F)cc2)[n-]1

>  <Energy>  (42) 
79.78440599519988

>  <Genealogy>  (42) 
CSc1nc(-c2cc[n-]c(=NCc3ccc(Br)cc3)n2)c(-c2ccc(F)cc2)[n-]1 (protonated)
CSc1nc(-c2cc[n-]/c(=N\Cc3ccc(Br)cc3)n2)c(-c2ccc(F)cc2)[n-]1 (cis-trans isomerization)
CSc1nc(-c2cc[n-]/c(=N\Cc3ccc(Br)cc3)n2)c(-c2ccc(F)cc2)[n-]1 (3D coordinates assigned)
CSc1nc(-c2cc[n-]/c(=N\Cc3ccc(Br)cc3)n2)c(-c2ccc(F)cc2)[n-]1 (optimized conformer: 79.78440599519988 kcal/mol)

>  <smiles>  (42) 
CSc1nc(-c2cc[nH]c(=NCc3ccc(Br)cc3)n2)c(-c2ccc(F)cc2)[nH]1

>  <score_type>  (42) 
oracle

>  <origin>  (42) 
adgpu

>  <m_score__min__energy>  (42) 
-11.4

>  <m_primary>  (42) 
energy

$$$$
42:0
     RDKit          3D

 43 45  0  0  0  0  0  0  0  0999 V2000
    1.2820   14.6720  -26.8920 C   0  0  0  0  0  0  0  0  0  0  0  0
    0.6360   15.9520  -27.1540 N   0  0  0  0  0  0  0  0  0  0  0  0
    0.9730   16.7450  -28.3030 C   0  0  0  0  0  0  0  0  0  0  0  0
    1.8500   16.3310  -29.1100 O   0  0  0  0  0  0  0  0  0  0  0  0
    0.3020   18.0400  -28.5460 C   0  0  0  0  0  0  0  0  0  0  0  0
   -0.0860   18.8670  -27.4790 C   0  0  0  0  0  0  0  0  0  0  0  0
   -0.7240   20.0830  -27.7460 C   0  0  0  0  0  0  0  0  0  0  0  0
   -1.2370   21.1450  -26.3950 S   0  0  0  0  0  0  0  0  0  0  0  0
   -1.9130   22.3810  -27.5030 C   0  0  0  0  0  0  0  0  0  0  0  0
   -3.2630   22.3320  -27.8680 C   0  0  0  0  0  0  0  0  0  0  0  0
   -3.7890   23.2920  -28.7380 C   0  0  0  0  0  0  0  0  0  0  0  0
   -2.9700   24.3020  -29.2600 C   0  0  0  0  0  0  0  0  0  0  0  0
   -3.5570   25.2770  -30.1340 N   0  0  0  0  0  0  0  0  0  0  0  0
   -4.8100   25.1700  -30.8240 C   0  0  0  0  0  0  0  0  0  0  0  0
   -5.7710   25.9270  -30.5270 O   0  0  0  0  0  0  0  0  0  0  0  0
   -4.9910   24.1960  -31.8580 N   0  0  0  0  0  0  0  0  0  0  0  0
   -6.0010   23.1760  -31.8930 C   0  0  0  0  0  0  0  0  0  0  0  0
   -7.3120   23.4110  -31.4410 C   0  0  0  0  0  0  0  0  0  0  0  0
   -8.2610   22.3850  -31.4690 C   0  0  0  0  0  0  0  0  0  0  0  0
   -7.9060   21.1140  -31.9310 C   0  0  0  0  0  0  0  0  0  0  0  0
   -9.0970   19.8260  -31.9630 Cl  0  0  0  0  0  0  0  0  0  0  0  0
   -6.5970   20.8670  -32.3570 C   0  0  0  0  0  0  0  0  0  0  0  0
   -5.6460   21.8930  -32.3290 C   0  0  0  0  0  0  0  0  0  0  0  0
   -1.6200   24.3650  -28.8670 C   0  0  0  0  0  0  0  0  0  0  0  0
   -1.0960   23.4040  -27.9960 C   0  0  0  0  0  0  0  0  0  0  0  0
   -0.9620   20.4670  -29.0670 C   0  0  0  0  0  0  0  0  0  0  0  0
   -0.5630   19.6220  -30.1040 C   0  0  0  0  0  0  0  0  0  0  0  0
    0.0530   18.4430  -29.8240 N   0  0  0  0  0  0  0  0  0  0  0  0
    1.3605   14.5164  -25.8059 H   0  0  0  0  0  0  0  0  0  0  0  0
    0.6847   13.8621  -27.3362 H   0  0  0  0  0  0  0  0  0  0  0  0
    2.2883   14.6714  -27.3362 H   0  0  0  0  0  0  0  0  0  0  0  0
   -0.0890   16.2870  -26.4800 H   0  0  0  0  0  0  0  0  0  0  0  0
    0.1104   18.5607  -26.4409 H   0  0  0  0  0  0  0  0  0  0  0  0
   -3.9112   21.5373  -27.4700 H   0  0  0  0  0  0  0  0  0  0  0  0
   -4.8530   23.2541  -29.0145 H   0  0  0  0  0  0  0  0  0  0  0  0
   -7.5916   24.4059  -31.0641 H   0  0  0  0  0  0  0  0  0  0  0  0
   -9.2886   22.5779  -31.1271 H   0  0  0  0  0  0  0  0  0  0  0  0
   -6.3149   19.8656  -32.7143 H   0  0  0  0  0  0  0  0  0  0  0  0
   -4.6138   21.6909  -32.6512 H   0  0  0  0  0  0  0  0  0  0  0  0
   -0.9754   25.1719  -29.2457 H   0  0  0  0  0  0  0  0  0  0  0  0
   -0.0383   23.4528  -27.6978 H   0  0  0  0  0  0  0  0  0  0  0  0
   -1.4579   21.4237  -29.2879 H   0  0  0  0  0  0  0  0  0  0  0  0
   -0.7473   19.9106  -31.1493 H   0  0  0  0  0  0  0  0  0  0  0  0
  1  2  1  0
  2  3  1  0
  3  4  2  0
  3  5  1  0
  5  6  2  0
  6  7  1  0
  7  8  1  0
  8  9  1  0
  9 10  2  0
 10 11  1  0
 11 12  2  0
 12 13  1  0
 13 14  1  0
 14 15  2  0
 14 16  1  0
 16 17  1  0
 17 18  2  0
 18 19  1  0
 19 20  2  0
 20 21  1  0
 20 22  1  0
 22 23  2  0
 12 24  1  0
 24 25  2  0
  7 26  2  0
 26 27  1  0
 27 28  2  0
 28  5  1  0
 25  9  1  0
 23 17  1  0
  1 29  1  0
  1 30  1  0
  1 31  1  0
  2 32  1  0
  6 33  1  0
 10 34  1  0
 11 35  1  0
 18 36  1  0
 19 37  1  0
 22 38  1  0
 23 39  1  0
 24 40  1  0
 25 41  1  0
 26 42  1  0
 27 43  1  0
M  CHG  2  13  -1  16  -1
M  END
>  <UniqueID>  (43) 
41

>  <SMILES>  (43) 
CNC(=O)c1cc(Sc2ccc([N-]C(=O)[N-]c3ccc(Cl)cc3)cc2)ccn1

>  <Energy>  (43) 
45.681832512273

>  <Genealogy>  (43) 
CNC(=O)c1cc(Sc2ccc([N-]C(=O)[N-]c3ccc(Cl)cc3)cc2)ccn1 (protonated)
CNC(=O)c1cc(Sc2ccc([N-]C(=O)[N-]c3ccc(Cl)cc3)cc2)ccn1 (3D coordinates assigned)
CNC(=O)c1cc(Sc2ccc([N-]C(=O)[N-]c3ccc(Cl)cc3)cc2)ccn1 (optimized conformer: 45.681832512273 kcal/mol)

>  <smiles>  (43) 
CNC(=O)c1cc(Sc2ccc(NC(=O)Nc3ccc(Cl)cc3)cc2)ccn1

>  <score_type>  (43) 
oracle

>  <origin>  (43) 
adgpu

>  <m_score__min__energy>  (43) 
-12.77

>  <m_primary>  (43) 
energy

$$$$
43:0
     RDKit          3D

 55 58  0  0  0  0  0  0  0  0999 V2000
   -1.5210   16.8120  -33.7440 C   0  0  0  0  0  0  0  0  0  0  0  0
   -1.8620   18.0460  -34.3680 O   0  0  0  0  0  0  0  0  0  0  0  0
   -2.3480   19.1790  -33.6950 C   0  0  0  0  0  0  0  0  0  0  0  0
   -1.4820   20.2030  -33.2630 C   0  0  0  0  0  0  0  0  0  0  0  0
   -1.9800   21.3180  -32.5880 C   0  0  0  0  0  0  0  0  0  0  0  0
   -3.3530   21.4400  -32.3280 C   0  0  0  0  0  0  0  0  0  0  0  0
   -3.8810   22.6350  -31.6190 C   0  0  0  0  0  0  0  0  0  0  0  0
   -5.2280   23.0140  -31.7690 C   0  0  0  0  0  0  0  0  0  0  0  0
   -5.7260   24.1340  -31.1010 C   0  0  0  0  0  0  0  0  0  0  0  0
   -4.8900   24.8900  -30.2750 C   0  0  0  0  0  0  0  0  0  0  0  0
   -3.5390   24.5320  -30.1170 C   0  0  0  0  0  0  0  0  0  0  0  0
   -2.6400   25.2930  -29.3000 N   0  0  0  0  0  0  0  0  0  0  0  0
   -1.5550   24.6230  -28.1210 S   0  0  0  0  0  0  0  0  0  0  0  0
   -0.1430   24.9940  -28.4820 O   0  0  0  0  0  0  0  0  0  0  0  0
   -1.8810   25.1950  -26.7710 O   0  0  0  0  0  0  0  0  0  0  0  0
   -1.7460   22.8720  -28.0560 C   0  0  0  0  0  0  0  0  0  0  0  0
   -2.9410   22.3000  -27.5930 C   0  0  0  0  0  0  0  0  0  0  0  0
   -3.0800   20.9100  -27.5400 C   0  0  0  0  0  0  0  0  0  0  0  0
   -2.0300   20.0830  -27.9520 C   0  0  0  0  0  0  0  0  0  0  0  0
   -0.8390   20.6490  -28.4190 C   0  0  0  0  0  0  0  0  0  0  0  0
    0.1790   19.8480  -28.8210 F   0  0  0  0  0  0  0  0  0  0  0  0
   -0.6960   22.0410  -28.4710 C   0  0  0  0  0  0  0  0  0  0  0  0
   -3.0460   23.4040  -30.7870 C   0  0  0  0  0  0  0  0  0  0  0  0
   -4.2170   20.4210  -32.7570 C   0  0  0  0  0  0  0  0  0  0  0  0
   -3.7290   19.2970  -33.4360 C   0  0  0  0  0  0  0  0  0  0  0  0
   -4.8870   18.0560  -33.9360 S   0  0  0  0  0  0  0  0  0  0  0  0
   -5.0430   16.9770  -32.9030 O   0  0  0  0  0  0  0  0  0  0  0  0
   -4.3930   17.4220  -35.2060 O   0  0  0  0  0  0  0  0  0  0  0  0
   -6.4350   18.7820  -34.2290 N   0  0  0  0  0  0  0  0  0  0  0  0
   -7.2160   19.4080  -33.1960 C   0  0  0  0  0  0  0  0  0  0  0  0
   -7.2600   20.8080  -33.0590 C   0  0  0  0  0  0  0  0  0  0  0  0
   -8.0250   21.3990  -32.0500 C   0  0  0  0  0  0  0  0  0  0  0  0
   -8.7640   20.5950  -31.1680 C   0  0  0  0  0  0  0  0  0  0  0  0
   -9.5080   21.1680  -30.1880 F   0  0  0  0  0  0  0  0  0  0  0  0
   -8.7340   19.2060  -31.2980 C   0  0  0  0  0  0  0  0  0  0  0  0
   -7.9710   18.6110  -32.3090 C   0  0  0  0  0  0  0  0  0  0  0  0
   -7.9540   17.2580  -32.4120 F   0  0  0  0  0  0  0  0  0  0  0  0
   -1.5542   16.9323  -32.6511 H   0  0  0  0  0  0  0  0  0  0  0  0
   -2.2384   16.0361  -34.0495 H   0  0  0  0  0  0  0  0  0  0  0  0
   -0.5070   16.5145  -34.0495 H   0  0  0  0  0  0  0  0  0  0  0  0
   -0.4027   20.1226  -33.4598 H   0  0  0  0  0  0  0  0  0  0  0  0
   -1.2900   22.1081  -32.2569 H   0  0  0  0  0  0  0  0  0  0  0  0
   -5.8928   22.4238  -32.4169 H   0  0  0  0  0  0  0  0  0  0  0  0
   -6.7802   24.4225  -31.2253 H   0  0  0  0  0  0  0  0  0  0  0  0
   -5.2898   25.7680  -29.7466 H   0  0  0  0  0  0  0  0  0  0  0  0
   -3.7703   22.9470  -27.2710 H   0  0  0  0  0  0  0  0  0  0  0  0
   -4.0172   20.4657  -27.1735 H   0  0  0  0  0  0  0  0  0  0  0  0
   -2.1405   18.9894  -27.9089 H   0  0  0  0  0  0  0  0  0  0  0  0
    0.2419   22.4832  -28.8381 H   0  0  0  0  0  0  0  0  0  0  0  0
   -1.9920   23.1158  -30.6608 H   0  0  0  0  0  0  0  0  0  0  0  0
   -5.2953   20.5061  -32.5569 H   0  0  0  0  0  0  0  0  0  0  0  0
   -6.8620   18.6230  -35.1690 H   0  0  0  0  0  0  0  0  0  0  0  0
   -6.6875   21.4422  -33.7519 H   0  0  0  0  0  0  0  0  0  0  0  0
   -8.0481   22.4939  -31.9469 H   0  0  0  0  0  0  0  0  0  0  0  0
   -9.3114   18.5773  -30.6042 H   0  0  0  0  0  0  0  0  0  0  0  0
  1  2  1  0
  2  3  1  0
  3  4  2  0
  4  5  1  0
  5  6  2  0
  6  7  1  0
  7  8  2  0
  8  9  1  0
  9 10  2  0
 10 11  1  0
 11 12  1  0
 12 13  1  0
 13 14  2  0
 13 15  2  0
 13 16  1  0
 16 17  2  0
 17 18  1  0
 18 19  2  0
 19 20  1  0
 20 21  1  0
 20 22  2  0
 11 23  2  0
  6 24  1  0
 24 25  2  0
 25 26  1  0
 26 27  2  0
 26 28  2  0
 26 29  1  0
 29 30  1  0
 30 31  2  0
 31 32  1  0
 32 33  2  0
 33 34  1  0
 33 35  1  0
 35 36  2  0
 36 37  1  0
 25  3  1  0
 36 30  1  0
 23  7  1  0
 22 16  1  0
  1 38  1  0
  1 39  1  0
  1 40  1  0
  4 41  1  0
  5 42  1  0
  8 43  1  0
  9 44  1  0
 10 45  1  0
 17 46  1  0
 18 47  1  0
 19 48  1  0
 22 49  1  0
 23 50  1  0
 24 51  1  0
 29 52  1  0
 31 53  1  0
 32 54  1  0
 35 55  1  0
M  CHG  1  12  -1
M  END
>  <UniqueID>  (44) 
42

>  <SMILES>  (44) 
COc1ccc(-c2cccc([N-]S(=O)(=O)c3cccc(F)c3)c2)cc1S(=O)(=O)Nc1ccc(F)cc1F

>  <Energy>  (44) 
72.79624773496315

>  <Genealogy>  (44) 
COc1ccc(-c2cccc([N-]S(=O)(=O)c3cccc(F)c3)c2)cc1S(=O)(=O)Nc1ccc(F)cc1F (protonated)
COc1ccc(-c2cccc([N-]S(=O)(=O)c3cccc(F)c3)c2)cc1S(=O)(=O)Nc1ccc(F)cc1F (3D coordinates assigned)
COc1ccc(-c2cccc([N-]S(=O)(=O)c3cccc(F)c3)c2)cc1S(=O)(=O)Nc1ccc(F)cc1F (optimized conformer: 72.79624773496315 kcal/mol)

>  <smiles>  (44) 
COc1ccc(-c2cccc(NS(=O)(=O)c3cccc(F)c3)c2)cc1S(=O)(=O)Nc1ccc(F)cc1F

>  <score_type>  (44) 
oracle

>  <origin>  (44) 
adgpu

>  <m_score__min__energy>  (44) 
-12.289999999999999

>  <m_primary>  (44) 
energy

$$$$
44:0
     RDKit          3D

 46 48  0  0  0  0  0  0  0  0999 V2000
   -6.8770   17.1580  -32.8150 C   0  0  0  0  0  0  0  0  0  0  0  0
   -7.2550   18.0570  -31.6380 C   0  0  0  0  0  0  0  0  0  0  0  0
   -8.3820   19.0480  -31.9860 C   0  0  0  0  0  0  0  0  0  0  0  0
   -8.0080   20.0450  -33.0980 C   0  0  0  0  0  0  0  0  0  0  0  0
   -6.7980   20.8180  -32.7640 N   0  0  0  0  0  0  0  0  0  0  0  0
   -5.5520   20.4740  -33.2510 C   0  0  0  0  0  0  0  0  0  0  0  0
   -5.4400   19.4980  -34.0460 O   0  0  0  0  0  0  0  0  0  0  0  0
   -4.4240   21.1850  -32.8780 N   0  0  0  0  0  0  0  0  0  0  0  0
   -3.1090   20.8110  -33.4230 C   0  0  0  0  0  0  0  0  0  0  0  0
   -4.5350   22.2780  -32.0490 C   0  0  0  0  0  0  0  0  0  0  0  0
   -3.5250   22.9620  -31.7320 O   0  0  0  0  0  0  0  0  0  0  0  0
   -5.7960   22.6160  -31.5730 C   0  0  0  0  0  0  0  0  0  0  0  0
   -6.8800   21.8940  -31.9350 C   0  0  0  0  0  0  0  0  0  0  0  0
   -7.9970   22.3780  -31.3520 N   0  0  0  0  0  0  0  0  0  0  0  0
   -7.5270   23.4230  -30.6220 C   0  0  0  0  0  0  0  0  0  0  0  0
   -6.1890   23.5930  -30.7380 N   0  0  0  0  0  0  0  0  0  0  0  0
   -5.2220   24.7570  -29.8880 S   0  0  0  0  0  0  0  0  0  0  0  0
   -4.5760   25.6760  -30.8860 O   0  0  0  0  0  0  0  0  0  0  0  0
   -6.0940   25.5660  -28.9690 O   0  0  0  0  0  0  0  0  0  0  0  0
   -4.0000   23.9270  -28.9310 C   0  0  0  0  0  0  0  0  0  0  0  0
   -2.7730   24.5510  -28.6680 C   0  0  0  0  0  0  0  0  0  0  0  0
   -1.8050   23.9000  -27.8970 C   0  0  0  0  0  0  0  0  0  0  0  0
   -2.0580   22.6220  -27.3750 C   0  0  0  0  0  0  0  0  0  0  0  0
   -1.0040   21.9090  -26.5810 C   0  0  0  0  0  0  0  0  0  0  0  0
   -3.2770   21.9900  -27.6620 C   0  0  0  0  0  0  0  0  0  0  0  0
   -4.2460   22.6420  -28.4320 C   0  0  0  0  0  0  0  0  0  0  0  0
   -6.4768   16.2062  -32.4357 H   0  0  0  0  0  0  0  0  0  0  0  0
   -7.7690   16.9623  -33.4282 H   0  0  0  0  0  0  0  0  0  0  0  0
   -6.1132   17.6585  -33.4282 H   0  0  0  0  0  0  0  0  0  0  0  0
   -7.5890   17.4228  -30.8036 H   0  0  0  0  0  0  0  0  0  0  0  0
   -6.3653   18.6458  -31.3700 H   0  0  0  0  0  0  0  0  0  0  0  0
   -9.2601   18.4734  -32.3157 H   0  0  0  0  0  0  0  0  0  0  0  0
   -8.5826   19.6379  -31.0795 H   0  0  0  0  0  0  0  0  0  0  0  0
   -7.8272   19.4872  -34.0287 H   0  0  0  0  0  0  0  0  0  0  0  0
   -8.8419   20.7531  -33.2134 H   0  0  0  0  0  0  0  0  0  0  0  0
   -2.4120   20.6128  -32.5954 H   0  0  0  0  0  0  0  0  0  0  0  0
   -3.2118   19.9065  -34.0405 H   0  0  0  0  0  0  0  0  0  0  0  0
   -2.7204   21.6342  -34.0405 H   0  0  0  0  0  0  0  0  0  0  0  0
   -8.1681   24.0652  -30.0003 H   0  0  0  0  0  0  0  0  0  0  0  0
   -2.5710   25.5552  -29.0690 H   0  0  0  0  0  0  0  0  0  0  0  0
   -0.8411   24.3916  -27.6988 H   0  0  0  0  0  0  0  0  0  0  0  0
   -1.2011   22.0423  -25.5070 H   0  0  0  0  0  0  0  0  0  0  0  0
   -1.0222   20.8370  -26.8268 H   0  0  0  0  0  0  0  0  0  0  0  0
   -0.0157   22.3248  -26.8268 H   0  0  0  0  0  0  0  0  0  0  0  0
   -3.4718   20.9771  -27.2798 H   0  0  0  0  0  0  0  0  0  0  0  0
   -5.2033   22.1442  -28.6459 H   0  0  0  0  0  0  0  0  0  0  0  0
  1  2  1  0
  2  3  1  0
  3  4  1  0
  4  5  1  0
  5  6  1  0
  6  7  2  0
  6  8  1  0
  8  9  1  0
  8 10  1  0
 10 11  2  0
 10 12  1  0
 12 13  2  0
 13 14  1  0
 14 15  2  0
 15 16  1  0
 16 17  1  0
 17 18  2  0
 17 19  2  0
 17 20  1  0
 20 21  2  0
 21 22  1  0
 22 23  2  0
 23 24  1  0
 23 25  1  0
 25 26  2  0
 13  5  1  0
 26 20  1  0
 16 12  1  0
  1 27  1  0
  1 28  1  0
  1 29  1  0
  2 30  1  0
  2 31  1  0
  3 32  1  0
  3 33  1  0
  4 34  1  0
  4 35  1  0
  9 36  1  0
  9 37  1  0
  9 38  1  0
 15 39  1  0
 21 40  1  0
 22 41  1  0
 24 42  1  0
 24 43  1  0
 24 44  1  0
 25 45  1  0
 26 46  1  0
M  END
>  <UniqueID>  (45) 
43

>  <SMILES>  (45) 
CCCCn1c(=O)n(C)c(=O)c2c1ncn2S(=O)(=O)c1ccc(C)cc1

>  <Energy>  (45) 
89.51290186880848

>  <Genealogy>  (45) 
CCCCn1c(=O)n(C)c(=O)c2c1ncn2S(=O)(=O)c1ccc(C)cc1 (3D coordinates assigned)
CCCCn1c(=O)n(C)c(=O)c2c1ncn2S(=O)(=O)c1ccc(C)cc1 (optimized conformer: 89.51290186880848 kcal/mol)

>  <smiles>  (45) 
CCCCn1c(=O)n(C)c(=O)c2c1ncn2S(=O)(=O)c1ccc(C)cc1

>  <score_type>  (45) 
oracle

>  <origin>  (45) 
adgpu

>  <m_score__min__energy>  (45) 
-8.9000000000000004

>  <m_primary>  (45) 
energy

$$$$
45:0
     RDKit          3D

 26 27  0  0  0  0  0  0  0  0999 V2000
   -3.5770   20.9590  -32.1170 O   0  0  0  0  0  0  0  0  0  0  0  0
   -4.6460   21.5960  -32.3140 C   0  0  0  0  0  0  0  0  0  0  0  0
   -5.6740   20.9870  -33.1070 N   0  0  0  0  0  0  0  0  0  0  0  0
   -6.6590   20.0510  -32.6460 C   0  0  0  0  0  0  0  0  0  0  0  0
   -6.3000   18.8110  -32.0850 C   0  0  0  0  0  0  0  0  0  0  0  0
   -7.2880   17.9300  -31.6370 C   0  0  0  0  0  0  0  0  0  0  0  0
   -8.6380   18.2830  -31.7300 C   0  0  0  0  0  0  0  0  0  0  0  0
   -9.0000   19.5230  -32.2650 C   0  0  0  0  0  0  0  0  0  0  0  0
   -8.0130   20.4060  -32.7140 C   0  0  0  0  0  0  0  0  0  0  0  0
   -4.8150   22.9320  -31.6940 C   0  0  0  0  0  0  0  0  0  0  0  0
   -3.7540   23.4860  -30.9550 C   0  0  0  0  0  0  0  0  0  0  0  0
   -3.8810   24.7510  -30.3740 C   0  0  0  0  0  0  0  0  0  0  0  0
   -2.8210   25.2950  -29.6570 O   0  0  0  0  0  0  0  0  0  0  0  0
   -5.0690   25.4710  -30.5160 C   0  0  0  0  0  0  0  0  0  0  0  0
   -6.1360   24.9230  -31.2300 C   0  0  0  0  0  0  0  0  0  0  0  0
   -6.0230   23.6520  -31.8120 C   0  0  0  0  0  0  0  0  0  0  0  0
   -7.1130   23.0990  -32.4830 O   0  0  0  0  0  0  0  0  0  0  0  0
   -5.2388   18.5346  -31.9990 H   0  0  0  0  0  0  0  0  0  0  0  0
   -7.0032   16.9569  -31.2104 H   0  0  0  0  0  0  0  0  0  0  0  0
   -9.4145   17.5856  -31.3825 H   0  0  0  0  0  0  0  0  0  0  0  0
  -10.0613   19.8040  -32.3327 H   0  0  0  0  0  0  0  0  0  0  0  0
   -8.3012   21.3855  -33.1232 H   0  0  0  0  0  0  0  0  0  0  0  0
   -2.8185   22.9202  -30.8336 H   0  0  0  0  0  0  0  0  0  0  0  0
   -5.1640   26.4699  -30.0653 H   0  0  0  0  0  0  0  0  0  0  0  0
   -7.0715   25.4917  -31.3369 H   0  0  0  0  0  0  0  0  0  0  0  0
   -7.0060   22.6290  -33.3750 H   0  0  0  0  0  0  0  0  0  0  0  0
  1  2  2  0
  2  3  1  0
  3  4  1  0
  4  5  2  0
  5  6  1  0
  6  7  2  0
  7  8  1  0
  8  9  2  0
  2 10  1  0
 10 11  2  0
 11 12  1  0
 12 13  1  0
 12 14  2  0
 14 15  1  0
 15 16  2  0
 16 17  1  0
  9  4  1  0
 16 10  1  0
  5 18  1  0
  6 19  1  0
  7 20  1  0
  8 21  1  0
  9 22  1  0
 11 23  1  0
 14 24  1  0
 15 25  1  0
 17 26  1  0
M  CHG  2   3  -1  13  -1
M  END
>  <UniqueID>  (46) 
44

>  <SMILES>  (46) 
O=C([N-]c1ccccc1)c1cc([O-])ccc1O

>  <Energy>  (46) 
34.92753862718675

>  <Genealogy>  (46) 
O=C([N-]c1ccccc1)c1cc([O-])ccc1O (protonated)
O=C([N-]c1ccccc1)c1cc([O-])ccc1O (3D coordinates assigned)
O=C([N-]c1ccccc1)c1cc([O-])ccc1O (optimized conformer: 34.92753862718675 kcal/mol)

>  <smiles>  (46) 
O=C(Nc1ccccc1)c1cc(O)ccc1O

>  <score_type>  (46) 
oracle

>  <origin>  (46) 
adgpu

>  <m_score__min__energy>  (46) 
-9.0299999999999994

>  <m_primary>  (46) 
energy

$$$$
46:0
     RDKit          3D

 56 58  0  0  0  0  0  0  0  0999 V2000
    1.3900   20.8510  -33.7430 C   0  0  0  0  0  0  0  0  0  0  0  0
   -0.0520   20.7900  -34.2930 C   0  0  0  0  0  0  0  0  0  0  0  0
   -0.0960   19.8520  -35.5150 C   0  0  0  0  0  0  0  0  0  0  0  0
   -0.4650   22.1330  -34.7280 N   0  0  0  0  0  0  0  0  0  0  0  0
   -1.0460   20.3100  -33.1960 C   0  0  0  0  0  0  0  0  0  0  0  0
   -1.8800   19.1090  -33.5840 C   0  0  0  0  0  0  0  0  0  0  0  0
   -1.4240   17.8110  -33.3190 C   0  0  0  0  0  0  0  0  0  0  0  0
   -2.1970   16.7050  -33.6780 C   0  0  0  0  0  0  0  0  0  0  0  0
   -3.4510   16.8800  -34.2870 C   0  0  0  0  0  0  0  0  0  0  0  0
   -4.2800   15.7540  -34.6090 N   0  0  0  0  0  0  0  0  0  0  0  0
   -5.6600   15.3210  -33.6490 S   0  0  0  0  0  0  0  0  0  0  0  0
   -6.7280   14.7440  -34.5340 O   0  0  0  0  0  0  0  0  0  0  0  0
   -5.2530   14.2890  -32.6330 O   0  0  0  0  0  0  0  0  0  0  0  0
   -6.2910   16.7640  -32.8620 C   0  0  0  0  0  0  0  0  0  0  0  0
   -7.3400   17.4710  -33.4620 C   0  0  0  0  0  0  0  0  0  0  0  0
   -7.7740   18.6810  -32.9170 C   0  0  0  0  0  0  0  0  0  0  0  0
   -7.1580   19.2070  -31.7710 C   0  0  0  0  0  0  0  0  0  0  0  0
   -7.5700   20.4920  -31.2770 N   0  0  0  0  0  0  0  0  0  0  0  0
   -7.5690   21.7110  -32.0880 C   0  0  0  0  0  0  0  0  0  0  0  0
   -6.4820   22.6500  -31.6300 C   0  0  0  0  0  0  0  0  0  0  0  0
   -6.8110   23.9320  -31.1640 C   0  0  0  0  0  0  0  0  0  0  0  0
   -5.8050   24.8160  -30.7560 C   0  0  0  0  0  0  0  0  0  0  0  0
   -6.1370   26.0490  -30.2960 F   0  0  0  0  0  0  0  0  0  0  0  0
   -4.4630   24.4260  -30.8150 C   0  0  0  0  0  0  0  0  0  0  0  0
   -3.4640   25.3010  -30.4030 O   0  0  0  0  0  0  0  0  0  0  0  0
   -4.1280   23.1520  -31.2820 C   0  0  0  0  0  0  0  0  0  0  0  0
   -2.8290   22.7680  -31.3400 F   0  0  0  0  0  0  0  0  0  0  0  0
   -5.1340   22.2640  -31.6800 C   0  0  0  0  0  0  0  0  0  0  0  0
   -6.1320   18.4710  -31.1480 C   0  0  0  0  0  0  0  0  0  0  0  0
   -5.7000   17.2600  -31.6930 C   0  0  0  0  0  0  0  0  0  0  0  0
   -3.9020   18.1790  -34.5640 C   0  0  0  0  0  0  0  0  0  0  0  0
   -5.1100   18.3760  -35.1490 F   0  0  0  0  0  0  0  0  0  0  0  0
   -3.1260   19.2830  -34.2090 C   0  0  0  0  0  0  0  0  0  0  0  0
    1.3633   20.8499  -32.6433 H   0  0  0  0  0  0  0  0  0  0  0  0
    1.9548   19.9759  -34.0970 H   0  0  0  0  0  0  0  0  0  0  0  0
    1.8789   21.7706  -34.0970 H   0  0  0  0  0  0  0  0  0  0  0  0
   -0.1450   18.8074  -35.1738 H   0  0  0  0  0  0  0  0  0  0  0  0
   -0.9844   20.0816  -36.1217 H   0  0  0  0  0  0  0  0  0  0  0  0
    0.8100   19.9975  -36.1217 H   0  0  0  0  0  0  0  0  0  0  0  0
   -0.4600   22.1780  -35.7760 H   0  0  0  0  0  0  0  0  0  0  0  0
   -1.4500   22.3130  -34.4260 H   0  0  0  0  0  0  0  0  0  0  0  0
   -0.4665   20.0496  -32.2980 H   0  0  0  0  0  0  0  0  0  0  0  0
   -1.7505   21.1382  -33.0296 H   0  0  0  0  0  0  0  0  0  0  0  0
   -0.4521   17.6625  -32.8256 H   0  0  0  0  0  0  0  0  0  0  0  0
   -1.8216   15.6897  -33.4827 H   0  0  0  0  0  0  0  0  0  0  0  0
   -4.1990   15.3110  -35.5500 H   0  0  0  0  0  0  0  0  0  0  0  0
   -7.8238   17.0719  -34.3657 H   0  0  0  0  0  0  0  0  0  0  0  0
   -8.6047   19.2259  -33.3893 H   0  0  0  0  0  0  0  0  0  0  0  0
   -8.0380   20.5410  -30.3410 H   0  0  0  0  0  0  0  0  0  0  0  0
   -7.3970   21.4447  -33.1413 H   0  0  0  0  0  0  0  0  0  0  0  0
   -8.5418   22.2124  -31.9772 H   0  0  0  0  0  0  0  0  0  0  0  0
   -7.8649   24.2440  -31.1190 H   0  0  0  0  0  0  0  0  0  0  0  0
   -4.8662   21.2576  -32.0341 H   0  0  0  0  0  0  0  0  0  0  0  0
   -5.6679   18.8522  -30.2264 H   0  0  0  0  0  0  0  0  0  0  0  0
   -4.8937   16.6943  -31.2031 H   0  0  0  0  0  0  0  0  0  0  0  0
   -3.4930   20.2982  -34.4203 H   0  0  0  0  0  0  0  0  0  0  0  0
  1  2  1  0
  2  3  1  0
  2  4  1  0
  2  5  1  0
  5  6  1  0
  6  7  2  0
  7  8  1  0
  8  9  2  0
  9 10  1  0
 10 11  1  0
 11 12  2  0
 11 13  2  0
 11 14  1  0
 14 15  2  0
 15 16  1  0
 16 17  2  0
 17 18  1  0
 18 19  1  0
 19 20  1  0
 20 21  2  0
 21 22  1  0
 22 23  1  0
 22 24  2  0
 24 25  1  0
 24 26  1  0
 26 27  1  0
 26 28  2  0
 17 29  1  0
 29 30  2  0
  9 31  1  0
 31 32  1  0
 31 33  2  0
 33  6  1  0
 30 14  1  0
 28 20  1  0
  1 34  1  0
  1 35  1  0
  1 36  1  0
  3 37  1  0
  3 38  1  0
  3 39  1  0
  4 40  1  0
  4 41  1  0
  5 42  1  0
  5 43  1  0
  7 44  1  0
  8 45  1  0
 10 46  1  0
 15 47  1  0
 16 48  1  0
 18 49  1  0
 19 50  1  0
 19 51  1  0
 21 52  1  0
 28 53  1  0
 29 54  1  0
 30 55  1  0
 33 56  1  0
M  CHG  1  25  -1
M  END
>  <UniqueID>  (47) 
45

>  <SMILES>  (47) 
CC(C)(N)Cc1ccc(NS(=O)(=O)c2ccc(NCc3cc(F)c([O-])c(F)c3)cc2)c(F)c1

>  <Energy>  (47) 
55.10099048086576

>  <Genealogy>  (47) 
CC(C)(N)Cc1ccc(NS(=O)(=O)c2ccc(NCc3cc(F)c([O-])c(F)c3)cc2)c(F)c1 (protonated)
CC(C)(N)Cc1ccc(NS(=O)(=O)c2ccc(NCc3cc(F)c([O-])c(F)c3)cc2)c(F)c1 (3D coordinates assigned)
CC(C)(N)Cc1ccc(NS(=O)(=O)c2ccc(NCc3cc(F)c([O-])c(F)c3)cc2)c(F)c1 (optimized conformer: 55.10099048086576 kcal/mol)

>  <smiles>  (47) 
CC(C)(N)Cc1ccc(NS(=O)(=O)c2ccc(NCc3cc(F)c(O)c(F)c3)cc2)c(F)c1

>  <score_type>  (47) 
oracle

>  <origin>  (47) 
adgpu

>  <m_score__min__energy>  (47) 
-13

>  <m_primary>  (47) 
energy

$$$$
47:0
     RDKit          3D

 31 32  0  0  0  0  0  0  0  0999 V2000
   -5.6710   14.6650  -33.9660 C   0  0  0  0  0  0  0  0  0  0  0  0
   -6.7660   15.5760  -33.9550 O   0  0  0  0  0  0  0  0  0  0  0  0
   -6.6570   16.9420  -33.6580 C   0  0  0  0  0  0  0  0  0  0  0  0
   -7.2690   17.4210  -32.4940 C   0  0  0  0  0  0  0  0  0  0  0  0
   -7.1900   18.7740  -32.1550 C   0  0  0  0  0  0  0  0  0  0  0  0
   -6.4980   19.6780  -32.9760 C   0  0  0  0  0  0  0  0  0  0  0  0
   -6.4410   21.0670  -32.6000 N   0  0  0  0  0  0  0  0  0  0  0  0
   -5.2250   21.8820  -32.6240 C   0  0  0  0  0  0  0  0  0  0  0  0
   -5.3450   23.0560  -31.6810 C   0  0  0  0  0  0  0  0  0  0  0  0
   -4.1820   23.6390  -31.1460 C   0  0  0  0  0  0  0  0  0  0  0  0
   -4.2690   24.7340  -30.2820 C   0  0  0  0  0  0  0  0  0  0  0  0
   -3.1130   25.2930  -29.7520 O   0  0  0  0  0  0  0  0  0  0  0  0
   -5.5170   25.2650  -29.9510 C   0  0  0  0  0  0  0  0  0  0  0  0
   -6.6790   24.7080  -30.4900 C   0  0  0  0  0  0  0  0  0  0  0  0
   -6.6010   23.6120  -31.3570 C   0  0  0  0  0  0  0  0  0  0  0  0
   -7.7720   23.0890  -31.8910 O   0  0  0  0  0  0  0  0  0  0  0  0
   -5.8770   19.1950  -34.1430 C   0  0  0  0  0  0  0  0  0  0  0  0
   -5.9570   17.8410  -34.4820 C   0  0  0  0  0  0  0  0  0  0  0  0
   -5.3830   14.4254  -32.9318 H   0  0  0  0  0  0  0  0  0  0  0  0
   -5.9666   13.7426  -34.4874 H   0  0  0  0  0  0  0  0  0  0  0  0
   -4.8178   15.1235  -34.4874 H   0  0  0  0  0  0  0  0  0  0  0  0
   -7.8169   16.7262  -31.8405 H   0  0  0  0  0  0  0  0  0  0  0  0
   -7.6748   19.1344  -31.2357 H   0  0  0  0  0  0  0  0  0  0  0  0
   -7.3280   21.5440  -32.3200 H   0  0  0  0  0  0  0  0  0  0  0  0
   -4.3693   21.2614  -32.3196 H   0  0  0  0  0  0  0  0  0  0  0  0
   -5.0780   22.2644  -33.6448 H   0  0  0  0  0  0  0  0  0  0  0  0
   -3.1957   23.2296  -31.4099 H   0  0  0  0  0  0  0  0  0  0  0  0
   -5.5853   26.1225  -29.2654 H   0  0  0  0  0  0  0  0  0  0  0  0
   -7.6603   25.1328  -30.2318 H   0  0  0  0  0  0  0  0  0  0  0  0
   -5.3242   19.8885  -34.7937 H   0  0  0  0  0  0  0  0  0  0  0  0
   -5.4696   17.4769  -35.3985 H   0  0  0  0  0  0  0  0  0  0  0  0
  1  2  1  0
  2  3  1  0
  3  4  2  0
  4  5  1  0
  5  6  2  0
  6  7  1  0
  7  8  1  0
  8  9  1  0
  9 10  2  0
 10 11  1  0
 11 12  1  0
 11 13  2  0
 13 14  1  0
 14 15  2  0
 15 16  1  0
  6 17  1  0
 17 18  2  0
 18  3  1  0
 15  9  1  0
  1 19  1  0
  1 20  1  0
  1 21  1  0
  4 22  1  0
  5 23  1  0
  7 24  1  0
  8 25  1  0
  8 26  1  0
 10 27  1  0
 13 28  1  0
 14 29  1  0
 17 30  1  0
 18 31  1  0
M  CHG  2  12  -1  16  -1
M  END
>  <UniqueID>  (48) 
46

>  <SMILES>  (48) 
COc1ccc(NCc2cc([O-])ccc2[O-])cc1

>  <Energy>  (48) 
31.256651052276418

>  <Genealogy>  (48) 
COc1ccc(NCc2cc([O-])ccc2[O-])cc1 (protonated)
COc1ccc(NCc2cc([O-])ccc2[O-])cc1 (3D coordinates assigned)
COc1ccc(NCc2cc([O-])ccc2[O-])cc1 (optimized conformer: 31.256651052276418 kcal/mol)

>  <smiles>  (48) 
COc1ccc(NCc2cc(O)ccc2O)cc1

>  <score_type>  (48) 
oracle

>  <origin>  (48) 
adgpu

>  <m_score__min__energy>  (48) 
-8.9399999999999995

>  <m_primary>  (48) 
energy

$$$$
48:0
     RDKit          3D

 38 41  0  0  0  0  0  0  0  0999 V2000
   -9.3920   19.6780  -33.8400 H   0  0  0  0  0  0  0  0  0  0  0  0
   -9.4020   20.0210  -32.8870 O   0  0  0  0  0  0  0  0  0  0  0  0
   -8.3740   20.8200  -32.3910 C   0  0  0  0  0  0  0  0  0  0  0  0
   -8.6600   21.9790  -31.6580 C   0  0  0  0  0  0  0  0  0  0  0  0
   -9.7052   22.2654  -31.4697 H   0  0  0  0  0  0  0  0  0  0  0  0
   -7.6190   22.7730  -31.1650 C   0  0  0  0  0  0  0  0  0  0  0  0
   -7.8496   23.6820  -30.5901 H   0  0  0  0  0  0  0  0  0  0  0  0
   -6.2810   22.4160  -31.4000 C   0  0  0  0  0  0  0  0  0  0  0  0
   -5.1870   23.2570  -30.8790 C   0  0  0  0  0  0  0  0  0  0  0  0
   -4.2750   22.8420  -29.9780 N   0  0  0  0  0  0  0  0  0  0  0  0
   -3.5100   23.9450  -29.8300 C   0  0  0  0  0  0  0  0  0  0  0  0
   -2.3290   24.0340  -28.9290 C   0  0  0  0  0  0  0  0  0  0  0  0
   -1.8200   25.3010  -28.5910 C   0  0  0  0  0  0  0  0  0  0  0  0
   -2.3012   26.2062  -28.9898 H   0  0  0  0  0  0  0  0  0  0  0  0
   -0.7110   25.4190  -27.7550 C   0  0  0  0  0  0  0  0  0  0  0  0
   -0.3177   26.4119  -27.4913 H   0  0  0  0  0  0  0  0  0  0  0  0
   -0.1060   24.2690  -27.2570 C   0  0  0  0  0  0  0  0  0  0  0  0
    0.7718   24.3497  -26.5989 H   0  0  0  0  0  0  0  0  0  0  0  0
   -0.6000   23.0470  -27.5840 N   0  0  0  0  0  0  0  0  0  0  0  0
   -1.6910   22.8890  -28.3890 C   0  0  0  0  0  0  0  0  0  0  0  0
   -2.1160   21.6950  -28.6940 N   0  0  0  0  0  0  0  0  0  0  0  0
   -1.6210   20.4390  -28.2010 C   0  0  0  0  0  0  0  0  0  0  0  0
   -2.3380   19.7880  -27.1880 C   0  0  0  0  0  0  0  0  0  0  0  0
   -3.2728   20.2284  -26.8110 H   0  0  0  0  0  0  0  0  0  0  0  0
   -1.8730   18.5820  -26.6530 C   0  0  0  0  0  0  0  0  0  0  0  0
   -2.4510   18.0683  -25.8707 H   0  0  0  0  0  0  0  0  0  0  0  0
   -0.6750   18.0300  -27.1120 C   0  0  0  0  0  0  0  0  0  0  0  0
   -0.3139   17.0771  -26.6978 H   0  0  0  0  0  0  0  0  0  0  0  0
    0.0650   18.6890  -28.0980 C   0  0  0  0  0  0  0  0  0  0  0  0
    1.0134   18.2584  -28.4516 H   0  0  0  0  0  0  0  0  0  0  0  0
   -0.3970   19.8940  -28.6360 C   0  0  0  0  0  0  0  0  0  0  0  0
    0.1963   20.4173  -29.4003 H   0  0  0  0  0  0  0  0  0  0  0  0
   -3.9400   24.9650  -30.6020 N   0  0  0  0  0  0  0  0  0  0  0  0
   -4.9740   24.5010  -31.2330 O   0  0  0  0  0  0  0  0  0  0  0  0
   -6.0010   21.2520  -32.1370 C   0  0  0  0  0  0  0  0  0  0  0  0
   -4.9569   20.9629  -32.3276 H   0  0  0  0  0  0  0  0  0  0  0  0
   -7.0430   20.4600  -32.6290 C   0  0  0  0  0  0  0  0  0  0  0  0
   -6.8156   19.5509  -33.2051 H   0  0  0  0  0  0  0  0  0  0  0  0
  1  2  1  0
  2  3  1  0
  3  4  2  0
  4  5  1  0
  4  6  1  0
  6  7  1  0
  6  8  2  0
  8  9  1  0
  9 10  2  0
 10 11  1  0
 11 12  1  0
 12 13  2  0
 13 14  1  0
 13 15  1  0
 15 16  1  0
 15 17  2  0
 17 18  1  0
 17 19  1  0
 19 20  1  0
 20 21  2  0
 21 22  1  0
 22 23  2  0
 23 24  1  0
 23 25  1  0
 25 26  1  0
 25 27  2  0
 27 28  1  0
 27 29  1  0
 29 30  1  0
 29 31  2  0
 31 32  1  0
 11 33  2  0
 33 34  1  0
  8 35  1  0
 35 36  1  0
 35 37  2  0
 37 38  1  0
 37  3  1  0
 34  9  1  0
 20 12  1  0
 31 22  1  0
M  CHG  1  19  -1
M  END
>  <UniqueID>  (49) 
47

>  <SMILES>  (49) 
Oc1ccc(-c2nc(-c3ccc[n-]/c3=N\c3ccccc3)no2)cc1

>  <Energy>  (49) 
85.41459821825778

>  <Genealogy>  (49) 
Oc1ccc(-c2nc(-c3ccc[n-]c3=Nc3ccccc3)no2)cc1 (protonated)
Oc1ccc(-c2nc(-c3ccc[n-]/c3=N\c3ccccc3)no2)cc1 (cis-trans isomerization)
Oc1ccc(-c2nc(-c3ccc[n-]/c3=N\c3ccccc3)no2)cc1 (3D coordinates assigned)
Oc1ccc(-c2nc(-c3ccc[n-]/c3=N\c3ccccc3)no2)cc1 (optimized conformer: 85.41459821825778 kcal/mol)

>  <smiles>  (49) 
Oc1ccc(-c2nc(-c3ccc[nH]c3=Nc3ccccc3)no2)cc1

>  <score_type>  (49) 
oracle

>  <origin>  (49) 
adgpu

>  <m_score__min__energy>  (49) 
-8.8699999999999992

>  <m_primary>  (49) 
energy

$$$$
49:0
     RDKit          3D

 49 51  0  0  0  0  0  0  0  0999 V2000
   -6.1110   17.3670  -30.7600 N   0  0  0  0  0  0  0  0  0  0  0  0
   -5.5750   17.7680  -32.0230 C   0  0  0  0  0  0  0  0  0  0  0  0
   -6.1080   18.9330  -32.6710 N   0  0  0  0  0  0  0  0  0  0  0  0
   -6.0270   20.2560  -32.1050 C   0  0  0  0  0  0  0  0  0  0  0  0
   -4.7790   20.8300  -31.7980 C   0  0  0  0  0  0  0  0  0  0  0  0
   -4.6910   22.1490  -31.3490 C   0  0  0  0  0  0  0  0  0  0  0  0
   -5.8480   22.9280  -31.1910 C   0  0  0  0  0  0  0  0  0  0  0  0
   -5.7590   24.2930  -30.7440 N   0  0  0  0  0  0  0  0  0  0  0  0
   -6.7520   24.8690  -30.2530 O   0  0  0  0  0  0  0  0  0  0  0  0
   -4.5740   24.9850  -30.8440 O   0  0  0  0  0  0  0  0  0  0  0  0
   -7.0970   22.3530  -31.4780 C   0  0  0  0  0  0  0  0  0  0  0  0
   -7.1920   21.0320  -31.9300 C   0  0  0  0  0  0  0  0  0  0  0  0
   -8.9450   20.3330  -32.2770 Br  0  0  0  0  0  0  0  0  0  0  0  0
   -4.6120   17.0800  -32.5680 N   0  0  0  0  0  0  0  0  0  0  0  0
   -3.8020   17.5730  -34.0250 S   0  0  0  0  0  0  0  0  0  0  0  0
   -4.8170   18.1330  -34.9810 O   0  0  0  0  0  0  0  0  0  0  0  0
   -3.1700   16.3680  -34.6640 O   0  0  0  0  0  0  0  0  0  0  0  0
   -2.5120   18.7180  -33.6040 C   0  0  0  0  0  0  0  0  0  0  0  0
   -2.7120   20.0520  -33.9850 C   0  0  0  0  0  0  0  0  0  0  0  0
   -1.7120   21.0030  -33.8040 C   0  0  0  0  0  0  0  0  0  0  0  0
   -0.4930   20.6380  -33.2420 C   0  0  0  0  0  0  0  0  0  0  0  0
   -0.2680   19.3180  -32.8230 C   0  0  0  0  0  0  0  0  0  0  0  0
    1.0730   18.9560  -32.2280 C   0  0  0  0  0  0  0  0  0  0  0  0
    1.2230   19.5200  -30.9250 O   0  0  0  0  0  0  0  0  0  0  0  0
    0.2840   19.4290  -29.8850 C   0  0  0  0  0  0  0  0  0  0  0  0
    0.4600   18.4240  -28.9240 C   0  0  0  0  0  0  0  0  0  0  0  0
   -0.4490   18.2820  -27.8710 C   0  0  0  0  0  0  0  0  0  0  0  0
   -1.5420   19.1480  -27.7670 C   0  0  0  0  0  0  0  0  0  0  0  0
   -2.7830   18.9540  -26.3280 Br  0  0  0  0  0  0  0  0  0  0  0  0
   -1.7220   20.1580  -28.7160 C   0  0  0  0  0  0  0  0  0  0  0  0
   -0.8140   20.3030  -29.7700 C   0  0  0  0  0  0  0  0  0  0  0  0
   -1.2840   18.3460  -33.0000 C   0  0  0  0  0  0  0  0  0  0  0  0
   -0.9800   16.6850  -32.4800 Cl  0  0  0  0  0  0  0  0  0  0  0  0
   -6.8890   17.9100  -30.3240 H   0  0  0  0  0  0  0  0  0  0  0  0
   -5.7390   16.5310  -30.2570 H   0  0  0  0  0  0  0  0  0  0  0  0
   -6.4550   18.8110  -33.6470 H   0  0  0  0  0  0  0  0  0  0  0  0
   -3.8626   20.2325  -31.9132 H   0  0  0  0  0  0  0  0  0  0  0  0
   -3.7066   22.5815  -31.1171 H   0  0  0  0  0  0  0  0  0  0  0  0
   -8.0122   22.9487  -31.3458 H   0  0  0  0  0  0  0  0  0  0  0  0
   -4.2490   16.2280  -32.0860 H   0  0  0  0  0  0  0  0  0  0  0  0
   -3.6713   20.3510  -34.4326 H   0  0  0  0  0  0  0  0  0  0  0  0
   -1.8861   22.0462  -34.1062 H   0  0  0  0  0  0  0  0  0  0  0  0
    0.3010   21.3903  -33.1251 H   0  0  0  0  0  0  0  0  0  0  0  0
    1.1516   17.8611  -32.1574 H   0  0  0  0  0  0  0  0  0  0  0  0
    1.8648   19.3578  -32.8774 H   0  0  0  0  0  0  0  0  0  0  0  0
    1.3197   17.7418  -28.9987 H   0  0  0  0  0  0  0  0  0  0  0  0
   -0.3041   17.4881  -27.1235 H   0  0  0  0  0  0  0  0  0  0  0  0
   -2.5803   20.8410  -28.6338 H   0  0  0  0  0  0  0  0  0  0  0  0
   -0.9582   21.1025  -30.5116 H   0  0  0  0  0  0  0  0  0  0  0  0
  1  2  1  0
  2  3  1  0
  3  4  1  0
  4  5  2  0
  5  6  1  0
  6  7  2  0
  7  8  1  0
  8  9  2  0
  8 10  1  0
  7 11  1  0
 11 12  2  0
 12 13  1  0
  2 14  2  3
 14 15  1  0
 15 16  2  0
 15 17  2  0
 15 18  1  0
 18 19  2  0
 19 20  1  0
 20 21  2  0
 21 22  1  0
 22 23  1  0
 23 24  1  0
 24 25  1  0
 25 26  2  0
 26 27  1  0
 27 28  2  0
 28 29  1  0
 28 30  1  0
 30 31  2  0
 22 32  2  0
 32 33  1  0
 12  4  1  0
 32 18  1  0
 31 25  1  0
  1 34  1  0
  1 35  1  0
  3 36  1  0
  5 37  1  0
  6 38  1  0
 11 39  1  0
 14 40  1  0
 19 41  1  0
 20 42  1  0
 21 43  1  0
 23 44  1  0
 23 45  1  0
 26 46  1  0
 27 47  1  0
 30 48  1  0
 31 49  1  0
M  CHG  3   8   1  10  -1  14   1
M  END
>  <UniqueID>  (50) 
48

>  <SMILES>  (50) 
NC(Nc1ccc([N+](=O)[O-])cc1Br)=[NH+]S(=O)(=O)c1cccc(COc2ccc(Br)cc2)c1Cl

>  <Energy>  (50) 
61.21665100586061

>  <Genealogy>  (50) 
NC(Nc1ccc([N+](=O)[O-])cc1Br)=[NH+]S(=O)(=O)c1cccc(COc2ccc(Br)cc2)c1Cl (protonated)
NC(Nc1ccc([N+](=O)[O-])cc1Br)=[NH+]S(=O)(=O)c1cccc(COc2ccc(Br)cc2)c1Cl (3D coordinates assigned)
NC(Nc1ccc([N+](=O)[O-])cc1Br)=[NH+]S(=O)(=O)c1cccc(COc2ccc(Br)cc2)c1Cl (optimized conformer: 61.21665100586061 kcal/mol)

>  <smiles>  (50) 
NC(=NS(=O)(=O)c1cccc(COc2ccc(Br)cc2)c1Cl)Nc1ccc([N+](=O)[O-])cc1Br

>  <score_type>  (50) 
oracle

>  <origin>  (50) 
adgpu

>  <m_score__min__energy>  (50) 
-9.75

>  <m_primary>  (50) 
energy

$$$$
