0:0
     RDKit          3D

 35 37  0  0  0  0  0  0  0  0999 V2000
   -3.5290   25.2830  -30.4980 N   0  0  0  0  0  0  0  0  0  0  0  0
   -5.1790   24.7810  -30.3860 S   0  0  0  0  0  0  0  0  0  0  0  0
   -6.0430   25.7100  -31.1930 O   0  0  0  0  0  0  0  0  0  0  0  0
   -5.6220   24.8350  -28.9510 O   0  0  0  0  0  0  0  0  0  0  0  0
   -5.3360   23.1370  -30.9990 C   0  0  0  0  0  0  0  0  0  0  0  0
   -6.4980   22.7460  -31.6740 C   0  0  0  0  0  0  0  0  0  0  0  0
   -6.6210   21.4460  -32.1720 C   0  0  0  0  0  0  0  0  0  0  0  0
   -5.5780   20.5160  -32.0050 C   0  0  0  0  0  0  0  0  0  0  0  0
   -5.7070   19.1350  -32.5350 C   0  0  0  0  0  0  0  0  0  0  0  0
   -6.9080   18.4050  -32.3470 C   0  0  0  0  0  0  0  0  0  0  0  0
   -7.0390   17.1000  -32.8430 C   0  0  0  0  0  0  0  0  0  0  0  0
   -5.9610   16.5430  -33.5220 C   0  0  0  0  0  0  0  0  0  0  0  0
   -5.8390   15.0180  -34.2080 S   0  0  0  0  0  0  0  0  0  0  0  0
   -4.2530   15.2230  -34.7750 C   0  0  0  0  0  0  0  0  0  0  0  0
   -3.4710   14.2040  -35.5200 C   0  0  0  0  0  0  0  0  0  0  0  0
   -3.5590   12.8190  -35.1590 N   0  0  0  0  0  0  0  0  0  0  0  0
   -2.6960   14.5560  -36.5030 N   0  0  0  0  0  0  0  0  0  0  0  0
   -3.8110   16.5030  -34.4200 C   0  0  0  0  0  0  0  0  0  0  0  0
   -4.7790   17.2330  -33.7190 C   0  0  0  0  0  0  0  0  0  0  0  0
   -4.6330   18.5340  -33.2310 C   0  0  0  0  0  0  0  0  0  0  0  0
   -4.4110   20.9190  -31.3320 C   0  0  0  0  0  0  0  0  0  0  0  0
   -4.2900   22.2200  -30.8360 C   0  0  0  0  0  0  0  0  0  0  0  0
   -3.4870   26.0320  -31.2240 H   0  0  0  0  0  0  0  0  0  0  0  0
   -7.3184   23.4654  -31.8132 H   0  0  0  0  0  0  0  0  0  0  0  0
   -7.5397   21.1475  -32.6983 H   0  0  0  0  0  0  0  0  0  0  0  0
   -7.7465   18.8677  -31.8059 H   0  0  0  0  0  0  0  0  0  0  0  0
   -7.9699   16.5320  -32.6988 H   0  0  0  0  0  0  0  0  0  0  0  0
   -4.0960   12.5020  -34.3240 H   0  0  0  0  0  0  0  0  0  0  0  0
   -3.0410   12.0950  -35.7060 H   0  0  0  0  0  0  0  0  0  0  0  0
   -2.6060   15.5500  -36.8080 H   0  0  0  0  0  0  0  0  0  0  0  0
   -2.1420   13.8420  -37.0270 H   0  0  0  0  0  0  0  0  0  0  0  0
   -2.8121   16.8930  -34.6650 H   0  0  0  0  0  0  0  0  0  0  0  0
   -3.6934   19.0844  -33.3865 H   0  0  0  0  0  0  0  0  0  0  0  0
   -3.5863   20.2042  -31.1947 H   0  0  0  0  0  0  0  0  0  0  0  0
   -3.3700   22.5248  -30.3158 H   0  0  0  0  0  0  0  0  0  0  0  0
  1  2  1  0
  2  3  2  0
  2  4  2  0
  2  5  1  0
  5  6  2  0
  6  7  1  0
  7  8  2  0
  8  9  1  0
  9 10  2  0
 10 11  1  0
 11 12  2  0
 12 13  1  0
 13 14  1  0
 14 15  1  0
 15 16  1  0
 15 17  2  0
 14 18  2  0
 18 19  1  0
 19 20  2  0
  8 21  1  0
 21 22  2  0
 22  5  1  0
 20  9  1  0
 19 12  1  0
  1 23  1  0
  6 24  1  0
  7 25  1  0
 10 26  1  0
 11 27  1  0
 16 28  1  0
 16 29  1  0
 17 30  1  0
 17 31  1  0
 18 32  1  0
 20 33  1  0
 21 34  1  0
 22 35  1  0
M  CHG  2   1  -1  17   1
M  END
>  <UniqueID>  (1) 
1

>  <SMILES>  (1) 
[NH-]S(=O)(=O)c1ccc(-c2ccc3sc(C(N)=[NH2+])cc3c2)cc1

>  <Energy>  (1) 
72.63849580259111

>  <Genealogy>  (1) 
[NH-]S(=O)(=O)c1ccc(-c2ccc3sc(C(N)=[NH2+])cc3c2)cc1 (protonated)
[NH-]S(=O)(=O)c1ccc(-c2ccc3sc(C(N)=[NH2+])cc3c2)cc1 (3D coordinates assigned)
[NH-]S(=O)(=O)c1ccc(-c2ccc3sc(C(N)=[NH2+])cc3c2)cc1 (optimized conformer: 72.63849580259111 kcal/mol)

>  <smiles>  (1) 
N=C(N)c1cc2cc(-c3ccc(S(N)(=O)=O)cc3)ccc2s1

>  <score_type>  (1) 
oracle

>  <origin>  (1) 
adgpu

>  <m_score__min__energy>  (1) 
-9.6799999999999997

>  <m_primary>  (1) 
energy

$$$$
1:0
     RDKit          3D

 66 69  0  0  0  0  0  0  0  0999 V2000
   -0.2320   24.2920  -28.0170 C   0  0  0  0  0  0  0  0  0  0  0  0
   -1.7170   24.2090  -27.6050 C   0  0  0  0  0  0  0  0  0  0  0  0
   -1.8960   25.1540  -26.3880 C   0  0  0  0  0  0  0  0  0  0  0  0
   -2.6220   24.7120  -28.7660 C   0  0  0  0  0  0  0  0  0  0  0  0
   -4.0160   24.0880  -28.6740 C   0  0  0  0  0  0  0  0  0  0  0  0
   -5.1320   24.8230  -29.8740 S   0  0  0  0  0  0  0  0  0  0  0  0
   -6.1000   25.7280  -29.1640 O   0  0  0  0  0  0  0  0  0  0  0  0
   -4.3350   25.6610  -30.8360 O   0  0  0  0  0  0  0  0  0  0  0  0
   -6.0080   23.5840  -30.7840 C   0  0  0  0  0  0  0  0  0  0  0  0
   -7.4000   23.4970  -30.6470 C   0  0  0  0  0  0  0  0  0  0  0  0
   -8.1260   22.5570  -31.3790 C   0  0  0  0  0  0  0  0  0  0  0  0
   -7.4670   21.6830  -32.2430 C   0  0  0  0  0  0  0  0  0  0  0  0
   -6.0730   21.7300  -32.3740 C   0  0  0  0  0  0  0  0  0  0  0  0
   -5.4260   20.8210  -33.2780 N   0  0  0  0  0  0  0  0  0  0  0  0
   -5.6050   19.3970  -33.2180 C   0  0  0  0  0  0  0  0  0  0  0  0
   -6.5230   18.9050  -32.5060 O   0  0  0  0  0  0  0  0  0  0  0  0
   -4.7460   18.4970  -34.0080 C   0  0  0  0  0  0  0  0  0  0  0  0
   -5.1330   17.5560  -34.9460 C   0  0  0  0  0  0  0  0  0  0  0  0
   -4.0370   16.9480  -35.4410 N   0  0  0  0  0  0  0  0  0  0  0  0
   -2.9800   17.4850  -34.8510 N   0  0  0  0  0  0  0  0  0  0  0  0
   -1.6090   17.0450  -35.0840 C   0  0  0  0  0  0  0  0  0  0  0  0
   -0.6500   17.9460  -34.3550 C   0  0  0  0  0  0  0  0  0  0  0  0
   -0.2180   19.1410  -34.9530 C   0  0  0  0  0  0  0  0  0  0  0  0
    0.6460   20.0010  -34.2670 C   0  0  0  0  0  0  0  0  0  0  0  0
    1.0740   19.6800  -32.9760 C   0  0  0  0  0  0  0  0  0  0  0  0
    0.6360   18.5020  -32.3670 C   0  0  0  0  0  0  0  0  0  0  0  0
   -0.2280   17.6380  -33.0480 C   0  0  0  0  0  0  0  0  0  0  0  0
   -0.6540   16.5050  -32.4330 F   0  0  0  0  0  0  0  0  0  0  0  0
   -3.3690   18.4230  -33.9690 C   0  0  0  0  0  0  0  0  0  0  0  0
   -5.3420   22.7040  -31.6620 C   0  0  0  0  0  0  0  0  0  0  0  0
   -3.9680   22.8130  -31.8530 O   0  0  0  0  0  0  0  0  0  0  0  0
   -3.9370   22.5620  -28.8480 C   0  0  0  0  0  0  0  0  0  0  0  0
   -2.6630   21.9190  -28.2040 C   0  0  0  0  0  0  0  0  0  0  0  0
   -3.0710   20.6050  -27.4980 C   0  0  0  0  0  0  0  0  0  0  0  0
   -1.6360   21.5350  -29.2960 C   0  0  0  0  0  0  0  0  0  0  0  0
   -2.0360   22.8110  -27.1920 N   0  0  0  0  0  0  0  0  0  0  0  0
    0.3972   24.3272  -27.1154 H   0  0  0  0  0  0  0  0  0  0  0  0
    0.0327   23.4072  -28.6146 H   0  0  0  0  0  0  0  0  0  0  0  0
   -0.0675   25.2007  -28.6146 H   0  0  0  0  0  0  0  0  0  0  0  0
   -1.7869   24.5779  -25.4573 H   0  0  0  0  0  0  0  0  0  0  0  0
   -1.1316   25.9443  -26.4218 H   0  0  0  0  0  0  0  0  0  0  0  0
   -2.8965   25.6100  -26.4218 H   0  0  0  0  0  0  0  0  0  0  0  0
   -2.7117   25.8067  -28.7057 H   0  0  0  0  0  0  0  0  0  0  0  0
   -2.1656   24.4187  -29.7229 H   0  0  0  0  0  0  0  0  0  0  0  0
   -4.4217   24.2964  -27.6730 H   0  0  0  0  0  0  0  0  0  0  0  0
   -7.9241   24.1749  -29.9572 H   0  0  0  0  0  0  0  0  0  0  0  0
   -9.2198   22.5052  -31.2745 H   0  0  0  0  0  0  0  0  0  0  0  0
   -8.0459   20.9514  -32.8258 H   0  0  0  0  0  0  0  0  0  0  0  0
   -4.9420   21.2260  -34.1110 H   0  0  0  0  0  0  0  0  0  0  0  0
   -6.1703   17.3389  -35.2407 H   0  0  0  0  0  0  0  0  0  0  0  0
   -1.4899   16.0142  -34.7188 H   0  0  0  0  0  0  0  0  0  0  0  0
   -1.3945   17.0853  -36.1621 H   0  0  0  0  0  0  0  0  0  0  0  0
   -0.5605   19.4019  -35.9652 H   0  0  0  0  0  0  0  0  0  0  0  0
    0.9889   20.9309  -34.7442 H   0  0  0  0  0  0  0  0  0  0  0  0
    1.7563   20.3555  -32.4392 H   0  0  0  0  0  0  0  0  0  0  0  0
    0.9712   18.2530  -31.3494 H   0  0  0  0  0  0  0  0  0  0  0  0
   -2.7063   19.0247  -33.3296 H   0  0  0  0  0  0  0  0  0  0  0  0
   -4.8261   22.1130  -28.3812 H   0  0  0  0  0  0  0  0  0  0  0  0
   -3.8847   22.3645  -29.9289 H   0  0  0  0  0  0  0  0  0  0  0  0
   -3.0273   20.7456  -26.4079 H   0  0  0  0  0  0  0  0  0  0  0  0
   -4.0957   20.3337  -27.7920 H   0  0  0  0  0  0  0  0  0  0  0  0
   -2.3802   19.8010  -27.7920 H   0  0  0  0  0  0  0  0  0  0  0  0
   -0.7072   21.1877  -28.8199 H   0  0  0  0  0  0  0  0  0  0  0  0
   -2.0500   20.7309  -29.9222 H   0  0  0  0  0  0  0  0  0  0  0  0
   -1.4208   22.4134  -29.9222 H   0  0  0  0  0  0  0  0  0  0  0  0
   -2.6650   22.8300  -26.3530 H   0  0  0  0  0  0  0  0  0  0  0  0
  1  2  1  0
  2  3  1  0
  2  4  1  0
  4  5  1  0
  5  6  1  0
  6  7  2  0
  6  8  2  0
  6  9  1  0
  9 10  2  0
 10 11  1  0
 11 12  2  0
 12 13  1  0
 13 14  1  0
 14 15  1  0
 15 16  2  0
 15 17  1  0
 17 18  1  0
 18 19  2  0
 19 20  1  0
 20 21  1  0
 21 22  1  0
 22 23  2  0
 23 24  1  0
 24 25  2  0
 25 26  1  0
 26 27  2  0
 27 28  1  0
 20 29  1  0
 13 30  2  0
 30 31  1  0
  5 32  1  0
 32 33  1  0
 33 34  1  0
 33 35  1  0
 33 36  1  0
 36  2  1  0
 30  9  1  0
 29 17  2  0
 27 22  1  0
  1 37  1  0
  1 38  1  0
  1 39  1  0
  3 40  1  0
  3 41  1  0
  3 42  1  0
  4 43  1  0
  4 44  1  0
  5 45  1  0
 10 46  1  0
 11 47  1  0
 12 48  1  0
 14 49  1  0
 18 50  1  0
 21 51  1  0
 21 52  1  0
 23 53  1  0
 24 54  1  0
 25 55  1  0
 26 56  1  0
 29 57  1  0
 32 58  1  0
 32 59  1  0
 34 60  1  0
 34 61  1  0
 34 62  1  0
 35 63  1  0
 35 64  1  0
 35 65  1  0
 36 66  1  0
M  CHG  1  31  -1
M  END
>  <UniqueID>  (2) 
2

>  <SMILES>  (2) 
CC1(C)CC(S(=O)(=O)c2cccc(NC(=O)c3cnn(Cc4ccccc4F)c3)c2[O-])CC(C)(C)N1

>  <Energy>  (2) 
108.47576516389536

>  <Genealogy>  (2) 
CC1(C)CC(S(=O)(=O)c2cccc(NC(=O)c3cnn(Cc4ccccc4F)c3)c2[O-])CC(C)(C)N1 (protonated)
CC1(C)CC(S(=O)(=O)c2cccc(NC(=O)c3cnn(Cc4ccccc4F)c3)c2[O-])CC(C)(C)N1 (3D coordinates assigned)
CC1(C)CC(S(=O)(=O)c2cccc(NC(=O)c3cnn(Cc4ccccc4F)c3)c2[O-])CC(C)(C)N1 (nonaromatic ring conformer: 108.47576516389536 kcal/mol)

>  <smiles>  (2) 
CC1(C)CC(S(=O)(=O)c2cccc(NC(=O)c3cnn(Cc4ccccc4F)c3)c2O)CC(C)(C)N1

>  <score_type>  (2) 
oracle

>  <origin>  (2) 
adgpu

>  <m_score__min__energy>  (2) 
-12.56

>  <m_primary>  (2) 
energy

$$$$
2:0
     RDKit          3D

 58 62  0  0  0  0  0  0  0  0999 V2000
   -1.2490   26.4170  -28.7660 O   0  0  0  0  0  0  0  0  0  0  0  0
   -1.2060   25.1790  -28.5410 C   0  0  0  0  0  0  0  0  0  0  0  0
   -0.1210   24.3390  -28.9430 N   0  0  0  0  0  0  0  0  0  0  0  0
   -0.5260   23.0420  -28.4870 C   0  0  0  0  0  0  0  0  0  0  0  0
    0.1880   21.8560  -28.6560 C   0  0  0  0  0  0  0  0  0  0  0  0
   -0.3680   20.6570  -28.1600 C   0  0  0  0  0  0  0  0  0  0  0  0
    0.4490   19.1210  -28.4270 S   0  0  0  0  0  0  0  0  0  0  0  0
    1.6420   19.0110  -27.5190 O   0  0  0  0  0  0  0  0  0  0  0  0
   -0.4840   17.9790  -28.1340 O   0  0  0  0  0  0  0  0  0  0  0  0
    0.9790   19.0610  -30.0710 N   0  0  0  0  0  0  0  0  0  0  0  0
    0.0530   19.1540  -31.1530 C   0  0  0  0  0  0  0  0  0  0  0  0
   -0.0740   18.1070  -32.0770 C   0  0  0  0  0  0  0  0  0  0  0  0
   -1.0200   18.1890  -33.0990 C   0  0  0  0  0  0  0  0  0  0  0  0
   -1.8540   19.3070  -33.1980 C   0  0  0  0  0  0  0  0  0  0  0  0
   -1.7360   20.3680  -32.2810 C   0  0  0  0  0  0  0  0  0  0  0  0
   -2.6630   21.5230  -32.3530 C   0  0  0  0  0  0  0  0  0  0  0  0
   -3.1350   21.8710  -33.4700 O   0  0  0  0  0  0  0  0  0  0  0  0
   -3.0160   22.2610  -31.1720 N   0  0  0  0  0  0  0  0  0  0  0  0
   -4.2820   22.9240  -31.0010 C   0  0  0  0  0  0  0  0  0  0  0  0
   -4.3170   24.2100  -30.4380 C   0  0  0  0  0  0  0  0  0  0  0  0
   -5.5360   24.8650  -30.2430 C   0  0  0  0  0  0  0  0  0  0  0  0
   -6.7330   24.2390  -30.5940 C   0  0  0  0  0  0  0  0  0  0  0  0
   -6.7180   22.9450  -31.1330 C   0  0  0  0  0  0  0  0  0  0  0  0
   -8.2310   22.1360  -31.5450 S   0  0  0  0  0  0  0  0  0  0  0  0
   -9.1870   23.1440  -32.1220 O   0  0  0  0  0  0  0  0  0  0  0  0
   -8.8520   21.5760  -30.2910 O   0  0  0  0  0  0  0  0  0  0  0  0
   -7.9900   20.8350  -32.6970 N   0  0  0  0  0  0  0  0  0  0  0  0
   -9.2030   20.0230  -32.8390 C   0  0  0  0  0  0  0  0  0  0  0  0
   -9.0530   18.7860  -31.9630 C   0  0  0  0  0  0  0  0  0  0  0  0
   -7.5840   18.7110  -31.6020 C   0  0  0  0  0  0  0  0  0  0  0  0
   -6.9320   19.9190  -32.2570 C   0  0  0  0  0  0  0  0  0  0  0  0
   -5.4940   22.2920  -31.3350 C   0  0  0  0  0  0  0  0  0  0  0  0
   -0.7620   20.2870  -31.2650 C   0  0  0  0  0  0  0  0  0  0  0  0
   -1.6250   20.6760  -27.5110 C   0  0  0  0  0  0  0  0  0  0  0  0
   -2.3300   21.8820  -27.3510 C   0  0  0  0  0  0  0  0  0  0  0  0
   -1.7540   23.0480  -27.8510 C   0  0  0  0  0  0  0  0  0  0  0  0
   -2.2380   24.4120  -27.8590 C   0  0  0  0  0  0  0  0  0  0  0  0
   -3.3250   24.8410  -27.3910 O   0  0  0  0  0  0  0  0  0  0  0  0
    1.1633   21.8549  -29.1648 H   0  0  0  0  0  0  0  0  0  0  0  0
    0.5725   17.2207  -31.9960 H   0  0  0  0  0  0  0  0  0  0  0  0
   -1.1102   17.3715  -33.8294 H   0  0  0  0  0  0  0  0  0  0  0  0
   -2.6073   19.3575  -33.9980 H   0  0  0  0  0  0  0  0  0  0  0  0
   -2.2780   22.4060  -30.4480 H   0  0  0  0  0  0  0  0  0  0  0  0
   -3.3784   24.7052  -30.1485 H   0  0  0  0  0  0  0  0  0  0  0  0
   -5.5521   25.8768  -29.8117 H   0  0  0  0  0  0  0  0  0  0  0  0
   -7.6897   24.7618  -30.4475 H   0  0  0  0  0  0  0  0  0  0  0  0
  -10.0797   20.6037  -32.5163 H   0  0  0  0  0  0  0  0  0  0  0  0
   -9.3430   19.7296  -33.8899 H   0  0  0  0  0  0  0  0  0  0  0  0
   -9.6660   18.8832  -31.0549 H   0  0  0  0  0  0  0  0  0  0  0  0
   -9.3883   17.8776  -32.4848 H   0  0  0  0  0  0  0  0  0  0  0  0
   -7.4556   18.7518  -30.5103 H   0  0  0  0  0  0  0  0  0  0  0  0
   -7.1306   17.7702  -31.9475 H   0  0  0  0  0  0  0  0  0  0  0  0
   -6.2786   20.4269  -31.5324 H   0  0  0  0  0  0  0  0  0  0  0  0
   -6.3258   19.6006  -33.1179 H   0  0  0  0  0  0  0  0  0  0  0  0
   -5.4810   21.2768  -31.7583 H   0  0  0  0  0  0  0  0  0  0  0  0
   -0.6415   21.1192  -30.5558 H   0  0  0  0  0  0  0  0  0  0  0  0
   -2.0548   19.7386  -27.1280 H   0  0  0  0  0  0  0  0  0  0  0  0
   -3.3071   21.9043  -26.8462 H   0  0  0  0  0  0  0  0  0  0  0  0
  1  2  2  0
  2  3  1  0
  3  4  1  0
  4  5  2  0
  5  6  1  0
  6  7  1  0
  7  8  2  0
  7  9  2  0
  7 10  1  0
 10 11  1  0
 11 12  2  0
 12 13  1  0
 13 14  2  0
 14 15  1  0
 15 16  1  0
 16 17  2  0
 16 18  1  0
 18 19  1  0
 19 20  2  0
 20 21  1  0
 21 22  2  0
 22 23  1  0
 23 24  1  0
 24 25  2  0
 24 26  2  0
 24 27  1  0
 27 28  1  0
 28 29  1  0
 29 30  1  0
 30 31  1  0
 23 32  2  0
 15 33  2  0
  6 34  2  0
 34 35  1  0
 35 36  2  0
 36 37  1  0
 37 38  2  0
 37  2  1  0
 36  4  1  0
 33 11  1  0
 32 19  1  0
 31 27  1  0
  5 39  1  0
 12 40  1  0
 13 41  1  0
 14 42  1  0
 18 43  1  0
 20 44  1  0
 21 45  1  0
 22 46  1  0
 28 47  1  0
 28 48  1  0
 29 49  1  0
 29 50  1  0
 30 51  1  0
 30 52  1  0
 31 53  1  0
 31 54  1  0
 32 55  1  0
 33 56  1  0
 34 57  1  0
 35 58  1  0
M  CHG  2   3  -1  10  -1
M  END
>  <UniqueID>  (3) 
3

>  <SMILES>  (3) 
O=C1[N-]c2cc(S(=O)(=O)[N-]c3cccc(C(=O)Nc4cccc(S(=O)(=O)N5CCCC5)c4)c3)ccc2C1=O

>  <Energy>  (3) 
104.8292094592045

>  <Genealogy>  (3) 
O=C1[N-]c2cc(S(=O)(=O)[N-]c3cccc(C(=O)Nc4cccc(S(=O)(=O)N5CCCC5)c4)c3)ccc2C1=O (protonated)
O=C1[N-]c2cc(S(=O)(=O)[N-]c3cccc(C(=O)Nc4cccc(S(=O)(=O)N5CCCC5)c4)c3)ccc2C1=O (3D coordinates assigned)
O=C1[N-]c2cc(S(=O)(=O)[N-]c3cccc(C(=O)Nc4cccc(S(=O)(=O)N5CCCC5)c4)c3)ccc2C1=O (nonaromatic ring conformer: 104.8292094592045 kcal/mol)

>  <smiles>  (3) 
O=C1Nc2cc(S(=O)(=O)Nc3cccc(C(=O)Nc4cccc(S(=O)(=O)N5CCCC5)c4)c3)ccc2C1=O

>  <score_type>  (3) 
oracle

>  <origin>  (3) 
adgpu

>  <m_score__min__energy>  (3) 
-12.91

>  <m_primary>  (3) 
energy

$$$$
3:0
     RDKit          3D

 28 29  0  0  0  0  0  0  0  0999 V2000
   -4.5790   25.6870  -30.6800 O   0  0  0  0  0  0  0  0  0  0  0  0
   -3.7860   24.7350  -30.4630 C   0  0  0  0  0  0  0  0  0  0  0  0
   -4.0100   23.5230  -31.0310 N   0  0  0  0  0  0  0  0  0  0  0  0
   -3.1720   22.4730  -30.8220 C   0  0  0  0  0  0  0  0  0  0  0  0
   -3.4700   21.1710  -31.5130 C   0  0  0  0  0  0  0  0  0  0  0  0
   -4.0670   21.4240  -33.2270 S   0  0  0  0  0  0  0  0  0  0  0  0
   -5.4360   20.2060  -33.1980 C   0  0  0  0  0  0  0  0  0  0  0  0
   -6.7010   20.7860  -32.6230 C   0  0  0  0  0  0  0  0  0  0  0  0
   -7.8490   19.9860  -32.4930 C   0  0  0  0  0  0  0  0  0  0  0  0
   -9.0290   20.5220  -31.9650 C   0  0  0  0  0  0  0  0  0  0  0  0
   -9.0770   21.8640  -31.5800 C   0  0  0  0  0  0  0  0  0  0  0  0
   -7.9510   22.6750  -31.7340 C   0  0  0  0  0  0  0  0  0  0  0  0
   -6.7710   22.1450  -32.2640 C   0  0  0  0  0  0  0  0  0  0  0  0
   -2.0550   22.6430  -29.9760 C   0  0  0  0  0  0  0  0  0  0  0  0
   -1.1730   21.6030  -29.6750 O   0  0  0  0  0  0  0  0  0  0  0  0
   -1.8390   23.9070  -29.4150 C   0  0  0  0  0  0  0  0  0  0  0  0
   -0.8450   24.1090  -28.6680 O   0  0  0  0  0  0  0  0  0  0  0  0
   -2.7030   24.9220  -29.6670 N   0  0  0  0  0  0  0  0  0  0  0  0
   -2.5516   20.5663  -31.5425 H   0  0  0  0  0  0  0  0  0  0  0  0
   -4.2644   20.6609  -30.9485 H   0  0  0  0  0  0  0  0  0  0  0  0
   -5.6351   19.8722  -34.2271 H   0  0  0  0  0  0  0  0  0  0  0  0
   -5.1277   19.3665  -32.5575 H   0  0  0  0  0  0  0  0  0  0  0  0
   -7.8199   18.9325  -32.8081 H   0  0  0  0  0  0  0  0  0  0  0  0
   -9.9195   19.8860  -31.8530 H   0  0  0  0  0  0  0  0  0  0  0  0
  -10.0018   22.2817  -31.1555 H   0  0  0  0  0  0  0  0  0  0  0  0
   -7.9925   23.7335  -31.4376 H   0  0  0  0  0  0  0  0  0  0  0  0
   -5.8930   22.7933  -32.4011 H   0  0  0  0  0  0  0  0  0  0  0  0
   -0.3840   21.7110  -29.0520 H   0  0  0  0  0  0  0  0  0  0  0  0
  1  2  2  0
  2  3  1  0
  3  4  1  0
  4  5  1  0
  5  6  1  0
  6  7  1  0
  7  8  1  0
  8  9  2  0
  9 10  1  0
 10 11  2  0
 11 12  1  0
 12 13  2  0
  4 14  2  0
 14 15  1  0
 14 16  1  0
 16 17  2  0
 16 18  1  0
 18  2  1  0
 13  8  1  0
  5 19  1  0
  5 20  1  0
  7 21  1  0
  7 22  1  0
  9 23  1  0
 10 24  1  0
 11 25  1  0
 12 26  1  0
 13 27  1  0
 15 28  1  0
M  CHG  2   3  -1  18  -1
M  END
>  <UniqueID>  (4) 
4

>  <SMILES>  (4) 
O=c1[n-]c(CSCc2ccccc2)c(O)c(=O)[n-]1

>  <Energy>  (4) 
25.894335859531616

>  <Genealogy>  (4) 
O=c1[n-]c(CSCc2ccccc2)c(O)c(=O)[n-]1 (protonated)
O=c1[n-]c(CSCc2ccccc2)c(O)c(=O)[n-]1 (3D coordinates assigned)
O=c1[n-]c(CSCc2ccccc2)c(O)c(=O)[n-]1 (optimized conformer: 25.894335859531616 kcal/mol)

>  <smiles>  (4) 
O=c1[nH]c(CSCc2ccccc2)c(O)c(=O)[nH]1

>  <score_type>  (4) 
oracle

>  <origin>  (4) 
adgpu

>  <m_score__min__energy>  (4) 
-8.8800000000000008

>  <m_primary>  (4) 
energy

$$$$
4:0
     RDKit          3D

 53 56  0  0  0  0  0  0  0  0999 V2000
   -0.1120   19.4440  -29.1920 C   0  0  0  0  0  0  0  0  0  0  0  0
    0.0410   20.0200  -27.8430 N   0  0  0  0  0  0  0  0  0  0  0  0
   -1.0810   19.6730  -26.9470 C   0  0  0  0  0  0  0  0  0  0  0  0
   -2.4140   20.2780  -27.4110 C   0  0  0  0  0  0  0  0  0  0  0  0
   -2.2690   21.7090  -27.8580 C   0  0  0  0  0  0  0  0  0  0  0  0
   -3.4230   22.4750  -28.0750 C   0  0  0  0  0  0  0  0  0  0  0  0
   -3.3340   23.7720  -28.5990 C   0  0  0  0  0  0  0  0  0  0  0  0
   -4.5130   24.5330  -28.8700 N   0  0  0  0  0  0  0  0  0  0  0  0
   -5.0580   24.8690  -30.4830 S   0  0  0  0  0  0  0  0  0  0  0  0
   -6.3080   25.7040  -30.4170 O   0  0  0  0  0  0  0  0  0  0  0  0
   -4.0010   25.6580  -31.2050 O   0  0  0  0  0  0  0  0  0  0  0  0
   -5.3820   23.3750  -31.3710 C   0  0  0  0  0  0  0  0  0  0  0  0
   -4.2990   22.5940  -31.8040 C   0  0  0  0  0  0  0  0  0  0  0  0
   -4.5160   21.3650  -32.4400 C   0  0  0  0  0  0  0  0  0  0  0  0
   -3.1440   20.3880  -32.9710 S   0  0  0  0  0  0  0  0  0  0  0  0
   -3.5270   19.6350  -34.2170 O   0  0  0  0  0  0  0  0  0  0  0  0
   -2.8140   19.3790  -31.9050 O   0  0  0  0  0  0  0  0  0  0  0  0
   -1.7300   21.3670  -33.2980 N   0  0  0  0  0  0  0  0  0  0  0  0
   -0.8710   20.7380  -34.3080 C   0  0  0  0  0  0  0  0  0  0  0  0
    0.2710   20.0230  -33.5960 C   0  0  0  0  0  0  0  0  0  0  0  0
    0.2220   20.4950  -32.1550 C   0  0  0  0  0  0  0  0  0  0  0  0
   -0.9030   21.5190  -32.0950 C   0  0  0  0  0  0  0  0  0  0  0  0
   -5.8270   20.9150  -32.6470 C   0  0  0  0  0  0  0  0  0  0  0  0
   -6.9100   21.6870  -32.2210 C   0  0  0  0  0  0  0  0  0  0  0  0
   -6.6950   22.9100  -31.5770 C   0  0  0  0  0  0  0  0  0  0  0  0
   -7.7910   23.6410  -31.1300 O   0  0  0  0  0  0  0  0  0  0  0  0
   -2.0730   24.3330  -28.8430 C   0  0  0  0  0  0  0  0  0  0  0  0
   -1.9660   25.6350  -29.3220 O   0  0  0  0  0  0  0  0  0  0  0  0
   -0.9170   23.5820  -28.6180 C   0  0  0  0  0  0  0  0  0  0  0  0
   -1.0050   22.2590  -28.1570 C   0  0  0  0  0  0  0  0  0  0  0  0
    0.2620   21.4800  -27.8870 C   0  0  0  0  0  0  0  0  0  0  0  0
   -0.3936   18.3839  -29.1083 H   0  0  0  0  0  0  0  0  0  0  0  0
   -0.8963   19.9898  -29.7369 H   0  0  0  0  0  0  0  0  0  0  0  0
    0.8398   19.5286  -29.7369 H   0  0  0  0  0  0  0  0  0  0  0  0
   -1.1823   18.5781  -26.9166 H   0  0  0  0  0  0  0  0  0  0  0  0
   -0.8547   20.0864  -25.9531 H   0  0  0  0  0  0  0  0  0  0  0  0
   -2.7989   19.6823  -28.2518 H   0  0  0  0  0  0  0  0  0  0  0  0
   -3.1060   20.2616  -26.5561 H   0  0  0  0  0  0  0  0  0  0  0  0
   -4.4093   22.0534  -27.8313 H   0  0  0  0  0  0  0  0  0  0  0  0
   -3.2709   22.9502  -31.6425 H   0  0  0  0  0  0  0  0  0  0  0  0
   -1.4559   20.0124  -34.8923 H   0  0  0  0  0  0  0  0  0  0  0  0
   -0.4696   21.5025  -34.9895 H   0  0  0  0  0  0  0  0  0  0  0  0
    0.1310   18.9331  -33.6467 H   0  0  0  0  0  0  0  0  0  0  0  0
    1.2417   20.2478  -34.0621 H   0  0  0  0  0  0  0  0  0  0  0  0
    0.0090   19.6513  -31.4821 H   0  0  0  0  0  0  0  0  0  0  0  0
    1.1820   20.9274  -31.8365 H   0  0  0  0  0  0  0  0  0  0  0  0
   -1.5159   21.3459  -31.1981 H   0  0  0  0  0  0  0  0  0  0  0  0
   -0.4871   22.5362  -32.0474 H   0  0  0  0  0  0  0  0  0  0  0  0
   -6.0035   19.9509  -33.1465 H   0  0  0  0  0  0  0  0  0  0  0  0
   -7.9368   21.3317  -32.3927 H   0  0  0  0  0  0  0  0  0  0  0  0
    0.0700   24.0308  -28.8035 H   0  0  0  0  0  0  0  0  0  0  0  0
    0.9867   21.7014  -28.6843 H   0  0  0  0  0  0  0  0  0  0  0  0
    0.6341   21.7874  -26.8985 H   0  0  0  0  0  0  0  0  0  0  0  0
  1  2  1  0
  2  3  1  0
  3  4  1  0
  4  5  1  0
  5  6  2  0
  6  7  1  0
  7  8  1  0
  8  9  1  0
  9 10  2  0
  9 11  2  0
  9 12  1  0
 12 13  2  0
 13 14  1  0
 14 15  1  0
 15 16  2  0
 15 17  2  0
 15 18  1  0
 18 19  1  0
 19 20  1  0
 20 21  1  0
 21 22  1  0
 14 23  2  0
 23 24  1  0
 24 25  2  0
 25 26  1  0
  7 27  2  0
 27 28  1  0
 27 29  1  0
 29 30  2  0
 30 31  1  0
 31  2  1  0
 30  5  1  0
 25 12  1  0
 22 18  1  0
  1 32  1  0
  1 33  1  0
  1 34  1  0
  3 35  1  0
  3 36  1  0
  4 37  1  0
  4 38  1  0
  6 39  1  0
 13 40  1  0
 19 41  1  0
 19 42  1  0
 20 43  1  0
 20 44  1  0
 21 45  1  0
 21 46  1  0
 22 47  1  0
 22 48  1  0
 23 49  1  0
 24 50  1  0
 29 51  1  0
 31 52  1  0
 31 53  1  0
M  CHG  3   8  -1  26  -1  28  -1
M  END
>  <UniqueID>  (5) 
5

>  <SMILES>  (5) 
CN1CCc2cc([N-]S(=O)(=O)c3cc(S(=O)(=O)N4CCCC4)ccc3[O-])c([O-])cc2C1

>  <Energy>  (5) 
68.01506750349779

>  <Genealogy>  (5) 
CN1CCc2cc([N-]S(=O)(=O)c3cc(S(=O)(=O)N4CCCC4)ccc3[O-])c([O-])cc2C1 (protonated)
CN1CCc2cc([N-]S(=O)(=O)c3cc(S(=O)(=O)N4CCCC4)ccc3[O-])c([O-])cc2C1 (3D coordinates assigned)
CN1CCc2cc([N-]S(=O)(=O)c3cc(S(=O)(=O)N4CCCC4)ccc3[O-])c([O-])cc2C1 (nonaromatic ring conformer: 68.01506750349779 kcal/mol)

>  <smiles>  (5) 
CN1CCc2cc(NS(=O)(=O)c3cc(S(=O)(=O)N4CCCC4)ccc3O)c(O)cc2C1

>  <score_type>  (5) 
oracle

>  <origin>  (5) 
adgpu

>  <m_score__min__energy>  (5) 
-13.67

>  <m_primary>  (5) 
energy

$$$$
5:0
     RDKit          3D

 65 69  0  0  0  0  0  0  0  0999 V2000
   -1.4090   20.6810  -25.5240 C   0  0  0  0  0  0  0  0  0  0  0  0
   -0.6280   20.4230  -26.7480 N   0  0  0  0  0  0  0  0  0  0  0  0
   -1.4110   19.7290  -27.7890 C   0  0  0  0  0  0  0  0  0  0  0  0
   -2.5800   20.5830  -28.3080 C   0  0  0  0  0  0  0  0  0  0  0  0
   -2.1710   22.0120  -28.5650 C   0  0  0  0  0  0  0  0  0  0  0  0
   -3.0400   22.8520  -29.2780 C   0  0  0  0  0  0  0  0  0  0  0  0
   -2.7060   24.2000  -29.5100 C   0  0  0  0  0  0  0  0  0  0  0  0
   -3.5760   25.0860  -30.2280 N   0  0  0  0  0  0  0  0  0  0  0  0
   -5.2960   24.9210  -30.4160 S   0  0  0  0  0  0  0  0  0  0  0  0
   -5.9100   24.9880  -29.0460 O   0  0  0  0  0  0  0  0  0  0  0  0
   -5.8350   26.0550  -31.2400 O   0  0  0  0  0  0  0  0  0  0  0  0
   -5.7220   23.3730  -31.1460 C   0  0  0  0  0  0  0  0  0  0  0  0
   -4.7820   22.6470  -31.9120 C   0  0  0  0  0  0  0  0  0  0  0  0
   -5.1000   21.3820  -32.4400 C   0  0  0  0  0  0  0  0  0  0  0  0
   -4.0830   20.6390  -33.1180 N   0  0  0  0  0  0  0  0  0  0  0  0
   -2.6830   20.9520  -33.0920 C   0  0  0  0  0  0  0  0  0  0  0  0
   -2.2660   21.8860  -33.8260 O   0  0  0  0  0  0  0  0  0  0  0  0
   -1.7130   20.2120  -32.2450 C   0  0  0  0  0  0  0  0  0  0  0  0
   -1.6200   18.8160  -32.3530 C   0  0  0  0  0  0  0  0  0  0  0  0
   -0.7120   18.1040  -31.5650 C   0  0  0  0  0  0  0  0  0  0  0  0
    0.1260   18.7820  -30.6680 C   0  0  0  0  0  0  0  0  0  0  0  0
    1.2430   17.8970  -29.6310 S   0  0  0  0  0  0  0  0  0  0  0  0
    1.6000   16.3160  -30.3630 C   0  0  0  0  0  0  0  0  0  0  0  0
    2.5250   18.6660  -29.4660 O   0  0  0  0  0  0  0  0  0  0  0  0
    0.6190   17.7020  -28.2780 O   0  0  0  0  0  0  0  0  0  0  0  0
    0.0550   20.1740  -30.5750 C   0  0  0  0  0  0  0  0  0  0  0  0
   -0.8470   20.8870  -31.3680 C   0  0  0  0  0  0  0  0  0  0  0  0
   -6.4060   20.8930  -32.2420 C   0  0  0  0  0  0  0  0  0  0  0  0
   -7.3140   21.6090  -31.4950 C   0  0  0  0  0  0  0  0  0  0  0  0
   -7.0070   22.8420  -30.9310 C   0  0  0  0  0  0  0  0  0  0  0  0
   -8.4970   20.9040  -31.4600 C   0  0  0  0  0  0  0  0  0  0  0  0
   -8.2540   19.7780  -32.2250 C   0  0  0  0  0  0  0  0  0  0  0  0
   -9.1920   18.7810  -32.4660 O   0  0  0  0  0  0  0  0  0  0  0  0
   -6.9930   19.7680  -32.7200 N   0  0  0  0  0  0  0  0  0  0  0  0
   -6.4380   18.7480  -33.6090 C   0  0  0  0  0  0  0  0  0  0  0  0
   -1.4980   24.7030  -29.0120 C   0  0  0  0  0  0  0  0  0  0  0  0
   -1.1560   26.0330  -29.2460 O   0  0  0  0  0  0  0  0  0  0  0  0
   -0.6400   23.8740  -28.2780 C   0  0  0  0  0  0  0  0  0  0  0  0
   -0.9790   22.5360  -28.0280 C   0  0  0  0  0  0  0  0  0  0  0  0
   -0.0050   21.6540  -27.2780 C   0  0  0  0  0  0  0  0  0  0  0  0
   -0.7858   20.4751  -24.6412 H   0  0  0  0  0  0  0  0  0  0  0  0
   -1.7301   21.7330  -25.5089 H   0  0  0  0  0  0  0  0  0  0  0  0
   -2.2936   20.0273  -25.5089 H   0  0  0  0  0  0  0  0  0  0  0  0
   -0.7456   19.4908  -28.6319 H   0  0  0  0  0  0  0  0  0  0  0  0
   -1.8336   18.8180  -27.3403 H   0  0  0  0  0  0  0  0  0  0  0  0
   -2.9486   20.1455  -29.2475 H   0  0  0  0  0  0  0  0  0  0  0  0
   -3.3629   20.5894  -27.5353 H   0  0  0  0  0  0  0  0  0  0  0  0
   -3.9916   22.4534  -29.6595 H   0  0  0  0  0  0  0  0  0  0  0  0
   -3.7869   23.0772  -32.0982 H   0  0  0  0  0  0  0  0  0  0  0  0
   -2.2662   18.2787  -33.0627 H   0  0  0  0  0  0  0  0  0  0  0  0
   -0.6544   17.0087  -31.6485 H   0  0  0  0  0  0  0  0  0  0  0  0
    1.7676   15.5737  -29.5687 H   0  0  0  0  0  0  0  0  0  0  0  0
    0.7505   16.0004  -30.9865 H   0  0  0  0  0  0  0  0  0  0  0  0
    2.5027   16.3961  -30.9865 H   0  0  0  0  0  0  0  0  0  0  0  0
    0.7119   20.7106  -29.8746 H   0  0  0  0  0  0  0  0  0  0  0  0
   -0.8797   21.9847  -31.3056 H   0  0  0  0  0  0  0  0  0  0  0  0
   -7.7500   23.3887  -30.3318 H   0  0  0  0  0  0  0  0  0  0  0  0
   -9.4272   21.1760  -30.9397 H   0  0  0  0  0  0  0  0  0  0  0  0
   -5.9975   17.9385  -33.0084 H   0  0  0  0  0  0  0  0  0  0  0  0
   -7.2384   18.3399  -34.2436 H   0  0  0  0  0  0  0  0  0  0  0  0
   -5.6606   19.1984  -34.2436 H   0  0  0  0  0  0  0  0  0  0  0  0
   -1.2460   26.4510  -30.1650 H   0  0  0  0  0  0  0  0  0  0  0  0
    0.3090   24.2762  -27.8938 H   0  0  0  0  0  0  0  0  0  0  0  0
    0.8075   21.3686  -27.9624 H   0  0  0  0  0  0  0  0  0  0  0  0
    0.3651   22.2311  -26.4178 H   0  0  0  0  0  0  0  0  0  0  0  0
  1  2  1  0
  2  3  1  0
  3  4  1  0
  4  5  1  0
  5  6  2  0
  6  7  1  0
  7  8  1  0
  8  9  1  0
  9 10  2  0
  9 11  2  0
  9 12  1  0
 12 13  2  0
 13 14  1  0
 14 15  1  0
 15 16  1  0
 16 17  2  0
 16 18  1  0
 18 19  2  0
 19 20  1  0
 20 21  2  0
 21 22  1  0
 22 23  1  0
 22 24  2  0
 22 25  2  0
 21 26  1  0
 26 27  2  0
 14 28  2  0
 28 29  1  0
 29 30  2  0
 29 31  1  0
 31 32  2  0
 32 33  1  0
 32 34  1  0
 34 35  1  0
  7 36  2  0
 36 37  1  0
 36 38  1  0
 38 39  2  0
 39 40  1  0
 40  2  1  0
 39  5  1  0
 30 12  1  0
 27 18  1  0
 34 28  1  0
  1 41  1  0
  1 42  1  0
  1 43  1  0
  3 44  1  0
  3 45  1  0
  4 46  1  0
  4 47  1  0
  6 48  1  0
 13 49  1  0
 19 50  1  0
 20 51  1  0
 23 52  1  0
 23 53  1  0
 23 54  1  0
 26 55  1  0
 27 56  1  0
 30 57  1  0
 31 58  1  0
 35 59  1  0
 35 60  1  0
 35 61  1  0
 37 62  1  0
 38 63  1  0
 40 64  1  0
 40 65  1  0
M  CHG  3   8  -1  15  -1  33  -1
M  END
>  <UniqueID>  (6) 
6

>  <SMILES>  (6) 
CN1CCc2cc([N-]S(=O)(=O)c3cc([N-]C(=O)c4ccc(S(C)(=O)=O)cc4)c4c(c3)cc([O-])n4C)c(O)cc2C1

>  <Energy>  (6) 
122.8836079416831

>  <Genealogy>  (6) 
CN1CCc2cc([N-]S(=O)(=O)c3cc([N-]C(=O)c4ccc(S(C)(=O)=O)cc4)c4c(c3)cc([O-])n4C)c(O)cc2C1 (protonated)
CN1CCc2cc([N-]S(=O)(=O)c3cc([N-]C(=O)c4ccc(S(C)(=O)=O)cc4)c4c(c3)cc([O-])n4C)c(O)cc2C1 (3D coordinates assigned)
CN1CCc2cc([N-]S(=O)(=O)c3cc([N-]C(=O)c4ccc(S(C)(=O)=O)cc4)c4c(c3)cc([O-])n4C)c(O)cc2C1 (nonaromatic ring conformer: 122.8836079416831 kcal/mol)

>  <smiles>  (6) 
CN1CCc2cc(NS(=O)(=O)c3cc(NC(=O)c4ccc(S(C)(=O)=O)cc4)c4c(c3)cc(O)n4C)c(O)cc2C1

>  <score_type>  (6) 
oracle

>  <origin>  (6) 
adgpu

>  <m_score__min__energy>  (6) 
-12.82

>  <m_primary>  (6) 
energy

$$$$
6:0
     RDKit          3D

 69 73  0  0  0  0  0  0  0  0999 V2000
    3.4410   25.3080  -35.1220 C   0  0  0  0  0  0  0  0  0  0  0  0
    3.1240   24.2150  -36.4880 S   0  0  0  0  0  0  0  0  0  0  0  0
    2.4470   24.9740  -37.5960 O   0  0  0  0  0  0  0  0  0  0  0  0
    4.4240   23.6630  -37.0040 O   0  0  0  0  0  0  0  0  0  0  0  0
    2.0830   22.9010  -35.9460 C   0  0  0  0  0  0  0  0  0  0  0  0
    2.6060   21.6090  -35.7900 C   0  0  0  0  0  0  0  0  0  0  0  0
    1.7760   20.5590  -35.3970 C   0  0  0  0  0  0  0  0  0  0  0  0
    0.4080   20.7820  -35.1660 C   0  0  0  0  0  0  0  0  0  0  0  0
   -0.4970   19.6270  -34.8270 C   0  0  0  0  0  0  0  0  0  0  0  0
   -0.9170   19.6960  -33.4180 N   0  0  0  0  0  0  0  0  0  0  0  0
    0.0320   19.7520  -32.3310 C   0  0  0  0  0  0  0  0  0  0  0  0
    1.2690   19.6680  -32.5780 O   0  0  0  0  0  0  0  0  0  0  0  0
   -0.3920   19.8670  -30.9260 C   0  0  0  0  0  0  0  0  0  0  0  0
   -1.1250   20.9860  -30.5000 C   0  0  0  0  0  0  0  0  0  0  0  0
   -1.5310   21.1090  -29.1590 C   0  0  0  0  0  0  0  0  0  0  0  0
   -2.3190   22.2830  -28.7030 C   0  0  0  0  0  0  0  0  0  0  0  0
   -3.2760   22.3070  -27.6880 C   0  0  0  0  0  0  0  0  0  0  0  0
   -3.8600   23.5660  -27.4970 C   0  0  0  0  0  0  0  0  0  0  0  0
   -3.3770   24.5420  -28.3570 C   0  0  0  0  0  0  0  0  0  0  0  0
   -2.2240   23.8350  -29.3550 S   0  0  0  0  0  0  0  0  0  0  0  0
   -1.1760   20.0990  -28.2470 C   0  0  0  0  0  0  0  0  0  0  0  0
   -0.4230   18.9970  -28.6630 C   0  0  0  0  0  0  0  0  0  0  0  0
   -0.0320   18.8740  -30.0000 C   0  0  0  0  0  0  0  0  0  0  0  0
    0.7060   17.7660  -30.4140 O   0  0  0  0  0  0  0  0  0  0  0  0
   -2.3050   19.9350  -33.1300 C   0  0  0  0  0  0  0  0  0  0  0  0
   -3.1140   18.9070  -32.6240 C   0  0  0  0  0  0  0  0  0  0  0  0
   -4.4710   19.1390  -32.3730 C   0  0  0  0  0  0  0  0  0  0  0  0
   -5.0290   20.4010  -32.6260 C   0  0  0  0  0  0  0  0  0  0  0  0
   -6.4590   20.6450  -32.3740 C   0  0  0  0  0  0  0  0  0  0  0  0
   -7.3900   19.7360  -32.8960 C   0  0  0  0  0  0  0  0  0  0  0  0
   -8.7580   19.9260  -32.6880 C   0  0  0  0  0  0  0  0  0  0  0  0
   -9.2080   21.0290  -31.9640 C   0  0  0  0  0  0  0  0  0  0  0  0
   -8.2940   21.9470  -31.4440 C   0  0  0  0  0  0  0  0  0  0  0  0
   -6.9120   21.7710  -31.6420 C   0  0  0  0  0  0  0  0  0  0  0  0
   -5.7870   22.9730  -30.9800 S   0  0  0  0  0  0  0  0  0  0  0  0
   -6.5880   23.9600  -29.7330 C   0  0  0  0  0  0  0  0  0  0  0  0
   -4.6130   22.2780  -30.3440 O   0  0  0  0  0  0  0  0  0  0  0  0
   -5.2810   23.8560  -32.0860 O   0  0  0  0  0  0  0  0  0  0  0  0
   -4.2270   21.4210  -33.1560 C   0  0  0  0  0  0  0  0  0  0  0  0
   -2.8700   21.1950  -33.3920 C   0  0  0  0  0  0  0  0  0  0  0  0
   -0.1100   22.0780  -35.3110 C   0  0  0  0  0  0  0  0  0  0  0  0
    0.7210   23.1310  -35.7060 C   0  0  0  0  0  0  0  0  0  0  0  0
    3.2844   24.7681  -34.1765 H   0  0  0  0  0  0  0  0  0  0  0  0
    4.4799   25.6659  -35.1722 H   0  0  0  0  0  0  0  0  0  0  0  0
    2.7548   26.1662  -35.1722 H   0  0  0  0  0  0  0  0  0  0  0  0
    3.6737   21.4232  -35.9781 H   0  0  0  0  0  0  0  0  0  0  0  0
    2.1950   19.5502  -35.2671 H   0  0  0  0  0  0  0  0  0  0  0  0
   -1.3872   19.6635  -35.4721 H   0  0  0  0  0  0  0  0  0  0  0  0
    0.0509   18.6870  -34.9887 H   0  0  0  0  0  0  0  0  0  0  0  0
   -1.3843   21.7743  -31.2220 H   0  0  0  0  0  0  0  0  0  0  0  0
   -3.5463   21.4214  -27.0941 H   0  0  0  0  0  0  0  0  0  0  0  0
   -4.6297   23.7625  -26.7362 H   0  0  0  0  0  0  0  0  0  0  0  0
   -3.6936   25.5952  -28.3814 H   0  0  0  0  0  0  0  0  0  0  0  0
   -1.4937   20.1768  -27.1968 H   0  0  0  0  0  0  0  0  0  0  0  0
   -0.1368   18.2232  -27.9354 H   0  0  0  0  0  0  0  0  0  0  0  0
    1.2510   17.7800  -31.2710 H   0  0  0  0  0  0  0  0  0  0  0  0
   -2.6807   17.9159  -32.4240 H   0  0  0  0  0  0  0  0  0  0  0  0
   -5.1017   18.3298  -31.9763 H   0  0  0  0  0  0  0  0  0  0  0  0
   -7.0407   18.8673  -33.4733 H   0  0  0  0  0  0  0  0  0  0  0  0
   -9.4811   19.2044  -33.0960 H   0  0  0  0  0  0  0  0  0  0  0  0
  -10.2860   21.1763  -31.8021 H   0  0  0  0  0  0  0  0  0  0  0  0
   -8.6571   22.8153  -30.8746 H   0  0  0  0  0  0  0  0  0  0  0  0
   -6.2953   23.5993  -28.7359 H   0  0  0  0  0  0  0  0  0  0  0  0
   -6.2844   25.0112  -29.8464 H   0  0  0  0  0  0  0  0  0  0  0  0
   -7.6792   23.8792  -29.8464 H   0  0  0  0  0  0  0  0  0  0  0  0
   -4.6681   22.4020  -33.3865 H   0  0  0  0  0  0  0  0  0  0  0  0
   -2.2399   22.0066  -33.7848 H   0  0  0  0  0  0  0  0  0  0  0  0
   -1.1754   22.2666  -35.1129 H   0  0  0  0  0  0  0  0  0  0  0  0
    0.3052   24.1420  -35.8287 H   0  0  0  0  0  0  0  0  0  0  0  0
  1  2  1  0
  2  3  2  0
  2  4  2  0
  2  5  1  0
  5  6  2  0
  6  7  1  0
  7  8  2  0
  8  9  1  0
  9 10  1  0
 10 11  1  0
 11 12  2  0
 11 13  1  0
 13 14  2  0
 14 15  1  0
 15 16  1  0
 16 17  2  0
 17 18  1  0
 18 19  2  0
 19 20  1  0
 15 21  2  0
 21 22  1  0
 22 23  2  0
 23 24  1  0
 10 25  1  0
 25 26  2  0
 26 27  1  0
 27 28  2  0
 28 29  1  0
 29 30  2  0
 30 31  1  0
 31 32  2  0
 32 33  1  0
 33 34  2  0
 34 35  1  0
 35 36  1  0
 35 37  2  0
 35 38  2  0
 28 39  1  0
 39 40  2  0
  8 41  1  0
 41 42  2  0
 42  5  1  0
 23 13  1  0
 40 25  1  0
 20 16  1  0
 34 29  1  0
  1 43  1  0
  1 44  1  0
  1 45  1  0
  6 46  1  0
  7 47  1  0
  9 48  1  0
  9 49  1  0
 14 50  1  0
 17 51  1  0
 18 52  1  0
 19 53  1  0
 21 54  1  0
 22 55  1  0
 24 56  1  0
 26 57  1  0
 27 58  1  0
 30 59  1  0
 31 60  1  0
 32 61  1  0
 33 62  1  0
 36 63  1  0
 36 64  1  0
 36 65  1  0
 39 66  1  0
 40 67  1  0
 41 68  1  0
 42 69  1  0
M  END
>  <UniqueID>  (7) 
7

>  <SMILES>  (7) 
CS(=O)(=O)c1ccc(CN(C(=O)c2cc(-c3cccs3)ccc2O)c2ccc(-c3ccccc3S(C)(=O)=O)cc2)cc1

>  <Energy>  (7) 
117.89226456242623

>  <Genealogy>  (7) 
CS(=O)(=O)c1ccc(CN(C(=O)c2cc(-c3cccs3)ccc2O)c2ccc(-c3ccccc3S(C)(=O)=O)cc2)cc1 (3D coordinates assigned)
CS(=O)(=O)c1ccc(CN(C(=O)c2cc(-c3cccs3)ccc2O)c2ccc(-c3ccccc3S(C)(=O)=O)cc2)cc1 (optimized conformer: 117.89226456242623 kcal/mol)

>  <smiles>  (7) 
CS(=O)(=O)c1ccc(CN(C(=O)c2cc(-c3cccs3)ccc2O)c2ccc(-c3ccccc3S(C)(=O)=O)cc2)cc1

>  <score_type>  (7) 
oracle

>  <origin>  (7) 
adgpu

>  <m_score__min__energy>  (7) 
-12.710000000000001

>  <m_primary>  (7) 
energy

$$$$
7:0
     RDKit          3D

 48 51  0  0  0  0  0  0  0  0999 V2000
   -5.7360   26.4380  -30.7440 O   0  0  0  0  0  0  0  0  0  0  0  0
   -5.3020   25.1550  -30.0930 S   0  0  0  0  0  0  0  0  0  0  0  0
   -5.4870   25.2710  -28.6060 O   0  0  0  0  0  0  0  0  0  0  0  0
   -3.6360   24.8520  -30.4630 N   0  0  0  0  0  0  0  0  0  0  0  0
   -2.8560   23.8490  -29.7900 C   0  0  0  0  0  0  0  0  0  0  0  0
   -2.4060   24.0670  -28.4790 C   0  0  0  0  0  0  0  0  0  0  0  0
   -1.6880   23.0860  -27.8000 C   0  0  0  0  0  0  0  0  0  0  0  0
   -1.3930   21.8640  -28.4050 C   0  0  0  0  0  0  0  0  0  0  0  0
   -0.6240   20.9550  -27.6680 O   0  0  0  0  0  0  0  0  0  0  0  0
   -1.8640   21.6000  -29.7190 C   0  0  0  0  0  0  0  0  0  0  0  0
   -1.6740   20.3470  -30.3470 C   0  0  0  0  0  0  0  0  0  0  0  0
   -2.1620   20.1100  -31.6350 C   0  0  0  0  0  0  0  0  0  0  0  0
   -2.8390   21.1140  -32.3260 C   0  0  0  0  0  0  0  0  0  0  0  0
   -3.0490   22.3590  -31.7260 C   0  0  0  0  0  0  0  0  0  0  0  0
   -2.5810   22.6170  -30.4200 C   0  0  0  0  0  0  0  0  0  0  0  0
   -6.2510   23.8260  -30.7500 C   0  0  0  0  0  0  0  0  0  0  0  0
   -5.9600   23.3490  -32.0330 C   0  0  0  0  0  0  0  0  0  0  0  0
   -6.5470   22.1690  -32.4930 C   0  0  0  0  0  0  0  0  0  0  0  0
   -7.4140   21.4440  -31.6650 C   0  0  0  0  0  0  0  0  0  0  0  0
   -8.0270   19.8690  -32.1780 S   0  0  0  0  0  0  0  0  0  0  0  0
   -8.7580   19.2290  -31.0290 O   0  0  0  0  0  0  0  0  0  0  0  0
   -9.0060   20.0670  -33.3040 O   0  0  0  0  0  0  0  0  0  0  0  0
   -6.7490   18.7970  -32.7100 N   0  0  0  0  0  0  0  0  0  0  0  0
   -7.2380   17.4430  -32.9920 C   0  0  0  0  0  0  0  0  0  0  0  0
   -6.3400   16.8640  -34.0790 C   0  0  0  0  0  0  0  0  0  0  0  0
   -5.5110   18.0310  -34.5920 C   0  0  0  0  0  0  0  0  0  0  0  0
   -6.1240   19.2610  -33.9460 C   0  0  0  0  0  0  0  0  0  0  0  0
   -7.7520   21.9540  -30.4040 C   0  0  0  0  0  0  0  0  0  0  0  0
   -7.1720   23.1400  -29.9480 C   0  0  0  0  0  0  0  0  0  0  0  0
   -2.6229   25.0240  -27.9818 H   0  0  0  0  0  0  0  0  0  0  0  0
   -1.3484   23.2774  -26.7714 H   0  0  0  0  0  0  0  0  0  0  0  0
   -1.0050   20.1730  -27.1450 H   0  0  0  0  0  0  0  0  0  0  0  0
   -1.1354   19.5490  -29.8150 H   0  0  0  0  0  0  0  0  0  0  0  0
   -2.0113   19.1272  -32.1055 H   0  0  0  0  0  0  0  0  0  0  0  0
   -3.2085   20.9262  -33.3449 H   0  0  0  0  0  0  0  0  0  0  0  0
   -3.5846   23.1457  -32.2776 H   0  0  0  0  0  0  0  0  0  0  0  0
   -5.2667   23.9055  -32.6809 H   0  0  0  0  0  0  0  0  0  0  0  0
   -6.3282   21.8073  -33.5085 H   0  0  0  0  0  0  0  0  0  0  0  0
   -7.1807   16.8237  -32.0847 H   0  0  0  0  0  0  0  0  0  0  0  0
   -8.2879   17.4644  -33.3194 H   0  0  0  0  0  0  0  0  0  0  0  0
   -5.6868   16.0836  -33.6616 H   0  0  0  0  0  0  0  0  0  0  0  0
   -6.9262   16.3972  -34.8842 H   0  0  0  0  0  0  0  0  0  0  0  0
   -4.4588   17.9198  -34.2912 H   0  0  0  0  0  0  0  0  0  0  0  0
   -5.5192   18.0930  -35.6902 H   0  0  0  0  0  0  0  0  0  0  0  0
   -5.3446   20.0050  -33.7244 H   0  0  0  0  0  0  0  0  0  0  0  0
   -6.8554   19.7434  -34.6111 H   0  0  0  0  0  0  0  0  0  0  0  0
   -8.4759   21.4189  -29.7718 H   0  0  0  0  0  0  0  0  0  0  0  0
   -7.4390   23.5361  -28.9571 H   0  0  0  0  0  0  0  0  0  0  0  0
  1  2  2  0
  2  3  2  0
  2  4  1  0
  4  5  1  0
  5  6  2  0
  6  7  1  0
  7  8  2  0
  8  9  1  0
  8 10  1  0
 10 11  2  0
 11 12  1  0
 12 13  2  0
 13 14  1  0
 14 15  2  0
  2 16  1  0
 16 17  2  0
 17 18  1  0
 18 19  2  0
 19 20  1  0
 20 21  2  0
 20 22  2  0
 20 23  1  0
 23 24  1  0
 24 25  1  0
 25 26  1  0
 26 27  1  0
 19 28  1  0
 28 29  2  0
 15  5  1  0
 29 16  1  0
 15 10  1  0
 27 23  1  0
  6 30  1  0
  7 31  1  0
  9 32  1  0
 11 33  1  0
 12 34  1  0
 13 35  1  0
 14 36  1  0
 17 37  1  0
 18 38  1  0
 24 39  1  0
 24 40  1  0
 25 41  1  0
 25 42  1  0
 26 43  1  0
 26 44  1  0
 27 45  1  0
 27 46  1  0
 28 47  1  0
 29 48  1  0
M  CHG  1   4  -1
M  END
>  <UniqueID>  (8) 
8

>  <SMILES>  (8) 
O=S(=O)([N-]c1ccc(O)c2ccccc12)c1ccc(S(=O)(=O)N2CCCC2)cc1

>  <Energy>  (8) 
63.378876356479765

>  <Genealogy>  (8) 
O=S(=O)([N-]c1ccc(O)c2ccccc12)c1ccc(S(=O)(=O)N2CCCC2)cc1 (protonated)
O=S(=O)([N-]c1ccc(O)c2ccccc12)c1ccc(S(=O)(=O)N2CCCC2)cc1 (3D coordinates assigned)
O=S(=O)([N-]c1ccc(O)c2ccccc12)c1ccc(S(=O)(=O)N2CCCC2)cc1 (nonaromatic ring conformer: 63.378876356479765 kcal/mol)

>  <smiles>  (8) 
O=S(=O)(Nc1ccc(O)c2ccccc12)c1ccc(S(=O)(=O)N2CCCC2)cc1

>  <score_type>  (8) 
oracle

>  <origin>  (8) 
adgpu

>  <m_score__min__energy>  (8) 
-11.44

>  <m_primary>  (8) 
energy

$$$$
8:0
     RDKit          3D

 58 61  0  0  0  0  0  0  0  0999 V2000
    2.5330   21.7830  -36.0460 C   0  0  0  0  0  0  0  0  0  0  0  0
    0.8100   21.6830  -35.6120 S   0  0  0  0  0  0  0  0  0  0  0  0
    0.0480   21.0160  -36.7200 O   0  0  0  0  0  0  0  0  0  0  0  0
    0.2630   23.0710  -35.4180 O   0  0  0  0  0  0  0  0  0  0  0  0
    0.6310   20.7550  -34.1280 C   0  0  0  0  0  0  0  0  0  0  0  0
   -0.5320   20.8800  -33.3590 C   0  0  0  0  0  0  0  0  0  0  0  0
   -0.6830   20.1380  -32.1860 C   0  0  0  0  0  0  0  0  0  0  0  0
    0.3230   19.2500  -31.7740 C   0  0  0  0  0  0  0  0  0  0  0  0
    0.1720   18.4660  -30.4970 C   0  0  0  0  0  0  0  0  0  0  0  0
    0.2130   19.3540  -29.2880 C   0  0  0  0  0  0  0  0  0  0  0  0
    1.2620   19.4350  -28.5940 O   0  0  0  0  0  0  0  0  0  0  0  0
   -0.9510   20.1160  -28.9460 N   0  0  0  0  0  0  0  0  0  0  0  0
   -1.1110   21.5420  -29.0110 C   0  0  0  0  0  0  0  0  0  0  0  0
   -0.1910   22.4270  -28.4280 C   0  0  0  0  0  0  0  0  0  0  0  0
   -0.3750   23.8100  -28.5370 C   0  0  0  0  0  0  0  0  0  0  0  0
    0.5330   24.6880  -27.9470 O   0  0  0  0  0  0  0  0  0  0  0  0
   -1.4670   24.3220  -29.2470 C   0  0  0  0  0  0  0  0  0  0  0  0
   -1.6140   25.7030  -29.3370 O   0  0  0  0  0  0  0  0  0  0  0  0
   -2.3880   23.4450  -29.8680 C   0  0  0  0  0  0  0  0  0  0  0  0
   -3.5460   23.9460  -30.6600 C   0  0  0  0  0  0  0  0  0  0  0  0
   -3.9810   25.1120  -30.4560 O   0  0  0  0  0  0  0  0  0  0  0  0
   -4.2040   23.0960  -31.6090 N   0  0  0  0  0  0  0  0  0  0  0  0
   -5.6070   22.8000  -31.6760 C   0  0  0  0  0  0  0  0  0  0  0  0
   -6.5900   23.7890  -31.5040 C   0  0  0  0  0  0  0  0  0  0  0  0
   -7.9450   23.4500  -31.5700 C   0  0  0  0  0  0  0  0  0  0  0  0
   -8.3280   22.1320  -31.8260 C   0  0  0  0  0  0  0  0  0  0  0  0
   -7.3570   21.1430  -32.0490 C   0  0  0  0  0  0  0  0  0  0  0  0
   -7.7720   19.7510  -32.3210 C   0  0  0  0  0  0  0  0  0  0  0  0
   -8.9440   19.3930  -32.0300 O   0  0  0  0  0  0  0  0  0  0  0  0
   -6.8950   18.7980  -32.9320 N   0  0  0  0  0  0  0  0  0  0  0  0
   -6.1140   19.0600  -34.1340 C   0  0  0  0  0  0  0  0  0  0  0  0
   -4.6150   18.9180  -33.9410 C   0  0  0  0  0  0  0  0  0  0  0  0
   -5.4000   17.8200  -34.6380 C   0  0  0  0  0  0  0  0  0  0  0  0
   -5.9990   21.4860  -31.9660 C   0  0  0  0  0  0  0  0  0  0  0  0
   -2.1870   22.0570  -29.7420 C   0  0  0  0  0  0  0  0  0  0  0  0
    1.4890   19.1300  -32.5430 C   0  0  0  0  0  0  0  0  0  0  0  0
    1.6400   19.8740  -33.7180 C   0  0  0  0  0  0  0  0  0  0  0  0
    3.1405   21.8183  -35.1296 H   0  0  0  0  0  0  0  0  0  0  0  0
    2.8138   20.8996  -36.6383 H   0  0  0  0  0  0  0  0  0  0  0  0
    2.7097   22.6929  -36.6383 H   0  0  0  0  0  0  0  0  0  0  0  0
   -1.3301   21.5655  -33.6802 H   0  0  0  0  0  0  0  0  0  0  0  0
   -1.5952   20.2499  -31.5815 H   0  0  0  0  0  0  0  0  0  0  0  0
   -0.7917   17.9361  -30.5167 H   0  0  0  0  0  0  0  0  0  0  0  0
    1.0117   17.7586  -30.4295 H   0  0  0  0  0  0  0  0  0  0  0  0
    0.6788   22.0318  -27.8828 H   0  0  0  0  0  0  0  0  0  0  0  0
    0.5700   25.6650  -28.2040 H   0  0  0  0  0  0  0  0  0  0  0  0
   -6.2932   24.8316  -31.3171 H   0  0  0  0  0  0  0  0  0  0  0  0
   -8.7117   24.2243  -31.4197 H   0  0  0  0  0  0  0  0  0  0  0  0
   -9.3954   21.8674  -31.8531 H   0  0  0  0  0  0  0  0  0  0  0  0
   -6.7655   19.8306  -34.5719 H   0  0  0  0  0  0  0  0  0  0  0  0
   -3.9237   19.5507  -34.5171 H   0  0  0  0  0  0  0  0  0  0  0  0
   -3.9340   18.9601  -33.0782 H   0  0  0  0  0  0  0  0  0  0  0  0
   -5.2770   17.6573  -35.7189 H   0  0  0  0  0  0  0  0  0  0  0  0
   -5.5228   16.7371  -34.4890 H   0  0  0  0  0  0  0  0  0  0  0  0
   -5.2327   20.7142  -32.1305 H   0  0  0  0  0  0  0  0  0  0  0  0
   -2.8897   21.3641  -30.2278 H   0  0  0  0  0  0  0  0  0  0  0  0
    2.2892   18.4474  -32.2209 H   0  0  0  0  0  0  0  0  0  0  0  0
    2.5534   19.7670  -34.3215 H   0  0  0  0  0  0  0  0  0  0  0  0
  1  2  1  0
  2  3  2  0
  2  4  2  0
  2  5  1  0
  5  6  2  0
  6  7  1  0
  7  8  2  0
  8  9  1  0
  9 10  1  0
 10 11  2  0
 10 12  1  0
 12 13  1  0
 13 14  2  0
 14 15  1  0
 15 16  1  0
 15 17  2  0
 17 18  1  0
 17 19  1  0
 19 20  1  0
 20 21  2  0
 20 22  1  0
 22 23  1  0
 23 24  2  0
 24 25  1  0
 25 26  2  0
 26 27  1  0
 27 28  1  0
 28 29  2  0
 28 30  1  0
 30 31  1  0
 31 32  1  0
 32 33  1  0
 27 34  2  0
 19 35  2  0
  8 36  1  0
 36 37  2  0
 37  5  1  0
 35 13  1  0
 34 23  1  0
 33 31  1  0
  1 38  1  0
  1 39  1  0
  1 40  1  0
  6 41  1  0
  7 42  1  0
  9 43  1  0
  9 44  1  0
 14 45  1  0
 16 46  1  0
 24 47  1  0
 25 48  1  0
 26 49  1  0
 31 50  1  0
 32 51  1  0
 32 52  1  0
 33 53  1  0
 33 54  1  0
 34 55  1  0
 35 56  1  0
 36 57  1  0
 37 58  1  0
M  CHG  4  12  -1  18  -1  22  -1  30  -1
M  END
>  <UniqueID>  (9) 
9

>  <SMILES>  (9) 
CS(=O)(=O)c1ccc(CC(=O)[N-]c2cc(O)c([O-])c(C(=O)[N-]c3cccc(C(=O)[N-]C4CC4)c3)c2)cc1

>  <Energy>  (9) 
336.1145657684962

>  <Genealogy>  (9) 
CS(=O)(=O)c1ccc(CC(=O)[N-]c2cc(O)c([O-])c(C(=O)[N-]c3cccc(C(=O)[N-]C4CC4)c3)c2)cc1 (protonated)
CS(=O)(=O)c1ccc(CC(=O)[N-]c2cc(O)c([O-])c(C(=O)[N-]c3cccc(C(=O)[N-]C4CC4)c3)c2)cc1 (3D coordinates assigned)
CS(=O)(=O)c1ccc(CC(=O)[N-]c2cc(O)c([O-])c(C(=O)[N-]c3cccc(C(=O)[N-]C4CC4)c3)c2)cc1 (nonaromatic ring conformer: 336.1145657684962 kcal/mol)

>  <smiles>  (9) 
CS(=O)(=O)c1ccc(CC(=O)Nc2cc(O)c(O)c(C(=O)Nc3cccc(C(=O)NC4CC4)c3)c2)cc1

>  <score_type>  (9) 
oracle

>  <origin>  (9) 
adgpu

>  <m_score__min__energy>  (9) 
-14.449999999999999

>  <m_primary>  (9) 
energy

$$$$
9:0
     RDKit          3D

 48 49  0  0  0  0  0  0  0  0999 V2000
   -2.7140   20.0540  -27.8140 C   0  0  0  0  0  0  0  0  0  0  0  0
   -2.2080   21.3670  -27.2270 C   0  0  0  0  0  0  0  0  0  0  0  0
   -2.5360   22.5500  -28.1040 C   0  0  0  0  0  0  0  0  0  0  0  0
   -3.6380   22.4250  -28.8930 N   0  0  0  0  0  0  0  0  0  0  0  0
   -4.0870   23.4130  -29.7040 C   0  0  0  0  0  0  0  0  0  0  0  0
   -5.4700   23.1100  -30.7470 S   0  0  0  0  0  0  0  0  0  0  0  0
   -5.7040   24.3150  -31.6150 O   0  0  0  0  0  0  0  0  0  0  0  0
   -6.6950   22.8620  -29.9130 O   0  0  0  0  0  0  0  0  0  0  0  0
   -5.1380   21.6860  -31.7270 C   0  0  0  0  0  0  0  0  0  0  0  0
   -3.9740   21.6060  -32.5050 C   0  0  0  0  0  0  0  0  0  0  0  0
   -3.7090   20.4550  -33.2530 C   0  0  0  0  0  0  0  0  0  0  0  0
   -4.6040   19.3790  -33.2270 C   0  0  0  0  0  0  0  0  0  0  0  0
   -5.7770   19.4570  -32.4600 C   0  0  0  0  0  0  0  0  0  0  0  0
   -6.9060   18.1070  -32.3940 S   0  0  0  0  0  0  0  0  0  0  0  0
   -8.5360   18.7220  -32.0270 C   0  0  0  0  0  0  0  0  0  0  0  0
   -6.4950   17.1320  -31.3260 O   0  0  0  0  0  0  0  0  0  0  0  0
   -6.9160   17.4000  -33.7200 O   0  0  0  0  0  0  0  0  0  0  0  0
   -6.0420   20.6140  -31.7170 C   0  0  0  0  0  0  0  0  0  0  0  0
   -3.4090   24.6320  -29.7460 C   0  0  0  0  0  0  0  0  0  0  0  0
   -3.8550   25.6640  -30.5690 O   0  0  0  0  0  0  0  0  0  0  0  0
   -2.2660   24.8080  -28.9650 C   0  0  0  0  0  0  0  0  0  0  0  0
   -1.6070   26.0330  -29.0210 O   0  0  0  0  0  0  0  0  0  0  0  0
   -1.7840   23.7630  -28.1470 C   0  0  0  0  0  0  0  0  0  0  0  0
   -0.2420   24.0140  -27.2780 S   0  0  0  0  0  0  0  0  0  0  0  0
    0.1410   22.7390  -26.5800 O   0  0  0  0  0  0  0  0  0  0  0  0
    0.8760   24.3600  -28.2200 O   0  0  0  0  0  0  0  0  0  0  0  0
   -0.4000   25.3290  -26.0580 C   0  0  0  0  0  0  0  0  0  0  0  0
   -1.8560   25.4540  -25.6000 C   0  0  0  0  0  0  0  0  0  0  0  0
    0.1020   26.6650  -26.6120 C   0  0  0  0  0  0  0  0  0  0  0  0
   -2.9793   19.3657  -26.9980 H   0  0  0  0  0  0  0  0  0  0  0  0
   -3.6020   20.2475  -28.4337 H   0  0  0  0  0  0  0  0  0  0  0  0
   -1.9258   19.6016  -28.4337 H   0  0  0  0  0  0  0  0  0  0  0  0
   -2.6739   21.5169  -26.2419 H   0  0  0  0  0  0  0  0  0  0  0  0
   -1.1129   21.3003  -27.1474 H   0  0  0  0  0  0  0  0  0  0  0  0
   -3.2687   22.4498  -32.5268 H   0  0  0  0  0  0  0  0  0  0  0  0
   -2.7956   20.3948  -33.8630 H   0  0  0  0  0  0  0  0  0  0  0  0
   -4.3877   18.4708  -33.8086 H   0  0  0  0  0  0  0  0  0  0  0  0
   -8.6717   18.7732  -30.9366 H   0  0  0  0  0  0  0  0  0  0  0  0
   -8.6546   19.7267  -32.4588 H   0  0  0  0  0  0  0  0  0  0  0  0
   -9.2888   18.0461  -32.4588 H   0  0  0  0  0  0  0  0  0  0  0  0
   -6.9647   20.6824  -31.1220 H   0  0  0  0  0  0  0  0  0  0  0  0
    0.2258   25.0670  -25.1922 H   0  0  0  0  0  0  0  0  0  0  0  0
   -1.8956   25.4574  -24.5007 H   0  0  0  0  0  0  0  0  0  0  0  0
   -2.2823   26.3920  -25.9852 H   0  0  0  0  0  0  0  0  0  0  0  0
   -2.4359   24.6023  -25.9852 H   0  0  0  0  0  0  0  0  0  0  0  0
    0.3542   27.3363  -25.7779 H   0  0  0  0  0  0  0  0  0  0  0  0
    0.9970   26.4934  -27.2281 H   0  0  0  0  0  0  0  0  0  0  0  0
   -0.6845   27.1252  -27.2281 H   0  0  0  0  0  0  0  0  0  0  0  0
  1  2  1  0
  2  3  1  0
  3  4  2  0
  4  5  1  0
  5  6  1  0
  6  7  2  0
  6  8  2  0
  6  9  1  0
  9 10  2  0
 10 11  1  0
 11 12  2  0
 12 13  1  0
 13 14  1  0
 14 15  1  0
 14 16  2  0
 14 17  2  0
 13 18  2  0
  5 19  2  0
 19 20  1  0
 19 21  1  0
 21 22  1  0
 21 23  2  0
 23 24  1  0
 24 25  2  0
 24 26  2  0
 24 27  1  0
 27 28  1  0
 27 29  1  0
 23  3  1  0
 18  9  1  0
  1 30  1  0
  1 31  1  0
  1 32  1  0
  2 33  1  0
  2 34  1  0
 10 35  1  0
 11 36  1  0
 12 37  1  0
 15 38  1  0
 15 39  1  0
 15 40  1  0
 18 41  1  0
 27 42  1  0
 28 43  1  0
 28 44  1  0
 28 45  1  0
 29 46  1  0
 29 47  1  0
 29 48  1  0
M  CHG  2  20  -1  22  -1
M  END
>  <UniqueID>  (10) 
10

>  <SMILES>  (10) 
CCc1nc(S(=O)(=O)c2cccc(S(C)(=O)=O)c2)c([O-])c([O-])c1S(=O)(=O)C(C)C

>  <Energy>  (10) 
44.160623425385836

>  <Genealogy>  (10) 
CCc1nc(S(=O)(=O)c2cccc(S(C)(=O)=O)c2)c([O-])c([O-])c1S(=O)(=O)C(C)C (protonated)
CCc1nc(S(=O)(=O)c2cccc(S(C)(=O)=O)c2)c([O-])c([O-])c1S(=O)(=O)C(C)C (3D coordinates assigned)
CCc1nc(S(=O)(=O)c2cccc(S(C)(=O)=O)c2)c([O-])c([O-])c1S(=O)(=O)C(C)C (optimized conformer: 44.160623425385836 kcal/mol)

>  <smiles>  (10) 
CCc1nc(S(=O)(=O)c2cccc(S(C)(=O)=O)c2)c(O)c(O)c1S(=O)(=O)C(C)C

>  <score_type>  (10) 
oracle

>  <origin>  (10) 
adgpu

>  <m_score__min__energy>  (10) 
-16.739999999999998

>  <m_primary>  (10) 
energy

$$$$
10:0
     RDKit          3D

 46 49  0  0  0  0  0  0  0  0999 V2000
   -0.6290   21.1520  -27.4820 C   0  0  0  0  0  0  0  0  0  0  0  0
   -0.1880   21.4120  -28.8100 O   0  0  0  0  0  0  0  0  0  0  0  0
   -1.0040   21.3230  -29.9470 C   0  0  0  0  0  0  0  0  0  0  0  0
   -0.5180   21.5610  -31.2470 C   0  0  0  0  0  0  0  0  0  0  0  0
   -1.3710   21.4610  -32.3490 C   0  0  0  0  0  0  0  0  0  0  0  0
   -2.7210   21.1160  -32.1730 C   0  0  0  0  0  0  0  0  0  0  0  0
   -3.6540   21.0500  -33.3520 C   0  0  0  0  0  0  0  0  0  0  0  0
   -5.0410   20.9180  -32.8940 N   0  0  0  0  0  0  0  0  0  0  0  0
   -5.7920   19.7850  -32.8710 C   0  0  0  0  0  0  0  0  0  0  0  0
   -5.3250   18.5000  -33.1440 O   0  0  0  0  0  0  0  0  0  0  0  0
   -7.0950   20.0900  -32.5380 C   0  0  0  0  0  0  0  0  0  0  0  0
   -8.2160   19.2760  -32.3800 C   0  0  0  0  0  0  0  0  0  0  0  0
   -9.4290   19.8960  -32.0210 C   0  0  0  0  0  0  0  0  0  0  0  0
   -9.4900   21.2950  -31.8320 C   0  0  0  0  0  0  0  0  0  0  0  0
   -8.3410   22.0890  -32.0010 C   0  0  0  0  0  0  0  0  0  0  0  0
   -7.1560   21.4470  -32.3590 C   0  0  0  0  0  0  0  0  0  0  0  0
   -5.8860   21.9350  -32.5820 C   0  0  0  0  0  0  0  0  0  0  0  0
   -5.5120   23.3130  -32.4990 N   0  0  0  0  0  0  0  0  0  0  0  0
   -5.9540   24.1260  -31.3710 C   0  0  0  0  0  0  0  0  0  0  0  0
   -4.8840   24.1550  -30.3270 C   0  0  0  0  0  0  0  0  0  0  0  0
   -4.9380   23.5280  -29.0980 C   0  0  0  0  0  0  0  0  0  0  0  0
   -3.7220   23.7820  -28.5020 C   0  0  0  0  0  0  0  0  0  0  0  0
   -3.0030   24.5420  -29.4040 C   0  0  0  0  0  0  0  0  0  0  0  0
   -3.7220   24.7450  -30.4830 O   0  0  0  0  0  0  0  0  0  0  0  0
   -3.2050   20.8840  -30.8770 C   0  0  0  0  0  0  0  0  0  0  0  0
   -2.3510   20.9840  -29.7740 C   0  0  0  0  0  0  0  0  0  0  0  0
    0.0910   21.5765  -26.7668 H   0  0  0  0  0  0  0  0  0  0  0  0
   -1.6156   21.6130  -27.3264 H   0  0  0  0  0  0  0  0  0  0  0  0
   -0.7033   20.0656  -27.3264 H   0  0  0  0  0  0  0  0  0  0  0  0
    0.5389   21.8271  -31.3957 H   0  0  0  0  0  0  0  0  0  0  0  0
   -0.9831   21.6536  -33.3601 H   0  0  0  0  0  0  0  0  0  0  0  0
   -3.5538   21.9700  -33.9465 H   0  0  0  0  0  0  0  0  0  0  0  0
   -3.3943   20.1754  -33.9665 H   0  0  0  0  0  0  0  0  0  0  0  0
   -4.9780   17.8870  -32.4210 H   0  0  0  0  0  0  0  0  0  0  0  0
   -8.1554   18.1880  -32.5304 H   0  0  0  0  0  0  0  0  0  0  0  0
  -10.3350   19.2868  -31.8869 H   0  0  0  0  0  0  0  0  0  0  0  0
  -10.4430   21.7668  -31.5506 H   0  0  0  0  0  0  0  0  0  0  0  0
   -8.3762   23.1788  -31.8557 H   0  0  0  0  0  0  0  0  0  0  0  0
   -5.3280   23.8140  -33.3980 H   0  0  0  0  0  0  0  0  0  0  0  0
   -6.1580   25.1506  -31.7153 H   0  0  0  0  0  0  0  0  0  0  0  0
   -6.8706   23.6929  -30.9442 H   0  0  0  0  0  0  0  0  0  0  0  0
   -5.7752   22.9480  -28.6824 H   0  0  0  0  0  0  0  0  0  0  0  0
   -3.3905   23.4470  -27.5081 H   0  0  0  0  0  0  0  0  0  0  0  0
   -1.9826   24.9197  -29.2424 H   0  0  0  0  0  0  0  0  0  0  0  0
   -4.2628   20.6218  -30.7273 H   0  0  0  0  0  0  0  0  0  0  0  0
   -2.7408   20.7948  -28.7629 H   0  0  0  0  0  0  0  0  0  0  0  0
  1  2  1  0
  2  3  1  0
  3  4  2  0
  4  5  1  0
  5  6  2  0
  6  7  1  0
  7  8  1  0
  8  9  1  0
  9 10  1  0
  9 11  2  0
 11 12  1  0
 12 13  2  0
 13 14  1  0
 14 15  2  0
 15 16  1  0
 16 17  2  0
 17 18  1  0
 18 19  1  0
 19 20  1  0
 20 21  2  0
 21 22  1  0
 22 23  2  0
 23 24  1  0
  6 25  1  0
 25 26  2  0
 26  3  1  0
 17  8  1  0
 24 20  1  0
 16 11  1  0
  1 27  1  0
  1 28  1  0
  1 29  1  0
  4 30  1  0
  5 31  1  0
  7 32  1  0
  7 33  1  0
 10 34  1  0
 12 35  1  0
 13 36  1  0
 14 37  1  0
 15 38  1  0
 18 39  1  0
 19 40  1  0
 19 41  1  0
 21 42  1  0
 22 43  1  0
 23 44  1  0
 25 45  1  0
 26 46  1  0
M  END
>  <UniqueID>  (11) 
11

>  <SMILES>  (11) 
COc1ccc(Cn2c(O)c3ccccc3c2NCc2ccco2)cc1

>  <Energy>  (11) 
112.15453432870324

>  <Genealogy>  (11) 
COc1ccc(Cn2c(O)c3ccccc3c2NCc2ccco2)cc1 (3D coordinates assigned)
COc1ccc(Cn2c(O)c3ccccc3c2NCc2ccco2)cc1 (optimized conformer: 112.15453432870324 kcal/mol)

>  <smiles>  (11) 
COc1ccc(Cn2c(O)c3ccccc3c2NCc2ccco2)cc1

>  <score_type>  (11) 
oracle

>  <origin>  (11) 
adgpu

>  <m_score__min__energy>  (11) 
-7.8499999999999996

>  <m_primary>  (11) 
energy

$$$$
11:0
     RDKit          3D

 53 57  0  0  0  0  0  0  0  0999 V2000
   -3.4460   20.5360  -33.6740 O   0  0  0  0  0  0  0  0  0  0  0  0
   -4.5830   20.1710  -33.2690 C   0  0  0  0  0  0  0  0  0  0  0  0
   -5.1590   18.8550  -33.5100 C   0  0  0  0  0  0  0  0  0  0  0  0
   -4.6240   17.7180  -34.1130 C   0  0  0  0  0  0  0  0  0  0  0  0
   -5.4390   16.5730  -34.2000 C   0  0  0  0  0  0  0  0  0  0  0  0
   -6.7550   16.5940  -33.6880 C   0  0  0  0  0  0  0  0  0  0  0  0
   -7.2660   17.7600  -33.0870 C   0  0  0  0  0  0  0  0  0  0  0  0
   -6.4330   18.8750  -33.0130 C   0  0  0  0  0  0  0  0  0  0  0  0
   -6.6610   20.2050  -32.4670 C   0  0  0  0  0  0  0  0  0  0  0  0
   -7.7750   20.6170  -32.0470 O   0  0  0  0  0  0  0  0  0  0  0  0
   -5.4870   21.0380  -32.5510 N   0  0  0  0  0  0  0  0  0  0  0  0
   -4.9670   21.4290  -31.2180 C   0  0  0  0  0  0  0  0  0  0  0  0
   -5.0730   22.9220  -30.9140 C   0  0  0  0  0  0  0  0  0  0  0  0
   -6.3330   23.5470  -30.9450 C   0  0  0  0  0  0  0  0  0  0  0  0
   -6.4440   24.9250  -30.7730 C   0  0  0  0  0  0  0  0  0  0  0  0
   -5.2960   25.6790  -30.5500 C   0  0  0  0  0  0  0  0  0  0  0  0
   -4.0880   25.0670  -30.4670 N   0  0  0  0  0  0  0  0  0  0  0  0
   -3.9400   23.7220  -30.6280 C   0  0  0  0  0  0  0  0  0  0  0  0
   -2.6420   23.1480  -30.4220 N   0  0  0  0  0  0  0  0  0  0  0  0
   -2.1140   22.2430  -31.4540 C   0  0  0  0  0  0  0  0  0  0  0  0
   -0.8850   21.4690  -30.9570 C   0  0  0  0  0  0  0  0  0  0  0  0
   -1.1400   20.8910  -29.6250 N   0  0  0  0  0  0  0  0  0  0  0  0
   -0.5350   19.6330  -29.2490 C   0  0  0  0  0  0  0  0  0  0  0  0
   -0.5310   19.2160  -27.9050 C   0  0  0  0  0  0  0  0  0  0  0  0
    0.0530   17.9990  -27.5410 C   0  0  0  0  0  0  0  0  0  0  0  0
    0.6400   17.1850  -28.5130 C   0  0  0  0  0  0  0  0  0  0  0  0
    0.6460   17.5870  -29.8520 C   0  0  0  0  0  0  0  0  0  0  0  0
    1.3760   16.5590  -31.0750 Cl  0  0  0  0  0  0  0  0  0  0  0  0
    0.0650   18.8060  -30.2190 C   0  0  0  0  0  0  0  0  0  0  0  0
   -1.8890   21.6640  -28.6190 C   0  0  0  0  0  0  0  0  0  0  0  0
   -2.0810   23.1150  -29.0660 C   0  0  0  0  0  0  0  0  0  0  0  0
   -3.5975   17.7152  -34.5084 H   0  0  0  0  0  0  0  0  0  0  0  0
   -5.0487   15.6577  -34.6690 H   0  0  0  0  0  0  0  0  0  0  0  0
   -7.3841   15.6945  -33.7592 H   0  0  0  0  0  0  0  0  0  0  0  0
   -8.2907   17.7901  -32.6882 H   0  0  0  0  0  0  0  0  0  0  0  0
   -5.6940   21.8850  -33.1310 H   0  0  0  0  0  0  0  0  0  0  0  0
   -5.5353   20.8805  -30.4523 H   0  0  0  0  0  0  0  0  0  0  0  0
   -3.8950   21.1825  -31.2139 H   0  0  0  0  0  0  0  0  0  0  0  0
   -7.2379   22.9427  -31.1064 H   0  0  0  0  0  0  0  0  0  0  0  0
   -7.4294   25.4122  -30.8131 H   0  0  0  0  0  0  0  0  0  0  0  0
   -5.3679   26.7712  -30.4410 H   0  0  0  0  0  0  0  0  0  0  0  0
   -2.8987   21.5244  -31.7331 H   0  0  0  0  0  0  0  0  0  0  0  0
   -1.8094   22.8505  -32.3189 H   0  0  0  0  0  0  0  0  0  0  0  0
   -0.6573   20.6587  -31.6652 H   0  0  0  0  0  0  0  0  0  0  0  0
   -0.0340   22.1623  -30.8859 H   0  0  0  0  0  0  0  0  0  0  0  0
   -0.9910   19.8525  -27.1348 H   0  0  0  0  0  0  0  0  0  0  0  0
    0.0503   17.6819  -26.4877 H   0  0  0  0  0  0  0  0  0  0  0  0
    1.0977   16.2272  -28.2246 H   0  0  0  0  0  0  0  0  0  0  0  0
    0.0769   19.1209  -31.2729 H   0  0  0  0  0  0  0  0  0  0  0  0
   -2.8756   21.2004  -28.4719 H   0  0  0  0  0  0  0  0  0  0  0  0
   -1.3155   21.6618  -27.6804 H   0  0  0  0  0  0  0  0  0  0  0  0
   -2.7691   23.6222  -28.3738 H   0  0  0  0  0  0  0  0  0  0  0  0
   -1.1077   23.6274  -29.0633 H   0  0  0  0  0  0  0  0  0  0  0  0
  1  2  2  0
  2  3  1  0
  3  4  2  0
  4  5  1  0
  5  6  2  0
  6  7  1  0
  7  8  2  0
  8  9  1  0
  9 10  2  0
  9 11  1  0
 11 12  1  0
 12 13  1  0
 13 14  2  0
 14 15  1  0
 15 16  2  0
 16 17  1  0
 17 18  2  0
 18 19  1  0
 19 20  1  0
 20 21  1  0
 21 22  1  0
 22 23  1  0
 23 24  2  0
 24 25  1  0
 25 26  2  0
 26 27  1  0
 27 28  1  0
 27 29  2  0
 22 30  1  0
 30 31  1  0
 11  2  1  0
 18 13  1  0
 31 19  1  0
  8  3  1  0
 29 23  1  0
  4 32  1  0
  5 33  1  0
  6 34  1  0
  7 35  1  0
 11 36  1  0
 12 37  1  0
 12 38  1  0
 14 39  1  0
 15 40  1  0
 16 41  1  0
 20 42  1  0
 20 43  1  0
 21 44  1  0
 21 45  1  0
 24 46  1  0
 25 47  1  0
 26 48  1  0
 29 49  1  0
 30 50  1  0
 30 51  1  0
 31 52  1  0
 31 53  1  0
M  CHG  1  11   1
M  END
>  <UniqueID>  (12) 
12

>  <SMILES>  (12) 
O=C1c2ccccc2C(=O)[NH+]1Cc1cccnc1N1CCN(c2cccc(Cl)c2)CC1

>  <Energy>  (12) 
97.52162781828648

>  <Genealogy>  (12) 
O=C1c2ccccc2C(=O)[NH+]1Cc1cccnc1N1CCN(c2cccc(Cl)c2)CC1 (protonated)
O=C1c2ccccc2C(=O)[NH+]1Cc1cccnc1N1CCN(c2cccc(Cl)c2)CC1 (3D coordinates assigned)
O=C1c2ccccc2C(=O)[NH+]1Cc1cccnc1N1CCN(c2cccc(Cl)c2)CC1 (nonaromatic ring conformer: 97.52162781828648 kcal/mol)

>  <smiles>  (12) 
O=C1c2ccccc2C(=O)N1Cc1cccnc1N1CCN(c2cccc(Cl)c2)CC1

>  <score_type>  (12) 
oracle

>  <origin>  (12) 
adgpu

>  <m_score__min__energy>  (12) 
-9.4399999999999995

>  <m_primary>  (12) 
energy

$$$$
12:0
     RDKit          3D

 58 61  0  0  0  0  0  0  0  0999 V2000
    0.2990   20.4990  -36.0520 N   0  0  0  0  0  0  0  0  0  0  0  0
    0.0560   21.4230  -34.9870 C   0  0  0  0  0  0  0  0  0  0  0  0
    0.4860   22.6030  -35.0950 O   0  0  0  0  0  0  0  0  0  0  0  0
   -0.6990   21.0260  -33.7730 C   0  0  0  0  0  0  0  0  0  0  0  0
   -2.0920   20.8430  -33.8040 C   0  0  0  0  0  0  0  0  0  0  0  0
   -2.7580   20.4660  -32.6840 N   0  0  0  0  0  0  0  0  0  0  0  0
   -2.1190   20.2480  -31.5070 C   0  0  0  0  0  0  0  0  0  0  0  0
   -0.7320   20.3860  -31.4190 C   0  0  0  0  0  0  0  0  0  0  0  0
   -0.1040   20.0760  -30.2010 O   0  0  0  0  0  0  0  0  0  0  0  0
   -0.5610   20.4760  -28.9040 C   0  0  0  0  0  0  0  0  0  0  0  0
   -0.7910   21.9670  -28.7900 C   0  0  0  0  0  0  0  0  0  0  0  0
    0.2470   22.7840  -28.3150 C   0  0  0  0  0  0  0  0  0  0  0  0
    0.0580   24.1620  -28.1780 C   0  0  0  0  0  0  0  0  0  0  0  0
   -1.1750   24.7370  -28.4900 C   0  0  0  0  0  0  0  0  0  0  0  0
   -2.2290   23.9380  -28.9630 C   0  0  0  0  0  0  0  0  0  0  0  0
   -3.5750   24.5080  -29.1890 C   0  0  0  0  0  0  0  0  0  0  0  0
   -4.4740   24.4000  -28.3120 O   0  0  0  0  0  0  0  0  0  0  0  0
   -3.8650   25.1400  -30.4390 N   0  0  0  0  0  0  0  0  0  0  0  0
   -5.2020   25.4690  -30.9040 C   0  0  0  0  0  0  0  0  0  0  0  0
   -5.9000   24.1960  -31.2810 C   0  0  0  0  0  0  0  0  0  0  0  0
   -7.2170   23.9610  -30.8520 C   0  0  0  0  0  0  0  0  0  0  0  0
   -7.8400   22.7400  -31.1230 C   0  0  0  0  0  0  0  0  0  0  0  0
   -7.1530   21.7370  -31.8180 C   0  0  0  0  0  0  0  0  0  0  0  0
   -7.9310   20.1880  -32.1190 S   0  0  0  0  0  0  0  0  0  0  0  0
   -9.0460   20.3510  -33.1160 O   0  0  0  0  0  0  0  0  0  0  0  0
   -8.5200   19.6620  -30.8400 O   0  0  0  0  0  0  0  0  0  0  0  0
   -6.7370   19.0610  -32.7500 C   0  0  0  0  0  0  0  0  0  0  0  0
   -6.4330   17.8920  -32.0360 C   0  0  0  0  0  0  0  0  0  0  0  0
   -5.5090   16.9770  -32.5480 C   0  0  0  0  0  0  0  0  0  0  0  0
   -4.8870   17.2220  -33.7760 C   0  0  0  0  0  0  0  0  0  0  0  0
   -5.1900   18.3830  -34.4940 C   0  0  0  0  0  0  0  0  0  0  0  0
   -6.1140   19.3000  -33.9840 C   0  0  0  0  0  0  0  0  0  0  0  0
   -5.8320   21.9590  -32.2300 C   0  0  0  0  0  0  0  0  0  0  0  0
   -5.2070   23.1810  -31.9610 C   0  0  0  0  0  0  0  0  0  0  0  0
   -2.0120   22.5630  -29.1540 C   0  0  0  0  0  0  0  0  0  0  0  0
   -0.0230   20.7910  -32.5640 C   0  0  0  0  0  0  0  0  0  0  0  0
    0.8850   20.7890  -36.8670 H   0  0  0  0  0  0  0  0  0  0  0  0
   -0.1640   19.5660  -36.0880 H   0  0  0  0  0  0  0  0  0  0  0  0
   -2.6449   21.0062  -34.7409 H   0  0  0  0  0  0  0  0  0  0  0  0
   -2.6971   19.9607  -30.6164 H   0  0  0  0  0  0  0  0  0  0  0  0
   -1.5080   19.9583  -28.6914 H   0  0  0  0  0  0  0  0  0  0  0  0
    0.2251   20.2091  -28.1823 H   0  0  0  0  0  0  0  0  0  0  0  0
    1.2159   22.3365  -28.0487 H   0  0  0  0  0  0  0  0  0  0  0  0
    0.8840   24.7958  -27.8230 H   0  0  0  0  0  0  0  0  0  0  0  0
   -1.3219   25.8200  -28.3650 H   0  0  0  0  0  0  0  0  0  0  0  0
   -5.7599   25.9750  -30.1023 H   0  0  0  0  0  0  0  0  0  0  0  0
   -5.1447   26.1399  -31.7738 H   0  0  0  0  0  0  0  0  0  0  0  0
   -7.7604   24.7421  -30.3000 H   0  0  0  0  0  0  0  0  0  0  0  0
   -8.8736   22.5661  -30.7893 H   0  0  0  0  0  0  0  0  0  0  0  0
   -6.9231   17.6953  -31.0710 H   0  0  0  0  0  0  0  0  0  0  0  0
   -5.2708   16.0630  -31.9842 H   0  0  0  0  0  0  0  0  0  0  0  0
   -4.1592   16.5014  -34.1773 H   0  0  0  0  0  0  0  0  0  0  0  0
   -4.7012   18.5749  -35.4605 H   0  0  0  0  0  0  0  0  0  0  0  0
   -6.3531   20.2113  -34.5518 H   0  0  0  0  0  0  0  0  0  0  0  0
   -5.2850   21.1698  -32.7666 H   0  0  0  0  0  0  0  0  0  0  0  0
   -4.1686   23.3478  -32.2833 H   0  0  0  0  0  0  0  0  0  0  0  0
   -2.8078   21.9442  -29.5942 H   0  0  0  0  0  0  0  0  0  0  0  0
    1.0676   20.9246  -32.5127 H   0  0  0  0  0  0  0  0  0  0  0  0
  1  2  1  0
  2  3  2  0
  2  4  1  0
  4  5  2  0
  5  6  1  0
  6  7  2  0
  7  8  1  0
  8  9  1  0
  9 10  1  0
 10 11  1  0
 11 12  2  0
 12 13  1  0
 13 14  2  0
 14 15  1  0
 15 16  1  0
 16 17  2  0
 16 18  1  0
 18 19  1  0
 19 20  1  0
 20 21  2  0
 21 22  1  0
 22 23  2  0
 23 24  1  0
 24 25  2  0
 24 26  2  0
 24 27  1  0
 27 28  2  0
 28 29  1  0
 29 30  2  0
 30 31  1  0
 31 32  2  0
 23 33  1  0
 33 34  2  0
 15 35  2  0
  8 36  2  0
 36  4  1  0
 35 11  1  0
 34 20  1  0
 32 27  1  0
  1 37  1  0
  1 38  1  0
  5 39  1  0
  7 40  1  0
 10 41  1  0
 10 42  1  0
 12 43  1  0
 13 44  1  0
 14 45  1  0
 19 46  1  0
 19 47  1  0
 21 48  1  0
 22 49  1  0
 28 50  1  0
 29 51  1  0
 30 52  1  0
 31 53  1  0
 32 54  1  0
 33 55  1  0
 34 56  1  0
 35 57  1  0
 36 58  1  0
M  CHG  1  18  -1
M  END
>  <UniqueID>  (13) 
13

>  <SMILES>  (13) 
NC(=O)c1cncc(OCc2cccc(C(=O)[N-]Cc3ccc(S(=O)(=O)c4ccccc4)cc3)c2)c1

>  <Energy>  (13) 
61.11962914015736

>  <Genealogy>  (13) 
NC(=O)c1cncc(OCc2cccc(C(=O)[N-]Cc3ccc(S(=O)(=O)c4ccccc4)cc3)c2)c1 (protonated)
NC(=O)c1cncc(OCc2cccc(C(=O)[N-]Cc3ccc(S(=O)(=O)c4ccccc4)cc3)c2)c1 (3D coordinates assigned)
NC(=O)c1cncc(OCc2cccc(C(=O)[N-]Cc3ccc(S(=O)(=O)c4ccccc4)cc3)c2)c1 (optimized conformer: 61.11962914015736 kcal/mol)

>  <smiles>  (13) 
NC(=O)c1cncc(OCc2cccc(C(=O)NCc3ccc(S(=O)(=O)c4ccccc4)cc3)c2)c1

>  <score_type>  (13) 
oracle

>  <origin>  (13) 
adgpu

>  <m_score__min__energy>  (13) 
-12.93

>  <m_primary>  (13) 
energy

$$$$
13:0
     RDKit          3D

 33 35  0  0  0  0  0  0  0  0999 V2000
   -3.0390   21.2430  -27.8660 C   0  0  0  0  0  0  0  0  0  0  0  0
   -2.6760   22.6050  -28.4080 C   0  0  0  0  0  0  0  0  0  0  0  0
   -1.4510   23.1650  -28.0170 C   0  0  0  0  0  0  0  0  0  0  0  0
   -1.1000   24.4210  -28.4930 C   0  0  0  0  0  0  0  0  0  0  0  0
   -0.0040   24.9450  -28.1590 O   0  0  0  0  0  0  0  0  0  0  0  0
   -1.9390   25.0850  -29.3200 N   0  0  0  0  0  0  0  0  0  0  0  0
   -3.1300   24.5530  -29.6970 C   0  0  0  0  0  0  0  0  0  0  0  0
   -3.8690   25.2150  -30.4750 O   0  0  0  0  0  0  0  0  0  0  0  0
   -3.5200   23.3160  -29.2380 N   0  0  0  0  0  0  0  0  0  0  0  0
   -4.8120   22.7590  -29.6900 C   0  0  0  0  0  0  0  0  0  0  0  0
   -4.6280   21.9730  -30.9490 C   0  0  0  0  0  0  0  0  0  0  0  0
   -5.3370   20.8650  -31.2480 N   0  0  0  0  0  0  0  0  0  0  0  0
   -4.9540   20.3010  -32.4280 C   0  0  0  0  0  0  0  0  0  0  0  0
   -5.6030   19.0660  -32.9380 C   0  0  0  0  0  0  0  0  0  0  0  0
   -5.1480   18.4790  -34.1350 C   0  0  0  0  0  0  0  0  0  0  0  0
   -5.7460   17.3160  -34.6290 C   0  0  0  0  0  0  0  0  0  0  0  0
   -6.8020   16.7220  -33.9360 C   0  0  0  0  0  0  0  0  0  0  0  0
   -7.2610   17.2880  -32.7460 C   0  0  0  0  0  0  0  0  0  0  0  0
   -6.6680   18.4520  -32.2460 C   0  0  0  0  0  0  0  0  0  0  0  0
   -3.9090   20.9720  -33.0720 C   0  0  0  0  0  0  0  0  0  0  0  0
   -3.4750   22.2940  -32.1270 S   0  0  0  0  0  0  0  0  0  0  0  0
   -3.0313   21.2720  -26.7664 H   0  0  0  0  0  0  0  0  0  0  0  0
   -4.0429   20.9638  -28.2184 H   0  0  0  0  0  0  0  0  0  0  0  0
   -2.3072   20.5012  -28.2184 H   0  0  0  0  0  0  0  0  0  0  0  0
   -0.7774   22.6164  -27.3422 H   0  0  0  0  0  0  0  0  0  0  0  0
   -5.2167   22.1005  -28.9073 H   0  0  0  0  0  0  0  0  0  0  0  0
   -5.5095   23.5871  -29.8846 H   0  0  0  0  0  0  0  0  0  0  0  0
   -4.3148   18.9398  -34.6858 H   0  0  0  0  0  0  0  0  0  0  0  0
   -5.3835   16.8680  -35.5660 H   0  0  0  0  0  0  0  0  0  0  0  0
   -7.2722   15.8080  -34.3278 H   0  0  0  0  0  0  0  0  0  0  0  0
   -8.0916   16.8174  -32.1995 H   0  0  0  0  0  0  0  0  0  0  0  0
   -7.0346   18.8917  -31.3067 H   0  0  0  0  0  0  0  0  0  0  0  0
   -3.4508   20.6849  -34.0299 H   0  0  0  0  0  0  0  0  0  0  0  0
  1  2  1  0
  2  3  2  0
  3  4  1  0
  4  5  2  0
  4  6  1  0
  6  7  1  0
  7  8  2  0
  7  9  1  0
  9 10  1  0
 10 11  1  0
 11 12  2  0
 12 13  1  0
 13 14  1  0
 14 15  2  0
 15 16  1  0
 16 17  2  0
 17 18  1  0
 18 19  2  0
 13 20  2  0
 20 21  1  0
  9  2  1  0
 21 11  1  0
 19 14  1  0
  1 22  1  0
  1 23  1  0
  1 24  1  0
  3 25  1  0
 10 26  1  0
 10 27  1  0
 15 28  1  0
 16 29  1  0
 17 30  1  0
 18 31  1  0
 19 32  1  0
 20 33  1  0
M  CHG  1   6  -1
M  END
>  <UniqueID>  (14) 
14

>  <SMILES>  (14) 
Cc1cc(=O)[n-]c(=O)n1Cc1nc(-c2ccccc2)cs1

>  <Energy>  (14) 
71.0426084545845

>  <Genealogy>  (14) 
Cc1cc(=O)[n-]c(=O)n1Cc1nc(-c2ccccc2)cs1 (protonated)
Cc1cc(=O)[n-]c(=O)n1Cc1nc(-c2ccccc2)cs1 (3D coordinates assigned)
Cc1cc(=O)[n-]c(=O)n1Cc1nc(-c2ccccc2)cs1 (optimized conformer: 71.0426084545845 kcal/mol)

>  <smiles>  (14) 
Cc1cc(=O)[nH]c(=O)n1Cc1nc(-c2ccccc2)cs1

>  <score_type>  (14) 
oracle

>  <origin>  (14) 
adgpu

>  <m_score__min__energy>  (14) 
-8.8800000000000008

>  <m_primary>  (14) 
energy

$$$$
14:0
     RDKit          3D

 67 71  0  0  0  0  0  0  0  0999 V2000
   -0.0550   22.2560  -23.3650 C   0  0  0  0  0  0  0  0  0  0  0  0
   -0.8190   22.5780  -24.5780 N   0  0  0  0  0  0  0  0  0  0  0  0
   -0.9820   21.3750  -25.4130 C   0  0  0  0  0  0  0  0  0  0  0  0
   -1.9720   21.6550  -26.5500 C   0  0  0  0  0  0  0  0  0  0  0  0
   -1.7600   23.0070  -27.1860 C   0  0  0  0  0  0  0  0  0  0  0  0
   -2.4820   23.3430  -28.3410 C   0  0  0  0  0  0  0  0  0  0  0  0
   -2.3160   24.5920  -28.9470 C   0  0  0  0  0  0  0  0  0  0  0  0
   -3.0900   24.9220  -30.1020 N   0  0  0  0  0  0  0  0  0  0  0  0
   -4.5010   24.0140  -30.5380 S   0  0  0  0  0  0  0  0  0  0  0  0
   -5.2360   23.6170  -29.2860 O   0  0  0  0  0  0  0  0  0  0  0  0
   -5.4220   24.8510  -31.3840 O   0  0  0  0  0  0  0  0  0  0  0  0
   -4.0180   22.5710  -31.4230 C   0  0  0  0  0  0  0  0  0  0  0  0
   -4.2540   22.4800  -32.7990 C   0  0  0  0  0  0  0  0  0  0  0  0
   -3.8650   21.3400  -33.5080 C   0  0  0  0  0  0  0  0  0  0  0  0
   -3.2340   20.2750  -32.8480 C   0  0  0  0  0  0  0  0  0  0  0  0
   -2.8380   19.0590  -33.5990 C   0  0  0  0  0  0  0  0  0  0  0  0
   -3.7010   17.9500  -33.6350 C   0  0  0  0  0  0  0  0  0  0  0  0
   -3.3290   16.7730  -34.3050 C   0  0  0  0  0  0  0  0  0  0  0  0
   -4.2410   15.5670  -34.2950 C   0  0  0  0  0  0  0  0  0  0  0  0
   -5.6420   15.9190  -34.5950 N   0  0  0  0  0  0  0  0  0  0  0  0
   -6.4600   16.0700  -33.3860 C   0  0  0  0  0  0  0  0  0  0  0  0
   -6.8050   17.5170  -33.1470 C   0  0  0  0  0  0  0  0  0  0  0  0
   -6.4740   18.4930  -34.1010 C   0  0  0  0  0  0  0  0  0  0  0  0
   -6.8140   19.8350  -33.8830 C   0  0  0  0  0  0  0  0  0  0  0  0
   -7.4820   20.2090  -32.7160 C   0  0  0  0  0  0  0  0  0  0  0  0
   -7.8360   19.2380  -31.7760 C   0  0  0  0  0  0  0  0  0  0  0  0
   -7.5010   17.8970  -31.9890 C   0  0  0  0  0  0  0  0  0  0  0  0
   -2.0880   16.7140  -34.9570 C   0  0  0  0  0  0  0  0  0  0  0  0
   -1.2340   17.8170  -34.9450 C   0  0  0  0  0  0  0  0  0  0  0  0
   -1.6000   18.9920  -34.2740 C   0  0  0  0  0  0  0  0  0  0  0  0
   -0.7460   20.0940  -34.2920 O   0  0  0  0  0  0  0  0  0  0  0  0
   -2.9730   20.3830  -31.4710 C   0  0  0  0  0  0  0  0  0  0  0  0
   -3.3620   21.5240  -30.7650 C   0  0  0  0  0  0  0  0  0  0  0  0
   -1.4210   25.5220  -28.3940 C   0  0  0  0  0  0  0  0  0  0  0  0
   -1.2470   26.7700  -28.9780 O   0  0  0  0  0  0  0  0  0  0  0  0
   -0.7090   25.2010  -27.2350 C   0  0  0  0  0  0  0  0  0  0  0  0
   -0.8990   23.9600  -26.6060 C   0  0  0  0  0  0  0  0  0  0  0  0
   -0.1370   23.6340  -25.3480 C   0  0  0  0  0  0  0  0  0  0  0  0
   -0.6533   22.5082  -22.4771 H   0  0  0  0  0  0  0  0  0  0  0  0
    0.1813   21.1817  -23.3549 H   0  0  0  0  0  0  0  0  0  0  0  0
    0.8790   22.8370  -23.3549 H   0  0  0  0  0  0  0  0  0  0  0  0
   -0.0080   21.0930  -25.8394 H   0  0  0  0  0  0  0  0  0  0  0  0
   -1.3693   20.5542  -24.7914 H   0  0  0  0  0  0  0  0  0  0  0  0
   -1.8506   20.8802  -27.3213 H   0  0  0  0  0  0  0  0  0  0  0  0
   -2.9843   21.6449  -26.1196 H   0  0  0  0  0  0  0  0  0  0  0  0
   -3.1856   22.6167  -28.7740 H   0  0  0  0  0  0  0  0  0  0  0  0
   -4.7482   23.3098  -33.3255 H   0  0  0  0  0  0  0  0  0  0  0  0
   -4.0547   21.2775  -34.5897 H   0  0  0  0  0  0  0  0  0  0  0  0
   -4.6782   18.0046  -33.1330 H   0  0  0  0  0  0  0  0  0  0  0  0
   -3.8872   14.8503  -35.0507 H   0  0  0  0  0  0  0  0  0  0  0  0
   -4.2130   15.1337  -33.2843 H   0  0  0  0  0  0  0  0  0  0  0  0
   -5.6630   16.8160  -35.1280 H   0  0  0  0  0  0  0  0  0  0  0  0
   -7.3891   15.4933  -33.5055 H   0  0  0  0  0  0  0  0  0  0  0  0
   -5.8854   15.6990  -32.5245 H   0  0  0  0  0  0  0  0  0  0  0  0
   -5.9465   18.2034  -35.0218 H   0  0  0  0  0  0  0  0  0  0  0  0
   -6.5537   20.5957  -34.6337 H   0  0  0  0  0  0  0  0  0  0  0  0
   -7.7292   21.2658  -32.5368 H   0  0  0  0  0  0  0  0  0  0  0  0
   -8.3800   19.5292  -30.8654 H   0  0  0  0  0  0  0  0  0  0  0  0
   -7.7842   17.1370  -31.2459 H   0  0  0  0  0  0  0  0  0  0  0  0
   -1.7872   15.7941  -35.4798 H   0  0  0  0  0  0  0  0  0  0  0  0
   -0.2665   17.7643  -35.4658 H   0  0  0  0  0  0  0  0  0  0  0  0
   -1.0510   21.0000  -34.6350 H   0  0  0  0  0  0  0  0  0  0  0  0
   -2.4593   19.5641  -30.9461 H   0  0  0  0  0  0  0  0  0  0  0  0
   -3.1520   21.6000  -29.6879 H   0  0  0  0  0  0  0  0  0  0  0  0
    0.0042   25.9245  -26.8132 H   0  0  0  0  0  0  0  0  0  0  0  0
    0.8720   23.2885  -25.6175 H   0  0  0  0  0  0  0  0  0  0  0  0
   -0.0800   24.5402  -24.7271 H   0  0  0  0  0  0  0  0  0  0  0  0
  1  2  1  0
  2  3  1  0
  3  4  1  0
  4  5  1  0
  5  6  2  0
  6  7  1  0
  7  8  1  0
  8  9  1  0
  9 10  2  0
  9 11  2  0
  9 12  1  0
 12 13  2  0
 13 14  1  0
 14 15  2  0
 15 16  1  0
 16 17  2  0
 17 18  1  0
 18 19  1  0
 19 20  1  0
 20 21  1  0
 21 22  1  0
 22 23  2  0
 23 24  1  0
 24 25  2  0
 25 26  1  0
 26 27  2  0
 18 28  2  0
 28 29  1  0
 29 30  2  0
 30 31  1  0
 15 32  1  0
 32 33  2  0
  7 34  2  0
 34 35  1  0
 34 36  1  0
 36 37  2  0
 37 38  1  0
 38  2  1  0
 37  5  1  0
 33 12  1  0
 30 16  1  0
 27 22  1  0
  1 39  1  0
  1 40  1  0
  1 41  1  0
  3 42  1  0
  3 43  1  0
  4 44  1  0
  4 45  1  0
  6 46  1  0
 13 47  1  0
 14 48  1  0
 17 49  1  0
 19 50  1  0
 19 51  1  0
 20 52  1  0
 21 53  1  0
 21 54  1  0
 23 55  1  0
 24 56  1  0
 25 57  1  0
 26 58  1  0
 27 59  1  0
 28 60  1  0
 29 61  1  0
 31 62  1  0
 32 63  1  0
 33 64  1  0
 36 65  1  0
 38 66  1  0
 38 67  1  0
M  CHG  2   8  -1  35  -1
M  END
>  <UniqueID>  (15) 
15

>  <SMILES>  (15) 
CN1CCc2cc([N-]S(=O)(=O)c3ccc(-c4cc(CNCc5ccccc5)ccc4O)cc3)c([O-])cc2C1

>  <Energy>  (15) 
90.92116204258467

>  <Genealogy>  (15) 
CN1CCc2cc([N-]S(=O)(=O)c3ccc(-c4cc(CNCc5ccccc5)ccc4O)cc3)c([O-])cc2C1 (protonated)
CN1CCc2cc([N-]S(=O)(=O)c3ccc(-c4cc(CNCc5ccccc5)ccc4O)cc3)c([O-])cc2C1 (3D coordinates assigned)
CN1CCc2cc([N-]S(=O)(=O)c3ccc(-c4cc(CNCc5ccccc5)ccc4O)cc3)c([O-])cc2C1 (nonaromatic ring conformer: 90.92116204258467 kcal/mol)

>  <smiles>  (15) 
CN1CCc2cc(NS(=O)(=O)c3ccc(-c4cc(CNCc5ccccc5)ccc4O)cc3)c(O)cc2C1

>  <score_type>  (15) 
oracle

>  <origin>  (15) 
adgpu

>  <m_score__min__energy>  (15) 
-13.92

>  <m_primary>  (15) 
energy

$$$$
15:0
     RDKit          3D

 60 62  0  0  0  0  0  0  0  0999 V2000
   -1.5750   21.2820  -28.5350 C   0  0  0  0  0  0  0  0  0  0  0  0
   -2.6100   22.1850  -29.1260 C   0  0  0  0  0  0  0  0  0  0  0  0
   -3.6750   21.7220  -29.8060 N   0  0  0  0  0  0  0  0  0  0  0  0
   -4.3740   22.7650  -30.2210 N   0  0  0  0  0  0  0  0  0  0  0  0
   -5.8050   22.6020  -31.1880 S   0  0  0  0  0  0  0  0  0  0  0  0
   -7.0090   22.5590  -30.2890 O   0  0  0  0  0  0  0  0  0  0  0  0
   -5.9520   23.7840  -32.1070 O   0  0  0  0  0  0  0  0  0  0  0  0
   -5.7140   21.1090  -32.1150 C   0  0  0  0  0  0  0  0  0  0  0  0
   -6.8250   20.2560  -32.1730 C   0  0  0  0  0  0  0  0  0  0  0  0
   -6.7570   19.0590  -32.8900 C   0  0  0  0  0  0  0  0  0  0  0  0
   -5.5720   18.6960  -33.5470 C   0  0  0  0  0  0  0  0  0  0  0  0
   -5.4840   17.1750  -34.4390 S   0  0  0  0  0  0  0  0  0  0  0  0
   -6.8690   16.5970  -34.5620 O   0  0  0  0  0  0  0  0  0  0  0  0
   -4.9670   17.4400  -35.8260 O   0  0  0  0  0  0  0  0  0  0  0  0
   -4.4400   16.0200  -33.6450 N   0  0  0  0  0  0  0  0  0  0  0  0
   -5.1530   14.7490  -33.4590 C   0  0  0  0  0  0  0  0  0  0  0  0
   -3.2240   15.8100  -34.4430 C   0  0  0  0  0  0  0  0  0  0  0  0
   -4.4580   19.5460  -33.4840 C   0  0  0  0  0  0  0  0  0  0  0  0
   -4.5300   20.7480  -32.7740 C   0  0  0  0  0  0  0  0  0  0  0  0
   -3.7710   23.9110  -29.8340 C   0  0  0  0  0  0  0  0  0  0  0  0
   -4.2910   25.2850  -30.1510 C   0  0  0  0  0  0  0  0  0  0  0  0
   -2.6310   23.5760  -29.1070 C   0  0  0  0  0  0  0  0  0  0  0  0
   -1.4320   24.6590  -28.3700 S   0  0  0  0  0  0  0  0  0  0  0  0
   -1.5770   26.0400  -28.9490 O   0  0  0  0  0  0  0  0  0  0  0  0
   -0.0500   24.1770  -28.7190 O   0  0  0  0  0  0  0  0  0  0  0  0
   -1.5890   24.7500  -26.6290 N   0  0  0  0  0  0  0  0  0  0  0  0
   -1.9820   26.1060  -26.1720 C   0  0  0  0  0  0  0  0  0  0  0  0
   -0.7940   26.9220  -25.6370 C   0  0  0  0  0  0  0  0  0  0  0  0
   -0.1040   26.2050  -24.4480 C   0  0  0  0  0  0  0  0  0  0  0  0
   -0.5910   26.7560  -23.1020 C   0  0  0  0  0  0  0  0  0  0  0  0
   -0.2920   24.6690  -24.5050 C   0  0  0  0  0  0  0  0  0  0  0  0
   -0.3910   24.1960  -25.9590 C   0  0  0  0  0  0  0  0  0  0  0  0
   -1.6301   21.3301  -27.4374 H   0  0  0  0  0  0  0  0  0  0  0  0
   -1.7572   20.2491  -28.8664 H   0  0  0  0  0  0  0  0  0  0  0  0
   -0.5763   21.6026  -28.8664 H   0  0  0  0  0  0  0  0  0  0  0  0
   -7.7540   20.5303  -31.6518 H   0  0  0  0  0  0  0  0  0  0  0  0
   -7.6356   18.3990  -32.9395 H   0  0  0  0  0  0  0  0  0  0  0  0
   -5.2667   14.5463  -32.3838 H   0  0  0  0  0  0  0  0  0  0  0  0
   -6.1464   14.8139  -33.9270 H   0  0  0  0  0  0  0  0  0  0  0  0
   -4.5798   13.9351  -33.9270 H   0  0  0  0  0  0  0  0  0  0  0  0
   -2.3656   15.6618  -33.7712 H   0  0  0  0  0  0  0  0  0  0  0  0
   -3.3509   14.9205  -35.0775 H   0  0  0  0  0  0  0  0  0  0  0  0
   -3.0452   16.6906  -35.0775 H   0  0  0  0  0  0  0  0  0  0  0  0
   -3.5249   19.2659  -33.9948 H   0  0  0  0  0  0  0  0  0  0  0  0
   -3.6548   21.4130  -32.7321 H   0  0  0  0  0  0  0  0  0  0  0  0
   -4.4953   25.8248  -29.2146 H   0  0  0  0  0  0  0  0  0  0  0  0
   -3.5392   25.8358  -30.7352 H   0  0  0  0  0  0  0  0  0  0  0  0
   -5.2192   25.2000  -30.7352 H   0  0  0  0  0  0  0  0  0  0  0  0
   -2.4268   26.6474  -27.0199 H   0  0  0  0  0  0  0  0  0  0  0  0
   -2.6978   25.9825  -25.3459 H   0  0  0  0  0  0  0  0  0  0  0  0
   -0.0613   27.0595  -26.4458 H   0  0  0  0  0  0  0  0  0  0  0  0
   -1.1723   27.8925  -25.2833 H   0  0  0  0  0  0  0  0  0  0  0  0
    0.9725   26.4123  -24.5380 H   0  0  0  0  0  0  0  0  0  0  0  0
   -0.1047   26.2058  -22.2830 H   0  0  0  0  0  0  0  0  0  0  0  0
   -0.3358   27.8235  -23.0288 H   0  0  0  0  0  0  0  0  0  0  0  0
   -1.6818   26.6339  -23.0288 H   0  0  0  0  0  0  0  0  0  0  0  0
    0.5676   24.1806  -24.0228 H   0  0  0  0  0  0  0  0  0  0  0  0
   -1.2214   24.4038  -23.9797 H   0  0  0  0  0  0  0  0  0  0  0  0
    0.5068   24.5238  -26.5035 H   0  0  0  0  0  0  0  0  0  0  0  0
   -0.4709   23.0989  -25.9605 H   0  0  0  0  0  0  0  0  0  0  0  0
  1  2  1  0
  2  3  2  0
  3  4  1  0
  4  5  1  0
  5  6  2  0
  5  7  2  0
  5  8  1  0
  8  9  2  0
  9 10  1  0
 10 11  2  0
 11 12  1  0
 12 13  2  0
 12 14  2  0
 12 15  1  0
 15 16  1  0
 15 17  1  0
 11 18  1  0
 18 19  2  0
  4 20  1  0
 20 21  1  0
 20 22  2  0
 22 23  1  0
 23 24  2  0
 23 25  2  0
 23 26  1  0
 26 27  1  0
 27 28  1  0
 28 29  1  0
 29 30  1  0
 29 31  1  0
 31 32  1  0
 22  2  1  0
 32 26  1  0
 19  8  1  0
  1 33  1  0
  1 34  1  0
  1 35  1  0
  9 36  1  0
 10 37  1  0
 16 38  1  0
 16 39  1  0
 16 40  1  0
 17 41  1  0
 17 42  1  0
 17 43  1  0
 18 44  1  0
 19 45  1  0
 21 46  1  0
 21 47  1  0
 21 48  1  0
 27 49  1  0
 27 50  1  0
 28 51  1  0
 28 52  1  0
 29 53  1  0
 30 54  1  0
 30 55  1  0
 30 56  1  0
 31 57  1  0
 31 58  1  0
 32 59  1  0
 32 60  1  0
M  END
>  <UniqueID>  (16) 
16

>  <SMILES>  (16) 
Cc1nn(S(=O)(=O)c2ccc(S(=O)(=O)N(C)C)cc2)c(C)c1S(=O)(=O)N1CCC(C)CC1

>  <Energy>  (16) 
94.4217117013944

>  <Genealogy>  (16) 
Cc1nn(S(=O)(=O)c2ccc(S(=O)(=O)N(C)C)cc2)c(C)c1S(=O)(=O)N1CCC(C)CC1 (3D coordinates assigned)
Cc1nn(S(=O)(=O)c2ccc(S(=O)(=O)N(C)C)cc2)c(C)c1S(=O)(=O)N1CCC(C)CC1 (nonaromatic ring conformer: 94.4217117013944 kcal/mol)

>  <smiles>  (16) 
Cc1nn(S(=O)(=O)c2ccc(S(=O)(=O)N(C)C)cc2)c(C)c1S(=O)(=O)N1CCC(C)CC1

>  <score_type>  (16) 
oracle

>  <origin>  (16) 
adgpu

>  <m_score__min__energy>  (16) 
-10.970000000000001

>  <m_primary>  (16) 
energy

$$$$
16:0
     RDKit          3D

 67 71  0  0  0  0  0  0  0  0999 V2000
    0.2380   17.5300  -35.0670 C   0  0  0  0  0  0  0  0  0  0  0  0
   -0.6980   18.4710  -34.3670 C   0  0  0  0  0  0  0  0  0  0  0  0
   -0.6120   19.8520  -34.5940 C   0  0  0  0  0  0  0  0  0  0  0  0
   -1.4650   20.7320  -33.9210 C   0  0  0  0  0  0  0  0  0  0  0  0
   -2.4030   20.2450  -32.9950 C   0  0  0  0  0  0  0  0  0  0  0  0
   -3.3210   21.1840  -32.3080 C   0  0  0  0  0  0  0  0  0  0  0  0
   -2.9220   22.3750  -31.7270 C   0  0  0  0  0  0  0  0  0  0  0  0
   -4.0670   22.9880  -31.2600 C   0  0  0  0  0  0  0  0  0  0  0  0
   -4.1120   24.2950  -30.5780 C   0  0  0  0  0  0  0  0  0  0  0  0
   -4.5810   25.2910  -31.1870 O   0  0  0  0  0  0  0  0  0  0  0  0
   -3.6260   24.4640  -29.2410 N   0  0  0  0  0  0  0  0  0  0  0  0
   -2.3220   24.0780  -28.7870 C   0  0  0  0  0  0  0  0  0  0  0  0
   -2.0340   22.7440  -28.4430 C   0  0  0  0  0  0  0  0  0  0  0  0
   -0.7610   22.3950  -27.9710 C   0  0  0  0  0  0  0  0  0  0  0  0
   -0.4090   20.7430  -27.4750 S   0  0  0  0  0  0  0  0  0  0  0  0
    1.0850   20.5760  -27.4340 O   0  0  0  0  0  0  0  0  0  0  0  0
   -0.9500   20.4970  -26.0930 O   0  0  0  0  0  0  0  0  0  0  0  0
   -1.1240   19.6350  -28.6280 N   0  0  0  0  0  0  0  0  0  0  0  0
   -1.2090   20.2210  -29.9800 C   0  0  0  0  0  0  0  0  0  0  0  0
    0.1700   20.3620  -30.6490 C   0  0  0  0  0  0  0  0  0  0  0  0
    1.1030   19.1720  -30.3670 C   0  0  0  0  0  0  0  0  0  0  0  0
    0.3380   17.9530  -29.8520 C   0  0  0  0  0  0  0  0  0  0  0  0
   -0.4860   18.2940  -28.5940 C   0  0  0  0  0  0  0  0  0  0  0  0
    0.2310   23.3760  -27.8630 C   0  0  0  0  0  0  0  0  0  0  0  0
   -0.0540   24.7030  -28.1930 C   0  0  0  0  0  0  0  0  0  0  0  0
   -1.3290   25.0580  -28.6420 C   0  0  0  0  0  0  0  0  0  0  0  0
   -1.6030   26.3850  -28.9540 O   0  0  0  0  0  0  0  0  0  0  0  0
   -5.1250   22.1300  -31.5380 C   0  0  0  0  0  0  0  0  0  0  0  0
   -6.5530   22.3150  -31.0990 C   0  0  0  0  0  0  0  0  0  0  0  0
   -4.6650   21.0370  -32.1910 N   0  0  0  0  0  0  0  0  0  0  0  0
   -5.4470   19.8900  -32.5710 C   0  0  0  0  0  0  0  0  0  0  0  0
   -5.4270   19.4240  -33.8950 C   0  0  0  0  0  0  0  0  0  0  0  0
   -6.1950   18.3150  -34.2630 C   0  0  0  0  0  0  0  0  0  0  0  0
   -6.9870   17.6650  -33.3120 C   0  0  0  0  0  0  0  0  0  0  0  0
   -7.0080   18.1210  -31.9920 C   0  0  0  0  0  0  0  0  0  0  0  0
   -6.2390   19.2280  -31.6200 C   0  0  0  0  0  0  0  0  0  0  0  0
   -2.4810   18.8610  -32.7650 C   0  0  0  0  0  0  0  0  0  0  0  0
   -1.6290   17.9830  -33.4380 C   0  0  0  0  0  0  0  0  0  0  0  0
    0.8079   16.9570  -34.3207 H   0  0  0  0  0  0  0  0  0  0  0  0
   -0.3406   16.8382  -35.6967 H   0  0  0  0  0  0  0  0  0  0  0  0
    0.9329   18.1050  -35.6967 H   0  0  0  0  0  0  0  0  0  0  0  0
    0.1299   20.2449  -35.3048 H   0  0  0  0  0  0  0  0  0  0  0  0
   -1.4014   21.8124  -34.1177 H   0  0  0  0  0  0  0  0  0  0  0  0
   -1.8936   22.7581  -31.6521 H   0  0  0  0  0  0  0  0  0  0  0  0
   -2.8110   21.9721  -28.5449 H   0  0  0  0  0  0  0  0  0  0  0  0
   -1.8403   19.5734  -30.6061 H   0  0  0  0  0  0  0  0  0  0  0  0
   -1.6371   21.2294  -29.8809 H   0  0  0  0  0  0  0  0  0  0  0  0
    0.0248   20.4428  -31.7364 H   0  0  0  0  0  0  0  0  0  0  0  0
    0.6476   21.2595  -30.2290 H   0  0  0  0  0  0  0  0  0  0  0  0
    1.6210   18.8987  -31.2981 H   0  0  0  0  0  0  0  0  0  0  0  0
    1.8176   19.4780  -29.5887 H   0  0  0  0  0  0  0  0  0  0  0  0
   -0.3427   17.5988  -30.6402 H   0  0  0  0  0  0  0  0  0  0  0  0
    1.0678   17.1740  -29.5863 H   0  0  0  0  0  0  0  0  0  0  0  0
   -1.2777   17.5382  -28.4851 H   0  0  0  0  0  0  0  0  0  0  0  0
    0.2172   18.3003  -27.7481 H   0  0  0  0  0  0  0  0  0  0  0  0
    1.2384   23.1013  -27.5171 H   0  0  0  0  0  0  0  0  0  0  0  0
    0.7277   25.4712  -28.0992 H   0  0  0  0  0  0  0  0  0  0  0  0
   -6.6009   22.3212  -30.0001 H   0  0  0  0  0  0  0  0  0  0  0  0
   -6.9354   23.2702  -31.4881 H   0  0  0  0  0  0  0  0  0  0  0  0
   -7.1662   21.4888  -31.4881 H   0  0  0  0  0  0  0  0  0  0  0  0
   -4.8048   19.9332  -34.6458 H   0  0  0  0  0  0  0  0  0  0  0  0
   -6.1759   17.9537  -35.3018 H   0  0  0  0  0  0  0  0  0  0  0  0
   -7.5935   16.7947  -33.6032 H   0  0  0  0  0  0  0  0  0  0  0  0
   -7.6305   17.6084  -31.2438 H   0  0  0  0  0  0  0  0  0  0  0  0
   -6.2548   19.5813  -30.5784 H   0  0  0  0  0  0  0  0  0  0  0  0
   -3.2181   18.4666  -32.0501 H   0  0  0  0  0  0  0  0  0  0  0  0
   -1.6881   16.9028  -33.2386 H   0  0  0  0  0  0  0  0  0  0  0  0
  1  2  1  0
  2  3  2  0
  3  4  1  0
  4  5  2  0
  5  6  1  0
  6  7  2  0
  7  8  1  0
  8  9  1  0
  9 10  2  0
  9 11  1  0
 11 12  1  0
 12 13  2  0
 13 14  1  0
 14 15  1  0
 15 16  2  0
 15 17  2  0
 15 18  1  0
 18 19  1  0
 19 20  1  0
 20 21  1  0
 21 22  1  0
 22 23  1  0
 14 24  2  0
 24 25  1  0
 25 26  2  0
 26 27  1  0
  8 28  2  0
 28 29  1  0
 28 30  1  0
 30 31  1  0
 31 32  2  0
 32 33  1  0
 33 34  2  0
 34 35  1  0
 35 36  2  0
  5 37  1  0
 37 38  2  0
 38  2  1  0
 30  6  1  0
 36 31  1  0
 26 12  1  0
 23 18  1  0
  1 39  1  0
  1 40  1  0
  1 41  1  0
  3 42  1  0
  4 43  1  0
  7 44  1  0
 13 45  1  0
 19 46  1  0
 19 47  1  0
 20 48  1  0
 20 49  1  0
 21 50  1  0
 21 51  1  0
 22 52  1  0
 22 53  1  0
 23 54  1  0
 23 55  1  0
 24 56  1  0
 25 57  1  0
 29 58  1  0
 29 59  1  0
 29 60  1  0
 32 61  1  0
 33 62  1  0
 34 63  1  0
 35 64  1  0
 36 65  1  0
 37 66  1  0
 38 67  1  0
M  CHG  2  11  -1  27  -1
M  END
>  <UniqueID>  (17) 
17

>  <SMILES>  (17) 
Cc1ccc(-c2cc(C(=O)[N-]c3cc(S(=O)(=O)N4CCCCC4)ccc3[O-])c(C)n2-c2ccccc2)cc1

>  <Energy>  (17) 
117.25106161406038

>  <Genealogy>  (17) 
Cc1ccc(-c2cc(C(=O)[N-]c3cc(S(=O)(=O)N4CCCCC4)ccc3[O-])c(C)n2-c2ccccc2)cc1 (protonated)
Cc1ccc(-c2cc(C(=O)[N-]c3cc(S(=O)(=O)N4CCCCC4)ccc3[O-])c(C)n2-c2ccccc2)cc1 (3D coordinates assigned)
Cc1ccc(-c2cc(C(=O)[N-]c3cc(S(=O)(=O)N4CCCCC4)ccc3[O-])c(C)n2-c2ccccc2)cc1 (nonaromatic ring conformer: 117.25106161406038 kcal/mol)

>  <smiles>  (17) 
Cc1ccc(-c2cc(C(=O)Nc3cc(S(=O)(=O)N4CCCCC4)ccc3O)c(C)n2-c2ccccc2)cc1

>  <score_type>  (17) 
oracle

>  <origin>  (17) 
adgpu

>  <m_score__min__energy>  (17) 
-16.5

>  <m_primary>  (17) 
energy

$$$$
17:0
     RDKit          3D

 58 61  0  0  0  0  0  0  0  0999 V2000
   -1.8230   21.1890  -33.8330 C   0  0  0  0  0  0  0  0  0  0  0  0
   -1.2510   20.1650  -32.8930 C   0  0  0  0  0  0  0  0  0  0  0  0
   -1.7010   18.8390  -32.9370 C   0  0  0  0  0  0  0  0  0  0  0  0
   -1.1530   17.8820  -32.0730 C   0  0  0  0  0  0  0  0  0  0  0  0
   -0.1320   18.2350  -31.1790 C   0  0  0  0  0  0  0  0  0  0  0  0
    0.4280   17.2710  -30.3400 O   0  0  0  0  0  0  0  0  0  0  0  0
    0.3350   19.5600  -31.1330 C   0  0  0  0  0  0  0  0  0  0  0  0
    1.3720   19.8980  -30.1970 N   0  0  0  0  0  0  0  0  0  0  0  0
    1.2320   19.7400  -28.4760 S   0  0  0  0  0  0  0  0  0  0  0  0
    2.0890   20.7960  -27.8340 O   0  0  0  0  0  0  0  0  0  0  0  0
    1.6980   18.3690  -28.0690 O   0  0  0  0  0  0  0  0  0  0  0  0
   -0.4530   19.9530  -27.9620 C   0  0  0  0  0  0  0  0  0  0  0  0
   -1.0990   18.8730  -27.3360 C   0  0  0  0  0  0  0  0  0  0  0  0
   -2.4430   18.9580  -26.9670 C   0  0  0  0  0  0  0  0  0  0  0  0
   -3.1610   20.1230  -27.2170 C   0  0  0  0  0  0  0  0  0  0  0  0
   -2.5360   21.2140  -27.8190 C   0  0  0  0  0  0  0  0  0  0  0  0
   -1.1790   21.1590  -28.1870 C   0  0  0  0  0  0  0  0  0  0  0  0
   -0.5720   22.3710  -28.7970 C   0  0  0  0  0  0  0  0  0  0  0  0
    0.3300   23.0170  -28.1930 O   0  0  0  0  0  0  0  0  0  0  0  0
   -1.0680   22.8690  -30.0460 N   0  0  0  0  0  0  0  0  0  0  0  0
   -2.4590   23.0460  -30.3230 C   0  0  0  0  0  0  0  0  0  0  0  0
   -3.1640   22.0330  -30.9860 C   0  0  0  0  0  0  0  0  0  0  0  0
   -4.5190   22.2020  -31.3060 C   0  0  0  0  0  0  0  0  0  0  0  0
   -5.4210   20.9050  -32.0980 S   0  0  0  0  0  0  0  0  0  0  0  0
   -4.8140   20.6520  -33.4510 O   0  0  0  0  0  0  0  0  0  0  0  0
   -5.2920   19.6430  -31.2880 O   0  0  0  0  0  0  0  0  0  0  0  0
   -7.1190   21.2800  -32.2980 N   0  0  0  0  0  0  0  0  0  0  0  0
   -7.7500   21.7000  -31.0470 C   0  0  0  0  0  0  0  0  0  0  0  0
   -9.2330   21.4010  -31.1960 C   0  0  0  0  0  0  0  0  0  0  0  0
   -9.3260   20.3600  -32.3040 C   0  0  0  0  0  0  0  0  0  0  0  0
   -7.8920   20.1230  -32.7550 C   0  0  0  0  0  0  0  0  0  0  0  0
   -5.1490   23.4210  -31.0100 C   0  0  0  0  0  0  0  0  0  0  0  0
   -4.4470   24.4400  -30.3630 C   0  0  0  0  0  0  0  0  0  0  0  0
   -3.1070   24.2550  -30.0130 C   0  0  0  0  0  0  0  0  0  0  0  0
   -2.4140   25.2950  -29.3990 O   0  0  0  0  0  0  0  0  0  0  0  0
   -0.2260   20.5190  -32.0010 C   0  0  0  0  0  0  0  0  0  0  0  0
   -2.2788   22.0050  -33.2530 H   0  0  0  0  0  0  0  0  0  0  0  0
   -1.0203   21.5937  -34.4669 H   0  0  0  0  0  0  0  0  0  0  0  0
   -2.5885   20.7177  -34.4669 H   0  0  0  0  0  0  0  0  0  0  0  0
   -2.4858   18.5488  -33.6510 H   0  0  0  0  0  0  0  0  0  0  0  0
   -1.5259   16.8474  -32.0960 H   0  0  0  0  0  0  0  0  0  0  0  0
    1.1500   17.5060  -29.6710 H   0  0  0  0  0  0  0  0  0  0  0  0
   -0.5383   17.9484  -27.1341 H   0  0  0  0  0  0  0  0  0  0  0  0
   -2.9342   18.1035  -26.4785 H   0  0  0  0  0  0  0  0  0  0  0  0
   -4.2236   20.1834  -26.9392 H   0  0  0  0  0  0  0  0  0  0  0  0
   -3.1122   22.1315  -28.0092 H   0  0  0  0  0  0  0  0  0  0  0  0
   -2.6512   21.0985  -31.2575 H   0  0  0  0  0  0  0  0  0  0  0  0
   -7.3308   21.1359  -30.2008 H   0  0  0  0  0  0  0  0  0  0  0  0
   -7.5752   22.7680  -30.8498 H   0  0  0  0  0  0  0  0  0  0  0  0
   -9.6412   21.0005  -30.2563 H   0  0  0  0  0  0  0  0  0  0  0  0
   -9.8109   22.3059  -31.4351 H   0  0  0  0  0  0  0  0  0  0  0  0
   -9.7683   19.4284  -31.9211 H   0  0  0  0  0  0  0  0  0  0  0  0
   -9.9653   20.6993  -33.1324 H   0  0  0  0  0  0  0  0  0  0  0  0
   -7.4987   19.2002  -32.3036 H   0  0  0  0  0  0  0  0  0  0  0  0
   -7.8309   20.0085  -33.8473 H   0  0  0  0  0  0  0  0  0  0  0  0
   -6.2018   23.5744  -31.2894 H   0  0  0  0  0  0  0  0  0  0  0  0
   -4.9497   25.3899  -30.1285 H   0  0  0  0  0  0  0  0  0  0  0  0
    0.1430   21.5550  -31.9792 H   0  0  0  0  0  0  0  0  0  0  0  0
  1  2  1  0
  2  3  2  0
  3  4  1  0
  4  5  2  0
  5  6  1  0
  5  7  1  0
  7  8  1  0
  8  9  1  0
  9 10  2  0
  9 11  2  0
  9 12  1  0
 12 13  2  0
 13 14  1  0
 14 15  2  0
 15 16  1  0
 16 17  2  0
 17 18  1  0
 18 19  2  0
 18 20  1  0
 20 21  1  0
 21 22  2  0
 22 23  1  0
 23 24  1  0
 24 25  2  0
 24 26  2  0
 24 27  1  0
 27 28  1  0
 28 29  1  0
 29 30  1  0
 30 31  1  0
 23 32  2  0
 32 33  1  0
 33 34  2  0
 34 35  1  0
  7 36  2  0
 36  2  1  0
 17 12  1  0
 34 21  1  0
 31 27  1  0
  1 37  1  0
  1 38  1  0
  1 39  1  0
  3 40  1  0
  4 41  1  0
  6 42  1  0
 13 43  1  0
 14 44  1  0
 15 45  1  0
 16 46  1  0
 22 47  1  0
 28 48  1  0
 28 49  1  0
 29 50  1  0
 29 51  1  0
 30 52  1  0
 30 53  1  0
 31 54  1  0
 31 55  1  0
 32 56  1  0
 33 57  1  0
 36 58  1  0
M  CHG  3   8  -1  20  -1  35  -1
M  END
>  <UniqueID>  (18) 
18

>  <SMILES>  (18) 
Cc1ccc(O)c([N-]S(=O)(=O)c2ccccc2C(=O)[N-]c2cc(S(=O)(=O)N3CCCC3)ccc2[O-])c1

>  <Energy>  (18) 
79.48035248354766

>  <Genealogy>  (18) 
Cc1ccc(O)c([N-]S(=O)(=O)c2ccccc2C(=O)[N-]c2cc(S(=O)(=O)N3CCCC3)ccc2[O-])c1 (protonated)
Cc1ccc(O)c([N-]S(=O)(=O)c2ccccc2C(=O)[N-]c2cc(S(=O)(=O)N3CCCC3)ccc2[O-])c1 (3D coordinates assigned)
Cc1ccc(O)c([N-]S(=O)(=O)c2ccccc2C(=O)[N-]c2cc(S(=O)(=O)N3CCCC3)ccc2[O-])c1 (nonaromatic ring conformer: 79.48035248354766 kcal/mol)

>  <smiles>  (18) 
Cc1ccc(O)c(NS(=O)(=O)c2ccccc2C(=O)Nc2cc(S(=O)(=O)N3CCCC3)ccc2O)c1

>  <score_type>  (18) 
oracle

>  <origin>  (18) 
adgpu

>  <m_score__min__energy>  (18) 
-16.23

>  <m_primary>  (18) 
energy

$$$$
18:0
     RDKit          3D

 64 68  0  0  0  0  0  0  0  0999 V2000
   -3.2540   22.7370  -31.8850 O   0  0  0  0  0  0  0  0  0  0  0  0
   -4.2790   23.3300  -31.4530 C   0  0  0  0  0  0  0  0  0  0  0  0
   -5.6200   23.0240  -32.0470 C   0  0  0  0  0  0  0  0  0  0  0  0
   -5.6980   21.6210  -32.5000 N   0  0  0  0  0  0  0  0  0  0  0  0
   -4.6600   21.1870  -33.4690 C   0  0  0  0  0  0  0  0  0  0  0  0
   -4.2870   19.7710  -33.3210 N   0  0  0  0  0  0  0  0  0  0  0  0
   -3.7280   19.4740  -31.9840 C   0  0  0  0  0  0  0  0  0  0  0  0
   -2.3620   20.0910  -31.8690 C   0  0  0  0  0  0  0  0  0  0  0  0
   -1.8120   20.3970  -30.6120 C   0  0  0  0  0  0  0  0  0  0  0  0
   -0.5150   20.9090  -30.5160 C   0  0  0  0  0  0  0  0  0  0  0  0
    0.2320   21.1450  -31.6750 C   0  0  0  0  0  0  0  0  0  0  0  0
   -0.3170   20.8680  -32.9340 C   0  0  0  0  0  0  0  0  0  0  0  0
    0.6200   21.1700  -34.3880 Cl  0  0  0  0  0  0  0  0  0  0  0  0
   -1.6030   20.3280  -33.0290 C   0  0  0  0  0  0  0  0  0  0  0  0
   -5.6910   18.8100  -33.6610 S   0  0  0  0  0  0  0  0  0  0  0  0
   -6.0300   18.8990  -35.1230 O   0  0  0  0  0  0  0  0  0  0  0  0
   -5.4520   17.3740  -33.2880 O   0  0  0  0  0  0  0  0  0  0  0  0
   -6.9870   19.4850  -32.7080 C   0  0  0  0  0  0  0  0  0  0  0  0
   -8.1110   18.7000  -32.4200 C   0  0  0  0  0  0  0  0  0  0  0  0
   -9.1220   19.1990  -31.6020 C   0  0  0  0  0  0  0  0  0  0  0  0
   -9.0150   20.4810  -31.0650 C   0  0  0  0  0  0  0  0  0  0  0  0
   -7.9010   21.2730  -31.3540 C   0  0  0  0  0  0  0  0  0  0  0  0
   -6.8620   20.7950  -32.1890 C   0  0  0  0  0  0  0  0  0  0  0  0
   -4.1820   24.2910  -30.3940 N   0  0  0  0  0  0  0  0  0  0  0  0
   -3.2630   24.2780  -29.2920 C   0  0  0  0  0  0  0  0  0  0  0  0
   -1.9190   23.9820  -29.5480 C   0  0  0  0  0  0  0  0  0  0  0  0
   -0.9940   23.9150  -28.5030 C   0  0  0  0  0  0  0  0  0  0  0  0
   -1.4050   24.1320  -27.1810 C   0  0  0  0  0  0  0  0  0  0  0  0
   -0.2320   24.0550  -25.8610 S   0  0  0  0  0  0  0  0  0  0  0  0
    1.0670   23.5170  -26.3930 O   0  0  0  0  0  0  0  0  0  0  0  0
   -0.7360   23.1020  -24.8150 O   0  0  0  0  0  0  0  0  0  0  0  0
    0.0580   25.6090  -25.1160 N   0  0  0  0  0  0  0  0  0  0  0  0
   -0.5550   26.7030  -25.8680 C   0  0  0  0  0  0  0  0  0  0  0  0
   -0.7880   27.8280  -24.8740 C   0  0  0  0  0  0  0  0  0  0  0  0
   -0.7770   27.1640  -23.5050 C   0  0  0  0  0  0  0  0  0  0  0  0
   -0.5130   25.6910  -23.7730 C   0  0  0  0  0  0  0  0  0  0  0  0
   -2.7500   24.4240  -26.9190 C   0  0  0  0  0  0  0  0  0  0  0  0
   -3.6780   24.4840  -27.9640 C   0  0  0  0  0  0  0  0  0  0  0  0
   -6.3966   23.1993  -31.2880 H   0  0  0  0  0  0  0  0  0  0  0  0
   -5.7720   23.6791  -32.9175 H   0  0  0  0  0  0  0  0  0  0  0  0
   -5.0451   21.3428  -34.4875 H   0  0  0  0  0  0  0  0  0  0  0  0
   -3.7582   21.7856  -33.2732 H   0  0  0  0  0  0  0  0  0  0  0  0
   -4.3868   19.8926  -31.2089 H   0  0  0  0  0  0  0  0  0  0  0  0
   -3.6532   18.3849  -31.8493 H   0  0  0  0  0  0  0  0  0  0  0  0
   -2.4049   20.2328  -29.7001 H   0  0  0  0  0  0  0  0  0  0  0  0
   -0.0815   21.1265  -29.5287 H   0  0  0  0  0  0  0  0  0  0  0  0
    1.2523   21.5488  -31.5978 H   0  0  0  0  0  0  0  0  0  0  0  0
   -2.0235   20.0872  -34.0165 H   0  0  0  0  0  0  0  0  0  0  0  0
   -8.1954   17.6872  -32.8408 H   0  0  0  0  0  0  0  0  0  0  0  0
  -10.0048   18.5815  -31.3798 H   0  0  0  0  0  0  0  0  0  0  0  0
   -9.8100   20.8701  -30.4118 H   0  0  0  0  0  0  0  0  0  0  0  0
   -7.8298   22.2839  -30.9262 H   0  0  0  0  0  0  0  0  0  0  0  0
   -1.5881   23.8005  -30.5812 H   0  0  0  0  0  0  0  0  0  0  0  0
    0.0611   23.6910  -28.7189 H   0  0  0  0  0  0  0  0  0  0  0  0
    0.1189   27.0377  -26.6704 H   0  0  0  0  0  0  0  0  0  0  0  0
   -1.4969   26.3850  -26.3388 H   0  0  0  0  0  0  0  0  0  0  0  0
    0.0143   28.5772  -24.9452 H   0  0  0  0  0  0  0  0  0  0  0  0
   -1.7341   28.3552  -25.0661 H   0  0  0  0  0  0  0  0  0  0  0  0
    0.0196   27.5898  -22.8771 H   0  0  0  0  0  0  0  0  0  0  0  0
   -1.7243   27.3187  -22.9676 H   0  0  0  0  0  0  0  0  0  0  0  0
    0.1965   25.2915  -23.0334 H   0  0  0  0  0  0  0  0  0  0  0  0
   -1.4383   25.1010  -23.6976 H   0  0  0  0  0  0  0  0  0  0  0  0
   -3.0783   24.6072  -25.8852 H   0  0  0  0  0  0  0  0  0  0  0  0
   -4.7358   24.6930  -27.7464 H   0  0  0  0  0  0  0  0  0  0  0  0
  1  2  2  0
  2  3  1  0
  3  4  1  0
  4  5  1  0
  5  6  1  0
  6  7  1  0
  7  8  1  0
  8  9  2  0
  9 10  1  0
 10 11  2  0
 11 12  1  0
 12 13  1  0
 12 14  2  0
  6 15  1  0
 15 16  2  0
 15 17  2  0
 15 18  1  0
 18 19  2  0
 19 20  1  0
 20 21  2  0
 21 22  1  0
 22 23  2  0
  2 24  1  0
 24 25  1  0
 25 26  2  0
 26 27  1  0
 27 28  2  0
 28 29  1  0
 29 30  2  0
 29 31  2  0
 29 32  1  0
 32 33  1  0
 33 34  1  0
 34 35  1  0
 35 36  1  0
 28 37  1  0
 37 38  2  0
 23  4  1  0
 38 25  1  0
 14  8  1  0
 23 18  1  0
 36 32  1  0
  3 39  1  0
  3 40  1  0
  5 41  1  0
  5 42  1  0
  7 43  1  0
  7 44  1  0
  9 45  1  0
 10 46  1  0
 11 47  1  0
 14 48  1  0
 19 49  1  0
 20 50  1  0
 21 51  1  0
 22 52  1  0
 26 53  1  0
 27 54  1  0
 33 55  1  0
 33 56  1  0
 34 57  1  0
 34 58  1  0
 35 59  1  0
 35 60  1  0
 36 61  1  0
 36 62  1  0
 37 63  1  0
 38 64  1  0
M  CHG  1  24  -1
M  END
>  <UniqueID>  (19) 
19

>  <SMILES>  (19) 
O=C(CN1CN(Cc2cccc(Cl)c2)S(=O)(=O)c2ccccc21)[N-]c1ccc(S(=O)(=O)N2CCCC2)cc1

>  <Energy>  (19) 
80.20565942395896

>  <Genealogy>  (19) 
O=C(CN1CN(Cc2cccc(Cl)c2)S(=O)(=O)c2ccccc21)[N-]c1ccc(S(=O)(=O)N2CCCC2)cc1 (protonated)
O=C(CN1CN(Cc2cccc(Cl)c2)S(=O)(=O)c2ccccc21)[N-]c1ccc(S(=O)(=O)N2CCCC2)cc1 (3D coordinates assigned)
O=C(CN1CN(Cc2cccc(Cl)c2)S(=O)(=O)c2ccccc21)[N-]c1ccc(S(=O)(=O)N2CCCC2)cc1 (nonaromatic ring conformer: 80.20565942395896 kcal/mol)

>  <smiles>  (19) 
O=C(CN1CN(Cc2cccc(Cl)c2)S(=O)(=O)c2ccccc21)Nc1ccc(S(=O)(=O)N2CCCC2)cc1

>  <score_type>  (19) 
oracle

>  <origin>  (19) 
adgpu

>  <m_score__min__energy>  (19) 
-13.130000000000001

>  <m_primary>  (19) 
energy

$$$$
19:0
     RDKit          3D

 51 54  0  0  0  0  0  0  0  0999 V2000
   -3.0040   18.2030  -33.9170 C   0  0  0  0  0  0  0  0  0  0  0  0
   -3.6990   17.2890  -33.0750 O   0  0  0  0  0  0  0  0  0  0  0  0
   -4.5380   16.2600  -33.5300 C   0  0  0  0  0  0  0  0  0  0  0  0
   -4.0640   14.9420  -33.6910 C   0  0  0  0  0  0  0  0  0  0  0  0
   -4.9270   13.9220  -34.1000 C   0  0  0  0  0  0  0  0  0  0  0  0
   -6.2700   14.2010  -34.3480 C   0  0  0  0  0  0  0  0  0  0  0  0
   -6.7530   15.5020  -34.2010 C   0  0  0  0  0  0  0  0  0  0  0  0
   -5.8960   16.5450  -33.8090 C   0  0  0  0  0  0  0  0  0  0  0  0
   -6.4270   17.8790  -33.6850 N   0  0  0  0  0  0  0  0  0  0  0  0
   -7.2620   18.3490  -32.7400 C   0  0  0  0  0  0  0  0  0  0  0  0
   -7.4400   19.6880  -33.0160 C   0  0  0  0  0  0  0  0  0  0  0  0
   -8.3000   20.6380  -32.2930 C   0  0  0  0  0  0  0  0  0  0  0  0
   -9.5050   20.3380  -32.0780 O   0  0  0  0  0  0  0  0  0  0  0  0
   -7.7770   21.8770  -31.7890 N   0  0  0  0  0  0  0  0  0  0  0  0
   -8.1110   22.2910  -30.4220 C   0  0  0  0  0  0  0  0  0  0  0  0
   -7.2320   23.4660  -29.9790 C   0  0  0  0  0  0  0  0  0  0  0  0
   -5.8880   23.2970  -30.5520 N   0  0  0  0  0  0  0  0  0  0  0  0
   -4.7600   24.4020  -29.8040 S   0  0  0  0  0  0  0  0  0  0  0  0
   -4.1420   25.2730  -30.8620 O   0  0  0  0  0  0  0  0  0  0  0  0
   -5.5010   25.2950  -28.8480 O   0  0  0  0  0  0  0  0  0  0  0  0
   -3.4860   23.5430  -28.9280 C   0  0  0  0  0  0  0  0  0  0  0  0
   -3.7560   22.2890  -28.3570 C   0  0  0  0  0  0  0  0  0  0  0  0
   -2.7550   21.5970  -27.6690 C   0  0  0  0  0  0  0  0  0  0  0  0
   -1.4800   22.1520  -27.5430 C   0  0  0  0  0  0  0  0  0  0  0  0
   -1.2020   23.4010  -28.1050 C   0  0  0  0  0  0  0  0  0  0  0  0
   -2.2000   24.0990  -28.7950 C   0  0  0  0  0  0  0  0  0  0  0  0
   -1.9050   25.3100  -29.3310 F   0  0  0  0  0  0  0  0  0  0  0  0
   -5.9010   23.4910  -32.0170 C   0  0  0  0  0  0  0  0  0  0  0  0
   -7.1250   22.8340  -32.6920 C   0  0  0  0  0  0  0  0  0  0  0  0
   -6.7190   19.9960  -34.1120 N   0  0  0  0  0  0  0  0  0  0  0  0
   -6.1070   18.8820  -34.4900 N   0  0  0  0  0  0  0  0  0  0  0  0
   -2.4538   18.9265  -33.2975 H   0  0  0  0  0  0  0  0  0  0  0  0
   -2.2957   17.6506  -34.5520 H   0  0  0  0  0  0  0  0  0  0  0  0
   -3.7256   18.7379  -34.5520 H   0  0  0  0  0  0  0  0  0  0  0  0
   -3.0061   14.7148  -33.4930 H   0  0  0  0  0  0  0  0  0  0  0  0
   -4.5462   12.8978  -34.2264 H   0  0  0  0  0  0  0  0  0  0  0  0
   -6.9500   13.3946  -34.6600 H   0  0  0  0  0  0  0  0  0  0  0  0
   -7.8151   15.7135  -34.3938 H   0  0  0  0  0  0  0  0  0  0  0  0
   -7.7120   17.7794  -31.9136 H   0  0  0  0  0  0  0  0  0  0  0  0
   -9.1670   22.5968  -30.3857 H   0  0  0  0  0  0  0  0  0  0  0  0
   -7.9343   21.4432  -29.7438 H   0  0  0  0  0  0  0  0  0  0  0  0
   -7.6697   24.4099  -30.3359 H   0  0  0  0  0  0  0  0  0  0  0  0
   -7.1690   23.4916  -28.8811 H   0  0  0  0  0  0  0  0  0  0  0  0
   -4.7598   21.8491  -28.4515 H   0  0  0  0  0  0  0  0  0  0  0  0
   -2.9721   20.6137  -27.2262 H   0  0  0  0  0  0  0  0  0  0  0  0
   -0.6939   21.6058  -27.0011 H   0  0  0  0  0  0  0  0  0  0  0  0
   -0.1968   23.8365  -28.0049 H   0  0  0  0  0  0  0  0  0  0  0  0
   -5.9185   24.5702  -32.2294 H   0  0  0  0  0  0  0  0  0  0  0  0
   -4.9986   23.0120  -32.4246 H   0  0  0  0  0  0  0  0  0  0  0  0
   -7.8468   23.6171  -32.9673 H   0  0  0  0  0  0  0  0  0  0  0  0
   -6.7820   22.2925  -33.5859 H   0  0  0  0  0  0  0  0  0  0  0  0
  1  2  1  0
  2  3  1  0
  3  4  2  0
  4  5  1  0
  5  6  2  0
  6  7  1  0
  7  8  2  0
  8  9  1  0
  9 10  1  0
 10 11  2  0
 11 12  1  0
 12 13  2  0
 12 14  1  0
 14 15  1  0
 15 16  1  0
 16 17  1  0
 17 18  1  0
 18 19  2  0
 18 20  2  0
 18 21  1  0
 21 22  2  0
 22 23  1  0
 23 24  2  0
 24 25  1  0
 25 26  2  0
 26 27  1  0
 17 28  1  0
 28 29  1  0
 11 30  1  0
 30 31  2  0
  8  3  1  0
 31  9  1  0
 29 14  1  0
 26 21  1  0
  1 32  1  0
  1 33  1  0
  1 34  1  0
  4 35  1  0
  5 36  1  0
  6 37  1  0
  7 38  1  0
 10 39  1  0
 15 40  1  0
 15 41  1  0
 16 42  1  0
 16 43  1  0
 22 44  1  0
 23 45  1  0
 24 46  1  0
 25 47  1  0
 28 48  1  0
 28 49  1  0
 29 50  1  0
 29 51  1  0
M  END
>  <UniqueID>  (20) 
20

>  <SMILES>  (20) 
COc1ccccc1-n1cc(C(=O)N2CCN(S(=O)(=O)c3ccccc3F)CC2)nn1

>  <Energy>  (20) 
100.01234298231971

>  <Genealogy>  (20) 
COc1ccccc1-n1cc(C(=O)N2CCN(S(=O)(=O)c3ccccc3F)CC2)nn1 (3D coordinates assigned)
COc1ccccc1-n1cc(C(=O)N2CCN(S(=O)(=O)c3ccccc3F)CC2)nn1 (nonaromatic ring conformer: 100.01234298231971 kcal/mol)

>  <smiles>  (20) 
COc1ccccc1-n1cc(C(=O)N2CCN(S(=O)(=O)c3ccccc3F)CC2)nn1

>  <score_type>  (20) 
oracle

>  <origin>  (20) 
adgpu

>  <m_score__min__energy>  (20) 
-10.029999999999999

>  <m_primary>  (20) 
energy

$$$$
20:0
     RDKit          3D

 60 63  0  0  0  0  0  0  0  0999 V2000
   -9.8780   21.3560  -31.9450 C   0  0  0  0  0  0  0  0  0  0  0  0
   -8.4660   20.9020  -32.1690 C   0  0  0  0  0  0  0  0  0  0  0  0
   -8.1900   19.8760  -33.0800 C   0  0  0  0  0  0  0  0  0  0  0  0
   -6.8750   19.4690  -33.3010 C   0  0  0  0  0  0  0  0  0  0  0  0
   -5.8090   20.0950  -32.6320 C   0  0  0  0  0  0  0  0  0  0  0  0
   -4.4710   19.6110  -32.8130 N   0  0  0  0  0  0  0  0  0  0  0  0
   -4.1060   18.6870  -33.8490 C   0  0  0  0  0  0  0  0  0  0  0  0
   -4.9640   18.2640  -34.6710 O   0  0  0  0  0  0  0  0  0  0  0  0
   -2.7020   18.2810  -33.9970 C   0  0  0  0  0  0  0  0  0  0  0  0
   -2.4360   16.9660  -34.4100 C   0  0  0  0  0  0  0  0  0  0  0  0
   -1.1210   16.5230  -34.5580 C   0  0  0  0  0  0  0  0  0  0  0  0
   -0.0600   17.3880  -34.2920 C   0  0  0  0  0  0  0  0  0  0  0  0
   -0.3110   18.7020  -33.8880 C   0  0  0  0  0  0  0  0  0  0  0  0
   -1.6280   19.1680  -33.7440 C   0  0  0  0  0  0  0  0  0  0  0  0
   -1.8820   20.8570  -33.2540 S   0  0  0  0  0  0  0  0  0  0  0  0
   -0.7630   21.6800  -33.8280 O   0  0  0  0  0  0  0  0  0  0  0  0
   -3.1610   21.3710  -33.8560 O   0  0  0  0  0  0  0  0  0  0  0  0
   -1.8750   21.0870  -31.5150 N   0  0  0  0  0  0  0  0  0  0  0  0
   -1.2410   19.9820  -30.7960 C   0  0  0  0  0  0  0  0  0  0  0  0
   -0.7460   20.5510  -29.4710 C   0  0  0  0  0  0  0  0  0  0  0  0
   -0.8100   22.0630  -29.6300 C   0  0  0  0  0  0  0  0  0  0  0  0
   -1.1540   22.2850  -31.0940 C   0  0  0  0  0  0  0  0  0  0  0  0
   -6.0790   21.1560  -31.7400 C   0  0  0  0  0  0  0  0  0  0  0  0
   -4.7820   22.0330  -30.9150 S   0  0  0  0  0  0  0  0  0  0  0  0
   -3.9150   21.0350  -30.2030 O   0  0  0  0  0  0  0  0  0  0  0  0
   -3.9530   22.7930  -31.9110 O   0  0  0  0  0  0  0  0  0  0  0  0
   -5.4850   23.1520  -29.7650 N   0  0  0  0  0  0  0  0  0  0  0  0
   -6.0960   24.3180  -30.4420 C   0  0  0  0  0  0  0  0  0  0  0  0
   -5.1940   25.5660  -30.4120 C   0  0  0  0  0  0  0  0  0  0  0  0
   -3.8370   25.1860  -30.4660 O   0  0  0  0  0  0  0  0  0  0  0  0
   -3.4600   24.5460  -29.2580 C   0  0  0  0  0  0  0  0  0  0  0  0
   -4.5190   23.5500  -28.7260 C   0  0  0  0  0  0  0  0  0  0  0  0
   -7.4070   21.5480  -31.5160 C   0  0  0  0  0  0  0  0  0  0  0  0
  -10.0757   21.4196  -30.8648 H   0  0  0  0  0  0  0  0  0  0  0  0
  -10.0220   22.3457  -32.4030 H   0  0  0  0  0  0  0  0  0  0  0  0
  -10.5718   20.6356  -32.4030 H   0  0  0  0  0  0  0  0  0  0  0  0
   -9.0132   19.3892  -33.6234 H   0  0  0  0  0  0  0  0  0  0  0  0
   -6.6696   18.6499  -34.0059 H   0  0  0  0  0  0  0  0  0  0  0  0
   -3.7130   20.0000  -32.2020 H   0  0  0  0  0  0  0  0  0  0  0  0
   -3.2701   16.2798  -34.6185 H   0  0  0  0  0  0  0  0  0  0  0  0
   -0.9214   15.4917  -34.8844 H   0  0  0  0  0  0  0  0  0  0  0  0
    0.9763   17.0354  -34.4004 H   0  0  0  0  0  0  0  0  0  0  0  0
    0.5315   19.3782  -33.6807 H   0  0  0  0  0  0  0  0  0  0  0  0
   -1.9705   19.1788  -30.6152 H   0  0  0  0  0  0  0  0  0  0  0  0
   -0.4117   19.5540  -31.3783 H   0  0  0  0  0  0  0  0  0  0  0  0
   -1.3947   20.2233  -28.6453 H   0  0  0  0  0  0  0  0  0  0  0  0
    0.2718   20.2078  -29.2338 H   0  0  0  0  0  0  0  0  0  0  0  0
   -1.5889   22.4884  -28.9801 H   0  0  0  0  0  0  0  0  0  0  0  0
    0.1344   22.5508  -29.3467 H   0  0  0  0  0  0  0  0  0  0  0  0
   -1.7896   23.1755  -31.2081 H   0  0  0  0  0  0  0  0  0  0  0  0
   -0.2531   22.4523  -31.7025 H   0  0  0  0  0  0  0  0  0  0  0  0
   -6.2929   24.0519  -31.4910 H   0  0  0  0  0  0  0  0  0  0  0  0
   -7.0223   24.5659  -29.9030 H   0  0  0  0  0  0  0  0  0  0  0  0
   -5.4275   26.2043  -31.2769 H   0  0  0  0  0  0  0  0  0  0  0  0
   -5.3757   26.1185  -29.4784 H   0  0  0  0  0  0  0  0  0  0  0  0
   -2.5234   23.9965  -29.4335 H   0  0  0  0  0  0  0  0  0  0  0  0
   -3.3479   25.3332  -28.4979 H   0  0  0  0  0  0  0  0  0  0  0  0
   -4.0046   22.6500  -28.3580 H   0  0  0  0  0  0  0  0  0  0  0  0
   -5.0776   24.0510  -27.9217 H   0  0  0  0  0  0  0  0  0  0  0  0
   -7.6201   22.3723  -30.8195 H   0  0  0  0  0  0  0  0  0  0  0  0
  1  2  1  0
  2  3  2  0
  3  4  1  0
  4  5  2  0
  5  6  1  0
  6  7  1  0
  7  8  2  0
  7  9  1  0
  9 10  2  0
 10 11  1  0
 11 12  2  0
 12 13  1  0
 13 14  2  0
 14 15  1  0
 15 16  2  0
 15 17  2  0
 15 18  1  0
 18 19  1  0
 19 20  1  0
 20 21  1  0
 21 22  1  0
  5 23  1  0
 23 24  1  0
 24 25  2  0
 24 26  2  0
 24 27  1  0
 27 28  1  0
 28 29  1  0
 29 30  1  0
 30 31  1  0
 31 32  1  0
 23 33  2  0
 33  2  1  0
 14  9  1  0
 22 18  1  0
 32 27  1  0
  1 34  1  0
  1 35  1  0
  1 36  1  0
  3 37  1  0
  4 38  1  0
  6 39  1  0
 10 40  1  0
 11 41  1  0
 12 42  1  0
 13 43  1  0
 19 44  1  0
 19 45  1  0
 20 46  1  0
 20 47  1  0
 21 48  1  0
 21 49  1  0
 22 50  1  0
 22 51  1  0
 28 52  1  0
 28 53  1  0
 29 54  1  0
 29 55  1  0
 31 56  1  0
 31 57  1  0
 32 58  1  0
 32 59  1  0
 33 60  1  0
M  END
>  <UniqueID>  (21) 
21

>  <SMILES>  (21) 
Cc1ccc(NC(=O)c2ccccc2S(=O)(=O)N2CCCC2)c(S(=O)(=O)N2CCOCC2)c1

>  <Energy>  (21) 
89.01910053909882

>  <Genealogy>  (21) 
Cc1ccc(NC(=O)c2ccccc2S(=O)(=O)N2CCCC2)c(S(=O)(=O)N2CCOCC2)c1 (3D coordinates assigned)
Cc1ccc(NC(=O)c2ccccc2S(=O)(=O)N2CCCC2)c(S(=O)(=O)N2CCOCC2)c1 (nonaromatic ring conformer: 89.01910053909882 kcal/mol)

>  <smiles>  (21) 
Cc1ccc(NC(=O)c2ccccc2S(=O)(=O)N2CCCC2)c(S(=O)(=O)N2CCOCC2)c1

>  <score_type>  (21) 
oracle

>  <origin>  (21) 
adgpu

>  <m_score__min__energy>  (21) 
-10.35

>  <m_primary>  (21) 
energy

$$$$
21:0
     RDKit          3D

 54 57  0  0  0  0  0  0  0  0999 V2000
   -3.1930   17.9480  -34.2310 C   0  0  0  0  0  0  0  0  0  0  0  0
   -1.7810   18.1560  -34.5960 N   0  0  0  0  0  0  0  0  0  0  0  0
   -0.8810   17.1620  -33.9780 C   0  0  0  0  0  0  0  0  0  0  0  0
   -0.8380   17.2760  -32.4470 C   0  0  0  0  0  0  0  0  0  0  0  0
   -0.7550   18.7050  -31.9800 C   0  0  0  0  0  0  0  0  0  0  0  0
   -0.4550   18.9690  -30.6340 C   0  0  0  0  0  0  0  0  0  0  0  0
   -0.4640   20.2820  -30.1460 C   0  0  0  0  0  0  0  0  0  0  0  0
   -0.1700   20.5380  -28.8070 O   0  0  0  0  0  0  0  0  0  0  0  0
   -0.7840   21.3430  -31.0030 C   0  0  0  0  0  0  0  0  0  0  0  0
   -0.8180   22.6790  -30.4960 N   0  0  0  0  0  0  0  0  0  0  0  0
   -2.1600   23.3140  -29.5970 S   0  0  0  0  0  0  0  0  0  0  0  0
   -2.3160   22.5360  -28.3210 O   0  0  0  0  0  0  0  0  0  0  0  0
   -1.8640   24.7440  -29.2440 O   0  0  0  0  0  0  0  0  0  0  0  0
   -3.6640   23.2460  -30.5250 C   0  0  0  0  0  0  0  0  0  0  0  0
   -4.1820   22.0050  -30.9230 C   0  0  0  0  0  0  0  0  0  0  0  0
   -5.3990   21.9290  -31.6120 C   0  0  0  0  0  0  0  0  0  0  0  0
   -6.0460   20.3590  -32.1010 S   0  0  0  0  0  0  0  0  0  0  0  0
   -6.3520   20.3900  -33.5720 O   0  0  0  0  0  0  0  0  0  0  0  0
   -5.0000   19.3030  -31.8700 O   0  0  0  0  0  0  0  0  0  0  0  0
   -7.5040   19.9390  -31.2280 N   0  0  0  0  0  0  0  0  0  0  0  0
   -8.3610   21.1120  -31.0130 C   0  0  0  0  0  0  0  0  0  0  0  0
   -9.4890   21.0830  -32.0370 C   0  0  0  0  0  0  0  0  0  0  0  0
   -9.3760   19.7460  -32.7440 C   0  0  0  0  0  0  0  0  0  0  0  0
   -8.3110   18.9760  -31.9830 C   0  0  0  0  0  0  0  0  0  0  0  0
   -6.1020   23.1040  -31.9070 C   0  0  0  0  0  0  0  0  0  0  0  0
   -5.5880   24.3440  -31.5210 C   0  0  0  0  0  0  0  0  0  0  0  0
   -4.3720   24.4230  -30.8370 C   0  0  0  0  0  0  0  0  0  0  0  0
   -3.8840   25.6680  -30.4570 O   0  0  0  0  0  0  0  0  0  0  0  0
   -1.0380   21.0880  -32.3570 C   0  0  0  0  0  0  0  0  0  0  0  0
   -1.0640   19.7740  -32.8450 C   0  0  0  0  0  0  0  0  0  0  0  0
   -1.3350   19.5340  -34.3120 C   0  0  0  0  0  0  0  0  0  0  0  0
   -3.2902   17.9337  -33.1354 H   0  0  0  0  0  0  0  0  0  0  0  0
   -3.8024   18.7661  -34.6425 H   0  0  0  0  0  0  0  0  0  0  0  0
   -3.5407   16.9889  -34.6425 H   0  0  0  0  0  0  0  0  0  0  0  0
   -1.2313   16.1545  -34.2466 H   0  0  0  0  0  0  0  0  0  0  0  0
    0.1347   17.3522  -34.3550 H   0  0  0  0  0  0  0  0  0  0  0  0
   -1.7502   16.8215  -32.0332 H   0  0  0  0  0  0  0  0  0  0  0  0
    0.0659   16.7558  -32.0972 H   0  0  0  0  0  0  0  0  0  0  0  0
   -0.2107   18.1374  -29.9567 H   0  0  0  0  0  0  0  0  0  0  0  0
   -0.4500   21.4030  -28.3590 H   0  0  0  0  0  0  0  0  0  0  0  0
   -3.6277   21.0834  -30.6920 H   0  0  0  0  0  0  0  0  0  0  0  0
   -8.7817   21.0826  -29.9971 H   0  0  0  0  0  0  0  0  0  0  0  0
   -7.7723   22.0341  -31.1278 H   0  0  0  0  0  0  0  0  0  0  0  0
  -10.4638   21.1687  -31.5346 H   0  0  0  0  0  0  0  0  0  0  0  0
   -9.4127   21.9214  -32.7450 H   0  0  0  0  0  0  0  0  0  0  0  0
  -10.3362   19.2104  -32.7101 H   0  0  0  0  0  0  0  0  0  0  0  0
   -9.1142   19.8656  -33.8057 H   0  0  0  0  0  0  0  0  0  0  0  0
   -8.7874   18.2656  -31.2913 H   0  0  0  0  0  0  0  0  0  0  0  0
   -7.6759   18.4123  -32.6822 H   0  0  0  0  0  0  0  0  0  0  0  0
   -7.0607   23.0501  -32.4437 H   0  0  0  0  0  0  0  0  0  0  0  0
   -6.1436   25.2637  -31.7568 H   0  0  0  0  0  0  0  0  0  0  0  0
   -1.2189   21.9275  -33.0443 H   0  0  0  0  0  0  0  0  0  0  0  0
   -2.1185   20.2317  -34.6429 H   0  0  0  0  0  0  0  0  0  0  0  0
   -0.3902   19.6930  -34.8524 H   0  0  0  0  0  0  0  0  0  0  0  0
  1  2  1  0
  2  3  1  0
  3  4  1  0
  4  5  1  0
  5  6  2  0
  6  7  1  0
  7  8  1  0
  7  9  2  0
  9 10  1  0
 10 11  1  0
 11 12  2  0
 11 13  2  0
 11 14  1  0
 14 15  2  0
 15 16  1  0
 16 17  1  0
 17 18  2  0
 17 19  2  0
 17 20  1  0
 20 21  1  0
 21 22  1  0
 22 23  1  0
 23 24  1  0
 16 25  2  0
 25 26  1  0
 26 27  2  0
 27 28  1  0
  9 29  1  0
 29 30  2  0
 30 31  1  0
 31  2  1  0
 30  5  1  0
 27 14  1  0
 24 20  1  0
  1 32  1  0
  1 33  1  0
  1 34  1  0
  3 35  1  0
  3 36  1  0
  4 37  1  0
  4 38  1  0
  6 39  1  0
  8 40  1  0
 15 41  1  0
 21 42  1  0
 21 43  1  0
 22 44  1  0
 22 45  1  0
 23 46  1  0
 23 47  1  0
 24 48  1  0
 24 49  1  0
 25 50  1  0
 26 51  1  0
 29 52  1  0
 31 53  1  0
 31 54  1  0
M  CHG  2  10  -1  28  -1
M  END
>  <UniqueID>  (22) 
22

>  <SMILES>  (22) 
CN1CCc2cc(O)c([N-]S(=O)(=O)c3cc(S(=O)(=O)N4CCCC4)ccc3[O-])cc2C1

>  <Energy>  (22) 
67.83057243984308

>  <Genealogy>  (22) 
CN1CCc2cc(O)c([N-]S(=O)(=O)c3cc(S(=O)(=O)N4CCCC4)ccc3[O-])cc2C1 (protonated)
CN1CCc2cc(O)c([N-]S(=O)(=O)c3cc(S(=O)(=O)N4CCCC4)ccc3[O-])cc2C1 (3D coordinates assigned)
CN1CCc2cc(O)c([N-]S(=O)(=O)c3cc(S(=O)(=O)N4CCCC4)ccc3[O-])cc2C1 (nonaromatic ring conformer: 67.83057243984308 kcal/mol)

>  <smiles>  (22) 
CN1CCc2cc(O)c(NS(=O)(=O)c3cc(S(=O)(=O)N4CCCC4)ccc3O)cc2C1

>  <score_type>  (22) 
oracle

>  <origin>  (22) 
adgpu

>  <m_score__min__energy>  (22) 
-13.67

>  <m_primary>  (22) 
energy

$$$$
22:0
     RDKit          3D

 50 53  0  0  0  0  0  0  0  0999 V2000
   -6.5310   17.3380  -33.0650 C   0  0  0  0  0  0  0  0  0  0  0  0
   -6.6120   18.7740  -33.4810 C   0  0  0  0  0  0  0  0  0  0  0  0
   -6.1110   19.1140  -34.5860 O   0  0  0  0  0  0  0  0  0  0  0  0
   -7.2090   19.7760  -32.6400 N   0  0  0  0  0  0  0  0  0  0  0  0
   -8.6400   19.8040  -32.3330 C   0  0  0  0  0  0  0  0  0  0  0  0
   -8.9090   21.1680  -31.6530 C   0  0  0  0  0  0  0  0  0  0  0  0
   -7.5550   21.7760  -31.5560 C   0  0  0  0  0  0  0  0  0  0  0  0
   -7.2070   22.9890  -30.9620 C   0  0  0  0  0  0  0  0  0  0  0  0
   -5.8500   23.3620  -30.9360 C   0  0  0  0  0  0  0  0  0  0  0  0
   -5.3620   24.9200  -30.2750 S   0  0  0  0  0  0  0  0  0  0  0  0
   -6.5850   25.7740  -30.0960 O   0  0  0  0  0  0  0  0  0  0  0  0
   -4.4060   25.6170  -31.2030 O   0  0  0  0  0  0  0  0  0  0  0  0
   -4.5910   24.6860  -28.7370 N   0  0  0  0  0  0  0  0  0  0  0  0
   -3.4420   23.8370  -28.5570 C   0  0  0  0  0  0  0  0  0  0  0  0
   -3.5790   22.5220  -28.0790 C   0  0  0  0  0  0  0  0  0  0  0  0
   -2.4540   21.7160  -27.8550 C   0  0  0  0  0  0  0  0  0  0  0  0
   -1.1720   22.2080  -28.1720 C   0  0  0  0  0  0  0  0  0  0  0  0
   -1.0350   23.5140  -28.6630 C   0  0  0  0  0  0  0  0  0  0  0  0
   -2.1580   24.3220  -28.8590 C   0  0  0  0  0  0  0  0  0  0  0  0
   -1.9860   25.6160  -29.3390 O   0  0  0  0  0  0  0  0  0  0  0  0
    0.0680   21.3890  -27.8900 C   0  0  0  0  0  0  0  0  0  0  0  0
   -0.2070   19.9430  -27.7880 N   0  0  0  0  0  0  0  0  0  0  0  0
   -0.3820   19.3190  -29.1110 C   0  0  0  0  0  0  0  0  0  0  0  0
   -1.3370   19.6720  -26.8770 C   0  0  0  0  0  0  0  0  0  0  0  0
   -2.6480   20.3070  -27.3620 C   0  0  0  0  0  0  0  0  0  0  0  0
   -4.8750   22.4980  -31.4760 C   0  0  0  0  0  0  0  0  0  0  0  0
   -5.2520   21.2810  -32.0640 C   0  0  0  0  0  0  0  0  0  0  0  0
   -6.6130   20.9580  -32.1220 C   0  0  0  0  0  0  0  0  0  0  0  0
   -6.5274   17.2740  -31.9669 H   0  0  0  0  0  0  0  0  0  0  0  0
   -7.3998   16.7919  -33.4612 H   0  0  0  0  0  0  0  0  0  0  0  0
   -5.6063   16.8931  -33.4612 H   0  0  0  0  0  0  0  0  0  0  0  0
   -9.2301   19.7157  -33.2571 H   0  0  0  0  0  0  0  0  0  0  0  0
   -8.9262   18.9668  -31.6794 H   0  0  0  0  0  0  0  0  0  0  0  0
   -9.5768   21.7896  -32.2675 H   0  0  0  0  0  0  0  0  0  0  0  0
   -9.4079   21.0712  -30.6774 H   0  0  0  0  0  0  0  0  0  0  0  0
   -7.9769   23.6405  -30.5230 H   0  0  0  0  0  0  0  0  0  0  0  0
   -5.0840   25.0690  -27.9000 H   0  0  0  0  0  0  0  0  0  0  0  0
   -4.5829   22.1199  -27.8779 H   0  0  0  0  0  0  0  0  0  0  0  0
   -0.0341   23.9063  -28.8961 H   0  0  0  0  0  0  0  0  0  0  0  0
    0.7886   21.5521  -28.7049 H   0  0  0  0  0  0  0  0  0  0  0  0
    0.4655   21.7177  -26.9184 H   0  0  0  0  0  0  0  0  0  0  0  0
   -0.6770   18.2669  -28.9841 H   0  0  0  0  0  0  0  0  0  0  0  0
   -1.1646   19.8546  -29.6684 H   0  0  0  0  0  0  0  0  0  0  0  0
    0.5650   19.3695  -29.6684 H   0  0  0  0  0  0  0  0  0  0  0  0
   -1.4781   18.5835  -26.8039 H   0  0  0  0  0  0  0  0  0  0  0  0
   -1.0925   20.1145  -25.9000 H   0  0  0  0  0  0  0  0  0  0  0  0
   -3.0531   19.6978  -28.1834 H   0  0  0  0  0  0  0  0  0  0  0  0
   -3.3402   20.3424  -26.5078 H   0  0  0  0  0  0  0  0  0  0  0  0
   -3.8125   22.7798  -31.4360 H   0  0  0  0  0  0  0  0  0  0  0  0
   -4.4942   20.5952  -32.4708 H   0  0  0  0  0  0  0  0  0  0  0  0
  1  2  1  0
  2  3  2  0
  2  4  1  0
  4  5  1  0
  5  6  1  0
  6  7  1  0
  7  8  2  0
  8  9  1  0
  9 10  1  0
 10 11  2  0
 10 12  2  0
 10 13  1  0
 13 14  1  0
 14 15  2  0
 15 16  1  0
 16 17  2  0
 17 18  1  0
 18 19  2  0
 19 20  1  0
 17 21  1  0
 21 22  1  0
 22 23  1  0
 22 24  1  0
 24 25  1  0
  9 26  2  0
 26 27  1  0
 27 28  2  0
 28  4  1  0
 28  7  1  0
 19 14  1  0
 25 16  1  0
  1 29  1  0
  1 30  1  0
  1 31  1  0
  5 32  1  0
  5 33  1  0
  6 34  1  0
  6 35  1  0
  8 36  1  0
 13 37  1  0
 15 38  1  0
 18 39  1  0
 21 40  1  0
 21 41  1  0
 23 42  1  0
 23 43  1  0
 23 44  1  0
 24 45  1  0
 24 46  1  0
 25 47  1  0
 25 48  1  0
 26 49  1  0
 27 50  1  0
M  CHG  1  20  -1
M  END
>  <UniqueID>  (23) 
23

>  <SMILES>  (23) 
CC(=O)N1CCc2cc(S(=O)(=O)Nc3cc4c(cc3[O-])CN(C)CC4)ccc21

>  <Energy>  (23) 
77.32504848114331

>  <Genealogy>  (23) 
CC(=O)N1CCc2cc(S(=O)(=O)Nc3cc4c(cc3[O-])CN(C)CC4)ccc21 (protonated)
CC(=O)N1CCc2cc(S(=O)(=O)Nc3cc4c(cc3[O-])CN(C)CC4)ccc21 (3D coordinates assigned)
CC(=O)N1CCc2cc(S(=O)(=O)Nc3cc4c(cc3[O-])CN(C)CC4)ccc21 (nonaromatic ring conformer: 77.32504848114331 kcal/mol)

>  <smiles>  (23) 
CC(=O)N1CCc2cc(S(=O)(=O)Nc3cc4c(cc3O)CN(C)CC4)ccc21

>  <score_type>  (23) 
oracle

>  <origin>  (23) 
adgpu

>  <m_score__min__energy>  (23) 
-14.289999999999999

>  <m_primary>  (23) 
energy

$$$$
23:0
     RDKit          3D

 55 58  0  0  0  0  0  0  0  0999 V2000
   -7.9620   19.9070  -31.7460 O   0  0  0  0  0  0  0  0  0  0  0  0
   -6.9660   19.7910  -32.5070 C   0  0  0  0  0  0  0  0  0  0  0  0
   -6.9830   18.7780  -33.5240 N   0  0  0  0  0  0  0  0  0  0  0  0
   -6.3880   17.4780  -33.4100 C   0  0  0  0  0  0  0  0  0  0  0  0
   -5.3760   17.2170  -32.4650 C   0  0  0  0  0  0  0  0  0  0  0  0
   -4.8050   15.9430  -32.3780 C   0  0  0  0  0  0  0  0  0  0  0  0
   -5.2440   14.9160  -33.2220 C   0  0  0  0  0  0  0  0  0  0  0  0
   -4.6560   13.6550  -33.1230 O   0  0  0  0  0  0  0  0  0  0  0  0
   -6.2700   15.1660  -34.1520 C   0  0  0  0  0  0  0  0  0  0  0  0
   -6.7130   14.1800  -34.9750 F   0  0  0  0  0  0  0  0  0  0  0  0
   -6.8440   16.4410  -34.2350 C   0  0  0  0  0  0  0  0  0  0  0  0
   -5.8240   20.7200  -32.3600 C   0  0  0  0  0  0  0  0  0  0  0  0
   -4.5760   20.4040  -32.9330 C   0  0  0  0  0  0  0  0  0  0  0  0
   -3.4840   21.2580  -32.7610 C   0  0  0  0  0  0  0  0  0  0  0  0
   -3.6240   22.4320  -32.0170 C   0  0  0  0  0  0  0  0  0  0  0  0
   -4.8630   22.7740  -31.4610 C   0  0  0  0  0  0  0  0  0  0  0  0
   -5.0030   24.2740  -30.5500 S   0  0  0  0  0  0  0  0  0  0  0  0
   -5.6470   23.9750  -29.2250 O   0  0  0  0  0  0  0  0  0  0  0  0
   -5.8330   25.2920  -31.2840 O   0  0  0  0  0  0  0  0  0  0  0  0
   -3.4060   24.8970  -30.2820 N   0  0  0  0  0  0  0  0  0  0  0  0
   -2.4810   24.3280  -29.3500 C   0  0  0  0  0  0  0  0  0  0  0  0
   -2.6200   23.0040  -28.9010 C   0  0  0  0  0  0  0  0  0  0  0  0
   -1.7010   22.4640  -27.9930 C   0  0  0  0  0  0  0  0  0  0  0  0
   -1.7940   20.7610  -27.5360 S   0  0  0  0  0  0  0  0  0  0  0  0
   -1.7430   20.6450  -26.0380 O   0  0  0  0  0  0  0  0  0  0  0  0
   -3.0900   20.1670  -28.0210 O   0  0  0  0  0  0  0  0  0  0  0  0
   -0.4340   19.9140  -28.2380 N   0  0  0  0  0  0  0  0  0  0  0  0
   -0.5670   19.8170  -29.6880 C   0  0  0  0  0  0  0  0  0  0  0  0
    0.2140   18.5820  -30.1110 C   0  0  0  0  0  0  0  0  0  0  0  0
    0.2940   17.7130  -28.8660 C   0  0  0  0  0  0  0  0  0  0  0  0
   -0.3530   18.5340  -27.7570 C   0  0  0  0  0  0  0  0  0  0  0  0
   -0.6480   23.2600  -27.5190 C   0  0  0  0  0  0  0  0  0  0  0  0
   -0.5000   24.5770  -27.9640 C   0  0  0  0  0  0  0  0  0  0  0  0
   -1.4060   25.1030  -28.8870 C   0  0  0  0  0  0  0  0  0  0  0  0
   -1.2340   26.3990  -29.3430 O   0  0  0  0  0  0  0  0  0  0  0  0
   -5.9660   21.9210  -31.6410 C   0  0  0  0  0  0  0  0  0  0  0  0
   -5.0337   18.0180  -31.7932 H   0  0  0  0  0  0  0  0  0  0  0  0
   -4.0089   15.7476  -31.6445 H   0  0  0  0  0  0  0  0  0  0  0  0
   -3.6570   13.5240  -33.2120 H   0  0  0  0  0  0  0  0  0  0  0  0
   -7.6570   16.6293  -34.9516 H   0  0  0  0  0  0  0  0  0  0  0  0
   -4.4611   19.4801  -33.5188 H   0  0  0  0  0  0  0  0  0  0  0  0
   -2.5129   21.0058  -33.2119 H   0  0  0  0  0  0  0  0  0  0  0  0
   -2.7564   23.0914  -31.8671 H   0  0  0  0  0  0  0  0  0  0  0  0
   -3.4556   22.3881  -29.2649 H   0  0  0  0  0  0  0  0  0  0  0  0
   -1.6259   19.7109  -29.9664 H   0  0  0  0  0  0  0  0  0  0  0  0
   -0.1827   20.7203  -30.1843 H   0  0  0  0  0  0  0  0  0  0  0  0
   -0.3118   18.0513  -30.9184 H   0  0  0  0  0  0  0  0  0  0  0  0
    1.2115   18.8394  -30.4967 H   0  0  0  0  0  0  0  0  0  0  0  0
   -0.2544   16.7716  -29.0179 H   0  0  0  0  0  0  0  0  0  0  0  0
    1.3319   17.4423  -28.6221 H   0  0  0  0  0  0  0  0  0  0  0  0
   -1.3607   18.1494  -27.5410 H   0  0  0  0  0  0  0  0  0  0  0  0
    0.2364   18.4753  -26.8301 H   0  0  0  0  0  0  0  0  0  0  0  0
    0.0661   22.8453  -26.7923 H   0  0  0  0  0  0  0  0  0  0  0  0
    0.3275   25.1968  -27.5882 H   0  0  0  0  0  0  0  0  0  0  0  0
   -6.9441   22.1937  -31.2179 H   0  0  0  0  0  0  0  0  0  0  0  0
  1  2  2  0
  2  3  1  0
  3  4  1  0
  4  5  2  0
  5  6  1  0
  6  7  2  0
  7  8  1  0
  7  9  1  0
  9 10  1  0
  9 11  2  0
  2 12  1  0
 12 13  2  0
 13 14  1  0
 14 15  2  0
 15 16  1  0
 16 17  1  0
 17 18  2  0
 17 19  2  0
 17 20  1  0
 20 21  1  0
 21 22  2  0
 22 23  1  0
 23 24  1  0
 24 25  2  0
 24 26  2  0
 24 27  1  0
 27 28  1  0
 28 29  1  0
 29 30  1  0
 30 31  1  0
 23 32  2  0
 32 33  1  0
 33 34  2  0
 34 35  1  0
 16 36  2  0
 11  4  1  0
 36 12  1  0
 34 21  1  0
 31 27  1  0
  5 37  1  0
  6 38  1  0
  8 39  1  0
 11 40  1  0
 13 41  1  0
 14 42  1  0
 15 43  1  0
 22 44  1  0
 28 45  1  0
 28 46  1  0
 29 47  1  0
 29 48  1  0
 30 49  1  0
 30 50  1  0
 31 51  1  0
 31 52  1  0
 32 53  1  0
 33 54  1  0
 36 55  1  0
M  CHG  3   3  -1  20  -1  35  -1
M  END
>  <UniqueID>  (24) 
24

>  <SMILES>  (24) 
O=C([N-]c1ccc(O)c(F)c1)c1cccc(S(=O)(=O)[N-]c2cc(S(=O)(=O)N3CCCC3)ccc2[O-])c1

>  <Energy>  (24) 
70.56465061247306

>  <Genealogy>  (24) 
O=C([N-]c1ccc(O)c(F)c1)c1cccc(S(=O)(=O)[N-]c2cc(S(=O)(=O)N3CCCC3)ccc2[O-])c1 (protonated)
O=C([N-]c1ccc(O)c(F)c1)c1cccc(S(=O)(=O)[N-]c2cc(S(=O)(=O)N3CCCC3)ccc2[O-])c1 (3D coordinates assigned)
O=C([N-]c1ccc(O)c(F)c1)c1cccc(S(=O)(=O)[N-]c2cc(S(=O)(=O)N3CCCC3)ccc2[O-])c1 (nonaromatic ring conformer: 70.56465061247306 kcal/mol)

>  <smiles>  (24) 
O=C(Nc1ccc(O)c(F)c1)c1cccc(S(=O)(=O)Nc2cc(S(=O)(=O)N3CCCC3)ccc2O)c1

>  <score_type>  (24) 
oracle

>  <origin>  (24) 
adgpu

>  <m_score__min__energy>  (24) 
-14.48

>  <m_primary>  (24) 
energy

$$$$
24:0
     RDKit          3D

 48 51  0  0  0  0  0  0  0  0999 V2000
   -3.8710   25.3370  -30.6160 O   0  0  0  0  0  0  0  0  0  0  0  0
   -3.9900   24.1590  -30.1830 C   0  0  0  0  0  0  0  0  0  0  0  0
   -3.1070   23.6870  -29.1510 N   0  0  0  0  0  0  0  0  0  0  0  0
   -2.4050   24.5520  -28.2410 C   0  0  0  0  0  0  0  0  0  0  0  0
   -1.3170   25.3050  -28.7080 C   0  0  0  0  0  0  0  0  0  0  0  0
   -0.6060   26.1370  -27.8390 C   0  0  0  0  0  0  0  0  0  0  0  0
   -0.9550   26.2080  -26.4830 C   0  0  0  0  0  0  0  0  0  0  0  0
   -0.2130   27.1330  -25.5570 C   0  0  0  0  0  0  0  0  0  0  0  0
    1.2000   27.4950  -25.8920 C   0  0  0  0  0  0  0  0  0  0  0  0
    2.0260   26.5960  -26.1980 O   0  0  0  0  0  0  0  0  0  0  0  0
    1.5900   28.8280  -25.9140 O   0  0  0  0  0  0  0  0  0  0  0  0
   -0.5480   27.0300  -24.0720 C   0  0  0  0  0  0  0  0  0  0  0  0
   -1.0380   28.2230  -24.8790 C   0  0  0  0  0  0  0  0  0  0  0  0
   -2.0420   25.4570  -26.0120 C   0  0  0  0  0  0  0  0  0  0  0  0
   -2.7540   24.6250  -26.8810 C   0  0  0  0  0  0  0  0  0  0  0  0
   -5.0090   23.2610  -30.7810 C   0  0  0  0  0  0  0  0  0  0  0  0
   -4.7890   21.8810  -30.8830 C   0  0  0  0  0  0  0  0  0  0  0  0
   -5.7660   21.0590  -31.4440 C   0  0  0  0  0  0  0  0  0  0  0  0
   -6.9460   21.5800  -31.9010 N   0  0  0  0  0  0  0  0  0  0  0  0
   -7.9580   20.6680  -32.4570 C   0  0  0  0  0  0  0  0  0  0  0  0
   -7.2960   19.4590  -33.0600 C   0  0  0  0  0  0  0  0  0  0  0  0
   -7.5420   18.1770  -32.5400 C   0  0  0  0  0  0  0  0  0  0  0  0
   -6.8980   17.0600  -33.0830 C   0  0  0  0  0  0  0  0  0  0  0  0
   -6.0000   17.2160  -34.1420 C   0  0  0  0  0  0  0  0  0  0  0  0
   -5.7420   18.4870  -34.6600 C   0  0  0  0  0  0  0  0  0  0  0  0
   -6.3840   19.6070  -34.1200 C   0  0  0  0  0  0  0  0  0  0  0  0
   -7.1900   22.9270  -31.7930 C   0  0  0  0  0  0  0  0  0  0  0  0
   -8.2810   23.4180  -32.1950 O   0  0  0  0  0  0  0  0  0  0  0  0
   -6.2310   23.7790  -31.2360 C   0  0  0  0  0  0  0  0  0  0  0  0
   -2.8770   22.6670  -29.1300 H   0  0  0  0  0  0  0  0  0  0  0  0
   -1.0216   25.2400  -29.7656 H   0  0  0  0  0  0  0  0  0  0  0  0
    0.2316   26.7392  -28.2208 H   0  0  0  0  0  0  0  0  0  0  0  0
   -1.2640   26.2721  -23.7213 H   0  0  0  0  0  0  0  0  0  0  0  0
    0.0383   26.9034  -23.1499 H   0  0  0  0  0  0  0  0  0  0  0  0
   -2.1081   28.3273  -25.1115 H   0  0  0  0  0  0  0  0  0  0  0  0
   -0.9523   29.3153  -24.7815 H   0  0  0  0  0  0  0  0  0  0  0  0
   -2.3356   25.5230  -24.9540 H   0  0  0  0  0  0  0  0  0  0  0  0
   -3.5921   24.0240  -26.4985 H   0  0  0  0  0  0  0  0  0  0  0  0
   -3.8459   21.4460  -30.5207 H   0  0  0  0  0  0  0  0  0  0  0  0
   -5.5856   19.9766  -31.5202 H   0  0  0  0  0  0  0  0  0  0  0  0
   -8.6376   20.3469  -31.6538 H   0  0  0  0  0  0  0  0  0  0  0  0
   -8.5228   21.1948  -33.2403 H   0  0  0  0  0  0  0  0  0  0  0  0
   -8.2439   18.0511  -31.7024 H   0  0  0  0  0  0  0  0  0  0  0  0
   -7.0988   16.0580  -32.6759 H   0  0  0  0  0  0  0  0  0  0  0  0
   -5.4955   16.3364  -34.5683 H   0  0  0  0  0  0  0  0  0  0  0  0
   -5.0337   18.6078  -35.4929 H   0  0  0  0  0  0  0  0  0  0  0  0
   -6.1743   20.6074  -34.5264 H   0  0  0  0  0  0  0  0  0  0  0  0
   -6.4350   24.8568  -31.1545 H   0  0  0  0  0  0  0  0  0  0  0  0
  1  2  2  0
  2  3  1  0
  3  4  1  0
  4  5  2  0
  5  6  1  0
  6  7  2  0
  7  8  1  0
  8  9  1  0
  9 10  2  0
  9 11  1  0
  8 12  1  0
 12 13  1  0
  7 14  1  0
 14 15  2  0
  2 16  1  0
 16 17  1  0
 17 18  2  0
 18 19  1  0
 19 20  1  0
 20 21  1  0
 21 22  2  0
 22 23  1  0
 23 24  2  0
 24 25  1  0
 25 26  2  0
 19 27  1  0
 27 28  2  0
 27 29  1  0
 15  4  1  0
 29 16  2  0
 13  8  1  0
 26 21  1  0
  3 30  1  0
  5 31  1  0
  6 32  1  0
 12 33  1  0
 12 34  1  0
 13 35  1  0
 13 36  1  0
 14 37  1  0
 15 38  1  0
 17 39  1  0
 18 40  1  0
 20 41  1  0
 20 42  1  0
 22 43  1  0
 23 44  1  0
 24 45  1  0
 25 46  1  0
 26 47  1  0
 29 48  1  0
M  CHG  1  11  -1
M  END
>  <UniqueID>  (25) 
25

>  <SMILES>  (25) 
O=C(Nc1ccc(C2(C(=O)[O-])CC2)cc1)c1ccn(Cc2ccccc2)c(=O)c1

>  <Energy>  (25) 
324.2153873587563

>  <Genealogy>  (25) 
O=C(Nc1ccc(C2(C(=O)[O-])CC2)cc1)c1ccn(Cc2ccccc2)c(=O)c1 (protonated)
O=C(Nc1ccc(C2(C(=O)[O-])CC2)cc1)c1ccn(Cc2ccccc2)c(=O)c1 (3D coordinates assigned)
O=C(Nc1ccc(C2(C(=O)[O-])CC2)cc1)c1ccn(Cc2ccccc2)c(=O)c1 (nonaromatic ring conformer: 324.2153873587563 kcal/mol)

>  <smiles>  (25) 
O=C(Nc1ccc(C2(C(=O)O)CC2)cc1)c1ccn(Cc2ccccc2)c(=O)c1

>  <score_type>  (25) 
oracle

>  <origin>  (25) 
adgpu

>  <m_score__min__energy>  (25) 
-9.6600000000000001

>  <m_primary>  (25) 
energy

$$$$
25:0
     RDKit          3D

 51 54  0  0  0  0  0  0  0  0999 V2000
   -3.4760   25.2950  -30.0960 O   0  0  0  0  0  0  0  0  0  0  0  0
   -3.3440   23.9640  -30.4760 C   0  0  0  0  0  0  0  0  0  0  0  0
   -4.3490   23.3480  -31.2260 C   0  0  0  0  0  0  0  0  0  0  0  0
   -4.2230   22.0070  -31.5960 C   0  0  0  0  0  0  0  0  0  0  0  0
   -3.0840   21.2670  -31.2280 C   0  0  0  0  0  0  0  0  0  0  0  0
   -2.9460   19.8300  -31.6740 C   0  0  0  0  0  0  0  0  0  0  0  0
   -3.7900   19.3600  -32.9010 C   0  0  1  0  0  0  0  0  0  0  0  0
   -3.4570   18.0430  -33.5820 C   0  0  0  0  0  0  0  0  0  0  0  0
   -2.2330   17.3690  -33.4000 C   0  0  0  0  0  0  0  0  0  0  0  0
   -1.9570   16.1910  -34.1080 C   0  0  0  0  0  0  0  0  0  0  0  0
   -0.7610   15.5070  -33.8990 O   0  0  0  0  0  0  0  0  0  0  0  0
   -2.8780   15.7040  -35.0370 C   0  0  0  0  0  0  0  0  0  0  0  0
   -2.6130   14.5330  -35.7370 O   0  0  0  0  0  0  0  0  0  0  0  0
   -4.0630   16.4020  -35.2790 C   0  0  0  0  0  0  0  0  0  0  0  0
   -4.3520   17.5810  -34.5770 C   0  0  0  0  0  0  0  0  0  0  0  0
   -5.6210   18.3370  -34.9270 C   0  0  0  0  0  0  0  0  0  0  0  0
   -5.9000   19.5830  -34.0460 C   0  0  0  0  0  0  0  0  0  0  0  0
   -5.2600   19.5050  -32.7120 N   0  0  0  0  0  0  0  0  0  0  0  0
   -5.9010   18.4390  -31.8930 C   0  0  0  0  0  0  0  0  0  0  0  0
   -7.3980   18.3550  -32.2120 C   0  0  0  0  0  0  0  0  0  0  0  0
   -8.0770   19.6700  -31.9300 C   0  0  0  0  0  0  0  0  0  0  0  0
   -7.4120   20.6630  -31.1920 C   0  0  0  0  0  0  0  0  0  0  0  0
   -8.0240   21.8980  -30.9600 C   0  0  0  0  0  0  0  0  0  0  0  0
   -9.3010   22.1530  -31.4670 C   0  0  0  0  0  0  0  0  0  0  0  0
   -9.9660   21.1730  -32.2090 C   0  0  0  0  0  0  0  0  0  0  0  0
   -9.3570   19.9370  -32.4430 C   0  0  0  0  0  0  0  0  0  0  0  0
   -2.0700   21.9040  -30.4910 C   0  0  0  0  0  0  0  0  0  0  0  0
   -2.2060   23.2420  -30.1100 C   0  0  0  0  0  0  0  0  0  0  0  0
   -5.2400   23.9194  -31.5253 H   0  0  0  0  0  0  0  0  0  0  0  0
   -5.0210   21.5252  -32.1801 H   0  0  0  0  0  0  0  0  0  0  0  0
   -1.8872   19.6646  -31.9224 H   0  0  0  0  0  0  0  0  0  0  0  0
   -3.3355   19.2414  -30.8303 H   0  0  0  0  0  0  0  0  0  0  0  0
   -3.4313   20.0984  -33.6332 H   0  0  0  0  0  0  0  0  0  0  0  0
   -1.4883   17.7703  -32.6969 H   0  0  0  0  0  0  0  0  0  0  0  0
   -0.5440   14.6510  -34.3970 H   0  0  0  0  0  0  0  0  0  0  0  0
   -4.7758   16.0238  -36.0266 H   0  0  0  0  0  0  0  0  0  0  0  0
   -5.5446   18.6679  -35.9733 H   0  0  0  0  0  0  0  0  0  0  0  0
   -6.4545   17.6409  -34.7516 H   0  0  0  0  0  0  0  0  0  0  0  0
   -5.5172   20.4731  -34.5667 H   0  0  0  0  0  0  0  0  0  0  0  0
   -6.9871   19.6358  -33.8864 H   0  0  0  0  0  0  0  0  0  0  0  0
   -5.4265   17.4726  -32.1187 H   0  0  0  0  0  0  0  0  0  0  0  0
   -5.7739   18.6798  -30.8272 H   0  0  0  0  0  0  0  0  0  0  0  0
   -7.5271   18.1025  -33.2748 H   0  0  0  0  0  0  0  0  0  0  0  0
   -7.8519   17.5794  -31.5777 H   0  0  0  0  0  0  0  0  0  0  0  0
   -6.4050   20.4678  -30.7948 H   0  0  0  0  0  0  0  0  0  0  0  0
   -7.4998   22.6701  -30.3777 H   0  0  0  0  0  0  0  0  0  0  0  0
   -9.7825   23.1246  -31.2822 H   0  0  0  0  0  0  0  0  0  0  0  0
  -10.9704   21.3748  -32.6095 H   0  0  0  0  0  0  0  0  0  0  0  0
   -9.8822   19.1702  -33.0313 H   0  0  0  0  0  0  0  0  0  0  0  0
   -1.1640   21.3459  -30.2125 H   0  0  0  0  0  0  0  0  0  0  0  0
   -1.4145   23.7276  -29.5203 H   0  0  0  0  0  0  0  0  0  0  0  0
  1  2  1  0
  2  3  2  0
  3  4  1  0
  4  5  2  0
  5  6  1  0
  6  7  1  0
  7  8  1  0
  8  9  2  0
  9 10  1  0
 10 11  1  0
 10 12  2  0
 12 13  1  0
 12 14  1  0
 14 15  2  0
 15 16  1  0
 16 17  1  0
 17 18  1  0
 18 19  1  0
 19 20  1  0
 20 21  1  0
 21 22  2  0
 22 23  1  0
 23 24  2  0
 24 25  1  0
 25 26  2  0
  5 27  1  0
 27 28  2  0
 28  2  1  0
 18  7  1  0
 26 21  1  0
 15  8  1  0
  3 29  1  0
  4 30  1  0
  6 31  1  0
  6 32  1  0
  7 33  1  6
  9 34  1  0
 11 35  1  0
 14 36  1  0
 16 37  1  0
 16 38  1  0
 17 39  1  0
 17 40  1  0
 19 41  1  0
 19 42  1  0
 20 43  1  0
 20 44  1  0
 22 45  1  0
 23 46  1  0
 24 47  1  0
 25 48  1  0
 26 49  1  0
 27 50  1  0
 28 51  1  0
M  CHG  2   1  -1  13  -1
M  END
>  <UniqueID>  (26) 
26

>  <SMILES>  (26) 
[O-]c1ccc(C[C@H]2c3cc(O)c([O-])cc3CCN2CCc2ccccc2)cc1

>  <Energy>  (26) 
72.83704777511947

>  <Genealogy>  (26) 
[O-]c1ccc(CC2c3cc(O)c([O-])cc3CCN2CCc2ccccc2)cc1 (protonated)
[O-]c1ccc(C[C@H]2c3cc(O)c([O-])cc3CCN2CCc2ccccc2)cc1 (chirality)
[O-]c1ccc(C[C@H]2c3cc(O)c([O-])cc3CCN2CCc2ccccc2)cc1 (3D coordinates assigned)
[O-]c1ccc(C[C@H]2c3cc(O)c([O-])cc3CCN2CCc2ccccc2)cc1 (nonaromatic ring conformer: 72.83704777511947 kcal/mol)

>  <smiles>  (26) 
Oc1ccc(CC2c3cc(O)c(O)cc3CCN2CCc2ccccc2)cc1

>  <score_type>  (26) 
oracle

>  <origin>  (26) 
adgpu

>  <m_score__min__energy>  (26) 
-10.94

>  <m_primary>  (26) 
energy

$$$$
26:0
     RDKit          3D

 52 55  0  0  0  0  0  0  0  0999 V2000
   -4.6450   25.6680  -30.8580 O   0  0  0  0  0  0  0  0  0  0  0  0
   -5.5550   24.8740  -29.9630 S   0  0  0  0  0  0  0  0  0  0  0  0
   -6.7980   25.6740  -29.6930 O   0  0  0  0  0  0  0  0  0  0  0  0
   -4.7390   24.5470  -28.4670 N   0  0  0  0  0  0  0  0  0  0  0  0
   -3.6320   23.6310  -28.3740 C   0  0  0  0  0  0  0  0  0  0  0  0
   -3.8050   22.3400  -27.8470 C   0  0  0  0  0  0  0  0  0  0  0  0
   -2.7150   21.4700  -27.7030 C   0  0  0  0  0  0  0  0  0  0  0  0
   -1.4410   21.8720  -28.1520 C   0  0  0  0  0  0  0  0  0  0  0  0
   -1.2690   23.1560  -28.6870 C   0  0  0  0  0  0  0  0  0  0  0  0
   -2.3540   24.0290  -28.8030 C   0  0  0  0  0  0  0  0  0  0  0  0
   -2.1490   25.2990  -29.3310 O   0  0  0  0  0  0  0  0  0  0  0  0
   -0.2430   20.9680  -27.9740 C   0  0  0  0  0  0  0  0  0  0  0  0
   -0.6260   19.5560  -27.8500 N   0  0  0  0  0  0  0  0  0  0  0  0
   -1.6310   19.3820  -26.7930 C   0  0  0  0  0  0  0  0  0  0  0  0
   -2.9450   20.0840  -27.1590 C   0  0  0  0  0  0  0  0  0  0  0  0
   -6.0110   23.3520  -30.7210 C   0  0  0  0  0  0  0  0  0  0  0  0
   -5.0870   22.6830  -31.5340 C   0  0  0  0  0  0  0  0  0  0  0  0
   -5.4720   21.5420  -32.2420 C   0  0  0  0  0  0  0  0  0  0  0  0
   -6.7810   21.0590  -32.1420 C   0  0  0  0  0  0  0  0  0  0  0  0
   -7.2720   19.6800  -33.1210 S   0  0  0  0  0  0  0  0  0  0  0  0
   -8.7700   19.5730  -33.0700 O   0  0  0  0  0  0  0  0  0  0  0  0
   -6.8560   19.8890  -34.5520 O   0  0  0  0  0  0  0  0  0  0  0  0
   -6.5640   18.2070  -32.4880 N   0  0  0  0  0  0  0  0  0  0  0  0
   -5.0960   18.1960  -32.6220 C   0  0  0  0  0  0  0  0  0  0  0  0
   -4.6410   17.9620  -34.0820 C   0  0  0  0  0  0  0  0  0  0  0  0
   -5.6490   17.4010  -34.9080 O   0  0  0  0  0  0  0  0  0  0  0  0
   -6.3430   16.3900  -34.2130 C   0  0  0  0  0  0  0  0  0  0  0  0
   -7.1880   17.0010  -33.0780 C   0  0  0  0  0  0  0  0  0  0  0  0
   -7.7020   21.7150  -31.3130 C   0  0  0  0  0  0  0  0  0  0  0  0
   -7.3170   22.8550  -30.6030 C   0  0  0  0  0  0  0  0  0  0  0  0
   -5.1960   24.8930  -27.5930 H   0  0  0  0  0  0  0  0  0  0  0  0
   -4.8087   22.0076  -27.5435 H   0  0  0  0  0  0  0  0  0  0  0  0
   -0.2712   23.4793  -29.0185 H   0  0  0  0  0  0  0  0  0  0  0  0
    0.4180   21.0803  -28.8461 H   0  0  0  0  0  0  0  0  0  0  0  0
    0.2663   21.2622  -27.0445 H   0  0  0  0  0  0  0  0  0  0  0  0
   -1.0290   19.2330  -28.7620 H   0  0  0  0  0  0  0  0  0  0  0  0
   -1.8241   18.3080  -26.6542 H   0  0  0  0  0  0  0  0  0  0  0  0
   -1.2432   19.8283  -25.8654 H   0  0  0  0  0  0  0  0  0  0  0  0
   -3.4663   19.4859  -27.9210 H   0  0  0  0  0  0  0  0  0  0  0  0
   -3.5467   20.1754  -26.2427 H   0  0  0  0  0  0  0  0  0  0  0  0
   -4.0557   23.0571  -31.6151 H   0  0  0  0  0  0  0  0  0  0  0  0
   -4.7431   21.0214  -32.8805 H   0  0  0  0  0  0  0  0  0  0  0  0
   -4.7024   19.1645  -32.2798 H   0  0  0  0  0  0  0  0  0  0  0  0
   -4.7088   17.3665  -32.0120 H   0  0  0  0  0  0  0  0  0  0  0  0
   -4.3379   18.9285  -34.5110 H   0  0  0  0  0  0  0  0  0  0  0  0
   -3.8116   17.2401  -34.0497 H   0  0  0  0  0  0  0  0  0  0  0  0
   -7.0054   15.8587  -34.9123 H   0  0  0  0  0  0  0  0  0  0  0  0
   -5.6136   15.6909  -33.7781 H   0  0  0  0  0  0  0  0  0  0  0  0
   -8.1735   17.2762  -33.4817 H   0  0  0  0  0  0  0  0  0  0  0  0
   -7.2713   16.2463  -32.2820 H   0  0  0  0  0  0  0  0  0  0  0  0
   -8.7290   21.3316  -31.2215 H   0  0  0  0  0  0  0  0  0  0  0  0
   -8.0405   23.3643  -29.9494 H   0  0  0  0  0  0  0  0  0  0  0  0
  1  2  2  0
  2  3  2  0
  2  4  1  0
  4  5  1  0
  5  6  2  0
  6  7  1  0
  7  8  2  0
  8  9  1  0
  9 10  2  0
 10 11  1  0
  8 12  1  0
 12 13  1  0
 13 14  1  0
 14 15  1  0
  2 16  1  0
 16 17  2  0
 17 18  1  0
 18 19  2  0
 19 20  1  0
 20 21  2  0
 20 22  2  0
 20 23  1  0
 23 24  1  0
 24 25  1  0
 25 26  1  0
 26 27  1  0
 27 28  1  0
 19 29  1  0
 29 30  2  0
 10  5  1  0
 30 16  1  0
 15  7  1  0
 28 23  1  0
  4 31  1  0
  6 32  1  0
  9 33  1  0
 12 34  1  0
 12 35  1  0
 13 36  1  0
 14 37  1  0
 14 38  1  0
 15 39  1  0
 15 40  1  0
 17 41  1  0
 18 42  1  0
 24 43  1  0
 24 44  1  0
 25 45  1  0
 25 46  1  0
 27 47  1  0
 27 48  1  0
 28 49  1  0
 28 50  1  0
 29 51  1  0
 30 52  1  0
M  CHG  1  11  -1
M  END
>  <UniqueID>  (27) 
27

>  <SMILES>  (27) 
O=S(=O)(Nc1cc2c(cc1[O-])CNCC2)c1ccc(S(=O)(=O)N2CCOCC2)cc1

>  <Energy>  (27) 
67.89146981077616

>  <Genealogy>  (27) 
O=S(=O)(Nc1cc2c(cc1[O-])CNCC2)c1ccc(S(=O)(=O)N2CCOCC2)cc1 (protonated)
O=S(=O)(Nc1cc2c(cc1[O-])CNCC2)c1ccc(S(=O)(=O)N2CCOCC2)cc1 (3D coordinates assigned)
O=S(=O)(Nc1cc2c(cc1[O-])CNCC2)c1ccc(S(=O)(=O)N2CCOCC2)cc1 (nonaromatic ring conformer: 67.89146981077616 kcal/mol)

>  <smiles>  (27) 
O=S(=O)(Nc1cc2c(cc1O)CNCC2)c1ccc(S(=O)(=O)N2CCOCC2)cc1

>  <score_type>  (27) 
oracle

>  <origin>  (27) 
adgpu

>  <m_score__min__energy>  (27) 
-14.460000000000001

>  <m_primary>  (27) 
energy

$$$$
27:0
     RDKit          3D

 55 58  0  0  0  0  0  0  0  0999 V2000
    2.4590   21.4770  -35.9930 C   0  0  0  0  0  0  0  0  0  0  0  0
    0.7600   21.9460  -35.7200 S   0  0  0  0  0  0  0  0  0  0  0  0
    0.6240   23.4280  -35.9310 O   0  0  0  0  0  0  0  0  0  0  0  0
   -0.1020   21.2360  -36.7250 O   0  0  0  0  0  0  0  0  0  0  0  0
    0.2190   21.5330  -34.1120 N   0  0  0  0  0  0  0  0  0  0  0  0
   -1.1190   20.9300  -34.1580 C   0  0  0  0  0  0  0  0  0  0  0  0
   -1.6840   20.8900  -32.7380 C   0  0  0  0  0  0  0  0  0  0  0  0
   -0.6450   20.5110  -31.7690 N   0  0  0  0  0  0  0  0  0  0  0  0
   -0.9880   20.4250  -30.3770 C   0  0  0  0  0  0  0  0  0  0  0  0
   -0.8150   19.3350  -29.7660 O   0  0  0  0  0  0  0  0  0  0  0  0
   -1.5190   21.5970  -29.6440 C   0  0  0  0  0  0  0  0  0  0  0  0
   -1.3380   21.7150  -28.2590 C   0  0  0  0  0  0  0  0  0  0  0  0
   -1.8470   22.8170  -27.5720 C   0  0  0  0  0  0  0  0  0  0  0  0
   -2.5610   23.8140  -28.2510 C   0  0  0  0  0  0  0  0  0  0  0  0
   -3.0150   24.9230  -27.5430 O   0  0  0  0  0  0  0  0  0  0  0  0
   -2.7890   23.6850  -29.6400 C   0  0  0  0  0  0  0  0  0  0  0  0
   -3.5340   24.6420  -30.4100 N   0  0  0  0  0  0  0  0  0  0  0  0
   -5.2450   24.9200  -30.3640 S   0  0  0  0  0  0  0  0  0  0  0  0
   -5.5800   26.1150  -31.2130 O   0  0  0  0  0  0  0  0  0  0  0  0
   -5.6970   25.1530  -28.9490 O   0  0  0  0  0  0  0  0  0  0  0  0
   -6.0670   23.4920  -30.9840 C   0  0  0  0  0  0  0  0  0  0  0  0
   -7.4490   23.3350  -30.8140 C   0  0  0  0  0  0  0  0  0  0  0  0
   -8.0960   22.1970  -31.3040 C   0  0  0  0  0  0  0  0  0  0  0  0
   -7.3650   21.1990  -31.9650 C   0  0  0  0  0  0  0  0  0  0  0  0
   -8.0040   20.0520  -32.4610 C   0  0  0  0  0  0  0  0  0  0  0  0
   -7.2630   19.0640  -33.1140 C   0  0  0  0  0  0  0  0  0  0  0  0
   -5.8830   19.2110  -33.2770 C   0  0  0  0  0  0  0  0  0  0  0  0
   -5.2340   20.3490  -32.7900 C   0  0  0  0  0  0  0  0  0  0  0  0
   -5.9670   21.3510  -32.1330 C   0  0  0  0  0  0  0  0  0  0  0  0
   -5.3280   22.4980  -31.6400 C   0  0  0  0  0  0  0  0  0  0  0  0
   -2.2520   22.5850  -30.3220 C   0  0  0  0  0  0  0  0  0  0  0  0
    0.6000   19.8900  -32.2360 C   0  0  0  0  0  0  0  0  0  0  0  0
    1.1940   20.6420  -33.4490 C   0  0  0  0  0  0  0  0  0  0  0  0
    2.9613   21.3383  -35.0243 H   0  0  0  0  0  0  0  0  0  0  0  0
    2.4928   20.5359  -36.5616 H   0  0  0  0  0  0  0  0  0  0  0  0
    2.9708   22.2675  -36.5616 H   0  0  0  0  0  0  0  0  0  0  0  0
   -1.7758   21.5337  -34.8015 H   0  0  0  0  0  0  0  0  0  0  0  0
   -1.0585   19.9109  -34.5676 H   0  0  0  0  0  0  0  0  0  0  0  0
   -2.0733   21.8852  -32.4774 H   0  0  0  0  0  0  0  0  0  0  0  0
   -2.4882   20.1404  -32.7013 H   0  0  0  0  0  0  0  0  0  0  0  0
   -0.7912   20.9338  -27.7106 H   0  0  0  0  0  0  0  0  0  0  0  0
   -1.6866   22.9045  -26.4873 H   0  0  0  0  0  0  0  0  0  0  0  0
   -3.8560   25.4220  -27.8120 H   0  0  0  0  0  0  0  0  0  0  0  0
   -8.0278   24.1114  -30.2922 H   0  0  0  0  0  0  0  0  0  0  0  0
   -9.1820   22.0837  -31.1708 H   0  0  0  0  0  0  0  0  0  0  0  0
   -9.0901   19.9308  -32.3353 H   0  0  0  0  0  0  0  0  0  0  0  0
   -7.7679   18.1668  -33.5014 H   0  0  0  0  0  0  0  0  0  0  0  0
   -5.3054   18.4283  -33.7905 H   0  0  0  0  0  0  0  0  0  0  0  0
   -4.1475   20.4601  -32.9214 H   0  0  0  0  0  0  0  0  0  0  0  0
   -4.2422   22.6180  -31.7687 H   0  0  0  0  0  0  0  0  0  0  0  0
   -2.4072   22.4936  -31.4072 H   0  0  0  0  0  0  0  0  0  0  0  0
    1.3331   19.9007  -31.4160 H   0  0  0  0  0  0  0  0  0  0  0  0
    0.3732   18.8600  -32.5486 H   0  0  0  0  0  0  0  0  0  0  0  0
    2.0439   21.2486  -33.1031 H   0  0  0  0  0  0  0  0  0  0  0  0
    1.5014   19.8854  -34.1860 H   0  0  0  0  0  0  0  0  0  0  0  0
  1  2  1  0
  2  3  2  0
  2  4  2  0
  2  5  1  0
  5  6  1  0
  6  7  1  0
  7  8  1  0
  8  9  1  0
  9 10  2  0
  9 11  1  0
 11 12  2  0
 12 13  1  0
 13 14  2  0
 14 15  1  0
 14 16  1  0
 16 17  1  0
 17 18  1  0
 18 19  2  0
 18 20  2  0
 18 21  1  0
 21 22  2  0
 22 23  1  0
 23 24  2  0
 24 25  1  0
 25 26  2  0
 26 27  1  0
 27 28  2  0
 28 29  1  0
 29 30  2  0
 16 31  2  0
  8 32  1  0
 32 33  1  0
 33  5  1  0
 31 11  1  0
 30 21  1  0
 29 24  1  0
  1 34  1  0
  1 35  1  0
  1 36  1  0
  6 37  1  0
  6 38  1  0
  7 39  1  0
  7 40  1  0
 12 41  1  0
 13 42  1  0
 15 43  1  0
 22 44  1  0
 23 45  1  0
 25 46  1  0
 26 47  1  0
 27 48  1  0
 28 49  1  0
 30 50  1  0
 31 51  1  0
 32 52  1  0
 32 53  1  0
 33 54  1  0
 33 55  1  0
M  CHG  1  17  -1
M  END
>  <UniqueID>  (28) 
28

>  <SMILES>  (28) 
CS(=O)(=O)N1CCN(C(=O)c2ccc(O)c([N-]S(=O)(=O)c3ccc4ccccc4c3)c2)CC1

>  <Energy>  (28) 
73.0250436413327

>  <Genealogy>  (28) 
CS(=O)(=O)N1CCN(C(=O)c2ccc(O)c([N-]S(=O)(=O)c3ccc4ccccc4c3)c2)CC1 (protonated)
CS(=O)(=O)N1CCN(C(=O)c2ccc(O)c([N-]S(=O)(=O)c3ccc4ccccc4c3)c2)CC1 (3D coordinates assigned)
CS(=O)(=O)N1CCN(C(=O)c2ccc(O)c([N-]S(=O)(=O)c3ccc4ccccc4c3)c2)CC1 (nonaromatic ring conformer: 73.0250436413327 kcal/mol)

>  <smiles>  (28) 
CS(=O)(=O)N1CCN(C(=O)c2ccc(O)c(NS(=O)(=O)c3ccc4ccccc4c3)c2)CC1

>  <score_type>  (28) 
oracle

>  <origin>  (28) 
adgpu

>  <m_score__min__energy>  (28) 
-12.74

>  <m_primary>  (28) 
energy

$$$$
28:0
     RDKit          3D

 66 70  0  0  0  0  0  0  0  0999 V2000
   -8.5750   21.9120  -30.7670 C   0  0  0  0  0  0  0  0  0  0  0  0
   -7.9960   22.3440  -32.0510 N   0  0  0  0  0  0  0  0  0  0  0  0
   -7.2310   21.2730  -32.7230 C   0  0  0  0  0  0  0  0  0  0  0  0
   -5.9800   20.8630  -31.9320 C   0  0  0  0  0  0  0  0  0  0  0  0
   -5.2120   22.0550  -31.4280 C   0  0  0  0  0  0  0  0  0  0  0  0
   -3.9030   21.8750  -30.9600 C   0  0  0  0  0  0  0  0  0  0  0  0
   -3.1660   22.9550  -30.4630 C   0  0  0  0  0  0  0  0  0  0  0  0
   -1.8200   22.7270  -30.0360 N   0  0  0  0  0  0  0  0  0  0  0  0
   -1.3950   21.9000  -28.5720 S   0  0  0  0  0  0  0  0  0  0  0  0
   -2.6340   21.6410  -27.7580 O   0  0  0  0  0  0  0  0  0  0  0  0
   -0.4400   22.7250  -27.7550 O   0  0  0  0  0  0  0  0  0  0  0  0
   -0.6080   20.3860  -28.9980 C   0  0  0  0  0  0  0  0  0  0  0  0
   -0.5420   19.3320  -28.0770 C   0  0  0  0  0  0  0  0  0  0  0  0
    0.0510   18.1160  -28.4340 C   0  0  0  0  0  0  0  0  0  0  0  0
    0.5740   17.9390  -29.7280 C   0  0  0  0  0  0  0  0  0  0  0  0
    1.1920   16.7140  -30.1440 N   0  0  0  0  0  0  0  0  0  0  0  0
    1.0650   16.0670  -31.4180 C   0  0  0  0  0  0  0  0  0  0  0  0
    2.0120   15.3710  -31.8720 O   0  0  0  0  0  0  0  0  0  0  0  0
   -0.2130   16.1520  -32.1630 C   0  0  0  0  0  0  0  0  0  0  0  0
   -1.1190   15.0760  -32.1560 C   0  0  0  0  0  0  0  0  0  0  0  0
   -2.3460   15.1770  -32.8180 C   0  0  0  0  0  0  0  0  0  0  0  0
   -2.6880   16.3530  -33.4980 C   0  0  0  0  0  0  0  0  0  0  0  0
   -4.2550   16.4930  -34.3070 S   0  0  0  0  0  0  0  0  0  0  0  0
   -4.8740   15.1280  -34.4170 O   0  0  0  0  0  0  0  0  0  0  0  0
   -4.0410   17.0210  -35.6990 O   0  0  0  0  0  0  0  0  0  0  0  0
   -5.3600   17.5470  -33.4600 N   0  0  0  0  0  0  0  0  0  0  0  0
   -6.7430   17.3610  -33.8980 C   0  0  0  0  0  0  0  0  0  0  0  0
   -7.6270   17.7810  -32.7320 C   0  0  0  0  0  0  0  0  0  0  0  0
   -6.7200   17.7610  -31.5090 C   0  0  0  0  0  0  0  0  0  0  0  0
   -5.3660   17.2940  -32.0210 C   0  0  0  0  0  0  0  0  0  0  0  0
   -1.7750   17.4140  -33.5390 C   0  0  0  0  0  0  0  0  0  0  0  0
   -0.5510   17.3190  -32.8720 C   0  0  0  0  0  0  0  0  0  0  0  0
    0.5310   19.0040  -30.6350 C   0  0  0  0  0  0  0  0  0  0  0  0
   -0.0670   20.2160  -30.2800 C   0  0  0  0  0  0  0  0  0  0  0  0
   -3.7730   24.2190  -30.3650 C   0  0  0  0  0  0  0  0  0  0  0  0
   -3.0970   25.2920  -29.7930 O   0  0  0  0  0  0  0  0  0  0  0  0
   -5.0830   24.4040  -30.8190 C   0  0  0  0  0  0  0  0  0  0  0  0
   -5.8140   23.3280  -31.3440 C   0  0  0  0  0  0  0  0  0  0  0  0
   -7.1960   23.5770  -31.9100 C   0  0  0  0  0  0  0  0  0  0  0  0
   -7.9947   22.3450  -29.9389 H   0  0  0  0  0  0  0  0  0  0  0  0
   -9.6184   22.2541  -30.7017 H   0  0  0  0  0  0  0  0  0  0  0  0
   -8.5442   20.8144  -30.7017 H   0  0  0  0  0  0  0  0  0  0  0  0
   -7.8809   20.3929  -32.8373 H   0  0  0  0  0  0  0  0  0  0  0  0
   -6.8998   21.6586  -33.6985 H   0  0  0  0  0  0  0  0  0  0  0  0
   -6.2892   20.2509  -31.0719 H   0  0  0  0  0  0  0  0  0  0  0  0
   -5.3220   20.2979  -32.6086 H   0  0  0  0  0  0  0  0  0  0  0  0
   -3.4501   20.8728  -30.9839 H   0  0  0  0  0  0  0  0  0  0  0  0
   -0.9589   19.4613  -27.0673 H   0  0  0  0  0  0  0  0  0  0  0  0
    0.1084   17.2971  -27.7018 H   0  0  0  0  0  0  0  0  0  0  0  0
   -0.8599   14.1479  -31.6255 H   0  0  0  0  0  0  0  0  0  0  0  0
   -3.0464   14.3289  -32.8049 H   0  0  0  0  0  0  0  0  0  0  0  0
   -6.9506   17.9885  -34.7773 H   0  0  0  0  0  0  0  0  0  0  0  0
   -6.9322   16.3157  -34.1837 H   0  0  0  0  0  0  0  0  0  0  0  0
   -8.0276   18.7920  -32.8975 H   0  0  0  0  0  0  0  0  0  0  0  0
   -8.4909   17.1108  -32.6115 H   0  0  0  0  0  0  0  0  0  0  0  0
   -6.6404   18.7673  -31.0718 H   0  0  0  0  0  0  0  0  0  0  0  0
   -7.1099   17.1011  -30.7200 H   0  0  0  0  0  0  0  0  0  0  0  0
   -4.5588   17.8590  -31.5319 H   0  0  0  0  0  0  0  0  0  0  0  0
   -5.2028   16.2283  -31.8026 H   0  0  0  0  0  0  0  0  0  0  0  0
   -2.0229   18.3274  -34.0995 H   0  0  0  0  0  0  0  0  0  0  0  0
    0.1537   18.1631  -32.9015 H   0  0  0  0  0  0  0  0  0  0  0  0
    0.9717   18.8860  -31.6359 H   0  0  0  0  0  0  0  0  0  0  0  0
   -0.1134   21.0389  -31.0085 H   0  0  0  0  0  0  0  0  0  0  0  0
   -5.5437   25.4013  -30.7639 H   0  0  0  0  0  0  0  0  0  0  0  0
   -7.7301   24.2658  -31.2389 H   0  0  0  0  0  0  0  0  0  0  0  0
   -7.0662   24.0002  -32.9170 H   0  0  0  0  0  0  0  0  0  0  0  0
  1  2  1  0
  2  3  1  0
  3  4  1  0
  4  5  1  0
  5  6  2  0
  6  7  1  0
  7  8  1  0
  8  9  1  0
  9 10  2  0
  9 11  2  0
  9 12  1  0
 12 13  2  0
 13 14  1  0
 14 15  2  0
 15 16  1  0
 16 17  1  0
 17 18  2  0
 17 19  1  0
 19 20  2  0
 20 21  1  0
 21 22  2  0
 22 23  1  0
 23 24  2  0
 23 25  2  0
 23 26  1  0
 26 27  1  0
 27 28  1  0
 28 29  1  0
 29 30  1  0
 22 31  1  0
 31 32  2  0
 15 33  1  0
 33 34  2  0
  7 35  2  0
 35 36  1  0
 35 37  1  0
 37 38  2  0
 38 39  1  0
 39  2  1  0
 38  5  1  0
 34 12  1  0
 32 19  1  0
 30 26  1  0
  1 40  1  0
  1 41  1  0
  1 42  1  0
  3 43  1  0
  3 44  1  0
  4 45  1  0
  4 46  1  0
  6 47  1  0
 13 48  1  0
 14 49  1  0
 20 50  1  0
 21 51  1  0
 27 52  1  0
 27 53  1  0
 28 54  1  0
 28 55  1  0
 29 56  1  0
 29 57  1  0
 30 58  1  0
 30 59  1  0
 31 60  1  0
 32 61  1  0
 33 62  1  0
 34 63  1  0
 37 64  1  0
 39 65  1  0
 39 66  1  0
M  CHG  3   8  -1  16  -1  36  -1
M  END
>  <UniqueID>  (29) 
29

>  <SMILES>  (29) 
CN1CCc2cc([N-]S(=O)(=O)c3ccc([N-]C(=O)c4ccc(S(=O)(=O)N5CCCC5)cc4)cc3)c([O-])cc2C1

>  <Energy>  (29) 
90.62308934703987

>  <Genealogy>  (29) 
CN1CCc2cc([N-]S(=O)(=O)c3ccc([N-]C(=O)c4ccc(S(=O)(=O)N5CCCC5)cc4)cc3)c([O-])cc2C1 (protonated)
CN1CCc2cc([N-]S(=O)(=O)c3ccc([N-]C(=O)c4ccc(S(=O)(=O)N5CCCC5)cc4)cc3)c([O-])cc2C1 (3D coordinates assigned)
CN1CCc2cc([N-]S(=O)(=O)c3ccc([N-]C(=O)c4ccc(S(=O)(=O)N5CCCC5)cc4)cc3)c([O-])cc2C1 (nonaromatic ring conformer: 90.62308934703987 kcal/mol)

>  <smiles>  (29) 
CN1CCc2cc(NS(=O)(=O)c3ccc(NC(=O)c4ccc(S(=O)(=O)N5CCCC5)cc4)cc3)c(O)cc2C1

>  <score_type>  (29) 
oracle

>  <origin>  (29) 
adgpu

>  <m_score__min__energy>  (29) 
-16.09

>  <m_primary>  (29) 
energy

$$$$
29:0
     RDKit          3D

 54 56  0  0  0  0  0  0  0  0999 V2000
   -1.6570   25.6720  -28.9270 O   0  0  0  0  0  0  0  0  0  0  0  0
   -2.5130   24.8480  -29.3450 C   0  0  0  0  0  0  0  0  0  0  0  0
   -2.5290   23.5090  -28.8430 N   0  0  0  0  0  0  0  0  0  0  0  0
   -3.1650   23.1370  -27.5870 C   0  0  0  0  0  0  0  0  0  0  0  0
   -3.6360   21.6830  -27.6450 C   0  0  0  0  0  0  0  0  0  0  0  0
   -2.5400   20.7270  -27.2390 C   0  0  0  0  0  0  0  0  0  0  0  0
   -2.7910   19.4170  -27.0640 C   0  0  0  0  0  0  0  0  0  0  0  0
   -1.6580   18.4900  -26.7160 C   0  0  0  0  0  0  0  0  0  0  0  0
   -0.4260   18.7570  -27.6050 C   0  0  0  0  0  0  0  0  0  0  0  0
   -0.1880   20.2570  -27.9260 C   0  0  0  0  0  0  0  0  0  0  0  0
   -1.1100   21.2030  -27.1380 C   0  0  0  0  0  0  0  0  0  0  0  0
   -3.5060   25.2810  -30.2800 N   0  0  0  0  0  0  0  0  0  0  0  0
   -4.6760   24.5330  -30.6300 C   0  0  0  0  0  0  0  0  0  0  0  0
   -5.9190   24.9430  -30.1360 C   0  0  0  0  0  0  0  0  0  0  0  0
   -7.0740   24.2180  -30.4430 C   0  0  0  0  0  0  0  0  0  0  0  0
   -7.0010   23.0880  -31.2710 C   0  0  0  0  0  0  0  0  0  0  0  0
   -8.4470   22.1300  -31.5980 S   0  0  0  0  0  0  0  0  0  0  0  0
   -9.0390   21.6620  -30.2980 O   0  0  0  0  0  0  0  0  0  0  0  0
   -9.4660   22.9930  -32.2900 O   0  0  0  0  0  0  0  0  0  0  0  0
   -8.0780   20.7370  -32.5900 N   0  0  0  0  0  0  0  0  0  0  0  0
   -9.2380   19.8160  -32.6910 C   0  0  0  0  0  0  0  0  0  0  0  0
   -9.1100   18.5890  -31.7750 C   0  0  0  0  0  0  0  0  0  0  0  0
   -7.8380   17.7830  -32.0950 C   0  0  0  0  0  0  0  0  0  0  0  0
   -6.7010   18.6610  -32.6460 C   0  0  0  0  0  0  0  0  0  0  0  0
   -6.8220   20.1000  -32.1350 C   0  0  0  0  0  0  0  0  0  0  0  0
   -5.7650   22.7100  -31.8110 C   0  0  0  0  0  0  0  0  0  0  0  0
   -4.6070   23.4230  -31.4900 C   0  0  0  0  0  0  0  0  0  0  0  0
   -2.4427   23.2527  -26.7655 H   0  0  0  0  0  0  0  0  0  0  0  0
   -4.0339   23.7897  -27.4170 H   0  0  0  0  0  0  0  0  0  0  0  0
   -4.4902   21.5570  -26.9634 H   0  0  0  0  0  0  0  0  0  0  0  0
   -3.9240   21.4558  -28.6820 H   0  0  0  0  0  0  0  0  0  0  0  0
   -3.8138   19.0276  -27.1742 H   0  0  0  0  0  0  0  0  0  0  0  0
   -1.3802   18.6425  -25.6626 H   0  0  0  0  0  0  0  0  0  0  0  0
   -1.9907   17.4550  -26.8834 H   0  0  0  0  0  0  0  0  0  0  0  0
    0.4638   18.3693  -27.0874 H   0  0  0  0  0  0  0  0  0  0  0  0
   -0.6129   18.2534  -28.5649 H   0  0  0  0  0  0  0  0  0  0  0  0
    0.8558   20.5045  -27.6828 H   0  0  0  0  0  0  0  0  0  0  0  0
   -0.4108   20.4004  -28.9936 H   0  0  0  0  0  0  0  0  0  0  0  0
   -0.8032   21.2156  -26.0817 H   0  0  0  0  0  0  0  0  0  0  0  0
   -1.0345   22.2167  -27.5585 H   0  0  0  0  0  0  0  0  0  0  0  0
   -5.9877   25.8400  -29.5031 H   0  0  0  0  0  0  0  0  0  0  0  0
   -8.0445   24.5350  -30.0335 H   0  0  0  0  0  0  0  0  0  0  0  0
  -10.1487   20.3672  -32.4139 H   0  0  0  0  0  0  0  0  0  0  0  0
   -9.2796   19.4506  -33.7277 H   0  0  0  0  0  0  0  0  0  0  0  0
   -9.0672   18.9257  -30.7287 H   0  0  0  0  0  0  0  0  0  0  0  0
   -9.9829   17.9402  -31.9393 H   0  0  0  0  0  0  0  0  0  0  0  0
   -7.4899   17.2943  -31.1730 H   0  0  0  0  0  0  0  0  0  0  0  0
   -8.0969   17.0488  -32.8721 H   0  0  0  0  0  0  0  0  0  0  0  0
   -5.7357   18.2444  -32.3226 H   0  0  0  0  0  0  0  0  0  0  0  0
   -6.7673   18.6722  -33.7439 H   0  0  0  0  0  0  0  0  0  0  0  0
   -6.8047   20.0907  -31.0352 H   0  0  0  0  0  0  0  0  0  0  0  0
   -5.9777   20.6794  -32.5368 H   0  0  0  0  0  0  0  0  0  0  0  0
   -5.7057   21.8475  -32.4912 H   0  0  0  0  0  0  0  0  0  0  0  0
   -3.6387   23.1150  -31.9113 H   0  0  0  0  0  0  0  0  0  0  0  0
  1  2  2  0
  2  3  1  0
  3  4  1  0
  4  5  1  0
  5  6  1  0
  6  7  2  0
  7  8  1  0
  8  9  1  0
  9 10  1  0
 10 11  1  0
  2 12  1  0
 12 13  1  0
 13 14  2  0
 14 15  1  0
 15 16  2  0
 16 17  1  0
 17 18  2  0
 17 19  2  0
 17 20  1  0
 20 21  1  0
 21 22  1  0
 22 23  1  0
 23 24  1  0
 24 25  1  0
 16 26  1  0
 26 27  2  0
 11  6  1  0
 27 13  1  0
 25 20  1  0
  4 28  1  0
  4 29  1  0
  5 30  1  0
  5 31  1  0
  7 32  1  0
  8 33  1  0
  8 34  1  0
  9 35  1  0
  9 36  1  0
 10 37  1  0
 10 38  1  0
 11 39  1  0
 11 40  1  0
 14 41  1  0
 15 42  1  0
 21 43  1  0
 21 44  1  0
 22 45  1  0
 22 46  1  0
 23 47  1  0
 23 48  1  0
 24 49  1  0
 24 50  1  0
 25 51  1  0
 25 52  1  0
 26 53  1  0
 27 54  1  0
M  CHG  2   3  -1  12  -1
M  END
>  <UniqueID>  (30) 
30

>  <SMILES>  (30) 
O=C([N-]CCC1=CCCCC1)[N-]c1ccc(S(=O)(=O)N2CCCCC2)cc1

>  <Energy>  (30) 
52.58469083405181

>  <Genealogy>  (30) 
O=C([N-]CCC1=CCCCC1)[N-]c1ccc(S(=O)(=O)N2CCCCC2)cc1 (protonated)
O=C([N-]CCC1=CCCCC1)[N-]c1ccc(S(=O)(=O)N2CCCCC2)cc1 (3D coordinates assigned)
O=C([N-]CCC1=CCCCC1)[N-]c1ccc(S(=O)(=O)N2CCCCC2)cc1 (nonaromatic ring conformer: 52.58469083405181 kcal/mol)

>  <smiles>  (30) 
O=C(NCCC1=CCCCC1)Nc1ccc(S(=O)(=O)N2CCCCC2)cc1

>  <score_type>  (30) 
oracle

>  <origin>  (30) 
adgpu

>  <m_score__min__energy>  (30) 
-12.83

>  <m_primary>  (30) 
energy

$$$$
30:0
     RDKit          3D

 55 58  0  0  0  0  0  0  0  0999 V2000
   -0.8050   19.0360  -29.1930 C   0  0  0  0  0  0  0  0  0  0  0  0
   -0.7800   19.5210  -27.8020 N   0  0  0  0  0  0  0  0  0  0  0  0
    0.4460   20.2820  -27.4870 C   0  0  0  0  0  0  0  0  0  0  0  0
    0.5420   21.5960  -28.2770 C   0  0  0  0  0  0  0  0  0  0  0  0
   -0.7680   22.3360  -28.3250 C   0  0  0  0  0  0  0  0  0  0  0  0
   -0.7890   23.6600  -28.7880 C   0  0  0  0  0  0  0  0  0  0  0  0
   -1.9940   24.3580  -28.8960 C   0  0  0  0  0  0  0  0  0  0  0  0
   -1.9760   25.6740  -29.3410 O   0  0  0  0  0  0  0  0  0  0  0  0
   -3.2070   23.7380  -28.5470 C   0  0  0  0  0  0  0  0  0  0  0  0
   -4.4420   24.4710  -28.6440 N   0  0  0  0  0  0  0  0  0  0  0  0
   -5.2090   24.8340  -30.1580 S   0  0  0  0  0  0  0  0  0  0  0  0
   -4.1720   25.3070  -31.1390 O   0  0  0  0  0  0  0  0  0  0  0  0
   -6.2240   25.9260  -29.9560 O   0  0  0  0  0  0  0  0  0  0  0  0
   -6.0360   23.4000  -30.7580 C   0  0  0  0  0  0  0  0  0  0  0  0
   -5.3380   22.2030  -30.9660 C   0  0  0  0  0  0  0  0  0  0  0  0
   -6.0150   21.0620  -31.4040 C   0  0  0  0  0  0  0  0  0  0  0  0
   -7.3940   21.1090  -31.6490 C   0  0  0  0  0  0  0  0  0  0  0  0
   -8.2470   19.6680  -32.2090 S   0  0  0  0  0  0  0  0  0  0  0  0
   -8.8130   18.9390  -31.0210 O   0  0  0  0  0  0  0  0  0  0  0  0
   -9.3940   20.0810  -33.0900 O   0  0  0  0  0  0  0  0  0  0  0  0
   -7.1970   18.5960  -33.1020 N   0  0  0  0  0  0  0  0  0  0  0  0
   -6.4240   17.7460  -32.1870 C   0  0  0  0  0  0  0  0  0  0  0  0
   -5.5530   16.7640  -33.0020 C   0  0  0  0  0  0  0  0  0  0  0  0
   -5.4950   17.1020  -34.3780 O   0  0  0  0  0  0  0  0  0  0  0  0
   -5.1670   18.4690  -34.5270 C   0  0  0  0  0  0  0  0  0  0  0  0
   -6.2930   19.3660  -33.9740 C   0  0  0  0  0  0  0  0  0  0  0  0
   -8.0920   22.3080  -31.4430 C   0  0  0  0  0  0  0  0  0  0  0  0
   -7.4150   23.4470  -31.0000 C   0  0  0  0  0  0  0  0  0  0  0  0
   -3.1870   22.4020  -28.1100 C   0  0  0  0  0  0  0  0  0  0  0  0
   -1.9810   21.6950  -28.0070 C   0  0  0  0  0  0  0  0  0  0  0  0
   -1.9950   20.2860  -27.4580 C   0  0  0  0  0  0  0  0  0  0  0  0
   -0.8616   17.9375  -29.1973 H   0  0  0  0  0  0  0  0  0  0  0  0
   -1.6830   19.4504  -29.7101 H   0  0  0  0  0  0  0  0  0  0  0  0
    0.1109   19.3580  -29.7101 H   0  0  0  0  0  0  0  0  0  0  0  0
    0.4498   20.5156  -26.4121 H   0  0  0  0  0  0  0  0  0  0  0  0
    1.3077   19.6590  -27.7686 H   0  0  0  0  0  0  0  0  0  0  0  0
    1.2943   22.2408  -27.7992 H   0  0  0  0  0  0  0  0  0  0  0  0
    0.8226   21.3452  -29.3106 H   0  0  0  0  0  0  0  0  0  0  0  0
    0.1531   24.1535  -29.0689 H   0  0  0  0  0  0  0  0  0  0  0  0
   -4.9860   24.6790  -27.7780 H   0  0  0  0  0  0  0  0  0  0  0  0
   -4.2540   22.1615  -30.7839 H   0  0  0  0  0  0  0  0  0  0  0  0
   -5.4632   20.1228  -31.5572 H   0  0  0  0  0  0  0  0  0  0  0  0
   -5.7760   18.3769  -31.5609 H   0  0  0  0  0  0  0  0  0  0  0  0
   -7.1141   17.1769  -31.5468 H   0  0  0  0  0  0  0  0  0  0  0  0
   -4.5320   16.7752  -32.5928 H   0  0  0  0  0  0  0  0  0  0  0  0
   -6.0102   15.7667  -32.9221 H   0  0  0  0  0  0  0  0  0  0  0  0
   -4.2368   18.6785  -33.9785 H   0  0  0  0  0  0  0  0  0  0  0  0
   -5.0374   18.6857  -35.5976 H   0  0  0  0  0  0  0  0  0  0  0  0
   -5.8472   20.1880  -33.3947 H   0  0  0  0  0  0  0  0  0  0  0  0
   -6.8737   19.7633  -34.8196 H   0  0  0  0  0  0  0  0  0  0  0  0
   -9.1750   22.3517  -31.6307 H   0  0  0  0  0  0  0  0  0  0  0  0
   -7.9673   24.3849  -30.8405 H   0  0  0  0  0  0  0  0  0  0  0  0
   -4.1315   21.9042  -27.8450 H   0  0  0  0  0  0  0  0  0  0  0  0
   -2.0784   20.3375  -26.3624 H   0  0  0  0  0  0  0  0  0  0  0  0
   -2.8513   19.7648  -27.9108 H   0  0  0  0  0  0  0  0  0  0  0  0
  1  2  1  0
  2  3  1  0
  3  4  1  0
  4  5  1  0
  5  6  2  0
  6  7  1  0
  7  8  1  0
  7  9  2  0
  9 10  1  0
 10 11  1  0
 11 12  2  0
 11 13  2  0
 11 14  1  0
 14 15  2  0
 15 16  1  0
 16 17  2  0
 17 18  1  0
 18 19  2  0
 18 20  2  0
 18 21  1  0
 21 22  1  0
 22 23  1  0
 23 24  1  0
 24 25  1  0
 25 26  1  0
 17 27  1  0
 27 28  2  0
  9 29  1  0
 29 30  2  0
 30 31  1  0
 31  2  1  0
 30  5  1  0
 28 14  1  0
 26 21  1  0
  1 32  1  0
  1 33  1  0
  1 34  1  0
  3 35  1  0
  3 36  1  0
  4 37  1  0
  4 38  1  0
  6 39  1  0
 10 40  1  0
 15 41  1  0
 16 42  1  0
 22 43  1  0
 22 44  1  0
 23 45  1  0
 23 46  1  0
 25 47  1  0
 25 48  1  0
 26 49  1  0
 26 50  1  0
 27 51  1  0
 28 52  1  0
 29 53  1  0
 31 54  1  0
 31 55  1  0
M  CHG  1   8  -1
M  END
>  <UniqueID>  (31) 
31

>  <SMILES>  (31) 
CN1CCc2cc([O-])c(NS(=O)(=O)c3ccc(S(=O)(=O)N4CCOCC4)cc3)cc2C1

>  <Energy>  (31) 
72.61360413141075

>  <Genealogy>  (31) 
CN1CCc2cc([O-])c(NS(=O)(=O)c3ccc(S(=O)(=O)N4CCOCC4)cc3)cc2C1 (protonated)
CN1CCc2cc([O-])c(NS(=O)(=O)c3ccc(S(=O)(=O)N4CCOCC4)cc3)cc2C1 (3D coordinates assigned)
CN1CCc2cc([O-])c(NS(=O)(=O)c3ccc(S(=O)(=O)N4CCOCC4)cc3)cc2C1 (nonaromatic ring conformer: 72.61360413141075 kcal/mol)

>  <smiles>  (31) 
CN1CCc2cc(O)c(NS(=O)(=O)c3ccc(S(=O)(=O)N4CCOCC4)cc3)cc2C1

>  <score_type>  (31) 
oracle

>  <origin>  (31) 
adgpu

>  <m_score__min__energy>  (31) 
-14.380000000000001

>  <m_primary>  (31) 
energy

$$$$
31:0
     RDKit          3D

 43 46  0  0  0  0  0  0  0  0999 V2000
   -7.6850   21.1860  -31.1030 C   0  0  0  0  0  0  0  0  0  0  0  0
   -6.5990   22.0650  -31.5480 N   0  0  0  0  0  0  0  0  0  0  0  0
   -5.7270   21.6200  -32.6440 C   0  0  0  0  0  0  0  0  0  0  0  0
   -4.3070   21.4700  -32.1810 C   0  0  0  0  0  0  0  0  0  0  0  0
   -3.1730   21.5630  -32.9540 C   0  0  0  0  0  0  0  0  0  0  0  0
   -2.0990   21.3170  -32.1830 N   0  0  0  0  0  0  0  0  0  0  0  0
   -2.6200   21.0720  -30.9590 C   0  0  0  0  0  0  0  0  0  0  0  0
   -1.7920   20.7480  -29.7760 C   0  0  0  0  0  0  0  0  0  0  0  0
   -2.3890   20.5560  -28.5170 C   0  0  0  0  0  0  0  0  0  0  0  0
   -1.6030   20.2510  -27.4000 C   0  0  0  0  0  0  0  0  0  0  0  0
   -0.2170   20.1300  -27.5310 C   0  0  0  0  0  0  0  0  0  0  0  0
    0.3850   20.3160  -28.7760 C   0  0  0  0  0  0  0  0  0  0  0  0
   -0.3950   20.6250  -29.8940 C   0  0  0  0  0  0  0  0  0  0  0  0
   -3.9680   21.1500  -30.9200 N   0  0  0  0  0  0  0  0  0  0  0  0
   -6.5310   23.4050  -31.0190 C   0  0  0  0  0  0  0  0  0  0  0  0
   -7.5880   24.0870  -30.9240 O   0  0  0  0  0  0  0  0  0  0  0  0
   -5.2630   24.0040  -30.5530 C   0  0  0  0  0  0  0  0  0  0  0  0
   -4.4890   23.5370  -29.5110 C   0  0  0  0  0  0  0  0  0  0  0  0
   -3.3980   24.3870  -29.4940 C   0  0  0  0  0  0  0  0  0  0  0  0
   -2.2450   24.3400  -28.5630 C   0  0  0  0  0  0  0  0  0  0  0  0
   -2.4140   24.0670  -27.1940 C   0  0  0  0  0  0  0  0  0  0  0  0
   -1.3080   24.0340  -26.3430 C   0  0  0  0  0  0  0  0  0  0  0  0
   -0.0370   24.2730  -26.8620 C   0  0  0  0  0  0  0  0  0  0  0  0
    0.1180   24.5370  -28.1860 N   0  0  0  0  0  0  0  0  0  0  0  0
   -0.9420   24.5770  -29.0370 C   0  0  0  0  0  0  0  0  0  0  0  0
   -3.5250   25.2970  -30.4810 N   0  0  0  0  0  0  0  0  0  0  0  0
   -4.6580   25.0620  -31.1270 N   0  0  0  0  0  0  0  0  0  0  0  0
   -7.7119   21.1642  -30.0035 H   0  0  0  0  0  0  0  0  0  0  0  0
   -8.6439   21.5653  -31.4858 H   0  0  0  0  0  0  0  0  0  0  0  0
   -7.5138   20.1691  -31.4858 H   0  0  0  0  0  0  0  0  0  0  0  0
   -6.0869   20.6500  -33.0177 H   0  0  0  0  0  0  0  0  0  0  0  0
   -5.7553   22.3774  -33.4412 H   0  0  0  0  0  0  0  0  0  0  0  0
   -3.1486   21.8000  -34.0279 H   0  0  0  0  0  0  0  0  0  0  0  0
   -3.4800   20.6461  -28.4097 H   0  0  0  0  0  0  0  0  0  0  0  0
   -2.0767   20.1064  -26.4178 H   0  0  0  0  0  0  0  0  0  0  0  0
    0.3994   19.8881  -26.6526 H   0  0  0  0  0  0  0  0  0  0  0  0
    1.4760   20.2192  -28.8779 H   0  0  0  0  0  0  0  0  0  0  0  0
    0.0861   20.7730  -30.8721 H   0  0  0  0  0  0  0  0  0  0  0  0
   -4.6927   22.6845  -28.8463 H   0  0  0  0  0  0  0  0  0  0  0  0
   -3.4207   23.8789  -26.7925 H   0  0  0  0  0  0  0  0  0  0  0  0
   -1.4386   23.8211  -25.2717 H   0  0  0  0  0  0  0  0  0  0  0  0
    0.8410   24.2480  -26.1998 H   0  0  0  0  0  0  0  0  0  0  0  0
   -0.7794   24.7960  -30.1026 H   0  0  0  0  0  0  0  0  0  0  0  0
  1  2  1  0
  2  3  1  0
  3  4  1  0
  4  5  2  0
  5  6  1  0
  6  7  1  0
  7  8  1  0
  8  9  2  0
  9 10  1  0
 10 11  2  0
 11 12  1  0
 12 13  2  0
  7 14  2  0
  2 15  1  0
 15 16  2  0
 15 17  1  0
 17 18  1  0
 18 19  2  0
 19 20  1  0
 20 21  2  0
 21 22  1  0
 22 23  2  0
 23 24  1  0
 24 25  2  0
 19 26  1  0
 26 27  1  0
 14  4  1  0
 27 17  2  0
 13  8  1  0
 25 20  1  0
  1 28  1  0
  1 29  1  0
  1 30  1  0
  3 31  1  0
  3 32  1  0
  5 33  1  0
  9 34  1  0
 10 35  1  0
 11 36  1  0
 12 37  1  0
 13 38  1  0
 18 39  1  0
 21 40  1  0
 22 41  1  0
 23 42  1  0
 25 43  1  0
M  CHG  2   6  -1  26  -1
M  END
>  <UniqueID>  (32) 
32

>  <SMILES>  (32) 
CN(Cc1c[n-]c(-c2ccccc2)n1)C(=O)c1cc(-c2cccnc2)[n-]n1

>  <Energy>  (32) 
107.58489564023087

>  <Genealogy>  (32) 
CN(Cc1c[n-]c(-c2ccccc2)n1)C(=O)c1cc(-c2cccnc2)[n-]n1 (protonated)
CN(Cc1c[n-]c(-c2ccccc2)n1)C(=O)c1cc(-c2cccnc2)[n-]n1 (3D coordinates assigned)
CN(Cc1c[n-]c(-c2ccccc2)n1)C(=O)c1cc(-c2cccnc2)[n-]n1 (optimized conformer: 107.58489564023087 kcal/mol)

>  <smiles>  (32) 
CN(Cc1c[nH]c(-c2ccccc2)n1)C(=O)c1cc(-c2cccnc2)[nH]n1

>  <score_type>  (32) 
oracle

>  <origin>  (32) 
adgpu

>  <m_score__min__energy>  (32) 
-10.960000000000001

>  <m_primary>  (32) 
energy

$$$$
32:0
     RDKit          3D

 68 72  0  0  0  0  0  0  0  0999 V2000
   -9.1580   19.9820  -33.1900 O   0  0  0  0  0  0  0  0  0  0  0  0
   -8.1220   19.8740  -32.4760 C   0  0  0  0  0  0  0  0  0  0  0  0
   -7.9130   20.7910  -31.3890 N   0  0  0  0  0  0  0  0  0  0  0  0
   -8.6010   22.0800  -31.3160 C   0  0  0  0  0  0  0  0  0  0  0  0
   -7.8030   23.1760  -32.0360 C   0  0  0  0  0  0  0  0  0  0  0  0
   -6.3700   23.2140  -31.5630 C   0  0  0  0  0  0  0  0  0  0  0  0
   -5.5740   22.0570  -31.6180 C   0  0  0  0  0  0  0  0  0  0  0  0
   -4.2270   22.1100  -31.2420 C   0  0  0  0  0  0  0  0  0  0  0  0
   -3.6620   23.3180  -30.8220 C   0  0  0  0  0  0  0  0  0  0  0  0
   -4.4430   24.4760  -30.7710 C   0  0  0  0  0  0  0  0  0  0  0  0
   -3.8780   25.6740  -30.3570 O   0  0  0  0  0  0  0  0  0  0  0  0
   -5.7940   24.4250  -31.1380 C   0  0  0  0  0  0  0  0  0  0  0  0
   -7.1000   18.8580  -32.8220 C   0  0  0  0  0  0  0  0  0  0  0  0
   -7.4050   17.4830  -32.8080 C   0  0  0  0  0  0  0  0  0  0  0  0
   -6.4110   16.5350  -33.0640 C   0  0  0  0  0  0  0  0  0  0  0  0
   -5.1030   16.9420  -33.3260 C   0  0  0  0  0  0  0  0  0  0  0  0
   -4.7830   18.3080  -33.3650 C   0  0  0  0  0  0  0  0  0  0  0  0
   -3.3930   18.7400  -33.6150 C   0  0  0  0  0  0  0  0  0  0  0  0
   -2.9560   20.0090  -33.2050 C   0  0  0  0  0  0  0  0  0  0  0  0
   -1.6420   20.4150  -33.4510 C   0  0  0  0  0  0  0  0  0  0  0  0
   -0.7450   19.5640  -34.1110 C   0  0  0  0  0  0  0  0  0  0  0  0
    0.5690   20.0110  -34.3260 O   0  0  0  0  0  0  0  0  0  0  0  0
    0.9340   21.2230  -34.9220 C   0  0  0  0  0  0  0  0  0  0  0  0
   -0.0560   21.9850  -35.5470 C   0  0  0  0  0  0  0  0  0  0  0  0
    0.2480   23.2410  -36.0800 C   0  0  0  0  0  0  0  0  0  0  0  0
    1.5560   23.7390  -36.0110 C   0  0  0  0  0  0  0  0  0  0  0  0
    1.9130   25.3780  -36.5750 S   0  0  0  0  0  0  0  0  0  0  0  0
    2.8670   26.0500  -35.6200 O   0  0  0  0  0  0  0  0  0  0  0  0
    2.5860   25.3020  -37.9200 O   0  0  0  0  0  0  0  0  0  0  0  0
    0.4560   26.3390  -36.7240 N   0  0  0  0  0  0  0  0  0  0  0  0
    0.6760   27.5170  -37.5750 C   0  0  0  0  0  0  0  0  0  0  0  0
    0.7970   28.7480  -36.6830 C   0  0  0  0  0  0  0  0  0  0  0  0
    0.5130   28.2710  -35.2710 C   0  0  0  0  0  0  0  0  0  0  0  0
    0.0170   26.8430  -35.4190 C   0  0  0  0  0  0  0  0  0  0  0  0
    2.5670   22.9420  -35.4560 C   0  0  0  0  0  0  0  0  0  0  0  0
    2.2600   21.6870  -34.9240 C   0  0  0  0  0  0  0  0  0  0  0  0
   -1.1710   18.2750  -34.4820 C   0  0  0  0  0  0  0  0  0  0  0  0
   -2.4900   17.8760  -34.2560 C   0  0  0  0  0  0  0  0  0  0  0  0
   -5.7870   19.2620  -33.1250 C   0  0  0  0  0  0  0  0  0  0  0  0
   -7.1230   20.6390  -30.7260 H   0  0  0  0  0  0  0  0  0  0  0  0
   -9.5897   21.9864  -31.7890 H   0  0  0  0  0  0  0  0  0  0  0  0
   -8.7029   22.3613  -30.2575 H   0  0  0  0  0  0  0  0  0  0  0  0
   -7.8178   22.9775  -33.1178 H   0  0  0  0  0  0  0  0  0  0  0  0
   -8.2679   24.1473  -31.8113 H   0  0  0  0  0  0  0  0  0  0  0  0
   -6.0112   21.1065  -31.9577 H   0  0  0  0  0  0  0  0  0  0  0  0
   -3.6113   21.1991  -31.2770 H   0  0  0  0  0  0  0  0  0  0  0  0
   -2.6018   23.3571  -30.5314 H   0  0  0  0  0  0  0  0  0  0  0  0
   -6.4077   25.3368  -31.0936 H   0  0  0  0  0  0  0  0  0  0  0  0
   -8.4324   17.1533  -32.5941 H   0  0  0  0  0  0  0  0  0  0  0  0
   -6.6610   15.4638  -33.0589 H   0  0  0  0  0  0  0  0  0  0  0  0
   -4.3198   16.1901  -33.5026 H   0  0  0  0  0  0  0  0  0  0  0  0
   -3.6509   20.6869  -32.6878 H   0  0  0  0  0  0  0  0  0  0  0  0
   -1.3086   21.4109  -33.1239 H   0  0  0  0  0  0  0  0  0  0  0  0
   -1.0816   21.5941  -35.6202 H   0  0  0  0  0  0  0  0  0  0  0  0
   -0.5423   23.8406  -36.5553 H   0  0  0  0  0  0  0  0  0  0  0  0
    1.6018   27.3873  -38.1547 H   0  0  0  0  0  0  0  0  0  0  0  0
   -0.1669   27.6396  -38.2710 H   0  0  0  0  0  0  0  0  0  0  0  0
    1.8114   29.1685  -36.7476 H   0  0  0  0  0  0  0  0  0  0  0  0
    0.0961   29.5383  -36.9899 H   0  0  0  0  0  0  0  0  0  0  0  0
    1.4298   28.2989  -34.6638 H   0  0  0  0  0  0  0  0  0  0  0  0
   -0.2255   28.9098  -34.7645 H   0  0  0  0  0  0  0  0  0  0  0  0
    0.4375   26.2177  -34.6176 H   0  0  0  0  0  0  0  0  0  0  0  0
   -1.0804   26.8126  -35.3493 H   0  0  0  0  0  0  0  0  0  0  0  0
    3.6050   23.3057  -35.4393 H   0  0  0  0  0  0  0  0  0  0  0  0
    3.0603   21.0594  -34.5048 H   0  0  0  0  0  0  0  0  0  0  0  0
   -0.4614   17.5783  -34.9523 H   0  0  0  0  0  0  0  0  0  0  0  0
   -2.8236   16.8797  -34.5817 H   0  0  0  0  0  0  0  0  0  0  0  0
   -5.5439   20.3337  -33.1745 H   0  0  0  0  0  0  0  0  0  0  0  0
  1  2  2  0
  2  3  1  0
  3  4  1  0
  4  5  1  0
  5  6  1  0
  6  7  2  0
  7  8  1  0
  8  9  2  0
  9 10  1  0
 10 11  1  0
 10 12  2  0
  2 13  1  0
 13 14  2  0
 14 15  1  0
 15 16  2  0
 16 17  1  0
 17 18  1  0
 18 19  2  0
 19 20  1  0
 20 21  2  0
 21 22  1  0
 22 23  1  0
 23 24  2  0
 24 25  1  0
 25 26  2  0
 26 27  1  0
 27 28  2  0
 27 29  2  0
 27 30  1  0
 30 31  1  0
 31 32  1  0
 32 33  1  0
 33 34  1  0
 26 35  1  0
 35 36  2  0
 21 37  1  0
 37 38  2  0
 17 39  2  0
 12  6  1  0
 39 13  1  0
 38 18  1  0
 36 23  1  0
 34 30  1  0
  3 40  1  0
  4 41  1  0
  4 42  1  0
  5 43  1  0
  5 44  1  0
  7 45  1  0
  8 46  1  0
  9 47  1  0
 12 48  1  0
 14 49  1  0
 15 50  1  0
 16 51  1  0
 19 52  1  0
 20 53  1  0
 24 54  1  0
 25 55  1  0
 31 56  1  0
 31 57  1  0
 32 58  1  0
 32 59  1  0
 33 60  1  0
 33 61  1  0
 34 62  1  0
 34 63  1  0
 35 64  1  0
 36 65  1  0
 37 66  1  0
 38 67  1  0
 39 68  1  0
M  CHG  1  11  -1
M  END
>  <UniqueID>  (33) 
33

>  <SMILES>  (33) 
O=C(NCCc1cccc([O-])c1)c1cccc(-c2ccc(Oc3ccc(S(=O)(=O)N4CCCC4)cc3)cc2)c1

>  <Energy>  (33) 
84.42504233563827

>  <Genealogy>  (33) 
O=C(NCCc1cccc([O-])c1)c1cccc(-c2ccc(Oc3ccc(S(=O)(=O)N4CCCC4)cc3)cc2)c1 (protonated)
O=C(NCCc1cccc([O-])c1)c1cccc(-c2ccc(Oc3ccc(S(=O)(=O)N4CCCC4)cc3)cc2)c1 (3D coordinates assigned)
O=C(NCCc1cccc([O-])c1)c1cccc(-c2ccc(Oc3ccc(S(=O)(=O)N4CCCC4)cc3)cc2)c1 (nonaromatic ring conformer: 84.42504233563827 kcal/mol)

>  <smiles>  (33) 
O=C(NCCc1cccc(O)c1)c1cccc(-c2ccc(Oc3ccc(S(=O)(=O)N4CCCC4)cc3)cc2)c1

>  <score_type>  (33) 
oracle

>  <origin>  (33) 
adgpu

>  <m_score__min__energy>  (33) 
-14.43

>  <m_primary>  (33) 
energy

$$$$
33:0
     RDKit          3D

 62 65  0  0  0  0  0  0  0  0999 V2000
    0.1550   18.3430  -31.5110 C   0  0  0  0  0  0  0  0  0  0  0  0
   -1.1030   18.2890  -32.3400 C   0  0  0  0  0  0  0  0  0  0  0  0
   -1.4780   17.0460  -32.8740 C   0  0  0  0  0  0  0  0  0  0  0  0
   -2.6310   16.9160  -33.6400 C   0  0  0  0  0  0  0  0  0  0  0  0
   -3.4330   18.0240  -33.9020 C   0  0  0  0  0  0  0  0  0  0  0  0
   -4.6520   17.8180  -34.6250 N   0  0  0  0  0  0  0  0  0  0  0  0
   -5.8710   17.3480  -34.0360 C   0  0  0  0  0  0  0  0  0  0  0  0
   -6.6300   16.5760  -34.6790 O   0  0  0  0  0  0  0  0  0  0  0  0
   -6.2340   17.7290  -32.7050 N   0  0  0  0  0  0  0  0  0  0  0  0
   -6.9520   18.9100  -32.3210 C   0  0  0  0  0  0  0  0  0  0  0  0
   -8.3270   18.8090  -32.0680 C   0  0  0  0  0  0  0  0  0  0  0  0
   -9.0690   19.9420  -31.7240 C   0  0  0  0  0  0  0  0  0  0  0  0
   -8.4480   21.1910  -31.6470 C   0  0  0  0  0  0  0  0  0  0  0  0
   -7.0790   21.3140  -31.9260 C   0  0  0  0  0  0  0  0  0  0  0  0
   -6.2960   22.8950  -31.8640 S   0  0  0  0  0  0  0  0  0  0  0  0
   -7.1330   23.8770  -32.6350 O   0  0  0  0  0  0  0  0  0  0  0  0
   -4.9540   22.8070  -32.5380 O   0  0  0  0  0  0  0  0  0  0  0  0
   -6.0800   23.4790  -30.2260 N   0  0  0  0  0  0  0  0  0  0  0  0
   -6.4710   24.8930  -30.0750 C   0  0  0  0  0  0  0  0  0  0  0  0
   -5.3620   25.8790  -30.5110 C   0  0  0  0  0  0  0  0  0  0  0  0
   -4.1230   25.2470  -30.7700 O   0  0  0  0  0  0  0  0  0  0  0  0
   -3.7960   24.3880  -29.7020 C   0  0  0  0  0  0  0  0  0  0  0  0
   -4.7410   23.1760  -29.6770 C   0  0  0  0  0  0  0  0  0  0  0  0
   -6.3360   20.1740  -32.2640 C   0  0  0  0  0  0  0  0  0  0  0  0
   -3.0320   19.3010  -33.4550 C   0  0  0  0  0  0  0  0  0  0  0  0
   -3.7470   20.4400  -33.8370 O   0  0  0  0  0  0  0  0  0  0  0  0
   -1.8840   19.4420  -32.6400 C   0  0  0  0  0  0  0  0  0  0  0  0
   -1.4690   21.0670  -32.0160 S   0  0  0  0  0  0  0  0  0  0  0  0
   -2.5270   22.0450  -32.4460 O   0  0  0  0  0  0  0  0  0  0  0  0
   -0.1700   21.5520  -32.5930 O   0  0  0  0  0  0  0  0  0  0  0  0
   -1.3520   21.0920  -30.2700 N   0  0  0  0  0  0  0  0  0  0  0  0
   -0.9670   22.4240  -29.7870 C   0  0  0  0  0  0  0  0  0  0  0  0
   -0.8150   22.3970  -28.2500 C   0  0  0  0  0  0  0  0  0  0  0  0
   -1.2710   21.1810  -27.6850 O   0  0  0  0  0  0  0  0  0  0  0  0
   -2.5870   20.9060  -28.1280 C   0  0  0  0  0  0  0  0  0  0  0  0
   -2.6240   20.6790  -29.6520 C   0  0  0  0  0  0  0  0  0  0  0  0
   -0.1088   18.3317  -30.4432 H   0  0  0  0  0  0  0  0  0  0  0  0
    0.7844   17.4710  -31.7425 H   0  0  0  0  0  0  0  0  0  0  0  0
    0.7073   19.2657  -31.7425 H   0  0  0  0  0  0  0  0  0  0  0  0
   -0.8509   16.1626  -32.6837 H   0  0  0  0  0  0  0  0  0  0  0  0
   -2.9117   15.9312  -34.0418 H   0  0  0  0  0  0  0  0  0  0  0  0
   -8.8254   17.8311  -32.1408 H   0  0  0  0  0  0  0  0  0  0  0  0
  -10.1447   19.8502  -31.5133 H   0  0  0  0  0  0  0  0  0  0  0  0
   -9.0335   22.0792  -31.3672 H   0  0  0  0  0  0  0  0  0  0  0  0
   -7.3644   25.0768  -30.6899 H   0  0  0  0  0  0  0  0  0  0  0  0
   -6.6636   25.0677  -29.0062 H   0  0  0  0  0  0  0  0  0  0  0  0
   -5.6908   26.3918  -31.4269 H   0  0  0  0  0  0  0  0  0  0  0  0
   -5.2030   26.5801  -29.6785 H   0  0  0  0  0  0  0  0  0  0  0  0
   -2.7606   24.0372  -29.8236 H   0  0  0  0  0  0  0  0  0  0  0  0
   -3.9008   24.9403  -28.7565 H   0  0  0  0  0  0  0  0  0  0  0  0
   -4.2917   22.3683  -30.2734 H   0  0  0  0  0  0  0  0  0  0  0  0
   -4.8741   22.8828  -28.6252 H   0  0  0  0  0  0  0  0  0  0  0  0
   -5.2629   20.2684  -32.4864 H   0  0  0  0  0  0  0  0  0  0  0  0
   -3.7060   21.3130  -33.3270 H   0  0  0  0  0  0  0  0  0  0  0  0
   -0.0100   22.7161  -30.2439 H   0  0  0  0  0  0  0  0  0  0  0  0
   -1.7454   23.1505  -30.0632 H   0  0  0  0  0  0  0  0  0  0  0  0
    0.2476   22.5276  -27.9975 H   0  0  0  0  0  0  0  0  0  0  0  0
   -1.4295   23.2106  -27.8372 H   0  0  0  0  0  0  0  0  0  0  0  0
   -2.9550   20.0017  -27.6212 H   0  0  0  0  0  0  0  0  0  0  0  0
   -3.2239   21.7702  -27.8882 H   0  0  0  0  0  0  0  0  0  0  0  0
   -2.7940   19.6112  -29.8542 H   0  0  0  0  0  0  0  0  0  0  0  0
   -3.4381   21.2823  -30.0802 H   0  0  0  0  0  0  0  0  0  0  0  0
  1  2  1  0
  2  3  2  0
  3  4  1  0
  4  5  2  0
  5  6  1  0
  6  7  1  0
  7  8  2  0
  7  9  1  0
  9 10  1  0
 10 11  2  0
 11 12  1  0
 12 13  2  0
 13 14  1  0
 14 15  1  0
 15 16  2  0
 15 17  2  0
 15 18  1  0
 18 19  1  0
 19 20  1  0
 20 21  1  0
 21 22  1  0
 22 23  1  0
 14 24  2  0
  5 25  1  0
 25 26  1  0
 25 27  2  0
 27 28  1  0
 28 29  2  0
 28 30  2  0
 28 31  1  0
 31 32  1  0
 32 33  1  0
 33 34  1  0
 34 35  1  0
 35 36  1  0
 27  2  1  0
 36 31  1  0
 24 10  1  0
 23 18  1  0
  1 37  1  0
  1 38  1  0
  1 39  1  0
  3 40  1  0
  4 41  1  0
 11 42  1  0
 12 43  1  0
 13 44  1  0
 19 45  1  0
 19 46  1  0
 20 47  1  0
 20 48  1  0
 22 49  1  0
 22 50  1  0
 23 51  1  0
 23 52  1  0
 24 53  1  0
 26 54  1  0
 32 55  1  0
 32 56  1  0
 33 57  1  0
 33 58  1  0
 35 59  1  0
 35 60  1  0
 36 61  1  0
 36 62  1  0
M  CHG  2   6  -1   9  -1
M  END
>  <UniqueID>  (34) 
34

>  <SMILES>  (34) 
Cc1ccc([N-]C(=O)[N-]c2cccc(S(=O)(=O)N3CCOCC3)c2)c(O)c1S(=O)(=O)N1CCOCC1

>  <Energy>  (34) 
96.41147337528389

>  <Genealogy>  (34) 
Cc1ccc([N-]C(=O)[N-]c2cccc(S(=O)(=O)N3CCOCC3)c2)c(O)c1S(=O)(=O)N1CCOCC1 (protonated)
Cc1ccc([N-]C(=O)[N-]c2cccc(S(=O)(=O)N3CCOCC3)c2)c(O)c1S(=O)(=O)N1CCOCC1 (3D coordinates assigned)
Cc1ccc([N-]C(=O)[N-]c2cccc(S(=O)(=O)N3CCOCC3)c2)c(O)c1S(=O)(=O)N1CCOCC1 (nonaromatic ring conformer: 96.41147337528389 kcal/mol)

>  <smiles>  (34) 
Cc1ccc(NC(=O)Nc2cccc(S(=O)(=O)N3CCOCC3)c2)c(O)c1S(=O)(=O)N1CCOCC1

>  <score_type>  (34) 
oracle

>  <origin>  (34) 
adgpu

>  <m_score__min__energy>  (34) 
-14.41

>  <m_primary>  (34) 
energy

$$$$
34:0
     RDKit          3D

 61 65  0  0  1  0  0  0  0  0999 V2000
   -8.1760   19.3090  -31.9670 C   0  0  0  0  0  0  0  0  0  0  0  0
   -9.0740   20.3090  -31.5790 C   0  0  0  0  0  0  0  0  0  0  0  0
   -8.7320   21.6350  -31.7700 C   0  0  0  0  0  0  0  0  0  0  0  0
   -7.5340   22.0290  -32.3300 C   0  0  0  0  0  0  0  0  0  0  0  0
   -7.1380   23.4270  -32.5470 C   0  0  0  0  0  0  0  0  0  0  0  0
   -7.1390   24.1720  -31.2210 C   0  0  0  0  0  0  0  0  0  0  0  0
   -5.8570   23.8170  -30.5580 C   0  0  0  0  0  0  0  0  0  0  0  0
   -4.7790   23.1930  -31.1050 N   0  0  0  0  0  0  0  0  0  0  0  0
   -3.8180   23.0550  -30.1740 C   0  0  0  0  0  0  0  0  0  0  0  0
   -2.6510   22.5200  -30.2900 N   0  0  0  0  0  0  0  0  0  0  0  0
   -1.7170   22.4330  -29.2210 C   0  0  0  0  0  0  0  0  0  0  0  0
   -0.9040   21.2920  -29.1840 C   0  0  0  0  0  0  0  0  0  0  0  0
    0.0180   21.1350  -28.1870 C   0  0  0  0  0  0  0  0  0  0  0  0
    0.8390   20.0020  -28.1330 N   0  0  0  0  0  0  0  0  0  0  0  0
    2.2550   20.1450  -27.8490 C   0  0  0  0  0  0  0  0  0  0  0  0
    2.9180   18.8860  -28.4230 C   0  0  0  0  0  0  0  0  0  0  0  0
    2.5130   17.8270  -27.6530 O   0  0  0  0  0  0  0  0  0  0  0  0
    1.1600   17.5860  -27.6880 C   0  0  0  0  0  0  0  0  0  0  0  0
    0.3380   18.6590  -28.3500 C   0  0  0  0  0  0  0  0  0  0  0  0
    0.1080   22.1380  -27.2400 C   0  0  0  0  0  0  0  0  0  0  0  0
   -0.7160   23.2430  -27.3200 C   0  0  0  0  0  0  0  0  0  0  0  0
   -0.6280   24.2740  -26.3500 N   0  0  0  0  0  0  0  0  0  0  0  0
   -0.7410   25.6850  -26.6670 C   0  0  0  0  0  0  0  0  0  0  0  0
   -1.6370   26.2590  -25.5770 C   0  0  0  0  0  0  0  0  0  0  0  0
   -1.0790   26.1770  -24.3290 O   0  0  0  0  0  0  0  0  0  0  0  0
   -0.2190   25.1420  -24.1000 C   0  0  0  0  0  0  0  0  0  0  0  0
   -0.4110   23.9230  -24.9450 C   0  0  0  0  0  0  0  0  0  0  0  0
   -1.6240   23.3910  -28.3050 N   0  0  0  0  0  0  0  0  0  0  0  0
   -4.3170   23.6000  -29.0490 N   0  0  0  0  0  0  0  0  0  0  0  0
   -5.5380   24.0610  -29.2620 N   0  0  0  0  0  0  0  0  0  0  0  0
   -6.6430   21.0370  -32.7130 C   0  0  0  0  0  0  0  0  0  0  0  0
   -6.9760   19.7120  -32.5270 C   0  0  0  0  0  0  0  0  0  0  0  0
   -8.4143   18.2436  -31.8323 H   0  0  0  0  0  0  0  0  0  0  0  0
  -10.0411   20.0434  -31.1271 H   0  0  0  0  0  0  0  0  0  0  0  0
   -9.4476   22.4113  -31.4614 H   0  0  0  0  0  0  0  0  0  0  0  0
   -6.1285   23.4576  -32.9828 H   0  0  0  0  0  0  0  0  0  0  0  0
   -7.8517   23.9053  -33.2340 H   0  0  0  0  0  0  0  0  0  0  0  0
   -7.1949   25.2573  -31.3911 H   0  0  0  0  0  0  0  0  0  0  0  0
   -8.0056   23.8968  -30.6019 H   0  0  0  0  0  0  0  0  0  0  0  0
   -1.0082   20.5197  -29.9603 H   0  0  0  0  0  0  0  0  0  0  0  0
    2.6556   21.0463  -28.3360 H   0  0  0  0  0  0  0  0  0  0  0  0
    2.4461   20.2512  -26.7709 H   0  0  0  0  0  0  0  0  0  0  0  0
    2.6022   18.7360  -29.4660 H   0  0  0  0  0  0  0  0  0  0  0  0
    4.0138   18.9815  -28.4098 H   0  0  0  0  0  0  0  0  0  0  0  0
    0.9953   16.6451  -28.2335 H   0  0  0  0  0  0  0  0  0  0  0  0
    0.8280   17.5482  -26.6400 H   0  0  0  0  0  0  0  0  0  0  0  0
    0.3238   18.4656  -29.4328 H   0  0  0  0  0  0  0  0  0  0  0  0
   -0.6646   18.6161  -27.8996 H   0  0  0  0  0  0  0  0  0  0  0  0
    0.8376   22.0556  -26.4210 H   0  0  0  0  0  0  0  0  0  0  0  0
    0.2479   26.1665  -26.6490 H   0  0  0  0  0  0  0  0  0  0  0  0
   -1.1525   25.8525  -27.6733 H   0  0  0  0  0  0  0  0  0  0  0  0
   -1.8327   27.3172  -25.8049 H   0  0  0  0  0  0  0  0  0  0  0  0
   -2.5624   25.6645  -25.5640 H   0  0  0  0  0  0  0  0  0  0  0  0
    0.8030   25.5111  -24.2711 H   0  0  0  0  0  0  0  0  0  0  0  0
   -0.4174   24.8181  -23.0677 H   0  0  0  0  0  0  0  0  0  0  0  0
    0.4855   23.2902  -24.8688 H   0  0  0  0  0  0  0  0  0  0  0  0
   -1.3001   23.3869  -24.5814 H   0  0  0  0  0  0  0  0  0  0  0  0
   -3.8460   23.6660  -28.1320 H   0  0  0  0  0  0  0  0  0  0  0  0
   -6.1520   24.5310  -28.5580 H   0  0  0  0  0  0  0  0  0  0  0  0
   -5.6759   21.3061  -33.1627 H   0  0  0  0  0  0  0  0  0  0  0  0
   -6.2558   18.9407  -32.8375 H   0  0  0  0  0  0  0  0  0  0  0  0
  1  2  2  0
  2  3  1  0
  3  4  2  0
  4  5  1  0
  5  6  1  0
  6  7  1  0
  7  8  2  0
  8  9  1  0
  9 10  2  0
 10 11  1  0
 11 12  2  0
 12 13  1  0
 13 14  1  0
 14 15  1  0
 15 16  1  0
 16 17  1  0
 17 18  1  0
 18 19  1  0
 13 20  2  0
 20 21  1  0
 21 22  1  0
 22 23  1  0
 23 24  1  0
 24 25  1  0
 25 26  1  0
 26 27  1  0
 21 28  2  0
  9 29  1  0
 29 30  1  0
  4 31  1  0
 31 32  2  0
 32  1  1  0
 30  7  1  0
 28 11  1  0
 19 14  1  0
 27 22  1  0
  1 33  1  0
  2 34  1  0
  3 35  1  0
  5 36  1  0
  5 37  1  0
  6 38  1  0
  6 39  1  0
 12 40  1  0
 15 41  1  0
 15 42  1  0
 16 43  1  0
 16 44  1  0
 18 45  1  0
 18 46  1  0
 19 47  1  0
 19 48  1  0
 20 49  1  0
 23 50  1  0
 23 51  1  0
 24 52  1  0
 24 53  1  0
 26 54  1  0
 26 55  1  0
 27 56  1  0
 27 57  1  0
 29 58  1  0
 30 59  1  0
 31 60  1  0
 32 61  1  0
M  END
>  <smiles>  (35) 
c1ccc(CCc2nc(=Nc3cc(N4CCOCC4)cc(N4CCOCC4)n3)[nH][nH]2)cc1

>  <score_type>  (35) 
oracle

>  <origin>  (35) 
adgpu

>  <m_score__min__energy>  (35) 
-10.119999999999999

>  <m_primary>  (35) 
energy

$$$$
35:0
     RDKit          3D

 54 57  0  0  0  0  0  0  0  0999 V2000
   -3.2410   17.4230  -34.8150 C   0  0  0  0  0  0  0  0  0  0  0  0
   -5.0010   17.2280  -34.5970 S   0  0  0  0  0  0  0  0  0  0  0  0
   -5.7130   18.1650  -35.5350 O   0  0  0  0  0  0  0  0  0  0  0  0
   -5.3830   15.8170  -34.9460 O   0  0  0  0  0  0  0  0  0  0  0  0
   -5.4940   17.5770  -32.9550 N   0  0  0  0  0  0  0  0  0  0  0  0
   -4.6740   18.6690  -32.3890 C   0  0  0  0  0  0  0  0  0  0  0  0
   -5.3650   19.3430  -31.2040 C   0  0  0  0  0  0  0  0  0  0  0  0
   -6.6480   19.8960  -31.6480 N   0  0  0  0  0  0  0  0  0  0  0  0
   -7.1820   21.0800  -31.0310 C   0  0  0  0  0  0  0  0  0  0  0  0
   -8.3650   21.0750  -30.5940 O   0  0  0  0  0  0  0  0  0  0  0  0
   -6.3580   22.2980  -30.8990 C   0  0  0  0  0  0  0  0  0  0  0  0
   -6.3490   23.2590  -31.9230 C   0  0  0  0  0  0  0  0  0  0  0  0
   -5.5330   24.3880  -31.8220 C   0  0  0  0  0  0  0  0  0  0  0  0
   -4.7020   24.5570  -30.7110 C   0  0  0  0  0  0  0  0  0  0  0  0
   -3.8790   25.6740  -30.6370 O   0  0  0  0  0  0  0  0  0  0  0  0
   -4.6990   23.5990  -29.6830 C   0  0  0  0  0  0  0  0  0  0  0  0
   -3.7470   23.6760  -28.6180 N   0  0  0  0  0  0  0  0  0  0  0  0
   -2.9870   22.2190  -28.0680 S   0  0  0  0  0  0  0  0  0  0  0  0
   -4.0220   21.2940  -27.4900 O   0  0  0  0  0  0  0  0  0  0  0  0
   -1.9750   22.5430  -27.0040 O   0  0  0  0  0  0  0  0  0  0  0  0
   -2.2160   21.4390  -29.4490 C   0  0  0  0  0  0  0  0  0  0  0  0
   -1.2700   20.4270  -29.2330 C   0  0  0  0  0  0  0  0  0  0  0  0
   -0.7530   19.6970  -30.3070 C   0  0  0  0  0  0  0  0  0  0  0  0
   -1.1880   19.9660  -31.6120 C   0  0  0  0  0  0  0  0  0  0  0  0
   -0.7060   19.2290  -32.7030 C   0  0  0  0  0  0  0  0  0  0  0  0
   -1.1470   19.5050  -33.9590 N   0  0  0  0  0  0  0  0  0  0  0  0
   -2.0580   20.4870  -34.2010 C   0  0  0  0  0  0  0  0  0  0  0  0
   -2.5720   21.2460  -33.1460 C   0  0  0  0  0  0  0  0  0  0  0  0
   -2.1370   20.9890  -31.8390 C   0  0  0  0  0  0  0  0  0  0  0  0
   -2.6440   21.7230  -30.7550 C   0  0  0  0  0  0  0  0  0  0  0  0
   -5.5500   22.4890  -29.7660 C   0  0  0  0  0  0  0  0  0  0  0  0
   -7.4040   19.2220  -32.7080 C   0  0  0  0  0  0  0  0  0  0  0  0
   -6.9620   17.7550  -32.8470 C   0  0  0  0  0  0  0  0  0  0  0  0
   -2.7533   17.4770  -33.8305 H   0  0  0  0  0  0  0  0  0  0  0  0
   -2.8434   16.5634  -35.3745 H   0  0  0  0  0  0  0  0  0  0  0  0
   -3.0412   18.3488  -35.3745 H   0  0  0  0  0  0  0  0  0  0  0  0
   -3.7128   18.2541  -32.0516 H   0  0  0  0  0  0  0  0  0  0  0  0
   -4.5249   19.4259  -33.1731 H   0  0  0  0  0  0  0  0  0  0  0  0
   -5.5383   18.6028  -30.4090 H   0  0  0  0  0  0  0  0  0  0  0  0
   -4.7283   20.1509  -30.8142 H   0  0  0  0  0  0  0  0  0  0  0  0
   -6.9873   23.1220  -32.8083 H   0  0  0  0  0  0  0  0  0  0  0  0
   -5.5444   25.1461  -32.6189 H   0  0  0  0  0  0  0  0  0  0  0  0
   -3.8280   24.4610  -27.9320 H   0  0  0  0  0  0  0  0  0  0  0  0
   -0.9319   20.2057  -28.2099 H   0  0  0  0  0  0  0  0  0  0  0  0
   -0.0045   18.9111  -30.1280 H   0  0  0  0  0  0  0  0  0  0  0  0
    0.0295   18.4269  -32.5426 H   0  0  0  0  0  0  0  0  0  0  0  0
   -2.3909   20.6839  -35.2308 H   0  0  0  0  0  0  0  0  0  0  0  0
   -3.3109   22.0375  -33.3398 H   0  0  0  0  0  0  0  0  0  0  0  0
   -3.3787   22.5228  -30.9298 H   0  0  0  0  0  0  0  0  0  0  0  0
   -5.5855   21.7636  -28.9399 H   0  0  0  0  0  0  0  0  0  0  0  0
   -8.4758   19.2539  -32.4625 H   0  0  0  0  0  0  0  0  0  0  0  0
   -7.2134   19.7391  -33.6600 H   0  0  0  0  0  0  0  0  0  0  0  0
   -7.3137   17.2022  -31.9634 H   0  0  0  0  0  0  0  0  0  0  0  0
   -7.3989   17.3775  -33.7832 H   0  0  0  0  0  0  0  0  0  0  0  0
  1  2  1  0
  2  3  2  0
  2  4  2  0
  2  5  1  0
  5  6  1  0
  6  7  1  0
  7  8  1  0
  8  9  1  0
  9 10  2  0
  9 11  1  0
 11 12  2  0
 12 13  1  0
 13 14  2  0
 14 15  1  0
 14 16  1  0
 16 17  1  0
 17 18  1  0
 18 19  2  0
 18 20  2  0
 18 21  1  0
 21 22  2  0
 22 23  1  0
 23 24  2  0
 24 25  1  0
 25 26  2  0
 26 27  1  0
 27 28  2  0
 28 29  1  0
 29 30  2  0
 16 31  2  0
  8 32  1  0
 32 33  1  0
 33  5  1  0
 31 11  1  0
 30 21  1  0
 29 24  1  0
  1 34  1  0
  1 35  1  0
  1 36  1  0
  6 37  1  0
  6 38  1  0
  7 39  1  0
  7 40  1  0
 12 41  1  0
 13 42  1  0
 17 43  1  0
 22 44  1  0
 23 45  1  0
 25 46  1  0
 27 47  1  0
 28 48  1  0
 30 49  1  0
 31 50  1  0
 32 51  1  0
 32 52  1  0
 33 53  1  0
 33 54  1  0
M  CHG  1  15  -1
M  END
>  <UniqueID>  (36) 
35

>  <SMILES>  (36) 
CS(=O)(=O)N1CCN(C(=O)c2ccc([O-])c(NS(=O)(=O)c3ccc4cnccc4c3)c2)CC1

>  <Energy>  (36) 
72.87610934996286

>  <Genealogy>  (36) 
CS(=O)(=O)N1CCN(C(=O)c2ccc([O-])c(NS(=O)(=O)c3ccc4cnccc4c3)c2)CC1 (protonated)
CS(=O)(=O)N1CCN(C(=O)c2ccc([O-])c(NS(=O)(=O)c3ccc4cnccc4c3)c2)CC1 (3D coordinates assigned)
CS(=O)(=O)N1CCN(C(=O)c2ccc([O-])c(NS(=O)(=O)c3ccc4cnccc4c3)c2)CC1 (nonaromatic ring conformer: 72.87610934996286 kcal/mol)

>  <smiles>  (36) 
CS(=O)(=O)N1CCN(C(=O)c2ccc(O)c(NS(=O)(=O)c3ccc4cnccc4c3)c2)CC1

>  <score_type>  (36) 
oracle

>  <origin>  (36) 
adgpu

>  <m_score__min__energy>  (36) 
-13.43

>  <m_primary>  (36) 
energy

$$$$
36:0
     RDKit          3D

 42 44  0  0  0  0  0  0  0  0999 V2000
    2.5950   19.4070  -28.9210 N   0  0  0  0  0  0  0  0  0  0  0  0
    1.5530   19.5500  -28.4400 C   0  0  0  0  0  0  0  0  0  0  0  0
    0.2530   19.7280  -27.8400 C   0  0  0  0  0  0  0  0  0  0  0  0
   -0.5420   18.6030  -27.5810 C   0  0  0  0  0  0  0  0  0  0  0  0
   -1.8060   18.7530  -27.0040 C   0  0  0  0  0  0  0  0  0  0  0  0
   -2.2840   20.0270  -26.6920 C   0  0  0  0  0  0  0  0  0  0  0  0
   -1.4970   21.1530  -26.9460 C   0  0  0  0  0  0  0  0  0  0  0  0
   -0.2120   21.0130  -27.4980 C   0  0  0  0  0  0  0  0  0  0  0  0
    0.5940   22.1630  -27.7930 N   0  0  0  0  0  0  0  0  0  0  0  0
    0.1700   23.3610  -28.4600 C   0  0  0  0  0  0  0  0  0  0  0  0
    0.8080   24.4260  -28.2500 O   0  0  0  0  0  0  0  0  0  0  0  0
   -1.0700   23.4090  -29.3090 C   0  0  0  0  0  0  0  0  0  0  0  0
   -2.0360   24.9260  -28.9830 S   0  0  0  0  0  0  0  0  0  0  0  0
   -3.4010   24.4890  -30.0570 C   0  0  0  0  0  0  0  0  0  0  0  0
   -3.3560   23.3410  -30.7800 N   0  0  0  0  0  0  0  0  0  0  0  0
   -4.3780   22.9850  -31.6000 C   0  0  0  0  0  0  0  0  0  0  0  0
   -4.2950   21.9140  -32.2560 O   0  0  0  0  0  0  0  0  0  0  0  0
   -5.5130   23.8090  -31.7040 C   0  0  0  0  0  0  0  0  0  0  0  0
   -6.6600   23.4870  -32.6320 C   0  0  0  0  0  0  0  0  0  0  0  0
   -7.3420   22.2010  -32.2150 C   0  0  0  0  0  0  0  0  0  0  0  0
   -8.3800   22.2840  -31.2660 C   0  0  0  0  0  0  0  0  0  0  0  0
   -9.0830   21.1450  -30.8730 C   0  0  0  0  0  0  0  0  0  0  0  0
   -8.7670   19.9040  -31.4210 C   0  0  0  0  0  0  0  0  0  0  0  0
   -7.7400   19.7990  -32.3620 C   0  0  0  0  0  0  0  0  0  0  0  0
   -7.0200   20.9310  -32.7650 C   0  0  0  0  0  0  0  0  0  0  0  0
   -5.9980   20.7390  -33.6990 O   0  0  0  0  0  0  0  0  0  0  0  0
   -5.5330   24.9860  -30.9420 C   0  0  0  0  0  0  0  0  0  0  0  0
   -4.4860   25.3000  -30.1370 N   0  0  0  0  0  0  0  0  0  0  0  0
   -0.1698   17.5989  -27.8327 H   0  0  0  0  0  0  0  0  0  0  0  0
   -2.4242   17.8673  -26.7957 H   0  0  0  0  0  0  0  0  0  0  0  0
   -3.2823   20.1445  -26.2453 H   0  0  0  0  0  0  0  0  0  0  0  0
   -1.8854   22.1553  -26.7125 H   0  0  0  0  0  0  0  0  0  0  0  0
   -0.7795   23.3896  -30.3698 H   0  0  0  0  0  0  0  0  0  0  0  0
   -1.6951   22.5382  -29.0621 H   0  0  0  0  0  0  0  0  0  0  0  0
   -7.3903   24.3090  -32.6020 H   0  0  0  0  0  0  0  0  0  0  0  0
   -6.2657   23.3634  -33.6514 H   0  0  0  0  0  0  0  0  0  0  0  0
   -8.6395   23.2597  -30.8293 H   0  0  0  0  0  0  0  0  0  0  0  0
   -9.8887   21.2271  -30.1286 H   0  0  0  0  0  0  0  0  0  0  0  0
   -9.3255   19.0077  -31.1131 H   0  0  0  0  0  0  0  0  0  0  0  0
   -7.4939   18.8166  -32.7913 H   0  0  0  0  0  0  0  0  0  0  0  0
   -5.2920   21.4240  -33.9220 H   0  0  0  0  0  0  0  0  0  0  0  0
   -6.4018   25.6585  -30.9968 H   0  0  0  0  0  0  0  0  0  0  0  0
  1  2  3  0
  2  3  1  0
  3  4  2  0
  4  5  1  0
  5  6  2  0
  6  7  1  0
  7  8  2  0
  8  9  1  0
  9 10  1  0
 10 11  2  0
 10 12  1  0
 12 13  1  0
 13 14  1  0
 14 15  2  0
 15 16  1  0
 16 17  2  0
 16 18  1  0
 18 19  1  0
 19 20  1  0
 20 21  2  0
 21 22  1  0
 22 23  2  0
 23 24  1  0
 24 25  2  0
 25 26  1  0
 18 27  2  0
 27 28  1  0
  8  3  1  0
 28 14  1  0
 25 20  1  0
  4 29  1  0
  5 30  1  0
  6 31  1  0
  7 32  1  0
 12 33  1  0
 12 34  1  0
 19 35  1  0
 19 36  1  0
 21 37  1  0
 22 38  1  0
 23 39  1  0
 24 40  1  0
 26 41  1  0
 27 42  1  0
M  CHG  2   9  -1  28  -1
M  END
>  <UniqueID>  (37) 
36

>  <SMILES>  (37) 
N#Cc1ccccc1[N-]C(=O)CSc1nc(=O)c(Cc2ccccc2O)c[n-]1

>  <Energy>  (37) 
50.43300048585826

>  <Genealogy>  (37) 
N#Cc1ccccc1[N-]C(=O)CSc1nc(=O)c(Cc2ccccc2O)c[n-]1 (protonated)
N#Cc1ccccc1[N-]C(=O)CSc1nc(=O)c(Cc2ccccc2O)c[n-]1 (3D coordinates assigned)
N#Cc1ccccc1[N-]C(=O)CSc1nc(=O)c(Cc2ccccc2O)c[n-]1 (optimized conformer: 50.43300048585826 kcal/mol)

>  <smiles>  (37) 
N#Cc1ccccc1NC(=O)CSc1nc(=O)c(Cc2ccccc2O)c[nH]1

>  <score_type>  (37) 
oracle

>  <origin>  (37) 
adgpu

>  <m_score__min__energy>  (37) 
-10.73

>  <m_primary>  (37) 
energy

$$$$
37:0
     RDKit          3D

 48 50  0  0  0  0  0  0  0  0999 V2000
   -3.4260   19.4580  -27.3140 O   0  0  0  0  0  0  0  0  0  0  0  0
   -2.1900   20.2970  -27.4920 S   0  0  0  0  0  0  0  0  0  0  0  0
   -1.6610   20.6550  -26.1320 O   0  0  0  0  0  0  0  0  0  0  0  0
   -0.9820   19.3920  -28.3510 N   0  0  0  0  0  0  0  0  0  0  0  0
   -0.5550   20.1350  -29.5350 C   0  0  0  0  0  0  0  0  0  0  0  0
   -0.7080   19.2540  -30.7720 C   0  0  0  0  0  0  0  0  0  0  0  0
   -0.3750   20.0300  -32.0180 C   0  0  0  0  0  0  0  0  0  0  0  0
   -1.3610   20.8000  -32.6580 C   0  0  0  0  0  0  0  0  0  0  0  0
   -1.0410   21.5510  -33.7930 C   0  0  0  0  0  0  0  0  0  0  0  0
    0.2660   21.5470  -34.2910 C   0  0  0  0  0  0  0  0  0  0  0  0
    0.5830   22.2950  -35.4180 O   0  0  0  0  0  0  0  0  0  0  0  0
    1.2550   20.7940  -33.6500 C   0  0  0  0  0  0  0  0  0  0  0  0
    0.9380   20.0420  -32.5150 C   0  0  0  0  0  0  0  0  0  0  0  0
   -2.5900   21.7750  -28.3660 C   0  0  0  0  0  0  0  0  0  0  0  0
   -2.0440   22.9980  -27.9610 C   0  0  0  0  0  0  0  0  0  0  0  0
   -2.3440   24.1670  -28.6640 C   0  0  0  0  0  0  0  0  0  0  0  0
   -3.1830   24.1230  -29.7810 C   0  0  0  0  0  0  0  0  0  0  0  0
   -3.4680   25.3030  -30.4600 O   0  0  0  0  0  0  0  0  0  0  0  0
   -3.7300   22.8970  -30.2030 C   0  0  0  0  0  0  0  0  0  0  0  0
   -4.7910   22.7990  -31.6170 S   0  0  0  0  0  0  0  0  0  0  0  0
   -3.9750   22.3950  -32.8140 O   0  0  0  0  0  0  0  0  0  0  0  0
   -5.3800   24.1530  -31.9000 O   0  0  0  0  0  0  0  0  0  0  0  0
   -6.0810   21.6440  -31.3870 N   0  0  0  0  0  0  0  0  0  0  0  0
   -7.3890   22.3190  -31.4120 C   0  0  0  0  0  0  0  0  0  0  0  0
   -8.5350   21.2860  -31.4270 C   0  0  0  0  0  0  0  0  0  0  0  0
   -8.0520   19.9830  -31.1610 O   0  0  0  0  0  0  0  0  0  0  0  0
   -7.1670   19.5790  -32.1910 C   0  0  0  0  0  0  0  0  0  0  0  0
   -6.0300   20.5990  -32.4180 C   0  0  0  0  0  0  0  0  0  0  0  0
   -3.4270   21.7280  -29.4890 C   0  0  0  0  0  0  0  0  0  0  0  0
   -1.1771   21.0352  -29.6469 H   0  0  0  0  0  0  0  0  0  0  0  0
    0.4990   20.4289  -29.4227 H   0  0  0  0  0  0  0  0  0  0  0  0
   -0.0281   18.3932  -30.6894 H   0  0  0  0  0  0  0  0  0  0  0  0
   -1.7508   18.9097  -30.8361 H   0  0  0  0  0  0  0  0  0  0  0  0
   -2.3882   20.8119  -32.2646 H   0  0  0  0  0  0  0  0  0  0  0  0
   -1.8182   22.1459  -34.2951 H   0  0  0  0  0  0  0  0  0  0  0  0
    2.2837   20.7935  -34.0395 H   0  0  0  0  0  0  0  0  0  0  0  0
    1.7205   19.4573  -32.0092 H   0  0  0  0  0  0  0  0  0  0  0  0
   -1.3771   23.0389  -27.0872 H   0  0  0  0  0  0  0  0  0  0  0  0
   -1.9179   25.1270  -28.3370 H   0  0  0  0  0  0  0  0  0  0  0  0
   -7.4856   22.9527  -30.5180 H   0  0  0  0  0  0  0  0  0  0  0  0
   -7.4534   22.9322  -32.3229 H   0  0  0  0  0  0  0  0  0  0  0  0
   -9.2740   21.5586  -30.6591 H   0  0  0  0  0  0  0  0  0  0  0  0
   -8.9949   21.2901  -32.4262 H   0  0  0  0  0  0  0  0  0  0  0  0
   -6.7240   18.6101  -31.9173 H   0  0  0  0  0  0  0  0  0  0  0  0
   -7.7458   19.5061  -33.1236 H   0  0  0  0  0  0  0  0  0  0  0  0
   -5.0605   20.0819  -32.3653 H   0  0  0  0  0  0  0  0  0  0  0  0
   -6.1518   21.0619  -33.4084 H   0  0  0  0  0  0  0  0  0  0  0  0
   -3.8502   20.7659  -29.8135 H   0  0  0  0  0  0  0  0  0  0  0  0
  1  2  2  0
  2  3  2  0
  2  4  1  0
  4  5  1  0
  5  6  1  0
  6  7  1  0
  7  8  2  0
  8  9  1  0
  9 10  2  0
 10 11  1  0
 10 12  1  0
 12 13  2  0
  2 14  1  0
 14 15  2  0
 15 16  1  0
 16 17  2  0
 17 18  1  0
 17 19  1  0
 19 20  1  0
 20 21  2  0
 20 22  2  0
 20 23  1  0
 23 24  1  0
 24 25  1  0
 25 26  1  0
 26 27  1  0
 27 28  1  0
 19 29  2  0
 13  7  1  0
 29 14  1  0
 28 23  1  0
  5 30  1  0
  5 31  1  0
  6 32  1  0
  6 33  1  0
  8 34  1  0
  9 35  1  0
 12 36  1  0
 13 37  1  0
 15 38  1  0
 16 39  1  0
 24 40  1  0
 24 41  1  0
 25 42  1  0
 25 43  1  0
 27 44  1  0
 27 45  1  0
 28 46  1  0
 28 47  1  0
 29 48  1  0
M  CHG  3   4  -1  11  -1  18  -1
M  END
>  <UniqueID>  (38) 
37

>  <SMILES>  (38) 
O=S(=O)([N-]CCc1ccc([O-])cc1)c1ccc([O-])c(S(=O)(=O)N2CCOCC2)c1

>  <Energy>  (38) 
52.38418257159643

>  <Genealogy>  (38) 
O=S(=O)([N-]CCc1ccc([O-])cc1)c1ccc([O-])c(S(=O)(=O)N2CCOCC2)c1 (protonated)
O=S(=O)([N-]CCc1ccc([O-])cc1)c1ccc([O-])c(S(=O)(=O)N2CCOCC2)c1 (3D coordinates assigned)
O=S(=O)([N-]CCc1ccc([O-])cc1)c1ccc([O-])c(S(=O)(=O)N2CCOCC2)c1 (nonaromatic ring conformer: 52.38418257159643 kcal/mol)

>  <smiles>  (38) 
O=S(=O)(NCCc1ccc(O)cc1)c1ccc(O)c(S(=O)(=O)N2CCOCC2)c1

>  <score_type>  (38) 
oracle

>  <origin>  (38) 
adgpu

>  <m_score__min__energy>  (38) 
-12.01

>  <m_primary>  (38) 
energy

$$$$
38:0
     RDKit          3D

 47 50  0  0  0  0  0  0  0  0999 V2000
   -4.5680   21.7590  -33.4660 O   0  0  0  0  0  0  0  0  0  0  0  0
   -5.2820   22.2780  -32.5670 C   0  0  0  0  0  0  0  0  0  0  0  0
   -4.8030   23.3400  -31.8680 N   0  0  0  0  0  0  0  0  0  0  0  0
   -5.5400   23.9380  -30.8940 C   0  0  0  0  0  0  0  0  0  0  0  0
   -4.9800   25.1050  -30.1440 C   0  0  0  0  0  0  0  0  0  0  0  0
   -3.5630   25.2750  -30.4600 N   0  0  0  0  0  0  0  0  0  0  0  0
   -2.5360   24.6170  -29.2160 S   0  0  0  0  0  0  0  0  0  0  0  0
   -1.2060   25.3120  -29.2980 O   0  0  0  0  0  0  0  0  0  0  0  0
   -3.1140   24.9220  -27.8640 O   0  0  0  0  0  0  0  0  0  0  0  0
   -2.2600   22.8780  -29.4530 C   0  0  0  0  0  0  0  0  0  0  0  0
   -2.1240   22.4300  -30.7770 C   0  0  0  0  0  0  0  0  0  0  0  0
   -1.8690   21.0850  -31.0620 C   0  0  0  0  0  0  0  0  0  0  0  0
   -1.6740   20.5630  -32.7320 S   0  0  0  0  0  0  0  0  0  0  0  0
   -0.3000   19.9830  -32.9270 O   0  0  0  0  0  0  0  0  0  0  0  0
   -1.8110   21.7470  -33.6490 O   0  0  0  0  0  0  0  0  0  0  0  0
   -2.8960   19.3640  -33.1350 C   0  0  0  0  0  0  0  0  0  0  0  0
   -2.7500   18.5480  -34.2670 C   0  0  0  0  0  0  0  0  0  0  0  0
   -3.7510   17.6320  -34.6060 C   0  0  0  0  0  0  0  0  0  0  0  0
   -4.8950   17.5180  -33.8120 C   0  0  0  0  0  0  0  0  0  0  0  0
   -5.0350   18.3150  -32.6720 C   0  0  0  0  0  0  0  0  0  0  0  0
   -4.0380   19.2350  -32.3330 C   0  0  0  0  0  0  0  0  0  0  0  0
   -1.7580   20.1660  -30.0160 C   0  0  0  0  0  0  0  0  0  0  0  0
   -1.8970   20.5910  -28.6950 C   0  0  0  0  0  0  0  0  0  0  0  0
   -2.1630   21.9330  -28.3960 C   0  0  0  0  0  0  0  0  0  0  0  0
   -2.3430   22.2590  -27.0510 O   0  0  0  0  0  0  0  0  0  0  0  0
   -6.7810   23.4690  -30.5990 N   0  0  0  0  0  0  0  0  0  0  0  0
   -7.3040   22.4030  -31.2560 C   0  0  0  0  0  0  0  0  0  0  0  0
   -8.5770   21.9280  -30.9210 C   0  0  0  0  0  0  0  0  0  0  0  0
   -9.1130   20.8290  -31.5980 C   0  0  0  0  0  0  0  0  0  0  0  0
   -8.3880   20.2120  -32.6220 C   0  0  0  0  0  0  0  0  0  0  0  0
   -7.1180   20.6840  -32.9680 C   0  0  0  0  0  0  0  0  0  0  0  0
   -6.5620   21.7740  -32.2780 C   0  0  0  0  0  0  0  0  0  0  0  0
   -5.5274   26.0159  -30.4278 H   0  0  0  0  0  0  0  0  0  0  0  0
   -5.0878   24.9232  -29.0645 H   0  0  0  0  0  0  0  0  0  0  0  0
   -2.2197   23.1492  -31.6038 H   0  0  0  0  0  0  0  0  0  0  0  0
   -1.8464   18.6289  -34.8891 H   0  0  0  0  0  0  0  0  0  0  0  0
   -3.6375   17.0002  -35.4993 H   0  0  0  0  0  0  0  0  0  0  0  0
   -5.6846   16.8019  -34.0836 H   0  0  0  0  0  0  0  0  0  0  0  0
   -5.9307   18.2183  -32.0408 H   0  0  0  0  0  0  0  0  0  0  0  0
   -4.1504   19.8592  -31.4343 H   0  0  0  0  0  0  0  0  0  0  0  0
   -1.5608   19.1061  -30.2344 H   0  0  0  0  0  0  0  0  0  0  0  0
   -1.7964   19.8624  -27.8771 H   0  0  0  0  0  0  0  0  0  0  0  0
   -2.6890   23.1450  -26.7200 H   0  0  0  0  0  0  0  0  0  0  0  0
   -9.1557   22.4195  -30.1250 H   0  0  0  0  0  0  0  0  0  0  0  0
  -10.1081   20.4484  -31.3244 H   0  0  0  0  0  0  0  0  0  0  0  0
   -8.8180   19.3525  -33.1572 H   0  0  0  0  0  0  0  0  0  0  0  0
   -6.5544   20.2018  -33.7804 H   0  0  0  0  0  0  0  0  0  0  0  0
  1  2  2  0
  2  3  1  0
  3  4  1  0
  4  5  1  0
  5  6  1  0
  6  7  1  0
  7  8  2  0
  7  9  2  0
  7 10  1  0
 10 11  2  0
 11 12  1  0
 12 13  1  0
 13 14  2  0
 13 15  2  0
 13 16  1  0
 16 17  2  0
 17 18  1  0
 18 19  2  0
 19 20  1  0
 20 21  2  0
 12 22  2  0
 22 23  1  0
 23 24  2  0
 24 25  1  0
  4 26  2  0
 26 27  1  0
 27 28  2  0
 28 29  1  0
 29 30  2  0
 30 31  1  0
 31 32  2  0
 32  2  1  0
 24 10  1  0
 32 27  1  0
 21 16  1  0
  5 33  1  0
  5 34  1  0
 11 35  1  0
 17 36  1  0
 18 37  1  0
 19 38  1  0
 20 39  1  0
 21 40  1  0
 22 41  1  0
 23 42  1  0
 25 43  1  0
 28 44  1  0
 29 45  1  0
 30 46  1  0
 31 47  1  0
M  CHG  2   3  -1   6  -1
M  END
>  <UniqueID>  (39) 
38

>  <SMILES>  (39) 
O=c1[n-]c(C[N-]S(=O)(=O)c2cc(S(=O)(=O)c3ccccc3)ccc2O)nc2ccccc12

>  <Energy>  (39) 
53.67531110631643

>  <Genealogy>  (39) 
O=c1[n-]c(C[N-]S(=O)(=O)c2cc(S(=O)(=O)c3ccccc3)ccc2O)nc2ccccc12 (protonated)
O=c1[n-]c(C[N-]S(=O)(=O)c2cc(S(=O)(=O)c3ccccc3)ccc2O)nc2ccccc12 (3D coordinates assigned)
O=c1[n-]c(C[N-]S(=O)(=O)c2cc(S(=O)(=O)c3ccccc3)ccc2O)nc2ccccc12 (optimized conformer: 53.67531110631643 kcal/mol)

>  <smiles>  (39) 
O=c1[nH]c(CNS(=O)(=O)c2cc(S(=O)(=O)c3ccccc3)ccc2O)nc2ccccc12

>  <score_type>  (39) 
oracle

>  <origin>  (39) 
adgpu

>  <m_score__min__energy>  (39) 
-11.23

>  <m_primary>  (39) 
energy

$$$$
39:0
     RDKit          3D

 68 72  0  0  0  0  0  0  0  0999 V2000
   -1.3990   21.2540  -25.7970 O   0  0  0  0  0  0  0  0  0  0  0  0
   -1.2980   21.4460  -27.0400 C   0  0  0  0  0  0  0  0  0  0  0  0
   -1.2850   22.8320  -27.5610 C   0  0  0  0  0  0  0  0  0  0  0  0
   -0.3380   23.7560  -27.0880 C   0  0  0  0  0  0  0  0  0  0  0  0
   -0.3290   25.0660  -27.5700 C   0  0  0  0  0  0  0  0  0  0  0  0
   -1.2750   25.4790  -28.5120 C   0  0  0  0  0  0  0  0  0  0  0  0
   -1.2520   26.7920  -28.9690 O   0  0  0  0  0  0  0  0  0  0  0  0
   -2.2470   24.5770  -28.9790 C   0  0  0  0  0  0  0  0  0  0  0  0
   -3.2300   25.0170  -29.9300 N   0  0  0  0  0  0  0  0  0  0  0  0
   -4.9380   24.8530  -29.6670 S   0  0  0  0  0  0  0  0  0  0  0  0
   -5.6590   26.1050  -30.0830 O   0  0  0  0  0  0  0  0  0  0  0  0
   -5.1890   24.5910  -28.2080 O   0  0  0  0  0  0  0  0  0  0  0  0
   -5.5390   23.5230  -30.6500 C   0  0  0  0  0  0  0  0  0  0  0  0
   -4.7590   22.3780  -30.8650 C   0  0  0  0  0  0  0  0  0  0  0  0
   -5.2770   21.3010  -31.5910 C   0  0  0  0  0  0  0  0  0  0  0  0
   -6.5800   21.3570  -32.1050 C   0  0  0  0  0  0  0  0  0  0  0  0
   -7.2710   19.9610  -32.9320 S   0  0  0  0  0  0  0  0  0  0  0  0
   -8.7600   20.1350  -33.0330 O   0  0  0  0  0  0  0  0  0  0  0  0
   -6.7170   19.8820  -34.3270 O   0  0  0  0  0  0  0  0  0  0  0  0
   -6.9220   18.4680  -32.0880 N   0  0  0  0  0  0  0  0  0  0  0  0
   -7.5760   17.3270  -32.7370 C   0  0  0  0  0  0  0  0  0  0  0  0
   -6.5560   16.6490  -33.6360 C   0  0  0  0  0  0  0  0  0  0  0  0
   -5.2040   17.0830  -33.1080 C   0  0  0  0  0  0  0  0  0  0  0  0
   -5.4820   18.1810  -32.0870 C   0  0  0  0  0  0  0  0  0  0  0  0
   -7.3470   22.5150  -31.9130 C   0  0  0  0  0  0  0  0  0  0  0  0
   -6.8320   23.5890  -31.1820 C   0  0  0  0  0  0  0  0  0  0  0  0
   -2.2330   23.2500  -28.5130 C   0  0  0  0  0  0  0  0  0  0  0  0
   -1.2070   20.3160  -27.9260 N   0  0  0  0  0  0  0  0  0  0  0  0
   -1.8980   19.0650  -27.5950 C   0  0  0  0  0  0  0  0  0  0  0  0
   -0.8900   18.0580  -27.0370 C   0  0  0  0  0  0  0  0  0  0  0  0
    0.2890   17.9800  -27.9130 N   0  0  0  0  0  0  0  0  0  0  0  0
    0.9700   16.7250  -28.1070 C   0  0  0  0  0  0  0  0  0  0  0  0
    1.6550   16.4580  -29.3050 C   0  0  0  0  0  0  0  0  0  0  0  0
    2.3230   15.2420  -29.4820 C   0  0  0  0  0  0  0  0  0  0  0  0
    2.3170   14.2840  -28.4640 C   0  0  0  0  0  0  0  0  0  0  0  0
    1.6390   14.5400  -27.2700 C   0  0  0  0  0  0  0  0  0  0  0  0
    0.9710   15.7560  -27.0880 C   0  0  0  0  0  0  0  0  0  0  0  0
    0.9450   19.2360  -28.3110 C   0  0  0  0  0  0  0  0  0  0  0  0
   -0.0930   20.2130  -28.8710 C   0  0  0  0  0  0  0  0  0  0  0  0
    0.4002   23.4454  -26.3339 H   0  0  0  0  0  0  0  0  0  0  0  0
    0.4271   25.7773  -27.2062 H   0  0  0  0  0  0  0  0  0  0  0  0
   -2.9350   25.6220  -30.7280 H   0  0  0  0  0  0  0  0  0  0  0  0
   -3.7369   22.3267  -30.4616 H   0  0  0  0  0  0  0  0  0  0  0  0
   -4.6596   20.4063  -31.7594 H   0  0  0  0  0  0  0  0  0  0  0  0
   -7.9316   16.6178  -31.9750 H   0  0  0  0  0  0  0  0  0  0  0  0
   -8.4392   17.6672  -33.3279 H   0  0  0  0  0  0  0  0  0  0  0  0
   -6.6588   15.5553  -33.5784 H   0  0  0  0  0  0  0  0  0  0  0  0
   -6.6917   16.9271  -34.6916 H   0  0  0  0  0  0  0  0  0  0  0  0
   -4.6917   16.2361  -32.6281 H   0  0  0  0  0  0  0  0  0  0  0  0
   -4.5526   17.4428  -33.9181 H   0  0  0  0  0  0  0  0  0  0  0  0
   -5.1720   17.8441  -31.0868 H   0  0  0  0  0  0  0  0  0  0  0  0
   -4.9178   19.0885  -32.3481 H   0  0  0  0  0  0  0  0  0  0  0  0
   -8.3589   22.5784  -32.3398 H   0  0  0  0  0  0  0  0  0  0  0  0
   -7.4446   24.4889  -31.0242 H   0  0  0  0  0  0  0  0  0  0  0  0
   -2.9715   22.5309  -28.8971 H   0  0  0  0  0  0  0  0  0  0  0  0
   -2.6741   19.2631  -26.8411 H   0  0  0  0  0  0  0  0  0  0  0  0
   -2.3646   18.6527  -28.5018 H   0  0  0  0  0  0  0  0  0  0  0  0
   -0.5756   18.3774  -26.0324 H   0  0  0  0  0  0  0  0  0  0  0  0
   -1.3644   17.0669  -26.9850 H   0  0  0  0  0  0  0  0  0  0  0  0
    1.6658   17.2097  -30.1080 H   0  0  0  0  0  0  0  0  0  0  0  0
    2.8539   15.0392  -30.4238 H   0  0  0  0  0  0  0  0  0  0  0  0
    2.8457   13.3295  -28.6031 H   0  0  0  0  0  0  0  0  0  0  0  0
    1.6301   13.7840  -26.4710 H   0  0  0  0  0  0  0  0  0  0  0  0
    0.4441   15.9549  -26.1431 H   0  0  0  0  0  0  0  0  0  0  0  0
    1.4333   19.6860  -27.4340 H   0  0  0  0  0  0  0  0  0  0  0  0
    1.6955   19.0221  -29.0863 H   0  0  0  0  0  0  0  0  0  0  0  0
    0.3676   21.2025  -29.0079 H   0  0  0  0  0  0  0  0  0  0  0  0
   -0.4607   19.8495  -29.8419 H   0  0  0  0  0  0  0  0  0  0  0  0
  1  2  2  0
  2  3  1  0
  3  4  2  0
  4  5  1  0
  5  6  2  0
  6  7  1  0
  6  8  1  0
  8  9  1  0
  9 10  1  0
 10 11  2  0
 10 12  2  0
 10 13  1  0
 13 14  2  0
 14 15  1  0
 15 16  2  0
 16 17  1  0
 17 18  2  0
 17 19  2  0
 17 20  1  0
 20 21  1  0
 21 22  1  0
 22 23  1  0
 23 24  1  0
 16 25  1  0
 25 26  2  0
  8 27  2  0
  2 28  1  0
 28 29  1  0
 29 30  1  0
 30 31  1  0
 31 32  1  0
 32 33  2  0
 33 34  1  0
 34 35  2  0
 35 36  1  0
 36 37  2  0
 31 38  1  0
 38 39  1  0
 27  3  1  0
 39 28  1  0
 26 13  1  0
 37 32  1  0
 24 20  1  0
  4 40  1  0
  5 41  1  0
  9 42  1  0
 14 43  1  0
 15 44  1  0
 21 45  1  0
 21 46  1  0
 22 47  1  0
 22 48  1  0
 23 49  1  0
 23 50  1  0
 24 51  1  0
 24 52  1  0
 25 53  1  0
 26 54  1  0
 27 55  1  0
 29 56  1  0
 29 57  1  0
 30 58  1  0
 30 59  1  0
 33 60  1  0
 34 61  1  0
 35 62  1  0
 36 63  1  0
 37 64  1  0
 38 65  1  0
 38 66  1  0
 39 67  1  0
 39 68  1  0
M  CHG  1   7  -1
M  END
>  <UniqueID>  (40) 
39

>  <SMILES>  (40) 
O=C(c1ccc([O-])c(NS(=O)(=O)c2ccc(S(=O)(=O)N3CCCC3)cc2)c1)N1CCN(c2ccccc2)CC1

>  <Energy>  (40) 
86.21232073932113

>  <Genealogy>  (40) 
O=C(c1ccc([O-])c(NS(=O)(=O)c2ccc(S(=O)(=O)N3CCCC3)cc2)c1)N1CCN(c2ccccc2)CC1 (protonated)
O=C(c1ccc([O-])c(NS(=O)(=O)c2ccc(S(=O)(=O)N3CCCC3)cc2)c1)N1CCN(c2ccccc2)CC1 (3D coordinates assigned)
O=C(c1ccc([O-])c(NS(=O)(=O)c2ccc(S(=O)(=O)N3CCCC3)cc2)c1)N1CCN(c2ccccc2)CC1 (nonaromatic ring conformer: 86.21232073932113 kcal/mol)

>  <smiles>  (40) 
O=C(c1ccc(O)c(NS(=O)(=O)c2ccc(S(=O)(=O)N3CCCC3)cc2)c1)N1CCN(c2ccccc2)CC1

>  <score_type>  (40) 
oracle

>  <origin>  (40) 
adgpu

>  <m_score__min__energy>  (40) 
-14.32

>  <m_primary>  (40) 
energy

$$$$
40:0
     RDKit          3D

 65 69  0  0  0  0  0  0  0  0999 V2000
    1.3560   17.5060  -28.3140 C   0  0  0  0  0  0  0  0  0  0  0  0
    1.6180   19.0520  -29.1710 S   0  0  0  0  0  0  0  0  0  0  0  0
    2.8470   18.9270  -30.0290 O   0  0  0  0  0  0  0  0  0  0  0  0
    1.8470   20.1380  -28.1590 O   0  0  0  0  0  0  0  0  0  0  0  0
    0.2430   19.4710  -30.1700 N   0  0  0  0  0  0  0  0  0  0  0  0
    0.6580   20.4190  -31.2240 C   0  0  0  0  0  0  0  0  0  0  0  0
   -0.4820   20.6850  -32.2150 C   0  0  0  0  0  0  0  0  0  0  0  0
   -1.0280   19.4240  -32.7340 N   0  0  0  0  0  0  0  0  0  0  0  0
   -1.8820   19.4400  -33.8920 C   0  0  0  0  0  0  0  0  0  0  0  0
   -1.6220   20.2260  -34.8430 O   0  0  0  0  0  0  0  0  0  0  0  0
   -3.0550   18.5440  -33.9910 C   0  0  0  0  0  0  0  0  0  0  0  0
   -2.8790   17.1690  -34.2100 C   0  0  0  0  0  0  0  0  0  0  0  0
   -3.9860   16.3210  -34.3020 C   0  0  0  0  0  0  0  0  0  0  0  0
   -5.2780   16.8370  -34.1710 C   0  0  0  0  0  0  0  0  0  0  0  0
   -6.3710   15.9810  -34.2400 O   0  0  0  0  0  0  0  0  0  0  0  0
   -5.4660   18.2110  -33.9670 C   0  0  0  0  0  0  0  0  0  0  0  0
   -6.7800   18.7500  -33.8320 N   0  0  0  0  0  0  0  0  0  0  0  0
   -7.4850   18.9630  -32.2690 S   0  0  0  0  0  0  0  0  0  0  0  0
   -8.9710   18.7470  -32.3600 O   0  0  0  0  0  0  0  0  0  0  0  0
   -6.9120   17.9530  -31.3120 O   0  0  0  0  0  0  0  0  0  0  0  0
   -7.1640   20.5970  -31.7070 C   0  0  0  0  0  0  0  0  0  0  0  0
   -8.2430   21.4770  -31.4550 C   0  0  0  0  0  0  0  0  0  0  0  0
   -8.0060   22.8080  -31.0720 C   0  0  0  0  0  0  0  0  0  0  0  0
   -6.6850   23.2280  -30.9500 C   0  0  0  0  0  0  0  0  0  0  0  0
   -5.6210   22.3740  -31.1910 C   0  0  0  0  0  0  0  0  0  0  0  0
   -5.8360   21.0510  -31.5800 C   0  0  0  0  0  0  0  0  0  0  0  0
   -4.3600   23.0330  -31.0180 N   0  0  0  0  0  0  0  0  0  0  0  0
   -3.0300   22.5070  -31.3220 C   0  0  0  0  0  0  0  0  0  0  0  0
   -2.3560   22.0060  -30.0720 C   0  0  0  0  0  0  0  0  0  0  0  0
   -1.2810   22.7180  -29.5120 C   0  0  0  0  0  0  0  0  0  0  0  0
   -0.6860   22.2790  -28.3270 C   0  0  0  0  0  0  0  0  0  0  0  0
   -1.1680   21.1360  -27.6830 C   0  0  0  0  0  0  0  0  0  0  0  0
   -2.2400   20.4250  -28.2280 C   0  0  0  0  0  0  0  0  0  0  0  0
   -2.8330   20.8550  -29.4170 C   0  0  0  0  0  0  0  0  0  0  0  0
   -4.6930   24.3810  -30.6740 C   0  0  0  0  0  0  0  0  0  0  0  0
   -3.8490   25.2930  -30.4690 O   0  0  0  0  0  0  0  0  0  0  0  0
   -6.1400   24.5330  -30.6130 C   0  0  0  0  0  0  0  0  0  0  0  0
   -6.7820   25.5820  -30.3410 O   0  0  0  0  0  0  0  0  0  0  0  0
   -4.3570   19.0610  -33.8870 C   0  0  0  0  0  0  0  0  0  0  0  0
   -0.5300   18.1580  -32.1890 C   0  0  0  0  0  0  0  0  0  0  0  0
   -0.4560   18.2530  -30.6590 C   0  0  0  0  0  0  0  0  0  0  0  0
    1.3853   17.6792  -27.2281 H   0  0  0  0  0  0  0  0  0  0  0  0
    0.3752   17.0937  -28.5932 H   0  0  0  0  0  0  0  0  0  0  0  0
    2.1462   16.7935  -28.5932 H   0  0  0  0  0  0  0  0  0  0  0  0
    0.9540   21.3690  -30.7551 H   0  0  0  0  0  0  0  0  0  0  0  0
    1.5013   19.9776  -31.7754 H   0  0  0  0  0  0  0  0  0  0  0  0
   -1.2818   21.2407  -31.7037 H   0  0  0  0  0  0  0  0  0  0  0  0
   -0.0865   21.2709  -33.0578 H   0  0  0  0  0  0  0  0  0  0  0  0
   -1.8642   16.7565  -34.3098 H   0  0  0  0  0  0  0  0  0  0  0  0
   -3.8400   15.2450  -34.4779 H   0  0  0  0  0  0  0  0  0  0  0  0
   -9.2767   21.1159  -31.5599 H   0  0  0  0  0  0  0  0  0  0  0  0
   -8.8400   23.4975  -30.8745 H   0  0  0  0  0  0  0  0  0  0  0  0
   -4.9892   20.3788  -31.7826 H   0  0  0  0  0  0  0  0  0  0  0  0
   -3.1250   21.6774  -32.0380 H   0  0  0  0  0  0  0  0  0  0  0  0
   -2.4204   23.3153  -31.7522 H   0  0  0  0  0  0  0  0  0  0  0  0
   -0.9067   23.6250  -30.0093 H   0  0  0  0  0  0  0  0  0  0  0  0
    0.1628   22.8334  -27.9002 H   0  0  0  0  0  0  0  0  0  0  0  0
   -0.7028   20.7959  -26.7460 H   0  0  0  0  0  0  0  0  0  0  0  0
   -2.6175   19.5253  -27.7199 H   0  0  0  0  0  0  0  0  0  0  0  0
   -3.6763   20.2919  -29.8434 H   0  0  0  0  0  0  0  0  0  0  0  0
   -4.5059   20.1411  -33.7417 H   0  0  0  0  0  0  0  0  0  0  0  0
   -1.2120   17.3431  -32.4731 H   0  0  0  0  0  0  0  0  0  0  0  0
    0.4729   17.9546  -32.5925 H   0  0  0  0  0  0  0  0  0  0  0  0
   -1.4815   18.2575  -30.2611 H   0  0  0  0  0  0  0  0  0  0  0  0
    0.1250   17.3865  -30.3103 H   0  0  0  0  0  0  0  0  0  0  0  0
  1  2  1  0
  2  3  2  0
  2  4  2  0
  2  5  1  0
  5  6  1  0
  6  7  1  0
  7  8  1  0
  8  9  1  0
  9 10  2  0
  9 11  1  0
 11 12  2  0
 12 13  1  0
 13 14  2  0
 14 15  1  0
 14 16  1  0
 16 17  1  0
 17 18  1  0
 18 19  2  0
 18 20  2  0
 18 21  1  0
 21 22  2  0
 22 23  1  0
 23 24  2  0
 24 25  1  0
 25 26  2  0
 25 27  1  0
 27 28  1  0
 28 29  1  0
 29 30  2  0
 30 31  1  0
 31 32  2  0
 32 33  1  0
 33 34  2  0
 27 35  1  0
 35 36  2  0
 35 37  1  0
 37 38  2  0
 16 39  2  0
  8 40  1  0
 40 41  1  0
 41  5  1  0
 39 11  1  0
 26 21  1  0
 34 29  1  0
 37 24  1  0
  1 42  1  0
  1 43  1  0
  1 44  1  0
  6 45  1  0
  6 46  1  0
  7 47  1  0
  7 48  1  0
 12 49  1  0
 13 50  1  0
 22 51  1  0
 23 52  1  0
 26 53  1  0
 28 54  1  0
 28 55  1  0
 30 56  1  0
 31 57  1  0
 32 58  1  0
 33 59  1  0
 34 60  1  0
 39 61  1  0
 40 62  1  0
 40 63  1  0
 41 64  1  0
 41 65  1  0
M  CHG  2  15  -1  17  -1
M  END
>  <UniqueID>  (41) 
40

>  <SMILES>  (41) 
CS(=O)(=O)N1CCN(C(=O)c2ccc([O-])c([N-]S(=O)(=O)c3ccc4c(c3)N(Cc3ccccc3)C(=O)C4=O)c2)CC1

>  <Energy>  (41) 
112.37617364298984

>  <Genealogy>  (41) 
CS(=O)(=O)N1CCN(C(=O)c2ccc([O-])c([N-]S(=O)(=O)c3ccc4c(c3)N(Cc3ccccc3)C(=O)C4=O)c2)CC1 (protonated)
CS(=O)(=O)N1CCN(C(=O)c2ccc([O-])c([N-]S(=O)(=O)c3ccc4c(c3)N(Cc3ccccc3)C(=O)C4=O)c2)CC1 (3D coordinates assigned)
CS(=O)(=O)N1CCN(C(=O)c2ccc([O-])c([N-]S(=O)(=O)c3ccc4c(c3)N(Cc3ccccc3)C(=O)C4=O)c2)CC1 (nonaromatic ring conformer: 112.37617364298984 kcal/mol)

>  <smiles>  (41) 
CS(=O)(=O)N1CCN(C(=O)c2ccc(O)c(NS(=O)(=O)c3ccc4c(c3)N(Cc3ccccc3)C(=O)C4=O)c2)CC1

>  <score_type>  (41) 
oracle

>  <origin>  (41) 
adgpu

>  <m_score__min__energy>  (41) 
-15.890000000000001

>  <m_primary>  (41) 
energy

$$$$
41:0
     RDKit          3D

 54 57  0  0  0  0  0  0  0  0999 V2000
   -9.0910   19.8700  -30.8690 C   0  0  0  0  0  0  0  0  0  0  0  0
   -7.8590   20.6390  -31.2630 C   0  0  0  0  0  0  0  0  0  0  0  0
   -7.7660   22.0030  -30.9330 C   0  0  0  0  0  0  0  0  0  0  0  0
   -6.6230   22.7350  -31.2730 C   0  0  0  0  0  0  0  0  0  0  0  0
   -5.5690   22.1200  -31.9610 C   0  0  0  0  0  0  0  0  0  0  0  0
   -4.0790   23.0420  -32.3480 S   0  0  0  0  0  0  0  0  0  0  0  0
   -3.4020   22.8220  -30.6900 C   0  0  0  0  0  0  0  0  0  0  0  0
   -3.0230   21.5490  -30.2270 C   0  0  0  0  0  0  0  0  0  0  0  0
   -3.1240   20.1210  -31.2520 Cl  0  0  0  0  0  0  0  0  0  0  0  0
   -2.5290   21.4000  -28.9290 C   0  0  0  0  0  0  0  0  0  0  0  0
   -2.4100   22.5060  -28.0870 C   0  0  0  0  0  0  0  0  0  0  0  0
   -2.7830   23.7810  -28.5290 C   0  0  0  0  0  0  0  0  0  0  0  0
   -2.6230   24.9010  -27.6380 N   0  0  0  0  0  0  0  0  0  0  0  0
   -1.3640   25.5500  -27.3990 C   0  0  0  0  0  0  0  0  0  0  0  0
   -0.4720   25.5260  -28.2960 O   0  0  0  0  0  0  0  0  0  0  0  0
   -1.1050   26.2700  -26.1220 C   0  0  0  0  0  0  0  0  0  0  0  0
   -1.1150   25.5850  -24.8910 C   0  0  0  0  0  0  0  0  0  0  0  0
   -0.8300   26.2630  -23.7000 C   0  0  0  0  0  0  0  0  0  0  0  0
   -0.5220   27.6230  -23.7250 C   0  0  0  0  0  0  0  0  0  0  0  0
   -0.5010   28.3120  -24.9390 C   0  0  0  0  0  0  0  0  0  0  0  0
   -0.7910   27.6450  -26.1310 C   0  0  0  0  0  0  0  0  0  0  0  0
   -3.2490   23.9430  -29.8500 C   0  0  0  0  0  0  0  0  0  0  0  0
   -3.5320   25.2100  -30.3480 O   0  0  0  0  0  0  0  0  0  0  0  0
   -5.6780   20.7790  -32.3380 C   0  0  0  0  0  0  0  0  0  0  0  0
   -6.8110   20.0310  -31.9920 C   0  0  0  0  0  0  0  0  0  0  0  0
   -6.8590   18.6440  -32.3520 N   0  0  0  0  0  0  0  0  0  0  0  0
   -6.8330   17.6240  -31.3000 C   0  0  0  0  0  0  0  0  0  0  0  0
   -5.7440   16.5690  -31.5870 C   0  0  0  0  0  0  0  0  0  0  0  0
   -5.4040   16.4280  -33.0180 N   0  0  0  0  0  0  0  0  0  0  0  0
   -6.5250   16.7640  -33.9030 C   0  0  0  0  0  0  0  0  0  0  0  0
   -6.8410   18.2530  -33.7660 C   0  0  0  0  0  0  0  0  0  0  0  0
   -9.1608   19.8264  -29.7721 H   0  0  0  0  0  0  0  0  0  0  0  0
   -9.9819   20.3726  -31.2735 H   0  0  0  0  0  0  0  0  0  0  0  0
   -9.0308   18.8488  -31.2735 H   0  0  0  0  0  0  0  0  0  0  0  0
   -8.5954   22.4965  -30.4053 H   0  0  0  0  0  0  0  0  0  0  0  0
   -6.5518   23.7979  -30.9989 H   0  0  0  0  0  0  0  0  0  0  0  0
   -2.2319   20.4042  -28.5684 H   0  0  0  0  0  0  0  0  0  0  0  0
   -2.0197   22.3751  -27.0669 H   0  0  0  0  0  0  0  0  0  0  0  0
   -3.4870   25.3380  -27.2480 H   0  0  0  0  0  0  0  0  0  0  0  0
   -1.3483   24.5103  -24.8656 H   0  0  0  0  0  0  0  0  0  0  0  0
   -0.8490   25.7220  -22.7424 H   0  0  0  0  0  0  0  0  0  0  0  0
   -0.2956   28.1529  -22.7880 H   0  0  0  0  0  0  0  0  0  0  0  0
   -0.2552   29.3840  -24.9566 H   0  0  0  0  0  0  0  0  0  0  0  0
   -0.7745   28.1955  -27.0832 H   0  0  0  0  0  0  0  0  0  0  0  0
   -4.8670   20.3064  -32.9116 H   0  0  0  0  0  0  0  0  0  0  0  0
   -6.6218   18.1069  -30.3345 H   0  0  0  0  0  0  0  0  0  0  0  0
   -7.8114   17.1221  -31.2710 H   0  0  0  0  0  0  0  0  0  0  0  0
   -4.8327   16.8559  -31.0419 H   0  0  0  0  0  0  0  0  0  0  0  0
   -6.1470   15.5994  -31.2593 H   0  0  0  0  0  0  0  0  0  0  0  0
   -5.1360   15.4330  -33.1990 H   0  0  0  0  0  0  0  0  0  0  0  0
   -6.2520   16.5396  -34.9447 H   0  0  0  0  0  0  0  0  0  0  0  0
   -7.4082   16.1704  -33.6243 H   0  0  0  0  0  0  0  0  0  0  0  0
   -6.0724   18.8367  -34.2937 H   0  0  0  0  0  0  0  0  0  0  0  0
   -7.8311   18.4493  -34.2031 H   0  0  0  0  0  0  0  0  0  0  0  0
  1  2  1  0
  2  3  2  0
  3  4  1  0
  4  5  2  0
  5  6  1  0
  6  7  1  0
  7  8  2  0
  8  9  1  0
  8 10  1  0
 10 11  2  0
 11 12  1  0
 12 13  1  0
 13 14  1  0
 14 15  2  0
 14 16  1  0
 16 17  2  0
 17 18  1  0
 18 19  2  0
 19 20  1  0
 20 21  2  0
 12 22  2  0
 22 23  1  0
  5 24  1  0
 24 25  2  0
 25 26  1  0
 26 27  1  0
 27 28  1  0
 28 29  1  0
 29 30  1  0
 30 31  1  0
 25  2  1  0
 31 26  1  0
 22  7  1  0
 21 16  1  0
  1 32  1  0
  1 33  1  0
  1 34  1  0
  3 35  1  0
  4 36  1  0
 10 37  1  0
 11 38  1  0
 13 39  1  0
 17 40  1  0
 18 41  1  0
 19 42  1  0
 20 43  1  0
 21 44  1  0
 24 45  1  0
 27 46  1  0
 27 47  1  0
 28 48  1  0
 28 49  1  0
 29 50  1  0
 30 51  1  0
 30 52  1  0
 31 53  1  0
 31 54  1  0
M  CHG  1  23  -1
M  END
>  <UniqueID>  (42) 
41

>  <SMILES>  (42) 
Cc1ccc(Sc2c(Cl)ccc(NC(=O)c3ccccc3)c2[O-])cc1N1CCNCC1

>  <Energy>  (42) 
70.47099919417201

>  <Genealogy>  (42) 
Cc1ccc(Sc2c(Cl)ccc(NC(=O)c3ccccc3)c2[O-])cc1N1CCNCC1 (protonated)
Cc1ccc(Sc2c(Cl)ccc(NC(=O)c3ccccc3)c2[O-])cc1N1CCNCC1 (3D coordinates assigned)
Cc1ccc(Sc2c(Cl)ccc(NC(=O)c3ccccc3)c2[O-])cc1N1CCNCC1 (nonaromatic ring conformer: 70.47099919417201 kcal/mol)

>  <smiles>  (42) 
Cc1ccc(Sc2c(Cl)ccc(NC(=O)c3ccccc3)c2O)cc1N1CCNCC1

>  <score_type>  (42) 
oracle

>  <origin>  (42) 
adgpu

>  <m_score__min__energy>  (42) 
-12.06

>  <m_primary>  (42) 
energy

$$$$
42:0
     RDKit          3D

 64 67  0  0  0  0  0  0  0  0999 V2000
   -0.4470   22.3850  -23.6420 C   0  0  0  0  0  0  0  0  0  0  0  0
   -0.4650   23.8400  -24.0970 C   0  0  0  0  0  0  0  0  0  0  0  0
   -0.6240   23.9420  -25.6190 C   0  0  0  0  0  0  0  0  0  0  0  0
   -0.0330   22.7310  -26.3520 C   0  0  0  0  0  0  0  0  0  0  0  0
   -1.0260   22.0690  -27.2140 N   0  0  0  0  0  0  0  0  0  0  0  0
   -1.1190   20.6280  -27.2710 C   0  0  0  0  0  0  0  0  0  0  0  0
   -1.8770   20.0110  -26.4770 O   0  0  0  0  0  0  0  0  0  0  0  0
   -0.3460   19.8510  -28.2620 C   0  0  0  0  0  0  0  0  0  0  0  0
    0.8370   19.2190  -27.8480 C   0  0  0  0  0  0  0  0  0  0  0  0
    1.5360   18.3850  -28.7220 C   0  0  0  0  0  0  0  0  0  0  0  0
    1.0570   18.1690  -30.0140 C   0  0  0  0  0  0  0  0  0  0  0  0
   -0.1100   18.8010  -30.4420 C   0  0  0  0  0  0  0  0  0  0  0  0
   -0.8090   19.6630  -29.5840 C   0  0  0  0  0  0  0  0  0  0  0  0
   -2.3190   20.4480  -30.1790 S   0  0  0  0  0  0  0  0  0  0  0  0
   -1.7670   20.5370  -31.8940 C   0  0  0  0  0  0  0  0  0  0  0  0
   -0.6400   21.3080  -32.2140 C   0  0  0  0  0  0  0  0  0  0  0  0
   -0.1870   21.3870  -33.5330 C   0  0  0  0  0  0  0  0  0  0  0  0
   -0.8640   20.7090  -34.5460 C   0  0  0  0  0  0  0  0  0  0  0  0
   -2.0030   19.9580  -34.2450 C   0  0  0  0  0  0  0  0  0  0  0  0
   -2.4660   19.8750  -32.9250 C   0  0  0  0  0  0  0  0  0  0  0  0
   -3.6750   19.1360  -32.6560 C   0  0  0  0  0  0  0  0  0  0  0  0
   -4.6460   18.5450  -32.4430 N   0  0  0  0  0  0  0  0  0  0  0  0
   -1.7820   22.8700  -28.1420 C   0  0  0  0  0  0  0  0  0  0  0  0
   -3.1720   22.6870  -28.2850 C   0  0  0  0  0  0  0  0  0  0  0  0
   -3.8030   21.5900  -27.5970 N   0  0  0  0  0  0  0  0  0  0  0  0
   -3.9000   23.5580  -29.0740 N   0  0  0  0  0  0  0  0  0  0  0  0
   -5.3780   23.4970  -29.1100 C   0  0  0  0  0  0  0  0  0  0  0  0
   -5.8480   22.7870  -30.3570 C   0  0  0  0  0  0  0  0  0  0  0  0
   -7.2010   22.4400  -30.5040 C   0  0  0  0  0  0  0  0  0  0  0  0
   -7.6420   21.7810  -31.6540 C   0  0  0  0  0  0  0  0  0  0  0  0
   -6.7360   21.4650  -32.6700 C   0  0  0  0  0  0  0  0  0  0  0  0
   -5.3900   21.8120  -32.5370 C   0  0  0  0  0  0  0  0  0  0  0  0
   -4.9470   22.4780  -31.3910 C   0  0  0  0  0  0  0  0  0  0  0  0
   -3.2450   24.5500  -29.7660 C   0  0  0  0  0  0  0  0  0  0  0  0
   -3.8760   25.3480  -30.5120 O   0  0  0  0  0  0  0  0  0  0  0  0
   -1.9030   24.7010  -29.6500 N   0  0  0  0  0  0  0  0  0  0  0  0
   -1.1640   23.9000  -28.8520 C   0  0  0  0  0  0  0  0  0  0  0  0
    0.0740   24.1050  -28.7440 O   0  0  0  0  0  0  0  0  0  0  0  0
   -0.4465   22.3446  -22.5427 H   0  0  0  0  0  0  0  0  0  0  0  0
   -1.3388   21.8692  -24.0275 H   0  0  0  0  0  0  0  0  0  0  0  0
    0.4573   21.8914  -24.0275 H   0  0  0  0  0  0  0  0  0  0  0  0
   -1.3064   24.3572  -23.6127 H   0  0  0  0  0  0  0  0  0  0  0  0
    0.4905   24.3058  -23.8141 H   0  0  0  0  0  0  0  0  0  0  0  0
   -1.6954   24.0112  -25.8582 H   0  0  0  0  0  0  0  0  0  0  0  0
   -0.0773   24.8359  -25.9538 H   0  0  0  0  0  0  0  0  0  0  0  0
    0.8086   23.0688  -26.9746 H   0  0  0  0  0  0  0  0  0  0  0  0
    0.2980   22.0044  -25.5954 H   0  0  0  0  0  0  0  0  0  0  0  0
    1.2156   19.3821  -26.8282 H   0  0  0  0  0  0  0  0  0  0  0  0
    2.4652   17.8978  -28.3917 H   0  0  0  0  0  0  0  0  0  0  0  0
    1.6006   17.4991  -30.6964 H   0  0  0  0  0  0  0  0  0  0  0  0
   -0.4854   18.6222  -31.4604 H   0  0  0  0  0  0  0  0  0  0  0  0
   -0.1090   21.8544  -31.4206 H   0  0  0  0  0  0  0  0  0  0  0  0
    0.7048   21.9847  -33.7728 H   0  0  0  0  0  0  0  0  0  0  0  0
   -0.5011   20.7655  -35.5829 H   0  0  0  0  0  0  0  0  0  0  0  0
   -2.5386   19.4297  -35.0475 H   0  0  0  0  0  0  0  0  0  0  0  0
   -4.5870   21.7470  -26.9280 H   0  0  0  0  0  0  0  0  0  0  0  0
   -3.4640   20.6100  -27.6560 H   0  0  0  0  0  0  0  0  0  0  0  0
   -5.7394   22.9523  -28.2253 H   0  0  0  0  0  0  0  0  0  0  0  0
   -5.7763   24.5223  -29.1130 H   0  0  0  0  0  0  0  0  0  0  0  0
   -7.9183   22.6889  -29.7081 H   0  0  0  0  0  0  0  0  0  0  0  0
   -8.7030   21.5106  -31.7599 H   0  0  0  0  0  0  0  0  0  0  0  0
   -7.0830   20.9432  -33.5740 H   0  0  0  0  0  0  0  0  0  0  0  0
   -4.6769   21.5606  -33.3359 H   0  0  0  0  0  0  0  0  0  0  0  0
   -3.8883   22.7618  -31.2976 H   0  0  0  0  0  0  0  0  0  0  0  0
  1  2  1  0
  2  3  1  0
  3  4  1  0
  4  5  1  0
  5  6  1  0
  6  7  2  0
  6  8  1  0
  8  9  2  0
  9 10  1  0
 10 11  2  0
 11 12  1  0
 12 13  2  0
 13 14  1  0
 14 15  1  0
 15 16  2  0
 16 17  1  0
 17 18  2  0
 18 19  1  0
 19 20  2  0
 20 21  1  0
 21 22  3  0
  5 23  1  0
 23 24  2  0
 24 25  1  0
 24 26  1  0
 26 27  1  0
 27 28  1  0
 28 29  2  0
 29 30  1  0
 30 31  2  0
 31 32  1  0
 32 33  2  0
 26 34  1  0
 34 35  2  0
 34 36  1  0
 36 37  1  0
 37 38  2  0
 13  8  1  0
 20 15  1  0
 37 23  1  0
 33 28  1  0
  1 39  1  0
  1 40  1  0
  1 41  1  0
  2 42  1  0
  2 43  1  0
  3 44  1  0
  3 45  1  0
  4 46  1  0
  4 47  1  0
  9 48  1  0
 10 49  1  0
 11 50  1  0
 12 51  1  0
 16 52  1  0
 17 53  1  0
 18 54  1  0
 19 55  1  0
 25 56  1  0
 25 57  1  0
 27 58  1  0
 27 59  1  0
 29 60  1  0
 30 61  1  0
 31 62  1  0
 32 63  1  0
 33 64  1  0
M  CHG  1  36  -1
M  END
>  <UniqueID>  (43) 
42

>  <SMILES>  (43) 
CCCCN(C(=O)c1ccccc1Sc1ccccc1C#N)c1c(N)n(Cc2ccccc2)c(=O)[n-]c1=O

>  <Energy>  (43) 
74.58663916155224

>  <Genealogy>  (43) 
CCCCN(C(=O)c1ccccc1Sc1ccccc1C#N)c1c(N)n(Cc2ccccc2)c(=O)[n-]c1=O (protonated)
CCCCN(C(=O)c1ccccc1Sc1ccccc1C#N)c1c(N)n(Cc2ccccc2)c(=O)[n-]c1=O (3D coordinates assigned)
CCCCN(C(=O)c1ccccc1Sc1ccccc1C#N)c1c(N)n(Cc2ccccc2)c(=O)[n-]c1=O (optimized conformer: 74.58663916155224 kcal/mol)

>  <smiles>  (43) 
CCCCN(C(=O)c1ccccc1Sc1ccccc1C#N)c1c(N)n(Cc2ccccc2)c(=O)[nH]c1=O

>  <score_type>  (43) 
oracle

>  <origin>  (43) 
adgpu

>  <m_score__min__energy>  (43) 
-11.15

>  <m_primary>  (43) 
energy

$$$$
43:0
     RDKit          3D

 57 60  0  0  0  0  0  0  0  0999 V2000
   -1.6060   20.1680  -27.5920 N   0  0  0  0  0  0  0  0  0  0  0  0
   -0.9850   20.1720  -28.8860 C   0  0  0  0  0  0  0  0  0  0  0  0
    0.1260   19.3430  -29.1020 C   0  0  0  0  0  0  0  0  0  0  0  0
    0.8120   19.3700  -30.3160 C   0  0  0  0  0  0  0  0  0  0  0  0
    0.3900   20.2210  -31.3460 C   0  0  0  0  0  0  0  0  0  0  0  0
    1.0750   20.2910  -32.6020 N   0  0  0  0  0  0  0  0  0  0  0  0
    0.3270   20.4320  -34.1630 S   0  0  0  0  0  0  0  0  0  0  0  0
    1.1090   19.7140  -35.2260 O   0  0  0  0  0  0  0  0  0  0  0  0
    0.2660   21.8900  -34.5300 O   0  0  0  0  0  0  0  0  0  0  0  0
   -1.3010   19.7570  -34.0810 C   0  0  0  0  0  0  0  0  0  0  0  0
   -1.5160   18.3880  -34.3080 C   0  0  0  0  0  0  0  0  0  0  0  0
   -2.8080   17.8580  -34.2530 C   0  0  0  0  0  0  0  0  0  0  0  0
   -3.8960   18.6910  -33.9740 C   0  0  0  0  0  0  0  0  0  0  0  0
   -5.1490   18.1720  -33.9220 F   0  0  0  0  0  0  0  0  0  0  0  0
   -3.6910   20.0560  -33.7480 C   0  0  0  0  0  0  0  0  0  0  0  0
   -4.7470   20.8630  -33.4760 F   0  0  0  0  0  0  0  0  0  0  0  0
   -2.3970   20.5900  -33.7990 C   0  0  0  0  0  0  0  0  0  0  0  0
   -2.2150   21.9160  -33.5720 F   0  0  0  0  0  0  0  0  0  0  0  0
   -0.7080   21.0610  -31.1340 C   0  0  0  0  0  0  0  0  0  0  0  0
   -1.4210   21.0330  -29.9230 C   0  0  0  0  0  0  0  0  0  0  0  0
   -2.6330   21.8750  -29.7970 C   0  0  0  0  0  0  0  0  0  0  0  0
   -3.1680   22.0410  -28.6670 O   0  0  0  0  0  0  0  0  0  0  0  0
   -3.2080   22.4880  -30.9610 N   0  0  0  0  0  0  0  0  0  0  0  0
   -4.4890   23.1390  -30.9510 C   0  0  0  0  0  0  0  0  0  0  0  0
   -5.6480   22.3730  -31.1460 C   0  0  0  0  0  0  0  0  0  0  0  0
   -6.9110   22.9800  -31.1560 C   0  0  0  0  0  0  0  0  0  0  0  0
   -8.3580   22.0140  -31.4550 S   0  0  0  0  0  0  0  0  0  0  0  0
   -8.8380   21.4300  -30.1560 O   0  0  0  0  0  0  0  0  0  0  0  0
   -9.4440   22.9050  -31.9910 O   0  0  0  0  0  0  0  0  0  0  0  0
   -8.0590   20.7200  -32.5970 N   0  0  0  0  0  0  0  0  0  0  0  0
   -6.9980   19.8260  -32.1200 C   0  0  0  0  0  0  0  0  0  0  0  0
   -7.6490   18.6090  -31.4770 C   0  0  0  0  0  0  0  0  0  0  0  0
   -9.1030   18.6440  -31.9030 C   0  0  0  0  0  0  0  0  0  0  0  0
   -9.2510   19.8820  -32.7750 C   0  0  0  0  0  0  0  0  0  0  0  0
   -7.0160   24.3590  -30.9330 C   0  0  0  0  0  0  0  0  0  0  0  0
   -5.8700   25.1240  -30.7050 C   0  0  0  0  0  0  0  0  0  0  0  0
   -4.6080   24.5200  -30.7020 C   0  0  0  0  0  0  0  0  0  0  0  0
   -3.4860   25.2930  -30.4250 O   0  0  0  0  0  0  0  0  0  0  0  0
   -2.3840   20.8320  -27.3790 H   0  0  0  0  0  0  0  0  0  0  0  0
   -1.3910   19.4420  -26.8750 H   0  0  0  0  0  0  0  0  0  0  0  0
    0.4601   18.6634  -28.3041 H   0  0  0  0  0  0  0  0  0  0  0  0
    1.6874   18.7209  -30.4654 H   0  0  0  0  0  0  0  0  0  0  0  0
   -0.6633   17.7295  -34.5302 H   0  0  0  0  0  0  0  0  0  0  0  0
   -2.9693   16.7843  -34.4294 H   0  0  0  0  0  0  0  0  0  0  0  0
   -1.0189   21.7554  -31.9285 H   0  0  0  0  0  0  0  0  0  0  0  0
   -2.6020   22.6120  -31.8040 H   0  0  0  0  0  0  0  0  0  0  0  0
   -5.5646   21.2860  -31.2924 H   0  0  0  0  0  0  0  0  0  0  0  0
   -6.3712   19.5085  -32.9663 H   0  0  0  0  0  0  0  0  0  0  0  0
   -6.3648   20.3477  -31.3873 H   0  0  0  0  0  0  0  0  0  0  0  0
   -7.1682   17.6854  -31.8317 H   0  0  0  0  0  0  0  0  0  0  0  0
   -7.5478   18.6274  -30.3818 H   0  0  0  0  0  0  0  0  0  0  0  0
   -9.3559   17.7397  -32.4759 H   0  0  0  0  0  0  0  0  0  0  0  0
   -9.7780   18.6776  -31.0351 H   0  0  0  0  0  0  0  0  0  0  0  0
   -9.3416   19.5844  -33.8301 H   0  0  0  0  0  0  0  0  0  0  0  0
  -10.1528   20.4418  -32.4862 H   0  0  0  0  0  0  0  0  0  0  0  0
   -8.0047   24.8411  -30.9375 H   0  0  0  0  0  0  0  0  0  0  0  0
   -5.9600   26.2058  -30.5271 H   0  0  0  0  0  0  0  0  0  0  0  0
  1  2  1  0
  2  3  2  0
  3  4  1  0
  4  5  2  0
  5  6  1  0
  6  7  1  0
  7  8  2  0
  7  9  2  0
  7 10  1  0
 10 11  2  0
 11 12  1  0
 12 13  2  0
 13 14  1  0
 13 15  1  0
 15 16  1  0
 15 17  2  0
 17 18  1  0
  5 19  1  0
 19 20  2  0
 20 21  1  0
 21 22  2  0
 21 23  1  0
 23 24  1  0
 24 25  2  0
 25 26  1  0
 26 27  1  0
 27 28  2  0
 27 29  2  0
 27 30  1  0
 30 31  1  0
 31 32  1  0
 32 33  1  0
 33 34  1  0
 26 35  2  0
 35 36  1  0
 36 37  2  0
 37 38  1  0
 20  2  1  0
 37 24  1  0
 17 10  1  0
 34 30  1  0
  1 39  1  0
  1 40  1  0
  3 41  1  0
  4 42  1  0
 11 43  1  0
 12 44  1  0
 19 45  1  0
 23 46  1  0
 25 47  1  0
 31 48  1  0
 31 49  1  0
 32 50  1  0
 32 51  1  0
 33 52  1  0
 33 53  1  0
 34 54  1  0
 34 55  1  0
 35 56  1  0
 36 57  1  0
M  CHG  2   6  -1  38  -1
M  END
>  <UniqueID>  (44) 
43

>  <SMILES>  (44) 
Nc1ccc([N-]S(=O)(=O)c2ccc(F)c(F)c2F)cc1C(=O)Nc1cc(S(=O)(=O)N2CCCC2)ccc1[O-]

>  <Energy>  (44) 
79.47477135584506

>  <Genealogy>  (44) 
Nc1ccc([N-]S(=O)(=O)c2ccc(F)c(F)c2F)cc1C(=O)Nc1cc(S(=O)(=O)N2CCCC2)ccc1[O-] (protonated)
Nc1ccc([N-]S(=O)(=O)c2ccc(F)c(F)c2F)cc1C(=O)Nc1cc(S(=O)(=O)N2CCCC2)ccc1[O-] (3D coordinates assigned)
Nc1ccc([N-]S(=O)(=O)c2ccc(F)c(F)c2F)cc1C(=O)Nc1cc(S(=O)(=O)N2CCCC2)ccc1[O-] (nonaromatic ring conformer: 79.47477135584506 kcal/mol)

>  <smiles>  (44) 
Nc1ccc(NS(=O)(=O)c2ccc(F)c(F)c2F)cc1C(=O)Nc1cc(S(=O)(=O)N2CCCC2)ccc1O

>  <score_type>  (44) 
oracle

>  <origin>  (44) 
adgpu

>  <m_score__min__energy>  (44) 
-13.67

>  <m_primary>  (44) 
energy

$$$$
44:0
     RDKit          3D

 45 48  0  0  0  0  0  0  0  0999 V2000
   -1.9610   20.7830  -33.5980 C   0  0  0  0  0  0  0  0  0  0  0  0
   -2.9800   20.6960  -32.5030 C   0  0  0  0  0  0  0  0  0  0  0  0
   -2.6050   20.8300  -31.3070 O   0  0  0  0  0  0  0  0  0  0  0  0
   -4.3790   20.5530  -32.7990 N   0  0  0  0  0  0  0  0  0  0  0  0
   -4.7940   19.3050  -33.4590 C   0  0  0  0  0  0  0  0  0  0  0  0
   -6.1660   19.4590  -34.1180 C   0  0  0  0  0  0  0  0  0  0  0  0
   -7.0940   20.0180  -33.1950 O   0  0  0  0  0  0  0  0  0  0  0  0
   -6.7420   21.1080  -32.3960 C   0  0  0  0  0  0  0  0  0  0  0  0
   -7.7360   21.8810  -31.7820 C   0  0  0  0  0  0  0  0  0  0  0  0
   -9.4300   21.4610  -31.9650 Cl  0  0  0  0  0  0  0  0  0  0  0  0
   -7.3830   23.0150  -31.0450 C   0  0  0  0  0  0  0  0  0  0  0  0
   -6.0380   23.3870  -30.9280 C   0  0  0  0  0  0  0  0  0  0  0  0
   -5.5920   24.8510  -30.0570 S   0  0  0  0  0  0  0  0  0  0  0  0
   -4.6100   25.6670  -30.8540 O   0  0  0  0  0  0  0  0  0  0  0  0
   -6.8290   25.6690  -29.8180 O   0  0  0  0  0  0  0  0  0  0  0  0
   -4.8770   24.4350  -28.5320 N   0  0  0  0  0  0  0  0  0  0  0  0
   -3.7460   23.5560  -28.4000 C   0  0  0  0  0  0  0  0  0  0  0  0
   -2.4300   23.9720  -28.7240 C   0  0  0  0  0  0  0  0  0  0  0  0
   -1.3470   23.0870  -28.5970 C   0  0  0  0  0  0  0  0  0  0  0  0
   -1.6140   21.7990  -28.1430 C   0  0  0  0  0  0  0  0  0  0  0  0
   -0.7030   20.8210  -27.9570 N   0  0  0  0  0  0  0  0  0  0  0  0
   -1.4550   19.7840  -27.5160 C   0  0  0  0  0  0  0  0  0  0  0  0
   -0.8900   18.4630  -27.1110 C   0  0  0  0  0  0  0  0  0  0  0  0
   -2.7870   20.1500  -27.4240 C   0  0  0  0  0  0  0  0  0  0  0  0
   -2.8650   21.4240  -27.8300 N   0  0  0  0  0  0  0  0  0  0  0  0
   -3.9430   22.2420  -27.9320 C   0  0  0  0  0  0  0  0  0  0  0  0
   -5.0430   22.5980  -31.5160 C   0  0  0  0  0  0  0  0  0  0  0  0
   -5.3830   21.4280  -32.2230 C   0  0  0  0  0  0  0  0  0  0  0  0
   -0.9565   20.8688  -33.1581 H   0  0  0  0  0  0  0  0  0  0  0  0
   -2.0128   19.8772  -34.2199 H   0  0  0  0  0  0  0  0  0  0  0  0
   -2.1656   21.6669  -34.2199 H   0  0  0  0  0  0  0  0  0  0  0  0
   -4.0534   19.0425  -34.2288 H   0  0  0  0  0  0  0  0  0  0  0  0
   -4.8592   18.5131  -32.6984 H   0  0  0  0  0  0  0  0  0  0  0  0
   -6.0775   20.1222  -34.9911 H   0  0  0  0  0  0  0  0  0  0  0  0
   -6.5259   18.4687  -34.4340 H   0  0  0  0  0  0  0  0  0  0  0  0
   -8.1633   23.6165  -30.5559 H   0  0  0  0  0  0  0  0  0  0  0  0
   -5.3790   24.7470  -27.6710 H   0  0  0  0  0  0  0  0  0  0  0  0
   -2.2554   24.9986  -29.0785 H   0  0  0  0  0  0  0  0  0  0  0  0
   -0.3231   23.4011  -28.8477 H   0  0  0  0  0  0  0  0  0  0  0  0
   -0.8619   18.3972  -26.0133 H   0  0  0  0  0  0  0  0  0  0  0  0
   -1.5217   17.6560  -27.5106 H   0  0  0  0  0  0  0  0  0  0  0  0
    0.1299   18.3624  -27.5106 H   0  0  0  0  0  0  0  0  0  0  0  0
   -3.6198   19.5172  -27.0835 H   0  0  0  0  0  0  0  0  0  0  0  0
   -4.9470   21.8874  -27.6557 H   0  0  0  0  0  0  0  0  0  0  0  0
   -3.9874   22.8937  -31.4254 H   0  0  0  0  0  0  0  0  0  0  0  0
  1  2  1  0
  2  3  2  0
  2  4  1  0
  4  5  1  0
  5  6  1  0
  6  7  1  0
  7  8  1  0
  8  9  2  0
  9 10  1  0
  9 11  1  0
 11 12  2  0
 12 13  1  0
 13 14  2  0
 13 15  2  0
 13 16  1  0
 16 17  1  0
 17 18  1  0
 18 19  2  0
 19 20  1  0
 20 21  2  0
 21 22  1  0
 22 23  1  0
 22 24  2  0
 24 25  1  0
 25 26  1  0
 12 27  1  0
 27 28  2  0
 28  4  1  0
 28  8  1  0
 26 17  2  0
 25 20  1  0
  1 29  1  0
  1 30  1  0
  1 31  1  0
  5 32  1  0
  5 33  1  0
  6 34  1  0
  6 35  1  0
 11 36  1  0
 16 37  1  0
 18 38  1  0
 19 39  1  0
 23 40  1  0
 23 41  1  0
 23 42  1  0
 24 43  1  0
 26 44  1  0
 27 45  1  0
M  END
>  <UniqueID>  (45) 
44

>  <SMILES>  (45) 
CC(=O)N1CCOc2c(Cl)cc(S(=O)(=O)Nc3ccc4nc(C)cn4c3)cc21

>  <Energy>  (45) 
90.90693477861421

>  <Genealogy>  (45) 
CC(=O)N1CCOc2c(Cl)cc(S(=O)(=O)Nc3ccc4nc(C)cn4c3)cc21 (3D coordinates assigned)
CC(=O)N1CCOc2c(Cl)cc(S(=O)(=O)Nc3ccc4nc(C)cn4c3)cc21 (nonaromatic ring conformer: 90.90693477861421 kcal/mol)

>  <smiles>  (45) 
CC(=O)N1CCOc2c(Cl)cc(S(=O)(=O)Nc3ccc4nc(C)cn4c3)cc21

>  <score_type>  (45) 
oracle

>  <origin>  (45) 
adgpu

>  <m_score__min__energy>  (45) 
-9.8000000000000007

>  <m_primary>  (45) 
energy

$$$$
45:0
     RDKit          3D

 51 53  0  0  0  0  0  0  0  0999 V2000
   -1.5790   23.7110  -27.3700 C   0  0  0  0  0  0  0  0  0  0  0  0
   -1.0100   23.8190  -28.7440 C   0  0  0  0  0  0  0  0  0  0  0  0
   -0.9020   24.9530  -29.2830 O   0  0  0  0  0  0  0  0  0  0  0  0
   -0.4960   22.6460  -29.3870 N   0  0  0  0  0  0  0  0  0  0  0  0
   -1.0580   21.9790  -30.5270 C   0  0  0  0  0  0  0  0  0  0  0  0
   -2.4350   21.7190  -30.6370 C   0  0  0  0  0  0  0  0  0  0  0  0
   -2.9400   21.0680  -31.7660 C   0  0  0  0  0  0  0  0  0  0  0  0
   -2.0750   20.6450  -32.7800 C   0  0  0  0  0  0  0  0  0  0  0  0
   -2.7290   19.7610  -34.1980 S   0  0  0  0  0  0  0  0  0  0  0  0
   -3.6250   18.5060  -33.2130 C   0  0  0  0  0  0  0  0  0  0  0  0
   -4.8300   17.9810  -33.9450 C   0  0  0  0  0  0  0  0  0  0  0  0
   -4.6870   17.4580  -35.0820 O   0  0  0  0  0  0  0  0  0  0  0  0
   -6.1080   17.8770  -33.3040 N   0  0  0  0  0  0  0  0  0  0  0  0
   -6.8530   18.9320  -32.6850 C   0  0  0  0  0  0  0  0  0  0  0  0
   -8.1840   18.6940  -32.3250 C   0  0  0  0  0  0  0  0  0  0  0  0
   -8.9710   19.7240  -31.8070 C   0  0  0  0  0  0  0  0  0  0  0  0
   -8.4410   21.0080  -31.6680 C   0  0  0  0  0  0  0  0  0  0  0  0
   -7.1140   21.2680  -32.0360 C   0  0  0  0  0  0  0  0  0  0  0  0
   -6.4770   22.9090  -31.9180 S   0  0  0  0  0  0  0  0  0  0  0  0
   -5.1110   22.9490  -32.5420 O   0  0  0  0  0  0  0  0  0  0  0  0
   -7.3650   23.8280  -32.7090 O   0  0  0  0  0  0  0  0  0  0  0  0
   -6.3670   23.4810  -30.2660 N   0  0  0  0  0  0  0  0  0  0  0  0
   -6.6760   24.9170  -30.1490 C   0  0  0  0  0  0  0  0  0  0  0  0
   -5.4650   25.8270  -30.4670 C   0  0  0  0  0  0  0  0  0  0  0  0
   -4.2380   25.1280  -30.5450 O   0  0  0  0  0  0  0  0  0  0  0  0
   -4.1180   24.2510  -29.4510 C   0  0  0  0  0  0  0  0  0  0  0  0
   -5.1080   23.0860  -29.5980 C   0  0  0  0  0  0  0  0  0  0  0  0
   -6.3220   20.2270  -32.5500 C   0  0  0  0  0  0  0  0  0  0  0  0
   -0.7000   20.8690  -32.6600 C   0  0  0  0  0  0  0  0  0  0  0  0
   -0.1940   21.5340  -31.5370 C   0  0  0  0  0  0  0  0  0  0  0  0
   -0.7800   23.8627  -26.6293 H   0  0  0  0  0  0  0  0  0  0  0  0
   -2.3559   24.4777  -27.2335 H   0  0  0  0  0  0  0  0  0  0  0  0
   -2.0209   22.7129  -27.2335 H   0  0  0  0  0  0  0  0  0  0  0  0
   -3.1174   22.0289  -29.8318 H   0  0  0  0  0  0  0  0  0  0  0  0
   -4.0213   20.8878  -31.8572 H   0  0  0  0  0  0  0  0  0  0  0  0
   -2.9448   17.6684  -32.9992 H   0  0  0  0  0  0  0  0  0  0  0  0
   -3.9690   18.9816  -32.2827 H   0  0  0  0  0  0  0  0  0  0  0  0
   -8.6129   17.6889  -32.4510 H   0  0  0  0  0  0  0  0  0  0  0  0
  -10.0104   19.5236  -31.5079 H   0  0  0  0  0  0  0  0  0  0  0  0
   -9.0675   21.8189  -31.2680 H   0  0  0  0  0  0  0  0  0  0  0  0
   -7.4887   25.1584  -30.8498 H   0  0  0  0  0  0  0  0  0  0  0  0
   -6.9630   25.1065  -29.1041 H   0  0  0  0  0  0  0  0  0  0  0  0
   -5.6456   26.3218  -31.4327 H   0  0  0  0  0  0  0  0  0  0  0  0
   -5.3751   26.5462  -29.6395 H   0  0  0  0  0  0  0  0  0  0  0  0
   -3.0926   23.8546  -29.4131 H   0  0  0  0  0  0  0  0  0  0  0  0
   -4.3417   24.7990  -28.5238 H   0  0  0  0  0  0  0  0  0  0  0  0
   -4.6302   22.2922  -30.1909 H   0  0  0  0  0  0  0  0  0  0  0  0
   -5.3656   22.7421  -28.5854 H   0  0  0  0  0  0  0  0  0  0  0  0
   -5.2820   20.4262  -32.8480 H   0  0  0  0  0  0  0  0  0  0  0  0
   -0.0157   20.5225  -33.4484 H   0  0  0  0  0  0  0  0  0  0  0  0
    0.8883   21.7084  -31.4466 H   0  0  0  0  0  0  0  0  0  0  0  0
  1  2  1  0
  2  3  2  0
  2  4  1  0
  4  5  1  0
  5  6  2  0
  6  7  1  0
  7  8  2  0
  8  9  1  0
  9 10  1  0
 10 11  1  0
 11 12  2  0
 11 13  1  0
 13 14  1  0
 14 15  2  0
 15 16  1  0
 16 17  2  0
 17 18  1  0
 18 19  1  0
 19 20  2  0
 19 21  2  0
 19 22  1  0
 22 23  1  0
 23 24  1  0
 24 25  1  0
 25 26  1  0
 26 27  1  0
 18 28  2  0
  8 29  1  0
 29 30  2  0
 30  5  1  0
 28 14  1  0
 27 22  1  0
  1 31  1  0
  1 32  1  0
  1 33  1  0
  6 34  1  0
  7 35  1  0
 10 36  1  0
 10 37  1  0
 15 38  1  0
 16 39  1  0
 17 40  1  0
 23 41  1  0
 23 42  1  0
 24 43  1  0
 24 44  1  0
 26 45  1  0
 26 46  1  0
 27 47  1  0
 27 48  1  0
 28 49  1  0
 29 50  1  0
 30 51  1  0
M  CHG  2   4  -1  13  -1
M  END
>  <UniqueID>  (46) 
45

>  <SMILES>  (46) 
CC(=O)[N-]c1ccc(SCC(=O)[N-]c2cccc(S(=O)(=O)N3CCOCC3)c2)cc1

>  <Energy>  (46) 
62.13210757315696

>  <Genealogy>  (46) 
CC(=O)[N-]c1ccc(SCC(=O)[N-]c2cccc(S(=O)(=O)N3CCOCC3)c2)cc1 (protonated)
CC(=O)[N-]c1ccc(SCC(=O)[N-]c2cccc(S(=O)(=O)N3CCOCC3)c2)cc1 (3D coordinates assigned)
CC(=O)[N-]c1ccc(SCC(=O)[N-]c2cccc(S(=O)(=O)N3CCOCC3)c2)cc1 (nonaromatic ring conformer: 62.13210757315696 kcal/mol)

>  <smiles>  (46) 
CC(=O)Nc1ccc(SCC(=O)Nc2cccc(S(=O)(=O)N3CCOCC3)c2)cc1

>  <score_type>  (46) 
oracle

>  <origin>  (46) 
adgpu

>  <m_score__min__energy>  (46) 
-11

>  <m_primary>  (46) 
energy

$$$$
46:0
     RDKit          3D

 47 49  0  0  0  0  0  0  0  0999 V2000
   -6.5930   17.1300  -33.6420 C   0  0  0  0  0  0  0  0  0  0  0  0
   -6.0790   18.4270  -34.1950 C   0  0  0  0  0  0  0  0  0  0  0  0
   -5.7310   18.4600  -35.4070 O   0  0  0  0  0  0  0  0  0  0  0  0
   -5.9390   19.6420  -33.3410 C   0  0  0  0  0  0  0  0  0  0  0  0
   -4.7000   20.2930  -33.2440 C   0  0  0  0  0  0  0  0  0  0  0  0
   -4.5500   21.4280  -32.4520 C   0  0  0  0  0  0  0  0  0  0  0  0
   -5.6340   21.9580  -31.7380 C   0  0  0  0  0  0  0  0  0  0  0  0
   -5.3920   23.1720  -30.8610 C   0  0  0  0  0  0  0  0  0  0  0  0
   -4.1400   23.0130  -30.0280 C   0  0  0  0  0  0  0  0  0  0  0  0
   -3.8680   21.7750  -29.4280 C   0  0  0  0  0  0  0  0  0  0  0  0
   -2.7260   21.5940  -28.6480 C   0  0  0  0  0  0  0  0  0  0  0  0
   -2.5040   20.3500  -28.0570 O   0  0  0  0  0  0  0  0  0  0  0  0
   -1.8240   22.6530  -28.4690 C   0  0  0  0  0  0  0  0  0  0  0  0
   -0.6970   22.4620  -27.6740 O   0  0  0  0  0  0  0  0  0  0  0  0
   -2.0600   23.8980  -29.0880 C   0  0  0  0  0  0  0  0  0  0  0  0
   -1.0760   25.0400  -28.9300 C   0  0  0  0  0  0  0  0  0  0  0  0
   -0.9260   25.4380  -27.4790 C   0  0  0  0  0  0  0  0  0  0  0  0
   -2.0660   25.5560  -26.6630 C   0  0  0  0  0  0  0  0  0  0  0  0
   -1.9430   25.9420  -25.3260 C   0  0  0  0  0  0  0  0  0  0  0  0
   -0.6830   26.2090  -24.7880 C   0  0  0  0  0  0  0  0  0  0  0  0
    0.4570   26.0910  -25.5850 C   0  0  0  0  0  0  0  0  0  0  0  0
    0.3420   25.7060  -26.9250 C   0  0  0  0  0  0  0  0  0  0  0  0
    1.4940   25.5870  -27.6960 O   0  0  0  0  0  0  0  0  0  0  0  0
   -3.2240   24.0730  -29.8650 C   0  0  0  0  0  0  0  0  0  0  0  0
   -3.4710   25.3020  -30.4700 O   0  0  0  0  0  0  0  0  0  0  0  0
   -6.9000   21.3240  -31.8290 C   0  0  0  0  0  0  0  0  0  0  0  0
   -8.0860   21.8440  -31.0500 C   0  0  0  0  0  0  0  0  0  0  0  0
   -7.0380   20.1580  -32.6180 C   0  0  0  0  0  0  0  0  0  0  0  0
   -8.2660   19.5020  -32.6650 O   0  0  0  0  0  0  0  0  0  0  0  0
   -6.5778   17.1684  -32.5428 H   0  0  0  0  0  0  0  0  0  0  0  0
   -7.6239   16.9664  -33.9889 H   0  0  0  0  0  0  0  0  0  0  0  0
   -5.9540   16.3046  -33.9889 H   0  0  0  0  0  0  0  0  0  0  0  0
   -3.8360   19.9015  -33.8009 H   0  0  0  0  0  0  0  0  0  0  0  0
   -3.5665   21.9162  -32.3854 H   0  0  0  0  0  0  0  0  0  0  0  0
   -5.2849   24.0600  -31.5014 H   0  0  0  0  0  0  0  0  0  0  0  0
   -6.2484   23.2818  -30.1795 H   0  0  0  0  0  0  0  0  0  0  0  0
   -4.5642   20.9360  -29.5744 H   0  0  0  0  0  0  0  0  0  0  0  0
   -1.6950   20.1640  -27.4760 H   0  0  0  0  0  0  0  0  0  0  0  0
   -0.0962   24.7253  -29.3185 H   0  0  0  0  0  0  0  0  0  0  0  0
   -1.4564   25.9066  -29.4906 H   0  0  0  0  0  0  0  0  0  0  0  0
   -3.0611   25.3429  -27.0806 H   0  0  0  0  0  0  0  0  0  0  0  0
   -2.8402   26.0356  -24.6965 H   0  0  0  0  0  0  0  0  0  0  0  0
   -0.5883   26.5127  -23.7350 H   0  0  0  0  0  0  0  0  0  0  0  0
    1.4487   26.3014  -25.1581 H   0  0  0  0  0  0  0  0  0  0  0  0
   -7.8842   21.7555  -29.9723 H   0  0  0  0  0  0  0  0  0  0  0  0
   -8.2579   22.9001  -31.3053 H   0  0  0  0  0  0  0  0  0  0  0  0
   -8.9792   21.2549  -31.3053 H   0  0  0  0  0  0  0  0  0  0  0  0
  1  2  1  0
  2  3  2  0
  2  4  1  0
  4  5  2  0
  5  6  1  0
  6  7  2  0
  7  8  1  0
  8  9  1  0
  9 10  2  0
 10 11  1  0
 11 12  1  0
 11 13  2  0
 13 14  1  0
 13 15  1  0
 15 16  1  0
 16 17  1  0
 17 18  2  0
 18 19  1  0
 19 20  2  0
 20 21  1  0
 21 22  2  0
 22 23  1  0
 15 24  2  0
 24 25  1  0
  7 26  1  0
 26 27  1  0
 26 28  2  0
 28 29  1  0
 28  4  1  0
 24  9  1  0
 22 17  1  0
  1 30  1  0
  1 31  1  0
  1 32  1  0
  5 33  1  0
  6 34  1  0
  8 35  1  0
  8 36  1  0
 10 37  1  0
 12 38  1  0
 16 39  1  0
 16 40  1  0
 18 41  1  0
 19 42  1  0
 20 43  1  0
 21 44  1  0
 27 45  1  0
 27 46  1  0
 27 47  1  0
M  CHG  4  14  -1  23  -1  25  -1  29  -1
M  END
>  <UniqueID>  (47) 
46

>  <SMILES>  (47) 
CC(=O)c1ccc(Cc2cc(O)c([O-])c(Cc3ccccc3[O-])c2[O-])c(C)c1[O-]

>  <Energy>  (47) 
56.954001314644856

>  <Genealogy>  (47) 
CC(=O)c1ccc(Cc2cc(O)c([O-])c(Cc3ccccc3[O-])c2[O-])c(C)c1[O-] (protonated)
CC(=O)c1ccc(Cc2cc(O)c([O-])c(Cc3ccccc3[O-])c2[O-])c(C)c1[O-] (3D coordinates assigned)
CC(=O)c1ccc(Cc2cc(O)c([O-])c(Cc3ccccc3[O-])c2[O-])c(C)c1[O-] (optimized conformer: 56.954001314644856 kcal/mol)

>  <smiles>  (47) 
CC(=O)c1ccc(Cc2cc(O)c(O)c(Cc3ccccc3O)c2O)c(C)c1O

>  <score_type>  (47) 
oracle

>  <origin>  (47) 
adgpu

>  <m_score__min__energy>  (47) 
-12.92

>  <m_primary>  (47) 
energy

$$$$
