0:0
     RDKit          3D

 48 51  0  0  0  0  0  0  0  0999 V2000
   -1.6130   27.8750  -24.0610 H   0  0  0  0  0  0  0  0  0  0  0  0
   -1.0120   27.5040  -24.7870 O   0  0  0  0  0  0  0  0  0  0  0  0
   -1.4940   26.6250  -25.7540 C   0  0  0  0  0  0  0  0  0  0  0  0
   -2.3500   25.5880  -25.3790 C   0  0  0  0  0  0  0  0  0  0  0  0
   -2.6395   25.4714  -24.3242 H   0  0  0  0  0  0  0  0  0  0  0  0
   -2.8410   24.6970  -26.3380 C   0  0  0  0  0  0  0  0  0  0  0  0
   -3.5144   23.8832  -26.0310 H   0  0  0  0  0  0  0  0  0  0  0  0
   -2.4820   24.8310  -27.6930 C   0  0  0  0  0  0  0  0  0  0  0  0
   -3.0210   23.8870  -28.7070 C   0  0  0  0  0  0  0  0  0  0  0  0
   -2.2040   23.0850  -29.4470 N   0  0  0  0  0  0  0  0  0  0  0  0
   -2.8950   22.3050  -30.3040 C   0  0  0  0  0  0  0  0  0  0  0  0
   -2.3030   21.4970  -31.1330 N   0  0  0  0  0  0  0  0  0  0  0  0
   -2.9410   20.6000  -32.0530 C   0  0  0  0  0  0  0  0  0  0  0  0
   -2.3630   20.2810  -33.2940 C   0  0  0  0  0  0  0  0  0  0  0  0
   -1.3840   20.7018  -33.5671 H   0  0  0  0  0  0  0  0  0  0  0  0
   -3.0280   19.4310  -34.1820 C   0  0  0  0  0  0  0  0  0  0  0  0
   -2.5621   19.1687  -35.1433 H   0  0  0  0  0  0  0  0  0  0  0  0
   -4.2820   18.9140  -33.8520 C   0  0  0  0  0  0  0  0  0  0  0  0
   -4.7965   18.2353  -34.5482 H   0  0  0  0  0  0  0  0  0  0  0  0
   -4.8870   19.2580  -32.6350 C   0  0  0  0  0  0  0  0  0  0  0  0
   -6.4660   18.5930  -32.2290 S   0  0  0  0  0  0  0  0  0  0  0  0
   -7.0080   17.8040  -33.3900 O   0  0  0  0  0  0  0  0  0  0  0  0
   -6.3110   17.6690  -31.0520 O   0  0  0  0  0  0  0  0  0  0  0  0
   -7.5600   19.8910  -31.8240 N   0  0  0  0  0  0  0  0  0  0  0  0
   -7.0720   21.1560  -32.4000 C   0  0  0  0  0  0  0  0  0  0  0  0
   -6.0174   21.2981  -32.1215 H   0  0  0  0  0  0  0  0  0  0  0  0
   -7.1711   21.1114  -33.4946 H   0  0  0  0  0  0  0  0  0  0  0  0
   -7.9010   22.3420  -31.8710 C   0  0  0  0  0  0  0  0  0  0  0  0
   -7.3687   22.7931  -31.0206 H   0  0  0  0  0  0  0  0  0  0  0  0
   -8.0245   23.0584  -32.6965 H   0  0  0  0  0  0  0  0  0  0  0  0
   -9.3040   21.9180  -31.4060 C   0  0  0  0  0  0  0  0  0  0  0  0
   -9.2463   21.5627  -30.3666 H   0  0  0  0  0  0  0  0  0  0  0  0
   -9.9749   22.7866  -31.4798 H   0  0  0  0  0  0  0  0  0  0  0  0
   -9.8590   20.7970  -32.2880 C   0  0  0  0  0  0  0  0  0  0  0  0
  -10.8361   20.4828  -31.8923 H   0  0  0  0  0  0  0  0  0  0  0  0
   -9.9545   21.1832  -33.3135 H   0  0  0  0  0  0  0  0  0  0  0  0
   -8.9150   19.5740  -32.3200 C   0  0  0  0  0  0  0  0  0  0  0  0
   -9.3443   18.7807  -31.6904 H   0  0  0  0  0  0  0  0  0  0  0  0
   -8.8203   19.2527  -33.3678 H   0  0  0  0  0  0  0  0  0  0  0  0
   -4.2160   20.1070  -31.7440 C   0  0  0  0  0  0  0  0  0  0  0  0
   -4.6942   20.3887  -30.7943 H   0  0  0  0  0  0  0  0  0  0  0  0
   -4.5530   22.5910  -30.2010 S   0  0  0  0  0  0  0  0  0  0  0  0
   -4.3830   23.7480  -28.9930 C   0  0  0  0  0  0  0  0  0  0  0  0
   -5.2024   24.3008  -28.5104 H   0  0  0  0  0  0  0  0  0  0  0  0
   -1.6160   25.8840  -28.0640 C   0  0  0  0  0  0  0  0  0  0  0  0
   -1.2160   26.0520  -29.3860 O   0  0  0  0  0  0  0  0  0  0  0  0
   -1.1300   26.7720  -27.0970 C   0  0  0  0  0  0  0  0  0  0  0  0
   -0.4579   27.5903  -27.3948 H   0  0  0  0  0  0  0  0  0  0  0  0
  1  2  1  0
  2  3  1  0
  3  4  2  0
  4  5  1  0
  4  6  1  0
  6  7  1  0
  6  8  2  0
  8  9  1  0
  9 10  1  0
 10 11  1  0
 11 12  2  0
 12 13  1  0
 13 14  2  0
 14 15  1  0
 14 16  1  0
 16 17  1  0
 16 18  2  0
 18 19  1  0
 18 20  1  0
 20 21  1  0
 21 22  2  0
 21 23  2  0
 21 24  1  0
 24 25  1  0
 25 26  1  0
 25 27  1  0
 25 28  1  0
 28 29  1  0
 28 30  1  0
 28 31  1  0
 31 32  1  0
 31 33  1  0
 31 34  1  0
 34 35  1  0
 34 36  1  0
 34 37  1  0
 37 38  1  0
 37 39  1  0
 20 40  2  0
 40 41  1  0
 11 42  1  0
 42 43  1  0
 43 44  1  0
  8 45  1  0
 45 46  1  0
 45 47  2  0
 47 48  1  0
 47  3  1  0
 43  9  2  0
 40 13  1  0
 37 24  1  0
M  CHG  2  10  -1  46  -1
M  END
>  <UniqueID>  (1) 
1

>  <SMILES>  (1) 
O=S(=O)(c1cccc(/N=c2/[n-]c(-c3ccc(O)cc3[O-])cs2)c1)N1CCCCC1

>  <Energy>  (1) 
95.06723865057437

>  <Genealogy>  (1) 
O=S(=O)(c1cccc(N=c2[n-]c(-c3ccc(O)cc3[O-])cs2)c1)N1CCCCC1 (protonated)
O=S(=O)(c1cccc(/N=c2/[n-]c(-c3ccc(O)cc3[O-])cs2)c1)N1CCCCC1 (cis-trans isomerization)
O=S(=O)(c1cccc(/N=c2/[n-]c(-c3ccc(O)cc3[O-])cs2)c1)N1CCCCC1 (3D coordinates assigned)
O=S(=O)(c1cccc(/N=c2/[n-]c(-c3ccc(O)cc3[O-])cs2)c1)N1CCCCC1 (nonaromatic ring conformer: 95.06723865057437 kcal/mol)

>  <smiles>  (1) 
O=S(=O)(c1cccc(N=c2[nH]c(-c3ccc(O)cc3O)cs2)c1)N1CCCCC1

>  <score_type>  (1) 
oracle

>  <origin>  (1) 
adgpu

>  <m_score__min__energy>  (1) 
-12.85

>  <m_primary>  (1) 
energy

$$$$
1:0
     RDKit          3D

 39 41  0  0  0  0  0  0  0  0999 V2000
   -4.3380   25.6020  -30.8600 O   0  0  0  0  0  0  0  0  0  0  0  0
   -4.2540   24.6150  -30.0810 C   0  0  0  0  0  0  0  0  0  0  0  0
   -5.2570   23.5880  -30.1120 N   0  0  0  0  0  0  0  0  0  0  0  0
   -6.2830   23.5240  -31.1520 C   0  0  0  0  0  0  0  0  0  0  0  0
   -6.1230   22.2350  -32.0060 C   0  0  1  0  0  0  0  0  0  0  0  0
   -4.6930   21.7390  -32.0820 C   0  0  0  0  0  0  0  0  0  0  0  0
   -4.0360   20.9990  -31.0790 C   0  0  0  0  0  0  0  0  0  0  0  0
   -2.7420   20.6290  -31.4150 C   0  0  0  0  0  0  0  0  0  0  0  0
   -2.4180   21.2020  -32.9600 S   0  0  0  0  0  0  0  0  0  0  0  0
   -3.9100   21.9280  -33.2180 C   0  0  0  0  0  0  0  0  0  0  0  0
   -7.0190   21.1250  -31.5920 N   0  0  0  0  0  0  0  0  0  0  0  0
   -8.3200   21.5230  -31.0020 C   0  0  0  0  0  0  0  0  0  0  0  0
   -9.4900   21.2010  -31.9480 C   0  0  0  0  0  0  0  0  0  0  0  0
   -9.5840   19.8250  -32.2930 O   0  0  0  0  0  0  0  0  0  0  0  0
   -8.3330   19.1490  -32.3140 C   0  0  0  0  0  0  0  0  0  0  0  0
   -7.1350   20.0650  -32.6140 C   0  0  0  0  0  0  0  0  0  0  0  0
   -3.1200   24.5450  -29.1440 C   0  0  0  0  0  0  0  0  0  0  0  0
   -2.9960   23.7020  -28.0530 C   0  0  0  0  0  0  0  0  0  0  0  0
   -1.7700   23.9950  -27.4950 C   0  0  0  0  0  0  0  0  0  0  0  0
   -1.2220   24.9920  -28.2760 C   0  0  0  0  0  0  0  0  0  0  0  0
   -2.0480   25.2960  -29.2490 O   0  0  0  0  0  0  0  0  0  0  0  0
   -5.2920   22.8760  -29.3490 H   0  0  0  0  0  0  0  0  0  0  0  0
   -7.2762   23.5225  -30.6792 H   0  0  0  0  0  0  0  0  0  0  0  0
   -6.1736   24.3988  -31.8098 H   0  0  0  0  0  0  0  0  0  0  0  0
   -6.4304   22.5527  -33.0133 H   0  0  0  0  0  0  0  0  0  0  0  0
   -4.5055   20.7389  -30.1188 H   0  0  0  0  0  0  0  0  0  0  0  0
   -2.0483   20.0590  -30.7795 H   0  0  0  0  0  0  0  0  0  0  0  0
   -4.2167   22.4621  -34.1294 H   0  0  0  0  0  0  0  0  0  0  0  0
   -8.4649   20.9798  -30.0565 H   0  0  0  0  0  0  0  0  0  0  0  0
   -8.3035   22.6095  -30.8307 H   0  0  0  0  0  0  0  0  0  0  0  0
  -10.4271   21.5004  -31.4558 H   0  0  0  0  0  0  0  0  0  0  0  0
   -9.3105   21.7549  -32.8813 H   0  0  0  0  0  0  0  0  0  0  0  0
   -8.1747   18.6827  -31.3304 H   0  0  0  0  0  0  0  0  0  0  0  0
   -8.3824   18.4109  -33.1281 H   0  0  0  0  0  0  0  0  0  0  0  0
   -6.2134   19.4645  -32.6175 H   0  0  0  0  0  0  0  0  0  0  0  0
   -7.2875   20.5362  -33.5962 H   0  0  0  0  0  0  0  0  0  0  0  0
   -3.7237   22.9545  -27.7042 H   0  0  0  0  0  0  0  0  0  0  0  0
   -1.3195   23.5283  -26.6066 H   0  0  0  0  0  0  0  0  0  0  0  0
   -0.2412   25.4609  -28.1082 H   0  0  0  0  0  0  0  0  0  0  0  0
  1  2  2  0
  2  3  1  0
  3  4  1  0
  4  5  1  0
  5  6  1  0
  6  7  1  0
  7  8  2  0
  8  9  1  0
  9 10  1  0
  5 11  1  0
 11 12  1  0
 12 13  1  0
 13 14  1  0
 14 15  1  0
 15 16  1  0
  2 17  1  0
 17 18  2  0
 18 19  1  0
 19 20  2  0
 20 21  1  0
 10  6  2  0
 16 11  1  0
 21 17  1  0
  3 22  1  0
  4 23  1  0
  4 24  1  0
  5 25  1  6
  7 26  1  0
  8 27  1  0
 10 28  1  0
 12 29  1  0
 12 30  1  0
 13 31  1  0
 13 32  1  0
 15 33  1  0
 15 34  1  0
 16 35  1  0
 16 36  1  0
 18 37  1  0
 19 38  1  0
 20 39  1  0
M  END
>  <UniqueID>  (2) 
2

>  <SMILES>  (2) 
O=C(NC[C@@H](c1ccsc1)N1CCOCC1)c1ccco1

>  <Energy>  (2) 
106.55168499087891

>  <Genealogy>  (2) 
O=C(NC[C@@H](c1ccsc1)N1CCOCC1)c1ccco1 (chirality)
O=C(NC[C@@H](c1ccsc1)N1CCOCC1)c1ccco1 (3D coordinates assigned)
O=C(NC[C@@H](c1ccsc1)N1CCOCC1)c1ccco1 (nonaromatic ring conformer: 106.55168499087891 kcal/mol)

>  <smiles>  (2) 
O=C(NCC(c1ccsc1)N1CCOCC1)c1ccco1

>  <score_type>  (2) 
oracle

>  <origin>  (2) 
adgpu

>  <m_score__min__energy>  (2) 
-8.0600000000000005

>  <m_primary>  (2) 
energy

$$$$
2:0
     RDKit          3D

 54 57  0  0  0  0  0  0  0  0999 V2000
   -9.4440   20.0920  -32.5000 C   0  0  0  0  0  0  0  0  0  0  0  0
   -8.2980   20.9110  -31.9840 C   0  0  0  0  0  0  0  0  0  0  0  0
   -8.4350   21.6520  -30.8010 C   0  0  0  0  0  0  0  0  0  0  0  0
   -7.3820   22.4450  -30.3380 C   0  0  0  0  0  0  0  0  0  0  0  0
   -6.1740   22.5230  -31.0580 C   0  0  0  0  0  0  0  0  0  0  0  0
   -5.0450   23.3580  -30.5830 C   0  0  0  0  0  0  0  0  0  0  0  0
   -5.0340   24.7330  -30.4130 C   0  0  0  0  0  0  0  0  0  0  0  0
   -3.8220   25.0880  -29.9610 N   0  0  0  0  0  0  0  0  0  0  0  0
   -3.1300   23.9390  -29.8630 C   0  0  0  0  0  0  0  0  0  0  0  0
   -1.4310   23.8550  -29.2950 S   0  0  0  0  0  0  0  0  0  0  0  0
   -1.5330   22.1090  -28.7670 C   0  0  0  0  0  0  0  0  0  0  0  0
   -0.4660   21.2660  -29.4730 C   0  0  0  0  0  0  0  0  0  0  0  0
   -1.0650   20.1840  -30.3810 C   0  0  0  0  0  0  0  0  0  0  0  0
   -0.7440   20.4500  -31.8040 N   0  0  0  0  0  0  0  0  0  0  0  0
   -1.6280   21.4690  -32.4030 C   0  0  0  0  0  0  0  0  0  0  0  0
   -3.0640   20.9440  -32.5390 C   0  0  0  0  0  0  0  0  0  0  0  0
   -3.0790   19.5670  -33.0480 N   0  0  0  0  0  0  0  0  0  0  0  0
   -4.3410   18.8790  -33.1820 C   0  0  0  0  0  0  0  0  0  0  0  0
   -5.0680   18.5430  -32.0790 N   0  0  0  0  0  0  0  0  0  0  0  0
   -6.2570   17.8950  -32.1890 C   0  0  0  0  0  0  0  0  0  0  0  0
   -6.7520   17.5600  -33.4480 C   0  0  0  0  0  0  0  0  0  0  0  0
   -6.0010   17.9070  -34.5700 C   0  0  0  0  0  0  0  0  0  0  0  0
   -4.8170   18.5560  -34.4170 N   0  0  0  0  0  0  0  0  0  0  0  0
   -1.8400   18.9930  -33.5880 C   0  0  0  0  0  0  0  0  0  0  0  0
   -0.6530   19.2140  -32.6270 C   0  0  0  0  0  0  0  0  0  0  0  0
   -3.8390   22.8570  -30.2370 N   0  0  0  0  0  0  0  0  0  0  0  0
   -6.0520   21.7920  -32.2540 C   0  0  0  0  0  0  0  0  0  0  0  0
   -7.1070   20.9990  -32.7150 C   0  0  0  0  0  0  0  0  0  0  0  0
  -10.0143   19.6844  -31.6523 H   0  0  0  0  0  0  0  0  0  0  0  0
  -10.1012   20.7262  -33.1130 H   0  0  0  0  0  0  0  0  0  0  0  0
   -9.0568   19.2648  -33.1130 H   0  0  0  0  0  0  0  0  0  0  0  0
   -9.3769   21.6085  -30.2345 H   0  0  0  0  0  0  0  0  0  0  0  0
   -7.4974   23.0132  -29.4032 H   0  0  0  0  0  0  0  0  0  0  0  0
   -5.8733   25.4150  -30.6138 H   0  0  0  0  0  0  0  0  0  0  0  0
   -3.4910   26.0510  -29.7290 H   0  0  0  0  0  0  0  0  0  0  0  0
   -1.3777   22.0510  -27.6796 H   0  0  0  0  0  0  0  0  0  0  0  0
   -2.5259   21.7169  -29.0324 H   0  0  0  0  0  0  0  0  0  0  0  0
    0.1589   21.9322  -30.0859 H   0  0  0  0  0  0  0  0  0  0  0  0
    0.1207   20.7563  -28.6945 H   0  0  0  0  0  0  0  0  0  0  0  0
   -0.6521   19.2052  -30.0956 H   0  0  0  0  0  0  0  0  0  0  0  0
   -2.1584   20.1898  -30.2604 H   0  0  0  0  0  0  0  0  0  0  0  0
   -1.6316   22.3630  -31.7621 H   0  0  0  0  0  0  0  0  0  0  0  0
   -1.2491   21.7139  -33.4062 H   0  0  0  0  0  0  0  0  0  0  0  0
   -3.5497   20.9673  -31.5523 H   0  0  0  0  0  0  0  0  0  0  0  0
   -3.6036   21.5851  -33.2516 H   0  0  0  0  0  0  0  0  0  0  0  0
   -6.8282   17.6351  -31.2856 H   0  0  0  0  0  0  0  0  0  0  0  0
   -7.7124   17.0343  -33.5538 H   0  0  0  0  0  0  0  0  0  0  0  0
   -6.3660   17.6560  -35.5769 H   0  0  0  0  0  0  0  0  0  0  0  0
   -1.9820   17.9127  -33.7393 H   0  0  0  0  0  0  0  0  0  0  0  0
   -1.6125   19.4934  -34.5408 H   0  0  0  0  0  0  0  0  0  0  0  0
   -0.5977   18.3518  -31.9461 H   0  0  0  0  0  0  0  0  0  0  0  0
    0.2418   19.3244  -33.2572 H   0  0  0  0  0  0  0  0  0  0  0  0
   -5.1175   21.8450  -32.8319 H   0  0  0  0  0  0  0  0  0  0  0  0
   -7.0009   20.4412  -33.6571 H   0  0  0  0  0  0  0  0  0  0  0  0
  1  2  1  0
  2  3  2  0
  3  4  1  0
  4  5  2  0
  5  6  1  0
  6  7  2  0
  7  8  1  0
  8  9  1  0
  9 10  1  0
 10 11  1  0
 11 12  1  0
 12 13  1  0
 13 14  1  0
 14 15  1  0
 15 16  1  0
 16 17  1  0
 17 18  1  0
 18 19  2  0
 19 20  1  0
 20 21  2  0
 21 22  1  0
 22 23  2  0
 17 24  1  0
 24 25  1  0
  9 26  2  0
  5 27  1  0
 27 28  2  0
 28  2  1  0
 26  6  1  0
 25 14  1  0
 23 18  1  0
  1 29  1  0
  1 30  1  0
  1 31  1  0
  3 32  1  0
  4 33  1  0
  7 34  1  0
  8 35  1  0
 11 36  1  0
 11 37  1  0
 12 38  1  0
 12 39  1  0
 13 40  1  0
 13 41  1  0
 15 42  1  0
 15 43  1  0
 16 44  1  0
 16 45  1  0
 20 46  1  0
 21 47  1  0
 22 48  1  0
 24 49  1  0
 24 50  1  0
 25 51  1  0
 25 52  1  0
 27 53  1  0
 28 54  1  0
M  END
>  <UniqueID>  (3) 
3

>  <SMILES>  (3) 
Cc1ccc(-c2c[nH]c(SCCCN3CCN(c4ncccn4)CC3)n2)cc1

>  <Energy>  (3) 
90.74802277888519

>  <Genealogy>  (3) 
Cc1ccc(-c2c[nH]c(SCCCN3CCN(c4ncccn4)CC3)n2)cc1 (3D coordinates assigned)
Cc1ccc(-c2c[nH]c(SCCCN3CCN(c4ncccn4)CC3)n2)cc1 (nonaromatic ring conformer: 90.74802277888519 kcal/mol)

>  <smiles>  (3) 
Cc1ccc(-c2c[nH]c(SCCCN3CCN(c4ncccn4)CC3)n2)cc1

>  <score_type>  (3) 
oracle

>  <origin>  (3) 
adgpu

>  <m_score__min__energy>  (3) 
-8.8000000000000007

>  <m_primary>  (3) 
energy

$$$$
3:0
     RDKit          3D

 59 61  0  0  0  0  0  0  0  0999 V2000
   -5.7397   15.8294  -32.5315 H   0  0  0  0  0  0  0  0  0  0  0  0
   -5.4480   16.8090  -32.9380 C   0  0  0  0  0  0  0  0  0  0  0  0
   -4.1900   17.2820  -32.7320 N   0  0  0  0  0  0  0  0  0  0  0  0
   -3.7700   18.4830  -33.2190 C   0  0  0  0  0  0  0  0  0  0  0  0
   -2.5450   18.8540  -32.9580 N   0  0  0  0  0  0  0  0  0  0  0  0
   -1.8210   20.0200  -33.3830 C   0  0  0  0  0  0  0  0  0  0  0  0
   -1.4610   20.1740  -34.5810 O   0  0  0  0  0  0  0  0  0  0  0  0
   -1.4730   21.0650  -32.3610 C   0  0  0  0  0  0  0  0  0  0  0  0
   -1.3326   22.0329  -32.8645 H   0  0  0  0  0  0  0  0  0  0  0  0
   -0.5457   20.7701  -31.8480 H   0  0  0  0  0  0  0  0  0  0  0  0
   -2.6000   21.1910  -31.3250 C   0  0  0  0  0  0  0  0  0  0  0  0
   -2.2127   21.7038  -30.4322 H   0  0  0  0  0  0  0  0  0  0  0  0
   -2.9534   20.1820  -31.0659 H   0  0  0  0  0  0  0  0  0  0  0  0
   -3.7550   21.9760  -31.8810 C   0  0  0  0  0  0  0  0  0  0  0  0
   -3.7670   22.2590  -33.1130 O   0  0  0  0  0  0  0  0  0  0  0  0
   -4.8500   22.4000  -31.0410 N   0  0  0  0  0  0  0  0  0  0  0  0
   -6.2120   22.0270  -31.3560 C   0  0  0  0  0  0  0  0  0  0  0  0
   -6.6230   20.6850  -31.2870 C   0  0  0  0  0  0  0  0  0  0  0  0
   -5.8970   19.9072  -31.0078 H   0  0  0  0  0  0  0  0  0  0  0  0
   -7.9520   20.3260  -31.5710 C   0  0  0  0  0  0  0  0  0  0  0  0
   -8.3650   18.8820  -31.5460 C   0  0  0  0  0  0  0  0  0  0  0  0
   -8.4611   18.5461  -30.5029 H   0  0  0  0  0  0  0  0  0  0  0  0
   -9.3317   18.7682  -32.0584 H   0  0  0  0  0  0  0  0  0  0  0  0
   -7.6047   18.2742  -32.0584 H   0  0  0  0  0  0  0  0  0  0  0  0
   -8.8760   21.3170  -31.9340 C   0  0  0  0  0  0  0  0  0  0  0  0
   -9.9113   21.0378  -32.1795 H   0  0  0  0  0  0  0  0  0  0  0  0
   -8.4840   22.6630  -31.9850 C   0  0  0  0  0  0  0  0  0  0  0  0
   -9.4810   23.7240  -32.3560 C   0  0  0  0  0  0  0  0  0  0  0  0
   -9.8997   24.1696  -31.4416 H   0  0  0  0  0  0  0  0  0  0  0  0
   -8.9821   24.5047  -32.9490 H   0  0  0  0  0  0  0  0  0  0  0  0
  -10.2912   23.2746  -32.9490 H   0  0  0  0  0  0  0  0  0  0  0  0
   -7.1500   23.0110  -31.7200 C   0  0  0  0  0  0  0  0  0  0  0  0
   -6.8351   24.0621  -31.7976 H   0  0  0  0  0  0  0  0  0  0  0  0
   -4.5480   23.1710  -29.8290 C   0  0  0  0  0  0  0  0  0  0  0  0
   -5.4695   23.3041  -29.2433 H   0  0  0  0  0  0  0  0  0  0  0  0
   -3.8011   22.6266  -29.2325 H   0  0  0  0  0  0  0  0  0  0  0  0
   -3.9970   24.5140  -30.1980 C   0  0  0  0  0  0  0  0  0  0  0  0
   -4.6260   25.2590  -30.9950 O   0  0  0  0  0  0  0  0  0  0  0  0
   -2.7380   24.9300  -29.6560 N   0  0  0  0  0  0  0  0  0  0  0  0
   -1.7210   23.9980  -29.1700 C   0  0  0  0  0  0  0  0  0  0  0  0
   -2.1041   22.9698  -29.2479 H   0  0  0  0  0  0  0  0  0  0  0  0
   -0.8129   24.1090  -29.7807 H   0  0  0  0  0  0  0  0  0  0  0  0
   -1.3830   24.2960  -27.7280 C   0  0  0  0  0  0  0  0  0  0  0  0
   -1.5260   25.6040  -27.2320 C   0  0  0  0  0  0  0  0  0  0  0  0
   -1.8826   26.4036  -27.8979 H   0  0  0  0  0  0  0  0  0  0  0  0
   -1.2180   25.8980  -25.8960 C   0  0  0  0  0  0  0  0  0  0  0  0
   -1.3360   26.9245  -25.5186 H   0  0  0  0  0  0  0  0  0  0  0  0
   -0.7620   24.8910  -25.0440 C   0  0  0  0  0  0  0  0  0  0  0  0
   -0.5223   25.1219  -23.9956 H   0  0  0  0  0  0  0  0  0  0  0  0
   -0.6110   23.5890  -25.5270 C   0  0  0  0  0  0  0  0  0  0  0  0
   -0.2507   22.7963  -24.8549 H   0  0  0  0  0  0  0  0  0  0  0  0
   -0.9150   23.2840  -26.8620 C   0  0  0  0  0  0  0  0  0  0  0  0
   -0.7050   21.6250  -27.4170 Cl  0  0  0  0  0  0  0  0  0  0  0  0
   -4.6910   19.2780  -33.9420 C   0  0  0  0  0  0  0  0  0  0  0  0
   -4.3875   20.2617  -34.3295 H   0  0  0  0  0  0  0  0  0  0  0  0
   -5.9890   18.8060  -34.1610 C   0  0  0  0  0  0  0  0  0  0  0  0
   -6.7092   19.4161  -34.7259 H   0  0  0  0  0  0  0  0  0  0  0  0
   -6.3680   17.5630  -33.6630 C   0  0  0  0  0  0  0  0  0  0  0  0
   -7.3838   17.1798  -33.8401 H   0  0  0  0  0  0  0  0  0  0  0  0
  1  2  1  0
  2  3  1  0
  3  4  1  0
  4  5  2  0
  5  6  1  0
  6  7  2  0
  6  8  1  0
  8  9  1  0
  8 10  1  0
  8 11  1  0
 11 12  1  0
 11 13  1  0
 11 14  1  0
 14 15  2  0
 14 16  1  0
 16 17  1  0
 17 18  2  0
 18 19  1  0
 18 20  1  0
 20 21  1  0
 21 22  1  0
 21 23  1  0
 21 24  1  0
 20 25  2  0
 25 26  1  0
 25 27  1  0
 27 28  1  0
 28 29  1  0
 28 30  1  0
 28 31  1  0
 27 32  2  0
 32 33  1  0
 16 34  1  0
 34 35  1  0
 34 36  1  0
 34 37  1  0
 37 38  2  0
 37 39  1  0
 39 40  1  0
 40 41  1  0
 40 42  1  0
 40 43  1  0
 43 44  2  0
 44 45  1  0
 44 46  1  0
 46 47  1  0
 46 48  2  0
 48 49  1  0
 48 50  1  0
 50 51  1  0
 50 52  2  0
 52 53  1  0
  4 54  1  0
 54 55  1  0
 54 56  2  0
 56 57  1  0
 56 58  1  0
 58 59  1  0
 58  2  2  0
 32 17  1  0
 52 43  1  0
M  CHG  2   3  -1  39  -1
M  END
>  <UniqueID>  (4) 
4

>  <SMILES>  (4) 
Cc1cc(C)cc(N(CC(=O)[N-]Cc2ccccc2Cl)C(=O)CCC(=O)/N=c2\cccc[n-]2)c1

>  <Energy>  (4) 
64.67511850862793

>  <Genealogy>  (4) 
Cc1cc(C)cc(N(CC(=O)[N-]Cc2ccccc2Cl)C(=O)CCC(=O)N=c2cccc[n-]2)c1 (protonated)
Cc1cc(C)cc(N(CC(=O)[N-]Cc2ccccc2Cl)C(=O)CCC(=O)/N=c2\cccc[n-]2)c1 (cis-trans isomerization)
Cc1cc(C)cc(N(CC(=O)[N-]Cc2ccccc2Cl)C(=O)CCC(=O)/N=c2\cccc[n-]2)c1 (3D coordinates assigned)
Cc1cc(C)cc(N(CC(=O)[N-]Cc2ccccc2Cl)C(=O)CCC(=O)/N=c2\cccc[n-]2)c1 (optimized conformer: 64.67511850862793 kcal/mol)

>  <smiles>  (4) 
Cc1cc(C)cc(N(CC(=O)NCc2ccccc2Cl)C(=O)CCC(=O)N=c2cccc[nH]2)c1

>  <score_type>  (4) 
oracle

>  <origin>  (4) 
adgpu

>  <m_score__min__energy>  (4) 
-11.960000000000001

>  <m_primary>  (4) 
energy

$$$$
4:0
     RDKit          3D

 49 52  0  0  0  0  0  0  0  0999 V2000
   -9.2800   20.4830  -32.3510 O   0  0  0  0  0  0  0  0  0  0  0  0
   -8.1070   20.8520  -32.0790 C   0  0  0  0  0  0  0  0  0  0  0  0
   -7.9190   22.0740  -31.3500 N   0  0  0  0  0  0  0  0  0  0  0  0
   -7.5770   23.3660  -31.9400 C   0  0  0  0  0  0  0  0  0  0  0  0
   -6.2810   23.8860  -31.3740 C   0  0  0  0  0  0  0  0  0  0  0  0
   -6.2290   25.1570  -30.7790 C   0  0  0  0  0  0  0  0  0  0  0  0
   -5.0380   25.6260  -30.2200 C   0  0  0  0  0  0  0  0  0  0  0  0
   -3.8870   24.8330  -30.2540 C   0  0  0  0  0  0  0  0  0  0  0  0
   -2.7040   25.2990  -29.6930 O   0  0  0  0  0  0  0  0  0  0  0  0
   -3.9260   23.5710  -30.8540 C   0  0  0  0  0  0  0  0  0  0  0  0
   -5.1160   23.1000  -31.4170 C   0  0  0  0  0  0  0  0  0  0  0  0
   -6.9670   20.0170  -32.5020 C   0  0  0  0  0  0  0  0  0  0  0  0
   -5.7130   20.5220  -32.3980 N   0  0  0  0  0  0  0  0  0  0  0  0
   -4.6040   19.8240  -32.7490 C   0  0  0  0  0  0  0  0  0  0  0  0
   -3.3240   20.4620  -32.6330 N   0  0  0  0  0  0  0  0  0  0  0  0
   -2.5860   20.8040  -33.8540 C   0  0  0  0  0  0  0  0  0  0  0  0
   -1.2020   21.3740  -33.5270 C   0  0  0  0  0  0  0  0  0  0  0  0
   -0.4390   20.4580  -32.5550 C   0  0  0  0  0  0  0  0  0  0  0  0
   -1.2860   19.9780  -31.3520 C   0  0  0  0  0  0  0  0  0  0  0  0
   -2.6880   20.5960  -31.3170 C   0  0  0  0  0  0  0  0  0  0  0  0
   -4.7340   18.5040  -33.2280 C   0  0  0  0  0  0  0  0  0  0  0  0
   -3.6020   17.7280  -33.5420 C   0  0  0  0  0  0  0  0  0  0  0  0
   -3.7450   16.4260  -34.0190 C   0  0  0  0  0  0  0  0  0  0  0  0
   -5.0150   15.8790  -34.1810 C   0  0  0  0  0  0  0  0  0  0  0  0
   -6.1510   16.6230  -33.8600 C   0  0  0  0  0  0  0  0  0  0  0  0
   -6.0340   17.9430  -33.3700 C   0  0  0  0  0  0  0  0  0  0  0  0
   -7.1650   18.7190  -33.0030 C   0  0  0  0  0  0  0  0  0  0  0  0
   -8.4770   18.2400  -33.0930 O   0  0  0  0  0  0  0  0  0  0  0  0
   -7.4740   23.2493  -33.0289 H   0  0  0  0  0  0  0  0  0  0  0  0
   -8.3772   24.0836  -31.7060 H   0  0  0  0  0  0  0  0  0  0  0  0
   -7.1308   25.7864  -30.7530 H   0  0  0  0  0  0  0  0  0  0  0  0
   -5.0055   26.6210  -29.7522 H   0  0  0  0  0  0  0  0  0  0  0  0
   -3.0198   22.9481  -30.8832 H   0  0  0  0  0  0  0  0  0  0  0  0
   -5.1409   22.1100  -31.8958 H   0  0  0  0  0  0  0  0  0  0  0  0
   -2.4649   19.8975  -34.4652 H   0  0  0  0  0  0  0  0  0  0  0  0
   -3.1561   21.5692  -34.4013 H   0  0  0  0  0  0  0  0  0  0  0  0
   -0.6242   21.4698  -34.4581 H   0  0  0  0  0  0  0  0  0  0  0  0
   -1.3336   22.3562  -33.0495 H   0  0  0  0  0  0  0  0  0  0  0  0
   -0.0940   19.5736  -33.1108 H   0  0  0  0  0  0  0  0  0  0  0  0
    0.3929   21.0493  -32.1448 H   0  0  0  0  0  0  0  0  0  0  0  0
   -1.3872   18.8842  -31.4098 H   0  0  0  0  0  0  0  0  0  0  0  0
   -0.7650   20.2965  -30.4371 H   0  0  0  0  0  0  0  0  0  0  0  0
   -3.2972   20.0767  -30.5625 H   0  0  0  0  0  0  0  0  0  0  0  0
   -2.6082   21.6624  -31.0593 H   0  0  0  0  0  0  0  0  0  0  0  0
   -2.5960   18.1528  -33.4098 H   0  0  0  0  0  0  0  0  0  0  0  0
   -2.8541   15.8305  -34.2675 H   0  0  0  0  0  0  0  0  0  0  0  0
   -5.1236   14.8537  -34.5645 H   0  0  0  0  0  0  0  0  0  0  0  0
   -7.1482   16.1771  -33.9898 H   0  0  0  0  0  0  0  0  0  0  0  0
   -9.2450   18.7300  -33.5240 H   0  0  0  0  0  0  0  0  0  0  0  0
  1  2  2  0
  2  3  1  0
  3  4  1  0
  4  5  1  0
  5  6  2  0
  6  7  1  0
  7  8  2  0
  8  9  1  0
  8 10  1  0
 10 11  2  0
  2 12  1  0
 12 13  2  0
 13 14  1  0
 14 15  1  0
 15 16  1  0
 16 17  1  0
 17 18  1  0
 18 19  1  0
 19 20  1  0
 14 21  2  0
 21 22  1  0
 22 23  2  0
 23 24  1  0
 24 25  2  0
 25 26  1  0
 26 27  2  0
 27 28  1  0
 11  5  1  0
 27 12  1  0
 20 15  1  0
 26 21  1  0
  4 29  1  0
  4 30  1  0
  6 31  1  0
  7 32  1  0
 10 33  1  0
 11 34  1  0
 16 35  1  0
 16 36  1  0
 17 37  1  0
 17 38  1  0
 18 39  1  0
 18 40  1  0
 19 41  1  0
 19 42  1  0
 20 43  1  0
 20 44  1  0
 22 45  1  0
 23 46  1  0
 24 47  1  0
 25 48  1  0
 28 49  1  0
M  CHG  2   3  -1   9  -1
M  END
>  <UniqueID>  (5) 
5

>  <SMILES>  (5) 
O=C([N-]Cc1ccc([O-])cc1)c1nc(N2CCCCC2)c2ccccc2c1O

>  <Energy>  (5) 
66.73287741535428

>  <Genealogy>  (5) 
O=C([N-]Cc1ccc([O-])cc1)c1nc(N2CCCCC2)c2ccccc2c1O (protonated)
O=C([N-]Cc1ccc([O-])cc1)c1nc(N2CCCCC2)c2ccccc2c1O (3D coordinates assigned)
O=C([N-]Cc1ccc([O-])cc1)c1nc(N2CCCCC2)c2ccccc2c1O (nonaromatic ring conformer: 66.73287741535428 kcal/mol)

>  <smiles>  (5) 
O=C(NCc1ccc(O)cc1)c1nc(N2CCCCC2)c2ccccc2c1O

>  <score_type>  (5) 
oracle

>  <origin>  (5) 
adgpu

>  <m_score__min__energy>  (5) 
-11.550000000000001

>  <m_primary>  (5) 
energy

$$$$
5:0
     RDKit          3D

 38 40  0  0  0  0  0  0  0  0999 V2000
   -4.6960   23.0480  -29.1490 O   0  0  0  0  0  0  0  0  0  0  0  0
   -4.8060   23.3480  -30.6170 S   0  0  0  0  0  0  0  0  0  0  0  0
   -4.6100   24.8230  -30.8320 O   0  0  0  0  0  0  0  0  0  0  0  0
   -6.4340   22.8980  -31.1250 C   0  0  0  0  0  0  0  0  0  0  0  0
   -6.9320   21.6230  -30.8210 C   0  0  0  0  0  0  0  0  0  0  0  0
   -8.2130   21.2510  -31.2370 C   0  0  0  0  0  0  0  0  0  0  0  0
   -9.0040   22.1500  -31.9610 C   0  0  0  0  0  0  0  0  0  0  0  0
   -8.5090   23.4200  -32.2710 C   0  0  0  0  0  0  0  0  0  0  0  0
   -7.2270   23.7940  -31.8570 C   0  0  0  0  0  0  0  0  0  0  0  0
   -3.5760   22.4520  -31.5340 C   0  0  0  0  0  0  0  0  0  0  0  0
   -3.9510   21.8930  -32.7700 C   0  0  0  0  0  0  0  0  0  0  0  0
   -3.0400   21.1640  -33.5320 C   0  0  0  0  0  0  0  0  0  0  0  0
   -1.7360   20.9840  -33.0780 C   0  0  0  0  0  0  0  0  0  0  0  0
   -0.5940   20.0590  -34.0370 Cl  0  0  0  0  0  0  0  0  0  0  0  0
   -1.3370   21.5450  -31.8640 C   0  0  0  0  0  0  0  0  0  0  0  0
   -2.2360   22.2950  -31.0840 C   0  0  0  0  0  0  0  0  0  0  0  0
   -1.6410   22.9980  -29.5640 S   0  0  0  0  0  0  0  0  0  0  0  0
   -0.1870   23.3580  -29.6910 O   0  0  0  0  0  0  0  0  0  0  0  0
   -2.4220   24.2410  -29.2450 O   0  0  0  0  0  0  0  0  0  0  0  0
   -1.7910   21.8550  -28.2240 C   0  0  0  0  0  0  0  0  0  0  0  0
   -1.0720   22.0780  -27.0400 C   0  0  0  0  0  0  0  0  0  0  0  0
   -1.1660   21.1760  -25.9760 C   0  0  0  0  0  0  0  0  0  0  0  0
   -1.9740   20.0410  -26.0900 C   0  0  0  0  0  0  0  0  0  0  0  0
   -2.6850   19.8060  -27.2690 C   0  0  0  0  0  0  0  0  0  0  0  0
   -2.5950   20.7050  -28.3370 C   0  0  0  0  0  0  0  0  0  0  0  0
   -3.2760   20.4420  -29.4810 F   0  0  0  0  0  0  0  0  0  0  0  0
   -6.3123   20.9134  -30.2532 H   0  0  0  0  0  0  0  0  0  0  0  0
   -8.6001   20.2502  -30.9951 H   0  0  0  0  0  0  0  0  0  0  0  0
  -10.0136   21.8578  -32.2856 H   0  0  0  0  0  0  0  0  0  0  0  0
   -9.1294   24.1266  -32.8418 H   0  0  0  0  0  0  0  0  0  0  0  0
   -6.8395   24.7929  -32.1058 H   0  0  0  0  0  0  0  0  0  0  0  0
   -4.9774   22.0335  -33.1397 H   0  0  0  0  0  0  0  0  0  0  0  0
   -3.3515   20.7301  -34.4936 H   0  0  0  0  0  0  0  0  0  0  0  0
   -0.3051   21.3987  -31.5121 H   0  0  0  0  0  0  0  0  0  0  0  0
   -0.4310   22.9672  -26.9484 H   0  0  0  0  0  0  0  0  0  0  0  0
   -0.6038   21.3596  -25.0485 H   0  0  0  0  0  0  0  0  0  0  0  0
   -2.0498   19.3332  -25.2514 H   0  0  0  0  0  0  0  0  0  0  0  0
   -3.3180   18.9108  -27.3581 H   0  0  0  0  0  0  0  0  0  0  0  0
  1  2  2  0
  2  3  2  0
  2  4  1  0
  4  5  2  0
  5  6  1  0
  6  7  2  0
  7  8  1  0
  8  9  2  0
  2 10  1  0
 10 11  2  0
 11 12  1  0
 12 13  2  0
 13 14  1  0
 13 15  1  0
 15 16  2  0
 16 17  1  0
 17 18  2  0
 17 19  2  0
 17 20  1  0
 20 21  2  0
 21 22  1  0
 22 23  2  0
 23 24  1  0
 24 25  2  0
 25 26  1  0
  9  4  1  0
 16 10  1  0
 25 20  1  0
  5 27  1  0
  6 28  1  0
  7 29  1  0
  8 30  1  0
  9 31  1  0
 11 32  1  0
 12 33  1  0
 15 34  1  0
 21 35  1  0
 22 36  1  0
 23 37  1  0
 24 38  1  0
M  END
>  <UniqueID>  (6) 
6

>  <SMILES>  (6) 
O=S(=O)(c1ccccc1)c1ccc(Cl)cc1S(=O)(=O)c1ccccc1F

>  <Energy>  (6) 
50.541216841477194

>  <Genealogy>  (6) 
O=S(=O)(c1ccccc1)c1ccc(Cl)cc1S(=O)(=O)c1ccccc1F (3D coordinates assigned)
O=S(=O)(c1ccccc1)c1ccc(Cl)cc1S(=O)(=O)c1ccccc1F (optimized conformer: 50.541216841477194 kcal/mol)

>  <smiles>  (6) 
O=S(=O)(c1ccccc1)c1ccc(Cl)cc1S(=O)(=O)c1ccccc1F

>  <score_type>  (6) 
oracle

>  <origin>  (6) 
adgpu

>  <m_score__min__energy>  (6) 
-9.4100000000000001

>  <m_primary>  (6) 
energy

$$$$
6:0
     RDKit          3D

 62 65  0  0  0  0  0  0  0  0999 V2000
    0.7120   24.1490  -28.0710 C   0  0  0  0  0  0  0  0  0  0  0  0
   -0.3040   23.0120  -27.8740 C   0  0  0  0  0  0  0  0  0  0  0  0
   -0.9250   23.0400  -26.4720 C   0  0  0  0  0  0  0  0  0  0  0  0
   -1.3500   23.0110  -28.9340 N   0  0  0  0  0  0  0  0  0  0  0  0
   -1.5990   21.8610  -29.6510 C   0  0  0  0  0  0  0  0  0  0  0  0
   -0.9640   20.7980  -29.4190 O   0  0  0  0  0  0  0  0  0  0  0  0
   -2.5460   21.8460  -30.6220 N   0  0  0  0  0  0  0  0  0  0  0  0
   -3.2720   22.9450  -30.9240 C   0  0  0  0  0  0  0  0  0  0  0  0
   -3.0620   24.1300  -30.2210 C   0  0  0  0  0  0  0  0  0  0  0  0
   -3.8520   25.3050  -30.4710 N   0  0  0  0  0  0  0  0  0  0  0  0
   -5.2830   25.3720  -30.4150 C   0  0  0  0  0  0  0  0  0  0  0  0
   -5.8280   26.4590  -30.0850 O   0  0  0  0  0  0  0  0  0  0  0  0
   -6.1270   24.2110  -30.7730 C   0  0  0  0  0  0  0  0  0  0  0  0
   -6.4580   23.2450  -29.8080 C   0  0  0  0  0  0  0  0  0  0  0  0
   -7.2660   22.1570  -30.1460 C   0  0  0  0  0  0  0  0  0  0  0  0
   -7.7660   22.0260  -31.4480 C   0  0  0  0  0  0  0  0  0  0  0  0
   -8.8570   20.6980  -31.8330 S   0  0  0  0  0  0  0  0  0  0  0  0
   -9.0950   19.8610  -30.6070 O   0  0  0  0  0  0  0  0  0  0  0  0
  -10.1750   21.2390  -32.3100 O   0  0  0  0  0  0  0  0  0  0  0  0
   -8.1550   19.7050  -33.0630 N   0  0  0  0  0  0  0  0  0  0  0  0
   -6.7500   19.4600  -33.0790 C   0  0  0  0  0  0  0  0  0  0  0  0
   -6.2640   18.1620  -32.8870 C   0  0  0  0  0  0  0  0  0  0  0  0
   -4.8890   17.9110  -32.9550 C   0  0  0  0  0  0  0  0  0  0  0  0
   -3.9950   18.9560  -33.2230 C   0  0  0  0  0  0  0  0  0  0  0  0
   -2.2640   18.6420  -33.3240 S   0  0  0  0  0  0  0  0  0  0  0  0
   -1.6480   18.8060  -31.9620 O   0  0  0  0  0  0  0  0  0  0  0  0
   -2.0370   17.2290  -33.7810 O   0  0  0  0  0  0  0  0  0  0  0  0
   -1.5290   19.7740  -34.4320 N   0  0  0  0  0  0  0  0  0  0  0  0
   -0.2370   19.2860  -34.9150 C   0  0  0  0  0  0  0  0  0  0  0  0
    0.5910   20.5140  -35.2580 C   0  0  0  0  0  0  0  0  0  0  0  0
   -0.0740   21.6680  -34.5230 C   0  0  0  0  0  0  0  0  0  0  0  0
   -1.2410   21.0460  -33.7710 C   0  0  0  0  0  0  0  0  0  0  0  0
   -4.4830   20.2590  -33.3990 C   0  0  0  0  0  0  0  0  0  0  0  0
   -5.8570   20.5100  -33.3240 C   0  0  0  0  0  0  0  0  0  0  0  0
   -7.4280   22.9800  -32.4160 C   0  0  0  0  0  0  0  0  0  0  0  0
   -6.6040   24.0590  -32.0850 C   0  0  0  0  0  0  0  0  0  0  0  0
   -2.0980   24.1390  -29.2050 C   0  0  0  0  0  0  0  0  0  0  0  0
   -1.9290   25.2010  -28.5460 O   0  0  0  0  0  0  0  0  0  0  0  0
    1.0428   24.5192  -27.0894 H   0  0  0  0  0  0  0  0  0  0  0  0
    1.5798   23.7722  -28.6323 H   0  0  0  0  0  0  0  0  0  0  0  0
    0.2403   24.9691  -28.6323 H   0  0  0  0  0  0  0  0  0  0  0  0
    0.2528   22.0679  -27.9666 H   0  0  0  0  0  0  0  0  0  0  0  0
   -0.1264   23.0040  -25.7164 H   0  0  0  0  0  0  0  0  0  0  0  0
   -1.5066   23.9653  -26.3470 H   0  0  0  0  0  0  0  0  0  0  0  0
   -1.5875   22.1708  -26.3470 H   0  0  0  0  0  0  0  0  0  0  0  0
   -4.0271   22.9044  -31.7229 H   0  0  0  0  0  0  0  0  0  0  0  0
   -6.0787   23.3461  -28.7804 H   0  0  0  0  0  0  0  0  0  0  0  0
   -7.5108   21.3998  -29.3866 H   0  0  0  0  0  0  0  0  0  0  0  0
   -6.9635   17.3381  -32.6824 H   0  0  0  0  0  0  0  0  0  0  0  0
   -4.5091   16.8907  -32.7977 H   0  0  0  0  0  0  0  0  0  0  0  0
    0.2633   18.6977  -34.1317 H   0  0  0  0  0  0  0  0  0  0  0  0
   -0.3621   18.6344  -35.7924 H   0  0  0  0  0  0  0  0  0  0  0  0
    1.6285   20.3865  -34.9156 H   0  0  0  0  0  0  0  0  0  0  0  0
    0.6320   20.6896  -36.3431 H   0  0  0  0  0  0  0  0  0  0  0  0
    0.6319   22.1352  -33.8205 H   0  0  0  0  0  0  0  0  0  0  0  0
   -0.4053   22.4574  -35.2136 H   0  0  0  0  0  0  0  0  0  0  0  0
   -0.9676   20.8746  -32.7194 H   0  0  0  0  0  0  0  0  0  0  0  0
   -2.1195   21.7079  -33.7813 H   0  0  0  0  0  0  0  0  0  0  0  0
   -3.7840   21.0851  -33.5964 H   0  0  0  0  0  0  0  0  0  0  0  0
   -6.2364   21.5338  -33.4577 H   0  0  0  0  0  0  0  0  0  0  0  0
   -7.8129   22.8795  -33.4415 H   0  0  0  0  0  0  0  0  0  0  0  0
   -6.3276   24.7931  -32.8562 H   0  0  0  0  0  0  0  0  0  0  0  0
  1  2  1  0
  2  3  1  0
  2  4  1  0
  4  5  1  0
  5  6  2  0
  5  7  1  0
  7  8  1  0
  8  9  2  0
  9 10  1  0
 10 11  1  0
 11 12  2  0
 11 13  1  0
 13 14  2  0
 14 15  1  0
 15 16  2  0
 16 17  1  0
 17 18  2  0
 17 19  2  0
 17 20  1  0
 20 21  1  0
 21 22  2  0
 22 23  1  0
 23 24  2  0
 24 25  1  0
 25 26  2  0
 25 27  2  0
 25 28  1  0
 28 29  1  0
 29 30  1  0
 30 31  1  0
 31 32  1  0
 24 33  1  0
 33 34  2  0
 16 35  1  0
 35 36  2  0
  9 37  1  0
 37 38  2  0
 37  4  1  0
 36 13  1  0
 34 21  1  0
 32 28  1  0
  1 39  1  0
  1 40  1  0
  1 41  1  0
  2 42  1  0
  3 43  1  0
  3 44  1  0
  3 45  1  0
  8 46  1  0
 14 47  1  0
 15 48  1  0
 22 49  1  0
 23 50  1  0
 29 51  1  0
 29 52  1  0
 30 53  1  0
 30 54  1  0
 31 55  1  0
 31 56  1  0
 32 57  1  0
 32 58  1  0
 33 59  1  0
 34 60  1  0
 35 61  1  0
 36 62  1  0
M  CHG  3   7  -1  10  -1  20  -1
M  END
>  <UniqueID>  (7) 
7

>  <SMILES>  (7) 
CC(C)n1c(=O)[n-]cc([N-]C(=O)c2ccc(S(=O)(=O)[N-]c3ccc(S(=O)(=O)N4CCCC4)cc3)cc2)c1=O

>  <Energy>  (7) 
83.15336241581056

>  <Genealogy>  (7) 
CC(C)n1c(=O)[n-]cc([N-]C(=O)c2ccc(S(=O)(=O)[N-]c3ccc(S(=O)(=O)N4CCCC4)cc3)cc2)c1=O (protonated)
CC(C)n1c(=O)[n-]cc([N-]C(=O)c2ccc(S(=O)(=O)[N-]c3ccc(S(=O)(=O)N4CCCC4)cc3)cc2)c1=O (3D coordinates assigned)
CC(C)n1c(=O)[n-]cc([N-]C(=O)c2ccc(S(=O)(=O)[N-]c3ccc(S(=O)(=O)N4CCCC4)cc3)cc2)c1=O (nonaromatic ring conformer: 83.15336241581056 kcal/mol)

>  <smiles>  (7) 
CC(C)n1c(=O)[nH]cc(NC(=O)c2ccc(S(=O)(=O)Nc3ccc(S(=O)(=O)N4CCCC4)cc3)cc2)c1=O

>  <score_type>  (7) 
oracle

>  <origin>  (7) 
adgpu

>  <m_score__min__energy>  (7) 
-13.15

>  <m_primary>  (7) 
energy

$$$$
7:0
     RDKit          3D

 50 53  0  0  0  0  0  0  0  0999 V2000
   -4.2470   25.8040  -30.5000 N   0  0  0  0  0  0  0  0  0  0  0  0
   -3.9660   24.4610  -30.0990 C   0  0  0  0  0  0  0  0  0  0  0  0
   -2.9830   24.1950  -29.1960 N   0  0  0  0  0  0  0  0  0  0  0  0
   -2.8960   22.8760  -28.9200 C   0  0  0  0  0  0  0  0  0  0  0  0
   -2.0530   22.4090  -28.0470 N   0  0  0  0  0  0  0  0  0  0  0  0
   -1.8560   21.0280  -27.7060 C   0  0  0  0  0  0  0  0  0  0  0  0
   -0.6120   20.3930  -27.8810 C   0  0  0  0  0  0  0  0  0  0  0  0
   -0.4440   19.0570  -27.5020 C   0  0  0  0  0  0  0  0  0  0  0  0
   -1.5050   18.3540  -26.9280 C   0  0  0  0  0  0  0  0  0  0  0  0
   -2.7330   18.9890  -26.7190 C   0  0  0  0  0  0  0  0  0  0  0  0
   -2.9040   20.3250  -27.0960 C   0  0  0  0  0  0  0  0  0  0  0  0
   -4.0530   21.9860  -29.7670 S   0  0  0  0  0  0  0  0  0  0  0  0
   -4.6910   23.3450  -30.5370 C   0  0  0  0  0  0  0  0  0  0  0  0
   -5.7530   23.3070  -31.5650 C   0  0  0  0  0  0  0  0  0  0  0  0
   -5.7400   24.1610  -32.4920 O   0  0  0  0  0  0  0  0  0  0  0  0
   -6.8020   22.2600  -31.5650 C   0  0  0  0  0  0  0  0  0  0  0  0
   -8.1410   22.5760  -31.2770 C   0  0  0  0  0  0  0  0  0  0  0  0
   -9.1190   21.5780  -31.2790 C   0  0  0  0  0  0  0  0  0  0  0  0
   -8.7750   20.2580  -31.5780 C   0  0  0  0  0  0  0  0  0  0  0  0
   -7.4500   19.9300  -31.8900 C   0  0  0  0  0  0  0  0  0  0  0  0
   -7.0190   18.2580  -32.2410 S   0  0  0  0  0  0  0  0  0  0  0  0
   -8.2630   17.4140  -32.3040 O   0  0  0  0  0  0  0  0  0  0  0  0
   -6.1460   17.7390  -31.1330 O   0  0  0  0  0  0  0  0  0  0  0  0
   -6.1580   18.1710  -33.7590 N   0  0  0  0  0  0  0  0  0  0  0  0
   -5.7020   16.7830  -34.0010 C   0  0  0  0  0  0  0  0  0  0  0  0
   -4.5130   16.7630  -34.9760 C   0  0  0  0  0  0  0  0  0  0  0  0
   -3.3740   17.4810  -34.5160 O   0  0  0  0  0  0  0  0  0  0  0  0
   -3.6800   18.4880  -33.5610 C   0  0  0  0  0  0  0  0  0  0  0  0
   -5.0470   19.1550  -33.7980 C   0  0  0  0  0  0  0  0  0  0  0  0
   -6.4680   20.9320  -31.8840 C   0  0  0  0  0  0  0  0  0  0  0  0
   -3.8830   26.6240  -29.9680 H   0  0  0  0  0  0  0  0  0  0  0  0
   -4.7690   25.9820  -31.3860 H   0  0  0  0  0  0  0  0  0  0  0  0
    0.2308   20.9492  -28.3172 H   0  0  0  0  0  0  0  0  0  0  0  0
    0.5250   18.5598  -27.6563 H   0  0  0  0  0  0  0  0  0  0  0  0
   -1.3748   17.3004  -26.6401 H   0  0  0  0  0  0  0  0  0  0  0  0
   -3.5654   18.4374  -26.2577 H   0  0  0  0  0  0  0  0  0  0  0  0
   -3.8657   20.8265  -26.9129 H   0  0  0  0  0  0  0  0  0  0  0  0
   -8.4206   23.6151  -31.0487 H   0  0  0  0  0  0  0  0  0  0  0  0
  -10.1630   21.8329  -31.0443 H   0  0  0  0  0  0  0  0  0  0  0  0
   -9.5467   19.4742  -31.5684 H   0  0  0  0  0  0  0  0  0  0  0  0
   -6.8440   18.4250  -34.5090 H   0  0  0  0  0  0  0  0  0  0  0  0
   -5.3933   16.3328  -33.0460 H   0  0  0  0  0  0  0  0  0  0  0  0
   -6.5310   16.2107  -34.4428 H   0  0  0  0  0  0  0  0  0  0  0  0
   -4.2184   15.7160  -35.1405 H   0  0  0  0  0  0  0  0  0  0  0  0
   -4.8500   17.2587  -35.8983 H   0  0  0  0  0  0  0  0  0  0  0  0
   -3.6830   18.0312  -32.5603 H   0  0  0  0  0  0  0  0  0  0  0  0
   -2.9138   19.2715  -33.6560 H   0  0  0  0  0  0  0  0  0  0  0  0
   -5.2140   19.9109  -33.0165 H   0  0  0  0  0  0  0  0  0  0  0  0
   -5.0334   19.6139  -34.7976 H   0  0  0  0  0  0  0  0  0  0  0  0
   -5.4271   20.6763  -32.1312 H   0  0  0  0  0  0  0  0  0  0  0  0
  1  2  1  0
  2  3  1  0
  3  4  1  0
  4  5  2  3
  5  6  1  0
  6  7  2  0
  7  8  1  0
  8  9  2  0
  9 10  1  0
 10 11  2  0
  4 12  1  0
 12 13  1  0
 13 14  1  0
 14 15  2  0
 14 16  1  0
 16 17  2  0
 17 18  1  0
 18 19  2  0
 19 20  1  0
 20 21  1  0
 21 22  2  0
 21 23  2  0
 21 24  1  0
 24 25  1  0
 25 26  1  0
 26 27  1  0
 27 28  1  0
 28 29  1  0
 20 30  2  0
 13  2  2  0
 30 16  1  0
 11  6  1  0
 29 24  1  0
  1 31  1  0
  1 32  1  0
  7 33  1  0
  8 34  1  0
  9 35  1  0
 10 36  1  0
 11 37  1  0
 17 38  1  0
 18 39  1  0
 19 40  1  0
 24 41  1  0
 25 42  1  0
 25 43  1  0
 26 44  1  0
 26 45  1  0
 28 46  1  0
 28 47  1  0
 29 48  1  0
 29 49  1  0
 30 50  1  0
M  CHG  2   3  -1  24   1
M  END
>  <UniqueID>  (8) 
8

>  <SMILES>  (8) 
Nc1[n-]c(=Nc2ccccc2)sc1C(=O)c1cccc(S(=O)(=O)[NH+]2CCOCC2)c1

>  <Energy>  (8) 
108.03588530170913

>  <Genealogy>  (8) 
Nc1[n-]c(=Nc2ccccc2)sc1C(=O)c1cccc(S(=O)(=O)[NH+]2CCOCC2)c1 (protonated)
Nc1[n-]c(=Nc2ccccc2)sc1C(=O)c1cccc(S(=O)(=O)[NH+]2CCOCC2)c1 (3D coordinates assigned)
Nc1[n-]c(=Nc2ccccc2)sc1C(=O)c1cccc(S(=O)(=O)[NH+]2CCOCC2)c1 (nonaromatic ring conformer: 108.03588530170913 kcal/mol)

>  <smiles>  (8) 
Nc1[nH]c(=Nc2ccccc2)sc1C(=O)c1cccc(S(=O)(=O)N2CCOCC2)c1

>  <score_type>  (8) 
oracle

>  <origin>  (8) 
adgpu

>  <m_score__min__energy>  (8) 
-11.33

>  <m_primary>  (8) 
energy

$$$$
8:0
     RDKit          3D

 58 61  0  0  0  0  0  0  0  0999 V2000
   -4.0390   18.6590  -33.5070 C   0  0  0  0  0  0  0  0  0  0  0  0
   -4.9970   19.6170  -32.8490 C   0  0  0  0  0  0  0  0  0  0  0  0
   -6.3780   19.3110  -32.8690 C   0  0  0  0  0  0  0  0  0  0  0  0
   -7.2590   20.2160  -32.2800 C   0  0  0  0  0  0  0  0  0  0  0  0
   -6.8250   21.3720  -31.6960 C   0  0  0  0  0  0  0  0  0  0  0  0
   -5.4770   21.7050  -31.6290 C   0  0  0  0  0  0  0  0  0  0  0  0
   -4.5400   20.8100  -32.1950 C   0  0  0  0  0  0  0  0  0  0  0  0
   -2.8250   21.2480  -32.1380 S   0  0  0  0  0  0  0  0  0  0  0  0
   -2.0600   20.2740  -31.2880 O   0  0  0  0  0  0  0  0  0  0  0  0
   -2.2360   21.2140  -33.5200 O   0  0  0  0  0  0  0  0  0  0  0  0
   -2.6770   22.8480  -31.4880 N   0  0  0  0  0  0  0  0  0  0  0  0
   -2.5640   23.0650  -30.0750 C   0  0  0  0  0  0  0  0  0  0  0  0
   -2.0420   22.0630  -29.2390 C   0  0  0  0  0  0  0  0  0  0  0  0
   -1.9230   22.2680  -27.8540 C   0  0  0  0  0  0  0  0  0  0  0  0
   -1.3040   21.2280  -26.9940 C   0  0  0  0  0  0  0  0  0  0  0  0
   -1.5040   21.2360  -25.7480 O   0  0  0  0  0  0  0  0  0  0  0  0
   -0.5230   20.1710  -27.5640 N   0  0  0  0  0  0  0  0  0  0  0  0
    0.8010   20.4520  -28.1210 C   0  0  0  0  0  0  0  0  0  0  0  0
    1.1480   19.4120  -29.1920 C   0  0  0  0  0  0  0  0  0  0  0  0
    1.0820   18.0290  -28.6690 N   0  0  0  0  0  0  0  0  0  0  0  0
    0.9650   16.8910  -29.9930 S   0  0  0  0  0  0  0  0  0  0  0  0
    2.4810   16.8210  -30.9340 C   0  0  0  0  0  0  0  0  0  0  0  0
   -0.1510   17.3080  -30.9070 O   0  0  0  0  0  0  0  0  0  0  0  0
    0.6610   15.5160  -29.4590 O   0  0  0  0  0  0  0  0  0  0  0  0
    0.0290   17.7810  -27.6530 C   0  0  0  0  0  0  0  0  0  0  0  0
   -1.0920   18.8280  -27.6680 C   0  0  0  0  0  0  0  0  0  0  0  0
   -2.3490   23.4920  -27.3080 C   0  0  0  0  0  0  0  0  0  0  0  0
   -2.8610   24.4950  -28.1370 C   0  0  0  0  0  0  0  0  0  0  0  0
   -2.9630   24.2890  -29.5160 C   0  0  0  0  0  0  0  0  0  0  0  0
   -3.4740   25.3000  -30.3230 O   0  0  0  0  0  0  0  0  0  0  0  0
   -7.8610   22.0510  -31.2570 O   0  0  0  0  0  0  0  0  0  0  0  0
   -8.9210   21.3200  -31.5640 C   0  0  0  0  0  0  0  0  0  0  0  0
  -10.1060   21.6700  -31.3020 O   0  0  0  0  0  0  0  0  0  0  0  0
   -8.6000   20.1610  -32.1940 N   0  0  0  0  0  0  0  0  0  0  0  0
   -9.4980   19.1260  -32.7120 C   0  0  0  0  0  0  0  0  0  0  0  0
   -3.4854   18.1054  -32.7343 H   0  0  0  0  0  0  0  0  0  0  0  0
   -4.6010   17.9509  -34.1336 H   0  0  0  0  0  0  0  0  0  0  0  0
   -3.3309   19.2211  -34.1336 H   0  0  0  0  0  0  0  0  0  0  0  0
   -6.7458   18.3855  -33.3360 H   0  0  0  0  0  0  0  0  0  0  0  0
   -5.1485   22.6387  -31.1491 H   0  0  0  0  0  0  0  0  0  0  0  0
   -2.9640   23.6410  -32.1020 H   0  0  0  0  0  0  0  0  0  0  0  0
   -1.7222   21.1051  -29.6750 H   0  0  0  0  0  0  0  0  0  0  0  0
    0.8012   21.4549  -28.5729 H   0  0  0  0  0  0  0  0  0  0  0  0
    1.5495   20.4065  -27.3162 H   0  0  0  0  0  0  0  0  0  0  0  0
    0.4365   19.5102  -30.0251 H   0  0  0  0  0  0  0  0  0  0  0  0
    2.1800   19.5993  -29.5234 H   0  0  0  0  0  0  0  0  0  0  0  0
    3.3382   16.7814  -30.2458 H   0  0  0  0  0  0  0  0  0  0  0  0
    2.4779   15.9220  -31.5679 H   0  0  0  0  0  0  0  0  0  0  0  0
    2.5608   17.7164  -31.5679 H   0  0  0  0  0  0  0  0  0  0  0  0
   -0.4145   16.7928  -27.8448 H   0  0  0  0  0  0  0  0  0  0  0  0
    0.5113   17.8363  -26.6659 H   0  0  0  0  0  0  0  0  0  0  0  0
   -1.6569   18.7435  -28.6081 H   0  0  0  0  0  0  0  0  0  0  0  0
   -1.7618   18.6523  -26.8133 H   0  0  0  0  0  0  0  0  0  0  0  0
   -2.2791   23.6612  -26.2233 H   0  0  0  0  0  0  0  0  0  0  0  0
   -3.1854   25.4516  -27.7016 H   0  0  0  0  0  0  0  0  0  0  0  0
   -9.9631   18.5899  -31.8716 H   0  0  0  0  0  0  0  0  0  0  0  0
  -10.2810   19.5940  -33.3267 H   0  0  0  0  0  0  0  0  0  0  0  0
   -8.9242   18.4168  -33.3267 H   0  0  0  0  0  0  0  0  0  0  0  0
  1  2  1  0
  2  3  2  0
  3  4  1  0
  4  5  2  0
  5  6  1  0
  6  7  2  0
  7  8  1  0
  8  9  2  0
  8 10  2  0
  8 11  1  0
 11 12  1  0
 12 13  2  0
 13 14  1  0
 14 15  1  0
 15 16  2  0
 15 17  1  0
 17 18  1  0
 18 19  1  0
 19 20  1  0
 20 21  1  0
 21 22  1  0
 21 23  2  0
 21 24  2  0
 20 25  1  0
 25 26  1  0
 14 27  2  0
 27 28  1  0
 28 29  2  0
 29 30  1  0
  5 31  1  0
 31 32  1  0
 32 33  2  0
 32 34  1  0
 34 35  1  0
  7  2  1  0
 29 12  1  0
 34  4  1  0
 26 17  1  0
  1 36  1  0
  1 37  1  0
  1 38  1  0
  3 39  1  0
  6 40  1  0
 11 41  1  0
 13 42  1  0
 18 43  1  0
 18 44  1  0
 19 45  1  0
 19 46  1  0
 22 47  1  0
 22 48  1  0
 22 49  1  0
 25 50  1  0
 25 51  1  0
 26 52  1  0
 26 53  1  0
 27 54  1  0
 28 55  1  0
 35 56  1  0
 35 57  1  0
 35 58  1  0
M  CHG  1  30  -1
M  END
>  <UniqueID>  (9) 
9

>  <SMILES>  (9) 
Cc1cc2c(cc1S(=O)(=O)Nc1cc(C(=O)N3CCN(S(C)(=O)=O)CC3)ccc1[O-])oc(=O)n2C

>  <Energy>  (9) 
115.14487956349555

>  <Genealogy>  (9) 
Cc1cc2c(cc1S(=O)(=O)Nc1cc(C(=O)N3CCN(S(C)(=O)=O)CC3)ccc1[O-])oc(=O)n2C (protonated)
Cc1cc2c(cc1S(=O)(=O)Nc1cc(C(=O)N3CCN(S(C)(=O)=O)CC3)ccc1[O-])oc(=O)n2C (3D coordinates assigned)
Cc1cc2c(cc1S(=O)(=O)Nc1cc(C(=O)N3CCN(S(C)(=O)=O)CC3)ccc1[O-])oc(=O)n2C (nonaromatic ring conformer: 115.14487956349555 kcal/mol)

>  <smiles>  (9) 
Cc1cc2c(cc1S(=O)(=O)Nc1cc(C(=O)N3CCN(S(C)(=O)=O)CC3)ccc1O)oc(=O)n2C

>  <score_type>  (9) 
oracle

>  <origin>  (9) 
adgpu

>  <m_score__min__energy>  (9) 
-12.789999999999999

>  <m_primary>  (9) 
energy

$$$$
9:0
     RDKit          3D

 51 53  0  0  0  0  0  0  0  0999 V2000
   -2.9330   15.8800  -34.0140 C   0  0  0  0  0  0  0  0  0  0  0  0
   -4.2130   16.5690  -33.7820 N   0  0  0  0  0  0  0  0  0  0  0  0
   -5.2760   15.5920  -33.4430 C   0  0  0  0  0  0  0  0  0  0  0  0
   -6.7020   16.0680  -33.8110 C   0  0  0  0  0  0  0  0  0  0  0  0
   -6.8550   17.5340  -33.8740 N   0  0  0  0  0  0  0  0  0  0  0  0
   -7.2250   18.2620  -32.3230 S   0  0  0  0  0  0  0  0  0  0  0  0
   -6.5290   17.5020  -31.2290 O   0  0  0  0  0  0  0  0  0  0  0  0
   -8.7060   18.1680  -32.0790 O   0  0  0  0  0  0  0  0  0  0  0  0
   -6.7420   19.9560  -32.2460 C   0  0  0  0  0  0  0  0  0  0  0  0
   -7.7110   20.9590  -32.1190 C   0  0  0  0  0  0  0  0  0  0  0  0
   -7.3270   22.2950  -31.9760 C   0  0  0  0  0  0  0  0  0  0  0  0
   -5.9650   22.6460  -31.9800 C   0  0  0  0  0  0  0  0  0  0  0  0
   -5.5260   23.9660  -31.7940 O   0  0  0  0  0  0  0  0  0  0  0  0
   -5.6100   24.6890  -30.5650 C   0  0  0  0  0  0  0  0  0  0  0  0
   -4.6820   24.0880  -29.5420 C   0  0  0  0  0  0  0  0  0  0  0  0
   -5.0080   22.8880  -28.8920 C   0  0  0  0  0  0  0  0  0  0  0  0
   -4.1250   22.3250  -27.9680 C   0  0  0  0  0  0  0  0  0  0  0  0
   -2.9110   22.9570  -27.6830 C   0  0  0  0  0  0  0  0  0  0  0  0
   -2.5760   24.1580  -28.3220 C   0  0  0  0  0  0  0  0  0  0  0  0
   -1.0520   24.9710  -27.9740 S   0  0  0  0  0  0  0  0  0  0  0  0
   -1.0490   26.5420  -28.6960 N   0  0  0  0  0  0  0  0  0  0  0  0
   -0.8830   25.0990  -26.4850 O   0  0  0  0  0  0  0  0  0  0  0  0
    0.0980   24.1780  -28.5290 O   0  0  0  0  0  0  0  0  0  0  0  0
   -3.4640   24.7220  -29.2470 C   0  0  0  0  0  0  0  0  0  0  0  0
   -5.0030   21.6470  -32.1660 C   0  0  0  0  0  0  0  0  0  0  0  0
   -5.3860   20.3090  -32.2940 C   0  0  0  0  0  0  0  0  0  0  0  0
   -5.8040   18.2540  -34.6260 C   0  0  0  0  0  0  0  0  0  0  0  0
   -4.5830   17.3810  -34.9530 C   0  0  0  0  0  0  0  0  0  0  0  0
   -2.4703   15.6309  -33.0477 H   0  0  0  0  0  0  0  0  0  0  0  0
   -3.1118   14.9563  -34.5839 H   0  0  0  0  0  0  0  0  0  0  0  0
   -2.2604   16.5380  -34.5839 H   0  0  0  0  0  0  0  0  0  0  0  0
   -4.0670   17.2090  -32.9660 H   0  0  0  0  0  0  0  0  0  0  0  0
   -5.0723   14.6561  -33.9840 H   0  0  0  0  0  0  0  0  0  0  0  0
   -5.2539   15.4603  -32.3511 H   0  0  0  0  0  0  0  0  0  0  0  0
   -6.9607   15.6519  -34.7959 H   0  0  0  0  0  0  0  0  0  0  0  0
   -7.3684   15.7157  -33.0098 H   0  0  0  0  0  0  0  0  0  0  0  0
   -8.7786   20.6942  -32.1319 H   0  0  0  0  0  0  0  0  0  0  0  0
   -8.0933   23.0756  -31.8598 H   0  0  0  0  0  0  0  0  0  0  0  0
   -5.3271   25.7374  -30.7404 H   0  0  0  0  0  0  0  0  0  0  0  0
   -6.6419   24.6359  -30.1878 H   0  0  0  0  0  0  0  0  0  0  0  0
   -5.9632   22.3885  -29.1112 H   0  0  0  0  0  0  0  0  0  0  0  0
   -4.3852   21.3827  -27.4636 H   0  0  0  0  0  0  0  0  0  0  0  0
   -2.2173   22.5104  -26.9555 H   0  0  0  0  0  0  0  0  0  0  0  0
   -1.2410   26.4160  -29.7150 H   0  0  0  0  0  0  0  0  0  0  0  0
   -3.2056   25.6678  -29.7457 H   0  0  0  0  0  0  0  0  0  0  0  0
   -3.9376   21.9167  -32.2118 H   0  0  0  0  0  0  0  0  0  0  0  0
   -4.6213   19.5306  -32.4328 H   0  0  0  0  0  0  0  0  0  0  0  0
   -6.2367   18.6164  -35.5701 H   0  0  0  0  0  0  0  0  0  0  0  0
   -5.4532   19.0777  -33.9869 H   0  0  0  0  0  0  0  0  0  0  0  0
   -4.8263   16.7159  -35.7947 H   0  0  0  0  0  0  0  0  0  0  0  0
   -3.7374   18.0311  -35.2218 H   0  0  0  0  0  0  0  0  0  0  0  0
  1  2  1  0
  2  3  1  0
  3  4  1  0
  4  5  1  0
  5  6  1  0
  6  7  2  0
  6  8  2  0
  6  9  1  0
  9 10  2  0
 10 11  1  0
 11 12  2  0
 12 13  1  0
 13 14  1  0
 14 15  1  0
 15 16  2  0
 16 17  1  0
 17 18  2  0
 18 19  1  0
 19 20  1  0
 20 21  1  0
 20 22  2  0
 20 23  2  0
 19 24  2  0
 12 25  1  0
 25 26  2  0
  5 27  1  0
 27 28  1  0
 28  2  1  0
 26  9  1  0
 24 15  1  0
  1 29  1  0
  1 30  1  0
  1 31  1  0
  2 32  1  0
  3 33  1  0
  3 34  1  0
  4 35  1  0
  4 36  1  0
 10 37  1  0
 11 38  1  0
 14 39  1  0
 14 40  1  0
 16 41  1  0
 17 42  1  0
 18 43  1  0
 21 44  1  0
 24 45  1  0
 25 46  1  0
 26 47  1  0
 27 48  1  0
 27 49  1  0
 28 50  1  0
 28 51  1  0
M  CHG  2   2   1  21  -1
M  END
>  <UniqueID>  (10) 
10

>  <SMILES>  (10) 
C[NH+]1CCN(S(=O)(=O)c2ccc(OCc3cccc(S([NH-])(=O)=O)c3)cc2)CC1

>  <Energy>  (10) 
60.48375249946083

>  <Genealogy>  (10) 
C[NH+]1CCN(S(=O)(=O)c2ccc(OCc3cccc(S([NH-])(=O)=O)c3)cc2)CC1 (protonated)
C[NH+]1CCN(S(=O)(=O)c2ccc(OCc3cccc(S([NH-])(=O)=O)c3)cc2)CC1 (3D coordinates assigned)
C[NH+]1CCN(S(=O)(=O)c2ccc(OCc3cccc(S([NH-])(=O)=O)c3)cc2)CC1 (nonaromatic ring conformer: 60.48375249946083 kcal/mol)

>  <smiles>  (10) 
CN1CCN(S(=O)(=O)c2ccc(OCc3cccc(S(N)(=O)=O)c3)cc2)CC1

>  <score_type>  (10) 
oracle

>  <origin>  (10) 
adgpu

>  <m_score__min__energy>  (10) 
-10.84

>  <m_primary>  (10) 
energy

$$$$
10:0
     RDKit          3D

 61 65  0  0  0  0  0  0  0  0999 V2000
   -6.6470   24.5810  -29.7570 O   0  0  0  0  0  0  0  0  0  0  0  0
   -5.2950   24.7210  -30.3970 S   0  0  0  0  0  0  0  0  0  0  0  0
   -4.9470   26.1810  -30.4670 O   0  0  0  0  0  0  0  0  0  0  0  0
   -5.3550   24.0750  -32.0040 N   0  0  0  0  0  0  0  0  0  0  0  0
   -5.4800   22.6720  -32.2580 C   0  0  0  0  0  0  0  0  0  0  0  0
   -4.3520   21.9330  -32.6350 C   0  0  0  0  0  0  0  0  0  0  0  0
   -4.4510   20.5640  -32.8840 C   0  0  0  0  0  0  0  0  0  0  0  0
   -5.6830   19.9100  -32.7790 C   0  0  0  0  0  0  0  0  0  0  0  0
   -5.7540   18.5030  -33.0430 N   0  0  0  0  0  0  0  0  0  0  0  0
   -6.0890   18.0440  -34.3910 C   0  0  0  0  0  0  0  0  0  0  0  0
   -5.5500   16.6240  -34.5940 C   0  0  0  0  0  0  0  0  0  0  0  0
   -5.9740   15.7690  -33.5490 O   0  0  0  0  0  0  0  0  0  0  0  0
   -5.4120   16.1930  -32.3200 C   0  0  0  0  0  0  0  0  0  0  0  0
   -5.9400   17.5760  -31.9280 C   0  0  0  0  0  0  0  0  0  0  0  0
   -6.8390   20.6410  -32.4300 C   0  0  0  0  0  0  0  0  0  0  0  0
   -8.0940   20.0100  -32.3310 C   0  0  0  0  0  0  0  0  0  0  0  0
   -9.2290   20.7450  -31.9860 C   0  0  0  0  0  0  0  0  0  0  0  0
   -9.1300   22.1130  -31.7320 C   0  0  0  0  0  0  0  0  0  0  0  0
   -7.8950   22.7570  -31.8220 C   0  0  0  0  0  0  0  0  0  0  0  0
   -6.7380   22.0350  -32.1720 C   0  0  0  0  0  0  0  0  0  0  0  0
   -4.0780   23.8900  -29.4360 C   0  0  0  0  0  0  0  0  0  0  0  0
   -4.1670   22.5090  -29.2190 C   0  0  0  0  0  0  0  0  0  0  0  0
   -3.1590   21.8430  -28.5160 C   0  0  0  0  0  0  0  0  0  0  0  0
   -2.0520   22.5500  -28.0370 C   0  0  0  0  0  0  0  0  0  0  0  0
   -1.9540   23.9320  -28.2560 C   0  0  0  0  0  0  0  0  0  0  0  0
   -0.5300   24.8300  -27.7360 S   0  0  0  0  0  0  0  0  0  0  0  0
   -0.6030   26.2490  -28.2300 O   0  0  0  0  0  0  0  0  0  0  0  0
    0.6880   24.1740  -28.3260 O   0  0  0  0  0  0  0  0  0  0  0  0
   -0.4290   24.8080  -25.9890 N   0  0  0  0  0  0  0  0  0  0  0  0
   -1.6850   25.2620  -25.3780 C   0  0  0  0  0  0  0  0  0  0  0  0
   -1.5520   26.7540  -25.1030 C   0  0  0  0  0  0  0  0  0  0  0  0
   -0.0650   27.0540  -25.1810 C   0  0  0  0  0  0  0  0  0  0  0  0
    0.6090   25.7290  -25.5090 C   0  0  0  0  0  0  0  0  0  0  0  0
   -2.9730   24.5990  -28.9460 C   0  0  0  0  0  0  0  0  0  0  0  0
   -3.3792   22.4364  -32.7357 H   0  0  0  0  0  0  0  0  0  0  0  0
   -3.5530   19.9942  -33.1652 H   0  0  0  0  0  0  0  0  0  0  0  0
   -7.1817   18.0433  -34.5174 H   0  0  0  0  0  0  0  0  0  0  0  0
   -5.6353   18.7185  -35.1321 H   0  0  0  0  0  0  0  0  0  0  0  0
   -5.9201   16.2319  -35.5528 H   0  0  0  0  0  0  0  0  0  0  0  0
   -4.4506   16.6618  -34.5932 H   0  0  0  0  0  0  0  0  0  0  0  0
   -5.6765   15.4701  -31.5342 H   0  0  0  0  0  0  0  0  0  0  0  0
   -4.3196   16.2524  -32.4341 H   0  0  0  0  0  0  0  0  0  0  0  0
   -7.0105   17.5045  -31.6854 H   0  0  0  0  0  0  0  0  0  0  0  0
   -5.3886   17.9435  -31.0500 H   0  0  0  0  0  0  0  0  0  0  0  0
   -8.1802   18.9310  -32.5268 H   0  0  0  0  0  0  0  0  0  0  0  0
  -10.2055   20.2436  -31.9141 H   0  0  0  0  0  0  0  0  0  0  0  0
  -10.0285   22.6863  -31.4598 H   0  0  0  0  0  0  0  0  0  0  0  0
   -7.8251   23.8357  -31.6182 H   0  0  0  0  0  0  0  0  0  0  0  0
   -5.0317   21.9476  -29.6025 H   0  0  0  0  0  0  0  0  0  0  0  0
   -3.2369   20.7601  -28.3392 H   0  0  0  0  0  0  0  0  0  0  0  0
   -1.2579   22.0224  -27.4884 H   0  0  0  0  0  0  0  0  0  0  0  0
   -0.2120   23.8300  -25.6830 H   0  0  0  0  0  0  0  0  0  0  0  0
   -2.5236   25.0810  -26.0664 H   0  0  0  0  0  0  0  0  0  0  0  0
   -1.8802   24.7136  -24.4446 H   0  0  0  0  0  0  0  0  0  0  0  0
   -2.1007   27.3341  -25.8596 H   0  0  0  0  0  0  0  0  0  0  0  0
   -1.9707   27.0256  -24.1227 H   0  0  0  0  0  0  0  0  0  0  0  0
    0.1359   27.7920  -25.9716 H   0  0  0  0  0  0  0  0  0  0  0  0
    0.3124   27.4778  -24.2387 H   0  0  0  0  0  0  0  0  0  0  0  0
    1.3684   25.8782  -26.2907 H   0  0  0  0  0  0  0  0  0  0  0  0
    1.1068   25.3185  -24.6181 H   0  0  0  0  0  0  0  0  0  0  0  0
   -2.9060   25.6855  -29.1044 H   0  0  0  0  0  0  0  0  0  0  0  0
  1  2  2  0
  2  3  2  0
  2  4  1  0
  4  5  1  0
  5  6  2  0
  6  7  1  0
  7  8  2  0
  8  9  1  0
  9 10  1  0
 10 11  1  0
 11 12  1  0
 12 13  1  0
 13 14  1  0
  8 15  1  0
 15 16  2  0
 16 17  1  0
 17 18  2  0
 18 19  1  0
 19 20  2  0
  2 21  1  0
 21 22  2  0
 22 23  1  0
 23 24  2  0
 24 25  1  0
 25 26  1  0
 26 27  2  0
 26 28  2  0
 26 29  1  0
 29 30  1  0
 30 31  1  0
 31 32  1  0
 32 33  1  0
 25 34  2  0
 20  5  1  0
 34 21  1  0
 14  9  1  0
 20 15  1  0
 33 29  1  0
  6 35  1  0
  7 36  1  0
 10 37  1  0
 10 38  1  0
 11 39  1  0
 11 40  1  0
 13 41  1  0
 13 42  1  0
 14 43  1  0
 14 44  1  0
 16 45  1  0
 17 46  1  0
 18 47  1  0
 19 48  1  0
 22 49  1  0
 23 50  1  0
 24 51  1  0
 29 52  1  0
 30 53  1  0
 30 54  1  0
 31 55  1  0
 31 56  1  0
 32 57  1  0
 32 58  1  0
 33 59  1  0
 33 60  1  0
 34 61  1  0
M  CHG  2   4  -1  29   1
M  END
>  <UniqueID>  (11) 
11

>  <SMILES>  (11) 
O=S(=O)([N-]c1ccc(N2CCOCC2)c2ccccc12)c1cccc(S(=O)(=O)[NH+]2CCCC2)c1

>  <Energy>  (11) 
84.98536660508108

>  <Genealogy>  (11) 
O=S(=O)([N-]c1ccc(N2CCOCC2)c2ccccc12)c1cccc(S(=O)(=O)[NH+]2CCCC2)c1 (protonated)
O=S(=O)([N-]c1ccc(N2CCOCC2)c2ccccc12)c1cccc(S(=O)(=O)[NH+]2CCCC2)c1 (3D coordinates assigned)
O=S(=O)([N-]c1ccc(N2CCOCC2)c2ccccc12)c1cccc(S(=O)(=O)[NH+]2CCCC2)c1 (nonaromatic ring conformer: 84.98536660508108 kcal/mol)

>  <smiles>  (11) 
O=S(=O)(Nc1ccc(N2CCOCC2)c2ccccc12)c1cccc(S(=O)(=O)N2CCCC2)c1

>  <score_type>  (11) 
oracle

>  <origin>  (11) 
adgpu

>  <m_score__min__energy>  (11) 
-11.85

>  <m_primary>  (11) 
energy

$$$$
11:0
     RDKit          3D

 50 53  0  0  0  0  0  0  0  0999 V2000
   -8.7870   21.8580  -30.9050 C   0  0  0  0  0  0  0  0  0  0  0  0
   -7.4930   21.6440  -31.6210 C   0  0  0  0  0  0  0  0  0  0  0  0
   -7.2600   20.6130  -32.4570 N   0  0  0  0  0  0  0  0  0  0  0  0
   -6.0420   20.7470  -32.8980 O   0  0  0  0  0  0  0  0  0  0  0  0
   -5.4660   21.8110  -32.3870 C   0  0  0  0  0  0  0  0  0  0  0  0
   -4.0810   22.2590  -32.7220 C   0  0  0  0  0  0  0  0  0  0  0  0
   -6.3620   22.4350  -31.5410 C   0  0  0  0  0  0  0  0  0  0  0  0
   -6.1780   23.7190  -30.7840 C   0  0  0  0  0  0  0  0  0  0  0  0
   -4.8380   23.7730  -30.2000 N   0  0  0  0  0  0  0  0  0  0  0  0
   -4.2400   22.7870  -29.4940 C   0  0  0  0  0  0  0  0  0  0  0  0
   -2.9900   23.2130  -29.0620 C   0  0  0  0  0  0  0  0  0  0  0  0
   -2.0670   22.4740  -28.2350 N   0  0  0  0  0  0  0  0  0  0  0  0
   -0.6350   22.8070  -28.2110 C   0  0  0  0  0  0  0  0  0  0  0  0
    0.1870   21.5750  -28.6030 C   0  0  0  0  0  0  0  0  0  0  0  0
   -0.3280   20.3600  -27.9480 N   0  0  0  0  0  0  0  0  0  0  0  0
    0.1480   19.0670  -28.3710 C   0  0  0  0  0  0  0  0  0  0  0  0
    0.6250   18.8770  -29.6790 C   0  0  0  0  0  0  0  0  0  0  0  0
    1.1010   17.6260  -30.0840 C   0  0  0  0  0  0  0  0  0  0  0  0
    1.1090   16.5520  -29.1850 C   0  0  0  0  0  0  0  0  0  0  0  0
    1.5800   15.3000  -29.5770 O   0  0  0  0  0  0  0  0  0  0  0  0
    0.6440   16.7370  -27.8800 C   0  0  0  0  0  0  0  0  0  0  0  0
    0.1690   17.9870  -27.4720 C   0  0  0  0  0  0  0  0  0  0  0  0
   -1.3730   20.4780  -26.9220 C   0  0  0  0  0  0  0  0  0  0  0  0
   -2.5420   21.3100  -27.4670 C   0  0  0  0  0  0  0  0  0  0  0  0
   -2.8420   24.5120  -29.5220 C   0  0  0  0  0  0  0  0  0  0  0  0
   -1.7540   25.3540  -29.3330 O   0  0  0  0  0  0  0  0  0  0  0  0
   -3.9880   24.8190  -30.2160 C   0  0  0  0  0  0  0  0  0  0  0  0
   -4.2460   26.0330  -30.8420 O   0  0  0  0  0  0  0  0  0  0  0  0
   -8.6142   21.8294  -29.8190 H   0  0  0  0  0  0  0  0  0  0  0  0
   -9.2031   22.8372  -31.1845 H   0  0  0  0  0  0  0  0  0  0  0  0
   -9.4962   21.0649  -31.1845 H   0  0  0  0  0  0  0  0  0  0  0  0
   -3.5197   22.4406  -31.7936 H   0  0  0  0  0  0  0  0  0  0  0  0
   -3.5752   21.4786  -33.3096 H   0  0  0  0  0  0  0  0  0  0  0  0
   -4.1281   23.1877  -33.3096 H   0  0  0  0  0  0  0  0  0  0  0  0
   -6.3095   24.5680  -31.4710 H   0  0  0  0  0  0  0  0  0  0  0  0
   -6.9238   23.7702  -29.9770 H   0  0  0  0  0  0  0  0  0  0  0  0
   -4.6768   21.7978  -29.2923 H   0  0  0  0  0  0  0  0  0  0  0  0
   -0.4367   23.6211  -28.9237 H   0  0  0  0  0  0  0  0  0  0  0  0
   -0.3518   23.1271  -27.1974 H   0  0  0  0  0  0  0  0  0  0  0  0
    0.1374   21.4429  -29.6939 H   0  0  0  0  0  0  0  0  0  0  0  0
    1.2261   21.7319  -28.2780 H   0  0  0  0  0  0  0  0  0  0  0  0
    0.6240   19.7174  -30.3887 H   0  0  0  0  0  0  0  0  0  0  0  0
    1.4699   17.4852  -31.1107 H   0  0  0  0  0  0  0  0  0  0  0  0
    1.7780   14.5730  -28.8990 H   0  0  0  0  0  0  0  0  0  0  0  0
    0.6518   15.8958  -27.1712 H   0  0  0  0  0  0  0  0  0  0  0  0
   -0.1903   18.1259  -26.4417 H   0  0  0  0  0  0  0  0  0  0  0  0
   -1.7336   19.4749  -26.6504 H   0  0  0  0  0  0  0  0  0  0  0  0
   -0.9562   20.9742  -26.0331 H   0  0  0  0  0  0  0  0  0  0  0  0
   -3.1562   20.6758  -28.1231 H   0  0  0  0  0  0  0  0  0  0  0  0
   -3.1303   21.6776  -26.6133 H   0  0  0  0  0  0  0  0  0  0  0  0
  1  2  1  0
  2  3  2  0
  3  4  1  0
  4  5  1  0
  5  6  1  0
  5  7  2  0
  7  8  1  0
  8  9  1  0
  9 10  1  0
 10 11  2  0
 11 12  1  0
 12 13  1  0
 13 14  1  0
 14 15  1  0
 15 16  1  0
 16 17  2  0
 17 18  1  0
 18 19  2  0
 19 20  1  0
 19 21  1  0
 21 22  2  0
 15 23  1  0
 23 24  1  0
 11 25  1  0
 25 26  1  0
 25 27  2  0
 27 28  1  0
  7  2  1  0
 27  9  1  0
 24 12  1  0
 22 16  1  0
  1 29  1  0
  1 30  1  0
  1 31  1  0
  6 32  1  0
  6 33  1  0
  6 34  1  0
  8 35  1  0
  8 36  1  0
 10 37  1  0
 13 38  1  0
 13 39  1  0
 14 40  1  0
 14 41  1  0
 17 42  1  0
 18 43  1  0
 20 44  1  0
 21 45  1  0
 22 46  1  0
 23 47  1  0
 23 48  1  0
 24 49  1  0
 24 50  1  0
M  CHG  2  26  -1  28  -1
M  END
>  <UniqueID>  (12) 
12

>  <SMILES>  (12) 
Cc1noc(C)c1Cn1cc(N2CCN(c3ccc(O)cc3)CC2)c([O-])c1[O-]

>  <Energy>  (12) 
116.15597634285116

>  <Genealogy>  (12) 
Cc1noc(C)c1Cn1cc(N2CCN(c3ccc(O)cc3)CC2)c([O-])c1[O-] (protonated)
Cc1noc(C)c1Cn1cc(N2CCN(c3ccc(O)cc3)CC2)c([O-])c1[O-] (3D coordinates assigned)
Cc1noc(C)c1Cn1cc(N2CCN(c3ccc(O)cc3)CC2)c([O-])c1[O-] (nonaromatic ring conformer: 116.15597634285116 kcal/mol)

>  <smiles>  (12) 
Cc1noc(C)c1Cn1cc(N2CCN(c3ccc(O)cc3)CC2)c(O)c1O

>  <score_type>  (12) 
oracle

>  <origin>  (12) 
adgpu

>  <m_score__min__energy>  (12) 
-13.32

>  <m_primary>  (12) 
energy

$$$$
12:0
     RDKit          3D

 57 60  0  0  0  0  0  0  0  0999 V2000
   -3.8770   25.0670  -30.8140 O   0  0  0  0  0  0  0  0  0  0  0  0
   -4.0170   23.8720  -30.4410 C   0  0  0  0  0  0  0  0  0  0  0  0
   -5.2990   23.4640  -29.9430 N   0  0  0  0  0  0  0  0  0  0  0  0
   -6.3570   22.8870  -30.7110 C   0  0  0  0  0  0  0  0  0  0  0  0
   -7.3960   23.6890  -31.2020 C   0  0  0  0  0  0  0  0  0  0  0  0
   -8.4060   23.1230  -31.9850 C   0  0  0  0  0  0  0  0  0  0  0  0
   -8.3700   21.7600  -32.2960 C   0  0  0  0  0  0  0  0  0  0  0  0
   -7.3130   20.9600  -31.8420 C   0  0  0  0  0  0  0  0  0  0  0  0
   -7.2630   19.2390  -32.2390 S   0  0  0  0  0  0  0  0  0  0  0  0
   -8.4830   18.8870  -33.0440 O   0  0  0  0  0  0  0  0  0  0  0  0
   -7.3010   18.4410  -30.9640 O   0  0  0  0  0  0  0  0  0  0  0  0
   -5.8340   18.7970  -33.1440 N   0  0  0  0  0  0  0  0  0  0  0  0
   -5.2540   17.5330  -32.6920 C   0  0  0  0  0  0  0  0  0  0  0  0
   -4.4820   16.9640  -33.8740 C   0  0  0  0  0  0  0  0  0  0  0  0
   -5.0420   17.6720  -35.1010 C   0  0  0  0  0  0  0  0  0  0  0  0
   -6.1090   18.6180  -34.5720 C   0  0  0  0  0  0  0  0  0  0  0  0
   -6.3040   21.5320  -31.0520 C   0  0  0  0  0  0  0  0  0  0  0  0
   -2.9200   22.9090  -30.7090 C   0  0  0  0  0  0  0  0  0  0  0  0
   -1.7240   22.8990  -29.9690 C   0  0  0  0  0  0  0  0  0  0  0  0
   -0.7180   21.9770  -30.2620 C   0  0  0  0  0  0  0  0  0  0  0  0
   -0.8840   21.0540  -31.2950 C   0  0  0  0  0  0  0  0  0  0  0  0
    0.1130   20.1750  -31.5700 F   0  0  0  0  0  0  0  0  0  0  0  0
   -2.0670   21.0500  -32.0480 C   0  0  0  0  0  0  0  0  0  0  0  0
   -2.2700   19.9050  -33.3730 S   0  0  0  0  0  0  0  0  0  0  0  0
   -3.6690   19.9910  -33.9190 O   0  0  0  0  0  0  0  0  0  0  0  0
   -2.0480   18.5120  -32.8480 O   0  0  0  0  0  0  0  0  0  0  0  0
   -1.1120   20.2520  -34.6300 N   0  0  0  0  0  0  0  0  0  0  0  0
   -0.0840   19.2000  -34.6720 C   0  0  0  0  0  0  0  0  0  0  0  0
    1.0440   19.5770  -35.6550 C   0  0  0  0  0  0  0  0  0  0  0  0
    0.7460   20.7720  -36.3530 O   0  0  0  0  0  0  0  0  0  0  0  0
    0.6120   21.8390  -35.4330 C   0  0  0  0  0  0  0  0  0  0  0  0
   -0.4850   21.5600  -34.3830 C   0  0  0  0  0  0  0  0  0  0  0  0
   -3.0730   21.9850  -31.7590 C   0  0  0  0  0  0  0  0  0  0  0  0
   -7.4167   24.7643  -30.9711 H   0  0  0  0  0  0  0  0  0  0  0  0
   -9.2297   23.7500  -32.3569 H   0  0  0  0  0  0  0  0  0  0  0  0
   -9.1745   21.3142  -32.8993 H   0  0  0  0  0  0  0  0  0  0  0  0
   -5.1250   19.5590  -33.0270 H   0  0  0  0  0  0  0  0  0  0  0  0
   -4.5756   17.7080  -31.8439 H   0  0  0  0  0  0  0  0  0  0  0  0
   -6.0347   16.8356  -32.3542 H   0  0  0  0  0  0  0  0  0  0  0  0
   -3.4070   17.1711  -33.7673 H   0  0  0  0  0  0  0  0  0  0  0  0
   -4.5910   15.8718  -33.9464 H   0  0  0  0  0  0  0  0  0  0  0  0
   -4.2493   18.2353  -35.6151 H   0  0  0  0  0  0  0  0  0  0  0  0
   -5.4536   16.9596  -35.8311 H   0  0  0  0  0  0  0  0  0  0  0  0
   -6.0528   19.5846  -35.0941 H   0  0  0  0  0  0  0  0  0  0  0  0
   -7.1180   18.2114  -34.7353 H   0  0  0  0  0  0  0  0  0  0  0  0
   -5.4672   20.9113  -30.6993 H   0  0  0  0  0  0  0  0  0  0  0  0
   -1.5804   23.6231  -29.1534 H   0  0  0  0  0  0  0  0  0  0  0  0
    0.2120   21.9781  -29.6745 H   0  0  0  0  0  0  0  0  0  0  0  0
    0.3420   19.0714  -33.6660 H   0  0  0  0  0  0  0  0  0  0  0  0
   -0.5505   18.2637  -35.0121 H   0  0  0  0  0  0  0  0  0  0  0  0
    1.9781   19.7160  -35.0909 H   0  0  0  0  0  0  0  0  0  0  0  0
    1.1474   18.7648  -36.3896 H   0  0  0  0  0  0  0  0  0  0  0  0
    1.5714   21.9843  -34.9149 H   0  0  0  0  0  0  0  0  0  0  0  0
    0.3243   22.7396  -35.9953 H   0  0  0  0  0  0  0  0  0  0  0  0
   -0.0348   21.5622  -33.3794 H   0  0  0  0  0  0  0  0  0  0  0  0
   -1.2542   22.3431  -34.4545 H   0  0  0  0  0  0  0  0  0  0  0  0
   -3.9933   21.9956  -32.3614 H   0  0  0  0  0  0  0  0  0  0  0  0
  1  2  2  0
  2  3  1  0
  3  4  1  0
  4  5  2  0
  5  6  1  0
  6  7  2  0
  7  8  1  0
  8  9  1  0
  9 10  2  0
  9 11  2  0
  9 12  1  0
 12 13  1  0
 13 14  1  0
 14 15  1  0
 15 16  1  0
  8 17  2  0
  2 18  1  0
 18 19  2  0
 19 20  1  0
 20 21  2  0
 21 22  1  0
 21 23  1  0
 23 24  1  0
 24 25  2  0
 24 26  2  0
 24 27  1  0
 27 28  1  0
 28 29  1  0
 29 30  1  0
 30 31  1  0
 31 32  1  0
 23 33  2  0
 17  4  1  0
 33 18  1  0
 16 12  1  0
 32 27  1  0
  5 34  1  0
  6 35  1  0
  7 36  1  0
 12 37  1  0
 13 38  1  0
 13 39  1  0
 14 40  1  0
 14 41  1  0
 15 42  1  0
 15 43  1  0
 16 44  1  0
 16 45  1  0
 17 46  1  0
 19 47  1  0
 20 48  1  0
 28 49  1  0
 28 50  1  0
 29 51  1  0
 29 52  1  0
 31 53  1  0
 31 54  1  0
 32 55  1  0
 32 56  1  0
 33 57  1  0
M  CHG  2   3  -1  12   1
M  END
>  <UniqueID>  (13) 
13

>  <SMILES>  (13) 
O=C([N-]c1cccc(S(=O)(=O)[NH+]2CCCC2)c1)c1ccc(F)c(S(=O)(=O)N2CCOCC2)c1

>  <Energy>  (13) 
83.80175537667009

>  <Genealogy>  (13) 
O=C([N-]c1cccc(S(=O)(=O)[NH+]2CCCC2)c1)c1ccc(F)c(S(=O)(=O)N2CCOCC2)c1 (protonated)
O=C([N-]c1cccc(S(=O)(=O)[NH+]2CCCC2)c1)c1ccc(F)c(S(=O)(=O)N2CCOCC2)c1 (3D coordinates assigned)
O=C([N-]c1cccc(S(=O)(=O)[NH+]2CCCC2)c1)c1ccc(F)c(S(=O)(=O)N2CCOCC2)c1 (nonaromatic ring conformer: 83.80175537667009 kcal/mol)

>  <smiles>  (13) 
O=C(Nc1cccc(S(=O)(=O)N2CCCC2)c1)c1ccc(F)c(S(=O)(=O)N2CCOCC2)c1

>  <score_type>  (13) 
oracle

>  <origin>  (13) 
adgpu

>  <m_score__min__energy>  (13) 
-11.890000000000001

>  <m_primary>  (13) 
energy

$$$$
13:0
     RDKit          3D

 39 41  0  0  0  0  0  0  0  0999 V2000
   -2.9550   21.3230  -33.4720 C   0  0  0  0  0  0  0  0  0  0  0  0
   -3.8270   20.2010  -33.4030 O   0  0  0  0  0  0  0  0  0  0  0  0
   -3.4060   18.8690  -33.2610 C   0  0  0  0  0  0  0  0  0  0  0  0
   -2.0680   18.5490  -32.9540 C   0  0  0  0  0  0  0  0  0  0  0  0
   -1.6580   17.2170  -32.8700 C   0  0  0  0  0  0  0  0  0  0  0  0
   -2.5780   16.1880  -33.0770 C   0  0  0  0  0  0  0  0  0  0  0  0
   -2.0060   14.3680  -32.9940 Br  0  0  0  0  0  0  0  0  0  0  0  0
   -3.9120   16.4910  -33.3540 C   0  0  0  0  0  0  0  0  0  0  0  0
   -4.3380   17.8240  -33.4430 C   0  0  0  0  0  0  0  0  0  0  0  0
   -6.0310   18.1410  -33.8530 S   0  0  0  0  0  0  0  0  0  0  0  0
   -6.4960   17.2470  -34.9690 O   0  0  0  0  0  0  0  0  0  0  0  0
   -6.1520   19.5640  -34.3170 O   0  0  0  0  0  0  0  0  0  0  0  0
   -7.0570   17.9140  -32.4660 N   0  0  0  0  0  0  0  0  0  0  0  0
   -8.1320   18.9070  -32.4350 C   0  0  0  0  0  0  0  0  0  0  0  0
   -7.6240   20.2270  -31.9290 C   0  0  0  0  0  0  0  0  0  0  0  0
   -8.4530   21.1140  -31.5910 O   0  0  0  0  0  0  0  0  0  0  0  0
   -6.2080   20.4660  -31.8420 N   0  0  0  0  0  0  0  0  0  0  0  0
   -5.6160   21.7280  -31.4860 C   0  0  0  0  0  0  0  0  0  0  0  0
   -6.2080   22.9250  -31.9660 C   0  0  0  0  0  0  0  0  0  0  0  0
   -5.6720   24.1810  -31.6310 C   0  0  0  0  0  0  0  0  0  0  0  0
   -4.5320   24.2060  -30.8360 C   0  0  0  0  0  0  0  0  0  0  0  0
   -3.8530   25.2820  -30.4100 N   0  0  0  0  0  0  0  0  0  0  0  0
   -2.8400   24.7150  -29.7050 C   0  0  0  0  0  0  0  0  0  0  0  0
   -1.9570   25.4000  -29.1270 O   0  0  0  0  0  0  0  0  0  0  0  0
   -2.8460   23.3580  -29.6710 N   0  0  0  0  0  0  0  0  0  0  0  0
   -3.9350   23.0640  -30.3970 C   0  0  0  0  0  0  0  0  0  0  0  0
   -4.4360   21.8020  -30.7060 C   0  0  0  0  0  0  0  0  0  0  0  0
   -2.6994   21.6519  -32.4539 H   0  0  0  0  0  0  0  0  0  0  0  0
   -2.0365   21.0412  -34.0077 H   0  0  0  0  0  0  0  0  0  0  0  0
   -3.4548   22.1435  -34.0077 H   0  0  0  0  0  0  0  0  0  0  0  0
   -1.3407   19.3555  -32.7791 H   0  0  0  0  0  0  0  0  0  0  0  0
   -0.6090   16.9783  -32.6405 H   0  0  0  0  0  0  0  0  0  0  0  0
   -4.6359   15.6765  -33.5039 H   0  0  0  0  0  0  0  0  0  0  0  0
   -8.5300   19.0395  -33.4519 H   0  0  0  0  0  0  0  0  0  0  0  0
   -8.9223   18.5503  -31.7581 H   0  0  0  0  0  0  0  0  0  0  0  0
   -5.5730   19.7260  -32.2190 H   0  0  0  0  0  0  0  0  0  0  0  0
   -7.0987   22.8695  -32.6091 H   0  0  0  0  0  0  0  0  0  0  0  0
   -6.1387   25.1117  -31.9858 H   0  0  0  0  0  0  0  0  0  0  0  0
   -3.9307   20.8902  -30.3550 H   0  0  0  0  0  0  0  0  0  0  0  0
  1  2  1  0
  2  3  1  0
  3  4  2  0
  4  5  1  0
  5  6  2  0
  6  7  1  0
  6  8  1  0
  8  9  2  0
  9 10  1  0
 10 11  2  0
 10 12  2  0
 10 13  1  0
 13 14  1  0
 14 15  1  0
 15 16  2  0
 15 17  1  0
 17 18  1  0
 18 19  2  0
 19 20  1  0
 20 21  2  0
 21 22  1  0
 22 23  1  0
 23 24  2  0
 23 25  1  0
 25 26  1  0
 26 27  2  0
  9  3  1  0
 27 18  1  0
 26 21  1  0
  1 28  1  0
  1 29  1  0
  1 30  1  0
  4 31  1  0
  5 32  1  0
  8 33  1  0
 14 34  1  0
 14 35  1  0
 17 36  1  0
 19 37  1  0
 20 38  1  0
 27 39  1  0
M  CHG  3  13  -1  22  -1  25  -1
M  END
>  <UniqueID>  (14) 
14

>  <SMILES>  (14) 
COc1ccc(Br)cc1S(=O)(=O)[N-]CC(=O)Nc1ccc2[n-]c(=O)[n-]c2c1

>  <Energy>  (14) 
74.88100132998757

>  <Genealogy>  (14) 
COc1ccc(Br)cc1S(=O)(=O)[N-]CC(=O)Nc1ccc2[n-]c(=O)[n-]c2c1 (protonated)
COc1ccc(Br)cc1S(=O)(=O)[N-]CC(=O)Nc1ccc2[n-]c(=O)[n-]c2c1 (3D coordinates assigned)
COc1ccc(Br)cc1S(=O)(=O)[N-]CC(=O)Nc1ccc2[n-]c(=O)[n-]c2c1 (optimized conformer: 74.88100132998757 kcal/mol)

>  <smiles>  (14) 
COc1ccc(Br)cc1S(=O)(=O)NCC(=O)Nc1ccc2[nH]c(=O)[nH]c2c1

>  <score_type>  (14) 
oracle

>  <origin>  (14) 
adgpu

>  <m_score__min__energy>  (14) 
-11.08

>  <m_primary>  (14) 
energy

$$$$
14:0
     RDKit          3D

 46 49  0  0  0  0  0  0  0  0999 V2000
   -6.5210   19.3850  -33.9210 C   0  0  0  0  0  0  0  0  0  0  0  0
   -7.0240   19.4890  -32.4760 C   0  0  2  0  0  0  0  0  0  0  0  0
   -8.5550   19.7150  -32.4190 C   0  0  0  0  0  0  0  0  0  0  0  0
   -8.7830   21.1800  -32.0040 C   0  0  0  0  0  0  0  0  0  0  0  0
   -7.4460   21.6330  -31.5590 C   0  0  0  0  0  0  0  0  0  0  0  0
   -7.1300   22.8740  -31.0050 C   0  0  0  0  0  0  0  0  0  0  0  0
   -5.7870   23.1630  -30.7030 C   0  0  0  0  0  0  0  0  0  0  0  0
   -5.3460   24.7930  -30.1970 S   0  0  0  0  0  0  0  0  0  0  0  0
   -4.4170   25.3820  -31.2190 O   0  0  0  0  0  0  0  0  0  0  0  0
   -6.5680   25.6600  -30.0810 O   0  0  0  0  0  0  0  0  0  0  0  0
   -4.5490   24.7250  -28.6560 N   0  0  0  0  0  0  0  0  0  0  0  0
   -3.3830   23.9130  -28.4390 C   0  0  0  0  0  0  0  0  0  0  0  0
   -3.5000   22.6220  -27.8950 C   0  0  0  0  0  0  0  0  0  0  0  0
   -2.3840   21.7820  -27.7950 C   0  0  0  0  0  0  0  0  0  0  0  0
   -1.1260   22.2400  -28.2330 C   0  0  0  0  0  0  0  0  0  0  0  0
   -0.9960   23.5530  -28.7070 C   0  0  0  0  0  0  0  0  0  0  0  0
   -2.1150   24.3820  -28.8200 C   0  0  0  0  0  0  0  0  0  0  0  0
   -1.9640   25.6650  -29.3360 O   0  0  0  0  0  0  0  0  0  0  0  0
    0.0980   21.3650  -28.1090 C   0  0  0  0  0  0  0  0  0  0  0  0
   -0.2440   19.9360  -28.0510 N   0  0  0  0  0  0  0  0  0  0  0  0
   -1.2370   19.6830  -27.0000 C   0  0  0  0  0  0  0  0  0  0  0  0
   -2.5730   20.3600  -27.3320 C   0  0  0  0  0  0  0  0  0  0  0  0
   -4.7930   22.1870  -30.9310 C   0  0  0  0  0  0  0  0  0  0  0  0
   -5.1360   20.9480  -31.4890 C   0  0  0  0  0  0  0  0  0  0  0  0
   -6.4730   20.6990  -31.8120 C   0  0  0  0  0  0  0  0  0  0  0  0
   -5.4438   19.1623  -33.9191 H   0  0  0  0  0  0  0  0  0  0  0  0
   -7.0611   18.5795  -34.4402 H   0  0  0  0  0  0  0  0  0  0  0  0
   -6.6974   20.3386  -34.4402 H   0  0  0  0  0  0  0  0  0  0  0  0
   -6.7187   18.5491  -31.9929 H   0  0  0  0  0  0  0  0  0  0  0  0
   -9.0006   19.5294  -33.4075 H   0  0  0  0  0  0  0  0  0  0  0  0
   -9.0250   19.0276  -31.7003 H   0  0  0  0  0  0  0  0  0  0  0  0
   -9.1358   21.7785  -32.8568 H   0  0  0  0  0  0  0  0  0  0  0  0
   -9.5500   21.2864  -31.2228 H   0  0  0  0  0  0  0  0  0  0  0  0
   -7.9188   23.6148  -30.8075 H   0  0  0  0  0  0  0  0  0  0  0  0
   -4.7990   25.4610  -27.9580 H   0  0  0  0  0  0  0  0  0  0  0  0
   -4.4802   22.2673  -27.5436 H   0  0  0  0  0  0  0  0  0  0  0  0
   -0.0043   23.9339  -28.9925 H   0  0  0  0  0  0  0  0  0  0  0  0
    0.7473   21.5387  -28.9798 H   0  0  0  0  0  0  0  0  0  0  0  0
    0.6077   21.6285  -27.1705 H   0  0  0  0  0  0  0  0  0  0  0  0
   -0.6420   19.6440  -28.9750 H   0  0  0  0  0  0  0  0  0  0  0  0
   -1.3961   18.5984  -26.9089 H   0  0  0  0  0  0  0  0  0  0  0  0
   -0.8594   20.0977  -26.0537 H   0  0  0  0  0  0  0  0  0  0  0  0
   -3.0718   19.7899  -28.1296 H   0  0  0  0  0  0  0  0  0  0  0  0
   -3.1822   20.3782  -26.4163 H   0  0  0  0  0  0  0  0  0  0  0  0
   -3.7458   22.3996  -30.6699 H   0  0  0  0  0  0  0  0  0  0  0  0
   -4.3656   20.1839  -31.6698 H   0  0  0  0  0  0  0  0  0  0  0  0
  1  2  1  0
  2  3  1  0
  3  4  1  0
  4  5  1  0
  5  6  2  0
  6  7  1  0
  7  8  1  0
  8  9  2  0
  8 10  2  0
  8 11  1  0
 11 12  1  0
 12 13  2  0
 13 14  1  0
 14 15  2  0
 15 16  1  0
 16 17  2  0
 17 18  1  0
 15 19  1  0
 19 20  1  0
 20 21  1  0
 21 22  1  0
  7 23  2  0
 23 24  1  0
 24 25  2  0
 25  2  1  0
 25  5  1  0
 17 12  1  0
 22 14  1  0
  1 26  1  0
  1 27  1  0
  1 28  1  0
  2 29  1  1
  3 30  1  0
  3 31  1  0
  4 32  1  0
  4 33  1  0
  6 34  1  0
 11 35  1  0
 13 36  1  0
 16 37  1  0
 19 38  1  0
 19 39  1  0
 20 40  1  0
 21 41  1  0
 21 42  1  0
 22 43  1  0
 22 44  1  0
 23 45  1  0
 24 46  1  0
M  CHG  1  18  -1
M  END
>  <UniqueID>  (15) 
15

>  <SMILES>  (15) 
C[C@@H]1CCc2cc(S(=O)(=O)Nc3cc4c(cc3[O-])CNCC4)ccc21

>  <Energy>  (15) 
58.68942847601646

>  <Genealogy>  (15) 
CC1CCc2cc(S(=O)(=O)Nc3cc4c(cc3[O-])CNCC4)ccc21 (protonated)
C[C@@H]1CCc2cc(S(=O)(=O)Nc3cc4c(cc3[O-])CNCC4)ccc21 (chirality)
C[C@@H]1CCc2cc(S(=O)(=O)Nc3cc4c(cc3[O-])CNCC4)ccc21 (3D coordinates assigned)
C[C@@H]1CCc2cc(S(=O)(=O)Nc3cc4c(cc3[O-])CNCC4)ccc21 (nonaromatic ring conformer: 58.68942847601646 kcal/mol)

>  <smiles>  (15) 
CC1CCc2cc(S(=O)(=O)Nc3cc4c(cc3O)CNCC4)ccc21

>  <score_type>  (15) 
oracle

>  <origin>  (15) 
adgpu

>  <m_score__min__energy>  (15) 
-14.119999999999999

>  <m_primary>  (15) 
energy

$$$$
15:0
     RDKit          3D

 60 64  0  0  0  0  0  0  0  0999 V2000
   -9.3740   21.7530  -31.6760 C   0  0  0  0  0  0  0  0  0  0  0  0
   -8.0700   21.1660  -32.1350 C   0  0  0  0  0  0  0  0  0  0  0  0
   -8.0520   20.0550  -32.9880 C   0  0  0  0  0  0  0  0  0  0  0  0
   -6.8710   19.5220  -33.3950 N   0  0  0  0  0  0  0  0  0  0  0  0
   -5.6710   20.0350  -33.0100 C   0  0  0  0  0  0  0  0  0  0  0  0
   -4.4530   19.4190  -33.4720 N   0  0  0  0  0  0  0  0  0  0  0  0
   -4.4030   18.0580  -33.9780 C   0  0  0  0  0  0  0  0  0  0  0  0
   -2.9740   17.8530  -34.4640 C   0  0  0  0  0  0  0  0  0  0  0  0
   -2.1460   18.9560  -33.7970 C   0  0  1  0  0  0  0  0  0  0  0  0
   -1.1170   19.4720  -34.7060 N   0  0  0  0  0  0  0  0  0  0  0  0
   -0.0560   20.5810  -33.8870 S   0  0  0  0  0  0  0  0  0  0  0  0
   -0.0760   21.9080  -34.5930 O   0  0  0  0  0  0  0  0  0  0  0  0
    1.3460   20.0410  -33.9270 O   0  0  0  0  0  0  0  0  0  0  0  0
   -0.5420   20.7810  -32.2050 C   0  0  0  0  0  0  0  0  0  0  0  0
   -1.2900   21.9240  -31.8240 C   0  0  0  0  0  0  0  0  0  0  0  0
   -1.6650   22.1190  -30.4800 C   0  0  0  0  0  0  0  0  0  0  0  0
   -1.2710   21.1560  -29.5570 C   0  0  0  0  0  0  0  0  0  0  0  0
   -1.4980   21.1240  -28.2350 N   0  0  0  0  0  0  0  0  0  0  0  0
   -0.9340   20.0270  -27.7400 N   0  0  0  0  0  0  0  0  0  0  0  0
   -0.3420   19.3520  -28.7560 C   0  0  0  0  0  0  0  0  0  0  0  0
   -0.5490   20.0580  -29.9200 C   0  0  0  0  0  0  0  0  0  0  0  0
   -0.1600   19.8280  -31.2350 C   0  0  0  0  0  0  0  0  0  0  0  0
   -3.1470   20.0560  -33.4520 C   0  0  0  0  0  0  0  0  0  0  0  0
   -5.6460   21.1570  -32.1650 C   0  0  0  0  0  0  0  0  0  0  0  0
   -6.8510   21.7120  -31.7010 C   0  0  0  0  0  0  0  0  0  0  0  0
   -6.8630   22.8290  -30.8490 O   0  0  0  0  0  0  0  0  0  0  0  0
   -5.7560   23.3390  -30.1540 C   0  0  0  0  0  0  0  0  0  0  0  0
   -5.3440   22.6950  -28.9830 C   0  0  0  0  0  0  0  0  0  0  0  0
   -4.2420   23.1680  -28.2620 C   0  0  0  0  0  0  0  0  0  0  0  0
   -3.5380   24.2960  -28.7110 C   0  0  0  0  0  0  0  0  0  0  0  0
   -2.1450   24.9150  -27.8230 S   0  0  0  0  0  0  0  0  0  0  0  0
   -2.5950   25.5130  -26.2060 C   0  0  0  0  0  0  0  0  0  0  0  0
   -1.1260   23.8210  -27.6750 O   0  0  0  0  0  0  0  0  0  0  0  0
   -1.5420   26.0570  -28.5940 O   0  0  0  0  0  0  0  0  0  0  0  0
   -3.9300   24.9230  -29.8990 C   0  0  0  0  0  0  0  0  0  0  0  0
   -5.0250   24.4450  -30.6230 C   0  0  0  0  0  0  0  0  0  0  0  0
   -9.4033   21.7662  -30.5765 H   0  0  0  0  0  0  0  0  0  0  0  0
   -9.4682   22.7804  -32.0577 H   0  0  0  0  0  0  0  0  0  0  0  0
  -10.2055   21.1424  -32.0577 H   0  0  0  0  0  0  0  0  0  0  0  0
   -8.9991   19.6121  -33.3299 H   0  0  0  0  0  0  0  0  0  0  0  0
   -4.6428   17.3420  -33.1781 H   0  0  0  0  0  0  0  0  0  0  0  0
   -5.1338   17.8967  -34.7842 H   0  0  0  0  0  0  0  0  0  0  0  0
   -2.6051   16.8614  -34.1627 H   0  0  0  0  0  0  0  0  0  0  0  0
   -2.9075   17.9030  -35.5609 H   0  0  0  0  0  0  0  0  0  0  0  0
   -1.6167   18.5789  -32.9095 H   0  0  0  0  0  0  0  0  0  0  0  0
   -1.5798   22.6645  -32.5841 H   0  0  0  0  0  0  0  0  0  0  0  0
   -2.2476   22.9998  -30.1722 H   0  0  0  0  0  0  0  0  0  0  0  0
   -2.0200   21.8290  -27.6710 H   0  0  0  0  0  0  0  0  0  0  0  0
    0.2086   18.4040  -28.6660 H   0  0  0  0  0  0  0  0  0  0  0  0
    0.4236   18.9369  -31.5097 H   0  0  0  0  0  0  0  0  0  0  0  0
   -2.9361   20.4673  -32.4538 H   0  0  0  0  0  0  0  0  0  0  0  0
   -3.0923   20.8928  -34.1639 H   0  0  0  0  0  0  0  0  0  0  0  0
   -4.6846   21.6006  -31.8669 H   0  0  0  0  0  0  0  0  0  0  0  0
   -5.8905   21.8097  -28.6259 H   0  0  0  0  0  0  0  0  0  0  0  0
   -3.9269   22.6547  -27.3415 H   0  0  0  0  0  0  0  0  0  0  0  0
   -2.1217   24.8840  -25.4376 H   0  0  0  0  0  0  0  0  0  0  0  0
   -2.2529   26.5521  -26.0910 H   0  0  0  0  0  0  0  0  0  0  0  0
   -3.6882   25.4720  -26.0910 H   0  0  0  0  0  0  0  0  0  0  0  0
   -3.3725   25.7977  -30.2651 H   0  0  0  0  0  0  0  0  0  0  0  0
   -5.3165   24.9356  -31.5634 H   0  0  0  0  0  0  0  0  0  0  0  0
  1  2  1  0
  2  3  2  0
  3  4  1  0
  4  5  2  0
  5  6  1  0
  6  7  1  0
  7  8  1  0
  8  9  1  0
  9 10  1  0
 10 11  1  0
 11 12  2  0
 11 13  2  0
 11 14  1  0
 14 15  2  0
 15 16  1  0
 16 17  2  0
 17 18  1  0
 18 19  1  0
 19 20  2  0
 20 21  1  0
 21 22  2  0
  9 23  1  0
  5 24  1  0
 24 25  2  0
 25 26  1  0
 26 27  1  0
 27 28  2  0
 28 29  1  0
 29 30  2  0
 30 31  1  0
 31 32  1  0
 31 33  2  0
 31 34  2  0
 30 35  1  0
 35 36  2  0
 25  2  1  0
 36 27  1  0
 23  6  1  0
 22 14  1  0
 21 17  1  0
  1 37  1  0
  1 38  1  0
  1 39  1  0
  3 40  1  0
  7 41  1  0
  7 42  1  0
  8 43  1  0
  8 44  1  0
  9 45  1  1
 15 46  1  0
 16 47  1  0
 18 48  1  0
 20 49  1  0
 22 50  1  0
 23 51  1  0
 23 52  1  0
 24 53  1  0
 28 54  1  0
 29 55  1  0
 32 56  1  0
 32 57  1  0
 32 58  1  0
 35 59  1  0
 36 60  1  0
M  CHG  1  10  -1
M  END
>  <UniqueID>  (16) 
16

>  <SMILES>  (16) 
Cc1cnc(N2CC[C@@H]([N-]S(=O)(=O)c3ccc4[nH]ncc4c3)C2)cc1Oc1ccc(S(C)(=O)=O)cc1

>  <Energy>  (16) 
107.41582280444777

>  <Genealogy>  (16) 
Cc1cnc(N2CCC([N-]S(=O)(=O)c3ccc4[nH]ncc4c3)C2)cc1Oc1ccc(S(C)(=O)=O)cc1 (protonated)
Cc1cnc(N2CC[C@@H]([N-]S(=O)(=O)c3ccc4[nH]ncc4c3)C2)cc1Oc1ccc(S(C)(=O)=O)cc1 (chirality)
Cc1cnc(N2CC[C@@H]([N-]S(=O)(=O)c3ccc4[nH]ncc4c3)C2)cc1Oc1ccc(S(C)(=O)=O)cc1 (3D coordinates assigned)
Cc1cnc(N2CC[C@@H]([N-]S(=O)(=O)c3ccc4[nH]ncc4c3)C2)cc1Oc1ccc(S(C)(=O)=O)cc1 (nonaromatic ring conformer: 107.41582280444777 kcal/mol)

>  <smiles>  (16) 
Cc1cnc(N2CCC(NS(=O)(=O)c3ccc4[nH]ncc4c3)C2)cc1Oc1ccc(S(C)(=O)=O)cc1

>  <score_type>  (16) 
oracle

>  <origin>  (16) 
adgpu

>  <m_score__min__energy>  (16) 
-12.699999999999999

>  <m_primary>  (16) 
energy

$$$$
16:0
     RDKit          3D

 51 54  0  0  0  0  0  0  0  0999 V2000
    0.7156   19.5258  -33.3646 H   0  0  0  0  0  0  0  0  0  0  0  0
   -0.0920   20.1190  -32.9110 C   0  0  0  0  0  0  0  0  0  0  0  0
   -0.1980   20.1950  -31.5200 C   0  0  0  0  0  0  0  0  0  0  0  0
    0.5314   19.6684  -30.8870 H   0  0  0  0  0  0  0  0  0  0  0  0
   -1.2320   20.9410  -30.9230 C   0  0  0  0  0  0  0  0  0  0  0  0
   -1.3700   21.0420  -29.5310 O   0  0  0  0  0  0  0  0  0  0  0  0
   -1.0390   20.0050  -28.6120 C   0  0  0  0  0  0  0  0  0  0  0  0
   -1.1572   20.3754  -27.5830 H   0  0  0  0  0  0  0  0  0  0  0  0
   -1.7077   19.1463  -28.7717 H   0  0  0  0  0  0  0  0  0  0  0  0
    0.0035   19.6925  -28.7717 H   0  0  0  0  0  0  0  0  0  0  0  0
   -2.1650   21.5960  -31.7420 C   0  0  0  0  0  0  0  0  0  0  0  0
   -3.1830   22.4070  -31.1380 N   0  0  0  0  0  0  0  0  0  0  0  0
   -4.4760   22.2600  -31.2490 C   0  0  0  0  0  0  0  0  0  0  0  0
   -5.3300   23.2210  -30.6710 C   0  0  0  0  0  0  0  0  0  0  0  0
   -4.6960   24.6340  -29.8330 S   0  0  0  0  0  0  0  0  0  0  0  0
   -4.2530   25.6490  -30.8500 O   0  0  0  0  0  0  0  0  0  0  0  0
   -5.7710   25.2460  -28.9790 O   0  0  0  0  0  0  0  0  0  0  0  0
   -3.3520   24.1600  -28.7980 C   0  0  0  0  0  0  0  0  0  0  0  0
   -3.4970   23.0700  -27.9310 C   0  0  0  0  0  0  0  0  0  0  0  0
   -4.4477   22.5176  -27.8993 H   0  0  0  0  0  0  0  0  0  0  0  0
   -2.4370   22.6810  -27.1050 C   0  0  0  0  0  0  0  0  0  0  0  0
   -2.5573   21.8242  -26.4258 H   0  0  0  0  0  0  0  0  0  0  0  0
   -1.2230   23.3790  -27.1400 C   0  0  0  0  0  0  0  0  0  0  0  0
   -0.1380   22.9820  -26.2980 N   0  0  0  0  0  0  0  0  0  0  0  0
   -0.0710   23.3280  -25.3150 H   0  0  0  0  0  0  0  0  0  0  0  0
    0.6030   22.3350  -26.6500 H   0  0  0  0  0  0  0  0  0  0  0  0
   -1.0760   24.4670  -28.0120 C   0  0  0  0  0  0  0  0  0  0  0  0
   -0.1242   25.0175  -28.0458 H   0  0  0  0  0  0  0  0  0  0  0  0
   -2.1350   24.8550  -28.8390 C   0  0  0  0  0  0  0  0  0  0  0  0
   -2.0128   25.7075  -29.5233 H   0  0  0  0  0  0  0  0  0  0  0  0
   -6.6760   23.0700  -30.7750 N   0  0  0  0  0  0  0  0  0  0  0  0
   -7.2230   22.0070  -31.4150 C   0  0  0  0  0  0  0  0  0  0  0  0
   -8.6130   21.8750  -31.5070 C   0  0  0  0  0  0  0  0  0  0  0  0
   -9.2692   22.6391  -31.0649 H   0  0  0  0  0  0  0  0  0  0  0  0
   -9.1670   20.7700  -32.1620 C   0  0  0  0  0  0  0  0  0  0  0  0
  -10.2596   20.6664  -32.2358 H   0  0  0  0  0  0  0  0  0  0  0  0
   -8.3340   19.7970  -32.7230 C   0  0  0  0  0  0  0  0  0  0  0  0
   -8.7734   18.9288  -33.2360 H   0  0  0  0  0  0  0  0  0  0  0  0
   -6.9440   19.9240  -32.6340 C   0  0  0  0  0  0  0  0  0  0  0  0
   -6.2924   19.1558  -33.0760 H   0  0  0  0  0  0  0  0  0  0  0  0
   -6.3800   21.0310  -31.9810 C   0  0  0  0  0  0  0  0  0  0  0  0
   -5.0270   21.1750  -31.8790 N   0  0  0  0  0  0  0  0  0  0  0  0
   -4.4210   20.4180  -32.2650 H   0  0  0  0  0  0  0  0  0  0  0  0
   -2.0340   21.5410  -33.1400 C   0  0  0  0  0  0  0  0  0  0  0  0
   -2.7436   22.0897  -33.7767 H   0  0  0  0  0  0  0  0  0  0  0  0
   -1.0030   20.7900  -33.7310 C   0  0  0  0  0  0  0  0  0  0  0  0
   -0.8470   20.6900  -35.1220 O   0  0  0  0  0  0  0  0  0  0  0  0
    0.2600   21.2170  -35.8460 C   0  0  0  0  0  0  0  0  0  0  0  0
    1.0212   21.5794  -35.1394 H   0  0  0  0  0  0  0  0  0  0  0  0
    0.6931   20.4284  -36.4790 H   0  0  0  0  0  0  0  0  0  0  0  0
   -0.0791   22.0503  -36.4790 H   0  0  0  0  0  0  0  0  0  0  0  0
  1  2  1  0
  2  3  2  0
  3  4  1  0
  3  5  1  0
  5  6  1  0
  6  7  1  0
  7  8  1  0
  7  9  1  0
  7 10  1  0
  5 11  2  0
 11 12  1  0
 12 13  2  0
 13 14  1  0
 14 15  1  0
 15 16  2  0
 15 17  2  0
 15 18  1  0
 18 19  2  0
 19 20  1  0
 19 21  1  0
 21 22  1  0
 21 23  2  0
 23 24  1  0
 24 25  1  0
 24 26  1  0
 23 27  1  0
 27 28  1  0
 27 29  2  0
 29 30  1  0
 14 31  2  0
 31 32  1  0
 32 33  2  0
 33 34  1  0
 33 35  1  0
 35 36  1  0
 35 37  2  0
 37 38  1  0
 37 39  1  0
 39 40  1  0
 39 41  2  0
 41 42  1  0
 42 43  1  0
 11 44  1  0
 44 45  1  0
 44 46  2  0
 46 47  1  0
 47 48  1  0
 48 49  1  0
 48 50  1  0
 48 51  1  0
 46  2  1  0
 42 13  1  0
 29 18  1  0
 41 32  1  0
M  END
>  <UniqueID>  (17) 
17

>  <SMILES>  (17) 
COc1ccc(OC)c(/N=c2\[nH]c3ccccc3nc2S(=O)(=O)c2ccc(N)cc2)c1

>  <Energy>  (17) 
66.05422785527742

>  <Genealogy>  (17) 
COc1ccc(OC)c(/N=c2\[nH]c3ccccc3nc2S(=O)(=O)c2ccc(N)cc2)c1 (cis-trans isomerization)
COc1ccc(OC)c(/N=c2\[nH]c3ccccc3nc2S(=O)(=O)c2ccc(N)cc2)c1 (3D coordinates assigned)
COc1ccc(OC)c(/N=c2\[nH]c3ccccc3nc2S(=O)(=O)c2ccc(N)cc2)c1 (optimized conformer: 66.05422785527742 kcal/mol)

>  <smiles>  (17) 
COc1ccc(OC)c(N=c2[nH]c3ccccc3nc2S(=O)(=O)c2ccc(N)cc2)c1

>  <score_type>  (17) 
oracle

>  <origin>  (17) 
adgpu

>  <m_score__min__energy>  (17) 
-9.0999999999999996

>  <m_primary>  (17) 
energy

$$$$
17:0
     RDKit          3D

 44 46  0  0  0  0  0  0  0  0999 V2000
   -4.5610   18.0830  -33.6260 C   0  0  0  0  0  0  0  0  0  0  0  0
   -5.8490   18.7680  -33.9670 C   0  0  0  0  0  0  0  0  0  0  0  0
   -6.1490   18.9360  -35.1790 O   0  0  0  0  0  0  0  0  0  0  0  0
   -6.7100   19.2910  -32.9400 N   0  0  0  0  0  0  0  0  0  0  0  0
   -7.9870   18.5870  -32.7300 C   0  0  0  0  0  0  0  0  0  0  0  0
   -8.7270   19.0890  -31.4870 C   0  0  0  0  0  0  0  0  0  0  0  0
   -8.8440   20.6110  -31.5150 C   0  0  0  0  0  0  0  0  0  0  0  0
   -7.4780   21.2310  -31.6020 C   0  0  0  0  0  0  0  0  0  0  0  0
   -7.2370   22.4800  -31.0100 C   0  0  0  0  0  0  0  0  0  0  0  0
   -5.9640   23.0580  -31.0690 C   0  0  0  0  0  0  0  0  0  0  0  0
   -5.6750   24.6250  -30.3160 S   0  0  0  0  0  0  0  0  0  0  0  0
   -6.9720   25.3720  -30.1640 O   0  0  0  0  0  0  0  0  0  0  0  0
   -4.7460   25.4210  -31.1890 O   0  0  0  0  0  0  0  0  0  0  0  0
   -4.9450   24.4060  -28.7540 N   0  0  0  0  0  0  0  0  0  0  0  0
   -4.2780   23.1030  -28.6910 C   0  0  0  0  0  0  0  0  0  0  0  0
   -2.8430   23.2950  -28.2810 C   0  0  0  0  0  0  0  0  0  0  0  0
   -2.2310   22.3540  -27.4360 C   0  0  0  0  0  0  0  0  0  0  0  0
   -0.8870   22.4960  -27.0760 C   0  0  0  0  0  0  0  0  0  0  0  0
   -0.1410   23.5710  -27.5670 C   0  0  0  0  0  0  0  0  0  0  0  0
   -0.7340   24.5030  -28.4210 C   0  0  0  0  0  0  0  0  0  0  0  0
   -2.0790   24.3670  -28.7860 C   0  0  0  0  0  0  0  0  0  0  0  0
   -2.6460   25.2970  -29.6520 O   0  0  0  0  0  0  0  0  0  0  0  0
   -4.9230   22.3760  -31.7060 C   0  0  0  0  0  0  0  0  0  0  0  0
   -5.1590   21.1400  -32.3120 C   0  0  0  0  0  0  0  0  0  0  0  0
   -6.4470   20.5690  -32.3030 C   0  0  0  0  0  0  0  0  0  0  0  0
   -4.4542   18.0262  -32.5327 H   0  0  0  0  0  0  0  0  0  0  0  0
   -4.5633   17.0670  -34.0475 H   0  0  0  0  0  0  0  0  0  0  0  0
   -3.7198   18.6529  -34.0475 H   0  0  0  0  0  0  0  0  0  0  0  0
   -8.6270   18.7440  -33.6108 H   0  0  0  0  0  0  0  0  0  0  0  0
   -7.7639   17.5201  -32.5821 H   0  0  0  0  0  0  0  0  0  0  0  0
   -9.7347   18.6485  -31.4626 H   0  0  0  0  0  0  0  0  0  0  0  0
   -8.1622   18.7912  -30.5913 H   0  0  0  0  0  0  0  0  0  0  0  0
   -9.4379   20.9145  -32.3897 H   0  0  0  0  0  0  0  0  0  0  0  0
   -9.3366   20.9518  -30.5924 H   0  0  0  0  0  0  0  0  0  0  0  0
   -8.0538   23.0081  -30.4963 H   0  0  0  0  0  0  0  0  0  0  0  0
   -5.7210   24.4080  -28.0520 H   0  0  0  0  0  0  0  0  0  0  0  0
   -4.7879   22.4650  -27.9541 H   0  0  0  0  0  0  0  0  0  0  0  0
   -4.3163   22.6226  -29.6798 H   0  0  0  0  0  0  0  0  0  0  0  0
   -2.8120   21.5010  -27.0555 H   0  0  0  0  0  0  0  0  0  0  0  0
   -0.4168   21.7611  -26.4060 H   0  0  0  0  0  0  0  0  0  0  0  0
    0.9150   23.6830  -27.2802 H   0  0  0  0  0  0  0  0  0  0  0  0
   -0.1431   25.3462  -28.8080 H   0  0  0  0  0  0  0  0  0  0  0  0
   -3.9144   22.8144  -31.7300 H   0  0  0  0  0  0  0  0  0  0  0  0
   -4.3307   20.6068  -32.8014 H   0  0  0  0  0  0  0  0  0  0  0  0
  1  2  1  0
  2  3  2  0
  2  4  1  0
  4  5  1  0
  5  6  1  0
  6  7  1  0
  7  8  1  0
  8  9  2  0
  9 10  1  0
 10 11  1  0
 11 12  2  0
 11 13  2  0
 11 14  1  0
 14 15  1  0
 15 16  1  0
 16 17  2  0
 17 18  1  0
 18 19  2  0
 19 20  1  0
 20 21  2  0
 21 22  1  0
 10 23  2  0
 23 24  1  0
 24 25  2  0
 25  4  1  0
 25  8  1  0
 21 16  1  0
  1 26  1  0
  1 27  1  0
  1 28  1  0
  5 29  1  0
  5 30  1  0
  6 31  1  0
  6 32  1  0
  7 33  1  0
  7 34  1  0
  9 35  1  0
 14 36  1  0
 15 37  1  0
 15 38  1  0
 17 39  1  0
 18 40  1  0
 19 41  1  0
 20 42  1  0
 23 43  1  0
 24 44  1  0
M  CHG  1  22  -1
M  END
>  <UniqueID>  (18) 
18

>  <SMILES>  (18) 
CC(=O)N1CCCc2cc(S(=O)(=O)NCc3ccccc3[O-])ccc21

>  <Energy>  (18) 
48.49002911798457

>  <Genealogy>  (18) 
CC(=O)N1CCCc2cc(S(=O)(=O)NCc3ccccc3[O-])ccc21 (protonated)
CC(=O)N1CCCc2cc(S(=O)(=O)NCc3ccccc3[O-])ccc21 (3D coordinates assigned)
CC(=O)N1CCCc2cc(S(=O)(=O)NCc3ccccc3[O-])ccc21 (nonaromatic ring conformer: 48.49002911798457 kcal/mol)

>  <smiles>  (18) 
CC(=O)N1CCCc2cc(S(=O)(=O)NCc3ccccc3O)ccc21

>  <score_type>  (18) 
oracle

>  <origin>  (18) 
adgpu

>  <m_score__min__energy>  (18) 
-13.539999999999999

>  <m_primary>  (18) 
energy

$$$$
18:0
     RDKit          3D

 47 49  0  0  0  0  0  0  0  0999 V2000
   -0.6230   22.1190  -25.9560 C   0  0  0  0  0  0  0  0  0  0  0  0
   -1.3800   22.6940  -27.1260 C   0  0  0  0  0  0  0  0  0  0  0  0
   -2.3390   21.8790  -27.7470 C   0  0  0  0  0  0  0  0  0  0  0  0
   -3.0420   22.3240  -28.8610 C   0  0  0  0  0  0  0  0  0  0  0  0
   -2.7770   23.5780  -29.4110 C   0  0  0  0  0  0  0  0  0  0  0  0
   -3.5480   24.0190  -30.5390 N   0  0  0  0  0  0  0  0  0  0  0  0
   -4.9190   24.4310  -30.4470 C   0  0  0  0  0  0  0  0  0  0  0  0
   -5.3610   24.9190  -29.3730 O   0  0  0  0  0  0  0  0  0  0  0  0
   -5.7790   24.3620  -31.5890 N   0  0  0  0  0  0  0  0  0  0  0  0
   -6.6790   23.2830  -31.8810 C   0  0  0  0  0  0  0  0  0  0  0  0
   -8.0440   23.4480  -31.6160 C   0  0  0  0  0  0  0  0  0  0  0  0
   -8.9430   22.4070  -31.8680 C   0  0  0  0  0  0  0  0  0  0  0  0
   -8.4820   21.1870  -32.3730 C   0  0  0  0  0  0  0  0  0  0  0  0
   -7.1150   21.0020  -32.6160 C   0  0  0  0  0  0  0  0  0  0  0  0
   -6.6350   19.7410  -33.1160 C   0  0  0  0  0  0  0  0  0  0  0  0
   -6.2480   18.7270  -33.5180 N   0  0  0  0  0  0  0  0  0  0  0  0
   -6.2140   22.0440  -32.3640 C   0  0  0  0  0  0  0  0  0  0  0  0
   -1.8280   24.4170  -28.7980 C   0  0  0  0  0  0  0  0  0  0  0  0
   -1.6090   25.6880  -29.3230 O   0  0  0  0  0  0  0  0  0  0  0  0
   -1.1320   23.9990  -27.6400 C   0  0  0  0  0  0  0  0  0  0  0  0
    0.0380   25.1270  -26.8880 S   0  0  0  0  0  0  0  0  0  0  0  0
    0.6170   24.5290  -25.6370 O   0  0  0  0  0  0  0  0  0  0  0  0
    1.1870   25.3200  -27.8380 O   0  0  0  0  0  0  0  0  0  0  0  0
   -0.6260   26.7070  -26.5050 N   0  0  0  0  0  0  0  0  0  0  0  0
    0.3890   27.7380  -26.2290 C   0  0  0  0  0  0  0  0  0  0  0  0
    0.7800   27.7770  -24.7470 C   0  0  0  0  0  0  0  0  0  0  0  0
   -0.3640   27.9570  -23.9400 O   0  0  0  0  0  0  0  0  0  0  0  0
   -1.2030   26.8290  -24.0670 C   0  0  0  0  0  0  0  0  0  0  0  0
   -1.7150   26.6810  -25.5100 C   0  0  0  0  0  0  0  0  0  0  0  0
   -1.0798   22.4660  -25.0174 H   0  0  0  0  0  0  0  0  0  0  0  0
   -0.6617   21.0205  -25.9984 H   0  0  0  0  0  0  0  0  0  0  0  0
    0.4249   22.4509  -25.9984 H   0  0  0  0  0  0  0  0  0  0  0  0
   -2.5373   20.8738  -27.3467 H   0  0  0  0  0  0  0  0  0  0  0  0
   -3.8131   21.6821  -29.3120 H   0  0  0  0  0  0  0  0  0  0  0  0
   -3.0690   24.1140  -31.4640 H   0  0  0  0  0  0  0  0  0  0  0  0
   -8.4109   24.4012  -31.2076 H   0  0  0  0  0  0  0  0  0  0  0  0
  -10.0155   22.5480  -31.6685 H   0  0  0  0  0  0  0  0  0  0  0  0
   -9.1926   20.3731  -32.5793 H   0  0  0  0  0  0  0  0  0  0  0  0
   -5.1392   21.8945  -32.5439 H   0  0  0  0  0  0  0  0  0  0  0  0
    1.2864   27.5221  -26.8275 H   0  0  0  0  0  0  0  0  0  0  0  0
   -0.0396   28.7160  -26.4931 H   0  0  0  0  0  0  0  0  0  0  0  0
    1.2689   26.8295  -24.4763 H   0  0  0  0  0  0  0  0  0  0  0  0
    1.4686   28.6188  -24.5821 H   0  0  0  0  0  0  0  0  0  0  0  0
   -0.6366   25.9269  -23.7922 H   0  0  0  0  0  0  0  0  0  0  0  0
   -2.0682   26.9595  -23.4003 H   0  0  0  0  0  0  0  0  0  0  0  0
   -2.2492   25.7234  -25.5976 H   0  0  0  0  0  0  0  0  0  0  0  0
   -2.3759   27.5354  -25.7178 H   0  0  0  0  0  0  0  0  0  0  0  0
  1  2  1  0
  2  3  2  0
  3  4  1  0
  4  5  2  0
  5  6  1  0
  6  7  1  0
  7  8  2  0
  7  9  1  0
  9 10  1  0
 10 11  2  0
 11 12  1  0
 12 13  2  0
 13 14  1  0
 14 15  1  0
 15 16  3  0
 14 17  2  0
  5 18  1  0
 18 19  1  0
 18 20  2  0
 20 21  1  0
 21 22  2  0
 21 23  2  0
 21 24  1  0
 24 25  1  0
 25 26  1  0
 26 27  1  0
 27 28  1  0
 28 29  1  0
 20  2  1  0
 29 24  1  0
 17 10  1  0
  1 30  1  0
  1 31  1  0
  1 32  1  0
  3 33  1  0
  4 34  1  0
  6 35  1  0
 11 36  1  0
 12 37  1  0
 13 38  1  0
 17 39  1  0
 25 40  1  0
 25 41  1  0
 26 42  1  0
 26 43  1  0
 28 44  1  0
 28 45  1  0
 29 46  1  0
 29 47  1  0
M  CHG  2   9  -1  19  -1
M  END
>  <UniqueID>  (19) 
19

>  <SMILES>  (19) 
Cc1ccc(NC(=O)[N-]c2cccc(C#N)c2)c([O-])c1S(=O)(=O)N1CCOCC1

>  <Energy>  (19) 
66.34251762649133

>  <Genealogy>  (19) 
Cc1ccc(NC(=O)[N-]c2cccc(C#N)c2)c([O-])c1S(=O)(=O)N1CCOCC1 (protonated)
Cc1ccc(NC(=O)[N-]c2cccc(C#N)c2)c([O-])c1S(=O)(=O)N1CCOCC1 (3D coordinates assigned)
Cc1ccc(NC(=O)[N-]c2cccc(C#N)c2)c([O-])c1S(=O)(=O)N1CCOCC1 (nonaromatic ring conformer: 66.34251762649133 kcal/mol)

>  <smiles>  (19) 
Cc1ccc(NC(=O)Nc2cccc(C#N)c2)c(O)c1S(=O)(=O)N1CCOCC1

>  <score_type>  (19) 
oracle

>  <origin>  (19) 
adgpu

>  <m_score__min__energy>  (19) 
-13.52

>  <m_primary>  (19) 
energy

$$$$
19:0
     RDKit          3D

 35 37  0  0  0  0  0  0  0  0999 V2000
   -4.7225   16.4621  -35.1597 H   0  0  0  0  0  0  0  0  0  0  0  0
   -5.2160   17.1990  -34.5090 C   0  0  0  0  0  0  0  0  0  0  0  0
   -5.3610   17.0940  -33.2050 O   0  0  0  0  0  0  0  0  0  0  0  0
   -5.9860   18.1280  -32.7250 N   0  0  0  0  0  0  0  0  0  0  0  0
   -6.2150   18.2650  -31.7160 H   0  0  0  0  0  0  0  0  0  0  0  0
   -6.2610   18.9420  -33.7610 C   0  0  0  0  0  0  0  0  0  0  0  0
   -6.8810   20.0800  -33.6810 N   0  0  0  0  0  0  0  0  0  0  0  0
   -7.4730   20.7650  -32.2030 S   0  0  0  0  0  0  0  0  0  0  0  0
   -8.7320   21.5440  -32.4670 O   0  0  0  0  0  0  0  0  0  0  0  0
   -7.7670   19.6710  -31.2140 O   0  0  0  0  0  0  0  0  0  0  0  0
   -6.2470   21.8410  -31.5450 C   0  0  0  0  0  0  0  0  0  0  0  0
   -4.8890   21.5190  -31.6610 C   0  0  0  0  0  0  0  0  0  0  0  0
   -4.5878   20.5838  -32.1556 H   0  0  0  0  0  0  0  0  0  0  0  0
   -3.9160   22.3810  -31.1510 C   0  0  0  0  0  0  0  0  0  0  0  0
   -2.8524   22.1129  -31.2334 H   0  0  0  0  0  0  0  0  0  0  0  0
   -4.2830   23.5830  -30.5360 C   0  0  0  0  0  0  0  0  0  0  0  0
   -3.2710   24.4190  -30.0420 O   0  0  0  0  0  0  0  0  0  0  0  0
   -2.5640   24.2010  -28.8500 C   0  0  0  0  0  0  0  0  0  0  0  0
   -2.8700   23.1300  -27.9880 C   0  0  0  0  0  0  0  0  0  0  0  0
   -3.6804   22.4328  -28.2472 H   0  0  0  0  0  0  0  0  0  0  0  0
   -2.1480   22.9490  -26.8040 C   0  0  0  0  0  0  0  0  0  0  0  0
   -2.3866   22.1063  -26.1385 H   0  0  0  0  0  0  0  0  0  0  0  0
   -1.1230   23.8380  -26.4650 C   0  0  0  0  0  0  0  0  0  0  0  0
   -0.2200   23.6100  -24.9790 Cl  0  0  0  0  0  0  0  0  0  0  0  0
   -0.8240   24.9120  -27.3090 C   0  0  0  0  0  0  0  0  0  0  0  0
   -0.0212   25.6142  -27.0397 H   0  0  0  0  0  0  0  0  0  0  0  0
   -1.5430   25.0960  -28.4950 C   0  0  0  0  0  0  0  0  0  0  0  0
   -1.2380   26.1680  -29.3260 O   0  0  0  0  0  0  0  0  0  0  0  0
   -5.6520   23.9030  -30.4000 C   0  0  0  0  0  0  0  0  0  0  0  0
   -6.0750   25.0870  -29.6930 C   0  0  0  0  0  0  0  0  0  0  0  0
   -6.4150   26.0360  -29.1270 N   0  0  0  0  0  0  0  0  0  0  0  0
   -6.6240   23.0340  -30.9130 C   0  0  0  0  0  0  0  0  0  0  0  0
   -7.6898   23.2896  -30.8192 H   0  0  0  0  0  0  0  0  0  0  0  0
   -5.7860   18.3880  -34.9270 C   0  0  0  0  0  0  0  0  0  0  0  0
   -5.8453   18.7935  -35.9478 H   0  0  0  0  0  0  0  0  0  0  0  0
  1  2  1  0
  2  3  1  0
  3  4  1  0
  4  5  1  0
  4  6  1  0
  6  7  2  0
  7  8  1  0
  8  9  2  0
  8 10  2  0
  8 11  1  0
 11 12  2  0
 12 13  1  0
 12 14  1  0
 14 15  1  0
 14 16  2  0
 16 17  1  0
 17 18  1  0
 18 19  2  0
 19 20  1  0
 19 21  1  0
 21 22  1  0
 21 23  2  0
 23 24  1  0
 23 25  1  0
 25 26  1  0
 25 27  2  0
 27 28  1  0
 16 29  1  0
 29 30  1  0
 30 31  3  0
 29 32  2  0
 32 33  1  0
  6 34  1  0
 34 35  1  0
 34  2  2  0
 32 11  1  0
 27 18  1  0
M  CHG  1  28  -1
M  END
>  <UniqueID>  (20) 
20

>  <SMILES>  (20) 
N#Cc1cc(S(=O)(=O)/N=c2/cco[nH]2)ccc1Oc1ccc(Cl)cc1[O-]

>  <Energy>  (20) 
81.54244125872859

>  <Genealogy>  (20) 
N#Cc1cc(S(=O)(=O)N=c2cco[nH]2)ccc1Oc1ccc(Cl)cc1[O-] (protonated)
N#Cc1cc(S(=O)(=O)/N=c2/cco[nH]2)ccc1Oc1ccc(Cl)cc1[O-] (cis-trans isomerization)
N#Cc1cc(S(=O)(=O)/N=c2/cco[nH]2)ccc1Oc1ccc(Cl)cc1[O-] (3D coordinates assigned)
N#Cc1cc(S(=O)(=O)/N=c2/cco[nH]2)ccc1Oc1ccc(Cl)cc1[O-] (optimized conformer: 81.54244125872859 kcal/mol)

>  <smiles>  (20) 
N#Cc1cc(S(=O)(=O)N=c2cco[nH]2)ccc1Oc1ccc(Cl)cc1O

>  <score_type>  (20) 
oracle

>  <origin>  (20) 
adgpu

>  <m_score__min__energy>  (20) 
-12.210000000000001

>  <m_primary>  (20) 
energy

$$$$
20:0
     RDKit          3D

 48 51  0  0  0  0  0  0  0  0999 V2000
   -5.9320   25.3430  -29.8440 C   0  0  0  0  0  0  0  0  0  0  0  0
   -5.0100   24.8000  -30.8930 C   0  0  0  0  0  0  0  0  0  0  0  0
   -5.4990   24.1740  -31.8690 O   0  0  0  0  0  0  0  0  0  0  0  0
   -3.5870   24.9310  -30.7940 N   0  0  0  0  0  0  0  0  0  0  0  0
   -2.7360   24.2030  -29.9010 C   0  0  0  0  0  0  0  0  0  0  0  0
   -2.3260   22.8900  -30.0660 C   0  0  0  0  0  0  0  0  0  0  0  0
   -2.7940   21.9120  -31.0770 C   0  0  0  0  0  0  0  0  0  0  0  0
   -4.0000   21.2110  -30.8980 C   0  0  0  0  0  0  0  0  0  0  0  0
   -4.4300   20.2860  -31.8540 C   0  0  0  0  0  0  0  0  0  0  0  0
   -3.6590   20.0440  -32.9950 C   0  0  0  0  0  0  0  0  0  0  0  0
   -4.2070   18.8490  -34.2140 S   0  0  0  0  0  0  0  0  0  0  0  0
   -5.8230   18.6780  -33.4560 C   0  0  0  0  0  0  0  0  0  0  0  0
   -6.7920   19.6730  -33.6370 C   0  0  0  0  0  0  0  0  0  0  0  0
   -8.0490   19.5410  -33.0400 C   0  0  0  0  0  0  0  0  0  0  0  0
   -8.3430   18.4140  -32.2640 C   0  0  0  0  0  0  0  0  0  0  0  0
   -9.5930   18.2850  -31.6710 O   0  0  0  0  0  0  0  0  0  0  0  0
   -7.3770   17.4180  -32.0860 C   0  0  0  0  0  0  0  0  0  0  0  0
   -6.1190   17.5480  -32.6810 C   0  0  0  0  0  0  0  0  0  0  0  0
   -2.4560   20.7340  -33.1810 C   0  0  0  0  0  0  0  0  0  0  0  0
   -2.0240   21.6590  -32.2270 C   0  0  0  0  0  0  0  0  0  0  0  0
   -1.3660   22.6610  -29.0890 C   0  0  0  0  0  0  0  0  0  0  0  0
   -1.1700   23.7790  -28.3550 N   0  0  0  0  0  0  0  0  0  0  0  0
   -0.2320   23.9290  -27.2720 C   0  0  0  0  0  0  0  0  0  0  0  0
    0.9860   24.6030  -27.4680 C   0  0  0  0  0  0  0  0  0  0  0  0
    1.8900   24.7540  -26.4120 C   0  0  0  0  0  0  0  0  0  0  0  0
    1.5890   24.2370  -25.1480 C   0  0  0  0  0  0  0  0  0  0  0  0
    2.5000   24.3940  -24.1060 O   0  0  0  0  0  0  0  0  0  0  0  0
    0.3740   23.5700  -24.9430 C   0  0  0  0  0  0  0  0  0  0  0  0
   -0.5320   23.4190  -25.9960 C   0  0  0  0  0  0  0  0  0  0  0  0
   -1.9840   24.7260  -28.8670 C   0  0  0  0  0  0  0  0  0  0  0  0
   -1.9800   26.0570  -28.4670 O   0  0  0  0  0  0  0  0  0  0  0  0
   -5.5320   25.1074  -28.8467 H   0  0  0  0  0  0  0  0  0  0  0  0
   -6.0146   26.4340  -29.9576 H   0  0  0  0  0  0  0  0  0  0  0  0
   -6.9262   24.8862  -29.9576 H   0  0  0  0  0  0  0  0  0  0  0  0
   -4.6089   21.3917  -29.9999 H   0  0  0  0  0  0  0  0  0  0  0  0
   -5.3777   19.7470  -31.7081 H   0  0  0  0  0  0  0  0  0  0  0  0
   -6.5639   20.5582  -34.2489 H   0  0  0  0  0  0  0  0  0  0  0  0
   -8.8084   20.3243  -33.1804 H   0  0  0  0  0  0  0  0  0  0  0  0
   -7.6077   16.5315  -31.4770 H   0  0  0  0  0  0  0  0  0  0  0  0
   -5.3609   16.7633  -32.5411 H   0  0  0  0  0  0  0  0  0  0  0  0
   -1.8495   20.5479  -34.0796 H   0  0  0  0  0  0  0  0  0  0  0  0
   -1.0743   22.1936  -32.3763 H   0  0  0  0  0  0  0  0  0  0  0  0
   -0.8406   21.7070  -28.9346 H   0  0  0  0  0  0  0  0  0  0  0  0
    1.2295   25.0143  -28.4587 H   0  0  0  0  0  0  0  0  0  0  0  0
    2.8413   25.2813  -26.5761 H   0  0  0  0  0  0  0  0  0  0  0  0
    2.1930   24.5790  -23.1580 H   0  0  0  0  0  0  0  0  0  0  0  0
    0.1325   23.1638  -23.9497 H   0  0  0  0  0  0  0  0  0  0  0  0
   -1.4858   22.8980  -25.8260 H   0  0  0  0  0  0  0  0  0  0  0  0
  1  2  1  0
  2  3  2  0
  2  4  1  0
  4  5  1  0
  5  6  1  0
  6  7  1  0
  7  8  2  0
  8  9  1  0
  9 10  2  0
 10 11  1  0
 11 12  1  0
 12 13  2  0
 13 14  1  0
 14 15  2  0
 15 16  1  0
 15 17  1  0
 17 18  2  0
 10 19  1  0
 19 20  2  0
  6 21  2  0
 21 22  1  0
 22 23  1  0
 23 24  2  0
 24 25  1  0
 25 26  2  0
 26 27  1  0
 26 28  1  0
 28 29  2  0
 22 30  1  0
 30 31  1  0
 30  5  2  0
 20  7  1  0
 29 23  1  0
 18 12  1  0
  1 32  1  0
  1 33  1  0
  1 34  1  0
  8 35  1  0
  9 36  1  0
 13 37  1  0
 14 38  1  0
 17 39  1  0
 18 40  1  0
 19 41  1  0
 20 42  1  0
 21 43  1  0
 24 44  1  0
 25 45  1  0
 27 46  1  0
 28 47  1  0
 29 48  1  0
M  CHG  3   4  -1  16  -1  31  -1
M  END
>  <UniqueID>  (21) 
21

>  <SMILES>  (21) 
CC(=O)[N-]c1c(-c2ccc(Sc3ccc([O-])cc3)cc2)cn(-c2ccc(O)cc2)c1[O-]

>  <Energy>  (21) 
87.94881438377531

>  <Genealogy>  (21) 
CC(=O)[N-]c1c(-c2ccc(Sc3ccc([O-])cc3)cc2)cn(-c2ccc(O)cc2)c1[O-] (protonated)
CC(=O)[N-]c1c(-c2ccc(Sc3ccc([O-])cc3)cc2)cn(-c2ccc(O)cc2)c1[O-] (3D coordinates assigned)
CC(=O)[N-]c1c(-c2ccc(Sc3ccc([O-])cc3)cc2)cn(-c2ccc(O)cc2)c1[O-] (optimized conformer: 87.94881438377531 kcal/mol)

>  <smiles>  (21) 
CC(=O)Nc1c(-c2ccc(Sc3ccc(O)cc3)cc2)cn(-c2ccc(O)cc2)c1O

>  <score_type>  (21) 
oracle

>  <origin>  (21) 
adgpu

>  <m_score__min__energy>  (21) 
-13.140000000000001

>  <m_primary>  (21) 
energy

$$$$
21:0
     RDKit          3D

 46 48  0  0  0  0  0  0  0  0999 V2000
    0.3640   18.4230  -28.2290 C   0  0  0  0  0  0  0  0  0  0  0  0
   -0.6560   18.9250  -29.0860 O   0  0  0  0  0  0  0  0  0  0  0  0
   -1.0670   20.2650  -29.1370 C   0  0  0  0  0  0  0  0  0  0  0  0
   -0.8840   21.0590  -30.2850 C   0  0  0  0  0  0  0  0  0  0  0  0
   -1.2880   22.3940  -30.2920 C   0  0  0  0  0  0  0  0  0  0  0  0
   -1.8940   22.9530  -29.1600 C   0  0  0  0  0  0  0  0  0  0  0  0
   -2.4170   24.6370  -29.1560 S   0  0  0  0  0  0  0  0  0  0  0  0
   -3.1200   24.9200  -27.8590 O   0  0  0  0  0  0  0  0  0  0  0  0
   -1.2400   25.5660  -29.2750 O   0  0  0  0  0  0  0  0  0  0  0  0
   -3.5090   24.9270  -30.4680 N   0  0  0  0  0  0  0  0  0  0  0  0
   -4.5970   24.0750  -30.8520 C   0  0  0  0  0  0  0  0  0  0  0  0
   -5.8850   24.4340  -30.4710 C   0  0  0  0  0  0  0  0  0  0  0  0
   -6.9760   23.6420  -30.8240 C   0  0  0  0  0  0  0  0  0  0  0  0
   -6.8080   22.4570  -31.5750 C   0  0  0  0  0  0  0  0  0  0  0  0
   -5.4910   22.0730  -31.9630 C   0  0  0  0  0  0  0  0  0  0  0  0
   -4.4050   22.9010  -31.5910 C   0  0  0  0  0  0  0  0  0  0  0  0
   -5.3030   20.9180  -32.6930 N   0  0  0  0  0  0  0  0  0  0  0  0
   -3.9450   20.4880  -33.0910 C   0  0  0  0  0  0  0  0  0  0  0  0
   -6.3880   20.1630  -33.0570 C   0  0  0  0  0  0  0  0  0  0  0  0
   -6.2400   19.1100  -33.7390 O   0  0  0  0  0  0  0  0  0  0  0  0
   -7.6790   20.5440  -32.6830 C   0  0  0  0  0  0  0  0  0  0  0  0
   -8.6530   19.8250  -33.0480 O   0  0  0  0  0  0  0  0  0  0  0  0
   -7.8840   21.6760  -31.9380 N   0  0  0  0  0  0  0  0  0  0  0  0
   -9.2560   22.0460  -31.5390 C   0  0  0  0  0  0  0  0  0  0  0  0
   -2.0910   22.1660  -28.0190 C   0  0  0  0  0  0  0  0  0  0  0  0
   -1.6740   20.8220  -27.9990 C   0  0  0  0  0  0  0  0  0  0  0  0
   -1.8410   20.0070  -26.8680 O   0  0  0  0  0  0  0  0  0  0  0  0
   -2.9220   19.0990  -26.6810 C   0  0  0  0  0  0  0  0  0  0  0  0
    0.0666   18.5694  -27.1801 H   0  0  0  0  0  0  0  0  0  0  0  0
    0.5102   17.3500  -28.4224 H   0  0  0  0  0  0  0  0  0  0  0  0
    1.3034   18.9617  -28.4224 H   0  0  0  0  0  0  0  0  0  0  0  0
   -0.4195   20.6238  -31.1821 H   0  0  0  0  0  0  0  0  0  0  0  0
   -1.1301   23.0098  -31.1897 H   0  0  0  0  0  0  0  0  0  0  0  0
   -6.0444   25.3515  -29.8856 H   0  0  0  0  0  0  0  0  0  0  0  0
   -7.9865   23.9449  -30.5122 H   0  0  0  0  0  0  0  0  0  0  0  0
   -3.3855   22.6155  -31.8896 H   0  0  0  0  0  0  0  0  0  0  0  0
   -3.3423   20.2972  -32.1908 H   0  0  0  0  0  0  0  0  0  0  0  0
   -4.0125   19.5673  -33.6891 H   0  0  0  0  0  0  0  0  0  0  0  0
   -3.4702   21.2798  -33.6891 H   0  0  0  0  0  0  0  0  0  0  0  0
   -9.3261   22.0649  -30.4414 H   0  0  0  0  0  0  0  0  0  0  0  0
   -9.4983   23.0416  -31.9391 H   0  0  0  0  0  0  0  0  0  0  0  0
   -9.9660   21.3073  -31.9391 H   0  0  0  0  0  0  0  0  0  0  0  0
   -2.5750   22.6011  -27.1322 H   0  0  0  0  0  0  0  0  0  0  0  0
   -3.0961   18.9528  -25.6047 H   0  0  0  0  0  0  0  0  0  0  0  0
   -3.8301   19.5091  -27.1469 H   0  0  0  0  0  0  0  0  0  0  0  0
   -2.6748   18.1337  -27.1469 H   0  0  0  0  0  0  0  0  0  0  0  0
  1  2  1  0
  2  3  1  0
  3  4  2  0
  4  5  1  0
  5  6  2  0
  6  7  1  0
  7  8  2  0
  7  9  2  0
  7 10  1  0
 10 11  1  0
 11 12  2  0
 12 13  1  0
 13 14  2  0
 14 15  1  0
 15 16  2  0
 15 17  1  0
 17 18  1  0
 17 19  1  0
 19 20  2  0
 19 21  1  0
 21 22  2  0
 21 23  1  0
 23 24  1  0
  6 25  1  0
 25 26  2  0
 26 27  1  0
 27 28  1  0
 26  3  1  0
 16 11  1  0
 23 14  1  0
  1 29  1  0
  1 30  1  0
  1 31  1  0
  4 32  1  0
  5 33  1  0
 12 34  1  0
 13 35  1  0
 16 36  1  0
 18 37  1  0
 18 38  1  0
 18 39  1  0
 24 40  1  0
 24 41  1  0
 24 42  1  0
 25 43  1  0
 28 44  1  0
 28 45  1  0
 28 46  1  0
M  CHG  1  10  -1
M  END
>  <UniqueID>  (22) 
22

>  <SMILES>  (22) 
COc1ccc(S(=O)(=O)[N-]c2ccc3c(c2)n(C)c(=O)c(=O)n3C)cc1OC

>  <Energy>  (22) 
67.20387562787273

>  <Genealogy>  (22) 
COc1ccc(S(=O)(=O)[N-]c2ccc3c(c2)n(C)c(=O)c(=O)n3C)cc1OC (protonated)
COc1ccc(S(=O)(=O)[N-]c2ccc3c(c2)n(C)c(=O)c(=O)n3C)cc1OC (3D coordinates assigned)
COc1ccc(S(=O)(=O)[N-]c2ccc3c(c2)n(C)c(=O)c(=O)n3C)cc1OC (optimized conformer: 67.20387562787273 kcal/mol)

>  <smiles>  (22) 
COc1ccc(S(=O)(=O)Nc2ccc3c(c2)n(C)c(=O)c(=O)n3C)cc1OC

>  <score_type>  (22) 
oracle

>  <origin>  (22) 
adgpu

>  <m_score__min__energy>  (22) 
-9.9700000000000006

>  <m_primary>  (22) 
energy

$$$$
22:0
     RDKit          3D

 40 42  0  0  0  0  0  0  0  0999 V2000
   -5.9810   20.2770  -33.0850 C   0  0  0  0  0  0  0  0  0  0  0  0
   -4.6530   20.8760  -33.0820 N   0  0  0  0  0  0  0  0  0  0  0  0
   -3.6330   20.4480  -33.8030 N   0  0  0  0  0  0  0  0  0  0  0  0
   -2.5640   21.1690  -33.4930 N   0  0  0  0  0  0  0  0  0  0  0  0
   -2.8720   22.0620  -32.5610 N   0  0  0  0  0  0  0  0  0  0  0  0
   -4.1770   21.8630  -32.3060 C   0  0  0  0  0  0  0  0  0  0  0  0
   -5.1200   22.7920  -31.0970 S   0  0  0  0  0  0  0  0  0  0  0  0
   -3.7300   22.9220  -29.9700 C   0  0  0  0  0  0  0  0  0  0  0  0
   -3.3050   21.7900  -29.2660 C   0  0  0  0  0  0  0  0  0  0  0  0
   -2.2250   21.8720  -28.3770 C   0  0  0  0  0  0  0  0  0  0  0  0
   -1.6990   20.4430  -27.4930 S   0  0  0  0  0  0  0  0  0  0  0  0
   -2.8800   19.7170  -26.9120 O   0  0  0  0  0  0  0  0  0  0  0  0
   -0.7920   20.8760  -26.3750 O   0  0  0  0  0  0  0  0  0  0  0  0
   -0.8330   19.3680  -28.5440 N   0  0  0  0  0  0  0  0  0  0  0  0
   -0.5090   19.6730  -29.9140 C   0  0  0  0  0  0  0  0  0  0  0  0
   -0.5290   18.6880  -30.9200 C   0  0  0  0  0  0  0  0  0  0  0  0
   -0.2240   19.0230  -32.2420 C   0  0  0  0  0  0  0  0  0  0  0  0
    0.1140   20.3390  -32.5790 C   0  0  0  0  0  0  0  0  0  0  0  0
    0.4800   20.7460  -34.2520 S   0  0  0  0  0  0  0  0  0  0  0  0
   -0.8680   20.3280  -35.2490 N   0  0  0  0  0  0  0  0  0  0  0  0
    1.6960   19.9830  -34.6980 O   0  0  0  0  0  0  0  0  0  0  0  0
    0.7550   22.2180  -34.3800 O   0  0  0  0  0  0  0  0  0  0  0  0
    0.1400   21.3210  -31.5800 C   0  0  0  0  0  0  0  0  0  0  0  0
   -0.1650   20.9890  -30.2570 C   0  0  0  0  0  0  0  0  0  0  0  0
   -1.5670   23.0960  -28.1990 C   0  0  0  0  0  0  0  0  0  0  0  0
   -1.9920   24.2300  -28.8960 C   0  0  0  0  0  0  0  0  0  0  0  0
   -3.0730   24.1470  -29.7800 C   0  0  0  0  0  0  0  0  0  0  0  0
   -3.4880   25.2850  -30.4650 O   0  0  0  0  0  0  0  0  0  0  0  0
   -6.3172   20.1254  -32.0487 H   0  0  0  0  0  0  0  0  0  0  0  0
   -6.6836   20.9454  -33.6043 H   0  0  0  0  0  0  0  0  0  0  0  0
   -5.9450   19.3080  -33.6043 H   0  0  0  0  0  0  0  0  0  0  0  0
   -3.8218   20.8299  -29.4113 H   0  0  0  0  0  0  0  0  0  0  0  0
   -0.4560   18.4920  -28.1170 H   0  0  0  0  0  0  0  0  0  0  0  0
   -0.7860   17.6495  -30.6640 H   0  0  0  0  0  0  0  0  0  0  0  0
   -0.2497   18.2481  -33.0223 H   0  0  0  0  0  0  0  0  0  0  0  0
   -1.7030   20.8180  -34.8540 H   0  0  0  0  0  0  0  0  0  0  0  0
    0.4016   22.3578  -31.8380 H   0  0  0  0  0  0  0  0  0  0  0  0
   -0.1351   21.7657  -29.4787 H   0  0  0  0  0  0  0  0  0  0  0  0
   -0.7134   23.1645  -27.5086 H   0  0  0  0  0  0  0  0  0  0  0  0
   -1.4755   25.1900  -28.7493 H   0  0  0  0  0  0  0  0  0  0  0  0
  1  2  1  0
  2  3  1  0
  3  4  2  0
  4  5  1  0
  5  6  2  0
  6  7  1  0
  7  8  1  0
  8  9  2  0
  9 10  1  0
 10 11  1  0
 11 12  2  0
 11 13  2  0
 11 14  1  0
 14 15  1  0
 15 16  2  0
 16 17  1  0
 17 18  2  0
 18 19  1  0
 19 20  1  0
 19 21  2  0
 19 22  2  0
 18 23  1  0
 23 24  2  0
 10 25  2  0
 25 26  1  0
 26 27  2  0
 27 28  1  0
  6  2  1  0
 27  8  1  0
 24 15  1  0
  1 29  1  0
  1 30  1  0
  1 31  1  0
  9 32  1  0
 14 33  1  0
 16 34  1  0
 17 35  1  0
 20 36  1  0
 23 37  1  0
 24 38  1  0
 25 39  1  0
 26 40  1  0
M  CHG  2  20  -1  28  -1
M  END
>  <UniqueID>  (23) 
23

>  <SMILES>  (23) 
Cn1nnnc1Sc1cc(S(=O)(=O)Nc2ccc(S([NH-])(=O)=O)cc2)ccc1[O-]

>  <Energy>  (23) 
79.89535562729537

>  <Genealogy>  (23) 
Cn1nnnc1Sc1cc(S(=O)(=O)Nc2ccc(S([NH-])(=O)=O)cc2)ccc1[O-] (protonated)
Cn1nnnc1Sc1cc(S(=O)(=O)Nc2ccc(S([NH-])(=O)=O)cc2)ccc1[O-] (3D coordinates assigned)
Cn1nnnc1Sc1cc(S(=O)(=O)Nc2ccc(S([NH-])(=O)=O)cc2)ccc1[O-] (optimized conformer: 79.89535562729537 kcal/mol)

>  <smiles>  (23) 
Cn1nnnc1Sc1cc(S(=O)(=O)Nc2ccc(S(N)(=O)=O)cc2)ccc1O

>  <score_type>  (23) 
oracle

>  <origin>  (23) 
adgpu

>  <m_score__min__energy>  (23) 
-11.109999999999999

>  <m_primary>  (23) 
energy

$$$$
23:0
     RDKit          3D

 51 53  0  0  0  0  0  0  0  0999 V2000
   -7.9021   25.3004  -29.1552 H   0  0  0  0  0  0  0  0  0  0  0  0
   -7.0300   24.9570  -29.7310 C   0  0  0  0  0  0  0  0  0  0  0  0
   -5.7450   25.3600  -29.3550 C   0  0  0  0  0  0  0  0  0  0  0  0
   -5.6104   26.0349  -28.4969 H   0  0  0  0  0  0  0  0  0  0  0  0
   -4.6240   24.9040  -30.0720 C   0  0  0  0  0  0  0  0  0  0  0  0
   -3.2810   25.2850  -29.7310 N   0  0  0  0  0  0  0  0  0  0  0  0
   -2.2120   24.4410  -29.2850 C   0  0  0  0  0  0  0  0  0  0  0  0
   -1.0500   24.8970  -29.1120 O   0  0  0  0  0  0  0  0  0  0  0  0
   -2.4980   23.0230  -28.9310 C   0  0  0  0  0  0  0  0  0  0  0  0
   -2.5197   22.9155  -27.8365 H   0  0  0  0  0  0  0  0  0  0  0  0
   -3.4732   22.7306  -29.3475 H   0  0  0  0  0  0  0  0  0  0  0  0
   -1.7124   22.3755  -29.3475 H   0  0  0  0  0  0  0  0  0  0  0  0
   -4.8160   24.0870  -31.1940 C   0  0  0  0  0  0  0  0  0  0  0  0
   -3.9458   23.7465  -31.7743 H   0  0  0  0  0  0  0  0  0  0  0  0
   -6.1110   23.6970  -31.5870 C   0  0  0  0  0  0  0  0  0  0  0  0
   -6.3380   22.8890  -32.7120 O   0  0  0  0  0  0  0  0  0  0  0  0
   -6.3670   21.4890  -32.6840 C   0  0  0  0  0  0  0  0  0  0  0  0
   -5.2260   20.8140  -32.9730 N   0  0  0  0  0  0  0  0  0  0  0  0
   -5.1860   19.4560  -32.9780 C   0  0  0  0  0  0  0  0  0  0  0  0
   -4.0780   18.8140  -33.2070 N   0  0  0  0  0  0  0  0  0  0  0  0
   -2.8150   19.3970  -33.5670 C   0  0  0  0  0  0  0  0  0  0  0  0
   -2.5020   20.7320  -33.2610 C   0  0  0  0  0  0  0  0  0  0  0  0
   -3.2163   21.3447  -32.6915 H   0  0  0  0  0  0  0  0  0  0  0  0
   -1.2890   21.2850  -33.6760 C   0  0  0  0  0  0  0  0  0  0  0  0
   -1.0498   22.3300  -33.4296 H   0  0  0  0  0  0  0  0  0  0  0  0
   -0.3750   20.5120  -34.4060 C   0  0  0  0  0  0  0  0  0  0  0  0
    1.1660   21.2050  -34.9130 S   0  0  0  0  0  0  0  0  0  0  0  0
    2.2300   20.8760  -33.9030 O   0  0  0  0  0  0  0  0  0  0  0  0
    1.0380   22.7010  -34.9900 O   0  0  0  0  0  0  0  0  0  0  0  0
    1.6250   20.6080  -36.4810 N   0  0  0  0  0  0  0  0  0  0  0  0
    2.9880   21.0230  -36.7980 C   0  0  0  0  0  0  0  0  0  0  0  0
    3.5459   21.1929  -35.8653 H   0  0  0  0  0  0  0  0  0  0  0  0
    3.4843   20.2352  -37.3838 H   0  0  0  0  0  0  0  0  0  0  0  0
    2.9611   21.9537  -37.3838 H   0  0  0  0  0  0  0  0  0  0  0  0
   -0.6970   19.1880  -34.7350 C   0  0  0  0  0  0  0  0  0  0  0  0
    0.0131   18.5785  -35.3131 H   0  0  0  0  0  0  0  0  0  0  0  0
   -1.9170   18.6400  -34.3310 C   0  0  0  0  0  0  0  0  0  0  0  0
   -2.1739   17.6086  -34.6143 H   0  0  0  0  0  0  0  0  0  0  0  0
   -6.3080   18.7530  -32.6910 N   0  0  0  0  0  0  0  0  0  0  0  0
   -7.4860   19.3640  -32.3940 C   0  0  0  0  0  0  0  0  0  0  0  0
   -8.6790   18.4940  -32.0820 C   0  0  0  0  0  0  0  0  0  0  0  0
   -9.0450   18.6330  -30.7540 F   0  0  0  0  0  0  0  0  0  0  0  0
   -8.3750   17.1730  -32.3450 F   0  0  0  0  0  0  0  0  0  0  0  0
   -9.7570   18.8620  -32.8680 F   0  0  0  0  0  0  0  0  0  0  0  0
   -7.5360   20.7780  -32.3350 C   0  0  0  0  0  0  0  0  0  0  0  0
   -8.7910   21.5100  -31.9230 C   0  0  0  0  0  0  0  0  0  0  0  0
   -8.8513   21.5452  -30.8252 H   0  0  0  0  0  0  0  0  0  0  0  0
   -8.7654   22.5348  -32.3218 H   0  0  0  0  0  0  0  0  0  0  0  0
   -9.6704   20.9832  -32.3218 H   0  0  0  0  0  0  0  0  0  0  0  0
   -7.2110   24.1200  -30.8350 C   0  0  0  0  0  0  0  0  0  0  0  0
   -8.2234   23.7924  -31.1137 H   0  0  0  0  0  0  0  0  0  0  0  0
  1  2  1  0
  2  3  2  0
  3  4  1  0
  3  5  1  0
  5  6  1  0
  6  7  1  0
  7  8  2  0
  7  9  1  0
  9 10  1  0
  9 11  1  0
  9 12  1  0
  5 13  2  0
 13 14  1  0
 13 15  1  0
 15 16  1  0
 16 17  1  0
 17 18  1  0
 18 19  1  0
 19 20  2  0
 20 21  1  0
 21 22  2  0
 22 23  1  0
 22 24  1  0
 24 25  1  0
 24 26  2  0
 26 27  1  0
 27 28  2  0
 27 29  2  0
 27 30  1  0
 30 31  1  0
 31 32  1  0
 31 33  1  0
 31 34  1  0
 26 35  1  0
 35 36  1  0
 35 37  2  0
 37 38  1  0
 19 39  1  0
 39 40  2  0
 40 41  1  0
 41 42  1  0
 41 43  1  0
 41 44  1  0
 40 45  1  0
 45 46  1  0
 46 47  1  0
 46 48  1  0
 46 49  1  0
 15 50  2  0
 50 51  1  0
 50  2  1  0
 45 17  2  0
 37 21  1  0
M  CHG  3   6  -1  18  -1  30  -1
M  END
>  <UniqueID>  (24) 
24

>  <SMILES>  (24) 
C[N-]S(=O)(=O)c1ccc(/N=c2/nc(C(F)(F)F)c(C)c(Oc3cccc([N-]C(C)=O)c3)[n-]2)cc1

>  <Energy>  (24) 
70.59453575831648

>  <Genealogy>  (24) 
C[N-]S(=O)(=O)c1ccc(N=c2nc(C(F)(F)F)c(C)c(Oc3cccc([N-]C(C)=O)c3)[n-]2)cc1 (protonated)
C[N-]S(=O)(=O)c1ccc(/N=c2/nc(C(F)(F)F)c(C)c(Oc3cccc([N-]C(C)=O)c3)[n-]2)cc1 (cis-trans isomerization)
C[N-]S(=O)(=O)c1ccc(/N=c2/nc(C(F)(F)F)c(C)c(Oc3cccc([N-]C(C)=O)c3)[n-]2)cc1 (3D coordinates assigned)
C[N-]S(=O)(=O)c1ccc(/N=c2/nc(C(F)(F)F)c(C)c(Oc3cccc([N-]C(C)=O)c3)[n-]2)cc1 (optimized conformer: 70.59453575831648 kcal/mol)

>  <smiles>  (24) 
CNS(=O)(=O)c1ccc(N=c2nc(C(F)(F)F)c(C)c(Oc3cccc(NC(C)=O)c3)[nH]2)cc1

>  <score_type>  (24) 
oracle

>  <origin>  (24) 
adgpu

>  <m_score__min__energy>  (24) 
-11.630000000000001

>  <m_primary>  (24) 
energy

$$$$
24:0
     RDKit          3D

 77 81  0  0  0  0  0  0  0  0999 V2000
   -2.5930   20.8100  -29.3410 C   0  0  0  0  0  0  0  0  0  0  0  0
   -1.1550   20.9140  -29.8360 C   0  0  0  0  0  0  0  0  0  0  0  0
   -1.0360   20.3880  -31.1580 O   0  0  0  0  0  0  0  0  0  0  0  0
   -0.8470   19.0350  -31.4920 C   0  0  0  0  0  0  0  0  0  0  0  0
    0.1280   18.2330  -30.8690 C   0  0  0  0  0  0  0  0  0  0  0  0
    0.2880   16.8950  -31.2420 C   0  0  0  0  0  0  0  0  0  0  0  0
    1.2260   16.1310  -30.6260 N   0  0  0  0  0  0  0  0  0  0  0  0
    1.4010   14.8300  -30.9660 C   0  0  0  0  0  0  0  0  0  0  0  0
    0.6430   14.2730  -31.9440 N   0  0  0  0  0  0  0  0  0  0  0  0
   -0.3070   14.9890  -32.6040 C   0  0  0  0  0  0  0  0  0  0  0  0
   -1.0320   14.3590  -33.6740 N   0  0  0  0  0  0  0  0  0  0  0  0
   -2.3390   13.7410  -33.3760 C   0  0  0  0  0  0  0  0  0  0  0  0
   -3.3070   13.9150  -34.5520 C   0  0  0  0  0  0  0  0  0  0  0  0
   -3.1410   15.2610  -35.1140 N   0  0  0  0  0  0  0  0  0  0  0  0
   -4.1580   16.2680  -34.9760 C   0  0  0  0  0  0  0  0  0  0  0  0
   -4.3230   17.1070  -35.9040 O   0  0  0  0  0  0  0  0  0  0  0  0
   -4.9450   16.3600  -33.7760 N   0  0  0  0  0  0  0  0  0  0  0  0
   -5.6020   17.5610  -33.3350 C   0  0  0  0  0  0  0  0  0  0  0  0
   -6.4010   17.5220  -32.1840 C   0  0  0  0  0  0  0  0  0  0  0  0
   -6.9990   18.6870  -31.6960 C   0  0  0  0  0  0  0  0  0  0  0  0
   -6.7870   19.9170  -32.3370 C   0  0  0  0  0  0  0  0  0  0  0  0
   -7.4100   21.1530  -31.8170 C   0  0  0  0  0  0  0  0  0  0  0  0
   -8.5350   21.5070  -32.2670 O   0  0  0  0  0  0  0  0  0  0  0  0
   -6.7550   21.9630  -30.8220 N   0  0  0  0  0  0  0  0  0  0  0  0
   -7.5420   22.7000  -29.8290 C   0  0  0  0  0  0  0  0  0  0  0  0
   -7.2060   24.1910  -29.9330 C   0  0  0  0  0  0  0  0  0  0  0  0
   -5.7460   24.4740  -29.8550 N   0  0  0  0  0  0  0  0  0  0  0  0
   -5.3370   25.4690  -30.8620 C   0  0  0  0  0  0  0  0  0  0  0  0
   -4.8700   23.2780  -29.8910 C   0  0  0  0  0  0  0  0  0  0  0  0
   -5.3190   22.2480  -30.9410 C   0  0  0  0  0  0  0  0  0  0  0  0
   -5.9930   19.9580  -33.4930 C   0  0  0  0  0  0  0  0  0  0  0  0
   -5.3940   18.7930  -33.9820 C   0  0  0  0  0  0  0  0  0  0  0  0
   -1.8140   15.6640  -35.6050 C   0  0  0  0  0  0  0  0  0  0  0  0
   -0.7180   14.7350  -35.0600 C   0  0  0  0  0  0  0  0  0  0  0  0
   -0.5230   16.3390  -32.2520 C   0  0  0  0  0  0  0  0  0  0  0  0
   -1.5190   17.1290  -32.8480 C   0  0  0  0  0  0  0  0  0  0  0  0
   -1.6760   18.4790  -32.4790 C   0  0  0  0  0  0  0  0  0  0  0  0
   -2.6460   19.3040  -33.0730 O   0  0  0  0  0  0  0  0  0  0  0  0
   -2.3620   20.4900  -33.8100 C   0  0  0  0  0  0  0  0  0  0  0  0
   -3.1520   21.6510  -33.2280 C   0  0  0  0  0  0  0  0  0  0  0  0
   -2.6030   20.8093  -28.2410 H   0  0  0  0  0  0  0  0  0  0  0  0
   -3.1716   21.6686  -29.7124 H   0  0  0  0  0  0  0  0  0  0  0  0
   -3.0421   19.8770  -29.7124 H   0  0  0  0  0  0  0  0  0  0  0  0
   -0.8500   21.9709  -29.8393 H   0  0  0  0  0  0  0  0  0  0  0  0
   -0.5073   20.3314  -29.1644 H   0  0  0  0  0  0  0  0  0  0  0  0
    0.7680   18.6617  -30.0838 H   0  0  0  0  0  0  0  0  0  0  0  0
    2.1593   14.2247  -30.4477 H   0  0  0  0  0  0  0  0  0  0  0  0
   -2.1945   12.6675  -33.1842 H   0  0  0  0  0  0  0  0  0  0  0  0
   -2.7679   14.2348  -32.4916 H   0  0  0  0  0  0  0  0  0  0  0  0
   -3.0873   13.1634  -35.3245 H   0  0  0  0  0  0  0  0  0  0  0  0
   -4.3420   13.7834  -34.2034 H   0  0  0  0  0  0  0  0  0  0  0  0
   -5.0320   15.5210  -33.1600 H   0  0  0  0  0  0  0  0  0  0  0  0
   -6.5585   16.5672  -31.6609 H   0  0  0  0  0  0  0  0  0  0  0  0
   -7.6402   18.6394  -30.8034 H   0  0  0  0  0  0  0  0  0  0  0  0
   -8.6143   22.5492  -30.0226 H   0  0  0  0  0  0  0  0  0  0  0  0
   -7.3025   22.3346  -28.8195 H   0  0  0  0  0  0  0  0  0  0  0  0
   -7.5834   24.5674  -30.8952 H   0  0  0  0  0  0  0  0  0  0  0  0
   -7.6806   24.6918  -29.0763 H   0  0  0  0  0  0  0  0  0  0  0  0
   -4.9658   26.3721  -30.3554 H   0  0  0  0  0  0  0  0  0  0  0  0
   -4.5393   25.0474  -31.4911 H   0  0  0  0  0  0  0  0  0  0  0  0
   -6.2007   25.7303  -31.4911 H   0  0  0  0  0  0  0  0  0  0  0  0
   -3.8449   23.5990  -30.1281 H   0  0  0  0  0  0  0  0  0  0  0  0
   -4.9255   22.7943  -28.9046 H   0  0  0  0  0  0  0  0  0  0  0  0
   -5.1139   22.6463  -31.9456 H   0  0  0  0  0  0  0  0  0  0  0  0
   -4.7625   21.3139  -30.7743 H   0  0  0  0  0  0  0  0  0  0  0  0
   -5.8408   20.9126  -34.0179 H   0  0  0  0  0  0  0  0  0  0  0  0
   -4.7567   18.8399  -34.8774 H   0  0  0  0  0  0  0  0  0  0  0  0
   -1.8088   15.6199  -36.7041 H   0  0  0  0  0  0  0  0  0  0  0  0
   -1.6089   16.6877  -35.2587 H   0  0  0  0  0  0  0  0  0  0  0  0
   -0.6641   13.8290  -35.6815 H   0  0  0  0  0  0  0  0  0  0  0  0
    0.2493   15.2582  -35.0855 H   0  0  0  0  0  0  0  0  0  0  0  0
   -2.1815   16.6903  -33.6087 H   0  0  0  0  0  0  0  0  0  0  0  0
   -1.2862   20.7112  -33.7481 H   0  0  0  0  0  0  0  0  0  0  0  0
   -2.6470   20.3442  -34.8624 H   0  0  0  0  0  0  0  0  0  0  0  0
   -3.1192   21.6028  -32.1295 H   0  0  0  0  0  0  0  0  0  0  0  0
   -2.7117   22.6004  -33.5666 H   0  0  0  0  0  0  0  0  0  0  0  0
   -4.1968   21.5899  -33.5666 H   0  0  0  0  0  0  0  0  0  0  0  0
  1  2  1  0
  2  3  1  0
  3  4  1  0
  4  5  2  0
  5  6  1  0
  6  7  2  0
  7  8  1  0
  8  9  2  0
  9 10  1  0
 10 11  1  0
 11 12  1  0
 12 13  1  0
 13 14  1  0
 14 15  1  0
 15 16  2  0
 15 17  1  0
 17 18  1  0
 18 19  2  0
 19 20  1  0
 20 21  2  0
 21 22  1  0
 22 23  2  0
 22 24  1  0
 24 25  1  0
 25 26  1  0
 26 27  1  0
 27 28  1  0
 27 29  1  0
 29 30  1  0
 21 31  1  0
 31 32  2  0
 14 33  1  0
 33 34  1  0
 10 35  2  0
 35 36  1  0
 36 37  2  0
 37 38  1  0
 38 39  1  0
 39 40  1  0
 37  4  1  0
 35  6  1  0
 34 11  1  0
 32 18  1  0
 30 24  1  0
  1 41  1  0
  1 42  1  0
  1 43  1  0
  2 44  1  0
  2 45  1  0
  5 46  1  0
  8 47  1  0
 12 48  1  0
 12 49  1  0
 13 50  1  0
 13 51  1  0
 17 52  1  0
 19 53  1  0
 20 54  1  0
 25 55  1  0
 25 56  1  0
 26 57  1  0
 26 58  1  0
 28 59  1  0
 28 60  1  0
 28 61  1  0
 29 62  1  0
 29 63  1  0
 30 64  1  0
 30 65  1  0
 31 66  1  0
 32 67  1  0
 33 68  1  0
 33 69  1  0
 34 70  1  0
 34 71  1  0
 36 72  1  0
 39 73  1  0
 39 74  1  0
 40 75  1  0
 40 76  1  0
 40 77  1  0
M  END
>  <UniqueID>  (25) 
25

>  <SMILES>  (25) 
CCOc1cc2ncnc(N3CCN(C(=O)Nc4ccc(C(=O)N5CCN(C)CC5)cc4)CC3)c2cc1OCC

>  <Energy>  (25) 
107.58085887290561

>  <Genealogy>  (25) 
CCOc1cc2ncnc(N3CCN(C(=O)Nc4ccc(C(=O)N5CCN(C)CC5)cc4)CC3)c2cc1OCC (3D coordinates assigned)
CCOc1cc2ncnc(N3CCN(C(=O)Nc4ccc(C(=O)N5CCN(C)CC5)cc4)CC3)c2cc1OCC (nonaromatic ring conformer: 107.58085887290561 kcal/mol)

>  <smiles>  (25) 
CCOc1cc2ncnc(N3CCN(C(=O)Nc4ccc(C(=O)N5CCN(C)CC5)cc4)CC3)c2cc1OCC

>  <score_type>  (25) 
oracle

>  <origin>  (25) 
adgpu

>  <m_score__min__energy>  (25) 
-9.4199999999999999

>  <m_primary>  (25) 
energy

$$$$
25:0
     RDKit          3D

 44 46  0  0  0  0  0  0  0  0999 V2000
    0.1680   26.1240  -25.8140 C   0  0  0  0  0  0  0  0  0  0  0  0
    0.1630   25.3000  -27.0660 C   0  0  0  0  0  0  0  0  0  0  0  0
    1.2000   25.2850  -27.7810 O   0  0  0  0  0  0  0  0  0  0  0  0
   -1.0310   24.5230  -27.4840 C   0  0  0  0  0  0  0  0  0  0  0  0
   -1.4660   23.3920  -26.7660 C   0  0  0  0  0  0  0  0  0  0  0  0
   -0.8070   22.9810  -25.6130 O   0  0  0  0  0  0  0  0  0  0  0  0
   -2.5330   22.7100  -27.1640 O   0  0  0  0  0  0  0  0  0  0  0  0
   -3.2410   23.0330  -28.2400 C   0  0  0  0  0  0  0  0  0  0  0  0
   -4.2280   22.3170  -28.5590 O   0  0  0  0  0  0  0  0  0  0  0  0
   -2.8810   24.1460  -29.0200 C   0  0  0  0  0  0  0  0  0  0  0  0
   -3.6360   24.4850  -30.2510 C   0  0  0  0  0  0  0  0  0  0  0  0
   -3.9870   25.6780  -30.4480 O   0  0  0  0  0  0  0  0  0  0  0  0
   -3.9530   23.5020  -31.2490 N   0  0  0  0  0  0  0  0  0  0  0  0
   -5.2520   22.9630  -31.5370 C   0  0  0  0  0  0  0  0  0  0  0  0
   -6.3850   23.7180  -31.2120 C   0  0  0  0  0  0  0  0  0  0  0  0
   -7.6640   23.2270  -31.4870 C   0  0  0  0  0  0  0  0  0  0  0  0
   -7.8210   21.9730  -32.0810 C   0  0  0  0  0  0  0  0  0  0  0  0
   -6.6980   21.1930  -32.3850 C   0  0  0  0  0  0  0  0  0  0  0  0
   -6.8900   19.6030  -33.1270 S   0  0  0  0  0  0  0  0  0  0  0  0
   -8.3290   19.1810  -33.0250 O   0  0  0  0  0  0  0  0  0  0  0  0
   -6.5380   19.6960  -34.5870 O   0  0  0  0  0  0  0  0  0  0  0  0
   -5.8800   18.3930  -32.3630 N   0  0  0  0  0  0  0  0  0  0  0  0
   -6.5370   17.0820  -32.3490 C   0  0  0  0  0  0  0  0  0  0  0  0
   -5.9880   16.2540  -33.5030 C   0  0  0  0  0  0  0  0  0  0  0  0
   -4.7740   17.0070  -34.0110 C   0  0  0  0  0  0  0  0  0  0  0  0
   -4.6250   18.2130  -33.0970 C   0  0  0  0  0  0  0  0  0  0  0  0
   -5.4170   21.6840  -32.1010 C   0  0  0  0  0  0  0  0  0  0  0  0
   -1.7720   24.9080  -28.6150 C   0  0  0  0  0  0  0  0  0  0  0  0
   -1.4060   26.0420  -29.3370 O   0  0  0  0  0  0  0  0  0  0  0  0
    0.1640   25.4593  -24.9376 H   0  0  0  0  0  0  0  0  0  0  0  0
    1.0700   26.7533  -25.7928 H   0  0  0  0  0  0  0  0  0  0  0  0
   -0.7263   26.7642  -25.7928 H   0  0  0  0  0  0  0  0  0  0  0  0
   -6.2679   24.7034  -30.7374 H   0  0  0  0  0  0  0  0  0  0  0  0
   -8.5491   23.8296  -31.2350 H   0  0  0  0  0  0  0  0  0  0  0  0
   -8.8289   21.5969  -32.3107 H   0  0  0  0  0  0  0  0  0  0  0  0
   -6.3299   16.5733  -31.3959 H   0  0  0  0  0  0  0  0  0  0  0  0
   -7.6248   17.2044  -32.4571 H   0  0  0  0  0  0  0  0  0  0  0  0
   -5.6983   15.2525  -33.1520 H   0  0  0  0  0  0  0  0  0  0  0  0
   -6.7389   16.1153  -34.2948 H   0  0  0  0  0  0  0  0  0  0  0  0
   -3.8779   16.3713  -33.9562 H   0  0  0  0  0  0  0  0  0  0  0  0
   -4.8934   17.3071  -35.0625 H   0  0  0  0  0  0  0  0  0  0  0  0
   -3.8010   18.0429  -32.3884 H   0  0  0  0  0  0  0  0  0  0  0  0
   -4.4010   19.1120  -33.6900 H   0  0  0  0  0  0  0  0  0  0  0  0
   -4.5340   21.0657  -32.3203 H   0  0  0  0  0  0  0  0  0  0  0  0
  1  2  1  0
  2  3  2  0
  2  4  1  0
  4  5  2  0
  5  6  1  0
  5  7  1  0
  7  8  1  0
  8  9  2  0
  8 10  1  0
 10 11  1  0
 11 12  2  0
 11 13  1  0
 13 14  1  0
 14 15  2  0
 15 16  1  0
 16 17  2  0
 17 18  1  0
 18 19  1  0
 19 20  2  0
 19 21  2  0
 19 22  1  0
 22 23  1  0
 23 24  1  0
 24 25  1  0
 25 26  1  0
 18 27  2  0
 10 28  2  0
 28 29  1  0
 28  4  1  0
 27 14  1  0
 26 22  1  0
  1 30  1  0
  1 31  1  0
  1 32  1  0
 15 33  1  0
 16 34  1  0
 17 35  1  0
 23 36  1  0
 23 37  1  0
 24 38  1  0
 24 39  1  0
 25 40  1  0
 25 41  1  0
 26 42  1  0
 26 43  1  0
 27 44  1  0
M  CHG  3   6  -1  13  -1  29  -1
M  END
>  <UniqueID>  (26) 
26

>  <SMILES>  (26) 
CC(=O)c1c([O-])oc(=O)c(C(=O)[N-]c2cccc(S(=O)(=O)N3CCCC3)c2)c1[O-]

>  <Energy>  (26) 
59.93479179668214

>  <Genealogy>  (26) 
CC(=O)c1c([O-])oc(=O)c(C(=O)[N-]c2cccc(S(=O)(=O)N3CCCC3)c2)c1[O-] (protonated)
CC(=O)c1c([O-])oc(=O)c(C(=O)[N-]c2cccc(S(=O)(=O)N3CCCC3)c2)c1[O-] (3D coordinates assigned)
CC(=O)c1c([O-])oc(=O)c(C(=O)[N-]c2cccc(S(=O)(=O)N3CCCC3)c2)c1[O-] (nonaromatic ring conformer: 59.93479179668214 kcal/mol)

>  <smiles>  (26) 
CC(=O)c1c(O)oc(=O)c(C(=O)Nc2cccc(S(=O)(=O)N3CCCC3)c2)c1O

>  <score_type>  (26) 
oracle

>  <origin>  (26) 
adgpu

>  <m_score__min__energy>  (26) 
-13.98

>  <m_primary>  (26) 
energy

$$$$
26:0
     RDKit          3D

 74 78  0  0  0  0  0  0  0  0999 V2000
    0.5690   17.9810  -28.1610 C   0  0  0  0  0  0  0  0  0  0  0  0
   -0.5120   18.9990  -27.9800 C   0  0  0  0  0  0  0  0  0  0  0  0
   -0.4990   20.1870  -28.7270 C   0  0  0  0  0  0  0  0  0  0  0  0
   -1.5350   21.1110  -28.5680 C   0  0  0  0  0  0  0  0  0  0  0  0
   -1.6050   22.5340  -29.6000 S   0  0  0  0  0  0  0  0  0  0  0  0
   -0.7900   22.2890  -30.8410 O   0  0  0  0  0  0  0  0  0  0  0  0
   -1.0450   23.7380  -28.8890 O   0  0  0  0  0  0  0  0  0  0  0  0
   -3.2930   22.8200  -30.0110 C   0  0  0  0  0  0  0  0  0  0  0  0
   -4.0540   23.7600  -29.3030 C   0  0  0  0  0  0  0  0  0  0  0  0
   -5.3580   24.0640  -29.7050 C   0  0  0  0  0  0  0  0  0  0  0  0
   -5.9160   23.4230  -30.8230 C   0  0  0  0  0  0  0  0  0  0  0  0
   -7.2430   23.8690  -31.3690 C   0  0  0  0  0  0  0  0  0  0  0  0
   -7.7440   22.8630  -32.2980 N   0  0  0  0  0  0  0  0  0  0  0  0
   -8.7740   21.9270  -31.9490 C   0  0  0  0  0  0  0  0  0  0  0  0
   -9.6300   22.2240  -31.0740 O   0  0  0  0  0  0  0  0  0  0  0  0
   -8.8650   20.6690  -32.6220 N   0  0  0  0  0  0  0  0  0  0  0  0
   -7.8040   19.7100  -32.6540 C   0  0  0  0  0  0  0  0  0  0  0  0
   -8.0190   18.4240  -32.1080 C   0  0  0  0  0  0  0  0  0  0  0  0
   -7.0180   17.4360  -32.1750 C   0  0  0  0  0  0  0  0  0  0  0  0
   -5.7930   17.7780  -32.7630 C   0  0  0  0  0  0  0  0  0  0  0  0
   -5.5760   19.0430  -33.2520 C   0  0  0  0  0  0  0  0  0  0  0  0
   -6.5480   20.0360  -33.2110 C   0  0  0  0  0  0  0  0  0  0  0  0
   -4.3170   19.0680  -33.8070 C   0  0  0  0  0  0  0  0  0  0  0  0
   -3.8160   17.7790  -33.6490 C   0  0  0  0  0  0  0  0  0  0  0  0
   -2.5610   17.3160  -34.2770 C   0  0  0  0  0  0  0  0  0  0  0  0
   -2.5740   16.4760  -35.2140 O   0  0  0  0  0  0  0  0  0  0  0  0
   -1.3200   17.9020  -33.8820 N   0  0  0  0  0  0  0  0  0  0  0  0
   -1.0350   18.2000  -32.4830 C   0  0  0  0  0  0  0  0  0  0  0  0
   -1.3380   19.6760  -32.2110 C   0  0  0  0  0  0  0  0  0  0  0  0
   -0.4560   20.5570  -33.0050 N   0  0  0  0  0  0  0  0  0  0  0  0
    0.8950   19.9660  -33.1540 C   0  0  0  0  0  0  0  0  0  0  0  0
    1.7430   20.7700  -34.1630 C   0  0  0  0  0  0  0  0  0  0  0  0
    1.1020   21.9790  -34.5200 O   0  0  0  0  0  0  0  0  0  0  0  0
   -0.1130   21.6910  -35.1880 C   0  0  0  0  0  0  0  0  0  0  0  0
   -1.0400   20.7980  -34.3390 C   0  0  0  0  0  0  0  0  0  0  0  0
   -4.7180   16.9900  -32.9940 N   0  0  0  0  0  0  0  0  0  0  0  0
   -4.5830   15.5610  -32.7010 C   0  0  0  0  0  0  0  0  0  0  0  0
   -5.1600   22.4640  -31.5180 C   0  0  0  0  0  0  0  0  0  0  0  0
   -3.8580   22.1630  -31.1100 C   0  0  0  0  0  0  0  0  0  0  0  0
   -2.5650   20.8430  -27.6590 C   0  0  0  0  0  0  0  0  0  0  0  0
   -2.5360   19.6610  -26.9190 C   0  0  0  0  0  0  0  0  0  0  0  0
   -1.5220   18.7720  -27.0940 N   0  0  0  0  0  0  0  0  0  0  0  0
    0.9253   17.6454  -27.1759 H   0  0  0  0  0  0  0  0  0  0  0  0
    0.1726   17.1206  -28.7201 H   0  0  0  0  0  0  0  0  0  0  0  0
    1.4040   18.4283  -28.7201 H   0  0  0  0  0  0  0  0  0  0  0  0
    0.3205   20.3892  -29.4323 H   0  0  0  0  0  0  0  0  0  0  0  0
   -3.6222   24.2622  -28.4247 H   0  0  0  0  0  0  0  0  0  0  0  0
   -5.9471   24.8055  -29.1454 H   0  0  0  0  0  0  0  0  0  0  0  0
   -7.9575   23.9939  -30.5420 H   0  0  0  0  0  0  0  0  0  0  0  0
   -7.1222   24.8280  -31.8940 H   0  0  0  0  0  0  0  0  0  0  0  0
   -7.2210   22.7160  -33.1900 H   0  0  0  0  0  0  0  0  0  0  0  0
   -8.9798   18.1923  -31.6250 H   0  0  0  0  0  0  0  0  0  0  0  0
   -7.1926   16.4253  -31.7774 H   0  0  0  0  0  0  0  0  0  0  0  0
   -6.3450   21.0445  -33.6004 H   0  0  0  0  0  0  0  0  0  0  0  0
   -3.8129   19.9256  -34.2764 H   0  0  0  0  0  0  0  0  0  0  0  0
   -1.6643   17.5701  -31.8370 H   0  0  0  0  0  0  0  0  0  0  0  0
    0.0244   17.9947  -32.2697 H   0  0  0  0  0  0  0  0  0  0  0  0
   -2.3852   19.8824  -32.4770 H   0  0  0  0  0  0  0  0  0  0  0  0
   -1.1625   19.8771  -31.1439 H   0  0  0  0  0  0  0  0  0  0  0  0
    1.3993   19.9704  -32.1764 H   0  0  0  0  0  0  0  0  0  0  0  0
    0.7879   18.9371  -33.5280 H   0  0  0  0  0  0  0  0  0  0  0  0
    2.7178   21.0011  -33.7088 H   0  0  0  0  0  0  0  0  0  0  0  0
    1.8728   20.1629  -35.0711 H   0  0  0  0  0  0  0  0  0  0  0  0
   -0.6317   22.6363  -35.4054 H   0  0  0  0  0  0  0  0  0  0  0  0
    0.1281   21.1481  -36.1138 H   0  0  0  0  0  0  0  0  0  0  0  0
   -2.0135   21.2967  -34.2220 H   0  0  0  0  0  0  0  0  0  0  0  0
   -1.1644   19.8318  -34.8498 H   0  0  0  0  0  0  0  0  0  0  0  0
   -4.5687   15.4098  -31.6115 H   0  0  0  0  0  0  0  0  0  0  0  0
   -5.4336   15.0156  -33.1357 H   0  0  0  0  0  0  0  0  0  0  0  0
   -3.6453   15.1846  -33.1357 H   0  0  0  0  0  0  0  0  0  0  0  0
   -5.5949   21.9481  -32.3868 H   0  0  0  0  0  0  0  0  0  0  0  0
   -3.2745   21.4063  -31.6550 H   0  0  0  0  0  0  0  0  0  0  0  0
   -3.3904   21.5585  -27.5293 H   0  0  0  0  0  0  0  0  0  0  0  0
   -3.3344   19.4477  -26.1930 H   0  0  0  0  0  0  0  0  0  0  0  0
  1  2  1  0
  2  3  2  0
  3  4  1  0
  4  5  1  0
  5  6  2  0
  5  7  2  0
  5  8  1  0
  8  9  2  0
  9 10  1  0
 10 11  2  0
 11 12  1  0
 12 13  1  0
 13 14  1  0
 14 15  2  0
 14 16  1  0
 16 17  1  0
 17 18  2  0
 18 19  1  0
 19 20  2  0
 20 21  1  0
 21 22  2  0
 21 23  1  0
 23 24  2  0
 24 25  1  0
 25 26  2  0
 25 27  1  0
 27 28  1  0
 28 29  1  0
 29 30  1  0
 30 31  1  0
 31 32  1  0
 32 33  1  0
 33 34  1  0
 34 35  1  0
 24 36  1  0
 36 37  1  0
 11 38  1  0
 38 39  2  0
  4 40  2  0
 40 41  1  0
 41 42  2  0
 42  2  1  0
 39  8  1  0
 22 17  1  0
 35 30  1  0
 36 20  1  0
  1 43  1  0
  1 44  1  0
  1 45  1  0
  3 46  1  0
  9 47  1  0
 10 48  1  0
 12 49  1  0
 12 50  1  0
 13 51  1  0
 18 52  1  0
 19 53  1  0
 22 54  1  0
 23 55  1  0
 28 56  1  0
 28 57  1  0
 29 58  1  0
 29 59  1  0
 31 60  1  0
 31 61  1  0
 32 62  1  0
 32 63  1  0
 34 64  1  0
 34 65  1  0
 35 66  1  0
 35 67  1  0
 37 68  1  0
 37 69  1  0
 37 70  1  0
 38 71  1  0
 39 72  1  0
 40 73  1  0
 41 74  1  0
M  CHG  2  16  -1  27  -1
M  END
>  <UniqueID>  (27) 
27

>  <SMILES>  (27) 
Cc1cc(S(=O)(=O)c2ccc(CNC(=O)[N-]c3ccc4c(c3)cc(C(=O)[N-]CCN3CCOCC3)n4C)cc2)ccn1

>  <Energy>  (27) 
124.09414900850858

>  <Genealogy>  (27) 
Cc1cc(S(=O)(=O)c2ccc(CNC(=O)[N-]c3ccc4c(c3)cc(C(=O)[N-]CCN3CCOCC3)n4C)cc2)ccn1 (protonated)
Cc1cc(S(=O)(=O)c2ccc(CNC(=O)[N-]c3ccc4c(c3)cc(C(=O)[N-]CCN3CCOCC3)n4C)cc2)ccn1 (3D coordinates assigned)
Cc1cc(S(=O)(=O)c2ccc(CNC(=O)[N-]c3ccc4c(c3)cc(C(=O)[N-]CCN3CCOCC3)n4C)cc2)ccn1 (nonaromatic ring conformer: 124.09414900850858 kcal/mol)

>  <smiles>  (27) 
Cc1cc(S(=O)(=O)c2ccc(CNC(=O)Nc3ccc4c(c3)cc(C(=O)NCCN3CCOCC3)n4C)cc2)ccn1

>  <score_type>  (27) 
oracle

>  <origin>  (27) 
adgpu

>  <m_score__min__energy>  (27) 
-11.9

>  <m_primary>  (27) 
energy

$$$$
27:0
     RDKit          3D

 38 40  0  0  0  0  0  0  0  0999 V2000
   -4.5580   24.7160  -30.9480 O   0  0  0  0  0  0  0  0  0  0  0  0
   -4.4490   23.8940  -29.9980 C   0  0  0  0  0  0  0  0  0  0  0  0
   -5.2170   22.6800  -30.0010 N   0  0  0  0  0  0  0  0  0  0  0  0
   -6.3930   22.4810  -30.8050 C   0  0  0  0  0  0  0  0  0  0  0  0
   -7.2070   23.5600  -31.1940 C   0  0  0  0  0  0  0  0  0  0  0  0
   -8.3560   23.3370  -31.9570 C   0  0  0  0  0  0  0  0  0  0  0  0
   -8.7120   22.0390  -32.3260 C   0  0  0  0  0  0  0  0  0  0  0  0
   -7.9280   20.9500  -31.9210 C   0  0  0  0  0  0  0  0  0  0  0  0
   -8.3820   19.3040  -32.3810 S   0  0  0  0  0  0  0  0  0  0  0  0
   -9.7150   19.3400  -33.0750 O   0  0  0  0  0  0  0  0  0  0  0  0
   -8.5280   18.4720  -31.1370 O   0  0  0  0  0  0  0  0  0  0  0  0
   -7.2130   18.5470  -33.4370 N   0  0  0  0  0  0  0  0  0  0  0  0
   -6.5320   17.4270  -32.7900 C   0  0  0  0  0  0  0  0  0  0  0  0
   -5.1910   17.2780  -33.4920 C   0  0  0  0  0  0  0  0  0  0  0  0
   -4.9450   18.6130  -34.1790 C   0  0  0  0  0  0  0  0  0  0  0  0
   -6.1530   19.4700  -33.8360 C   0  0  0  0  0  0  0  0  0  0  0  0
   -6.7690   21.1770  -31.1630 C   0  0  0  0  0  0  0  0  0  0  0  0
   -3.4910   24.1780  -28.9140 C   0  0  0  0  0  0  0  0  0  0  0  0
   -2.1380   24.4730  -29.0540 C   0  0  0  0  0  0  0  0  0  0  0  0
   -1.4870   24.6780  -27.8300 C   0  0  0  0  0  0  0  0  0  0  0  0
   -2.3170   24.5440  -26.7260 C   0  0  0  0  0  0  0  0  0  0  0  0
   -3.8610   24.1660  -27.2720 S   0  0  0  0  0  0  0  0  0  0  0  0
   -4.8470   21.8600  -29.4710 H   0  0  0  0  0  0  0  0  0  0  0  0
   -6.9378   24.5841  -30.8962 H   0  0  0  0  0  0  0  0  0  0  0  0
   -8.9817   24.1867  -32.2677 H   0  0  0  0  0  0  0  0  0  0  0  0
   -9.6111   21.8700  -32.9368 H   0  0  0  0  0  0  0  0  0  0  0  0
   -6.3807   17.6395  -31.7214 H   0  0  0  0  0  0  0  0  0  0  0  0
   -7.1252   16.5035  -32.8622 H   0  0  0  0  0  0  0  0  0  0  0  0
   -4.3954   17.0684  -32.7619 H   0  0  0  0  0  0  0  0  0  0  0  0
   -5.1945   16.4434  -34.2085 H   0  0  0  0  0  0  0  0  0  0  0  0
   -4.0229   19.0774  -33.7994 H   0  0  0  0  0  0  0  0  0  0  0  0
   -4.8195   18.4977  -35.2657 H   0  0  0  0  0  0  0  0  0  0  0  0
   -5.9121   20.1534  -33.0084 H   0  0  0  0  0  0  0  0  0  0  0  0
   -6.4619   20.0856  -34.6936 H   0  0  0  0  0  0  0  0  0  0  0  0
   -6.1494   20.3250  -30.8465 H   0  0  0  0  0  0  0  0  0  0  0  0
   -1.6306   24.5387  -30.0278 H   0  0  0  0  0  0  0  0  0  0  0  0
   -0.4174   24.9224  -27.7517 H   0  0  0  0  0  0  0  0  0  0  0  0
   -2.0163   24.6644  -25.6748 H   0  0  0  0  0  0  0  0  0  0  0  0
  1  2  2  0
  2  3  1  0
  3  4  1  0
  4  5  2  0
  5  6  1  0
  6  7  2  0
  7  8  1  0
  8  9  1  0
  9 10  2  0
  9 11  2  0
  9 12  1  0
 12 13  1  0
 13 14  1  0
 14 15  1  0
 15 16  1  0
  8 17  2  0
  2 18  1  0
 18 19  2  0
 19 20  1  0
 20 21  2  0
 21 22  1  0
 17  4  1  0
 22 18  1  0
 16 12  1  0
  3 23  1  0
  5 24  1  0
  6 25  1  0
  7 26  1  0
 13 27  1  0
 13 28  1  0
 14 29  1  0
 14 30  1  0
 15 31  1  0
 15 32  1  0
 16 33  1  0
 16 34  1  0
 17 35  1  0
 19 36  1  0
 20 37  1  0
 21 38  1  0
M  END
>  <UniqueID>  (28) 
28

>  <SMILES>  (28) 
O=C(Nc1cccc(S(=O)(=O)N2CCCC2)c1)c1cccs1

>  <Energy>  (28) 
69.4296407754641

>  <Genealogy>  (28) 
O=C(Nc1cccc(S(=O)(=O)N2CCCC2)c1)c1cccs1 (3D coordinates assigned)
O=C(Nc1cccc(S(=O)(=O)N2CCCC2)c1)c1cccs1 (nonaromatic ring conformer: 69.4296407754641 kcal/mol)

>  <smiles>  (28) 
O=C(Nc1cccc(S(=O)(=O)N2CCCC2)c1)c1cccs1

>  <score_type>  (28) 
oracle

>  <origin>  (28) 
adgpu

>  <m_score__min__energy>  (28) 
-8.8000000000000007

>  <m_primary>  (28) 
energy

$$$$
28:0
     RDKit          3D

 60 64  0  0  0  0  0  0  0  0999 V2000
    2.3580   23.1220  -35.9950 C   0  0  0  0  0  0  0  0  0  0  0  0
    2.8980   22.1800  -35.0210 N   0  0  0  0  0  0  0  0  0  0  0  0
    2.4330   20.8300  -34.9100 C   0  0  0  0  0  0  0  0  0  0  0  0
    3.2690   19.8850  -34.8600 O   0  0  0  0  0  0  0  0  0  0  0  0
    1.0210   20.5560  -34.8290 N   0  0  0  0  0  0  0  0  0  0  0  0
    0.1360   21.5470  -34.2000 C   0  0  0  0  0  0  0  0  0  0  0  0
   -1.2650   21.0330  -33.9560 C   0  0  0  0  0  0  0  0  0  0  0  0
   -1.6390   19.7620  -34.1900 C   0  0  0  0  0  0  0  0  0  0  0  0
   -3.0140   19.3090  -33.8560 C   0  0  0  0  0  0  0  0  0  0  0  0
   -4.0120   20.1200  -33.3100 C   0  0  0  0  0  0  0  0  0  0  0  0
   -5.1120   19.2990  -33.1550 C   0  0  0  0  0  0  0  0  0  0  0  0
   -6.3880   19.5250  -32.6230 C   0  0  0  0  0  0  0  0  0  0  0  0
   -6.8110   20.8510  -32.1190 C   0  0  0  0  0  0  0  0  0  0  0  0
   -8.1250   21.0570  -31.6630 C   0  0  0  0  0  0  0  0  0  0  0  0
   -8.5220   22.3160  -31.2070 C   0  0  0  0  0  0  0  0  0  0  0  0
   -7.6160   23.3790  -31.2030 C   0  0  0  0  0  0  0  0  0  0  0  0
   -6.3010   23.1900  -31.6590 C   0  0  0  0  0  0  0  0  0  0  0  0
   -5.3470   24.2610  -31.6600 N   0  0  0  0  0  0  0  0  0  0  0  0
   -4.3010   24.4460  -30.6960 C   0  0  0  0  0  0  0  0  0  0  0  0
   -3.8830   25.6110  -30.4750 O   0  0  0  0  0  0  0  0  0  0  0  0
   -3.7420   23.3150  -29.9190 C   0  0  0  0  0  0  0  0  0  0  0  0
   -4.1810   23.0590  -28.6080 C   0  0  0  0  0  0  0  0  0  0  0  0
   -3.6600   21.9840  -27.8870 C   0  0  0  0  0  0  0  0  0  0  0  0
   -2.6860   21.1610  -28.4540 C   0  0  0  0  0  0  0  0  0  0  0  0
   -2.2040   21.4220  -29.7480 C   0  0  0  0  0  0  0  0  0  0  0  0
   -1.1770   20.5050  -30.3670 C   0  0  0  0  0  0  0  0  0  0  0  0
   -0.2500   21.2400  -31.0860 F   0  0  0  0  0  0  0  0  0  0  0  0
   -1.7720   19.5990  -31.2270 F   0  0  0  0  0  0  0  0  0  0  0  0
   -0.5240   19.8120  -29.3660 F   0  0  0  0  0  0  0  0  0  0  0  0
   -2.7500   22.4930  -30.4820 C   0  0  0  0  0  0  0  0  0  0  0  0
   -5.8990   21.9200  -32.0910 C   0  0  0  0  0  0  0  0  0  0  0  0
   -7.2530   18.4110  -32.5520 C   0  0  0  0  0  0  0  0  0  0  0  0
   -6.8210   17.1480  -33.0130 C   0  0  0  0  0  0  0  0  0  0  0  0
   -5.5660   16.9850  -33.5220 N   0  0  0  0  0  0  0  0  0  0  0  0
   -4.7370   18.0560  -33.5870 C   0  0  0  0  0  0  0  0  0  0  0  0
   -3.4680   18.0400  -34.0190 N   0  0  0  0  0  0  0  0  0  0  0  0
   -0.6300   18.7550  -34.6860 C   0  0  0  0  0  0  0  0  0  0  0  0
    0.4360   19.4190  -35.5500 C   0  0  0  0  0  0  0  0  0  0  0  0
    1.8779   23.9596  -35.4678 H   0  0  0  0  0  0  0  0  0  0  0  0
    3.1737   23.5051  -36.6258 H   0  0  0  0  0  0  0  0  0  0  0  0
    1.6153   22.6117  -36.6258 H   0  0  0  0  0  0  0  0  0  0  0  0
    0.5726   21.8408  -33.2341 H   0  0  0  0  0  0  0  0  0  0  0  0
    0.0537   22.3957  -34.8949 H   0  0  0  0  0  0  0  0  0  0  0  0
   -2.0175   21.7347  -33.5670 H   0  0  0  0  0  0  0  0  0  0  0  0
   -3.9375   21.1879  -33.0568 H   0  0  0  0  0  0  0  0  0  0  0  0
   -8.8429   20.2236  -31.6654 H   0  0  0  0  0  0  0  0  0  0  0  0
   -9.5509   22.4708  -30.8501 H   0  0  0  0  0  0  0  0  0  0  0  0
   -7.9336   24.3681  -30.8413 H   0  0  0  0  0  0  0  0  0  0  0  0
   -4.9394   23.7098  -28.1482 H   0  0  0  0  0  0  0  0  0  0  0  0
   -4.0188   21.7842  -26.8665 H   0  0  0  0  0  0  0  0  0  0  0  0
   -2.2940   20.3046  -27.8858 H   0  0  0  0  0  0  0  0  0  0  0  0
   -2.3970   22.6881  -31.5054 H   0  0  0  0  0  0  0  0  0  0  0  0
   -4.8594   21.7575  -32.4115 H   0  0  0  0  0  0  0  0  0  0  0  0
   -8.2650   18.5272  -32.1369 H   0  0  0  0  0  0  0  0  0  0  0  0
   -7.5035   16.2869  -32.9611 H   0  0  0  0  0  0  0  0  0  0  0  0
   -2.9460   17.2050  -34.3660 H   0  0  0  0  0  0  0  0  0  0  0  0
   -0.1448   18.2782  -33.8216 H   0  0  0  0  0  0  0  0  0  0  0  0
   -1.1569   18.0077  -35.2975 H   0  0  0  0  0  0  0  0  0  0  0  0
    1.2250   18.6887  -35.7826 H   0  0  0  0  0  0  0  0  0  0  0  0
   -0.0232   19.7772  -36.4832 H   0  0  0  0  0  0  0  0  0  0  0  0
  1  2  1  0
  2  3  1  0
  3  4  2  0
  3  5  1  0
  5  6  1  0
  6  7  1  0
  7  8  2  0
  8  9  1  0
  9 10  2  0
 10 11  1  0
 11 12  2  0
 12 13  1  0
 13 14  2  0
 14 15  1  0
 15 16  2  0
 16 17  1  0
 17 18  1  0
 18 19  1  0
 19 20  2  0
 19 21  1  0
 21 22  2  0
 22 23  1  0
 23 24  2  0
 24 25  1  0
 25 26  1  0
 26 27  1  0
 26 28  1  0
 26 29  1  0
 25 30  2  0
 17 31  2  0
 12 32  1  0
 32 33  2  0
 33 34  1  0
 34 35  2  0
 35 36  1  0
  8 37  1  0
 37 38  1  0
 38  5  1  0
 36  9  1  0
 35 11  1  0
 31 13  1  0
 30 21  1  0
  1 39  1  0
  1 40  1  0
  1 41  1  0
  6 42  1  0
  6 43  1  0
  7 44  1  0
 10 45  1  0
 14 46  1  0
 15 47  1  0
 16 48  1  0
 22 49  1  0
 23 50  1  0
 24 51  1  0
 30 52  1  0
 31 53  1  0
 32 54  1  0
 33 55  1  0
 36 56  1  0
 37 57  1  0
 37 58  1  0
 38 59  1  0
 38 60  1  0
M  CHG  2   2  -1  18  -1
M  END
>  <UniqueID>  (29) 
29

>  <SMILES>  (29) 
C[N-]C(=O)N1CC=C(c2cc3c(-c4cccc([N-]C(=O)c5cccc(C(F)(F)F)c5)c4)ccnc3[nH]2)CC1

>  <Energy>  (29) 
113.34952577893245

>  <Genealogy>  (29) 
C[N-]C(=O)N1CC=C(c2cc3c(-c4cccc([N-]C(=O)c5cccc(C(F)(F)F)c5)c4)ccnc3[nH]2)CC1 (protonated)
C[N-]C(=O)N1CC=C(c2cc3c(-c4cccc([N-]C(=O)c5cccc(C(F)(F)F)c5)c4)ccnc3[nH]2)CC1 (3D coordinates assigned)
C[N-]C(=O)N1CC=C(c2cc3c(-c4cccc([N-]C(=O)c5cccc(C(F)(F)F)c5)c4)ccnc3[nH]2)CC1 (nonaromatic ring conformer: 113.34952577893245 kcal/mol)

>  <smiles>  (29) 
CNC(=O)N1CC=C(c2cc3c(-c4cccc(NC(=O)c5cccc(C(F)(F)F)c5)c4)ccnc3[nH]2)CC1

>  <score_type>  (29) 
oracle

>  <origin>  (29) 
adgpu

>  <m_score__min__energy>  (29) 
-11.99

>  <m_primary>  (29) 
energy

$$$$
29:0
     RDKit          3D

 60 63  0  0  0  0  0  0  0  0999 V2000
   -2.5470   17.7900  -34.2080 C   0  0  0  0  0  0  0  0  0  0  0  0
   -3.4490   16.6390  -34.4060 N   0  0  0  0  0  0  0  0  0  0  0  0
   -3.7090   15.9890  -33.1100 C   0  0  0  0  0  0  0  0  0  0  0  0
   -4.7250   17.0690  -35.0180 C   0  0  0  0  0  0  0  0  0  0  0  0
   -5.6430   17.6470  -33.9700 C   0  0  0  0  0  0  0  0  0  0  0  0
   -6.7490   16.9070  -33.5210 C   0  0  0  0  0  0  0  0  0  0  0  0
   -7.6120   17.4420  -32.5620 C   0  0  0  0  0  0  0  0  0  0  0  0
   -7.3760   18.7180  -32.0420 C   0  0  0  0  0  0  0  0  0  0  0  0
   -6.2730   19.4750  -32.4770 C   0  0  0  0  0  0  0  0  0  0  0  0
   -6.0260   20.8310  -31.9260 C   0  0  0  0  0  0  0  0  0  0  0  0
   -7.0750   21.7620  -31.8220 C   0  0  0  0  0  0  0  0  0  0  0  0
   -6.8500   23.0280  -31.2760 C   0  0  0  0  0  0  0  0  0  0  0  0
   -5.5730   23.3830  -30.8210 C   0  0  0  0  0  0  0  0  0  0  0  0
   -5.3100   24.9100  -29.9800 S   0  0  0  0  0  0  0  0  0  0  0  0
   -6.6190   25.5960  -29.7040 O   0  0  0  0  0  0  0  0  0  0  0  0
   -4.4600   25.7960  -30.8450 O   0  0  0  0  0  0  0  0  0  0  0  0
   -4.4970   24.6180  -28.4720 N   0  0  0  0  0  0  0  0  0  0  0  0
   -3.3130   23.8040  -28.3810 C   0  0  0  0  0  0  0  0  0  0  0  0
   -3.3730   22.4980  -27.8650 C   0  0  0  0  0  0  0  0  0  0  0  0
   -2.2440   21.6670  -27.8730 C   0  0  0  0  0  0  0  0  0  0  0  0
   -1.0270   22.1540  -28.3870 C   0  0  0  0  0  0  0  0  0  0  0  0
   -0.9460   23.4820  -28.8320 C   0  0  0  0  0  0  0  0  0  0  0  0
   -2.0810   24.2990  -28.8430 C   0  0  0  0  0  0  0  0  0  0  0  0
   -1.9820   25.5980  -29.3320 O   0  0  0  0  0  0  0  0  0  0  0  0
    0.2180   21.2910  -28.3800 C   0  0  0  0  0  0  0  0  0  0  0  0
   -0.0870   19.8460  -28.3560 N   0  0  0  0  0  0  0  0  0  0  0  0
   -0.5310   19.3540  -29.6750 C   0  0  0  0  0  0  0  0  0  0  0  0
   -1.0390   19.5220  -27.2750 C   0  0  0  0  0  0  0  0  0  0  0  0
   -2.3940   20.2290  -27.4480 C   0  0  0  0  0  0  0  0  0  0  0  0
   -4.5190   22.4700  -30.9420 C   0  0  0  0  0  0  0  0  0  0  0  0
   -4.7420   21.2030  -31.4890 C   0  0  0  0  0  0  0  0  0  0  0  0
   -5.4100   18.9300  -33.4460 C   0  0  0  0  0  0  0  0  0  0  0  0
   -2.4087   17.9665  -33.1311 H   0  0  0  0  0  0  0  0  0  0  0  0
   -1.5730   17.5768  -34.6727 H   0  0  0  0  0  0  0  0  0  0  0  0
   -2.9869   18.6848  -34.6727 H   0  0  0  0  0  0  0  0  0  0  0  0
   -3.4348   16.6744  -32.2945 H   0  0  0  0  0  0  0  0  0  0  0  0
   -4.7771   15.7372  -33.0338 H   0  0  0  0  0  0  0  0  0  0  0  0
   -3.1093   15.0700  -33.0338 H   0  0  0  0  0  0  0  0  0  0  0  0
   -4.5209   17.8334  -35.7823 H   0  0  0  0  0  0  0  0  0  0  0  0
   -5.2124   16.1961  -35.4768 H   0  0  0  0  0  0  0  0  0  0  0  0
   -6.9364   15.9017  -33.9264 H   0  0  0  0  0  0  0  0  0  0  0  0
   -8.4780   16.8589  -32.2156 H   0  0  0  0  0  0  0  0  0  0  0  0
   -8.0586   19.1337  -31.2862 H   0  0  0  0  0  0  0  0  0  0  0  0
   -8.0814   21.4909  -32.1737 H   0  0  0  0  0  0  0  0  0  0  0  0
   -7.6779   23.7486  -31.2030 H   0  0  0  0  0  0  0  0  0  0  0  0
   -4.7810   25.2050  -27.6580 H   0  0  0  0  0  0  0  0  0  0  0  0
   -4.3195   22.1225  -27.4489 H   0  0  0  0  0  0  0  0  0  0  0  0
    0.0186   23.8841  -29.1752 H   0  0  0  0  0  0  0  0  0  0  0  0
    0.8036   21.5116  -29.2847 H   0  0  0  0  0  0  0  0  0  0  0  0
    0.7788   21.5263  -27.4634 H   0  0  0  0  0  0  0  0  0  0  0  0
   -1.2621   18.5438  -29.5370 H   0  0  0  0  0  0  0  0  0  0  0  0
   -0.9976   20.1775  -30.2354 H   0  0  0  0  0  0  0  0  0  0  0  0
    0.3359   18.9740  -30.2354 H   0  0  0  0  0  0  0  0  0  0  0  0
   -1.2073   18.4350  -27.2679 H   0  0  0  0  0  0  0  0  0  0  0  0
   -0.5998   19.8709  -26.3288 H   0  0  0  0  0  0  0  0  0  0  0  0
   -2.9761   19.6939  -28.2128 H   0  0  0  0  0  0  0  0  0  0  0  0
   -2.9029   20.2198  -26.4728 H   0  0  0  0  0  0  0  0  0  0  0  0
   -3.5102   22.7508  -30.6050 H   0  0  0  0  0  0  0  0  0  0  0  0
   -3.9074   20.4920  -31.5783 H   0  0  0  0  0  0  0  0  0  0  0  0
   -4.5457   19.5133  -33.7962 H   0  0  0  0  0  0  0  0  0  0  0  0
  1  2  1  0
  2  3  1  0
  2  4  1  0
  4  5  1  0
  5  6  2  0
  6  7  1  0
  7  8  2  0
  8  9  1  0
  9 10  1  0
 10 11  2  0
 11 12  1  0
 12 13  2  0
 13 14  1  0
 14 15  2  0
 14 16  2  0
 14 17  1  0
 17 18  1  0
 18 19  2  0
 19 20  1  0
 20 21  2  0
 21 22  1  0
 22 23  2  0
 23 24  1  0
 21 25  1  0
 25 26  1  0
 26 27  1  0
 26 28  1  0
 28 29  1  0
 13 30  1  0
 30 31  2  0
  9 32  2  0
 32  5  1  0
 31 10  1  0
 23 18  1  0
 29 20  1  0
  1 33  1  0
  1 34  1  0
  1 35  1  0
  3 36  1  0
  3 37  1  0
  3 38  1  0
  4 39  1  0
  4 40  1  0
  6 41  1  0
  7 42  1  0
  8 43  1  0
 11 44  1  0
 12 45  1  0
 17 46  1  0
 19 47  1  0
 22 48  1  0
 25 49  1  0
 25 50  1  0
 27 51  1  0
 27 52  1  0
 27 53  1  0
 28 54  1  0
 28 55  1  0
 29 56  1  0
 29 57  1  0
 30 58  1  0
 31 59  1  0
 32 60  1  0
M  CHG  1  24  -1
M  END
>  <UniqueID>  (30) 
30

>  <SMILES>  (30) 
CN(C)Cc1cccc(-c2ccc(S(=O)(=O)Nc3cc4c(cc3[O-])CN(C)CC4)cc2)c1

>  <Energy>  (30) 
75.44029248594916

>  <Genealogy>  (30) 
CN(C)Cc1cccc(-c2ccc(S(=O)(=O)Nc3cc4c(cc3[O-])CN(C)CC4)cc2)c1 (protonated)
CN(C)Cc1cccc(-c2ccc(S(=O)(=O)Nc3cc4c(cc3[O-])CN(C)CC4)cc2)c1 (3D coordinates assigned)
CN(C)Cc1cccc(-c2ccc(S(=O)(=O)Nc3cc4c(cc3[O-])CN(C)CC4)cc2)c1 (nonaromatic ring conformer: 75.44029248594916 kcal/mol)

>  <smiles>  (30) 
CN(C)Cc1cccc(-c2ccc(S(=O)(=O)Nc3cc4c(cc3O)CN(C)CC4)cc2)c1

>  <score_type>  (30) 
oracle

>  <origin>  (30) 
adgpu

>  <m_score__min__energy>  (30) 
-14.460000000000001

>  <m_primary>  (30) 
energy

$$$$
30:0
     RDKit          3D

 59 62  0  0  0  0  0  0  0  0999 V2000
   -3.4320   20.1940  -33.6530 H   0  0  0  0  0  0  0  0  0  0  0  0
   -2.5240   20.3130  -33.1560 N   0  0  0  0  0  0  0  0  0  0  0  0
   -2.3390   21.0910  -32.1340 C   0  0  0  0  0  0  0  0  0  0  0  0
   -1.1150   21.1030  -31.5430 N   0  0  0  0  0  0  0  0  0  0  0  0
   -0.8620   21.8340  -30.4290 C   0  0  0  0  0  0  0  0  0  0  0  0
    0.1422   21.8293  -29.9801 H   0  0  0  0  0  0  0  0  0  0  0  0
   -1.8890   22.5960  -29.8530 C   0  0  0  0  0  0  0  0  0  0  0  0
   -1.6590   23.4080  -28.6310 C   0  0  0  0  0  0  0  0  0  0  0  0
   -0.8680   22.8930  -27.5860 C   0  0  0  0  0  0  0  0  0  0  0  0
   -0.4187   21.8940  -27.6864 H   0  0  0  0  0  0  0  0  0  0  0  0
   -0.6460   23.6380  -26.4190 C   0  0  0  0  0  0  0  0  0  0  0  0
    0.2350   23.0920  -25.3280 C   0  0  0  0  0  0  0  0  0  0  0  0
   -0.0351   22.0439  -25.1316 H   0  0  0  0  0  0  0  0  0  0  0  0
    1.2858   23.1521  -25.6476 H   0  0  0  0  0  0  0  0  0  0  0  0
    0.0590   23.8730  -24.1090 N   0  0  0  0  0  0  0  0  0  0  0  0
   -0.1240   23.2030  -23.3270 H   0  0  0  0  0  0  0  0  0  0  0  0
    0.9660   24.3480  -23.8890 H   0  0  0  0  0  0  0  0  0  0  0  0
   -1.2010   24.9170  -26.3040 C   0  0  0  0  0  0  0  0  0  0  0  0
   -1.0129   25.5155  -25.4005 H   0  0  0  0  0  0  0  0  0  0  0  0
   -1.9920   25.4380  -27.3290 C   0  0  0  0  0  0  0  0  0  0  0  0
   -2.4355   26.4387  -27.2197 H   0  0  0  0  0  0  0  0  0  0  0  0
   -2.2280   24.6950  -28.5020 C   0  0  0  0  0  0  0  0  0  0  0  0
   -2.9990   25.2120  -29.5570 O   0  0  0  0  0  0  0  0  0  0  0  0
   -4.3840   24.9470  -29.7550 C   0  0  0  0  0  0  0  0  0  0  0  0
   -4.8823   24.8517  -28.7790 H   0  0  0  0  0  0  0  0  0  0  0  0
   -4.8386   25.7745  -30.3195 H   0  0  0  0  0  0  0  0  0  0  0  0
   -4.5010   24.0102  -30.3195 H   0  0  0  0  0  0  0  0  0  0  0  0
   -3.1100   22.6000  -30.4510 N   0  0  0  0  0  0  0  0  0  0  0  0
   -3.3720   21.8890  -31.5810 C   0  0  0  0  0  0  0  0  0  0  0  0
   -4.7100   22.0180  -32.1840 C   0  0  0  0  0  0  0  0  0  0  0  0
   -5.1450   23.1660  -32.4740 O   0  0  0  0  0  0  0  0  0  0  0  0
   -5.4520   20.8400  -32.5320 N   0  0  0  0  0  0  0  0  0  0  0  0
   -6.7410   20.6750  -32.4650 C   0  0  0  0  0  0  0  0  0  0  0  0
   -7.5560   21.6540  -31.9860 N   0  0  0  0  0  0  0  0  0  0  0  0
   -8.8980   21.4700  -31.8810 C   0  0  0  0  0  0  0  0  0  0  0  0
   -9.5397   22.2770  -31.4976 H   0  0  0  0  0  0  0  0  0  0  0  0
   -9.4560   20.2500  -32.2630 C   0  0  0  0  0  0  0  0  0  0  0  0
  -10.5398   20.0839  -32.1746 H   0  0  0  0  0  0  0  0  0  0  0  0
   -8.6500   19.2690  -32.7450 N   0  0  0  0  0  0  0  0  0  0  0  0
   -7.3070   19.4520  -32.8600 C   0  0  0  0  0  0  0  0  0  0  0  0
   -6.4890   18.4030  -33.3900 N   0  0  0  0  0  0  0  0  0  0  0  0
   -6.5250   17.0720  -32.7820 C   0  0  0  0  0  0  0  0  0  0  0  0
   -7.0260   17.1343  -31.8047 H   0  0  0  0  0  0  0  0  0  0  0  0
   -7.0755   16.3920  -33.4488 H   0  0  0  0  0  0  0  0  0  0  0  0
   -5.1010   16.5290  -32.5860 C   0  0  0  0  0  0  0  0  0  0  0  0
   -4.6947   16.9515  -31.6552 H   0  0  0  0  0  0  0  0  0  0  0  0
   -5.1800   15.4323  -32.5540 H   0  0  0  0  0  0  0  0  0  0  0  0
   -4.1250   16.8770  -33.7490 C   0  0  0  0  0  0  0  0  0  0  0  0
   -3.6462   15.9359  -34.0573 H   0  0  0  0  0  0  0  0  0  0  0  0
   -3.0800   17.8090  -33.2960 N   0  0  0  0  0  0  0  0  0  0  0  0
   -2.7050   18.3680  -34.0950 H   0  0  0  0  0  0  0  0  0  0  0  0
   -2.2970   17.2820  -32.8460 H   0  0  0  0  0  0  0  0  0  0  0  0
   -3.4810   18.4630  -32.5850 H   0  0  0  0  0  0  0  0  0  0  0  0
   -4.8610   17.4360  -34.9890 C   0  0  0  0  0  0  0  0  0  0  0  0
   -4.1165   17.7461  -35.7370 H   0  0  0  0  0  0  0  0  0  0  0  0
   -5.5123   16.6453  -35.3897 H   0  0  0  0  0  0  0  0  0  0  0  0
   -5.7360   18.6430  -34.6260 C   0  0  0  0  0  0  0  0  0  0  0  0
   -5.0919   19.5239  -34.4878 H   0  0  0  0  0  0  0  0  0  0  0  0
   -6.4536   18.8098  -35.4429 H   0  0  0  0  0  0  0  0  0  0  0  0
  1  2  1  0
  2  3  2  0
  3  4  1  0
  4  5  1  0
  5  6  1  0
  5  7  2  0
  7  8  1  0
  8  9  2  0
  9 10  1  0
  9 11  1  0
 11 12  1  0
 12 13  1  0
 12 14  1  0
 12 15  1  0
 15 16  1  0
 15 17  1  0
 11 18  2  0
 18 19  1  0
 18 20  1  0
 20 21  1  0
 20 22  2  0
 22 23  1  0
 23 24  1  0
 24 25  1  0
 24 26  1  0
 24 27  1  0
  7 28  1  0
 28 29  2  0
 29 30  1  0
 30 31  2  0
 30 32  1  0
 32 33  2  3
 33 34  1  0
 34 35  1  0
 35 36  1  0
 35 37  2  0
 37 38  1  0
 37 39  1  0
 39 40  2  0
 40 41  1  0
 41 42  1  0
 42 43  1  0
 42 44  1  0
 42 45  1  0
 45 46  1  0
 45 47  1  0
 45 48  1  0
 48 49  1  0
 48 50  1  0
 50 51  1  0
 50 52  1  0
 50 53  1  0
 48 54  1  0
 54 55  1  0
 54 56  1  0
 54 57  1  0
 57 58  1  0
 57 59  1  0
 29  3  1  0
 40 33  1  0
 57 41  1  0
 22  8  1  0
M  CHG  3   4  -1  34  -1  50   1
M  END
>  <UniqueID>  (31) 
31

>  <SMILES>  (31) 
[H]/N=c1/[n-]cc(-c2cc(CN)ccc2OC)nc1C(=O)N=c1[n-]ccnc1N1CCC([NH3+])CC1

>  <Energy>  (31) 
83.47926733631391

>  <Genealogy>  (31) 
COc1ccc(CN)cc1-c1c[n-]c(=N)c(C(=O)N=c2[n-]ccnc2N2CCC([NH3+])CC2)n1 (protonated)
[H]/N=c1/[n-]cc(-c2cc(CN)ccc2OC)nc1C(=O)N=c1[n-]ccnc1N1CCC([NH3+])CC1 (cis-trans isomerization)
[H]/N=c1/[n-]cc(-c2cc(CN)ccc2OC)nc1C(=O)N=c1[n-]ccnc1N1CCC([NH3+])CC1 (3D coordinates assigned)
[H]/N=c1/[n-]cc(-c2cc(CN)ccc2OC)nc1C(=O)N=c1[n-]ccnc1N1CCC([NH3+])CC1 (nonaromatic ring conformer: 83.47926733631391 kcal/mol)

>  <smiles>  (31) 
COc1ccc(CN)cc1-c1c[nH]c(=N)c(C(=O)N=c2[nH]ccnc2N2CCC(N)CC2)n1

>  <score_type>  (31) 
oracle

>  <origin>  (31) 
adgpu

>  <m_score__min__energy>  (31) 
-11.48

>  <m_primary>  (31) 
energy

$$$$
31:0
     RDKit          3D

 61 64  0  0  0  0  0  0  0  0999 V2000
   -1.6360   15.8590  -33.1040 C   0  0  0  0  0  0  0  0  0  0  0  0
   -2.5180   16.5680  -33.9720 O   0  0  0  0  0  0  0  0  0  0  0  0
   -3.9060   16.3670  -34.0390 C   0  0  0  0  0  0  0  0  0  0  0  0
   -4.4890   15.1000  -33.8370 C   0  0  0  0  0  0  0  0  0  0  0  0
   -5.8770   14.9510  -33.8790 C   0  0  0  0  0  0  0  0  0  0  0  0
   -6.6940   16.0610  -34.1070 C   0  0  0  0  0  0  0  0  0  0  0  0
   -6.1250   17.3200  -34.3190 C   0  0  0  0  0  0  0  0  0  0  0  0
   -4.7260   17.4740  -34.3210 C   0  0  0  0  0  0  0  0  0  0  0  0
   -4.1010   18.7420  -34.5660 N   0  0  0  0  0  0  0  0  0  0  0  0
   -3.4380   19.8270  -33.3840 S   0  0  0  0  0  0  0  0  0  0  0  0
   -2.4950   20.8200  -34.0010 O   0  0  0  0  0  0  0  0  0  0  0  0
   -2.6770   19.0260  -32.3640 O   0  0  0  0  0  0  0  0  0  0  0  0
   -4.7560   20.6830  -32.5970 C   0  0  0  0  0  0  0  0  0  0  0  0
   -6.0870   20.3260  -32.8480 C   0  0  0  0  0  0  0  0  0  0  0  0
   -7.1290   21.0220  -32.2280 C   0  0  0  0  0  0  0  0  0  0  0  0
   -6.8480   22.0640  -31.3390 C   0  0  0  0  0  0  0  0  0  0  0  0
   -5.5130   22.4110  -31.0590 C   0  0  0  0  0  0  0  0  0  0  0  0
   -5.1770   23.4940  -30.1820 N   0  0  0  0  0  0  0  0  0  0  0  0
   -3.9230   24.1880  -30.1170 C   0  0  0  0  0  0  0  0  0  0  0  0
   -3.7600   25.2520  -30.7710 O   0  0  0  0  0  0  0  0  0  0  0  0
   -2.8440   23.6740  -29.2350 C   0  0  0  0  0  0  0  0  0  0  0  0
   -2.9230   22.3600  -28.7350 C   0  0  0  0  0  0  0  0  0  0  0  0
   -1.9240   21.8470  -27.8960 C   0  0  0  0  0  0  0  0  0  0  0  0
   -2.0260   20.1830  -27.3110 S   0  0  0  0  0  0  0  0  0  0  0  0
   -1.3860   20.0970  -25.9520 O   0  0  0  0  0  0  0  0  0  0  0  0
   -3.4710   19.7960  -27.1660 O   0  0  0  0  0  0  0  0  0  0  0  0
   -1.2330   19.0690  -28.4010 N   0  0  0  0  0  0  0  0  0  0  0  0
   -0.9000   19.7440  -29.6760 C   0  0  0  0  0  0  0  0  0  0  0  0
    0.1440   18.9530  -30.4730 C   0  0  0  0  0  0  0  0  0  0  0  0
    1.4680   18.8360  -29.6940 C   0  0  0  0  0  0  0  0  0  0  0  0
    1.2740   18.9470  -28.1710 C   0  0  0  0  0  0  0  0  0  0  0  0
   -0.0900   18.3840  -27.7440 C   0  0  0  0  0  0  0  0  0  0  0  0
   -0.8450   22.6590  -27.5320 C   0  0  0  0  0  0  0  0  0  0  0  0
   -0.7520   23.9640  -28.0180 C   0  0  0  0  0  0  0  0  0  0  0  0
   -1.7390   24.4750  -28.8670 C   0  0  0  0  0  0  0  0  0  0  0  0
   -1.6120   25.7830  -29.3240 O   0  0  0  0  0  0  0  0  0  0  0  0
   -4.4760   21.7260  -31.7040 C   0  0  0  0  0  0  0  0  0  0  0  0
   -1.9012   16.0722  -32.0579 H   0  0  0  0  0  0  0  0  0  0  0  0
   -1.7260   14.7790  -33.2923 H   0  0  0  0  0  0  0  0  0  0  0  0
   -0.6006   16.1790  -33.2923 H   0  0  0  0  0  0  0  0  0  0  0  0
   -3.8491   14.2260  -33.6457 H   0  0  0  0  0  0  0  0  0  0  0  0
   -6.3275   13.9583  -33.7324 H   0  0  0  0  0  0  0  0  0  0  0  0
   -7.7877   15.9440  -34.1197 H   0  0  0  0  0  0  0  0  0  0  0  0
   -6.7728   18.1934  -34.4848 H   0  0  0  0  0  0  0  0  0  0  0  0
   -6.3128   19.4965  -33.5342 H   0  0  0  0  0  0  0  0  0  0  0  0
   -8.1732   20.7490  -32.4402 H   0  0  0  0  0  0  0  0  0  0  0  0
   -7.6710   22.6130  -30.8580 H   0  0  0  0  0  0  0  0  0  0  0  0
   -3.7807   21.7271  -29.0066 H   0  0  0  0  0  0  0  0  0  0  0  0
   -1.8145   19.8389  -30.2800 H   0  0  0  0  0  0  0  0  0  0  0  0
   -0.4804   20.7340  -29.4438 H   0  0  0  0  0  0  0  0  0  0  0  0
   -0.2456   17.9438  -30.6720 H   0  0  0  0  0  0  0  0  0  0  0  0
    0.3400   19.4858  -31.4152 H   0  0  0  0  0  0  0  0  0  0  0  0
    1.9243   17.8610  -29.9203 H   0  0  0  0  0  0  0  0  0  0  0  0
    2.1127   19.6701  -30.0081 H   0  0  0  0  0  0  0  0  0  0  0  0
    2.0703   18.3811  -27.6654 H   0  0  0  0  0  0  0  0  0  0  0  0
    1.3164   20.0097  -27.8903 H   0  0  0  0  0  0  0  0  0  0  0  0
   -0.1252   17.3158  -28.0042 H   0  0  0  0  0  0  0  0  0  0  0  0
   -0.1881   18.5466  -26.6605 H   0  0  0  0  0  0  0  0  0  0  0  0
   -0.0668   22.2677  -26.8602 H   0  0  0  0  0  0  0  0  0  0  0  0
    0.1027   24.5944  -27.7316 H   0  0  0  0  0  0  0  0  0  0  0  0
   -3.4314   22.0094  -31.5078 H   0  0  0  0  0  0  0  0  0  0  0  0
  1  2  1  0
  2  3  1  0
  3  4  2  0
  4  5  1  0
  5  6  2  0
  6  7  1  0
  7  8  2  0
  8  9  1  0
  9 10  1  0
 10 11  2  0
 10 12  2  0
 10 13  1  0
 13 14  2  0
 14 15  1  0
 15 16  2  0
 16 17  1  0
 17 18  1  0
 18 19  1  0
 19 20  2  0
 19 21  1  0
 21 22  2  0
 22 23  1  0
 23 24  1  0
 24 25  2  0
 24 26  2  0
 24 27  1  0
 27 28  1  0
 28 29  1  0
 29 30  1  0
 30 31  1  0
 31 32  1  0
 23 33  2  0
 33 34  1  0
 34 35  2  0
 35 36  1  0
 17 37  2  0
  8  3  1  0
 37 13  1  0
 35 21  1  0
 32 27  1  0
  1 38  1  0
  1 39  1  0
  1 40  1  0
  4 41  1  0
  5 42  1  0
  6 43  1  0
  7 44  1  0
 14 45  1  0
 15 46  1  0
 16 47  1  0
 22 48  1  0
 28 49  1  0
 28 50  1  0
 29 51  1  0
 29 52  1  0
 30 53  1  0
 30 54  1  0
 31 55  1  0
 31 56  1  0
 32 57  1  0
 32 58  1  0
 33 59  1  0
 34 60  1  0
 37 61  1  0
M  CHG  3   9  -1  18  -1  36  -1
M  END
>  <UniqueID>  (32) 
32

>  <SMILES>  (32) 
COc1ccccc1[N-]S(=O)(=O)c1cccc([N-]C(=O)c2cc(S(=O)(=O)N3CCCCC3)ccc2[O-])c1

>  <Energy>  (32) 
83.17083954069085

>  <Genealogy>  (32) 
COc1ccccc1[N-]S(=O)(=O)c1cccc([N-]C(=O)c2cc(S(=O)(=O)N3CCCCC3)ccc2[O-])c1 (protonated)
COc1ccccc1[N-]S(=O)(=O)c1cccc([N-]C(=O)c2cc(S(=O)(=O)N3CCCCC3)ccc2[O-])c1 (3D coordinates assigned)
COc1ccccc1[N-]S(=O)(=O)c1cccc([N-]C(=O)c2cc(S(=O)(=O)N3CCCCC3)ccc2[O-])c1 (nonaromatic ring conformer: 83.17083954069085 kcal/mol)

>  <smiles>  (32) 
COc1ccccc1NS(=O)(=O)c1cccc(NC(=O)c2cc(S(=O)(=O)N3CCCCC3)ccc2O)c1

>  <score_type>  (32) 
oracle

>  <origin>  (32) 
adgpu

>  <m_score__min__energy>  (32) 
-15.1

>  <m_primary>  (32) 
energy

$$$$
32:0
     RDKit          3D

 61 63  0  0  0  0  0  0  0  0999 V2000
   -9.5460   21.6100  -30.8470 C   0  0  0  0  0  0  0  0  0  0  0  0
   -8.6280   21.8120  -31.9790 N   0  0  0  0  0  0  0  0  0  0  0  0
   -7.5090   20.8450  -31.9090 C   0  0  0  0  0  0  0  0  0  0  0  0
   -6.2920   21.3280  -32.7160 C   0  0  0  0  0  0  0  0  0  0  0  0
   -5.7820   22.6390  -32.2470 N   0  0  0  0  0  0  0  0  0  0  0  0
   -4.3160   22.4710  -31.3080 S   0  0  0  0  0  0  0  0  0  0  0  0
   -4.6270   21.7290  -30.0400 O   0  0  0  0  0  0  0  0  0  0  0  0
   -3.7970   23.8330  -30.9360 O   0  0  0  0  0  0  0  0  0  0  0  0
   -3.0710   21.5990  -32.2060 C   0  0  0  0  0  0  0  0  0  0  0  0
   -1.7150   21.8500  -31.9600 C   0  0  0  0  0  0  0  0  0  0  0  0
   -0.7310   21.2140  -32.7210 C   0  0  0  0  0  0  0  0  0  0  0  0
   -1.0920   20.3080  -33.7300 C   0  0  0  0  0  0  0  0  0  0  0  0
   -0.0430   19.6420  -34.5760 C   0  0  0  0  0  0  0  0  0  0  0  0
    1.0900   20.5440  -34.7360 N   0  0  0  0  0  0  0  0  0  0  0  0
    1.0910   21.6490  -35.6430 C   0  0  0  0  0  0  0  0  0  0  0  0
    0.5890   21.5240  -36.7920 O   0  0  0  0  0  0  0  0  0  0  0  0
    1.5950   22.9230  -35.2360 N   0  0  0  0  0  0  0  0  0  0  0  0
    1.2050   24.1970  -35.7710 C   0  0  0  0  0  0  0  0  0  0  0  0
   -0.1130   24.3760  -36.1930 C   0  0  0  0  0  0  0  0  0  0  0  0
   -0.5280   25.5990  -36.7240 C   0  0  0  0  0  0  0  0  0  0  0  0
    0.3700   26.6790  -36.8600 C   0  0  0  0  0  0  0  0  0  0  0  0
   -0.1270   28.0170  -37.4500 C   0  0  0  0  0  0  0  0  0  0  0  0
   -1.5240   27.9080  -38.1070 C   0  0  0  0  0  0  0  0  0  0  0  0
   -0.2180   29.0730  -36.3260 C   0  0  0  0  0  0  0  0  0  0  0  0
    0.8640   28.5030  -38.5320 C   0  0  0  0  0  0  0  0  0  0  0  0
    1.7100   26.4730  -36.4530 C   0  0  0  0  0  0  0  0  0  0  0  0
    2.1220   25.2480  -35.9230 C   0  0  0  0  0  0  0  0  0  0  0  0
   -2.4490   20.0280  -33.9480 C   0  0  0  0  0  0  0  0  0  0  0  0
   -3.4310   20.6780  -33.1980 C   0  0  0  0  0  0  0  0  0  0  0  0
   -6.7800   23.4390  -31.5040 C   0  0  0  0  0  0  0  0  0  0  0  0
   -8.1900   23.2280  -32.0750 C   0  0  0  0  0  0  0  0  0  0  0  0
   -8.9955   21.7311  -29.9024 H   0  0  0  0  0  0  0  0  0  0  0  0
  -10.3574   22.3511  -30.8962 H   0  0  0  0  0  0  0  0  0  0  0  0
   -9.9714   20.5968  -30.8962 H   0  0  0  0  0  0  0  0  0  0  0  0
   -7.2124   20.7178  -30.8574 H   0  0  0  0  0  0  0  0  0  0  0  0
   -7.8506   19.8918  -32.3389 H   0  0  0  0  0  0  0  0  0  0  0  0
   -5.4883   20.5829  -32.6217 H   0  0  0  0  0  0  0  0  0  0  0  0
   -6.6117   21.4490  -33.7615 H   0  0  0  0  0  0  0  0  0  0  0  0
   -1.4236   22.5511  -31.1640 H   0  0  0  0  0  0  0  0  0  0  0  0
    0.3314   21.4244  -32.5284 H   0  0  0  0  0  0  0  0  0  0  0  0
    0.2910   18.7157  -34.0857 H   0  0  0  0  0  0  0  0  0  0  0  0
   -0.4641   19.4003  -35.5630 H   0  0  0  0  0  0  0  0  0  0  0  0
   -0.8308   23.5470  -36.1067 H   0  0  0  0  0  0  0  0  0  0  0  0
   -1.5737   25.7228  -37.0420 H   0  0  0  0  0  0  0  0  0  0  0  0
   -2.2939   27.8479  -37.3237 H   0  0  0  0  0  0  0  0  0  0  0  0
   -1.7054   28.7947  -38.7322 H   0  0  0  0  0  0  0  0  0  0  0  0
   -1.5657   27.0039  -38.7322 H   0  0  0  0  0  0  0  0  0  0  0  0
   -0.1748   28.5719  -35.3477 H   0  0  0  0  0  0  0  0  0  0  0  0
    0.6228   29.7766  -36.4150 H   0  0  0  0  0  0  0  0  0  0  0  0
   -1.1668   29.6224  -36.4150 H   0  0  0  0  0  0  0  0  0  0  0  0
    1.7509   28.9380  -38.0481 H   0  0  0  0  0  0  0  0  0  0  0  0
    1.1686   27.6521  -39.1590 H   0  0  0  0  0  0  0  0  0  0  0  0
    0.3777   29.2649  -39.1590 H   0  0  0  0  0  0  0  0  0  0  0  0
    2.4386   27.2907  -36.5557 H   0  0  0  0  0  0  0  0  0  0  0  0
    3.1709   25.1066  -35.6232 H   0  0  0  0  0  0  0  0  0  0  0  0
   -2.7407   19.2933  -34.7130 H   0  0  0  0  0  0  0  0  0  0  0  0
   -4.4936   20.4656  -33.3873 H   0  0  0  0  0  0  0  0  0  0  0  0
   -6.7706   23.1343  -30.4471 H   0  0  0  0  0  0  0  0  0  0  0  0
   -6.5184   24.5031  -31.6006 H   0  0  0  0  0  0  0  0  0  0  0  0
   -8.8972   23.8564  -31.5138 H   0  0  0  0  0  0  0  0  0  0  0  0
   -8.1678   23.5032  -33.1398 H   0  0  0  0  0  0  0  0  0  0  0  0
  1  2  1  0
  2  3  1  0
  3  4  1  0
  4  5  1  0
  5  6  1  0
  6  7  2  0
  6  8  2  0
  6  9  1  0
  9 10  2  0
 10 11  1  0
 11 12  2  0
 12 13  1  0
 13 14  1  0
 14 15  1  0
 15 16  2  0
 15 17  1  0
 17 18  1  0
 18 19  2  0
 19 20  1  0
 20 21  2  0
 21 22  1  0
 22 23  1  0
 22 24  1  0
 22 25  1  0
 21 26  1  0
 26 27  2  0
 12 28  1  0
 28 29  2  0
  5 30  1  0
 30 31  1  0
 31  2  1  0
 29  9  1  0
 27 18  1  0
  1 32  1  0
  1 33  1  0
  1 34  1  0
  3 35  1  0
  3 36  1  0
  4 37  1  0
  4 38  1  0
 10 39  1  0
 11 40  1  0
 13 41  1  0
 13 42  1  0
 19 43  1  0
 20 44  1  0
 23 45  1  0
 23 46  1  0
 23 47  1  0
 24 48  1  0
 24 49  1  0
 24 50  1  0
 25 51  1  0
 25 52  1  0
 25 53  1  0
 26 54  1  0
 27 55  1  0
 28 56  1  0
 29 57  1  0
 30 58  1  0
 30 59  1  0
 31 60  1  0
 31 61  1  0
M  CHG  2  14  -1  17  -1
M  END
>  <UniqueID>  (33) 
33

>  <SMILES>  (33) 
CN1CCN(S(=O)(=O)c2ccc(C[N-]C(=O)[N-]c3ccc(C(C)(C)C)cc3)cc2)CC1

>  <Energy>  (33) 
71.05318004143035

>  <Genealogy>  (33) 
CN1CCN(S(=O)(=O)c2ccc(C[N-]C(=O)[N-]c3ccc(C(C)(C)C)cc3)cc2)CC1 (protonated)
CN1CCN(S(=O)(=O)c2ccc(C[N-]C(=O)[N-]c3ccc(C(C)(C)C)cc3)cc2)CC1 (3D coordinates assigned)
CN1CCN(S(=O)(=O)c2ccc(C[N-]C(=O)[N-]c3ccc(C(C)(C)C)cc3)cc2)CC1 (nonaromatic ring conformer: 71.05318004143035 kcal/mol)

>  <smiles>  (33) 
CN1CCN(S(=O)(=O)c2ccc(CNC(=O)Nc3ccc(C(C)(C)C)cc3)cc2)CC1

>  <score_type>  (33) 
oracle

>  <origin>  (33) 
adgpu

>  <m_score__min__energy>  (33) 
-13.119999999999999

>  <m_primary>  (33) 
energy

$$$$
33:0
     RDKit          3D

 37 39  0  0  0  0  0  0  0  0999 V2000
   -7.2700   18.1340  -31.7250 C   0  0  0  0  0  0  0  0  0  0  0  0
   -8.2430   19.1070  -32.3210 C   0  0  0  0  0  0  0  0  0  0  0  0
   -9.4790   18.8970  -32.2010 O   0  0  0  0  0  0  0  0  0  0  0  0
   -7.8000   20.2710  -33.0290 N   0  0  0  0  0  0  0  0  0  0  0  0
   -7.1310   21.3690  -32.4030 C   0  0  0  0  0  0  0  0  0  0  0  0
   -7.8920   22.4010  -31.8400 C   0  0  0  0  0  0  0  0  0  0  0  0
   -7.2640   23.4550  -31.1720 C   0  0  0  0  0  0  0  0  0  0  0  0
   -5.8690   23.4930  -31.0730 C   0  0  0  0  0  0  0  0  0  0  0  0
   -5.0980   24.7510  -30.1100 S   0  0  0  0  0  0  0  0  0  0  0  0
   -6.1160   25.8080  -29.7890 O   0  0  0  0  0  0  0  0  0  0  0  0
   -3.9580   25.3770  -30.8640 O   0  0  0  0  0  0  0  0  0  0  0  0
   -4.4930   24.0670  -28.6340 N   0  0  0  0  0  0  0  0  0  0  0  0
   -3.1870   23.4980  -28.4620 C   0  0  0  0  0  0  0  0  0  0  0  0
   -3.0140   22.1430  -28.1200 C   0  0  0  0  0  0  0  0  0  0  0  0
   -1.7330   21.6180  -27.8820 C   0  0  0  0  0  0  0  0  0  0  0  0
   -1.5690   20.2090  -27.4670 C   0  0  0  0  0  0  0  0  0  0  0  0
   -2.4710   19.5160  -26.7480 N   0  0  0  0  0  0  0  0  0  0  0  0
   -1.9440   18.3100  -26.6160 N   0  0  0  0  0  0  0  0  0  0  0  0
   -0.7720   18.2650  -27.2290 N   0  0  0  0  0  0  0  0  0  0  0  0
   -0.5070   19.4410  -27.7740 N   0  0  0  0  0  0  0  0  0  0  0  0
   -0.6150   22.4510  -28.0320 C   0  0  0  0  0  0  0  0  0  0  0  0
   -0.7760   23.7870  -28.4060 C   0  0  0  0  0  0  0  0  0  0  0  0
   -2.0520   24.3160  -28.6180 C   0  0  0  0  0  0  0  0  0  0  0  0
   -2.1710   25.6600  -28.9740 O   0  0  0  0  0  0  0  0  0  0  0  0
   -5.1020   22.4870  -31.6760 C   0  0  0  0  0  0  0  0  0  0  0  0
   -5.7270   21.4260  -32.3430 C   0  0  0  0  0  0  0  0  0  0  0  0
   -4.7300   20.2010  -33.1150 Cl  0  0  0  0  0  0  0  0  0  0  0  0
   -7.3236   18.1876  -30.6276 H   0  0  0  0  0  0  0  0  0  0  0  0
   -7.5214   17.1153  -32.0551 H   0  0  0  0  0  0  0  0  0  0  0  0
   -6.2513   18.3854  -32.0551 H   0  0  0  0  0  0  0  0  0  0  0  0
   -8.9886   22.3816  -31.9241 H   0  0  0  0  0  0  0  0  0  0  0  0
   -7.8679   24.2571  -30.7227 H   0  0  0  0  0  0  0  0  0  0  0  0
   -3.8933   21.4872  -28.0382 H   0  0  0  0  0  0  0  0  0  0  0  0
    0.3939   22.0502  -27.8542 H   0  0  0  0  0  0  0  0  0  0  0  0
    0.1087   24.4280  -28.5347 H   0  0  0  0  0  0  0  0  0  0  0  0
   -3.0290   26.0520  -29.3410 H   0  0  0  0  0  0  0  0  0  0  0  0
   -4.0041   22.5309  -31.6252 H   0  0  0  0  0  0  0  0  0  0  0  0
  1  2  1  0
  2  3  2  0
  2  4  1  0
  4  5  1  0
  5  6  2  0
  6  7  1  0
  7  8  2  0
  8  9  1  0
  9 10  2  0
  9 11  2  0
  9 12  1  0
 12 13  1  0
 13 14  2  0
 14 15  1  0
 15 16  1  0
 16 17  1  0
 17 18  2  0
 18 19  1  0
 19 20  1  0
 15 21  2  0
 21 22  1  0
 22 23  2  0
 23 24  1  0
  8 25  1  0
 25 26  2  0
 26 27  1  0
 26  5  1  0
 23 13  1  0
 20 16  2  0
  1 28  1  0
  1 29  1  0
  1 30  1  0
  6 31  1  0
  7 32  1  0
 14 33  1  0
 21 34  1  0
 22 35  1  0
 24 36  1  0
 25 37  1  0
M  CHG  3   4  -1  12  -1  19  -1
M  END
>  <UniqueID>  (34) 
34

>  <SMILES>  (34) 
CC(=O)[N-]c1ccc(S(=O)(=O)[N-]c2cc(-c3nn[n-]n3)ccc2O)cc1Cl

>  <Energy>  (34) 
86.38271878877177

>  <Genealogy>  (34) 
CC(=O)[N-]c1ccc(S(=O)(=O)[N-]c2cc(-c3nn[n-]n3)ccc2O)cc1Cl (protonated)
CC(=O)[N-]c1ccc(S(=O)(=O)[N-]c2cc(-c3nn[n-]n3)ccc2O)cc1Cl (3D coordinates assigned)
CC(=O)[N-]c1ccc(S(=O)(=O)[N-]c2cc(-c3nn[n-]n3)ccc2O)cc1Cl (optimized conformer: 86.38271878877177 kcal/mol)

>  <smiles>  (34) 
CC(=O)Nc1ccc(S(=O)(=O)Nc2cc(-c3nn[nH]n3)ccc2O)cc1Cl

>  <score_type>  (34) 
oracle

>  <origin>  (34) 
adgpu

>  <m_score__min__energy>  (34) 
-11.289999999999999

>  <m_primary>  (34) 
energy

$$$$
34:0
     RDKit          3D

 36 38  0  0  0  0  0  0  0  0999 V2000
   -0.4570   19.3220  -29.1290 C   0  0  0  0  0  0  0  0  0  0  0  0
   -0.1900   19.9370  -27.8160 N   0  0  0  0  0  0  0  0  0  0  0  0
   -1.2660   19.6790  -26.8400 C   0  0  0  0  0  0  0  0  0  0  0  0
   -2.5950   20.3370  -27.2420 C   0  0  0  0  0  0  0  0  0  0  0  0
   -2.4100   21.7420  -27.7500 C   0  0  0  0  0  0  0  0  0  0  0  0
   -3.5380   22.5590  -27.9210 C   0  0  0  0  0  0  0  0  0  0  0  0
   -3.4190   23.8520  -28.4610 C   0  0  0  0  0  0  0  0  0  0  0  0
   -4.5750   24.6880  -28.6590 N   0  0  0  0  0  0  0  0  0  0  0  0
   -5.3250   24.9310  -30.2050 S   0  0  0  0  0  0  0  0  0  0  0  0
   -6.3370   26.0370  -30.0950 O   0  0  0  0  0  0  0  0  0  0  0  0
   -4.2810   25.3190  -31.2120 O   0  0  0  0  0  0  0  0  0  0  0  0
   -6.0970   23.4430  -30.7340 C   0  0  0  0  0  0  0  0  0  0  0  0
   -5.6230   22.6680  -31.8000 C   0  0  0  0  0  0  0  0  0  0  0  0
   -6.4090   21.5550  -32.0630 C   0  0  0  0  0  0  0  0  0  0  0  0
   -7.6840   21.5470  -30.9670 S   0  0  0  0  0  0  0  0  0  0  0  0
   -7.2540   22.9490  -30.1480 C   0  0  0  0  0  0  0  0  0  0  0  0
   -2.1430   24.3280  -28.8110 C   0  0  0  0  0  0  0  0  0  0  0  0
   -1.9850   25.6070  -29.3320 O   0  0  0  0  0  0  0  0  0  0  0  0
   -1.0180   23.5160  -28.6470 C   0  0  0  0  0  0  0  0  0  0  0  0
   -1.1430   22.2150  -28.1420 C   0  0  0  0  0  0  0  0  0  0  0  0
    0.0990   21.3800  -27.9300 C   0  0  0  0  0  0  0  0  0  0  0  0
   -0.8912   18.3218  -28.9839 H   0  0  0  0  0  0  0  0  0  0  0  0
   -1.1633   19.9503  -29.6914 H   0  0  0  0  0  0  0  0  0  0  0  0
    0.4844   19.2350  -29.6914 H   0  0  0  0  0  0  0  0  0  0  0  0
   -1.4194   18.5925  -26.7630 H   0  0  0  0  0  0  0  0  0  0  0  0
   -0.9558   20.1128  -25.8779 H   0  0  0  0  0  0  0  0  0  0  0  0
   -3.0623   19.7337  -28.0343 H   0  0  0  0  0  0  0  0  0  0  0  0
   -3.2296   20.3859  -26.3448 H   0  0  0  0  0  0  0  0  0  0  0  0
   -4.5294   22.1827  -27.6285 H   0  0  0  0  0  0  0  0  0  0  0  0
   -4.9230   25.2790  -27.8720 H   0  0  0  0  0  0  0  0  0  0  0  0
   -4.7172   22.9170  -32.3722 H   0  0  0  0  0  0  0  0  0  0  0  0
   -6.2293   20.8086  -32.8507 H   0  0  0  0  0  0  0  0  0  0  0  0
   -7.7928   23.3956  -29.2993 H   0  0  0  0  0  0  0  0  0  0  0  0
   -0.0240   23.9020  -28.9171 H   0  0  0  0  0  0  0  0  0  0  0  0
    0.7762   21.5358  -28.7828 H   0  0  0  0  0  0  0  0  0  0  0  0
    0.5539   21.7009  -26.9813 H   0  0  0  0  0  0  0  0  0  0  0  0
  1  2  1  0
  2  3  1  0
  3  4  1  0
  4  5  1  0
  5  6  2  0
  6  7  1  0
  7  8  1  0
  8  9  1  0
  9 10  2  0
  9 11  2  0
  9 12  1  0
 12 13  1  0
 13 14  2  0
 14 15  1  0
 15 16  1  0
  7 17  2  0
 17 18  1  0
 17 19  1  0
 19 20  2  0
 20 21  1  0
 21  2  1  0
 20  5  1  0
 16 12  2  0
  1 22  1  0
  1 23  1  0
  1 24  1  0
  3 25  1  0
  3 26  1  0
  4 27  1  0
  4 28  1  0
  6 29  1  0
  8 30  1  0
 13 31  1  0
 14 32  1  0
 16 33  1  0
 19 34  1  0
 21 35  1  0
 21 36  1  0
M  CHG  1  18  -1
M  END
>  <UniqueID>  (35) 
35

>  <SMILES>  (35) 
CN1CCc2cc(NS(=O)(=O)c3ccsc3)c([O-])cc2C1

>  <Energy>  (35) 
71.00709806926592

>  <Genealogy>  (35) 
CN1CCc2cc(NS(=O)(=O)c3ccsc3)c([O-])cc2C1 (protonated)
CN1CCc2cc(NS(=O)(=O)c3ccsc3)c([O-])cc2C1 (3D coordinates assigned)
CN1CCc2cc(NS(=O)(=O)c3ccsc3)c([O-])cc2C1 (nonaromatic ring conformer: 71.00709806926592 kcal/mol)

>  <smiles>  (35) 
CN1CCc2cc(NS(=O)(=O)c3ccsc3)c(O)cc2C1

>  <score_type>  (35) 
oracle

>  <origin>  (35) 
adgpu

>  <m_score__min__energy>  (35) 
-11.539999999999999

>  <m_primary>  (35) 
energy

$$$$
35:0
     RDKit          3D

 54 57  0  0  0  0  0  0  0  0999 V2000
   -1.6290   25.6700  -29.0200 O   0  0  0  0  0  0  0  0  0  0  0  0
   -2.6160   24.9110  -29.2010 C   0  0  0  0  0  0  0  0  0  0  0  0
   -2.6830   23.5980  -28.4870 C   0  0  0  0  0  0  0  0  0  0  0  0
   -2.1930   22.5000  -29.3890 C   0  0  0  0  0  0  0  0  0  0  0  0
   -3.0810   21.5180  -29.8580 C   0  0  0  0  0  0  0  0  0  0  0  0
   -2.6180   20.4770  -30.6700 C   0  0  0  0  0  0  0  0  0  0  0  0
   -1.2640   20.4070  -31.0130 C   0  0  0  0  0  0  0  0  0  0  0  0
   -0.3710   21.3730  -30.5400 C   0  0  0  0  0  0  0  0  0  0  0  0
   -0.8310   22.4130  -29.7270 C   0  0  0  0  0  0  0  0  0  0  0  0
   -3.6700   25.2830  -30.0950 N   0  0  0  0  0  0  0  0  0  0  0  0
   -4.8700   24.5370  -30.3420 C   0  0  0  0  0  0  0  0  0  0  0  0
   -5.3720   24.4800  -31.6480 C   0  0  0  0  0  0  0  0  0  0  0  0
   -6.5200   23.7360  -31.9320 C   0  0  0  0  0  0  0  0  0  0  0  0
   -7.1670   23.0200  -30.9160 C   0  0  0  0  0  0  0  0  0  0  0  0
   -8.6040   22.0720  -31.2860 S   0  0  0  0  0  0  0  0  0  0  0  0
   -9.4140   22.7940  -32.3270 O   0  0  0  0  0  0  0  0  0  0  0  0
   -9.4460   21.8960  -30.0540 O   0  0  0  0  0  0  0  0  0  0  0  0
   -8.1270   20.4800  -31.8660 C   0  0  0  0  0  0  0  0  0  0  0  0
   -9.0140   19.3970  -31.7930 C   0  0  0  0  0  0  0  0  0  0  0  0
   -8.6360   18.1490  -32.2900 C   0  0  0  0  0  0  0  0  0  0  0  0
   -7.3720   17.9720  -32.8570 C   0  0  0  0  0  0  0  0  0  0  0  0
   -6.4650   19.0430  -32.9280 C   0  0  0  0  0  0  0  0  0  0  0  0
   -5.1290   18.8350  -33.5390 C   0  0  0  0  0  0  0  0  0  0  0  0
   -4.9100   17.7670  -34.1730 O   0  0  0  0  0  0  0  0  0  0  0  0
   -4.0940   19.8290  -33.4260 N   0  0  0  0  0  0  0  0  0  0  0  0
   -2.7370   19.6250  -33.8570 C   0  0  0  0  0  0  0  0  0  0  0  0
   -2.1470   18.3490  -33.8630 C   0  0  0  0  0  0  0  0  0  0  0  0
   -0.8500   18.1970  -34.2460 N   0  0  0  0  0  0  0  0  0  0  0  0
   -0.0860   19.2560  -34.6220 C   0  0  0  0  0  0  0  0  0  0  0  0
   -0.6220   20.5460  -34.6100 C   0  0  0  0  0  0  0  0  0  0  0  0
    0.3610   21.9200  -35.0820 Cl  0  0  0  0  0  0  0  0  0  0  0  0
   -1.9500   20.7290  -34.2150 C   0  0  0  0  0  0  0  0  0  0  0  0
   -6.8600   20.3020  -32.4380 C   0  0  0  0  0  0  0  0  0  0  0  0
   -6.6590   23.0610  -29.6110 C   0  0  0  0  0  0  0  0  0  0  0  0
   -5.5130   23.8100  -29.3250 C   0  0  0  0  0  0  0  0  0  0  0  0
   -2.0520   23.6396  -27.5869 H   0  0  0  0  0  0  0  0  0  0  0  0
   -3.7254   23.3939  -28.2010 H   0  0  0  0  0  0  0  0  0  0  0  0
   -4.1456   21.5677  -29.5856 H   0  0  0  0  0  0  0  0  0  0  0  0
   -3.3189   19.7136  -31.0386 H   0  0  0  0  0  0  0  0  0  0  0  0
   -0.9014   19.5911  -31.6555 H   0  0  0  0  0  0  0  0  0  0  0  0
    0.6943   21.3147  -30.8077 H   0  0  0  0  0  0  0  0  0  0  0  0
   -0.1241   23.1668  -29.3500 H   0  0  0  0  0  0  0  0  0  0  0  0
   -4.8595   25.0241  -32.4550 H   0  0  0  0  0  0  0  0  0  0  0  0
   -6.9176   23.7122  -32.9574 H   0  0  0  0  0  0  0  0  0  0  0  0
  -10.0090   19.5310  -31.3435 H   0  0  0  0  0  0  0  0  0  0  0  0
   -9.3358   17.3021  -32.2350 H   0  0  0  0  0  0  0  0  0  0  0  0
   -7.0841   16.9862  -33.2512 H   0  0  0  0  0  0  0  0  0  0  0  0
   -4.3290   20.7720  -33.0450 H   0  0  0  0  0  0  0  0  0  0  0  0
   -2.7352   17.4712  -33.5573 H   0  0  0  0  0  0  0  0  0  0  0  0
    0.9561   19.0972  -34.9363 H   0  0  0  0  0  0  0  0  0  0  0  0
   -2.3789   21.7415  -34.1849 H   0  0  0  0  0  0  0  0  0  0  0  0
   -6.1677   21.1542  -32.5046 H   0  0  0  0  0  0  0  0  0  0  0  0
   -7.1631   22.5023  -28.8087 H   0  0  0  0  0  0  0  0  0  0  0  0
   -5.1133   23.8303  -28.3004 H   0  0  0  0  0  0  0  0  0  0  0  0
  1  2  2  0
  2  3  1  0
  3  4  1  0
  4  5  2  0
  5  6  1  0
  6  7  2  0
  7  8  1  0
  8  9  2  0
  2 10  1  0
 10 11  1  0
 11 12  2  0
 12 13  1  0
 13 14  2  0
 14 15  1  0
 15 16  2  0
 15 17  2  0
 15 18  1  0
 18 19  2  0
 19 20  1  0
 20 21  2  0
 21 22  1  0
 22 23  1  0
 23 24  2  0
 23 25  1  0
 25 26  1  0
 26 27  2  0
 27 28  1  0
 28 29  2  0
 29 30  1  0
 30 31  1  0
 30 32  2  0
 22 33  2  0
 14 34  1  0
 34 35  2  0
  9  4  1  0
 35 11  1  0
 33 18  1  0
 32 26  1  0
  3 36  1  0
  3 37  1  0
  5 38  1  0
  6 39  1  0
  7 40  1  0
  8 41  1  0
  9 42  1  0
 12 43  1  0
 13 44  1  0
 19 45  1  0
 20 46  1  0
 21 47  1  0
 25 48  1  0
 27 49  1  0
 29 50  1  0
 32 51  1  0
 33 52  1  0
 34 53  1  0
 35 54  1  0
M  CHG  1  10  -1
M  END
>  <UniqueID>  (36) 
36

>  <SMILES>  (36) 
O=C(Cc1ccccc1)[N-]c1ccc(S(=O)(=O)c2cccc(C(=O)Nc3cncc(Cl)c3)c2)cc1

>  <Energy>  (36) 
70.09115543115578

>  <Genealogy>  (36) 
O=C(Cc1ccccc1)[N-]c1ccc(S(=O)(=O)c2cccc(C(=O)Nc3cncc(Cl)c3)c2)cc1 (protonated)
O=C(Cc1ccccc1)[N-]c1ccc(S(=O)(=O)c2cccc(C(=O)Nc3cncc(Cl)c3)c2)cc1 (3D coordinates assigned)
O=C(Cc1ccccc1)[N-]c1ccc(S(=O)(=O)c2cccc(C(=O)Nc3cncc(Cl)c3)c2)cc1 (optimized conformer: 70.09115543115578 kcal/mol)

>  <smiles>  (36) 
O=C(Cc1ccccc1)Nc1ccc(S(=O)(=O)c2cccc(C(=O)Nc3cncc(Cl)c3)c2)cc1

>  <score_type>  (36) 
oracle

>  <origin>  (36) 
adgpu

>  <m_score__min__energy>  (36) 
-13.630000000000001

>  <m_primary>  (36) 
energy

$$$$
36:0
     RDKit          3D

 68 72  0  0  0  0  0  0  0  0999 V2000
   -1.0360   22.3220  -30.8850 O   0  0  0  0  0  0  0  0  0  0  0  0
   -1.9610   22.6920  -30.1130 C   0  0  0  0  0  0  0  0  0  0  0  0
   -3.3620   22.5200  -30.5410 C   0  0  0  0  0  0  0  0  0  0  0  0
   -3.6690   22.2500  -31.8830 C   0  0  0  0  0  0  0  0  0  0  0  0
   -5.0000   22.1530  -32.2970 C   0  0  0  0  0  0  0  0  0  0  0  0
   -6.0390   22.3020  -31.3690 C   0  0  0  0  0  0  0  0  0  0  0  0
   -7.7180   22.2350  -31.9020 S   0  0  0  0  0  0  0  0  0  0  0  0
   -8.0130   23.4570  -32.7270 O   0  0  0  0  0  0  0  0  0  0  0  0
   -8.6110   22.2770  -30.6930 O   0  0  0  0  0  0  0  0  0  0  0  0
   -8.0920   20.8050  -32.8400 N   0  0  0  0  0  0  0  0  0  0  0  0
   -9.2400   20.0410  -32.3150 C   0  0  0  0  0  0  0  0  0  0  0  0
   -8.8190   18.9490  -31.3200 C   0  0  0  0  0  0  0  0  0  0  0  0
   -7.8210   18.1230  -31.8770 O   0  0  0  0  0  0  0  0  0  0  0  0
   -6.6570   18.8900  -32.0940 C   0  0  0  0  0  0  0  0  0  0  0  0
   -6.9100   19.9770  -33.1470 C   0  0  0  0  0  0  0  0  0  0  0  0
   -5.7340   22.5510  -30.0240 C   0  0  0  0  0  0  0  0  0  0  0  0
   -4.4030   22.6470  -29.6090 C   0  0  0  0  0  0  0  0  0  0  0  0
   -1.6160   23.2750  -28.7980 C   0  0  0  0  0  0  0  0  0  0  0  0
   -1.5700   24.6200  -28.4940 C   0  0  0  0  0  0  0  0  0  0  0  0
   -1.8960   25.6720  -29.3420 O   0  0  0  0  0  0  0  0  0  0  0  0
   -1.1250   24.7350  -27.1990 C   0  0  0  0  0  0  0  0  0  0  0  0
   -0.9230   25.9460  -26.5410 O   0  0  0  0  0  0  0  0  0  0  0  0
   -0.8870   23.5110  -26.6730 N   0  0  0  0  0  0  0  0  0  0  0  0
   -0.3120   23.2360  -25.3490 C   0  0  0  0  0  0  0  0  0  0  0  0
    0.3060   24.5030  -24.7410 C   0  0  0  0  0  0  0  0  0  0  0  0
    1.4440   24.9710  -25.5580 N   0  0  0  0  0  0  0  0  0  0  0  0
    2.5160   25.5900  -24.7350 C   0  0  0  0  0  0  0  0  0  0  0  0
    3.7520   24.6810  -24.6160 C   0  0  0  0  0  0  0  0  0  0  0  0
    4.3260   24.3490  -25.8730 O   0  0  0  0  0  0  0  0  0  0  0  0
    3.3720   24.2120  -26.9200 C   0  0  0  0  0  0  0  0  0  0  0  0
    1.9490   23.8930  -26.4350 C   0  0  0  0  0  0  0  0  0  0  0  0
   -1.1860   22.6130  -27.6460 C   0  0  0  0  0  0  0  0  0  0  0  0
   -0.9260   21.1640  -27.5500 C   0  0  0  0  0  0  0  0  0  0  0  0
   -1.9060   20.3010  -27.0370 C   0  0  0  0  0  0  0  0  0  0  0  0
   -1.6820   18.9230  -27.0060 C   0  0  0  0  0  0  0  0  0  0  0  0
   -0.4810   18.3980  -27.4890 C   0  0  0  0  0  0  0  0  0  0  0  0
    0.4980   19.2520  -28.0050 C   0  0  0  0  0  0  0  0  0  0  0  0
    0.2770   20.6320  -28.0370 C   0  0  0  0  0  0  0  0  0  0  0  0
   -2.8576   22.1139  -32.6132 H   0  0  0  0  0  0  0  0  0  0  0  0
   -5.2327   21.9591  -33.3545 H   0  0  0  0  0  0  0  0  0  0  0  0
   -9.9229   20.7370  -31.8058 H   0  0  0  0  0  0  0  0  0  0  0  0
   -9.7270   19.5446  -33.1673 H   0  0  0  0  0  0  0  0  0  0  0  0
   -8.4273   19.4234  -30.4081 H   0  0  0  0  0  0  0  0  0  0  0  0
   -9.6970   18.3305  -31.0824 H   0  0  0  0  0  0  0  0  0  0  0  0
   -6.3573   19.3662  -31.1488 H   0  0  0  0  0  0  0  0  0  0  0  0
   -5.8592   18.2255  -32.4574 H   0  0  0  0  0  0  0  0  0  0  0  0
   -6.0265   20.6303  -33.1973 H   0  0  0  0  0  0  0  0  0  0  0  0
   -7.0987   19.4722  -34.1060 H   0  0  0  0  0  0  0  0  0  0  0  0
   -6.5459   22.6714  -29.2917 H   0  0  0  0  0  0  0  0  0  0  0  0
   -4.1708   22.8227  -28.5482 H   0  0  0  0  0  0  0  0  0  0  0  0
    0.0010   26.3390  -26.4110 H   0  0  0  0  0  0  0  0  0  0  0  0
   -1.1055   22.8677  -24.6821 H   0  0  0  0  0  0  0  0  0  0  0  0
    0.4796   22.4806  -25.4619 H   0  0  0  0  0  0  0  0  0  0  0  0
   -0.4579   25.2933  -24.6991 H   0  0  0  0  0  0  0  0  0  0  0  0
    0.6687   24.2697  -23.7291 H   0  0  0  0  0  0  0  0  0  0  0  0
    2.8176   26.5395  -25.2013 H   0  0  0  0  0  0  0  0  0  0  0  0
    2.1157   25.7517  -23.7233 H   0  0  0  0  0  0  0  0  0  0  0  0
    4.5105   25.1997  -24.0114 H   0  0  0  0  0  0  0  0  0  0  0  0
    3.4228   23.7412  -24.1486 H   0  0  0  0  0  0  0  0  0  0  0  0
    3.3410   25.1555  -27.4847 H   0  0  0  0  0  0  0  0  0  0  0  0
    3.6961   23.3592  -27.5346 H   0  0  0  0  0  0  0  0  0  0  0  0
    1.2840   23.7940  -27.3057 H   0  0  0  0  0  0  0  0  0  0  0  0
    1.9713   22.9529  -25.8643 H   0  0  0  0  0  0  0  0  0  0  0  0
   -2.8537   20.7111  -26.6580 H   0  0  0  0  0  0  0  0  0  0  0  0
   -2.4521   18.2502  -26.6008 H   0  0  0  0  0  0  0  0  0  0  0  0
   -0.3056   17.3124  -27.4633 H   0  0  0  0  0  0  0  0  0  0  0  0
    1.4431   18.8378  -28.3862 H   0  0  0  0  0  0  0  0  0  0  0  0
    1.0481   21.3020  -28.4449 H   0  0  0  0  0  0  0  0  0  0  0  0
  1  2  2  0
  2  3  1  0
  3  4  2  0
  4  5  1  0
  5  6  2  0
  6  7  1  0
  7  8  2  0
  7  9  2  0
  7 10  1  0
 10 11  1  0
 11 12  1  0
 12 13  1  0
 13 14  1  0
 14 15  1  0
  6 16  1  0
 16 17  2  0
  2 18  1  0
 18 19  1  0
 19 20  1  0
 19 21  2  0
 21 22  1  0
 21 23  1  0
 23 24  1  0
 24 25  1  0
 25 26  1  0
 26 27  1  0
 27 28  1  0
 28 29  1  0
 29 30  1  0
 30 31  1  0
 23 32  1  0
 32 33  1  0
 33 34  2  0
 34 35  1  0
 35 36  2  0
 36 37  1  0
 37 38  2  0
 17  3  1  0
 32 18  2  0
 38 33  1  0
 15 10  1  0
 31 26  1  0
  4 39  1  0
  5 40  1  0
 11 41  1  0
 11 42  1  0
 12 43  1  0
 12 44  1  0
 14 45  1  0
 14 46  1  0
 15 47  1  0
 15 48  1  0
 16 49  1  0
 17 50  1  0
 22 51  1  0
 24 52  1  0
 24 53  1  0
 25 54  1  0
 25 55  1  0
 27 56  1  0
 27 57  1  0
 28 58  1  0
 28 59  1  0
 30 60  1  0
 30 61  1  0
 31 62  1  0
 31 63  1  0
 34 64  1  0
 35 65  1  0
 36 66  1  0
 37 67  1  0
 38 68  1  0
M  CHG  1  20  -1
M  END
>  <UniqueID>  (37) 
37

>  <SMILES>  (37) 
O=C(c1ccc(S(=O)(=O)N2CCOCC2)cc1)c1c([O-])c(O)n(CCN2CCOCC2)c1-c1ccccc1

>  <Energy>  (37) 
128.330454186157

>  <Genealogy>  (37) 
O=C(c1ccc(S(=O)(=O)N2CCOCC2)cc1)c1c([O-])c(O)n(CCN2CCOCC2)c1-c1ccccc1 (protonated)
O=C(c1ccc(S(=O)(=O)N2CCOCC2)cc1)c1c([O-])c(O)n(CCN2CCOCC2)c1-c1ccccc1 (3D coordinates assigned)
O=C(c1ccc(S(=O)(=O)N2CCOCC2)cc1)c1c([O-])c(O)n(CCN2CCOCC2)c1-c1ccccc1 (nonaromatic ring conformer: 128.330454186157 kcal/mol)

>  <smiles>  (37) 
O=C(c1ccc(S(=O)(=O)N2CCOCC2)cc1)c1c(O)c(O)n(CCN2CCOCC2)c1-c1ccccc1

>  <score_type>  (37) 
oracle

>  <origin>  (37) 
adgpu

>  <m_score__min__energy>  (37) 
-12.77

>  <m_primary>  (37) 
energy

$$$$
37:0
     RDKit          3D

 49 51  0  0  0  0  0  0  0  0999 V2000
   -5.8260   22.8480  -31.6920 C   0  0  0  0  0  0  0  0  0  0  0  0
   -4.7190   23.5920  -31.0160 C   0  0  0  0  0  0  0  0  0  0  0  0
   -4.7100   24.9340  -30.8990 N   0  0  0  0  0  0  0  0  0  0  0  0
   -3.6020   25.2970  -30.2730 N   0  0  0  0  0  0  0  0  0  0  0  0
   -2.8830   24.1930  -29.9990 C   0  0  0  0  0  0  0  0  0  0  0  0
   -1.6040   24.2230  -29.2240 C   0  0  0  0  0  0  0  0  0  0  0  0
   -3.5560   23.0760  -30.4630 C   0  0  0  0  0  0  0  0  0  0  0  0
   -3.0570   21.3800  -30.3260 S   0  0  0  0  0  0  0  0  0  0  0  0
   -1.5570   21.3010  -30.3650 O   0  0  0  0  0  0  0  0  0  0  0  0
   -3.5020   20.8360  -28.9970 O   0  0  0  0  0  0  0  0  0  0  0  0
   -3.7180   20.3880  -31.6110 N   0  0  0  0  0  0  0  0  0  0  0  0
   -3.6610   21.0960  -32.9050 C   0  0  0  0  0  0  0  0  0  0  0  0
   -2.3910   20.7510  -33.6190 C   0  0  0  0  0  0  0  0  0  0  0  0
   -2.4340   20.0280  -34.6500 O   0  0  0  0  0  0  0  0  0  0  0  0
   -1.1320   21.1800  -33.0790 N   0  0  0  0  0  0  0  0  0  0  0  0
    0.1070   21.1640  -33.8080 C   0  0  0  0  0  0  0  0  0  0  0  0
    1.1750   20.3310  -33.4240 C   0  0  0  0  0  0  0  0  0  0  0  0
    2.3590   20.3150  -34.1680 C   0  0  0  0  0  0  0  0  0  0  0  0
    2.4830   21.1160  -35.3060 C   0  0  0  0  0  0  0  0  0  0  0  0
    1.4190   21.9290  -35.7070 C   0  0  0  0  0  0  0  0  0  0  0  0
    1.5390   22.7190  -36.8450 O   0  0  0  0  0  0  0  0  0  0  0  0
    0.2330   21.9470  -34.9660 C   0  0  0  0  0  0  0  0  0  0  0  0
   -5.0910   19.9680  -31.2820 C   0  0  0  0  0  0  0  0  0  0  0  0
   -5.5080   18.8070  -32.1530 C   0  0  0  0  0  0  0  0  0  0  0  0
   -4.5260   18.0010  -32.7540 C   0  0  0  0  0  0  0  0  0  0  0  0
   -4.8920   16.9110  -33.5470 C   0  0  0  0  0  0  0  0  0  0  0  0
   -6.2410   16.6150  -33.7520 C   0  0  0  0  0  0  0  0  0  0  0  0
   -6.5940   15.5560  -34.5210 F   0  0  0  0  0  0  0  0  0  0  0  0
   -7.2270   17.4100  -33.1630 C   0  0  0  0  0  0  0  0  0  0  0  0
   -6.8710   18.5040  -32.3660 C   0  0  0  0  0  0  0  0  0  0  0  0
   -8.1560   19.4720  -31.6500 Cl  0  0  0  0  0  0  0  0  0  0  0  0
   -6.4866   22.4040  -30.9327 H   0  0  0  0  0  0  0  0  0  0  0  0
   -6.4039   23.5418  -32.3203 H   0  0  0  0  0  0  0  0  0  0  0  0
   -5.4019   22.0509  -32.3203 H   0  0  0  0  0  0  0  0  0  0  0  0
   -1.8277   24.2178  -28.1470 H   0  0  0  0  0  0  0  0  0  0  0  0
   -1.0008   23.3388  -29.4775 H   0  0  0  0  0  0  0  0  0  0  0  0
   -1.0429   25.1346  -29.4775 H   0  0  0  0  0  0  0  0  0  0  0  0
   -4.5200   20.7960  -33.5231 H   0  0  0  0  0  0  0  0  0  0  0  0
   -3.6927   22.1809  -32.7260 H   0  0  0  0  0  0  0  0  0  0  0  0
   -1.1080   21.4740  -32.0760 H   0  0  0  0  0  0  0  0  0  0  0  0
    1.0778   19.6902  -32.5352 H   0  0  0  0  0  0  0  0  0  0  0  0
    3.1943   19.6705  -33.8567 H   0  0  0  0  0  0  0  0  0  0  0  0
    3.4175   21.1069  -35.8861 H   0  0  0  0  0  0  0  0  0  0  0  0
   -0.6062   22.5787  -35.2927 H   0  0  0  0  0  0  0  0  0  0  0  0
   -5.1337   19.6629  -30.2260 H   0  0  0  0  0  0  0  0  0  0  0  0
   -5.7748   20.8113  -31.4591 H   0  0  0  0  0  0  0  0  0  0  0  0
   -3.4614   18.2302  -32.5988 H   0  0  0  0  0  0  0  0  0  0  0  0
   -4.1159   16.2845  -34.0109 H   0  0  0  0  0  0  0  0  0  0  0  0
   -8.2891   17.1749  -33.3265 H   0  0  0  0  0  0  0  0  0  0  0  0
  1  2  1  0
  2  3  2  0
  3  4  1  0
  4  5  1  0
  5  6  1  0
  5  7  2  0
  7  8  1  0
  8  9  2  0
  8 10  2  0
  8 11  1  0
 11 12  1  0
 12 13  1  0
 13 14  2  0
 13 15  1  0
 15 16  1  0
 16 17  2  0
 17 18  1  0
 18 19  2  0
 19 20  1  0
 20 21  1  0
 20 22  2  0
 11 23  1  0
 23 24  1  0
 24 25  2  0
 25 26  1  0
 26 27  2  0
 27 28  1  0
 27 29  1  0
 29 30  2  0
 30 31  1  0
  7  2  1  0
 22 16  1  0
 30 24  1  0
  1 32  1  0
  1 33  1  0
  1 34  1  0
  6 35  1  0
  6 36  1  0
  6 37  1  0
 12 38  1  0
 12 39  1  0
 15 40  1  0
 17 41  1  0
 18 42  1  0
 19 43  1  0
 22 44  1  0
 23 45  1  0
 23 46  1  0
 25 47  1  0
 26 48  1  0
 29 49  1  0
M  CHG  2   4  -1  21  -1
M  END
>  <UniqueID>  (38) 
38

>  <SMILES>  (38) 
Cc1n[n-]c(C)c1S(=O)(=O)N(CC(=O)Nc1cccc([O-])c1)Cc1ccc(F)cc1Cl

>  <Energy>  (38) 
81.40696407372216

>  <Genealogy>  (38) 
Cc1n[n-]c(C)c1S(=O)(=O)N(CC(=O)Nc1cccc([O-])c1)Cc1ccc(F)cc1Cl (protonated)
Cc1n[n-]c(C)c1S(=O)(=O)N(CC(=O)Nc1cccc([O-])c1)Cc1ccc(F)cc1Cl (3D coordinates assigned)
Cc1n[n-]c(C)c1S(=O)(=O)N(CC(=O)Nc1cccc([O-])c1)Cc1ccc(F)cc1Cl (optimized conformer: 81.40696407372216 kcal/mol)

>  <smiles>  (38) 
Cc1n[nH]c(C)c1S(=O)(=O)N(CC(=O)Nc1cccc(O)c1)Cc1ccc(F)cc1Cl

>  <score_type>  (38) 
oracle

>  <origin>  (38) 
adgpu

>  <m_score__min__energy>  (38) 
-11.65

>  <m_primary>  (38) 
energy

$$$$
38:0
     RDKit          3D

 46 48  0  0  0  0  0  0  0  0999 V2000
   -1.6350   21.4470  -26.8550 C   0  0  0  0  0  0  0  0  0  0  0  0
   -2.0120   22.2130  -28.1290 C   0  0  1  0  0  0  0  0  0  0  0  0
   -3.4870   21.9570  -28.5270 C   0  0  0  0  0  0  0  0  0  0  0  0
   -4.4130   23.0630  -27.9970 C   0  0  0  0  0  0  0  0  0  0  0  0
   -4.0430   24.4170  -28.4930 N   0  0  2  0  0  0  0  0  0  0  0  0
   -5.0580   24.8860  -29.8370 S   0  0  0  0  0  0  0  0  0  0  0  0
   -6.1790   25.7630  -29.3520 O   0  0  0  0  0  0  0  0  0  0  0  0
   -4.2470   25.6560  -30.8420 O   0  0  0  0  0  0  0  0  0  0  0  0
   -5.7140   23.4500  -30.6220 C   0  0  0  0  0  0  0  0  0  0  0  0
   -7.0310   23.0580  -30.3950 C   0  0  0  0  0  0  0  0  0  0  0  0
   -7.5380   21.9100  -30.9980 C   0  0  0  0  0  0  0  0  0  0  0  0
   -6.7320   21.1130  -31.8470 C   0  0  0  0  0  0  0  0  0  0  0  0
   -5.3810   21.5040  -32.0760 C   0  0  0  0  0  0  0  0  0  0  0  0
   -4.8960   22.6780  -31.4490 C   0  0  0  0  0  0  0  0  0  0  0  0
   -4.5780   20.7400  -32.8950 N   0  0  0  0  0  0  0  0  0  0  0  0
   -3.1730   21.1240  -33.1470 C   0  0  0  0  0  0  0  0  0  0  0  0
   -5.0860   19.6090  -33.4810 C   0  0  0  0  0  0  0  0  0  0  0  0
   -4.3670   18.8930  -34.2340 O   0  0  0  0  0  0  0  0  0  0  0  0
   -6.4120   19.2260  -33.2580 C   0  0  0  0  0  0  0  0  0  0  0  0
   -6.8420   18.1790  -33.8160 O   0  0  0  0  0  0  0  0  0  0  0  0
   -7.2260   19.9740  -32.4480 N   0  0  0  0  0  0  0  0  0  0  0  0
   -8.6250   19.5510  -32.2270 C   0  0  0  0  0  0  0  0  0  0  0  0
   -2.6150   24.5590  -28.8710 C   0  0  0  0  0  0  0  0  0  0  0  0
   -1.7070   23.7200  -27.9650 C   0  0  0  0  0  0  0  0  0  0  0  0
   -1.9253   22.0368  -25.9731 H   0  0  0  0  0  0  0  0  0  0  0  0
   -2.1605   20.4808  -26.8391 H   0  0  0  0  0  0  0  0  0  0  0  0
   -0.5488   21.2740  -26.8391 H   0  0  0  0  0  0  0  0  0  0  0  0
   -1.3926   21.8360  -28.9561 H   0  0  0  0  0  0  0  0  0  0  0  0
   -3.5608   21.9242  -29.6240 H   0  0  0  0  0  0  0  0  0  0  0  0
   -3.8030   21.0007  -28.0847 H   0  0  0  0  0  0  0  0  0  0  0  0
   -5.4422   22.8417  -28.3162 H   0  0  0  0  0  0  0  0  0  0  0  0
   -4.3174   23.0759  -26.9012 H   0  0  0  0  0  0  0  0  0  0  0  0
   -4.2400   25.1010  -27.7240 H   0  0  0  0  0  0  0  0  0  0  0  0
   -7.6744   23.6589  -29.7355 H   0  0  0  0  0  0  0  0  0  0  0  0
   -8.5819   21.6172  -30.8119 H   0  0  0  0  0  0  0  0  0  0  0  0
   -3.8539   22.9876  -31.6171 H   0  0  0  0  0  0  0  0  0  0  0  0
   -2.6539   21.2659  -32.1876 H   0  0  0  0  0  0  0  0  0  0  0  0
   -2.6730   20.3296  -33.7205 H   0  0  0  0  0  0  0  0  0  0  0  0
   -3.1465   22.0623  -33.7205 H   0  0  0  0  0  0  0  0  0  0  0  0
   -8.8236   19.4910  -31.1467 H   0  0  0  0  0  0  0  0  0  0  0  0
   -9.3062   20.2833  -32.6849 H   0  0  0  0  0  0  0  0  0  0  0  0
   -8.7863   18.5639  -32.6849 H   0  0  0  0  0  0  0  0  0  0  0  0
   -2.4862   24.2271  -29.9118 H   0  0  0  0  0  0  0  0  0  0  0  0
   -2.3322   25.6161  -28.7587 H   0  0  0  0  0  0  0  0  0  0  0  0
   -0.6568   23.9071  -28.2336 H   0  0  0  0  0  0  0  0  0  0  0  0
   -1.8904   24.0058  -26.9187 H   0  0  0  0  0  0  0  0  0  0  0  0
  1  2  1  0
  2  3  1  0
  3  4  1  0
  4  5  1  0
  5  6  1  0
  6  7  2  0
  6  8  2  0
  6  9  1  0
  9 10  2  0
 10 11  1  0
 11 12  2  0
 12 13  1  0
 13 14  2  0
 13 15  1  0
 15 16  1  0
 15 17  1  0
 17 18  2  0
 17 19  1  0
 19 20  2  0
 19 21  1  0
 21 22  1  0
  5 23  1  0
 23 24  1  0
 24  2  1  0
 14  9  1  0
 21 12  1  0
  1 25  1  0
  1 26  1  0
  1 27  1  0
  2 28  1  6
  3 29  1  0
  3 30  1  0
  4 31  1  0
  4 32  1  0
  5 33  1  1
 10 34  1  0
 11 35  1  0
 14 36  1  0
 16 37  1  0
 16 38  1  0
 16 39  1  0
 22 40  1  0
 22 41  1  0
 22 42  1  0
 23 43  1  0
 23 44  1  0
 24 45  1  0
 24 46  1  0
M  CHG  1   5   1
M  END
>  <UniqueID>  (39) 
39

>  <SMILES>  (39) 
CC1CC[NH+](S(=O)(=O)c2ccc3c(c2)n(C)c(=O)c(=O)n3C)CC1

>  <Energy>  (39) 
68.10749387293177

>  <Genealogy>  (39) 
CC1CC[NH+](S(=O)(=O)c2ccc3c(c2)n(C)c(=O)c(=O)n3C)CC1 (protonated)
CC1CC[NH+](S(=O)(=O)c2ccc3c(c2)n(C)c(=O)c(=O)n3C)CC1 (3D coordinates assigned)
CC1CC[NH+](S(=O)(=O)c2ccc3c(c2)n(C)c(=O)c(=O)n3C)CC1 (nonaromatic ring conformer: 68.10749387293177 kcal/mol)

>  <smiles>  (39) 
CC1CCN(S(=O)(=O)c2ccc3c(c2)n(C)c(=O)c(=O)n3C)CC1

>  <score_type>  (39) 
oracle

>  <origin>  (39) 
adgpu

>  <m_score__min__energy>  (39) 
-8.4000000000000004

>  <m_primary>  (39) 
energy

$$$$
39:0
     RDKit          3D

 38 41  0  0  0  0  0  0  0  0999 V2000
   -3.7580   24.8970  -30.5270 O   0  0  0  0  0  0  0  0  0  0  0  0
   -4.0510   23.7000  -30.7960 C   0  0  0  0  0  0  0  0  0  0  0  0
   -5.3750   23.3660  -31.0870 C   0  0  0  0  0  0  0  0  0  0  0  0
   -5.7100   22.0360  -31.3740 C   0  0  0  0  0  0  0  0  0  0  0  0
   -4.6760   21.0850  -31.3940 C   0  0  0  0  0  0  0  0  0  0  0  0
   -3.4080   21.4620  -31.0890 N   0  0  0  0  0  0  0  0  0  0  0  0
   -3.0870   22.7270  -30.8060 N   0  0  0  0  0  0  0  0  0  0  0  0
   -1.6930   23.0270  -30.4600 C   0  0  0  0  0  0  0  0  0  0  0  0
   -1.6250   23.6780  -29.1050 C   0  0  0  0  0  0  0  0  0  0  0  0
   -1.2370   25.0220  -28.9770 C   0  0  0  0  0  0  0  0  0  0  0  0
   -1.2080   25.6290  -27.7170 C   0  0  0  0  0  0  0  0  0  0  0  0
   -1.5730   24.9030  -26.5810 C   0  0  0  0  0  0  0  0  0  0  0  0
   -1.9700   23.5690  -26.7020 C   0  0  0  0  0  0  0  0  0  0  0  0
   -2.0000   22.9570  -27.9590 C   0  0  0  0  0  0  0  0  0  0  0  0
   -4.9750   19.6380  -31.6700 C   0  0  0  0  0  0  0  0  0  0  0  0
   -6.1020   19.4980  -32.7000 C   0  0  0  0  0  0  0  0  0  0  0  0
   -7.2940   20.3440  -32.3220 C   0  0  0  0  0  0  0  0  0  0  0  0
   -8.5880   19.9180  -32.6560 C   0  0  0  0  0  0  0  0  0  0  0  0
   -9.6930   20.7090  -32.3390 C   0  0  0  0  0  0  0  0  0  0  0  0
   -9.5150   21.9330  -31.6940 C   0  0  0  0  0  0  0  0  0  0  0  0
   -8.2300   22.3790  -31.3740 C   0  0  0  0  0  0  0  0  0  0  0  0
   -7.1010   21.6010  -31.7010 C   0  0  0  0  0  0  0  0  0  0  0  0
   -6.1524   24.1442  -31.0910 H   0  0  0  0  0  0  0  0  0  0  0  0
   -1.1129   22.0925  -30.4442 H   0  0  0  0  0  0  0  0  0  0  0  0
   -1.2756   23.7141  -31.2108 H   0  0  0  0  0  0  0  0  0  0  0  0
   -0.9551   25.5988  -29.8702 H   0  0  0  0  0  0  0  0  0  0  0  0
   -0.8972   26.6798  -27.6207 H   0  0  0  0  0  0  0  0  0  0  0  0
   -1.5479   25.3816  -25.5909 H   0  0  0  0  0  0  0  0  0  0  0  0
   -2.2595   22.9990  -25.8068 H   0  0  0  0  0  0  0  0  0  0  0  0
   -2.3181   21.9080  -28.0508 H   0  0  0  0  0  0  0  0  0  0  0  0
   -4.0688   19.1511  -32.0595 H   0  0  0  0  0  0  0  0  0  0  0  0
   -5.2953   19.1607  -30.7322 H   0  0  0  0  0  0  0  0  0  0  0  0
   -5.7309   19.8200  -33.6842 H   0  0  0  0  0  0  0  0  0  0  0  0
   -6.4176   18.4447  -32.7306 H   0  0  0  0  0  0  0  0  0  0  0  0
   -8.7323   18.9563  -33.1700 H   0  0  0  0  0  0  0  0  0  0  0  0
  -10.7058   20.3669  -32.5981 H   0  0  0  0  0  0  0  0  0  0  0  0
  -10.3891   22.5491  -31.4364 H   0  0  0  0  0  0  0  0  0  0  0  0
   -8.0985   23.3443  -30.8632 H   0  0  0  0  0  0  0  0  0  0  0  0
  1  2  2  0
  2  3  1  0
  3  4  2  0
  4  5  1  0
  5  6  2  0
  6  7  1  0
  7  8  1  0
  8  9  1  0
  9 10  2  0
 10 11  1  0
 11 12  2  0
 12 13  1  0
 13 14  2  0
  5 15  1  0
 15 16  1  0
 16 17  1  0
 17 18  2  0
 18 19  1  0
 19 20  2  0
 20 21  1  0
 21 22  2  0
  7  2  1  0
 14  9  1  0
 22 17  1  0
 22  4  1  0
  3 23  1  0
  8 24  1  0
  8 25  1  0
 10 26  1  0
 11 27  1  0
 12 28  1  0
 13 29  1  0
 14 30  1  0
 15 31  1  0
 15 32  1  0
 16 33  1  0
 16 34  1  0
 18 35  1  0
 19 36  1  0
 20 37  1  0
 21 38  1  0
M  END
>  <UniqueID>  (40) 
40

>  <SMILES>  (40) 
O=c1cc2c(nn1Cc1ccccc1)CCc1ccccc1-2

>  <Energy>  (40) 
48.2758316872622

>  <Genealogy>  (40) 
O=c1cc2c(nn1Cc1ccccc1)CCc1ccccc1-2 (3D coordinates assigned)
O=c1cc2c(nn1Cc1ccccc1)CCc1ccccc1-2 (nonaromatic ring conformer: 48.2758316872622 kcal/mol)

>  <smiles>  (40) 
O=c1cc2c(nn1Cc1ccccc1)CCc1ccccc1-2

>  <score_type>  (40) 
oracle

>  <origin>  (40) 
adgpu

>  <m_score__min__energy>  (40) 
-8.5399999999999991

>  <m_primary>  (40) 
energy

$$$$
40:0
     RDKit          3D

 50 53  0  0  0  0  0  0  0  0999 V2000
   -5.7710   15.7590  -33.8960 C   0  0  0  0  0  0  0  0  0  0  0  0
   -5.4920   17.2260  -33.7430 C   0  0  0  0  0  0  0  0  0  0  0  0
   -4.1900   17.7290  -33.8730 C   0  0  0  0  0  0  0  0  0  0  0  0
   -3.9450   19.0940  -33.7160 C   0  0  0  0  0  0  0  0  0  0  0  0
   -4.9930   19.9750  -33.4180 C   0  0  0  0  0  0  0  0  0  0  0  0
   -4.7160   21.3690  -33.2530 N   0  0  0  0  0  0  0  0  0  0  0  0
   -4.1190   21.9770  -31.7450 S   0  0  0  0  0  0  0  0  0  0  0  0
   -3.8620   20.8340  -30.8020 O   0  0  0  0  0  0  0  0  0  0  0  0
   -2.8100   22.6740  -31.9910 O   0  0  0  0  0  0  0  0  0  0  0  0
   -5.2670   23.1200  -31.0320 C   0  0  0  0  0  0  0  0  0  0  0  0
   -6.6300   22.7850  -30.9960 C   0  0  0  0  0  0  0  0  0  0  0  0
   -7.5640   23.6760  -30.4620 C   0  0  0  0  0  0  0  0  0  0  0  0
   -7.1450   24.9140  -29.9720 C   0  0  0  0  0  0  0  0  0  0  0  0
   -5.7900   25.2540  -29.9870 C   0  0  0  0  0  0  0  0  0  0  0  0
   -4.8350   24.3520  -30.4920 C   0  0  0  0  0  0  0  0  0  0  0  0
   -3.4340   24.6630  -30.4890 N   0  0  0  0  0  0  0  0  0  0  0  0
   -2.5190   24.5460  -29.3920 C   0  0  0  0  0  0  0  0  0  0  0  0
   -1.9890   25.5660  -28.8790 O   0  0  0  0  0  0  0  0  0  0  0  0
   -2.2920   23.2270  -28.7870 C   0  0  0  0  0  0  0  0  0  0  0  0
   -2.1900   22.9830  -27.4170 C   0  0  0  0  0  0  0  0  0  0  0  0
   -1.8680   21.6480  -27.3190 C   0  0  0  0  0  0  0  0  0  0  0  0
   -1.6140   20.8600  -26.1980 C   0  0  0  0  0  0  0  0  0  0  0  0
   -1.2760   19.5110  -26.4110 C   0  0  0  0  0  0  0  0  0  0  0  0
   -1.1940   18.9900  -27.7230 C   0  0  0  0  0  0  0  0  0  0  0  0
   -1.4550   19.8160  -28.8340 C   0  0  0  0  0  0  0  0  0  0  0  0
   -1.7920   21.1450  -28.5920 C   0  0  0  0  0  0  0  0  0  0  0  0
   -2.0470   22.1020  -29.5020 N   0  0  0  0  0  0  0  0  0  0  0  0
   -6.3020   19.4740  -33.2510 C   0  0  0  0  0  0  0  0  0  0  0  0
   -7.4430   20.4000  -32.9290 C   0  0  0  0  0  0  0  0  0  0  0  0
   -6.5410   18.1000  -33.4240 C   0  0  0  0  0  0  0  0  0  0  0  0
   -5.8589   15.2968  -32.9017 H   0  0  0  0  0  0  0  0  0  0  0  0
   -6.7116   15.6204  -34.4492 H   0  0  0  0  0  0  0  0  0  0  0  0
   -4.9469   15.2848  -34.4492 H   0  0  0  0  0  0  0  0  0  0  0  0
   -3.3585   17.0454  -34.0996 H   0  0  0  0  0  0  0  0  0  0  0  0
   -2.9214   19.4811  -33.8271 H   0  0  0  0  0  0  0  0  0  0  0  0
   -4.5500   21.9470  -34.1080 H   0  0  0  0  0  0  0  0  0  0  0  0
   -6.9646   21.8144  -31.3909 H   0  0  0  0  0  0  0  0  0  0  0  0
   -8.6288   23.4022  -30.4277 H   0  0  0  0  0  0  0  0  0  0  0  0
   -7.8840   25.6242  -29.5727 H   0  0  0  0  0  0  0  0  0  0  0  0
   -5.4676   26.2326  -29.6018 H   0  0  0  0  0  0  0  0  0  0  0  0
   -2.3350   23.7000  -26.5955 H   0  0  0  0  0  0  0  0  0  0  0  0
   -1.6756   21.2780  -25.1824 H   0  0  0  0  0  0  0  0  0  0  0  0
   -1.0740   18.8565  -25.5503 H   0  0  0  0  0  0  0  0  0  0  0  0
   -0.9251   17.9345  -27.8769 H   0  0  0  0  0  0  0  0  0  0  0  0
   -1.3945   19.4235  -29.8598 H   0  0  0  0  0  0  0  0  0  0  0  0
   -2.0290   22.0010  -30.5410 H   0  0  0  0  0  0  0  0  0  0  0  0
   -7.5487   20.4858  -31.8375 H   0  0  0  0  0  0  0  0  0  0  0  0
   -7.2413   21.3930  -33.3570 H   0  0  0  0  0  0  0  0  0  0  0  0
   -8.3733   19.9983  -33.3570 H   0  0  0  0  0  0  0  0  0  0  0  0
   -7.5615   17.7061  -33.3080 H   0  0  0  0  0  0  0  0  0  0  0  0
  1  2  1  0
  2  3  2  0
  3  4  1  0
  4  5  2  0
  5  6  1  0
  6  7  1  0
  7  8  2  0
  7  9  2  0
  7 10  1  0
 10 11  2  0
 11 12  1  0
 12 13  2  0
 13 14  1  0
 14 15  2  0
 15 16  1  0
 16 17  1  0
 17 18  2  0
 17 19  1  0
 19 20  2  0
 20 21  1  0
 21 22  2  0
 22 23  1  0
 23 24  2  0
 24 25  1  0
 25 26  2  0
 26 27  1  0
  5 28  1  0
 28 29  1  0
 28 30  2  0
 30  2  1  0
 15 10  1  0
 27 19  1  0
 26 21  1  0
  1 31  1  0
  1 32  1  0
  1 33  1  0
  3 34  1  0
  4 35  1  0
  6 36  1  0
 11 37  1  0
 12 38  1  0
 13 39  1  0
 14 40  1  0
 20 41  1  0
 22 42  1  0
 23 43  1  0
 24 44  1  0
 25 45  1  0
 27 46  1  0
 29 47  1  0
 29 48  1  0
 29 49  1  0
 30 50  1  0
M  CHG  1  16  -1
M  END
>  <UniqueID>  (41) 
41

>  <SMILES>  (41) 
Cc1ccc(NS(=O)(=O)c2ccccc2[N-]C(=O)c2cc3ccccc3[nH]2)c(C)c1

>  <Energy>  (41) 
91.84072433147115

>  <Genealogy>  (41) 
Cc1ccc(NS(=O)(=O)c2ccccc2[N-]C(=O)c2cc3ccccc3[nH]2)c(C)c1 (protonated)
Cc1ccc(NS(=O)(=O)c2ccccc2[N-]C(=O)c2cc3ccccc3[nH]2)c(C)c1 (3D coordinates assigned)
Cc1ccc(NS(=O)(=O)c2ccccc2[N-]C(=O)c2cc3ccccc3[nH]2)c(C)c1 (optimized conformer: 91.84072433147115 kcal/mol)

>  <smiles>  (41) 
Cc1ccc(NS(=O)(=O)c2ccccc2NC(=O)c2cc3ccccc3[nH]2)c(C)c1

>  <score_type>  (41) 
oracle

>  <origin>  (41) 
adgpu

>  <m_score__min__energy>  (41) 
-11.65

>  <m_primary>  (41) 
energy

$$$$
41:0
     RDKit          3D

 53 56  0  0  0  0  0  0  0  0999 V2000
   -6.2740   14.4030  -34.2050 C   0  0  0  0  0  0  0  0  0  0  0  0
   -7.0360   15.5630  -34.5200 O   0  0  0  0  0  0  0  0  0  0  0  0
   -6.8290   16.8270  -33.9500 C   0  0  0  0  0  0  0  0  0  0  0  0
   -7.3300   17.1760  -32.6840 C   0  0  0  0  0  0  0  0  0  0  0  0
   -7.0960   18.4490  -32.1580 C   0  0  0  0  0  0  0  0  0  0  0  0
   -6.3660   19.4060  -32.8880 C   0  0  0  0  0  0  0  0  0  0  0  0
   -6.1130   20.7610  -32.3190 C   0  0  0  0  0  0  0  0  0  0  0  0
   -4.8940   21.4220  -32.5540 C   0  0  0  0  0  0  0  0  0  0  0  0
   -4.6510   22.6850  -32.0020 C   0  0  0  0  0  0  0  0  0  0  0  0
   -5.6110   23.3000  -31.1940 C   0  0  0  0  0  0  0  0  0  0  0  0
   -5.2840   24.8540  -30.4290 S   0  0  0  0  0  0  0  0  0  0  0  0
   -5.8690   25.9860  -31.2330 O   0  0  0  0  0  0  0  0  0  0  0  0
   -5.9240   24.8740  -29.0680 O   0  0  0  0  0  0  0  0  0  0  0  0
   -3.5710   25.0530  -30.2430 N   0  0  0  0  0  0  0  0  0  0  0  0
   -2.6990   24.1850  -29.5050 C   0  0  0  0  0  0  0  0  0  0  0  0
   -2.9990   22.8250  -29.3000 C   0  0  0  0  0  0  0  0  0  0  0  0
   -2.1230   22.0030  -28.5770 C   0  0  0  0  0  0  0  0  0  0  0  0
   -0.9450   22.5460  -28.0280 C   0  0  0  0  0  0  0  0  0  0  0  0
   -0.6310   23.8930  -28.2600 C   0  0  0  0  0  0  0  0  0  0  0  0
   -1.5050   24.7140  -28.9860 C   0  0  0  0  0  0  0  0  0  0  0  0
   -1.1990   26.0630  -29.1830 O   0  0  0  0  0  0  0  0  0  0  0  0
    0.0380   21.6740  -27.2830 C   0  0  0  0  0  0  0  0  0  0  0  0
   -0.5780   20.4450  -26.7400 N   0  0  0  0  0  0  0  0  0  0  0  0
   -1.3650   20.7110  -25.5200 C   0  0  0  0  0  0  0  0  0  0  0  0
   -1.3560   19.7280  -27.7720 C   0  0  0  0  0  0  0  0  0  0  0  0
   -2.5170   20.5690  -28.3260 C   0  0  0  0  0  0  0  0  0  0  0  0
   -6.8260   22.6500  -30.9550 C   0  0  0  0  0  0  0  0  0  0  0  0
   -7.0810   21.3980  -31.5190 C   0  0  0  0  0  0  0  0  0  0  0  0
   -5.8720   19.0520  -34.1570 C   0  0  0  0  0  0  0  0  0  0  0  0
   -6.0970   17.7730  -34.6740 C   0  0  0  0  0  0  0  0  0  0  0  0
   -6.2037   14.2960  -33.1125 H   0  0  0  0  0  0  0  0  0  0  0  0
   -6.7653   13.5151  -34.6295 H   0  0  0  0  0  0  0  0  0  0  0  0
   -5.2640   14.5013  -34.6295 H   0  0  0  0  0  0  0  0  0  0  0  0
   -7.9096   16.4427  -32.1041 H   0  0  0  0  0  0  0  0  0  0  0  0
   -7.4865   18.7063  -31.1624 H   0  0  0  0  0  0  0  0  0  0  0  0
   -4.1249   20.9422  -33.1771 H   0  0  0  0  0  0  0  0  0  0  0  0
   -3.6987   23.1965  -32.2054 H   0  0  0  0  0  0  0  0  0  0  0  0
   -3.9285   22.4036  -29.7105 H   0  0  0  0  0  0  0  0  0  0  0  0
    0.3093   24.3089  -27.8689 H   0  0  0  0  0  0  0  0  0  0  0  0
   -1.2400   26.4900  -30.1020 H   0  0  0  0  0  0  0  0  0  0  0  0
    0.8449   21.3865  -27.9731 H   0  0  0  0  0  0  0  0  0  0  0  0
    0.4160   22.2575  -26.4306 H   0  0  0  0  0  0  0  0  0  0  0  0
   -0.7484   20.5026  -24.6332 H   0  0  0  0  0  0  0  0  0  0  0  0
   -1.6790   21.7652  -25.5088 H   0  0  0  0  0  0  0  0  0  0  0  0
   -2.2541   20.0635  -25.5088 H   0  0  0  0  0  0  0  0  0  0  0  0
   -0.6832   19.4659  -28.6019 H   0  0  0  0  0  0  0  0  0  0  0  0
   -1.7877   18.8321  -27.3019 H   0  0  0  0  0  0  0  0  0  0  0  0
   -2.8535   20.1245  -29.2742 H   0  0  0  0  0  0  0  0  0  0  0  0
   -3.3185   20.5696  -27.5727 H   0  0  0  0  0  0  0  0  0  0  0  0
   -7.5856   23.1278  -30.3188 H   0  0  0  0  0  0  0  0  0  0  0  0
   -8.0472   20.9049  -31.3365 H   0  0  0  0  0  0  0  0  0  0  0  0
   -5.3046   19.7872  -34.7465 H   0  0  0  0  0  0  0  0  0  0  0  0
   -5.6934   17.5076  -35.6622 H   0  0  0  0  0  0  0  0  0  0  0  0
  1  2  1  0
  2  3  1  0
  3  4  2  0
  4  5  1  0
  5  6  2  0
  6  7  1  0
  7  8  2  0
  8  9  1  0
  9 10  2  0
 10 11  1  0
 11 12  2  0
 11 13  2  0
 11 14  1  0
 14 15  1  0
 15 16  2  0
 16 17  1  0
 17 18  2  0
 18 19  1  0
 19 20  2  0
 20 21  1  0
 18 22  1  0
 22 23  1  0
 23 24  1  0
 23 25  1  0
 25 26  1  0
 10 27  1  0
 27 28  2  0
  6 29  1  0
 29 30  2  0
 30  3  1  0
 28  7  1  0
 20 15  1  0
 26 17  1  0
  1 31  1  0
  1 32  1  0
  1 33  1  0
  4 34  1  0
  5 35  1  0
  8 36  1  0
  9 37  1  0
 16 38  1  0
 19 39  1  0
 21 40  1  0
 22 41  1  0
 22 42  1  0
 24 43  1  0
 24 44  1  0
 24 45  1  0
 25 46  1  0
 25 47  1  0
 26 48  1  0
 26 49  1  0
 27 50  1  0
 28 51  1  0
 29 52  1  0
 30 53  1  0
M  CHG  1  14  -1
M  END
>  <UniqueID>  (42) 
42

>  <SMILES>  (42) 
COc1ccc(-c2ccc(S(=O)(=O)[N-]c3cc4c(cc3O)CN(C)CC4)cc2)cc1

>  <Energy>  (42) 
70.87502820753443

>  <Genealogy>  (42) 
COc1ccc(-c2ccc(S(=O)(=O)[N-]c3cc4c(cc3O)CN(C)CC4)cc2)cc1 (protonated)
COc1ccc(-c2ccc(S(=O)(=O)[N-]c3cc4c(cc3O)CN(C)CC4)cc2)cc1 (3D coordinates assigned)
COc1ccc(-c2ccc(S(=O)(=O)[N-]c3cc4c(cc3O)CN(C)CC4)cc2)cc1 (nonaromatic ring conformer: 70.87502820753443 kcal/mol)

>  <smiles>  (42) 
COc1ccc(-c2ccc(S(=O)(=O)Nc3cc4c(cc3O)CN(C)CC4)cc2)cc1

>  <score_type>  (42) 
oracle

>  <origin>  (42) 
adgpu

>  <m_score__min__energy>  (42) 
-12.449999999999999

>  <m_primary>  (42) 
energy

$$$$
42:0
     RDKit          3D

 64 68  0  0  0  0  0  0  0  0999 V2000
    3.6680   24.4040  -26.4010 N   0  0  0  0  0  0  0  0  0  0  0  0
    3.1180   25.5310  -25.2080 S   0  0  0  0  0  0  0  0  0  0  0  0
    3.7330   26.8750  -25.4880 O   0  0  0  0  0  0  0  0  0  0  0  0
    3.5480   25.0740  -23.8420 O   0  0  0  0  0  0  0  0  0  0  0  0
    1.3600   25.6400  -25.2650 C   0  0  0  0  0  0  0  0  0  0  0  0
    0.5600   24.7330  -24.5560 C   0  0  0  0  0  0  0  0  0  0  0  0
   -0.8320   24.8260  -24.6170 C   0  0  0  0  0  0  0  0  0  0  0  0
   -1.4440   25.8160  -25.3970 C   0  0  0  0  0  0  0  0  0  0  0  0
   -2.8760   25.8630  -25.4510 N   0  0  0  0  0  0  0  0  0  0  0  0
   -3.7110   25.1190  -26.3480 C   0  0  0  0  0  0  0  0  0  0  0  0
   -4.9270   24.9280  -26.0770 O   0  0  0  0  0  0  0  0  0  0  0  0
   -3.1680   24.6790  -27.6000 N   0  0  0  0  0  0  0  0  0  0  0  0
   -3.9660   24.0920  -28.6360 C   0  0  0  0  0  0  0  0  0  0  0  0
   -4.8140   24.9070  -29.3970 C   0  0  0  0  0  0  0  0  0  0  0  0
   -5.6630   24.3470  -30.3560 C   0  0  0  0  0  0  0  0  0  0  0  0
   -5.6600   22.9610  -30.5820 C   0  0  0  0  0  0  0  0  0  0  0  0
   -6.6420   22.3370  -31.5370 C   0  0  0  0  0  0  0  0  0  0  0  0
   -6.0520   21.1450  -32.1520 N   0  0  0  0  0  0  0  0  0  0  0  0
   -4.8230   21.0070  -32.7140 C   0  0  0  0  0  0  0  0  0  0  0  0
   -3.5730   22.2980  -32.7250 S   0  0  0  0  0  0  0  0  0  0  0  0
   -2.1610   21.1380  -32.7830 C   0  0  0  0  0  0  0  0  0  0  0  0
   -1.4640   21.1080  -31.4560 C   0  0  0  0  0  0  0  0  0  0  0  0
   -0.9380   19.9060  -30.9550 C   0  0  0  0  0  0  0  0  0  0  0  0
   -0.2230   19.8980  -29.7540 C   0  0  0  0  0  0  0  0  0  0  0  0
   -0.0350   21.0840  -29.0400 C   0  0  0  0  0  0  0  0  0  0  0  0
   -0.5600   22.2890  -29.5290 C   0  0  0  0  0  0  0  0  0  0  0  0
   -0.3210   23.7950  -28.6530 S   0  0  0  0  0  0  0  0  0  0  0  0
    1.3620   24.1700  -28.6060 N   0  0  0  0  0  0  0  0  0  0  0  0
   -0.8320   23.6700  -27.2470 O   0  0  0  0  0  0  0  0  0  0  0  0
   -1.0680   24.8970  -29.3490 O   0  0  0  0  0  0  0  0  0  0  0  0
   -1.2690   22.2970  -30.7370 C   0  0  0  0  0  0  0  0  0  0  0  0
   -4.6140   19.7890  -33.2850 N   0  0  0  0  0  0  0  0  0  0  0  0
   -5.7710   19.1500  -33.0510 C   0  0  0  0  0  0  0  0  0  0  0  0
   -6.1310   17.8580  -33.4080 C   0  0  0  0  0  0  0  0  0  0  0  0
   -7.4200   17.4280  -33.0540 C   0  0  0  0  0  0  0  0  0  0  0  0
   -8.2880   18.3060  -32.3650 C   0  0  0  0  0  0  0  0  0  0  0  0
   -7.8810   19.5690  -32.0330 N   0  0  0  0  0  0  0  0  0  0  0  0
   -6.6320   19.9590  -32.3810 C   0  0  0  0  0  0  0  0  0  0  0  0
   -4.7700   22.1500  -29.8600 C   0  0  0  0  0  0  0  0  0  0  0  0
   -3.9210   22.7120  -28.8980 C   0  0  0  0  0  0  0  0  0  0  0  0
   -0.6420   26.7510  -26.0770 C   0  0  0  0  0  0  0  0  0  0  0  0
    0.7520   26.6540  -26.0170 C   0  0  0  0  0  0  0  0  0  0  0  0
    3.0210   24.4860  -27.2200 H   0  0  0  0  0  0  0  0  0  0  0  0
    1.0305   23.9452  -23.9494 H   0  0  0  0  0  0  0  0  0  0  0  0
   -1.4522   24.1172  -24.0488 H   0  0  0  0  0  0  0  0  0  0  0  0
   -2.2050   25.0000  -27.8450 H   0  0  0  0  0  0  0  0  0  0  0  0
   -4.8118   25.9956  -29.2388 H   0  0  0  0  0  0  0  0  0  0  0  0
   -6.3365   24.9949  -30.9362 H   0  0  0  0  0  0  0  0  0  0  0  0
   -7.5524   22.0520  -30.9893 H   0  0  0  0  0  0  0  0  0  0  0  0
   -6.8931   23.0635  -32.3239 H   0  0  0  0  0  0  0  0  0  0  0  0
   -2.5283   20.1295  -33.0239 H   0  0  0  0  0  0  0  0  0  0  0  0
   -1.4519   21.4723  -33.5546 H   0  0  0  0  0  0  0  0  0  0  0  0
   -1.0892   18.9680  -31.5094 H   0  0  0  0  0  0  0  0  0  0  0  0
    0.1930   18.9549  -29.3698 H   0  0  0  0  0  0  0  0  0  0  0  0
    0.5253   21.0727  -28.0935 H   0  0  0  0  0  0  0  0  0  0  0  0
    1.6720   24.0570  -27.6160 H   0  0  0  0  0  0  0  0  0  0  0  0
   -1.6759   23.2425  -31.1249 H   0  0  0  0  0  0  0  0  0  0  0  0
   -5.4350   17.1978  -33.9463 H   0  0  0  0  0  0  0  0  0  0  0  0
   -7.7532   16.4119  -33.3118 H   0  0  0  0  0  0  0  0  0  0  0  0
   -9.2998   17.9704  -32.0935 H   0  0  0  0  0  0  0  0  0  0  0  0
   -4.7392   21.0671  -30.0508 H   0  0  0  0  0  0  0  0  0  0  0  0
   -3.2172   22.0715  -28.3462 H   0  0  0  0  0  0  0  0  0  0  0  0
   -1.1120   27.5593  -26.6565 H   0  0  0  0  0  0  0  0  0  0  0  0
    1.3746   27.3779  -26.5633 H   0  0  0  0  0  0  0  0  0  0  0  0
  1  2  1  0
  2  3  2  0
  2  4  2  0
  2  5  1  0
  5  6  2  0
  6  7  1  0
  7  8  2  0
  8  9  1  0
  9 10  1  0
 10 11  2  0
 10 12  1  0
 12 13  1  0
 13 14  2  0
 14 15  1  0
 15 16  2  0
 16 17  1  0
 17 18  1  0
 18 19  1  0
 19 20  1  0
 20 21  1  0
 21 22  1  0
 22 23  2  0
 23 24  1  0
 24 25  2  0
 25 26  1  0
 26 27  1  0
 27 28  1  0
 27 29  2  0
 27 30  2  0
 26 31  2  0
 19 32  2  0
 32 33  1  0
 33 34  2  0
 34 35  1  0
 35 36  2  0
 36 37  1  0
 37 38  2  0
 16 39  1  0
 39 40  2  0
  8 41  1  0
 41 42  2  0
 42  5  1  0
 40 13  1  0
 38 18  1  0
 31 22  1  0
 38 33  1  0
  1 43  1  0
  6 44  1  0
  7 45  1  0
 12 46  1  0
 14 47  1  0
 15 48  1  0
 17 49  1  0
 17 50  1  0
 21 51  1  0
 21 52  1  0
 23 53  1  0
 24 54  1  0
 25 55  1  0
 28 56  1  0
 31 57  1  0
 34 58  1  0
 35 59  1  0
 36 60  1  0
 39 61  1  0
 40 62  1  0
 41 63  1  0
 42 64  1  0
M  CHG  3   1  -1   9  -1  28  -1
M  END
>  <UniqueID>  (43) 
43

>  <SMILES>  (43) 
[NH-]S(=O)(=O)c1ccc([N-]C(=O)Nc2ccc(Cn3c(SCc4cccc(S([NH-])(=O)=O)c4)nc4cccnc43)cc2)cc1

>  <Energy>  (43) 
111.13123855226823

>  <Genealogy>  (43) 
[NH-]S(=O)(=O)c1ccc([N-]C(=O)Nc2ccc(Cn3c(SCc4cccc(S([NH-])(=O)=O)c4)nc4cccnc43)cc2)cc1 (protonated)
[NH-]S(=O)(=O)c1ccc([N-]C(=O)Nc2ccc(Cn3c(SCc4cccc(S([NH-])(=O)=O)c4)nc4cccnc43)cc2)cc1 (3D coordinates assigned)
[NH-]S(=O)(=O)c1ccc([N-]C(=O)Nc2ccc(Cn3c(SCc4cccc(S([NH-])(=O)=O)c4)nc4cccnc43)cc2)cc1 (optimized conformer: 111.13123855226823 kcal/mol)

>  <smiles>  (43) 
NS(=O)(=O)c1ccc(NC(=O)Nc2ccc(Cn3c(SCc4cccc(S(N)(=O)=O)c4)nc4cccnc43)cc2)cc1

>  <score_type>  (43) 
oracle

>  <origin>  (43) 
adgpu

>  <m_score__min__energy>  (43) 
-13.69

>  <m_primary>  (43) 
energy

$$$$
43:0
     RDKit          3D

 62 65  0  0  0  0  0  0  0  0999 V2000
   -2.3390   24.8390  -28.7550 C   0  0  0  0  0  0  0  0  0  0  0  0
   -3.3040   25.2250  -29.7290 O   0  0  0  0  0  0  0  0  0  0  0  0
   -4.4570   24.4880  -30.0440 C   0  0  0  0  0  0  0  0  0  0  0  0
   -5.7280   24.8550  -29.5600 C   0  0  0  0  0  0  0  0  0  0  0  0
   -6.8560   24.1040  -29.8900 C   0  0  0  0  0  0  0  0  0  0  0  0
   -6.7370   22.9710  -30.7010 C   0  0  0  0  0  0  0  0  0  0  0  0
   -8.1640   22.0110  -31.1000 S   0  0  0  0  0  0  0  0  0  0  0  0
   -8.9360   22.6990  -32.1910 O   0  0  0  0  0  0  0  0  0  0  0  0
   -9.0500   21.9210  -29.8880 O   0  0  0  0  0  0  0  0  0  0  0  0
   -7.7380   20.3990  -31.6200 N   0  0  0  0  0  0  0  0  0  0  0  0
   -8.9200   19.5190  -31.5980 C   0  0  0  0  0  0  0  0  0  0  0  0
   -8.6170   18.1800  -32.3020 C   0  0  0  0  0  0  0  0  0  0  0  0
   -7.2260   18.0120  -32.4950 O   0  0  0  0  0  0  0  0  0  0  0  0
   -6.7380   19.0010  -33.3870 C   0  0  0  0  0  0  0  0  0  0  0  0
   -7.1520   20.4280  -32.9680 C   0  0  0  0  0  0  0  0  0  0  0  0
   -5.4780   22.6000  -31.1880 C   0  0  0  0  0  0  0  0  0  0  0  0
   -4.3350   23.3580  -30.8760 C   0  0  0  0  0  0  0  0  0  0  0  0
   -3.0380   22.9590  -31.3570 N   0  0  0  0  0  0  0  0  0  0  0  0
   -2.8400   21.9380  -32.3480 C   0  0  0  0  0  0  0  0  0  0  0  0
   -3.7810   21.6400  -33.1350 O   0  0  0  0  0  0  0  0  0  0  0  0
   -1.5290   21.2600  -32.4890 C   0  0  0  0  0  0  0  0  0  0  0  0
   -0.9030   20.6890  -31.3670 C   0  0  0  0  0  0  0  0  0  0  0  0
    0.3360   20.0550  -31.4930 C   0  0  0  0  0  0  0  0  0  0  0  0
    0.9680   19.9910  -32.7350 C   0  0  0  0  0  0  0  0  0  0  0  0
    0.3660   20.5670  -33.8610 C   0  0  0  0  0  0  0  0  0  0  0  0
    1.1770   20.5080  -35.4290 S   0  0  0  0  0  0  0  0  0  0  0  0
    2.4810   19.7730  -35.2840 O   0  0  0  0  0  0  0  0  0  0  0  0
    0.3180   19.7430  -36.3990 O   0  0  0  0  0  0  0  0  0  0  0  0
    1.4800   22.1060  -36.0660 N   0  0  0  0  0  0  0  0  0  0  0  0
    0.3540   23.0020  -35.7680 C   0  0  0  0  0  0  0  0  0  0  0  0
    0.6470   24.4200  -36.3040 C   0  0  0  0  0  0  0  0  0  0  0  0
    1.9310   24.5070  -36.8950 O   0  0  0  0  0  0  0  0  0  0  0  0
    2.9190   24.1190  -35.9580 C   0  0  0  0  0  0  0  0  0  0  0  0
    2.7250   22.6560  -35.5060 C   0  0  0  0  0  0  0  0  0  0  0  0
   -0.8790   21.1990  -33.7360 C   0  0  0  0  0  0  0  0  0  0  0  0
   -2.7490   25.0030  -27.7475 H   0  0  0  0  0  0  0  0  0  0  0  0
   -2.0949   23.7740  -28.8826 H   0  0  0  0  0  0  0  0  0  0  0  0
   -1.4278   25.4419  -28.8826 H   0  0  0  0  0  0  0  0  0  0  0  0
   -5.8317   25.7411  -28.9165 H   0  0  0  0  0  0  0  0  0  0  0  0
   -7.8438   24.4043  -29.5106 H   0  0  0  0  0  0  0  0  0  0  0  0
   -9.2037   19.3217  -30.5537 H   0  0  0  0  0  0  0  0  0  0  0  0
   -9.7430   20.0193  -32.1294 H   0  0  0  0  0  0  0  0  0  0  0  0
   -8.9965   17.3540  -31.6826 H   0  0  0  0  0  0  0  0  0  0  0  0
   -9.1095   18.1820  -33.2856 H   0  0  0  0  0  0  0  0  0  0  0  0
   -5.6397   18.9445  -33.4104 H   0  0  0  0  0  0  0  0  0  0  0  0
   -7.1733   18.8030  -34.3776 H   0  0  0  0  0  0  0  0  0  0  0  0
   -6.2663   21.0803  -32.9676 H   0  0  0  0  0  0  0  0  0  0  0  0
   -7.8958   20.8150  -33.6800 H   0  0  0  0  0  0  0  0  0  0  0  0
   -5.3816   21.7060  -31.8216 H   0  0  0  0  0  0  0  0  0  0  0  0
   -2.2050   23.5060  -31.0440 H   0  0  0  0  0  0  0  0  0  0  0  0
   -1.3919   20.7417  -30.3831 H   0  0  0  0  0  0  0  0  0  0  0  0
    0.8142   19.6052  -30.6104 H   0  0  0  0  0  0  0  0  0  0  0  0
    1.9412   19.4871  -32.8303 H   0  0  0  0  0  0  0  0  0  0  0  0
   -0.5568   22.6132  -36.2469 H   0  0  0  0  0  0  0  0  0  0  0  0
    0.2124   23.0515  -34.6783 H   0  0  0  0  0  0  0  0  0  0  0  0
   -0.1101   24.6781  -37.0591 H   0  0  0  0  0  0  0  0  0  0  0  0
    0.6149   25.1185  -35.4548 H   0  0  0  0  0  0  0  0  0  0  0  0
    3.9113   24.2215  -36.4215 H   0  0  0  0  0  0  0  0  0  0  0  0
    2.8311   24.7682  -35.0744 H   0  0  0  0  0  0  0  0  0  0  0  0
    3.5765   22.0531  -35.8547 H   0  0  0  0  0  0  0  0  0  0  0  0
    2.6653   22.6271  -34.4080 H   0  0  0  0  0  0  0  0  0  0  0  0
   -1.3521   21.6512  -34.6201 H   0  0  0  0  0  0  0  0  0  0  0  0
  1  2  1  0
  2  3  1  0
  3  4  2  0
  4  5  1  0
  5  6  2  0
  6  7  1  0
  7  8  2  0
  7  9  2  0
  7 10  1  0
 10 11  1  0
 11 12  1  0
 12 13  1  0
 13 14  1  0
 14 15  1  0
  6 16  1  0
 16 17  2  0
 17 18  1  0
 18 19  1  0
 19 20  2  0
 19 21  1  0
 21 22  2  0
 22 23  1  0
 23 24  2  0
 24 25  1  0
 25 26  1  0
 26 27  2  0
 26 28  2  0
 26 29  1  0
 29 30  1  0
 30 31  1  0
 31 32  1  0
 32 33  1  0
 33 34  1  0
 25 35  2  0
 17  3  1  0
 35 21  1  0
 15 10  1  0
 34 29  1  0
  1 36  1  0
  1 37  1  0
  1 38  1  0
  4 39  1  0
  5 40  1  0
 11 41  1  0
 11 42  1  0
 12 43  1  0
 12 44  1  0
 14 45  1  0
 14 46  1  0
 15 47  1  0
 15 48  1  0
 16 49  1  0
 18 50  1  0
 22 51  1  0
 23 52  1  0
 24 53  1  0
 30 54  1  0
 30 55  1  0
 31 56  1  0
 31 57  1  0
 33 58  1  0
 33 59  1  0
 34 60  1  0
 34 61  1  0
 35 62  1  0
M  END
>  <UniqueID>  (44) 
44

>  <SMILES>  (44) 
COc1ccc(S(=O)(=O)N2CCOCC2)cc1NC(=O)c1cccc(S(=O)(=O)N2CCOCC2)c1

>  <Energy>  (44) 
83.13811538175892

>  <Genealogy>  (44) 
COc1ccc(S(=O)(=O)N2CCOCC2)cc1NC(=O)c1cccc(S(=O)(=O)N2CCOCC2)c1 (3D coordinates assigned)
COc1ccc(S(=O)(=O)N2CCOCC2)cc1NC(=O)c1cccc(S(=O)(=O)N2CCOCC2)c1 (nonaromatic ring conformer: 83.13811538175892 kcal/mol)

>  <smiles>  (44) 
COc1ccc(S(=O)(=O)N2CCOCC2)cc1NC(=O)c1cccc(S(=O)(=O)N2CCOCC2)c1

>  <score_type>  (44) 
oracle

>  <origin>  (44) 
adgpu

>  <m_score__min__energy>  (44) 
-11.449999999999999

>  <m_primary>  (44) 
energy

$$$$
44:0
     RDKit          3D

 39 41  0  0  0  0  0  0  0  0999 V2000
   -4.2440   23.5760  -28.3490 C   0  0  0  0  0  0  0  0  0  0  0  0
   -5.1470   23.7480  -29.5360 C   0  0  0  0  0  0  0  0  0  0  0  0
   -6.2030   22.8480  -29.7570 C   0  0  0  0  0  0  0  0  0  0  0  0
   -7.0270   22.9820  -30.8820 C   0  0  0  0  0  0  0  0  0  0  0  0
   -8.3320   21.8330  -31.1610 S   0  0  0  0  0  0  0  0  0  0  0  0
   -9.1500   21.7130  -29.9070 O   0  0  0  0  0  0  0  0  0  0  0  0
   -9.2170   22.2990  -32.2840 O   0  0  0  0  0  0  0  0  0  0  0  0
   -7.6810   20.2770  -31.5640 N   0  0  0  0  0  0  0  0  0  0  0  0
   -6.4280   20.0460  -32.2260 C   0  0  0  0  0  0  0  0  0  0  0  0
   -5.3020   20.8510  -31.9720 C   0  0  0  0  0  0  0  0  0  0  0  0
   -4.0790   20.5920  -32.6060 C   0  0  0  0  0  0  0  0  0  0  0  0
   -3.9860   19.5450  -33.5420 C   0  0  0  0  0  0  0  0  0  0  0  0
   -5.1050   18.7400  -33.7910 C   0  0  0  0  0  0  0  0  0  0  0  0
   -6.3210   18.9860  -33.1460 C   0  0  0  0  0  0  0  0  0  0  0  0
   -7.4090   18.1600  -33.4290 O   0  0  0  0  0  0  0  0  0  0  0  0
   -2.6670   19.2120  -34.2020 C   0  0  0  0  0  0  0  0  0  0  0  0
   -1.7330   20.3460  -34.1880 N   0  0  0  0  0  0  0  0  0  0  0  0
   -1.5880   20.8840  -32.8310 C   0  0  0  0  0  0  0  0  0  0  0  0
   -2.9050   21.4990  -32.3420 C   0  0  0  0  0  0  0  0  0  0  0  0
   -6.7980   24.0240  -31.7900 C   0  0  0  0  0  0  0  0  0  0  0  0
   -5.7450   24.9170  -31.5810 C   0  0  0  0  0  0  0  0  0  0  0  0
   -4.9140   24.7790  -30.4640 C   0  0  0  0  0  0  0  0  0  0  0  0
   -3.8610   25.6690  -30.2840 O   0  0  0  0  0  0  0  0  0  0  0  0
   -4.8289   23.6874  -27.4241 H   0  0  0  0  0  0  0  0  0  0  0  0
   -3.7888   22.5750  -28.3766 H   0  0  0  0  0  0  0  0  0  0  0  0
   -3.4527   24.3396  -28.3766 H   0  0  0  0  0  0  0  0  0  0  0  0
   -6.3841   22.0323  -29.0416 H   0  0  0  0  0  0  0  0  0  0  0  0
   -5.3825   21.6926  -31.2683 H   0  0  0  0  0  0  0  0  0  0  0  0
   -5.0262   17.9046  -34.5022 H   0  0  0  0  0  0  0  0  0  0  0  0
   -8.3610   18.5050  -33.4570 H   0  0  0  0  0  0  0  0  0  0  0  0
   -2.2069   18.3684  -33.6666 H   0  0  0  0  0  0  0  0  0  0  0  0
   -2.8717   18.9583  -35.2526 H   0  0  0  0  0  0  0  0  0  0  0  0
   -2.1030   21.0980  -34.8180 H   0  0  0  0  0  0  0  0  0  0  0  0
   -1.2959   20.0706  -32.1505 H   0  0  0  0  0  0  0  0  0  0  0  0
   -0.8176   21.6690  -32.8449 H   0  0  0  0  0  0  0  0  0  0  0  0
   -2.8324   21.6813  -31.2596 H   0  0  0  0  0  0  0  0  0  0  0  0
   -3.0683   22.4379  -32.8914 H   0  0  0  0  0  0  0  0  0  0  0  0
   -7.4489   24.1389  -32.6693 H   0  0  0  0  0  0  0  0  0  0  0  0
   -5.5681   25.7325  -32.2977 H   0  0  0  0  0  0  0  0  0  0  0  0
  1  2  1  0
  2  3  2  0
  3  4  1  0
  4  5  1  0
  5  6  2  0
  5  7  2  0
  5  8  1  0
  8  9  1  0
  9 10  2  0
 10 11  1  0
 11 12  2  0
 12 13  1  0
 13 14  2  0
 14 15  1  0
 12 16  1  0
 16 17  1  0
 17 18  1  0
 18 19  1  0
  4 20  2  0
 20 21  1  0
 21 22  2  0
 22 23  1  0
 22  2  1  0
 14  9  1  0
 19 11  1  0
  1 24  1  0
  1 25  1  0
  1 26  1  0
  3 27  1  0
 10 28  1  0
 13 29  1  0
 15 30  1  0
 16 31  1  0
 16 32  1  0
 17 33  1  0
 18 34  1  0
 18 35  1  0
 19 36  1  0
 19 37  1  0
 20 38  1  0
 21 39  1  0
M  CHG  2   8  -1  23  -1
M  END
>  <UniqueID>  (45) 
45

>  <SMILES>  (45) 
Cc1cc(S(=O)(=O)[N-]c2cc3c(cc2O)CNCC3)ccc1[O-]

>  <Energy>  (45) 
45.40458085397137

>  <Genealogy>  (45) 
Cc1cc(S(=O)(=O)[N-]c2cc3c(cc2O)CNCC3)ccc1[O-] (protonated)
Cc1cc(S(=O)(=O)[N-]c2cc3c(cc2O)CNCC3)ccc1[O-] (3D coordinates assigned)
Cc1cc(S(=O)(=O)[N-]c2cc3c(cc2O)CNCC3)ccc1[O-] (nonaromatic ring conformer: 45.40458085397137 kcal/mol)

>  <smiles>  (45) 
Cc1cc(S(=O)(=O)Nc2cc3c(cc2O)CNCC3)ccc1O

>  <score_type>  (45) 
oracle

>  <origin>  (45) 
adgpu

>  <m_score__min__energy>  (45) 
-10.81

>  <m_primary>  (45) 
energy

$$$$
45:0
     RDKit          3D

 55 58  0  0  0  0  0  0  0  0999 V2000
   -0.8160   27.3570  -24.5340 C   0  0  0  0  0  0  0  0  0  0  0  0
   -1.2130   26.5000  -25.6990 C   0  0  0  0  0  0  0  0  0  0  0  0
   -0.4870   26.5600  -26.8990 C   0  0  0  0  0  0  0  0  0  0  0  0
   -0.8770   25.7890  -27.9980 C   0  0  0  0  0  0  0  0  0  0  0  0
   -2.0000   24.9550  -27.9120 C   0  0  0  0  0  0  0  0  0  0  0  0
   -2.4920   23.9990  -29.3080 S   0  0  0  0  0  0  0  0  0  0  0  0
   -1.2660   23.5830  -30.0730 O   0  0  0  0  0  0  0  0  0  0  0  0
   -3.2130   22.7590  -28.8570 O   0  0  0  0  0  0  0  0  0  0  0  0
   -3.5220   24.9330  -30.3480 N   0  0  0  0  0  0  0  0  0  0  0  0
   -4.8350   25.0960  -29.7290 C   0  0  0  0  0  0  0  0  0  0  0  0
   -5.8990   25.2280  -30.8110 C   0  0  0  0  0  0  0  0  0  0  0  0
   -5.5060   24.4910  -31.9660 O   0  0  0  0  0  0  0  0  0  0  0  0
   -5.4750   23.0910  -32.0440 C   0  0  0  0  0  0  0  0  0  0  0  0
   -4.2430   22.4480  -31.8980 C   0  0  0  0  0  0  0  0  0  0  0  0
   -4.1560   21.0570  -31.9720 C   0  0  0  0  0  0  0  0  0  0  0  0
   -5.3020   20.2840  -32.2080 C   0  0  0  0  0  0  0  0  0  0  0  0
   -6.5560   20.9180  -32.3370 C   0  0  0  0  0  0  0  0  0  0  0  0
   -6.6330   22.3210  -32.2620 C   0  0  0  0  0  0  0  0  0  0  0  0
   -7.7710   20.1040  -32.5750 C   0  0  0  0  0  0  0  0  0  0  0  0
   -8.8950   20.6580  -32.7130 O   0  0  0  0  0  0  0  0  0  0  0  0
   -7.6870   18.6050  -32.5980 C   0  0  0  0  0  0  0  0  0  0  0  0
   -6.3070   18.1180  -33.1000 C   0  0  0  0  0  0  0  0  0  0  0  0
   -6.1020   18.4030  -34.5990 C   0  0  0  0  0  0  0  0  0  0  0  0
   -5.1830   17.3040  -35.1220 C   0  0  0  0  0  0  0  0  0  0  0  0
   -5.2210   16.1690  -34.1000 C   0  0  0  0  0  0  0  0  0  0  0  0
   -6.2060   16.5880  -33.0160 C   0  0  0  0  0  0  0  0  0  0  0  0
   -5.1870   18.7770  -32.2450 C   0  0  0  0  0  0  0  0  0  0  0  0
   -2.7400   24.9110  -26.7230 C   0  0  0  0  0  0  0  0  0  0  0  0
   -2.3520   25.6830  -25.6230 C   0  0  0  0  0  0  0  0  0  0  0  0
   -1.0576   26.8355  -23.5961 H   0  0  0  0  0  0  0  0  0  0  0  0
    0.2653   27.5545  -24.5757 H   0  0  0  0  0  0  0  0  0  0  0  0
   -1.3646   28.3095  -24.5757 H   0  0  0  0  0  0  0  0  0  0  0  0
    0.3924   27.2164  -26.9749 H   0  0  0  0  0  0  0  0  0  0  0  0
   -0.3004   25.8371  -28.9335 H   0  0  0  0  0  0  0  0  0  0  0  0
   -5.0561   24.2184  -29.1037 H   0  0  0  0  0  0  0  0  0  0  0  0
   -4.8343   26.0024  -29.1058 H   0  0  0  0  0  0  0  0  0  0  0  0
   -6.8543   24.8341  -30.4339 H   0  0  0  0  0  0  0  0  0  0  0  0
   -6.0156   26.2885  -31.0788 H   0  0  0  0  0  0  0  0  0  0  0  0
   -3.3344   23.0429  -31.7233 H   0  0  0  0  0  0  0  0  0  0  0  0
   -3.1813   20.5634  -31.8443 H   0  0  0  0  0  0  0  0  0  0  0  0
   -7.6066   22.8204  -32.3747 H   0  0  0  0  0  0  0  0  0  0  0  0
   -7.8513   18.2229  -31.5797 H   0  0  0  0  0  0  0  0  0  0  0  0
   -8.4560   18.2285  -33.2885 H   0  0  0  0  0  0  0  0  0  0  0  0
   -7.0665   18.3763  -35.1271 H   0  0  0  0  0  0  0  0  0  0  0  0
   -5.6654   19.3997  -34.7604 H   0  0  0  0  0  0  0  0  0  0  0  0
   -5.5401   16.9455  -36.0987 H   0  0  0  0  0  0  0  0  0  0  0  0
   -4.1576   17.6790  -35.2555 H   0  0  0  0  0  0  0  0  0  0  0  0
   -5.5585   15.2383  -34.5795 H   0  0  0  0  0  0  0  0  0  0  0  0
   -4.2225   15.9842  -33.6770 H   0  0  0  0  0  0  0  0  0  0  0  0
   -7.1897   16.1301  -33.1965 H   0  0  0  0  0  0  0  0  0  0  0  0
   -5.8705   16.2616  -32.0205 H   0  0  0  0  0  0  0  0  0  0  0  0
   -5.2548   18.3921  -31.2168 H   0  0  0  0  0  0  0  0  0  0  0  0
   -4.2207   18.5255  -32.7065 H   0  0  0  0  0  0  0  0  0  0  0  0
   -3.6292   24.2671  -26.6544 H   0  0  0  0  0  0  0  0  0  0  0  0
   -2.9416   25.6498  -24.6949 H   0  0  0  0  0  0  0  0  0  0  0  0
  1  2  1  0
  2  3  2  0
  3  4  1  0
  4  5  2  0
  5  6  1  0
  6  7  2  0
  6  8  2  0
  6  9  1  0
  9 10  1  0
 10 11  1  0
 11 12  1  0
 12 13  1  0
 13 14  2  0
 14 15  1  0
 15 16  2  0
 16 17  1  0
 17 18  2  0
 17 19  1  0
 19 20  2  0
 19 21  1  0
 21 22  1  0
 22 23  1  0
 23 24  1  0
 24 25  1  0
 25 26  1  0
 22 27  1  0
  5 28  1  0
 28 29  2  0
 29  2  1  0
 18 13  1  0
 26 22  1  0
 27 16  1  0
  1 30  1  0
  1 31  1  0
  1 32  1  0
  3 33  1  0
  4 34  1  0
 10 35  1  0
 10 36  1  0
 11 37  1  0
 11 38  1  0
 14 39  1  0
 15 40  1  0
 18 41  1  0
 21 42  1  0
 21 43  1  0
 23 44  1  0
 23 45  1  0
 24 46  1  0
 24 47  1  0
 25 48  1  0
 25 49  1  0
 26 50  1  0
 26 51  1  0
 27 52  1  0
 27 53  1  0
 28 54  1  0
 29 55  1  0
M  CHG  1   9  -1
M  END
>  <UniqueID>  (46) 
46

>  <SMILES>  (46) 
Cc1ccc(S(=O)(=O)[N-]CCOc2ccc3c(c2)C(=O)CC2(CCCC2)C3)cc1

>  <Energy>  (46) 
55.58986074672398

>  <Genealogy>  (46) 
Cc1ccc(S(=O)(=O)[N-]CCOc2ccc3c(c2)C(=O)CC2(CCCC2)C3)cc1 (protonated)
Cc1ccc(S(=O)(=O)[N-]CCOc2ccc3c(c2)C(=O)CC2(CCCC2)C3)cc1 (3D coordinates assigned)
Cc1ccc(S(=O)(=O)[N-]CCOc2ccc3c(c2)C(=O)CC2(CCCC2)C3)cc1 (nonaromatic ring conformer: 55.58986074672398 kcal/mol)

>  <smiles>  (46) 
Cc1ccc(S(=O)(=O)NCCOc2ccc3c(c2)C(=O)CC2(CCCC2)C3)cc1

>  <score_type>  (46) 
oracle

>  <origin>  (46) 
adgpu

>  <m_score__min__energy>  (46) 
-12.460000000000001

>  <m_primary>  (46) 
energy

$$$$
46:0
     RDKit          3D

 61 65  0  0  0  0  0  0  0  0999 V2000
   -0.9500   18.9720  -27.8350 C   0  0  0  0  0  0  0  0  0  0  0  0
   -1.2620   20.4320  -27.9770 C   0  0  0  0  0  0  0  0  0  0  0  0
   -0.3410   21.3090  -28.5700 C   0  0  0  0  0  0  0  0  0  0  0  0
   -0.6410   22.6700  -28.6870 C   0  0  0  0  0  0  0  0  0  0  0  0
   -1.8620   23.1680  -28.2080 C   0  0  0  0  0  0  0  0  0  0  0  0
   -2.1960   24.8980  -28.2740 S   0  0  0  0  0  0  0  0  0  0  0  0
   -0.9170   25.6860  -28.3010 O   0  0  0  0  0  0  0  0  0  0  0  0
   -2.9920   25.2910  -27.0590 O   0  0  0  0  0  0  0  0  0  0  0  0
   -3.1120   25.2550  -29.7020 N   0  0  0  0  0  0  0  0  0  0  0  0
   -4.3460   24.6170  -30.0600 C   0  0  0  0  0  0  0  0  0  0  0  0
   -5.5900   25.1570  -29.7010 C   0  0  0  0  0  0  0  0  0  0  0  0
   -6.7650   24.5440  -30.1190 C   0  0  0  0  0  0  0  0  0  0  0  0
   -6.7280   23.3800  -30.8980 C   0  0  0  0  0  0  0  0  0  0  0  0
   -7.9320   22.8160  -31.3150 O   0  0  0  0  0  0  0  0  0  0  0  0
   -5.4800   22.8040  -31.2510 C   0  0  0  0  0  0  0  0  0  0  0  0
   -5.3390   21.5070  -32.0480 C   0  0  2  0  0  0  0  0  0  0  0  0
   -6.4060   20.4340  -31.7230 C   0  0  0  0  0  0  0  0  0  0  0  0
   -6.2180   19.2020  -32.5750 C   0  0  0  0  0  0  0  0  0  0  0  0
   -6.2190   17.9260  -31.9860 C   0  0  0  0  0  0  0  0  0  0  0  0
   -6.0000   16.7890  -32.7700 C   0  0  0  0  0  0  0  0  0  0  0  0
   -5.7690   16.9160  -34.1410 C   0  0  0  0  0  0  0  0  0  0  0  0
   -5.7530   18.1800  -34.7340 C   0  0  0  0  0  0  0  0  0  0  0  0
   -5.9750   19.3210  -33.9550 C   0  0  0  0  0  0  0  0  0  0  0  0
   -3.9160   20.9610  -31.9640 C   0  0  0  0  0  0  0  0  0  0  0  0
   -3.4140   20.4320  -30.7590 C   0  0  0  0  0  0  0  0  0  0  0  0
   -2.1800   19.9470  -30.6830 O   0  0  0  0  0  0  0  0  0  0  0  0
   -1.3520   19.9200  -31.7200 C   0  0  0  0  0  0  0  0  0  0  0  0
   -0.0670   19.3870  -31.5670 C   0  0  0  0  0  0  0  0  0  0  0  0
    0.8080   19.3460  -32.6550 C   0  0  0  0  0  0  0  0  0  0  0  0
    0.4060   19.8400  -33.9000 C   0  0  0  0  0  0  0  0  0  0  0  0
   -0.8730   20.3780  -34.0630 C   0  0  0  0  0  0  0  0  0  0  0  0
   -1.7640   20.4250  -32.9740 C   0  0  0  0  0  0  0  0  0  0  0  0
   -3.0600   20.9570  -33.0880 C   0  0  0  0  0  0  0  0  0  0  0  0
   -3.4520   21.4260  -34.1920 O   0  0  0  0  0  0  0  0  0  0  0  0
   -4.3000   23.4350  -30.8040 C   0  0  0  0  0  0  0  0  0  0  0  0
   -2.7910   22.2900  -27.6370 C   0  0  0  0  0  0  0  0  0  0  0  0
   -2.4930   20.9290  -27.5240 C   0  0  0  0  0  0  0  0  0  0  0  0
   -0.8942   18.7111  -26.7678 H   0  0  0  0  0  0  0  0  0  0  0  0
   -1.7418   18.3793  -28.3165 H   0  0  0  0  0  0  0  0  0  0  0  0
    0.0149   18.7547  -28.3165 H   0  0  0  0  0  0  0  0  0  0  0  0
    0.6196   20.9250  -28.9439 H   0  0  0  0  0  0  0  0  0  0  0  0
    0.0830   23.3524  -29.1563 H   0  0  0  0  0  0  0  0  0  0  0  0
   -5.6355   26.0684  -29.0868 H   0  0  0  0  0  0  0  0  0  0  0  0
   -7.7352   24.9776  -29.8350 H   0  0  0  0  0  0  0  0  0  0  0  0
   -8.8100   23.3170  -31.2480 H   0  0  0  0  0  0  0  0  0  0  0  0
   -5.5396   21.7769  -33.0954 H   0  0  0  0  0  0  0  0  0  0  0  0
   -6.3214   20.1534  -30.6628 H   0  0  0  0  0  0  0  0  0  0  0  0
   -7.3998   20.8556  -31.9344 H   0  0  0  0  0  0  0  0  0  0  0  0
   -6.3926   17.8213  -30.9048 H   0  0  0  0  0  0  0  0  0  0  0  0
   -6.0098   15.7920  -32.3053 H   0  0  0  0  0  0  0  0  0  0  0  0
   -5.5994   16.0191  -34.7548 H   0  0  0  0  0  0  0  0  0  0  0  0
   -5.5659   18.2788  -35.8135 H   0  0  0  0  0  0  0  0  0  0  0  0
   -5.9594   20.3157  -34.4243 H   0  0  0  0  0  0  0  0  0  0  0  0
   -4.0552   20.4204  -29.8653 H   0  0  0  0  0  0  0  0  0  0  0  0
    0.2543   18.9999  -30.5888 H   0  0  0  0  0  0  0  0  0  0  0  0
    1.8163   18.9239  -32.5321 H   0  0  0  0  0  0  0  0  0  0  0  0
    1.0989   19.8049  -34.7536 H   0  0  0  0  0  0  0  0  0  0  0  0
   -1.1845   20.7656  -35.0442 H   0  0  0  0  0  0  0  0  0  0  0  0
   -3.3246   22.9878  -31.0459 H   0  0  0  0  0  0  0  0  0  0  0  0
   -3.7575   22.6720  -27.2765 H   0  0  0  0  0  0  0  0  0  0  0  0
   -3.2282   20.2436  -27.0772 H   0  0  0  0  0  0  0  0  0  0  0  0
  1  2  1  0
  2  3  2  0
  3  4  1  0
  4  5  2  0
  5  6  1  0
  6  7  2  0
  6  8  2  0
  6  9  1  0
  9 10  1  0
 10 11  2  0
 11 12  1  0
 12 13  2  0
 13 14  1  0
 13 15  1  0
 15 16  1  0
 16 17  1  0
 17 18  1  0
 18 19  2  0
 19 20  1  0
 20 21  2  0
 21 22  1  0
 22 23  2  0
 16 24  1  0
 24 25  2  0
 25 26  1  0
 26 27  1  0
 27 28  2  0
 28 29  1  0
 29 30  2  0
 30 31  1  0
 31 32  2  0
 32 33  1  0
 33 34  2  0
 15 35  2  0
  5 36  1  0
 36 37  2  0
 37  2  1  0
 35 10  1  0
 23 18  1  0
 33 24  1  0
 32 27  1  0
  1 38  1  0
  1 39  1  0
  1 40  1  0
  3 41  1  0
  4 42  1  0
 11 43  1  0
 12 44  1  0
 14 45  1  0
 16 46  1  6
 17 47  1  0
 17 48  1  0
 19 49  1  0
 20 50  1  0
 21 51  1  0
 22 52  1  0
 23 53  1  0
 25 54  1  0
 28 55  1  0
 29 56  1  0
 30 57  1  0
 31 58  1  0
 35 59  1  0
 36 60  1  0
 37 61  1  0
M  CHG  1   9  -1
M  END
>  <UniqueID>  (47) 
47

>  <SMILES>  (47) 
Cc1ccc(S(=O)(=O)[N-]c2ccc(O)c([C@H](Cc3ccccc3)c3coc4ccccc4c3=O)c2)cc1

>  <Energy>  (47) 
79.86748743574584

>  <Genealogy>  (47) 
Cc1ccc(S(=O)(=O)[N-]c2ccc(O)c(C(Cc3ccccc3)c3coc4ccccc4c3=O)c2)cc1 (protonated)
Cc1ccc(S(=O)(=O)[N-]c2ccc(O)c([C@H](Cc3ccccc3)c3coc4ccccc4c3=O)c2)cc1 (chirality)
Cc1ccc(S(=O)(=O)[N-]c2ccc(O)c([C@H](Cc3ccccc3)c3coc4ccccc4c3=O)c2)cc1 (3D coordinates assigned)
Cc1ccc(S(=O)(=O)[N-]c2ccc(O)c([C@H](Cc3ccccc3)c3coc4ccccc4c3=O)c2)cc1 (optimized conformer: 79.86748743574584 kcal/mol)

>  <smiles>  (47) 
Cc1ccc(S(=O)(=O)Nc2ccc(O)c(C(Cc3ccccc3)c3coc4ccccc4c3=O)c2)cc1

>  <score_type>  (47) 
oracle

>  <origin>  (47) 
adgpu

>  <m_score__min__energy>  (47) 
-12.130000000000001

>  <m_primary>  (47) 
energy

$$$$
