0:0
     RDKit          3D

 44 46  0  0  0  0  0  0  0  0999 V2000
   -1.7620   21.5320  -32.7800 C   0  0  0  0  0  0  0  0  0  0  0  0
   -2.3950   20.2160  -33.1250 C   0  0  0  0  0  0  0  0  0  0  0  0
   -1.6180   19.0490  -33.1670 C   0  0  0  0  0  0  0  0  0  0  0  0
   -2.2000   17.8320  -33.5290 C   0  0  0  0  0  0  0  0  0  0  0  0
   -3.5550   17.7700  -33.8560 C   0  0  0  0  0  0  0  0  0  0  0  0
   -4.3490   18.9300  -33.8210 C   0  0  0  0  0  0  0  0  0  0  0  0
   -5.7860   18.8780  -34.1790 C   0  0  0  0  0  0  0  0  0  0  0  0
   -6.1170   18.7120  -35.3830 O   0  0  0  0  0  0  0  0  0  0  0  0
   -6.8210   18.9550  -33.1890 N   0  0  0  0  0  0  0  0  0  0  0  0
   -7.2840   20.1490  -32.5390 C   0  0  0  0  0  0  0  0  0  0  0  0
   -8.6400   20.3340  -32.2200 C   0  0  0  0  0  0  0  0  0  0  0  0
   -9.0550   21.5030  -31.5780 C   0  0  0  0  0  0  0  0  0  0  0  0
   -8.1250   22.4870  -31.2390 C   0  0  0  0  0  0  0  0  0  0  0  0
   -6.7610   22.3080  -31.5290 C   0  0  0  0  0  0  0  0  0  0  0  0
   -5.7670   23.3490  -31.1600 C   0  0  0  0  0  0  0  0  0  0  0  0
   -6.1150   24.7110  -31.1820 C   0  0  0  0  0  0  0  0  0  0  0  0
   -5.1660   25.6730  -30.8320 C   0  0  0  0  0  0  0  0  0  0  0  0
   -3.9120   25.2940  -30.4710 N   0  0  0  0  0  0  0  0  0  0  0  0
   -3.5400   23.9850  -30.4360 C   0  0  0  0  0  0  0  0  0  0  0  0
   -2.2160   23.6150  -30.0480 N   0  0  0  0  0  0  0  0  0  0  0  0
   -1.3310   24.4460  -28.8120 S   0  0  0  0  0  0  0  0  0  0  0  0
   -1.8850   23.9130  -27.2080 C   0  0  0  0  0  0  0  0  0  0  0  0
    0.1380   24.1720  -28.9700 O   0  0  0  0  0  0  0  0  0  0  0  0
   -1.5700   25.9230  -28.9500 O   0  0  0  0  0  0  0  0  0  0  0  0
   -4.4620   22.9920  -30.7810 C   0  0  0  0  0  0  0  0  0  0  0  0
   -6.3510   21.1260  -32.1740 C   0  0  0  0  0  0  0  0  0  0  0  0
   -3.7540   20.1560  -33.4710 C   0  0  0  0  0  0  0  0  0  0  0  0
   -1.7107   21.6387  -31.6864 H   0  0  0  0  0  0  0  0  0  0  0  0
   -0.7463   21.5717  -33.2003 H   0  0  0  0  0  0  0  0  0  0  0  0
   -2.3650   22.3503  -33.2003 H   0  0  0  0  0  0  0  0  0  0  0  0
   -0.5483   19.0923  -32.9144 H   0  0  0  0  0  0  0  0  0  0  0  0
   -1.5876   16.9187  -33.5564 H   0  0  0  0  0  0  0  0  0  0  0  0
   -4.0048   16.8080  -34.1429 H   0  0  0  0  0  0  0  0  0  0  0  0
   -9.3755   19.5572  -32.4762 H   0  0  0  0  0  0  0  0  0  0  0  0
  -10.1187   21.6487  -31.3387 H   0  0  0  0  0  0  0  0  0  0  0  0
   -8.4615   23.4086  -30.7416 H   0  0  0  0  0  0  0  0  0  0  0  0
   -7.1305   25.0172  -31.4737 H   0  0  0  0  0  0  0  0  0  0  0  0
   -5.4338   26.7398  -30.8485 H   0  0  0  0  0  0  0  0  0  0  0  0
   -1.3252   24.4515  -26.4291 H   0  0  0  0  0  0  0  0  0  0  0  0
   -2.9589   24.1262  -27.1015 H   0  0  0  0  0  0  0  0  0  0  0  0
   -1.7135   22.8317  -27.1015 H   0  0  0  0  0  0  0  0  0  0  0  0
   -4.1661   21.9329  -30.7557 H   0  0  0  0  0  0  0  0  0  0  0  0
   -5.2847   20.9684  -32.3937 H   0  0  0  0  0  0  0  0  0  0  0  0
   -4.3587   21.0749  -33.4685 H   0  0  0  0  0  0  0  0  0  0  0  0
  1  2  1  0
  2  3  2  0
  3  4  1  0
  4  5  2  0
  5  6  1  0
  6  7  1  0
  7  8  2  0
  7  9  1  0
  9 10  1  0
 10 11  2  0
 11 12  1  0
 12 13  2  0
 13 14  1  0
 14 15  1  0
 15 16  2  0
 16 17  1  0
 17 18  2  0
 18 19  1  0
 19 20  1  0
 20 21  1  0
 21 22  1  0
 21 23  2  0
 21 24  2  0
 19 25  2  0
 14 26  2  0
  6 27  2  0
 27  2  1  0
 26 10  1  0
 25 15  1  0
  1 28  1  0
  1 29  1  0
  1 30  1  0
  3 31  1  0
  4 32  1  0
  5 33  1  0
 11 34  1  0
 12 35  1  0
 13 36  1  0
 16 37  1  0
 17 38  1  0
 22 39  1  0
 22 40  1  0
 22 41  1  0
 25 42  1  0
 26 43  1  0
 27 44  1  0
M  CHG  2   9  -1  20  -1
M  END
>  <UniqueID>  (1) 
1

>  <SMILES>  (1) 
Cc1cccc(C(=O)[N-]c2cccc(-c3ccnc([N-]S(C)(=O)=O)c3)c2)c1

>  <Energy>  (1) 
55.68295685543622

>  <Genealogy>  (1) 
Cc1cccc(C(=O)[N-]c2cccc(-c3ccnc([N-]S(C)(=O)=O)c3)c2)c1 (protonated)
Cc1cccc(C(=O)[N-]c2cccc(-c3ccnc([N-]S(C)(=O)=O)c3)c2)c1 (3D coordinates assigned)
Cc1cccc(C(=O)[N-]c2cccc(-c3ccnc([N-]S(C)(=O)=O)c3)c2)c1 (optimized conformer: 55.68295685543622 kcal/mol)

>  <smiles>  (1) 
Cc1cccc(C(=O)Nc2cccc(-c3ccnc(NS(C)(=O)=O)c3)c2)c1

>  <score_type>  (1) 
oracle

>  <origin>  (1) 
adgpu

>  <m_score__min__energy>  (1) 
-11.529999999999999

>  <m_primary>  (1) 
energy

$$$$
1:0
     RDKit          3D

 41 42  0  0  0  0  0  0  0  0999 V2000
   -9.4900   21.5330  -30.9400 C   0  0  0  0  0  0  0  0  0  0  0  0
   -9.2940   20.5130  -32.0570 C   0  0  0  0  0  0  0  0  0  0  0  0
   -8.2260   19.5670  -31.7230 N   0  0  0  0  0  0  0  0  0  0  0  0
   -6.8450   19.7520  -32.0920 C   0  0  0  0  0  0  0  0  0  0  0  0
   -5.7880   18.5550  -31.6820 S   0  0  0  0  0  0  0  0  0  0  0  0
   -6.4320   20.8630  -32.9450 N   0  0  0  0  0  0  0  0  0  0  0  0
   -6.7580   22.2050  -32.3720 C   0  0  0  0  0  0  0  0  0  0  0  0
   -5.5280   23.0860  -32.1010 C   0  0  0  0  0  0  0  0  0  0  0  0
   -4.4410   22.2780  -31.5500 N   0  0  0  0  0  0  0  0  0  0  0  0
   -3.8830   22.5840  -30.2570 C   0  0  0  0  0  0  0  0  0  0  0  0
   -3.4800   21.5370  -29.4110 C   0  0  0  0  0  0  0  0  0  0  0  0
   -2.9150   21.8110  -28.1640 C   0  0  0  0  0  0  0  0  0  0  0  0
   -2.7500   23.1310  -27.7470 C   0  0  0  0  0  0  0  0  0  0  0  0
   -3.1530   24.1830  -28.5730 C   0  0  0  0  0  0  0  0  0  0  0  0
   -3.7300   23.9210  -29.8330 C   0  0  0  0  0  0  0  0  0  0  0  0
   -4.1750   24.9550  -30.6700 O   0  0  0  0  0  0  0  0  0  0  0  0
   -5.3790   25.6930  -30.4750 C   0  0  0  0  0  0  0  0  0  0  0  0
   -4.0150   21.0740  -32.2710 C   0  0  0  0  0  0  0  0  0  0  0  0
   -5.0210   20.7050  -33.3750 C   0  0  0  0  0  0  0  0  0  0  0  0
   -9.3938   21.0324  -29.9653 H   0  0  0  0  0  0  0  0  0  0  0  0
   -8.7268   22.3206  -31.0246 H   0  0  0  0  0  0  0  0  0  0  0  0
  -10.4908   21.9816  -31.0246 H   0  0  0  0  0  0  0  0  0  0  0  0
  -10.2321   19.9583  -32.2063 H   0  0  0  0  0  0  0  0  0  0  0  0
   -9.0128   21.0489  -32.9755 H   0  0  0  0  0  0  0  0  0  0  0  0
   -8.4740   18.7060  -31.1830 H   0  0  0  0  0  0  0  0  0  0  0  0
   -6.9950   20.8020  -33.8240 H   0  0  0  0  0  0  0  0  0  0  0  0
   -7.4125   22.7337  -33.0806 H   0  0  0  0  0  0  0  0  0  0  0  0
   -7.2413   22.0266  -31.4001 H   0  0  0  0  0  0  0  0  0  0  0  0
   -5.1966   23.5474  -33.0430 H   0  0  0  0  0  0  0  0  0  0  0  0
   -5.7984   23.8674  -31.3755 H   0  0  0  0  0  0  0  0  0  0  0  0
   -3.6106   20.4935  -29.7336 H   0  0  0  0  0  0  0  0  0  0  0  0
   -2.5998   20.9846  -27.5100 H   0  0  0  0  0  0  0  0  0  0  0  0
   -2.3016   23.3446  -26.7655 H   0  0  0  0  0  0  0  0  0  0  0  0
   -3.0195   25.2224  -28.2386 H   0  0  0  0  0  0  0  0  0  0  0  0
   -5.5677   25.8087  -29.3975 H   0  0  0  0  0  0  0  0  0  0  0  0
   -5.2798   26.6856  -30.9385 H   0  0  0  0  0  0  0  0  0  0  0  0
   -6.2185   25.1541  -30.9385 H   0  0  0  0  0  0  0  0  0  0  0  0
   -3.0315   21.2579  -32.7280 H   0  0  0  0  0  0  0  0  0  0  0  0
   -3.9590   20.2399  -31.5561 H   0  0  0  0  0  0  0  0  0  0  0  0
   -4.8436   21.3561  -34.2437 H   0  0  0  0  0  0  0  0  0  0  0  0
   -4.8672   19.6440  -33.6212 H   0  0  0  0  0  0  0  0  0  0  0  0
  1  2  1  0
  2  3  1  0
  3  4  1  0
  4  5  2  0
  4  6  1  0
  6  7  1  0
  7  8  1  0
  8  9  1  0
  9 10  1  0
 10 11  2  0
 11 12  1  0
 12 13  2  0
 13 14  1  0
 14 15  2  0
 15 16  1  0
 16 17  1  0
  9 18  1  0
 18 19  1  0
 19  6  1  0
 15 10  1  0
  1 20  1  0
  1 21  1  0
  1 22  1  0
  2 23  1  0
  2 24  1  0
  3 25  1  0
  6 26  1  0
  7 27  1  0
  7 28  1  0
  8 29  1  0
  8 30  1  0
 11 31  1  0
 12 32  1  0
 13 33  1  0
 14 34  1  0
 17 35  1  0
 17 36  1  0
 17 37  1  0
 18 38  1  0
 18 39  1  0
 19 40  1  0
 19 41  1  0
M  CHG  1   6   1
M  END
>  <UniqueID>  (2) 
2

>  <SMILES>  (2) 
CCNC(=S)[NH+]1CCN(c2ccccc2OC)CC1

>  <Energy>  (2) 
52.64512885528737

>  <Genealogy>  (2) 
CCNC(=S)[NH+]1CCN(c2ccccc2OC)CC1 (protonated)
CCNC(=S)[NH+]1CCN(c2ccccc2OC)CC1 (3D coordinates assigned)
CCNC(=S)[NH+]1CCN(c2ccccc2OC)CC1 (nonaromatic ring conformer: 52.64512885528737 kcal/mol)

>  <smiles>  (2) 
CCNC(=S)N1CCN(c2ccccc2OC)CC1

>  <score_type>  (2) 
oracle

>  <origin>  (2) 
adgpu

>  <m_score__min__energy>  (2) 
-5.9400000000000004

>  <m_primary>  (2) 
energy

$$$$
2:0
     RDKit          3D

 37 39  0  0  0  0  0  0  0  0999 V2000
   -0.2983   25.6817  -29.3531 H   0  0  0  0  0  0  0  0  0  0  0  0
   -1.0990   25.1290  -28.8400 C   0  0  0  0  0  0  0  0  0  0  0  0
   -2.3670   25.0620  -29.3260 N   0  0  0  0  0  0  0  0  0  0  0  0
   -3.1660   24.3280  -28.5210 C   0  0  0  0  0  0  0  0  0  0  0  0
   -4.4240   24.1140  -28.7490 N   0  0  0  0  0  0  0  0  0  0  0  0
   -5.2620   24.7560  -30.1230 S   0  0  0  0  0  0  0  0  0  0  0  0
   -4.2610   25.2570  -31.1270 O   0  0  0  0  0  0  0  0  0  0  0  0
   -6.1280   25.9080  -29.6950 O   0  0  0  0  0  0  0  0  0  0  0  0
   -6.2360   23.4890  -30.8620 C   0  0  0  0  0  0  0  0  0  0  0  0
   -7.4660   23.7970  -31.4570 C   0  0  0  0  0  0  0  0  0  0  0  0
   -7.7924   24.8448  -31.5311 H   0  0  0  0  0  0  0  0  0  0  0  0
   -8.2800   22.7760  -31.9570 C   0  0  0  0  0  0  0  0  0  0  0  0
   -9.2413   23.0236  -32.4309 H   0  0  0  0  0  0  0  0  0  0  0  0
   -7.8740   21.4350  -31.8560 C   0  0  0  0  0  0  0  0  0  0  0  0
   -8.7140   20.3640  -32.3090 N   0  0  0  0  0  0  0  0  0  0  0  0
   -8.3840   18.9690  -32.2460 C   0  0  0  0  0  0  0  0  0  0  0  0
   -9.1450   18.1970  -31.6040 O   0  0  0  0  0  0  0  0  0  0  0  0
   -7.2030   18.4080  -32.9470 C   0  0  0  0  0  0  0  0  0  0  0  0
   -6.4710   19.2060  -33.8400 C   0  0  0  0  0  0  0  0  0  0  0  0
   -6.7682   20.2514  -34.0098 H   0  0  0  0  0  0  0  0  0  0  0  0
   -5.3670   18.6790  -34.5140 C   0  0  0  0  0  0  0  0  0  0  0  0
   -4.8021   19.3090  -35.2168 H   0  0  0  0  0  0  0  0  0  0  0  0
   -4.9780   17.3560  -34.2990 C   0  0  0  0  0  0  0  0  0  0  0  0
   -4.1116   16.9471  -34.8395 H   0  0  0  0  0  0  0  0  0  0  0  0
   -5.6850   16.5420  -33.3970 C   0  0  0  0  0  0  0  0  0  0  0  0
   -5.2830   15.1790  -33.1660 N   0  0  0  0  0  0  0  0  0  0  0  0
   -5.5460   14.2880  -33.9990 O   0  0  0  0  0  0  0  0  0  0  0  0
   -4.6130   14.8330  -32.0150 O   0  0  0  0  0  0  0  0  0  0  0  0
   -6.7910   17.0820  -32.7170 C   0  0  0  0  0  0  0  0  0  0  0  0
   -7.3414   16.4599  -31.9958 H   0  0  0  0  0  0  0  0  0  0  0  0
   -6.6240   21.1340  -31.3040 C   0  0  0  0  0  0  0  0  0  0  0  0
   -6.2776   20.0906  -31.2685 H   0  0  0  0  0  0  0  0  0  0  0  0
   -5.8130   22.1550  -30.7970 C   0  0  0  0  0  0  0  0  0  0  0  0
   -4.8402   21.9096  -30.3459 H   0  0  0  0  0  0  0  0  0  0  0  0
   -2.3440   23.7340  -27.1850 S   0  0  0  0  0  0  0  0  0  0  0  0
   -0.8890   24.4470  -27.6460 C   0  0  0  0  0  0  0  0  0  0  0  0
    0.0625   24.3841  -27.0977 H   0  0  0  0  0  0  0  0  0  0  0  0
  1  2  1  0
  2  3  1  0
  3  4  1  0
  4  5  2  0
  5  6  1  0
  6  7  2  0
  6  8  2  0
  6  9  1  0
  9 10  2  0
 10 11  1  0
 10 12  1  0
 12 13  1  0
 12 14  2  0
 14 15  1  0
 15 16  1  0
 16 17  2  0
 16 18  1  0
 18 19  2  0
 19 20  1  0
 19 21  1  0
 21 22  1  0
 21 23  2  0
 23 24  1  0
 23 25  1  0
 25 26  1  0
 26 27  2  0
 26 28  1  0
 25 29  2  0
 29 30  1  0
 14 31  1  0
 31 32  1  0
 31 33  2  0
 33 34  1  0
  4 35  1  0
 35 36  1  0
 36 37  1  0
 36  2  2  0
 33  9  1  0
 29 18  1  0
M  CHG  4   3  -1  15  -1  26   1  28  -1
M  END
>  <UniqueID>  (3) 
3

>  <SMILES>  (3) 
O=C([N-]c1ccc(S(=O)(=O)/N=c2\[n-]ccs2)cc1)c1cccc([N+](=O)[O-])c1

>  <Energy>  (3) 
78.80979362775437

>  <Genealogy>  (3) 
O=C([N-]c1ccc(S(=O)(=O)N=c2[n-]ccs2)cc1)c1cccc([N+](=O)[O-])c1 (protonated)
O=C([N-]c1ccc(S(=O)(=O)/N=c2\[n-]ccs2)cc1)c1cccc([N+](=O)[O-])c1 (cis-trans isomerization)
O=C([N-]c1ccc(S(=O)(=O)/N=c2\[n-]ccs2)cc1)c1cccc([N+](=O)[O-])c1 (3D coordinates assigned)
O=C([N-]c1ccc(S(=O)(=O)/N=c2\[n-]ccs2)cc1)c1cccc([N+](=O)[O-])c1 (optimized conformer: 78.80979362775437 kcal/mol)

>  <smiles>  (3) 
O=C(Nc1ccc(S(=O)(=O)N=c2[nH]ccs2)cc1)c1cccc([N+](=O)[O-])c1

>  <score_type>  (3) 
oracle

>  <origin>  (3) 
adgpu

>  <m_score__min__energy>  (3) 
-10.82

>  <m_primary>  (3) 
energy

$$$$
3:0
     RDKit          3D

 65 68  0  0  0  0  0  0  0  0999 V2000
   -2.6320   18.2830  -33.7640 C   0  0  0  0  0  0  0  0  0  0  0  0
   -3.6910   19.1150  -34.2280 O   0  0  0  0  0  0  0  0  0  0  0  0
   -4.4990   19.9140  -33.4040 C   0  0  0  0  0  0  0  0  0  0  0  0
   -3.9490   20.8420  -32.5030 C   0  0  0  0  0  0  0  0  0  0  0  0
   -4.7790   21.6400  -31.7110 C   0  0  0  0  0  0  0  0  0  0  0  0
   -4.1850   22.6030  -30.7590 C   0  0  0  0  0  0  0  0  0  0  0  0
   -4.2780   23.9820  -30.8360 C   0  0  0  0  0  0  0  0  0  0  0  0
   -3.5840   24.5450  -29.8200 N   0  0  0  0  0  0  0  0  0  0  0  0
   -3.0980   23.4870  -29.1330 C   0  0  0  0  0  0  0  0  0  0  0  0
   -2.3070   23.5470  -27.9720 C   0  0  0  0  0  0  0  0  0  0  0  0
   -1.8870   24.8350  -27.3640 C   0  0  0  0  0  0  0  0  0  0  0  0
   -0.9940   25.6890  -28.0330 C   0  0  0  0  0  0  0  0  0  0  0  0
   -0.5880   26.8910  -27.4470 C   0  0  0  0  0  0  0  0  0  0  0  0
   -1.0750   27.2670  -26.1810 C   0  0  0  0  0  0  0  0  0  0  0  0
   -0.6920   28.4570  -25.5400 O   0  0  0  0  0  0  0  0  0  0  0  0
    0.2480   28.5550  -24.4690 C   0  0  0  0  0  0  0  0  0  0  0  0
    1.4120   27.5810  -24.6850 C   0  0  0  0  0  0  0  0  0  0  0  0
    1.0900   26.1940  -24.0910 C   0  0  0  0  0  0  0  0  0  0  0  0
    0.9280   25.1230  -25.1010 N   0  0  0  0  0  0  0  0  0  0  0  0
    2.1640   24.8470  -25.8480 C   0  0  0  0  0  0  0  0  0  0  0  0
    0.3540   23.8880  -24.5450 C   0  0  0  0  0  0  0  0  0  0  0  0
   -1.9850   26.4280  -25.5270 C   0  0  0  0  0  0  0  0  0  0  0  0
   -2.3860   25.2220  -26.1080 C   0  0  0  0  0  0  0  0  0  0  0  0
   -1.9100   22.3170  -27.4050 C   0  0  0  0  0  0  0  0  0  0  0  0
   -2.3090   21.0980  -27.9820 C   0  0  0  0  0  0  0  0  0  0  0  0
   -3.0950   21.1050  -29.1390 C   0  0  0  0  0  0  0  0  0  0  0  0
   -3.4430   22.3040  -29.6770 N   0  0  0  0  0  0  0  0  0  0  0  0
   -6.1670   21.4840  -31.7900 C   0  0  0  0  0  0  0  0  0  0  0  0
   -6.7420   20.5560  -32.6780 C   0  0  0  0  0  0  0  0  0  0  0  0
   -8.1350   20.4010  -32.7550 O   0  0  0  0  0  0  0  0  0  0  0  0
   -9.0740   21.0010  -31.8690 C   0  0  0  0  0  0  0  0  0  0  0  0
   -5.8930   19.7670  -33.5000 C   0  0  0  0  0  0  0  0  0  0  0  0
   -6.3660   18.8190  -34.4270 O   0  0  0  0  0  0  0  0  0  0  0  0
   -6.1100   17.4200  -34.4180 C   0  0  0  0  0  0  0  0  0  0  0  0
   -2.6251   18.2775  -32.6640 H   0  0  0  0  0  0  0  0  0  0  0  0
   -2.7814   17.2582  -34.1348 H   0  0  0  0  0  0  0  0  0  0  0  0
   -1.6717   18.6707  -34.1348 H   0  0  0  0  0  0  0  0  0  0  0  0
   -2.8566   20.9409  -32.4206 H   0  0  0  0  0  0  0  0  0  0  0  0
   -4.8327   24.5367  -31.6072 H   0  0  0  0  0  0  0  0  0  0  0  0
   -0.6115   25.4093  -29.0257 H   0  0  0  0  0  0  0  0  0  0  0  0
    0.1167   27.5475  -27.9785 H   0  0  0  0  0  0  0  0  0  0  0  0
    0.6392   29.5821  -24.4236 H   0  0  0  0  0  0  0  0  0  0  0  0
   -0.2588   28.3001  -23.5266 H   0  0  0  0  0  0  0  0  0  0  0  0
    1.5975   27.4759  -25.7641 H   0  0  0  0  0  0  0  0  0  0  0  0
    2.3024   27.9812  -24.1780 H   0  0  0  0  0  0  0  0  0  0  0  0
    1.9100   25.9095  -23.4152 H   0  0  0  0  0  0  0  0  0  0  0  0
    0.1240   26.2887  -23.5734 H   0  0  0  0  0  0  0  0  0  0  0  0
    2.9865   24.6633  -25.1410 H   0  0  0  0  0  0  0  0  0  0  0  0
    2.0194   23.9590  -26.4809 H   0  0  0  0  0  0  0  0  0  0  0  0
    2.4109   25.7121  -26.4809 H   0  0  0  0  0  0  0  0  0  0  0  0
    0.3761   23.9356  -23.4463 H   0  0  0  0  0  0  0  0  0  0  0  0
   -0.6862   23.7810  -24.8865 H   0  0  0  0  0  0  0  0  0  0  0  0
    0.9428   23.0239  -24.8865 H   0  0  0  0  0  0  0  0  0  0  0  0
   -2.3883   26.7209  -24.5464 H   0  0  0  0  0  0  0  0  0  0  0  0
   -3.0972   24.5708  -25.5788 H   0  0  0  0  0  0  0  0  0  0  0  0
   -1.2817   22.3117  -26.5021 H   0  0  0  0  0  0  0  0  0  0  0  0
   -2.0046   20.1444  -27.5259 H   0  0  0  0  0  0  0  0  0  0  0  0
   -3.4236   20.1630  -29.6024 H   0  0  0  0  0  0  0  0  0  0  0  0
   -6.8185   22.0957  -31.1486 H   0  0  0  0  0  0  0  0  0  0  0  0
   -8.7720   20.8080  -30.8290 H   0  0  0  0  0  0  0  0  0  0  0  0
   -9.1042   22.0861  -32.0467 H   0  0  0  0  0  0  0  0  0  0  0  0
  -10.0714   20.5725  -32.0467 H   0  0  0  0  0  0  0  0  0  0  0  0
   -6.0452   17.0658  -33.3786 H   0  0  0  0  0  0  0  0  0  0  0  0
   -6.9269   16.8944  -34.9342 H   0  0  0  0  0  0  0  0  0  0  0  0
   -5.1599   17.2178  -34.9342 H   0  0  0  0  0  0  0  0  0  0  0  0
  1  2  1  0
  2  3  1  0
  3  4  2  0
  4  5  1  0
  5  6  1  0
  6  7  2  0
  7  8  1  0
  8  9  2  0
  9 10  1  0
 10 11  1  0
 11 12  2  0
 12 13  1  0
 13 14  2  0
 14 15  1  0
 15 16  1  0
 16 17  1  0
 17 18  1  0
 18 19  1  0
 19 20  1  0
 19 21  1  0
 14 22  1  0
 22 23  2  0
 10 24  2  0
 24 25  1  0
 25 26  2  0
 26 27  1  0
  5 28  2  0
 28 29  1  0
 29 30  1  0
 30 31  1  0
 29 32  2  0
 32 33  1  0
 33 34  1  0
 32  3  1  0
 27  6  1  0
 27  9  1  0
 23 11  1  0
  1 35  1  0
  1 36  1  0
  1 37  1  0
  4 38  1  0
  7 39  1  0
 12 40  1  0
 13 41  1  0
 16 42  1  0
 16 43  1  0
 17 44  1  0
 17 45  1  0
 18 46  1  0
 18 47  1  0
 20 48  1  0
 20 49  1  0
 20 50  1  0
 21 51  1  0
 21 52  1  0
 21 53  1  0
 22 54  1  0
 23 55  1  0
 24 56  1  0
 25 57  1  0
 26 58  1  0
 28 59  1  0
 31 60  1  0
 31 61  1  0
 31 62  1  0
 34 63  1  0
 34 64  1  0
 34 65  1  0
M  END
>  <UniqueID>  (4) 
4

>  <SMILES>  (4) 
COc1cc(-c2cnc3c(-c4ccc(OCCCN(C)C)cc4)cccn23)cc(OC)c1OC

>  <Energy>  (4) 
115.7150144352677

>  <Genealogy>  (4) 
COc1cc(-c2cnc3c(-c4ccc(OCCCN(C)C)cc4)cccn23)cc(OC)c1OC (3D coordinates assigned)
COc1cc(-c2cnc3c(-c4ccc(OCCCN(C)C)cc4)cccn23)cc(OC)c1OC (optimized conformer: 115.7150144352677 kcal/mol)

>  <smiles>  (4) 
COc1cc(-c2cnc3c(-c4ccc(OCCCN(C)C)cc4)cccn23)cc(OC)c1OC

>  <score_type>  (4) 
oracle

>  <origin>  (4) 
adgpu

>  <m_score__min__energy>  (4) 
-7.4000000000000004

>  <m_primary>  (4) 
energy

$$$$
4:0
     RDKit          3D

 45 48  0  0  0  0  0  0  0  0999 V2000
   -3.5230   26.0440  -31.2210 H   0  0  0  0  0  0  0  0  0  0  0  0
   -3.4960   25.2710  -30.5180 N   0  0  0  0  0  0  0  0  0  0  0  0
   -5.1070   25.0710  -29.9290 S   0  0  0  0  0  0  0  0  0  0  0  0
   -5.0670   24.6960  -28.4740 O   0  0  0  0  0  0  0  0  0  0  0  0
   -5.8570   26.3660  -30.0720 O   0  0  0  0  0  0  0  0  0  0  0  0
   -5.9190   23.8110  -30.8520 C   0  0  0  0  0  0  0  0  0  0  0  0
   -7.2940   23.8960  -31.1070 C   0  0  0  0  0  0  0  0  0  0  0  0
   -7.8723   24.7483  -30.7209 H   0  0  0  0  0  0  0  0  0  0  0  0
   -7.9320   22.9000  -31.8510 C   0  0  0  0  0  0  0  0  0  0  0  0
   -9.0085   22.9783  -32.0632 H   0  0  0  0  0  0  0  0  0  0  0  0
   -7.2060   21.8050  -32.3260 C   0  0  0  0  0  0  0  0  0  0  0  0
   -7.7102   21.0334  -32.9263 H   0  0  0  0  0  0  0  0  0  0  0  0
   -5.8390   21.6840  -32.0420 C   0  0  0  0  0  0  0  0  0  0  0  0
   -5.1240   20.5550  -32.5720 N   0  0  0  0  0  0  0  0  0  0  0  0
   -3.8760   20.5250  -32.9390 C   0  0  0  0  0  0  0  0  0  0  0  0
   -3.3700   19.3810  -33.4690 N   0  0  0  0  0  0  0  0  0  0  0  0
   -2.0640   19.2850  -33.8400 C   0  0  0  0  0  0  0  0  0  0  0  0
   -1.5650   18.0220  -34.4300 C   0  0  0  0  0  0  0  0  0  0  0  0
   -0.2550   17.9980  -34.9380 C   0  0  0  0  0  0  0  0  0  0  0  0
    0.3479   18.9181  -34.9342 H   0  0  0  0  0  0  0  0  0  0  0  0
    0.2890   16.8160  -35.4480 C   0  0  0  0  0  0  0  0  0  0  0  0
    1.3172   16.8086  -35.8390 H   0  0  0  0  0  0  0  0  0  0  0  0
   -0.4690   15.6470  -35.4620 C   0  0  0  0  0  0  0  0  0  0  0  0
   -0.0335   14.7154  -35.8525 H   0  0  0  0  0  0  0  0  0  0  0  0
   -1.7790   15.6550  -34.9820 C   0  0  0  0  0  0  0  0  0  0  0  0
   -2.3715   14.7283  -34.9995 H   0  0  0  0  0  0  0  0  0  0  0  0
   -2.3490   16.8370  -34.4760 C   0  0  0  0  0  0  0  0  0  0  0  0
   -3.7740   16.8140  -34.0630 C   0  0  0  0  0  0  0  0  0  0  0  0
   -4.7720   17.2860  -34.9330 C   0  0  0  0  0  0  0  0  0  0  0  0
   -4.4956   17.6758  -35.9238 H   0  0  0  0  0  0  0  0  0  0  0  0
   -6.1140   17.2620  -34.5440 C   0  0  0  0  0  0  0  0  0  0  0  0
   -6.8911   17.6274  -35.2314 H   0  0  0  0  0  0  0  0  0  0  0  0
   -6.4710   16.7750  -33.2840 C   0  0  0  0  0  0  0  0  0  0  0  0
   -7.5284   16.7552  -32.9815 H   0  0  0  0  0  0  0  0  0  0  0  0
   -5.4850   16.3130  -32.4080 C   0  0  0  0  0  0  0  0  0  0  0  0
   -5.7667   15.9302  -31.4159 H   0  0  0  0  0  0  0  0  0  0  0  0
   -4.1400   16.3370  -32.7920 C   0  0  0  0  0  0  0  0  0  0  0  0
   -3.3655   15.9812  -32.0966 H   0  0  0  0  0  0  0  0  0  0  0  0
   -1.2260   20.3980  -33.6890 C   0  0  0  0  0  0  0  0  0  0  0  0
   -0.1734   20.3552  -34.0057 H   0  0  0  0  0  0  0  0  0  0  0  0
   -1.7530   21.5590  -33.1300 C   0  0  0  0  0  0  0  0  0  0  0  0
   -1.1118   22.4411  -32.9860 H   0  0  0  0  0  0  0  0  0  0  0  0
   -3.0590   21.6010  -32.7630 N   0  0  0  0  0  0  0  0  0  0  0  0
   -5.1930   22.7070  -31.3230 C   0  0  0  0  0  0  0  0  0  0  0  0
   -4.1123   22.6404  -31.1292 H   0  0  0  0  0  0  0  0  0  0  0  0
  1  2  1  0
  2  3  1  0
  3  4  2  0
  3  5  2  0
  3  6  1  0
  6  7  2  0
  7  8  1  0
  7  9  1  0
  9 10  1  0
  9 11  2  0
 11 12  1  0
 11 13  1  0
 13 14  1  0
 14 15  2  0
 15 16  1  0
 16 17  2  0
 17 18  1  0
 18 19  2  0
 19 20  1  0
 19 21  1  0
 21 22  1  0
 21 23  2  0
 23 24  1  0
 23 25  1  0
 25 26  1  0
 25 27  2  0
 27 28  1  0
 28 29  2  0
 29 30  1  0
 29 31  1  0
 31 32  1  0
 31 33  2  0
 33 34  1  0
 33 35  1  0
 35 36  1  0
 35 37  2  0
 37 38  1  0
 17 39  1  0
 39 40  1  0
 39 41  2  0
 41 42  1  0
 41 43  1  0
 13 44  2  0
 44 45  1  0
 44  6  1  0
 43 15  1  0
 27 18  1  0
 37 28  1  0
M  CHG  2   2  -1  43  -1
M  END
>  <UniqueID>  (5) 
5

>  <SMILES>  (5) 
[NH-]S(=O)(=O)c1cccc(/N=c2/nc(-c3ccccc3-c3ccccc3)cc[n-]2)c1

>  <Energy>  (5) 
69.29537525787613

>  <Genealogy>  (5) 
[NH-]S(=O)(=O)c1cccc(N=c2nc(-c3ccccc3-c3ccccc3)cc[n-]2)c1 (protonated)
[NH-]S(=O)(=O)c1cccc(/N=c2/nc(-c3ccccc3-c3ccccc3)cc[n-]2)c1 (cis-trans isomerization)
[NH-]S(=O)(=O)c1cccc(/N=c2/nc(-c3ccccc3-c3ccccc3)cc[n-]2)c1 (3D coordinates assigned)
[NH-]S(=O)(=O)c1cccc(/N=c2/nc(-c3ccccc3-c3ccccc3)cc[n-]2)c1 (optimized conformer: 69.29537525787613 kcal/mol)

>  <smiles>  (5) 
NS(=O)(=O)c1cccc(N=c2nc(-c3ccccc3-c3ccccc3)cc[nH]2)c1

>  <score_type>  (5) 
oracle

>  <origin>  (5) 
adgpu

>  <m_score__min__energy>  (5) 
-11.640000000000001

>  <m_primary>  (5) 
energy

$$$$
5:0
     RDKit          3D

 36 38  0  0  1  0  0  0  0  0999 V2000
   -4.8520   24.1600  -29.0210 C   0  0  0  0  0  0  0  0  0  0  0  0
   -4.3190   24.5700  -30.3320 C   0  0  0  0  0  0  0  0  0  0  0  0
   -4.7130   25.6580  -30.8320 O   0  0  0  0  0  0  0  0  0  0  0  0
   -3.3880   23.7330  -30.9880 N   0  0  0  0  0  0  0  0  0  0  0  0
   -3.8370   22.6870  -31.6080 C   0  0  0  0  0  0  0  0  0  0  0  0
   -5.2050   22.3840  -31.6340 C   0  0  0  0  0  0  0  0  0  0  0  0
   -5.6890   21.2700  -32.2940 C   0  0  0  0  0  0  0  0  0  0  0  0
   -7.1070   20.9740  -32.3090 C   0  0  0  0  0  0  0  0  0  0  0  0
   -8.0530   21.9070  -31.9360 C   0  0  0  0  0  0  0  0  0  0  0  0
   -9.4220   21.6140  -31.9530 C   0  0  0  0  0  0  0  0  0  0  0  0
   -9.8650   20.3980  -32.3400 N   0  0  0  0  0  0  0  0  0  0  0  0
   -8.9600   19.4730  -32.7070 C   0  0  0  0  0  0  0  0  0  0  0  0
   -7.5850   19.7410  -32.6980 C   0  0  0  0  0  0  0  0  0  0  0  0
   -4.7740   20.4970  -32.9080 N   0  0  0  0  0  0  0  0  0  0  0  0
   -3.4550   20.7570  -32.9030 C   0  0  0  0  0  0  0  0  0  0  0  0
   -2.4650   19.9210  -33.5660 C   0  0  0  0  0  0  0  0  0  0  0  0
   -1.2430   20.4560  -33.9770 C   0  0  0  0  0  0  0  0  0  0  0  0
   -0.2800   19.6990  -34.6080 C   0  0  0  0  0  0  0  0  0  0  0  0
   -0.4830   18.3600  -34.8640 C   0  0  0  0  0  0  0  0  0  0  0  0
    0.4940   17.6700  -35.4830 F   0  0  0  0  0  0  0  0  0  0  0  0
   -1.6820   17.8060  -34.4670 C   0  0  0  0  0  0  0  0  0  0  0  0
   -2.6480   18.5820  -33.8300 C   0  0  0  0  0  0  0  0  0  0  0  0
   -3.0130   21.8470  -32.2520 N   0  0  0  0  0  0  0  0  0  0  0  0
   -4.2532   24.6206  -28.2214 H   0  0  0  0  0  0  0  0  0  0  0  0
   -5.8980   24.4885  -28.9314 H   0  0  0  0  0  0  0  0  0  0  0  0
   -4.8027   23.0648  -28.9314 H   0  0  0  0  0  0  0  0  0  0  0  0
   -5.9114   23.0494  -31.1162 H   0  0  0  0  0  0  0  0  0  0  0  0
   -7.7229   22.9067  -31.6171 H   0  0  0  0  0  0  0  0  0  0  0  0
  -10.1459   22.3837  -31.6474 H   0  0  0  0  0  0  0  0  0  0  0  0
   -9.3092   18.4789  -33.0229 H   0  0  0  0  0  0  0  0  0  0  0  0
   -6.8773   18.9570  -33.0055 H   0  0  0  0  0  0  0  0  0  0  0  0
   -5.0800   19.6540  -33.4140 H   0  0  0  0  0  0  0  0  0  0  0  0
   -1.0414   21.5211  -33.7903 H   0  0  0  0  0  0  0  0  0  0  0  0
    0.6659   20.1709  -34.9123 H   0  0  0  0  0  0  0  0  0  0  0  0
   -1.8777   16.7401  -34.6553 H   0  0  0  0  0  0  0  0  0  0  0  0
   -3.5926   18.1071  -33.5265 H   0  0  0  0  0  0  0  0  0  0  0  0
  1  2  1  0
  2  3  2  0
  2  4  1  0
  4  5  2  0
  5  6  1  0
  6  7  2  0
  7  8  1  0
  8  9  2  0
  9 10  1  0
 10 11  2  0
 11 12  1  0
 12 13  2  0
  7 14  1  0
 14 15  1  0
 15 16  1  0
 16 17  2  0
 17 18  1  0
 18 19  2  0
 19 20  1  0
 19 21  1  0
 21 22  2  0
 15 23  2  0
 23  5  1  0
 13  8  1  0
 22 16  1  0
  1 24  1  0
  1 25  1  0
  1 26  1  0
  6 27  1  0
  9 28  1  0
 10 29  1  0
 12 30  1  0
 13 31  1  0
 14 32  1  0
 17 33  1  0
 18 34  1  0
 21 35  1  0
 22 36  1  0
M  END
>  <smiles>  (6) 
CC(=O)N=c1cc(-c2ccncc2)[nH]c(-c2ccc(F)cc2)n1

>  <score_type>  (6) 
oracle

>  <origin>  (6) 
adgpu

>  <m_score__min__energy>  (6) 
-7.6699999999999999

>  <m_primary>  (6) 
energy

$$$$
6:0
     RDKit          3D

 32 34  0  0  0  0  0  0  0  0999 V2000
   -8.4880   23.0960  -32.3300 O   0  0  0  0  0  0  0  0  0  0  0  0
   -7.3780   23.2440  -31.7480 C   0  0  0  0  0  0  0  0  0  0  0  0
   -7.2340   24.2500  -30.7940 C   0  0  0  0  0  0  0  0  0  0  0  0
   -6.0080   24.4190  -30.1580 C   0  0  0  0  0  0  0  0  0  0  0  0
   -4.9450   23.5780  -30.4950 C   0  0  0  0  0  0  0  0  0  0  0  0
   -3.6230   23.7200  -29.8610 C   0  0  0  0  0  0  0  0  0  0  0  0
   -3.0420   24.9220  -29.6460 N   0  0  0  0  0  0  0  0  0  0  0  0
   -1.8760   24.5990  -29.0610 C   0  0  0  0  0  0  0  0  0  0  0  0
   -0.9030   25.5570  -28.6390 N   0  0  0  0  0  0  0  0  0  0  0  0
   -1.1500   26.7780  -28.7170 O   0  0  0  0  0  0  0  0  0  0  0  0
    0.3120   25.1430  -28.1450 O   0  0  0  0  0  0  0  0  0  0  0  0
   -1.7700   23.2360  -28.9330 C   0  0  0  0  0  0  0  0  0  0  0  0
   -2.8790   22.6720  -29.4410 N   0  0  0  0  0  0  0  0  0  0  0  0
   -5.1390   22.6120  -31.4310 N   0  0  0  0  0  0  0  0  0  0  0  0
   -6.3150   22.4310  -32.0420 N   0  0  0  0  0  0  0  0  0  0  0  0
   -6.4100   21.3840  -33.0640 C   0  0  0  0  0  0  0  0  0  0  0  0
   -7.2840   20.2620  -32.5740 C   0  0  0  0  0  0  0  0  0  0  0  0
   -6.7050   19.1180  -32.0000 C   0  0  0  0  0  0  0  0  0  0  0  0
   -7.5110   18.0580  -31.5750 C   0  0  0  0  0  0  0  0  0  0  0  0
   -8.8990   18.1300  -31.7250 C   0  0  0  0  0  0  0  0  0  0  0  0
   -9.4810   19.2610  -32.3030 C   0  0  0  0  0  0  0  0  0  0  0  0
   -8.6790   20.3230  -32.7310 C   0  0  0  0  0  0  0  0  0  0  0  0
   -8.0824   24.9048  -30.5460 H   0  0  0  0  0  0  0  0  0  0  0  0
   -5.8776   25.2049  -29.3995 H   0  0  0  0  0  0  0  0  0  0  0  0
   -0.9203   22.6965  -28.4893 H   0  0  0  0  0  0  0  0  0  0  0  0
   -6.8435   21.8091  -33.9813 H   0  0  0  0  0  0  0  0  0  0  0  0
   -5.4037   20.9920  -33.2728 H   0  0  0  0  0  0  0  0  0  0  0  0
   -5.6128   19.0561  -31.8845 H   0  0  0  0  0  0  0  0  0  0  0  0
   -7.0527   17.1664  -31.1221 H   0  0  0  0  0  0  0  0  0  0  0  0
   -9.5328   17.2964  -31.3881 H   0  0  0  0  0  0  0  0  0  0  0  0
  -10.5732   19.3160  -32.4216 H   0  0  0  0  0  0  0  0  0  0  0  0
   -9.1411   21.2085  -33.1918 H   0  0  0  0  0  0  0  0  0  0  0  0
  1  2  2  0
  2  3  1  0
  3  4  2  0
  4  5  1  0
  5  6  1  0
  6  7  2  0
  7  8  1  0
  8  9  1  0
  9 10  2  0
  9 11  1  0
  8 12  2  0
 12 13  1  0
  5 14  2  0
 14 15  1  0
 15 16  1  0
 16 17  1  0
 17 18  2  0
 18 19  1  0
 19 20  2  0
 20 21  1  0
 21 22  2  0
 15  2  1  0
 22 17  1  0
 13  6  1  0
  3 23  1  0
  4 24  1  0
 12 25  1  0
 16 26  1  0
 16 27  1  0
 18 28  1  0
 19 29  1  0
 20 30  1  0
 21 31  1  0
 22 32  1  0
M  CHG  3   9   1  11  -1  13  -1
M  END
>  <UniqueID>  (7) 
6

>  <SMILES>  (7) 
O=c1ccc(-c2nc([N+](=O)[O-])c[n-]2)nn1Cc1ccccc1

>  <Energy>  (7) 
62.619162397401475

>  <Genealogy>  (7) 
O=c1ccc(-c2nc([N+](=O)[O-])c[n-]2)nn1Cc1ccccc1 (protonated)
O=c1ccc(-c2nc([N+](=O)[O-])c[n-]2)nn1Cc1ccccc1 (3D coordinates assigned)
O=c1ccc(-c2nc([N+](=O)[O-])c[n-]2)nn1Cc1ccccc1 (optimized conformer: 62.619162397401475 kcal/mol)

>  <smiles>  (7) 
O=c1ccc(-c2nc([N+](=O)[O-])c[nH]2)nn1Cc1ccccc1

>  <score_type>  (7) 
oracle

>  <origin>  (7) 
adgpu

>  <m_score__min__energy>  (7) 
-9.6199999999999992

>  <m_primary>  (7) 
energy

$$$$
7:0
     RDKit          3D

 54 56  0  0  0  0  0  0  0  0999 V2000
   -2.4850   20.8270  -27.8320 C   0  0  0  0  0  0  0  0  0  0  0  0
   -3.1190   20.5600  -29.1900 C   0  0  0  0  0  0  0  0  0  0  0  0
   -2.8700   21.6670  -30.1180 N   0  0  0  0  0  0  0  0  0  0  0  0
   -2.2350   21.4100  -31.3790 C   0  0  0  0  0  0  0  0  0  0  0  0
   -0.8460   21.5750  -31.4850 C   0  0  0  0  0  0  0  0  0  0  0  0
   -0.1960   21.3480  -32.7000 C   0  0  0  0  0  0  0  0  0  0  0  0
   -0.9270   20.9550  -33.8220 C   0  0  0  0  0  0  0  0  0  0  0  0
   -0.1080   20.6720  -35.3470 Cl  0  0  0  0  0  0  0  0  0  0  0  0
   -2.3120   20.7900  -33.7310 C   0  0  0  0  0  0  0  0  0  0  0  0
   -2.9790   21.0120  -32.5150 C   0  0  0  0  0  0  0  0  0  0  0  0
   -4.4490   20.8420  -32.4640 C   0  0  0  0  0  0  0  0  0  0  0  0
   -5.2800   21.9710  -32.3990 C   0  0  0  0  0  0  0  0  0  0  0  0
   -6.6700   21.8400  -32.3630 C   0  0  0  0  0  0  0  0  0  0  0  0
   -7.4480   23.0070  -32.3130 O   0  0  0  0  0  0  0  0  0  0  0  0
   -8.8320   23.0370  -31.9780 C   0  0  0  0  0  0  0  0  0  0  0  0
   -7.2390   20.5550  -32.3780 C   0  0  0  0  0  0  0  0  0  0  0  0
   -6.4220   19.4240  -32.4170 C   0  0  0  0  0  0  0  0  0  0  0  0
   -5.0210   19.5540  -32.4570 C   0  0  0  0  0  0  0  0  0  0  0  0
   -4.1730   18.4340  -32.5080 O   0  0  0  0  0  0  0  0  0  0  0  0
   -4.0250   17.5840  -33.6400 C   0  0  0  0  0  0  0  0  0  0  0  0
   -3.7650   23.1440  -29.9220 S   0  0  0  0  0  0  0  0  0  0  0  0
   -5.2130   22.8400  -29.6540 O   0  0  0  0  0  0  0  0  0  0  0  0
   -3.6760   23.9540  -31.1850 O   0  0  0  0  0  0  0  0  0  0  0  0
   -3.1160   24.0560  -28.5630 C   0  0  0  0  0  0  0  0  0  0  0  0
   -1.8210   24.5880  -28.6180 C   0  0  0  0  0  0  0  0  0  0  0  0
   -1.3050   25.2960  -27.5300 C   0  0  0  0  0  0  0  0  0  0  0  0
   -2.0720   25.4660  -26.3670 C   0  0  0  0  0  0  0  0  0  0  0  0
   -1.5320   26.2580  -25.2140 C   0  0  0  0  0  0  0  0  0  0  0  0
   -3.3740   24.9460  -26.3200 C   0  0  0  0  0  0  0  0  0  0  0  0
   -3.8910   24.2380  -27.4090 C   0  0  0  0  0  0  0  0  0  0  0  0
   -3.1849   20.5322  -27.0363 H   0  0  0  0  0  0  0  0  0  0  0  0
   -1.5574   20.2431  -27.7392 H   0  0  0  0  0  0  0  0  0  0  0  0
   -2.2546   21.8986  -27.7392 H   0  0  0  0  0  0  0  0  0  0  0  0
   -2.6926   19.6370  -29.6098 H   0  0  0  0  0  0  0  0  0  0  0  0
   -4.2057   20.4579  -29.0531 H   0  0  0  0  0  0  0  0  0  0  0  0
   -0.2644   21.8855  -30.6045 H   0  0  0  0  0  0  0  0  0  0  0  0
    0.8937   21.4791  -32.7728 H   0  0  0  0  0  0  0  0  0  0  0  0
   -2.8843   20.4838  -34.6191 H   0  0  0  0  0  0  0  0  0  0  0  0
   -4.8297   22.9744  -32.3761 H   0  0  0  0  0  0  0  0  0  0  0  0
   -8.9444   23.0394  -30.8838 H   0  0  0  0  0  0  0  0  0  0  0  0
   -9.2908   23.9453  -32.3958 H   0  0  0  0  0  0  0  0  0  0  0  0
   -9.3297   22.1494  -32.3958 H   0  0  0  0  0  0  0  0  0  0  0  0
   -8.3328   20.4401  -32.3589 H   0  0  0  0  0  0  0  0  0  0  0  0
   -6.8769   18.4225  -32.4165 H   0  0  0  0  0  0  0  0  0  0  0  0
   -3.8454   16.5524  -33.3029 H   0  0  0  0  0  0  0  0  0  0  0  0
   -4.9424   17.6173  -34.2460 H   0  0  0  0  0  0  0  0  0  0  0  0
   -3.1728   17.9254  -34.2460 H   0  0  0  0  0  0  0  0  0  0  0  0
   -1.2086   24.4477  -29.5209 H   0  0  0  0  0  0  0  0  0  0  0  0
   -0.2925   25.7224  -27.5850 H   0  0  0  0  0  0  0  0  0  0  0  0
   -1.8492   25.7928  -24.2690 H   0  0  0  0  0  0  0  0  0  0  0  0
   -0.4333   26.2752  -25.2635 H   0  0  0  0  0  0  0  0  0  0  0  0
   -1.9174   27.2871  -25.2635 H   0  0  0  0  0  0  0  0  0  0  0  0
   -3.9912   25.0960  -25.4219 H   0  0  0  0  0  0  0  0  0  0  0  0
   -4.9084   23.8227  -27.3603 H   0  0  0  0  0  0  0  0  0  0  0  0
  1  2  1  0
  2  3  1  0
  3  4  1  0
  4  5  2  0
  5  6  1  0
  6  7  2  0
  7  8  1  0
  7  9  1  0
  9 10  2  0
 10 11  1  0
 11 12  2  0
 12 13  1  0
 13 14  1  0
 14 15  1  0
 13 16  2  0
 16 17  1  0
 17 18  2  0
 18 19  1  0
 19 20  1  0
  3 21  1  0
 21 22  2  0
 21 23  2  0
 21 24  1  0
 24 25  2  0
 25 26  1  0
 26 27  2  0
 27 28  1  0
 27 29  1  0
 29 30  2  0
 10  4  1  0
 18 11  1  0
 30 24  1  0
  1 31  1  0
  1 32  1  0
  1 33  1  0
  2 34  1  0
  2 35  1  0
  5 36  1  0
  6 37  1  0
  9 38  1  0
 12 39  1  0
 15 40  1  0
 15 41  1  0
 15 42  1  0
 16 43  1  0
 17 44  1  0
 20 45  1  0
 20 46  1  0
 20 47  1  0
 25 48  1  0
 26 49  1  0
 28 50  1  0
 28 51  1  0
 28 52  1  0
 29 53  1  0
 30 54  1  0
M  END
>  <UniqueID>  (8) 
7

>  <SMILES>  (8) 
CCN(c1ccc(Cl)cc1-c1cc(OC)ccc1OC)S(=O)(=O)c1ccc(C)cc1

>  <Energy>  (8) 
62.924858638429896

>  <Genealogy>  (8) 
CCN(c1ccc(Cl)cc1-c1cc(OC)ccc1OC)S(=O)(=O)c1ccc(C)cc1 (3D coordinates assigned)
CCN(c1ccc(Cl)cc1-c1cc(OC)ccc1OC)S(=O)(=O)c1ccc(C)cc1 (optimized conformer: 62.924858638429896 kcal/mol)

>  <smiles>  (8) 
CCN(c1ccc(Cl)cc1-c1cc(OC)ccc1OC)S(=O)(=O)c1ccc(C)cc1

>  <score_type>  (8) 
oracle

>  <origin>  (8) 
adgpu

>  <m_score__min__energy>  (8) 
-9.0899999999999999

>  <m_primary>  (8) 
energy

$$$$
8:0
     RDKit          3D

 46 48  0  0  1  0  0  0  0  0999 V2000
   -8.9490   20.3430  -32.3480 C   0  0  0  0  0  0  0  0  0  0  0  0
   -7.9420   21.4000  -31.9830 C   0  0  0  0  0  0  0  0  0  0  0  0
   -8.2680   22.4590  -31.1630 C   0  0  0  0  0  0  0  0  0  0  0  0
   -7.3130   23.4200  -30.8450 C   0  0  0  0  0  0  0  0  0  0  0  0
   -6.0440   23.2920  -31.3620 C   0  0  0  0  0  0  0  0  0  0  0  0
   -4.9920   24.2020  -31.1100 N   0  0  0  0  0  0  0  0  0  0  0  0
   -4.1190   23.9380  -30.2210 C   0  0  0  0  0  0  0  0  0  0  0  0
   -4.1510   22.7670  -29.4670 C   0  0  0  0  0  0  0  0  0  0  0  0
   -3.1660   22.5240  -28.5020 C   0  0  0  0  0  0  0  0  0  0  0  0
   -3.1720   21.2860  -27.6810 C   0  0  0  0  0  0  0  0  0  0  0  0
   -2.1750   23.4060  -28.2810 N   0  0  0  0  0  0  0  0  0  0  0  0
   -2.1800   24.5230  -29.0280 C   0  0  0  0  0  0  0  0  0  0  0  0
   -1.2460   25.3720  -28.8320 N   0  0  0  0  0  0  0  0  0  0  0  0
   -0.1710   25.2900  -27.9010 C   0  0  0  0  0  0  0  0  0  0  0  0
   -0.5330   25.8350  -26.5610 C   0  0  0  0  0  0  0  0  0  0  0  0
   -0.8840   27.1530  -26.3560 C   0  0  0  0  0  0  0  0  0  0  0  0
   -1.2180   27.6650  -25.1190 C   0  0  0  0  0  0  0  0  0  0  0  0
   -1.2110   26.8420  -24.0110 C   0  0  0  0  0  0  0  0  0  0  0  0
   -0.8680   25.5300  -24.1750 C   0  0  0  0  0  0  0  0  0  0  0  0
   -0.5350   25.0280  -25.4170 C   0  0  0  0  0  0  0  0  0  0  0  0
   -3.1050   24.7930  -29.9630 N   0  0  0  0  0  0  0  0  0  0  0  0
   -5.7330   22.2090  -32.1930 C   0  0  0  0  0  0  0  0  0  0  0  0
   -4.3460   22.0670  -32.7600 C   0  0  0  0  0  0  0  0  0  0  0  0
   -6.6770   21.2550  -32.5100 C   0  0  0  0  0  0  0  0  0  0  0  0
   -9.3679   19.9033  -31.4308 H   0  0  0  0  0  0  0  0  0  0  0  0
   -9.7579   20.7960  -32.9400 H   0  0  0  0  0  0  0  0  0  0  0  0
   -8.4573   19.5570  -32.9400 H   0  0  0  0  0  0  0  0  0  0  0  0
   -9.2872   22.5448  -30.7583 H   0  0  0  0  0  0  0  0  0  0  0  0
   -7.5680   24.2674  -30.1916 H   0  0  0  0  0  0  0  0  0  0  0  0
   -4.9523   22.0313  -29.6302 H   0  0  0  0  0  0  0  0  0  0  0  0
   -3.1707   21.5536  -26.6140 H   0  0  0  0  0  0  0  0  0  0  0  0
   -4.0730   20.6982  -27.9105 H   0  0  0  0  0  0  0  0  0  0  0  0
   -2.2767   20.6895  -27.9105 H   0  0  0  0  0  0  0  0  0  0  0  0
   -1.4360   23.2500  -27.5730 H   0  0  0  0  0  0  0  0  0  0  0  0
    0.1167   24.2345  -27.7865 H   0  0  0  0  0  0  0  0  0  0  0  0
    0.6589   25.8951  -28.2948 H   0  0  0  0  0  0  0  0  0  0  0  0
   -0.8984   27.8303  -27.2226 H   0  0  0  0  0  0  0  0  0  0  0  0
   -1.4891   28.7261  -25.0162 H   0  0  0  0  0  0  0  0  0  0  0  0
   -1.4758   27.2339  -23.0179 H   0  0  0  0  0  0  0  0  0  0  0  0
   -0.8569   24.8614  -23.3016 H   0  0  0  0  0  0  0  0  0  0  0  0
   -0.2641   23.9660  -25.5103 H   0  0  0  0  0  0  0  0  0  0  0  0
   -3.0840   25.6730  -30.5330 H   0  0  0  0  0  0  0  0  0  0  0  0
   -3.6195   21.9926  -31.9374 H   0  0  0  0  0  0  0  0  0  0  0  0
   -4.2939   21.1588  -33.3785 H   0  0  0  0  0  0  0  0  0  0  0  0
   -4.1110   22.9458  -33.3785 H   0  0  0  0  0  0  0  0  0  0  0  0
   -6.4281   20.4053  -33.1628 H   0  0  0  0  0  0  0  0  0  0  0  0
  1  2  1  0
  2  3  2  0
  3  4  1  0
  4  5  2  0
  5  6  1  0
  6  7  2  0
  7  8  1  0
  8  9  2  0
  9 10  1  0
  9 11  1  0
 11 12  1  0
 12 13  2  0
 13 14  1  0
 14 15  1  0
 15 16  2  0
 16 17  1  0
 17 18  2  0
 18 19  1  0
 19 20  2  0
 12 21  1  0
  5 22  1  0
 22 23  1  0
 22 24  2  0
 24  2  1  0
 21  7  1  0
 20 15  1  0
  1 25  1  0
  1 26  1  0
  1 27  1  0
  3 28  1  0
  4 29  1  0
  8 30  1  0
 10 31  1  0
 10 32  1  0
 10 33  1  0
 11 34  1  0
 14 35  1  0
 14 36  1  0
 16 37  1  0
 17 38  1  0
 18 39  1  0
 19 40  1  0
 20 41  1  0
 21 42  1  0
 23 43  1  0
 23 44  1  0
 23 45  1  0
 24 46  1  0
M  END
>  <smiles>  (9) 
Cc1ccc(N=c2cc(C)[nH]c(=NCc3ccccc3)[nH]2)c(C)c1

>  <score_type>  (9) 
oracle

>  <origin>  (9) 
adgpu

>  <m_score__min__energy>  (9) 
-9.4299999999999997

>  <m_primary>  (9) 
energy

$$$$
9:0
     RDKit          3D

 34 36  0  0  0  0  0  0  0  0999 V2000
   -4.6530   20.3790  -31.1580 O   0  0  0  0  0  0  0  0  0  0  0  0
   -5.4370   20.3810  -32.4420 S   0  0  0  0  0  0  0  0  0  0  0  0
   -4.8060   21.3540  -33.3980 O   0  0  0  0  0  0  0  0  0  0  0  0
   -5.3680   18.7520  -33.1120 C   0  0  0  0  0  0  0  0  0  0  0  0
   -5.7990   17.6630  -32.3400 C   0  0  0  0  0  0  0  0  0  0  0  0
   -5.7650   16.3700  -32.8690 C   0  0  0  0  0  0  0  0  0  0  0  0
   -5.3030   16.1580  -34.1710 C   0  0  0  0  0  0  0  0  0  0  0  0
   -4.8760   17.2390  -34.9470 C   0  0  0  0  0  0  0  0  0  0  0  0
   -4.9100   18.5350  -34.4200 C   0  0  0  0  0  0  0  0  0  0  0  0
   -7.1190   20.8570  -32.1450 C   0  0  0  0  0  0  0  0  0  0  0  0
   -8.1510   20.0340  -32.6210 C   0  0  0  0  0  0  0  0  0  0  0  0
   -9.4830   20.3390  -32.3410 C   0  0  0  0  0  0  0  0  0  0  0  0
   -9.7790   21.4710  -31.5860 C   0  0  0  0  0  0  0  0  0  0  0  0
   -8.7780   22.2750  -31.1470 N   0  0  0  0  0  0  0  0  0  0  0  0
   -7.4670   22.0180  -31.4110 C   0  0  0  0  0  0  0  0  0  0  0  0
   -6.4630   22.9760  -30.9150 C   0  0  0  0  0  0  0  0  0  0  0  0
   -6.2830   24.2170  -31.5500 C   0  0  0  0  0  0  0  0  0  0  0  0
   -5.3420   25.1270  -31.0600 C   0  0  0  0  0  0  0  0  0  0  0  0
   -4.5860   24.8120  -29.9290 C   0  0  0  0  0  0  0  0  0  0  0  0
   -4.7730   23.5870  -29.2790 C   0  0  0  0  0  0  0  0  0  0  0  0
   -3.8300   23.1960  -27.8530 Cl  0  0  0  0  0  0  0  0  0  0  0  0
   -5.7160   22.6730  -29.7670 C   0  0  0  0  0  0  0  0  0  0  0  0
   -6.1647   17.8272  -31.3156 H   0  0  0  0  0  0  0  0  0  0  0  0
   -6.1022   15.5182  -32.2601 H   0  0  0  0  0  0  0  0  0  0  0  0
   -5.2755   15.1394  -34.5853 H   0  0  0  0  0  0  0  0  0  0  0  0
   -4.5133   17.0712  -35.9718 H   0  0  0  0  0  0  0  0  0  0  0  0
   -4.5768   19.3855  -35.0329 H   0  0  0  0  0  0  0  0  0  0  0  0
   -7.9081   19.1430  -33.2185 H   0  0  0  0  0  0  0  0  0  0  0  0
  -10.2912   19.6920  -32.7127 H   0  0  0  0  0  0  0  0  0  0  0  0
  -10.8246   21.7135  -31.3454 H   0  0  0  0  0  0  0  0  0  0  0  0
   -6.8843   24.4727  -32.4349 H   0  0  0  0  0  0  0  0  0  0  0  0
   -5.1968   26.0928  -31.5661 H   0  0  0  0  0  0  0  0  0  0  0  0
   -3.8425   25.5278  -29.5485 H   0  0  0  0  0  0  0  0  0  0  0  0
   -5.8710   21.7153  -29.2486 H   0  0  0  0  0  0  0  0  0  0  0  0
  1  2  2  0
  2  3  2  0
  2  4  1  0
  4  5  2  0
  5  6  1  0
  6  7  2  0
  7  8  1  0
  8  9  2  0
  2 10  1  0
 10 11  2  0
 11 12  1  0
 12 13  2  0
 13 14  1  0
 14 15  2  0
 15 16  1  0
 16 17  2  0
 17 18  1  0
 18 19  2  0
 19 20  1  0
 20 21  1  0
 20 22  2  0
  9  4  1  0
 15 10  1  0
 22 16  1  0
  5 23  1  0
  6 24  1  0
  7 25  1  0
  8 26  1  0
  9 27  1  0
 11 28  1  0
 12 29  1  0
 13 30  1  0
 17 31  1  0
 18 32  1  0
 19 33  1  0
 22 34  1  0
M  END
>  <UniqueID>  (10) 
8

>  <SMILES>  (10) 
O=S(=O)(c1ccccc1)c1cccnc1-c1cccc(Cl)c1

>  <Energy>  (10) 
47.90577786805127

>  <Genealogy>  (10) 
O=S(=O)(c1ccccc1)c1cccnc1-c1cccc(Cl)c1 (3D coordinates assigned)
O=S(=O)(c1ccccc1)c1cccnc1-c1cccc(Cl)c1 (optimized conformer: 47.90577786805127 kcal/mol)

>  <smiles>  (10) 
O=S(=O)(c1ccccc1)c1cccnc1-c1cccc(Cl)c1

>  <score_type>  (10) 
oracle

>  <origin>  (10) 
adgpu

>  <m_score__min__energy>  (10) 
-8.2100000000000009

>  <m_primary>  (10) 
energy

$$$$
10:0
     RDKit          3D

 32 33  0  0  0  0  0  0  0  0999 V2000
   -0.5810   25.3820  -28.2600 C   0  0  0  0  0  0  0  0  0  0  0  0
   -1.9600   25.6020  -28.6990 N   0  0  0  0  0  0  0  0  0  0  0  0
   -2.8010   24.4580  -28.3280 C   0  0  0  0  0  0  0  0  0  0  0  0
   -3.6800   24.0330  -29.5050 C   0  0  0  0  0  0  0  0  0  0  0  0
   -3.8910   25.1720  -30.4170 N   0  0  0  0  0  0  0  0  0  0  0  0
   -5.3000   25.3420  -30.8030 C   0  0  0  0  0  0  0  0  0  0  0  0
   -5.9610   24.0260  -31.1030 C   0  0  0  0  0  0  0  0  0  0  0  0
   -7.2680   23.6780  -30.7820 C   0  0  0  0  0  0  0  0  0  0  0  0
   -7.6200   22.3930  -31.2140 C   0  0  0  0  0  0  0  0  0  0  0  0
   -6.5890   21.7320  -31.8760 C   0  0  0  0  0  0  0  0  0  0  0  0
   -6.6580   20.3780  -32.4450 C   0  0  0  0  0  0  0  0  0  0  0  0
   -5.8140   19.8560  -33.4190 C   0  0  0  0  0  0  0  0  0  0  0  0
   -6.1210   18.5340  -33.7670 C   0  0  0  0  0  0  0  0  0  0  0  0
   -7.2030   18.0110  -33.0710 C   0  0  0  0  0  0  0  0  0  0  0  0
   -7.7770   19.1940  -32.0230 S   0  0  0  0  0  0  0  0  0  0  0  0
   -5.2440   22.7460  -31.9270 S   0  0  0  0  0  0  0  0  0  0  0  0
   -0.5427   25.3759  -27.1607 H   0  0  0  0  0  0  0  0  0  0  0  0
   -0.2235   24.4155  -28.6447 H   0  0  0  0  0  0  0  0  0  0  0  0
    0.0595   26.1893  -28.6447 H   0  0  0  0  0  0  0  0  0  0  0  0
   -1.9480   25.6730  -29.7440 H   0  0  0  0  0  0  0  0  0  0  0  0
   -2.1570   23.6157  -28.0349 H   0  0  0  0  0  0  0  0  0  0  0  0
   -3.4489   24.7511  -27.4888 H   0  0  0  0  0  0  0  0  0  0  0  0
   -3.1862   23.2160  -30.0515 H   0  0  0  0  0  0  0  0  0  0  0  0
   -4.6537   23.6927  -29.1227 H   0  0  0  0  0  0  0  0  0  0  0  0
   -3.5470   26.0520  -29.9650 H   0  0  0  0  0  0  0  0  0  0  0  0
   -5.8385   25.8306  -29.9776 H   0  0  0  0  0  0  0  0  0  0  0  0
   -5.3321   25.9557  -31.7153 H   0  0  0  0  0  0  0  0  0  0  0  0
   -7.9568   24.3450  -30.2428 H   0  0  0  0  0  0  0  0  0  0  0  0
   -8.6128   21.9499  -31.0468 H   0  0  0  0  0  0  0  0  0  0  0  0
   -4.9878   20.4242  -33.8712 H   0  0  0  0  0  0  0  0  0  0  0  0
   -5.5579   17.9639  -34.5206 H   0  0  0  0  0  0  0  0  0  0  0  0
   -7.6139   16.9971  -33.1856 H   0  0  0  0  0  0  0  0  0  0  0  0
  1  2  1  0
  2  3  1  0
  3  4  1  0
  4  5  1  0
  5  6  1  0
  6  7  1  0
  7  8  2  0
  8  9  1  0
  9 10  2  0
 10 11  1  0
 11 12  2  0
 12 13  1  0
 13 14  2  0
 14 15  1  0
 10 16  1  0
 16  7  1  0
 15 11  1  0
  1 17  1  0
  1 18  1  0
  1 19  1  0
  2 20  1  0
  3 21  1  0
  3 22  1  0
  4 23  1  0
  4 24  1  0
  5 25  1  0
  6 26  1  0
  6 27  1  0
  8 28  1  0
  9 29  1  0
 12 30  1  0
 13 31  1  0
 14 32  1  0
M  END
>  <UniqueID>  (11) 
9

>  <SMILES>  (11) 
CNCCNCc1ccc(-c2cccs2)s1

>  <Energy>  (11) 
80.0867776143235

>  <Genealogy>  (11) 
CNCCNCc1ccc(-c2cccs2)s1 (3D coordinates assigned)
CNCCNCc1ccc(-c2cccs2)s1 (optimized conformer: 80.0867776143235 kcal/mol)

>  <smiles>  (11) 
CNCCNCc1ccc(-c2cccs2)s1

>  <score_type>  (11) 
oracle

>  <origin>  (11) 
adgpu

>  <m_score__min__energy>  (11) 
-7.54

>  <m_primary>  (11) 
energy

$$$$
11:0
     RDKit          3D

 39 40  0  0  0  0  0  0  0  0999 V2000
   -9.4490   19.7040  -32.7470 C   0  0  0  0  0  0  0  0  0  0  0  0
   -8.2000   20.4100  -32.4250 N   0  0  0  0  0  0  0  0  0  0  0  0
   -7.3190   19.5580  -31.6160 C   0  0  0  0  0  0  0  0  0  0  0  0
   -8.5520   21.8870  -31.5630 S   0  0  0  0  0  0  0  0  0  0  0  0
   -9.1700   21.5650  -30.2320 O   0  0  0  0  0  0  0  0  0  0  0  0
   -9.5200   22.7260  -32.3500 O   0  0  0  0  0  0  0  0  0  0  0  0
   -7.0620   22.7900  -31.2910 C   0  0  0  0  0  0  0  0  0  0  0  0
   -7.0870   23.9600  -30.5220 C   0  0  0  0  0  0  0  0  0  0  0  0
   -5.9060   24.6630  -30.2730 C   0  0  0  0  0  0  0  0  0  0  0  0
   -4.6850   24.1950  -30.7720 C   0  0  0  0  0  0  0  0  0  0  0  0
   -3.4890   24.9370  -30.4870 N   0  0  0  0  0  0  0  0  0  0  0  0
   -2.4470   24.5520  -29.5790 C   0  0  0  0  0  0  0  0  0  0  0  0
   -1.5800   25.4060  -29.2560 O   0  0  0  0  0  0  0  0  0  0  0  0
   -2.3710   23.1930  -28.9980 C   0  0  0  0  0  0  0  0  0  0  0  0
   -1.4780   22.2670  -29.5590 C   0  0  0  0  0  0  0  0  0  0  0  0
   -1.4010   20.9630  -29.0640 C   0  0  0  0  0  0  0  0  0  0  0  0
   -2.2080   20.5600  -27.9870 C   0  0  0  0  0  0  0  0  0  0  0  0
   -2.1350   19.2160  -27.4770 N   0  0  0  0  0  0  0  0  0  0  0  0
   -1.0910   18.5430  -27.6050 O   0  0  0  0  0  0  0  0  0  0  0  0
   -3.2170   18.6480  -26.8430 O   0  0  0  0  0  0  0  0  0  0  0  0
   -3.0830   21.4940  -27.4070 C   0  0  0  0  0  0  0  0  0  0  0  0
   -3.1650   22.8030  -27.8980 C   0  0  0  0  0  0  0  0  0  0  0  0
   -4.2140   23.9380  -27.0530 Cl  0  0  0  0  0  0  0  0  0  0  0  0
   -4.6640   23.0360  -31.5670 C   0  0  0  0  0  0  0  0  0  0  0  0
   -5.8470   22.3320  -31.8150 C   0  0  0  0  0  0  0  0  0  0  0  0
   -9.9582   19.4162  -31.8154 H   0  0  0  0  0  0  0  0  0  0  0  0
  -10.1036   20.3657  -33.3333 H   0  0  0  0  0  0  0  0  0  0  0  0
   -9.2196   18.8019  -33.3333 H   0  0  0  0  0  0  0  0  0  0  0  0
   -7.7110   20.6560  -33.3170 H   0  0  0  0  0  0  0  0  0  0  0  0
   -7.5097   19.7424  -30.5485 H   0  0  0  0  0  0  0  0  0  0  0  0
   -7.5180   18.5011  -31.8468 H   0  0  0  0  0  0  0  0  0  0  0  0
   -6.2693   19.7923  -31.8468 H   0  0  0  0  0  0  0  0  0  0  0  0
   -8.0399   24.3267  -30.1127 H   0  0  0  0  0  0  0  0  0  0  0  0
   -5.9357   25.5898  -29.6813 H   0  0  0  0  0  0  0  0  0  0  0  0
   -0.8327   22.5709  -30.3964 H   0  0  0  0  0  0  0  0  0  0  0  0
   -0.7030   20.2461  -29.5211 H   0  0  0  0  0  0  0  0  0  0  0  0
   -3.7118   21.1931  -26.5561 H   0  0  0  0  0  0  0  0  0  0  0  0
   -3.7148   22.6817  -31.9952 H   0  0  0  0  0  0  0  0  0  0  0  0
   -5.8227   21.4159  -32.4234 H   0  0  0  0  0  0  0  0  0  0  0  0
  1  2  1  0
  2  3  1  0
  2  4  1  0
  4  5  2  0
  4  6  2  0
  4  7  1  0
  7  8  2  0
  8  9  1  0
  9 10  2  0
 10 11  1  0
 11 12  1  0
 12 13  2  0
 12 14  1  0
 14 15  2  0
 15 16  1  0
 16 17  2  0
 17 18  1  0
 18 19  2  0
 18 20  1  0
 17 21  1  0
 21 22  2  0
 22 23  1  0
 10 24  1  0
 24 25  2  0
 25  7  1  0
 22 14  1  0
  1 26  1  0
  1 27  1  0
  1 28  1  0
  2 29  1  0
  3 30  1  0
  3 31  1  0
  3 32  1  0
  8 33  1  0
  9 34  1  0
 15 35  1  0
 16 36  1  0
 21 37  1  0
 24 38  1  0
 25 39  1  0
M  CHG  4   2   1  11  -1  18   1  20  -1
M  END
>  <UniqueID>  (12) 
10

>  <SMILES>  (12) 
C[NH+](C)S(=O)(=O)c1ccc([N-]C(=O)c2ccc([N+](=O)[O-])cc2Cl)cc1

>  <Energy>  (12) 
47.12657261286641

>  <Genealogy>  (12) 
C[NH+](C)S(=O)(=O)c1ccc([N-]C(=O)c2ccc([N+](=O)[O-])cc2Cl)cc1 (protonated)
C[NH+](C)S(=O)(=O)c1ccc([N-]C(=O)c2ccc([N+](=O)[O-])cc2Cl)cc1 (3D coordinates assigned)
C[NH+](C)S(=O)(=O)c1ccc([N-]C(=O)c2ccc([N+](=O)[O-])cc2Cl)cc1 (optimized conformer: 47.12657261286641 kcal/mol)

>  <smiles>  (12) 
CN(C)S(=O)(=O)c1ccc(NC(=O)c2ccc([N+](=O)[O-])cc2Cl)cc1

>  <score_type>  (12) 
oracle

>  <origin>  (12) 
adgpu

>  <m_score__min__energy>  (12) 
-10.470000000000001

>  <m_primary>  (12) 
energy

$$$$
12:0
     RDKit          3D

 53 56  0  0  0  0  0  0  0  0999 V2000
   -8.1850   11.8000  -38.2330 C   0  0  0  0  0  0  0  0  0  0  0  0
   -7.5240   12.3610  -37.0070 C   0  0  0  0  0  0  0  0  0  0  0  0
   -8.2660   13.1200  -36.0910 C   0  0  0  0  0  0  0  0  0  0  0  0
   -7.6420   13.6820  -34.9770 C   0  0  0  0  0  0  0  0  0  0  0  0
   -6.2690   13.5130  -34.7710 C   0  0  0  0  0  0  0  0  0  0  0  0
   -5.6820   14.1150  -33.6500 O   0  0  0  0  0  0  0  0  0  0  0  0
   -5.5440   15.5010  -33.4780 C   0  0  0  0  0  0  0  0  0  0  0  0
   -4.2610   16.0370  -33.3760 C   0  0  0  0  0  0  0  0  0  0  0  0
   -4.0740   17.4120  -33.2030 C   0  0  0  0  0  0  0  0  0  0  0  0
   -5.1760   18.2970  -33.1240 C   0  0  0  0  0  0  0  0  0  0  0  0
   -4.9850   19.7390  -32.9470 N   0  0  0  0  0  0  0  0  0  0  0  0
   -3.5980   20.2700  -32.9120 C   0  0  0  0  0  0  0  0  0  0  0  0
   -3.4840   21.7940  -32.8050 C   0  0  0  0  0  0  0  0  0  0  0  0
   -4.5830   22.3190  -32.0110 N   0  0  0  0  0  0  0  0  0  0  0  0
   -4.4250   22.5710  -30.6040 C   0  0  0  0  0  0  0  0  0  0  0  0
   -5.2160   22.0360  -29.7800 O   0  0  0  0  0  0  0  0  0  0  0  0
   -3.3660   23.4660  -30.1050 C   0  0  0  0  0  0  0  0  0  0  0  0
   -3.4900   24.8070  -29.7880 C   0  0  0  0  0  0  0  0  0  0  0  0
   -2.3230   25.2970  -29.3230 N   0  0  0  0  0  0  0  0  0  0  0  0
   -1.4690   24.2570  -29.3440 C   0  0  0  0  0  0  0  0  0  0  0  0
   -0.1440   24.3550  -28.9340 O   0  0  0  0  0  0  0  0  0  0  0  0
   -2.0680   23.1060  -29.8120 C   0  0  0  0  0  0  0  0  0  0  0  0
   -5.8980   22.0800  -32.5790 C   0  0  0  0  0  0  0  0  0  0  0  0
   -6.1720   20.5780  -32.6450 C   0  0  0  0  0  0  0  0  0  0  0  0
   -6.4720   17.7300  -33.2070 C   0  0  0  0  0  0  0  0  0  0  0  0
   -6.6510   16.3550  -33.3800 C   0  0  0  0  0  0  0  0  0  0  0  0
   -5.5160   12.7280  -35.6720 C   0  0  0  0  0  0  0  0  0  0  0  0
   -4.0470   12.4820  -35.4620 C   0  0  0  0  0  0  0  0  0  0  0  0
   -6.1490   12.1830  -36.8030 C   0  0  0  0  0  0  0  0  0  0  0  0
   -8.9920   11.1151  -37.9336 H   0  0  0  0  0  0  0  0  0  0  0  0
   -8.6048   12.6217  -38.8318 H   0  0  0  0  0  0  0  0  0  0  0  0
   -7.4424   11.2522  -38.8318 H   0  0  0  0  0  0  0  0  0  0  0  0
   -9.3435   13.2728  -36.2512 H   0  0  0  0  0  0  0  0  0  0  0  0
   -8.2346   14.2627  -34.2548 H   0  0  0  0  0  0  0  0  0  0  0  0
   -3.3869   15.3715  -33.4322 H   0  0  0  0  0  0  0  0  0  0  0  0
   -3.0525   17.8130  -33.1270 H   0  0  0  0  0  0  0  0  0  0  0  0
   -3.0869   19.8290  -32.0435 H   0  0  0  0  0  0  0  0  0  0  0  0
   -3.1431   19.9974  -33.8757 H   0  0  0  0  0  0  0  0  0  0  0  0
   -2.5297   22.0553  -32.3244 H   0  0  0  0  0  0  0  0  0  0  0  0
   -3.5251   22.2314  -33.8134 H   0  0  0  0  0  0  0  0  0  0  0  0
   -4.4140   25.3932  -29.9000 H   0  0  0  0  0  0  0  0  0  0  0  0
    0.4150   23.5250  -28.7750 H   0  0  0  0  0  0  0  0  0  0  0  0
   -1.6083   22.1133  -29.9268 H   0  0  0  0  0  0  0  0  0  0  0  0
   -6.6602   22.5623  -31.9494 H   0  0  0  0  0  0  0  0  0  0  0  0
   -5.9348   22.4994  -33.5952 H   0  0  0  0  0  0  0  0  0  0  0  0
   -6.5758   20.2612  -31.6721 H   0  0  0  0  0  0  0  0  0  0  0  0
   -6.8752   20.4289  -33.4776 H   0  0  0  0  0  0  0  0  0  0  0  0
   -7.3533   18.3842  -33.1339 H   0  0  0  0  0  0  0  0  0  0  0  0
   -7.6679   15.9399  -33.4397 H   0  0  0  0  0  0  0  0  0  0  0  0
   -3.8317   12.4459  -34.3839 H   0  0  0  0  0  0  0  0  0  0  0  0
   -3.7658   11.5243  -35.9243 H   0  0  0  0  0  0  0  0  0  0  0  0
   -3.4692   13.2959  -35.9243 H   0  0  0  0  0  0  0  0  0  0  0  0
   -5.5593   11.6114  -37.5348 H   0  0  0  0  0  0  0  0  0  0  0  0
  1  2  1  0
  2  3  2  0
  3  4  1  0
  4  5  2  0
  5  6  1  0
  6  7  1  0
  7  8  2  0
  8  9  1  0
  9 10  2  0
 10 11  1  0
 11 12  1  0
 12 13  1  0
 13 14  1  0
 14 15  1  0
 15 16  2  0
 15 17  1  0
 17 18  2  0
 18 19  1  0
 19 20  1  0
 20 21  1  0
 20 22  2  0
 14 23  1  0
 23 24  1  0
 10 25  1  0
 25 26  2  0
  5 27  1  0
 27 28  1  0
 27 29  2  0
 29  2  1  0
 26  7  1  0
 24 11  1  0
 22 17  1  0
  1 30  1  0
  1 31  1  0
  1 32  1  0
  3 33  1  0
  4 34  1  0
  8 35  1  0
  9 36  1  0
 12 37  1  0
 12 38  1  0
 13 39  1  0
 13 40  1  0
 18 41  1  0
 21 42  1  0
 22 43  1  0
 23 44  1  0
 23 45  1  0
 24 46  1  0
 24 47  1  0
 25 48  1  0
 26 49  1  0
 28 50  1  0
 28 51  1  0
 28 52  1  0
 29 53  1  0
M  CHG  1  19  -1
M  END
>  <UniqueID>  (13) 
11

>  <SMILES>  (13) 
Cc1ccc(Oc2ccc(N3CCN(C(=O)c4c[n-]c(O)c4)CC3)cc2)c(C)c1

>  <Energy>  (13) 
100.41890182097528

>  <Genealogy>  (13) 
Cc1ccc(Oc2ccc(N3CCN(C(=O)c4c[n-]c(O)c4)CC3)cc2)c(C)c1 (protonated)
Cc1ccc(Oc2ccc(N3CCN(C(=O)c4c[n-]c(O)c4)CC3)cc2)c(C)c1 (3D coordinates assigned)
Cc1ccc(Oc2ccc(N3CCN(C(=O)c4c[n-]c(O)c4)CC3)cc2)c(C)c1 (nonaromatic ring conformer: 100.41890182097528 kcal/mol)

>  <smiles>  (13) 
Cc1ccc(Oc2ccc(N3CCN(C(=O)c4c[nH]c(O)c4)CC3)cc2)c(C)c1

>  <score_type>  (13) 
oracle

>  <origin>  (13) 
adgpu

>  <m_score__min__energy>  (13) 
-8.3000000000000007

>  <m_primary>  (13) 
energy

$$$$
13:0
     RDKit          3D

 27 28  0  0  0  0  0  0  0  0999 V2000
   -8.4270   20.0440  -33.4680 N   0  0  0  0  0  0  0  0  0  0  0  0
   -8.3100   20.9140  -32.3400 C   0  0  0  0  0  0  0  0  0  0  0  0
   -9.2770   21.0120  -31.5380 O   0  0  0  0  0  0  0  0  0  0  0  0
   -7.0830   21.6940  -32.0910 C   0  0  0  0  0  0  0  0  0  0  0  0
   -6.9670   22.8610  -31.3410 C   0  0  0  0  0  0  0  0  0  0  0  0
   -5.6590   23.3650  -31.3070 C   0  0  0  0  0  0  0  0  0  0  0  0
   -5.2240   24.8370  -30.4540 S   0  0  0  0  0  0  0  0  0  0  0  0
   -5.8210   24.8380  -29.0750 O   0  0  0  0  0  0  0  0  0  0  0  0
   -5.7480   26.0180  -31.2210 O   0  0  0  0  0  0  0  0  0  0  0  0
   -3.4980   24.9650  -30.3280 N   0  0  0  0  0  0  0  0  0  0  0  0
   -2.6900   24.3090  -29.3410 C   0  0  0  0  0  0  0  0  0  0  0  0
   -3.1940   23.1580  -28.7210 C   0  0  0  0  0  0  0  0  0  0  0  0
   -2.4440   22.4940  -27.7460 C   0  0  0  0  0  0  0  0  0  0  0  0
   -1.1830   22.9750  -27.3830 C   0  0  0  0  0  0  0  0  0  0  0  0
   -0.4600   22.3290  -26.4360 F   0  0  0  0  0  0  0  0  0  0  0  0
   -0.6710   24.1210  -27.9980 C   0  0  0  0  0  0  0  0  0  0  0  0
    0.5530   24.5900  -27.6490 F   0  0  0  0  0  0  0  0  0  0  0  0
   -1.4180   24.7870  -28.9740 C   0  0  0  0  0  0  0  0  0  0  0  0
   -4.7400   22.6030  -32.0160 C   0  0  0  0  0  0  0  0  0  0  0  0
   -5.5600   21.3030  -32.6930 S   0  0  0  0  0  0  0  0  0  0  0  0
   -7.6550   19.9270  -34.1580 H   0  0  0  0  0  0  0  0  0  0  0  0
   -9.3070   19.5030  -33.6180 H   0  0  0  0  0  0  0  0  0  0  0  0
   -7.8145   23.3387  -30.8277 H   0  0  0  0  0  0  0  0  0  0  0  0
   -4.1857   22.7746  -29.0032 H   0  0  0  0  0  0  0  0  0  0  0  0
   -2.8470   21.5913  -27.2636 H   0  0  0  0  0  0  0  0  0  0  0  0
   -1.0104   25.6875  -29.4567 H   0  0  0  0  0  0  0  0  0  0  0  0
   -3.6650   22.8135  -32.1165 H   0  0  0  0  0  0  0  0  0  0  0  0
  1  2  1  0
  2  3  2  0
  2  4  1  0
  4  5  2  0
  5  6  1  0
  6  7  1  0
  7  8  2  0
  7  9  2  0
  7 10  1  0
 10 11  1  0
 11 12  2  0
 12 13  1  0
 13 14  2  0
 14 15  1  0
 14 16  1  0
 16 17  1  0
 16 18  2  0
  6 19  2  0
 19 20  1  0
 20  4  1  0
 18 11  1  0
  1 21  1  0
  1 22  1  0
  5 23  1  0
 12 24  1  0
 13 25  1  0
 18 26  1  0
 19 27  1  0
M  CHG  1  10  -1
M  END
>  <UniqueID>  (14) 
12

>  <SMILES>  (14) 
NC(=O)c1cc(S(=O)(=O)[N-]c2ccc(F)c(F)c2)cs1

>  <Energy>  (14) 
54.79102231047546

>  <Genealogy>  (14) 
NC(=O)c1cc(S(=O)(=O)[N-]c2ccc(F)c(F)c2)cs1 (protonated)
NC(=O)c1cc(S(=O)(=O)[N-]c2ccc(F)c(F)c2)cs1 (3D coordinates assigned)
NC(=O)c1cc(S(=O)(=O)[N-]c2ccc(F)c(F)c2)cs1 (optimized conformer: 54.79102231047546 kcal/mol)

>  <smiles>  (14) 
NC(=O)c1cc(S(=O)(=O)Nc2ccc(F)c(F)c2)cs1

>  <score_type>  (14) 
oracle

>  <origin>  (14) 
adgpu

>  <m_score__min__energy>  (14) 
-8.2599999999999998

>  <m_primary>  (14) 
energy

$$$$
14:0
     RDKit          3D

 31 32  0  0  0  0  0  0  0  0999 V2000
   -0.1430   23.2190  -24.9610 C   0  0  0  0  0  0  0  0  0  0  0  0
   -0.3540   22.7050  -26.2710 O   0  0  0  0  0  0  0  0  0  0  0  0
   -1.1220   23.3390  -27.2600 C   0  0  0  0  0  0  0  0  0  0  0  0
   -0.9120   24.6830  -27.6240 C   0  0  0  0  0  0  0  0  0  0  0  0
   -1.7000   25.2790  -28.6110 C   0  0  0  0  0  0  0  0  0  0  0  0
   -2.7190   24.5560  -29.2400 C   0  0  0  0  0  0  0  0  0  0  0  0
   -3.4900   25.2020  -30.2640 N   0  0  0  0  0  0  0  0  0  0  0  0
   -4.7260   24.7420  -30.8220 C   0  0  0  0  0  0  0  0  0  0  0  0
   -5.7310   25.5030  -30.8350 O   0  0  0  0  0  0  0  0  0  0  0  0
   -4.8230   23.4190  -31.4800 C   0  0  0  0  0  0  0  0  0  0  0  0
   -3.6650   22.8290  -31.8890 N   0  0  0  0  0  0  0  0  0  0  0  0
   -3.6550   21.6140  -32.4920 C   0  0  0  0  0  0  0  0  0  0  0  0
   -2.1040   20.8830  -33.0020 S   0  0  0  0  0  0  0  0  0  0  0  0
   -1.1950   21.5230  -31.5630 C   0  0  0  0  0  0  0  0  0  0  0  0
   -4.8190   20.9550  -32.7100 N   0  0  0  0  0  0  0  0  0  0  0  0
   -6.0050   21.4950  -32.3330 C   0  0  0  0  0  0  0  0  0  0  0  0
   -6.0450   22.7450  -31.7100 C   0  0  0  0  0  0  0  0  0  0  0  0
   -7.6250   23.4150  -31.3140 Cl  0  0  0  0  0  0  0  0  0  0  0  0
   -2.9170   23.2080  -28.8970 C   0  0  0  0  0  0  0  0  0  0  0  0
   -2.1280   22.6070  -27.9090 C   0  0  0  0  0  0  0  0  0  0  0  0
   -2.4040   20.9190  -27.5000 Cl  0  0  0  0  0  0  0  0  0  0  0  0
   -0.4512   22.4682  -24.2185 H   0  0  0  0  0  0  0  0  0  0  0  0
    0.9235   23.4520  -24.8259 H   0  0  0  0  0  0  0  0  0  0  0  0
   -0.7382   24.1341  -24.8259 H   0  0  0  0  0  0  0  0  0  0  0  0
   -0.1226   25.2669  -27.1280 H   0  0  0  0  0  0  0  0  0  0  0  0
   -1.5179   26.3257  -28.8962 H   0  0  0  0  0  0  0  0  0  0  0  0
   -1.6828   21.1796  -30.6388 H   0  0  0  0  0  0  0  0  0  0  0  0
   -0.1591   21.1539  -31.5899 H   0  0  0  0  0  0  0  0  0  0  0  0
   -1.1932   22.6227  -31.5899 H   0  0  0  0  0  0  0  0  0  0  0  0
   -6.9399   20.9460  -32.5187 H   0  0  0  0  0  0  0  0  0  0  0  0
   -3.6957   22.6220  -29.4072 H   0  0  0  0  0  0  0  0  0  0  0  0
  1  2  1  0
  2  3  1  0
  3  4  2  0
  4  5  1  0
  5  6  2  0
  6  7  1  0
  7  8  1  0
  8  9  2  0
  8 10  1  0
 10 11  2  0
 11 12  1  0
 12 13  1  0
 13 14  1  0
 12 15  2  0
 15 16  1  0
 16 17  2  0
 17 18  1  0
  6 19  1  0
 19 20  2  0
 20 21  1  0
 20  3  1  0
 17 10  1  0
  1 22  1  0
  1 23  1  0
  1 24  1  0
  4 25  1  0
  5 26  1  0
 14 27  1  0
 14 28  1  0
 14 29  1  0
 16 30  1  0
 19 31  1  0
M  CHG  1   7  -1
M  END
>  <UniqueID>  (15) 
13

>  <SMILES>  (15) 
COc1ccc([N-]C(=O)c2nc(SC)ncc2Cl)cc1Cl

>  <Energy>  (15) 
35.195142310387226

>  <Genealogy>  (15) 
COc1ccc([N-]C(=O)c2nc(SC)ncc2Cl)cc1Cl (protonated)
COc1ccc([N-]C(=O)c2nc(SC)ncc2Cl)cc1Cl (3D coordinates assigned)
COc1ccc([N-]C(=O)c2nc(SC)ncc2Cl)cc1Cl (optimized conformer: 35.195142310387226 kcal/mol)

>  <smiles>  (15) 
COc1ccc(NC(=O)c2nc(SC)ncc2Cl)cc1Cl

>  <score_type>  (15) 
oracle

>  <origin>  (15) 
adgpu

>  <m_score__min__energy>  (15) 
-7.8799999999999999

>  <m_primary>  (15) 
energy

$$$$
15:0
     RDKit          3D

 32 32  0  0  0  0  0  0  0  0999 V2000
   -2.4310   24.5760  -28.8130 C   0  0  0  0  0  0  0  0  0  0  0  0
   -3.2650   25.2790  -29.7260 O   0  0  0  0  0  0  0  0  0  0  0  0
   -4.4560   24.7460  -30.2270 C   0  0  0  0  0  0  0  0  0  0  0  0
   -5.6760   25.1700  -29.6950 C   0  0  0  0  0  0  0  0  0  0  0  0
   -6.8660   24.6370  -30.1930 C   0  0  0  0  0  0  0  0  0  0  0  0
   -6.8310   23.6890  -31.2250 C   0  0  0  0  0  0  0  0  0  0  0  0
   -8.1100   23.0840  -31.7530 C   0  0  0  0  0  0  0  0  0  0  0  0
   -8.3850   21.7650  -31.1620 N   0  0  0  0  0  0  0  0  0  0  0  0
   -9.3330   20.9850  -31.9740 C   0  0  0  0  0  0  0  0  0  0  0  0
   -8.6600   19.7410  -32.5880 C   0  0  0  0  0  0  0  0  0  0  0  0
   -8.6510   18.5640  -31.6030 C   0  0  0  0  0  0  0  0  0  0  0  0
   -7.2410   20.0420  -33.0890 C   0  0  0  0  0  0  0  0  0  0  0  0
   -5.5860   23.2850  -31.7260 C   0  0  0  0  0  0  0  0  0  0  0  0
   -4.4410   23.8170  -31.2240 N   0  0  0  0  0  0  0  0  0  0  0  0
   -2.7250   24.8238  -27.7824 H   0  0  0  0  0  0  0  0  0  0  0  0
   -2.5404   23.4936  -28.9753 H   0  0  0  0  0  0  0  0  0  0  0  0
   -1.3827   24.8670  -28.9753 H   0  0  0  0  0  0  0  0  0  0  0  0
   -5.6987   25.9186  -28.8893 H   0  0  0  0  0  0  0  0  0  0  0  0
   -7.8309   24.9607  -29.7758 H   0  0  0  0  0  0  0  0  0  0  0  0
   -8.9455   23.7594  -31.5168 H   0  0  0  0  0  0  0  0  0  0  0  0
   -7.9981   22.9512  -32.8392 H   0  0  0  0  0  0  0  0  0  0  0  0
   -7.4840   21.2380  -31.0870 H   0  0  0  0  0  0  0  0  0  0  0  0
  -10.1684   20.6612  -31.3358 H   0  0  0  0  0  0  0  0  0  0  0  0
   -9.6921   21.6237  -32.7944 H   0  0  0  0  0  0  0  0  0  0  0  0
   -9.2642   19.4523  -33.4607 H   0  0  0  0  0  0  0  0  0  0  0  0
   -8.6539   18.9484  -30.5723 H   0  0  0  0  0  0  0  0  0  0  0  0
   -9.5444   17.9432  -31.7654 H   0  0  0  0  0  0  0  0  0  0  0  0
   -7.7482   17.9569  -31.7654 H   0  0  0  0  0  0  0  0  0  0  0  0
   -6.5708   20.1842  -32.2284 H   0  0  0  0  0  0  0  0  0  0  0  0
   -6.8812   19.2002  -33.6988 H   0  0  0  0  0  0  0  0  0  0  0  0
   -7.2539   20.9574  -33.6988 H   0  0  0  0  0  0  0  0  0  0  0  0
   -5.5356   22.5345  -32.5286 H   0  0  0  0  0  0  0  0  0  0  0  0
  1  2  1  0
  2  3  1  0
  3  4  2  0
  4  5  1  0
  5  6  2  0
  6  7  1  0
  7  8  1  0
  8  9  1  0
  9 10  1  0
 10 11  1  0
 10 12  1  0
  6 13  1  0
 13 14  2  0
 14  3  1  0
  1 15  1  0
  1 16  1  0
  1 17  1  0
  4 18  1  0
  5 19  1  0
  7 20  1  0
  7 21  1  0
  8 22  1  0
  9 23  1  0
  9 24  1  0
 10 25  1  0
 11 26  1  0
 11 27  1  0
 11 28  1  0
 12 29  1  0
 12 30  1  0
 12 31  1  0
 13 32  1  0
M  END
>  <UniqueID>  (16) 
14

>  <SMILES>  (16) 
COc1ccc(CNCC(C)C)cn1

>  <Energy>  (16) 
22.51012220328314

>  <Genealogy>  (16) 
COc1ccc(CNCC(C)C)cn1 (3D coordinates assigned)
COc1ccc(CNCC(C)C)cn1 (optimized conformer: 22.51012220328314 kcal/mol)

>  <smiles>  (16) 
COc1ccc(CNCC(C)C)cn1

>  <score_type>  (16) 
oracle

>  <origin>  (16) 
adgpu

>  <m_score__min__energy>  (16) 
-6.5499999999999998

>  <m_primary>  (16) 
energy

$$$$
16:0
     RDKit          3D

 42 44  0  0  0  0  0  0  0  0999 V2000
   -1.8380   25.3070  -29.0910 N   0  0  0  0  0  0  0  0  0  0  0  0
   -0.9180   24.4680  -27.8890 S   0  0  0  0  0  0  0  0  0  0  0  0
    0.5380   24.4910  -28.2580 O   0  0  0  0  0  0  0  0  0  0  0  0
   -1.1020   25.1590  -26.5660 O   0  0  0  0  0  0  0  0  0  0  0  0
   -1.4680   22.7920  -27.7870 C   0  0  0  0  0  0  0  0  0  0  0  0
   -0.6060   21.8050  -27.2820 C   0  0  0  0  0  0  0  0  0  0  0  0
   -1.0280   20.4780  -27.1910 C   0  0  0  0  0  0  0  0  0  0  0  0
   -2.3130   20.1230  -27.6020 C   0  0  0  0  0  0  0  0  0  0  0  0
   -3.1800   21.0940  -28.1090 C   0  0  0  0  0  0  0  0  0  0  0  0
   -2.7650   22.4350  -28.2090 C   0  0  0  0  0  0  0  0  0  0  0  0
   -3.6330   23.4500  -28.7350 N   0  0  0  0  0  0  0  0  0  0  0  0
   -3.8760   23.8020  -30.4140 S   0  0  0  0  0  0  0  0  0  0  0  0
   -3.8600   25.2880  -30.6380 O   0  0  0  0  0  0  0  0  0  0  0  0
   -2.7880   23.1470  -31.2190 O   0  0  0  0  0  0  0  0  0  0  0  0
   -5.4400   23.1620  -30.9020 C   0  0  0  0  0  0  0  0  0  0  0  0
   -6.4950   24.0290  -31.2210 C   0  0  0  0  0  0  0  0  0  0  0  0
   -7.7370   23.5130  -31.5940 C   0  0  0  0  0  0  0  0  0  0  0  0
   -7.9330   22.1300  -31.6560 C   0  0  0  0  0  0  0  0  0  0  0  0
   -6.8850   21.2530  -31.3530 C   0  0  0  0  0  0  0  0  0  0  0  0
   -7.1260   19.8720  -31.4050 O   0  0  0  0  0  0  0  0  0  0  0  0
   -6.6970   19.0080  -32.4230 C   0  0  0  0  0  0  0  0  0  0  0  0
   -6.2400   19.5630  -33.6260 C   0  0  0  0  0  0  0  0  0  0  0  0
   -5.7850   18.7360  -34.6580 C   0  0  0  0  0  0  0  0  0  0  0  0
   -5.7700   17.3500  -34.4890 C   0  0  0  0  0  0  0  0  0  0  0  0
   -6.2040   16.7880  -33.2850 C   0  0  0  0  0  0  0  0  0  0  0  0
   -6.6650   17.6120  -32.2520 C   0  0  0  0  0  0  0  0  0  0  0  0
   -5.6410   21.7760  -30.9570 C   0  0  0  0  0  0  0  0  0  0  0  0
   -2.7980   25.4460  -28.7040 H   0  0  0  0  0  0  0  0  0  0  0  0
   -1.9340   24.6630  -29.9080 H   0  0  0  0  0  0  0  0  0  0  0  0
    0.4081   22.0796  -26.9562 H   0  0  0  0  0  0  0  0  0  0  0  0
   -0.3465   19.7109  -26.7947 H   0  0  0  0  0  0  0  0  0  0  0  0
   -2.6441   19.0767  -27.5267 H   0  0  0  0  0  0  0  0  0  0  0  0
   -4.1922   20.8089  -28.4317 H   0  0  0  0  0  0  0  0  0  0  0  0
   -6.3434   25.1176  -31.1772 H   0  0  0  0  0  0  0  0  0  0  0  0
   -8.5636   24.1959  -31.8398 H   0  0  0  0  0  0  0  0  0  0  0  0
   -8.9159   21.7291  -31.9444 H   0  0  0  0  0  0  0  0  0  0  0  0
   -6.2392   20.6549  -33.7593 H   0  0  0  0  0  0  0  0  0  0  0  0
   -5.4386   19.1779  -35.6039 H   0  0  0  0  0  0  0  0  0  0  0  0
   -5.4166   16.7004  -35.3034 H   0  0  0  0  0  0  0  0  0  0  0  0
   -6.1832   15.6966  -33.1493 H   0  0  0  0  0  0  0  0  0  0  0  0
   -7.0030   17.1672  -31.3044 H   0  0  0  0  0  0  0  0  0  0  0  0
   -4.8211   21.0934  -30.6889 H   0  0  0  0  0  0  0  0  0  0  0  0
  1  2  1  0
  2  3  2  0
  2  4  2  0
  2  5  1  0
  5  6  2  0
  6  7  1  0
  7  8  2  0
  8  9  1  0
  9 10  2  0
 10 11  1  0
 11 12  1  0
 12 13  2  0
 12 14  2  0
 12 15  1  0
 15 16  2  0
 16 17  1  0
 17 18  2  0
 18 19  1  0
 19 20  1  0
 20 21  1  0
 21 22  2  0
 22 23  1  0
 23 24  2  0
 24 25  1  0
 25 26  2  0
 19 27  2  0
 10  5  1  0
 27 15  1  0
 26 21  1  0
  1 28  1  0
  1 29  1  0
  6 30  1  0
  7 31  1  0
  8 32  1  0
  9 33  1  0
 16 34  1  0
 17 35  1  0
 18 36  1  0
 22 37  1  0
 23 38  1  0
 24 39  1  0
 25 40  1  0
 26 41  1  0
 27 42  1  0
M  CHG  1  11  -1
M  END
>  <UniqueID>  (17) 
15

>  <SMILES>  (17) 
NS(=O)(=O)c1ccccc1[N-]S(=O)(=O)c1cccc(Oc2ccccc2)c1

>  <Energy>  (17) 
52.47780527402233

>  <Genealogy>  (17) 
NS(=O)(=O)c1ccccc1[N-]S(=O)(=O)c1cccc(Oc2ccccc2)c1 (protonated)
NS(=O)(=O)c1ccccc1[N-]S(=O)(=O)c1cccc(Oc2ccccc2)c1 (3D coordinates assigned)
NS(=O)(=O)c1ccccc1[N-]S(=O)(=O)c1cccc(Oc2ccccc2)c1 (optimized conformer: 52.47780527402233 kcal/mol)

>  <smiles>  (17) 
NS(=O)(=O)c1ccccc1NS(=O)(=O)c1cccc(Oc2ccccc2)c1

>  <score_type>  (17) 
oracle

>  <origin>  (17) 
adgpu

>  <m_score__min__energy>  (17) 
-10.23

>  <m_primary>  (17) 
energy

$$$$
17:0
     RDKit          3D

 46 49  0  0  0  0  0  0  0  0999 V2000
   -4.2150   24.1840  -27.2250 C   0  0  0  0  0  0  0  0  0  0  0  0
   -2.8490   24.0160  -27.8380 C   0  0  0  0  0  0  0  0  0  0  0  0
   -1.7070   24.1950  -27.0390 C   0  0  0  0  0  0  0  0  0  0  0  0
   -0.4170   24.0590  -27.5810 C   0  0  0  0  0  0  0  0  0  0  0  0
    0.7830   24.2580  -26.7300 C   0  0  0  0  0  0  0  0  0  0  0  0
    2.0020   24.6820  -27.2890 C   0  0  0  0  0  0  0  0  0  0  0  0
    3.1220   24.8640  -26.4770 C   0  0  0  0  0  0  0  0  0  0  0  0
    3.0200   24.6210  -25.1060 C   0  0  0  0  0  0  0  0  0  0  0  0
    4.0980   24.7930  -24.3040 F   0  0  0  0  0  0  0  0  0  0  0  0
    1.8400   24.2100  -24.5740 N   0  0  0  0  0  0  0  0  0  0  0  0
    0.7330   24.0270  -25.3430 C   0  0  0  0  0  0  0  0  0  0  0  0
   -0.2810   23.7380  -28.9410 C   0  0  0  0  0  0  0  0  0  0  0  0
   -1.4080   23.5420  -29.7390 C   0  0  0  0  0  0  0  0  0  0  0  0
   -2.6930   23.6650  -29.1970 C   0  0  0  0  0  0  0  0  0  0  0  0
   -3.8580   23.4340  -30.0760 C   0  0  0  0  0  0  0  0  0  0  0  0
   -4.6670   24.4590  -30.5580 C   0  0  0  0  0  0  0  0  0  0  0  0
   -4.5230   25.8490  -30.2670 N   0  0  0  0  0  0  0  0  0  0  0  0
   -5.8890   23.8110  -31.5040 S   0  0  0  0  0  0  0  0  0  0  0  0
   -5.4250   22.2000  -31.3150 C   0  0  0  0  0  0  0  0  0  0  0  0
   -6.1520   21.0610  -31.9130 C   0  0  0  0  0  0  0  0  0  0  0  0
   -7.4830   20.7830  -31.5490 C   0  0  0  0  0  0  0  0  0  0  0  0
   -8.1650   19.7130  -32.1360 C   0  0  0  0  0  0  0  0  0  0  0  0
   -7.5320   18.9190  -33.0960 C   0  0  0  0  0  0  0  0  0  0  0  0
   -6.2170   19.1980  -33.4760 C   0  0  0  0  0  0  0  0  0  0  0  0
   -5.5300   20.2680  -32.8920 C   0  0  0  0  0  0  0  0  0  0  0  0
   -4.2720   22.1560  -30.5130 C   0  0  0  0  0  0  0  0  0  0  0  0
   -3.5340   20.8940  -30.1660 C   0  0  0  0  0  0  0  0  0  0  0  0
   -4.1286   24.1734  -26.1284 H   0  0  0  0  0  0  0  0  0  0  0  0
   -4.6472   25.1421  -27.5495 H   0  0  0  0  0  0  0  0  0  0  0  0
   -4.8665   23.3592  -27.5495 H   0  0  0  0  0  0  0  0  0  0  0  0
   -1.8241   24.4451  -25.9742 H   0  0  0  0  0  0  0  0  0  0  0  0
    2.0727   24.8708  -28.3704 H   0  0  0  0  0  0  0  0  0  0  0  0
    4.0760   25.1957  -26.9128 H   0  0  0  0  0  0  0  0  0  0  0  0
   -0.2072   23.6963  -24.8776 H   0  0  0  0  0  0  0  0  0  0  0  0
    0.7225   23.6403  -29.3808 H   0  0  0  0  0  0  0  0  0  0  0  0
   -1.2863   23.2888  -30.8025 H   0  0  0  0  0  0  0  0  0  0  0  0
   -3.8640   26.4340  -30.8270 H   0  0  0  0  0  0  0  0  0  0  0  0
   -5.0770   26.3010  -29.5070 H   0  0  0  0  0  0  0  0  0  0  0  0
   -7.9885   21.4100  -30.7998 H   0  0  0  0  0  0  0  0  0  0  0  0
   -9.2023   19.4956  -31.8415 H   0  0  0  0  0  0  0  0  0  0  0  0
   -8.0691   18.0745  -33.5524 H   0  0  0  0  0  0  0  0  0  0  0  0
   -5.7209   18.5757  -34.2354 H   0  0  0  0  0  0  0  0  0  0  0  0
   -4.4978   20.4894  -33.2009 H   0  0  0  0  0  0  0  0  0  0  0  0
   -3.4748   20.7928  -29.0723 H   0  0  0  0  0  0  0  0  0  0  0  0
   -4.0688   20.0293  -30.5859 H   0  0  0  0  0  0  0  0  0  0  0  0
   -2.5181   20.9360  -30.5859 H   0  0  0  0  0  0  0  0  0  0  0  0
  1  2  1  0
  2  3  2  0
  3  4  1  0
  4  5  1  0
  5  6  2  0
  6  7  1  0
  7  8  2  0
  8  9  1  0
  8 10  1  0
 10 11  2  0
  4 12  2  0
 12 13  1  0
 13 14  2  0
 14 15  1  0
 15 16  2  0
 16 17  1  0
 16 18  1  0
 18 19  1  0
 19 20  1  0
 20 21  2  0
 21 22  1  0
 22 23  2  0
 23 24  1  0
 24 25  2  0
 19 26  2  0
 26 27  1  0
 14  2  1  0
 26 15  1  0
 11  5  1  0
 25 20  1  0
  1 28  1  0
  1 29  1  0
  1 30  1  0
  3 31  1  0
  6 32  1  0
  7 33  1  0
 11 34  1  0
 12 35  1  0
 13 36  1  0
 17 37  1  0
 17 38  1  0
 21 39  1  0
 22 40  1  0
 23 41  1  0
 24 42  1  0
 25 43  1  0
 27 44  1  0
 27 45  1  0
 27 46  1  0
M  END
>  <UniqueID>  (18) 
16

>  <SMILES>  (18) 
Cc1cc(-c2ccc(F)nc2)ccc1-c1c(N)sc(-c2ccccc2)c1C

>  <Energy>  (18) 
93.79446078605864

>  <Genealogy>  (18) 
Cc1cc(-c2ccc(F)nc2)ccc1-c1c(N)sc(-c2ccccc2)c1C (3D coordinates assigned)
Cc1cc(-c2ccc(F)nc2)ccc1-c1c(N)sc(-c2ccccc2)c1C (optimized conformer: 93.79446078605864 kcal/mol)

>  <smiles>  (18) 
Cc1cc(-c2ccc(F)nc2)ccc1-c1c(N)sc(-c2ccccc2)c1C

>  <score_type>  (18) 
oracle

>  <origin>  (18) 
adgpu

>  <m_score__min__energy>  (18) 
-8.9199999999999999

>  <m_primary>  (18) 
energy

$$$$
18:0
     RDKit          3D

 47 49  0  0  0  0  0  0  0  0999 V2000
   -5.6690   24.9240  -29.9380 C   0  0  0  0  0  0  0  0  0  0  0  0
   -4.6490   24.6700  -30.9000 O   0  0  0  0  0  0  0  0  0  0  0  0
   -3.7190   23.6210  -30.8190 C   0  0  0  0  0  0  0  0  0  0  0  0
   -3.8820   22.4280  -31.5490 C   0  0  0  0  0  0  0  0  0  0  0  0
   -2.9750   21.3770  -31.4010 C   0  0  0  0  0  0  0  0  0  0  0  0
   -1.8960   21.4940  -30.5180 C   0  0  0  0  0  0  0  0  0  0  0  0
   -0.7750   20.1470  -30.2990 S   0  0  0  0  0  0  0  0  0  0  0  0
   -1.2270   18.9840  -31.1380 O   0  0  0  0  0  0  0  0  0  0  0  0
    0.5920   20.5590  -30.7740 O   0  0  0  0  0  0  0  0  0  0  0  0
   -0.6790   19.6540  -28.6240 N   0  0  0  0  0  0  0  0  0  0  0  0
    0.2980   20.4660  -27.8680 C   0  0  0  0  0  0  0  0  0  0  0  0
   -0.3900   21.4920  -26.9490 C   0  0  0  0  0  0  0  0  0  0  0  0
   -1.2670   20.8990  -26.0020 O   0  0  0  0  0  0  0  0  0  0  0  0
   -1.9190   19.7270  -26.4800 C   0  0  0  0  0  0  0  0  0  0  0  0
   -2.0220   19.6480  -28.0120 C   0  0  0  0  0  0  0  0  0  0  0  0
   -1.7160   22.6850  -29.8040 C   0  0  0  0  0  0  0  0  0  0  0  0
   -2.6060   23.7570  -29.9620 C   0  0  0  0  0  0  0  0  0  0  0  0
   -2.3960   24.9530  -29.1960 N   0  0  0  0  0  0  0  0  0  0  0  0
   -1.1160   25.3370  -28.6720 C   0  0  0  0  0  0  0  0  0  0  0  0
   -0.1920   24.4860  -28.5750 O   0  0  0  0  0  0  0  0  0  0  0  0
   -0.8960   26.6590  -28.1680 N   0  0  0  0  0  0  0  0  0  0  0  0
   -0.7440   27.0160  -26.7870 C   0  0  0  0  0  0  0  0  0  0  0  0
   -0.3570   28.3240  -26.4650 C   0  0  0  0  0  0  0  0  0  0  0  0
   -0.2230   28.7100  -25.1270 C   0  0  0  0  0  0  0  0  0  0  0  0
   -0.4930   27.7980  -24.1040 C   0  0  0  0  0  0  0  0  0  0  0  0
   -0.9040   26.5000  -24.4160 C   0  0  0  0  0  0  0  0  0  0  0  0
   -1.0380   26.1090  -25.7520 C   0  0  0  0  0  0  0  0  0  0  0  0
   -5.2520   24.8202  -28.9254 H   0  0  0  0  0  0  0  0  0  0  0  0
   -6.0542   25.9455  -30.0730 H   0  0  0  0  0  0  0  0  0  0  0  0
   -6.4882   24.2024  -30.0730 H   0  0  0  0  0  0  0  0  0  0  0  0
   -4.7305   22.3233  -32.2412 H   0  0  0  0  0  0  0  0  0  0  0  0
   -3.1093   20.4523  -31.9815 H   0  0  0  0  0  0  0  0  0  0  0  0
    0.9152   19.7956  -27.2518 H   0  0  0  0  0  0  0  0  0  0  0  0
    0.9123   21.0193  -28.5936 H   0  0  0  0  0  0  0  0  0  0  0  0
    0.3867   22.0490  -26.4045 H   0  0  0  0  0  0  0  0  0  0  0  0
   -0.9978   22.1474  -27.5901 H   0  0  0  0  0  0  0  0  0  0  0  0
   -1.3574   18.8501  -26.1256 H   0  0  0  0  0  0  0  0  0  0  0  0
   -2.9484   19.7560  -26.0934 H   0  0  0  0  0  0  0  0  0  0  0  0
   -2.5427   18.7204  -28.2919 H   0  0  0  0  0  0  0  0  0  0  0  0
   -2.5812   20.5228  -28.3754 H   0  0  0  0  0  0  0  0  0  0  0  0
   -0.8668   22.7808  -29.1113 H   0  0  0  0  0  0  0  0  0  0  0  0
   -3.2350   25.4870  -28.8750 H   0  0  0  0  0  0  0  0  0  0  0  0
   -0.1579   29.0498  -27.2673 H   0  0  0  0  0  0  0  0  0  0  0  0
    0.0955   29.7335  -24.8801 H   0  0  0  0  0  0  0  0  0  0  0  0
   -0.3820   28.1020  -23.0527 H   0  0  0  0  0  0  0  0  0  0  0  0
   -1.1226   25.7844  -23.6097 H   0  0  0  0  0  0  0  0  0  0  0  0
   -1.3740   25.0900  -25.9944 H   0  0  0  0  0  0  0  0  0  0  0  0
  1  2  1  0
  2  3  1  0
  3  4  2  0
  4  5  1  0
  5  6  2  0
  6  7  1  0
  7  8  2  0
  7  9  2  0
  7 10  1  0
 10 11  1  0
 11 12  1  0
 12 13  1  0
 13 14  1  0
 14 15  1  0
  6 16  1  0
 16 17  2  0
 17 18  1  0
 18 19  1  0
 19 20  2  0
 19 21  1  0
 21 22  1  0
 22 23  2  0
 23 24  1  0
 24 25  2  0
 25 26  1  0
 26 27  2  0
 17  3  1  0
 27 22  1  0
 15 10  1  0
  1 28  1  0
  1 29  1  0
  1 30  1  0
  4 31  1  0
  5 32  1  0
 11 33  1  0
 11 34  1  0
 12 35  1  0
 12 36  1  0
 14 37  1  0
 14 38  1  0
 15 39  1  0
 15 40  1  0
 16 41  1  0
 18 42  1  0
 23 43  1  0
 24 44  1  0
 25 45  1  0
 26 46  1  0
 27 47  1  0
M  CHG  1  21  -1
M  END
>  <UniqueID>  (19) 
17

>  <SMILES>  (19) 
COc1ccc(S(=O)(=O)N2CCOCC2)cc1NC(=O)[N-]c1ccccc1

>  <Energy>  (19) 
67.39193726122184

>  <Genealogy>  (19) 
COc1ccc(S(=O)(=O)N2CCOCC2)cc1NC(=O)[N-]c1ccccc1 (protonated)
COc1ccc(S(=O)(=O)N2CCOCC2)cc1NC(=O)[N-]c1ccccc1 (3D coordinates assigned)
COc1ccc(S(=O)(=O)N2CCOCC2)cc1NC(=O)[N-]c1ccccc1 (nonaromatic ring conformer: 67.39193726122184 kcal/mol)

>  <smiles>  (19) 
COc1ccc(S(=O)(=O)N2CCOCC2)cc1NC(=O)Nc1ccccc1

>  <score_type>  (19) 
oracle

>  <origin>  (19) 
adgpu

>  <m_score__min__energy>  (19) 
-9.8800000000000008

>  <m_primary>  (19) 
energy

$$$$
19:0
     RDKit          3D

 33 35  0  0  0  0  0  0  0  0999 V2000
   -5.7280   15.0730  -33.8370 C   0  0  0  0  0  0  0  0  0  0  0  0
   -6.2540   16.2500  -34.4410 O   0  0  0  0  0  0  0  0  0  0  0  0
   -6.1750   17.5340  -33.8800 C   0  0  0  0  0  0  0  0  0  0  0  0
   -5.0610   18.3690  -34.0670 C   0  0  0  0  0  0  0  0  0  0  0  0
   -5.0260   19.6350  -33.4840 C   0  0  0  0  0  0  0  0  0  0  0  0
   -6.0970   20.0960  -32.6990 C   0  0  0  0  0  0  0  0  0  0  0  0
   -6.0200   21.4400  -32.0800 C   0  0  0  0  0  0  0  0  0  0  0  0
   -4.9340   22.3140  -32.1980 C   0  0  0  0  0  0  0  0  0  0  0  0
   -5.2930   23.4080  -31.4490 C   0  0  0  0  0  0  0  0  0  0  0  0
   -4.6020   24.5510  -31.2160 N   0  0  0  0  0  0  0  0  0  0  0  0
   -5.1600   25.5100  -30.4170 C   0  0  0  0  0  0  0  0  0  0  0  0
   -6.4360   25.3090  -29.8400 C   0  0  0  0  0  0  0  0  0  0  0  0
   -7.1380   24.1160  -30.0900 C   0  0  0  0  0  0  0  0  0  0  0  0
   -6.5250   23.1770  -30.9140 C   0  0  0  0  0  0  0  0  0  0  0  0
   -6.9870   21.9730  -31.2890 N   0  0  0  0  0  0  0  0  0  0  0  0
   -7.2300   19.2710  -32.5220 C   0  0  0  0  0  0  0  0  0  0  0  0
   -8.3230   19.7560  -31.7850 O   0  0  0  0  0  0  0  0  0  0  0  0
   -9.4780   20.3660  -32.3510 C   0  0  0  0  0  0  0  0  0  0  0  0
   -7.2500   17.9900  -33.1100 C   0  0  0  0  0  0  0  0  0  0  0  0
   -5.7721   15.1716  -32.7423 H   0  0  0  0  0  0  0  0  0  0  0  0
   -6.3228   14.2026  -34.1510 H   0  0  0  0  0  0  0  0  0  0  0  0
   -4.6828   14.9355  -34.1510 H   0  0  0  0  0  0  0  0  0  0  0  0
   -4.2129   18.0227  -34.6758 H   0  0  0  0  0  0  0  0  0  0  0  0
   -4.1495   20.2810  -33.6403 H   0  0  0  0  0  0  0  0  0  0  0  0
   -4.0029   22.1599  -32.7630 H   0  0  0  0  0  0  0  0  0  0  0  0
   -4.6131   26.4442  -30.2215 H   0  0  0  0  0  0  0  0  0  0  0  0
   -6.8783   26.0842  -29.1971 H   0  0  0  0  0  0  0  0  0  0  0  0
   -8.1304   23.9329  -29.6523 H   0  0  0  0  0  0  0  0  0  0  0  0
   -7.8860   21.5330  -30.9920 H   0  0  0  0  0  0  0  0  0  0  0  0
  -10.1401   20.7157  -31.5452 H   0  0  0  0  0  0  0  0  0  0  0  0
   -9.1737   21.2210  -32.9726 H   0  0  0  0  0  0  0  0  0  0  0  0
  -10.0126   19.6326  -32.9726 H   0  0  0  0  0  0  0  0  0  0  0  0
   -8.1242   17.3392  -32.9610 H   0  0  0  0  0  0  0  0  0  0  0  0
  1  2  1  0
  2  3  1  0
  3  4  2  0
  4  5  1  0
  5  6  2  0
  6  7  1  0
  7  8  2  0
  8  9  1  0
  9 10  2  0
 10 11  1  0
 11 12  2  0
 12 13  1  0
 13 14  2  0
 14 15  1  0
  6 16  1  0
 16 17  1  0
 17 18  1  0
 16 19  2  0
 19  3  1  0
 15  7  1  0
 14  9  1  0
  1 20  1  0
  1 21  1  0
  1 22  1  0
  4 23  1  0
  5 24  1  0
  8 25  1  0
 11 26  1  0
 12 27  1  0
 13 28  1  0
 15 29  1  0
 18 30  1  0
 18 31  1  0
 18 32  1  0
 19 33  1  0
M  END
>  <UniqueID>  (20) 
18

>  <SMILES>  (20) 
COc1ccc(-c2cc3ncccc3[nH]2)c(OC)c1

>  <Energy>  (20) 
73.94152071888944

>  <Genealogy>  (20) 
COc1ccc(-c2cc3ncccc3[nH]2)c(OC)c1 (3D coordinates assigned)
COc1ccc(-c2cc3ncccc3[nH]2)c(OC)c1 (optimized conformer: 73.94152071888944 kcal/mol)

>  <smiles>  (20) 
COc1ccc(-c2cc3ncccc3[nH]2)c(OC)c1

>  <score_type>  (20) 
oracle

>  <origin>  (20) 
adgpu

>  <m_score__min__energy>  (20) 
-6.6699999999999999

>  <m_primary>  (20) 
energy

$$$$
20:0
     RDKit          3D

 40 41  0  0  0  0  0  0  0  0999 V2000
   -0.3110   23.5360  -24.9840 C   0  0  0  0  0  0  0  0  0  0  0  0
   -0.8170   22.7880  -26.0850 O   0  0  0  0  0  0  0  0  0  0  0  0
   -1.5210   23.3460  -27.1630 C   0  0  0  0  0  0  0  0  0  0  0  0
   -0.9230   24.3860  -27.8820 C   0  0  0  0  0  0  0  0  0  0  0  0
   -1.5870   24.9790  -28.9600 C   0  0  0  0  0  0  0  0  0  0  0  0
   -2.8670   24.5490  -29.3260 C   0  0  0  0  0  0  0  0  0  0  0  0
   -3.5180   25.1760  -30.4400 N   0  0  0  0  0  0  0  0  0  0  0  0
   -4.9130   25.0820  -30.7670 C   0  0  0  0  0  0  0  0  0  0  0  0
   -5.6540   26.0750  -30.5390 O   0  0  0  0  0  0  0  0  0  0  0  0
   -5.5080   23.8430  -31.3190 C   0  0  0  0  0  0  0  0  0  0  0  0
   -6.9000   23.6510  -31.3210 C   0  0  0  0  0  0  0  0  0  0  0  0
   -7.4510   22.4700  -31.8240 C   0  0  0  0  0  0  0  0  0  0  0  0
   -6.6210   21.4670  -32.3390 C   0  0  0  0  0  0  0  0  0  0  0  0
   -7.3160   19.9610  -32.9390 S   0  0  0  0  0  0  0  0  0  0  0  0
   -8.7110   20.2230  -33.4360 O   0  0  0  0  0  0  0  0  0  0  0  0
   -6.4970   19.4640  -34.0980 O   0  0  0  0  0  0  0  0  0  0  0  0
   -7.3630   18.7360  -31.6940 N   0  0  0  0  0  0  0  0  0  0  0  0
   -8.7460   18.5340  -31.2460 C   0  0  0  0  0  0  0  0  0  0  0  0
   -6.8100   17.4780  -32.2120 C   0  0  0  0  0  0  0  0  0  0  0  0
   -5.2340   21.6630  -32.3620 C   0  0  0  0  0  0  0  0  0  0  0  0
   -4.6800   22.8440  -31.8610 C   0  0  0  0  0  0  0  0  0  0  0  0
   -3.4620   23.4860  -28.6240 C   0  0  0  0  0  0  0  0  0  0  0  0
   -2.7990   22.8940  -27.5450 C   0  0  0  0  0  0  0  0  0  0  0  0
   -0.6300   23.0644  -24.0428 H   0  0  0  0  0  0  0  0  0  0  0  0
    0.7879   23.5574  -25.0294 H   0  0  0  0  0  0  0  0  0  0  0  0
   -0.7000   24.5639  -25.0294 H   0  0  0  0  0  0  0  0  0  0  0  0
    0.0785   24.7405  -27.5968 H   0  0  0  0  0  0  0  0  0  0  0  0
   -1.1001   25.7884  -29.5237 H   0  0  0  0  0  0  0  0  0  0  0  0
   -7.5603   24.4360  -30.9238 H   0  0  0  0  0  0  0  0  0  0  0  0
   -8.5417   22.3275  -31.8154 H   0  0  0  0  0  0  0  0  0  0  0  0
   -8.7783   18.5293  -30.1465 H   0  0  0  0  0  0  0  0  0  0  0  0
   -9.3779   19.3494  -31.6279 H   0  0  0  0  0  0  0  0  0  0  0  0
   -9.1183   17.5719  -31.6279 H   0  0  0  0  0  0  0  0  0  0  0  0
   -6.5247   16.8290  -31.3709 H   0  0  0  0  0  0  0  0  0  0  0  0
   -7.5677   16.9699  -32.8266 H   0  0  0  0  0  0  0  0  0  0  0  0
   -5.9233   17.6928  -32.8266 H   0  0  0  0  0  0  0  0  0  0  0  0
   -4.5779   20.8834  -32.7765 H   0  0  0  0  0  0  0  0  0  0  0  0
   -3.5905   22.9930  -31.8908 H   0  0  0  0  0  0  0  0  0  0  0  0
   -4.4540   23.1184  -28.9253 H   0  0  0  0  0  0  0  0  0  0  0  0
   -3.2773   22.0720  -26.9922 H   0  0  0  0  0  0  0  0  0  0  0  0
  1  2  1  0
  2  3  1  0
  3  4  2  0
  4  5  1  0
  5  6  2  0
  6  7  1  0
  7  8  1  0
  8  9  2  0
  8 10  1  0
 10 11  2  0
 11 12  1  0
 12 13  2  0
 13 14  1  0
 14 15  2  0
 14 16  2  0
 14 17  1  0
 17 18  1  0
 17 19  1  0
 13 20  1  0
 20 21  2  0
  6 22  1  0
 22 23  2  0
 23  3  1  0
 21 10  1  0
  1 24  1  0
  1 25  1  0
  1 26  1  0
  4 27  1  0
  5 28  1  0
 11 29  1  0
 12 30  1  0
 18 31  1  0
 18 32  1  0
 18 33  1  0
 19 34  1  0
 19 35  1  0
 19 36  1  0
 20 37  1  0
 21 38  1  0
 22 39  1  0
 23 40  1  0
M  CHG  1   7  -1
M  END
>  <UniqueID>  (21) 
19

>  <SMILES>  (21) 
COc1ccc([N-]C(=O)c2ccc(S(=O)(=O)N(C)C)cc2)cc1

>  <Energy>  (21) 
43.55274459045933

>  <Genealogy>  (21) 
COc1ccc([N-]C(=O)c2ccc(S(=O)(=O)N(C)C)cc2)cc1 (protonated)
COc1ccc([N-]C(=O)c2ccc(S(=O)(=O)N(C)C)cc2)cc1 (3D coordinates assigned)
COc1ccc([N-]C(=O)c2ccc(S(=O)(=O)N(C)C)cc2)cc1 (optimized conformer: 43.55274459045933 kcal/mol)

>  <smiles>  (21) 
COc1ccc(NC(=O)c2ccc(S(=O)(=O)N(C)C)cc2)cc1

>  <score_type>  (21) 
oracle

>  <origin>  (21) 
adgpu

>  <m_score__min__energy>  (21) 
-9.7300000000000004

>  <m_primary>  (21) 
energy

$$$$
21:0
     RDKit          3D

 38 41  0  0  0  0  0  0  0  0999 V2000
   -1.4110   25.8930  -28.6300 O   0  0  0  0  0  0  0  0  0  0  0  0
   -2.0650   24.8570  -29.2830 C   0  0  0  0  0  0  0  0  0  0  0  0
   -3.4450   24.9240  -29.4940 C   0  0  0  0  0  0  0  0  0  0  0  0
   -4.1060   23.8820  -30.1520 C   0  0  0  0  0  0  0  0  0  0  0  0
   -3.3890   22.7600  -30.6080 C   0  0  0  0  0  0  0  0  0  0  0  0
   -4.0860   21.6570  -31.3050 C   0  0  0  0  0  0  0  0  0  0  0  0
   -3.4450   20.7260  -32.0440 N   0  0  0  0  0  0  0  0  0  0  0  0
   -4.4280   19.9250  -32.4940 C   0  0  0  0  0  0  0  0  0  0  0  0
   -4.1760   18.7960  -33.4130 C   0  0  0  0  0  0  0  0  0  0  0  0
   -2.8580   18.4450  -33.7410 C   0  0  0  0  0  0  0  0  0  0  0  0
   -2.6060   17.3960  -34.6310 C   0  0  0  0  0  0  0  0  0  0  0  0
   -3.6720   16.6980  -35.2150 C   0  0  0  0  0  0  0  0  0  0  0  0
   -3.4350   15.6490  -36.1010 O   0  0  0  0  0  0  0  0  0  0  0  0
   -4.9890   17.0600  -34.9090 C   0  0  0  0  0  0  0  0  0  0  0  0
   -5.2410   18.1090  -34.0210 C   0  0  0  0  0  0  0  0  0  0  0  0
   -5.6430   20.3830  -32.0080 C   0  0  0  0  0  0  0  0  0  0  0  0
   -6.9750   19.7570  -32.1470 C   0  0  0  0  0  0  0  0  0  0  0  0
   -8.0770   20.5170  -32.5700 C   0  0  0  0  0  0  0  0  0  0  0  0
   -9.3310   19.9110  -32.6690 C   0  0  0  0  0  0  0  0  0  0  0  0
   -9.4810   18.5630  -32.3390 C   0  0  0  0  0  0  0  0  0  0  0  0
   -8.3670   17.8390  -31.9100 C   0  0  0  0  0  0  0  0  0  0  0  0
   -7.1540   18.4470  -31.8190 N   0  0  0  0  0  0  0  0  0  0  0  0
   -5.4240   21.4800  -31.2580 N   0  0  0  0  0  0  0  0  0  0  0  0
   -2.0010   22.7030  -30.3910 C   0  0  0  0  0  0  0  0  0  0  0  0
   -1.3440   23.7480  -29.7330 C   0  0  0  0  0  0  0  0  0  0  0  0
   -4.0123   25.7981  -29.1418 H   0  0  0  0  0  0  0  0  0  0  0  0
   -5.1925   23.9396  -30.3141 H   0  0  0  0  0  0  0  0  0  0  0  0
   -2.0179   18.9980  -33.2956 H   0  0  0  0  0  0  0  0  0  0  0  0
   -1.5695   17.1183  -34.8731 H   0  0  0  0  0  0  0  0  0  0  0  0
   -2.9360   14.8160  -35.8130 H   0  0  0  0  0  0  0  0  0  0  0  0
   -5.8280   16.5172  -35.3689 H   0  0  0  0  0  0  0  0  0  0  0  0
   -6.2782   18.3987  -33.7966 H   0  0  0  0  0  0  0  0  0  0  0  0
   -7.9536   21.5808  -32.8213 H   0  0  0  0  0  0  0  0  0  0  0  0
  -10.1997   20.4952  -33.0067 H   0  0  0  0  0  0  0  0  0  0  0  0
  -10.4649   18.0771  -32.4160 H   0  0  0  0  0  0  0  0  0  0  0  0
   -8.4705   16.7763  -31.6455 H   0  0  0  0  0  0  0  0  0  0  0  0
   -1.4283   21.8314  -30.7408 H   0  0  0  0  0  0  0  0  0  0  0  0
   -0.2574   23.6966  -29.5695 H   0  0  0  0  0  0  0  0  0  0  0  0
  1  2  1  0
  2  3  2  0
  3  4  1  0
  4  5  2  0
  5  6  1  0
  6  7  2  0
  7  8  1  0
  8  9  1  0
  9 10  2  0
 10 11  1  0
 11 12  2  0
 12 13  1  0
 12 14  1  0
 14 15  2  0
  8 16  2  0
 16 17  1  0
 17 18  2  0
 18 19  1  0
 19 20  2  0
 20 21  1  0
 21 22  2  0
 16 23  1  0
  5 24  1  0
 24 25  2  0
 25  2  1  0
 23  6  1  0
 15  9  1  0
 22 17  1  0
  3 26  1  0
  4 27  1  0
 10 28  1  0
 11 29  1  0
 13 30  1  0
 14 31  1  0
 15 32  1  0
 18 33  1  0
 19 34  1  0
 20 35  1  0
 21 36  1  0
 24 37  1  0
 25 38  1  0
M  CHG  2   1  -1  23  -1
M  END
>  <UniqueID>  (22) 
20

>  <SMILES>  (22) 
[O-]c1ccc(-c2nc(-c3ccc(O)cc3)c(-c3ccccn3)[n-]2)cc1

>  <Energy>  (22) 
78.23275296181792

>  <Genealogy>  (22) 
[O-]c1ccc(-c2nc(-c3ccc(O)cc3)c(-c3ccccn3)[n-]2)cc1 (protonated)
[O-]c1ccc(-c2nc(-c3ccc(O)cc3)c(-c3ccccn3)[n-]2)cc1 (3D coordinates assigned)
[O-]c1ccc(-c2nc(-c3ccc(O)cc3)c(-c3ccccn3)[n-]2)cc1 (optimized conformer: 78.23275296181792 kcal/mol)

>  <smiles>  (22) 
Oc1ccc(-c2nc(-c3ccc(O)cc3)c(-c3ccccn3)[nH]2)cc1

>  <score_type>  (22) 
oracle

>  <origin>  (22) 
adgpu

>  <m_score__min__energy>  (22) 
-8.6699999999999999

>  <m_primary>  (22) 
energy

$$$$
22:0
     RDKit          3D

 45 46  0  0  0  0  0  0  0  0999 V2000
   -3.2990   24.5540  -27.1000 C   0  0  0  0  0  0  0  0  0  0  0  0
   -2.2360   24.7940  -28.1580 C   0  0  0  0  0  0  0  0  0  0  0  0
   -2.8500   25.2820  -29.3480 O   0  0  0  0  0  0  0  0  0  0  0  0
   -3.8630   24.6120  -30.0520 C   0  0  0  0  0  0  0  0  0  0  0  0
   -5.1630   25.1160  -29.9840 C   0  0  0  0  0  0  0  0  0  0  0  0
   -6.2040   24.4930  -30.6730 C   0  0  0  0  0  0  0  0  0  0  0  0
   -5.9610   23.3400  -31.4430 C   0  0  0  0  0  0  0  0  0  0  0  0
   -6.9850   22.7050  -32.1650 O   0  0  0  0  0  0  0  0  0  0  0  0
   -8.3770   22.9470  -31.9830 C   0  0  0  0  0  0  0  0  0  0  0  0
   -8.9690   21.8560  -31.1040 C   0  0  0  0  0  0  0  0  0  0  0  0
   -4.6560   22.8120  -31.4970 C   0  0  0  0  0  0  0  0  0  0  0  0
   -4.2960   21.3710  -32.4530 S   0  0  0  0  0  0  0  0  0  0  0  0
   -3.6050   20.3750  -31.5650 O   0  0  0  0  0  0  0  0  0  0  0  0
   -3.4070   21.7140  -33.6150 O   0  0  0  0  0  0  0  0  0  0  0  0
   -5.7720   20.6980  -33.0720 N   0  0  0  0  0  0  0  0  0  0  0  0
   -5.9030   19.3080  -33.3960 C   0  0  0  0  0  0  0  0  0  0  0  0
   -4.9420   18.7100  -34.2250 C   0  0  0  0  0  0  0  0  0  0  0  0
   -5.0410   17.3600  -34.5660 C   0  0  0  0  0  0  0  0  0  0  0  0
   -6.0940   16.5910  -34.0720 C   0  0  0  0  0  0  0  0  0  0  0  0
   -7.0450   17.1660  -33.2260 C   0  0  0  0  0  0  0  0  0  0  0  0
   -6.9530   18.5260  -32.8680 C   0  0  0  0  0  0  0  0  0  0  0  0
   -7.8640   19.1200  -31.9800 O   0  0  0  0  0  0  0  0  0  0  0  0
   -9.1140   18.5510  -31.6030 C   0  0  0  0  0  0  0  0  0  0  0  0
   -3.6130   23.4590  -30.8170 C   0  0  0  0  0  0  0  0  0  0  0  0
   -2.8509   24.6552  -26.1005 H   0  0  0  0  0  0  0  0  0  0  0  0
   -4.1058   25.2926  -27.2166 H   0  0  0  0  0  0  0  0  0  0  0  0
   -3.7102   23.5404  -27.2166 H   0  0  0  0  0  0  0  0  0  0  0  0
   -1.5122   25.5354  -27.7886 H   0  0  0  0  0  0  0  0  0  0  0  0
   -1.7159   23.8494  -28.3753 H   0  0  0  0  0  0  0  0  0  0  0  0
   -5.3686   26.0130  -29.3814 H   0  0  0  0  0  0  0  0  0  0  0  0
   -7.2219   24.9058  -30.6141 H   0  0  0  0  0  0  0  0  0  0  0  0
   -8.5194   23.9250  -31.5000 H   0  0  0  0  0  0  0  0  0  0  0  0
   -8.8811   22.9449  -32.9607 H   0  0  0  0  0  0  0  0  0  0  0  0
   -8.8259   22.1198  -30.0457 H   0  0  0  0  0  0  0  0  0  0  0  0
  -10.0441   21.7579  -31.3153 H   0  0  0  0  0  0  0  0  0  0  0  0
   -8.4652   20.9012  -31.3153 H   0  0  0  0  0  0  0  0  0  0  0  0
   -6.6400   21.2690  -32.9580 H   0  0  0  0  0  0  0  0  0  0  0  0
   -4.1038   19.3098  -34.6093 H   0  0  0  0  0  0  0  0  0  0  0  0
   -4.2880   16.9027  -35.2247 H   0  0  0  0  0  0  0  0  0  0  0  0
   -6.1759   15.5296  -34.3491 H   0  0  0  0  0  0  0  0  0  0  0  0
   -7.8713   16.5533  -32.8365 H   0  0  0  0  0  0  0  0  0  0  0  0
   -9.1860   18.5182  -30.5058 H   0  0  0  0  0  0  0  0  0  0  0  0
   -9.9328   19.1651  -32.0060 H   0  0  0  0  0  0  0  0  0  0  0  0
   -9.1886   17.5302  -32.0060 H   0  0  0  0  0  0  0  0  0  0  0  0
   -2.5899   23.0604  -30.8830 H   0  0  0  0  0  0  0  0  0  0  0  0
  1  2  1  0
  2  3  1  0
  3  4  1  0
  4  5  2  0
  5  6  1  0
  6  7  2  0
  7  8  1  0
  8  9  1  0
  9 10  1  0
  7 11  1  0
 11 12  1  0
 12 13  2  0
 12 14  2  0
 12 15  1  0
 15 16  1  0
 16 17  2  0
 17 18  1  0
 18 19  2  0
 19 20  1  0
 20 21  2  0
 21 22  1  0
 22 23  1  0
 11 24  2  0
 24  4  1  0
 21 16  1  0
  1 25  1  0
  1 26  1  0
  1 27  1  0
  2 28  1  0
  2 29  1  0
  5 30  1  0
  6 31  1  0
  9 32  1  0
  9 33  1  0
 10 34  1  0
 10 35  1  0
 10 36  1  0
 15 37  1  0
 17 38  1  0
 18 39  1  0
 19 40  1  0
 20 41  1  0
 23 42  1  0
 23 43  1  0
 23 44  1  0
 24 45  1  0
M  END
>  <UniqueID>  (23) 
21

>  <SMILES>  (23) 
CCOc1ccc(OCC)c(S(=O)(=O)Nc2ccccc2OC)c1

>  <Energy>  (23) 
44.24810836312813

>  <Genealogy>  (23) 
CCOc1ccc(OCC)c(S(=O)(=O)Nc2ccccc2OC)c1 (3D coordinates assigned)
CCOc1ccc(OCC)c(S(=O)(=O)Nc2ccccc2OC)c1 (optimized conformer: 44.24810836312813 kcal/mol)

>  <smiles>  (23) 
CCOc1ccc(OCC)c(S(=O)(=O)Nc2ccccc2OC)c1

>  <score_type>  (23) 
oracle

>  <origin>  (23) 
adgpu

>  <m_score__min__energy>  (23) 
-8.4100000000000001

>  <m_primary>  (23) 
energy

$$$$
23:0
     RDKit          3D

 32 34  0  0  0  0  0  0  0  0999 V2000
   -7.0140   17.7280  -31.4470 O   0  0  0  0  0  0  0  0  0  0  0  0
   -7.3860   18.7010  -32.5300 S   0  0  0  0  0  0  0  0  0  0  0  0
   -8.8770   18.6680  -32.7190 O   0  0  0  0  0  0  0  0  0  0  0  0
   -6.9260   20.3190  -32.0290 C   0  0  0  0  0  0  0  0  0  0  0  0
   -7.7460   21.4360  -32.0690 C   0  0  0  0  0  0  0  0  0  0  0  0
   -7.1050   22.6010  -31.6310 C   0  0  0  0  0  0  0  0  0  0  0  0
   -5.7820   22.3900  -31.2520 C   0  0  0  0  0  0  0  0  0  0  0  0
   -4.8470   23.4100  -30.7530 C   0  0  0  0  0  0  0  0  0  0  0  0
   -3.8940   23.2410  -29.7710 C   0  0  0  0  0  0  0  0  0  0  0  0
   -3.2900   24.4740  -29.6740 C   0  0  0  0  0  0  0  0  0  0  0  0
   -3.8570   25.3230  -30.5520 N   0  0  0  0  0  0  0  0  0  0  0  0
   -4.8060   24.6750  -31.2100 N   0  0  0  0  0  0  0  0  0  0  0  0
   -5.4080   20.7620  -31.4610 S   0  0  0  0  0  0  0  0  0  0  0  0
   -6.5740   18.3030  -34.0310 N   0  0  0  0  0  0  0  0  0  0  0  0
   -5.2470   18.9620  -34.1280 C   0  0  0  0  0  0  0  0  0  0  0  0
   -4.0880   18.0250  -33.7380 C   0  0  0  0  0  0  0  0  0  0  0  0
   -4.5060   17.1110  -32.7500 O   0  0  0  0  0  0  0  0  0  0  0  0
   -5.4340   16.1890  -33.2950 C   0  0  0  0  0  0  0  0  0  0  0  0
   -6.4850   16.8430  -34.2270 C   0  0  0  0  0  0  0  0  0  0  0  0
   -8.7916   21.4097  -32.4095 H   0  0  0  0  0  0  0  0  0  0  0  0
   -7.5970   23.5840  -31.5904 H   0  0  0  0  0  0  0  0  0  0  0  0
   -3.6683   22.3302  -29.1970 H   0  0  0  0  0  0  0  0  0  0  0  0
   -2.4704   24.7269  -28.9853 H   0  0  0  0  0  0  0  0  0  0  0  0
   -7.1800   18.6840  -34.7960 H   0  0  0  0  0  0  0  0  0  0  0  0
   -5.0953   19.2968  -35.1648 H   0  0  0  0  0  0  0  0  0  0  0  0
   -5.2431   19.8065  -33.4232 H   0  0  0  0  0  0  0  0  0  0  0  0
   -3.7556   17.4701  -34.6277 H   0  0  0  0  0  0  0  0  0  0  0  0
   -3.2602   18.6289  -33.3379 H   0  0  0  0  0  0  0  0  0  0  0  0
   -4.8776   15.4362  -33.8727 H   0  0  0  0  0  0  0  0  0  0  0  0
   -5.9829   15.7470  -32.4504 H   0  0  0  0  0  0  0  0  0  0  0  0
   -6.2052   16.6425  -35.2718 H   0  0  0  0  0  0  0  0  0  0  0  0
   -7.4666   16.4098  -33.9845 H   0  0  0  0  0  0  0  0  0  0  0  0
  1  2  2  0
  2  3  2  0
  2  4  1  0
  4  5  2  0
  5  6  1  0
  6  7  2  0
  7  8  1  0
  8  9  1  0
  9 10  2  0
 10 11  1  0
 11 12  1  0
  7 13  1  0
  2 14  1  0
 14 15  1  0
 15 16  1  0
 16 17  1  0
 17 18  1  0
 18 19  1  0
 13  4  1  0
 19 14  1  0
 12  8  2  0
  5 20  1  0
  6 21  1  0
  9 22  1  0
 10 23  1  0
 14 24  1  0
 15 25  1  0
 15 26  1  0
 16 27  1  0
 16 28  1  0
 18 29  1  0
 18 30  1  0
 19 31  1  0
 19 32  1  0
M  CHG  2  11  -1  14   1
M  END
>  <UniqueID>  (24) 
22

>  <SMILES>  (24) 
O=S(=O)(c1ccc(-c2cc[n-]n2)s1)[NH+]1CCOCC1

>  <Energy>  (24) 
98.53836262755465

>  <Genealogy>  (24) 
O=S(=O)(c1ccc(-c2cc[n-]n2)s1)[NH+]1CCOCC1 (protonated)
O=S(=O)(c1ccc(-c2cc[n-]n2)s1)[NH+]1CCOCC1 (3D coordinates assigned)
O=S(=O)(c1ccc(-c2cc[n-]n2)s1)[NH+]1CCOCC1 (nonaromatic ring conformer: 98.53836262755465 kcal/mol)

>  <smiles>  (24) 
O=S(=O)(c1ccc(-c2cc[nH]n2)s1)N1CCOCC1

>  <score_type>  (24) 
oracle

>  <origin>  (24) 
adgpu

>  <m_score__min__energy>  (24) 
-9.5399999999999991

>  <m_primary>  (24) 
energy

$$$$
24:0
     RDKit          3D

 55 57  0  0  0  0  0  0  0  0999 V2000
   -2.5700   19.2120  -26.6690 C   0  0  0  0  0  0  0  0  0  0  0  0
   -1.3720   19.5460  -27.3640 O   0  0  0  0  0  0  0  0  0  0  0  0
   -1.2940   20.4260  -28.4550 C   0  0  0  0  0  0  0  0  0  0  0  0
   -1.8720   21.7080  -28.3880 C   0  0  0  0  0  0  0  0  0  0  0  0
   -1.7520   22.6120  -29.4520 C   0  0  0  0  0  0  0  0  0  0  0  0
   -2.3070   23.9840  -29.3470 C   0  0  0  0  0  0  0  0  0  0  0  0
   -1.5210   24.9680  -29.3330 O   0  0  0  0  0  0  0  0  0  0  0  0
   -3.7200   24.2370  -29.3000 N   0  0  0  0  0  0  0  0  0  0  0  0
   -4.7090   23.7200  -30.2050 C   0  0  0  0  0  0  0  0  0  0  0  0
   -4.5510   22.4660  -30.8200 C   0  0  0  0  0  0  0  0  0  0  0  0
   -5.4950   21.9950  -31.7480 C   0  0  0  0  0  0  0  0  0  0  0  0
   -5.2870   20.6990  -32.4410 C   0  0  0  0  0  0  0  0  0  0  0  0
   -3.9920   20.2700  -32.7730 C   0  0  0  0  0  0  0  0  0  0  0  0
   -3.7910   19.0420  -33.4100 C   0  0  0  0  0  0  0  0  0  0  0  0
   -4.8800   18.2080  -33.7330 C   0  0  0  0  0  0  0  0  0  0  0  0
   -4.6720   16.9320  -34.3930 N   0  0  0  0  0  0  0  0  0  0  0  0
   -5.5910   15.8110  -34.1570 C   0  0  0  0  0  0  0  0  0  0  0  0
   -3.5380   16.7400  -35.3060 C   0  0  0  0  0  0  0  0  0  0  0  0
   -6.1780   18.6470  -33.3980 C   0  0  0  0  0  0  0  0  0  0  0  0
   -6.3760   19.8740  -32.7600 C   0  0  0  0  0  0  0  0  0  0  0  0
   -6.6290   22.7770  -32.0210 C   0  0  0  0  0  0  0  0  0  0  0  0
   -6.8150   24.0030  -31.3780 C   0  0  0  0  0  0  0  0  0  0  0  0
   -5.8620   24.4750  -30.4700 C   0  0  0  0  0  0  0  0  0  0  0  0
   -6.1140   26.0350  -29.7000 Cl  0  0  0  0  0  0  0  0  0  0  0  0
   -1.0990   22.2080  -30.6210 C   0  0  0  0  0  0  0  0  0  0  0  0
   -0.5330   20.9250  -30.7210 C   0  0  0  0  0  0  0  0  0  0  0  0
    0.1330   20.4970  -31.8810 O   0  0  0  0  0  0  0  0  0  0  0  0
   -0.4430   20.4730  -33.1840 C   0  0  0  0  0  0  0  0  0  0  0  0
   -0.6210   20.0320  -29.6400 C   0  0  0  0  0  0  0  0  0  0  0  0
   -0.0150   18.7710  -29.8120 O   0  0  0  0  0  0  0  0  0  0  0  0
    0.8270   18.1000  -28.8820 C   0  0  0  0  0  0  0  0  0  0  0  0
   -2.3910   19.2619  -25.5848 H   0  0  0  0  0  0  0  0  0  0  0  0
   -3.3632   19.9233  -26.9428 H   0  0  0  0  0  0  0  0  0  0  0  0
   -2.8808   18.1930  -26.9428 H   0  0  0  0  0  0  0  0  0  0  0  0
   -2.4268   22.0049  -27.4858 H   0  0  0  0  0  0  0  0  0  0  0  0
   -3.6773   21.8456  -30.5716 H   0  0  0  0  0  0  0  0  0  0  0  0
   -3.1280   20.9058  -32.5297 H   0  0  0  0  0  0  0  0  0  0  0  0
   -2.7692   18.7225  -33.6625 H   0  0  0  0  0  0  0  0  0  0  0  0
   -5.7148   15.6600  -33.0745 H   0  0  0  0  0  0  0  0  0  0  0  0
   -6.5678   16.0361  -34.6099 H   0  0  0  0  0  0  0  0  0  0  0  0
   -5.1787   14.8973  -34.6099 H   0  0  0  0  0  0  0  0  0  0  0  0
   -2.6191   16.5844  -34.7217 H   0  0  0  0  0  0  0  0  0  0  0  0
   -3.7227   15.8603  -35.9401 H   0  0  0  0  0  0  0  0  0  0  0  0
   -3.4228   17.6314  -35.9401 H   0  0  0  0  0  0  0  0  0  0  0  0
   -7.0450   18.0155  -33.6421 H   0  0  0  0  0  0  0  0  0  0  0  0
   -7.3963   20.1966  -32.5051 H   0  0  0  0  0  0  0  0  0  0  0  0
   -7.3759   22.4217  -32.7462 H   0  0  0  0  0  0  0  0  0  0  0  0
   -7.7151   24.5998  -31.5868 H   0  0  0  0  0  0  0  0  0  0  0  0
   -1.0275   22.9018  -31.4716 H   0  0  0  0  0  0  0  0  0  0  0  0
   -1.5388   20.4273  -33.0997 H   0  0  0  0  0  0  0  0  0  0  0  0
   -0.1548   21.3839  -33.7291 H   0  0  0  0  0  0  0  0  0  0  0  0
   -0.0800   19.5892  -33.7291 H   0  0  0  0  0  0  0  0  0  0  0  0
    0.5138   18.3496  -27.8575 H   0  0  0  0  0  0  0  0  0  0  0  0
    0.7493   17.0134  -29.0347 H   0  0  0  0  0  0  0  0  0  0  0  0
    1.8688   18.4182  -29.0347 H   0  0  0  0  0  0  0  0  0  0  0  0
  1  2  1  0
  2  3  1  0
  3  4  2  0
  4  5  1  0
  5  6  1  0
  6  7  2  0
  6  8  1  0
  8  9  1  0
  9 10  2  0
 10 11  1  0
 11 12  1  0
 12 13  2  0
 13 14  1  0
 14 15  2  0
 15 16  1  0
 16 17  1  0
 16 18  1  0
 15 19  1  0
 19 20  2  0
 11 21  2  0
 21 22  1  0
 22 23  2  0
 23 24  1  0
  5 25  2  0
 25 26  1  0
 26 27  1  0
 27 28  1  0
 26 29  2  0
 29 30  1  0
 30 31  1  0
 29  3  1  0
 23  9  1  0
 20 12  1  0
  1 32  1  0
  1 33  1  0
  1 34  1  0
  4 35  1  0
 10 36  1  0
 13 37  1  0
 14 38  1  0
 17 39  1  0
 17 40  1  0
 17 41  1  0
 18 42  1  0
 18 43  1  0
 18 44  1  0
 19 45  1  0
 20 46  1  0
 21 47  1  0
 22 48  1  0
 25 49  1  0
 28 50  1  0
 28 51  1  0
 28 52  1  0
 31 53  1  0
 31 54  1  0
 31 55  1  0
M  CHG  1   8  -1
M  END
>  <UniqueID>  (25) 
23

>  <SMILES>  (25) 
COc1cc(C(=O)[N-]c2cc(-c3ccc(N(C)C)cc3)ccc2Cl)cc(OC)c1OC

>  <Energy>  (25) 
71.16882542531107

>  <Genealogy>  (25) 
COc1cc(C(=O)[N-]c2cc(-c3ccc(N(C)C)cc3)ccc2Cl)cc(OC)c1OC (protonated)
COc1cc(C(=O)[N-]c2cc(-c3ccc(N(C)C)cc3)ccc2Cl)cc(OC)c1OC (3D coordinates assigned)
COc1cc(C(=O)[N-]c2cc(-c3ccc(N(C)C)cc3)ccc2Cl)cc(OC)c1OC (optimized conformer: 71.16882542531107 kcal/mol)

>  <smiles>  (25) 
COc1cc(C(=O)Nc2cc(-c3ccc(N(C)C)cc3)ccc2Cl)cc(OC)c1OC

>  <score_type>  (25) 
oracle

>  <origin>  (25) 
adgpu

>  <m_score__min__energy>  (25) 
-10.1

>  <m_primary>  (25) 
energy

$$$$
25:0
     RDKit          3D

 30 33  0  0  0  0  0  0  0  0999 V2000
   -3.1650   25.2650  -31.5870 H   0  0  0  0  0  0  0  0  0  0  0  0
   -3.8630   25.5810  -30.8780 N   0  0  0  0  0  0  0  0  0  0  0  0
   -4.9200   24.8780  -30.6300 C   0  0  0  0  0  0  0  0  0  0  0  0
   -5.2100   23.7440  -31.2180 O   0  0  0  0  0  0  0  0  0  0  0  0
   -6.3530   23.3740  -30.6770 C   0  0  0  0  0  0  0  0  0  0  0  0
   -7.0780   22.1390  -31.0300 C   0  0  0  0  0  0  0  0  0  0  0  0
   -8.4100   21.9490  -30.5840 C   0  0  0  0  0  0  0  0  0  0  0  0
   -8.9014   22.7331  -29.9893 H   0  0  0  0  0  0  0  0  0  0  0  0
   -9.1100   20.7700  -30.8930 C   0  0  0  0  0  0  0  0  0  0  0  0
  -10.1396   20.6127  -30.5391 H   0  0  0  0  0  0  0  0  0  0  0  0
   -8.4600   19.8070  -31.6610 C   0  0  0  0  0  0  0  0  0  0  0  0
   -7.1800   19.9890  -32.1200 C   0  0  0  0  0  0  0  0  0  0  0  0
   -6.4500   21.1370  -31.8050 C   0  0  0  0  0  0  0  0  0  0  0  0
   -5.4129   21.2586  -32.1510 H   0  0  0  0  0  0  0  0  0  0  0  0
   -6.8420   18.8410  -32.8220 C   0  0  0  0  0  0  0  0  0  0  0  0
   -5.5860   18.5280  -33.5310 C   0  0  0  0  0  0  0  0  0  0  0  0
   -4.3740   19.1390  -33.2190 C   0  0  0  0  0  0  0  0  0  0  0  0
   -4.2199   19.9132  -32.4529 H   0  0  0  0  0  0  0  0  0  0  0  0
   -3.1890   18.4890  -34.2150 S   0  0  0  0  0  0  0  0  0  0  0  0
   -4.1870   17.4200  -35.0400 C   0  0  0  0  0  0  0  0  0  0  0  0
   -3.8742   16.7298  -35.8373 H   0  0  0  0  0  0  0  0  0  0  0  0
   -5.4740   17.5580  -34.5420 C   0  0  0  0  0  0  0  0  0  0  0  0
   -6.3265   16.9645  -34.9040 H   0  0  0  0  0  0  0  0  0  0  0  0
   -7.9560   18.0070  -32.7300 C   0  0  0  0  0  0  0  0  0  0  0  0
   -8.0231   17.0006  -33.1689 H   0  0  0  0  0  0  0  0  0  0  0  0
   -8.9410   18.6070  -32.0270 N   0  0  0  0  0  0  0  0  0  0  0  0
   -9.8820   18.2100  -31.8060 H   0  0  0  0  0  0  0  0  0  0  0  0
   -6.7750   24.2710  -29.7550 N   0  0  0  0  0  0  0  0  0  0  0  0
   -5.8560   25.2220  -29.7350 N   0  0  0  0  0  0  0  0  0  0  0  0
   -5.8810   26.0700  -29.1260 H   0  0  0  0  0  0  0  0  0  0  0  0
  1  2  1  0
  2  3  2  0
  3  4  1  0
  4  5  1  0
  5  6  1  0
  6  7  2  0
  7  8  1  0
  7  9  1  0
  9 10  1  0
  9 11  2  0
 11 12  1  0
 12 13  2  0
 13 14  1  0
 12 15  1  0
 15 16  1  0
 16 17  2  0
 17 18  1  0
 17 19  1  0
 19 20  1  0
 20 21  1  0
 20 22  2  0
 22 23  1  0
 15 24  2  0
 24 25  1  0
 24 26  1  0
 26 27  1  0
  5 28  2  0
 28 29  1  0
 29 30  1  0
 29  3  1  0
 13  6  1  0
 22 16  1  0
 26 11  1  0
M  END
>  <UniqueID>  (26) 
24

>  <SMILES>  (26) 
[H]/N=c1/[nH]nc(-c2ccc3[nH]cc(-c4ccsc4)c3c2)o1

>  <Energy>  (26) 
132.5895798831769

>  <Genealogy>  (26) 
[H]/N=c1/[nH]nc(-c2ccc3[nH]cc(-c4ccsc4)c3c2)o1 (cis-trans isomerization)
[H]/N=c1/[nH]nc(-c2ccc3[nH]cc(-c4ccsc4)c3c2)o1 (3D coordinates assigned)
[H]/N=c1/[nH]nc(-c2ccc3[nH]cc(-c4ccsc4)c3c2)o1 (optimized conformer: 132.5895798831769 kcal/mol)

>  <smiles>  (26) 
N=c1[nH]nc(-c2ccc3[nH]cc(-c4ccsc4)c3c2)o1

>  <score_type>  (26) 
oracle

>  <origin>  (26) 
adgpu

>  <m_score__min__energy>  (26) 
-8.5899999999999999

>  <m_primary>  (26) 
energy

$$$$
26:0
     RDKit          3D

 38 39  0  0  0  0  0  0  0  0999 V2000
   -8.2220   19.1000  -32.4090 C   0  0  0  0  0  0  0  0  0  0  0  0
   -7.3470   20.2430  -32.9170 C   0  0  0  0  0  0  0  0  0  0  0  0
   -7.6620   21.4960  -32.2120 N   0  0  0  0  0  0  0  0  0  0  0  0
   -9.0700   21.8450  -31.9700 C   0  0  0  0  0  0  0  0  0  0  0  0
   -9.4580   21.5810  -30.5160 C   0  0  0  0  0  0  0  0  0  0  0  0
   -6.6060   22.3750  -31.7550 C   0  0  0  0  0  0  0  0  0  0  0  0
   -5.2580   21.9800  -31.8280 C   0  0  0  0  0  0  0  0  0  0  0  0
   -4.2430   22.8350  -31.3870 C   0  0  0  0  0  0  0  0  0  0  0  0
   -4.5540   24.0870  -30.8510 C   0  0  0  0  0  0  0  0  0  0  0  0
   -3.4880   24.9460  -30.4220 N   0  0  0  0  0  0  0  0  0  0  0  0
   -2.6010   24.7060  -29.3210 C   0  0  0  0  0  0  0  0  0  0  0  0
   -1.8150   25.6220  -28.9640 O   0  0  0  0  0  0  0  0  0  0  0  0
   -2.5390   23.3950  -28.6490 C   0  0  0  0  0  0  0  0  0  0  0  0
   -3.5960   22.7560  -28.0250 C   0  0  0  0  0  0  0  0  0  0  0  0
   -3.0860   21.5720  -27.5330 C   0  0  0  0  0  0  0  0  0  0  0  0
   -1.7510   21.5740  -27.8890 C   0  0  0  0  0  0  0  0  0  0  0  0
   -0.8070   20.5410  -27.5980 N   0  0  0  0  0  0  0  0  0  0  0  0
    0.4190   20.7670  -27.6570 O   0  0  0  0  0  0  0  0  0  0  0  0
   -1.2490   19.2900  -27.2410 O   0  0  0  0  0  0  0  0  0  0  0  0
   -1.4510   22.6680  -28.5460 O   0  0  0  0  0  0  0  0  0  0  0  0
   -5.8950   24.5010  -30.8030 C   0  0  0  0  0  0  0  0  0  0  0  0
   -6.9110   23.6480  -31.2410 C   0  0  0  0  0  0  0  0  0  0  0  0
   -8.2224   19.0995  -31.3090 H   0  0  0  0  0  0  0  0  0  0  0  0
   -9.2502   19.2344  -32.7760 H   0  0  0  0  0  0  0  0  0  0  0  0
   -7.8239   18.1425  -32.7760 H   0  0  0  0  0  0  0  0  0  0  0  0
   -6.2898   19.9903  -32.7482 H   0  0  0  0  0  0  0  0  0  0  0  0
   -7.5403   20.3845  -33.9906 H   0  0  0  0  0  0  0  0  0  0  0  0
   -9.2198   22.9114  -32.1942 H   0  0  0  0  0  0  0  0  0  0  0  0
   -9.7020   21.2218  -32.6198 H   0  0  0  0  0  0  0  0  0  0  0  0
   -8.7351   22.0728  -29.8485 H   0  0  0  0  0  0  0  0  0  0  0  0
  -10.4644   21.9826  -30.3263 H   0  0  0  0  0  0  0  0  0  0  0  0
   -9.4539   20.4975  -30.3263 H   0  0  0  0  0  0  0  0  0  0  0  0
   -5.0002   20.9911  -32.2350 H   0  0  0  0  0  0  0  0  0  0  0  0
   -3.1920   22.5193  -31.4627 H   0  0  0  0  0  0  0  0  0  0  0  0
   -4.6312   23.1179  -27.9388 H   0  0  0  0  0  0  0  0  0  0  0  0
   -3.6269   20.7927  -26.9761 H   0  0  0  0  0  0  0  0  0  0  0  0
   -6.1464   25.5007  -30.4191 H   0  0  0  0  0  0  0  0  0  0  0  0
   -7.9596   23.9752  -31.1833 H   0  0  0  0  0  0  0  0  0  0  0  0
  1  2  1  0
  2  3  1  0
  3  4  1  0
  4  5  1  0
  3  6  1  0
  6  7  2  0
  7  8  1  0
  8  9  2  0
  9 10  1  0
 10 11  1  0
 11 12  2  0
 11 13  1  0
 13 14  2  0
 14 15  1  0
 15 16  2  0
 16 17  1  0
 17 18  2  0
 17 19  1  0
 16 20  1  0
  9 21  1  0
 21 22  2  0
 22  6  1  0
 20 13  1  0
  1 23  1  0
  1 24  1  0
  1 25  1  0
  2 26  1  0
  2 27  1  0
  4 28  1  0
  4 29  1  0
  5 30  1  0
  5 31  1  0
  5 32  1  0
  7 33  1  0
  8 34  1  0
 14 35  1  0
 15 36  1  0
 21 37  1  0
 22 38  1  0
M  CHG  3  10  -1  17   1  19  -1
M  END
>  <UniqueID>  (27) 
25

>  <SMILES>  (27) 
CCN(CC)c1ccc([N-]C(=O)c2ccc([N+](=O)[O-])o2)cc1

>  <Energy>  (27) 
65.31402536264648

>  <Genealogy>  (27) 
CCN(CC)c1ccc([N-]C(=O)c2ccc([N+](=O)[O-])o2)cc1 (protonated)
CCN(CC)c1ccc([N-]C(=O)c2ccc([N+](=O)[O-])o2)cc1 (3D coordinates assigned)
CCN(CC)c1ccc([N-]C(=O)c2ccc([N+](=O)[O-])o2)cc1 (optimized conformer: 65.31402536264648 kcal/mol)

>  <smiles>  (27) 
CCN(CC)c1ccc(NC(=O)c2ccc([N+](=O)[O-])o2)cc1

>  <score_type>  (27) 
oracle

>  <origin>  (27) 
adgpu

>  <m_score__min__energy>  (27) 
-8.5800000000000001

>  <m_primary>  (27) 
energy

$$$$
27:0
     RDKit          3D

 33 34  0  0  0  0  0  0  0  0999 V2000
   -6.0900   25.6240  -29.4690 C   0  0  0  0  0  0  0  0  0  0  0  0
   -5.2720   25.3560  -30.7430 C   0  0  0  0  0  0  0  0  0  0  0  0
   -3.9540   25.3690  -30.4970 O   0  0  0  0  0  0  0  0  0  0  0  0
   -3.3120   24.0320  -30.0900 C   0  0  0  0  0  0  0  0  0  0  0  0
   -2.2660   24.2370  -29.3410 C   0  0  0  0  0  0  0  0  0  0  0  0
   -1.6100   23.0540  -28.9190 C   0  0  0  0  0  0  0  0  0  0  0  0
   -2.2860   21.9610  -29.4360 C   0  0  0  0  0  0  0  0  0  0  0  0
   -1.5120   20.4010  -28.9490 Cl  0  0  0  0  0  0  0  0  0  0  0  0
   -3.3390   21.9080  -30.1860 C   0  0  0  0  0  0  0  0  0  0  0  0
   -4.1720   23.2850  -30.7280 C   0  0  0  0  0  0  0  0  0  0  0  0
   -5.0560   22.5180  -31.3830 C   0  0  0  0  0  0  0  0  0  0  0  0
   -5.9900   22.0780  -30.4200 O   0  0  0  0  0  0  0  0  0  0  0  0
   -5.4850   21.9540  -32.5550 N   0  0  0  0  0  0  0  0  0  0  0  0
   -6.6760   21.1360  -32.5030 C   0  0  0  0  0  0  0  0  0  0  0  0
   -6.4470   19.7730  -32.6290 C   0  0  0  0  0  0  0  0  0  0  0  0
   -7.5280   18.9080  -32.5800 C   0  0  0  0  0  0  0  0  0  0  0  0
   -8.8140   19.4300  -32.4050 C   0  0  0  0  0  0  0  0  0  0  0  0
   -9.8390   18.5370  -32.3650 F   0  0  0  0  0  0  0  0  0  0  0  0
   -8.9940   20.7910  -32.2830 C   0  0  0  0  0  0  0  0  0  0  0  0
   -7.9310   21.6730  -32.3300 C   0  0  0  0  0  0  0  0  0  0  0  0
   -5.4685   25.4204  -28.5846 H   0  0  0  0  0  0  0  0  0  0  0  0
   -6.4138   26.6752  -29.4555 H   0  0  0  0  0  0  0  0  0  0  0  0
   -6.9730   24.9682  -29.4555 H   0  0  0  0  0  0  0  0  0  0  0  0
   -5.5501   24.3705  -31.1447 H   0  0  0  0  0  0  0  0  0  0  0  0
   -5.4939   26.1534  -31.4675 H   0  0  0  0  0  0  0  0  0  0  0  0
   -1.9213   25.2431  -29.0600 H   0  0  0  0  0  0  0  0  0  0  0  0
   -0.7119   23.0107  -28.2853 H   0  0  0  0  0  0  0  0  0  0  0  0
   -3.7143   20.9192  -30.4884 H   0  0  0  0  0  0  0  0  0  0  0  0
   -4.9980   22.0810  -33.4300 H   0  0  0  0  0  0  0  0  0  0  0  0
   -5.4261   19.3867  -32.7652 H   0  0  0  0  0  0  0  0  0  0  0  0
   -7.3768   17.8228  -32.6776 H   0  0  0  0  0  0  0  0  0  0  0  0
  -10.0113   21.1859  -32.1445 H   0  0  0  0  0  0  0  0  0  0  0  0
   -8.0818   22.7583  -32.2332 H   0  0  0  0  0  0  0  0  0  0  0  0
  1  2  1  0
  2  3  1  0
  3  4  1  0
  4  5  2  0
  5  6  1  0
  6  7  2  0
  7  8  1  0
  7  9  1  0
  9 10  2  0
 10 11  1  0
 11 12  2  0
 11 13  1  0
 13 14  1  0
 14 15  2  0
 15 16  1  0
 16 17  2  0
 17 18  1  0
 17 19  1  0
 19 20  2  0
 10  4  1  0
 20 14  1  0
  1 21  1  0
  1 22  1  0
  1 23  1  0
  2 24  1  0
  2 25  1  0
  5 26  1  0
  6 27  1  0
  9 28  1  0
 13 29  1  0
 15 30  1  0
 16 31  1  0
 19 32  1  0
 20 33  1  0
M  END
>  <UniqueID>  (28) 
26

>  <SMILES>  (28) 
CCOc1ccc(Cl)cc1C(=O)Nc1ccc(F)cc1

>  <Energy>  (28) 
453.0349546373198

>  <Genealogy>  (28) 
CCOc1ccc(Cl)cc1C(=O)Nc1ccc(F)cc1 (3D coordinates assigned)
CCOc1ccc(Cl)cc1C(=O)Nc1ccc(F)cc1 (optimized conformer: 453.0349546373198 kcal/mol)

>  <smiles>  (28) 
CCOc1ccc(Cl)cc1C(=O)Nc1ccc(F)cc1

>  <score_type>  (28) 
oracle

>  <origin>  (28) 
adgpu

>  <m_score__min__energy>  (28) 
-7.7000000000000002

>  <m_primary>  (28) 
energy

$$$$
28:0
     RDKit          3D

 54 57  0  0  0  0  0  0  0  0999 V2000
   -4.8100   24.6550  -28.3590 N   0  0  0  0  0  0  0  0  0  0  0  0
   -5.1560   25.0470  -30.0070 S   0  0  0  0  0  0  0  0  0  0  0  0
   -3.8670   25.1320  -30.7750 O   0  0  0  0  0  0  0  0  0  0  0  0
   -5.8480   26.3790  -30.0740 O   0  0  0  0  0  0  0  0  0  0  0  0
   -6.1980   23.8090  -30.7050 C   0  0  0  0  0  0  0  0  0  0  0  0
   -6.1440   23.5230  -32.0780 C   0  0  0  0  0  0  0  0  0  0  0  0
   -6.9710   22.5350  -32.6220 C   0  0  0  0  0  0  0  0  0  0  0  0
   -7.8650   21.8260  -31.7970 C   0  0  0  0  0  0  0  0  0  0  0  0
   -8.7100   20.7860  -32.3100 N   0  0  0  0  0  0  0  0  0  0  0  0
   -8.4150   19.3850  -32.3360 C   0  0  0  0  0  0  0  0  0  0  0  0
   -9.3410   18.5400  -32.4130 O   0  0  0  0  0  0  0  0  0  0  0  0
   -6.9960   18.9200  -32.2580 C   0  0  0  0  0  0  0  0  0  0  0  0
   -6.1180   19.2250  -33.8370 S   0  0  0  0  0  0  0  0  0  0  0  0
   -4.7170   20.0490  -33.0770 C   0  0  0  0  0  0  0  0  0  0  0  0
   -3.5760   20.2450  -33.7870 N   0  0  0  0  0  0  0  0  0  0  0  0
   -2.4950   20.8460  -33.2290 C   0  0  0  0  0  0  0  0  0  0  0  0
   -1.4450   20.9900  -33.9120 O   0  0  0  0  0  0  0  0  0  0  0  0
   -2.5520   21.2940  -31.8990 C   0  0  0  0  0  0  0  0  0  0  0  0
   -3.7410   21.0700  -31.1780 C   0  0  0  0  0  0  0  0  0  0  0  0
   -4.7950   20.4680  -31.7890 N   0  0  0  0  0  0  0  0  0  0  0  0
   -3.9060   21.5690  -29.7670 C   0  0  0  0  0  0  0  0  0  0  0  0
   -2.5550   21.8650  -29.1090 C   0  0  0  0  0  0  0  0  0  0  0  0
   -1.7290   22.6690  -30.0250 N   0  0  0  0  0  0  0  0  0  0  0  0
   -0.5680   23.3020  -29.3540 C   0  0  0  0  0  0  0  0  0  0  0  0
   -0.9020   23.9360  -28.0190 C   0  0  0  0  0  0  0  0  0  0  0  0
   -0.4500   23.3510  -26.8210 C   0  0  0  0  0  0  0  0  0  0  0  0
   -0.7740   23.9270  -25.5880 C   0  0  0  0  0  0  0  0  0  0  0  0
   -1.5460   25.0910  -25.5390 C   0  0  0  0  0  0  0  0  0  0  0  0
   -1.9860   25.6870  -26.7240 C   0  0  0  0  0  0  0  0  0  0  0  0
   -1.6650   25.1160  -27.9590 C   0  0  0  0  0  0  0  0  0  0  0  0
   -1.3400   21.8850  -31.2140 C   0  0  0  0  0  0  0  0  0  0  0  0
   -7.8890   22.0910  -30.4210 C   0  0  0  0  0  0  0  0  0  0  0  0
   -7.0660   23.0810  -29.8780 C   0  0  0  0  0  0  0  0  0  0  0  0
   -4.7040   25.5590  -27.8450 H   0  0  0  0  0  0  0  0  0  0  0  0
   -5.6580   24.1860  -27.9720 H   0  0  0  0  0  0  0  0  0  0  0  0
   -5.4500   24.0769  -32.7273 H   0  0  0  0  0  0  0  0  0  0  0  0
   -6.9229   22.3111  -33.6979 H   0  0  0  0  0  0  0  0  0  0  0  0
   -6.4833   19.4631  -31.4505 H   0  0  0  0  0  0  0  0  0  0  0  0
   -6.9919   17.8384  -32.0577 H   0  0  0  0  0  0  0  0  0  0  0  0
   -4.5045   22.4918  -29.7830 H   0  0  0  0  0  0  0  0  0  0  0  0
   -4.4075   20.7839  -29.1821 H   0  0  0  0  0  0  0  0  0  0  0  0
   -2.7164   22.4233  -28.1751 H   0  0  0  0  0  0  0  0  0  0  0  0
   -2.0404   20.9187  -28.8860 H   0  0  0  0  0  0  0  0  0  0  0  0
    0.1995   22.5314  -29.1893 H   0  0  0  0  0  0  0  0  0  0  0  0
   -0.2194   24.1105  -30.0135 H   0  0  0  0  0  0  0  0  0  0  0  0
    0.1608   22.4368  -26.8546 H   0  0  0  0  0  0  0  0  0  0  0  0
   -0.4205   23.4630  -24.6554 H   0  0  0  0  0  0  0  0  0  0  0  0
   -1.8071   25.5377  -24.5683 H   0  0  0  0  0  0  0  0  0  0  0  0
   -2.5865   26.6078  -26.6849 H   0  0  0  0  0  0  0  0  0  0  0  0
   -2.0109   25.5919  -28.8884 H   0  0  0  0  0  0  0  0  0  0  0  0
   -0.8132   22.5427  -31.9210 H   0  0  0  0  0  0  0  0  0  0  0  0
   -0.6864   21.0616  -30.8902 H   0  0  0  0  0  0  0  0  0  0  0  0
   -8.5594   21.5165  -29.7649 H   0  0  0  0  0  0  0  0  0  0  0  0
   -7.0989   23.2901  -28.7986 H   0  0  0  0  0  0  0  0  0  0  0  0
  1  2  1  0
  2  3  2  0
  2  4  2  0
  2  5  1  0
  5  6  2  0
  6  7  1  0
  7  8  2  0
  8  9  1  0
  9 10  1  0
 10 11  2  0
 10 12  1  0
 12 13  1  0
 13 14  1  0
 14 15  2  0
 15 16  1  0
 16 17  2  0
 16 18  1  0
 18 19  2  0
 19 20  1  0
 19 21  1  0
 21 22  1  0
 22 23  1  0
 23 24  1  0
 24 25  1  0
 25 26  2  0
 26 27  1  0
 27 28  2  0
 28 29  1  0
 29 30  2  0
 23 31  1  0
  8 32  1  0
 32 33  2  0
 33  5  1  0
 20 14  1  0
 30 25  1  0
 31 18  1  0
  1 34  1  0
  1 35  1  0
  6 36  1  0
  7 37  1  0
 12 38  1  0
 12 39  1  0
 21 40  1  0
 21 41  1  0
 22 42  1  0
 22 43  1  0
 24 44  1  0
 24 45  1  0
 26 46  1  0
 27 47  1  0
 28 48  1  0
 29 49  1  0
 30 50  1  0
 31 51  1  0
 31 52  1  0
 32 53  1  0
 33 54  1  0
M  CHG  2   9  -1  20  -1
M  END
>  <UniqueID>  (29) 
27

>  <SMILES>  (29) 
NS(=O)(=O)c1ccc([N-]C(=O)CSc2nc(=O)c3c([n-]2)CCN(Cc2ccccc2)C3)cc1

>  <Energy>  (29) 
62.50751876706198

>  <Genealogy>  (29) 
NS(=O)(=O)c1ccc([N-]C(=O)CSc2nc(=O)c3c([n-]2)CCN(Cc2ccccc2)C3)cc1 (protonated)
NS(=O)(=O)c1ccc([N-]C(=O)CSc2nc(=O)c3c([n-]2)CCN(Cc2ccccc2)C3)cc1 (3D coordinates assigned)
NS(=O)(=O)c1ccc([N-]C(=O)CSc2nc(=O)c3c([n-]2)CCN(Cc2ccccc2)C3)cc1 (nonaromatic ring conformer: 62.50751876706198 kcal/mol)

>  <smiles>  (29) 
NS(=O)(=O)c1ccc(NC(=O)CSc2nc(=O)c3c([nH]2)CCN(Cc2ccccc2)C3)cc1

>  <score_type>  (29) 
oracle

>  <origin>  (29) 
adgpu

>  <m_score__min__energy>  (29) 
-12.9

>  <m_primary>  (29) 
energy

$$$$
29:0
     RDKit          3D

 76 80  0  0  1  0  0  0  0  0999 V2000
   -2.5090   21.6720  -31.6480 C   0  0  0  0  0  0  0  0  0  0  0  0
   -3.2100   20.7210  -32.4320 O   0  0  0  0  0  0  0  0  0  0  0  0
   -4.5730   20.6640  -32.5160 C   0  0  0  0  0  0  0  0  0  0  0  0
   -5.4220   21.5820  -31.8660 C   0  0  0  0  0  0  0  0  0  0  0  0
   -6.7700   21.4420  -32.0080 C   0  0  0  0  0  0  0  0  0  0  0  0
   -7.6230   22.3050  -31.3940 C   0  0  0  0  0  0  0  0  0  0  0  0
   -7.2390   23.1520  -30.5900 N   0  0  0  0  0  0  0  0  0  0  0  0
   -6.0110   23.4780  -30.0940 C   0  0  0  0  0  0  0  0  0  0  0  0
   -5.4960   22.7160  -29.0160 C   0  0  0  0  0  0  0  0  0  0  0  0
   -4.1980   22.9580  -28.5620 C   0  0  0  0  0  0  0  0  0  0  0  0
   -3.3910   23.9150  -29.1220 C   0  0  0  0  0  0  0  0  0  0  0  0
   -1.7720   24.2630  -28.6060 S   0  0  0  0  0  0  0  0  0  0  0  0
   -1.3130   25.5130  -29.3440 O   0  0  0  0  0  0  0  0  0  0  0  0
   -1.6750   24.6060  -27.1500 O   0  0  0  0  0  0  0  0  0  0  0  0
   -0.7290   23.0030  -29.0860 N   0  0  0  0  0  0  0  0  0  0  0  0
   -0.8070   21.8330  -28.6250 C   0  0  0  0  0  0  0  0  0  0  0  0
   -1.5980   21.2760  -27.7520 N   0  0  0  0  0  0  0  0  0  0  0  0
   -1.4850   20.0180  -27.4270 C   0  0  0  0  0  0  0  0  0  0  0  0
   -2.3880   19.3250  -26.4120 C   0  0  0  0  0  0  0  0  0  0  0  0
   -0.4930   19.2690  -28.0370 C   0  0  0  0  0  0  0  0  0  0  0  0
   -0.1080   17.8580  -27.8990 C   0  0  0  0  0  0  0  0  0  0  0  0
    0.3130   20.4790  -29.1410 S   0  0  0  0  0  0  0  0  0  0  0  0
   -3.9230   24.6480  -30.1780 C   0  0  0  0  0  0  0  0  0  0  0  0
   -5.1750   24.4700  -30.6730 C   0  0  0  0  0  0  0  0  0  0  0  0
   -8.9740   22.1530  -31.5610 N   0  0  0  0  0  0  0  0  0  0  0  0
   -9.5100   21.1790  -32.3060 C   0  0  0  0  0  0  0  0  0  0  0  0
   -8.6840   20.3120  -32.9160 N   0  0  0  0  0  0  0  0  0  0  0  0
   -7.3560   20.4390  -32.7680 C   0  0  0  0  0  0  0  0  0  0  0  0
   -6.5450   19.5470  -33.4030 C   0  0  0  0  0  0  0  0  0  0  0  0
   -5.1880   19.7040  -33.2430 C   0  0  0  0  0  0  0  0  0  0  0  0
   -4.3760   18.7830  -33.8900 O   0  0  0  0  0  0  0  0  0  0  0  0
   -4.5330   17.3940  -33.6420 C   0  0  0  0  0  0  0  0  0  0  0  0
   -3.1400   16.7380  -33.6460 C   0  0  0  0  0  0  0  0  0  0  0  0
   -2.3340   17.3510  -34.7320 C   0  0  0  0  0  0  0  0  0  0  0  0
   -0.9850   17.6170  -34.4260 N   0  0  0  0  0  0  0  0  0  0  0  0
   -0.6350   17.4100  -33.0430 C   0  0  0  0  0  0  0  0  0  0  0  0
   -0.9030   18.6310  -32.1930 C   0  0  0  0  0  0  0  0  0  0  0  0
   -0.2740   19.7770  -32.7590 N   0  0  0  0  0  0  0  0  0  0  0  0
    1.0610   20.0420  -32.3230 C   0  0  0  0  0  0  0  0  0  0  0  0
   -0.5370   20.0160  -34.1430 C   0  0  0  0  0  0  0  0  0  0  0  0
   -0.3870   18.7820  -34.9960 C   0  0  0  0  0  0  0  0  0  0  0  0
   -2.6680   21.4563  -30.5811 H   0  0  0  0  0  0  0  0  0  0  0  0
   -1.4346   21.6158  -31.8773 H   0  0  0  0  0  0  0  0  0  0  0  0
   -2.8806   22.6816  -31.8773 H   0  0  0  0  0  0  0  0  0  0  0  0
   -5.0044   22.3962  -31.2555 H   0  0  0  0  0  0  0  0  0  0  0  0
   -6.1139   21.9400  -28.5406 H   0  0  0  0  0  0  0  0  0  0  0  0
   -3.8087   22.3596  -27.7251 H   0  0  0  0  0  0  0  0  0  0  0  0
   -2.3760   21.8930  -27.2860 H   0  0  0  0  0  0  0  0  0  0  0  0
   -2.0575   19.5786  -25.3939 H   0  0  0  0  0  0  0  0  0  0  0  0
   -3.4257   19.6608  -26.5550 H   0  0  0  0  0  0  0  0  0  0  0  0
   -2.3321   18.2358  -26.5550 H   0  0  0  0  0  0  0  0  0  0  0  0
   -0.0376   17.5998  -26.8321 H   0  0  0  0  0  0  0  0  0  0  0  0
   -0.8656   17.2224  -28.3808 H   0  0  0  0  0  0  0  0  0  0  0  0
    0.8674   17.6953  -28.3808 H   0  0  0  0  0  0  0  0  0  0  0  0
   -3.2902   25.4197  -30.6407 H   0  0  0  0  0  0  0  0  0  0  0  0
   -5.5366   25.0851  -31.5102 H   0  0  0  0  0  0  0  0  0  0  0  0
   -9.6460   22.8080  -31.1000 H   0  0  0  0  0  0  0  0  0  0  0  0
  -10.6008   21.0902  -32.4164 H   0  0  0  0  0  0  0  0  0  0  0  0
   -6.9587   18.7345  -34.0184 H   0  0  0  0  0  0  0  0  0  0  0  0
   -5.0116   17.2434  -32.6631 H   0  0  0  0  0  0  0  0  0  0  0  0
   -5.1659   16.9409  -34.4193 H   0  0  0  0  0  0  0  0  0  0  0  0
   -2.6472   16.9074  -32.6772 H   0  0  0  0  0  0  0  0  0  0  0  0
   -3.2339   15.6546  -33.8117 H   0  0  0  0  0  0  0  0  0  0  0  0
   -2.3550   16.6673  -35.5934 H   0  0  0  0  0  0  0  0  0  0  0  0
   -2.7931   18.3320  -34.9240 H   0  0  0  0  0  0  0  0  0  0  0  0
   -1.2263   16.5695  -32.6507 H   0  0  0  0  0  0  0  0  0  0  0  0
    0.4436   17.1991  -32.9974 H   0  0  0  0  0  0  0  0  0  0  0  0
   -1.9880   18.8032  -32.1376 H   0  0  0  0  0  0  0  0  0  0  0  0
   -0.4957   18.4611  -31.1854 H   0  0  0  0  0  0  0  0  0  0  0  0
    1.0932   20.0484  -31.2235 H   0  0  0  0  0  0  0  0  0  0  0  0
    1.7335   19.2598  -32.7050 H   0  0  0  0  0  0  0  0  0  0  0  0
    1.3838   21.0217  -32.7050 H   0  0  0  0  0  0  0  0  0  0  0  0
   -1.5671   20.3883  -34.2442 H   0  0  0  0  0  0  0  0  0  0  0  0
    0.2030   20.7497  -34.4952 H   0  0  0  0  0  0  0  0  0  0  0  0
   -0.8590   18.9736  -35.9709 H   0  0  0  0  0  0  0  0  0  0  0  0
    0.6907   18.5806  -35.0854 H   0  0  0  0  0  0  0  0  0  0  0  0
  1  2  1  0
  2  3  1  0
  3  4  2  0
  4  5  1  0
  5  6  1  0
  6  7  2  0
  7  8  1  0
  8  9  2  0
  9 10  1  0
 10 11  2  0
 11 12  1  0
 12 13  2  0
 12 14  2  0
 12 15  1  0
 15 16  2  0
 16 17  1  0
 17 18  1  0
 18 19  1  0
 18 20  2  0
 20 21  1  0
 20 22  1  0
 11 23  1  0
 23 24  2  0
  6 25  1  0
 25 26  1  0
 26 27  2  0
 27 28  1  0
 28 29  1  0
 29 30  2  0
 30 31  1  0
 31 32  1  0
 32 33  1  0
 33 34  1  0
 34 35  1  0
 35 36  1  0
 36 37  1  0
 37 38  1  0
 38 39  1  0
 38 40  1  0
 40 41  1  0
 30  3  1  0
 41 35  1  0
 28  5  2  0
 24  8  1  0
 22 16  1  0
  1 42  1  0
  1 43  1  0
  1 44  1  0
  4 45  1  0
  9 46  1  0
 10 47  1  0
 17 48  1  0
 19 49  1  0
 19 50  1  0
 19 51  1  0
 21 52  1  0
 21 53  1  0
 21 54  1  0
 23 55  1  0
 24 56  1  0
 25 57  1  0
 26 58  1  0
 29 59  1  0
 32 60  1  0
 32 61  1  0
 33 62  1  0
 33 63  1  0
 34 64  1  0
 34 65  1  0
 36 66  1  0
 36 67  1  0
 37 68  1  0
 37 69  1  0
 39 70  1  0
 39 71  1  0
 39 72  1  0
 40 73  1  0
 40 74  1  0
 41 75  1  0
 41 76  1  0
M  END
>  <smiles>  (30) 
COc1cc2c(=Nc3ccc(S(=O)(=O)N=c4[nH]c(C)c(C)s4)cc3)[nH]cnc2cc1OCCCN1CCN(C)CC1

>  <score_type>  (30) 
oracle

>  <origin>  (30) 
adgpu

>  <m_score__min__energy>  (30) 
-10.08

>  <m_primary>  (30) 
energy

$$$$
30:0
     RDKit          3D

 30 31  0  0  0  0  0  0  0  0999 V2000
   -0.7600   27.0620  -27.8460 C   0  0  0  0  0  0  0  0  0  0  0  0
   -1.2250   26.2270  -28.9020 O   0  0  0  0  0  0  0  0  0  0  0  0
   -1.5410   24.8670  -28.7600 C   0  0  0  0  0  0  0  0  0  0  0  0
   -0.7440   23.9910  -27.9980 C   0  0  0  0  0  0  0  0  0  0  0  0
   -1.0940   22.6450  -27.8730 C   0  0  0  0  0  0  0  0  0  0  0  0
   -2.2460   22.1600  -28.4950 C   0  0  0  0  0  0  0  0  0  0  0  0
   -2.6970   20.4740  -28.3120 Cl  0  0  0  0  0  0  0  0  0  0  0  0
   -3.0440   23.0190  -29.2540 C   0  0  0  0  0  0  0  0  0  0  0  0
   -2.6880   24.3720  -29.4070 C   0  0  0  0  0  0  0  0  0  0  0  0
   -3.5020   25.2830  -30.1620 N   0  0  0  0  0  0  0  0  0  0  0  0
   -4.9020   25.1500  -30.4310 C   0  0  0  0  0  0  0  0  0  0  0  0
   -5.7550   25.4910  -29.5670 O   0  0  0  0  0  0  0  0  0  0  0  0
   -5.3140   24.5250  -31.6510 N   0  0  0  0  0  0  0  0  0  0  0  0
   -6.1170   23.3410  -31.7740 C   0  0  0  0  0  0  0  0  0  0  0  0
   -5.5040   22.1540  -32.1980 C   0  0  0  0  0  0  0  0  0  0  0  0
   -6.2540   20.9840  -32.3490 C   0  0  0  0  0  0  0  0  0  0  0  0
   -7.6290   20.9950  -32.0950 C   0  0  0  0  0  0  0  0  0  0  0  0
   -8.3530   19.8590  -32.2460 F   0  0  0  0  0  0  0  0  0  0  0  0
   -8.2550   22.1800  -31.6960 C   0  0  0  0  0  0  0  0  0  0  0  0
   -9.5920   22.1980  -31.4690 F   0  0  0  0  0  0  0  0  0  0  0  0
   -7.5060   23.3520  -31.5420 C   0  0  0  0  0  0  0  0  0  0  0  0
   -1.0144   26.6052  -26.8782 H   0  0  0  0  0  0  0  0  0  0  0  0
    0.3314   27.1759  -27.9221 H   0  0  0  0  0  0  0  0  0  0  0  0
   -1.2379   28.0498  -27.9221 H   0  0  0  0  0  0  0  0  0  0  0  0
    0.1599   24.3694  -27.4982 H   0  0  0  0  0  0  0  0  0  0  0  0
   -0.4609   21.9656  -27.2834 H   0  0  0  0  0  0  0  0  0  0  0  0
   -3.9560   22.6358  -29.7350 H   0  0  0  0  0  0  0  0  0  0  0  0
   -4.4254   22.1430  -32.4134 H   0  0  0  0  0  0  0  0  0  0  0  0
   -5.7618   20.0534  -32.6681 H   0  0  0  0  0  0  0  0  0  0  0  0
   -8.0038   24.2849  -31.2388 H   0  0  0  0  0  0  0  0  0  0  0  0
  1  2  1  0
  2  3  1  0
  3  4  2  0
  4  5  1  0
  5  6  2  0
  6  7  1  0
  6  8  1  0
  8  9  2  0
  9 10  1  0
 10 11  1  0
 11 12  2  0
 11 13  1  0
 13 14  1  0
 14 15  2  0
 15 16  1  0
 16 17  2  0
 17 18  1  0
 17 19  1  0
 19 20  1  0
 19 21  2  0
  9  3  1  0
 21 14  1  0
  1 22  1  0
  1 23  1  0
  1 24  1  0
  4 25  1  0
  5 26  1  0
  8 27  1  0
 15 28  1  0
 16 29  1  0
 21 30  1  0
M  CHG  2  10  -1  13  -1
M  END
>  <UniqueID>  (31) 
28

>  <SMILES>  (31) 
COc1ccc(Cl)cc1[N-]C(=O)[N-]c1ccc(F)c(F)c1

>  <Energy>  (31) 
37.20606668411035

>  <Genealogy>  (31) 
COc1ccc(Cl)cc1[N-]C(=O)[N-]c1ccc(F)c(F)c1 (protonated)
COc1ccc(Cl)cc1[N-]C(=O)[N-]c1ccc(F)c(F)c1 (3D coordinates assigned)
COc1ccc(Cl)cc1[N-]C(=O)[N-]c1ccc(F)c(F)c1 (optimized conformer: 37.20606668411035 kcal/mol)

>  <smiles>  (31) 
COc1ccc(Cl)cc1NC(=O)Nc1ccc(F)c(F)c1

>  <score_type>  (31) 
oracle

>  <origin>  (31) 
adgpu

>  <m_score__min__energy>  (31) 
-9.5999999999999996

>  <m_primary>  (31) 
energy

$$$$
31:0
     RDKit          3D

 33 34  0  0  0  0  0  0  0  0999 V2000
    1.1730   24.0650  -26.8490 C   0  0  0  0  0  0  0  0  0  0  0  0
    0.7920   24.1900  -28.2140 O   0  0  0  0  0  0  0  0  0  0  0  0
   -0.4410   23.7680  -28.7390 C   0  0  0  0  0  0  0  0  0  0  0  0
   -0.7740   22.4130  -28.8590 C   0  0  0  0  0  0  0  0  0  0  0  0
   -1.9780   22.0500  -29.3640 N   0  0  0  0  0  0  0  0  0  0  0  0
   -2.9090   22.9460  -29.7800 C   0  0  0  0  0  0  0  0  0  0  0  0
   -4.0340   22.4650  -30.2350 N   0  0  0  0  0  0  0  0  0  0  0  0
   -5.4520   23.2820  -30.8200 S   0  0  0  0  0  0  0  0  0  0  0  0
   -5.0530   24.1750  -31.9610 O   0  0  0  0  0  0  0  0  0  0  0  0
   -6.0270   24.1340  -29.7220 O   0  0  0  0  0  0  0  0  0  0  0  0
   -6.6400   22.1250  -31.4150 C   0  0  0  0  0  0  0  0  0  0  0  0
   -7.9950   22.2760  -31.0870 C   0  0  0  0  0  0  0  0  0  0  0  0
   -8.9390   21.3630  -31.5670 C   0  0  0  0  0  0  0  0  0  0  0  0
   -8.5330   20.2950  -32.3730 C   0  0  0  0  0  0  0  0  0  0  0  0
   -7.1820   20.1360  -32.6960 C   0  0  0  0  0  0  0  0  0  0  0  0
   -6.2360   21.0480  -32.2170 C   0  0  0  0  0  0  0  0  0  0  0  0
   -2.6090   24.3330  -29.6930 C   0  0  0  0  0  0  0  0  0  0  0  0
   -3.5120   25.2880  -30.1350 O   0  0  0  0  0  0  0  0  0  0  0  0
   -1.3610   24.7380  -29.1550 C   0  0  0  0  0  0  0  0  0  0  0  0
   -0.9720   26.0840  -29.0060 O   0  0  0  0  0  0  0  0  0  0  0  0
   -0.8380   26.7990  -27.7830 C   0  0  0  0  0  0  0  0  0  0  0  0
    0.3257   24.3430  -26.2049 H   0  0  0  0  0  0  0  0  0  0  0  0
    1.4639   23.0243  -26.6433 H   0  0  0  0  0  0  0  0  0  0  0  0
    2.0239   24.7311  -26.6433 H   0  0  0  0  0  0  0  0  0  0  0  0
   -0.0565   21.6415  -28.5426 H   0  0  0  0  0  0  0  0  0  0  0  0
   -8.3158   23.1142  -30.4510 H   0  0  0  0  0  0  0  0  0  0  0  0
  -10.0017   21.4850  -31.3104 H   0  0  0  0  0  0  0  0  0  0  0  0
   -9.2770   19.5795  -32.7532 H   0  0  0  0  0  0  0  0  0  0  0  0
   -6.8630   19.2934  -33.3270 H   0  0  0  0  0  0  0  0  0  0  0  0
   -5.1731   20.9202  -32.4699 H   0  0  0  0  0  0  0  0  0  0  0  0
   -0.9677   26.1072  -26.9377 H   0  0  0  0  0  0  0  0  0  0  0  0
    0.1614   27.2558  -27.7330 H   0  0  0  0  0  0  0  0  0  0  0  0
   -1.6042   27.5867  -27.7330 H   0  0  0  0  0  0  0  0  0  0  0  0
  1  2  1  0
  2  3  1  0
  3  4  2  0
  4  5  1  0
  5  6  1  0
  6  7  2  3
  7  8  1  0
  8  9  2  0
  8 10  2  0
  8 11  1  0
 11 12  2  0
 12 13  1  0
 13 14  2  0
 14 15  1  0
 15 16  2  0
  6 17  1  0
 17 18  1  0
 17 19  2  0
 19 20  1  0
 20 21  1  0
 19  3  1  0
 16 11  1  0
  1 22  1  0
  1 23  1  0
  1 24  1  0
  4 25  1  0
 12 26  1  0
 13 27  1  0
 14 28  1  0
 15 29  1  0
 16 30  1  0
 21 31  1  0
 21 32  1  0
 21 33  1  0
M  CHG  2   5  -1  18  -1
M  END
>  <UniqueID>  (32) 
29

>  <SMILES>  (32) 
COc1c[n-]c(=NS(=O)(=O)c2ccccc2)c([O-])c1OC

>  <Energy>  (32) 
46.462720687891235

>  <Genealogy>  (32) 
COc1c[n-]c(=NS(=O)(=O)c2ccccc2)c([O-])c1OC (protonated)
COc1c[n-]c(=NS(=O)(=O)c2ccccc2)c([O-])c1OC (3D coordinates assigned)
COc1c[n-]c(=NS(=O)(=O)c2ccccc2)c([O-])c1OC (optimized conformer: 46.462720687891235 kcal/mol)

>  <smiles>  (32) 
COc1c[nH]c(=NS(=O)(=O)c2ccccc2)c(O)c1OC

>  <score_type>  (32) 
oracle

>  <origin>  (32) 
adgpu

>  <m_score__min__energy>  (32) 
-11.23

>  <m_primary>  (32) 
energy

$$$$
32:0
     RDKit          3D

 27 28  0  0  0  0  0  0  0  0999 V2000
   -6.9230   20.4910  -32.6680 C   0  0  0  0  0  0  0  0  0  0  0  0
   -6.6500   21.6740  -31.7850 C   0  0  0  0  0  0  0  0  0  0  0  0
   -5.4140   21.7990  -31.1290 C   0  0  0  0  0  0  0  0  0  0  0  0
   -5.1400   22.9210  -30.3260 C   0  0  0  0  0  0  0  0  0  0  0  0
   -3.8390   23.0360  -29.6230 C   0  0  0  0  0  0  0  0  0  0  0  0
   -3.3580   21.9530  -28.8670 C   0  0  0  0  0  0  0  0  0  0  0  0
   -2.1390   22.0440  -28.1880 C   0  0  0  0  0  0  0  0  0  0  0  0
   -1.7030   20.9850  -27.4600 F   0  0  0  0  0  0  0  0  0  0  0  0
   -1.3790   23.2220  -28.2580 C   0  0  0  0  0  0  0  0  0  0  0  0
   -0.1310   23.3230  -27.5660 N   0  0  0  0  0  0  0  0  0  0  0  0
   -1.8490   24.3010  -29.0170 C   0  0  0  0  0  0  0  0  0  0  0  0
   -3.0670   24.2130  -29.7010 C   0  0  0  0  0  0  0  0  0  0  0  0
   -3.4880   25.2920  -30.4720 O   0  0  0  0  0  0  0  0  0  0  0  0
   -6.1190   23.9170  -30.1840 C   0  0  0  0  0  0  0  0  0  0  0  0
   -7.3450   23.8030  -30.8460 C   0  0  0  0  0  0  0  0  0  0  0  0
   -7.6100   22.6900  -31.6490 C   0  0  0  0  0  0  0  0  0  0  0  0
   -8.8020   22.6040  -32.2910 F   0  0  0  0  0  0  0  0  0  0  0  0
   -7.1268   19.6077  -32.0449 H   0  0  0  0  0  0  0  0  0  0  0  0
   -7.7962   20.7012  -33.3030 H   0  0  0  0  0  0  0  0  0  0  0  0
   -6.0460   20.2973  -33.3030 H   0  0  0  0  0  0  0  0  0  0  0  0
   -4.6537   21.0125  -31.2443 H   0  0  0  0  0  0  0  0  0  0  0  0
   -3.9460   21.0252  -28.8090 H   0  0  0  0  0  0  0  0  0  0  0  0
   -0.1050   23.4720  -26.5320 H   0  0  0  0  0  0  0  0  0  0  0  0
    0.7780   23.2510  -28.0750 H   0  0  0  0  0  0  0  0  0  0  0  0
   -1.2559   25.2255  -29.0761 H   0  0  0  0  0  0  0  0  0  0  0  0
   -5.9203   24.7923  -29.5481 H   0  0  0  0  0  0  0  0  0  0  0  0
   -8.1036   24.5917  -30.7346 H   0  0  0  0  0  0  0  0  0  0  0  0
  1  2  1  0
  2  3  2  0
  3  4  1  0
  4  5  1  0
  5  6  2  0
  6  7  1  0
  7  8  1  0
  7  9  2  0
  9 10  1  0
  9 11  1  0
 11 12  2  0
 12 13  1  0
  4 14  2  0
 14 15  1  0
 15 16  2  0
 16 17  1  0
 16  2  1  0
 12  5  1  0
  1 18  1  0
  1 19  1  0
  1 20  1  0
  3 21  1  0
  6 22  1  0
 10 23  1  0
 10 24  1  0
 11 25  1  0
 14 26  1  0
 15 27  1  0
M  CHG  1  13  -1
M  END
>  <UniqueID>  (33) 
30

>  <SMILES>  (33) 
Cc1cc(-c2cc(F)c(N)cc2[O-])ccc1F

>  <Energy>  (33) 
33.476233353904796

>  <Genealogy>  (33) 
Cc1cc(-c2cc(F)c(N)cc2[O-])ccc1F (protonated)
Cc1cc(-c2cc(F)c(N)cc2[O-])ccc1F (3D coordinates assigned)
Cc1cc(-c2cc(F)c(N)cc2[O-])ccc1F (optimized conformer: 33.476233353904796 kcal/mol)

>  <smiles>  (33) 
Cc1cc(-c2cc(F)c(N)cc2O)ccc1F

>  <score_type>  (33) 
oracle

>  <origin>  (33) 
adgpu

>  <m_score__min__energy>  (33) 
-8.4100000000000001

>  <m_primary>  (33) 
energy

$$$$
33:0
     RDKit          3D

 37 39  0  0  0  0  0  0  0  0999 V2000
   -1.9000   24.7310  -27.0680 C   0  0  0  0  0  0  0  0  0  0  0  0
   -1.7350   24.9210  -28.5470 C   0  0  0  0  0  0  0  0  0  0  0  0
   -1.2610   26.0150  -28.9590 O   0  0  0  0  0  0  0  0  0  0  0  0
   -2.1010   23.8890  -29.4940 N   0  0  0  0  0  0  0  0  0  0  0  0
   -1.1880   22.7670  -29.7760 C   0  0  0  0  0  0  0  0  0  0  0  0
   -1.3830   21.6440  -28.7890 C   0  0  0  0  0  0  0  0  0  0  0  0
   -0.3000   20.8320  -28.4100 C   0  0  0  0  0  0  0  0  0  0  0  0
   -0.4820   19.7970  -27.4870 C   0  0  0  0  0  0  0  0  0  0  0  0
   -1.7430   19.5700  -26.9290 C   0  0  0  0  0  0  0  0  0  0  0  0
   -2.8230   20.3800  -27.2900 C   0  0  0  0  0  0  0  0  0  0  0  0
   -2.6440   21.4160  -28.2110 C   0  0  0  0  0  0  0  0  0  0  0  0
   -3.3770   23.9540  -30.1660 C   0  0  0  0  0  0  0  0  0  0  0  0
   -4.2140   22.9070  -30.3030 N   0  0  0  0  0  0  0  0  0  0  0  0
   -5.2420   23.4720  -30.9710 C   0  0  0  0  0  0  0  0  0  0  0  0
   -6.4600   22.7380  -31.3790 C   0  0  0  0  0  0  0  0  0  0  0  0
   -7.6740   23.4220  -31.5700 C   0  0  0  0  0  0  0  0  0  0  0  0
   -8.8240   22.7270  -31.9550 C   0  0  0  0  0  0  0  0  0  0  0  0
   -8.7740   21.3450  -32.1550 C   0  0  0  0  0  0  0  0  0  0  0  0
   -7.5720   20.6560  -31.9680 C   0  0  0  0  0  0  0  0  0  0  0  0
   -6.4200   21.3470  -31.5830 C   0  0  0  0  0  0  0  0  0  0  0  0
   -5.0340   24.7810  -31.2210 N   0  0  0  0  0  0  0  0  0  0  0  0
   -3.8720   25.0410  -30.7070 O   0  0  0  0  0  0  0  0  0  0  0  0
   -1.2700   25.4565  -26.5326 H   0  0  0  0  0  0  0  0  0  0  0  0
   -2.9536   24.8875  -26.7935 H   0  0  0  0  0  0  0  0  0  0  0  0
   -1.5974   23.7097  -26.7935 H   0  0  0  0  0  0  0  0  0  0  0  0
   -1.3845   22.3909  -30.7909 H   0  0  0  0  0  0  0  0  0  0  0  0
   -0.1532   23.1301  -29.6905 H   0  0  0  0  0  0  0  0  0  0  0  0
    0.6958   21.0115  -28.8415 H   0  0  0  0  0  0  0  0  0  0  0  0
    0.3684   19.1610  -27.2000 H   0  0  0  0  0  0  0  0  0  0  0  0
   -1.8854   18.7537  -26.2056 H   0  0  0  0  0  0  0  0  0  0  0  0
   -3.8149   20.2021  -26.8489 H   0  0  0  0  0  0  0  0  0  0  0  0
   -3.4950   22.0568  -28.4852 H   0  0  0  0  0  0  0  0  0  0  0  0
   -7.7187   24.5102  -31.4155 H   0  0  0  0  0  0  0  0  0  0  0  0
   -9.7700   23.2690  -32.1008 H   0  0  0  0  0  0  0  0  0  0  0  0
   -9.6795   20.7997  -32.4593 H   0  0  0  0  0  0  0  0  0  0  0  0
   -7.5330   19.5678  -32.1242 H   0  0  0  0  0  0  0  0  0  0  0  0
   -5.4766   20.8000  -31.4387 H   0  0  0  0  0  0  0  0  0  0  0  0
  1  2  1  0
  2  3  2  0
  2  4  1  0
  4  5  1  0
  5  6  1  0
  6  7  2  0
  7  8  1  0
  8  9  2  0
  9 10  1  0
 10 11  2  0
  4 12  1  0
 12 13  2  0
 13 14  1  0
 14 15  1  0
 15 16  2  0
 16 17  1  0
 17 18  2  0
 18 19  1  0
 19 20  2  0
 14 21  2  0
 21 22  1  0
 11  6  1  0
 22 12  1  0
 20 15  1  0
  1 23  1  0
  1 24  1  0
  1 25  1  0
  5 26  1  0
  5 27  1  0
  7 28  1  0
  8 29  1  0
  9 30  1  0
 10 31  1  0
 11 32  1  0
 16 33  1  0
 17 34  1  0
 18 35  1  0
 19 36  1  0
 20 37  1  0
M  END
>  <UniqueID>  (34) 
31

>  <SMILES>  (34) 
CC(=O)N(Cc1ccccc1)c1nc(-c2ccccc2)no1

>  <Energy>  (34) 
73.51342064420275

>  <Genealogy>  (34) 
CC(=O)N(Cc1ccccc1)c1nc(-c2ccccc2)no1 (3D coordinates assigned)
CC(=O)N(Cc1ccccc1)c1nc(-c2ccccc2)no1 (optimized conformer: 73.51342064420275 kcal/mol)

>  <smiles>  (34) 
CC(=O)N(Cc1ccccc1)c1nc(-c2ccccc2)no1

>  <score_type>  (34) 
oracle

>  <origin>  (34) 
adgpu

>  <m_score__min__energy>  (34) 
-8.9100000000000001

>  <m_primary>  (34) 
energy

$$$$
34:0
     RDKit          3D

 23 23  0  0  0  0  0  0  0  0999 V2000
   -3.5730   23.8190  -28.7110 C   0  0  0  0  0  0  0  0  0  0  0  0
   -3.5950   23.9130  -30.2340 C   0  0  0  0  0  0  0  0  0  0  0  0
   -3.8990   25.2860  -30.6640 N   0  0  0  0  0  0  0  0  0  0  0  0
   -5.3440   25.5400  -30.7970 C   0  0  0  0  0  0  0  0  0  0  0  0
   -6.1310   24.2660  -30.9980 C   0  0  0  0  0  0  0  0  0  0  0  0
   -6.1460   23.6260  -32.2490 C   0  0  0  0  0  0  0  0  0  0  0  0
   -6.8840   22.4520  -32.4320 C   0  0  0  0  0  0  0  0  0  0  0  0
   -7.6120   21.9080  -31.3690 C   0  0  0  0  0  0  0  0  0  0  0  0
   -8.5380   20.4360  -31.6010 Cl  0  0  0  0  0  0  0  0  0  0  0  0
   -7.6020   22.5390  -30.1210 C   0  0  0  0  0  0  0  0  0  0  0  0
   -6.8650   23.7130  -29.9350 C   0  0  0  0  0  0  0  0  0  0  0  0
   -3.8036   24.8042  -28.2795 H   0  0  0  0  0  0  0  0  0  0  0  0
   -4.3243   23.0879  -28.3779 H   0  0  0  0  0  0  0  0  0  0  0  0
   -2.5753   23.4972  -28.3779 H   0  0  0  0  0  0  0  0  0  0  0  0
   -2.6107   23.6203  -30.6284 H   0  0  0  0  0  0  0  0  0  0  0  0
   -4.3751   23.2400  -30.6194 H   0  0  0  0  0  0  0  0  0  0  0  0
   -3.4300   25.4660  -31.5830 H   0  0  0  0  0  0  0  0  0  0  0  0
   -5.7019   26.0371  -29.8834 H   0  0  0  0  0  0  0  0  0  0  0  0
   -5.4954   26.1740  -31.6831 H   0  0  0  0  0  0  0  0  0  0  0  0
   -5.5749   24.0502  -33.0880 H   0  0  0  0  0  0  0  0  0  0  0  0
   -6.8918   21.9558  -33.4137 H   0  0  0  0  0  0  0  0  0  0  0  0
   -8.1745   22.1114  -29.2847 H   0  0  0  0  0  0  0  0  0  0  0  0
   -6.8599   24.2059  -28.9516 H   0  0  0  0  0  0  0  0  0  0  0  0
  1  2  1  0
  2  3  1  0
  3  4  1  0
  4  5  1  0
  5  6  2  0
  6  7  1  0
  7  8  2  0
  8  9  1  0
  8 10  1  0
 10 11  2  0
 11  5  1  0
  1 12  1  0
  1 13  1  0
  1 14  1  0
  2 15  1  0
  2 16  1  0
  3 17  1  0
  4 18  1  0
  4 19  1  0
  6 20  1  0
  7 21  1  0
 10 22  1  0
 11 23  1  0
M  END
>  <UniqueID>  (35) 
32

>  <SMILES>  (35) 
CCNCc1ccc(Cl)cc1

>  <Energy>  (35) 
19.206510667238344

>  <Genealogy>  (35) 
CCNCc1ccc(Cl)cc1 (3D coordinates assigned)
CCNCc1ccc(Cl)cc1 (optimized conformer: 19.206510667238344 kcal/mol)

>  <smiles>  (35) 
CCNCc1ccc(Cl)cc1

>  <score_type>  (35) 
oracle

>  <origin>  (35) 
adgpu

>  <m_score__min__energy>  (35) 
-5.9400000000000004

>  <m_primary>  (35) 
energy

$$$$
35:0
     RDKit          3D

 50 53  0  0  0  0  0  0  0  0999 V2000
   -3.4240   19.6880  -32.4380 C   0  0  0  0  0  0  0  0  0  0  0  0
   -3.6810   21.1410  -32.3940 N   0  0  2  0  0  0  0  0  0  0  0  0
   -2.4190   21.9140  -32.4610 C   0  0  0  0  0  0  0  0  0  0  0  0
   -1.5610   21.7680  -31.1900 C   0  0  0  0  0  0  0  0  0  0  0  0
   -2.4120   21.7730  -29.9000 C   0  0  1  0  0  0  0  0  0  0  0  0
   -1.7290   22.4720  -28.7340 C   0  0  0  0  0  0  0  0  0  0  0  0
   -1.1270   21.8420  -27.6440 C   0  0  0  0  0  0  0  0  0  0  0  0
   -0.9070   20.3980  -27.4470 C   0  0  0  0  0  0  0  0  0  0  0  0
   -1.8920   19.5940  -26.8470 C   0  0  0  0  0  0  0  0  0  0  0  0
   -1.6800   18.2210  -26.6930 C   0  0  0  0  0  0  0  0  0  0  0  0
   -0.4960   17.6380  -27.1490 C   0  0  0  0  0  0  0  0  0  0  0  0
    0.4780   18.4260  -27.7700 C   0  0  0  0  0  0  0  0  0  0  0  0
    1.9590   17.6910  -28.3560 Cl  0  0  0  0  0  0  0  0  0  0  0  0
    0.2710   19.8010  -27.9260 C   0  0  0  0  0  0  0  0  0  0  0  0
   -0.7390   22.7590  -26.7420 N   0  0  0  0  0  0  0  0  0  0  0  0
   -1.0530   23.9550  -27.2080 N   0  0  0  0  0  0  0  0  0  0  0  0
   -0.8200   25.1540  -26.4510 C   0  0  0  0  0  0  0  0  0  0  0  0
    0.3150   25.9470  -26.6910 C   0  0  0  0  0  0  0  0  0  0  0  0
    0.5130   27.1300  -25.9700 C   0  0  0  0  0  0  0  0  0  0  0  0
   -0.4260   27.5360  -25.0190 C   0  0  0  0  0  0  0  0  0  0  0  0
   -1.5690   26.7640  -24.7910 C   0  0  0  0  0  0  0  0  0  0  0  0
   -1.7710   25.5820  -25.5100 C   0  0  0  0  0  0  0  0  0  0  0  0
   -1.6520   23.8350  -28.4200 C   0  0  0  0  0  0  0  0  0  0  0  0
   -2.0050   24.9870  -29.2850 C   0  0  0  0  0  0  0  0  0  0  0  0
   -1.2530   25.9950  -29.3260 O   0  0  0  0  0  0  0  0  0  0  0  0
   -3.1490   24.9770  -30.0670 O   0  0  0  0  0  0  0  0  0  0  0  0
   -3.8320   22.3060  -30.1270 C   0  0  0  0  0  0  0  0  0  0  0  0
   -4.5510   21.5140  -31.2380 C   0  0  0  0  0  0  0  0  0  0  0  0
   -3.3548   19.2967  -31.4123 H   0  0  0  0  0  0  0  0  0  0  0  0
   -4.2473   19.1859  -32.9672 H   0  0  0  0  0  0  0  0  0  0  0  0
   -2.4784   19.4987  -32.9672 H   0  0  0  0  0  0  0  0  0  0  0  0
   -4.2110   21.3660  -33.2700 H   0  0  0  0  0  0  0  0  0  0  0  0
   -1.8345   21.5585  -33.3223 H   0  0  0  0  0  0  0  0  0  0  0  0
   -2.6864   22.9764  -32.5597 H   0  0  0  0  0  0  0  0  0  0  0  0
   -1.0079   20.8187  -31.2445 H   0  0  0  0  0  0  0  0  0  0  0  0
   -0.8793   22.6302  -31.1451 H   0  0  0  0  0  0  0  0  0  0  0  0
   -2.5090   20.7149  -29.6152 H   0  0  0  0  0  0  0  0  0  0  0  0
   -2.8318   20.0466  -26.4979 H   0  0  0  0  0  0  0  0  0  0  0  0
   -2.4480   17.5981  -26.2112 H   0  0  0  0  0  0  0  0  0  0  0  0
   -0.3294   16.5584  -27.0197 H   0  0  0  0  0  0  0  0  0  0  0  0
    1.0334   20.4168  -28.4255 H   0  0  0  0  0  0  0  0  0  0  0  0
    1.0503   25.6369  -27.4481 H   0  0  0  0  0  0  0  0  0  0  0  0
    1.4094   27.7409  -26.1525 H   0  0  0  0  0  0  0  0  0  0  0  0
   -0.2661   28.4633  -24.4494 H   0  0  0  0  0  0  0  0  0  0  0  0
   -2.3102   27.0868  -24.0451 H   0  0  0  0  0  0  0  0  0  0  0  0
   -2.6785   24.9847  -25.3380 H   0  0  0  0  0  0  0  0  0  0  0  0
   -4.4042   22.2136  -29.1921 H   0  0  0  0  0  0  0  0  0  0  0  0
   -3.7646   23.3594  -30.4364 H   0  0  0  0  0  0  0  0  0  0  0  0
   -4.9515   20.5894  -30.7968 H   0  0  0  0  0  0  0  0  0  0  0  0
   -5.3351   22.1747  -31.6364 H   0  0  0  0  0  0  0  0  0  0  0  0
  1  2  1  0
  2  3  1  0
  3  4  1  0
  4  5  1  0
  5  6  1  0
  6  7  1  0
  7  8  1  0
  8  9  2  0
  9 10  1  0
 10 11  2  0
 11 12  1  0
 12 13  1  0
 12 14  2  0
  7 15  2  0
 15 16  1  0
 16 17  1  0
 17 18  2  0
 18 19  1  0
 19 20  2  0
 20 21  1  0
 21 22  2  0
 16 23  1  0
 23 24  1  0
 24 25  2  0
 24 26  1  0
  5 27  1  0
 27 28  1  0
 28  2  1  0
 23  6  2  0
 14  8  1  0
 22 17  1  0
  1 29  1  0
  1 30  1  0
  1 31  1  0
  2 32  1  6
  3 33  1  0
  3 34  1  0
  4 35  1  0
  4 36  1  0
  5 37  1  1
  9 38  1  0
 10 39  1  0
 11 40  1  0
 14 41  1  0
 18 42  1  0
 19 43  1  0
 20 44  1  0
 21 45  1  0
 22 46  1  0
 27 47  1  0
 27 48  1  0
 28 49  1  0
 28 50  1  0
M  CHG  2   2   1  26  -1
M  END
>  <UniqueID>  (36) 
33

>  <SMILES>  (36) 
C[NH+]1CCC(c2c(-c3cccc(Cl)c3)nn(-c3ccccc3)c2C(=O)[O-])CC1

>  <Energy>  (36) 
109.33462499497197

>  <Genealogy>  (36) 
C[NH+]1CCC(c2c(-c3cccc(Cl)c3)nn(-c3ccccc3)c2C(=O)[O-])CC1 (protonated)
C[NH+]1CCC(c2c(-c3cccc(Cl)c3)nn(-c3ccccc3)c2C(=O)[O-])CC1 (3D coordinates assigned)
C[NH+]1CCC(c2c(-c3cccc(Cl)c3)nn(-c3ccccc3)c2C(=O)[O-])CC1 (nonaromatic ring conformer: 109.33462499497197 kcal/mol)

>  <smiles>  (36) 
CN1CCC(c2c(-c3cccc(Cl)c3)nn(-c3ccccc3)c2C(=O)O)CC1

>  <score_type>  (36) 
oracle

>  <origin>  (36) 
adgpu

>  <m_score__min__energy>  (36) 
-9.5800000000000001

>  <m_primary>  (36) 
energy

$$$$
36:0
     RDKit          3D

 34 35  0  0  0  0  0  0  0  0999 V2000
   -0.8550   26.7730  -27.8310 C   0  0  0  0  0  0  0  0  0  0  0  0
   -1.4030   26.1000  -28.9610 O   0  0  0  0  0  0  0  0  0  0  0  0
   -1.7630   24.7430  -28.9850 C   0  0  0  0  0  0  0  0  0  0  0  0
   -1.0120   23.7660  -28.3030 C   0  0  0  0  0  0  0  0  0  0  0  0
   -1.4280   22.4340  -28.2860 C   0  0  0  0  0  0  0  0  0  0  0  0
   -2.6080   22.0460  -28.9410 C   0  0  0  0  0  0  0  0  0  0  0  0
   -3.0420   20.6740  -28.9060 N   0  0  0  0  0  0  0  0  0  0  0  0
   -3.5250   20.1330  -29.9220 O   0  0  0  0  0  0  0  0  0  0  0  0
   -2.9350   19.9360  -27.7500 O   0  0  0  0  0  0  0  0  0  0  0  0
   -3.3520   23.0180  -29.6300 C   0  0  0  0  0  0  0  0  0  0  0  0
   -2.9240   24.3500  -29.6830 C   0  0  0  0  0  0  0  0  0  0  0  0
   -3.7310   25.2960  -30.4000 N   0  0  0  0  0  0  0  0  0  0  0  0
   -5.0780   25.0750  -30.8360 C   0  0  0  0  0  0  0  0  0  0  0  0
   -6.0270   25.7150  -30.3110 O   0  0  0  0  0  0  0  0  0  0  0  0
   -5.3520   24.2070  -31.9400 N   0  0  0  0  0  0  0  0  0  0  0  0
   -6.2450   23.0850  -31.9270 C   0  0  0  0  0  0  0  0  0  0  0  0
   -7.6030   23.2210  -31.5910 C   0  0  0  0  0  0  0  0  0  0  0  0
   -8.4500   22.1080  -31.6130 C   0  0  0  0  0  0  0  0  0  0  0  0
   -7.9600   20.8440  -31.9860 C   0  0  0  0  0  0  0  0  0  0  0  0
   -8.8350   19.7020  -32.0060 N   0  0  0  0  0  0  0  0  0  0  0  0
   -9.8600   19.6970  -32.7190 O   0  0  0  0  0  0  0  0  0  0  0  0
   -8.5560   18.5930  -31.2410 O   0  0  0  0  0  0  0  0  0  0  0  0
   -6.6060   20.7200  -32.3470 C   0  0  0  0  0  0  0  0  0  0  0  0
   -5.7620   21.8330  -32.3260 C   0  0  0  0  0  0  0  0  0  0  0  0
   -1.2333   26.3084  -26.9085 H   0  0  0  0  0  0  0  0  0  0  0  0
    0.2422   26.6980  -27.8561 H   0  0  0  0  0  0  0  0  0  0  0  0
   -1.1508   27.8322  -27.8561 H   0  0  0  0  0  0  0  0  0  0  0  0
   -0.0892   24.0555  -27.7790 H   0  0  0  0  0  0  0  0  0  0  0  0
   -0.8264   21.6816  -27.7550 H   0  0  0  0  0  0  0  0  0  0  0  0
   -4.2850   22.7283  -30.1356 H   0  0  0  0  0  0  0  0  0  0  0  0
   -8.0014   24.2069  -31.3095 H   0  0  0  0  0  0  0  0  0  0  0  0
   -9.5084   22.2226  -31.3361 H   0  0  0  0  0  0  0  0  0  0  0  0
   -6.2089   19.7394  -32.6481 H   0  0  0  0  0  0  0  0  0  0  0  0
   -4.7091   21.7248  -32.6255 H   0  0  0  0  0  0  0  0  0  0  0  0
  1  2  1  0
  2  3  1  0
  3  4  2  0
  4  5  1  0
  5  6  2  0
  6  7  1  0
  7  8  2  0
  7  9  1  0
  6 10  1  0
 10 11  2  0
 11 12  1  0
 12 13  1  0
 13 14  2  0
 13 15  1  0
 15 16  1  0
 16 17  2  0
 17 18  1  0
 18 19  2  0
 19 20  1  0
 20 21  2  0
 20 22  1  0
 19 23  1  0
 23 24  2  0
 11  3  1  0
 24 16  1  0
  1 25  1  0
  1 26  1  0
  1 27  1  0
  4 28  1  0
  5 29  1  0
 10 30  1  0
 17 31  1  0
 18 32  1  0
 23 33  1  0
 24 34  1  0
M  CHG  6   7   1   9  -1  12  -1  15  -1  20   1  22  -1
M  END
>  <UniqueID>  (37) 
34

>  <SMILES>  (37) 
COc1ccc([N+](=O)[O-])cc1[N-]C(=O)[N-]c1ccc([N+](=O)[O-])cc1

>  <Energy>  (37) 
45.16637020288184

>  <Genealogy>  (37) 
COc1ccc([N+](=O)[O-])cc1[N-]C(=O)[N-]c1ccc([N+](=O)[O-])cc1 (protonated)
COc1ccc([N+](=O)[O-])cc1[N-]C(=O)[N-]c1ccc([N+](=O)[O-])cc1 (3D coordinates assigned)
COc1ccc([N+](=O)[O-])cc1[N-]C(=O)[N-]c1ccc([N+](=O)[O-])cc1 (optimized conformer: 45.16637020288184 kcal/mol)

>  <smiles>  (37) 
COc1ccc([N+](=O)[O-])cc1NC(=O)Nc1ccc([N+](=O)[O-])cc1

>  <score_type>  (37) 
oracle

>  <origin>  (37) 
adgpu

>  <m_score__min__energy>  (37) 
-10.289999999999999

>  <m_primary>  (37) 
energy

$$$$
37:0
     RDKit          3D

 52 54  0  0  0  0  0  0  0  0999 V2000
   -9.0000   19.6020  -31.8370 C   0  0  0  0  0  0  0  0  0  0  0  0
   -9.4330   21.0540  -32.0120 C   0  0  0  0  0  0  0  0  0  0  0  0
   -8.3610   21.9910  -31.5220 C   0  0  0  0  0  0  0  0  0  0  0  0
   -7.7650   22.9080  -32.4040 C   0  0  0  0  0  0  0  0  0  0  0  0
   -6.7950   23.8020  -31.9410 C   0  0  0  0  0  0  0  0  0  0  0  0
   -6.4130   23.7930  -30.5930 C   0  0  0  0  0  0  0  0  0  0  0  0
   -5.2210   24.9440  -29.9930 S   0  0  0  0  0  0  0  0  0  0  0  0
   -3.9560   24.8050  -30.7920 O   0  0  0  0  0  0  0  0  0  0  0  0
   -5.7350   26.3480  -30.1590 O   0  0  0  0  0  0  0  0  0  0  0  0
   -4.8770   24.6470  -28.3160 N   0  0  0  0  0  0  0  0  0  0  0  0
   -3.6810   23.8110  -28.1970 C   0  0  0  0  0  0  0  0  0  0  0  0
   -4.0630   22.3360  -28.3310 C   0  0  0  0  0  0  0  0  0  0  0  0
   -2.8280   21.4710  -28.4550 C   0  0  0  0  0  0  0  0  0  0  0  0
   -1.9790   21.3420  -27.3410 C   0  0  0  0  0  0  0  0  0  0  0  0
   -0.7900   20.6160  -27.4310 C   0  0  0  0  0  0  0  0  0  0  0  0
   -0.4230   20.0220  -28.6380 C   0  0  0  0  0  0  0  0  0  0  0  0
   -1.2460   20.1490  -29.7590 C   0  0  0  0  0  0  0  0  0  0  0  0
   -2.4500   20.8660  -29.6820 C   0  0  0  0  0  0  0  0  0  0  0  0
   -3.2790   20.9780  -30.8990 C   0  0  0  0  0  0  0  0  0  0  0  0
   -3.1280   22.0820  -31.7520 C   0  0  0  0  0  0  0  0  0  0  0  0
   -3.9150   22.1960  -32.9010 C   0  0  0  0  0  0  0  0  0  0  0  0
   -4.8450   21.2010  -33.2150 C   0  0  0  0  0  0  0  0  0  0  0  0
   -4.9820   20.0760  -32.3890 C   0  0  0  0  0  0  0  0  0  0  0  0
   -6.0070   19.0270  -32.7080 C   0  0  0  0  0  0  0  0  0  0  0  0
   -4.2020   19.9720  -31.2270 C   0  0  0  0  0  0  0  0  0  0  0  0
   -7.0200   22.8920  -29.7070 C   0  0  0  0  0  0  0  0  0  0  0  0
   -7.9900   21.9980  -30.1690 C   0  0  0  0  0  0  0  0  0  0  0  0
   -8.9299   19.3670  -30.7647 H   0  0  0  0  0  0  0  0  0  0  0  0
   -9.7396   18.9393  -32.3101 H   0  0  0  0  0  0  0  0  0  0  0  0
   -8.0182   19.4526  -32.3101 H   0  0  0  0  0  0  0  0  0  0  0  0
   -9.6230   21.2483  -33.0779 H   0  0  0  0  0  0  0  0  0  0  0  0
  -10.3473   21.2240  -31.4245 H   0  0  0  0  0  0  0  0  0  0  0  0
   -8.0627   22.9226  -33.4628 H   0  0  0  0  0  0  0  0  0  0  0  0
   -6.3300   24.5151  -32.6376 H   0  0  0  0  0  0  0  0  0  0  0  0
   -4.6700   25.5750  -27.8780 H   0  0  0  0  0  0  0  0  0  0  0  0
   -2.9690   24.0773  -28.9921 H   0  0  0  0  0  0  0  0  0  0  0  0
   -3.2183   23.9779  -27.2131 H   0  0  0  0  0  0  0  0  0  0  0  0
   -4.6311   22.0282  -27.4408 H   0  0  0  0  0  0  0  0  0  0  0  0
   -4.6740   22.2106  -29.2370 H   0  0  0  0  0  0  0  0  0  0  0  0
   -2.2549   21.8183  -26.3886 H   0  0  0  0  0  0  0  0  0  0  0  0
   -0.1417   20.5124  -26.5484 H   0  0  0  0  0  0  0  0  0  0  0  0
    0.5157   19.4528  -28.7072 H   0  0  0  0  0  0  0  0  0  0  0  0
   -0.9482   19.6833  -30.7100 H   0  0  0  0  0  0  0  0  0  0  0  0
   -2.3876   22.8603  -31.5153 H   0  0  0  0  0  0  0  0  0  0  0  0
   -3.8024   23.0701  -33.5593 H   0  0  0  0  0  0  0  0  0  0  0  0
   -5.4718   21.3007  -34.1134 H   0  0  0  0  0  0  0  0  0  0  0  0
   -6.4114   18.6131  -31.7725 H   0  0  0  0  0  0  0  0  0  0  0  0
   -6.8228   19.4773  -33.2926 H   0  0  0  0  0  0  0  0  0  0  0  0
   -5.5380   18.2219  -33.2926 H   0  0  0  0  0  0  0  0  0  0  0  0
   -4.3143   19.0974  -30.5694 H   0  0  0  0  0  0  0  0  0  0  0  0
   -6.7321   22.8886  -28.6453 H   0  0  0  0  0  0  0  0  0  0  0  0
   -8.4651   21.2960  -29.4679 H   0  0  0  0  0  0  0  0  0  0  0  0
  1  2  1  0
  2  3  1  0
  3  4  2  0
  4  5  1  0
  5  6  2  0
  6  7  1  0
  7  8  2  0
  7  9  2  0
  7 10  1  0
 10 11  1  0
 11 12  1  0
 12 13  1  0
 13 14  2  0
 14 15  1  0
 15 16  2  0
 16 17  1  0
 17 18  2  0
 18 19  1  0
 19 20  2  0
 20 21  1  0
 21 22  2  0
 22 23  1  0
 23 24  1  0
 23 25  2  0
  6 26  1  0
 26 27  2  0
 27  3  1  0
 18 13  1  0
 25 19  1  0
  1 28  1  0
  1 29  1  0
  1 30  1  0
  2 31  1  0
  2 32  1  0
  4 33  1  0
  5 34  1  0
 10 35  1  0
 11 36  1  0
 11 37  1  0
 12 38  1  0
 12 39  1  0
 14 40  1  0
 15 41  1  0
 16 42  1  0
 17 43  1  0
 20 44  1  0
 21 45  1  0
 22 46  1  0
 24 47  1  0
 24 48  1  0
 24 49  1  0
 25 50  1  0
 26 51  1  0
 27 52  1  0
M  END
>  <UniqueID>  (38) 
35

>  <SMILES>  (38) 
CCc1ccc(S(=O)(=O)NCCc2ccccc2-c2cccc(C)c2)cc1

>  <Energy>  (38) 
51.958951178733074

>  <Genealogy>  (38) 
CCc1ccc(S(=O)(=O)NCCc2ccccc2-c2cccc(C)c2)cc1 (3D coordinates assigned)
CCc1ccc(S(=O)(=O)NCCc2ccccc2-c2cccc(C)c2)cc1 (optimized conformer: 51.958951178733074 kcal/mol)

>  <smiles>  (38) 
CCc1ccc(S(=O)(=O)NCCc2ccccc2-c2cccc(C)c2)cc1

>  <score_type>  (38) 
oracle

>  <origin>  (38) 
adgpu

>  <m_score__min__energy>  (38) 
-10.57

>  <m_primary>  (38) 
energy

$$$$
38:0
     RDKit          3D

 32 34  0  0  0  0  0  0  0  0999 V2000
   -3.4641   23.0833  -31.9564 H   0  0  0  0  0  0  0  0  0  0  0  0
   -3.3940   22.0390  -31.6180 C   0  0  0  0  0  0  0  0  0  0  0  0
   -2.7210   21.7580  -30.5440 N   0  0  0  0  0  0  0  0  0  0  0  0
   -2.0450   22.7300  -29.7340 C   0  0  0  0  0  0  0  0  0  0  0  0
   -0.4850   22.5800  -29.1140 S   0  0  0  0  0  0  0  0  0  0  0  0
   -0.4220   24.1050  -28.4140 C   0  0  0  0  0  0  0  0  0  0  0  0
    0.4282   24.5201  -27.8530 H   0  0  0  0  0  0  0  0  0  0  0  0
   -1.6250   24.7540  -28.6630 C   0  0  0  0  0  0  0  0  0  0  0  0
   -1.8378   25.7754  -28.3146 H   0  0  0  0  0  0  0  0  0  0  0  0
   -2.5450   23.9900  -29.3990 C   0  0  0  0  0  0  0  0  0  0  0  0
   -3.8790   24.5150  -29.7620 C   0  0  0  0  0  0  0  0  0  0  0  0
   -4.0650   25.4060  -30.7100 O   0  0  0  0  0  0  0  0  0  0  0  0
   -5.3470   25.6820  -30.7890 C   0  0  0  0  0  0  0  0  0  0  0  0
   -5.8000   26.3928  -31.4958 H   0  0  0  0  0  0  0  0  0  0  0  0
   -6.0380   24.9450  -29.8510 C   0  0  0  0  0  0  0  0  0  0  0  0
   -7.1232   24.9553  -29.6713 H   0  0  0  0  0  0  0  0  0  0  0  0
   -5.0960   24.1930  -29.1840 C   0  0  0  0  0  0  0  0  0  0  0  0
   -5.2735   23.4835  -28.3623 H   0  0  0  0  0  0  0  0  0  0  0  0
   -4.0670   20.9760  -32.3920 C   0  0  0  0  0  0  0  0  0  0  0  0
   -5.4700   20.9340  -32.4270 C   0  0  0  0  0  0  0  0  0  0  0  0
   -6.0527   21.6906  -31.8811 H   0  0  0  0  0  0  0  0  0  0  0  0
   -6.1320   19.9370  -33.1510 C   0  0  0  0  0  0  0  0  0  0  0  0
   -7.2315   19.9078  -33.1638 H   0  0  0  0  0  0  0  0  0  0  0  0
   -5.3990   18.9740  -33.8610 C   0  0  0  0  0  0  0  0  0  0  0  0
   -6.1090   17.8820  -34.6050 C   0  0  0  0  0  0  0  0  0  0  0  0
   -6.5629   17.1838  -33.8863 H   0  0  0  0  0  0  0  0  0  0  0  0
   -6.8953   18.3203  -35.2371 H   0  0  0  0  0  0  0  0  0  0  0  0
   -5.3894   17.3411  -35.2371 H   0  0  0  0  0  0  0  0  0  0  0  0
   -3.9980   19.0000  -33.8110 C   0  0  0  0  0  0  0  0  0  0  0  0
   -3.4170   18.2330  -34.3440 H   0  0  0  0  0  0  0  0  0  0  0  0
   -3.3360   19.9960  -33.0870 C   0  0  0  0  0  0  0  0  0  0  0  0
   -2.2364   20.0133  -33.0608 H   0  0  0  0  0  0  0  0  0  0  0  0
  1  2  1  0
  2  3  2  0
  3  4  1  0
  4  5  1  0
  5  6  1  0
  6  7  1  0
  6  8  2  0
  8  9  1  0
  8 10  1  0
 10 11  1  0
 11 12  1  0
 12 13  1  0
 13 14  1  0
 13 15  2  0
 15 16  1  0
 15 17  1  0
 17 18  1  0
  2 19  1  0
 19 20  2  0
 20 21  1  0
 20 22  1  0
 22 23  1  0
 22 24  2  0
 24 25  1  0
 25 26  1  0
 25 27  1  0
 25 28  1  0
 24 29  1  0
 29 30  1  0
 29 31  2  0
 31 32  1  0
 10  4  2  0
 17 11  2  0
 31 19  1  0
M  END
>  <UniqueID>  (39) 
36

>  <SMILES>  (39) 
Cc1ccc(/C=N/c2sccc2-c2ccco2)cc1

>  <Energy>  (39) 
87.50316616366584

>  <Genealogy>  (39) 
Cc1ccc(/C=N/c2sccc2-c2ccco2)cc1 (cis-trans isomerization)
Cc1ccc(/C=N/c2sccc2-c2ccco2)cc1 (3D coordinates assigned)
Cc1ccc(/C=N/c2sccc2-c2ccco2)cc1 (optimized conformer: 87.50316616366584 kcal/mol)

>  <smiles>  (39) 
Cc1ccc(C=Nc2sccc2-c2ccco2)cc1

>  <score_type>  (39) 
oracle

>  <origin>  (39) 
adgpu

>  <m_score__min__energy>  (39) 
-7.3300000000000001

>  <m_primary>  (39) 
energy

$$$$
39:0
     RDKit          3D

 26 28  0  0  0  0  0  0  0  0999 V2000
   -5.2510   17.4050  -33.4490 C   0  0  0  0  0  0  0  0  0  0  0  0
   -5.5160   18.5220  -34.2470 C   0  0  0  0  0  0  0  0  0  0  0  0
   -6.4720   19.4580  -33.8430 C   0  0  0  0  0  0  0  0  0  0  0  0
   -7.1620   19.2910  -32.6310 C   0  0  0  0  0  0  0  0  0  0  0  0
   -8.1580   20.2410  -32.2180 N   0  0  0  0  0  0  0  0  0  0  0  0
   -9.4910   20.0780  -32.3410 C   0  0  0  0  0  0  0  0  0  0  0  0
  -10.1860   21.1800  -31.9880 N   0  0  0  0  0  0  0  0  0  0  0  0
   -9.2420   22.0720  -31.6260 C   0  0  0  0  0  0  0  0  0  0  0  0
   -7.9950   21.5000  -31.7590 C   0  0  0  0  0  0  0  0  0  0  0  0
   -6.7230   22.1420  -31.3740 C   0  0  0  0  0  0  0  0  0  0  0  0
   -6.5030   22.9560  -30.2660 C   0  0  0  0  0  0  0  0  0  0  0  0
   -5.1990   23.4620  -30.2020 C   0  0  0  0  0  0  0  0  0  0  0  0
   -4.3920   23.0670  -31.2610 C   0  0  0  0  0  0  0  0  0  0  0  0
   -5.3050   22.0900  -32.2790 S   0  0  0  0  0  0  0  0  0  0  0  0
   -6.9020   18.1560  -31.8450 C   0  0  0  0  0  0  0  0  0  0  0  0
   -5.9450   17.2200  -32.2510 C   0  0  0  0  0  0  0  0  0  0  0  0
   -4.4951   16.6710  -33.7650 H   0  0  0  0  0  0  0  0  0  0  0  0
   -4.9722   18.6641  -35.1926 H   0  0  0  0  0  0  0  0  0  0  0  0
   -6.6853   20.3306  -34.4779 H   0  0  0  0  0  0  0  0  0  0  0  0
   -9.9613   19.1473  -32.6912 H   0  0  0  0  0  0  0  0  0  0  0  0
   -9.4368   23.0973  -31.2784 H   0  0  0  0  0  0  0  0  0  0  0  0
   -7.2762   23.1792  -29.5161 H   0  0  0  0  0  0  0  0  0  0  0  0
   -4.8463   24.1124  -29.3880 H   0  0  0  0  0  0  0  0  0  0  0  0
   -3.3380   23.3453  -31.4080 H   0  0  0  0  0  0  0  0  0  0  0  0
   -7.4536   18.0026  -30.9058 H   0  0  0  0  0  0  0  0  0  0  0  0
   -5.7389   16.3381  -31.6267 H   0  0  0  0  0  0  0  0  0  0  0  0
  1  2  2  0
  2  3  1  0
  3  4  2  0
  4  5  1  0
  5  6  1  0
  6  7  2  0
  7  8  1  0
  8  9  2  0
  9 10  1  0
 10 11  2  0
 11 12  1  0
 12 13  2  0
 13 14  1  0
  4 15  1  0
 15 16  2  0
 16  1  1  0
  9  5  1  0
 14 10  1  0
  1 17  1  0
  2 18  1  0
  3 19  1  0
  6 20  1  0
  8 21  1  0
 11 22  1  0
 12 23  1  0
 13 24  1  0
 15 25  1  0
 16 26  1  0
M  END
>  <UniqueID>  (40) 
37

>  <SMILES>  (40) 
c1ccc(-n2cncc2-c2cccs2)cc1

>  <Energy>  (40) 
91.70899992429766

>  <Genealogy>  (40) 
c1ccc(-n2cncc2-c2cccs2)cc1 (3D coordinates assigned)
c1ccc(-n2cncc2-c2cccs2)cc1 (optimized conformer: 91.70899992429766 kcal/mol)

>  <smiles>  (40) 
c1ccc(-n2cncc2-c2cccs2)cc1

>  <score_type>  (40) 
oracle

>  <origin>  (40) 
adgpu

>  <m_score__min__energy>  (40) 
-6.3200000000000003

>  <m_primary>  (40) 
energy

$$$$
40:0
     RDKit          3D

 42 44  0  0  0  0  0  0  0  0999 V2000
    0.2410   25.5690  -27.2200 C   0  0  0  0  0  0  0  0  0  0  0  0
   -0.9700   25.1820  -28.0030 C   0  0  0  0  0  0  0  0  0  0  0  0
   -1.5340   25.9570  -28.9550 N   0  0  0  0  0  0  0  0  0  0  0  0
   -2.5520   25.2980  -29.4300 O   0  0  0  0  0  0  0  0  0  0  0  0
   -2.6740   24.1380  -28.8300 C   0  0  0  0  0  0  0  0  0  0  0  0
   -3.5820   23.2530  -29.1050 N   0  0  0  0  0  0  0  0  0  0  0  0
   -4.7770   23.5030  -30.3320 S   0  0  0  0  0  0  0  0  0  0  0  0
   -4.3790   24.6720  -31.1890 O   0  0  0  0  0  0  0  0  0  0  0  0
   -6.0970   23.8120  -29.6830 O   0  0  0  0  0  0  0  0  0  0  0  0
   -4.9410   22.0440  -31.3030 C   0  0  0  0  0  0  0  0  0  0  0  0
   -6.2160   21.5890  -31.6620 C   0  0  0  0  0  0  0  0  0  0  0  0
   -6.3600   20.4210  -32.4160 C   0  0  0  0  0  0  0  0  0  0  0  0
   -5.2330   19.6810  -32.8050 C   0  0  0  0  0  0  0  0  0  0  0  0
   -5.4060   18.4930  -33.5950 N   0  0  0  0  0  0  0  0  0  0  0  0
   -6.2540   17.3960  -33.2140 C   0  0  0  0  0  0  0  0  0  0  0  0
   -7.1890   17.5870  -32.3890 O   0  0  0  0  0  0  0  0  0  0  0  0
   -6.0770   16.0520  -33.8160 C   0  0  0  0  0  0  0  0  0  0  0  0
   -4.7920   15.5030  -33.9940 C   0  0  0  0  0  0  0  0  0  0  0  0
   -4.6380   14.2310  -34.5570 C   0  0  0  0  0  0  0  0  0  0  0  0
   -5.7590   13.4930  -34.9430 C   0  0  0  0  0  0  0  0  0  0  0  0
   -5.6050   12.2610  -35.4880 F   0  0  0  0  0  0  0  0  0  0  0  0
   -7.0380   14.0240  -34.7620 C   0  0  0  0  0  0  0  0  0  0  0  0
   -7.1990   15.2930  -34.1990 C   0  0  0  0  0  0  0  0  0  0  0  0
   -3.9530   20.1500  -32.4550 C   0  0  0  0  0  0  0  0  0  0  0  0
   -3.8100   21.3200  -31.7030 C   0  0  0  0  0  0  0  0  0  0  0  0
   -1.6890   24.0060  -27.8780 C   0  0  0  0  0  0  0  0  0  0  0  0
   -1.3830   22.8200  -27.0200 C   0  0  0  0  0  0  0  0  0  0  0  0
    0.0203   25.4985  -26.1447 H   0  0  0  0  0  0  0  0  0  0  0  0
    1.0708   24.8913  -27.4692 H   0  0  0  0  0  0  0  0  0  0  0  0
    0.5240   26.6023  -27.4692 H   0  0  0  0  0  0  0  0  0  0  0  0
   -7.1072   22.1529  -31.3494 H   0  0  0  0  0  0  0  0  0  0  0  0
   -7.3644   20.0793  -32.7067 H   0  0  0  0  0  0  0  0  0  0  0  0
   -4.9840   18.4780  -34.5520 H   0  0  0  0  0  0  0  0  0  0  0  0
   -3.9048   16.0772  -33.6888 H   0  0  0  0  0  0  0  0  0  0  0  0
   -3.6308   13.8112  -34.6959 H   0  0  0  0  0  0  0  0  0  0  0  0
   -7.9212   13.4417  -35.0634 H   0  0  0  0  0  0  0  0  0  0  0  0
   -8.2099   15.7017  -34.0541 H   0  0  0  0  0  0  0  0  0  0  0  0
   -3.0601   19.5929  -32.7749 H   0  0  0  0  0  0  0  0  0  0  0  0
   -2.8062   21.6733  -31.4244 H   0  0  0  0  0  0  0  0  0  0  0  0
   -1.4566   23.1054  -25.9602 H   0  0  0  0  0  0  0  0  0  0  0  0
   -2.1033   22.0167  -27.2343 H   0  0  0  0  0  0  0  0  0  0  0  0
   -0.3640   22.4655  -27.2343 H   0  0  0  0  0  0  0  0  0  0  0  0
  1  2  1  0
  2  3  1  0
  3  4  1  0
  4  5  1  0
  5  6  2  3
  6  7  1  0
  7  8  2  0
  7  9  2  0
  7 10  1  0
 10 11  2  0
 11 12  1  0
 12 13  2  0
 13 14  1  0
 14 15  1  0
 15 16  2  0
 15 17  1  0
 17 18  2  0
 18 19  1  0
 19 20  2  0
 20 21  1  0
 20 22  1  0
 22 23  2  0
 13 24  1  0
 24 25  2  0
  5 26  1  0
 26 27  1  0
 26  2  2  0
 25 10  1  0
 23 17  1  0
  1 28  1  0
  1 29  1  0
  1 30  1  0
 11 31  1  0
 12 32  1  0
 14 33  1  0
 18 34  1  0
 19 35  1  0
 22 36  1  0
 23 37  1  0
 24 38  1  0
 25 39  1  0
 27 40  1  0
 27 41  1  0
 27 42  1  0
M  CHG  1   3  -1
M  END
>  <UniqueID>  (41) 
38

>  <SMILES>  (41) 
Cc1[n-]oc(=NS(=O)(=O)c2ccc(NC(=O)c3ccc(F)cc3)cc2)c1C

>  <Energy>  (41) 
82.29448484967462

>  <Genealogy>  (41) 
Cc1[n-]oc(=NS(=O)(=O)c2ccc(NC(=O)c3ccc(F)cc3)cc2)c1C (protonated)
Cc1[n-]oc(=NS(=O)(=O)c2ccc(NC(=O)c3ccc(F)cc3)cc2)c1C (3D coordinates assigned)
Cc1[n-]oc(=NS(=O)(=O)c2ccc(NC(=O)c3ccc(F)cc3)cc2)c1C (optimized conformer: 82.29448484967462 kcal/mol)

>  <smiles>  (41) 
Cc1[nH]oc(=NS(=O)(=O)c2ccc(NC(=O)c3ccc(F)cc3)cc2)c1C

>  <score_type>  (41) 
oracle

>  <origin>  (41) 
adgpu

>  <m_score__min__energy>  (41) 
-10.890000000000001

>  <m_primary>  (41) 
energy

$$$$
41:0
     RDKit          3D

 60 65  0  0  0  0  0  0  0  0999 V2000
   -9.1300   21.3400  -30.5130 N   0  0  0  0  0  0  0  0  0  0  0  0
   -8.5210   20.6490  -31.2130 C   0  0  0  0  0  0  0  0  0  0  0  0
   -7.7630   19.7890  -32.0830 C   0  0  0  0  0  0  0  0  0  0  0  0
   -7.1970   20.3020  -33.2580 C   0  0  0  0  0  0  0  0  0  0  0  0
   -6.4620   19.4660  -34.1050 C   0  0  0  0  0  0  0  0  0  0  0  0
   -6.2860   18.1100  -33.7860 C   0  0  0  0  0  0  0  0  0  0  0  0
   -5.5040   17.2130  -34.7080 C   0  0  0  0  0  0  0  0  0  0  0  0
   -4.1490   17.0020  -34.1920 N   0  0  0  0  0  0  0  0  0  0  0  0
   -3.4940   15.8250  -34.1240 C   0  0  0  0  0  0  0  0  0  0  0  0
   -2.2700   15.9420  -33.5680 N   0  0  0  0  0  0  0  0  0  0  0  0
   -2.1590   17.2530  -33.2680 C   0  0  0  0  0  0  0  0  0  0  0  0
   -3.3140   17.9040  -33.6420 C   0  0  0  0  0  0  0  0  0  0  0  0
   -3.5830   19.3740  -33.4960 C   0  0  0  0  0  0  0  0  0  0  0  0
   -2.3470   20.1030  -33.2090 N   0  0  0  0  0  0  0  0  0  0  0  0
   -2.2270   21.0670  -32.1460 C   0  0  0  0  0  0  0  0  0  0  0  0
   -1.0050   21.3060  -31.5000 C   0  0  0  0  0  0  0  0  0  0  0  0
   -0.9210   22.2370  -30.4650 C   0  0  0  0  0  0  0  0  0  0  0  0
   -2.0530   22.9570  -30.0470 C   0  0  0  0  0  0  0  0  0  0  0  0
   -1.9310   23.8740  -28.8870 C   0  0  0  0  0  0  0  0  0  0  0  0
   -1.1200   24.9620  -28.8730 N   0  0  0  0  0  0  0  0  0  0  0  0
   -1.2130   25.6350  -27.6990 C   0  0  0  0  0  0  0  0  0  0  0  0
   -0.4910   26.7890  -27.3920 C   0  0  0  0  0  0  0  0  0  0  0  0
   -0.6830   27.3920  -26.1360 C   0  0  0  0  0  0  0  0  0  0  0  0
   -1.5910   26.8380  -25.2100 C   0  0  0  0  0  0  0  0  0  0  0  0
   -2.3120   25.6760  -25.5310 C   0  0  0  0  0  0  0  0  0  0  0  0
   -2.0990   25.0980  -26.7790 C   0  0  0  0  0  0  0  0  0  0  0  0
   -2.8060   23.7270  -27.4370 S   0  0  0  0  0  0  0  0  0  0  0  0
   -3.2860   22.7450  -30.7170 C   0  0  0  0  0  0  0  0  0  0  0  0
   -4.5030   23.5300  -30.4050 C   0  0  0  0  0  0  0  0  0  0  0  0
   -4.4650   24.9350  -30.4120 C   0  0  0  0  0  0  0  0  0  0  0  0
   -5.6150   25.6730  -30.1170 C   0  0  0  0  0  0  0  0  0  0  0  0
   -6.8130   25.0140  -29.8260 C   0  0  0  0  0  0  0  0  0  0  0  0
   -6.8630   23.6170  -29.8320 C   0  0  0  0  0  0  0  0  0  0  0  0
   -5.7150   22.8760  -30.1240 C   0  0  0  0  0  0  0  0  0  0  0  0
   -3.3580   21.7940  -31.7500 C   0  0  0  0  0  0  0  0  0  0  0  0
   -6.8520   17.6020  -32.6050 C   0  0  0  0  0  0  0  0  0  0  0  0
   -7.5880   18.4380  -31.7580 C   0  0  0  0  0  0  0  0  0  0  0  0
   -7.3309   21.3633  -33.5144 H   0  0  0  0  0  0  0  0  0  0  0  0
   -6.0194   19.8731  -35.0261 H   0  0  0  0  0  0  0  0  0  0  0  0
   -6.0157   16.2426  -34.7888 H   0  0  0  0  0  0  0  0  0  0  0  0
   -5.4376   17.6904  -35.6968 H   0  0  0  0  0  0  0  0  0  0  0  0
   -3.9122   14.8730  -34.4828 H   0  0  0  0  0  0  0  0  0  0  0  0
   -1.2843   17.7270  -32.7988 H   0  0  0  0  0  0  0  0  0  0  0  0
   -4.0177   19.7556  -34.4316 H   0  0  0  0  0  0  0  0  0  0  0  0
   -4.2822   19.5229  -32.6599 H   0  0  0  0  0  0  0  0  0  0  0  0
   -1.5130   19.9380  -33.8200 H   0  0  0  0  0  0  0  0  0  0  0  0
   -0.1058   20.7547  -31.8123 H   0  0  0  0  0  0  0  0  0  0  0  0
    0.0453   22.4102  -29.9687 H   0  0  0  0  0  0  0  0  0  0  0  0
    0.2146   27.2187  -28.1183 H   0  0  0  0  0  0  0  0  0  0  0  0
   -0.1216   28.3011  -25.8744 H   0  0  0  0  0  0  0  0  0  0  0  0
   -1.7354   27.3184  -24.2311 H   0  0  0  0  0  0  0  0  0  0  0  0
   -3.0239   25.2359  -24.8171 H   0  0  0  0  0  0  0  0  0  0  0  0
   -3.5262   25.4562  -30.6507 H   0  0  0  0  0  0  0  0  0  0  0  0
   -5.5772   26.7723  -30.1139 H   0  0  0  0  0  0  0  0  0  0  0  0
   -7.7171   25.5952  -29.5921 H   0  0  0  0  0  0  0  0  0  0  0  0
   -7.8076   23.1003  -29.6065 H   0  0  0  0  0  0  0  0  0  0  0  0
   -5.7599   21.7770  -30.1340 H   0  0  0  0  0  0  0  0  0  0  0  0
   -4.3185   21.6175  -32.2562 H   0  0  0  0  0  0  0  0  0  0  0  0
   -6.7160   16.5419  -32.3448 H   0  0  0  0  0  0  0  0  0  0  0  0
   -8.0298   18.0334  -30.8354 H   0  0  0  0  0  0  0  0  0  0  0  0
  1  2  3  0
  2  3  1  0
  3  4  2  0
  4  5  1  0
  5  6  2  0
  6  7  1  0
  7  8  1  0
  8  9  1  0
  9 10  2  0
 10 11  1  0
 11 12  2  0
 12 13  1  0
 13 14  1  0
 14 15  1  0
 15 16  2  0
 16 17  1  0
 17 18  2  0
 18 19  1  0
 19 20  2  0
 20 21  1  0
 21 22  2  0
 22 23  1  0
 23 24  2  0
 24 25  1  0
 25 26  2  0
 26 27  1  0
 18 28  1  0
 28 29  1  0
 29 30  2  0
 30 31  1  0
 31 32  2  0
 32 33  1  0
 33 34  2  0
 28 35  2  0
  6 36  1  0
 36 37  2  0
 37  3  1  0
 12  8  1  0
 35 15  1  0
 27 19  1  0
 34 29  1  0
 26 21  1  0
  4 38  1  0
  5 39  1  0
  7 40  1  0
  7 41  1  0
  9 42  1  0
 11 43  1  0
 13 44  1  0
 13 45  1  0
 14 46  1  0
 16 47  1  0
 17 48  1  0
 22 49  1  0
 23 50  1  0
 24 51  1  0
 25 52  1  0
 30 53  1  0
 31 54  1  0
 32 55  1  0
 33 56  1  0
 34 57  1  0
 35 58  1  0
 36 59  1  0
 37 60  1  0
M  END
>  <UniqueID>  (42) 
39

>  <SMILES>  (42) 
N#Cc1ccc(Cn2cncc2CNc2ccc(-c3nc4ccccc4s3)c(-c3ccccc3)c2)cc1

>  <Energy>  (42) 
139.07164720337576

>  <Genealogy>  (42) 
N#Cc1ccc(Cn2cncc2CNc2ccc(-c3nc4ccccc4s3)c(-c3ccccc3)c2)cc1 (3D coordinates assigned)
N#Cc1ccc(Cn2cncc2CNc2ccc(-c3nc4ccccc4s3)c(-c3ccccc3)c2)cc1 (optimized conformer: 139.07164720337576 kcal/mol)

>  <smiles>  (42) 
N#Cc1ccc(Cn2cncc2CNc2ccc(-c3nc4ccccc4s3)c(-c3ccccc3)c2)cc1

>  <score_type>  (42) 
oracle

>  <origin>  (42) 
adgpu

>  <m_score__min__energy>  (42) 
-11.57

>  <m_primary>  (42) 
energy

$$$$
42:0
     RDKit          3D

 40 42  0  0  0  0  0  0  0  0999 V2000
   -3.7600   12.0750  -33.8430 C   0  0  0  0  0  0  0  0  0  0  0  0
   -4.0800   13.5310  -33.7830 C   0  0  0  0  0  0  0  0  0  0  0  0
   -4.9100   14.1390  -32.8610 C   0  0  0  0  0  0  0  0  0  0  0  0
   -4.9560   15.4600  -33.2630 C   0  0  0  0  0  0  0  0  0  0  0  0
   -5.7150   16.5230  -32.5760 C   0  0  0  0  0  0  0  0  0  0  0  0
   -5.7310   16.5420  -31.3150 O   0  0  0  0  0  0  0  0  0  0  0  0
   -6.4870   17.4770  -33.3180 N   0  0  0  0  0  0  0  0  0  0  0  0
   -6.8610   18.7690  -32.8120 C   0  0  0  0  0  0  0  0  0  0  0  0
   -8.4280   19.2710  -32.4480 S   0  0  0  0  0  0  0  0  0  0  0  0
   -8.0010   20.7980  -31.8870 C   0  0  0  0  0  0  0  0  0  0  0  0
   -8.9820   21.8140  -31.3960 C   0  0  0  0  0  0  0  0  0  0  0  0
   -6.6120   20.9460  -31.9820 C   0  0  0  0  0  0  0  0  0  0  0  0
   -5.8920   22.1760  -31.5830 C   0  0  0  0  0  0  0  0  0  0  0  0
   -6.4090   23.4390  -31.9160 C   0  0  0  0  0  0  0  0  0  0  0  0
   -5.7280   24.6000  -31.5400 C   0  0  0  0  0  0  0  0  0  0  0  0
   -4.5270   24.5130  -30.8290 C   0  0  0  0  0  0  0  0  0  0  0  0
   -3.8580   25.6750  -30.4630 O   0  0  0  0  0  0  0  0  0  0  0  0
   -4.0040   23.2570  -30.4920 C   0  0  0  0  0  0  0  0  0  0  0  0
   -2.4990   23.1260  -29.5960 Cl  0  0  0  0  0  0  0  0  0  0  0  0
   -4.6860   22.0940  -30.8680 C   0  0  0  0  0  0  0  0  0  0  0  0
   -5.9740   19.7950  -32.4910 C   0  0  0  0  0  0  0  0  0  0  0  0
   -4.5510   19.6980  -32.7080 C   0  0  0  0  0  0  0  0  0  0  0  0
   -3.4090   19.6210  -32.8810 N   0  0  0  0  0  0  0  0  0  0  0  0
   -4.1750   15.6040  -34.3600 N   0  0  0  0  0  0  0  0  0  0  0  0
   -3.8890   16.8280  -35.1010 C   0  0  0  0  0  0  0  0  0  0  0  0
   -3.6560   14.4320  -34.6900 N   0  0  0  0  0  0  0  0  0  0  0  0
   -3.6724   11.6764  -32.8215 H   0  0  0  0  0  0  0  0  0  0  0  0
   -4.5630   11.5447  -34.3759 H   0  0  0  0  0  0  0  0  0  0  0  0
   -2.8086   11.9303  -34.3759 H   0  0  0  0  0  0  0  0  0  0  0  0
   -5.4185   13.6765  -32.0022 H   0  0  0  0  0  0  0  0  0  0  0  0
   -6.8210   17.2030  -34.2690 H   0  0  0  0  0  0  0  0  0  0  0  0
   -8.9860   21.8182  -30.2960 H   0  0  0  0  0  0  0  0  0  0  0  0
   -8.6947   22.8095  -31.7654 H   0  0  0  0  0  0  0  0  0  0  0  0
   -9.9870   21.5618  -31.7654 H   0  0  0  0  0  0  0  0  0  0  0  0
   -7.3535   23.5144  -32.4748 H   0  0  0  0  0  0  0  0  0  0  0  0
   -6.1382   25.5858  -31.8043 H   0  0  0  0  0  0  0  0  0  0  0  0
   -4.2746   21.1092  -30.6017 H   0  0  0  0  0  0  0  0  0  0  0  0
   -3.6973   17.6484  -34.3938 H   0  0  0  0  0  0  0  0  0  0  0  0
   -3.0025   16.6748  -35.7339 H   0  0  0  0  0  0  0  0  0  0  0  0
   -4.7516   17.0835  -35.7339 H   0  0  0  0  0  0  0  0  0  0  0  0
  1  2  1  0
  2  3  1  0
  3  4  2  0
  4  5  1  0
  5  6  2  0
  5  7  1  0
  7  8  1  0
  8  9  1  0
  9 10  1  0
 10 11  1  0
 10 12  2  0
 12 13  1  0
 13 14  2  0
 14 15  1  0
 15 16  2  0
 16 17  1  0
 16 18  1  0
 18 19  1  0
 18 20  2  0
 12 21  1  0
 21 22  1  0
 22 23  3  0
  4 24  1  0
 24 25  1  0
 24 26  1  0
 26  2  2  0
 21  8  2  0
 20 13  1  0
  1 27  1  0
  1 28  1  0
  1 29  1  0
  3 30  1  0
  7 31  1  0
 11 32  1  0
 11 33  1  0
 11 34  1  0
 14 35  1  0
 15 36  1  0
 20 37  1  0
 25 38  1  0
 25 39  1  0
 25 40  1  0
M  CHG  1  17  -1
M  END
>  <UniqueID>  (43) 
40

>  <SMILES>  (43) 
Cc1cc(C(=O)Nc2sc(C)c(-c3ccc([O-])c(Cl)c3)c2C#N)n(C)n1

>  <Energy>  (43) 
105.99823984487183

>  <Genealogy>  (43) 
Cc1cc(C(=O)Nc2sc(C)c(-c3ccc([O-])c(Cl)c3)c2C#N)n(C)n1 (protonated)
Cc1cc(C(=O)Nc2sc(C)c(-c3ccc([O-])c(Cl)c3)c2C#N)n(C)n1 (3D coordinates assigned)
Cc1cc(C(=O)Nc2sc(C)c(-c3ccc([O-])c(Cl)c3)c2C#N)n(C)n1 (optimized conformer: 105.99823984487183 kcal/mol)

>  <smiles>  (43) 
Cc1cc(C(=O)Nc2sc(C)c(-c3ccc(O)c(Cl)c3)c2C#N)n(C)n1

>  <score_type>  (43) 
oracle

>  <origin>  (43) 
adgpu

>  <m_score__min__energy>  (43) 
-11.970000000000001

>  <m_primary>  (43) 
energy

$$$$
43:0
     RDKit          3D

 45 47  0  0  0  0  0  0  0  0999 V2000
    2.6436   20.3920  -28.7608 H   0  0  0  0  0  0  0  0  0  0  0  0
    1.7620   19.8650  -28.3670 C   0  0  0  0  0  0  0  0  0  0  0  0
    1.7690   18.4680  -28.2740 C   0  0  0  0  0  0  0  0  0  0  0  0
    2.6658   17.9052  -28.5723 H   0  0  0  0  0  0  0  0  0  0  0  0
    0.6400   17.7810  -27.8030 C   0  0  0  0  0  0  0  0  0  0  0  0
    0.6580   16.2840  -27.6810 C   0  0  0  0  0  0  0  0  0  0  0  0
    0.6614   16.0028  -26.6176 H   0  0  0  0  0  0  0  0  0  0  0  0
   -0.2352   15.8657  -28.1681 H   0  0  0  0  0  0  0  0  0  0  0  0
    1.5610   15.8873  -28.1681 H   0  0  0  0  0  0  0  0  0  0  0  0
   -0.4960   18.5090  -27.4170 C   0  0  0  0  0  0  0  0  0  0  0  0
   -1.3839   17.9803  -27.0401 H   0  0  0  0  0  0  0  0  0  0  0  0
   -0.5030   19.9050  -27.5100 C   0  0  0  0  0  0  0  0  0  0  0  0
   -1.4057   20.4672  -27.2289 H   0  0  0  0  0  0  0  0  0  0  0  0
    0.6380   20.5940  -27.9610 C   0  0  0  0  0  0  0  0  0  0  0  0
    0.6460   22.0250  -28.1030 N   0  0  0  0  0  0  0  0  0  0  0  0
   -0.3820   22.7740  -28.3760 C   0  0  0  0  0  0  0  0  0  0  0  0
   -0.2720   24.1100  -28.5480 N   0  0  0  0  0  0  0  0  0  0  0  0
   -1.4810   24.6830  -28.7950 C   0  0  0  0  0  0  0  0  0  0  0  0
   -1.6100   26.0520  -29.0000 O   0  0  0  0  0  0  0  0  0  0  0  0
   -2.5660   23.8050  -28.8160 C   0  0  0  0  0  0  0  0  0  0  0  0
   -4.0040   24.1600  -29.0520 C   0  0  0  0  0  0  0  0  0  0  0  0
   -4.2672   25.0213  -28.4204 H   0  0  0  0  0  0  0  0  0  0  0  0
   -4.6200   23.2843  -28.7996 H   0  0  0  0  0  0  0  0  0  0  0  0
   -4.2590   24.5150  -30.4930 C   0  0  0  0  0  0  0  0  0  0  0  0
   -4.4750   25.7160  -30.8050 O   0  0  0  0  0  0  0  0  0  0  0  0
   -4.3610   23.5080  -31.5090 N   0  0  0  0  0  0  0  0  0  0  0  0
   -5.5300   22.7220  -31.7740 C   0  0  0  0  0  0  0  0  0  0  0  0
   -6.7680   23.0610  -31.2100 C   0  0  0  0  0  0  0  0  0  0  0  0
   -6.8513   23.9534  -30.5723 H   0  0  0  0  0  0  0  0  0  0  0  0
   -7.8980   22.2730  -31.4520 C   0  0  0  0  0  0  0  0  0  0  0  0
   -8.8682   22.5566  -31.0180 H   0  0  0  0  0  0  0  0  0  0  0  0
   -7.7960   21.1160  -32.2510 C   0  0  0  0  0  0  0  0  0  0  0  0
   -8.8950   20.2830  -32.5240 O   0  0  0  0  0  0  0  0  0  0  0  0
   -9.1390   19.0030  -31.9350 C   0  0  0  0  0  0  0  0  0  0  0  0
  -10.0632   18.5824  -32.3581 H   0  0  0  0  0  0  0  0  0  0  0  0
   -9.2370   19.1305  -30.8468 H   0  0  0  0  0  0  0  0  0  0  0  0
   -7.9820   18.0450  -32.2110 C   0  0  0  0  0  0  0  0  0  0  0  0
   -7.5599   17.6955  -31.2572 H   0  0  0  0  0  0  0  0  0  0  0  0
   -8.3492   17.1830  -32.7873 H   0  0  0  0  0  0  0  0  0  0  0  0
   -7.2036   18.5666  -32.7873 H   0  0  0  0  0  0  0  0  0  0  0  0
   -6.5480   20.7620  -32.7810 C   0  0  0  0  0  0  0  0  0  0  0  0
   -6.4542   19.8529  -33.3931 H   0  0  0  0  0  0  0  0  0  0  0  0
   -5.4200   21.5540  -32.5390 C   0  0  0  0  0  0  0  0  0  0  0  0
   -4.4438   21.2583  -32.9509 H   0  0  0  0  0  0  0  0  0  0  0  0
   -1.9880   22.2570  -28.4890 S   0  0  0  0  0  0  0  0  0  0  0  0
  1  2  1  0
  2  3  2  0
  3  4  1  0
  3  5  1  0
  5  6  1  0
  6  7  1  0
  6  8  1  0
  6  9  1  0
  5 10  2  0
 10 11  1  0
 10 12  1  0
 12 13  1  0
 12 14  2  0
 14 15  1  0
 15 16  2  0
 16 17  1  0
 17 18  1  0
 18 19  1  0
 18 20  2  0
 20 21  1  0
 21 22  1  0
 21 23  1  0
 21 24  1  0
 24 25  2  0
 24 26  1  0
 26 27  1  0
 27 28  2  0
 28 29  1  0
 28 30  1  0
 30 31  1  0
 30 32  2  0
 32 33  1  0
 33 34  1  0
 34 35  1  0
 34 36  1  0
 34 37  1  0
 37 38  1  0
 37 39  1  0
 37 40  1  0
 32 41  1  0
 41 42  1  0
 41 43  2  0
 43 44  1  0
 20 45  1  0
 14  2  1  0
 45 16  1  0
 43 27  1  0
M  CHG  3  17  -1  19  -1  26  -1
M  END
>  <UniqueID>  (44) 
41

>  <SMILES>  (44) 
CCOc1ccc([N-]C(=O)Cc2s/c(=N\c3ccc(C)cc3)[n-]c2[O-])cc1

>  <Energy>  (44) 
85.38683904257434

>  <Genealogy>  (44) 
CCOc1ccc([N-]C(=O)Cc2sc(=Nc3ccc(C)cc3)[n-]c2[O-])cc1 (protonated)
CCOc1ccc([N-]C(=O)Cc2s/c(=N\c3ccc(C)cc3)[n-]c2[O-])cc1 (cis-trans isomerization)
CCOc1ccc([N-]C(=O)Cc2s/c(=N\c3ccc(C)cc3)[n-]c2[O-])cc1 (3D coordinates assigned)
CCOc1ccc([N-]C(=O)Cc2s/c(=N\c3ccc(C)cc3)[n-]c2[O-])cc1 (optimized conformer: 85.38683904257434 kcal/mol)

>  <smiles>  (44) 
CCOc1ccc(NC(=O)Cc2sc(=Nc3ccc(C)cc3)[nH]c2O)cc1

>  <score_type>  (44) 
oracle

>  <origin>  (44) 
adgpu

>  <m_score__min__energy>  (44) 
-13.15

>  <m_primary>  (44) 
energy

$$$$
44:0
     RDKit          3D

 44 45  0  0  0  0  0  0  0  0999 V2000
   -5.6830   16.0380  -33.3000 C   0  0  0  0  0  0  0  0  0  0  0  0
   -6.2030   16.8140  -32.2240 O   0  0  0  0  0  0  0  0  0  0  0  0
   -6.3400   18.2100  -32.2440 C   0  0  0  0  0  0  0  0  0  0  0  0
   -5.3950   19.0500  -32.8520 C   0  0  0  0  0  0  0  0  0  0  0  0
   -5.5610   20.4450  -32.8570 C   0  0  0  0  0  0  0  0  0  0  0  0
   -4.4520   21.2720  -33.4760 C   0  0  0  0  0  0  0  0  0  0  0  0
   -3.0780   20.7790  -33.0100 C   0  0  0  0  0  0  0  0  0  0  0  0
   -2.3340   21.8440  -32.4830 O   0  0  0  0  0  0  0  0  0  0  0  0
   -6.7100   21.0150  -32.2400 C   0  0  0  0  0  0  0  0  0  0  0  0
   -6.9440   22.5200  -32.2200 C   0  0  0  0  0  0  0  0  0  0  0  0
   -5.8300   23.2490  -31.5120 C   0  0  0  0  0  0  0  0  0  0  0  0
   -5.7970   24.6530  -31.4980 C   0  0  0  0  0  0  0  0  0  0  0  0
   -4.7660   25.3270  -30.8420 C   0  0  0  0  0  0  0  0  0  0  0  0
   -3.7630   24.6090  -30.1830 C   0  0  0  0  0  0  0  0  0  0  0  0
   -2.7400   25.2950  -29.5370 O   0  0  0  0  0  0  0  0  0  0  0  0
   -3.7880   23.2080  -30.1690 C   0  0  0  0  0  0  0  0  0  0  0  0
   -2.7650   22.5270  -29.4910 O   0  0  0  0  0  0  0  0  0  0  0  0
   -2.5900   22.5390  -28.0780 C   0  0  0  0  0  0  0  0  0  0  0  0
   -4.8320   22.5320  -30.8300 C   0  0  0  0  0  0  0  0  0  0  0  0
   -7.6520   20.1650  -31.6120 C   0  0  0  0  0  0  0  0  0  0  0  0
   -8.7700   20.7330  -30.9740 O   0  0  0  0  0  0  0  0  0  0  0  0
   -9.8230   21.4240  -31.6370 C   0  0  0  0  0  0  0  0  0  0  0  0
   -7.4560   18.7730  -31.6290 C   0  0  0  0  0  0  0  0  0  0  0  0
   -5.1132   15.1877  -32.8970 H   0  0  0  0  0  0  0  0  0  0  0  0
   -6.5133   15.6636  -33.9168 H   0  0  0  0  0  0  0  0  0  0  0  0
   -5.0211   16.6636  -33.9168 H   0  0  0  0  0  0  0  0  0  0  0  0
   -4.5094   18.6090  -33.3328 H   0  0  0  0  0  0  0  0  0  0  0  0
   -4.5111   21.1916  -34.5715 H   0  0  0  0  0  0  0  0  0  0  0  0
   -4.5757   22.3186  -33.1607 H   0  0  0  0  0  0  0  0  0  0  0  0
   -3.2117   20.0105  -32.2344 H   0  0  0  0  0  0  0  0  0  0  0  0
   -2.5384   20.3554  -33.8699 H   0  0  0  0  0  0  0  0  0  0  0  0
   -2.4510   21.8120  -31.4970 H   0  0  0  0  0  0  0  0  0  0  0  0
   -7.0066   22.8847  -33.2559 H   0  0  0  0  0  0  0  0  0  0  0  0
   -7.8803   22.7139  -31.6761 H   0  0  0  0  0  0  0  0  0  0  0  0
   -6.5876   25.2242  -32.0066 H   0  0  0  0  0  0  0  0  0  0  0  0
   -4.7422   26.4267  -30.8433 H   0  0  0  0  0  0  0  0  0  0  0  0
   -3.5717   22.4717  -27.5864 H   0  0  0  0  0  0  0  0  0  0  0  0
   -1.9701   21.6812  -27.7780 H   0  0  0  0  0  0  0  0  0  0  0  0
   -2.0930   23.4733  -27.7780 H   0  0  0  0  0  0  0  0  0  0  0  0
   -4.8665   21.4327  -30.8123 H   0  0  0  0  0  0  0  0  0  0  0  0
  -10.4982   21.8670  -30.8901 H   0  0  0  0  0  0  0  0  0  0  0  0
   -9.3996   22.2204  -32.2667 H   0  0  0  0  0  0  0  0  0  0  0  0
  -10.3851   20.7186  -32.2667 H   0  0  0  0  0  0  0  0  0  0  0  0
   -8.1967   18.1170  -31.1483 H   0  0  0  0  0  0  0  0  0  0  0  0
  1  2  1  0
  2  3  1  0
  3  4  2  0
  4  5  1  0
  5  6  1  0
  6  7  1  0
  7  8  1  0
  5  9  2  0
  9 10  1  0
 10 11  1  0
 11 12  2  0
 12 13  1  0
 13 14  2  0
 14 15  1  0
 14 16  1  0
 16 17  1  0
 17 18  1  0
 16 19  2  0
  9 20  1  0
 20 21  1  0
 21 22  1  0
 20 23  2  0
 23  3  1  0
 19 11  1  0
  1 24  1  0
  1 25  1  0
  1 26  1  0
  4 27  1  0
  6 28  1  0
  6 29  1  0
  7 30  1  0
  7 31  1  0
  8 32  1  0
 10 33  1  0
 10 34  1  0
 12 35  1  0
 13 36  1  0
 18 37  1  0
 18 38  1  0
 18 39  1  0
 19 40  1  0
 22 41  1  0
 22 42  1  0
 22 43  1  0
 23 44  1  0
M  CHG  1  15  -1
M  END
>  <UniqueID>  (45) 
42

>  <SMILES>  (45) 
COc1cc(CCO)c(Cc2ccc([O-])c(OC)c2)c(OC)c1

>  <Energy>  (45) 
41.53637587109495

>  <Genealogy>  (45) 
COc1cc(CCO)c(Cc2ccc([O-])c(OC)c2)c(OC)c1 (protonated)
COc1cc(CCO)c(Cc2ccc([O-])c(OC)c2)c(OC)c1 (3D coordinates assigned)
COc1cc(CCO)c(Cc2ccc([O-])c(OC)c2)c(OC)c1 (optimized conformer: 41.53637587109495 kcal/mol)

>  <smiles>  (45) 
COc1cc(CCO)c(Cc2ccc(O)c(OC)c2)c(OC)c1

>  <score_type>  (45) 
oracle

>  <origin>  (45) 
adgpu

>  <m_score__min__energy>  (45) 
-9.4399999999999995

>  <m_primary>  (45) 
energy

$$$$
45:0
     RDKit          3D

 35 37  0  0  0  0  0  0  0  0999 V2000
   -6.2220   26.3870  -30.4410 H   0  0  0  0  0  0  0  0  0  0  0  0
   -5.2710   25.9560  -30.4810 N   0  0  0  0  0  0  0  0  0  0  0  0
   -5.1060   24.7140  -30.7990 C   0  0  0  0  0  0  0  0  0  0  0  0
   -6.1760   23.9340  -31.0930 N   0  0  0  0  0  0  0  0  0  0  0  0
   -6.0100   22.6260  -31.4310 C   0  0  0  0  0  0  0  0  0  0  0  0
   -7.2010   21.7980  -31.7430 C   0  0  0  0  0  0  0  0  0  0  0  0
   -8.5010   22.3270  -31.6440 C   0  0  0  0  0  0  0  0  0  0  0  0
   -8.6438   23.3711  -31.3286 H   0  0  0  0  0  0  0  0  0  0  0  0
   -9.6120   21.5340  -31.9440 C   0  0  0  0  0  0  0  0  0  0  0  0
  -10.6241   21.9591  -31.8742 H   0  0  0  0  0  0  0  0  0  0  0  0
   -9.4410   20.2040  -32.3320 C   0  0  0  0  0  0  0  0  0  0  0  0
  -10.3180   19.5886  -32.5814 H   0  0  0  0  0  0  0  0  0  0  0  0
   -8.1530   19.6490  -32.4050 C   0  0  0  0  0  0  0  0  0  0  0  0
   -7.9390   18.3210  -32.8020 O   0  0  0  0  0  0  0  0  0  0  0  0
   -6.7280   17.7980  -33.2800 C   0  0  0  0  0  0  0  0  0  0  0  0
   -6.1030   18.3020  -34.4370 C   0  0  0  0  0  0  0  0  0  0  0  0
   -6.5586   19.1391  -34.9863 H   0  0  0  0  0  0  0  0  0  0  0  0
   -4.9050   17.7410  -34.8890 C   0  0  0  0  0  0  0  0  0  0  0  0
   -4.4154   18.1438  -35.7879 H   0  0  0  0  0  0  0  0  0  0  0  0
   -4.3280   16.6700  -34.2020 C   0  0  0  0  0  0  0  0  0  0  0  0
   -3.3829   16.2332  -34.5570 H   0  0  0  0  0  0  0  0  0  0  0  0
   -4.9530   16.1540  -33.0630 C   0  0  0  0  0  0  0  0  0  0  0  0
   -4.3990   15.1090  -32.4010 F   0  0  0  0  0  0  0  0  0  0  0  0
   -6.1530   16.7120  -32.6090 C   0  0  0  0  0  0  0  0  0  0  0  0
   -6.6477   16.2949  -31.7195 H   0  0  0  0  0  0  0  0  0  0  0  0
   -7.0410   20.4530  -32.1230 C   0  0  0  0  0  0  0  0  0  0  0  0
   -6.0297   20.0271  -32.1997 H   0  0  0  0  0  0  0  0  0  0  0  0
   -4.7510   22.1010  -31.4580 N   0  0  0  0  0  0  0  0  0  0  0  0
   -4.5990   21.0890  -31.6690 H   0  0  0  0  0  0  0  0  0  0  0  0
   -3.6750   22.8850  -31.1730 C   0  0  0  0  0  0  0  0  0  0  0  0
   -2.2960   22.3070  -31.1810 C   0  0  0  0  0  0  0  0  0  0  0  0
   -1.9527   22.1631  -30.1459 H   0  0  0  0  0  0  0  0  0  0  0  0
   -2.3076   21.3380  -31.7015 H   0  0  0  0  0  0  0  0  0  0  0  0
   -1.6132   22.9947  -31.7015 H   0  0  0  0  0  0  0  0  0  0  0  0
   -3.8580   24.1870  -30.8390 N   0  0  0  0  0  0  0  0  0  0  0  0
  1  2  1  0
  2  3  2  0
  3  4  1  0
  4  5  2  0
  5  6  1  0
  6  7  2  0
  7  8  1  0
  7  9  1  0
  9 10  1  0
  9 11  2  0
 11 12  1  0
 11 13  1  0
 13 14  1  0
 14 15  1  0
 15 16  2  0
 16 17  1  0
 16 18  1  0
 18 19  1  0
 18 20  2  0
 20 21  1  0
 20 22  1  0
 22 23  1  0
 22 24  2  0
 24 25  1  0
 13 26  2  0
 26 27  1  0
  5 28  1  0
 28 29  1  0
 28 30  1  0
 30 31  1  0
 31 32  1  0
 31 33  1  0
 31 34  1  0
 30 35  2  0
 35  3  1  0
 26  6  1  0
 24 15  1  0
M  END
>  <UniqueID>  (46) 
43

>  <SMILES>  (46) 
[H]/N=c1/nc(C)[nH]c(-c2cccc(Oc3cccc(F)c3)c2)n1

>  <Energy>  (46) 
46.45670459318036

>  <Genealogy>  (46) 
[H]/N=c1/nc(C)[nH]c(-c2cccc(Oc3cccc(F)c3)c2)n1 (cis-trans isomerization)
[H]/N=c1/nc(C)[nH]c(-c2cccc(Oc3cccc(F)c3)c2)n1 (3D coordinates assigned)
[H]/N=c1/nc(C)[nH]c(-c2cccc(Oc3cccc(F)c3)c2)n1 (optimized conformer: 46.45670459318036 kcal/mol)

>  <smiles>  (46) 
Cc1nc(=N)nc(-c2cccc(Oc3cccc(F)c3)c2)[nH]1

>  <score_type>  (46) 
oracle

>  <origin>  (46) 
adgpu

>  <m_score__min__energy>  (46) 
-7.8399999999999999

>  <m_primary>  (46) 
energy

$$$$
46:0
     RDKit          3D

 33 35  0  0  0  0  0  0  0  0999 V2000
   -1.5900   25.5460  -25.3450 C   0  0  0  0  0  0  0  0  0  0  0  0
   -1.4620   24.8670  -26.6760 C   0  0  0  0  0  0  0  0  0  0  0  0
   -0.2300   24.3310  -27.0760 C   0  0  0  0  0  0  0  0  0  0  0  0
   -0.0990   23.7340  -28.3310 C   0  0  0  0  0  0  0  0  0  0  0  0
   -1.1920   23.6770  -29.1990 C   0  0  0  0  0  0  0  0  0  0  0  0
   -2.4330   24.2230  -28.8240 C   0  0  0  0  0  0  0  0  0  0  0  0
   -3.5790   24.1600  -29.7660 C   0  0  0  0  0  0  0  0  0  0  0  0
   -4.4100   23.1010  -29.8540 N   0  0  0  0  0  0  0  0  0  0  0  0
   -5.2770   23.4890  -30.8160 C   0  0  0  0  0  0  0  0  0  0  0  0
   -6.4050   22.6590  -31.2900 C   0  0  0  0  0  0  0  0  0  0  0  0
   -7.7280   23.1080  -31.1510 C   0  0  0  0  0  0  0  0  0  0  0  0
   -8.7790   22.3100  -31.6050 C   0  0  0  0  0  0  0  0  0  0  0  0
   -8.5220   21.1050  -32.1800 N   0  0  0  0  0  0  0  0  0  0  0  0
   -7.2530   20.6390  -32.3310 C   0  0  0  0  0  0  0  0  0  0  0  0
   -7.0210   19.3070  -32.9680 C   0  0  0  0  0  0  0  0  0  0  0  0
   -6.1710   21.4100  -31.8870 C   0  0  0  0  0  0  0  0  0  0  0  0
   -4.9960   24.7180  -31.2920 N   0  0  0  0  0  0  0  0  0  0  0  0
   -3.9330   25.1310  -30.6300 N   0  0  0  0  0  0  0  0  0  0  0  0
   -2.5550   24.8260  -27.5570 C   0  0  0  0  0  0  0  0  0  0  0  0
   -1.4508   24.8075  -24.5417 H   0  0  0  0  0  0  0  0  0  0  0  0
   -0.8240   26.3307  -25.2585 H   0  0  0  0  0  0  0  0  0  0  0  0
   -2.5892   25.9979  -25.2585 H   0  0  0  0  0  0  0  0  0  0  0  0
    0.6357   24.3810  -26.3992 H   0  0  0  0  0  0  0  0  0  0  0  0
    0.8675   23.3073  -28.6373 H   0  0  0  0  0  0  0  0  0  0  0  0
   -1.0813   23.2010  -30.1845 H   0  0  0  0  0  0  0  0  0  0  0  0
   -7.9350   24.0835  -30.6867 H   0  0  0  0  0  0  0  0  0  0  0  0
   -9.8174   22.6566  -31.4975 H   0  0  0  0  0  0  0  0  0  0  0  0
   -6.8882   18.5448  -32.1861 H   0  0  0  0  0  0  0  0  0  0  0  0
   -7.8868   19.0438  -33.5934 H   0  0  0  0  0  0  0  0  0  0  0  0
   -6.1172   19.3521  -33.5934 H   0  0  0  0  0  0  0  0  0  0  0  0
   -5.1425   21.0385  -32.0056 H   0  0  0  0  0  0  0  0  0  0  0  0
   -3.4830   26.0600  -30.7780 H   0  0  0  0  0  0  0  0  0  0  0  0
   -3.5154   25.2690  -27.2547 H   0  0  0  0  0  0  0  0  0  0  0  0
  1  2  1  0
  2  3  2  0
  3  4  1  0
  4  5  2  0
  5  6  1  0
  6  7  1  0
  7  8  2  0
  8  9  1  0
  9 10  1  0
 10 11  2  0
 11 12  1  0
 12 13  2  0
 13 14  1  0
 14 15  1  0
 14 16  2  0
  9 17  2  0
 17 18  1  0
  6 19  2  0
 19  2  1  0
 18  7  1  0
 16 10  1  0
  1 20  1  0
  1 21  1  0
  1 22  1  0
  3 23  1  0
  4 24  1  0
  5 25  1  0
 11 26  1  0
 12 27  1  0
 15 28  1  0
 15 29  1  0
 15 30  1  0
 16 31  1  0
 18 32  1  0
 19 33  1  0
M  END
>  <UniqueID>  (47) 
44

>  <SMILES>  (47) 
Cc1cccc(-c2nc(-c3ccnc(C)c3)n[nH]2)c1

>  <Energy>  (47) 
68.7077903875654

>  <Genealogy>  (47) 
Cc1cccc(-c2nc(-c3ccnc(C)c3)n[nH]2)c1 (3D coordinates assigned)
Cc1cccc(-c2nc(-c3ccnc(C)c3)n[nH]2)c1 (optimized conformer: 68.7077903875654 kcal/mol)

>  <smiles>  (47) 
Cc1cccc(-c2nc(-c3ccnc(C)c3)n[nH]2)c1

>  <score_type>  (47) 
oracle

>  <origin>  (47) 
adgpu

>  <m_score__min__energy>  (47) 
-7.7800000000000002

>  <m_primary>  (47) 
energy

$$$$
47:0
     RDKit          3D

 49 50  0  0  1  0  0  0  0  0999 V2000
   -9.6430   21.5570  -31.5370 C   0  0  0  0  0  0  0  0  0  0  0  0
   -8.4820   22.4700  -31.7360 C   0  0  0  0  0  0  0  0  0  0  0  0
   -7.2130   22.4150  -30.4820 S   0  0  0  0  0  0  0  0  0  0  0  0
   -5.5790   22.1490  -31.1080 C   0  0  0  0  0  0  0  0  0  0  0  0
   -4.5200   22.9840  -30.8600 C   0  0  0  0  0  0  0  0  0  0  0  0
   -4.5900   24.1650  -30.0810 N   0  0  0  0  0  0  0  0  0  0  0  0
   -3.8530   24.2610  -28.8320 C   0  0  0  0  0  0  0  0  0  0  0  0
   -3.9320   22.9590  -28.0540 C   0  0  0  0  0  0  0  0  0  0  0  0
   -5.3640   25.3210  -30.4740 C   0  0  0  0  0  0  0  0  0  0  0  0
   -6.4870   25.6580  -29.5550 C   0  0  0  0  0  0  0  0  0  0  0  0
   -3.3030   22.6810  -31.3870 N   0  0  0  0  0  0  0  0  0  0  0  0
   -3.1170   21.5740  -32.1500 C   0  0  0  0  0  0  0  0  0  0  0  0
   -1.7450   21.3450  -32.6720 C   0  0  0  0  0  0  0  0  0  0  0  0
   -4.1370   20.7380  -32.4100 N   0  0  0  0  0  0  0  0  0  0  0  0
   -5.3410   21.0310  -31.8930 C   0  0  0  0  0  0  0  0  0  0  0  0
   -6.3240   20.2350  -32.1350 N   0  0  0  0  0  0  0  0  0  0  0  0
   -6.0900   19.0860  -32.9390 C   0  0  0  0  0  0  0  0  0  0  0  0
   -5.9230   19.2300  -34.3170 C   0  0  0  0  0  0  0  0  0  0  0  0
   -5.6960   18.1650  -35.1490 C   0  0  0  0  0  0  0  0  0  0  0  0
   -5.6350   16.9120  -34.5800 C   0  0  0  0  0  0  0  0  0  0  0  0
   -5.7920   16.7180  -33.2410 C   0  0  0  0  0  0  0  0  0  0  0  0
   -5.7330   15.5020  -32.6810 F   0  0  0  0  0  0  0  0  0  0  0  0
   -6.0190   17.8090  -32.4230 C   0  0  0  0  0  0  0  0  0  0  0  0
   -6.1910   17.6100  -30.9610 C   0  0  0  0  0  0  0  0  0  0  0  0
   -9.8198   21.4180  -30.4602 H   0  0  0  0  0  0  0  0  0  0  0  0
  -10.5383   21.9956  -32.0019 H   0  0  0  0  0  0  0  0  0  0  0  0
   -9.4279   20.5836  -32.0019 H   0  0  0  0  0  0  0  0  0  0  0  0
   -8.0145   22.2138  -32.6982 H   0  0  0  0  0  0  0  0  0  0  0  0
   -8.8966   23.4879  -31.6911 H   0  0  0  0  0  0  0  0  0  0  0  0
   -2.7989   24.4854  -29.0523 H   0  0  0  0  0  0  0  0  0  0  0  0
   -4.2974   25.0618  -28.2226 H   0  0  0  0  0  0  0  0  0  0  0  0
   -3.9189   23.1749  -26.9755 H   0  0  0  0  0  0  0  0  0  0  0  0
   -4.8637   22.4339  -28.3115 H   0  0  0  0  0  0  0  0  0  0  0  0
   -3.0707   22.3251  -28.3115 H   0  0  0  0  0  0  0  0  0  0  0  0
   -4.6874   26.1870  -30.5207 H   0  0  0  0  0  0  0  0  0  0  0  0
   -5.8191   25.0756  -31.4449 H   0  0  0  0  0  0  0  0  0  0  0  0
   -6.1506   25.5571  -28.5126 H   0  0  0  0  0  0  0  0  0  0  0  0
   -6.8116   26.6931  -29.7369 H   0  0  0  0  0  0  0  0  0  0  0  0
   -7.3279   24.9726  -29.7369 H   0  0  0  0  0  0  0  0  0  0  0  0
   -2.4770   23.3240  -31.1980 H   0  0  0  0  0  0  0  0  0  0  0  0
   -1.0470   21.2285  -31.8299 H   0  0  0  0  0  0  0  0  0  0  0  0
   -1.7340   20.4326  -33.2863 H   0  0  0  0  0  0  0  0  0  0  0  0
   -1.4382   22.2044  -33.2863 H   0  0  0  0  0  0  0  0  0  0  0  0
   -5.9757   20.2386  -34.7527 H   0  0  0  0  0  0  0  0  0  0  0  0
   -5.5671   18.3057  -36.2323 H   0  0  0  0  0  0  0  0  0  0  0  0
   -5.4539   16.0411  -35.2271 H   0  0  0  0  0  0  0  0  0  0  0  0
   -5.5660   18.3331  -30.4165 H   0  0  0  0  0  0  0  0  0  0  0  0
   -7.2467   17.7621  -30.6919 H   0  0  0  0  0  0  0  0  0  0  0  0
   -5.8877   16.5875  -30.6919 H   0  0  0  0  0  0  0  0  0  0  0  0
  1  2  1  0
  2  3  1  0
  3  4  1  0
  4  5  2  0
  5  6  1  0
  6  7  1  0
  7  8  1  0
  6  9  1  0
  9 10  1  0
  5 11  1  0
 11 12  1  0
 12 13  1  0
 12 14  2  0
 14 15  1  0
 15 16  2  0
 16 17  1  0
 17 18  2  0
 18 19  1  0
 19 20  2  0
 20 21  1  0
 21 22  1  0
 21 23  2  0
 23 24  1  0
 15  4  1  0
 23 17  1  0
  1 25  1  0
  1 26  1  0
  1 27  1  0
  2 28  1  0
  2 29  1  0
  7 30  1  0
  7 31  1  0
  8 32  1  0
  8 33  1  0
  8 34  1  0
  9 35  1  0
  9 36  1  0
 10 37  1  0
 10 38  1  0
 10 39  1  0
 11 40  1  0
 13 41  1  0
 13 42  1  0
 13 43  1  0
 18 44  1  0
 19 45  1  0
 20 46  1  0
 24 47  1  0
 24 48  1  0
 24 49  1  0
M  END
>  <smiles>  (48) 
CCSc1c(N(CC)CC)[nH]c(C)nc1=Nc1cccc(F)c1C

>  <score_type>  (48) 
oracle

>  <origin>  (48) 
adgpu

>  <m_score__min__energy>  (48) 
-7.4299999999999997

>  <m_primary>  (48) 
energy

$$$$
48:0
     RDKit          3D

 39 41  0  0  0  0  0  0  0  0999 V2000
   -6.4270   25.6780  -29.0700 C   0  0  0  0  0  0  0  0  0  0  0  0
   -6.8740   25.3870  -30.3910 O   0  0  0  0  0  0  0  0  0  0  0  0
   -7.0630   24.0910  -30.8960 C   0  0  0  0  0  0  0  0  0  0  0  0
   -7.4830   23.0880  -30.0150 C   0  0  0  0  0  0  0  0  0  0  0  0
   -7.6860   21.7810  -30.4700 C   0  0  0  0  0  0  0  0  0  0  0  0
   -7.4850   21.4640  -31.8220 C   0  0  0  0  0  0  0  0  0  0  0  0
   -7.6280   20.0450  -32.2990 C   0  0  0  0  0  0  0  0  0  0  0  0
   -6.3120   19.5080  -32.6250 N   0  0  0  0  0  0  0  0  0  0  0  0
   -5.4290   20.0410  -33.4840 C   0  0  0  0  0  0  0  0  0  0  0  0
   -4.2570   19.3390  -33.3050 C   0  0  0  0  0  0  0  0  0  0  0  0
   -2.9370   19.6150  -33.9580 C   0  0  0  0  0  0  0  0  0  0  0  0
   -1.9360   20.0160  -32.9690 N   0  0  0  0  0  0  0  0  0  0  0  0
   -2.0730   20.9960  -32.1240 C   0  0  0  0  0  0  0  0  0  0  0  0
   -1.1070   21.3410  -31.2440 N   0  0  0  0  0  0  0  0  0  0  0  0
   -1.4250   22.3860  -30.4850 N   0  0  0  0  0  0  0  0  0  0  0  0
   -2.6540   22.8770  -30.7560 C   0  0  0  0  0  0  0  0  0  0  0  0
   -3.3590   24.2500  -29.9260 S   0  0  0  0  0  0  0  0  0  0  0  0
   -2.1050   25.2480  -29.2780 N   0  0  0  0  0  0  0  0  0  0  0  0
   -4.2360   23.7620  -28.8070 O   0  0  0  0  0  0  0  0  0  0  0  0
   -4.1930   25.0450  -30.8920 O   0  0  0  0  0  0  0  0  0  0  0  0
   -3.4190   22.0100  -31.9840 S   0  0  0  0  0  0  0  0  0  0  0  0
   -4.4590   18.4040  -32.3550 N   0  0  0  0  0  0  0  0  0  0  0  0
   -5.7140   18.5370  -31.9520 N   0  0  0  0  0  0  0  0  0  0  0  0
   -7.0500   22.4640  -32.7060 C   0  0  0  0  0  0  0  0  0  0  0  0
   -6.8420   23.7690  -32.2490 C   0  0  0  0  0  0  0  0  0  0  0  0
   -7.1179   25.2282  -28.3417 H   0  0  0  0  0  0  0  0  0  0  0  0
   -5.4190   25.2625  -28.9241 H   0  0  0  0  0  0  0  0  0  0  0  0
   -6.3990   26.7679  -28.9241 H   0  0  0  0  0  0  0  0  0  0  0  0
   -7.6549   23.3295  -28.9557 H   0  0  0  0  0  0  0  0  0  0  0  0
   -8.0044   20.9987  -29.7653 H   0  0  0  0  0  0  0  0  0  0  0  0
   -8.0867   19.4359  -31.5062 H   0  0  0  0  0  0  0  0  0  0  0  0
   -8.2664   20.0212  -33.1945 H   0  0  0  0  0  0  0  0  0  0  0  0
   -5.6050   20.8687  -34.1869 H   0  0  0  0  0  0  0  0  0  0  0  0
   -2.5919   18.7048  -34.4703 H   0  0  0  0  0  0  0  0  0  0  0  0
   -3.0672   20.4367  -34.6776 H   0  0  0  0  0  0  0  0  0  0  0  0
   -0.1910   20.8470  -31.1610 H   0  0  0  0  0  0  0  0  0  0  0  0
   -1.5940   25.6640  -30.0880 H   0  0  0  0  0  0  0  0  0  0  0  0
   -6.8719   22.2197  -33.7636 H   0  0  0  0  0  0  0  0  0  0  0  0
   -6.5044   24.5473  -32.9492 H   0  0  0  0  0  0  0  0  0  0  0  0
  1  2  1  0
  2  3  1  0
  3  4  2  0
  4  5  1  0
  5  6  2  0
  6  7  1  0
  7  8  1  0
  8  9  1  0
  9 10  2  0
 10 11  1  0
 11 12  1  0
 12 13  2  3
 13 14  1  0
 14 15  1  0
 15 16  2  0
 16 17  1  0
 17 18  1  0
 17 19  2  0
 17 20  2  0
 16 21  1  0
 10 22  1  0
 22 23  2  0
  6 24  1  0
 24 25  2  0
 25  3  1  0
 23  8  1  0
 21 13  1  0
  1 26  1  0
  1 27  1  0
  1 28  1  0
  4 29  1  0
  5 30  1  0
  7 31  1  0
  7 32  1  0
  9 33  1  0
 11 34  1  0
 11 35  1  0
 14 36  1  0
 18 37  1  0
 24 38  1  0
 25 39  1  0
M  CHG  1  18  -1
M  END
>  <UniqueID>  (49) 
45

>  <SMILES>  (49) 
COc1ccc(Cn2cc(CN=c3[nH]nc(S([NH-])(=O)=O)s3)nn2)cc1

>  <Energy>  (49) 
104.0722504191478

>  <Genealogy>  (49) 
COc1ccc(Cn2cc(CN=c3[nH]nc(S([NH-])(=O)=O)s3)nn2)cc1 (protonated)
COc1ccc(Cn2cc(CN=c3[nH]nc(S([NH-])(=O)=O)s3)nn2)cc1 (3D coordinates assigned)
COc1ccc(Cn2cc(CN=c3[nH]nc(S([NH-])(=O)=O)s3)nn2)cc1 (optimized conformer: 104.0722504191478 kcal/mol)

>  <smiles>  (49) 
COc1ccc(Cn2cc(CN=c3[nH]nc(S(N)(=O)=O)s3)nn2)cc1

>  <score_type>  (49) 
oracle

>  <origin>  (49) 
adgpu

>  <m_score__min__energy>  (49) 
-10.57

>  <m_primary>  (49) 
energy

$$$$
49:0
     RDKit          3D

 36 38  0  0  0  0  0  0  0  0999 V2000
   -3.1020   11.8700  -33.3670 N   0  0  0  0  0  0  0  0  0  0  0  0
   -3.6580   13.0290  -33.2190 C   0  0  0  0  0  0  0  0  0  0  0  0
   -4.0380   13.4720  -31.9500 C   0  0  0  0  0  0  0  0  0  0  0  0
   -4.6220   14.6910  -31.8180 N   0  0  0  0  0  0  0  0  0  0  0  0
   -4.8530   15.4990  -32.8910 C   0  0  0  0  0  0  0  0  0  0  0  0
   -5.4900   16.8250  -32.6830 C   0  0  0  0  0  0  0  0  0  0  0  0
   -5.4680   17.7860  -33.7050 C   0  0  0  0  0  0  0  0  0  0  0  0
   -6.0590   19.0350  -33.5160 C   0  0  0  0  0  0  0  0  0  0  0  0
   -6.6690   19.3370  -32.2880 C   0  0  0  0  0  0  0  0  0  0  0  0
   -7.3180   20.6490  -32.0360 C   0  0  0  0  0  0  0  0  0  0  0  0
   -8.6810   20.8220  -32.3300 C   0  0  0  0  0  0  0  0  0  0  0  0
   -9.3060   22.0470  -32.0950 C   0  0  0  0  0  0  0  0  0  0  0  0
   -8.5850   23.1140  -31.5570 C   0  0  0  0  0  0  0  0  0  0  0  0
   -7.2230   22.9640  -31.2390 C   0  0  0  0  0  0  0  0  0  0  0  0
   -6.4510   24.0380  -30.6730 N   0  0  0  0  0  0  0  0  0  0  0  0
   -4.7180   24.0570  -30.6000 S   0  0  0  0  0  0  0  0  0  0  0  0
   -4.1360   25.6680  -30.8280 N   0  0  0  0  0  0  0  0  0  0  0  0
   -4.1530   23.1530  -31.6590 O   0  0  0  0  0  0  0  0  0  0  0  0
   -4.2760   23.5640  -29.2500 O   0  0  0  0  0  0  0  0  0  0  0  0
   -6.6010   21.7280  -31.4820 C   0  0  0  0  0  0  0  0  0  0  0  0
   -6.6770   18.3910  -31.3060 N   0  0  0  0  0  0  0  0  0  0  0  0
   -6.1110   17.1660  -31.4680 C   0  0  0  0  0  0  0  0  0  0  0  0
   -4.4580   15.0510  -34.1640 C   0  0  0  0  0  0  0  0  0  0  0  0
   -3.8740   13.8310  -34.2950 N   0  0  0  0  0  0  0  0  0  0  0  0
   -2.8090   11.5210  -34.3070 H   0  0  0  0  0  0  0  0  0  0  0  0
   -3.8660   12.8399  -31.0664 H   0  0  0  0  0  0  0  0  0  0  0  0
   -4.9807   17.5524  -34.6631 H   0  0  0  0  0  0  0  0  0  0  0  0
   -6.0473   19.7800  -34.3252 H   0  0  0  0  0  0  0  0  0  0  0  0
   -9.2596   19.9854  -32.7486 H   0  0  0  0  0  0  0  0  0  0  0  0
  -10.3722   22.1725  -32.3349 H   0  0  0  0  0  0  0  0  0  0  0  0
   -9.0847   24.0779  -31.3806 H   0  0  0  0  0  0  0  0  0  0  0  0
   -6.9470   24.8750  -30.2920 H   0  0  0  0  0  0  0  0  0  0  0  0
   -3.8850   26.0360  -29.8840 H   0  0  0  0  0  0  0  0  0  0  0  0
   -5.5365   21.6005  -31.2357 H   0  0  0  0  0  0  0  0  0  0  0  0
   -6.1387   16.4373  -30.6444 H   0  0  0  0  0  0  0  0  0  0  0  0
   -4.6208   15.6843  -35.0485 H   0  0  0  0  0  0  0  0  0  0  0  0
  1  2  2  3
  2  3  1  0
  3  4  2  0
  4  5  1  0
  5  6  1  0
  6  7  2  0
  7  8  1  0
  8  9  2  0
  9 10  1  0
 10 11  2  0
 11 12  1  0
 12 13  2  0
 13 14  1  0
 14 15  1  0
 15 16  1  0
 16 17  1  0
 16 18  2  0
 16 19  2  0
 14 20  2  0
  9 21  1  0
 21 22  2  0
  5 23  2  0
 23 24  1  0
 24  2  1  0
 22  6  1  0
 20 10  1  0
  1 25  1  0
  3 26  1  0
  7 27  1  0
  8 28  1  0
 11 29  1  0
 12 30  1  0
 13 31  1  0
 15 32  1  0
 17 33  1  0
 20 34  1  0
 22 35  1  0
 23 36  1  0
M  CHG  2  17  -1  24  -1
M  END
>  <UniqueID>  (50) 
46

>  <SMILES>  (50) 
N=c1cnc(-c2ccc(-c3cccc(NS([NH-])(=O)=O)c3)nc2)c[n-]1

>  <Energy>  (50) 
49.962952105605396

>  <Genealogy>  (50) 
N=c1cnc(-c2ccc(-c3cccc(NS([NH-])(=O)=O)c3)nc2)c[n-]1 (protonated)
N=c1cnc(-c2ccc(-c3cccc(NS([NH-])(=O)=O)c3)nc2)c[n-]1 (3D coordinates assigned)
N=c1cnc(-c2ccc(-c3cccc(NS([NH-])(=O)=O)c3)nc2)c[n-]1 (optimized conformer: 49.962952105605396 kcal/mol)

>  <smiles>  (50) 
N=c1cnc(-c2ccc(-c3cccc(NS(N)(=O)=O)c3)nc2)c[nH]1

>  <score_type>  (50) 
oracle

>  <origin>  (50) 
adgpu

>  <m_score__min__energy>  (50) 
-10.609999999999999

>  <m_primary>  (50) 
energy

$$$$
