0:0
     RDKit          3D

 42 45  0  0  0  0  0  0  0  0999 V2000
    1.8520   24.2160  -24.4800 C   0  0  0  0  0  0  0  0  0  0  0  0
    1.2470   24.2380  -25.8430 C   0  0  0  0  0  0  0  0  0  0  0  0
   -0.0690   23.9720  -26.1520 C   0  0  0  0  0  0  0  0  0  0  0  0
   -0.0990   24.1020  -27.5280 C   0  0  0  0  0  0  0  0  0  0  0  0
   -1.2360   23.8830  -28.3800 N   0  0  0  0  0  0  0  0  0  0  0  0
   -1.9060   24.8480  -29.0440 C   0  0  0  0  0  0  0  0  0  0  0  0
   -1.6130   26.2060  -28.9620 O   0  0  0  0  0  0  0  0  0  0  0  0
   -2.8950   24.3000  -29.8240 C   0  0  0  0  0  0  0  0  0  0  0  0
   -3.7810   24.9910  -30.6460 O   0  0  0  0  0  0  0  0  0  0  0  0
   -2.8570   22.9340  -29.6330 C   0  0  0  0  0  0  0  0  0  0  0  0
   -3.7670   21.9500  -30.2620 C   0  0  0  0  0  0  0  0  0  0  0  0
   -3.3850   20.7530  -30.3710 O   0  0  0  0  0  0  0  0  0  0  0  0
   -5.1020   22.3290  -30.7710 C   0  0  0  0  0  0  0  0  0  0  0  0
   -5.9580   23.1450  -30.0100 C   0  0  0  0  0  0  0  0  0  0  0  0
   -7.2330   23.4660  -30.4840 C   0  0  0  0  0  0  0  0  0  0  0  0
   -7.6590   22.9910  -31.7270 C   0  0  0  0  0  0  0  0  0  0  0  0
   -9.2640   23.3860  -32.3150 Cl  0  0  0  0  0  0  0  0  0  0  0  0
   -6.8050   22.2010  -32.5030 C   0  0  0  0  0  0  0  0  0  0  0  0
   -5.5300   21.8760  -32.0310 C   0  0  0  0  0  0  0  0  0  0  0  0
   -1.8110   22.7030  -28.7340 C   0  0  0  0  0  0  0  0  0  0  0  0
   -1.3990   21.3790  -28.2220 C   0  0  0  0  0  0  0  0  0  0  0  0
   -0.2260   20.7680  -28.6960 C   0  0  0  0  0  0  0  0  0  0  0  0
    0.1340   19.4940  -28.2470 C   0  0  0  0  0  0  0  0  0  0  0  0
   -0.6710   18.8240  -27.3210 C   0  0  0  0  0  0  0  0  0  0  0  0
   -1.8360   19.4280  -26.8420 C   0  0  0  0  0  0  0  0  0  0  0  0
   -2.2010   20.7010  -27.2900 C   0  0  0  0  0  0  0  0  0  0  0  0
    1.1320   24.4020  -27.9890 N   0  0  0  0  0  0  0  0  0  0  0  0
    1.9110   24.4790  -26.9490 O   0  0  0  0  0  0  0  0  0  0  0  0
    1.0536   24.2450  -23.7239 H   0  0  0  0  0  0  0  0  0  0  0  0
    2.4417   23.2958  -24.3554 H   0  0  0  0  0  0  0  0  0  0  0  0
    2.5070   25.0909  -24.3554 H   0  0  0  0  0  0  0  0  0  0  0  0
   -0.8942   23.7182  -25.4704 H   0  0  0  0  0  0  0  0  0  0  0  0
   -3.4840   25.3530  -31.5450 H   0  0  0  0  0  0  0  0  0  0  0  0
   -5.6224   23.5326  -29.0368 H   0  0  0  0  0  0  0  0  0  0  0  0
   -7.9023   24.0937  -29.8774 H   0  0  0  0  0  0  0  0  0  0  0  0
   -7.1369   21.8350  -33.4858 H   0  0  0  0  0  0  0  0  0  0  0  0
   -4.8579   21.2624  -32.6489 H   0  0  0  0  0  0  0  0  0  0  0  0
    0.4110   21.2937  -29.4226 H   0  0  0  0  0  0  0  0  0  0  0  0
    1.0518   19.0181  -28.6228 H   0  0  0  0  0  0  0  0  0  0  0  0
   -0.3870   17.8211  -26.9695 H   0  0  0  0  0  0  0  0  0  0  0  0
   -2.4671   18.9012  -26.1112 H   0  0  0  0  0  0  0  0  0  0  0  0
   -3.1195   21.1730  -26.9111 H   0  0  0  0  0  0  0  0  0  0  0  0
  1  2  1  0
  2  3  2  0
  3  4  1  0
  4  5  1  0
  5  6  1  0
  6  7  1  0
  6  8  2  0
  8  9  1  0
  8 10  1  0
 10 11  1  0
 11 12  2  0
 11 13  1  0
 13 14  2  0
 14 15  1  0
 15 16  2  0
 16 17  1  0
 16 18  1  0
 18 19  2  0
 10 20  2  0
 20 21  1  0
 21 22  2  0
 22 23  1  0
 23 24  2  0
 24 25  1  0
 25 26  2  0
  4 27  2  0
 27 28  1  0
 28  2  1  0
 20  5  1  0
 26 21  1  0
 19 13  1  0
  1 29  1  0
  1 30  1  0
  1 31  1  0
  3 32  1  0
  9 33  1  0
 14 34  1  0
 15 35  1  0
 18 36  1  0
 19 37  1  0
 22 38  1  0
 23 39  1  0
 24 40  1  0
 25 41  1  0
 26 42  1  0
M  CHG  1   7  -1
M  END
>  <UniqueID>  (1) 
1

>  <SMILES>  (1) 
Cc1cc(-n2c([O-])c(O)c(C(=O)c3ccc(Cl)cc3)c2-c2ccccc2)no1

>  <Energy>  (1) 
117.16811150647253

>  <Genealogy>  (1) 
Cc1cc(-n2c([O-])c(O)c(C(=O)c3ccc(Cl)cc3)c2-c2ccccc2)no1 (protonated)
Cc1cc(-n2c([O-])c(O)c(C(=O)c3ccc(Cl)cc3)c2-c2ccccc2)no1 (3D coordinates assigned)
Cc1cc(-n2c([O-])c(O)c(C(=O)c3ccc(Cl)cc3)c2-c2ccccc2)no1 (optimized conformer: 117.16811150647253 kcal/mol)

>  <smiles>  (1) 
Cc1cc(-n2c(O)c(O)c(C(=O)c3ccc(Cl)cc3)c2-c2ccccc2)no1

>  <score_type>  (1) 
oracle

>  <origin>  (1) 
adgpu

>  <m_score__min__energy>  (1) 
-12.34

>  <m_primary>  (1) 
energy

$$$$
1:0
     RDKit          3D

 26 27  0  0  0  0  0  0  0  0999 V2000
   -2.7180   20.4190  -33.4760 C   0  0  0  0  0  0  0  0  0  0  0  0
   -2.4560   21.7020  -32.9230 O   0  0  0  0  0  0  0  0  0  0  0  0
   -3.2100   22.2400  -31.8760 C   0  0  0  0  0  0  0  0  0  0  0  0
   -2.6450   22.8520  -30.9290 O   0  0  0  0  0  0  0  0  0  0  0  0
   -4.6710   22.0950  -31.8720 C   0  0  0  0  0  0  0  0  0  0  0  0
   -5.3050   20.9590  -32.0190 O   0  0  0  0  0  0  0  0  0  0  0  0
   -6.5930   21.2310  -31.9730 C   0  0  0  0  0  0  0  0  0  0  0  0
   -7.6420   20.2170  -32.1030 C   0  0  0  0  0  0  0  0  0  0  0  0
   -7.5850   18.9280  -31.6120 C   0  0  0  0  0  0  0  0  0  0  0  0
   -8.7820   18.3440  -31.9670 C   0  0  0  0  0  0  0  0  0  0  0  0
   -9.4920   19.3110  -32.6500 C   0  0  0  0  0  0  0  0  0  0  0  0
   -8.7870   20.4170  -32.7160 O   0  0  0  0  0  0  0  0  0  0  0  0
   -6.8520   22.5460  -31.8000 N   0  0  0  0  0  0  0  0  0  0  0  0
   -5.6190   23.0820  -31.7230 C   0  0  0  0  0  0  0  0  0  0  0  0
   -5.3480   24.4830  -31.6010 N   0  0  0  0  0  0  0  0  0  0  0  0
   -4.9980   25.1650  -30.3920 C   0  0  0  0  0  0  0  0  0  0  0  0
   -3.6490   25.2130  -29.9230 N   0  0  0  0  0  0  0  0  0  0  0  0
   -5.8960   25.7690  -29.7490 O   0  0  0  0  0  0  0  0  0  0  0  0
   -2.8663   19.6927  -32.6633 H   0  0  0  0  0  0  0  0  0  0  0  0
   -3.6252   20.4654  -34.0963 H   0  0  0  0  0  0  0  0  0  0  0  0
   -1.8652   20.1060  -34.0963 H   0  0  0  0  0  0  0  0  0  0  0  0
   -6.7579   18.4643  -31.0545 H   0  0  0  0  0  0  0  0  0  0  0  0
   -9.1060   17.3154  -31.7500 H   0  0  0  0  0  0  0  0  0  0  0  0
  -10.4974   19.1755  -33.0752 H   0  0  0  0  0  0  0  0  0  0  0  0
   -2.8520   24.9090  -30.5220 H   0  0  0  0  0  0  0  0  0  0  0  0
   -3.4330   25.6620  -29.0050 H   0  0  0  0  0  0  0  0  0  0  0  0
  1  2  1  0
  2  3  1  0
  3  4  2  0
  3  5  1  0
  5  6  1  0
  6  7  1  0
  7  8  1  0
  8  9  2  0
  9 10  1  0
 10 11  2  0
 11 12  1  0
  7 13  2  0
 13 14  1  0
 14 15  1  0
 15 16  1  0
 16 17  1  0
 16 18  2  0
 14  5  2  0
 12  8  1  0
  1 19  1  0
  1 20  1  0
  1 21  1  0
  9 22  1  0
 10 23  1  0
 11 24  1  0
 17 25  1  0
 17 26  1  0
M  CHG  1  15  -1
M  END
>  <UniqueID>  (2) 
2

>  <SMILES>  (2) 
COC(=O)c1oc(-c2ccco2)nc1[N-]C(N)=O

>  <Energy>  (2) 
79.06493185217599

>  <Genealogy>  (2) 
COC(=O)c1oc(-c2ccco2)nc1[N-]C(N)=O (protonated)
COC(=O)c1oc(-c2ccco2)nc1[N-]C(N)=O (3D coordinates assigned)
COC(=O)c1oc(-c2ccco2)nc1[N-]C(N)=O (optimized conformer: 79.06493185217599 kcal/mol)

>  <smiles>  (2) 
COC(=O)c1oc(-c2ccco2)nc1NC(N)=O

>  <score_type>  (2) 
oracle

>  <origin>  (2) 
adgpu

>  <m_score__min__energy>  (2) 
-6.29

>  <m_primary>  (2) 
energy

$$$$
2:0
     RDKit          3D

 54 57  0  0  0  0  0  0  0  0999 V2000
   -6.4370   25.2870  -29.7320 C   0  0  0  0  0  0  0  0  0  0  0  0
   -6.0530   24.2280  -30.7600 C   0  0  0  0  0  0  0  0  0  0  0  0
   -4.6350   24.0790  -30.8260 O   0  0  0  0  0  0  0  0  0  0  0  0
   -3.9560   23.0460  -31.4940 C   0  0  0  0  0  0  0  0  0  0  0  0
   -4.4950   22.5740  -32.6960 C   0  0  0  0  0  0  0  0  0  0  0  0
   -3.8310   21.5900  -33.4340 C   0  0  0  0  0  0  0  0  0  0  0  0
   -2.6280   21.0480  -32.9620 C   0  0  0  0  0  0  0  0  0  0  0  0
   -1.8750   20.0690  -33.7970 C   0  0  0  0  0  0  0  0  0  0  0  0
   -2.3700   18.7480  -33.7710 C   0  0  0  0  0  0  0  0  0  0  0  0
   -3.6160   18.5030  -33.0940 N   0  0  0  0  0  0  0  0  0  0  0  0
   -4.8600   18.4550  -33.8080 C   0  0  0  0  0  0  0  0  0  0  0  0
   -4.8530   18.1830  -35.0410 O   0  0  0  0  0  0  0  0  0  0  0  0
   -6.1460   18.7440  -33.1290 C   0  0  0  0  0  0  0  0  0  0  0  0
   -6.9100   17.6930  -32.5910 C   0  0  0  0  0  0  0  0  0  0  0  0
   -8.1370   17.9520  -31.9770 C   0  0  0  0  0  0  0  0  0  0  0  0
   -8.6200   19.2580  -31.9000 C   0  0  0  0  0  0  0  0  0  0  0  0
   -7.8860   20.3200  -32.4370 C   0  0  0  0  0  0  0  0  0  0  0  0
   -8.4240   21.6120  -32.3450 O   0  0  0  0  0  0  0  0  0  0  0  0
   -9.4880   21.9810  -31.4740 C   0  0  0  0  0  0  0  0  0  0  0  0
   -6.6450   20.0590  -33.0530 C   0  0  0  0  0  0  0  0  0  0  0  0
   -1.7490   17.6190  -34.2780 C   0  0  0  0  0  0  0  0  0  0  0  0
   -0.6460   17.5600  -35.0420 N   0  0  0  0  0  0  0  0  0  0  0  0
    0.2030   18.4730  -35.5580 C   0  0  0  0  0  0  0  0  0  0  0  0
    1.2050   17.9260  -36.3800 C   0  0  0  0  0  0  0  0  0  0  0  0
    2.1510   18.7260  -37.0080 C   0  0  0  0  0  0  0  0  0  0  0  0
    2.1160   20.0960  -36.8260 C   0  0  0  0  0  0  0  0  0  0  0  0
    1.1430   20.6650  -36.0090 C   0  0  0  0  0  0  0  0  0  0  0  0
    0.1570   19.8810  -35.3390 C   0  0  0  0  0  0  0  0  0  0  0  0
   -0.7500   20.5780  -34.4920 C   0  0  0  0  0  0  0  0  0  0  0  0
   -0.5380   21.8170  -34.3350 O   0  0  0  0  0  0  0  0  0  0  0  0
   -2.1110   21.4770  -31.7300 C   0  0  0  0  0  0  0  0  0  0  0  0
   -2.7650   22.4770  -31.0050 C   0  0  0  0  0  0  0  0  0  0  0  0
   -6.2910   24.8844  -28.7188 H   0  0  0  0  0  0  0  0  0  0  0  0
   -5.8041   26.1764  -29.8679 H   0  0  0  0  0  0  0  0  0  0  0  0
   -7.4928   25.5641  -29.8679 H   0  0  0  0  0  0  0  0  0  0  0  0
   -6.5041   23.2665  -30.4735 H   0  0  0  0  0  0  0  0  0  0  0  0
   -6.4215   24.5437  -31.7472 H   0  0  0  0  0  0  0  0  0  0  0  0
   -5.4489   22.9806  -33.0631 H   0  0  0  0  0  0  0  0  0  0  0  0
   -4.2537   21.2403  -34.3874 H   0  0  0  0  0  0  0  0  0  0  0  0
   -3.5930   18.2320  -32.0850 H   0  0  0  0  0  0  0  0  0  0  0  0
   -6.5383   16.6596  -32.6543 H   0  0  0  0  0  0  0  0  0  0  0  0
   -8.7240   17.1240  -31.5530 H   0  0  0  0  0  0  0  0  0  0  0  0
   -9.5865   19.4543  -31.4127 H   0  0  0  0  0  0  0  0  0  0  0  0
   -9.1626   21.8681  -30.4293 H   0  0  0  0  0  0  0  0  0  0  0  0
   -9.7675   23.0285  -31.6599 H   0  0  0  0  0  0  0  0  0  0  0  0
  -10.3560   21.3314  -31.6599 H   0  0  0  0  0  0  0  0  0  0  0  0
   -6.0616   20.8892  -33.4778 H   0  0  0  0  0  0  0  0  0  0  0  0
   -2.2148   16.6552  -34.0247 H   0  0  0  0  0  0  0  0  0  0  0  0
    1.2402   16.8367  -36.5293 H   0  0  0  0  0  0  0  0  0  0  0  0
    2.9234   18.2722  -37.6463 H   0  0  0  0  0  0  0  0  0  0  0  0
    2.8570   20.7365  -37.3268 H   0  0  0  0  0  0  0  0  0  0  0  0
    1.1340   21.7568  -35.8753 H   0  0  0  0  0  0  0  0  0  0  0  0
   -1.1894   21.0254  -31.3342 H   0  0  0  0  0  0  0  0  0  0  0  0
   -2.3469   22.8211  -30.0475 H   0  0  0  0  0  0  0  0  0  0  0  0
  1  2  1  0
  2  3  1  0
  3  4  1  0
  4  5  2  0
  5  6  1  0
  6  7  2  0
  7  8  1  0
  8  9  2  0
  9 10  1  0
 10 11  1  0
 11 12  2  0
 11 13  1  0
 13 14  2  0
 14 15  1  0
 15 16  2  0
 16 17  1  0
 17 18  1  0
 18 19  1  0
 17 20  2  0
  9 21  1  0
 21 22  2  0
 22 23  1  0
 23 24  2  0
 24 25  1  0
 25 26  2  0
 26 27  1  0
 27 28  2  0
 28 29  1  0
 29 30  2  0
  7 31  1  0
 31 32  2  0
 32  4  1  0
 29  8  1  0
 20 13  1  0
 28 23  1  0
  1 33  1  0
  1 34  1  0
  1 35  1  0
  2 36  1  0
  2 37  1  0
  5 38  1  0
  6 39  1  0
 10 40  1  0
 14 41  1  0
 15 42  1  0
 16 43  1  0
 19 44  1  0
 19 45  1  0
 19 46  1  0
 20 47  1  0
 21 48  1  0
 24 49  1  0
 25 50  1  0
 26 51  1  0
 27 52  1  0
 31 53  1  0
 32 54  1  0
M  END
>  <UniqueID>  (3) 
3

>  <SMILES>  (3) 
CCOc1ccc(-c2c(NC(=O)c3cccc(OC)c3)cnc3ccccc3c2=O)cc1

>  <Energy>  (3) 
103.31648003083679

>  <Genealogy>  (3) 
CCOc1ccc(-c2c(NC(=O)c3cccc(OC)c3)cnc3ccccc3c2=O)cc1 (3D coordinates assigned)
CCOc1ccc(-c2c(NC(=O)c3cccc(OC)c3)cnc3ccccc3c2=O)cc1 (optimized conformer: 103.31648003083679 kcal/mol)

>  <smiles>  (3) 
CCOc1ccc(-c2c(NC(=O)c3cccc(OC)c3)cnc3ccccc3c2=O)cc1

>  <score_type>  (3) 
oracle

>  <origin>  (3) 
adgpu

>  <m_score__min__energy>  (3) 
-9

>  <m_primary>  (3) 
energy

$$$$
3:0
     RDKit          3D

 46 49  0  0  0  0  0  0  0  0999 V2000
   -0.5800   19.6250  -34.6040 C   0  0  0  0  0  0  0  0  0  0  0  0
   -1.8540   18.9540  -34.1600 C   0  0  0  0  0  0  0  0  0  0  0  0
   -2.0690   17.6050  -34.4920 C   0  0  0  0  0  0  0  0  0  0  0  0
   -3.2390   16.9540  -34.0970 C   0  0  0  0  0  0  0  0  0  0  0  0
   -4.2080   17.6350  -33.3560 C   0  0  0  0  0  0  0  0  0  0  0  0
   -5.6800   16.7970  -32.8710 S   0  0  0  0  0  0  0  0  0  0  0  0
   -5.6830   15.4310  -33.4930 O   0  0  0  0  0  0  0  0  0  0  0  0
   -5.7450   16.6430  -31.3770 O   0  0  0  0  0  0  0  0  0  0  0  0
   -7.0710   17.6750  -33.4200 N   0  0  0  0  0  0  0  0  0  0  0  0
   -7.5930   18.8670  -32.8160 C   0  0  0  0  0  0  0  0  0  0  0  0
   -8.9680   18.9480  -32.5710 C   0  0  0  0  0  0  0  0  0  0  0  0
   -9.5170   20.0940  -31.9920 C   0  0  0  0  0  0  0  0  0  0  0  0
   -8.6960   21.1720  -31.6530 C   0  0  0  0  0  0  0  0  0  0  0  0
   -7.3110   21.1120  -31.8870 C   0  0  0  0  0  0  0  0  0  0  0  0
   -6.4300   22.2550  -31.5250 C   0  0  0  0  0  0  0  0  0  0  0  0
   -6.8040   23.5860  -31.8580 C   0  0  0  0  0  0  0  0  0  0  0  0
   -5.9790   24.6740  -31.5180 C   0  0  0  0  0  0  0  0  0  0  0  0
   -4.7870   24.4090  -30.8520 C   0  0  0  0  0  0  0  0  0  0  0  0
   -3.8710   25.3100  -30.4530 N   0  0  0  0  0  0  0  0  0  0  0  0
   -2.9080   24.5550  -29.8720 C   0  0  0  0  0  0  0  0  0  0  0  0
   -1.7510   25.0920  -29.3180 O   0  0  0  0  0  0  0  0  0  0  0  0
   -3.2020   23.2000  -29.8960 C   0  0  0  0  0  0  0  0  0  0  0  0
   -4.4160   23.1300  -30.5330 C   0  0  0  0  0  0  0  0  0  0  0  0
   -5.2070   22.0290  -30.8500 C   0  0  0  0  0  0  0  0  0  0  0  0
   -6.7680   19.9500  -32.4640 C   0  0  0  0  0  0  0  0  0  0  0  0
   -4.0080   18.9820  -33.0250 C   0  0  0  0  0  0  0  0  0  0  0  0
   -2.8520   19.6600  -33.4460 C   0  0  0  0  0  0  0  0  0  0  0  0
   -2.6840   21.1090  -33.0670 C   0  0  0  0  0  0  0  0  0  0  0  0
    0.0004   19.9307  -33.7210 H   0  0  0  0  0  0  0  0  0  0  0  0
    0.0134   18.9224  -35.2076 H   0  0  0  0  0  0  0  0  0  0  0  0
   -0.8237   20.5117  -35.2076 H   0  0  0  0  0  0  0  0  0  0  0  0
   -1.3085   17.0575  -35.0682 H   0  0  0  0  0  0  0  0  0  0  0  0
   -3.3986   15.9005  -34.3703 H   0  0  0  0  0  0  0  0  0  0  0  0
   -9.6209   18.1034  -32.8362 H   0  0  0  0  0  0  0  0  0  0  0  0
  -10.5992   20.1480  -31.8023 H   0  0  0  0  0  0  0  0  0  0  0  0
   -9.1356   22.0730  -31.2004 H   0  0  0  0  0  0  0  0  0  0  0  0
   -7.7505   23.7674  -32.3883 H   0  0  0  0  0  0  0  0  0  0  0  0
   -6.2684   25.7045  -31.7716 H   0  0  0  0  0  0  0  0  0  0  0  0
   -0.8500   24.9360  -29.7510 H   0  0  0  0  0  0  0  0  0  0  0  0
   -2.6000   22.3708  -29.4960 H   0  0  0  0  0  0  0  0  0  0  0  0
   -4.8896   21.0102  -30.5828 H   0  0  0  0  0  0  0  0  0  0  0  0
   -5.6843   19.8876  -32.6422 H   0  0  0  0  0  0  0  0  0  0  0  0
   -4.7643   19.5140  -32.4292 H   0  0  0  0  0  0  0  0  0  0  0  0
   -2.6732   21.2025  -31.9710 H   0  0  0  0  0  0  0  0  0  0  0  0
   -1.7359   21.4876  -33.4767 H   0  0  0  0  0  0  0  0  0  0  0  0
   -3.5203   21.6945  -33.4767 H   0  0  0  0  0  0  0  0  0  0  0  0
  1  2  1  0
  2  3  2  0
  3  4  1  0
  4  5  2  0
  5  6  1  0
  6  7  2  0
  6  8  2  0
  6  9  1  0
  9 10  1  0
 10 11  2  0
 11 12  1  0
 12 13  2  0
 13 14  1  0
 14 15  1  0
 15 16  2  0
 16 17  1  0
 17 18  2  0
 18 19  1  0
 19 20  1  0
 20 21  1  0
 20 22  2  0
 22 23  1  0
 23 24  2  0
 14 25  2  0
  5 26  1  0
 26 27  2  0
 27 28  1  0
 27  2  1  0
 25 10  1  0
 24 15  1  0
 23 18  1  0
  1 29  1  0
  1 30  1  0
  1 31  1  0
  3 32  1  0
  4 33  1  0
 11 34  1  0
 12 35  1  0
 13 36  1  0
 16 37  1  0
 17 38  1  0
 21 39  1  0
 22 40  1  0
 24 41  1  0
 25 42  1  0
 26 43  1  0
 28 44  1  0
 28 45  1  0
 28 46  1  0
M  CHG  2   9  -1  19  -1
M  END
>  <UniqueID>  (4) 
4

>  <SMILES>  (4) 
Cc1ccc(S(=O)(=O)[N-]c2cccc(-c3ccc4[n-]c(O)cc4c3)c2)cc1C

>  <Energy>  (4) 
89.34978596150599

>  <Genealogy>  (4) 
Cc1ccc(S(=O)(=O)[N-]c2cccc(-c3ccc4[n-]c(O)cc4c3)c2)cc1C (protonated)
Cc1ccc(S(=O)(=O)[N-]c2cccc(-c3ccc4[n-]c(O)cc4c3)c2)cc1C (3D coordinates assigned)
Cc1ccc(S(=O)(=O)[N-]c2cccc(-c3ccc4[n-]c(O)cc4c3)c2)cc1C (optimized conformer: 89.34978596150599 kcal/mol)

>  <smiles>  (4) 
Cc1ccc(S(=O)(=O)Nc2cccc(-c3ccc4[nH]c(O)cc4c3)c2)cc1C

>  <score_type>  (4) 
oracle

>  <origin>  (4) 
adgpu

>  <m_score__min__energy>  (4) 
-12.220000000000001

>  <m_primary>  (4) 
energy

$$$$
4:0
     RDKit          3D

 31 32  0  0  0  0  0  0  0  0999 V2000
   -4.0440   21.7580  -32.9380 C   0  0  0  0  0  0  0  0  0  0  0  0
   -5.2280   22.3000  -32.1850 C   0  0  0  0  0  0  0  0  0  0  0  0
   -6.4710   21.6570  -32.3250 C   0  0  0  0  0  0  0  0  0  0  0  0
   -7.6040   22.1580  -31.6820 C   0  0  0  0  0  0  0  0  0  0  0  0
   -7.5120   23.3050  -30.8930 C   0  0  0  0  0  0  0  0  0  0  0  0
   -6.2810   23.9470  -30.7260 C   0  0  0  0  0  0  0  0  0  0  0  0
   -6.1990   25.3800  -29.7110 Cl  0  0  0  0  0  0  0  0  0  0  0  0
   -5.1260   23.4330  -31.3420 C   0  0  0  0  0  0  0  0  0  0  0  0
   -3.8750   24.1060  -31.1370 N   0  0  0  0  0  0  0  0  0  0  0  0
   -3.0910   23.9940  -29.9450 C   0  0  0  0  0  0  0  0  0  0  0  0
   -2.7100   25.0330  -29.3430 O   0  0  0  0  0  0  0  0  0  0  0  0
   -2.7080   22.6580  -29.4500 C   0  0  0  0  0  0  0  0  0  0  0  0
   -3.0960   22.1210  -28.2370 C   0  0  0  0  0  0  0  0  0  0  0  0
   -2.4990   20.8740  -28.2080 C   0  0  0  0  0  0  0  0  0  0  0  0
   -2.5460   19.9080  -27.0670 C   0  0  0  0  0  0  0  0  0  0  0  0
   -3.8630   19.6510  -26.7360 F   0  0  0  0  0  0  0  0  0  0  0  0
   -1.8980   20.4420  -25.9680 F   0  0  0  0  0  0  0  0  0  0  0  0
   -1.9250   18.7250  -27.4240 F   0  0  0  0  0  0  0  0  0  0  0  0
   -1.7750   20.6830  -29.3280 N   0  0  0  0  0  0  0  0  0  0  0  0
   -1.9130   21.7620  -30.0820 N   0  0  0  0  0  0  0  0  0  0  0  0
   -1.2620   21.9120  -31.3800 C   0  0  0  0  0  0  0  0  0  0  0  0
   -3.2833   21.4098  -32.2238 H   0  0  0  0  0  0  0  0  0  0  0  0
   -4.3652   20.9173  -33.5704 H   0  0  0  0  0  0  0  0  0  0  0  0
   -3.6176   22.5506  -33.5704 H   0  0  0  0  0  0  0  0  0  0  0  0
   -6.5508   20.7525  -32.9459 H   0  0  0  0  0  0  0  0  0  0  0  0
   -8.5715   21.6475  -31.7975 H   0  0  0  0  0  0  0  0  0  0  0  0
   -8.4105   23.7055  -30.4008 H   0  0  0  0  0  0  0  0  0  0  0  0
   -3.7348   22.5812  -27.4688 H   0  0  0  0  0  0  0  0  0  0  0  0
   -0.1999   22.1567  -31.2314 H   0  0  0  0  0  0  0  0  0  0  0  0
   -1.3461   20.9709  -31.9433 H   0  0  0  0  0  0  0  0  0  0  0  0
   -1.7494   22.7214  -31.9433 H   0  0  0  0  0  0  0  0  0  0  0  0
  1  2  1  0
  2  3  2  0
  3  4  1  0
  4  5  2  0
  5  6  1  0
  6  7  1  0
  6  8  2  0
  8  9  1  0
  9 10  1  0
 10 11  2  0
 10 12  1  0
 12 13  2  0
 13 14  1  0
 14 15  1  0
 15 16  1  0
 15 17  1  0
 15 18  1  0
 14 19  2  0
 19 20  1  0
 20 21  1  0
  8  2  1  0
 20 12  1  0
  1 22  1  0
  1 23  1  0
  1 24  1  0
  3 25  1  0
  4 26  1  0
  5 27  1  0
 13 28  1  0
 21 29  1  0
 21 30  1  0
 21 31  1  0
M  CHG  1   9  -1
M  END
>  <UniqueID>  (5) 
5

>  <SMILES>  (5) 
Cc1cccc(Cl)c1[N-]C(=O)c1cc(C(F)(F)F)nn1C

>  <Energy>  (5) 
66.7978076258027

>  <Genealogy>  (5) 
Cc1cccc(Cl)c1[N-]C(=O)c1cc(C(F)(F)F)nn1C (protonated)
Cc1cccc(Cl)c1[N-]C(=O)c1cc(C(F)(F)F)nn1C (3D coordinates assigned)
Cc1cccc(Cl)c1[N-]C(=O)c1cc(C(F)(F)F)nn1C (optimized conformer: 66.7978076258027 kcal/mol)

>  <smiles>  (5) 
Cc1cccc(Cl)c1NC(=O)c1cc(C(F)(F)F)nn1C

>  <score_type>  (5) 
oracle

>  <origin>  (5) 
adgpu

>  <m_score__min__energy>  (5) 
-7.6500000000000004

>  <m_primary>  (5) 
energy

$$$$
5:0
     RDKit          3D

 29 30  0  0  0  0  0  0  0  0999 V2000
   -1.2150   23.7950  -29.7820 N   0  0  0  0  0  0  0  0  0  0  0  0
   -2.5600   24.0590  -29.3820 C   0  0  0  0  0  0  0  0  0  0  0  0
   -2.8870   24.1860  -28.0280 C   0  0  0  0  0  0  0  0  0  0  0  0
   -4.2170   24.4380  -27.6860 C   0  0  0  0  0  0  0  0  0  0  0  0
   -4.5410   24.5580  -26.4740 O   0  0  0  0  0  0  0  0  0  0  0  0
   -5.1600   24.5520  -28.6590 N   0  0  0  0  0  0  0  0  0  0  0  0
   -4.8240   24.4190  -29.9700 C   0  0  0  0  0  0  0  0  0  0  0  0
   -6.0780   24.5450  -31.2450 S   0  0  0  0  0  0  0  0  0  0  0  0
   -7.1710   23.2660  -30.5290 C   0  0  0  0  0  0  0  0  0  0  0  0
   -7.2670   22.0600  -31.4350 C   0  0  0  0  0  0  0  0  0  0  0  0
   -8.4580   21.3110  -31.3990 C   0  0  0  0  0  0  0  0  0  0  0  0
   -8.6260   20.1930  -32.2170 C   0  0  0  0  0  0  0  0  0  0  0  0
   -7.6110   19.8070  -33.0890 C   0  0  0  0  0  0  0  0  0  0  0  0
   -6.4250   20.5400  -33.1480 C   0  0  0  0  0  0  0  0  0  0  0  0
   -6.2360   21.6700  -32.3350 C   0  0  0  0  0  0  0  0  0  0  0  0
   -5.0020   22.3940  -32.4570 N   0  0  0  0  0  0  0  0  0  0  0  0
   -3.5330   24.1810  -30.3220 N   0  0  0  0  0  0  0  0  0  0  0  0
   -0.8370   22.8230  -29.7380 H   0  0  0  0  0  0  0  0  0  0  0  0
   -0.5930   24.5630  -30.1180 H   0  0  0  0  0  0  0  0  0  0  0  0
   -2.1145   24.0896  -27.2509 H   0  0  0  0  0  0  0  0  0  0  0  0
   -6.1560   24.7360  -28.3980 H   0  0  0  0  0  0  0  0  0  0  0  0
   -6.7664   22.9522  -29.5555 H   0  0  0  0  0  0  0  0  0  0  0  0
   -8.1774   23.6940  -30.4108 H   0  0  0  0  0  0  0  0  0  0  0  0
   -9.2672   21.6109  -30.7169 H   0  0  0  0  0  0  0  0  0  0  0  0
   -9.5614   19.6158  -32.1730 H   0  0  0  0  0  0  0  0  0  0  0  0
   -7.7442   18.9241  -33.7314 H   0  0  0  0  0  0  0  0  0  0  0  0
   -5.6282   20.2291  -33.8397 H   0  0  0  0  0  0  0  0  0  0  0  0
   -4.6740   22.7180  -33.3950 H   0  0  0  0  0  0  0  0  0  0  0  0
   -4.4180   22.6760  -31.6430 H   0  0  0  0  0  0  0  0  0  0  0  0
  1  2  1  0
  2  3  2  0
  3  4  1  0
  4  5  2  0
  4  6  1  0
  6  7  1  0
  7  8  1  0
  8  9  1  0
  9 10  1  0
 10 11  2  0
 11 12  1  0
 12 13  2  0
 13 14  1  0
 14 15  2  0
 15 16  1  0
  7 17  2  0
 17  2  1  0
 15 10  1  0
  1 18  1  0
  1 19  1  0
  3 20  1  0
  6 21  1  0
  9 22  1  0
  9 23  1  0
 11 24  1  0
 12 25  1  0
 13 26  1  0
 14 27  1  0
 16 28  1  0
 16 29  1  0
M  END
>  <UniqueID>  (6) 
6

>  <SMILES>  (6) 
Nc1cc(=O)[nH]c(SCc2ccccc2N)n1

>  <Energy>  (6) 
25.96014215645747

>  <Genealogy>  (6) 
Nc1cc(=O)[nH]c(SCc2ccccc2N)n1 (3D coordinates assigned)
Nc1cc(=O)[nH]c(SCc2ccccc2N)n1 (optimized conformer: 25.96014215645747 kcal/mol)

>  <smiles>  (6) 
Nc1cc(=O)[nH]c(SCc2ccccc2N)n1

>  <score_type>  (6) 
oracle

>  <origin>  (6) 
adgpu

>  <m_score__min__energy>  (6) 
-6.4800000000000004

>  <m_primary>  (6) 
energy

$$$$
6:0
     RDKit          3D

 39 42  0  0  0  0  0  0  0  0999 V2000
   -5.3620   26.3460  -30.4920 O   0  0  0  0  0  0  0  0  0  0  0  0
   -4.9550   25.1580  -30.6090 C   0  0  0  0  0  0  0  0  0  0  0  0
   -3.5620   24.8500  -30.4680 N   0  0  0  0  0  0  0  0  0  0  0  0
   -3.0030   23.6950  -29.8260 C   0  0  0  0  0  0  0  0  0  0  0  0
   -3.0440   23.6190  -28.4300 C   0  0  0  0  0  0  0  0  0  0  0  0
   -2.4810   22.5280  -27.7630 C   0  0  0  0  0  0  0  0  0  0  0  0
   -1.8660   21.5050  -28.4880 C   0  0  0  0  0  0  0  0  0  0  0  0
   -1.8140   21.5600  -29.8920 C   0  0  0  0  0  0  0  0  0  0  0  0
   -1.0890   20.4920  -30.6720 C   0  0  0  0  0  0  0  0  0  0  0  0
   -0.7040   19.4570  -29.8390 F   0  0  0  0  0  0  0  0  0  0  0  0
   -1.9290   19.9950  -31.6500 F   0  0  0  0  0  0  0  0  0  0  0  0
    0.0460   21.0080  -31.2720 F   0  0  0  0  0  0  0  0  0  0  0  0
   -2.3590   22.6760  -30.5530 C   0  0  0  0  0  0  0  0  0  0  0  0
   -5.8850   24.1170  -30.9390 N   0  0  0  0  0  0  0  0  0  0  0  0
   -7.2390   24.1840  -30.7930 C   0  0  0  0  0  0  0  0  0  0  0  0
   -7.7280   22.9900  -31.2470 C   0  0  0  0  0  0  0  0  0  0  0  0
   -8.9260   22.4310  -31.4400 N   0  0  0  0  0  0  0  0  0  0  0  0
   -8.7010   21.2400  -31.9960 N   0  0  0  0  0  0  0  0  0  0  0  0
   -7.3530   21.0700  -32.1450 C   0  0  0  0  0  0  0  0  0  0  0  0
   -6.7260   19.8740  -32.7510 C   0  0  0  0  0  0  0  0  0  0  0  0
   -7.3270   18.6050  -32.6580 C   0  0  0  0  0  0  0  0  0  0  0  0
   -6.7190   17.4880  -33.2400 C   0  0  0  0  0  0  0  0  0  0  0  0
   -5.5080   17.6250  -33.9230 C   0  0  0  0  0  0  0  0  0  0  0  0
   -4.9220   16.5410  -34.4860 F   0  0  0  0  0  0  0  0  0  0  0  0
   -4.9070   18.8800  -34.0290 C   0  0  0  0  0  0  0  0  0  0  0  0
   -5.5110   20.0000  -33.4500 C   0  0  0  0  0  0  0  0  0  0  0  0
   -6.7450   22.2120  -31.6610 C   0  0  0  0  0  0  0  0  0  0  0  0
   -5.5670   22.9040  -31.4800 C   0  0  0  0  0  0  0  0  0  0  0  0
   -3.5229   24.4239  -27.8531 H   0  0  0  0  0  0  0  0  0  0  0  0
   -2.5222   22.4747  -26.6651 H   0  0  0  0  0  0  0  0  0  0  0  0
   -1.4196   20.6511  -27.9574 H   0  0  0  0  0  0  0  0  0  0  0  0
   -2.2812   22.7530  -31.6475 H   0  0  0  0  0  0  0  0  0  0  0  0
   -7.8202   25.0272  -30.3915 H   0  0  0  0  0  0  0  0  0  0  0  0
   -9.8640   22.8330  -31.2240 H   0  0  0  0  0  0  0  0  0  0  0  0
   -8.2818   18.4907  -32.1238 H   0  0  0  0  0  0  0  0  0  0  0  0
   -7.1952   16.4997  -33.1598 H   0  0  0  0  0  0  0  0  0  0  0  0
   -3.9552   18.9883  -34.5697 H   0  0  0  0  0  0  0  0  0  0  0  0
   -5.0333   20.9866  -33.5414 H   0  0  0  0  0  0  0  0  0  0  0  0
   -4.5566   22.5454  -31.7260 H   0  0  0  0  0  0  0  0  0  0  0  0
  1  2  2  0
  2  3  1  0
  3  4  1  0
  4  5  2  0
  5  6  1  0
  6  7  2  0
  7  8  1  0
  8  9  1  0
  9 10  1  0
  9 11  1  0
  9 12  1  0
  8 13  2  0
  2 14  1  0
 14 15  1  0
 15 16  2  0
 16 17  1  0
 17 18  1  0
 18 19  2  0
 19 20  1  0
 20 21  2  0
 21 22  1  0
 22 23  2  0
 23 24  1  0
 23 25  1  0
 25 26  2  0
 19 27  1  0
 27 28  2  0
 13  4  1  0
 28 14  1  0
 27 16  1  0
 26 20  1  0
  5 29  1  0
  6 30  1  0
  7 31  1  0
 13 32  1  0
 15 33  1  0
 17 34  1  0
 21 35  1  0
 22 36  1  0
 25 37  1  0
 26 38  1  0
 28 39  1  0
M  CHG  1   3  -1
M  END
>  <UniqueID>  (7) 
7

>  <SMILES>  (7) 
O=C([N-]c1cccc(C(F)(F)F)c1)n1cc2[nH]nc(-c3ccc(F)cc3)c2c1

>  <Energy>  (7) 
140.88796349156516

>  <Genealogy>  (7) 
O=C([N-]c1cccc(C(F)(F)F)c1)n1cc2[nH]nc(-c3ccc(F)cc3)c2c1 (protonated)
O=C([N-]c1cccc(C(F)(F)F)c1)n1cc2[nH]nc(-c3ccc(F)cc3)c2c1 (3D coordinates assigned)
O=C([N-]c1cccc(C(F)(F)F)c1)n1cc2[nH]nc(-c3ccc(F)cc3)c2c1 (optimized conformer: 140.88796349156516 kcal/mol)

>  <smiles>  (7) 
O=C(Nc1cccc(C(F)(F)F)c1)n1cc2[nH]nc(-c3ccc(F)cc3)c2c1

>  <score_type>  (7) 
oracle

>  <origin>  (7) 
adgpu

>  <m_score__min__energy>  (7) 
-9.7599999999999998

>  <m_primary>  (7) 
energy

$$$$
7:0
     RDKit          3D

 41 42  0  0  0  0  0  0  0  0999 V2000
   -8.7670   18.5810  -31.6180 C   0  0  0  0  0  0  0  0  0  0  0  0
   -8.9400   20.0220  -32.0880 C   0  0  0  0  0  0  0  0  0  0  0  0
   -7.6870   20.5830  -32.4760 O   0  0  0  0  0  0  0  0  0  0  0  0
   -7.1190   21.7620  -31.9630 C   0  0  0  0  0  0  0  0  0  0  0  0
   -7.8230   22.6250  -31.1000 C   0  0  0  0  0  0  0  0  0  0  0  0
   -7.2200   23.7860  -30.6140 C   0  0  0  0  0  0  0  0  0  0  0  0
   -5.9090   24.1120  -30.9850 C   0  0  0  0  0  0  0  0  0  0  0  0
   -5.2460   25.3370  -30.4270 C   0  0  0  0  0  0  0  0  0  0  0  0
   -3.8070   25.2330  -30.6200 N   0  0  0  0  0  0  0  0  0  0  0  0
   -2.9240   24.6890  -29.6360 C   0  0  0  0  0  0  0  0  0  0  0  0
   -1.8630   25.3020  -29.3410 O   0  0  0  0  0  0  0  0  0  0  0  0
   -3.2540   23.4140  -28.9650 C   0  0  0  0  0  0  0  0  0  0  0  0
   -3.8200   23.2190  -27.7140 C   0  0  0  0  0  0  0  0  0  0  0  0
   -4.2400   24.2680  -26.7330 C   0  0  0  0  0  0  0  0  0  0  0  0
   -3.9500   21.8980  -27.4810 N   0  0  0  0  0  0  0  0  0  0  0  0
   -3.4910   21.2770  -28.5300 O   0  0  0  0  0  0  0  0  0  0  0  0
   -3.0670   22.1250  -29.4390 C   0  0  0  0  0  0  0  0  0  0  0  0
   -2.4840   21.7140  -30.7510 C   0  0  0  0  0  0  0  0  0  0  0  0
   -5.1960   23.2440  -31.8260 C   0  0  0  0  0  0  0  0  0  0  0  0
   -5.7970   22.0710  -32.3210 C   0  0  0  0  0  0  0  0  0  0  0  0
   -5.1140   21.1860  -33.1700 O   0  0  0  0  0  0  0  0  0  0  0  0
   -4.8140   19.8300  -32.8520 C   0  0  0  0  0  0  0  0  0  0  0  0
   -8.7635   18.5519  -30.5184 H   0  0  0  0  0  0  0  0  0  0  0  0
   -9.5981   17.9690  -31.9984 H   0  0  0  0  0  0  0  0  0  0  0  0
   -7.8146   18.1831  -31.9984 H   0  0  0  0  0  0  0  0  0  0  0  0
   -9.6252   20.0408  -32.9483 H   0  0  0  0  0  0  0  0  0  0  0  0
   -9.3502   20.6163  -31.2582 H   0  0  0  0  0  0  0  0  0  0  0  0
   -8.8551   22.3820  -30.8073 H   0  0  0  0  0  0  0  0  0  0  0  0
   -7.7773   24.4489  -29.9358 H   0  0  0  0  0  0  0  0  0  0  0  0
   -5.6235   26.2292  -30.9481 H   0  0  0  0  0  0  0  0  0  0  0  0
   -5.4695   25.4213  -29.3532 H   0  0  0  0  0  0  0  0  0  0  0  0
   -4.0902   23.8939  -25.7095 H   0  0  0  0  0  0  0  0  0  0  0  0
   -3.6355   25.1745  -26.8842 H   0  0  0  0  0  0  0  0  0  0  0  0
   -5.3031   24.5068  -26.8842 H   0  0  0  0  0  0  0  0  0  0  0  0
   -1.5962   21.0881  -30.5778 H   0  0  0  0  0  0  0  0  0  0  0  0
   -3.2307   21.1415  -31.3208 H   0  0  0  0  0  0  0  0  0  0  0  0
   -2.1957   22.6097  -31.3208 H   0  0  0  0  0  0  0  0  0  0  0  0
   -4.1579   23.4822  -32.1011 H   0  0  0  0  0  0  0  0  0  0  0  0
   -4.7868   19.7070  -31.7592 H   0  0  0  0  0  0  0  0  0  0  0  0
   -5.5887   19.1740  -33.2756 H   0  0  0  0  0  0  0  0  0  0  0  0
   -3.8349   19.5620  -33.2756 H   0  0  0  0  0  0  0  0  0  0  0  0
  1  2  1  0
  2  3  1  0
  3  4  1  0
  4  5  2  0
  5  6  1  0
  6  7  2  0
  7  8  1  0
  8  9  1  0
  9 10  1  0
 10 11  2  0
 10 12  1  0
 12 13  1  0
 13 14  1  0
 13 15  2  0
 15 16  1  0
 16 17  1  0
 17 18  1  0
  7 19  1  0
 19 20  2  0
 20 21  1  0
 21 22  1  0
 20  4  1  0
 17 12  2  0
  1 23  1  0
  1 24  1  0
  1 25  1  0
  2 26  1  0
  2 27  1  0
  5 28  1  0
  6 29  1  0
  8 30  1  0
  8 31  1  0
 14 32  1  0
 14 33  1  0
 14 34  1  0
 18 35  1  0
 18 36  1  0
 18 37  1  0
 19 38  1  0
 22 39  1  0
 22 40  1  0
 22 41  1  0
M  CHG  1   9  -1
M  END
>  <UniqueID>  (8) 
8

>  <SMILES>  (8) 
CCOc1ccc(C[N-]C(=O)c2c(C)noc2C)cc1OC

>  <Energy>  (8) 
64.24704624852151

>  <Genealogy>  (8) 
CCOc1ccc(C[N-]C(=O)c2c(C)noc2C)cc1OC (protonated)
CCOc1ccc(C[N-]C(=O)c2c(C)noc2C)cc1OC (3D coordinates assigned)
CCOc1ccc(C[N-]C(=O)c2c(C)noc2C)cc1OC (optimized conformer: 64.24704624852151 kcal/mol)

>  <smiles>  (8) 
CCOc1ccc(CNC(=O)c2c(C)noc2C)cc1OC

>  <score_type>  (8) 
oracle

>  <origin>  (8) 
adgpu

>  <m_score__min__energy>  (8) 
-8.5600000000000005

>  <m_primary>  (8) 
energy

$$$$
8:0
     RDKit          3D

 42 44  0  0  0  0  0  0  0  0999 V2000
   -5.7661   17.3869  -34.9021 H   0  0  0  0  0  0  0  0  0  0  0  0
   -6.1360   17.8980  -34.0010 C   0  0  0  0  0  0  0  0  0  0  0  0
   -6.3700   19.2380  -34.0270 N   0  0  0  0  0  0  0  0  0  0  0  0
   -6.8280   19.9170  -32.9400 C   0  0  0  0  0  0  0  0  0  0  0  0
   -6.9960   21.2060  -33.0420 N   0  0  0  0  0  0  0  0  0  0  0  0
   -7.5070   22.2850  -31.7780 S   0  0  0  0  0  0  0  0  0  0  0  0
   -8.5370   23.2340  -32.3230 O   0  0  0  0  0  0  0  0  0  0  0  0
   -8.1160   21.4850  -30.6610 O   0  0  0  0  0  0  0  0  0  0  0  0
   -6.1250   23.2120  -31.2020 C   0  0  0  0  0  0  0  0  0  0  0  0
   -4.8290   22.7890  -31.5160 C   0  0  0  0  0  0  0  0  0  0  0  0
   -4.6794   21.9557  -32.2183 H   0  0  0  0  0  0  0  0  0  0  0  0
   -3.7250   23.4210  -30.9410 C   0  0  0  0  0  0  0  0  0  0  0  0
   -2.7079   23.0910  -31.1990 H   0  0  0  0  0  0  0  0  0  0  0  0
   -3.9100   24.4770  -30.0340 C   0  0  0  0  0  0  0  0  0  0  0  0
   -2.8050   25.0700  -29.3380 N   0  0  0  0  0  0  0  0  0  0  0  0
   -1.5820   24.4020  -28.9910 C   0  0  0  0  0  0  0  0  0  0  0  0
   -0.4880   24.9140  -29.3480 O   0  0  0  0  0  0  0  0  0  0  0  0
   -1.5680   23.1350  -28.2230 C   0  0  0  0  0  0  0  0  0  0  0  0
   -1.9860   21.9570  -28.8630 C   0  0  0  0  0  0  0  0  0  0  0  0
   -2.2725   21.9853  -29.9247 H   0  0  0  0  0  0  0  0  0  0  0  0
   -2.0410   20.7500  -28.1630 C   0  0  0  0  0  0  0  0  0  0  0  0
   -2.3774   19.8348  -28.6721 H   0  0  0  0  0  0  0  0  0  0  0  0
   -1.6700   20.7030  -26.8190 C   0  0  0  0  0  0  0  0  0  0  0  0
   -1.7298   19.7546  -26.2650 H   0  0  0  0  0  0  0  0  0  0  0  0
   -1.2230   21.8590  -26.1770 C   0  0  0  0  0  0  0  0  0  0  0  0
   -0.9213   21.8151  -25.1201 H   0  0  0  0  0  0  0  0  0  0  0  0
   -1.1560   23.0750  -26.8700 C   0  0  0  0  0  0  0  0  0  0  0  0
   -0.4870   24.5070  -26.0060 S   0  0  0  0  0  0  0  0  0  0  0  0
   -2.1000   25.3400  -25.8850 C   0  0  0  0  0  0  0  0  0  0  0  0
   -2.3638   25.4762  -24.8258 H   0  0  0  0  0  0  0  0  0  0  0  0
   -2.0436   26.3217  -26.3780 H   0  0  0  0  0  0  0  0  0  0  0  0
   -2.8678   24.7257  -26.3780 H   0  0  0  0  0  0  0  0  0  0  0  0
   -5.2040   24.9520  -29.7850 C   0  0  0  0  0  0  0  0  0  0  0  0
   -5.3511   25.8283  -29.1365 H   0  0  0  0  0  0  0  0  0  0  0  0
   -6.3090   24.3160  -30.3580 C   0  0  0  0  0  0  0  0  0  0  0  0
   -7.3244   24.6823  -30.1463 H   0  0  0  0  0  0  0  0  0  0  0  0
   -7.0860   19.2070  -31.7490 C   0  0  0  0  0  0  0  0  0  0  0  0
   -7.4747   19.7316  -30.8637 H   0  0  0  0  0  0  0  0  0  0  0  0
   -6.8440   17.8330  -31.7030 C   0  0  0  0  0  0  0  0  0  0  0  0
   -7.0315   17.2722  -30.7754 H   0  0  0  0  0  0  0  0  0  0  0  0
   -6.3650   17.1720  -32.8320 C   0  0  0  0  0  0  0  0  0  0  0  0
   -6.1696   16.0899  -32.8020 H   0  0  0  0  0  0  0  0  0  0  0  0
  1  2  1  0
  2  3  1  0
  3  4  1  0
  4  5  2  0
  5  6  1  0
  6  7  2  0
  6  8  2  0
  6  9  1  0
  9 10  2  0
 10 11  1  0
 10 12  1  0
 12 13  1  0
 12 14  2  0
 14 15  1  0
 15 16  1  0
 16 17  2  0
 16 18  1  0
 18 19  2  0
 19 20  1  0
 19 21  1  0
 21 22  1  0
 21 23  2  0
 23 24  1  0
 23 25  1  0
 25 26  1  0
 25 27  2  0
 27 28  1  0
 28 29  1  0
 29 30  1  0
 29 31  1  0
 29 32  1  0
 14 33  1  0
 33 34  1  0
 33 35  2  0
 35 36  1  0
  4 37  1  0
 37 38  1  0
 37 39  2  0
 39 40  1  0
 39 41  1  0
 41 42  1  0
 41  2  2  0
 35  9  1  0
 27 18  1  0
M  CHG  2   3  -1  15  -1
M  END
>  <UniqueID>  (9) 
9

>  <SMILES>  (9) 
CSc1ccccc1C(=O)[N-]c1ccc(S(=O)(=O)/N=c2\cccc[n-]2)cc1

>  <Energy>  (9) 
54.55345513226674

>  <Genealogy>  (9) 
CSc1ccccc1C(=O)[N-]c1ccc(S(=O)(=O)N=c2cccc[n-]2)cc1 (protonated)
CSc1ccccc1C(=O)[N-]c1ccc(S(=O)(=O)/N=c2\cccc[n-]2)cc1 (cis-trans isomerization)
CSc1ccccc1C(=O)[N-]c1ccc(S(=O)(=O)/N=c2\cccc[n-]2)cc1 (3D coordinates assigned)
CSc1ccccc1C(=O)[N-]c1ccc(S(=O)(=O)/N=c2\cccc[n-]2)cc1 (optimized conformer: 54.55345513226674 kcal/mol)

>  <smiles>  (9) 
CSc1ccccc1C(=O)Nc1ccc(S(=O)(=O)N=c2cccc[nH]2)cc1

>  <score_type>  (9) 
oracle

>  <origin>  (9) 
adgpu

>  <m_score__min__energy>  (9) 
-10.98

>  <m_primary>  (9) 
energy

$$$$
9:0
     RDKit          3D

 31 31  0  0  0  0  0  0  0  0999 V2000
   -3.6840   25.6720  -29.1100 H   0  0  0  0  0  0  0  0  0  0  0  0
   -3.0940   24.8690  -29.4270 N   0  0  0  0  0  0  0  0  0  0  0  0
   -1.8500   24.6990  -28.9050 C   0  0  0  0  0  0  0  0  0  0  0  0
   -1.2210   25.8410  -27.6760 S   0  0  0  0  0  0  0  0  0  0  0  0
   -2.3940   25.2930  -26.3990 C   0  0  0  0  0  0  0  0  0  0  0  0
   -1.9707   25.4908  -25.4032 H   0  0  0  0  0  0  0  0  0  0  0  0
   -3.3406   25.8421  -26.5107 H   0  0  0  0  0  0  0  0  0  0  0  0
   -2.5803   24.2147  -26.5107 H   0  0  0  0  0  0  0  0  0  0  0  0
   -1.0790   23.6590  -29.3120 N   0  0  0  0  0  0  0  0  0  0  0  0
   -1.5400   22.7890  -30.2440 C   0  0  0  0  0  0  0  0  0  0  0  0
   -0.7880   21.7970  -30.6190 N   0  0  0  0  0  0  0  0  0  0  0  0
   -1.1650   20.7950  -31.6160 C   0  0  0  0  0  0  0  0  0  0  0  0
   -2.1611   20.3987  -31.3695 H   0  0  0  0  0  0  0  0  0  0  0  0
   -0.4169   19.9886  -31.6041 H   0  0  0  0  0  0  0  0  0  0  0  0
   -1.2020   21.4050  -33.0140 C   0  0  0  0  0  0  0  0  0  0  0  0
   -1.2684   22.5001  -32.9346 H   0  0  0  0  0  0  0  0  0  0  0  0
   -0.2856   21.1317  -33.5577 H   0  0  0  0  0  0  0  0  0  0  0  0
   -2.0786   21.0230  -33.5577 H   0  0  0  0  0  0  0  0  0  0  0  0
   -2.7840   22.9630  -30.7650 N   0  0  0  0  0  0  0  0  0  0  0  0
   -3.5640   23.9990  -30.3610 C   0  0  0  0  0  0  0  0  0  0  0  0
   -4.7520   24.1730  -30.8620 N   0  0  0  0  0  0  0  0  0  0  0  0
   -5.3760   23.3090  -31.8670 C   0  0  0  0  0  0  0  0  0  0  0  0
   -4.7946   23.3530  -32.7998 H   0  0  0  0  0  0  0  0  0  0  0  0
   -5.3930   21.8540  -31.3830 C   0  0  0  0  0  0  0  0  0  0  0  0
   -5.3932   21.8334  -30.2832 H   0  0  0  0  0  0  0  0  0  0  0  0
   -6.2971   21.3529  -31.7593 H   0  0  0  0  0  0  0  0  0  0  0  0
   -4.5009   21.3320  -31.7593 H   0  0  0  0  0  0  0  0  0  0  0  0
   -6.8000   23.7980  -32.1310 C   0  0  0  0  0  0  0  0  0  0  0  0
   -7.3110   23.9735  -31.1728 H   0  0  0  0  0  0  0  0  0  0  0  0
   -6.7652   24.7357  -32.7051 H   0  0  0  0  0  0  0  0  0  0  0  0
   -7.3486   23.0368  -32.7051 H   0  0  0  0  0  0  0  0  0  0  0  0
  1  2  1  0
  2  3  1  0
  3  4  1  0
  4  5  1  0
  5  6  1  0
  5  7  1  0
  5  8  1  0
  3  9  2  0
  9 10  1  0
 10 11  2  0
 11 12  1  0
 12 13  1  0
 12 14  1  0
 12 15  1  0
 15 16  1  0
 15 17  1  0
 15 18  1  0
 10 19  1  0
 19 20  1  0
 20 21  2  0
 21 22  1  0
 22 23  1  0
 22 24  1  0
 24 25  1  0
 24 26  1  0
 24 27  1  0
 22 28  1  0
 28 29  1  0
 28 30  1  0
 28 31  1  0
 20  2  1  0
M  CHG  1  19  -1
M  END
>  <UniqueID>  (10) 
10

>  <SMILES>  (10) 
CC/N=c1/nc(SC)[nH]/c(=N/C(C)C)[n-]1

>  <Energy>  (10) 
16.314800818572714

>  <Genealogy>  (10) 
CCN=c1nc(SC)[nH]c(=NC(C)C)[n-]1 (protonated)
CC/N=c1/nc(SC)[nH]/c(=N/C(C)C)[n-]1 (cis-trans isomerization)
CC/N=c1/nc(SC)[nH]/c(=N/C(C)C)[n-]1 (3D coordinates assigned)
CC/N=c1/nc(SC)[nH]/c(=N/C(C)C)[n-]1 (optimized conformer: 16.314800818572714 kcal/mol)

>  <smiles>  (10) 
CCN=c1nc(SC)[nH]c(=NC(C)C)[nH]1

>  <score_type>  (10) 
oracle

>  <origin>  (10) 
adgpu

>  <m_score__min__energy>  (10) 
-6.0999999999999996

>  <m_primary>  (10) 
energy

$$$$
10:0
     RDKit          3D

 59 62  0  0  0  0  0  0  0  0999 V2000
    0.2110   24.6970  -25.3400 C   0  0  0  0  0  0  0  0  0  0  0  0
    0.0660   24.5600  -26.7510 O   0  0  0  0  0  0  0  0  0  0  0  0
   -1.0880   24.1020  -27.4040 C   0  0  0  0  0  0  0  0  0  0  0  0
   -1.6190   22.8290  -27.1220 C   0  0  0  0  0  0  0  0  0  0  0  0
   -2.7670   22.3600  -27.7710 C   0  0  0  0  0  0  0  0  0  0  0  0
   -3.2590   21.0400  -27.4630 N   0  0  0  0  0  0  0  0  0  0  0  0
   -2.4860   19.8080  -27.6290 C   0  0  0  0  0  0  0  0  0  0  0  0
   -1.5970   19.8970  -28.8350 C   0  0  0  0  0  0  0  0  0  0  0  0
   -2.0450   20.5210  -30.0070 C   0  0  0  0  0  0  0  0  0  0  0  0
   -1.2050   20.5690  -31.1220 C   0  0  0  0  0  0  0  0  0  0  0  0
   -1.6240   21.1630  -32.2660 N   0  0  0  0  0  0  0  0  0  0  0  0
   -0.8250   21.2190  -33.3630 C   0  0  0  0  0  0  0  0  0  0  0  0
    0.4260   20.6690  -33.3420 N   0  0  0  0  0  0  0  0  0  0  0  0
    1.2380   20.7390  -34.5310 C   0  0  0  0  0  0  0  0  0  0  0  0
    1.6720   19.5640  -35.1670 C   0  0  0  0  0  0  0  0  0  0  0  0
    2.4620   19.6370  -36.3170 C   0  0  0  0  0  0  0  0  0  0  0  0
    2.8170   20.8800  -36.8480 C   0  0  0  0  0  0  0  0  0  0  0  0
    2.3680   22.0660  -36.2380 C   0  0  0  0  0  0  0  0  0  0  0  0
    2.7320   23.3630  -36.7340 N   0  0  0  0  0  0  0  0  0  0  0  0
    1.9380   24.5550  -36.6670 C   0  0  0  0  0  0  0  0  0  0  0  0
    1.9210   25.3540  -35.4090 C   0  0  0  0  0  0  0  0  0  0  0  0
    1.1840   24.8830  -37.6220 O   0  0  0  0  0  0  0  0  0  0  0  0
    1.5930   21.9860  -35.0740 C   0  0  0  0  0  0  0  0  0  0  0  0
    0.8940   20.0640  -32.2020 C   0  0  0  0  0  0  0  0  0  0  0  0
    2.0610   19.5790  -32.1720 O   0  0  0  0  0  0  0  0  0  0  0  0
    0.0780   19.9990  -31.0600 C   0  0  0  0  0  0  0  0  0  0  0  0
    0.4920   19.3920  -29.8620 C   0  0  0  0  0  0  0  0  0  0  0  0
   -0.3470   19.3590  -28.7930 N   0  0  0  0  0  0  0  0  0  0  0  0
   -3.4050   23.1870  -28.7050 C   0  0  0  0  0  0  0  0  0  0  0  0
   -2.8900   24.4590  -29.0120 C   0  0  0  0  0  0  0  0  0  0  0  0
   -3.5010   25.2960  -29.9590 O   0  0  0  0  0  0  0  0  0  0  0  0
   -4.8480   25.1700  -30.4020 C   0  0  0  0  0  0  0  0  0  0  0  0
   -1.7330   24.9230  -28.3650 C   0  0  0  0  0  0  0  0  0  0  0  0
   -1.2810   26.2070  -28.7250 O   0  0  0  0  0  0  0  0  0  0  0  0
   -0.7630   27.2020  -27.8490 C   0  0  0  0  0  0  0  0  0  0  0  0
   -0.4981   24.0270  -24.8318 H   0  0  0  0  0  0  0  0  0  0  0  0
    1.2383   24.4320  -25.0495 H   0  0  0  0  0  0  0  0  0  0  0  0
    0.0047   25.7377  -25.0495 H   0  0  0  0  0  0  0  0  0  0  0  0
   -1.1219   22.1904  -26.3770 H   0  0  0  0  0  0  0  0  0  0  0  0
   -4.2090   20.9500  -27.0340 H   0  0  0  0  0  0  0  0  0  0  0  0
   -1.8660   19.6476  -26.7346 H   0  0  0  0  0  0  0  0  0  0  0  0
   -3.1838   18.9688  -27.7656 H   0  0  0  0  0  0  0  0  0  0  0  0
   -3.0488   20.9689  -30.0486 H   0  0  0  0  0  0  0  0  0  0  0  0
   -1.1882   21.7117  -34.2770 H   0  0  0  0  0  0  0  0  0  0  0  0
    1.3888   18.5829  -34.7581 H   0  0  0  0  0  0  0  0  0  0  0  0
    2.8056   18.7134  -36.8059 H   0  0  0  0  0  0  0  0  0  0  0  0
    3.4498   20.9315  -37.7463 H   0  0  0  0  0  0  0  0  0  0  0  0
    1.9354   24.6754  -34.5434 H   0  0  0  0  0  0  0  0  0  0  0  0
    2.8054   26.0073  -35.3776 H   0  0  0  0  0  0  0  0  0  0  0  0
    1.0096   25.9691  -35.3776 H   0  0  0  0  0  0  0  0  0  0  0  0
    1.2583   22.9096  -34.5791 H   0  0  0  0  0  0  0  0  0  0  0  0
    1.4940   18.9440  -29.7894 H   0  0  0  0  0  0  0  0  0  0  0  0
   -4.3204   22.8368  -29.2044 H   0  0  0  0  0  0  0  0  0  0  0  0
   -5.5163   25.1075  -29.5305 H   0  0  0  0  0  0  0  0  0  0  0  0
   -5.1179   26.0468  -31.0089 H   0  0  0  0  0  0  0  0  0  0  0  0
   -4.9506   24.2583  -31.0089 H   0  0  0  0  0  0  0  0  0  0  0  0
   -0.9243   26.8922  -26.8059 H   0  0  0  0  0  0  0  0  0  0  0  0
    0.3145   27.3267  -28.0320 H   0  0  0  0  0  0  0  0  0  0  0  0
   -1.2788   28.1562  -28.0320 H   0  0  0  0  0  0  0  0  0  0  0  0
  1  2  1  0
  2  3  1  0
  3  4  2  0
  4  5  1  0
  5  6  1  0
  6  7  1  0
  7  8  1  0
  8  9  2  0
  9 10  1  0
 10 11  1  0
 11 12  2  0
 12 13  1  0
 13 14  1  0
 14 15  2  0
 15 16  1  0
 16 17  2  0
 17 18  1  0
 18 19  1  0
 19 20  1  0
 20 21  1  0
 20 22  2  0
 18 23  2  0
 13 24  1  0
 24 25  2  0
 24 26  1  0
 26 27  1  0
 27 28  2  0
  5 29  2  0
 29 30  1  0
 30 31  1  0
 31 32  1  0
 30 33  2  0
 33 34  1  0
 34 35  1  0
 33  3  1  0
 28  8  1  0
 26 10  2  0
 23 14  1  0
  1 36  1  0
  1 37  1  0
  1 38  1  0
  4 39  1  0
  6 40  1  0
  7 41  1  0
  7 42  1  0
  9 43  1  0
 12 44  1  0
 15 45  1  0
 16 46  1  0
 17 47  1  0
 21 48  1  0
 21 49  1  0
 21 50  1  0
 23 51  1  0
 27 52  1  0
 29 53  1  0
 32 54  1  0
 32 55  1  0
 32 56  1  0
 35 57  1  0
 35 58  1  0
 35 59  1  0
M  CHG  1  19  -1
M  END
>  <UniqueID>  (11) 
11

>  <SMILES>  (11) 
COc1cc(NCc2cc3ncn(-c4cccc([N-]C(C)=O)c4)c(=O)c3cn2)cc(OC)c1OC

>  <Energy>  (11) 
78.44399211617203

>  <Genealogy>  (11) 
COc1cc(NCc2cc3ncn(-c4cccc([N-]C(C)=O)c4)c(=O)c3cn2)cc(OC)c1OC (protonated)
COc1cc(NCc2cc3ncn(-c4cccc([N-]C(C)=O)c4)c(=O)c3cn2)cc(OC)c1OC (3D coordinates assigned)
COc1cc(NCc2cc3ncn(-c4cccc([N-]C(C)=O)c4)c(=O)c3cn2)cc(OC)c1OC (optimized conformer: 78.44399211617203 kcal/mol)

>  <smiles>  (11) 
COc1cc(NCc2cc3ncn(-c4cccc(NC(C)=O)c4)c(=O)c3cn2)cc(OC)c1OC

>  <score_type>  (11) 
oracle

>  <origin>  (11) 
adgpu

>  <m_score__min__energy>  (11) 
-9.7400000000000002

>  <m_primary>  (11) 
energy

$$$$
11:0
     RDKit          3D

 50 53  0  0  0  0  0  0  0  0999 V2000
   -5.0770   26.5390  -31.1150 H   0  0  0  0  0  0  0  0  0  0  0  0
   -4.6130   25.6430  -30.8440 N   0  0  0  0  0  0  0  0  0  0  0  0
   -5.1410   24.4840  -31.0950 C   0  0  0  0  0  0  0  0  0  0  0  0
   -4.4700   23.2990  -30.7210 C   0  0  0  0  0  0  0  0  0  0  0  0
   -3.1720   23.3240  -30.0000 C   0  0  0  0  0  0  0  0  0  0  0  0
   -2.1320   22.4550  -30.3690 C   0  0  0  0  0  0  0  0  0  0  0  0
   -2.2818   21.7429  -31.1939 H   0  0  0  0  0  0  0  0  0  0  0  0
   -0.9080   22.4890  -29.6950 C   0  0  0  0  0  0  0  0  0  0  0  0
   -0.0979   21.8086  -29.9963 H   0  0  0  0  0  0  0  0  0  0  0  0
   -0.7080   23.3870  -28.6360 C   0  0  0  0  0  0  0  0  0  0  0  0
    0.5910   23.4110  -27.9390 C   0  0  0  0  0  0  0  0  0  0  0  0
    0.9540   22.3990  -27.2850 O   0  0  0  0  0  0  0  0  0  0  0  0
    1.4360   24.5680  -27.9530 N   0  0  0  0  0  0  0  0  0  0  0  0
    2.8170   24.5810  -27.4900 C   0  0  0  0  0  0  0  0  0  0  0  0
    2.8350   24.5812  -26.3901 H   0  0  0  0  0  0  0  0  0  0  0  0
    3.3379   23.6877  -27.8651 H   0  0  0  0  0  0  0  0  0  0  0  0
    3.3210   25.4839  -27.8651 H   0  0  0  0  0  0  0  0  0  0  0  0
   -1.7330   24.2790  -28.2840 C   0  0  0  0  0  0  0  0  0  0  0  0
   -1.5380   25.2100  -27.3160 F   0  0  0  0  0  0  0  0  0  0  0  0
   -2.9570   24.2450  -28.9600 C   0  0  0  0  0  0  0  0  0  0  0  0
   -3.7573   24.9441  -28.6757 H   0  0  0  0  0  0  0  0  0  0  0  0
   -5.0520   22.0660  -31.0480 C   0  0  0  0  0  0  0  0  0  0  0  0
   -4.5391   21.1324  -30.7734 H   0  0  0  0  0  0  0  0  0  0  0  0
   -6.2820   22.0100  -31.7220 C   0  0  0  0  0  0  0  0  0  0  0  0
   -6.9030   20.7050  -32.0630 C   0  0  0  0  0  0  0  0  0  0  0  0
   -8.2420   20.4400  -31.7430 C   0  0  0  0  0  0  0  0  0  0  0  0
   -8.8496   21.2035  -31.2352 H   0  0  0  0  0  0  0  0  0  0  0  0
   -8.7860   19.2380  -32.0620 N   0  0  0  0  0  0  0  0  0  0  0  0
   -8.0780   18.2930  -32.6800 N   0  0  0  0  0  0  0  0  0  0  0  0
   -6.7760   18.4790  -33.0260 C   0  0  0  0  0  0  0  0  0  0  0  0
   -6.0540   17.4210  -33.6950 N   0  0  0  0  0  0  0  0  0  0  0  0
   -6.5800   16.0490  -33.7270 C   0  0  0  0  0  0  0  0  0  0  0  0
   -7.1172   15.8444  -32.7891 H   0  0  0  0  0  0  0  0  0  0  0  0
   -7.2636   15.9479  -34.5828 H   0  0  0  0  0  0  0  0  0  0  0  0
   -5.4340   15.0430  -33.8830 C   0  0  0  0  0  0  0  0  0  0  0  0
   -4.8359   15.0324  -32.9599 H   0  0  0  0  0  0  0  0  0  0  0  0
   -5.8631   14.0484  -34.0743 H   0  0  0  0  0  0  0  0  0  0  0  0
   -4.6010   15.3920  -34.9700 O   0  0  0  0  0  0  0  0  0  0  0  0
   -3.9520   16.6170  -34.6940 C   0  0  0  0  0  0  0  0  0  0  0  0
   -3.4247   16.5372  -33.7319 H   0  0  0  0  0  0  0  0  0  0  0  0
   -3.2391   16.8292  -35.5044 H   0  0  0  0  0  0  0  0  0  0  0  0
   -4.9650   17.7630  -34.6180 C   0  0  0  0  0  0  0  0  0  0  0  0
   -4.4585   18.6717  -34.2606 H   0  0  0  0  0  0  0  0  0  0  0  0
   -5.3860   17.9349  -35.6196 H   0  0  0  0  0  0  0  0  0  0  0  0
   -6.1660   19.7030  -32.7100 C   0  0  0  0  0  0  0  0  0  0  0  0
   -5.1111   19.8759  -32.9696 H   0  0  0  0  0  0  0  0  0  0  0  0
   -6.9110   23.2160  -32.0620 C   0  0  0  0  0  0  0  0  0  0  0  0
   -7.8773   23.1978  -32.5874 H   0  0  0  0  0  0  0  0  0  0  0  0
   -6.3370   24.4080  -31.7480 N   0  0  0  0  0  0  0  0  0  0  0  0
   -6.8380   25.2830  -32.0240 H   0  0  0  0  0  0  0  0  0  0  0  0
  1  2  1  0
  2  3  2  0
  3  4  1  0
  4  5  1  0
  5  6  2  0
  6  7  1  0
  6  8  1  0
  8  9  1  0
  8 10  2  0
 10 11  1  0
 11 12  2  0
 11 13  1  0
 13 14  1  0
 14 15  1  0
 14 16  1  0
 14 17  1  0
 10 18  1  0
 18 19  1  0
 18 20  2  0
 20 21  1  0
  4 22  2  0
 22 23  1  0
 22 24  1  0
 24 25  1  0
 25 26  2  0
 26 27  1  0
 26 28  1  0
 28 29  2  0
 29 30  1  0
 30 31  1  0
 31 32  1  0
 32 33  1  0
 32 34  1  0
 32 35  1  0
 35 36  1  0
 35 37  1  0
 35 38  1  0
 38 39  1  0
 39 40  1  0
 39 41  1  0
 39 42  1  0
 42 43  1  0
 42 44  1  0
 30 45  2  0
 45 46  1  0
 24 47  2  0
 47 48  1  0
 47 49  1  0
 49 50  1  0
 49  3  1  0
 20  5  1  0
 45 25  1  0
 42 31  1  0
M  CHG  1  13  -1
M  END
>  <UniqueID>  (12) 
12

>  <SMILES>  (12) 
[H]/N=c1\[nH]cc(-c2cnnc(N3CCOCC3)c2)cc1-c1ccc(C(=O)[N-]C)c(F)c1

>  <Energy>  (12) 
76.22104537270181

>  <Genealogy>  (12) 
C[N-]C(=O)c1ccc(-c2cc(-c3cnnc(N4CCOCC4)c3)c[nH]c2=N)cc1F (protonated)
[H]/N=c1\[nH]cc(-c2cnnc(N3CCOCC3)c2)cc1-c1ccc(C(=O)[N-]C)c(F)c1 (cis-trans isomerization)
[H]/N=c1\[nH]cc(-c2cnnc(N3CCOCC3)c2)cc1-c1ccc(C(=O)[N-]C)c(F)c1 (3D coordinates assigned)
[H]/N=c1\[nH]cc(-c2cnnc(N3CCOCC3)c2)cc1-c1ccc(C(=O)[N-]C)c(F)c1 (nonaromatic ring conformer: 76.22104537270181 kcal/mol)

>  <smiles>  (12) 
CNC(=O)c1ccc(-c2cc(-c3cnnc(N4CCOCC4)c3)c[nH]c2=N)cc1F

>  <score_type>  (12) 
oracle

>  <origin>  (12) 
adgpu

>  <m_score__min__energy>  (12) 
-9.6099999999999994

>  <m_primary>  (12) 
energy

$$$$
12:0
     RDKit          3D

 42 44  0  0  0  0  0  0  0  0999 V2000
   -0.4101   26.6297  -28.7908 H   0  0  0  0  0  0  0  0  0  0  0  0
   -1.1780   26.0460  -28.2620 C   0  0  0  0  0  0  0  0  0  0  0  0
   -2.0520   25.2780  -28.9650 N   0  0  0  0  0  0  0  0  0  0  0  0
   -3.0250   24.5440  -28.3520 C   0  0  0  0  0  0  0  0  0  0  0  0
   -3.8480   23.8060  -29.0390 N   0  0  0  0  0  0  0  0  0  0  0  0
   -3.9110   23.7200  -30.4730 C   0  0  0  0  0  0  0  0  0  0  0  0
   -4.2890   24.7320  -31.1200 O   0  0  0  0  0  0  0  0  0  0  0  0
   -3.4950   22.5040  -31.2120 C   0  0  0  0  0  0  0  0  0  0  0  0
   -2.6960   21.5250  -30.5940 C   0  0  0  0  0  0  0  0  0  0  0  0
   -2.3690   21.6636  -29.5529 H   0  0  0  0  0  0  0  0  0  0  0  0
   -2.3150   20.3770  -31.2950 C   0  0  0  0  0  0  0  0  0  0  0  0
   -1.7017   19.6102  -30.7991 H   0  0  0  0  0  0  0  0  0  0  0  0
   -2.7110   20.2000  -32.6250 C   0  0  0  0  0  0  0  0  0  0  0  0
   -2.2530   18.7280  -33.4770 S   0  0  0  0  0  0  0  0  0  0  0  0
   -1.4960   17.8490  -32.5200 O   0  0  0  0  0  0  0  0  0  0  0  0
   -1.3720   19.0470  -34.6520 O   0  0  0  0  0  0  0  0  0  0  0  0
   -3.6860   17.9140  -34.0370 N   0  0  0  0  0  0  0  0  0  0  0  0
   -4.9730   18.2190  -33.4690 C   0  0  0  0  0  0  0  0  0  0  0  0
   -5.4680   17.4760  -32.3810 C   0  0  0  0  0  0  0  0  0  0  0  0
   -4.8655   16.6585  -31.9584 H   0  0  0  0  0  0  0  0  0  0  0  0
   -6.7200   17.7700  -31.8340 C   0  0  0  0  0  0  0  0  0  0  0  0
   -7.0964   17.1867  -30.9808 H   0  0  0  0  0  0  0  0  0  0  0  0
   -7.4950   18.8030  -32.3680 C   0  0  0  0  0  0  0  0  0  0  0  0
   -9.0660   19.1700  -31.6800 Cl  0  0  0  0  0  0  0  0  0  0  0  0
   -7.0150   19.5430  -33.4530 C   0  0  0  0  0  0  0  0  0  0  0  0
   -7.6247   20.3556  -33.8749 H   0  0  0  0  0  0  0  0  0  0  0  0
   -5.7640   19.2540  -34.0030 C   0  0  0  0  0  0  0  0  0  0  0  0
   -5.3946   19.8386  -34.8585 H   0  0  0  0  0  0  0  0  0  0  0  0
   -3.5600   16.8840  -35.0690 C   0  0  0  0  0  0  0  0  0  0  0  0
   -3.4396   15.9000  -34.5922 H   0  0  0  0  0  0  0  0  0  0  0  0
   -4.4643   16.8798  -35.6952 H   0  0  0  0  0  0  0  0  0  0  0  0
   -2.6813   17.0980  -35.6952 H   0  0  0  0  0  0  0  0  0  0  0  0
   -3.4870   21.1810  -33.2540 C   0  0  0  0  0  0  0  0  0  0  0  0
   -3.7950   21.0482  -34.3016 H   0  0  0  0  0  0  0  0  0  0  0  0
   -3.8720   22.3300  -32.5540 C   0  0  0  0  0  0  0  0  0  0  0  0
   -4.4733   23.1013  -33.0575 H   0  0  0  0  0  0  0  0  0  0  0  0
   -3.1210   24.5600  -26.9550 C   0  0  0  0  0  0  0  0  0  0  0  0
   -3.8901   23.9610  -26.4454 H   0  0  0  0  0  0  0  0  0  0  0  0
   -2.2330   25.3420  -26.2140 C   0  0  0  0  0  0  0  0  0  0  0  0
   -2.3037   25.3657  -25.1165 H   0  0  0  0  0  0  0  0  0  0  0  0
   -1.2550   26.0940  -26.8680 C   0  0  0  0  0  0  0  0  0  0  0  0
   -0.0330   27.1700  -25.8700 Br  0  0  0  0  0  0  0  0  0  0  0  0
  1  2  1  0
  2  3  1  0
  3  4  1  0
  4  5  2  0
  5  6  1  0
  6  7  2  0
  6  8  1  0
  8  9  2  0
  9 10  1  0
  9 11  1  0
 11 12  1  0
 11 13  2  0
 13 14  1  0
 14 15  2  0
 14 16  2  0
 14 17  1  0
 17 18  1  0
 18 19  2  0
 19 20  1  0
 19 21  1  0
 21 22  1  0
 21 23  2  0
 23 24  1  0
 23 25  1  0
 25 26  1  0
 25 27  2  0
 27 28  1  0
 17 29  1  0
 29 30  1  0
 29 31  1  0
 29 32  1  0
 13 33  1  0
 33 34  1  0
 33 35  2  0
 35 36  1  0
  4 37  1  0
 37 38  1  0
 37 39  2  0
 39 40  1  0
 39 41  1  0
 41 42  1  0
 41  2  2  0
 35  8  1  0
 27 18  1  0
M  CHG  1   3  -1
M  END
>  <UniqueID>  (13) 
13

>  <SMILES>  (13) 
CN(c1ccc(Cl)cc1)S(=O)(=O)c1ccc(C(=O)/N=c2/ccc(Br)c[n-]2)cc1

>  <Energy>  (13) 
57.502977188379575

>  <Genealogy>  (13) 
CN(c1ccc(Cl)cc1)S(=O)(=O)c1ccc(C(=O)N=c2ccc(Br)c[n-]2)cc1 (protonated)
CN(c1ccc(Cl)cc1)S(=O)(=O)c1ccc(C(=O)/N=c2/ccc(Br)c[n-]2)cc1 (cis-trans isomerization)
CN(c1ccc(Cl)cc1)S(=O)(=O)c1ccc(C(=O)/N=c2/ccc(Br)c[n-]2)cc1 (3D coordinates assigned)
CN(c1ccc(Cl)cc1)S(=O)(=O)c1ccc(C(=O)/N=c2/ccc(Br)c[n-]2)cc1 (optimized conformer: 57.502977188379575 kcal/mol)

>  <smiles>  (13) 
CN(c1ccc(Cl)cc1)S(=O)(=O)c1ccc(C(=O)N=c2ccc(Br)c[nH]2)cc1

>  <score_type>  (13) 
oracle

>  <origin>  (13) 
adgpu

>  <m_score__min__energy>  (13) 
-11.26

>  <m_primary>  (13) 
energy

$$$$
13:0
     RDKit          3D

 53 54  0  0  0  0  0  0  0  0999 V2000
   -4.4590   18.3610  -33.7280 C   0  0  0  0  0  0  0  0  0  0  0  0
   -5.6100   19.1560  -33.1600 C   0  0  0  0  0  0  0  0  0  0  0  0
   -6.7870   18.4770  -32.8400 C   0  0  0  0  0  0  0  0  0  0  0  0
   -7.8850   19.1380  -32.2940 C   0  0  0  0  0  0  0  0  0  0  0  0
   -9.1140   18.3190  -31.9700 C   0  0  0  0  0  0  0  0  0  0  0  0
   -7.8360   20.5430  -32.0910 C   0  0  0  0  0  0  0  0  0  0  0  0
   -9.0700   21.2660  -31.5900 C   0  0  0  0  0  0  0  0  0  0  0  0
   -6.6200   21.2510  -32.3470 C   0  0  0  0  0  0  0  0  0  0  0  0
   -6.4170   22.9850  -31.9070 S   0  0  0  0  0  0  0  0  0  0  0  0
   -7.2830   23.7970  -32.8280 O   0  0  0  0  0  0  0  0  0  0  0  0
   -5.0110   23.4820  -32.0870 O   0  0  0  0  0  0  0  0  0  0  0  0
   -6.9250   23.3020  -30.2680 N   0  0  0  0  0  0  0  0  0  0  0  0
   -6.2540   24.4670  -29.6910 C   0  0  0  0  0  0  0  0  0  0  0  0
   -4.8330   24.0980  -29.2520 C   0  0  0  0  0  0  0  0  0  0  0  0
   -3.7570   24.9220  -29.9120 C   0  0  0  0  0  0  0  0  0  0  0  0
   -4.0240   25.6450  -30.9130 O   0  0  0  0  0  0  0  0  0  0  0  0
   -2.4210   24.9200  -29.3950 N   0  0  0  0  0  0  0  0  0  0  0  0
   -1.9000   23.8370  -28.6100 C   0  0  0  0  0  0  0  0  0  0  0  0
   -1.6120   24.0300  -27.2400 C   0  0  0  0  0  0  0  0  0  0  0  0
   -1.7510   25.3880  -26.6070 C   0  0  0  0  0  0  0  0  0  0  0  0
   -1.2370   22.9290  -26.4560 C   0  0  0  0  0  0  0  0  0  0  0  0
   -1.1120   21.6620  -27.0290 C   0  0  0  0  0  0  0  0  0  0  0  0
   -1.3570   21.4770  -28.3930 C   0  0  0  0  0  0  0  0  0  0  0  0
   -1.7360   22.5630  -29.1960 C   0  0  0  0  0  0  0  0  0  0  0  0
   -2.0230   22.3470  -30.6560 C   0  0  0  0  0  0  0  0  0  0  0  0
   -5.5230   20.5560  -32.9470 C   0  0  0  0  0  0  0  0  0  0  0  0
   -4.2400   21.2830  -33.3080 C   0  0  0  0  0  0  0  0  0  0  0  0
   -3.8584   17.9462  -32.9050 H   0  0  0  0  0  0  0  0  0  0  0  0
   -4.8504   17.5398  -34.3464 H   0  0  0  0  0  0  0  0  0  0  0  0
   -3.8296   19.0178  -34.3464 H   0  0  0  0  0  0  0  0  0  0  0  0
   -6.8489   17.3942  -33.0234 H   0  0  0  0  0  0  0  0  0  0  0  0
   -9.2271   18.2436  -30.8784 H   0  0  0  0  0  0  0  0  0  0  0  0
  -10.0026   18.8062  -32.3979 H   0  0  0  0  0  0  0  0  0  0  0  0
   -9.0064   17.3114  -32.3979 H   0  0  0  0  0  0  0  0  0  0  0  0
   -9.0727   21.2676  -30.4900 H   0  0  0  0  0  0  0  0  0  0  0  0
   -9.0625   22.3025  -31.9582 H   0  0  0  0  0  0  0  0  0  0  0  0
   -9.9705   20.7527  -31.9582 H   0  0  0  0  0  0  0  0  0  0  0  0
   -6.2050   25.2675  -30.4438 H   0  0  0  0  0  0  0  0  0  0  0  0
   -6.8223   24.8096  -28.8137 H   0  0  0  0  0  0  0  0  0  0  0  0
   -4.7590   24.2393  -28.1636 H   0  0  0  0  0  0  0  0  0  0  0  0
   -4.6663   23.0536  -29.5543 H   0  0  0  0  0  0  0  0  0  0  0  0
   -1.7404   25.2849  -25.5119 H   0  0  0  0  0  0  0  0  0  0  0  0
   -0.9136   26.0274  -26.9232 H   0  0  0  0  0  0  0  0  0  0  0  0
   -2.7006   25.8445  -26.9232 H   0  0  0  0  0  0  0  0  0  0  0  0
   -1.0400   23.0648  -25.3823 H   0  0  0  0  0  0  0  0  0  0  0  0
   -0.8194   20.8052  -26.4043 H   0  0  0  0  0  0  0  0  0  0  0  0
   -1.2522   20.4765  -28.8380 H   0  0  0  0  0  0  0  0  0  0  0  0
   -2.8976   21.6887  -30.7643 H   0  0  0  0  0  0  0  0  0  0  0  0
   -2.2308   23.3147  -31.1359 H   0  0  0  0  0  0  0  0  0  0  0  0
   -1.1506   21.8795  -31.1359 H   0  0  0  0  0  0  0  0  0  0  0  0
   -3.7156   21.5802  -32.3878 H   0  0  0  0  0  0  0  0  0  0  0  0
   -3.5946   20.6164  -33.8989 H   0  0  0  0  0  0  0  0  0  0  0  0
   -4.4802   22.1792  -33.8989 H   0  0  0  0  0  0  0  0  0  0  0  0
  1  2  1  0
  2  3  2  0
  3  4  1  0
  4  5  1  0
  4  6  2  0
  6  7  1  0
  6  8  1  0
  8  9  1  0
  9 10  2  0
  9 11  2  0
  9 12  1  0
 12 13  1  0
 13 14  1  0
 14 15  1  0
 15 16  2  0
 15 17  1  0
 17 18  1  0
 18 19  2  0
 19 20  1  0
 19 21  1  0
 21 22  2  0
 22 23  1  0
 23 24  2  0
 24 25  1  0
  8 26  2  0
 26 27  1  0
 26  2  1  0
 24 18  1  0
  1 28  1  0
  1 29  1  0
  1 30  1  0
  3 31  1  0
  5 32  1  0
  5 33  1  0
  5 34  1  0
  7 35  1  0
  7 36  1  0
  7 37  1  0
 13 38  1  0
 13 39  1  0
 14 40  1  0
 14 41  1  0
 20 42  1  0
 20 43  1  0
 20 44  1  0
 21 45  1  0
 22 46  1  0
 23 47  1  0
 25 48  1  0
 25 49  1  0
 25 50  1  0
 27 51  1  0
 27 52  1  0
 27 53  1  0
M  CHG  2  12  -1  17  -1
M  END
>  <UniqueID>  (14) 
14

>  <SMILES>  (14) 
Cc1cc(C)c(C)c(S(=O)(=O)[N-]CCC(=O)[N-]c2c(C)cccc2C)c1C

>  <Energy>  (14) 
64.16800293818669

>  <Genealogy>  (14) 
Cc1cc(C)c(C)c(S(=O)(=O)[N-]CCC(=O)[N-]c2c(C)cccc2C)c1C (protonated)
Cc1cc(C)c(C)c(S(=O)(=O)[N-]CCC(=O)[N-]c2c(C)cccc2C)c1C (3D coordinates assigned)
Cc1cc(C)c(C)c(S(=O)(=O)[N-]CCC(=O)[N-]c2c(C)cccc2C)c1C (optimized conformer: 64.16800293818669 kcal/mol)

>  <smiles>  (14) 
Cc1cc(C)c(C)c(S(=O)(=O)NCCC(=O)Nc2c(C)cccc2C)c1C

>  <score_type>  (14) 
oracle

>  <origin>  (14) 
adgpu

>  <m_score__min__energy>  (14) 
-11.77

>  <m_primary>  (14) 
energy

$$$$
14:0
     RDKit          3D

 51 53  0  0  0  0  0  0  0  0999 V2000
   -6.8540   15.8010  -34.2780 C   0  0  0  0  0  0  0  0  0  0  0  0
   -6.5780   17.0530  -33.6560 O   0  0  0  0  0  0  0  0  0  0  0  0
   -5.2890   17.5640  -33.4490 C   0  0  0  0  0  0  0  0  0  0  0  0
   -5.0640   18.8080  -32.8310 C   0  0  0  0  0  0  0  0  0  0  0  0
   -3.7630   19.2830  -32.6520 C   0  0  0  0  0  0  0  0  0  0  0  0
   -2.6630   18.5210  -33.0870 C   0  0  0  0  0  0  0  0  0  0  0  0
   -1.3170   18.9690  -32.8620 N   0  0  0  0  0  0  0  0  0  0  0  0
   -0.8870   20.3110  -33.1200 C   0  0  0  0  0  0  0  0  0  0  0  0
   -1.3640   20.9530  -34.0960 O   0  0  0  0  0  0  0  0  0  0  0  0
    0.0570   20.9880  -32.1760 C   0  0  0  0  0  0  0  0  0  0  0  0
   -0.6400   21.2450  -30.9060 N   0  0  0  0  0  0  0  0  0  0  0  0
   -1.0000   22.5320  -30.6120 C   0  0  0  0  0  0  0  0  0  0  0  0
   -1.7960   22.8200  -29.4980 C   0  0  0  0  0  0  0  0  0  0  0  0
   -2.3630   24.4600  -29.1920 S   0  0  0  0  0  0  0  0  0  0  0  0
   -1.2120   25.4230  -29.1210 O   0  0  0  0  0  0  0  0  0  0  0  0
   -3.0780   24.4900  -27.8700 O   0  0  0  0  0  0  0  0  0  0  0  0
   -3.4760   24.9300  -30.4390 N   0  0  0  0  0  0  0  0  0  0  0  0
   -4.8450   24.5090  -30.5590 C   0  0  0  0  0  0  0  0  0  0  0  0
   -5.9060   25.2750  -30.0450 C   0  0  0  0  0  0  0  0  0  0  0  0
   -7.2260   24.8390  -30.1840 C   0  0  0  0  0  0  0  0  0  0  0  0
   -7.4990   23.6290  -30.8190 C   0  0  0  0  0  0  0  0  0  0  0  0
   -6.4540   22.8500  -31.3190 C   0  0  0  0  0  0  0  0  0  0  0  0
   -5.1200   23.2870  -31.2000 C   0  0  0  0  0  0  0  0  0  0  0  0
   -4.0470   22.5420  -31.7120 O   0  0  0  0  0  0  0  0  0  0  0  0
   -3.8300   22.2920  -33.0980 C   0  0  0  0  0  0  0  0  0  0  0  0
   -2.1930   21.7740  -28.6620 C   0  0  0  0  0  0  0  0  0  0  0  0
   -1.8030   20.4700  -28.9500 C   0  0  0  0  0  0  0  0  0  0  0  0
   -1.0360   20.2120  -30.0910 C   0  0  0  0  0  0  0  0  0  0  0  0
   -0.7250   19.0200  -30.3620 O   0  0  0  0  0  0  0  0  0  0  0  0
   -2.8880   17.2720  -33.6810 C   0  0  0  0  0  0  0  0  0  0  0  0
   -4.1920   16.8040  -33.8710 C   0  0  0  0  0  0  0  0  0  0  0  0
   -7.0225   15.0368  -33.5050 H   0  0  0  0  0  0  0  0  0  0  0  0
   -7.7534   15.8932  -34.9046 H   0  0  0  0  0  0  0  0  0  0  0  0
   -5.9992   15.5065  -34.9046 H   0  0  0  0  0  0  0  0  0  0  0  0
   -5.9180   19.4099  -32.4868 H   0  0  0  0  0  0  0  0  0  0  0  0
   -3.5974   20.2572  -32.1688 H   0  0  0  0  0  0  0  0  0  0  0  0
   -0.6320   18.3030  -32.4350 H   0  0  0  0  0  0  0  0  0  0  0  0
    0.9266   20.3391  -31.9950 H   0  0  0  0  0  0  0  0  0  0  0  0
    0.4007   21.9381  -32.6109 H   0  0  0  0  0  0  0  0  0  0  0  0
   -0.6586   23.3520  -31.2609 H   0  0  0  0  0  0  0  0  0  0  0  0
   -5.6954   26.2239  -29.5300 H   0  0  0  0  0  0  0  0  0  0  0  0
   -8.0510   25.4517  -29.7916 H   0  0  0  0  0  0  0  0  0  0  0  0
   -8.5391   23.2873  -30.9264 H   0  0  0  0  0  0  0  0  0  0  0  0
   -6.6734   21.8897  -31.8086 H   0  0  0  0  0  0  0  0  0  0  0  0
   -3.1129   21.4659  -33.2137 H   0  0  0  0  0  0  0  0  0  0  0  0
   -4.7830   22.0198  -33.5751 H   0  0  0  0  0  0  0  0  0  0  0  0
   -3.4265   23.1973  -33.5751 H   0  0  0  0  0  0  0  0  0  0  0  0
   -2.8130   21.9809  -27.7773 H   0  0  0  0  0  0  0  0  0  0  0  0
   -2.0964   19.6456  -28.2835 H   0  0  0  0  0  0  0  0  0  0  0  0
   -2.0341   16.6562  -33.9996 H   0  0  0  0  0  0  0  0  0  0  0  0
   -4.3570   15.8306  -34.3561 H   0  0  0  0  0  0  0  0  0  0  0  0
  1  2  1  0
  2  3  1  0
  3  4  2  0
  4  5  1  0
  5  6  2  0
  6  7  1  0
  7  8  1  0
  8  9  2  0
  8 10  1  0
 10 11  1  0
 11 12  1  0
 12 13  2  0
 13 14  1  0
 14 15  2  0
 14 16  2  0
 14 17  1  0
 17 18  1  0
 18 19  2  0
 19 20  1  0
 20 21  2  0
 21 22  1  0
 22 23  2  0
 23 24  1  0
 24 25  1  0
 13 26  1  0
 26 27  2  0
 27 28  1  0
 28 29  2  0
  6 30  1  0
 30 31  2  0
 31  3  1  0
 28 11  1  0
 23 18  1  0
  1 32  1  0
  1 33  1  0
  1 34  1  0
  4 35  1  0
  5 36  1  0
  7 37  1  0
 10 38  1  0
 10 39  1  0
 12 40  1  0
 19 41  1  0
 20 42  1  0
 21 43  1  0
 22 44  1  0
 25 45  1  0
 25 46  1  0
 25 47  1  0
 26 48  1  0
 27 49  1  0
 30 50  1  0
 31 51  1  0
M  CHG  1  17  -1
M  END
>  <UniqueID>  (15) 
15

>  <SMILES>  (15) 
COc1ccc(NC(=O)Cn2cc(S(=O)(=O)[N-]c3ccccc3OC)ccc2=O)cc1

>  <Energy>  (15) 
57.83140760642574

>  <Genealogy>  (15) 
COc1ccc(NC(=O)Cn2cc(S(=O)(=O)[N-]c3ccccc3OC)ccc2=O)cc1 (protonated)
COc1ccc(NC(=O)Cn2cc(S(=O)(=O)[N-]c3ccccc3OC)ccc2=O)cc1 (3D coordinates assigned)
COc1ccc(NC(=O)Cn2cc(S(=O)(=O)[N-]c3ccccc3OC)ccc2=O)cc1 (optimized conformer: 57.83140760642574 kcal/mol)

>  <smiles>  (15) 
COc1ccc(NC(=O)Cn2cc(S(=O)(=O)Nc3ccccc3OC)ccc2=O)cc1

>  <score_type>  (15) 
oracle

>  <origin>  (15) 
adgpu

>  <m_score__min__energy>  (15) 
-10.02

>  <m_primary>  (15) 
energy

$$$$
15:0
     RDKit          3D

 59 61  0  0  0  0  0  0  0  0999 V2000
   -1.5720   19.1210  -32.2630 C   0  0  0  0  0  0  0  0  0  0  0  0
   -1.8160   20.3380  -31.4200 C   0  0  0  0  0  0  0  0  0  0  0  0
   -1.4260   20.3540  -30.0740 C   0  0  0  0  0  0  0  0  0  0  0  0
   -1.6200   21.5010  -29.2970 C   0  0  0  0  0  0  0  0  0  0  0  0
   -2.1910   22.6510  -29.8600 C   0  0  0  0  0  0  0  0  0  0  0  0
   -2.3780   23.8340  -29.0650 N   0  0  0  0  0  0  0  0  0  0  0  0
   -3.7190   24.1970  -28.5910 C   0  0  0  0  0  0  0  0  0  0  0  0
   -4.6330   24.4840  -29.7430 C   0  0  0  0  0  0  0  0  0  0  0  0
   -4.2010   25.1420  -30.7270 O   0  0  0  0  0  0  0  0  0  0  0  0
   -5.9970   24.0370  -29.7140 N   0  0  0  0  0  0  0  0  0  0  0  0
   -6.8870   24.1750  -30.8630 C   0  0  0  0  0  0  0  0  0  0  0  0
   -7.8810   23.0140  -30.9150 C   0  0  0  0  0  0  0  0  0  0  0  0
   -7.3240   21.8800  -31.7320 C   0  0  0  0  0  0  0  0  0  0  0  0
   -8.1090   20.7470  -31.9980 C   0  0  0  0  0  0  0  0  0  0  0  0
   -7.5800   19.6800  -32.7310 C   0  0  0  0  0  0  0  0  0  0  0  0
   -6.2630   19.7330  -33.1980 C   0  0  0  0  0  0  0  0  0  0  0  0
   -5.4710   20.8520  -32.9260 C   0  0  0  0  0  0  0  0  0  0  0  0
   -5.9960   21.9200  -32.1910 C   0  0  0  0  0  0  0  0  0  0  0  0
   -0.9850   24.6480  -28.4100 S   0  0  0  0  0  0  0  0  0  0  0  0
   -1.0930   26.1310  -28.6410 O   0  0  0  0  0  0  0  0  0  0  0  0
    0.2460   24.1590  -29.1180 O   0  0  0  0  0  0  0  0  0  0  0  0
   -0.8410   24.3550  -26.6740 C   0  0  0  0  0  0  0  0  0  0  0  0
   -1.1320   25.2320  -25.6410 C   0  0  0  0  0  0  0  0  0  0  0  0
   -1.6550   26.6260  -25.7660 C   0  0  0  0  0  0  0  0  0  0  0  0
   -0.9460   24.6160  -24.4570 N   0  0  0  0  0  0  0  0  0  0  0  0
   -0.5360   23.3820  -24.7060 N   0  0  0  0  0  0  0  0  0  0  0  0
   -0.2580   22.4080  -23.6580 C   0  0  0  0  0  0  0  0  0  0  0  0
   -0.4710   23.1800  -26.0410 C   0  0  0  0  0  0  0  0  0  0  0  0
   -0.0470   21.9050  -26.7060 C   0  0  0  0  0  0  0  0  0  0  0  0
   -2.5680   22.6390  -31.2130 C   0  0  0  0  0  0  0  0  0  0  0  0
   -2.3760   21.4930  -31.9900 C   0  0  0  0  0  0  0  0  0  0  0  0
   -1.3978   18.2523  -31.6111 H   0  0  0  0  0  0  0  0  0  0  0  0
   -2.4503   18.9327  -32.8980 H   0  0  0  0  0  0  0  0  0  0  0  0
   -0.6890   19.2858  -32.8980 H   0  0  0  0  0  0  0  0  0  0  0  0
   -0.9654   19.4609  -29.6266 H   0  0  0  0  0  0  0  0  0  0  0  0
   -1.3227   21.5006  -28.2379 H   0  0  0  0  0  0  0  0  0  0  0  0
   -4.1311   23.3637  -28.0031 H   0  0  0  0  0  0  0  0  0  0  0  0
   -3.6398   25.1021  -27.9708 H   0  0  0  0  0  0  0  0  0  0  0  0
   -6.3340   23.4930  -28.8870 H   0  0  0  0  0  0  0  0  0  0  0  0
   -7.4407   25.1218  -30.7799 H   0  0  0  0  0  0  0  0  0  0  0  0
   -6.2835   24.1672  -31.7826 H   0  0  0  0  0  0  0  0  0  0  0  0
   -8.0786   22.6605  -29.8923 H   0  0  0  0  0  0  0  0  0  0  0  0
   -8.8134   23.3644  -31.3817 H   0  0  0  0  0  0  0  0  0  0  0  0
   -9.1440   20.6983  -31.6285 H   0  0  0  0  0  0  0  0  0  0  0  0
   -8.2014   18.7969  -32.9407 H   0  0  0  0  0  0  0  0  0  0  0  0
   -5.8507   18.8948  -33.7789 H   0  0  0  0  0  0  0  0  0  0  0  0
   -4.4339   20.8928  -33.2903 H   0  0  0  0  0  0  0  0  0  0  0  0
   -5.3668   22.7951  -31.9712 H   0  0  0  0  0  0  0  0  0  0  0  0
   -1.8138   27.0493  -24.7632 H   0  0  0  0  0  0  0  0  0  0  0  0
   -0.9272   27.2430  -26.3134 H   0  0  0  0  0  0  0  0  0  0  0  0
   -2.6090   26.6120  -26.3134 H   0  0  0  0  0  0  0  0  0  0  0  0
   -0.3927   22.8800  -22.6736 H   0  0  0  0  0  0  0  0  0  0  0  0
   -0.9494   21.5579  -23.7547 H   0  0  0  0  0  0  0  0  0  0  0  0
    0.7779   22.0509  -23.7547 H   0  0  0  0  0  0  0  0  0  0  0  0
    0.2019   21.1567  -25.9392 H   0  0  0  0  0  0  0  0  0  0  0  0
   -0.8681   21.5280  -27.3334 H   0  0  0  0  0  0  0  0  0  0  0  0
    0.8364   22.0948  -27.3334 H   0  0  0  0  0  0  0  0  0  0  0  0
   -3.0169   23.5365  -31.6637 H   0  0  0  0  0  0  0  0  0  0  0  0
   -2.6645   21.4958  -33.0515 H   0  0  0  0  0  0  0  0  0  0  0  0
  1  2  1  0
  2  3  2  0
  3  4  1  0
  4  5  2  0
  5  6  1  0
  6  7  1  0
  7  8  1  0
  8  9  2  0
  8 10  1  0
 10 11  1  0
 11 12  1  0
 12 13  1  0
 13 14  2  0
 14 15  1  0
 15 16  2  0
 16 17  1  0
 17 18  2  0
  6 19  1  0
 19 20  2  0
 19 21  2  0
 19 22  1  0
 22 23  1  0
 23 24  1  0
 23 25  2  0
 25 26  1  0
 26 27  1  0
 26 28  1  0
 28 29  1  0
  5 30  1  0
 30 31  2  0
 31  2  1  0
 18 13  1  0
 28 22  2  0
  1 32  1  0
  1 33  1  0
  1 34  1  0
  3 35  1  0
  4 36  1  0
  7 37  1  0
  7 38  1  0
 10 39  1  0
 11 40  1  0
 11 41  1  0
 12 42  1  0
 12 43  1  0
 14 44  1  0
 15 45  1  0
 16 46  1  0
 17 47  1  0
 18 48  1  0
 24 49  1  0
 24 50  1  0
 24 51  1  0
 27 52  1  0
 27 53  1  0
 27 54  1  0
 29 55  1  0
 29 56  1  0
 29 57  1  0
 30 58  1  0
 31 59  1  0
M  END
>  <UniqueID>  (16) 
16

>  <SMILES>  (16) 
Cc1ccc(N(CC(=O)NCCc2ccccc2)S(=O)(=O)c2c(C)nn(C)c2C)cc1

>  <Energy>  (16) 
84.85595235763803

>  <Genealogy>  (16) 
Cc1ccc(N(CC(=O)NCCc2ccccc2)S(=O)(=O)c2c(C)nn(C)c2C)cc1 (3D coordinates assigned)
Cc1ccc(N(CC(=O)NCCc2ccccc2)S(=O)(=O)c2c(C)nn(C)c2C)cc1 (optimized conformer: 84.85595235763803 kcal/mol)

>  <smiles>  (16) 
Cc1ccc(N(CC(=O)NCCc2ccccc2)S(=O)(=O)c2c(C)nn(C)c2C)cc1

>  <score_type>  (16) 
oracle

>  <origin>  (16) 
adgpu

>  <m_score__min__energy>  (16) 
-10.779999999999999

>  <m_primary>  (16) 
energy

$$$$
16:0
     RDKit          3D

 25 26  0  0  0  0  0  0  0  0999 V2000
   -5.3980   26.4570  -30.4700 O   0  0  0  0  0  0  0  0  0  0  0  0
   -4.9180   25.2960  -30.5640 C   0  0  0  0  0  0  0  0  0  0  0  0
   -3.4980   25.1300  -30.4460 N   0  0  0  0  0  0  0  0  0  0  0  0
   -2.8040   24.5330  -29.3410 C   0  0  0  0  0  0  0  0  0  0  0  0
   -1.5140   24.9520  -28.9650 C   0  0  0  0  0  0  0  0  0  0  0  0
   -0.8600   24.3370  -27.8920 C   0  0  0  0  0  0  0  0  0  0  0  0
   -1.4790   23.2930  -27.2000 C   0  0  0  0  0  0  0  0  0  0  0  0
   -0.8430   22.6960  -26.1620 F   0  0  0  0  0  0  0  0  0  0  0  0
   -2.7500   22.8570  -27.5850 C   0  0  0  0  0  0  0  0  0  0  0  0
   -3.4070   23.4700  -28.6570 C   0  0  0  0  0  0  0  0  0  0  0  0
   -5.8220   24.1570  -30.8480 C   0  0  0  0  0  0  0  0  0  0  0  0
   -5.7900   23.5020  -32.0920 C   0  0  0  0  0  0  0  0  0  0  0  0
   -6.6490   22.4300  -32.3500 C   0  0  0  0  0  0  0  0  0  0  0  0
   -7.5560   22.0070  -31.3730 C   0  0  0  0  0  0  0  0  0  0  0  0
   -8.6330   20.6610  -31.6990 Cl  0  0  0  0  0  0  0  0  0  0  0  0
   -7.6070   22.6610  -30.1390 C   0  0  0  0  0  0  0  0  0  0  0  0
   -6.7490   23.7330  -29.8780 C   0  0  0  0  0  0  0  0  0  0  0  0
   -1.0188   25.7650  -29.5162 H   0  0  0  0  0  0  0  0  0  0  0  0
    0.1428   24.6758  -27.5928 H   0  0  0  0  0  0  0  0  0  0  0  0
   -3.2343   22.0306  -27.0442 H   0  0  0  0  0  0  0  0  0  0  0  0
   -4.4020   23.1155  -28.9642 H   0  0  0  0  0  0  0  0  0  0  0  0
   -5.0843   23.8355  -32.8671 H   0  0  0  0  0  0  0  0  0  0  0  0
   -6.6116   21.9182  -33.3230 H   0  0  0  0  0  0  0  0  0  0  0  0
   -8.3234   22.3316  -29.3720 H   0  0  0  0  0  0  0  0  0  0  0  0
   -6.7987   24.2488  -28.9077 H   0  0  0  0  0  0  0  0  0  0  0  0
  1  2  2  0
  2  3  1  0
  3  4  1  0
  4  5  2  0
  5  6  1  0
  6  7  2  0
  7  8  1  0
  7  9  1  0
  9 10  2  0
  2 11  1  0
 11 12  2  0
 12 13  1  0
 13 14  2  0
 14 15  1  0
 14 16  1  0
 16 17  2  0
 10  4  1  0
 17 11  1  0
  5 18  1  0
  6 19  1  0
  9 20  1  0
 10 21  1  0
 12 22  1  0
 13 23  1  0
 16 24  1  0
 17 25  1  0
M  CHG  1   3  -1
M  END
>  <UniqueID>  (17) 
17

>  <SMILES>  (17) 
O=C([N-]c1ccc(F)cc1)c1ccc(Cl)cc1

>  <Energy>  (17) 
32.72137240147926

>  <Genealogy>  (17) 
O=C([N-]c1ccc(F)cc1)c1ccc(Cl)cc1 (protonated)
O=C([N-]c1ccc(F)cc1)c1ccc(Cl)cc1 (3D coordinates assigned)
O=C([N-]c1ccc(F)cc1)c1ccc(Cl)cc1 (optimized conformer: 32.72137240147926 kcal/mol)

>  <smiles>  (17) 
O=C(Nc1ccc(F)cc1)c1ccc(Cl)cc1

>  <score_type>  (17) 
oracle

>  <origin>  (17) 
adgpu

>  <m_score__min__energy>  (17) 
-8.4100000000000001

>  <m_primary>  (17) 
energy

$$$$
17:0
     RDKit          3D

 54 56  0  0  0  0  0  0  0  0999 V2000
   -1.5860   24.4570  -28.1810 C   0  0  0  0  0  0  0  0  0  0  0  0
   -2.5050   24.2280  -29.3080 N   0  0  0  0  0  0  0  0  0  0  0  0
   -2.1540   22.9780  -30.0170 C   0  0  0  0  0  0  0  0  0  0  0  0
   -1.8880   21.8810  -29.0220 C   0  0  0  0  0  0  0  0  0  0  0  0
   -0.5750   21.4610  -28.7500 C   0  0  0  0  0  0  0  0  0  0  0  0
   -0.3420   20.4260  -27.8390 C   0  0  0  0  0  0  0  0  0  0  0  0
   -1.4160   19.8030  -27.1970 C   0  0  0  0  0  0  0  0  0  0  0  0
   -2.7250   20.2130  -27.4660 C   0  0  0  0  0  0  0  0  0  0  0  0
   -2.9630   21.2470  -28.3760 C   0  0  0  0  0  0  0  0  0  0  0  0
   -3.9090   24.2070  -28.8360 C   0  0  0  0  0  0  0  0  0  0  0  0
   -4.8270   24.9560  -29.8240 C   0  0  1  0  0  0  0  0  0  0  0  0
   -4.0460   25.6120  -30.7880 O   0  0  0  0  0  0  0  0  0  0  0  0
   -5.8170   23.9990  -30.5140 C   0  0  0  0  0  0  0  0  0  0  0  0
   -5.2590   23.4110  -31.6920 O   0  0  0  0  0  0  0  0  0  0  0  0
   -5.5830   22.1470  -32.2240 C   0  0  0  0  0  0  0  0  0  0  0  0
   -6.8890   21.6140  -32.1580 C   0  0  0  0  0  0  0  0  0  0  0  0
   -7.1710   20.3610  -32.7030 C   0  0  0  0  0  0  0  0  0  0  0  0
   -6.1640   19.6190  -33.3170 C   0  0  0  0  0  0  0  0  0  0  0  0
   -4.8660   20.1280  -33.3840 C   0  0  0  0  0  0  0  0  0  0  0  0
   -4.5630   21.3840  -32.8340 C   0  0  0  0  0  0  0  0  0  0  0  0
   -3.1510   21.9130  -32.9270 C   0  0  0  0  0  0  0  0  0  0  0  0
   -2.1470   20.7890  -32.9530 C   0  0  0  0  0  0  0  0  0  0  0  0
   -1.8940   20.0340  -31.7950 C   0  0  0  0  0  0  0  0  0  0  0  0
   -0.9700   18.9850  -31.8240 C   0  0  0  0  0  0  0  0  0  0  0  0
   -0.2990   18.6750  -33.0100 C   0  0  0  0  0  0  0  0  0  0  0  0
   -0.5540   19.4110  -34.1710 C   0  0  0  0  0  0  0  0  0  0  0  0
   -1.4790   20.4600  -34.1460 C   0  0  0  0  0  0  0  0  0  0  0  0
   -2.1275   24.3221  -27.2331 H   0  0  0  0  0  0  0  0  0  0  0  0
   -0.7547   23.7385  -28.2339 H   0  0  0  0  0  0  0  0  0  0  0  0
   -1.1891   25.4815  -28.2339 H   0  0  0  0  0  0  0  0  0  0  0  0
   -2.9882   22.6830  -30.6705 H   0  0  0  0  0  0  0  0  0  0  0  0
   -1.2498   23.1461  -30.6204 H   0  0  0  0  0  0  0  0  0  0  0  0
    0.2722   21.9479  -29.2552 H   0  0  0  0  0  0  0  0  0  0  0  0
    0.6876   20.1018  -27.6274 H   0  0  0  0  0  0  0  0  0  0  0  0
   -1.2310   18.9897  -26.4798 H   0  0  0  0  0  0  0  0  0  0  0  0
   -3.5692   19.7211  -26.9607 H   0  0  0  0  0  0  0  0  0  0  0  0
   -3.9946   21.5653  -28.5870 H   0  0  0  0  0  0  0  0  0  0  0  0
   -4.2457   23.1633  -28.7504 H   0  0  0  0  0  0  0  0  0  0  0  0
   -3.9608   24.7059  -27.8570 H   0  0  0  0  0  0  0  0  0  0  0  0
   -5.4129   25.6925  -29.2545 H   0  0  0  0  0  0  0  0  0  0  0  0
   -3.4850   24.9190  -31.2240 H   0  0  0  0  0  0  0  0  0  0  0  0
   -6.0859   23.1977  -29.8100 H   0  0  0  0  0  0  0  0  0  0  0  0
   -6.7022   24.5808  -30.8106 H   0  0  0  0  0  0  0  0  0  0  0  0
   -7.6902   22.1911  -31.6732 H   0  0  0  0  0  0  0  0  0  0  0  0
   -8.1927   19.9571  -32.6477 H   0  0  0  0  0  0  0  0  0  0  0  0
   -6.3917   18.6331  -33.7485 H   0  0  0  0  0  0  0  0  0  0  0  0
   -4.0741   19.5405  -33.8716 H   0  0  0  0  0  0  0  0  0  0  0  0
   -3.0500   22.5054  -33.8483 H   0  0  0  0  0  0  0  0  0  0  0  0
   -2.9537   22.5351  -32.0415 H   0  0  0  0  0  0  0  0  0  0  0  0
   -2.4255   20.2695  -30.8612 H   0  0  0  0  0  0  0  0  0  0  0  0
   -0.7710   18.4030  -30.9121 H   0  0  0  0  0  0  0  0  0  0  0  0
    0.4301   17.8516  -33.0301 H   0  0  0  0  0  0  0  0  0  0  0  0
   -0.0269   19.1650  -35.1046 H   0  0  0  0  0  0  0  0  0  0  0  0
   -1.6849   21.0303  -35.0638 H   0  0  0  0  0  0  0  0  0  0  0  0
  1  2  1  0
  2  3  1  0
  3  4  1  0
  4  5  2  0
  5  6  1  0
  6  7  2  0
  7  8  1  0
  8  9  2  0
  2 10  1  0
 10 11  1  0
 11 12  1  0
 11 13  1  0
 13 14  1  0
 14 15  1  0
 15 16  2  0
 16 17  1  0
 17 18  2  0
 18 19  1  0
 19 20  2  0
 20 21  1  0
 21 22  1  0
 22 23  2  0
 23 24  1  0
 24 25  2  0
 25 26  1  0
 26 27  2  0
  9  4  1  0
 20 15  1  0
 27 22  1  0
  1 28  1  0
  1 29  1  0
  1 30  1  0
  3 31  1  0
  3 32  1  0
  5 33  1  0
  6 34  1  0
  7 35  1  0
  8 36  1  0
  9 37  1  0
 10 38  1  0
 10 39  1  0
 11 40  1  1
 12 41  1  0
 13 42  1  0
 13 43  1  0
 16 44  1  0
 17 45  1  0
 18 46  1  0
 19 47  1  0
 21 48  1  0
 21 49  1  0
 23 50  1  0
 24 51  1  0
 25 52  1  0
 26 53  1  0
 27 54  1  0
M  END
>  <UniqueID>  (18) 
18

>  <SMILES>  (18) 
CN(Cc1ccccc1)C[C@@H](O)COc1ccccc1Cc1ccccc1

>  <Energy>  (18) 
53.668245400365805

>  <Genealogy>  (18) 
CN(Cc1ccccc1)C[C@@H](O)COc1ccccc1Cc1ccccc1 (chirality)
CN(Cc1ccccc1)C[C@@H](O)COc1ccccc1Cc1ccccc1 (3D coordinates assigned)
CN(Cc1ccccc1)C[C@@H](O)COc1ccccc1Cc1ccccc1 (optimized conformer: 53.668245400365805 kcal/mol)

>  <smiles>  (18) 
CN(Cc1ccccc1)CC(O)COc1ccccc1Cc1ccccc1

>  <score_type>  (18) 
oracle

>  <origin>  (18) 
adgpu

>  <m_score__min__energy>  (18) 
-9.7599999999999998

>  <m_primary>  (18) 
energy

$$$$
18:0
     RDKit          3D

 62 65  0  0  1  0  0  0  0  0999 V2000
   -6.8200   17.9520  -32.3190 C   0  0  0  0  0  0  0  0  0  0  0  0
   -5.5720   17.6030  -33.0490 C   0  0  0  0  0  0  0  0  0  0  0  0
   -5.3230   16.3190  -33.5180 C   0  0  0  0  0  0  0  0  0  0  0  0
   -4.1750   15.9860  -34.1930 C   0  0  0  0  0  0  0  0  0  0  0  0
   -4.0360   14.6340  -34.6240 N   0  0  0  0  0  0  0  0  0  0  0  0
   -3.1620   14.2300  -35.8620 S   0  0  0  0  0  0  0  0  0  0  0  0
   -3.8860   12.9140  -36.8080 C   0  0  0  0  0  0  0  0  0  0  0  0
   -1.5410   13.7420  -35.3320 C   0  0  0  0  0  0  0  0  0  0  0  0
   -3.1130   15.4420  -36.7560 O   0  0  0  0  0  0  0  0  0  0  0  0
   -3.2140   16.9510  -34.4250 C   0  0  0  0  0  0  0  0  0  0  0  0
   -3.4470   18.2340  -33.9640 C   0  0  0  0  0  0  0  0  0  0  0  0
   -2.4960   19.1830  -34.1970 N   0  0  0  0  0  0  0  0  0  0  0  0
   -2.7080   20.4430  -33.7520 C   0  0  0  0  0  0  0  0  0  0  0  0
   -3.8140   20.8070  -33.0910 N   0  0  0  0  0  0  0  0  0  0  0  0
   -4.7600   19.8830  -32.8550 C   0  0  0  0  0  0  0  0  0  0  0  0
   -5.8220   20.2160  -32.2230 N   0  0  0  0  0  0  0  0  0  0  0  0
   -6.0670   21.5320  -31.7480 C   0  0  0  0  0  0  0  0  0  0  0  0
   -5.1040   22.2510  -31.0280 C   0  0  0  0  0  0  0  0  0  0  0  0
   -5.4020   23.5260  -30.5930 C   0  0  0  0  0  0  0  0  0  0  0  0
   -4.3670   24.2380  -29.8460 C   0  0  0  0  0  0  0  0  0  0  0  0
   -3.8580   25.2530  -30.3870 O   0  0  0  0  0  0  0  0  0  0  0  0
   -3.9250   23.8330  -28.5560 N   0  0  0  0  0  0  0  0  0  0  0  0
   -2.9170   24.5580  -27.8670 C   0  0  0  0  0  0  0  0  0  0  0  0
   -3.1000   24.9620  -26.5620 C   0  0  0  0  0  0  0  0  0  0  0  0
   -2.0630   25.6650  -25.9620 C   0  0  0  0  0  0  0  0  0  0  0  0
   -0.8880   25.9600  -26.6240 C   0  0  0  0  0  0  0  0  0  0  0  0
    0.2040   26.7260  -25.9260 C   0  0  0  0  0  0  0  0  0  0  0  0
    1.2590   25.8420  -25.7440 F   0  0  0  0  0  0  0  0  0  0  0  0
    0.6710   27.7340  -26.7370 F   0  0  0  0  0  0  0  0  0  0  0  0
   -0.2440   27.2620  -24.7370 F   0  0  0  0  0  0  0  0  0  0  0  0
   -0.7100   25.5530  -27.9320 C   0  0  0  0  0  0  0  0  0  0  0  0
   -1.7290   24.8520  -28.5470 C   0  0  0  0  0  0  0  0  0  0  0  0
   -6.6370   24.0710  -30.8700 C   0  0  0  0  0  0  0  0  0  0  0  0
   -7.6130   23.3850  -31.5810 C   0  0  0  0  0  0  0  0  0  0  0  0
   -7.3080   22.1110  -32.0130 C   0  0  0  0  0  0  0  0  0  0  0  0
   -8.2460   21.4050  -32.7160 O   0  0  0  0  0  0  0  0  0  0  0  0
   -9.1740   20.6030  -32.0010 C   0  0  0  0  0  0  0  0  0  0  0  0
   -8.5860   19.9440  -30.9530 F   0  0  0  0  0  0  0  0  0  0  0  0
  -10.1920   21.3930  -31.4740 F   0  0  0  0  0  0  0  0  0  0  0  0
   -9.7910   19.7240  -32.8800 F   0  0  0  0  0  0  0  0  0  0  0  0
   -4.6110   18.5670  -33.2820 C   0  0  0  0  0  0  0  0  0  0  0  0
   -6.6375   17.9010  -31.2355 H   0  0  0  0  0  0  0  0  0  0  0  0
   -7.1309   18.9715  -32.5908 H   0  0  0  0  0  0  0  0  0  0  0  0
   -7.6146   17.2416  -32.5908 H   0  0  0  0  0  0  0  0  0  0  0  0
   -6.0766   15.5374  -33.3412 H   0  0  0  0  0  0  0  0  0  0  0  0
   -4.3020   12.1579  -36.1259 H   0  0  0  0  0  0  0  0  0  0  0  0
   -4.6893   13.3172  -37.4422 H   0  0  0  0  0  0  0  0  0  0  0  0
   -3.1154   12.4514  -37.4422 H   0  0  0  0  0  0  0  0  0  0  0  0
   -1.5026   13.7305  -34.2327 H   0  0  0  0  0  0  0  0  0  0  0  0
   -1.3165   12.7364  -35.7173 H   0  0  0  0  0  0  0  0  0  0  0  0
   -0.7987   14.4565  -35.7173 H   0  0  0  0  0  0  0  0  0  0  0  0
   -2.2866   16.7051  -34.9630 H   0  0  0  0  0  0  0  0  0  0  0  0
   -1.6270   18.9140  -34.7130 H   0  0  0  0  0  0  0  0  0  0  0  0
   -1.9362   21.2034  -33.9420 H   0  0  0  0  0  0  0  0  0  0  0  0
   -4.1222   21.8044  -30.8121 H   0  0  0  0  0  0  0  0  0  0  0  0
   -4.3440   22.9920  -28.1020 H   0  0  0  0  0  0  0  0  0  0  0  0
   -4.0292   24.7370  -26.0179 H   0  0  0  0  0  0  0  0  0  0  0  0
   -2.1825   25.9990  -24.9208 H   0  0  0  0  0  0  0  0  0  0  0  0
    0.2212   25.7817  -28.4711 H   0  0  0  0  0  0  0  0  0  0  0  0
   -1.6051   24.5193  -29.5881 H   0  0  0  0  0  0  0  0  0  0  0  0
   -6.8582   25.0882  -30.5144 H   0  0  0  0  0  0  0  0  0  0  0  0
   -8.5920   23.8402  -31.7916 H   0  0  0  0  0  0  0  0  0  0  0  0
  1  2  1  0
  2  3  2  0
  3  4  1  0
  4  5  1  0
  5  6  2  0
  6  7  1  0
  6  8  1  0
  6  9  2  0
  4 10  2  0
 10 11  1  0
 11 12  1  0
 12 13  1  0
 13 14  2  0
 14 15  1  0
 15 16  2  0
 16 17  1  0
 17 18  2  0
 18 19  1  0
 19 20  1  0
 20 21  2  0
 20 22  1  0
 22 23  1  0
 23 24  2  0
 24 25  1  0
 25 26  2  0
 26 27  1  0
 27 28  1  0
 27 29  1  0
 27 30  1  0
 26 31  1  0
 31 32  2  0
 19 33  2  0
 33 34  1  0
 34 35  2  0
 35 36  1  0
 36 37  1  0
 37 38  1  0
 37 39  1  0
 37 40  1  0
 15 41  1  0
 41  2  1  0
 41 11  2  0
 35 17  1  0
 32 23  1  0
  1 42  1  0
  1 43  1  0
  1 44  1  0
  3 45  1  0
  7 46  1  0
  7 47  1  0
  7 48  1  0
  8 49  1  0
  8 50  1  0
  8 51  1  0
 10 52  1  0
 12 53  1  0
 13 54  1  0
 18 55  1  0
 22 56  1  0
 24 57  1  0
 25 58  1  0
 31 59  1  0
 32 60  1  0
 33 61  1  0
 34 62  1  0
M  END
>  <smiles>  (19) 
Cc1cc(N=S(C)(C)=O)cc2[nH]cnc(=Nc3cc(C(=O)Nc4ccc(C(F)(F)F)cc4)ccc3OC(F)(F)F)c12

>  <score_type>  (19) 
oracle

>  <origin>  (19) 
adgpu

>  <m_score__min__energy>  (19) 
-9.9900000000000002

>  <m_primary>  (19) 
energy

$$$$
19:0
     RDKit          3D

 54 57  0  0  0  0  0  0  0  0999 V2000
    0.3510   17.4040  -28.2750 C   0  0  0  0  0  0  0  0  0  0  0  0
   -0.5610   18.4720  -27.7250 C   0  0  0  0  0  0  0  0  0  0  0  0
   -1.4990   18.1230  -26.7370 C   0  0  0  0  0  0  0  0  0  0  0  0
   -2.3640   19.0800  -26.2100 C   0  0  0  0  0  0  0  0  0  0  0  0
   -2.3120   20.3960  -26.6630 C   0  0  0  0  0  0  0  0  0  0  0  0
   -1.3810   20.7740  -27.6400 C   0  0  0  0  0  0  0  0  0  0  0  0
   -1.3680   22.1410  -28.0960 N   0  0  0  0  0  0  0  0  0  0  0  0
   -0.2740   22.9290  -27.8580 C   0  0  0  0  0  0  0  0  0  0  0  0
    0.7300   22.4680  -27.2480 O   0  0  0  0  0  0  0  0  0  0  0  0
   -0.2580   24.2200  -28.2730 N   0  0  0  0  0  0  0  0  0  0  0  0
   -1.3050   24.7600  -28.9410 C   0  0  0  0  0  0  0  0  0  0  0  0
   -1.2390   26.0860  -29.3540 O   0  0  0  0  0  0  0  0  0  0  0  0
   -2.4300   23.9810  -29.2270 C   0  0  0  0  0  0  0  0  0  0  0  0
   -3.5730   24.5780  -29.9540 C   0  0  0  0  0  0  0  0  0  0  0  0
   -4.2510   23.9640  -30.8810 N   0  0  0  0  0  0  0  0  0  0  0  0
   -3.9540   22.6920  -31.4800 C   0  0  0  0  0  0  0  0  0  0  0  0
   -4.8650   21.8530  -32.0960 C   0  0  0  0  0  0  0  0  0  0  0  0
   -6.3470   22.0700  -32.1670 C   0  0  0  0  0  0  0  0  0  0  0  0
   -4.1880   20.8520  -32.7130 N   0  0  0  0  0  0  0  0  0  0  0  0
   -4.7850   19.7830  -33.5150 C   0  0  0  0  0  0  0  0  0  0  0  0
   -2.8830   21.0210  -32.4970 N   0  0  0  0  0  0  0  0  0  0  0  0
   -1.8310   20.1540  -32.9630 C   0  0  0  0  0  0  0  0  0  0  0  0
   -1.2690   20.3430  -34.2360 C   0  0  0  0  0  0  0  0  0  0  0  0
   -0.2290   19.5190  -34.6790 C   0  0  0  0  0  0  0  0  0  0  0  0
    0.2610   18.5050  -33.8500 C   0  0  0  0  0  0  0  0  0  0  0  0
   -0.2890   18.3140  -32.5790 C   0  0  0  0  0  0  0  0  0  0  0  0
   -1.3300   19.1350  -32.1360 C   0  0  0  0  0  0  0  0  0  0  0  0
   -2.7170   22.1500  -31.7770 C   0  0  0  0  0  0  0  0  0  0  0  0
   -1.5990   22.6400  -31.4700 O   0  0  0  0  0  0  0  0  0  0  0  0
   -2.4540   22.6550  -28.7550 C   0  0  0  0  0  0  0  0  0  0  0  0
   -3.4840   21.9450  -28.9260 O   0  0  0  0  0  0  0  0  0  0  0  0
   -0.4740   19.8190  -28.1600 C   0  0  0  0  0  0  0  0  0  0  0  0
    0.5260   20.2220  -29.2190 C   0  0  0  0  0  0  0  0  0  0  0  0
    0.8183   16.8568  -27.4430 H   0  0  0  0  0  0  0  0  0  0  0  0
   -0.2331   16.7049  -28.8915 H   0  0  0  0  0  0  0  0  0  0  0  0
    1.1329   17.8714  -28.8915 H   0  0  0  0  0  0  0  0  0  0  0  0
   -1.5503   17.0849  -26.3769 H   0  0  0  0  0  0  0  0  0  0  0  0
   -3.0899   18.7953  -25.4341 H   0  0  0  0  0  0  0  0  0  0  0  0
   -3.0061   21.1435  -26.2513 H   0  0  0  0  0  0  0  0  0  0  0  0
   -3.8684   25.6054  -29.6948 H   0  0  0  0  0  0  0  0  0  0  0  0
   -6.7580   22.1302  -31.1484 H   0  0  0  0  0  0  0  0  0  0  0  0
   -6.5550   23.0082  -32.7023 H   0  0  0  0  0  0  0  0  0  0  0  0
   -6.8152   21.2308  -32.7023 H   0  0  0  0  0  0  0  0  0  0  0  0
   -5.2116   19.0191  -32.8484 H   0  0  0  0  0  0  0  0  0  0  0  0
   -5.5802   20.2012  -34.1497 H   0  0  0  0  0  0  0  0  0  0  0  0
   -4.0119   19.3253  -34.1497 H   0  0  0  0  0  0  0  0  0  0  0  0
   -1.6486   21.1433  -34.8883 H   0  0  0  0  0  0  0  0  0  0  0  0
    0.2033   19.6687  -35.6794 H   0  0  0  0  0  0  0  0  0  0  0  0
    1.0793   17.8575  -34.1980 H   0  0  0  0  0  0  0  0  0  0  0  0
    0.0978   17.5170  -31.9270 H   0  0  0  0  0  0  0  0  0  0  0  0
   -1.7591   18.9823  -31.1347 H   0  0  0  0  0  0  0  0  0  0  0  0
    1.4427   20.5914  -28.7361 H   0  0  0  0  0  0  0  0  0  0  0  0
    0.7673   19.3509  -29.8459 H   0  0  0  0  0  0  0  0  0  0  0  0
    0.0959   21.0170  -29.8459 H   0  0  0  0  0  0  0  0  0  0  0  0
  1  2  1  0
  2  3  2  0
  3  4  1  0
  4  5  2  0
  5  6  1  0
  6  7  1  0
  7  8  1  0
  8  9  2  0
  8 10  1  0
 10 11  1  0
 11 12  1  0
 11 13  2  0
 13 14  1  0
 14 15  2  3
 15 16  1  0
 16 17  2  0
 17 18  1  0
 17 19  1  0
 19 20  1  0
 19 21  1  0
 21 22  1  0
 22 23  2  0
 23 24  1  0
 24 25  2  0
 25 26  1  0
 26 27  2  0
 21 28  1  0
 28 29  2  0
 13 30  1  0
 30 31  2  0
  6 32  2  0
 32 33  1  0
 32  2  1  0
 30  7  1  0
 28 16  1  0
 27 22  1  0
  1 34  1  0
  1 35  1  0
  1 36  1  0
  3 37  1  0
  4 38  1  0
  5 39  1  0
 14 40  1  0
 18 41  1  0
 18 42  1  0
 18 43  1  0
 20 44  1  0
 20 45  1  0
 20 46  1  0
 23 47  1  0
 24 48  1  0
 25 49  1  0
 26 50  1  0
 27 51  1  0
 33 52  1  0
 33 53  1  0
 33 54  1  0
M  CHG  2  10  -1  12  -1
M  END
>  <UniqueID>  (20) 
19

>  <SMILES>  (20) 
Cc1cccc(-n2c(=O)[n-]c([O-])c(C=Nc3c(C)n(C)n(-c4ccccc4)c3=O)c2=O)c1C

>  <Energy>  (20) 
120.95140348221749

>  <Genealogy>  (20) 
Cc1cccc(-n2c(=O)[n-]c([O-])c(C=Nc3c(C)n(C)n(-c4ccccc4)c3=O)c2=O)c1C (protonated)
Cc1cccc(-n2c(=O)[n-]c([O-])c(C=Nc3c(C)n(C)n(-c4ccccc4)c3=O)c2=O)c1C (3D coordinates assigned)
Cc1cccc(-n2c(=O)[n-]c([O-])c(C=Nc3c(C)n(C)n(-c4ccccc4)c3=O)c2=O)c1C (optimized conformer: 120.95140348221749 kcal/mol)

>  <smiles>  (20) 
Cc1cccc(-n2c(=O)[nH]c(O)c(C=Nc3c(C)n(C)n(-c4ccccc4)c3=O)c2=O)c1C

>  <score_type>  (20) 
oracle

>  <origin>  (20) 
adgpu

>  <m_score__min__energy>  (20) 
-12.98

>  <m_primary>  (20) 
energy

$$$$
20:0
     RDKit          3D

 31 32  0  0  0  0  0  0  0  0999 V2000
   -4.2410   25.6780  -30.4750 N   0  0  0  0  0  0  0  0  0  0  0  0
   -4.9730   24.1330  -30.7220 S   0  0  0  0  0  0  0  0  0  0  0  0
   -6.1300   24.2700  -31.6720 O   0  0  0  0  0  0  0  0  0  0  0  0
   -5.4850   23.6040  -29.4110 O   0  0  0  0  0  0  0  0  0  0  0  0
   -3.7810   23.0220  -31.3890 C   0  0  0  0  0  0  0  0  0  0  0  0
   -4.0450   22.3390  -32.5820 C   0  0  0  0  0  0  0  0  0  0  0  0
   -3.0940   21.4640  -33.1170 C   0  0  0  0  0  0  0  0  0  0  0  0
   -1.8610   21.2770  -32.4760 C   0  0  0  0  0  0  0  0  0  0  0  0
   -0.9090   20.3580  -33.0370 N   0  0  0  0  0  0  0  0  0  0  0  0
   -1.2590   19.2590  -33.8940 C   0  0  0  0  0  0  0  0  0  0  0  0
   -2.4660   18.9550  -34.0890 O   0  0  0  0  0  0  0  0  0  0  0  0
   -0.1840   18.4180  -34.5080 C   0  0  0  0  0  0  0  0  0  0  0  0
    1.4640   18.9320  -33.9110 S   0  0  0  0  0  0  0  0  0  0  0  0
    1.5020   20.4630  -34.8520 C   0  0  0  0  0  0  0  0  0  0  0  0
    0.9910   21.5980  -34.3120 N   0  0  0  0  0  0  0  0  0  0  0  0
    1.0080   22.7500  -34.9840 N   0  0  0  0  0  0  0  0  0  0  0  0
    1.5420   22.8200  -36.2300 C   0  0  0  0  0  0  0  0  0  0  0  0
    1.5490   23.9130  -36.8540 O   0  0  0  0  0  0  0  0  0  0  0  0
    2.0690   21.7070  -36.7980 N   0  0  0  0  0  0  0  0  0  0  0  0
    2.0630   20.5240  -36.1320 C   0  0  0  0  0  0  0  0  0  0  0  0
    2.5620   19.5000  -36.6700 O   0  0  0  0  0  0  0  0  0  0  0  0
   -1.6050   21.9540  -31.2710 C   0  0  0  0  0  0  0  0  0  0  0  0
   -2.5570   22.8270  -30.7360 C   0  0  0  0  0  0  0  0  0  0  0  0
   -3.4950   25.7820  -31.2000 H   0  0  0  0  0  0  0  0  0  0  0  0
   -5.0033   22.4909  -33.1003 H   0  0  0  0  0  0  0  0  0  0  0  0
   -3.3148   20.9190  -34.0466 H   0  0  0  0  0  0  0  0  0  0  0  0
    0.0850   20.4240  -32.7160 H   0  0  0  0  0  0  0  0  0  0  0  0
   -0.3525   17.3648  -34.2389 H   0  0  0  0  0  0  0  0  0  0  0  0
   -0.2182   18.5450  -35.6001 H   0  0  0  0  0  0  0  0  0  0  0  0
   -0.6511   21.7962  -30.7465 H   0  0  0  0  0  0  0  0  0  0  0  0
   -2.3442   23.3626  -29.7991 H   0  0  0  0  0  0  0  0  0  0  0  0
  1  2  1  0
  2  3  2  0
  2  4  2  0
  2  5  1  0
  5  6  2  0
  6  7  1  0
  7  8  2  0
  8  9  1  0
  9 10  1  0
 10 11  2  0
 10 12  1  0
 12 13  1  0
 13 14  1  0
 14 15  2  0
 15 16  1  0
 16 17  1  0
 17 18  2  0
 17 19  1  0
 19 20  1  0
 20 21  2  0
  8 22  1  0
 22 23  2  0
 23  5  1  0
 20 14  1  0
  1 24  1  0
  6 25  1  0
  7 26  1  0
  9 27  1  0
 12 28  1  0
 12 29  1  0
 22 30  1  0
 23 31  1  0
M  CHG  3   1  -1  16  -1  19  -1
M  END
>  <UniqueID>  (21) 
20

>  <SMILES>  (21) 
[NH-]S(=O)(=O)c1ccc(NC(=O)CSc2n[n-]c(=O)[n-]c2=O)cc1

>  <Energy>  (21) 
32.51170216718493

>  <Genealogy>  (21) 
[NH-]S(=O)(=O)c1ccc(NC(=O)CSc2n[n-]c(=O)[n-]c2=O)cc1 (protonated)
[NH-]S(=O)(=O)c1ccc(NC(=O)CSc2n[n-]c(=O)[n-]c2=O)cc1 (3D coordinates assigned)
[NH-]S(=O)(=O)c1ccc(NC(=O)CSc2n[n-]c(=O)[n-]c2=O)cc1 (optimized conformer: 32.51170216718493 kcal/mol)

>  <smiles>  (21) 
NS(=O)(=O)c1ccc(NC(=O)CSc2n[nH]c(=O)[nH]c2=O)cc1

>  <score_type>  (21) 
oracle

>  <origin>  (21) 
adgpu

>  <m_score__min__energy>  (21) 
-9.8599999999999994

>  <m_primary>  (21) 
energy

$$$$
21:0
     RDKit          3D

 63 66  0  0  0  0  0  0  0  0999 V2000
   -6.9300   23.9810  -31.1430 C   0  0  0  0  0  0  0  0  0  0  0  0
   -6.9600   24.3460  -29.7830 O   0  0  0  0  0  0  0  0  0  0  0  0
   -6.0990   25.4450  -29.5700 C   0  0  0  0  0  0  0  0  0  0  0  0
   -5.3080   25.7040  -30.8480 C   0  0  0  0  0  0  0  0  0  0  0  0
   -3.9400   25.3350  -30.6690 O   0  0  0  0  0  0  0  0  0  0  0  0
   -3.4840   24.2150  -29.9550 C   0  0  0  0  0  0  0  0  0  0  0  0
   -4.0840   22.9470  -30.0760 C   0  0  0  0  0  0  0  0  0  0  0  0
   -3.6270   21.8720  -29.3090 C   0  0  0  0  0  0  0  0  0  0  0  0
   -2.5440   22.0340  -28.4380 C   0  0  0  0  0  0  0  0  0  0  0  0
   -2.1140   20.9350  -27.6210 N   0  0  0  0  0  0  0  0  0  0  0  0
   -1.1420   19.9920  -28.0800 C   0  0  0  0  0  0  0  0  0  0  0  0
   -0.8200   18.9210  -27.3120 N   0  0  0  0  0  0  0  0  0  0  0  0
    0.1580   18.0690  -27.7120 C   0  0  0  0  0  0  0  0  0  0  0  0
    0.8050   18.2810  -28.8860 N   0  0  0  0  0  0  0  0  0  0  0  0
    0.4660   19.3380  -29.6660 C   0  0  0  0  0  0  0  0  0  0  0  0
    1.2570   19.5690  -31.2530 S   0  0  0  0  0  0  0  0  0  0  0  0
   -0.2670   19.3820  -32.1770 C   0  0  0  0  0  0  0  0  0  0  0  0
   -0.6790   18.1030  -32.5740 C   0  0  0  0  0  0  0  0  0  0  0  0
   -1.8310   17.9450  -33.3470 C   0  0  0  0  0  0  0  0  0  0  0  0
   -2.5720   19.0680  -33.7420 C   0  0  0  0  0  0  0  0  0  0  0  0
   -3.7480   18.9190  -34.5430 N   0  0  0  0  0  0  0  0  0  0  0  0
   -5.0050   18.4330  -34.0540 C   0  0  0  0  0  0  0  0  0  0  0  0
   -5.7570   17.7980  -34.8390 O   0  0  0  0  0  0  0  0  0  0  0  0
   -5.3720   18.5310  -32.5950 C   0  0  0  0  0  0  0  0  0  0  0  0
   -6.7170   19.1810  -32.3930 C   0  0  0  0  0  0  0  0  0  0  0  0
   -7.8540   18.3910  -32.1530 C   0  0  0  0  0  0  0  0  0  0  0  0
   -9.0990   18.9930  -31.9410 C   0  0  0  0  0  0  0  0  0  0  0  0
   -9.2180   20.3860  -31.9680 C   0  0  0  0  0  0  0  0  0  0  0  0
   -8.0930   21.1790  -32.2070 C   0  0  0  0  0  0  0  0  0  0  0  0
   -6.8460   20.5820  -32.4180 C   0  0  0  0  0  0  0  0  0  0  0  0
   -2.1860   20.3420  -33.3060 C   0  0  0  0  0  0  0  0  0  0  0  0
   -1.0290   20.5010  -32.5360 C   0  0  0  0  0  0  0  0  0  0  0  0
   -0.5060   20.1940  -29.2620 N   0  0  0  0  0  0  0  0  0  0  0  0
   -1.9320   23.2940  -28.3280 C   0  0  0  0  0  0  0  0  0  0  0  0
   -2.4060   24.3900  -29.0750 C   0  0  0  0  0  0  0  0  0  0  0  0
   -1.8330   25.6680  -28.9680 O   0  0  0  0  0  0  0  0  0  0  0  0
   -1.0310   26.1020  -27.8750 C   0  0  0  0  0  0  0  0  0  0  0  0
   -6.8402   22.8879  -31.2274 H   0  0  0  0  0  0  0  0  0  0  0  0
   -7.8583   24.3114  -31.6319 H   0  0  0  0  0  0  0  0  0  0  0  0
   -6.0681   24.4586  -31.6319 H   0  0  0  0  0  0  0  0  0  0  0  0
   -6.6923   26.3356  -29.3154 H   0  0  0  0  0  0  0  0  0  0  0  0
   -5.4095   25.2248  -28.7416 H   0  0  0  0  0  0  0  0  0  0  0  0
   -5.7393   25.1109  -31.6679 H   0  0  0  0  0  0  0  0  0  0  0  0
   -5.3603   26.7759  -31.0895 H   0  0  0  0  0  0  0  0  0  0  0  0
   -4.9177   22.8017  -30.7787 H   0  0  0  0  0  0  0  0  0  0  0  0
   -4.1215   20.8928  -29.3905 H   0  0  0  0  0  0  0  0  0  0  0  0
   -2.4680   20.8550  -26.6420 H   0  0  0  0  0  0  0  0  0  0  0  0
    0.4263   17.2064  -27.0844 H   0  0  0  0  0  0  0  0  0  0  0  0
   -0.0933   17.2209  -32.2759 H   0  0  0  0  0  0  0  0  0  0  0  0
   -2.1577   16.9382  -33.6465 H   0  0  0  0  0  0  0  0  0  0  0  0
   -5.3993   17.5181  -32.1669 H   0  0  0  0  0  0  0  0  0  0  0  0
   -4.6154   19.1540  -32.0956 H   0  0  0  0  0  0  0  0  0  0  0  0
   -7.7648   17.2948  -32.1317 H   0  0  0  0  0  0  0  0  0  0  0  0
   -9.9855   18.3696  -31.7528 H   0  0  0  0  0  0  0  0  0  0  0  0
  -10.1977   20.8575  -31.8010 H   0  0  0  0  0  0  0  0  0  0  0  0
   -8.1881   22.2747  -32.2293 H   0  0  0  0  0  0  0  0  0  0  0  0
   -5.9624   21.2102  -32.6043 H   0  0  0  0  0  0  0  0  0  0  0  0
   -2.7943   21.2197  -33.5698 H   0  0  0  0  0  0  0  0  0  0  0  0
   -0.7176   21.5051  -32.2124 H   0  0  0  0  0  0  0  0  0  0  0  0
   -1.0744   23.4258  -27.6519 H   0  0  0  0  0  0  0  0  0  0  0  0
   -1.5248   25.8348  -26.9291 H   0  0  0  0  0  0  0  0  0  0  0  0
   -0.0468   25.6134  -27.9256 H   0  0  0  0  0  0  0  0  0  0  0  0
   -0.9017   27.1932  -27.9256 H   0  0  0  0  0  0  0  0  0  0  0  0
  1  2  1  0
  2  3  1  0
  3  4  1  0
  4  5  1  0
  5  6  1  0
  6  7  2  0
  7  8  1  0
  8  9  2  0
  9 10  1  0
 10 11  1  0
 11 12  2  0
 12 13  1  0
 13 14  2  0
 14 15  1  0
 15 16  1  0
 16 17  1  0
 17 18  2  0
 18 19  1  0
 19 20  2  0
 20 21  1  0
 21 22  1  0
 22 23  2  0
 22 24  1  0
 24 25  1  0
 25 26  2  0
 26 27  1  0
 27 28  2  0
 28 29  1  0
 29 30  2  0
 20 31  1  0
 31 32  2  0
 15 33  2  0
  9 34  1  0
 34 35  2  0
 35 36  1  0
 36 37  1  0
 35  6  1  0
 33 11  1  0
 32 17  1  0
 30 25  1  0
  1 38  1  0
  1 39  1  0
  1 40  1  0
  3 41  1  0
  3 42  1  0
  4 43  1  0
  4 44  1  0
  7 45  1  0
  8 46  1  0
 10 47  1  0
 13 48  1  0
 18 49  1  0
 19 50  1  0
 24 51  1  0
 24 52  1  0
 26 53  1  0
 27 54  1  0
 28 55  1  0
 29 56  1  0
 30 57  1  0
 31 58  1  0
 32 59  1  0
 34 60  1  0
 37 61  1  0
 37 62  1  0
 37 63  1  0
M  CHG  1  21  -1
M  END
>  <UniqueID>  (22) 
21

>  <SMILES>  (22) 
COCCOc1ccc(Nc2ncnc(Sc3ccc([N-]C(=O)Cc4ccccc4)cc3)n2)cc1OC

>  <Energy>  (22) 
70.03908199077016

>  <Genealogy>  (22) 
COCCOc1ccc(Nc2ncnc(Sc3ccc([N-]C(=O)Cc4ccccc4)cc3)n2)cc1OC (protonated)
COCCOc1ccc(Nc2ncnc(Sc3ccc([N-]C(=O)Cc4ccccc4)cc3)n2)cc1OC (3D coordinates assigned)
COCCOc1ccc(Nc2ncnc(Sc3ccc([N-]C(=O)Cc4ccccc4)cc3)n2)cc1OC (optimized conformer: 70.03908199077016 kcal/mol)

>  <smiles>  (22) 
COCCOc1ccc(Nc2ncnc(Sc3ccc(NC(=O)Cc4ccccc4)cc3)n2)cc1OC

>  <score_type>  (22) 
oracle

>  <origin>  (22) 
adgpu

>  <m_score__min__energy>  (22) 
-12.06

>  <m_primary>  (22) 
energy

$$$$
22:0
     RDKit          3D

 39 41  0  0  0  0  0  0  0  0999 V2000
   -1.2090   27.4640  -24.2100 N   0  0  0  0  0  0  0  0  0  0  0  0
   -1.3930   26.6070  -25.3440 C   0  0  0  0  0  0  0  0  0  0  0  0
   -2.5190   25.7690  -25.4040 C   0  0  0  0  0  0  0  0  0  0  0  0
   -2.7310   24.9410  -26.5080 C   0  0  0  0  0  0  0  0  0  0  0  0
   -1.8190   24.9430  -27.5710 C   0  0  0  0  0  0  0  0  0  0  0  0
   -2.1270   23.9980  -29.0240 S   0  0  0  0  0  0  0  0  0  0  0  0
   -2.7430   22.6650  -28.6860 O   0  0  0  0  0  0  0  0  0  0  0  0
   -0.8230   23.7560  -29.7360 O   0  0  0  0  0  0  0  0  0  0  0  0
   -3.1820   24.9200  -30.0540 N   0  0  0  0  0  0  0  0  0  0  0  0
   -4.5080   24.5050  -30.4070 C   0  0  0  0  0  0  0  0  0  0  0  0
   -5.5960   25.1600  -29.8270 C   0  0  0  0  0  0  0  0  0  0  0  0
   -6.9020   24.7330  -30.0800 C   0  0  0  0  0  0  0  0  0  0  0  0
   -7.1300   23.6660  -30.9470 C   0  0  0  0  0  0  0  0  0  0  0  0
   -6.0500   23.0500  -31.6070 C   0  0  0  0  0  0  0  0  0  0  0  0
   -6.2330   22.0080  -32.5290 O   0  0  0  0  0  0  0  0  0  0  0  0
   -6.9860   20.8370  -32.3160 C   0  0  0  0  0  0  0  0  0  0  0  0
   -6.3420   19.5990  -32.4570 C   0  0  0  0  0  0  0  0  0  0  0  0
   -7.0580   18.4100  -32.2980 C   0  0  0  0  0  0  0  0  0  0  0  0
   -8.4210   18.4490  -31.9930 C   0  0  0  0  0  0  0  0  0  0  0  0
   -9.0740   19.6750  -31.8470 C   0  0  0  0  0  0  0  0  0  0  0  0
   -8.3680   20.8640  -32.0190 C   0  0  0  0  0  0  0  0  0  0  0  0
   -4.7430   23.4530  -31.3070 C   0  0  0  0  0  0  0  0  0  0  0  0
   -0.6860   25.7640  -27.5130 C   0  0  0  0  0  0  0  0  0  0  0  0
   -0.4660   26.5960  -26.4080 C   0  0  0  0  0  0  0  0  0  0  0  0
    0.9840   27.6000  -26.3870 Cl  0  0  0  0  0  0  0  0  0  0  0  0
   -0.3070   27.9800  -24.0720 H   0  0  0  0  0  0  0  0  0  0  0  0
   -1.9480   27.5780  -23.4810 H   0  0  0  0  0  0  0  0  0  0  0  0
   -3.2403   25.7652  -24.5735 H   0  0  0  0  0  0  0  0  0  0  0  0
   -3.6146   24.2868  -26.5430 H   0  0  0  0  0  0  0  0  0  0  0  0
   -5.4233   26.0208  -29.1643 H   0  0  0  0  0  0  0  0  0  0  0  0
   -7.7499   25.2388  -29.5951 H   0  0  0  0  0  0  0  0  0  0  0  0
   -8.1552   23.3047  -31.1158 H   0  0  0  0  0  0  0  0  0  0  0  0
   -5.2684   19.5641  -32.6938 H   0  0  0  0  0  0  0  0  0  0  0  0
   -6.5482   17.4421  -32.4130 H   0  0  0  0  0  0  0  0  0  0  0  0
   -8.9817   17.5110  -31.8674 H   0  0  0  0  0  0  0  0  0  0  0  0
  -10.1447   19.7019  -31.5964 H   0  0  0  0  0  0  0  0  0  0  0  0
   -8.8885   21.8283  -31.9232 H   0  0  0  0  0  0  0  0  0  0  0  0
   -3.8925   22.9408  -31.7807 H   0  0  0  0  0  0  0  0  0  0  0  0
    0.0370   25.7554  -28.3420 H   0  0  0  0  0  0  0  0  0  0  0  0
  1  2  1  0
  2  3  2  0
  3  4  1  0
  4  5  2  0
  5  6  1  0
  6  7  2  0
  6  8  2  0
  6  9  1  0
  9 10  1  0
 10 11  2  0
 11 12  1  0
 12 13  2  0
 13 14  1  0
 14 15  1  0
 15 16  1  0
 16 17  2  0
 17 18  1  0
 18 19  2  0
 19 20  1  0
 20 21  2  0
 14 22  2  0
  5 23  1  0
 23 24  2  0
 24 25  1  0
 24  2  1  0
 22 10  1  0
 21 16  1  0
  1 26  1  0
  1 27  1  0
  3 28  1  0
  4 29  1  0
 11 30  1  0
 12 31  1  0
 13 32  1  0
 17 33  1  0
 18 34  1  0
 19 35  1  0
 20 36  1  0
 21 37  1  0
 22 38  1  0
 23 39  1  0
M  CHG  1   9  -1
M  END
>  <UniqueID>  (23) 
22

>  <SMILES>  (23) 
Nc1ccc(S(=O)(=O)[N-]c2cccc(Oc3ccccc3)c2)cc1Cl

>  <Energy>  (23) 
55.258503321406025

>  <Genealogy>  (23) 
Nc1ccc(S(=O)(=O)[N-]c2cccc(Oc3ccccc3)c2)cc1Cl (protonated)
Nc1ccc(S(=O)(=O)[N-]c2cccc(Oc3ccccc3)c2)cc1Cl (3D coordinates assigned)
Nc1ccc(S(=O)(=O)[N-]c2cccc(Oc3ccccc3)c2)cc1Cl (optimized conformer: 55.258503321406025 kcal/mol)

>  <smiles>  (23) 
Nc1ccc(S(=O)(=O)Nc2cccc(Oc3ccccc3)c2)cc1Cl

>  <score_type>  (23) 
oracle

>  <origin>  (23) 
adgpu

>  <m_score__min__energy>  (23) 
-10.220000000000001

>  <m_primary>  (23) 
energy

$$$$
23:0
     RDKit          3D

 30 32  0  0  0  0  0  0  0  0999 V2000
   -6.8630   24.6640  -30.2630 C   0  0  0  0  0  0  0  0  0  0  0  0
   -5.9990   23.7390  -31.0640 C   0  0  0  0  0  0  0  0  0  0  0  0
   -4.6700   23.9430  -31.2080 N   0  0  0  0  0  0  0  0  0  0  0  0
   -4.1940   22.9800  -31.9870 N   0  0  0  0  0  0  0  0  0  0  0  0
   -5.2500   22.2140  -32.3040 C   0  0  0  0  0  0  0  0  0  0  0  0
   -5.2030   21.1160  -33.0920 N   0  0  0  0  0  0  0  0  0  0  0  0
   -6.3610   20.4410  -33.3350 C   0  0  0  0  0  0  0  0  0  0  0  0
   -6.3640   19.2520  -34.1380 N   0  0  0  0  0  0  0  0  0  0  0  0
   -5.8180   17.9900  -33.7160 C   0  0  0  0  0  0  0  0  0  0  0  0
   -5.9660   17.5320  -32.3940 C   0  0  0  0  0  0  0  0  0  0  0  0
   -5.4040   16.3120  -32.0030 C   0  0  0  0  0  0  0  0  0  0  0  0
   -4.6780   15.5490  -32.9210 C   0  0  0  0  0  0  0  0  0  0  0  0
   -4.1320   14.3680  -32.5390 F   0  0  0  0  0  0  0  0  0  0  0  0
   -4.5070   16.0080  -34.2290 C   0  0  0  0  0  0  0  0  0  0  0  0
   -5.0670   17.2270  -34.6230 C   0  0  0  0  0  0  0  0  0  0  0  0
   -7.5280   20.8670  -32.7660 N   0  0  0  0  0  0  0  0  0  0  0  0
   -7.5670   21.9750  -31.9730 C   0  0  0  0  0  0  0  0  0  0  0  0
   -8.8830   22.3770  -31.3740 C   0  0  0  0  0  0  0  0  0  0  0  0
   -9.4580   23.3960  -32.1100 F   0  0  0  0  0  0  0  0  0  0  0  0
   -9.7360   21.2940  -31.2950 F   0  0  0  0  0  0  0  0  0  0  0  0
   -6.3940   22.6430  -31.7550 N   0  0  0  0  0  0  0  0  0  0  0  0
   -6.6959   24.4851  -29.1906 H   0  0  0  0  0  0  0  0  0  0  0  0
   -6.6074   25.7061  -30.5051 H   0  0  0  0  0  0  0  0  0  0  0  0
   -7.9201   24.4800  -30.5051 H   0  0  0  0  0  0  0  0  0  0  0  0
   -6.8640   19.2900  -35.0540 H   0  0  0  0  0  0  0  0  0  0  0  0
   -6.5260   18.1358  -31.6647 H   0  0  0  0  0  0  0  0  0  0  0  0
   -5.5339   15.9530  -30.9714 H   0  0  0  0  0  0  0  0  0  0  0  0
   -3.9309   15.4096  -34.9502 H   0  0  0  0  0  0  0  0  0  0  0  0
   -4.9179   17.5902  -35.6505 H   0  0  0  0  0  0  0  0  0  0  0  0
   -8.7000   22.7446  -30.3535 H   0  0  0  0  0  0  0  0  0  0  0  0
  1  2  1  0
  2  3  2  0
  3  4  1  0
  4  5  2  0
  5  6  1  0
  6  7  2  0
  7  8  1  0
  8  9  1  0
  9 10  2  0
 10 11  1  0
 11 12  2  0
 12 13  1  0
 12 14  1  0
 14 15  2  0
  7 16  1  0
 16 17  2  0
 17 18  1  0
 18 19  1  0
 18 20  1  0
 17 21  1  0
 21  2  1  0
 21  5  1  0
 15  9  1  0
  1 22  1  0
  1 23  1  0
  1 24  1  0
  8 25  1  0
 10 26  1  0
 11 27  1  0
 14 28  1  0
 15 29  1  0
 18 30  1  0
M  END
>  <UniqueID>  (24) 
23

>  <SMILES>  (24) 
Cc1nnc2nc(Nc3ccc(F)cc3)nc(C(F)F)n12

>  <Energy>  (24) 
81.25593285515093

>  <Genealogy>  (24) 
Cc1nnc2nc(Nc3ccc(F)cc3)nc(C(F)F)n12 (3D coordinates assigned)
Cc1nnc2nc(Nc3ccc(F)cc3)nc(C(F)F)n12 (optimized conformer: 81.25593285515093 kcal/mol)

>  <smiles>  (24) 
Cc1nnc2nc(Nc3ccc(F)cc3)nc(C(F)F)n12

>  <score_type>  (24) 
oracle

>  <origin>  (24) 
adgpu

>  <m_score__min__energy>  (24) 
-6.7400000000000002

>  <m_primary>  (24) 
energy

$$$$
24:0
     RDKit          3D

 42 44  0  0  0  0  0  0  0  0999 V2000
   -2.3400   21.8220  -27.4850 C   0  0  0  0  0  0  0  0  0  0  0  0
   -3.0310   21.2920  -28.7400 C   0  0  0  0  0  0  0  0  0  0  0  0
   -3.0230   22.2750  -29.8350 N   0  0  0  0  0  0  0  0  0  0  0  0
   -2.7230   23.6920  -29.5800 C   0  0  0  0  0  0  0  0  0  0  0  0
   -3.9470   24.5380  -29.7410 C   0  0  0  0  0  0  0  0  0  0  0  0
   -4.9650   24.5340  -28.8550 N   0  0  0  0  0  0  0  0  0  0  0  0
   -5.8580   25.3840  -29.3910 C   0  0  0  0  0  0  0  0  0  0  0  0
   -5.3660   25.8690  -30.5790 C   0  0  0  0  0  0  0  0  0  0  0  0
   -4.1550   25.3340  -30.8090 N   0  0  0  0  0  0  0  0  0  0  0  0
   -2.8500   21.7800  -31.1730 C   0  0  0  0  0  0  0  0  0  0  0  0
   -1.5650   21.4160  -31.6080 C   0  0  0  0  0  0  0  0  0  0  0  0
   -1.3640   20.9510  -32.9090 C   0  0  0  0  0  0  0  0  0  0  0  0
   -2.4440   20.8410  -33.7850 C   0  0  0  0  0  0  0  0  0  0  0  0
   -3.7290   21.1850  -33.3600 C   0  0  0  0  0  0  0  0  0  0  0  0
   -3.9480   21.6510  -32.0530 C   0  0  0  0  0  0  0  0  0  0  0  0
   -5.5930   22.0450  -31.5360 S   0  0  0  0  0  0  0  0  0  0  0  0
   -5.6290   22.3070  -30.0560 O   0  0  0  0  0  0  0  0  0  0  0  0
   -6.0380   23.2910  -32.2470 O   0  0  0  0  0  0  0  0  0  0  0  0
   -6.6750   20.7020  -31.8880 C   0  0  0  0  0  0  0  0  0  0  0  0
   -8.0480   20.9390  -32.0400 C   0  0  0  0  0  0  0  0  0  0  0  0
   -8.9200   19.8770  -32.2960 C   0  0  0  0  0  0  0  0  0  0  0  0
   -8.4240   18.5750  -32.4070 C   0  0  0  0  0  0  0  0  0  0  0  0
   -7.0540   18.3350  -32.2660 C   0  0  0  0  0  0  0  0  0  0  0  0
   -6.1790   19.3950  -32.0110 C   0  0  0  0  0  0  0  0  0  0  0  0
   -2.8502   21.4307  -26.5925 H   0  0  0  0  0  0  0  0  0  0  0  0
   -1.2895   21.4958  -27.4794 H   0  0  0  0  0  0  0  0  0  0  0  0
   -2.3827   22.9212  -27.4794 H   0  0  0  0  0  0  0  0  0  0  0  0
   -2.5089   20.3837  -29.0753 H   0  0  0  0  0  0  0  0  0  0  0  0
   -4.0795   21.0792  -28.4843 H   0  0  0  0  0  0  0  0  0  0  0  0
   -2.3438   23.8000  -28.5531 H   0  0  0  0  0  0  0  0  0  0  0  0
   -1.9684   24.0263  -30.3072 H   0  0  0  0  0  0  0  0  0  0  0  0
   -6.8294   25.6495  -28.9484 H   0  0  0  0  0  0  0  0  0  0  0  0
   -5.8822   26.5827  -31.2379 H   0  0  0  0  0  0  0  0  0  0  0  0
   -0.7114   21.4978  -30.9191 H   0  0  0  0  0  0  0  0  0  0  0  0
   -0.3540   20.6714  -33.2433 H   0  0  0  0  0  0  0  0  0  0  0  0
   -2.2832   20.4826  -34.8125 H   0  0  0  0  0  0  0  0  0  0  0  0
   -4.5768   21.0903  -34.0545 H   0  0  0  0  0  0  0  0  0  0  0  0
   -8.4403   21.9633  -31.9576 H   0  0  0  0  0  0  0  0  0  0  0  0
   -9.9976   20.0661  -32.4102 H   0  0  0  0  0  0  0  0  0  0  0  0
   -9.1114   17.7394  -32.6052 H   0  0  0  0  0  0  0  0  0  0  0  0
   -6.6639   17.3104  -32.3558 H   0  0  0  0  0  0  0  0  0  0  0  0
   -5.1007   19.2044  -31.9067 H   0  0  0  0  0  0  0  0  0  0  0  0
  1  2  1  0
  2  3  1  0
  3  4  1  0
  4  5  1  0
  5  6  2  0
  6  7  1  0
  7  8  2  0
  8  9  1  0
  3 10  1  0
 10 11  2  0
 11 12  1  0
 12 13  2  0
 13 14  1  0
 14 15  2  0
 15 16  1  0
 16 17  2  0
 16 18  2  0
 16 19  1  0
 19 20  2  0
 20 21  1  0
 21 22  2  0
 22 23  1  0
 23 24  2  0
  9  5  1  0
 15 10  1  0
 24 19  1  0
  1 25  1  0
  1 26  1  0
  1 27  1  0
  2 28  1  0
  2 29  1  0
  4 30  1  0
  4 31  1  0
  7 32  1  0
  8 33  1  0
 11 34  1  0
 12 35  1  0
 13 36  1  0
 14 37  1  0
 20 38  1  0
 21 39  1  0
 22 40  1  0
 23 41  1  0
 24 42  1  0
M  CHG  1   9  -1
M  END
>  <UniqueID>  (25) 
24

>  <SMILES>  (25) 
CCN(Cc1ncc[n-]1)c1ccccc1S(=O)(=O)c1ccccc1

>  <Energy>  (25) 
73.65843756098374

>  <Genealogy>  (25) 
CCN(Cc1ncc[n-]1)c1ccccc1S(=O)(=O)c1ccccc1 (protonated)
CCN(Cc1ncc[n-]1)c1ccccc1S(=O)(=O)c1ccccc1 (3D coordinates assigned)
CCN(Cc1ncc[n-]1)c1ccccc1S(=O)(=O)c1ccccc1 (optimized conformer: 73.65843756098374 kcal/mol)

>  <smiles>  (25) 
CCN(Cc1ncc[nH]1)c1ccccc1S(=O)(=O)c1ccccc1

>  <score_type>  (25) 
oracle

>  <origin>  (25) 
adgpu

>  <m_score__min__energy>  (25) 
-9.0899999999999999

>  <m_primary>  (25) 
energy

$$$$
25:0
     RDKit          3D

 75 80  0  0  0  0  0  0  0  0999 V2000
   -4.7190   26.0490  -30.8320 O   0  0  0  0  0  0  0  0  0  0  0  0
   -4.2740   24.9310  -30.4640 C   0  0  0  0  0  0  0  0  0  0  0  0
   -4.9670   23.7420  -30.8670 N   0  0  0  0  0  0  0  0  0  0  0  0
   -4.3910   22.6260  -31.5600 C   0  0  0  0  0  0  0  0  0  0  0  0
   -5.1790   21.4930  -31.7860 C   0  0  0  0  0  0  0  0  0  0  0  0
   -4.6460   20.3780  -32.4390 C   0  0  0  0  0  0  0  0  0  0  0  0
   -3.3040   20.3710  -32.8640 C   0  0  0  0  0  0  0  0  0  0  0  0
   -2.7320   19.1780  -33.5370 C   0  0  0  0  0  0  0  0  0  0  0  0
   -1.5950   19.2830  -34.2730 N   0  0  0  0  0  0  0  0  0  0  0  0
   -1.0580   18.1930  -34.8820 C   0  0  0  0  0  0  0  0  0  0  0  0
    0.1560   18.3080  -35.6530 N   0  0  0  0  0  0  0  0  0  0  0  0
    0.7280   19.6350  -35.9240 C   0  0  0  0  0  0  0  0  0  0  0  0
    2.2260   19.5200  -36.2170 C   0  0  0  0  0  0  0  0  0  0  0  0
    2.4730   18.5460  -37.2120 O   0  0  0  0  0  0  0  0  0  0  0  0
    2.1170   17.2700  -36.7210 C   0  0  0  0  0  0  0  0  0  0  0  0
    0.6080   17.1820  -36.4820 C   0  0  0  0  0  0  0  0  0  0  0  0
   -1.6760   16.9900  -34.7500 N   0  0  0  0  0  0  0  0  0  0  0  0
   -2.8140   16.8660  -34.0200 C   0  0  0  0  0  0  0  0  0  0  0  0
   -3.4600   15.5820  -33.8710 N   0  0  0  0  0  0  0  0  0  0  0  0
   -2.6720   14.3350  -33.9070 C   0  0  0  0  0  0  0  0  0  0  0  0
   -2.7910   13.5930  -32.5780 C   0  0  0  0  0  0  0  0  0  0  0  0
   -4.5050   13.2390  -32.2430 S   0  0  0  0  0  0  0  0  0  0  0  0
   -4.7640   11.7650  -32.3920 O   0  0  0  0  0  0  0  0  0  0  0  0
   -4.8560   13.6730  -30.8490 O   0  0  0  0  0  0  0  0  0  0  0  0
   -5.4830   14.1430  -33.4270 C   0  0  0  0  0  0  0  0  0  0  0  0
   -4.9170   15.5550  -33.6190 C   0  0  0  0  0  0  0  0  0  0  0  0
   -3.3340   17.9670  -33.4150 N   0  0  0  0  0  0  0  0  0  0  0  0
   -2.5100   21.5080  -32.6190 C   0  0  0  0  0  0  0  0  0  0  0  0
   -3.0470   22.6210  -31.9680 C   0  0  0  0  0  0  0  0  0  0  0  0
   -3.0910   24.8850  -29.6560 N   0  0  0  0  0  0  0  0  0  0  0  0
   -2.4070   23.7010  -29.2210 C   0  0  0  0  0  0  0  0  0  0  0  0
   -3.1260   22.7260  -28.5210 C   0  0  0  0  0  0  0  0  0  0  0  0
   -2.4890   21.5690  -28.0630 C   0  0  0  0  0  0  0  0  0  0  0  0
   -1.1150   21.3780  -28.2850 C   0  0  0  0  0  0  0  0  0  0  0  0
   -0.4560   20.1850  -27.8150 N   0  0  0  0  0  0  0  0  0  0  0  0
    1.0030   20.0490  -27.8960 C   0  0  0  0  0  0  0  0  0  0  0  0
    1.3910   18.6840  -28.5020 C   0  0  0  0  0  0  0  0  0  0  0  0
    0.3460   17.6530  -28.3420 N   0  0  0  0  0  0  0  0  0  0  0  0
   -0.4100   17.8240  -27.0970 C   0  0  0  0  0  0  0  0  0  0  0  0
   -1.2330   19.1140  -27.1790 C   0  0  0  0  0  0  0  0  0  0  0  0
   -0.3940   22.3630  -28.9800 C   0  0  0  0  0  0  0  0  0  0  0  0
   -1.0310   23.5200  -29.4340 C   0  0  0  0  0  0  0  0  0  0  0  0
   -6.2255   21.4792  -31.4475 H   0  0  0  0  0  0  0  0  0  0  0  0
   -5.2806   19.4985  -32.6224 H   0  0  0  0  0  0  0  0  0  0  0  0
    0.2213   20.0774  -36.7944 H   0  0  0  0  0  0  0  0  0  0  0  0
    0.5852   20.2729  -35.0393 H   0  0  0  0  0  0  0  0  0  0  0  0
    2.6004   20.4938  -36.5656 H   0  0  0  0  0  0  0  0  0  0  0  0
    2.7421   19.2176  -35.2939 H   0  0  0  0  0  0  0  0  0  0  0  0
    2.4111   16.5059  -37.4556 H   0  0  0  0  0  0  0  0  0  0  0  0
    2.6359   17.1021  -35.7657 H   0  0  0  0  0  0  0  0  0  0  0  0
    0.0852   17.2109  -37.4494 H   0  0  0  0  0  0  0  0  0  0  0  0
    0.3829   16.2404  -35.9597 H   0  0  0  0  0  0  0  0  0  0  0  0
   -3.0478   13.6918  -34.7164 H   0  0  0  0  0  0  0  0  0  0  0  0
   -1.6154   14.5850  -34.0833 H   0  0  0  0  0  0  0  0  0  0  0  0
   -2.2264   12.6505  -32.6330 H   0  0  0  0  0  0  0  0  0  0  0  0
   -2.3829   14.2200  -31.7715 H   0  0  0  0  0  0  0  0  0  0  0  0
   -5.4682   13.6122  -34.3904 H   0  0  0  0  0  0  0  0  0  0  0  0
   -6.5150   14.2194  -33.0541 H   0  0  0  0  0  0  0  0  0  0  0  0
   -5.4264   16.0198  -34.4760 H   0  0  0  0  0  0  0  0  0  0  0  0
   -5.0912   16.1016  -32.6805 H   0  0  0  0  0  0  0  0  0  0  0  0
   -1.4588   21.5197  -32.9428 H   0  0  0  0  0  0  0  0  0  0  0  0
   -2.4135   23.4990  -31.7737 H   0  0  0  0  0  0  0  0  0  0  0  0
   -4.1995   22.8708  -28.3298 H   0  0  0  0  0  0  0  0  0  0  0  0
   -3.0673   20.8032  -27.5253 H   0  0  0  0  0  0  0  0  0  0  0  0
    1.4059   20.8529  -28.5295 H   0  0  0  0  0  0  0  0  0  0  0  0
    1.4213   20.1169  -26.8809 H   0  0  0  0  0  0  0  0  0  0  0  0
    1.5836   18.8215  -29.5762 H   0  0  0  0  0  0  0  0  0  0  0  0
    2.2816   18.3303  -27.9619 H   0  0  0  0  0  0  0  0  0  0  0  0
    0.8110   16.7160  -28.3140 H   0  0  0  0  0  0  0  0  0  0  0  0
   -1.0839   16.9663  -26.9553 H   0  0  0  0  0  0  0  0  0  0  0  0
    0.2864   17.8839  -26.2476 H   0  0  0  0  0  0  0  0  0  0  0  0
   -2.1410   18.9262  -27.7708 H   0  0  0  0  0  0  0  0  0  0  0  0
   -1.5006   19.4285  -26.1594 H   0  0  0  0  0  0  0  0  0  0  0  0
    0.6806   22.2220  -29.1681 H   0  0  0  0  0  0  0  0  0  0  0  0
   -0.4521   24.2929  -29.9608 H   0  0  0  0  0  0  0  0  0  0  0  0
  1  2  2  0
  2  3  1  0
  3  4  1  0
  4  5  2  0
  5  6  1  0
  6  7  2  0
  7  8  1  0
  8  9  2  0
  9 10  1  0
 10 11  1  0
 11 12  1  0
 12 13  1  0
 13 14  1  0
 14 15  1  0
 15 16  1  0
 10 17  2  0
 17 18  1  0
 18 19  1  0
 19 20  1  0
 20 21  1  0
 21 22  1  0
 22 23  2  0
 22 24  2  0
 22 25  1  0
 25 26  1  0
 18 27  2  0
  7 28  1  0
 28 29  2  0
  2 30  1  0
 30 31  1  0
 31 32  2  0
 32 33  1  0
 33 34  2  0
 34 35  1  0
 35 36  1  0
 36 37  1  0
 37 38  1  0
 38 39  1  0
 39 40  1  0
 34 41  1  0
 41 42  2  0
 29  4  1  0
 42 31  1  0
 27  8  1  0
 40 35  1  0
 16 11  1  0
 26 19  1  0
  5 43  1  0
  6 44  1  0
 12 45  1  0
 12 46  1  0
 13 47  1  0
 13 48  1  0
 15 49  1  0
 15 50  1  0
 16 51  1  0
 16 52  1  0
 20 53  1  0
 20 54  1  0
 21 55  1  0
 21 56  1  0
 25 57  1  0
 25 58  1  0
 26 59  1  0
 26 60  1  0
 28 61  1  0
 29 62  1  0
 32 63  1  0
 33 64  1  0
 36 65  1  0
 36 66  1  0
 37 67  1  0
 37 68  1  0
 38 69  1  0
 39 70  1  0
 39 71  1  0
 40 72  1  0
 40 73  1  0
 41 74  1  0
 42 75  1  0
M  CHG  2   3  -1  30  -1
M  END
>  <UniqueID>  (26) 
25

>  <SMILES>  (26) 
O=C([N-]c1ccc(-c2nc(N3CCOCC3)nc(N3CCS(=O)(=O)CC3)n2)cc1)[N-]c1ccc(N2CCNCC2)cc1

>  <Energy>  (26) 
93.76264187955655

>  <Genealogy>  (26) 
O=C([N-]c1ccc(-c2nc(N3CCOCC3)nc(N3CCS(=O)(=O)CC3)n2)cc1)[N-]c1ccc(N2CCNCC2)cc1 (protonated)
O=C([N-]c1ccc(-c2nc(N3CCOCC3)nc(N3CCS(=O)(=O)CC3)n2)cc1)[N-]c1ccc(N2CCNCC2)cc1 (3D coordinates assigned)
O=C([N-]c1ccc(-c2nc(N3CCOCC3)nc(N3CCS(=O)(=O)CC3)n2)cc1)[N-]c1ccc(N2CCNCC2)cc1 (nonaromatic ring conformer: 93.76264187955655 kcal/mol)

>  <smiles>  (26) 
O=C(Nc1ccc(-c2nc(N3CCOCC3)nc(N3CCS(=O)(=O)CC3)n2)cc1)Nc1ccc(N2CCNCC2)cc1

>  <score_type>  (26) 
oracle

>  <origin>  (26) 
adgpu

>  <m_score__min__energy>  (26) 
-12.09

>  <m_primary>  (26) 
energy

$$$$
26:0
     RDKit          3D

 48 50  0  0  0  0  0  0  0  0999 V2000
   -4.5960   22.2590  -34.4280 H   0  0  0  0  0  0  0  0  0  0  0  0
   -4.0960   21.5820  -33.8650 O   0  0  0  0  0  0  0  0  0  0  0  0
   -3.4920   21.9660  -32.6870 N   0  0  0  0  0  0  0  0  0  0  0  0
   -3.2940   22.9820  -32.5410 H   0  0  0  0  0  0  0  0  0  0  0  0
   -3.1630   21.0880  -31.7810 C   0  0  0  0  0  0  0  0  0  0  0  0
   -2.4130   21.4960  -30.5690 C   0  0  0  0  0  0  0  0  0  0  0  0
   -2.4510   22.8160  -30.0740 C   0  0  0  0  0  0  0  0  0  0  0  0
   -3.1640   23.8050  -30.7670 O   0  0  0  0  0  0  0  0  0  0  0  0
   -4.5250   24.0940  -30.5960 C   0  0  0  0  0  0  0  0  0  0  0  0
   -4.8990   24.9640  -29.5660 C   0  0  0  0  0  0  0  0  0  0  0  0
   -4.1292   25.4010  -28.9129 H   0  0  0  0  0  0  0  0  0  0  0  0
   -6.2440   25.2810  -29.3620 C   0  0  0  0  0  0  0  0  0  0  0  0
   -6.5303   25.9540  -28.5404 H   0  0  0  0  0  0  0  0  0  0  0  0
   -7.2260   24.7460  -30.1980 C   0  0  0  0  0  0  0  0  0  0  0  0
   -8.2853   24.9851  -30.0229 H   0  0  0  0  0  0  0  0  0  0  0  0
   -6.8650   23.9040  -31.2610 C   0  0  0  0  0  0  0  0  0  0  0  0
   -7.9200   23.3120  -32.1490 C   0  0  0  0  0  0  0  0  0  0  0  0
   -8.7130   22.8670  -31.5299 H   0  0  0  0  0  0  0  0  0  0  0  0
   -8.3497   24.1008  -32.7840 H   0  0  0  0  0  0  0  0  0  0  0  0
   -7.4707   22.5343  -32.7840 H   0  0  0  0  0  0  0  0  0  0  0  0
   -5.5140   23.5730  -31.4520 C   0  0  0  0  0  0  0  0  0  0  0  0
   -5.2265   22.9026  -32.2754 H   0  0  0  0  0  0  0  0  0  0  0  0
   -1.7390   23.1360  -28.9560 N   0  0  0  0  0  0  0  0  0  0  0  0
   -0.9890   22.2200  -28.2900 C   0  0  0  0  0  0  0  0  0  0  0  0
   -0.4409   22.5138  -27.3826 H   0  0  0  0  0  0  0  0  0  0  0  0
   -0.9130   20.9080  -28.7550 C   0  0  0  0  0  0  0  0  0  0  0  0
   -0.2999   20.1645  -28.2246 H   0  0  0  0  0  0  0  0  0  0  0  0
   -1.6230   20.5490  -29.9000 C   0  0  0  0  0  0  0  0  0  0  0  0
   -1.5635   19.5186  -30.2805 H   0  0  0  0  0  0  0  0  0  0  0  0
   -3.5100   19.7020  -31.9410 N   0  0  0  0  0  0  0  0  0  0  0  0
   -2.7770   18.9940  -31.7140 H   0  0  0  0  0  0  0  0  0  0  0  0
   -4.8350   19.2340  -32.2540 C   0  0  0  0  0  0  0  0  0  0  0  0
   -5.9790   19.8990  -31.7790 C   0  0  0  0  0  0  0  0  0  0  0  0
   -5.8680   20.8136  -31.1780 H   0  0  0  0  0  0  0  0  0  0  0  0
   -7.2610   19.4060  -32.0650 C   0  0  0  0  0  0  0  0  0  0  0  0
   -8.4760   20.1420  -31.5840 C   0  0  0  0  0  0  0  0  0  0  0  0
   -8.4886   20.1496  -30.4841 H   0  0  0  0  0  0  0  0  0  0  0  0
   -8.4500   21.1763  -31.9576 H   0  0  0  0  0  0  0  0  0  0  0  0
   -9.3806   19.6399  -31.9576 H   0  0  0  0  0  0  0  0  0  0  0  0
   -7.3990   18.2530  -32.8510 C   0  0  0  0  0  0  0  0  0  0  0  0
   -8.4026   17.8731  -33.0927 H   0  0  0  0  0  0  0  0  0  0  0  0
   -6.2650   17.5810  -33.3310 C   0  0  0  0  0  0  0  0  0  0  0  0
   -6.4170   16.3160  -34.1240 C   0  0  0  0  0  0  0  0  0  0  0  0
   -6.5195   15.4628  -33.4373 H   0  0  0  0  0  0  0  0  0  0  0  0
   -7.3132   16.3861  -34.7580 H   0  0  0  0  0  0  0  0  0  0  0  0
   -5.5297   16.1718  -34.7580 H   0  0  0  0  0  0  0  0  0  0  0  0
   -4.9870   18.0620  -33.0090 C   0  0  0  0  0  0  0  0  0  0  0  0
   -4.0963   17.5150  -33.3518 H   0  0  0  0  0  0  0  0  0  0  0  0
  1  2  1  0
  2  3  1  0
  3  4  1  0
  3  5  2  0
  5  6  1  0
  6  7  1  0
  7  8  1  0
  8  9  1  0
  9 10  2  0
 10 11  1  0
 10 12  1  0
 12 13  1  0
 12 14  2  0
 14 15  1  0
 14 16  1  0
 16 17  1  0
 17 18  1  0
 17 19  1  0
 17 20  1  0
 16 21  2  0
 21 22  1  0
  7 23  2  0
 23 24  1  0
 24 25  1  0
 24 26  2  0
 26 27  1  0
 26 28  1  0
 28 29  1  0
  5 30  1  0
 30 31  1  0
 30 32  1  0
 32 33  2  0
 33 34  1  0
 33 35  1  0
 35 36  1  0
 36 37  1  0
 36 38  1  0
 36 39  1  0
 35 40  2  0
 40 41  1  0
 40 42  1  0
 42 43  1  0
 43 44  1  0
 43 45  1  0
 43 46  1  0
 42 47  2  0
 47 48  1  0
 28  6  2  0
 47 32  1  0
 21  9  1  0
M  CHG  1   3   1
M  END
>  <UniqueID>  (27) 
26

>  <SMILES>  (27) 
Cc1cc(C)cc(N/C(=[NH+]\O)c2cccnc2Oc2cccc(C)c2)c1

>  <Energy>  (27) 
62.85390901128391

>  <Genealogy>  (27) 
Cc1cc(C)cc(NC(=[NH+]O)c2cccnc2Oc2cccc(C)c2)c1 (protonated)
Cc1cc(C)cc(N/C(=[NH+]\O)c2cccnc2Oc2cccc(C)c2)c1 (cis-trans isomerization)
Cc1cc(C)cc(N/C(=[NH+]\O)c2cccnc2Oc2cccc(C)c2)c1 (3D coordinates assigned)
Cc1cc(C)cc(N/C(=[NH+]\O)c2cccnc2Oc2cccc(C)c2)c1 (optimized conformer: 62.85390901128391 kcal/mol)

>  <smiles>  (27) 
Cc1cc(C)cc(NC(=NO)c2cccnc2Oc2cccc(C)c2)c1

>  <score_type>  (27) 
oracle

>  <origin>  (27) 
adgpu

>  <m_score__min__energy>  (27) 
-8.4600000000000009

>  <m_primary>  (27) 
energy

$$$$
27:0
     RDKit          3D

 33 35  0  0  0  0  0  0  0  0999 V2000
   -6.0980   25.4170  -30.3590 C   0  0  0  0  0  0  0  0  0  0  0  0
   -5.2130   24.3290  -30.8730 C   0  0  0  0  0  0  0  0  0  0  0  0
   -3.9490   24.1300  -30.4230 N   0  0  0  0  0  0  0  0  0  0  0  0
   -3.5340   23.0460  -31.1140 C   0  0  0  0  0  0  0  0  0  0  0  0
   -2.2800   22.4480  -31.0110 C   0  0  0  0  0  0  0  0  0  0  0  0
   -2.0200   21.3340  -31.8250 C   0  0  0  0  0  0  0  0  0  0  0  0
   -3.0050   20.8520  -32.7100 C   0  0  0  0  0  0  0  0  0  0  0  0
   -2.6440   19.3450  -33.8250 Br  0  0  0  0  0  0  0  0  0  0  0  0
   -4.2500   21.4940  -32.7720 C   0  0  0  0  0  0  0  0  0  0  0  0
   -4.4620   22.5630  -31.9600 N   0  0  0  0  0  0  0  0  0  0  0  0
   -5.5250   23.3690  -31.8280 C   0  0  0  0  0  0  0  0  0  0  0  0
   -6.7510   23.2170  -32.5610 N   0  0  0  0  0  0  0  0  0  0  0  0
   -7.9630   22.6500  -31.9690 C   0  0  0  0  0  0  0  0  0  0  0  0
   -7.9450   21.1460  -32.0590 C   0  0  0  0  0  0  0  0  0  0  0  0
   -7.1340   20.4960  -33.0040 C   0  0  0  0  0  0  0  0  0  0  0  0
   -7.1190   19.0990  -33.0760 C   0  0  0  0  0  0  0  0  0  0  0  0
   -7.9190   18.3440  -32.2140 C   0  0  0  0  0  0  0  0  0  0  0  0
   -8.7380   18.9840  -31.2800 C   0  0  0  0  0  0  0  0  0  0  0  0
   -8.7570   20.3800  -31.2050 C   0  0  0  0  0  0  0  0  0  0  0  0
   -6.0900   25.4072  -29.2591 H   0  0  0  0  0  0  0  0  0  0  0  0
   -5.7311   26.3893  -30.7197 H   0  0  0  0  0  0  0  0  0  0  0  0
   -7.1246   25.2558  -30.7197 H   0  0  0  0  0  0  0  0  0  0  0  0
   -1.5201   22.8351  -30.3162 H   0  0  0  0  0  0  0  0  0  0  0  0
   -1.0415   20.8344  -31.7716 H   0  0  0  0  0  0  0  0  0  0  0  0
   -5.0337   21.1421  -33.4590 H   0  0  0  0  0  0  0  0  0  0  0  0
   -6.8540   23.7400  -33.4580 H   0  0  0  0  0  0  0  0  0  0  0  0
   -8.0222   22.9480  -30.9118 H   0  0  0  0  0  0  0  0  0  0  0  0
   -8.8366   23.0274  -32.5208 H   0  0  0  0  0  0  0  0  0  0  0  0
   -6.5089   21.0872  -33.6894 H   0  0  0  0  0  0  0  0  0  0  0  0
   -6.4765   18.5940  -33.8123 H   0  0  0  0  0  0  0  0  0  0  0  0
   -7.9040   17.2456  -32.2708 H   0  0  0  0  0  0  0  0  0  0  0  0
   -9.3685   18.3888  -30.6030 H   0  0  0  0  0  0  0  0  0  0  0  0
   -9.4099   20.8807  -30.4749 H   0  0  0  0  0  0  0  0  0  0  0  0
  1  2  1  0
  2  3  1  0
  3  4  2  0
  4  5  1  0
  5  6  2  0
  6  7  1  0
  7  8  1  0
  7  9  2  0
  9 10  1  0
 10 11  1  0
 11 12  1  0
 12 13  1  0
 13 14  1  0
 14 15  2  0
 15 16  1  0
 16 17  2  0
 17 18  1  0
 18 19  2  0
 11  2  2  0
 19 14  1  0
 10  4  1  0
  1 20  1  0
  1 21  1  0
  1 22  1  0
  5 23  1  0
  6 24  1  0
  9 25  1  0
 12 26  1  0
 13 27  1  0
 13 28  1  0
 15 29  1  0
 16 30  1  0
 17 31  1  0
 18 32  1  0
 19 33  1  0
M  END
>  <UniqueID>  (28) 
27

>  <SMILES>  (28) 
Cc1nc2ccc(Br)cn2c1NCc1ccccc1

>  <Energy>  (28) 
71.02770816473809

>  <Genealogy>  (28) 
Cc1nc2ccc(Br)cn2c1NCc1ccccc1 (3D coordinates assigned)
Cc1nc2ccc(Br)cn2c1NCc1ccccc1 (optimized conformer: 71.02770816473809 kcal/mol)

>  <smiles>  (28) 
Cc1nc2ccc(Br)cn2c1NCc1ccccc1

>  <score_type>  (28) 
oracle

>  <origin>  (28) 
adgpu

>  <m_score__min__energy>  (28) 
-7.9199999999999999

>  <m_primary>  (28) 
energy

$$$$
28:0
     RDKit          3D

 32 33  0  0  0  0  0  0  0  0999 V2000
   -2.5800   23.4020  -28.5400 C   0  0  0  0  0  0  0  0  0  0  0  0
   -2.6250   24.6880  -29.3070 C   0  0  0  0  0  0  0  0  0  0  0  0
   -1.8750   25.6350  -28.9540 O   0  0  0  0  0  0  0  0  0  0  0  0
   -3.4640   24.8590  -30.4570 N   0  0  0  0  0  0  0  0  0  0  0  0
   -4.8520   24.5100  -30.5650 C   0  0  0  0  0  0  0  0  0  0  0  0
   -5.8500   25.2980  -29.9640 C   0  0  0  0  0  0  0  0  0  0  0  0
   -7.1980   24.9630  -30.1100 C   0  0  0  0  0  0  0  0  0  0  0  0
   -7.5650   23.8470  -30.8660 C   0  0  0  0  0  0  0  0  0  0  0  0
   -6.5840   23.0740  -31.4890 C   0  0  0  0  0  0  0  0  0  0  0  0
   -5.2310   23.4110  -31.3580 C   0  0  0  0  0  0  0  0  0  0  0  0
   -3.9940   22.4020  -32.1890 S   0  0  0  0  0  0  0  0  0  0  0  0
   -4.6480   20.8030  -31.5870 C   0  0  0  0  0  0  0  0  0  0  0  0
   -4.7940   19.8160  -32.7190 C   0  0  0  0  0  0  0  0  0  0  0  0
   -3.6310   19.3410  -33.3500 C   0  0  0  0  0  0  0  0  0  0  0  0
   -3.7150   18.4010  -34.3810 C   0  0  0  0  0  0  0  0  0  0  0  0
   -4.9580   17.9250  -34.7950 C   0  0  0  0  0  0  0  0  0  0  0  0
   -6.1230   18.3880  -34.1800 C   0  0  0  0  0  0  0  0  0  0  0  0
   -6.0550   19.3310  -33.1460 C   0  0  0  0  0  0  0  0  0  0  0  0
   -7.7130   19.9060  -32.3660 Br  0  0  0  0  0  0  0  0  0  0  0  0
   -2.5876   23.6179  -27.4614 H   0  0  0  0  0  0  0  0  0  0  0  0
   -3.4573   22.7905  -28.7977 H   0  0  0  0  0  0  0  0  0  0  0  0
   -1.6621   22.8533  -28.7977 H   0  0  0  0  0  0  0  0  0  0  0  0
   -5.5672   26.1833  -29.3755 H   0  0  0  0  0  0  0  0  0  0  0  0
   -7.9720   25.5789  -29.6289 H   0  0  0  0  0  0  0  0  0  0  0  0
   -8.6264   23.5777  -30.9702 H   0  0  0  0  0  0  0  0  0  0  0  0
   -6.8747   22.1966  -32.0853 H   0  0  0  0  0  0  0  0  0  0  0  0
   -3.9561   20.3908  -30.8378 H   0  0  0  0  0  0  0  0  0  0  0  0
   -5.6396   20.9755  -31.1433 H   0  0  0  0  0  0  0  0  0  0  0  0
   -2.6464   19.7123  -33.0296 H   0  0  0  0  0  0  0  0  0  0  0  0
   -2.7981   18.0360  -34.8668 H   0  0  0  0  0  0  0  0  0  0  0  0
   -5.0212   17.1847  -35.6061 H   0  0  0  0  0  0  0  0  0  0  0  0
   -7.1017   18.0094  -34.5099 H   0  0  0  0  0  0  0  0  0  0  0  0
  1  2  1  0
  2  3  2  0
  2  4  1  0
  4  5  1  0
  5  6  2  0
  6  7  1  0
  7  8  2  0
  8  9  1  0
  9 10  2  0
 10 11  1  0
 11 12  1  0
 12 13  1  0
 13 14  2  0
 14 15  1  0
 15 16  2  0
 16 17  1  0
 17 18  2  0
 18 19  1  0
 10  5  1  0
 18 13  1  0
  1 20  1  0
  1 21  1  0
  1 22  1  0
  6 23  1  0
  7 24  1  0
  8 25  1  0
  9 26  1  0
 12 27  1  0
 12 28  1  0
 14 29  1  0
 15 30  1  0
 16 31  1  0
 17 32  1  0
M  CHG  1   4  -1
M  END
>  <UniqueID>  (29) 
28

>  <SMILES>  (29) 
CC(=O)[N-]c1ccccc1SCc1ccccc1Br

>  <Energy>  (29) 
32.23005053080849

>  <Genealogy>  (29) 
CC(=O)[N-]c1ccccc1SCc1ccccc1Br (protonated)
CC(=O)[N-]c1ccccc1SCc1ccccc1Br (3D coordinates assigned)
CC(=O)[N-]c1ccccc1SCc1ccccc1Br (optimized conformer: 32.23005053080849 kcal/mol)

>  <smiles>  (29) 
CC(=O)Nc1ccccc1SCc1ccccc1Br

>  <score_type>  (29) 
oracle

>  <origin>  (29) 
adgpu

>  <m_score__min__energy>  (29) 
-9.7400000000000002

>  <m_primary>  (29) 
energy

$$$$
29:0
     RDKit          3D

 32 34  0  0  0  0  0  0  0  0999 V2000
   -7.7090   23.7403  -31.3645 H   0  0  0  0  0  0  0  0  0  0  0  0
   -7.5230   22.7080  -31.6960 C   0  0  0  0  0  0  0  0  0  0  0  0
   -6.2890   22.3670  -32.2550 C   0  0  0  0  0  0  0  0  0  0  0  0
   -5.5111   23.1353  -32.3753 H   0  0  0  0  0  0  0  0  0  0  0  0
   -6.0370   21.0440  -32.6650 C   0  0  0  0  0  0  0  0  0  0  0  0
   -4.7780   20.6700  -33.2490 N   0  0  0  0  0  0  0  0  0  0  0  0
   -4.7780   19.9300  -33.9880 H   0  0  0  0  0  0  0  0  0  0  0  0
   -3.5120   21.1710  -32.7930 C   0  0  0  0  0  0  0  0  0  0  0  0
   -2.1690   20.8850  -33.6920 S   0  0  0  0  0  0  0  0  0  0  0  0
   -3.4120   21.8070  -31.5130 N   0  0  0  0  0  0  0  0  0  0  0  0
   -2.4390   22.5650  -31.2060 N   0  0  0  0  0  0  0  0  0  0  0  0
   -2.3500   23.1960  -29.9260 C   0  0  0  0  0  0  0  0  0  0  0  0
   -2.8440   24.4530  -29.6160 C   0  0  0  0  0  0  0  0  0  0  0  0
   -3.4920   25.3000  -30.5060 O   0  0  0  0  0  0  0  0  0  0  0  0
   -2.6190   24.7590  -28.3200 N   0  0  0  0  0  0  0  0  0  0  0  0
   -2.8870   25.6380  -27.8250 H   0  0  0  0  0  0  0  0  0  0  0  0
   -1.9790   23.6920  -27.8040 C   0  0  0  0  0  0  0  0  0  0  0  0
   -1.5360   23.5360  -26.4910 C   0  0  0  0  0  0  0  0  0  0  0  0
   -1.6925   24.3263  -25.7421 H   0  0  0  0  0  0  0  0  0  0  0  0
   -0.8830   22.3370  -26.1540 C   0  0  0  0  0  0  0  0  0  0  0  0
   -0.5230   22.1817  -25.1262 H   0  0  0  0  0  0  0  0  0  0  0  0
   -0.6860   21.3310  -27.1250 C   0  0  0  0  0  0  0  0  0  0  0  0
   -0.1730   20.3981  -26.8483 H   0  0  0  0  0  0  0  0  0  0  0  0
   -1.1410   21.5130  -28.4440 C   0  0  0  0  0  0  0  0  0  0  0  0
   -0.9894   20.7365  -29.2082 H   0  0  0  0  0  0  0  0  0  0  0  0
   -1.7910   22.7100  -28.7530 C   0  0  0  0  0  0  0  0  0  0  0  0
   -7.0540   20.0850  -32.5460 C   0  0  0  0  0  0  0  0  0  0  0  0
   -6.8790   19.0561  -32.8935 H   0  0  0  0  0  0  0  0  0  0  0  0
   -8.2890   20.4300  -31.9880 C   0  0  0  0  0  0  0  0  0  0  0  0
   -9.0781   19.6702  -31.8879 H   0  0  0  0  0  0  0  0  0  0  0  0
   -8.5220   21.7400  -31.5570 C   0  0  0  0  0  0  0  0  0  0  0  0
   -9.7190   22.0730  -31.0150 F   0  0  0  0  0  0  0  0  0  0  0  0
  1  2  1  0
  2  3  2  0
  3  4  1  0
  3  5  1  0
  5  6  1  0
  6  7  1  0
  6  8  1  0
  8  9  2  0
  8 10  1  0
 10 11  2  0
 11 12  1  0
 12 13  2  0
 13 14  1  0
 13 15  1  0
 15 16  1  0
 15 17  1  0
 17 18  2  0
 18 19  1  0
 18 20  1  0
 20 21  1  0
 20 22  2  0
 22 23  1  0
 22 24  1  0
 24 25  1  0
 24 26  2  0
  5 27  2  0
 27 28  1  0
 27 29  1  0
 29 30  1  0
 29 31  2  0
 31 32  1  0
 31  2  1  0
 26 12  1  0
 26 17  1  0
M  CHG  1  14  -1
M  END
>  <UniqueID>  (30) 
29

>  <SMILES>  (30) 
[O-]c1[nH]c2ccccc2c1/N=N/C(=S)Nc1ccc(F)cc1

>  <Energy>  (30) 
72.2978389334701

>  <Genealogy>  (30) 
[O-]c1[nH]c2ccccc2c1N=NC(=S)Nc1ccc(F)cc1 (protonated)
[O-]c1[nH]c2ccccc2c1/N=N/C(=S)Nc1ccc(F)cc1 (cis-trans isomerization)
[O-]c1[nH]c2ccccc2c1/N=N/C(=S)Nc1ccc(F)cc1 (3D coordinates assigned)
[O-]c1[nH]c2ccccc2c1/N=N/C(=S)Nc1ccc(F)cc1 (optimized conformer: 72.2978389334701 kcal/mol)

>  <smiles>  (30) 
Oc1[nH]c2ccccc2c1N=NC(=S)Nc1ccc(F)cc1

>  <score_type>  (30) 
oracle

>  <origin>  (30) 
adgpu

>  <m_score__min__energy>  (30) 
-10.380000000000001

>  <m_primary>  (30) 
energy

$$$$
30:0
     RDKit          3D

 40 42  0  0  1  0  0  0  0  0999 V2000
   -8.9280   20.2570  -32.3970 C   0  0  0  0  0  0  0  0  0  0  0  0
   -7.8060   21.1930  -32.1190 C   0  0  0  0  0  0  0  0  0  0  0  0
   -6.5280   21.0030  -32.5990 C   0  0  0  0  0  0  0  0  0  0  0  0
   -5.4990   21.8990  -32.3210 C   0  0  0  0  0  0  0  0  0  0  0  0
   -5.7710   23.0050  -31.5430 C   0  0  0  0  0  0  0  0  0  0  0  0
   -4.8140   23.9820  -31.1930 N   0  0  0  0  0  0  0  0  0  0  0  0
   -4.0130   23.8900  -30.1740 C   0  0  0  0  0  0  0  0  0  0  0  0
   -4.1480   22.7610  -29.4340 N   0  0  0  0  0  0  0  0  0  0  0  0
   -3.3430   22.6020  -28.3580 C   0  0  0  0  0  0  0  0  0  0  0  0
   -3.5030   21.3550  -27.5540 C   0  0  0  0  0  0  0  0  0  0  0  0
   -2.4150   23.5730  -28.0360 C   0  0  0  0  0  0  0  0  0  0  0  0
   -2.3080   24.7190  -28.8230 C   0  0  0  0  0  0  0  0  0  0  0  0
   -1.4470   25.6510  -28.5490 N   0  0  0  0  0  0  0  0  0  0  0  0
   -0.5840   25.5190  -27.4250 C   0  0  0  0  0  0  0  0  0  0  0  0
    0.5490   24.7330  -27.6050 C   0  0  0  0  0  0  0  0  0  0  0  0
    0.7940   24.1370  -28.8000 F   0  0  0  0  0  0  0  0  0  0  0  0
    1.4690   24.5200  -26.6010 C   0  0  0  0  0  0  0  0  0  0  0  0
    1.2120   25.1350  -25.3780 C   0  0  0  0  0  0  0  0  0  0  0  0
    0.0880   25.9150  -25.1970 C   0  0  0  0  0  0  0  0  0  0  0  0
   -0.8270   26.1230  -26.2090 C   0  0  0  0  0  0  0  0  0  0  0  0
   -1.9360   26.8840  -26.0530 F   0  0  0  0  0  0  0  0  0  0  0  0
   -3.1160   24.8480  -29.8790 N   0  0  0  0  0  0  0  0  0  0  0  0
   -7.0650   23.1930  -31.0610 C   0  0  0  0  0  0  0  0  0  0  0  0
   -8.0860   22.3020  -31.3380 C   0  0  0  0  0  0  0  0  0  0  0  0
   -9.3534   19.9021  -31.4467 H   0  0  0  0  0  0  0  0  0  0  0  0
   -9.7055   20.7780  -32.9749 H   0  0  0  0  0  0  0  0  0  0  0  0
   -8.5548   19.3987  -32.9749 H   0  0  0  0  0  0  0  0  0  0  0  0
   -6.3151   20.1194  -33.2186 H   0  0  0  0  0  0  0  0  0  0  0  0
   -4.4864   21.7277  -32.7151 H   0  0  0  0  0  0  0  0  0  0  0  0
   -4.8450   22.0340  -29.6790 H   0  0  0  0  0  0  0  0  0  0  0  0
   -3.4712   21.6028  -26.4827 H   0  0  0  0  0  0  0  0  0  0  0  0
   -4.4687   20.8858  -27.7933 H   0  0  0  0  0  0  0  0  0  0  0  0
   -2.6870   20.6572  -27.7933 H   0  0  0  0  0  0  0  0  0  0  0  0
   -1.7618   23.4425  -27.1606 H   0  0  0  0  0  0  0  0  0  0  0  0
    2.3611   23.8958  -26.7577 H   0  0  0  0  0  0  0  0  0  0  0  0
    1.9156   24.9969  -24.5438 H   0  0  0  0  0  0  0  0  0  0  0  0
   -0.0837   26.3848  -24.2173 H   0  0  0  0  0  0  0  0  0  0  0  0
   -3.1020   25.6770  -30.5210 H   0  0  0  0  0  0  0  0  0  0  0  0
   -7.2808   24.0762  -30.4419 H   0  0  0  0  0  0  0  0  0  0  0  0
   -9.0998   22.4708  -30.9460 H   0  0  0  0  0  0  0  0  0  0  0  0
  1  2  1  0
  2  3  2  0
  3  4  1  0
  4  5  2  0
  5  6  1  0
  6  7  2  0
  7  8  1  0
  8  9  1  0
  9 10  1  0
  9 11  2  0
 11 12  1  0
 12 13  2  0
 13 14  1  0
 14 15  2  0
 15 16  1  0
 15 17  1  0
 17 18  2  0
 18 19  1  0
 19 20  2  0
 20 21  1  0
 12 22  1  0
  5 23  1  0
 23 24  2  0
 24  2  1  0
 22  7  1  0
 20 14  1  0
  1 25  1  0
  1 26  1  0
  1 27  1  0
  3 28  1  0
  4 29  1  0
  8 30  1  0
 10 31  1  0
 10 32  1  0
 10 33  1  0
 11 34  1  0
 17 35  1  0
 18 36  1  0
 19 37  1  0
 22 38  1  0
 23 39  1  0
 24 40  1  0
M  END
>  <smiles>  (31) 
Cc1ccc(N=c2[nH]c(C)cc(=Nc3c(F)cccc3F)[nH]2)cc1

>  <score_type>  (31) 
oracle

>  <origin>  (31) 
adgpu

>  <m_score__min__energy>  (31) 
-8.3300000000000001

>  <m_primary>  (31) 
energy

$$$$
31:0
     RDKit          3D

 43 45  0  0  0  0  0  0  0  0999 V2000
   -8.9210   22.1580  -31.5750 C   0  0  0  0  0  0  0  0  0  0  0  0
   -7.7440   22.7070  -32.1580 O   0  0  0  0  0  0  0  0  0  0  0  0
   -6.5400   22.0050  -32.3360 C   0  0  0  0  0  0  0  0  0  0  0  0
   -6.4970   20.7420  -32.9600 C   0  0  0  0  0  0  0  0  0  0  0  0
   -5.2750   20.0670  -33.1270 C   0  0  0  0  0  0  0  0  0  0  0  0
   -5.2150   18.7700  -33.7460 N   0  0  0  0  0  0  0  0  0  0  0  0
   -6.1870   17.7350  -33.5230 C   0  0  0  0  0  0  0  0  0  0  0  0
   -7.3380   18.0380  -33.1040 O   0  0  0  0  0  0  0  0  0  0  0  0
   -5.8700   16.3170  -33.8240 C   0  0  0  0  0  0  0  0  0  0  0  0
   -4.5410   15.8580  -33.7540 C   0  0  0  0  0  0  0  0  0  0  0  0
   -4.2350   14.5240  -34.0420 C   0  0  0  0  0  0  0  0  0  0  0  0
   -5.2480   13.6370  -34.4100 C   0  0  0  0  0  0  0  0  0  0  0  0
   -6.5690   14.0830  -34.4930 C   0  0  0  0  0  0  0  0  0  0  0  0
   -6.8820   15.4140  -34.2050 C   0  0  0  0  0  0  0  0  0  0  0  0
   -4.1020   20.6430  -32.6250 C   0  0  0  0  0  0  0  0  0  0  0  0
   -4.1370   21.8920  -32.0040 C   0  0  0  0  0  0  0  0  0  0  0  0
   -5.3500   22.5910  -31.8770 C   0  0  0  0  0  0  0  0  0  0  0  0
   -5.4080   23.8740  -31.2350 N   0  0  0  0  0  0  0  0  0  0  0  0
   -4.3350   24.5210  -30.5370 C   0  0  0  0  0  0  0  0  0  0  0  0
   -3.9870   25.6760  -30.9020 O   0  0  0  0  0  0  0  0  0  0  0  0
   -3.6050   23.8630  -29.4290 C   0  0  0  0  0  0  0  0  0  0  0  0
   -4.1040   22.6630  -28.8910 C   0  0  0  0  0  0  0  0  0  0  0  0
   -3.4250   22.0150  -27.8560 C   0  0  0  0  0  0  0  0  0  0  0  0
   -2.2480   22.5610  -27.3410 C   0  0  0  0  0  0  0  0  0  0  0  0
   -1.7540   23.7630  -27.8520 C   0  0  0  0  0  0  0  0  0  0  0  0
   -2.4310   24.4230  -28.8840 C   0  0  0  0  0  0  0  0  0  0  0  0
   -1.9390   25.6410  -29.3420 O   0  0  0  0  0  0  0  0  0  0  0  0
   -8.8392   22.1961  -30.4787 H   0  0  0  0  0  0  0  0  0  0  0  0
   -9.7963   22.7408  -31.8979 H   0  0  0  0  0  0  0  0  0  0  0  0
   -9.0369   21.1129  -31.8979 H   0  0  0  0  0  0  0  0  0  0  0  0
   -7.4282   20.2800  -33.3197 H   0  0  0  0  0  0  0  0  0  0  0  0
   -4.4950   18.6160  -34.4870 H   0  0  0  0  0  0  0  0  0  0  0  0
   -3.7373   16.5536  -33.4707 H   0  0  0  0  0  0  0  0  0  0  0  0
   -3.1944   14.1733  -33.9784 H   0  0  0  0  0  0  0  0  0  0  0  0
   -5.0062   12.5877  -34.6344 H   0  0  0  0  0  0  0  0  0  0  0  0
   -7.3660   13.3838  -34.7862 H   0  0  0  0  0  0  0  0  0  0  0  0
   -7.9242   15.7586  -34.2762 H   0  0  0  0  0  0  0  0  0  0  0  0
   -3.1461   20.1072  -32.7208 H   0  0  0  0  0  0  0  0  0  0  0  0
   -3.2089   22.3328  -31.6111 H   0  0  0  0  0  0  0  0  0  0  0  0
   -5.0350   22.2319  -29.2877 H   0  0  0  0  0  0  0  0  0  0  0  0
   -3.8185   21.0730  -27.4463 H   0  0  0  0  0  0  0  0  0  0  0  0
   -1.7097   22.0444  -26.5327 H   0  0  0  0  0  0  0  0  0  0  0  0
   -0.8285   24.1931  -27.4416 H   0  0  0  0  0  0  0  0  0  0  0  0
  1  2  1  0
  2  3  1  0
  3  4  2  0
  4  5  1  0
  5  6  1  0
  6  7  1  0
  7  8  2  0
  7  9  1  0
  9 10  2  0
 10 11  1  0
 11 12  2  0
 12 13  1  0
 13 14  2  0
  5 15  2  0
 15 16  1  0
 16 17  2  0
 17 18  1  0
 18 19  1  0
 19 20  2  0
 19 21  1  0
 21 22  2  0
 22 23  1  0
 23 24  2  0
 24 25  1  0
 25 26  2  0
 26 27  1  0
 17  3  1  0
 26 21  1  0
 14  9  1  0
  1 28  1  0
  1 29  1  0
  1 30  1  0
  4 31  1  0
  6 32  1  0
 10 33  1  0
 11 34  1  0
 12 35  1  0
 13 36  1  0
 14 37  1  0
 15 38  1  0
 16 39  1  0
 22 40  1  0
 23 41  1  0
 24 42  1  0
 25 43  1  0
M  CHG  2  18  -1  27  -1
M  END
>  <UniqueID>  (32) 
30

>  <SMILES>  (32) 
COc1cc(NC(=O)c2ccccc2)ccc1[N-]C(=O)c1ccccc1[O-]

>  <Energy>  (32) 
59.52981106277503

>  <Genealogy>  (32) 
COc1cc(NC(=O)c2ccccc2)ccc1[N-]C(=O)c1ccccc1[O-] (protonated)
COc1cc(NC(=O)c2ccccc2)ccc1[N-]C(=O)c1ccccc1[O-] (3D coordinates assigned)
COc1cc(NC(=O)c2ccccc2)ccc1[N-]C(=O)c1ccccc1[O-] (optimized conformer: 59.52981106277503 kcal/mol)

>  <smiles>  (32) 
COc1cc(NC(=O)c2ccccc2)ccc1NC(=O)c1ccccc1O

>  <score_type>  (32) 
oracle

>  <origin>  (32) 
adgpu

>  <m_score__min__energy>  (32) 
-12.17

>  <m_primary>  (32) 
energy

$$$$
32:0
     RDKit          3D

 39 41  0  0  0  0  0  0  0  0999 V2000
   -6.0850   18.0890  -30.9160 O   0  0  0  0  0  0  0  0  0  0  0  0
   -5.7450   18.0260  -32.1280 C   0  0  0  0  0  0  0  0  0  0  0  0
   -5.2310   19.1960  -32.7930 N   0  0  0  0  0  0  0  0  0  0  0  0
   -5.1750   20.5000  -32.1900 C   0  0  0  0  0  0  0  0  0  0  0  0
   -6.2980   21.3400  -32.2670 C   0  0  0  0  0  0  0  0  0  0  0  0
   -6.2820   22.6020  -31.6660 C   0  0  0  0  0  0  0  0  0  0  0  0
   -5.1470   23.0340  -30.9660 C   0  0  0  0  0  0  0  0  0  0  0  0
   -5.1200   24.6080  -30.1760 S   0  0  0  0  0  0  0  0  0  0  0  0
   -4.2430   25.5360  -30.9670 O   0  0  0  0  0  0  0  0  0  0  0  0
   -6.5040   25.1940  -30.1020 O   0  0  0  0  0  0  0  0  0  0  0  0
   -4.4830   24.4460  -28.5700 N   0  0  0  0  0  0  0  0  0  0  0  0
   -3.2210   24.5490  -28.2810 C   0  0  0  0  0  0  0  0  0  0  0  0
   -2.8050   24.4100  -26.9510 C   0  0  0  0  0  0  0  0  0  0  0  0
   -1.4470   24.5240  -26.6430 C   0  0  0  0  0  0  0  0  0  0  0  0
   -0.5220   24.7760  -27.6580 C   0  0  0  0  0  0  0  0  0  0  0  0
   -0.9720   24.9080  -28.9730 C   0  0  0  0  0  0  0  0  0  0  0  0
   -2.2970   24.7930  -29.2540 N   0  0  0  0  0  0  0  0  0  0  0  0
   -4.0340   22.1910  -30.8640 C   0  0  0  0  0  0  0  0  0  0  0  0
   -4.0490   20.9290  -31.4650 C   0  0  0  0  0  0  0  0  0  0  0  0
   -5.8760   16.7320  -32.8430 C   0  0  0  0  0  0  0  0  0  0  0  0
   -6.8390   16.5470  -33.8540 C   0  0  0  0  0  0  0  0  0  0  0  0
   -6.9400   15.3200  -34.5170 C   0  0  0  0  0  0  0  0  0  0  0  0
   -6.0820   14.2690  -34.1840 C   0  0  0  0  0  0  0  0  0  0  0  0
   -5.1130   14.4450  -33.1930 C   0  0  0  0  0  0  0  0  0  0  0  0
   -3.9350   13.0100  -32.7440 Br  0  0  0  0  0  0  0  0  0  0  0  0
   -5.0070   15.6720  -32.5280 C   0  0  0  0  0  0  0  0  0  0  0  0
   -4.8280   19.1030  -33.7510 H   0  0  0  0  0  0  0  0  0  0  0  0
   -7.1966   21.0024  -32.8041 H   0  0  0  0  0  0  0  0  0  0  0  0
   -7.1620   23.2575  -31.7426 H   0  0  0  0  0  0  0  0  0  0  0  0
   -3.5401   24.2130  -26.1568 H   0  0  0  0  0  0  0  0  0  0  0  0
   -1.1071   24.4154  -25.6025 H   0  0  0  0  0  0  0  0  0  0  0  0
    0.5488   24.8694  -27.4243 H   0  0  0  0  0  0  0  0  0  0  0  0
   -0.2537   25.1052  -29.7824 H   0  0  0  0  0  0  0  0  0  0  0  0
   -3.1443   22.5229  -30.3088 H   0  0  0  0  0  0  0  0  0  0  0  0
   -3.1751   20.2677  -31.3703 H   0  0  0  0  0  0  0  0  0  0  0  0
   -7.5150   17.3719  -34.1234 H   0  0  0  0  0  0  0  0  0  0  0  0
   -7.6971   15.1819  -35.3029 H   0  0  0  0  0  0  0  0  0  0  0  0
   -6.1694   13.3026  -34.7022 H   0  0  0  0  0  0  0  0  0  0  0  0
   -4.2382   15.8083  -31.7531 H   0  0  0  0  0  0  0  0  0  0  0  0
  1  2  2  0
  2  3  1  0
  3  4  1  0
  4  5  2  0
  5  6  1  0
  6  7  2  0
  7  8  1  0
  8  9  2  0
  8 10  2  0
  8 11  1  0
 11 12  2  3
 12 13  1  0
 13 14  2  0
 14 15  1  0
 15 16  2  0
 16 17  1  0
  7 18  1  0
 18 19  2  0
  2 20  1  0
 20 21  2  0
 21 22  1  0
 22 23  2  0
 23 24  1  0
 24 25  1  0
 24 26  2  0
 19  4  1  0
 26 20  1  0
 17 12  1  0
  3 27  1  0
  5 28  1  0
  6 29  1  0
 13 30  1  0
 14 31  1  0
 15 32  1  0
 16 33  1  0
 18 34  1  0
 19 35  1  0
 21 36  1  0
 22 37  1  0
 23 38  1  0
 26 39  1  0
M  CHG  1  17  -1
M  END
>  <UniqueID>  (33) 
31

>  <SMILES>  (33) 
O=C(Nc1ccc(S(=O)(=O)N=c2cccc[n-]2)cc1)c1cccc(Br)c1

>  <Energy>  (33) 
52.44911786205752

>  <Genealogy>  (33) 
O=C(Nc1ccc(S(=O)(=O)N=c2cccc[n-]2)cc1)c1cccc(Br)c1 (protonated)
O=C(Nc1ccc(S(=O)(=O)N=c2cccc[n-]2)cc1)c1cccc(Br)c1 (3D coordinates assigned)
O=C(Nc1ccc(S(=O)(=O)N=c2cccc[n-]2)cc1)c1cccc(Br)c1 (optimized conformer: 52.44911786205752 kcal/mol)

>  <smiles>  (33) 
O=C(Nc1ccc(S(=O)(=O)N=c2cccc[nH]2)cc1)c1cccc(Br)c1

>  <score_type>  (33) 
oracle

>  <origin>  (33) 
adgpu

>  <m_score__min__energy>  (33) 
-9.75

>  <m_primary>  (33) 
energy

$$$$
33:0
     RDKit          3D

 28 29  0  0  0  0  0  0  0  0999 V2000
   -5.7820   25.2560  -28.9790 N   0  0  0  0  0  0  0  0  0  0  0  0
   -5.2370   24.9120  -30.2550 C   0  0  0  0  0  0  0  0  0  0  0  0
   -4.2960   25.6060  -30.7270 O   0  0  0  0  0  0  0  0  0  0  0  0
   -5.7530   23.7480  -31.0150 C   0  0  0  0  0  0  0  0  0  0  0  0
   -7.1430   23.5380  -31.0960 C   0  0  0  0  0  0  0  0  0  0  0  0
   -7.6570   22.4290  -31.7670 C   0  0  0  0  0  0  0  0  0  0  0  0
   -6.7970   21.5130  -32.3700 C   0  0  0  0  0  0  0  0  0  0  0  0
   -5.4160   21.7050  -32.3030 C   0  0  0  0  0  0  0  0  0  0  0  0
   -4.8780   22.8100  -31.6210 C   0  0  0  0  0  0  0  0  0  0  0  0
   -3.4570   23.0300  -31.6320 N   0  0  0  0  0  0  0  0  0  0  0  0
   -2.4810   21.9790  -31.7460 C   0  0  0  0  0  0  0  0  0  0  0  0
   -1.7200   21.5620  -30.6370 C   0  0  0  0  0  0  0  0  0  0  0  0
   -0.7630   20.5530  -30.7780 C   0  0  0  0  0  0  0  0  0  0  0  0
   -0.5490   19.9580  -32.0240 C   0  0  0  0  0  0  0  0  0  0  0  0
   -1.2890   20.3780  -33.1340 C   0  0  0  0  0  0  0  0  0  0  0  0
   -2.2460   21.3870  -32.9970 C   0  0  0  0  0  0  0  0  0  0  0  0
   -6.6220   24.7670  -28.5990 H   0  0  0  0  0  0  0  0  0  0  0  0
   -5.3770   26.0500  -28.4340 H   0  0  0  0  0  0  0  0  0  0  0  0
   -7.8304   24.2562  -30.6251 H   0  0  0  0  0  0  0  0  0  0  0  0
   -8.7451   22.2766  -31.8206 H   0  0  0  0  0  0  0  0  0  0  0  0
   -7.2062   20.6393  -32.8984 H   0  0  0  0  0  0  0  0  0  0  0  0
   -4.7419   20.9842  -32.7889 H   0  0  0  0  0  0  0  0  0  0  0  0
   -3.1160   24.0170  -31.5920 H   0  0  0  0  0  0  0  0  0  0  0  0
   -1.8793   22.0323  -29.6555 H   0  0  0  0  0  0  0  0  0  0  0  0
   -0.1771   20.2267  -29.9061 H   0  0  0  0  0  0  0  0  0  0  0  0
    0.2006   19.1602  -32.1318 H   0  0  0  0  0  0  0  0  0  0  0  0
   -1.1174   19.9134  -34.1162 H   0  0  0  0  0  0  0  0  0  0  0  0
   -2.8189   21.7196  -33.8752 H   0  0  0  0  0  0  0  0  0  0  0  0
  1  2  1  0
  2  3  2  0
  2  4  1  0
  4  5  2  0
  5  6  1  0
  6  7  2  0
  7  8  1  0
  8  9  2  0
  9 10  1  0
 10 11  1  0
 11 12  2  0
 12 13  1  0
 13 14  2  0
 14 15  1  0
 15 16  2  0
  9  4  1  0
 16 11  1  0
  1 17  1  0
  1 18  1  0
  5 19  1  0
  6 20  1  0
  7 21  1  0
  8 22  1  0
 10 23  1  0
 12 24  1  0
 13 25  1  0
 14 26  1  0
 15 27  1  0
 16 28  1  0
M  END
>  <UniqueID>  (34) 
32

>  <SMILES>  (34) 
NC(=O)c1ccccc1Nc1ccccc1

>  <Energy>  (34) 
37.7060279380843

>  <Genealogy>  (34) 
NC(=O)c1ccccc1Nc1ccccc1 (3D coordinates assigned)
NC(=O)c1ccccc1Nc1ccccc1 (optimized conformer: 37.7060279380843 kcal/mol)

>  <smiles>  (34) 
NC(=O)c1ccccc1Nc1ccccc1

>  <score_type>  (34) 
oracle

>  <origin>  (34) 
adgpu

>  <m_score__min__energy>  (34) 
-6.8399999999999999

>  <m_primary>  (34) 
energy

$$$$
34:0
     RDKit          3D

 39 42  0  0  0  0  0  0  0  0999 V2000
   -4.5960   15.6650  -32.6290 N   0  0  0  0  0  0  0  0  0  0  0  0
   -5.0780   16.7140  -33.2130 C   0  0  0  0  0  0  0  0  0  0  0  0
   -4.6950   17.0670  -34.4560 N   0  0  0  0  0  0  0  0  0  0  0  0
   -5.2020   18.1680  -35.0710 C   0  0  0  0  0  0  0  0  0  0  0  0
   -6.1150   18.9460  -34.4350 N   0  0  0  0  0  0  0  0  0  0  0  0
   -6.5240   18.6180  -33.1770 C   0  0  0  0  0  0  0  0  0  0  0  0
   -6.0090   17.4970  -32.5520 C   0  0  0  0  0  0  0  0  0  0  0  0
   -6.6190   17.4530  -31.3160 C   0  0  0  0  0  0  0  0  0  0  0  0
   -7.4620   18.5190  -31.2320 N   0  0  0  0  0  0  0  0  0  0  0  0
   -7.4040   19.2190  -32.3510 N   0  0  0  0  0  0  0  0  0  0  0  0
   -8.1380   20.4360  -32.6940 C   0  0  0  0  0  0  0  0  0  0  0  0
   -7.4710   21.6440  -32.1620 C   0  0  0  0  0  0  0  0  0  0  0  0
   -8.2250   22.6530  -31.5960 C   0  0  0  0  0  0  0  0  0  0  0  0
   -7.6100   23.8010  -31.0890 C   0  0  0  0  0  0  0  0  0  0  0  0
   -6.2360   23.8950  -31.1700 C   0  0  0  0  0  0  0  0  0  0  0  0
   -5.5020   25.3580  -30.4980 Cl  0  0  0  0  0  0  0  0  0  0  0  0
   -5.4650   22.8940  -31.7350 C   0  0  0  0  0  0  0  0  0  0  0  0
   -4.0890   23.0070  -31.8070 O   0  0  0  0  0  0  0  0  0  0  0  0
   -3.2820   21.9470  -32.1540 C   0  0  0  0  0  0  0  0  0  0  0  0
   -3.2100   21.3920  -33.4080 C   0  0  0  0  0  0  0  0  0  0  0  0
   -2.3800   20.3220  -33.7180 C   0  0  0  0  0  0  0  0  0  0  0  0
   -1.5800   19.7830  -32.7100 C   0  0  0  0  0  0  0  0  0  0  0  0
   -0.7780   18.7440  -33.0240 F   0  0  0  0  0  0  0  0  0  0  0  0
   -1.6390   20.3320  -31.4350 C   0  0  0  0  0  0  0  0  0  0  0  0
   -2.4840   21.4080  -31.1540 C   0  0  0  0  0  0  0  0  0  0  0  0
   -6.1000   21.7580  -32.2330 C   0  0  0  0  0  0  0  0  0  0  0  0
   -4.8970   15.3910  -31.6560 H   0  0  0  0  0  0  0  0  0  0  0  0
   -3.9930   16.5020  -34.9920 H   0  0  0  0  0  0  0  0  0  0  0  0
   -4.8716   18.4295  -36.0871 H   0  0  0  0  0  0  0  0  0  0  0  0
   -6.4542   16.6933  -30.5378 H   0  0  0  0  0  0  0  0  0  0  0  0
   -8.2023   20.5171  -33.7891 H   0  0  0  0  0  0  0  0  0  0  0  0
   -9.1399   20.3709  -32.2446 H   0  0  0  0  0  0  0  0  0  0  0  0
   -9.3191   22.5523  -31.5437 H   0  0  0  0  0  0  0  0  0  0  0  0
   -8.2056   24.6081  -30.6374 H   0  0  0  0  0  0  0  0  0  0  0  0
   -3.8394   21.8148  -34.2049 H   0  0  0  0  0  0  0  0  0  0  0  0
   -2.3541   19.9083  -34.7369 H   0  0  0  0  0  0  0  0  0  0  0  0
   -1.0109   19.9130  -30.6350 H   0  0  0  0  0  0  0  0  0  0  0  0
   -2.5173   21.8292  -30.1384 H   0  0  0  0  0  0  0  0  0  0  0  0
   -5.5050   20.9502  -32.6840 H   0  0  0  0  0  0  0  0  0  0  0  0
  1  2  2  3
  2  3  1  0
  3  4  1  0
  4  5  2  0
  5  6  1  0
  6  7  2  0
  7  8  1  0
  8  9  2  0
  9 10  1  0
 10 11  1  0
 11 12  1  0
 12 13  2  0
 13 14  1  0
 14 15  2  0
 15 16  1  0
 15 17  1  0
 17 18  1  0
 18 19  1  0
 19 20  2  0
 20 21  1  0
 21 22  2  0
 22 23  1  0
 22 24  1  0
 24 25  2  0
 17 26  2  0
  7  2  1  0
 26 12  1  0
 10  6  1  0
 25 19  1  0
  1 27  1  0
  3 28  1  0
  4 29  1  0
  8 30  1  0
 11 31  1  0
 11 32  1  0
 13 33  1  0
 14 34  1  0
 20 35  1  0
 21 36  1  0
 24 37  1  0
 25 38  1  0
 26 39  1  0
M  END
>  <smiles>  (35) 
N=c1[nH]cnc2c1cnn2Cc1ccc(Cl)c(Oc2ccc(F)cc2)c1

>  <score_type>  (35) 
oracle

>  <origin>  (35) 
adgpu

>  <m_score__min__energy>  (35) 
-8.3100000000000005

>  <m_primary>  (35) 
energy

$$$$
35:0
     RDKit          3D

 31 33  0  0  0  0  0  0  0  0999 V2000
   -0.6470   19.3270  -33.4060 Cl  0  0  0  0  0  0  0  0  0  0  0  0
   -1.0050   20.3770  -32.0390 C   0  0  0  0  0  0  0  0  0  0  0  0
   -0.1280   20.3700  -30.9520 C   0  0  0  0  0  0  0  0  0  0  0  0
   -0.3690   21.1880  -29.8520 C   0  0  0  0  0  0  0  0  0  0  0  0
   -1.4900   22.0190  -29.8280 C   0  0  0  0  0  0  0  0  0  0  0  0
   -2.3910   22.0440  -30.9080 C   0  0  0  0  0  0  0  0  0  0  0  0
   -3.5640   22.9530  -30.8310 C   0  0  0  0  0  0  0  0  0  0  0  0
   -3.4810   24.3000  -30.8470 N   0  0  0  0  0  0  0  0  0  0  0  0
   -4.7220   24.7580  -30.7790 N   0  0  0  0  0  0  0  0  0  0  0  0
   -5.5130   23.6740  -30.7220 C   0  0  0  0  0  0  0  0  0  0  0  0
   -7.3010   23.7310  -30.6550 S   0  0  0  0  0  0  0  0  0  0  0  0
   -7.5310   23.0570  -32.3380 C   0  0  0  0  0  0  0  0  0  0  0  0
   -7.6250   21.5550  -32.3140 C   0  0  0  0  0  0  0  0  0  0  0  0
   -8.6550   20.9160  -31.6020 C   0  0  0  0  0  0  0  0  0  0  0  0
   -8.7630   19.5220  -31.6160 C   0  0  0  0  0  0  0  0  0  0  0  0
   -7.8450   18.7570  -32.3390 C   0  0  0  0  0  0  0  0  0  0  0  0
   -6.8170   19.3830  -33.0530 C   0  0  0  0  0  0  0  0  0  0  0  0
   -5.5730   18.3360  -34.0520 Br  0  0  0  0  0  0  0  0  0  0  0  0
   -6.7080   20.7780  -33.0400 C   0  0  0  0  0  0  0  0  0  0  0  0
   -4.8150   22.5670  -30.7480 O   0  0  0  0  0  0  0  0  0  0  0  0
   -2.1420   21.2090  -32.0290 C   0  0  0  0  0  0  0  0  0  0  0  0
   -3.2150   21.1870  -33.4340 Cl  0  0  0  0  0  0  0  0  0  0  0  0
    0.7562   19.7158  -30.9653 H   0  0  0  0  0  0  0  0  0  0  0  0
    0.3259   21.1795  -28.9993 H   0  0  0  0  0  0  0  0  0  0  0  0
   -1.6712   22.6621  -28.9541 H   0  0  0  0  0  0  0  0  0  0  0  0
   -8.4575   23.4678  -32.7656 H   0  0  0  0  0  0  0  0  0  0  0  0
   -6.6622   23.3422  -32.9494 H   0  0  0  0  0  0  0  0  0  0  0  0
   -9.3794   21.5155  -31.0312 H   0  0  0  0  0  0  0  0  0  0  0  0
   -9.5714   19.0276  -31.0573 H   0  0  0  0  0  0  0  0  0  0  0  0
   -7.9302   17.6603  -32.3472 H   0  0  0  0  0  0  0  0  0  0  0  0
   -5.8994   21.2687  -33.6017 H   0  0  0  0  0  0  0  0  0  0  0  0
  1  2  1  0
  2  3  2  0
  3  4  1  0
  4  5  2  0
  5  6  1  0
  6  7  1  0
  7  8  2  0
  8  9  1  0
  9 10  2  0
 10 11  1  0
 11 12  1  0
 12 13  1  0
 13 14  2  0
 14 15  1  0
 15 16  2  0
 16 17  1  0
 17 18  1  0
 17 19  2  0
 10 20  1  0
  6 21  2  0
 21 22  1  0
 21  2  1  0
 20  7  1  0
 19 13  1  0
  3 23  1  0
  4 24  1  0
  5 25  1  0
 12 26  1  0
 12 27  1  0
 14 28  1  0
 15 29  1  0
 16 30  1  0
 19 31  1  0
M  END
>  <UniqueID>  (36) 
33

>  <SMILES>  (36) 
Clc1cccc(-c2nnc(SCc3cccc(Br)c3)o2)c1Cl

>  <Energy>  (36) 
66.4345267542322

>  <Genealogy>  (36) 
Clc1cccc(-c2nnc(SCc3cccc(Br)c3)o2)c1Cl (3D coordinates assigned)
Clc1cccc(-c2nnc(SCc3cccc(Br)c3)o2)c1Cl (optimized conformer: 66.4345267542322 kcal/mol)

>  <smiles>  (36) 
Clc1cccc(-c2nnc(SCc3cccc(Br)c3)o2)c1Cl

>  <score_type>  (36) 
oracle

>  <origin>  (36) 
adgpu

>  <m_score__min__energy>  (36) 
-9.3200000000000003

>  <m_primary>  (36) 
energy

$$$$
36:0
     RDKit          3D

 51 54  0  0  0  0  0  0  0  0999 V2000
   -9.5650   21.0020  -32.0780 C   0  0  0  0  0  0  0  0  0  0  0  0
   -8.1600   20.5300  -32.2750 C   0  0  0  0  0  0  0  0  0  0  0  0
   -7.9000   19.2120  -32.6760 C   0  0  0  0  0  0  0  0  0  0  0  0
   -6.6040   18.8510  -32.8590 N   0  0  0  0  0  0  0  0  0  0  0  0
   -6.0770   17.6800  -33.2660 C   0  0  0  0  0  0  0  0  0  0  0  0
   -6.8740   16.4590  -33.5960 C   0  0  0  0  0  0  0  0  0  0  0  0
   -4.7300   17.7360  -33.3680 N   0  0  0  0  0  0  0  0  0  0  0  0
   -4.4060   19.0010  -33.0110 C   0  0  0  0  0  0  0  0  0  0  0  0
   -2.9880   19.4800  -32.9820 C   0  0  0  0  0  0  0  0  0  0  0  0
   -5.5710   19.6880  -32.6780 C   0  0  0  0  0  0  0  0  0  0  0  0
   -5.8170   21.0120  -32.2650 C   0  0  0  0  0  0  0  0  0  0  0  0
   -4.7680   21.9640  -32.0360 N   0  0  0  0  0  0  0  0  0  0  0  0
   -3.9040   22.2970  -33.1740 C   0  0  0  0  0  0  0  0  0  0  0  0
   -4.2930   22.1690  -30.6810 C   0  0  0  0  0  0  0  0  0  0  0  0
   -3.5510   21.1560  -30.0370 C   0  0  0  0  0  0  0  0  0  0  0  0
   -3.1000   21.3030  -28.7140 C   0  0  0  0  0  0  0  0  0  0  0  0
   -2.3260   20.2130  -28.0700 C   0  0  0  0  0  0  0  0  0  0  0  0
   -2.6630   19.5170  -26.9150 C   0  0  0  0  0  0  0  0  0  0  0  0
   -1.6260   18.6280  -26.7290 C   0  0  0  0  0  0  0  0  0  0  0  0
   -0.7430   18.7900  -27.7290 N   0  0  0  0  0  0  0  0  0  0  0  0
    0.5270   18.0910  -27.8680 C   0  0  0  0  0  0  0  0  0  0  0  0
   -1.1470   19.7540  -28.5400 N   0  0  0  0  0  0  0  0  0  0  0  0
   -3.4060   22.4840  -28.0230 C   0  0  0  0  0  0  0  0  0  0  0  0
   -4.1360   23.4970  -28.6400 C   0  0  0  0  0  0  0  0  0  0  0  0
   -4.5740   23.3650  -29.9680 C   0  0  0  0  0  0  0  0  0  0  0  0
   -5.3530   24.5010  -30.5760 C   0  0  0  0  0  0  0  0  0  0  0  0
   -7.1160   21.3910  -32.0850 N   0  0  0  0  0  0  0  0  0  0  0  0
   -9.7800   21.0742  -31.0016 H   0  0  0  0  0  0  0  0  0  0  0  0
   -9.6883   21.9909  -32.5437 H   0  0  0  0  0  0  0  0  0  0  0  0
  -10.2603   20.2881  -32.5437 H   0  0  0  0  0  0  0  0  0  0  0  0
   -8.7183   18.4947  -32.8369 H   0  0  0  0  0  0  0  0  0  0  0  0
   -7.1946   15.9678  -32.6654 H   0  0  0  0  0  0  0  0  0  0  0  0
   -7.7590   16.7463  -34.1827 H   0  0  0  0  0  0  0  0  0  0  0  0
   -6.2548   15.7645  -34.1827 H   0  0  0  0  0  0  0  0  0  0  0  0
   -2.6597   19.5909  -31.9380 H   0  0  0  0  0  0  0  0  0  0  0  0
   -2.3437   18.7496  -33.4933 H   0  0  0  0  0  0  0  0  0  0  0  0
   -2.9186   20.4514  -33.4933 H   0  0  0  0  0  0  0  0  0  0  0  0
   -2.9374   22.6695  -32.8039 H   0  0  0  0  0  0  0  0  0  0  0  0
   -3.7404   21.3975  -33.7857 H   0  0  0  0  0  0  0  0  0  0  0  0
   -4.3864   23.0736  -33.7857 H   0  0  0  0  0  0  0  0  0  0  0  0
   -3.3202   20.2296  -30.5833 H   0  0  0  0  0  0  0  0  0  0  0  0
   -3.5580   19.6467  -26.2888 H   0  0  0  0  0  0  0  0  0  0  0  0
   -1.5365   17.9080  -25.9022 H   0  0  0  0  0  0  0  0  0  0  0  0
    0.9335   17.8673  -26.8706 H   0  0  0  0  0  0  0  0  0  0  0  0
    0.3703   17.1520  -28.4192 H   0  0  0  0  0  0  0  0  0  0  0  0
    1.2365   18.7257  -28.4192 H   0  0  0  0  0  0  0  0  0  0  0  0
   -3.0665   22.6116  -26.9845 H   0  0  0  0  0  0  0  0  0  0  0  0
   -4.3729   24.4133  -28.0794 H   0  0  0  0  0  0  0  0  0  0  0  0
   -5.7795   25.1230  -29.7753 H   0  0  0  0  0  0  0  0  0  0  0  0
   -4.6836   25.1129  -31.1985 H   0  0  0  0  0  0  0  0  0  0  0  0
   -6.1650   24.0970  -31.1985 H   0  0  0  0  0  0  0  0  0  0  0  0
  1  2  1  0
  2  3  2  0
  3  4  1  0
  4  5  1  0
  5  6  1  0
  5  7  2  0
  7  8  1  0
  8  9  1  0
  8 10  2  0
 10 11  1  0
 11 12  1  0
 12 13  1  0
 12 14  1  0
 14 15  2  0
 15 16  1  0
 16 17  1  0
 17 18  1  0
 18 19  2  0
 19 20  1  0
 20 21  1  0
 20 22  1  0
 16 23  2  0
 23 24  1  0
 24 25  2  0
 25 26  1  0
 11 27  2  0
 27  2  1  0
 10  4  1  0
 25 14  1  0
 22 17  2  0
  1 28  1  0
  1 29  1  0
  1 30  1  0
  3 31  1  0
  6 32  1  0
  6 33  1  0
  6 34  1  0
  9 35  1  0
  9 36  1  0
  9 37  1  0
 13 38  1  0
 13 39  1  0
 13 40  1  0
 15 41  1  0
 18 42  1  0
 19 43  1  0
 21 44  1  0
 21 45  1  0
 21 46  1  0
 23 47  1  0
 24 48  1  0
 26 49  1  0
 26 50  1  0
 26 51  1  0
M  END
>  <UniqueID>  (37) 
34

>  <SMILES>  (37) 
Cc1cn2c(C)nc(C)c2c(N(C)c2cc(-c3ccn(C)n3)ccc2C)n1

>  <Energy>  (37) 
130.592022380056

>  <Genealogy>  (37) 
Cc1cn2c(C)nc(C)c2c(N(C)c2cc(-c3ccn(C)n3)ccc2C)n1 (3D coordinates assigned)
Cc1cn2c(C)nc(C)c2c(N(C)c2cc(-c3ccn(C)n3)ccc2C)n1 (optimized conformer: 130.592022380056 kcal/mol)

>  <smiles>  (37) 
Cc1cn2c(C)nc(C)c2c(N(C)c2cc(-c3ccn(C)n3)ccc2C)n1

>  <score_type>  (37) 
oracle

>  <origin>  (37) 
adgpu

>  <m_score__min__energy>  (37) 
-8.9000000000000004

>  <m_primary>  (37) 
energy

$$$$
37:0
     RDKit          3D

 35 37  0  0  0  0  0  0  0  0999 V2000
   -2.6630   24.2060  -29.3430 C   0  0  0  0  0  0  0  0  0  0  0  0
   -3.4930   24.8670  -30.2920 O   0  0  0  0  0  0  0  0  0  0  0  0
   -4.7690   24.4230  -30.6720 C   0  0  0  0  0  0  0  0  0  0  0  0
   -5.9490   24.9820  -30.1470 C   0  0  0  0  0  0  0  0  0  0  0  0
   -7.1960   24.4850  -30.5350 C   0  0  0  0  0  0  0  0  0  0  0  0
   -7.2850   23.4190  -31.4460 C   0  0  0  0  0  0  0  0  0  0  0  0
   -8.6200   22.7990  -31.7640 C   0  0  0  0  0  0  0  0  0  0  0  0
   -9.0760   21.5380  -30.5170 S   0  0  0  0  0  0  0  0  0  0  0  0
   -8.4660   20.1540  -31.4750 C   0  0  0  0  0  0  0  0  0  0  0  0
   -9.1200   18.9880  -31.6290 N   0  0  0  0  0  0  0  0  0  0  0  0
   -8.3210   18.2140  -32.3490 N   0  0  0  0  0  0  0  0  0  0  0  0
   -7.2130   18.9400  -32.6020 C   0  0  0  0  0  0  0  0  0  0  0  0
   -6.0330   18.4460  -33.3370 C   0  0  0  0  0  0  0  0  0  0  0  0
   -6.0330   17.1670  -33.9180 C   0  0  0  0  0  0  0  0  0  0  0  0
   -4.9000   16.7000  -34.5930 C   0  0  0  0  0  0  0  0  0  0  0  0
   -3.7600   17.5030  -34.6900 C   0  0  0  0  0  0  0  0  0  0  0  0
   -3.7510   18.7760  -34.1110 C   0  0  0  0  0  0  0  0  0  0  0  0
   -2.6450   19.5540  -34.2010 F   0  0  0  0  0  0  0  0  0  0  0  0
   -4.8830   19.2480  -33.4380 C   0  0  0  0  0  0  0  0  0  0  0  0
   -7.3030   20.1370  -32.0760 O   0  0  0  0  0  0  0  0  0  0  0  0
   -6.1090   22.8770  -31.9840 C   0  0  0  0  0  0  0  0  0  0  0  0
   -4.8620   23.3800  -31.6010 C   0  0  0  0  0  0  0  0  0  0  0  0
   -2.9900   24.4665  -28.3255 H   0  0  0  0  0  0  0  0  0  0  0  0
   -2.7383   23.1178  -29.4851 H   0  0  0  0  0  0  0  0  0  0  0  0
   -1.6193   24.5230  -29.4851 H   0  0  0  0  0  0  0  0  0  0  0  0
   -5.8895   25.8130  -29.4288 H   0  0  0  0  0  0  0  0  0  0  0  0
   -8.1139   24.9312  -30.1246 H   0  0  0  0  0  0  0  0  0  0  0  0
   -9.3880   23.5864  -31.7759 H   0  0  0  0  0  0  0  0  0  0  0  0
   -8.5523   22.3096  -32.7468 H   0  0  0  0  0  0  0  0  0  0  0  0
   -6.9269   16.5305  -33.8420 H   0  0  0  0  0  0  0  0  0  0  0  0
   -4.9063   15.6987  -35.0484 H   0  0  0  0  0  0  0  0  0  0  0  0
   -2.8704   17.1339  -35.2214 H   0  0  0  0  0  0  0  0  0  0  0  0
   -4.8731   20.2508  -32.9860 H   0  0  0  0  0  0  0  0  0  0  0  0
   -6.1678   22.0529  -32.7102 H   0  0  0  0  0  0  0  0  0  0  0  0
   -3.9456   22.9522  -32.0336 H   0  0  0  0  0  0  0  0  0  0  0  0
  1  2  1  0
  2  3  1  0
  3  4  2  0
  4  5  1  0
  5  6  2  0
  6  7  1  0
  7  8  1  0
  8  9  1  0
  9 10  2  0
 10 11  1  0
 11 12  2  0
 12 13  1  0
 13 14  2  0
 14 15  1  0
 15 16  2  0
 16 17  1  0
 17 18  1  0
 17 19  2  0
 12 20  1  0
  6 21  1  0
 21 22  2  0
 22  3  1  0
 20  9  1  0
 19 13  1  0
  1 23  1  0
  1 24  1  0
  1 25  1  0
  4 26  1  0
  5 27  1  0
  7 28  1  0
  7 29  1  0
 14 30  1  0
 15 31  1  0
 16 32  1  0
 19 33  1  0
 21 34  1  0
 22 35  1  0
M  END
>  <UniqueID>  (38) 
35

>  <SMILES>  (38) 
COc1ccc(CSc2nnc(-c3cccc(F)c3)o2)cc1

>  <Energy>  (38) 
65.81578075476776

>  <Genealogy>  (38) 
COc1ccc(CSc2nnc(-c3cccc(F)c3)o2)cc1 (3D coordinates assigned)
COc1ccc(CSc2nnc(-c3cccc(F)c3)o2)cc1 (optimized conformer: 65.81578075476776 kcal/mol)

>  <smiles>  (38) 
COc1ccc(CSc2nnc(-c3cccc(F)c3)o2)cc1

>  <score_type>  (38) 
oracle

>  <origin>  (38) 
adgpu

>  <m_score__min__energy>  (38) 
-8.4299999999999997

>  <m_primary>  (38) 
energy

$$$$
38:0
     RDKit          3D

 35 36  0  0  0  0  0  0  0  0999 V2000
   -5.3240   25.2840  -30.4960 C   0  0  0  0  0  0  0  0  0  0  0  0
   -3.8700   25.3020  -30.6100 N   0  0  0  0  0  0  0  0  0  0  0  0
   -3.2000   23.9280  -29.7850 S   0  0  0  0  0  0  0  0  0  0  0  0
   -4.0050   23.6300  -28.5520 O   0  0  0  0  0  0  0  0  0  0  0  0
   -1.7890   24.2380  -29.3740 O   0  0  0  0  0  0  0  0  0  0  0  0
   -3.1920   22.5260  -30.8380 C   0  0  0  0  0  0  0  0  0  0  0  0
   -4.3070   21.8110  -31.2450 C   0  0  0  0  0  0  0  0  0  0  0  0
   -3.9980   20.7530  -32.1140 C   0  0  0  0  0  0  0  0  0  0  0  0
   -5.2450   19.6800  -32.7500 S   0  0  0  0  0  0  0  0  0  0  0  0
   -5.1460   19.6210  -34.2480 O   0  0  0  0  0  0  0  0  0  0  0  0
   -5.0310   18.2970  -32.2020 O   0  0  0  0  0  0  0  0  0  0  0  0
   -6.8440   20.2760  -32.3130 C   0  0  0  0  0  0  0  0  0  0  0  0
   -7.0980   21.6540  -32.2850 C   0  0  0  0  0  0  0  0  0  0  0  0
   -8.3670   22.1280  -31.9340 C   0  0  0  0  0  0  0  0  0  0  0  0
   -9.3870   21.2270  -31.6160 C   0  0  0  0  0  0  0  0  0  0  0  0
   -9.1400   19.8520  -31.6500 C   0  0  0  0  0  0  0  0  0  0  0  0
   -7.8730   19.3750  -32.0000 C   0  0  0  0  0  0  0  0  0  0  0  0
   -2.6280   20.6440  -32.3770 C   0  0  0  0  0  0  0  0  0  0  0  0
   -1.8090   19.4900  -33.4230 S   0  0  0  0  0  0  0  0  0  0  0  0
   -0.7380   20.3550  -34.5500 C   0  0  0  0  0  0  0  0  0  0  0  0
   -2.8040   18.6680  -34.1920 O   0  0  0  0  0  0  0  0  0  0  0  0
   -0.9810   18.5640  -32.5760 O   0  0  0  0  0  0  0  0  0  0  0  0
   -1.8210   21.8660  -31.5470 S   0  0  0  0  0  0  0  0  0  0  0  0
   -5.6085   25.2805  -29.4334 H   0  0  0  0  0  0  0  0  0  0  0  0
   -5.7412   26.1771  -30.9843 H   0  0  0  0  0  0  0  0  0  0  0  0
   -5.7189   24.3809  -30.9843 H   0  0  0  0  0  0  0  0  0  0  0  0
   -5.3307   22.0485  -30.9199 H   0  0  0  0  0  0  0  0  0  0  0  0
   -6.2979   22.3647  -32.5395 H   0  0  0  0  0  0  0  0  0  0  0  0
   -8.5618   23.2103  -31.9084 H   0  0  0  0  0  0  0  0  0  0  0  0
  -10.3840   21.6001  -31.3390 H   0  0  0  0  0  0  0  0  0  0  0  0
   -9.9438   19.1435  -31.4010 H   0  0  0  0  0  0  0  0  0  0  0  0
   -7.6828   18.2920  -32.0300 H   0  0  0  0  0  0  0  0  0  0  0  0
   -0.0062   20.9460  -33.9798 H   0  0  0  0  0  0  0  0  0  0  0  0
   -0.2085   19.6282  -35.1835 H   0  0  0  0  0  0  0  0  0  0  0  0
   -1.3371   21.0256  -35.1835 H   0  0  0  0  0  0  0  0  0  0  0  0
  1  2  1  0
  2  3  1  0
  3  4  2  0
  3  5  2  0
  3  6  1  0
  6  7  2  0
  7  8  1  0
  8  9  1  0
  9 10  2  0
  9 11  2  0
  9 12  1  0
 12 13  2  0
 13 14  1  0
 14 15  2  0
 15 16  1  0
 16 17  2  0
  8 18  2  0
 18 19  1  0
 19 20  1  0
 19 21  2  0
 19 22  2  0
 18 23  1  0
 23  6  1  0
 17 12  1  0
  1 24  1  0
  1 25  1  0
  1 26  1  0
  7 27  1  0
 13 28  1  0
 14 29  1  0
 15 30  1  0
 16 31  1  0
 17 32  1  0
 20 33  1  0
 20 34  1  0
 20 35  1  0
M  CHG  1   2  -1
M  END
>  <UniqueID>  (39) 
36

>  <SMILES>  (39) 
C[N-]S(=O)(=O)c1cc(S(=O)(=O)c2ccccc2)c(S(C)(=O)=O)s1

>  <Energy>  (39) 
58.7285742647756

>  <Genealogy>  (39) 
C[N-]S(=O)(=O)c1cc(S(=O)(=O)c2ccccc2)c(S(C)(=O)=O)s1 (protonated)
C[N-]S(=O)(=O)c1cc(S(=O)(=O)c2ccccc2)c(S(C)(=O)=O)s1 (3D coordinates assigned)
C[N-]S(=O)(=O)c1cc(S(=O)(=O)c2ccccc2)c(S(C)(=O)=O)s1 (optimized conformer: 58.7285742647756 kcal/mol)

>  <smiles>  (39) 
CNS(=O)(=O)c1cc(S(=O)(=O)c2ccccc2)c(S(C)(=O)=O)s1

>  <score_type>  (39) 
oracle

>  <origin>  (39) 
adgpu

>  <m_score__min__energy>  (39) 
-9.5600000000000005

>  <m_primary>  (39) 
energy

$$$$
39:0
     RDKit          3D

 44 46  0  0  0  0  0  0  0  0999 V2000
   -1.1580   26.1790  -28.2360 C   0  0  0  0  0  0  0  0  0  0  0  0
   -1.9410   25.2120  -28.9320 O   0  0  0  0  0  0  0  0  0  0  0  0
   -2.1870   23.9070  -28.4770 C   0  0  0  0  0  0  0  0  0  0  0  0
   -1.4720   23.3520  -27.4010 C   0  0  0  0  0  0  0  0  0  0  0  0
   -1.7440   22.0530  -26.9740 C   0  0  0  0  0  0  0  0  0  0  0  0
   -2.7100   21.2850  -27.6240 C   0  0  0  0  0  0  0  0  0  0  0  0
   -3.0420   19.6510  -27.0870 Cl  0  0  0  0  0  0  0  0  0  0  0  0
   -3.4240   21.8230  -28.6970 C   0  0  0  0  0  0  0  0  0  0  0  0
   -3.1790   23.1370  -29.1200 C   0  0  0  0  0  0  0  0  0  0  0  0
   -4.1160   23.8250  -30.4440 S   0  0  0  0  0  0  0  0  0  0  0  0
   -3.8740   25.3050  -30.4960 O   0  0  0  0  0  0  0  0  0  0  0  0
   -3.6700   23.1790  -31.7240 O   0  0  0  0  0  0  0  0  0  0  0  0
   -5.8120   23.5270  -30.2140 N   0  0  0  0  0  0  0  0  0  0  0  0
   -6.5830   22.5780  -30.9640 C   0  0  0  0  0  0  0  0  0  0  0  0
   -7.9570   22.8050  -31.1260 C   0  0  0  0  0  0  0  0  0  0  0  0
   -8.7500   21.8840  -31.8140 C   0  0  0  0  0  0  0  0  0  0  0  0
   -8.1730   20.7320  -32.3540 C   0  0  0  0  0  0  0  0  0  0  0  0
   -6.7940   20.5020  -32.2220 C   0  0  0  0  0  0  0  0  0  0  0  0
   -6.0660   19.0770  -32.9650 S   0  0  0  0  0  0  0  0  0  0  0  0
   -6.9210   17.8750  -32.6540 O   0  0  0  0  0  0  0  0  0  0  0  0
   -6.0040   19.2350  -34.4610 O   0  0  0  0  0  0  0  0  0  0  0  0
   -4.4690   18.8020  -32.3430 N   0  0  0  0  0  0  0  0  0  0  0  0
   -3.3130   19.6080  -32.6230 C   0  0  0  0  0  0  0  0  0  0  0  0
   -2.8760   19.8690  -33.9370 C   0  0  0  0  0  0  0  0  0  0  0  0
   -1.7080   20.6120  -34.1610 C   0  0  0  0  0  0  0  0  0  0  0  0
   -0.9740   21.1040  -33.0800 C   0  0  0  0  0  0  0  0  0  0  0  0
   -1.4250   20.8790  -31.7770 C   0  0  0  0  0  0  0  0  0  0  0  0
   -0.4920   21.4730  -30.4290 Cl  0  0  0  0  0  0  0  0  0  0  0  0
   -2.5900   20.1320  -31.5480 C   0  0  0  0  0  0  0  0  0  0  0  0
   -6.0040   21.4260  -31.5280 C   0  0  0  0  0  0  0  0  0  0  0  0
   -1.2752   26.0342  -27.1519 H   0  0  0  0  0  0  0  0  0  0  0  0
   -0.0993   26.0592  -28.5096 H   0  0  0  0  0  0  0  0  0  0  0  0
   -1.4953   27.1896  -28.5096 H   0  0  0  0  0  0  0  0  0  0  0  0
   -0.6957   23.9445  -26.8946 H   0  0  0  0  0  0  0  0  0  0  0  0
   -1.1938   21.6315  -26.1198 H   0  0  0  0  0  0  0  0  0  0  0  0
   -4.1812   21.2136  -29.2120 H   0  0  0  0  0  0  0  0  0  0  0  0
   -8.4135   23.7146  -30.7084 H   0  0  0  0  0  0  0  0  0  0  0  0
   -9.8286   22.0656  -31.9307 H   0  0  0  0  0  0  0  0  0  0  0  0
   -8.8016   20.0019  -32.8849 H   0  0  0  0  0  0  0  0  0  0  0  0
   -3.4542   19.4879  -34.7916 H   0  0  0  0  0  0  0  0  0  0  0  0
   -1.3698   20.8074  -35.1893 H   0  0  0  0  0  0  0  0  0  0  0  0
   -0.0447   21.6663  -33.2535 H   0  0  0  0  0  0  0  0  0  0  0  0
   -2.9358   19.9580  -30.5184 H   0  0  0  0  0  0  0  0  0  0  0  0
   -4.9232   21.2504  -31.4228 H   0  0  0  0  0  0  0  0  0  0  0  0
  1  2  1  0
  2  3  1  0
  3  4  2  0
  4  5  1  0
  5  6  2  0
  6  7  1  0
  6  8  1  0
  8  9  2  0
  9 10  1  0
 10 11  2  0
 10 12  2  0
 10 13  1  0
 13 14  1  0
 14 15  2  0
 15 16  1  0
 16 17  2  0
 17 18  1  0
 18 19  1  0
 19 20  2  0
 19 21  2  0
 19 22  1  0
 22 23  1  0
 23 24  2  0
 24 25  1  0
 25 26  2  0
 26 27  1  0
 27 28  1  0
 27 29  2  0
 18 30  2  0
  9  3  1  0
 30 14  1  0
 29 23  1  0
  1 31  1  0
  1 32  1  0
  1 33  1  0
  4 34  1  0
  5 35  1  0
  8 36  1  0
 15 37  1  0
 16 38  1  0
 17 39  1  0
 24 40  1  0
 25 41  1  0
 26 42  1  0
 29 43  1  0
 30 44  1  0
M  CHG  2  13  -1  22  -1
M  END
>  <UniqueID>  (40) 
37

>  <SMILES>  (40) 
COc1ccc(Cl)cc1S(=O)(=O)[N-]c1cccc(S(=O)(=O)[N-]c2cccc(Cl)c2)c1

>  <Energy>  (40) 
54.58619540601533

>  <Genealogy>  (40) 
COc1ccc(Cl)cc1S(=O)(=O)[N-]c1cccc(S(=O)(=O)[N-]c2cccc(Cl)c2)c1 (protonated)
COc1ccc(Cl)cc1S(=O)(=O)[N-]c1cccc(S(=O)(=O)[N-]c2cccc(Cl)c2)c1 (3D coordinates assigned)
COc1ccc(Cl)cc1S(=O)(=O)[N-]c1cccc(S(=O)(=O)[N-]c2cccc(Cl)c2)c1 (optimized conformer: 54.58619540601533 kcal/mol)

>  <smiles>  (40) 
COc1ccc(Cl)cc1S(=O)(=O)Nc1cccc(S(=O)(=O)Nc2cccc(Cl)c2)c1

>  <score_type>  (40) 
oracle

>  <origin>  (40) 
adgpu

>  <m_score__min__energy>  (40) 
-11.67

>  <m_primary>  (40) 
energy

$$$$
40:0
     RDKit          3D

 32 34  0  0  0  0  0  0  0  0999 V2000
   -6.6900   23.7470  -31.5110 C   0  0  0  0  0  0  0  0  0  0  0  0
   -5.4060   23.4490  -32.0510 O   0  0  0  0  0  0  0  0  0  0  0  0
   -4.2410   23.1420  -31.3200 C   0  0  0  0  0  0  0  0  0  0  0  0
   -3.7920   21.8060  -31.3170 C   0  0  0  0  0  0  0  0  0  0  0  0
   -4.4880   20.7560  -32.0900 C   0  0  0  0  0  0  0  0  0  0  0  0
   -5.8040   20.4140  -31.7420 C   0  0  0  0  0  0  0  0  0  0  0  0
   -6.4930   19.4200  -32.4460 C   0  0  0  0  0  0  0  0  0  0  0  0
   -8.1460   19.0460  -31.9760 Cl  0  0  0  0  0  0  0  0  0  0  0  0
   -5.8570   18.7450  -33.5060 C   0  0  0  0  0  0  0  0  0  0  0  0
   -6.5070   17.7500  -34.2380 O   0  0  0  0  0  0  0  0  0  0  0  0
   -4.5380   19.0700  -33.8390 C   0  0  0  0  0  0  0  0  0  0  0  0
   -3.8490   20.0590  -33.1320 C   0  0  0  0  0  0  0  0  0  0  0  0
   -2.5220   20.3240  -33.4570 O   0  0  0  0  0  0  0  0  0  0  0  0
   -2.7360   21.4520  -30.5950 O   0  0  0  0  0  0  0  0  0  0  0  0
   -2.0310   22.3100  -29.8690 C   0  0  0  0  0  0  0  0  0  0  0  0
   -0.9280   21.8430  -29.1450 C   0  0  0  0  0  0  0  0  0  0  0  0
   -0.1660   22.7250  -28.3780 C   0  0  0  0  0  0  0  0  0  0  0  0
    0.9270   22.2550  -27.6620 O   0  0  0  0  0  0  0  0  0  0  0  0
   -0.5020   24.0800  -28.3300 C   0  0  0  0  0  0  0  0  0  0  0  0
   -1.6020   24.5640  -29.0460 C   0  0  0  0  0  0  0  0  0  0  0  0
   -1.9000   25.9200  -28.9680 O   0  0  0  0  0  0  0  0  0  0  0  0
   -2.3840   23.6780  -29.8280 C   0  0  0  0  0  0  0  0  0  0  0  0
   -3.5110   24.0920  -30.5690 C   0  0  0  0  0  0  0  0  0  0  0  0
   -3.8640   25.3020  -30.5550 O   0  0  0  0  0  0  0  0  0  0  0  0
   -6.6375   23.7348  -30.4123 H   0  0  0  0  0  0  0  0  0  0  0  0
   -7.0090   24.7430  -31.8518 H   0  0  0  0  0  0  0  0  0  0  0  0
   -7.4151   22.9933  -31.8518 H   0  0  0  0  0  0  0  0  0  0  0  0
   -6.2988   20.9325  -30.9075 H   0  0  0  0  0  0  0  0  0  0  0  0
   -6.8710   17.9060  -35.1700 H   0  0  0  0  0  0  0  0  0  0  0  0
   -4.0385   18.5423  -34.6649 H   0  0  0  0  0  0  0  0  0  0  0  0
   -0.6608   20.7765  -29.1808 H   0  0  0  0  0  0  0  0  0  0  0  0
    0.1027   24.7714  -27.7248 H   0  0  0  0  0  0  0  0  0  0  0  0
  1  2  1  0
  2  3  1  0
  3  4  2  0
  4  5  1  0
  5  6  2  0
  6  7  1  0
  7  8  1  0
  7  9  2  0
  9 10  1  0
  9 11  1  0
 11 12  2  0
 12 13  1  0
  4 14  1  0
 14 15  1  0
 15 16  2  0
 16 17  1  0
 17 18  1  0
 17 19  2  0
 19 20  1  0
 20 21  1  0
 20 22  2  0
 22 23  1  0
 23 24  2  0
 23  3  1  0
 12  5  1  0
 22 15  1  0
  1 25  1  0
  1 26  1  0
  1 27  1  0
  6 28  1  0
 10 29  1  0
 11 30  1  0
 16 31  1  0
 19 32  1  0
M  CHG  3  13  -1  18  -1  21  -1
M  END
>  <UniqueID>  (41) 
38

>  <SMILES>  (41) 
COc1c(-c2cc(Cl)c(O)cc2[O-])oc2cc([O-])cc([O-])c2c1=O

>  <Energy>  (41) 
52.02989149556206

>  <Genealogy>  (41) 
COc1c(-c2cc(Cl)c(O)cc2[O-])oc2cc([O-])cc([O-])c2c1=O (protonated)
COc1c(-c2cc(Cl)c(O)cc2[O-])oc2cc([O-])cc([O-])c2c1=O (3D coordinates assigned)
COc1c(-c2cc(Cl)c(O)cc2[O-])oc2cc([O-])cc([O-])c2c1=O (optimized conformer: 52.02989149556206 kcal/mol)

>  <smiles>  (41) 
COc1c(-c2cc(Cl)c(O)cc2O)oc2cc(O)cc(O)c2c1=O

>  <score_type>  (41) 
oracle

>  <origin>  (41) 
adgpu

>  <m_score__min__energy>  (41) 
-10.58

>  <m_primary>  (41) 
energy

$$$$
41:0
     RDKit          3D

 43 45  0  0  0  0  0  0  0  0999 V2000
   -0.4000   25.0230  -26.5930 C   0  0  0  0  0  0  0  0  0  0  0  0
   -0.9730   24.3020  -27.7750 C   0  0  0  0  0  0  0  0  0  0  0  0
   -0.5980   22.9780  -28.0400 C   0  0  0  0  0  0  0  0  0  0  0  0
   -1.1540   22.2930  -29.1210 C   0  0  0  0  0  0  0  0  0  0  0  0
   -2.0960   22.9190  -29.9370 C   0  0  0  0  0  0  0  0  0  0  0  0
   -2.4990   24.2390  -29.6700 C   0  0  0  0  0  0  0  0  0  0  0  0
   -3.4790   24.9140  -30.4700 N   0  0  0  0  0  0  0  0  0  0  0  0
   -5.1640   25.0540  -30.0820 S   0  0  0  0  0  0  0  0  0  0  0  0
   -5.6520   26.4130  -30.4920 O   0  0  0  0  0  0  0  0  0  0  0  0
   -5.3380   24.8950  -28.5980 O   0  0  0  0  0  0  0  0  0  0  0  0
   -6.0920   23.7970  -30.8980 C   0  0  0  0  0  0  0  0  0  0  0  0
   -7.4370   24.0120  -31.2130 C   0  0  0  0  0  0  0  0  0  0  0  0
   -8.1750   23.0140  -31.8510 C   0  0  0  0  0  0  0  0  0  0  0  0
   -7.5690   21.8030  -32.1940 C   0  0  0  0  0  0  0  0  0  0  0  0
   -6.2150   21.5800  -31.9030 C   0  0  0  0  0  0  0  0  0  0  0  0
   -5.6150   20.3220  -32.2490 N   0  0  0  0  0  0  0  0  0  0  0  0
   -6.3530   19.0900  -32.3330 C   0  0  0  0  0  0  0  0  0  0  0  0
   -7.4470   18.9700  -31.7160 O   0  0  0  0  0  0  0  0  0  0  0  0
   -5.8180   17.9410  -33.1000 C   0  0  0  0  0  0  0  0  0  0  0  0
   -6.5170   16.7190  -33.1260 C   0  0  0  0  0  0  0  0  0  0  0  0
   -6.0220   15.6320  -33.8550 C   0  0  0  0  0  0  0  0  0  0  0  0
   -4.8310   15.7550  -34.5740 C   0  0  0  0  0  0  0  0  0  0  0  0
   -4.1320   16.9660  -34.5630 C   0  0  0  0  0  0  0  0  0  0  0  0
   -2.9800   17.0900  -35.2700 F   0  0  0  0  0  0  0  0  0  0  0  0
   -4.6200   18.0560  -33.8310 C   0  0  0  0  0  0  0  0  0  0  0  0
   -5.4870   22.5760  -31.2300 C   0  0  0  0  0  0  0  0  0  0  0  0
   -1.9330   24.9230  -28.5880 C   0  0  0  0  0  0  0  0  0  0  0  0
   -0.7688   24.5590  -25.6664 H   0  0  0  0  0  0  0  0  0  0  0  0
    0.6978   24.9609  -26.6225 H   0  0  0  0  0  0  0  0  0  0  0  0
   -0.7084   26.0785  -26.6225 H   0  0  0  0  0  0  0  0  0  0  0  0
    0.1374   22.4769  -27.3934 H   0  0  0  0  0  0  0  0  0  0  0  0
   -0.8487   21.2571  -29.3300 H   0  0  0  0  0  0  0  0  0  0  0  0
   -2.5253   22.3777  -30.7929 H   0  0  0  0  0  0  0  0  0  0  0  0
   -7.9144   24.9695  -30.9575 H   0  0  0  0  0  0  0  0  0  0  0  0
   -9.2368   23.1814  -32.0844 H   0  0  0  0  0  0  0  0  0  0  0  0
   -8.1569   21.0199  -32.6951 H   0  0  0  0  0  0  0  0  0  0  0  0
   -4.5750   20.2810  -32.3360 H   0  0  0  0  0  0  0  0  0  0  0  0
   -7.4600   16.6180  -32.5687 H   0  0  0  0  0  0  0  0  0  0  0  0
   -6.5717   14.6792  -33.8618 H   0  0  0  0  0  0  0  0  0  0  0  0
   -4.4434   14.9005  -35.1481 H   0  0  0  0  0  0  0  0  0  0  0  0
   -4.0651   19.0058  -33.8272 H   0  0  0  0  0  0  0  0  0  0  0  0
   -4.4354   22.3967  -30.9617 H   0  0  0  0  0  0  0  0  0  0  0  0
   -2.2435   25.9562  -28.3733 H   0  0  0  0  0  0  0  0  0  0  0  0
  1  2  1  0
  2  3  2  0
  3  4  1  0
  4  5  2  0
  5  6  1  0
  6  7  1  0
  7  8  1  0
  8  9  2  0
  8 10  2  0
  8 11  1  0
 11 12  2  0
 12 13  1  0
 13 14  2  0
 14 15  1  0
 15 16  1  0
 16 17  1  0
 17 18  2  0
 17 19  1  0
 19 20  2  0
 20 21  1  0
 21 22  2  0
 22 23  1  0
 23 24  1  0
 23 25  2  0
 15 26  2  0
  6 27  2  0
 27  2  1  0
 26 11  1  0
 25 19  1  0
  1 28  1  0
  1 29  1  0
  1 30  1  0
  3 31  1  0
  4 32  1  0
  5 33  1  0
 12 34  1  0
 13 35  1  0
 14 36  1  0
 16 37  1  0
 20 38  1  0
 21 39  1  0
 22 40  1  0
 25 41  1  0
 26 42  1  0
 27 43  1  0
M  CHG  1   7  -1
M  END
>  <UniqueID>  (42) 
39

>  <SMILES>  (42) 
Cc1cccc([N-]S(=O)(=O)c2cccc(NC(=O)c3cccc(F)c3)c2)c1

>  <Energy>  (42) 
52.59163944436704

>  <Genealogy>  (42) 
Cc1cccc([N-]S(=O)(=O)c2cccc(NC(=O)c3cccc(F)c3)c2)c1 (protonated)
Cc1cccc([N-]S(=O)(=O)c2cccc(NC(=O)c3cccc(F)c3)c2)c1 (3D coordinates assigned)
Cc1cccc([N-]S(=O)(=O)c2cccc(NC(=O)c3cccc(F)c3)c2)c1 (optimized conformer: 52.59163944436704 kcal/mol)

>  <smiles>  (42) 
Cc1cccc(NS(=O)(=O)c2cccc(NC(=O)c3cccc(F)c3)c2)c1

>  <score_type>  (42) 
oracle

>  <origin>  (42) 
adgpu

>  <m_score__min__energy>  (42) 
-9.9299999999999997

>  <m_primary>  (42) 
energy

$$$$
42:0
     RDKit          3D

 39 42  0  0  0  0  0  0  0  0999 V2000
    2.8800   24.5020  -24.4880 O   0  0  0  0  0  0  0  0  0  0  0  0
    2.0120   24.2130  -25.5340 C   0  0  0  0  0  0  0  0  0  0  0  0
    0.7740   23.6200  -25.2730 C   0  0  0  0  0  0  0  0  0  0  0  0
   -0.1010   23.3280  -26.3240 C   0  0  0  0  0  0  0  0  0  0  0  0
    0.2530   23.6290  -27.6530 C   0  0  0  0  0  0  0  0  0  0  0  0
   -0.6870   23.3120  -28.7570 C   0  0  0  0  0  0  0  0  0  0  0  0
   -2.0030   23.7230  -28.8750 C   0  0  0  0  0  0  0  0  0  0  0  0
   -2.4300   23.1550  -30.0620 C   0  0  0  0  0  0  0  0  0  0  0  0
   -3.7850   23.2410  -30.6620 C   0  0  0  0  0  0  0  0  0  0  0  0
   -4.4090   22.0610  -31.1030 C   0  0  0  0  0  0  0  0  0  0  0  0
   -5.6980   22.0880  -31.6640 C   0  0  0  0  0  0  0  0  0  0  0  0
   -6.3340   20.8210  -32.1010 C   0  0  0  0  0  0  0  0  0  0  0  0
   -5.7380   20.0270  -33.0970 C   0  0  0  0  0  0  0  0  0  0  0  0
   -6.3460   18.8400  -33.5130 C   0  0  0  0  0  0  0  0  0  0  0  0
   -7.5550   18.4350  -32.9430 C   0  0  0  0  0  0  0  0  0  0  0  0
   -8.1640   19.2180  -31.9560 C   0  0  0  0  0  0  0  0  0  0  0  0
   -9.3710   18.8020  -31.3980 O   0  0  0  0  0  0  0  0  0  0  0  0
   -7.5550   20.4100  -31.5380 C   0  0  0  0  0  0  0  0  0  0  0  0
   -6.3600   23.3230  -31.8010 C   0  0  0  0  0  0  0  0  0  0  0  0
   -7.6210   23.3950  -32.3840 O   0  0  0  0  0  0  0  0  0  0  0  0
   -5.7410   24.4990  -31.3750 C   0  0  0  0  0  0  0  0  0  0  0  0
   -4.4600   24.4700  -30.8170 C   0  0  0  0  0  0  0  0  0  0  0  0
   -3.8650   25.6720  -30.4510 O   0  0  0  0  0  0  0  0  0  0  0  0
   -1.4230   22.4410  -30.6020 N   0  0  0  0  0  0  0  0  0  0  0  0
   -0.3650   22.5400  -29.8130 N   0  0  0  0  0  0  0  0  0  0  0  0
    1.5040   24.2260  -27.9040 C   0  0  0  0  0  0  0  0  0  0  0  0
    2.3760   24.5150  -26.8480 C   0  0  0  0  0  0  0  0  0  0  0  0
    0.4869   23.3822  -24.2381 H   0  0  0  0  0  0  0  0  0  0  0  0
   -1.0732   22.8596  -26.1108 H   0  0  0  0  0  0  0  0  0  0  0  0
   -2.5780   24.3563  -28.1834 H   0  0  0  0  0  0  0  0  0  0  0  0
   -3.8803   21.1011  -31.0076 H   0  0  0  0  0  0  0  0  0  0  0  0
   -4.7872   20.3425  -33.5513 H   0  0  0  0  0  0  0  0  0  0  0  0
   -5.8718   18.2234  -34.2907 H   0  0  0  0  0  0  0  0  0  0  0  0
   -8.0296   17.4983  -33.2707 H   0  0  0  0  0  0  0  0  0  0  0  0
   -9.4400   17.9430  -30.8650 H   0  0  0  0  0  0  0  0  0  0  0  0
   -8.0356   21.0274  -30.7648 H   0  0  0  0  0  0  0  0  0  0  0  0
   -6.2671   25.4593  -31.4796 H   0  0  0  0  0  0  0  0  0  0  0  0
    1.7974   24.4666  -28.9365 H   0  0  0  0  0  0  0  0  0  0  0  0
    3.3508   24.9813  -27.0537 H   0  0  0  0  0  0  0  0  0  0  0  0
  1  2  1  0
  2  3  2  0
  3  4  1  0
  4  5  2  0
  5  6  1  0
  6  7  2  0
  7  8  1  0
  8  9  1  0
  9 10  2  0
 10 11  1  0
 11 12  1  0
 12 13  2  0
 13 14  1  0
 14 15  2  0
 15 16  1  0
 16 17  1  0
 16 18  2  0
 11 19  2  0
 19 20  1  0
 19 21  1  0
 21 22  2  0
 22 23  1  0
  8 24  2  0
 24 25  1  0
  5 26  1  0
 26 27  2  0
 27  2  1  0
 25  6  1  0
 22  9  1  0
 18 12  1  0
  3 28  1  0
  4 29  1  0
  7 30  1  0
 10 31  1  0
 13 32  1  0
 14 33  1  0
 15 34  1  0
 17 35  1  0
 18 36  1  0
 21 37  1  0
 26 38  1  0
 27 39  1  0
M  CHG  4   1  -1  20  -1  23  -1  25  -1
M  END
>  <UniqueID>  (43) 
40

>  <SMILES>  (43) 
[O-]c1ccc(-c2cc(-c3cc(-c4cccc(O)c4)c([O-])cc3[O-])n[n-]2)cc1

>  <Energy>  (43) 
85.62190950917982

>  <Genealogy>  (43) 
[O-]c1ccc(-c2cc(-c3cc(-c4cccc(O)c4)c([O-])cc3[O-])n[n-]2)cc1 (protonated)
[O-]c1ccc(-c2cc(-c3cc(-c4cccc(O)c4)c([O-])cc3[O-])n[n-]2)cc1 (3D coordinates assigned)
[O-]c1ccc(-c2cc(-c3cc(-c4cccc(O)c4)c([O-])cc3[O-])n[n-]2)cc1 (optimized conformer: 85.62190950917982 kcal/mol)

>  <smiles>  (43) 
Oc1ccc(-c2cc(-c3cc(-c4cccc(O)c4)c(O)cc3O)n[nH]2)cc1

>  <score_type>  (43) 
oracle

>  <origin>  (43) 
adgpu

>  <m_score__min__energy>  (43) 
-12.83

>  <m_primary>  (43) 
energy

$$$$
43:0
     RDKit          3D

 42 45  0  0  0  0  0  0  0  0999 V2000
   -5.2050   20.7970  -33.0990 C   0  0  0  0  0  0  0  0  0  0  0  0
   -6.4550   21.0740  -32.3080 C   0  0  0  0  0  0  0  0  0  0  0  0
   -7.3090   20.0110  -31.9650 C   0  0  0  0  0  0  0  0  0  0  0  0
   -8.4750   20.2480  -31.2340 C   0  0  0  0  0  0  0  0  0  0  0  0
   -8.8040   21.5460  -30.8400 C   0  0  0  0  0  0  0  0  0  0  0  0
   -7.9700   22.6120  -31.1810 C   0  0  0  0  0  0  0  0  0  0  0  0
   -6.8010   22.3890  -31.9220 C   0  0  0  0  0  0  0  0  0  0  0  0
   -5.7740   23.8010  -32.3540 S   0  0  0  0  0  0  0  0  0  0  0  0
   -4.6590   23.5180  -30.9850 C   0  0  0  0  0  0  0  0  0  0  0  0
   -4.2920   22.2860  -30.5810 N   0  0  0  0  0  0  0  0  0  0  0  0
   -3.4430   22.5170  -29.5630 C   0  0  0  0  0  0  0  0  0  0  0  0
   -2.7130   21.4330  -28.8730 C   0  0  0  0  0  0  0  0  0  0  0  0
   -3.1090   20.9880  -27.5990 C   0  0  0  0  0  0  0  0  0  0  0  0
   -2.3960   19.9760  -26.9520 C   0  0  0  0  0  0  0  0  0  0  0  0
   -1.2730   19.4100  -27.5620 C   0  0  0  0  0  0  0  0  0  0  0  0
   -0.8580   19.8630  -28.8160 C   0  0  0  0  0  0  0  0  0  0  0  0
   -1.5700   20.8750  -29.4670 C   0  0  0  0  0  0  0  0  0  0  0  0
   -3.3320   23.8890  -29.3720 C   0  0  0  0  0  0  0  0  0  0  0  0
   -2.5820   24.6090  -28.3210 C   0  0  0  0  0  0  0  0  0  0  0  0
   -1.3470   25.2220  -28.6020 C   0  0  0  0  0  0  0  0  0  0  0  0
   -0.6440   25.8830  -27.5910 C   0  0  0  0  0  0  0  0  0  0  0  0
   -1.1560   25.9240  -26.2910 C   0  0  0  0  0  0  0  0  0  0  0  0
   -2.3700   25.2980  -26.0000 C   0  0  0  0  0  0  0  0  0  0  0  0
   -3.0790   24.6360  -27.0070 C   0  0  0  0  0  0  0  0  0  0  0  0
   -4.0980   24.5200  -30.2800 N   0  0  0  0  0  0  0  0  0  0  0  0
   -4.3683   20.6116  -32.4094 H   0  0  0  0  0  0  0  0  0  0  0  0
   -5.3609   19.9116  -33.7329 H   0  0  0  0  0  0  0  0  0  0  0  0
   -4.9722   21.6654  -33.7329 H   0  0  0  0  0  0  0  0  0  0  0  0
   -7.0570   18.9860  -32.2745 H   0  0  0  0  0  0  0  0  0  0  0  0
   -9.1358   19.4098  -30.9680 H   0  0  0  0  0  0  0  0  0  0  0  0
   -9.7209   21.7289  -30.2605 H   0  0  0  0  0  0  0  0  0  0  0  0
   -8.2315   23.6331  -30.8665 H   0  0  0  0  0  0  0  0  0  0  0  0
   -3.9847   21.4392  -27.1096 H   0  0  0  0  0  0  0  0  0  0  0  0
   -2.7188   19.6240  -25.9611 H   0  0  0  0  0  0  0  0  0  0  0  0
   -0.7165   18.6082  -27.0546 H   0  0  0  0  0  0  0  0  0  0  0  0
    0.0305   19.4230  -29.2924 H   0  0  0  0  0  0  0  0  0  0  0  0
   -1.2327   21.2359  -30.4499 H   0  0  0  0  0  0  0  0  0  0  0  0
   -0.9336   25.1808  -29.6205 H   0  0  0  0  0  0  0  0  0  0  0  0
    0.3145   26.3722  -27.8189 H   0  0  0  0  0  0  0  0  0  0  0  0
   -0.6032   26.4488  -25.4979 H   0  0  0  0  0  0  0  0  0  0  0  0
   -2.7696   25.3258  -24.9755 H   0  0  0  0  0  0  0  0  0  0  0  0
   -4.0290   24.1347  -26.7698 H   0  0  0  0  0  0  0  0  0  0  0  0
  1  2  1  0
  2  3  2  0
  3  4  1  0
  4  5  2  0
  5  6  1  0
  6  7  2  0
  7  8  1  0
  8  9  1  0
  9 10  2  0
 10 11  1  0
 11 12  1  0
 12 13  2  0
 13 14  1  0
 14 15  2  0
 15 16  1  0
 16 17  2  0
 11 18  2  0
 18 19  1  0
 19 20  2  0
 20 21  1  0
 21 22  2  0
 22 23  1  0
 23 24  2  0
 18 25  1  0
  7  2  1  0
 25  9  1  0
 17 12  1  0
 24 19  1  0
  1 26  1  0
  1 27  1  0
  1 28  1  0
  3 29  1  0
  4 30  1  0
  5 31  1  0
  6 32  1  0
 13 33  1  0
 14 34  1  0
 15 35  1  0
 16 36  1  0
 17 37  1  0
 20 38  1  0
 21 39  1  0
 22 40  1  0
 23 41  1  0
 24 42  1  0
M  CHG  1  25  -1
M  END
>  <UniqueID>  (44) 
41

>  <SMILES>  (44) 
Cc1ccccc1Sc1nc(-c2ccccc2)c(-c2ccccc2)[n-]1

>  <Energy>  (44) 
78.17670546520017

>  <Genealogy>  (44) 
Cc1ccccc1Sc1nc(-c2ccccc2)c(-c2ccccc2)[n-]1 (protonated)
Cc1ccccc1Sc1nc(-c2ccccc2)c(-c2ccccc2)[n-]1 (3D coordinates assigned)
Cc1ccccc1Sc1nc(-c2ccccc2)c(-c2ccccc2)[n-]1 (optimized conformer: 78.17670546520017 kcal/mol)

>  <smiles>  (44) 
Cc1ccccc1Sc1nc(-c2ccccc2)c(-c2ccccc2)[nH]1

>  <score_type>  (44) 
oracle

>  <origin>  (44) 
adgpu

>  <m_score__min__energy>  (44) 
-9.4299999999999997

>  <m_primary>  (44) 
energy

$$$$
44:0
     RDKit          3D

 66 69  0  0  0  0  0  0  0  0999 V2000
   -1.2840   26.2680  -26.1560 C   0  0  0  0  0  0  0  0  0  0  0  0
   -0.8270   26.8740  -27.4790 C   0  0  0  0  0  0  0  0  0  0  0  0
   -1.5520   26.2760  -28.5940 N   0  0  0  0  0  0  0  0  0  0  0  0
   -1.4330   24.9020  -28.9770 C   0  0  0  0  0  0  0  0  0  0  0  0
   -0.4010   24.2480  -28.6680 O   0  0  0  0  0  0  0  0  0  0  0  0
   -2.5200   24.2280  -29.7090 C   0  0  0  0  0  0  0  0  0  0  0  0
   -3.4780   24.9040  -30.3720 N   0  0  0  0  0  0  0  0  0  0  0  0
   -4.2220   24.0280  -30.9820 O   0  0  0  0  0  0  0  0  0  0  0  0
   -3.8060   22.8030  -30.7540 C   0  0  0  0  0  0  0  0  0  0  0  0
   -4.4620   21.6040  -31.3170 C   0  0  0  0  0  0  0  0  0  0  0  0
   -5.8570   21.4630  -31.3130 C   0  0  0  0  0  0  0  0  0  0  0  0
   -6.4550   20.3200  -31.8490 C   0  0  0  0  0  0  0  0  0  0  0  0
   -5.6790   19.2840  -32.4130 C   0  0  0  0  0  0  0  0  0  0  0  0
   -6.3780   18.0350  -32.9860 C   0  0  0  0  0  0  0  0  0  0  0  0
   -5.8490   16.7720  -32.2710 C   0  0  0  0  0  0  0  0  0  0  0  0
   -7.9010   18.1500  -32.7610 C   0  0  0  0  0  0  0  0  0  0  0  0
   -6.1380   17.8480  -34.5040 C   0  0  0  0  0  0  0  0  0  0  0  0
   -4.2750   19.4550  -32.4390 C   0  0  0  0  0  0  0  0  0  0  0  0
   -3.6810   20.6020  -31.9040 C   0  0  0  0  0  0  0  0  0  0  0  0
   -2.6940   22.8670  -29.9270 C   0  0  0  0  0  0  0  0  0  0  0  0
   -1.8480   21.7500  -29.4660 C   0  0  0  0  0  0  0  0  0  0  0  0
   -2.0960   21.1440  -28.2270 C   0  0  0  0  0  0  0  0  0  0  0  0
   -1.2680   20.1190  -27.7650 C   0  0  0  0  0  0  0  0  0  0  0  0
   -0.1770   19.6800  -28.5370 C   0  0  0  0  0  0  0  0  0  0  0  0
    0.7110   18.6000  -28.0410 C   0  0  0  0  0  0  0  0  0  0  0  0
    0.1800   17.3570  -27.6640 C   0  0  0  0  0  0  0  0  0  0  0  0
    1.0150   16.3400  -27.1970 C   0  0  0  0  0  0  0  0  0  0  0  0
    2.4040   16.5460  -27.0970 C   0  0  0  0  0  0  0  0  0  0  0  0
    3.2720   15.5430  -26.6340 O   0  0  0  0  0  0  0  0  0  0  0  0
    2.8890   14.1930  -26.3890 C   0  0  0  0  0  0  0  0  0  0  0  0
    2.9450   17.7900  -27.4700 C   0  0  0  0  0  0  0  0  0  0  0  0
    4.4270   18.0260  -27.3840 C   0  0  0  0  0  0  0  0  0  0  0  0
    2.0980   18.8060  -27.9420 C   0  0  0  0  0  0  0  0  0  0  0  0
    0.0670   20.2900  -29.7810 C   0  0  0  0  0  0  0  0  0  0  0  0
   -0.7590   21.3210  -30.2380 C   0  0  0  0  0  0  0  0  0  0  0  0
   -0.8522   26.8405  -25.3219 H   0  0  0  0  0  0  0  0  0  0  0  0
   -2.3818   26.3040  -26.0960 H   0  0  0  0  0  0  0  0  0  0  0  0
   -0.9476   25.2224  -26.0960 H   0  0  0  0  0  0  0  0  0  0  0  0
   -1.0154   27.9577  -27.4647 H   0  0  0  0  0  0  0  0  0  0  0  0
    0.2475   26.6767  -27.6075 H   0  0  0  0  0  0  0  0  0  0  0  0
   -6.4850   22.2581  -30.8847 H   0  0  0  0  0  0  0  0  0  0  0  0
   -7.5508   20.2253  -31.8314 H   0  0  0  0  0  0  0  0  0  0  0  0
   -5.9089   16.9150  -31.1820 H   0  0  0  0  0  0  0  0  0  0  0  0
   -6.4591   15.9039  -32.5609 H   0  0  0  0  0  0  0  0  0  0  0  0
   -4.8023   16.5978  -32.5609 H   0  0  0  0  0  0  0  0  0  0  0  0
   -8.1120   18.1659  -31.6815 H   0  0  0  0  0  0  0  0  0  0  0  0
   -8.2705   19.0786  -33.2206 H   0  0  0  0  0  0  0  0  0  0  0  0
   -8.4057   17.2874  -33.2206 H   0  0  0  0  0  0  0  0  0  0  0  0
   -5.2790   17.1787  -34.6597 H   0  0  0  0  0  0  0  0  0  0  0  0
   -7.0342   17.4077  -34.9654 H   0  0  0  0  0  0  0  0  0  0  0  0
   -5.9302   18.8247  -34.9654 H   0  0  0  0  0  0  0  0  0  0  0  0
   -3.6418   18.6747  -32.8864 H   0  0  0  0  0  0  0  0  0  0  0  0
   -2.5879   20.7181  -31.9449 H   0  0  0  0  0  0  0  0  0  0  0  0
   -2.9473   21.4775  -27.6153 H   0  0  0  0  0  0  0  0  0  0  0  0
   -1.4703   19.6513  -26.7901 H   0  0  0  0  0  0  0  0  0  0  0  0
   -0.9036   17.1823  -27.7370 H   0  0  0  0  0  0  0  0  0  0  0  0
    0.5843   15.3708  -26.9051 H   0  0  0  0  0  0  0  0  0  0  0  0
    2.8391   14.0171  -25.3043 H   0  0  0  0  0  0  0  0  0  0  0  0
    1.9020   14.0048  -26.8368 H   0  0  0  0  0  0  0  0  0  0  0  0
    3.6301   13.5146  -26.8368 H   0  0  0  0  0  0  0  0  0  0  0  0
    4.7299   18.0742  -26.3276 H   0  0  0  0  0  0  0  0  0  0  0  0
    4.9591   17.2013  -27.8807 H   0  0  0  0  0  0  0  0  0  0  0  0
    4.6766   18.9752  -27.8807 H   0  0  0  0  0  0  0  0  0  0  0  0
    2.5254   19.7754  -28.2380 H   0  0  0  0  0  0  0  0  0  0  0  0
    0.9132   19.9535  -30.3980 H   0  0  0  0  0  0  0  0  0  0  0  0
   -0.5537   21.7979  -31.2077 H   0  0  0  0  0  0  0  0  0  0  0  0
  1  2  1  0
  2  3  1  0
  3  4  1  0
  4  5  2  0
  4  6  1  0
  6  7  2  0
  7  8  1  0
  8  9  1  0
  9 10  1  0
 10 11  2  0
 11 12  1  0
 12 13  2  0
 13 14  1  0
 14 15  1  0
 14 16  1  0
 14 17  1  0
 13 18  1  0
 18 19  2  0
  9 20  2  0
 20 21  1  0
 21 22  2  0
 22 23  1  0
 23 24  2  0
 24 25  1  0
 25 26  2  0
 26 27  1  0
 27 28  2  0
 28 29  1  0
 29 30  1  0
 28 31  1  0
 31 32  1  0
 31 33  2  0
 24 34  1  0
 34 35  2  0
 20  6  1  0
 35 21  1  0
 19 10  1  0
 33 25  1  0
  1 36  1  0
  1 37  1  0
  1 38  1  0
  2 39  1  0
  2 40  1  0
 11 41  1  0
 12 42  1  0
 15 43  1  0
 15 44  1  0
 15 45  1  0
 16 46  1  0
 16 47  1  0
 16 48  1  0
 17 49  1  0
 17 50  1  0
 17 51  1  0
 18 52  1  0
 19 53  1  0
 22 54  1  0
 23 55  1  0
 26 56  1  0
 27 57  1  0
 30 58  1  0
 30 59  1  0
 30 60  1  0
 32 61  1  0
 32 62  1  0
 32 63  1  0
 33 64  1  0
 34 65  1  0
 35 66  1  0
M  CHG  1   3  -1
M  END
>  <UniqueID>  (45) 
42

>  <SMILES>  (45) 
CC[N-]C(=O)c1noc(-c2ccc(C(C)(C)C)cc2)c1-c1ccc(-c2ccc(OC)c(C)c2)cc1

>  <Energy>  (45) 
110.09270052677628

>  <Genealogy>  (45) 
CC[N-]C(=O)c1noc(-c2ccc(C(C)(C)C)cc2)c1-c1ccc(-c2ccc(OC)c(C)c2)cc1 (protonated)
CC[N-]C(=O)c1noc(-c2ccc(C(C)(C)C)cc2)c1-c1ccc(-c2ccc(OC)c(C)c2)cc1 (3D coordinates assigned)
CC[N-]C(=O)c1noc(-c2ccc(C(C)(C)C)cc2)c1-c1ccc(-c2ccc(OC)c(C)c2)cc1 (optimized conformer: 110.09270052677628 kcal/mol)

>  <smiles>  (45) 
CCNC(=O)c1noc(-c2ccc(C(C)(C)C)cc2)c1-c1ccc(-c2ccc(OC)c(C)c2)cc1

>  <score_type>  (45) 
oracle

>  <origin>  (45) 
adgpu

>  <m_score__min__energy>  (45) 
-11.109999999999999

>  <m_primary>  (45) 
energy

$$$$
45:0
     RDKit          3D

 27 28  0  0  0  0  0  0  0  0999 V2000
   -6.3800   25.9010  -30.0320 O   0  0  0  0  0  0  0  0  0  0  0  0
   -5.4240   24.7520  -30.1920 S   0  0  0  0  0  0  0  0  0  0  0  0
   -4.2440   25.2060  -31.0040 O   0  0  0  0  0  0  0  0  0  0  0  0
   -4.8630   24.2700  -28.6200 N   0  0  0  0  0  0  0  0  0  0  0  0
   -3.5500   23.7410  -28.3570 C   0  0  0  0  0  0  0  0  0  0  0  0
   -2.4250   24.5340  -28.6390 C   0  0  0  0  0  0  0  0  0  0  0  0
   -1.1350   24.0480  -28.4040 C   0  0  0  0  0  0  0  0  0  0  0  0
   -0.9550   22.7620  -27.8890 C   0  0  0  0  0  0  0  0  0  0  0  0
   -2.0650   21.9600  -27.6110 C   0  0  0  0  0  0  0  0  0  0  0  0
   -3.3570   22.4430  -27.8430 C   0  0  0  0  0  0  0  0  0  0  0  0
   -6.2060   23.4040  -31.0290 C   0  0  0  0  0  0  0  0  0  0  0  0
   -7.6080   23.3530  -31.0940 C   0  0  0  0  0  0  0  0  0  0  0  0
   -8.2490   22.3020  -31.7540 C   0  0  0  0  0  0  0  0  0  0  0  0
   -7.4980   21.2870  -32.3470 C   0  0  0  0  0  0  0  0  0  0  0  0
   -6.1040   21.3170  -32.2770 C   0  0  0  0  0  0  0  0  0  0  0  0
   -5.4500   22.3660  -31.6180 C   0  0  0  0  0  0  0  0  0  0  0  0
   -3.5340   22.3130  -31.5370 Br  0  0  0  0  0  0  0  0  0  0  0  0
   -5.5490   24.3350  -27.8350 H   0  0  0  0  0  0  0  0  0  0  0  0
   -2.5601   25.5461  -29.0482 H   0  0  0  0  0  0  0  0  0  0  0  0
   -0.2613   24.6788  -28.6248 H   0  0  0  0  0  0  0  0  0  0  0  0
    0.0599   22.3809  -27.7024 H   0  0  0  0  0  0  0  0  0  0  0  0
   -1.9223   20.9462  -27.2087 H   0  0  0  0  0  0  0  0  0  0  0  0
   -4.2268   21.8065  -27.6232 H   0  0  0  0  0  0  0  0  0  0  0  0
   -8.2057   24.1465  -30.6217 H   0  0  0  0  0  0  0  0  0  0  0  0
   -9.3474   22.2747  -31.8062 H   0  0  0  0  0  0  0  0  0  0  0  0
   -8.0045   20.4625  -32.8701 H   0  0  0  0  0  0  0  0  0  0  0  0
   -5.5157   20.5122  -32.7420 H   0  0  0  0  0  0  0  0  0  0  0  0
  1  2  2  0
  2  3  2  0
  2  4  1  0
  4  5  1  0
  5  6  2  0
  6  7  1  0
  7  8  2  0
  8  9  1  0
  9 10  2  0
  2 11  1  0
 11 12  2  0
 12 13  1  0
 13 14  2  0
 14 15  1  0
 15 16  2  0
 16 17  1  0
 10  5  1  0
 16 11  1  0
  4 18  1  0
  6 19  1  0
  7 20  1  0
  8 21  1  0
  9 22  1  0
 10 23  1  0
 12 24  1  0
 13 25  1  0
 14 26  1  0
 15 27  1  0
M  END
>  <UniqueID>  (46) 
43

>  <SMILES>  (46) 
O=S(=O)(Nc1ccccc1)c1ccccc1Br

>  <Energy>  (46) 
32.663979350083345

>  <Genealogy>  (46) 
O=S(=O)(Nc1ccccc1)c1ccccc1Br (3D coordinates assigned)
O=S(=O)(Nc1ccccc1)c1ccccc1Br (optimized conformer: 32.663979350083345 kcal/mol)

>  <smiles>  (46) 
O=S(=O)(Nc1ccccc1)c1ccccc1Br

>  <score_type>  (46) 
oracle

>  <origin>  (46) 
adgpu

>  <m_score__min__energy>  (46) 
-7.6200000000000001

>  <m_primary>  (46) 
energy

$$$$
46:0
     RDKit          3D

 34 35  0  0  0  0  0  0  0  0999 V2000
   -4.3020   21.5260  -32.7900 C   0  0  0  0  0  0  0  0  0  0  0  0
   -4.9820   20.5270  -32.0370 O   0  0  0  0  0  0  0  0  0  0  0  0
   -6.3660   20.2950  -32.0870 C   0  0  0  0  0  0  0  0  0  0  0  0
   -6.9020   19.1220  -32.6580 C   0  0  0  0  0  0  0  0  0  0  0  0
   -8.2800   18.8950  -32.6430 C   0  0  0  0  0  0  0  0  0  0  0  0
   -9.1370   19.8240  -32.0550 C   0  0  0  0  0  0  0  0  0  0  0  0
   -8.6210   20.9930  -31.4930 C   0  0  0  0  0  0  0  0  0  0  0  0
   -7.2420   21.2490  -31.5250 C   0  0  0  0  0  0  0  0  0  0  0  0
   -6.7470   22.4610  -30.9350 N   0  0  0  0  0  0  0  0  0  0  0  0
   -6.6900   23.7110  -31.6390 C   0  0  0  0  0  0  0  0  0  0  0  0
   -7.2050   23.8240  -32.7850 O   0  0  0  0  0  0  0  0  0  0  0  0
   -6.0920   24.9140  -30.9790 C   0  0  0  0  0  0  0  0  0  0  0  0
   -4.9460   24.5020  -30.1130 C   0  0  0  0  0  0  0  0  0  0  0  0
   -5.0750   23.4420  -29.2720 N   0  0  0  0  0  0  0  0  0  0  0  0
   -4.0620   23.0680  -28.4490 C   0  0  0  0  0  0  0  0  0  0  0  0
   -4.2250   22.0850  -27.6790 O   0  0  0  0  0  0  0  0  0  0  0  0
   -2.8490   23.7800  -28.4610 C   0  0  0  0  0  0  0  0  0  0  0  0
   -1.7200   23.4180  -27.5330 C   0  0  0  0  0  0  0  0  0  0  0  0
   -2.7530   24.8940  -29.3110 C   0  0  0  0  0  0  0  0  0  0  0  0
   -1.6000   25.6690  -29.3400 O   0  0  0  0  0  0  0  0  0  0  0  0
   -3.7970   25.2260  -30.1140 N   0  0  0  0  0  0  0  0  0  0  0  0
   -3.8183   22.2366  -32.1037 H   0  0  0  0  0  0  0  0  0  0  0  0
   -3.5387   21.0512  -33.4240 H   0  0  0  0  0  0  0  0  0  0  0  0
   -5.0237   22.0619  -33.4240 H   0  0  0  0  0  0  0  0  0  0  0  0
   -6.2308   18.3817  -33.1178 H   0  0  0  0  0  0  0  0  0  0  0  0
   -8.6902   17.9806  -33.0964 H   0  0  0  0  0  0  0  0  0  0  0  0
  -10.2206   19.6358  -32.0339 H   0  0  0  0  0  0  0  0  0  0  0  0
   -9.3004   21.7185  -31.0218 H   0  0  0  0  0  0  0  0  0  0  0  0
   -6.5710   22.4690  -29.9050 H   0  0  0  0  0  0  0  0  0  0  0  0
   -5.7341   25.6127  -31.7496 H   0  0  0  0  0  0  0  0  0  0  0  0
   -6.8567   25.4044  -30.3587 H   0  0  0  0  0  0  0  0  0  0  0  0
   -2.0538   23.5250  -26.4903 H   0  0  0  0  0  0  0  0  0  0  0  0
   -1.4149   22.3770  -27.7153 H   0  0  0  0  0  0  0  0  0  0  0  0
   -0.8665   24.0875  -27.7153 H   0  0  0  0  0  0  0  0  0  0  0  0
  1  2  1  0
  2  3  1  0
  3  4  2  0
  4  5  1  0
  5  6  2  0
  6  7  1  0
  7  8  2  0
  8  9  1  0
  9 10  1  0
 10 11  2  0
 10 12  1  0
 12 13  1  0
 13 14  2  0
 14 15  1  0
 15 16  2  0
 15 17  1  0
 17 18  1  0
 17 19  2  0
 19 20  1  0
 19 21  1  0
  8  3  1  0
 21 13  1  0
  1 22  1  0
  1 23  1  0
  1 24  1  0
  4 25  1  0
  5 26  1  0
  6 27  1  0
  7 28  1  0
  9 29  1  0
 12 30  1  0
 12 31  1  0
 18 32  1  0
 18 33  1  0
 18 34  1  0
M  CHG  2  20  -1  21  -1
M  END
>  <UniqueID>  (47) 
44

>  <SMILES>  (47) 
COc1ccccc1NC(=O)Cc1nc(=O)c(C)c([O-])[n-]1

>  <Energy>  (47) 
37.805804234868226

>  <Genealogy>  (47) 
COc1ccccc1NC(=O)Cc1nc(=O)c(C)c([O-])[n-]1 (protonated)
COc1ccccc1NC(=O)Cc1nc(=O)c(C)c([O-])[n-]1 (3D coordinates assigned)
COc1ccccc1NC(=O)Cc1nc(=O)c(C)c([O-])[n-]1 (optimized conformer: 37.805804234868226 kcal/mol)

>  <smiles>  (47) 
COc1ccccc1NC(=O)Cc1nc(=O)c(C)c(O)[nH]1

>  <score_type>  (47) 
oracle

>  <origin>  (47) 
adgpu

>  <m_score__min__energy>  (47) 
-11.06

>  <m_primary>  (47) 
energy

$$$$
