0:0
     RDKit          3D

 42 44  0  0  0  0  0  0  0  0999 V2000
   -0.9200   21.8250  -26.2880 C   0  0  0  0  0  0  0  0  0  0  0  0
   -0.0820   21.6230  -27.4210 O   0  0  0  0  0  0  0  0  0  0  0  0
   -0.5500   21.4240  -28.7290 C   0  0  0  0  0  0  0  0  0  0  0  0
   -0.0180   20.4450  -29.5750 C   0  0  0  0  0  0  0  0  0  0  0  0
   -0.5130   20.2700  -30.8670 C   0  0  0  0  0  0  0  0  0  0  0  0
    0.1930   19.4040  -31.7050 O   0  0  0  0  0  0  0  0  0  0  0  0
   -1.6540   21.0020  -31.2970 C   0  0  0  0  0  0  0  0  0  0  0  0
   -2.3670   20.6880  -32.4880 C   0  0  0  0  0  0  0  0  0  0  0  0
   -2.2350   19.4280  -33.1690 N   0  0  0  0  0  0  0  0  0  0  0  0
   -3.1750   18.5720  -33.3190 N   0  0  0  0  0  0  0  0  0  0  0  0
   -4.5450   18.7660  -32.9290 C   0  0  0  0  0  0  0  0  0  0  0  0
   -5.5580   18.5360  -33.8660 C   0  0  0  0  0  0  0  0  0  0  0  0
   -6.9010   18.6720  -33.5020 C   0  0  0  0  0  0  0  0  0  0  0  0
   -7.2420   19.0580  -32.1990 C   0  0  0  0  0  0  0  0  0  0  0  0
   -8.9320   19.2160  -31.7350 S   0  0  0  0  0  0  0  0  0  0  0  0
   -9.8610   19.6990  -33.1090 N   0  0  0  0  0  0  0  0  0  0  0  0
   -9.4420   17.9000  -31.2190 O   0  0  0  0  0  0  0  0  0  0  0  0
   -9.0680   20.2460  -30.6490 O   0  0  0  0  0  0  0  0  0  0  0  0
   -6.2270   19.3430  -31.2740 C   0  0  0  0  0  0  0  0  0  0  0  0
   -4.8850   19.2090  -31.6390 C   0  0  0  0  0  0  0  0  0  0  0  0
   -3.3400   21.5660  -32.9620 C   0  0  0  0  0  0  0  0  0  0  0  0
   -3.7150   22.6810  -32.2250 C   0  0  0  0  0  0  0  0  0  0  0  0
   -3.1490   22.9330  -30.9700 C   0  0  0  0  0  0  0  0  0  0  0  0
   -3.7400   24.3300  -30.0510 S   0  0  0  0  0  0  0  0  0  0  0  0
   -4.4740   23.8560  -28.8280 O   0  0  0  0  0  0  0  0  0  0  0  0
   -4.6760   25.1550  -30.8880 O   0  0  0  0  0  0  0  0  0  0  0  0
   -2.4420   25.2960  -29.5960 O   0  0  0  0  0  0  0  0  0  0  0  0
   -2.1230   22.0770  -30.4840 C   0  0  0  0  0  0  0  0  0  0  0  0
   -1.5680   22.2540  -29.1990 C   0  0  0  0  0  0  0  0  0  0  0  0
   -0.3334   21.6836  -25.3682 H   0  0  0  0  0  0  0  0  0  0  0  0
   -1.3266   22.8469  -26.3102 H   0  0  0  0  0  0  0  0  0  0  0  0
   -1.7475   21.1006  -26.3102 H   0  0  0  0  0  0  0  0  0  0  0  0
    0.8015   19.8048  -29.2164 H   0  0  0  0  0  0  0  0  0  0  0  0
   -0.2240   18.9460  -32.5040 H   0  0  0  0  0  0  0  0  0  0  0  0
   -5.2965   18.2466  -34.8945 H   0  0  0  0  0  0  0  0  0  0  0  0
   -7.6921   18.4754  -34.2406 H   0  0  0  0  0  0  0  0  0  0  0  0
   -9.2110   19.7110  -33.9280 H   0  0  0  0  0  0  0  0  0  0  0  0
   -6.4884   19.6731  -30.2578 H   0  0  0  0  0  0  0  0  0  0  0  0
   -4.0927   19.4507  -30.9152 H   0  0  0  0  0  0  0  0  0  0  0  0
   -3.8176   21.3727  -33.9339 H   0  0  0  0  0  0  0  0  0  0  0  0
   -4.4656   23.3745  -32.6320 H   0  0  0  0  0  0  0  0  0  0  0  0
   -1.9453   23.0622  -28.5552 H   0  0  0  0  0  0  0  0  0  0  0  0
  1  2  1  0
  2  3  1  0
  3  4  2  0
  4  5  1  0
  5  6  1  0
  5  7  2  0
  7  8  1  0
  8  9  1  0
  9 10  2  3
 10 11  1  0
 11 12  2  0
 12 13  1  0
 13 14  2  0
 14 15  1  0
 15 16  1  0
 15 17  2  0
 15 18  2  0
 14 19  1  0
 19 20  2  0
  8 21  2  0
 21 22  1  0
 22 23  2  0
 23 24  1  0
 24 25  2  0
 24 26  2  0
 24 27  1  0
 23 28  1  0
 28 29  2  0
 29  3  1  0
 28  7  1  0
 20 11  1  0
  1 30  1  0
  1 31  1  0
  1 32  1  0
  4 33  1  0
  6 34  1  0
 12 35  1  0
 13 36  1  0
 16 37  1  0
 19 38  1  0
 20 39  1  0
 21 40  1  0
 22 41  1  0
 29 42  1  0
M  CHG  2  16  -1  27  -1
M  END
>  <UniqueID>  (1) 
1

>  <SMILES>  (1) 
COc1cc(O)c2c(N=Nc3ccc(S([NH-])(=O)=O)cc3)ccc(S(=O)(=O)[O-])c2c1

>  <Energy>  (1) 
73.16687223991828

>  <Genealogy>  (1) 
COc1cc(O)c2c(N=Nc3ccc(S([NH-])(=O)=O)cc3)ccc(S(=O)(=O)[O-])c2c1 (protonated)
COc1cc(O)c2c(N=Nc3ccc(S([NH-])(=O)=O)cc3)ccc(S(=O)(=O)[O-])c2c1 (3D coordinates assigned)
COc1cc(O)c2c(N=Nc3ccc(S([NH-])(=O)=O)cc3)ccc(S(=O)(=O)[O-])c2c1 (optimized conformer: 73.16687223991828 kcal/mol)

>  <smiles>  (1) 
COc1cc(O)c2c(N=Nc3ccc(S(N)(=O)=O)cc3)ccc(S(=O)(=O)O)c2c1

>  <score_type>  (1) 
oracle

>  <origin>  (1) 
adgpu

>  <m_score__min__energy>  (1) 
-10.279999999999999

>  <m_primary>  (1) 
energy

$$$$
1:0
     RDKit          3D

 37 40  0  0  0  0  0  0  0  0999 V2000
   -9.8240   22.2210  -31.6000 O   0  0  0  0  0  0  0  0  0  0  0  0
   -8.6400   22.0400  -31.9910 C   0  0  0  0  0  0  0  0  0  0  0  0
   -7.7750   23.1780  -32.1030 N   0  0  0  0  0  0  0  0  0  0  0  0
   -6.5350   23.3690  -31.4060 C   0  0  0  0  0  0  0  0  0  0  0  0
   -5.5340   22.3840  -31.3950 C   0  0  0  0  0  0  0  0  0  0  0  0
   -4.3310   22.6070  -30.7180 C   0  0  0  0  0  0  0  0  0  0  0  0
   -4.1030   23.8250  -30.0530 C   0  0  0  0  0  0  0  0  0  0  0  0
   -2.8320   24.0610  -29.3350 C   0  0  0  0  0  0  0  0  0  0  0  0
   -2.4090   25.3020  -28.9690 N   0  0  0  0  0  0  0  0  0  0  0  0
   -1.2420   25.0490  -28.3590 C   0  0  0  0  0  0  0  0  0  0  0  0
   -0.3650   25.9630  -27.7800 C   0  0  0  0  0  0  0  0  0  0  0  0
    0.8100   25.4580  -27.1930 C   0  0  0  0  0  0  0  0  0  0  0  0
    1.0730   24.0690  -27.2000 C   0  0  0  0  0  0  0  0  0  0  0  0
    0.1620   23.1750  -27.7950 C   0  0  0  0  0  0  0  0  0  0  0  0
   -0.9900   23.7120  -28.3660 C   0  0  0  0  0  0  0  0  0  0  0  0
   -1.9840   23.0560  -28.9800 N   0  0  0  0  0  0  0  0  0  0  0  0
   -5.0980   24.8170  -30.0890 C   0  0  0  0  0  0  0  0  0  0  0  0
   -6.3000   24.5910  -30.7670 C   0  0  0  0  0  0  0  0  0  0  0  0
   -8.1690   20.6620  -32.2690 C   0  0  0  0  0  0  0  0  0  0  0  0
   -7.1250   20.4260  -33.1810 C   0  0  0  0  0  0  0  0  0  0  0  0
   -6.6860   19.1230  -33.4330 C   0  0  0  0  0  0  0  0  0  0  0  0
   -7.2760   18.0440  -32.7690 C   0  0  0  0  0  0  0  0  0  0  0  0
   -6.8480   16.7810  -33.0130 F   0  0  0  0  0  0  0  0  0  0  0  0
   -8.3030   18.2690  -31.8490 C   0  0  0  0  0  0  0  0  0  0  0  0
   -8.7450   19.5710  -31.5940 C   0  0  0  0  0  0  0  0  0  0  0  0
   -5.6972   21.4322  -31.9217 H   0  0  0  0  0  0  0  0  0  0  0  0
   -3.5579   21.8246  -30.7055 H   0  0  0  0  0  0  0  0  0  0  0  0
   -0.5831   27.0412  -27.7815 H   0  0  0  0  0  0  0  0  0  0  0  0
    1.5281   26.1481  -26.7259 H   0  0  0  0  0  0  0  0  0  0  0  0
    1.9943   23.6844  -26.7381 H   0  0  0  0  0  0  0  0  0  0  0  0
    0.3530   22.0918  -27.8085 H   0  0  0  0  0  0  0  0  0  0  0  0
   -4.9301   25.7778  -29.5804 H   0  0  0  0  0  0  0  0  0  0  0  0
   -7.0661   25.3797  -30.7981 H   0  0  0  0  0  0  0  0  0  0  0  0
   -6.6507   21.2723  -33.6995 H   0  0  0  0  0  0  0  0  0  0  0  0
   -5.8750   18.9467  -34.1549 H   0  0  0  0  0  0  0  0  0  0  0  0
   -8.7651   17.4200  -31.3240 H   0  0  0  0  0  0  0  0  0  0  0  0
   -9.5475   19.7427  -30.8615 H   0  0  0  0  0  0  0  0  0  0  0  0
  1  2  2  0
  2  3  1  0
  3  4  1  0
  4  5  2  0
  5  6  1  0
  6  7  2  0
  7  8  1  0
  8  9  2  0
  9 10  1  0
 10 11  2  0
 11 12  1  0
 12 13  2  0
 13 14  1  0
 14 15  2  0
 15 16  1  0
  7 17  1  0
 17 18  2  0
  2 19  1  0
 19 20  2  0
 20 21  1  0
 21 22  2  0
 22 23  1  0
 22 24  1  0
 24 25  2  0
 18  4  1  0
 25 19  1  0
 16  8  1  0
 15 10  1  0
  5 26  1  0
  6 27  1  0
 11 28  1  0
 12 29  1  0
 13 30  1  0
 14 31  1  0
 17 32  1  0
 18 33  1  0
 20 34  1  0
 21 35  1  0
 24 36  1  0
 25 37  1  0
M  CHG  2   3  -1  16  -1
M  END
>  <UniqueID>  (2) 
2

>  <SMILES>  (2) 
O=C([N-]c1ccc(-c2nc3ccccc3[n-]2)cc1)c1ccc(F)cc1

>  <Energy>  (2) 
84.44370560617837

>  <Genealogy>  (2) 
O=C([N-]c1ccc(-c2nc3ccccc3[n-]2)cc1)c1ccc(F)cc1 (protonated)
O=C([N-]c1ccc(-c2nc3ccccc3[n-]2)cc1)c1ccc(F)cc1 (3D coordinates assigned)
O=C([N-]c1ccc(-c2nc3ccccc3[n-]2)cc1)c1ccc(F)cc1 (optimized conformer: 84.44370560617837 kcal/mol)

>  <smiles>  (2) 
O=C(Nc1ccc(-c2nc3ccccc3[nH]2)cc1)c1ccc(F)cc1

>  <score_type>  (2) 
oracle

>  <origin>  (2) 
adgpu

>  <m_score__min__energy>  (2) 
-10.119999999999999

>  <m_primary>  (2) 
energy

$$$$
2:0
     RDKit          3D

 26 28  0  0  0  0  0  0  0  0999 V2000
   -9.6270   22.1150  -31.3460 F   0  0  0  0  0  0  0  0  0  0  0  0
   -8.7600   21.2030  -31.8540 C   0  0  0  0  0  0  0  0  0  0  0  0
   -9.1070   19.8480  -31.8360 C   0  0  0  0  0  0  0  0  0  0  0  0
   -8.2030   18.8860  -32.2930 C   0  0  0  0  0  0  0  0  0  0  0  0
   -6.9430   19.2750  -32.7560 C   0  0  0  0  0  0  0  0  0  0  0  0
   -6.5910   20.6280  -32.7740 C   0  0  0  0  0  0  0  0  0  0  0  0
   -7.5010   21.6020  -32.3430 C   0  0  0  0  0  0  0  0  0  0  0  0
   -7.1130   22.9460  -32.3720 O   0  0  0  0  0  0  0  0  0  0  0  0
   -6.3140   23.5580  -31.3990 C   0  0  0  0  0  0  0  0  0  0  0  0
   -6.7800   24.5330  -30.5910 N   0  0  0  0  0  0  0  0  0  0  0  0
   -5.8370   24.9490  -29.7030 C   0  0  0  0  0  0  0  0  0  0  0  0
   -4.6140   24.2940  -29.8010 C   0  0  0  0  0  0  0  0  0  0  0  0
   -3.4370   24.5510  -28.9620 C   0  0  0  0  0  0  0  0  0  0  0  0
   -3.2260   24.0650  -27.6860 C   0  0  0  0  0  0  0  0  0  0  0  0
   -2.0000   24.5610  -27.2990 C   0  0  0  0  0  0  0  0  0  0  0  0
   -1.5390   25.3160  -28.3580 C   0  0  0  0  0  0  0  0  0  0  0  0
   -2.4180   25.2910  -29.3350 O   0  0  0  0  0  0  0  0  0  0  0  0
   -4.7150   23.1550  -31.0370 S   0  0  0  0  0  0  0  0  0  0  0  0
  -10.0940   19.5393  -31.4611 H   0  0  0  0  0  0  0  0  0  0  0  0
   -8.4829   17.8222  -32.2884 H   0  0  0  0  0  0  0  0  0  0  0  0
   -6.2278   18.5163  -33.1065 H   0  0  0  0  0  0  0  0  0  0  0  0
   -5.5942   20.9293  -33.1285 H   0  0  0  0  0  0  0  0  0  0  0  0
   -6.0271   25.7420  -28.9647 H   0  0  0  0  0  0  0  0  0  0  0  0
   -3.8963   23.4177  -27.1015 H   0  0  0  0  0  0  0  0  0  0  0  0
   -1.4912   24.3896  -26.3389 H   0  0  0  0  0  0  0  0  0  0  0  0
   -0.5813   25.8567  -28.3811 H   0  0  0  0  0  0  0  0  0  0  0  0
  1  2  1  0
  2  3  2  0
  3  4  1  0
  4  5  2  0
  5  6  1  0
  6  7  2  0
  7  8  1  0
  8  9  1  0
  9 10  2  0
 10 11  1  0
 11 12  2  0
 12 13  1  0
 13 14  2  0
 14 15  1  0
 15 16  2  0
 16 17  1  0
 12 18  1  0
  7  2  1  0
 18  9  1  0
 17 13  1  0
  3 19  1  0
  4 20  1  0
  5 21  1  0
  6 22  1  0
 11 23  1  0
 14 24  1  0
 15 25  1  0
 16 26  1  0
M  END
>  <UniqueID>  (3) 
3

>  <SMILES>  (3) 
Fc1ccccc1Oc1ncc(-c2ccco2)s1

>  <Energy>  (3) 
90.8730483832607

>  <Genealogy>  (3) 
Fc1ccccc1Oc1ncc(-c2ccco2)s1 (3D coordinates assigned)
Fc1ccccc1Oc1ncc(-c2ccco2)s1 (optimized conformer: 90.8730483832607 kcal/mol)

>  <smiles>  (3) 
Fc1ccccc1Oc1ncc(-c2ccco2)s1

>  <score_type>  (3) 
oracle

>  <origin>  (3) 
adgpu

>  <m_score__min__energy>  (3) 
-7.1299999999999999

>  <m_primary>  (3) 
energy

$$$$
3:0
     RDKit          3D

 54 57  0  0  0  0  0  0  0  0999 V2000
   -5.7330   17.6770  -34.6920 C   0  0  0  0  0  0  0  0  0  0  0  0
   -6.7210   16.9870  -33.8460 N   0  0  0  0  0  0  0  0  0  0  0  0
   -6.8430   15.5670  -34.2100 C   0  0  0  0  0  0  0  0  0  0  0  0
   -6.4990   17.2020  -32.3980 C   0  0  0  0  0  0  0  0  0  0  0  0
   -7.3280   18.3570  -31.7730 C   0  0  0  0  0  0  0  0  0  0  0  0
   -8.2290   18.9730  -32.7640 N   0  0  0  0  0  0  0  0  0  0  0  0
   -7.5960   20.1050  -33.4610 C   0  0  0  0  0  0  0  0  0  0  0  0
   -7.1910   21.2030  -32.5040 C   0  0  0  0  0  0  0  0  0  0  0  0
   -8.1590   22.0540  -31.9500 C   0  0  0  0  0  0  0  0  0  0  0  0
   -7.7840   23.0510  -31.0490 C   0  0  0  0  0  0  0  0  0  0  0  0
   -6.4420   23.2070  -30.6910 C   0  0  0  0  0  0  0  0  0  0  0  0
   -5.4580   22.3600  -31.2310 C   0  0  0  0  0  0  0  0  0  0  0  0
   -4.0330   22.5190  -30.8450 C   0  0  0  0  0  0  0  0  0  0  0  0
   -3.0430   21.7050  -31.4220 C   0  0  0  0  0  0  0  0  0  0  0  0
   -1.7030   21.8550  -31.0600 C   0  0  0  0  0  0  0  0  0  0  0  0
   -1.3330   22.8170  -30.1180 C   0  0  0  0  0  0  0  0  0  0  0  0
   -2.3040   23.6420  -29.5260 C   0  0  0  0  0  0  0  0  0  0  0  0
   -1.9120   24.6640  -28.5280 C   0  0  0  0  0  0  0  0  0  0  0  0
   -2.1800   24.5400  -27.2000 N   0  0  0  0  0  0  0  0  0  0  0  0
   -1.6600   25.6640  -26.6880 C   0  0  0  0  0  0  0  0  0  0  0  0
   -1.6470   26.0700  -25.3560 C   0  0  0  0  0  0  0  0  0  0  0  0
   -1.0380   27.3040  -25.0550 C   0  0  0  0  0  0  0  0  0  0  0  0
   -0.4660   28.0880  -26.0820 C   0  0  0  0  0  0  0  0  0  0  0  0
   -0.5000   27.6450  -27.4180 C   0  0  0  0  0  0  0  0  0  0  0  0
   -1.1100   26.4200  -27.6770 C   0  0  0  0  0  0  0  0  0  0  0  0
   -1.2560   25.8080  -28.8610 N   0  0  0  0  0  0  0  0  0  0  0  0
   -3.6520   23.4860  -29.8960 C   0  0  0  0  0  0  0  0  0  0  0  0
   -5.8450   21.3570  -32.1390 C   0  0  0  0  0  0  0  0  0  0  0  0
   -4.9984   18.1900  -34.0539 H   0  0  0  0  0  0  0  0  0  0  0  0
   -5.2170   16.9419  -35.3271 H   0  0  0  0  0  0  0  0  0  0  0  0
   -6.2455   18.4146  -35.3271 H   0  0  0  0  0  0  0  0  0  0  0  0
   -6.8954   14.9574  -33.2959 H   0  0  0  0  0  0  0  0  0  0  0  0
   -7.7573   15.4178  -34.8032 H   0  0  0  0  0  0  0  0  0  0  0  0
   -5.9676   15.2640  -34.8032 H   0  0  0  0  0  0  0  0  0  0  0  0
   -6.7578   16.2718  -31.8710 H   0  0  0  0  0  0  0  0  0  0  0  0
   -5.4421   17.4862  -32.2871 H   0  0  0  0  0  0  0  0  0  0  0  0
   -7.9293   17.9571  -30.9432 H   0  0  0  0  0  0  0  0  0  0  0  0
   -6.6301   19.1281  -31.4147 H   0  0  0  0  0  0  0  0  0  0  0  0
   -8.5320   18.2540  -33.4630 H   0  0  0  0  0  0  0  0  0  0  0  0
   -9.0830   19.3340  -32.2800 H   0  0  0  0  0  0  0  0  0  0  0  0
   -6.6998   19.7428  -33.9860 H   0  0  0  0  0  0  0  0  0  0  0  0
   -8.3288   20.5224  -34.1673 H   0  0  0  0  0  0  0  0  0  0  0  0
   -9.2169   21.9348  -32.2269 H   0  0  0  0  0  0  0  0  0  0  0  0
   -8.5470   23.7165  -30.6190 H   0  0  0  0  0  0  0  0  0  0  0  0
   -6.1537   23.9974  -29.9823 H   0  0  0  0  0  0  0  0  0  0  0  0
   -3.3261   20.9442  -32.1643 H   0  0  0  0  0  0  0  0  0  0  0  0
   -0.9362   21.2132  -31.5184 H   0  0  0  0  0  0  0  0  0  0  0  0
   -0.2753   22.9296  -29.8378 H   0  0  0  0  0  0  0  0  0  0  0  0
   -2.0963   25.4491  -24.5669 H   0  0  0  0  0  0  0  0  0  0  0  0
   -1.0075   27.6594  -24.0144 H   0  0  0  0  0  0  0  0  0  0  0  0
    0.0084   29.0496  -25.8364 H   0  0  0  0  0  0  0  0  0  0  0  0
   -0.0604   28.2450  -28.2284 H   0  0  0  0  0  0  0  0  0  0  0  0
   -4.4185   24.1282  -29.4376 H   0  0  0  0  0  0  0  0  0  0  0  0
   -5.0847   20.6870  -32.5669 H   0  0  0  0  0  0  0  0  0  0  0  0
  1  2  1  0
  2  3  1  0
  2  4  1  0
  4  5  1  0
  5  6  1  0
  6  7  1  0
  7  8  1  0
  8  9  2  0
  9 10  1  0
 10 11  2  0
 11 12  1  0
 12 13  1  0
 13 14  2  0
 14 15  1  0
 15 16  2  0
 16 17  1  0
 17 18  1  0
 18 19  2  0
 19 20  1  0
 20 21  2  0
 21 22  1  0
 22 23  2  0
 23 24  1  0
 24 25  2  0
 25 26  1  0
 17 27  2  0
 12 28  2  0
 28  8  1  0
 27 13  1  0
 26 18  1  0
 25 20  1  0
  1 29  1  0
  1 30  1  0
  1 31  1  0
  3 32  1  0
  3 33  1  0
  3 34  1  0
  4 35  1  0
  4 36  1  0
  5 37  1  0
  5 38  1  0
  6 39  1  0
  6 40  1  0
  7 41  1  0
  7 42  1  0
  9 43  1  0
 10 44  1  0
 11 45  1  0
 14 46  1  0
 15 47  1  0
 16 48  1  0
 21 49  1  0
 22 50  1  0
 23 51  1  0
 24 52  1  0
 27 53  1  0
 28 54  1  0
M  CHG  2   6   1  26  -1
M  END
>  <UniqueID>  (4) 
4

>  <SMILES>  (4) 
CN(C)CC[NH2+]Cc1cccc(-c2cccc(-c3nc4ccccc4[n-]3)c2)c1

>  <Energy>  (4) 
102.43794068887911

>  <Genealogy>  (4) 
CN(C)CC[NH2+]Cc1cccc(-c2cccc(-c3nc4ccccc4[n-]3)c2)c1 (protonated)
CN(C)CC[NH2+]Cc1cccc(-c2cccc(-c3nc4ccccc4[n-]3)c2)c1 (3D coordinates assigned)
CN(C)CC[NH2+]Cc1cccc(-c2cccc(-c3nc4ccccc4[n-]3)c2)c1 (optimized conformer: 102.43794068887911 kcal/mol)

>  <smiles>  (4) 
CN(C)CCNCc1cccc(-c2cccc(-c3nc4ccccc4[nH]3)c2)c1

>  <score_type>  (4) 
oracle

>  <origin>  (4) 
adgpu

>  <m_score__min__energy>  (4) 
-9.6300000000000008

>  <m_primary>  (4) 
energy

$$$$
4:0
     RDKit          3D

 41 43  0  0  1  0  0  0  0  0999 V2000
   -2.4720   21.3510  -31.1880 C   0  0  0  0  0  0  0  0  0  0  0  0
   -2.3840   21.5660  -32.5580 C   0  0  0  0  0  0  0  0  0  0  0  0
   -3.3760   21.1330  -33.4310 C   0  0  0  0  0  0  0  0  0  0  0  0
   -4.4960   20.4640  -32.9440 C   0  0  0  0  0  0  0  0  0  0  0  0
   -5.5840   19.9770  -33.8020 C   0  0  0  0  0  0  0  0  0  0  0  0
   -6.6890   19.3190  -33.0630 C   0  0  0  0  0  0  0  0  0  0  0  0
   -6.8050   17.9440  -32.9690 C   0  0  0  0  0  0  0  0  0  0  0  0
   -7.8560   17.4620  -32.2680 N   0  0  0  0  0  0  0  0  0  0  0  0
   -8.7600   18.2590  -31.6770 C   0  0  0  0  0  0  0  0  0  0  0  0
   -8.6650   19.5990  -31.7560 N   0  0  0  0  0  0  0  0  0  0  0  0
   -7.6370   20.1350  -32.4430 C   0  0  0  0  0  0  0  0  0  0  0  0
   -7.5320   21.4110  -32.5270 N   0  0  0  0  0  0  0  0  0  0  0  0
   -8.4630   22.3350  -31.9210 C   0  0  0  0  0  0  0  0  0  0  0  0
   -7.7900   23.5240  -31.2720 C   0  0  0  0  0  0  0  0  0  0  0  0
   -6.8650   22.9190  -30.2080 C   0  0  0  0  0  0  0  0  0  0  0  0
   -5.6030   23.6220  -30.1300 N   0  0  0  0  0  0  0  0  0  0  0  0
   -4.6900   23.3950  -29.1580 C   0  0  0  0  0  0  0  0  0  0  0  0
   -3.5920   24.2160  -29.3530 C   0  0  0  0  0  0  0  0  0  0  0  0
   -3.8900   24.9350  -30.4730 N   0  0  0  0  0  0  0  0  0  0  0  0
   -5.1040   24.5670  -30.9290 C   0  0  0  0  0  0  0  0  0  0  0  0
   -4.5840   20.2480  -31.5640 C   0  0  0  0  0  0  0  0  0  0  0  0
   -3.5790   20.6920  -30.7080 C   0  0  0  0  0  0  0  0  0  0  0  0
   -1.6798   21.6976  -30.5080 H   0  0  0  0  0  0  0  0  0  0  0  0
   -1.5069   22.0924  -32.9624 H   0  0  0  0  0  0  0  0  0  0  0  0
   -3.2756   21.3197  -34.5104 H   0  0  0  0  0  0  0  0  0  0  0  0
   -5.9990   20.8336  -34.3534 H   0  0  0  0  0  0  0  0  0  0  0  0
   -5.1483   19.2156  -34.4657 H   0  0  0  0  0  0  0  0  0  0  0  0
   -6.0745   17.2722  -33.4435 H   0  0  0  0  0  0  0  0  0  0  0  0
   -9.5935   17.8087  -31.1180 H   0  0  0  0  0  0  0  0  0  0  0  0
   -9.3650   20.2080  -31.2980 H   0  0  0  0  0  0  0  0  0  0  0  0
   -9.1465   22.7032  -32.7003 H   0  0  0  0  0  0  0  0  0  0  0  0
   -8.9942   21.7886  -31.1277 H   0  0  0  0  0  0  0  0  0  0  0  0
   -7.2085   24.0922  -32.0130 H   0  0  0  0  0  0  0  0  0  0  0  0
   -8.5169   24.2269  -30.8388 H   0  0  0  0  0  0  0  0  0  0  0  0
   -7.3642   22.9741  -29.2294 H   0  0  0  0  0  0  0  0  0  0  0  0
   -6.6582   21.8756  -30.4884 H   0  0  0  0  0  0  0  0  0  0  0  0
   -4.8025   22.6697  -28.3386 H   0  0  0  0  0  0  0  0  0  0  0  0
   -2.6806   24.2752  -28.7399 H   0  0  0  0  0  0  0  0  0  0  0  0
   -5.6035   24.9798  -31.8179 H   0  0  0  0  0  0  0  0  0  0  0  0
   -5.4569   19.7215  -31.1507 H   0  0  0  0  0  0  0  0  0  0  0  0
   -3.6728   20.5119  -29.6269 H   0  0  0  0  0  0  0  0  0  0  0  0
  1  2  2  0
  2  3  1  0
  3  4  2  0
  4  5  1  0
  5  6  1  0
  6  7  2  0
  7  8  1  0
  8  9  2  0
  9 10  1  0
 10 11  1  0
 11 12  2  0
 12 13  1  0
 13 14  1  0
 14 15  1  0
 15 16  1  0
 16 17  1  0
 17 18  2  0
 18 19  1  0
 19 20  2  0
  4 21  1  0
 21 22  2  0
 22  1  1  0
 11  6  1  0
 20 16  1  0
  1 23  1  0
  2 24  1  0
  3 25  1  0
  5 26  1  0
  5 27  1  0
  7 28  1  0
  9 29  1  0
 10 30  1  0
 13 31  1  0
 13 32  1  0
 14 33  1  0
 14 34  1  0
 15 35  1  0
 15 36  1  0
 17 37  1  0
 18 38  1  0
 20 39  1  0
 21 40  1  0
 22 41  1  0
M  END
>  <smiles>  (5) 
c1ccc(Cc2cnc[nH]c2=NCCCn2ccnc2)cc1

>  <score_type>  (5) 
oracle

>  <origin>  (5) 
adgpu

>  <m_score__min__energy>  (5) 
-7.0899999999999999

>  <m_primary>  (5) 
energy

$$$$
5:0
     RDKit          3D

 22 23  0  0  0  0  0  0  0  0999 V2000
   -3.8670   25.5320  -30.8340 N   0  0  0  0  0  0  0  0  0  0  0  0
   -4.9260   24.7720  -30.8290 C   0  0  0  0  0  0  0  0  0  0  0  0
   -6.0650   25.1320  -30.1360 C   0  0  0  0  0  0  0  0  0  0  0  0
   -7.1460   24.2670  -30.1830 C   0  0  0  0  0  0  0  0  0  0  0  0
   -7.0490   23.1220  -30.8950 N   0  0  0  0  0  0  0  0  0  0  0  0
   -5.9430   22.7690  -31.5710 C   0  0  0  0  0  0  0  0  0  0  0  0
   -5.8320   21.5390  -32.3380 C   0  0  0  0  0  0  0  0  0  0  0  0
   -4.6240   21.0100  -32.7400 C   0  0  0  0  0  0  0  0  0  0  0  0
   -4.5270   19.8380  -33.4690 C   0  0  0  0  0  0  0  0  0  0  0  0
   -5.6670   19.1460  -33.8250 C   0  0  0  0  0  0  0  0  0  0  0  0
   -6.8730   19.6730  -33.4240 C   0  0  0  0  0  0  0  0  0  0  0  0
   -6.9660   20.8470  -32.6950 C   0  0  0  0  0  0  0  0  0  0  0  0
   -4.9020   23.6170  -31.5160 N   0  0  0  0  0  0  0  0  0  0  0  0
   -3.8740   26.4300  -30.3060 H   0  0  0  0  0  0  0  0  0  0  0  0
   -6.1122   26.0722  -29.5669 H   0  0  0  0  0  0  0  0  0  0  0  0
   -8.0748   24.5096  -29.6459 H   0  0  0  0  0  0  0  0  0  0  0  0
   -7.8890   22.5120  -30.8960 H   0  0  0  0  0  0  0  0  0  0  0  0
   -3.6995   21.5414  -32.4701 H   0  0  0  0  0  0  0  0  0  0  0  0
   -3.5388   19.4567  -33.7656 H   0  0  0  0  0  0  0  0  0  0  0  0
   -5.6136   18.2127  -34.4048 H   0  0  0  0  0  0  0  0  0  0  0  0
   -7.7982   19.1420  -33.6925 H   0  0  0  0  0  0  0  0  0  0  0  0
   -7.9542   21.2290  -32.3992 H   0  0  0  0  0  0  0  0  0  0  0  0
  1  2  2  3
  2  3  1  0
  3  4  2  0
  4  5  1  0
  5  6  1  0
  6  7  1  0
  7  8  2  0
  8  9  1  0
  9 10  2  0
 10 11  1  0
 11 12  2  0
  6 13  2  0
 13  2  1  0
 12  7  1  0
  1 14  1  0
  3 15  1  0
  4 16  1  0
  5 17  1  0
  8 18  1  0
  9 19  1  0
 10 20  1  0
 11 21  1  0
 12 22  1  0
M  END
>  <smiles>  (6) 
N=c1cc[nH]c(-c2ccccc2)n1

>  <score_type>  (6) 
oracle

>  <origin>  (6) 
adgpu

>  <m_score__min__energy>  (6) 
-6.3300000000000001

>  <m_primary>  (6) 
energy

$$$$
6:0
     RDKit          3D

 43 45  0  0  0  0  0  0  0  0999 V2000
   -2.5310   21.8490  -34.1930 H   0  0  0  0  0  0  0  0  0  0  0  0
   -2.6860   20.8160  -34.1970 N   0  0  0  0  0  0  0  0  0  0  0  0
   -3.7910   20.2790  -33.7750 C   0  0  0  0  0  0  0  0  0  0  0  0
   -3.9510   18.8820  -33.7990 C   0  0  0  0  0  0  0  0  0  0  0  0
   -2.8700   18.0370  -34.2690 C   0  0  0  0  0  0  0  0  0  0  0  0
   -2.0070   17.3630  -34.6440 N   0  0  0  0  0  0  0  0  0  0  0  0
   -5.1590   18.3160  -33.3370 C   0  0  0  0  0  0  0  0  0  0  0  0
   -5.3520   16.8430  -33.3500 C   0  0  0  0  0  0  0  0  0  0  0  0
   -6.2960   16.2620  -34.2100 C   0  0  0  0  0  0  0  0  0  0  0  0
   -6.8960   16.8996  -34.8759 H   0  0  0  0  0  0  0  0  0  0  0  0
   -6.4770   14.8760  -34.2240 C   0  0  0  0  0  0  0  0  0  0  0  0
   -7.2261   14.4286  -34.8938 H   0  0  0  0  0  0  0  0  0  0  0  0
   -5.7080   14.0530  -33.3880 C   0  0  0  0  0  0  0  0  0  0  0  0
   -5.9310   12.5700  -33.3750 C   0  0  0  0  0  0  0  0  0  0  0  0
   -5.9842   12.2163  -32.3348 H   0  0  0  0  0  0  0  0  0  0  0  0
   -6.8743   12.3365  -33.8903 H   0  0  0  0  0  0  0  0  0  0  0  0
   -5.0980   12.0694  -33.8903 H   0  0  0  0  0  0  0  0  0  0  0  0
   -4.7750   14.6350  -32.5160 C   0  0  0  0  0  0  0  0  0  0  0  0
   -4.1848   13.9984  -31.8404 H   0  0  0  0  0  0  0  0  0  0  0  0
   -4.5930   16.0220  -32.5030 C   0  0  0  0  0  0  0  0  0  0  0  0
   -3.8515   16.4707  -31.8256 H   0  0  0  0  0  0  0  0  0  0  0  0
   -6.1790   19.1650  -32.8570 C   0  0  0  0  0  0  0  0  0  0  0  0
   -7.4470   18.6200  -32.4190 C   0  0  0  0  0  0  0  0  0  0  0  0
   -8.4600   18.1840  -32.0690 N   0  0  0  0  0  0  0  0  0  0  0  0
   -5.9660   20.5550  -32.8410 C   0  0  0  0  0  0  0  0  0  0  0  0
   -7.2230   21.6850  -32.2150 S   0  0  0  0  0  0  0  0  0  0  0  0
   -6.0070   22.7620  -31.4560 C   0  0  0  0  0  0  0  0  0  0  0  0
   -4.9100   22.2180  -30.7800 C   0  0  0  0  0  0  0  0  0  0  0  0
   -4.7963   21.1263  -30.7071 H   0  0  0  0  0  0  0  0  0  0  0  0
   -3.9580   23.0590  -30.1970 C   0  0  0  0  0  0  0  0  0  0  0  0
   -3.0957   22.6243  -29.6703 H   0  0  0  0  0  0  0  0  0  0  0  0
   -4.0930   24.4510  -30.2780 C   0  0  0  0  0  0  0  0  0  0  0  0
   -3.1110   25.2530  -29.6780 O   0  0  0  0  0  0  0  0  0  0  0  0
   -2.2900   24.8410  -28.5910 C   0  0  0  0  0  0  0  0  0  0  0  0
   -2.7865   25.0901  -27.6415 H   0  0  0  0  0  0  0  0  0  0  0  0
   -2.1273   23.7545  -28.6456 H   0  0  0  0  0  0  0  0  0  0  0  0
   -1.3216   25.3599  -28.6456 H   0  0  0  0  0  0  0  0  0  0  0  0
   -5.2040   24.9950  -30.9530 C   0  0  0  0  0  0  0  0  0  0  0  0
   -5.3234   26.0863  -31.0222 H   0  0  0  0  0  0  0  0  0  0  0  0
   -6.1550   24.1510  -31.5350 C   0  0  0  0  0  0  0  0  0  0  0  0
   -7.0227   24.5808  -32.0569 H   0  0  0  0  0  0  0  0  0  0  0  0
   -4.7960   21.0700  -33.3030 N   0  0  0  0  0  0  0  0  0  0  0  0
   -4.6680   22.1080  -33.2870 H   0  0  0  0  0  0  0  0  0  0  0  0
  1  2  1  0
  2  3  2  0
  3  4  1  0
  4  5  1  0
  5  6  3  0
  4  7  2  0
  7  8  1  0
  8  9  2  0
  9 10  1  0
  9 11  1  0
 11 12  1  0
 11 13  2  0
 13 14  1  0
 14 15  1  0
 14 16  1  0
 14 17  1  0
 13 18  1  0
 18 19  1  0
 18 20  2  0
 20 21  1  0
  7 22  1  0
 22 23  1  0
 23 24  3  0
 22 25  2  0
 25 26  1  0
 26 27  1  0
 27 28  2  0
 28 29  1  0
 28 30  1  0
 30 31  1  0
 30 32  2  0
 32 33  1  0
 33 34  1  0
 34 35  1  0
 34 36  1  0
 34 37  1  0
 32 38  1  0
 38 39  1  0
 38 40  2  0
 40 41  1  0
 25 42  1  0
 42 43  1  0
 42  3  1  0
 20  8  1  0
 40 27  1  0
M  END
>  <UniqueID>  (7) 
5

>  <SMILES>  (7) 
[H]/N=c1\[nH]c(Sc2ccc(OC)cc2)c(C#N)c(-c2ccc(C)cc2)c1C#N

>  <Energy>  (7) 
50.188744279948686

>  <Genealogy>  (7) 
[H]/N=c1\[nH]c(Sc2ccc(OC)cc2)c(C#N)c(-c2ccc(C)cc2)c1C#N (cis-trans isomerization)
[H]/N=c1\[nH]c(Sc2ccc(OC)cc2)c(C#N)c(-c2ccc(C)cc2)c1C#N (3D coordinates assigned)
[H]/N=c1\[nH]c(Sc2ccc(OC)cc2)c(C#N)c(-c2ccc(C)cc2)c1C#N (optimized conformer: 50.188744279948686 kcal/mol)

>  <smiles>  (7) 
COc1ccc(Sc2[nH]c(=N)c(C#N)c(-c3ccc(C)cc3)c2C#N)cc1

>  <score_type>  (7) 
oracle

>  <origin>  (7) 
adgpu

>  <m_score__min__energy>  (7) 
-9.3000000000000007

>  <m_primary>  (7) 
energy

$$$$
7:0
     RDKit          3D

 26 27  0  0  0  0  0  0  0  0999 V2000
   -3.8620   25.3000  -30.8310 O   0  0  0  0  0  0  0  0  0  0  0  0
   -4.8610   24.3450  -31.0090 C   0  0  0  0  0  0  0  0  0  0  0  0
   -4.5340   23.0140  -31.2990 C   0  0  0  0  0  0  0  0  0  0  0  0
   -5.5460   22.0640  -31.4750 C   0  0  0  0  0  0  0  0  0  0  0  0
   -6.8950   22.4410  -31.3730 C   0  0  0  0  0  0  0  0  0  0  0  0
   -7.9830   21.4130  -31.5240 C   0  0  0  0  0  0  0  0  0  0  0  0
   -7.4500   20.1880  -32.2160 C   0  0  0  0  0  0  0  0  0  0  0  0
   -6.8300   20.2970  -33.4710 C   0  0  0  0  0  0  0  0  0  0  0  0
   -6.3020   19.1630  -34.0970 C   0  0  0  0  0  0  0  0  0  0  0  0
   -6.3820   17.9170  -33.4710 C   0  0  0  0  0  0  0  0  0  0  0  0
   -6.9880   17.8020  -32.2160 C   0  0  0  0  0  0  0  0  0  0  0  0
   -7.5160   18.9330  -31.5870 C   0  0  0  0  0  0  0  0  0  0  0  0
   -7.2160   23.7750  -31.0710 C   0  0  0  0  0  0  0  0  0  0  0  0
   -6.2040   24.7210  -30.8950 C   0  0  0  0  0  0  0  0  0  0  0  0
   -3.2520   25.5760  -31.5930 H   0  0  0  0  0  0  0  0  0  0  0  0
   -3.4792   22.7151  -31.3885 H   0  0  0  0  0  0  0  0  0  0  0  0
   -5.2841   21.0183  -31.6940 H   0  0  0  0  0  0  0  0  0  0  0  0
   -8.3588   21.1332  -30.5288 H   0  0  0  0  0  0  0  0  0  0  0  0
   -8.7977   21.8396  -32.1276 H   0  0  0  0  0  0  0  0  0  0  0  0
   -6.7592   21.2779  -33.9638 H   0  0  0  0  0  0  0  0  0  0  0  0
   -5.8233   19.2526  -35.0833 H   0  0  0  0  0  0  0  0  0  0  0  0
   -5.9681   17.0258  -33.9654 H   0  0  0  0  0  0  0  0  0  0  0  0
   -7.0492   16.8204  -31.7233 H   0  0  0  0  0  0  0  0  0  0  0  0
   -7.9848   18.8405  -30.5962 H   0  0  0  0  0  0  0  0  0  0  0  0
   -8.2695   24.0757  -30.9727 H   0  0  0  0  0  0  0  0  0  0  0  0
   -6.4634   25.7652  -30.6660 H   0  0  0  0  0  0  0  0  0  0  0  0
  1  2  1  0
  2  3  2  0
  3  4  1  0
  4  5  2  0
  5  6  1  0
  6  7  1  0
  7  8  2  0
  8  9  1  0
  9 10  2  0
 10 11  1  0
 11 12  2  0
  5 13  1  0
 13 14  2  0
 14  2  1  0
 12  7  1  0
  1 15  1  0
  3 16  1  0
  4 17  1  0
  6 18  1  0
  6 19  1  0
  8 20  1  0
  9 21  1  0
 10 22  1  0
 11 23  1  0
 12 24  1  0
 13 25  1  0
 14 26  1  0
M  END
>  <UniqueID>  (8) 
6

>  <SMILES>  (8) 
Oc1ccc(Cc2ccccc2)cc1

>  <Energy>  (8) 
24.72682918673706

>  <Genealogy>  (8) 
Oc1ccc(Cc2ccccc2)cc1 (3D coordinates assigned)
Oc1ccc(Cc2ccccc2)cc1 (optimized conformer: 24.72682918673706 kcal/mol)

>  <smiles>  (8) 
Oc1ccc(Cc2ccccc2)cc1

>  <score_type>  (8) 
oracle

>  <origin>  (8) 
adgpu

>  <m_score__min__energy>  (8) 
-7.7999999999999998

>  <m_primary>  (8) 
energy

$$$$
8:0
     RDKit          3D

 28 30  0  0  0  0  0  0  0  0999 V2000
   -8.7350   18.7120  -31.5740 Br  0  0  0  0  0  0  0  0  0  0  0  0
   -7.2590   18.5560  -32.7910 C   0  0  0  0  0  0  0  0  0  0  0  0
   -7.0890   17.3390  -33.4640 C   0  0  0  0  0  0  0  0  0  0  0  0
   -6.0000   17.1500  -34.3170 C   0  0  0  0  0  0  0  0  0  0  0  0
   -5.0680   18.1710  -34.4990 C   0  0  0  0  0  0  0  0  0  0  0  0
   -5.2270   19.3900  -33.8330 C   0  0  0  0  0  0  0  0  0  0  0  0
   -6.3250   19.5990  -32.9820 C   0  0  0  0  0  0  0  0  0  0  0  0
   -6.4700   20.9060  -32.3050 C   0  0  0  0  0  0  0  0  0  0  0  0
   -7.6960   21.5910  -32.3400 C   0  0  0  0  0  0  0  0  0  0  0  0
   -7.8300   22.8340  -31.7160 C   0  0  0  0  0  0  0  0  0  0  0  0
   -6.7370   23.4160  -31.0570 C   0  0  0  0  0  0  0  0  0  0  0  0
   -6.8630   24.6640  -30.4280 C   0  0  0  0  0  0  0  0  0  0  0  0
   -5.7640   25.2340  -29.7770 C   0  0  0  0  0  0  0  0  0  0  0  0
   -4.5380   24.5650  -29.7490 C   0  0  0  0  0  0  0  0  0  0  0  0
   -4.4010   23.3210  -30.3720 C   0  0  0  0  0  0  0  0  0  0  0  0
   -5.4950   22.7370  -31.0290 C   0  0  0  0  0  0  0  0  0  0  0  0
   -5.3700   21.4890  -31.6580 C   0  0  0  0  0  0  0  0  0  0  0  0
   -7.8177   16.5278  -33.3195 H   0  0  0  0  0  0  0  0  0  0  0  0
   -5.8770   16.1937  -34.8465 H   0  0  0  0  0  0  0  0  0  0  0  0
   -4.2074   18.0174  -35.1667 H   0  0  0  0  0  0  0  0  0  0  0  0
   -4.4870   20.1912  -33.9764 H   0  0  0  0  0  0  0  0  0  0  0  0
   -8.5560   21.1460  -32.8620 H   0  0  0  0  0  0  0  0  0  0  0  0
   -8.7966   23.3583  -31.7416 H   0  0  0  0  0  0  0  0  0  0  0  0
   -7.8265   25.1943  -30.4469 H   0  0  0  0  0  0  0  0  0  0  0  0
   -5.8655   26.2127  -29.2853 H   0  0  0  0  0  0  0  0  0  0  0  0
   -3.6776   25.0185  -29.2351 H   0  0  0  0  0  0  0  0  0  0  0  0
   -3.4333   22.7986  -30.3472 H   0  0  0  0  0  0  0  0  0  0  0  0
   -4.4033   20.9643  -31.6438 H   0  0  0  0  0  0  0  0  0  0  0  0
  1  2  1  0
  2  3  2  0
  3  4  1  0
  4  5  2  0
  5  6  1  0
  6  7  2  0
  7  8  1  0
  8  9  2  0
  9 10  1  0
 10 11  2  0
 11 12  1  0
 12 13  2  0
 13 14  1  0
 14 15  2  0
 15 16  1  0
 16 17  2  0
  7  2  1  0
 17  8  1  0
 16 11  1  0
  3 18  1  0
  4 19  1  0
  5 20  1  0
  6 21  1  0
  9 22  1  0
 10 23  1  0
 12 24  1  0
 13 25  1  0
 14 26  1  0
 15 27  1  0
 17 28  1  0
M  END
>  <UniqueID>  (9) 
7

>  <SMILES>  (9) 
Brc1ccccc1-c1ccc2ccccc2c1

>  <Energy>  (9) 
41.58027809495047

>  <Genealogy>  (9) 
Brc1ccccc1-c1ccc2ccccc2c1 (3D coordinates assigned)
Brc1ccccc1-c1ccc2ccccc2c1 (optimized conformer: 41.58027809495047 kcal/mol)

>  <smiles>  (9) 
Brc1ccccc1-c1ccc2ccccc2c1

>  <score_type>  (9) 
oracle

>  <origin>  (9) 
adgpu

>  <m_score__min__energy>  (9) 
-8.3000000000000007

>  <m_primary>  (9) 
energy

$$$$
9:0
     RDKit          3D

 29 30  0  0  0  0  0  0  0  0999 V2000
    1.3900   24.2550  -27.0390 C   0  0  0  0  0  0  0  0  0  0  0  0
    0.6300   24.2240  -28.2420 O   0  0  0  0  0  0  0  0  0  0  0  0
   -0.7620   24.0510  -28.2950 C   0  0  0  0  0  0  0  0  0  0  0  0
   -1.4590   23.2570  -27.3650 C   0  0  0  0  0  0  0  0  0  0  0  0
   -2.8480   23.1260  -27.4540 C   0  0  0  0  0  0  0  0  0  0  0  0
   -3.5500   23.7750  -28.4730 C   0  0  0  0  0  0  0  0  0  0  0  0
   -2.8680   24.5470  -29.4200 C   0  0  0  0  0  0  0  0  0  0  0  0
   -3.6220   25.2090  -30.4460 N   0  0  0  0  0  0  0  0  0  0  0  0
   -5.0390   25.1170  -30.6480 C   0  0  0  0  0  0  0  0  0  0  0  0
   -5.7630   26.0780  -30.2760 O   0  0  0  0  0  0  0  0  0  0  0  0
   -5.6750   23.9110  -31.2290 C   0  0  0  0  0  0  0  0  0  0  0  0
   -4.8940   22.8800  -31.7820 C   0  0  0  0  0  0  0  0  0  0  0  0
   -5.5050   21.7450  -32.3250 C   0  0  0  0  0  0  0  0  0  0  0  0
   -6.8950   21.6230  -32.3120 C   0  0  0  0  0  0  0  0  0  0  0  0
   -7.6800   22.6340  -31.7500 C   0  0  0  0  0  0  0  0  0  0  0  0
   -9.0310   22.5110  -31.7330 F   0  0  0  0  0  0  0  0  0  0  0  0
   -7.0740   23.7700  -31.2050 C   0  0  0  0  0  0  0  0  0  0  0  0
   -1.4740   24.6980  -29.3130 C   0  0  0  0  0  0  0  0  0  0  0  0
    0.7099   24.2273  -26.1749 H   0  0  0  0  0  0  0  0  0  0  0  0
    2.0603   23.3834  -27.0062 H   0  0  0  0  0  0  0  0  0  0  0  0
    1.9871   25.1782  -27.0062 H   0  0  0  0  0  0  0  0  0  0  0  0
   -0.9093   22.7381  -26.5659 H   0  0  0  0  0  0  0  0  0  0  0  0
   -3.3894   22.5107  -26.7203 H   0  0  0  0  0  0  0  0  0  0  0  0
   -4.6442   23.6786  -28.5310 H   0  0  0  0  0  0  0  0  0  0  0  0
   -3.7974   22.9668  -31.7874 H   0  0  0  0  0  0  0  0  0  0  0  0
   -4.8882   20.9466  -32.7634 H   0  0  0  0  0  0  0  0  0  0  0  0
   -7.3730   20.7314  -32.7439 H   0  0  0  0  0  0  0  0  0  0  0  0
   -7.6953   24.5582  -30.7547 H   0  0  0  0  0  0  0  0  0  0  0  0
   -0.9375   25.3303  -30.0358 H   0  0  0  0  0  0  0  0  0  0  0  0
  1  2  1  0
  2  3  1  0
  3  4  2  0
  4  5  1  0
  5  6  2  0
  6  7  1  0
  7  8  1  0
  8  9  1  0
  9 10  2  0
  9 11  1  0
 11 12  2  0
 12 13  1  0
 13 14  2  0
 14 15  1  0
 15 16  1  0
 15 17  2  0
  7 18  2  0
 18  3  1  0
 17 11  1  0
  1 19  1  0
  1 20  1  0
  1 21  1  0
  4 22  1  0
  5 23  1  0
  6 24  1  0
 12 25  1  0
 13 26  1  0
 14 27  1  0
 17 28  1  0
 18 29  1  0
M  CHG  1   8  -1
M  END
>  <UniqueID>  (10) 
8

>  <SMILES>  (10) 
COc1cccc([N-]C(=O)c2cccc(F)c2)c1

>  <Energy>  (10) 
35.88928725667808

>  <Genealogy>  (10) 
COc1cccc([N-]C(=O)c2cccc(F)c2)c1 (protonated)
COc1cccc([N-]C(=O)c2cccc(F)c2)c1 (3D coordinates assigned)
COc1cccc([N-]C(=O)c2cccc(F)c2)c1 (optimized conformer: 35.88928725667808 kcal/mol)

>  <smiles>  (10) 
COc1cccc(NC(=O)c2cccc(F)c2)c1

>  <score_type>  (10) 
oracle

>  <origin>  (10) 
adgpu

>  <m_score__min__energy>  (10) 
-8

>  <m_primary>  (10) 
energy

$$$$
10:0
     RDKit          3D

 35 37  0  0  0  0  0  0  0  0999 V2000
   -1.9790   22.6070  -28.5110 C   0  0  0  0  0  0  0  0  0  0  0  0
   -3.0120   23.2180  -29.3540 N   0  0  0  0  0  0  0  0  0  0  0  0
   -4.0680   22.4670  -29.7870 C   0  0  0  0  0  0  0  0  0  0  0  0
   -5.0720   23.0330  -30.5820 C   0  0  0  0  0  0  0  0  0  0  0  0
   -6.2180   22.2080  -31.0380 C   0  0  0  0  0  0  0  0  0  0  0  0
   -7.5140   22.4600  -30.5920 C   0  0  0  0  0  0  0  0  0  0  0  0
   -8.5310   21.3030  -31.2530 S   0  0  0  0  0  0  0  0  0  0  0  0
   -7.2990   20.5060  -32.0630 C   0  0  0  0  0  0  0  0  0  0  0  0
   -7.5270   19.4180  -32.7470 N   0  0  0  0  0  0  0  0  0  0  0  0
   -6.5840   18.5020  -33.3110 C   0  0  0  0  0  0  0  0  0  0  0  0
   -6.1130   18.7090  -34.6130 C   0  0  0  0  0  0  0  0  0  0  0  0
   -5.2350   17.7910  -35.1970 C   0  0  0  0  0  0  0  0  0  0  0  0
   -4.8430   16.6490  -34.4920 C   0  0  0  0  0  0  0  0  0  0  0  0
   -5.3410   16.4170  -33.2050 C   0  0  0  0  0  0  0  0  0  0  0  0
   -4.8670   14.9750  -32.3260 Cl  0  0  0  0  0  0  0  0  0  0  0  0
   -6.2220   17.3340  -32.6200 C   0  0  0  0  0  0  0  0  0  0  0  0
   -6.0950   21.1370  -31.8920 N   0  0  0  0  0  0  0  0  0  0  0  0
   -4.8620   20.8630  -32.6460 C   0  0  0  0  0  0  0  0  0  0  0  0
   -4.9690   24.3950  -30.8980 C   0  0  0  0  0  0  0  0  0  0  0  0
   -5.8380   24.9600  -31.6150 O   0  0  0  0  0  0  0  0  0  0  0  0
   -3.9160   25.1150  -30.4380 N   0  0  0  0  0  0  0  0  0  0  0  0
   -2.9470   24.5480  -29.6750 C   0  0  0  0  0  0  0  0  0  0  0  0
   -1.9920   25.2620  -29.2670 O   0  0  0  0  0  0  0  0  0  0  0  0
   -2.2338   22.7577  -27.4516 H   0  0  0  0  0  0  0  0  0  0  0  0
   -1.9215   21.5295  -28.7246 H   0  0  0  0  0  0  0  0  0  0  0  0
   -1.0070   23.0756  -28.7246 H   0  0  0  0  0  0  0  0  0  0  0  0
   -4.1302   21.4049  -29.5077 H   0  0  0  0  0  0  0  0  0  0  0  0
   -7.8174   23.2775  -29.9215 H   0  0  0  0  0  0  0  0  0  0  0  0
   -6.4346   19.5963  -35.1781 H   0  0  0  0  0  0  0  0  0  0  0  0
   -4.8519   17.9675  -36.2129 H   0  0  0  0  0  0  0  0  0  0  0  0
   -4.1436   15.9333  -34.9487 H   0  0  0  0  0  0  0  0  0  0  0  0
   -6.6314   17.1396  -31.6177 H   0  0  0  0  0  0  0  0  0  0  0  0
   -4.0357   20.6794  -31.9434 H   0  0  0  0  0  0  0  0  0  0  0  0
   -5.0090   19.9756  -33.2792 H   0  0  0  0  0  0  0  0  0  0  0  0
   -4.6193   21.7291  -33.2792 H   0  0  0  0  0  0  0  0  0  0  0  0
  1  2  1  0
  2  3  1  0
  3  4  2  0
  4  5  1  0
  5  6  2  0
  6  7  1  0
  7  8  1  0
  8  9  2  3
  9 10  1  0
 10 11  2  0
 11 12  1  0
 12 13  2  0
 13 14  1  0
 14 15  1  0
 14 16  2  0
  8 17  1  0
 17 18  1  0
  4 19  1  0
 19 20  2  0
 19 21  1  0
 21 22  1  0
 22 23  2  0
 22  2  1  0
 17  5  1  0
 16 10  1  0
  1 24  1  0
  1 25  1  0
  1 26  1  0
  3 27  1  0
  6 28  1  0
 11 29  1  0
 12 30  1  0
 13 31  1  0
 16 32  1  0
 18 33  1  0
 18 34  1  0
 18 35  1  0
M  CHG  1  21  -1
M  END
>  <UniqueID>  (11) 
9

>  <SMILES>  (11) 
Cn1cc(-c2csc(=Nc3cccc(Cl)c3)n2C)c(=O)[n-]c1=O

>  <Energy>  (11) 
91.44679856870333

>  <Genealogy>  (11) 
Cn1cc(-c2csc(=Nc3cccc(Cl)c3)n2C)c(=O)[n-]c1=O (protonated)
Cn1cc(-c2csc(=Nc3cccc(Cl)c3)n2C)c(=O)[n-]c1=O (3D coordinates assigned)
Cn1cc(-c2csc(=Nc3cccc(Cl)c3)n2C)c(=O)[n-]c1=O (optimized conformer: 91.44679856870333 kcal/mol)

>  <smiles>  (11) 
Cn1cc(-c2csc(=Nc3cccc(Cl)c3)n2C)c(=O)[nH]c1=O

>  <score_type>  (11) 
oracle

>  <origin>  (11) 
adgpu

>  <m_score__min__energy>  (11) 
-9.9700000000000006

>  <m_primary>  (11) 
energy

$$$$
11:0
     RDKit          3D

 35 37  0  0  0  0  0  0  0  0999 V2000
   -5.3160   17.7750  -34.9530 C   0  0  0  0  0  0  0  0  0  0  0  0
   -6.1030   18.3930  -33.8480 C   0  0  0  0  0  0  0  0  0  0  0  0
   -6.0650   19.7090  -33.5490 N   0  0  0  0  0  0  0  0  0  0  0  0
   -6.8180   20.0150  -32.4560 C   0  0  0  0  0  0  0  0  0  0  0  0
   -6.9170   21.4090  -31.9500 C   0  0  0  0  0  0  0  0  0  0  0  0
   -8.1200   22.1200  -32.0960 C   0  0  0  0  0  0  0  0  0  0  0  0
   -8.2360   23.4240  -31.6140 C   0  0  0  0  0  0  0  0  0  0  0  0
   -7.1550   24.0400  -30.9830 C   0  0  0  0  0  0  0  0  0  0  0  0
   -5.9380   23.3560  -30.8290 C   0  0  0  0  0  0  0  0  0  0  0  0
   -4.8040   24.0230  -30.1450 C   0  0  0  0  0  0  0  0  0  0  0  0
   -3.9890   24.6970  -30.8330 O   0  0  0  0  0  0  0  0  0  0  0  0
   -4.6270   23.9160  -28.7200 N   0  0  0  0  0  0  0  0  0  0  0  0
   -3.5140   24.4860  -28.0080 C   0  0  0  0  0  0  0  0  0  0  0  0
   -2.2360   24.5580  -28.5920 C   0  0  0  0  0  0  0  0  0  0  0  0
   -1.1610   25.0900  -27.8730 C   0  0  0  0  0  0  0  0  0  0  0  0
   -1.3480   25.5420  -26.5650 C   0  0  0  0  0  0  0  0  0  0  0  0
   -2.6090   25.4540  -25.9700 C   0  0  0  0  0  0  0  0  0  0  0  0
   -3.6870   24.9210  -26.6830 C   0  0  0  0  0  0  0  0  0  0  0  0
   -4.9050   24.8440  -26.0900 F   0  0  0  0  0  0  0  0  0  0  0  0
   -5.8320   22.0350  -31.3020 C   0  0  0  0  0  0  0  0  0  0  0  0
   -7.4470   18.9150  -31.8640 C   0  0  0  0  0  0  0  0  0  0  0  0
   -7.0400   17.5420  -32.7460 S   0  0  0  0  0  0  0  0  0  0  0  0
   -4.5178   17.1482  -34.5286 H   0  0  0  0  0  0  0  0  0  0  0  0
   -5.9794   17.1540  -35.5729 H   0  0  0  0  0  0  0  0  0  0  0  0
   -4.8700   18.5668  -35.5729 H   0  0  0  0  0  0  0  0  0  0  0  0
   -8.9775   21.6445  -32.5945 H   0  0  0  0  0  0  0  0  0  0  0  0
   -9.1842   23.9690  -31.7320 H   0  0  0  0  0  0  0  0  0  0  0  0
   -7.2564   25.0676  -30.6038 H   0  0  0  0  0  0  0  0  0  0  0  0
   -5.3580   23.4380  -28.1510 H   0  0  0  0  0  0  0  0  0  0  0  0
   -2.0817   24.1943  -29.6186 H   0  0  0  0  0  0  0  0  0  0  0  0
   -0.1663   25.1525  -28.3386 H   0  0  0  0  0  0  0  0  0  0  0  0
   -0.5030   25.9671  -26.0035 H   0  0  0  0  0  0  0  0  0  0  0  0
   -2.7541   25.8051  -24.9377 H   0  0  0  0  0  0  0  0  0  0  0  0
   -4.8904   21.4833  -31.1645 H   0  0  0  0  0  0  0  0  0  0  0  0
   -8.0953   18.9430  -30.9758 H   0  0  0  0  0  0  0  0  0  0  0  0
  1  2  1  0
  2  3  2  0
  3  4  1  0
  4  5  1  0
  5  6  2  0
  6  7  1  0
  7  8  2  0
  8  9  1  0
  9 10  1  0
 10 11  2  0
 10 12  1  0
 12 13  1  0
 13 14  2  0
 14 15  1  0
 15 16  2  0
 16 17  1  0
 17 18  2  0
 18 19  1  0
  9 20  2  0
  4 21  2  0
 21 22  1  0
 22  2  1  0
 20  5  1  0
 18 13  1  0
  1 23  1  0
  1 24  1  0
  1 25  1  0
  6 26  1  0
  7 27  1  0
  8 28  1  0
 12 29  1  0
 14 30  1  0
 15 31  1  0
 16 32  1  0
 17 33  1  0
 20 34  1  0
 21 35  1  0
M  END
>  <UniqueID>  (12) 
10

>  <SMILES>  (12) 
Cc1nc(-c2cccc(C(=O)Nc3ccccc3F)c2)cs1

>  <Energy>  (12) 
75.23683293463293

>  <Genealogy>  (12) 
Cc1nc(-c2cccc(C(=O)Nc3ccccc3F)c2)cs1 (3D coordinates assigned)
Cc1nc(-c2cccc(C(=O)Nc3ccccc3F)c2)cs1 (optimized conformer: 75.23683293463293 kcal/mol)

>  <smiles>  (12) 
Cc1nc(-c2cccc(C(=O)Nc3ccccc3F)c2)cs1

>  <score_type>  (12) 
oracle

>  <origin>  (12) 
adgpu

>  <m_score__min__energy>  (12) 
-8.7599999999999998

>  <m_primary>  (12) 
energy

$$$$
12:0
     RDKit          3D

 35 38  0  0  0  0  0  0  0  0999 V2000
   -8.3740   18.3160  -32.3240 C   0  0  0  0  0  0  0  0  0  0  0  0
   -7.0820   18.4620  -32.8350 C   0  0  0  0  0  0  0  0  0  0  0  0
   -6.5220   19.7350  -32.9730 C   0  0  0  0  0  0  0  0  0  0  0  0
   -7.2620   20.8760  -32.6110 C   0  0  0  0  0  0  0  0  0  0  0  0
   -6.7310   22.1710  -32.7180 O   0  0  0  0  0  0  0  0  0  0  0  0
   -5.8910   22.7850  -31.7770 C   0  0  0  0  0  0  0  0  0  0  0  0
   -6.3590   23.7740  -30.8950 C   0  0  0  0  0  0  0  0  0  0  0  0
   -5.4950   24.3500  -29.9600 C   0  0  0  0  0  0  0  0  0  0  0  0
   -4.1520   23.9400  -29.8810 C   0  0  0  0  0  0  0  0  0  0  0  0
   -3.2370   24.5500  -28.8920 C   0  0  0  0  0  0  0  0  0  0  0  0
   -2.1490   25.2870  -29.2470 N   0  0  0  0  0  0  0  0  0  0  0  0
   -1.6260   25.6310  -28.0620 C   0  0  0  0  0  0  0  0  0  0  0  0
   -0.4880   26.3970  -27.8220 C   0  0  0  0  0  0  0  0  0  0  0  0
   -0.1290   26.6310  -26.4800 C   0  0  0  0  0  0  0  0  0  0  0  0
   -0.9080   26.0960  -25.4290 C   0  0  0  0  0  0  0  0  0  0  0  0
   -2.0520   25.3260  -25.7110 C   0  0  0  0  0  0  0  0  0  0  0  0
   -2.3760   25.1170  -27.0510 C   0  0  0  0  0  0  0  0  0  0  0  0
   -3.4100   24.4230  -27.5470 N   0  0  0  0  0  0  0  0  0  0  0  0
   -3.6950   22.9350  -30.7520 C   0  0  0  0  0  0  0  0  0  0  0  0
   -4.5610   22.3610  -31.6860 C   0  0  0  0  0  0  0  0  0  0  0  0
   -8.5490   20.7200  -32.0820 C   0  0  0  0  0  0  0  0  0  0  0  0
   -9.1060   19.4440  -31.9430 C   0  0  0  0  0  0  0  0  0  0  0  0
   -8.8151   17.3135  -32.2215 H   0  0  0  0  0  0  0  0  0  0  0  0
   -6.5044   17.5733  -33.1293 H   0  0  0  0  0  0  0  0  0  0  0  0
   -5.5004   19.8454  -33.3655 H   0  0  0  0  0  0  0  0  0  0  0  0
   -7.4098   24.0960  -30.9409 H   0  0  0  0  0  0  0  0  0  0  0  0
   -5.8682   25.1303  -29.2804 H   0  0  0  0  0  0  0  0  0  0  0  0
    0.1093   26.8048  -28.6508 H   0  0  0  0  0  0  0  0  0  0  0  0
    0.7621   27.2331  -26.2489 H   0  0  0  0  0  0  0  0  0  0  0  0
   -0.6185   26.2825  -24.3843 H   0  0  0  0  0  0  0  0  0  0  0  0
   -2.6683   24.9043  -24.9033 H   0  0  0  0  0  0  0  0  0  0  0  0
   -2.6491   22.5987  -30.6976 H   0  0  0  0  0  0  0  0  0  0  0  0
   -4.1940   21.5691  -32.3554 H   0  0  0  0  0  0  0  0  0  0  0  0
   -9.1251   21.6051  -31.7741 H   0  0  0  0  0  0  0  0  0  0  0  0
  -10.1205   19.3286  -31.5337 H   0  0  0  0  0  0  0  0  0  0  0  0
  1  2  2  0
  2  3  1  0
  3  4  2  0
  4  5  1  0
  5  6  1  0
  6  7  2  0
  7  8  1  0
  8  9  2  0
  9 10  1  0
 10 11  2  0
 11 12  1  0
 12 13  2  0
 13 14  1  0
 14 15  2  0
 15 16  1  0
 16 17  2  0
 17 18  1  0
  9 19  1  0
 19 20  2  0
  4 21  1  0
 21 22  2  0
 22  1  1  0
 20  6  1  0
 18 10  1  0
 17 12  1  0
  1 23  1  0
  2 24  1  0
  3 25  1  0
  7 26  1  0
  8 27  1  0
 13 28  1  0
 14 29  1  0
 15 30  1  0
 16 31  1  0
 19 32  1  0
 20 33  1  0
 21 34  1  0
 22 35  1  0
M  CHG  1  18  -1
M  END
>  <UniqueID>  (13) 
11

>  <SMILES>  (13) 
c1ccc(Oc2ccc(-c3nc4ccccc4[n-]3)cc2)cc1

>  <Energy>  (13) 
81.9433195312351

>  <Genealogy>  (13) 
c1ccc(Oc2ccc(-c3nc4ccccc4[n-]3)cc2)cc1 (protonated)
c1ccc(Oc2ccc(-c3nc4ccccc4[n-]3)cc2)cc1 (3D coordinates assigned)
c1ccc(Oc2ccc(-c3nc4ccccc4[n-]3)cc2)cc1 (optimized conformer: 81.9433195312351 kcal/mol)

>  <smiles>  (13) 
c1ccc(Oc2ccc(-c3nc4ccccc4[nH]3)cc2)cc1

>  <score_type>  (13) 
oracle

>  <origin>  (13) 
adgpu

>  <m_score__min__energy>  (13) 
-9.0199999999999996

>  <m_primary>  (13) 
energy

$$$$
13:0
     RDKit          3D

 38 40  0  0  0  0  0  0  0  0999 V2000
   -0.0320   20.3300  -32.8610 C   0  0  0  0  0  0  0  0  0  0  0  0
   -1.3750   20.9060  -32.5240 C   0  0  0  0  0  0  0  0  0  0  0  0
   -2.3770   20.9810  -33.5030 C   0  0  0  0  0  0  0  0  0  0  0  0
   -3.6170   21.5520  -33.2000 C   0  0  0  0  0  0  0  0  0  0  0  0
   -3.8730   22.0570  -31.9140 C   0  0  0  0  0  0  0  0  0  0  0  0
   -5.1370   22.6700  -31.5950 N   0  0  0  0  0  0  0  0  0  0  0  0
   -6.2520   21.9830  -31.8610 N   0  0  0  0  0  0  0  0  0  0  0  0
   -7.4890   22.4850  -31.6120 C   0  0  0  0  0  0  0  0  0  0  0  0
   -8.9380   21.5200  -32.0260 S   0  0  0  0  0  0  0  0  0  0  0  0
   -7.9690   20.0360  -32.2930 C   0  0  0  0  0  0  0  0  0  0  0  0
   -7.9740   19.0140  -31.3370 C   0  0  0  0  0  0  0  0  0  0  0  0
   -7.2400   17.8460  -31.5600 C   0  0  0  0  0  0  0  0  0  0  0  0
   -6.4940   17.6980  -32.7330 C   0  0  0  0  0  0  0  0  0  0  0  0
   -6.4680   18.7270  -33.6880 C   0  0  0  0  0  0  0  0  0  0  0  0
   -5.7080   18.5520  -34.9680 C   0  0  0  0  0  0  0  0  0  0  0  0
   -7.2190   19.8920  -33.4670 C   0  0  0  0  0  0  0  0  0  0  0  0
   -7.6160   23.7560  -31.0590 C   0  0  0  0  0  0  0  0  0  0  0  0
   -6.4660   24.4870  -30.7820 C   0  0  0  0  0  0  0  0  0  0  0  0
   -5.2150   23.9350  -31.0670 C   0  0  0  0  0  0  0  0  0  0  0  0
   -4.1760   24.6180  -30.8530 O   0  0  0  0  0  0  0  0  0  0  0  0
   -2.8550   22.0130  -30.9470 C   0  0  0  0  0  0  0  0  0  0  0  0
   -1.6150   21.4410  -31.2500 C   0  0  0  0  0  0  0  0  0  0  0  0
    0.5105   20.0973  -31.9328 H   0  0  0  0  0  0  0  0  0  0  0  0
   -0.1647   19.4097  -33.4487 H   0  0  0  0  0  0  0  0  0  0  0  0
    0.5433   21.0605  -33.4487 H   0  0  0  0  0  0  0  0  0  0  0  0
   -2.1865   20.5891  -34.5130 H   0  0  0  0  0  0  0  0  0  0  0  0
   -4.3972   21.6062  -33.9735 H   0  0  0  0  0  0  0  0  0  0  0  0
   -8.5554   19.1301  -30.4105 H   0  0  0  0  0  0  0  0  0  0  0  0
   -7.2492   17.0409  -30.8106 H   0  0  0  0  0  0  0  0  0  0  0  0
   -5.9257   16.7727  -32.9083 H   0  0  0  0  0  0  0  0  0  0  0  0
   -4.6590   18.3105  -34.7415 H   0  0  0  0  0  0  0  0  0  0  0  0
   -6.1551   17.7333  -35.5509 H   0  0  0  0  0  0  0  0  0  0  0  0
   -5.7521   19.4838  -35.5509 H   0  0  0  0  0  0  0  0  0  0  0  0
   -7.2185   20.6950  -34.2188 H   0  0  0  0  0  0  0  0  0  0  0  0
   -8.6100   24.1754  -30.8446 H   0  0  0  0  0  0  0  0  0  0  0  0
   -6.5409   25.4923  -30.3418 H   0  0  0  0  0  0  0  0  0  0  0  0
   -3.0341   22.4309  -29.9454 H   0  0  0  0  0  0  0  0  0  0  0  0
   -0.8246   21.4107  -30.4856 H   0  0  0  0  0  0  0  0  0  0  0  0
  1  2  1  0
  2  3  2  0
  3  4  1  0
  4  5  2  0
  5  6  1  0
  6  7  1  0
  7  8  2  0
  8  9  1  0
  9 10  1  0
 10 11  2  0
 11 12  1  0
 12 13  2  0
 13 14  1  0
 14 15  1  0
 14 16  2  0
  8 17  1  0
 17 18  2  0
 18 19  1  0
 19 20  2  0
  5 21  1  0
 21 22  2  0
 22  2  1  0
 19  6  1  0
 16 10  1  0
  1 23  1  0
  1 24  1  0
  1 25  1  0
  3 26  1  0
  4 27  1  0
 11 28  1  0
 12 29  1  0
 13 30  1  0
 15 31  1  0
 15 32  1  0
 15 33  1  0
 16 34  1  0
 17 35  1  0
 18 36  1  0
 21 37  1  0
 22 38  1  0
M  END
>  <UniqueID>  (14) 
12

>  <SMILES>  (14) 
Cc1ccc(-n2nc(Sc3cccc(C)c3)ccc2=O)cc1

>  <Energy>  (14) 
41.79218605380818

>  <Genealogy>  (14) 
Cc1ccc(-n2nc(Sc3cccc(C)c3)ccc2=O)cc1 (3D coordinates assigned)
Cc1ccc(-n2nc(Sc3cccc(C)c3)ccc2=O)cc1 (optimized conformer: 41.79218605380818 kcal/mol)

>  <smiles>  (14) 
Cc1ccc(-n2nc(Sc3cccc(C)c3)ccc2=O)cc1

>  <score_type>  (14) 
oracle

>  <origin>  (14) 
adgpu

>  <m_score__min__energy>  (14) 
-8.9700000000000006

>  <m_primary>  (14) 
energy

$$$$
14:0
     RDKit          3D

 43 45  0  0  0  0  0  0  0  0999 V2000
   -5.4328   26.3177  -31.4340 H   0  0  0  0  0  0  0  0  0  0  0  0
   -5.3730   25.2860  -31.0570 C   0  0  0  0  0  0  0  0  0  0  0  0
   -4.4950   24.9750  -30.0670 N   0  0  0  0  0  0  0  0  0  0  0  0
   -4.3900   23.7120  -29.5660 C   0  0  0  0  0  0  0  0  0  0  0  0
   -3.5230   23.4240  -28.6380 N   0  0  0  0  0  0  0  0  0  0  0  0
   -2.6540   24.3410  -27.9510 C   0  0  0  0  0  0  0  0  0  0  0  0
   -2.9920   24.8990  -26.7060 C   0  0  0  0  0  0  0  0  0  0  0  0
   -3.9598   24.6576  -26.2422 H   0  0  0  0  0  0  0  0  0  0  0  0
   -2.1040   25.7590  -26.0550 C   0  0  0  0  0  0  0  0  0  0  0  0
   -2.3870   26.2043  -25.0898 H   0  0  0  0  0  0  0  0  0  0  0  0
   -0.8550   26.0610  -26.6190 C   0  0  0  0  0  0  0  0  0  0  0  0
    0.0310   26.9540  -25.9180 N   0  0  0  0  0  0  0  0  0  0  0  0
    0.9790   27.1350  -26.3160 H   0  0  0  0  0  0  0  0  0  0  0  0
   -0.3890   27.8340  -24.4810 S   0  0  0  0  0  0  0  0  0  0  0  0
   -1.2110   26.9450  -23.5920 O   0  0  0  0  0  0  0  0  0  0  0  0
   -1.2050   29.0450  -24.8380 O   0  0  0  0  0  0  0  0  0  0  0  0
    1.0820   28.3100  -23.5990 C   0  0  0  0  0  0  0  0  0  0  0  0
    0.8961   28.2498  -22.5165 H   0  0  0  0  0  0  0  0  0  0  0  0
    1.9060   27.6326  -23.8677 H   0  0  0  0  0  0  0  0  0  0  0  0
    1.3530   29.3417  -23.8677 H   0  0  0  0  0  0  0  0  0  0  0  0
   -0.5090   25.4790  -27.8530 C   0  0  0  0  0  0  0  0  0  0  0  0
    0.4669   25.7026  -28.3087 H   0  0  0  0  0  0  0  0  0  0  0  0
   -1.3990   24.6180  -28.5030 C   0  0  0  0  0  0  0  0  0  0  0  0
   -1.1093   24.1542  -29.4574 H   0  0  0  0  0  0  0  0  0  0  0  0
   -5.1940   22.6930  -30.0910 C   0  0  0  0  0  0  0  0  0  0  0  0
   -5.1013   21.6651  -29.7104 H   0  0  0  0  0  0  0  0  0  0  0  0
   -6.1180   22.9880  -31.1040 C   0  0  0  0  0  0  0  0  0  0  0  0
   -6.9740   21.9240  -31.6760 C   0  0  0  0  0  0  0  0  0  0  0  0
   -8.3380   21.9020  -31.3380 C   0  0  0  0  0  0  0  0  0  0  0  0
   -8.7395   22.6544  -30.6432 H   0  0  0  0  0  0  0  0  0  0  0  0
   -9.1880   20.9340  -31.8760 C   0  0  0  0  0  0  0  0  0  0  0  0
  -10.2537   20.9263  -31.6036 H   0  0  0  0  0  0  0  0  0  0  0  0
   -8.6880   19.9770  -32.7580 C   0  0  0  0  0  0  0  0  0  0  0  0
   -9.3622   19.2220  -33.1885 H   0  0  0  0  0  0  0  0  0  0  0  0
   -7.3330   19.9750  -33.0960 C   0  0  0  0  0  0  0  0  0  0  0  0
   -6.9468   19.2201  -33.7967 H   0  0  0  0  0  0  0  0  0  0  0  0
   -6.4580   20.9300  -32.5480 C   0  0  0  0  0  0  0  0  0  0  0  0
   -4.9990   20.8780  -32.9220 C   0  0  0  0  0  0  0  0  0  0  0  0
   -4.3868   20.8562  -32.0083 H   0  0  0  0  0  0  0  0  0  0  0  0
   -4.8046   19.9724  -33.5153 H   0  0  0  0  0  0  0  0  0  0  0  0
   -4.7406   21.7675  -33.5153 H   0  0  0  0  0  0  0  0  0  0  0  0
   -6.1990   24.2980  -31.5960 C   0  0  0  0  0  0  0  0  0  0  0  0
   -6.9076   24.5455  -32.4002 H   0  0  0  0  0  0  0  0  0  0  0  0
  1  2  1  0
  2  3  1  0
  3  4  1  0
  4  5  2  0
  5  6  1  0
  6  7  2  0
  7  8  1  0
  7  9  1  0
  9 10  1  0
  9 11  2  0
 11 12  1  0
 12 13  1  0
 12 14  1  0
 14 15  2  0
 14 16  2  0
 14 17  1  0
 17 18  1  0
 17 19  1  0
 17 20  1  0
 11 21  1  0
 21 22  1  0
 21 23  2  0
 23 24  1  0
  4 25  1  0
 25 26  1  0
 25 27  2  0
 27 28  1  0
 28 29  2  0
 29 30  1  0
 29 31  1  0
 31 32  1  0
 31 33  2  0
 33 34  1  0
 33 35  1  0
 35 36  1  0
 35 37  2  0
 37 38  1  0
 38 39  1  0
 38 40  1  0
 38 41  1  0
 27 42  1  0
 42 43  1  0
 42  2  2  0
 23  6  1  0
 37 28  1  0
M  CHG  1   3  -1
M  END
>  <UniqueID>  (15) 
13

>  <SMILES>  (15) 
Cc1ccccc1-c1cc[n-]/c(=N\c2ccc(NS(C)(=O)=O)cc2)c1

>  <Energy>  (15) 
58.6783009947929

>  <Genealogy>  (15) 
Cc1ccccc1-c1cc[n-]c(=Nc2ccc(NS(C)(=O)=O)cc2)c1 (protonated)
Cc1ccccc1-c1cc[n-]/c(=N\c2ccc(NS(C)(=O)=O)cc2)c1 (cis-trans isomerization)
Cc1ccccc1-c1cc[n-]/c(=N\c2ccc(NS(C)(=O)=O)cc2)c1 (3D coordinates assigned)
Cc1ccccc1-c1cc[n-]/c(=N\c2ccc(NS(C)(=O)=O)cc2)c1 (optimized conformer: 58.6783009947929 kcal/mol)

>  <smiles>  (15) 
Cc1ccccc1-c1cc[nH]c(=Nc2ccc(NS(C)(=O)=O)cc2)c1

>  <score_type>  (15) 
oracle

>  <origin>  (15) 
adgpu

>  <m_score__min__energy>  (15) 
-9.3800000000000008

>  <m_primary>  (15) 
energy

$$$$
15:0
     RDKit          3D

 33 35  0  0  0  0  0  0  0  0999 V2000
   -6.8400   18.2530  -31.2900 O   0  0  0  0  0  0  0  0  0  0  0  0
   -6.2930   18.2270  -32.4250 C   0  0  0  0  0  0  0  0  0  0  0  0
   -5.7870   19.4350  -33.0190 N   0  0  0  0  0  0  0  0  0  0  0  0
   -5.6160   20.6710  -32.3050 C   0  0  0  0  0  0  0  0  0  0  0  0
   -4.3760   21.0320  -31.7470 C   0  0  0  0  0  0  0  0  0  0  0  0
   -4.2320   22.2490  -31.0760 C   0  0  0  0  0  0  0  0  0  0  0  0
   -5.3180   23.1260  -30.9630 C   0  0  0  0  0  0  0  0  0  0  0  0
   -5.1460   24.6590  -30.1140 S   0  0  0  0  0  0  0  0  0  0  0  0
   -4.2970   25.6110  -30.9110 O   0  0  0  0  0  0  0  0  0  0  0  0
   -6.5060   25.2640  -29.9130 O   0  0  0  0  0  0  0  0  0  0  0  0
   -4.4020   24.4010  -28.5690 N   0  0  0  0  0  0  0  0  0  0  0  0
   -3.1310   24.5500  -28.3620 C   0  0  0  0  0  0  0  0  0  0  0  0
   -2.2490   24.9200  -29.3160 N   0  0  0  0  0  0  0  0  0  0  0  0
   -0.9850   24.9890  -28.8190 C   0  0  0  0  0  0  0  0  0  0  0  0
   -0.8630   24.6740  -27.4700 C   0  0  0  0  0  0  0  0  0  0  0  0
   -2.3920   24.2950  -26.8770 S   0  0  0  0  0  0  0  0  0  0  0  0
   -6.5460   22.7840  -31.5420 C   0  0  0  0  0  0  0  0  0  0  0  0
   -6.6920   21.5670  -32.2130 C   0  0  0  0  0  0  0  0  0  0  0  0
   -6.2110   16.9560  -33.1600 C   0  0  0  0  0  0  0  0  0  0  0  0
   -5.0510   16.2850  -33.4950 C   0  0  0  0  0  0  0  0  0  0  0  0
   -5.4580   15.1570  -34.1730 C   0  0  0  0  0  0  0  0  0  0  0  0
   -6.8360   15.2090  -34.2120 C   0  0  0  0  0  0  0  0  0  0  0  0
   -7.2560   16.2920  -33.6000 O   0  0  0  0  0  0  0  0  0  0  0  0
   -5.6180   19.4380  -34.0500 H   0  0  0  0  0  0  0  0  0  0  0  0
   -3.5157   20.3528  -31.8394 H   0  0  0  0  0  0  0  0  0  0  0  0
   -3.2614   22.5195  -30.6346 H   0  0  0  0  0  0  0  0  0  0  0  0
   -0.1219   25.2733  -29.4389 H   0  0  0  0  0  0  0  0  0  0  0  0
    0.0718   24.6727  -26.8903 H   0  0  0  0  0  0  0  0  0  0  0  0
   -7.3984   23.4754  -31.4685 H   0  0  0  0  0  0  0  0  0  0  0  0
   -7.6577   21.3094  -32.6725 H   0  0  0  0  0  0  0  0  0  0  0  0
   -4.0182   16.5880  -33.2679 H   0  0  0  0  0  0  0  0  0  0  0  0
   -4.8140   14.3729  -34.5977 H   0  0  0  0  0  0  0  0  0  0  0  0
   -7.4848   14.4568  -34.6844 H   0  0  0  0  0  0  0  0  0  0  0  0
  1  2  2  0
  2  3  1  0
  3  4  1  0
  4  5  2  0
  5  6  1  0
  6  7  2  0
  7  8  1  0
  8  9  2  0
  8 10  2  0
  8 11  1  0
 11 12  2  3
 12 13  1  0
 13 14  1  0
 14 15  2  0
 15 16  1  0
  7 17  1  0
 17 18  2  0
  2 19  1  0
 19 20  2  0
 20 21  1  0
 21 22  2  0
 22 23  1  0
 18  4  1  0
 23 19  1  0
 16 12  1  0
  3 24  1  0
  5 25  1  0
  6 26  1  0
 14 27  1  0
 15 28  1  0
 17 29  1  0
 18 30  1  0
 20 31  1  0
 21 32  1  0
 22 33  1  0
M  CHG  1  13  -1
M  END
>  <UniqueID>  (16) 
14

>  <SMILES>  (16) 
O=C(Nc1ccc(S(=O)(=O)N=c2[n-]ccs2)cc1)c1ccco1

>  <Energy>  (16) 
96.591737202786

>  <Genealogy>  (16) 
O=C(Nc1ccc(S(=O)(=O)N=c2[n-]ccs2)cc1)c1ccco1 (protonated)
O=C(Nc1ccc(S(=O)(=O)N=c2[n-]ccs2)cc1)c1ccco1 (3D coordinates assigned)
O=C(Nc1ccc(S(=O)(=O)N=c2[n-]ccs2)cc1)c1ccco1 (optimized conformer: 96.591737202786 kcal/mol)

>  <smiles>  (16) 
O=C(Nc1ccc(S(=O)(=O)N=c2[nH]ccs2)cc1)c1ccco1

>  <score_type>  (16) 
oracle

>  <origin>  (16) 
adgpu

>  <m_score__min__energy>  (16) 
-8.9199999999999999

>  <m_primary>  (16) 
energy

$$$$
16:0
     RDKit          3D

 30 32  0  0  0  0  0  0  0  0999 V2000
   -1.6100   26.3820  -29.5810 H   0  0  0  0  0  0  0  0  0  0  0  0
   -1.9240   25.6530  -28.9520 O   0  0  0  0  0  0  0  0  0  0  0  0
   -2.9960   24.8300  -29.2840 C   0  0  0  0  0  0  0  0  0  0  0  0
   -3.6390   24.9500  -30.4760 N   0  0  0  0  0  0  0  0  0  0  0  0
   -4.6380   24.0490  -30.5920 C   0  0  0  0  0  0  0  0  0  0  0  0
   -5.4160   24.0120  -31.6340 N   0  0  0  0  0  0  0  0  0  0  0  0
   -6.4770   23.0740  -31.8750 C   0  0  0  0  0  0  0  0  0  0  0  0
   -7.8160   23.3870  -31.5870 C   0  0  0  0  0  0  0  0  0  0  0  0
   -8.0745   24.3817  -31.1948 H   0  0  0  0  0  0  0  0  0  0  0  0
   -8.8190   22.4400  -31.7970 C   0  0  0  0  0  0  0  0  0  0  0  0
   -9.8677   22.6955  -31.5849 H   0  0  0  0  0  0  0  0  0  0  0  0
   -8.4950   21.1680  -32.2760 C   0  0  0  0  0  0  0  0  0  0  0  0
   -9.2923   20.4305  -32.4502 H   0  0  0  0  0  0  0  0  0  0  0  0
   -7.1560   20.8240  -32.5370 C   0  0  0  0  0  0  0  0  0  0  0  0
   -6.8080   19.4670  -33.0290 C   0  0  0  0  0  0  0  0  0  0  0  0
   -6.0620   19.3040  -34.2120 C   0  0  0  0  0  0  0  0  0  0  0  0
   -5.7344   20.1886  -34.7778 H   0  0  0  0  0  0  0  0  0  0  0  0
   -5.7350   18.0250  -34.6720 C   0  0  0  0  0  0  0  0  0  0  0  0
   -5.1508   17.9075  -35.5966 H   0  0  0  0  0  0  0  0  0  0  0  0
   -6.1480   16.8960  -33.9610 C   0  0  0  0  0  0  0  0  0  0  0  0
   -5.8896   15.8908  -34.3254 H   0  0  0  0  0  0  0  0  0  0  0  0
   -6.8900   17.0450  -32.7860 C   0  0  0  0  0  0  0  0  0  0  0  0
   -7.2166   16.1559  -32.2266 H   0  0  0  0  0  0  0  0  0  0  0  0
   -7.2180   18.3220  -32.3200 C   0  0  0  0  0  0  0  0  0  0  0  0
   -7.8002   18.4326  -31.3933 H   0  0  0  0  0  0  0  0  0  0  0  0
   -6.1520   21.7870  -32.3200 C   0  0  0  0  0  0  0  0  0  0  0  0
   -5.0994   21.5249  -32.5023 H   0  0  0  0  0  0  0  0  0  0  0  0
   -4.7720   23.0900  -29.2080 S   0  0  0  0  0  0  0  0  0  0  0  0
   -3.4810   23.8410  -28.4340 C   0  0  0  0  0  0  0  0  0  0  0  0
   -3.0905   23.5945  -27.4356 H   0  0  0  0  0  0  0  0  0  0  0  0
  1  2  1  0
  2  3  1  0
  3  4  1  0
  4  5  1  0
  5  6  2  0
  6  7  1  0
  7  8  2  0
  8  9  1  0
  8 10  1  0
 10 11  1  0
 10 12  2  0
 12 13  1  0
 12 14  1  0
 14 15  1  0
 15 16  2  0
 16 17  1  0
 16 18  1  0
 18 19  1  0
 18 20  2  0
 20 21  1  0
 20 22  1  0
 22 23  1  0
 22 24  2  0
 24 25  1  0
 14 26  2  0
 26 27  1  0
  5 28  1  0
 28 29  1  0
 29 30  1  0
 29  3  2  0
 26  7  1  0
 24 15  1  0
M  CHG  1   4  -1
M  END
>  <UniqueID>  (17) 
15

>  <SMILES>  (17) 
Oc1cs/c(=N\c2cccc(-c3ccccc3)c2)[n-]1

>  <Energy>  (17) 
74.99478521219505

>  <Genealogy>  (17) 
Oc1csc(=Nc2cccc(-c3ccccc3)c2)[n-]1 (protonated)
Oc1cs/c(=N\c2cccc(-c3ccccc3)c2)[n-]1 (cis-trans isomerization)
Oc1cs/c(=N\c2cccc(-c3ccccc3)c2)[n-]1 (3D coordinates assigned)
Oc1cs/c(=N\c2cccc(-c3ccccc3)c2)[n-]1 (optimized conformer: 74.99478521219505 kcal/mol)

>  <smiles>  (17) 
Oc1csc(=Nc2cccc(-c3ccccc3)c2)[nH]1

>  <score_type>  (17) 
oracle

>  <origin>  (17) 
adgpu

>  <m_score__min__energy>  (17) 
-10.75

>  <m_primary>  (17) 
energy

$$$$
17:0
     RDKit          3D

 40 42  0  0  0  0  0  0  0  0999 V2000
   -1.0930   26.7430  -24.2110 C   0  0  0  0  0  0  0  0  0  0  0  0
   -0.6260   26.0050  -25.4300 C   0  0  0  0  0  0  0  0  0  0  0  0
    0.5410   25.2270  -25.3840 C   0  0  0  0  0  0  0  0  0  0  0  0
    0.9660   24.5330  -26.5180 C   0  0  0  0  0  0  0  0  0  0  0  0
    0.2190   24.5880  -27.6970 C   0  0  0  0  0  0  0  0  0  0  0  0
   -0.9740   25.3230  -27.7480 C   0  0  0  0  0  0  0  0  0  0  0  0
   -1.7170   25.3780  -28.9760 N   0  0  0  0  0  0  0  0  0  0  0  0
   -2.8280   24.5230  -29.2800 C   0  0  0  0  0  0  0  0  0  0  0  0
   -3.0370   23.4830  -28.5980 O   0  0  0  0  0  0  0  0  0  0  0  0
   -3.6360   24.8140  -30.4270 N   0  0  0  0  0  0  0  0  0  0  0  0
   -4.8410   24.1380  -30.8190 C   0  0  0  0  0  0  0  0  0  0  0  0
   -4.8200   22.9250  -31.5330 C   0  0  0  0  0  0  0  0  0  0  0  0
   -6.0170   22.2960  -31.8880 C   0  0  0  0  0  0  0  0  0  0  0  0
   -7.2430   22.8560  -31.5130 C   0  0  0  0  0  0  0  0  0  0  0  0
   -8.7770   22.0490  -31.9660 S   0  0  0  0  0  0  0  0  0  0  0  0
   -7.9550   20.5060  -32.3510 C   0  0  0  0  0  0  0  0  0  0  0  0
   -8.1080   19.3940  -31.5140 C   0  0  0  0  0  0  0  0  0  0  0  0
   -7.4580   18.2020  -31.8400 C   0  0  0  0  0  0  0  0  0  0  0  0
   -6.6670   18.1330  -32.9890 C   0  0  0  0  0  0  0  0  0  0  0  0
   -6.5380   19.2650  -33.7990 C   0  0  0  0  0  0  0  0  0  0  0  0
   -7.1770   20.4160  -33.4650 N   0  0  0  0  0  0  0  0  0  0  0  0
   -7.2680   24.0480  -30.7800 C   0  0  0  0  0  0  0  0  0  0  0  0
   -6.0720   24.6790  -30.4260 C   0  0  0  0  0  0  0  0  0  0  0  0
   -1.3850   26.0420  -26.6110 C   0  0  0  0  0  0  0  0  0  0  0  0
   -0.7564   26.2110  -23.3089 H   0  0  0  0  0  0  0  0  0  0  0  0
   -0.6736   27.7599  -24.2149 H   0  0  0  0  0  0  0  0  0  0  0  0
   -2.1915   26.7994  -24.2149 H   0  0  0  0  0  0  0  0  0  0  0  0
    1.1221   25.1639  -24.4522 H   0  0  0  0  0  0  0  0  0  0  0  0
    1.8923   23.9408  -26.4831 H   0  0  0  0  0  0  0  0  0  0  0  0
    0.5689   24.0513  -28.5912 H   0  0  0  0  0  0  0  0  0  0  0  0
   -1.3870   26.0270  -29.7260 H   0  0  0  0  0  0  0  0  0  0  0  0
   -3.8582   22.4704  -31.8127 H   0  0  0  0  0  0  0  0  0  0  0  0
   -5.9948   21.3588  -32.4634 H   0  0  0  0  0  0  0  0  0  0  0  0
   -8.7325   19.4587  -30.6108 H   0  0  0  0  0  0  0  0  0  0  0  0
   -7.5687   17.3191  -31.1932 H   0  0  0  0  0  0  0  0  0  0  0  0
   -6.1512   17.1982  -33.2537 H   0  0  0  0  0  0  0  0  0  0  0  0
   -5.9188   19.2235  -34.7072 H   0  0  0  0  0  0  0  0  0  0  0  0
   -8.2306   24.4891  -30.4819 H   0  0  0  0  0  0  0  0  0  0  0  0
   -6.0976   25.6064  -29.8350 H   0  0  0  0  0  0  0  0  0  0  0  0
   -2.3087   26.6383  -26.6472 H   0  0  0  0  0  0  0  0  0  0  0  0
  1  2  1  0
  2  3  2  0
  3  4  1  0
  4  5  2  0
  5  6  1  0
  6  7  1  0
  7  8  1  0
  8  9  2  0
  8 10  1  0
 10 11  1  0
 11 12  2  0
 12 13  1  0
 13 14  2  0
 14 15  1  0
 15 16  1  0
 16 17  2  0
 17 18  1  0
 18 19  2  0
 19 20  1  0
 20 21  2  0
 14 22  1  0
 22 23  2  0
  6 24  2  0
 24  2  1  0
 23 11  1  0
 21 16  1  0
  1 25  1  0
  1 26  1  0
  1 27  1  0
  3 28  1  0
  4 29  1  0
  5 30  1  0
  7 31  1  0
 12 32  1  0
 13 33  1  0
 17 34  1  0
 18 35  1  0
 19 36  1  0
 20 37  1  0
 22 38  1  0
 23 39  1  0
 24 40  1  0
M  CHG  1  10  -1
M  END
>  <UniqueID>  (18) 
16

>  <SMILES>  (18) 
Cc1cccc(NC(=O)[N-]c2ccc(Sc3ccccn3)cc2)c1

>  <Energy>  (18) 
44.758537521838896

>  <Genealogy>  (18) 
Cc1cccc(NC(=O)[N-]c2ccc(Sc3ccccn3)cc2)c1 (protonated)
Cc1cccc(NC(=O)[N-]c2ccc(Sc3ccccn3)cc2)c1 (3D coordinates assigned)
Cc1cccc(NC(=O)[N-]c2ccc(Sc3ccccn3)cc2)c1 (optimized conformer: 44.758537521838896 kcal/mol)

>  <smiles>  (18) 
Cc1cccc(NC(=O)Nc2ccc(Sc3ccccn3)cc2)c1

>  <score_type>  (18) 
oracle

>  <origin>  (18) 
adgpu

>  <m_score__min__energy>  (18) 
-11.09

>  <m_primary>  (18) 
energy

$$$$
18:0
     RDKit          3D

 44 45  0  0  0  0  0  0  0  0999 V2000
   -3.4000   20.4760  -33.1800 C   0  0  0  0  0  0  0  0  0  0  0  0
   -4.8180   20.5520  -33.0970 O   0  0  0  0  0  0  0  0  0  0  0  0
   -5.5250   21.6320  -32.5400 C   0  0  0  0  0  0  0  0  0  0  0  0
   -4.8670   22.7530  -32.0080 C   0  0  0  0  0  0  0  0  0  0  0  0
   -5.5940   23.8090  -31.4460 C   0  0  0  0  0  0  0  0  0  0  0  0
   -4.8780   24.9470  -30.8170 C   0  0  0  0  0  0  0  0  0  0  0  0
   -5.5190   25.9930  -30.5350 O   0  0  0  0  0  0  0  0  0  0  0  0
   -3.4870   24.8800  -30.4600 N   0  0  0  0  0  0  0  0  0  0  0  0
   -2.9330   24.8990  -29.1360 C   0  0  0  0  0  0  0  0  0  0  0  0
   -1.6020   25.2910  -28.9690 C   0  0  0  0  0  0  0  0  0  0  0  0
   -1.0400   25.3610  -27.6900 C   0  0  0  0  0  0  0  0  0  0  0  0
   -1.8120   25.0560  -26.5580 C   0  0  0  0  0  0  0  0  0  0  0  0
   -1.2300   25.1750  -25.2490 N   0  0  0  0  0  0  0  0  0  0  0  0
   -1.0400   26.4270  -24.5700 C   0  0  0  0  0  0  0  0  0  0  0  0
   -0.5280   26.4500  -23.1620 C   0  0  0  0  0  0  0  0  0  0  0  0
   -1.2110   27.5160  -25.1770 O   0  0  0  0  0  0  0  0  0  0  0  0
   -3.1350   24.6100  -26.7320 C   0  0  0  0  0  0  0  0  0  0  0  0
   -3.6880   24.5240  -28.0120 C   0  0  0  0  0  0  0  0  0  0  0  0
   -6.9950   23.7690  -31.4830 C   0  0  0  0  0  0  0  0  0  0  0  0
   -7.6760   22.6450  -31.9860 C   0  0  0  0  0  0  0  0  0  0  0  0
   -9.0770   22.5890  -31.9710 O   0  0  0  0  0  0  0  0  0  0  0  0
   -9.8490   21.5700  -31.3450 C   0  0  0  0  0  0  0  0  0  0  0  0
   -6.9270   21.5590  -32.5060 C   0  0  0  0  0  0  0  0  0  0  0  0
   -7.5100   20.3730  -32.9820 O   0  0  0  0  0  0  0  0  0  0  0  0
   -7.5540   19.1210  -32.2940 C   0  0  0  0  0  0  0  0  0  0  0  0
   -2.9741   20.4532  -32.1661 H   0  0  0  0  0  0  0  0  0  0  0  0
   -3.1128   19.5612  -33.7191 H   0  0  0  0  0  0  0  0  0  0  0  0
   -3.0166   21.3549  -33.7191 H   0  0  0  0  0  0  0  0  0  0  0  0
   -3.7684   22.8017  -32.0332 H   0  0  0  0  0  0  0  0  0  0  0  0
   -0.9927   25.5460  -29.8486 H   0  0  0  0  0  0  0  0  0  0  0  0
    0.0128   25.6567  -27.5706 H   0  0  0  0  0  0  0  0  0  0  0  0
   -0.8160   24.3170  -24.8130 H   0  0  0  0  0  0  0  0  0  0  0  0
   -1.3763   26.4119  -22.4627 H   0  0  0  0  0  0  0  0  0  0  0  0
    0.1244   25.5803  -22.9948 H   0  0  0  0  0  0  0  0  0  0  0  0
    0.0438   27.3747  -22.9948 H   0  0  0  0  0  0  0  0  0  0  0  0
   -3.7370   24.3276  -25.8557 H   0  0  0  0  0  0  0  0  0  0  0  0
   -4.7185   24.1613  -28.1404 H   0  0  0  0  0  0  0  0  0  0  0  0
   -7.5710   24.6300  -31.1129 H   0  0  0  0  0  0  0  0  0  0  0  0
   -9.7724   21.6711  -30.2523 H   0  0  0  0  0  0  0  0  0  0  0  0
  -10.9015   21.6681  -31.6495 H   0  0  0  0  0  0  0  0  0  0  0  0
   -9.4697   20.5834  -31.6495 H   0  0  0  0  0  0  0  0  0  0  0  0
   -7.5478   19.2987  -31.2085 H   0  0  0  0  0  0  0  0  0  0  0  0
   -8.4716   18.5819  -32.5720 H   0  0  0  0  0  0  0  0  0  0  0  0
   -6.6765   18.5188  -32.5720 H   0  0  0  0  0  0  0  0  0  0  0  0
  1  2  1  0
  2  3  1  0
  3  4  2  0
  4  5  1  0
  5  6  1  0
  6  7  2  0
  6  8  1  0
  8  9  1  0
  9 10  2  0
 10 11  1  0
 11 12  2  0
 12 13  1  0
 13 14  1  0
 14 15  1  0
 14 16  2  0
 12 17  1  0
 17 18  2  0
  5 19  2  0
 19 20  1  0
 20 21  1  0
 21 22  1  0
 20 23  2  0
 23 24  1  0
 24 25  1  0
 23  3  1  0
 18  9  1  0
  1 26  1  0
  1 27  1  0
  1 28  1  0
  4 29  1  0
 10 30  1  0
 11 31  1  0
 13 32  1  0
 15 33  1  0
 15 34  1  0
 15 35  1  0
 17 36  1  0
 18 37  1  0
 19 38  1  0
 22 39  1  0
 22 40  1  0
 22 41  1  0
 25 42  1  0
 25 43  1  0
 25 44  1  0
M  CHG  1   8  -1
M  END
>  <UniqueID>  (19) 
17

>  <SMILES>  (19) 
COc1cc(C(=O)[N-]c2ccc(NC(C)=O)cc2)cc(OC)c1OC

>  <Energy>  (19) 
54.176667405114806

>  <Genealogy>  (19) 
COc1cc(C(=O)[N-]c2ccc(NC(C)=O)cc2)cc(OC)c1OC (protonated)
COc1cc(C(=O)[N-]c2ccc(NC(C)=O)cc2)cc(OC)c1OC (3D coordinates assigned)
COc1cc(C(=O)[N-]c2ccc(NC(C)=O)cc2)cc(OC)c1OC (optimized conformer: 54.176667405114806 kcal/mol)

>  <smiles>  (19) 
COc1cc(C(=O)Nc2ccc(NC(C)=O)cc2)cc(OC)c1OC

>  <score_type>  (19) 
oracle

>  <origin>  (19) 
adgpu

>  <m_score__min__energy>  (19) 
-8.4399999999999995

>  <m_primary>  (19) 
energy

$$$$
19:0
     RDKit          3D

 34 35  0  0  0  0  0  0  0  0999 V2000
   -3.7160   25.2690  -30.7300 N   0  0  0  0  0  0  0  0  0  0  0  0
   -5.1830   24.8910  -29.8990 S   0  0  0  0  0  0  0  0  0  0  0  0
   -4.8820   24.6010  -28.4550 O   0  0  0  0  0  0  0  0  0  0  0  0
   -6.1190   26.0650  -29.9720 O   0  0  0  0  0  0  0  0  0  0  0  0
   -5.9310   23.4860  -30.6470 C   0  0  0  0  0  0  0  0  0  0  0  0
   -5.2370   22.7500  -31.6180 C   0  0  0  0  0  0  0  0  0  0  0  0
   -5.8360   21.6400  -32.2220 C   0  0  0  0  0  0  0  0  0  0  0  0
   -7.1270   21.2450  -31.8530 C   0  0  0  0  0  0  0  0  0  0  0  0
   -7.7240   20.1210  -32.5140 N   0  0  0  0  0  0  0  0  0  0  0  0
   -7.0410   18.9370  -32.9420 C   0  0  0  0  0  0  0  0  0  0  0  0
   -6.9740   17.9550  -32.1550 O   0  0  0  0  0  0  0  0  0  0  0  0
   -6.4940   18.8370  -34.2670 N   0  0  0  0  0  0  0  0  0  0  0  0
   -5.7180   17.6810  -34.7080 C   0  0  0  0  0  0  0  0  0  0  0  0
   -4.2520   17.9150  -34.4710 C   0  0  0  0  0  0  0  0  0  0  0  0
   -3.3010   16.9580  -34.8620 C   0  0  0  0  0  0  0  0  0  0  0  0
   -1.9380   17.1950  -34.6540 C   0  0  0  0  0  0  0  0  0  0  0  0
   -1.5160   18.3860  -34.0580 C   0  0  0  0  0  0  0  0  0  0  0  0
   -2.4560   19.3440  -33.6700 C   0  0  0  0  0  0  0  0  0  0  0  0
   -3.8190   19.1130  -33.8760 C   0  0  0  0  0  0  0  0  0  0  0  0
   -7.8360   22.0030  -30.9050 C   0  0  0  0  0  0  0  0  0  0  0  0
   -7.2370   23.1130  -30.3020 C   0  0  0  0  0  0  0  0  0  0  0  0
   -3.8680   26.1810  -31.2180 H   0  0  0  0  0  0  0  0  0  0  0  0
   -4.2176   23.0468  -31.9057 H   0  0  0  0  0  0  0  0  0  0  0  0
   -5.2896   21.0744  -32.9911 H   0  0  0  0  0  0  0  0  0  0  0  0
   -6.6940   19.5890  -34.9630 H   0  0  0  0  0  0  0  0  0  0  0  0
   -6.0392   16.7923  -34.1450 H   0  0  0  0  0  0  0  0  0  0  0  0
   -5.8862   17.5268  -35.7841 H   0  0  0  0  0  0  0  0  0  0  0  0
   -3.6289   16.0196  -35.3331 H   0  0  0  0  0  0  0  0  0  0  0  0
   -1.1970   16.4420  -34.9604 H   0  0  0  0  0  0  0  0  0  0  0  0
   -0.4438   18.5694  -33.8942 H   0  0  0  0  0  0  0  0  0  0  0  0
   -2.1228   20.2818  -33.2015 H   0  0  0  0  0  0  0  0  0  0  0  0
   -4.5555   19.8712  -33.5715 H   0  0  0  0  0  0  0  0  0  0  0  0
   -8.8651   21.7220  -30.6368 H   0  0  0  0  0  0  0  0  0  0  0  0
   -7.7933   23.6962  -29.5534 H   0  0  0  0  0  0  0  0  0  0  0  0
  1  2  1  0
  2  3  2  0
  2  4  2  0
  2  5  1  0
  5  6  2  0
  6  7  1  0
  7  8  2  0
  8  9  1  0
  9 10  1  0
 10 11  2  0
 10 12  1  0
 12 13  1  0
 13 14  1  0
 14 15  2  0
 15 16  1  0
 16 17  2  0
 17 18  1  0
 18 19  2  0
  8 20  1  0
 20 21  2  0
 21  5  1  0
 19 14  1  0
  1 22  1  0
  6 23  1  0
  7 24  1  0
 12 25  1  0
 13 26  1  0
 13 27  1  0
 15 28  1  0
 16 29  1  0
 17 30  1  0
 18 31  1  0
 19 32  1  0
 20 33  1  0
 21 34  1  0
M  CHG  2   1  -1   9  -1
M  END
>  <UniqueID>  (20) 
18

>  <SMILES>  (20) 
[NH-]S(=O)(=O)c1ccc([N-]C(=O)NCc2ccccc2)cc1

>  <Energy>  (20) 
35.97208667238757

>  <Genealogy>  (20) 
[NH-]S(=O)(=O)c1ccc([N-]C(=O)NCc2ccccc2)cc1 (protonated)
[NH-]S(=O)(=O)c1ccc([N-]C(=O)NCc2ccccc2)cc1 (3D coordinates assigned)
[NH-]S(=O)(=O)c1ccc([N-]C(=O)NCc2ccccc2)cc1 (optimized conformer: 35.97208667238757 kcal/mol)

>  <smiles>  (20) 
NS(=O)(=O)c1ccc(NC(=O)NCc2ccccc2)cc1

>  <score_type>  (20) 
oracle

>  <origin>  (20) 
adgpu

>  <m_score__min__energy>  (20) 
-10.18

>  <m_primary>  (20) 
energy

$$$$
20:0
     RDKit          3D

 33 34  0  0  0  0  0  0  0  0999 V2000
   -1.0470   24.8410  -27.4280 C   0  0  0  0  0  0  0  0  0  0  0  0
   -2.3920   24.5460  -28.0070 C   0  0  0  0  0  0  0  0  0  0  0  0
   -3.2680   23.9970  -27.2860 O   0  0  0  0  0  0  0  0  0  0  0  0
   -2.7050   24.9740  -29.3420 N   0  0  0  0  0  0  0  0  0  0  0  0
   -3.8900   24.5870  -30.0580 C   0  0  0  0  0  0  0  0  0  0  0  0
   -3.8660   23.4300  -30.8530 C   0  0  0  0  0  0  0  0  0  0  0  0
   -5.0110   23.0210  -31.5430 C   0  0  0  0  0  0  0  0  0  0  0  0
   -6.1960   23.7580  -31.4350 C   0  0  0  0  0  0  0  0  0  0  0  0
   -7.6650   23.2300  -32.3180 S   0  0  0  0  0  0  0  0  0  0  0  0
   -8.0590   21.9150  -31.1200 C   0  0  0  0  0  0  0  0  0  0  0  0
   -7.7830   20.5750  -31.7400 C   0  0  0  0  0  0  0  0  0  0  0  0
   -8.5550   19.4570  -31.3850 C   0  0  0  0  0  0  0  0  0  0  0  0
   -8.3180   18.2170  -31.9870 C   0  0  0  0  0  0  0  0  0  0  0  0
   -7.3180   18.0890  -32.9560 C   0  0  0  0  0  0  0  0  0  0  0  0
   -6.5550   19.2010  -33.3260 C   0  0  0  0  0  0  0  0  0  0  0  0
   -5.5920   19.0760  -34.2710 F   0  0  0  0  0  0  0  0  0  0  0  0
   -6.7890   20.4420  -32.7250 C   0  0  0  0  0  0  0  0  0  0  0  0
   -6.2360   24.8960  -30.6240 C   0  0  0  0  0  0  0  0  0  0  0  0
   -5.0920   25.3080  -29.9340 C   0  0  0  0  0  0  0  0  0  0  0  0
   -1.1095   24.8273  -26.3299 H   0  0  0  0  0  0  0  0  0  0  0  0
   -0.3281   24.0792  -27.7639 H   0  0  0  0  0  0  0  0  0  0  0  0
   -0.7129   25.8338  -27.7639 H   0  0  0  0  0  0  0  0  0  0  0  0
   -2.0690   25.6750  -29.7870 H   0  0  0  0  0  0  0  0  0  0  0  0
   -2.9402   22.8415  -30.9335 H   0  0  0  0  0  0  0  0  0  0  0  0
   -4.9806   22.1188  -32.1716 H   0  0  0  0  0  0  0  0  0  0  0  0
   -7.4365   22.0387  -30.2216 H   0  0  0  0  0  0  0  0  0  0  0  0
   -9.1212   21.9787  -30.8412 H   0  0  0  0  0  0  0  0  0  0  0  0
   -9.3492   19.5569  -30.6305 H   0  0  0  0  0  0  0  0  0  0  0  0
   -8.9186   17.3419  -31.6980 H   0  0  0  0  0  0  0  0  0  0  0  0
   -7.1314   17.1129  -33.4276 H   0  0  0  0  0  0  0  0  0  0  0  0
   -6.1932   21.3169  -33.0241 H   0  0  0  0  0  0  0  0  0  0  0  0
   -7.1702   25.4689  -30.5285 H   0  0  0  0  0  0  0  0  0  0  0  0
   -5.1317   26.1998  -29.2913 H   0  0  0  0  0  0  0  0  0  0  0  0
  1  2  1  0
  2  3  2  0
  2  4  1  0
  4  5  1  0
  5  6  2  0
  6  7  1  0
  7  8  2  0
  8  9  1  0
  9 10  1  0
 10 11  1  0
 11 12  2  0
 12 13  1  0
 13 14  2  0
 14 15  1  0
 15 16  1  0
 15 17  2  0
  8 18  1  0
 18 19  2  0
 19  5  1  0
 17 11  1  0
  1 20  1  0
  1 21  1  0
  1 22  1  0
  4 23  1  0
  6 24  1  0
  7 25  1  0
 10 26  1  0
 10 27  1  0
 12 28  1  0
 13 29  1  0
 14 30  1  0
 17 31  1  0
 18 32  1  0
 19 33  1  0
M  END
>  <UniqueID>  (21) 
19

>  <SMILES>  (21) 
CC(=O)Nc1ccc(SCc2cccc(F)c2)cc1

>  <Energy>  (21) 
30.22993910684707

>  <Genealogy>  (21) 
CC(=O)Nc1ccc(SCc2cccc(F)c2)cc1 (3D coordinates assigned)
CC(=O)Nc1ccc(SCc2cccc(F)c2)cc1 (optimized conformer: 30.22993910684707 kcal/mol)

>  <smiles>  (21) 
CC(=O)Nc1ccc(SCc2cccc(F)c2)cc1

>  <score_type>  (21) 
oracle

>  <origin>  (21) 
adgpu

>  <m_score__min__energy>  (21) 
-7.8399999999999999

>  <m_primary>  (21) 
energy

$$$$
21:0
     RDKit          3D

 65 68  0  0  0  0  0  0  0  0999 V2000
   -9.6497   18.6145  -33.0075 H   0  0  0  0  0  0  0  0  0  0  0  0
   -9.1260   19.5400  -32.7260 C   0  0  0  0  0  0  0  0  0  0  0  0
   -9.8490   20.6300  -32.2450 C   0  0  0  0  0  0  0  0  0  0  0  0
  -10.9408   20.5590  -32.1309 H   0  0  0  0  0  0  0  0  0  0  0  0
   -9.1870   21.8120  -31.9080 C   0  0  0  0  0  0  0  0  0  0  0  0
   -9.7646   22.6675  -31.5279 H   0  0  0  0  0  0  0  0  0  0  0  0
   -7.7980   21.9240  -32.0470 C   0  0  0  0  0  0  0  0  0  0  0  0
   -7.2250   23.1680  -31.7140 O   0  0  0  0  0  0  0  0  0  0  0  0
   -5.9300   23.3910  -31.1480 C   0  0  0  0  0  0  0  0  0  0  0  0
   -5.1666   23.0067  -31.8405 H   0  0  0  0  0  0  0  0  0  0  0  0
   -5.8400   22.6610  -29.7990 C   0  0  0  0  0  0  0  0  0  0  0  0
   -6.7753   22.8334  -29.2463 H   0  0  0  0  0  0  0  0  0  0  0  0
   -5.6759   21.5954  -30.0171 H   0  0  0  0  0  0  0  0  0  0  0  0
   -4.6560   23.1350  -28.9200 C   0  0  0  0  0  0  0  0  0  0  0  0
   -5.0579   23.6766  -28.0510 H   0  0  0  0  0  0  0  0  0  0  0  0
   -4.0894   22.2421  -28.6171 H   0  0  0  0  0  0  0  0  0  0  0  0
   -3.7300   24.0250  -29.6430 N   0  0  0  0  0  0  0  0  0  0  0  0
   -2.4230   24.1910  -29.0710 C   0  0  0  0  0  0  0  0  0  0  0  0
   -2.2900   25.0720  -28.0460 N   0  0  0  0  0  0  0  0  0  0  0  0
   -1.1280   25.2410  -27.3650 C   0  0  0  0  0  0  0  0  0  0  0  0
   -0.0090   24.4850  -27.7440 C   0  0  0  0  0  0  0  0  0  0  0  0
   -0.1130   23.6230  -28.7960 N   0  0  0  0  0  0  0  0  0  0  0  0
    0.7330   23.0820  -29.0930 H   0  0  0  0  0  0  0  0  0  0  0  0
   -1.2860   23.4360  -29.4750 C   0  0  0  0  0  0  0  0  0  0  0  0
   -1.2840   22.5850  -30.4660 N   0  0  0  0  0  0  0  0  0  0  0  0
   -2.3670   22.2090  -31.3710 C   0  0  0  0  0  0  0  0  0  0  0  0
   -3.1499   21.6828  -30.8051 H   0  0  0  0  0  0  0  0  0  0  0  0
   -2.7881   23.1154  -31.8304 H   0  0  0  0  0  0  0  0  0  0  0  0
   -1.8310   21.2940  -32.4630 C   0  0  0  0  0  0  0  0  0  0  0  0
   -2.0202   20.2494  -32.1747 H   0  0  0  0  0  0  0  0  0  0  0  0
   -0.4740   21.5030  -32.6160 F   0  0  0  0  0  0  0  0  0  0  0  0
   -2.4640   21.5590  -33.6590 F   0  0  0  0  0  0  0  0  0  0  0  0
    1.3020   24.6680  -27.0360 C   0  0  0  0  0  0  0  0  0  0  0  0
    1.8954   23.7459  -27.1234 H   0  0  0  0  0  0  0  0  0  0  0  0
    1.8471   25.5062  -27.4946 H   0  0  0  0  0  0  0  0  0  0  0  0
    1.0570   24.9760  -25.5550 C   0  0  0  0  0  0  0  0  0  0  0  0
    0.5958   24.1012  -25.0734 H   0  0  0  0  0  0  0  0  0  0  0  0
    2.0182   25.2069  -25.0725 H   0  0  0  0  0  0  0  0  0  0  0  0
    0.1620   26.1330  -25.4190 N   0  0  0  0  0  0  0  0  0  0  0  0
    0.4060   27.0750  -24.3620 C   0  0  0  0  0  0  0  0  0  0  0  0
    1.0340   28.1470  -24.6150 O   0  0  0  0  0  0  0  0  0  0  0  0
   -0.1610   26.8320  -22.9910 C   0  0  0  0  0  0  0  0  0  0  0  0
    0.5700   27.1453  -22.2311 H   0  0  0  0  0  0  0  0  0  0  0  0
   -1.0877   27.4120  -22.8694 H   0  0  0  0  0  0  0  0  0  0  0  0
   -0.3801   25.7609  -22.8694 H   0  0  0  0  0  0  0  0  0  0  0  0
   -1.0510   26.2790  -26.2610 C   0  0  2  0  0  0  0  0  0  0  0  0
   -0.9853   27.2610  -26.7524 H   0  0  0  0  0  0  0  0  0  0  0  0
   -2.3180   26.2250  -25.3830 C   0  0  0  0  0  0  0  0  0  0  0  0
   -2.0294   26.2373  -24.3216 H   0  0  0  0  0  0  0  0  0  0  0  0
   -2.9523   27.0969  -25.6006 H   0  0  0  0  0  0  0  0  0  0  0  0
   -2.8759   25.3023  -25.6006 H   0  0  0  0  0  0  0  0  0  0  0  0
   -4.2530   25.1440  -30.4450 C   0  0  0  0  0  0  0  0  0  0  0  0
   -4.2439   26.0554  -29.8292 H   0  0  0  0  0  0  0  0  0  0  0  0
   -3.6108   25.2522  -31.3315 H   0  0  0  0  0  0  0  0  0  0  0  0
   -5.6860   24.8910  -30.9310 C   0  0  0  0  0  0  0  0  0  0  0  0
   -6.3941   25.2665  -30.1776 H   0  0  0  0  0  0  0  0  0  0  0  0
   -5.8320   25.4144  -31.8874 H   0  0  0  0  0  0  0  0  0  0  0  0
   -7.0530   20.8020  -32.4990 C   0  0  0  0  0  0  0  0  0  0  0  0
   -5.6570   20.8710  -32.5660 O   0  0  0  0  0  0  0  0  0  0  0  0
   -4.8080   19.8530  -33.0920 C   0  0  0  0  0  0  0  0  0  0  0  0
   -4.3447   19.2975  -32.2633 H   0  0  0  0  0  0  0  0  0  0  0  0
   -5.4020   19.1629  -33.7092 H   0  0  0  0  0  0  0  0  0  0  0  0
   -4.0225   20.3134  -33.7092 H   0  0  0  0  0  0  0  0  0  0  0  0
   -7.7390   19.6210  -32.8510 C   0  0  0  0  0  0  0  0  0  0  0  0
   -7.1747   18.7552  -33.2278 H   0  0  0  0  0  0  0  0  0  0  0  0
  1  2  1  0
  2  3  2  0
  3  4  1  0
  3  5  1  0
  5  6  1  0
  5  7  2  0
  7  8  1  0
  8  9  1  0
  9 10  1  0
  9 11  1  0
 11 12  1  0
 11 13  1  0
 11 14  1  0
 14 15  1  0
 14 16  1  0
 14 17  1  0
 17 18  1  0
 18 19  2  0
 19 20  1  0
 20 21  2  0
 21 22  1  0
 22 23  1  0
 22 24  1  0
 24 25  2  0
 25 26  1  0
 26 27  1  0
 26 28  1  0
 26 29  1  0
 29 30  1  0
 29 31  1  0
 29 32  1  0
 21 33  1  0
 33 34  1  0
 33 35  1  0
 33 36  1  0
 36 37  1  0
 36 38  1  0
 36 39  1  0
 39 40  1  0
 40 41  2  0
 40 42  1  0
 42 43  1  0
 42 44  1  0
 42 45  1  0
 39 46  1  0
 46 47  1  6
 46 48  1  0
 48 49  1  0
 48 50  1  0
 48 51  1  0
 17 52  1  0
 52 53  1  0
 52 54  1  0
 52 55  1  0
 55 56  1  0
 55 57  1  0
  7 58  1  0
 58 59  1  0
 59 60  1  0
 60 61  1  0
 60 62  1  0
 60 63  1  0
 58 64  2  0
 64 65  1  0
 64  2  1  0
 55  9  1  0
 24 18  1  0
 46 20  1  0
M  END
>  <UniqueID>  (22) 
20

>  <SMILES>  (22) 
COc1ccccc1OC1CCN(c2nc3c([nH]/c2=N/CC(F)F)CCN(C(C)=O)[C@@H]3C)CC1

>  <Energy>  (22) 
85.82470036731833

>  <Genealogy>  (22) 
COc1ccccc1OC1CCN(c2nc3c([nH]c2=NCC(F)F)CCN(C(C)=O)[C@@H]3C)CC1 (chirality)
COc1ccccc1OC1CCN(c2nc3c([nH]/c2=N/CC(F)F)CCN(C(C)=O)[C@@H]3C)CC1 (cis-trans isomerization)
COc1ccccc1OC1CCN(c2nc3c([nH]/c2=N/CC(F)F)CCN(C(C)=O)[C@@H]3C)CC1 (3D coordinates assigned)
COc1ccccc1OC1CCN(c2nc3c([nH]/c2=N/CC(F)F)CCN(C(C)=O)[C@@H]3C)CC1 (nonaromatic ring conformer: 85.82470036731833 kcal/mol)

>  <smiles>  (22) 
COc1ccccc1OC1CCN(c2nc3c([nH]c2=NCC(F)F)CCN(C(C)=O)C3C)CC1

>  <score_type>  (22) 
oracle

>  <origin>  (22) 
adgpu

>  <m_score__min__energy>  (22) 
-7.7999999999999998

>  <m_primary>  (22) 
energy

$$$$
22:0
     RDKit          3D

 45 48  0  0  0  0  0  0  0  0999 V2000
    0.8890   20.2760  -32.2210 C   0  0  0  0  0  0  0  0  0  0  0  0
   -0.5540   20.6570  -32.3970 C   0  0  0  0  0  0  0  0  0  0  0  0
   -1.1960   20.4190  -33.6230 C   0  0  0  0  0  0  0  0  0  0  0  0
   -2.5360   20.7700  -33.8010 C   0  0  0  0  0  0  0  0  0  0  0  0
   -3.2630   21.3660  -32.7600 C   0  0  0  0  0  0  0  0  0  0  0  0
   -4.6390   21.7260  -32.9800 N   0  0  0  0  0  0  0  0  0  0  0  0
   -5.7480   20.7760  -32.8640 C   0  0  0  0  0  0  0  0  0  0  0  0
   -6.9020   21.3900  -32.1210 C   0  0  0  0  0  0  0  0  0  0  0  0
   -8.2230   21.0470  -32.3440 C   0  0  0  0  0  0  0  0  0  0  0  0
   -8.9850   21.8630  -31.5360 C   0  0  0  0  0  0  0  0  0  0  0  0
   -8.1040   22.6760  -30.8540 C   0  0  0  0  0  0  0  0  0  0  0  0
   -6.8320   22.3910  -31.2050 N   0  0  0  0  0  0  0  0  0  0  0  0
   -5.6820   23.0860  -30.6830 C   0  0  0  0  0  0  0  0  0  0  0  0
   -4.9870   23.9970  -31.4030 N   0  0  0  0  0  0  0  0  0  0  0  0
   -3.9710   24.5430  -30.7370 N   0  0  0  0  0  0  0  0  0  0  0  0
   -3.8510   24.0740  -29.4760 C   0  0  0  0  0  0  0  0  0  0  0  0
   -2.8320   24.5060  -28.5650 N   0  0  0  0  0  0  0  0  0  0  0  0
   -3.0500   24.6480  -27.1380 C   0  0  0  0  0  0  0  0  0  0  0  0
   -1.6830   24.9710  -26.5480 C   0  0  0  0  0  0  0  0  0  0  0  0
   -0.8130   25.4130  -27.7240 C   0  0  0  0  0  0  0  0  0  0  0  0
   -1.4850   24.8580  -28.9740 C   0  0  0  0  0  0  0  0  0  0  0  0
   -5.0410   22.9350  -29.1250 S   0  0  0  0  0  0  0  0  0  0  0  0
   -2.6230   21.6010  -31.5290 C   0  0  0  0  0  0  0  0  0  0  0  0
   -1.2790   21.2500  -31.3450 C   0  0  0  0  0  0  0  0  0  0  0  0
   -0.5340   21.5690  -29.7820 Cl  0  0  0  0  0  0  0  0  0  0  0  0
    1.1236   20.2140  -31.1481 H   0  0  0  0  0  0  0  0  0  0  0  0
    1.0705   19.2991  -32.6930 H   0  0  0  0  0  0  0  0  0  0  0  0
    1.5291   21.0359  -32.6930 H   0  0  0  0  0  0  0  0  0  0  0  0
   -0.6394   19.9527  -34.4493 H   0  0  0  0  0  0  0  0  0  0  0  0
   -3.0260   20.5772  -34.7668 H   0  0  0  0  0  0  0  0  0  0  0  0
   -4.8570   22.7290  -33.1880 H   0  0  0  0  0  0  0  0  0  0  0  0
   -6.0812   20.4859  -33.8714 H   0  0  0  0  0  0  0  0  0  0  0  0
   -5.3995   19.8938  -32.3069 H   0  0  0  0  0  0  0  0  0  0  0  0
   -8.5935   20.2733  -33.0325 H   0  0  0  0  0  0  0  0  0  0  0  0
  -10.0817   21.8654  -31.4515 H   0  0  0  0  0  0  0  0  0  0  0  0
   -8.3965   23.4477  -30.1267 H   0  0  0  0  0  0  0  0  0  0  0  0
   -3.7585   25.4650  -26.9367 H   0  0  0  0  0  0  0  0  0  0  0  0
   -3.4795   23.7360  -26.6979 H   0  0  0  0  0  0  0  0  0  0  0  0
   -1.7671   25.7811  -25.8086 H   0  0  0  0  0  0  0  0  0  0  0  0
   -1.2510   24.1019  -26.0303 H   0  0  0  0  0  0  0  0  0  0  0  0
   -0.7637   26.5109  -27.7718 H   0  0  0  0  0  0  0  0  0  0  0  0
    0.2186   25.0448  -27.6234 H   0  0  0  0  0  0  0  0  0  0  0  0
   -1.5106   25.6196  -29.7673 H   0  0  0  0  0  0  0  0  0  0  0  0
   -0.9417   23.9917  -29.3795 H   0  0  0  0  0  0  0  0  0  0  0  0
   -3.1830   22.0646  -30.7035 H   0  0  0  0  0  0  0  0  0  0  0  0
  1  2  1  0
  2  3  2  0
  3  4  1  0
  4  5  2  0
  5  6  1  0
  6  7  1  0
  7  8  1  0
  8  9  2  0
  9 10  1  0
 10 11  2  0
 11 12  1  0
 12 13  1  0
 13 14  2  0
 14 15  1  0
 15 16  2  0
 16 17  1  0
 17 18  1  0
 18 19  1  0
 19 20  1  0
 20 21  1  0
 16 22  1  0
  5 23  1  0
 23 24  2  0
 24 25  1  0
 24  2  1  0
 12  8  1  0
 22 13  1  0
 21 17  1  0
  1 26  1  0
  1 27  1  0
  1 28  1  0
  3 29  1  0
  4 30  1  0
  6 31  1  0
  7 32  1  0
  7 33  1  0
  9 34  1  0
 10 35  1  0
 11 36  1  0
 18 37  1  0
 18 38  1  0
 19 39  1  0
 19 40  1  0
 20 41  1  0
 20 42  1  0
 21 43  1  0
 21 44  1  0
 23 45  1  0
M  END
>  <UniqueID>  (23) 
21

>  <SMILES>  (23) 
Cc1ccc(NCc2cccn2-c2nnc(N3CCCC3)s2)cc1Cl

>  <Energy>  (23) 
108.50553319304603

>  <Genealogy>  (23) 
Cc1ccc(NCc2cccn2-c2nnc(N3CCCC3)s2)cc1Cl (3D coordinates assigned)
Cc1ccc(NCc2cccn2-c2nnc(N3CCCC3)s2)cc1Cl (nonaromatic ring conformer: 108.50553319304603 kcal/mol)

>  <smiles>  (23) 
Cc1ccc(NCc2cccn2-c2nnc(N3CCCC3)s2)cc1Cl

>  <score_type>  (23) 
oracle

>  <origin>  (23) 
adgpu

>  <m_score__min__energy>  (23) 
-8.4000000000000004

>  <m_primary>  (23) 
energy

$$$$
23:0
     RDKit          3D

 27 29  0  0  0  0  0  0  0  0999 V2000
   -5.4190   25.8800  -30.8210 O   0  0  0  0  0  0  0  0  0  0  0  0
   -4.6640   24.8740  -30.7490 C   0  0  0  0  0  0  0  0  0  0  0  0
   -3.5810   24.9280  -29.9200 N   0  0  0  0  0  0  0  0  0  0  0  0
   -2.7530   23.8630  -29.8210 C   0  0  0  0  0  0  0  0  0  0  0  0
   -1.6190   23.7950  -29.0100 C   0  0  0  0  0  0  0  0  0  0  0  0
   -0.9640   22.5690  -29.1160 C   0  0  0  0  0  0  0  0  0  0  0  0
   -1.8020   21.5870  -30.2130 S   0  0  0  0  0  0  0  0  0  0  0  0
   -2.9910   22.7240  -30.5490 C   0  0  0  0  0  0  0  0  0  0  0  0
   -4.0870   22.6500  -31.3980 C   0  0  0  0  0  0  0  0  0  0  0  0
   -4.2950   21.5980  -32.0620 O   0  0  0  0  0  0  0  0  0  0  0  0
   -4.9250   23.7400  -31.4970 N   0  0  0  0  0  0  0  0  0  0  0  0
   -6.1180   23.6810  -32.3630 C   0  0  0  0  0  0  0  0  0  0  0  0
   -7.0120   22.5380  -31.9530 C   0  0  0  0  0  0  0  0  0  0  0  0
   -7.0360   21.3500  -32.7040 C   0  0  0  0  0  0  0  0  0  0  0  0
   -7.8900   20.3030  -32.3400 C   0  0  0  0  0  0  0  0  0  0  0  0
   -8.7260   20.4350  -31.2290 C   0  0  0  0  0  0  0  0  0  0  0  0
   -8.7100   21.6140  -30.4790 C   0  0  0  0  0  0  0  0  0  0  0  0
   -7.8590   22.6630  -30.8390 C   0  0  0  0  0  0  0  0  0  0  0  0
   -1.2805   24.6159  -28.3607 H   0  0  0  0  0  0  0  0  0  0  0  0
   -0.0498   22.2848  -28.5743 H   0  0  0  0  0  0  0  0  0  0  0  0
   -6.6752   24.6255  -32.2765 H   0  0  0  0  0  0  0  0  0  0  0  0
   -5.7954   23.5250  -33.4030 H   0  0  0  0  0  0  0  0  0  0  0  0
   -6.3809   21.2430  -33.5812 H   0  0  0  0  0  0  0  0  0  0  0  0
   -7.9029   19.3746  -32.9298 H   0  0  0  0  0  0  0  0  0  0  0  0
   -9.3969   19.6110  -30.9444 H   0  0  0  0  0  0  0  0  0  0  0  0
   -9.3683   21.7168  -29.6037 H   0  0  0  0  0  0  0  0  0  0  0  0
   -7.8525   23.5904  -30.2475 H   0  0  0  0  0  0  0  0  0  0  0  0
  1  2  2  0
  2  3  1  0
  3  4  1  0
  4  5  1  0
  5  6  2  0
  6  7  1  0
  7  8  1  0
  8  9  1  0
  9 10  2  0
  9 11  1  0
 11 12  1  0
 12 13  1  0
 13 14  2  0
 14 15  1  0
 15 16  2  0
 16 17  1  0
 17 18  2  0
 11  2  1  0
 18 13  1  0
  8  4  2  0
  5 19  1  0
  6 20  1  0
 12 21  1  0
 12 22  1  0
 14 23  1  0
 15 24  1  0
 16 25  1  0
 17 26  1  0
 18 27  1  0
M  CHG  1   3  -1
M  END
>  <UniqueID>  (24) 
22

>  <SMILES>  (24) 
O=c1[n-]c2ccsc2c(=O)n1Cc1ccccc1

>  <Energy>  (24) 
65.72934380716963

>  <Genealogy>  (24) 
O=c1[n-]c2ccsc2c(=O)n1Cc1ccccc1 (protonated)
O=c1[n-]c2ccsc2c(=O)n1Cc1ccccc1 (3D coordinates assigned)
O=c1[n-]c2ccsc2c(=O)n1Cc1ccccc1 (optimized conformer: 65.72934380716963 kcal/mol)

>  <smiles>  (24) 
O=c1[nH]c2ccsc2c(=O)n1Cc1ccccc1

>  <score_type>  (24) 
oracle

>  <origin>  (24) 
adgpu

>  <m_score__min__energy>  (24) 
-7.4800000000000004

>  <m_primary>  (24) 
energy

$$$$
24:0
     RDKit          3D

 29 30  0  0  0  0  0  0  0  0999 V2000
   -5.4110   23.1200  -32.5870 N   0  0  0  0  0  0  0  0  0  0  0  0
   -4.7390   23.1200  -31.6490 C   0  0  0  0  0  0  0  0  0  0  0  0
   -3.9120   23.1200  -30.4740 C   0  0  0  0  0  0  0  0  0  0  0  0
   -3.5150   24.3450  -29.9920 C   0  0  0  0  0  0  0  0  0  0  0  0
   -3.8770   25.5810  -30.5910 N   0  0  0  0  0  0  0  0  0  0  0  0
   -2.7240   24.3400  -28.8670 C   0  0  0  0  0  0  0  0  0  0  0  0
   -2.3390   23.1470  -28.2390 C   0  0  0  0  0  0  0  0  0  0  0  0
   -2.7360   21.9130  -28.7210 C   0  0  0  0  0  0  0  0  0  0  0  0
   -2.2810   20.7170  -28.0410 C   0  0  0  0  0  0  0  0  0  0  0  0
   -1.0880   20.0730  -28.2690 C   0  0  0  0  0  0  0  0  0  0  0  0
   -0.7240   18.9050  -27.5990 C   0  0  0  0  0  0  0  0  0  0  0  0
    0.3990   18.3260  -27.8320 N   0  0  0  0  0  0  0  0  0  0  0  0
   -1.5490   18.3680  -26.6920 N   0  0  0  0  0  0  0  0  0  0  0  0
   -2.7120   18.9900  -26.4670 C   0  0  0  0  0  0  0  0  0  0  0  0
   -3.4960   18.4580  -25.5910 N   0  0  0  0  0  0  0  0  0  0  0  0
   -3.0810   20.1340  -27.1170 N   0  0  0  0  0  0  0  0  0  0  0  0
   -3.5270   21.9260  -29.8470 C   0  0  0  0  0  0  0  0  0  0  0  0
   -4.0050   20.7530  -30.4870 N   0  0  0  0  0  0  0  0  0  0  0  0
   -3.8680   26.4260  -29.9490 H   0  0  0  0  0  0  0  0  0  0  0  0
   -4.1380   25.6620  -31.6090 H   0  0  0  0  0  0  0  0  0  0  0  0
   -2.3839   25.2986  -28.4482 H   0  0  0  0  0  0  0  0  0  0  0  0
   -1.7056   23.1937  -27.3409 H   0  0  0  0  0  0  0  0  0  0  0  0
   -0.3928   20.4957  -29.0093 H   0  0  0  0  0  0  0  0  0  0  0  0
    1.1230   18.6180  -28.4910 H   0  0  0  0  0  0  0  0  0  0  0  0
   -1.2820   17.4940  -26.1880 H   0  0  0  0  0  0  0  0  0  0  0  0
   -4.4120   18.9060  -25.3810 H   0  0  0  0  0  0  0  0  0  0  0  0
   -4.0090   20.5000  -26.8290 H   0  0  0  0  0  0  0  0  0  0  0  0
   -4.6010   20.8260  -31.3650 H   0  0  0  0  0  0  0  0  0  0  0  0
   -3.7510   19.8380  -30.0530 H   0  0  0  0  0  0  0  0  0  0  0  0
  1  2  3  0
  2  3  1  0
  3  4  2  0
  4  5  1  0
  4  6  1  0
  6  7  2  0
  7  8  1  0
  8  9  1  0
  9 10  2  0
 10 11  1  0
 11 12  2  3
 11 13  1  0
 13 14  1  0
 14 15  2  3
 14 16  1  0
  8 17  2  0
 17 18  1  0
 17  3  1  0
 16  9  1  0
  5 19  1  0
  5 20  1  0
  6 21  1  0
  7 22  1  0
 10 23  1  0
 12 24  1  0
 13 25  1  0
 15 26  1  0
 16 27  1  0
 18 28  1  0
 18 29  1  0
M  END
>  <smiles>  (25) 
N#Cc1c(N)ccc(-c2cc(=N)[nH]c(=N)[nH]2)c1N

>  <score_type>  (25) 
oracle

>  <origin>  (25) 
adgpu

>  <m_score__min__energy>  (25) 
-6.54

>  <m_primary>  (25) 
energy

$$$$
25:0
     RDKit          3D

 21 22  0  0  0  0  0  0  0  0999 V2000
   -6.8740   26.6190  -29.0880 H   0  0  0  0  0  0  0  0  0  0  0  0
   -6.8740   25.6800  -29.5440 N   0  0  0  0  0  0  0  0  0  0  0  0
   -5.8130   25.2160  -30.1190 C   0  0  0  0  0  0  0  0  0  0  0  0
   -4.6420   25.8690  -30.1900 N   0  0  0  0  0  0  0  0  0  0  0  0
   -3.8520   25.0620  -30.8440 O   0  0  0  0  0  0  0  0  0  0  0  0
   -4.4180   23.9400  -31.2020 N   0  0  0  0  0  0  0  0  0  0  0  0
   -5.6840   24.0050  -30.7510 C   0  0  0  0  0  0  0  0  0  0  0  0
   -6.6910   22.9490  -30.9330 C   0  0  0  0  0  0  0  0  0  0  0  0
   -7.4470   22.6470  -29.9710 O   0  0  0  0  0  0  0  0  0  0  0  0
   -6.8400   22.3130  -32.2090 N   0  0  0  0  0  0  0  0  0  0  0  0
   -7.0000   20.9070  -32.4510 C   0  0  0  0  0  0  0  0  0  0  0  0
   -5.9850   20.2250  -33.1330 C   0  0  0  0  0  0  0  0  0  0  0  0
   -5.0983   20.7736  -33.4833 H   0  0  0  0  0  0  0  0  0  0  0  0
   -6.0910   18.8500  -33.3720 C   0  0  0  0  0  0  0  0  0  0  0  0
   -5.2947   18.3241  -33.9190 H   0  0  0  0  0  0  0  0  0  0  0  0
   -7.2080   18.1450  -32.9160 C   0  0  0  0  0  0  0  0  0  0  0  0
   -7.3080   16.8130  -33.1470 F   0  0  0  0  0  0  0  0  0  0  0  0
   -8.2150   18.8120  -32.2120 C   0  0  0  0  0  0  0  0  0  0  0  0
   -9.2890   18.1250  -31.7490 F   0  0  0  0  0  0  0  0  0  0  0  0
   -8.1110   20.1880  -31.9720 C   0  0  0  0  0  0  0  0  0  0  0  0
   -8.8994   20.7078  -31.4079 H   0  0  0  0  0  0  0  0  0  0  0  0
  1  2  1  0
  2  3  2  0
  3  4  1  0
  4  5  1  0
  5  6  1  0
  6  7  2  0
  7  8  1  0
  8  9  2  0
  8 10  1  0
 10 11  1  0
 11 12  2  0
 12 13  1  0
 12 14  1  0
 14 15  1  0
 14 16  2  0
 16 17  1  0
 16 18  1  0
 18 19  1  0
 18 20  2  0
 20 21  1  0
  7  3  1  0
 20 11  1  0
M  CHG  2   4  -1  10  -1
M  END
>  <UniqueID>  (26) 
23

>  <SMILES>  (26) 
[H]/N=c1\[n-]onc1C(=O)[N-]c1ccc(F)c(F)c1

>  <Energy>  (26) 
61.07069366507844

>  <Genealogy>  (26) 
N=c1[n-]onc1C(=O)[N-]c1ccc(F)c(F)c1 (protonated)
[H]/N=c1\[n-]onc1C(=O)[N-]c1ccc(F)c(F)c1 (cis-trans isomerization)
[H]/N=c1\[n-]onc1C(=O)[N-]c1ccc(F)c(F)c1 (3D coordinates assigned)
[H]/N=c1\[n-]onc1C(=O)[N-]c1ccc(F)c(F)c1 (optimized conformer: 61.07069366507844 kcal/mol)

>  <smiles>  (26) 
N=c1[nH]onc1C(=O)Nc1ccc(F)c(F)c1

>  <score_type>  (26) 
oracle

>  <origin>  (26) 
adgpu

>  <m_score__min__energy>  (26) 
-8.1199999999999992

>  <m_primary>  (26) 
energy

$$$$
26:0
     RDKit          3D

 30 31  0  0  0  0  0  0  0  0999 V2000
   -5.3630   26.5100  -29.0840 H   0  0  0  0  0  0  0  0  0  0  0  0
   -6.1010   26.1290  -29.6650 O   0  0  0  0  0  0  0  0  0  0  0  0
   -5.9230   24.9700  -30.4200 C   0  0  0  0  0  0  0  0  0  0  0  0
   -7.0450   24.2160  -30.7850 C   0  0  0  0  0  0  0  0  0  0  0  0
   -8.0492   24.5512  -30.4863 H   0  0  0  0  0  0  0  0  0  0  0  0
   -6.8970   23.0360  -31.5290 C   0  0  0  0  0  0  0  0  0  0  0  0
   -8.0990   22.2890  -31.9510 C   0  0  0  0  0  0  0  0  0  0  0  0
   -9.0552   22.8327  -31.9506 H   0  0  0  0  0  0  0  0  0  0  0  0
   -8.1240   21.0030  -32.3350 C   0  0  0  0  0  0  0  0  0  0  0  0
   -9.0711   20.6226  -32.7452 H   0  0  0  0  0  0  0  0  0  0  0  0
   -6.9900   20.0460  -32.2570 C   0  0  0  0  0  0  0  0  0  0  0  0
   -6.7780   19.3800  -31.2100 O   0  0  0  0  0  0  0  0  0  0  0  0
   -6.0950   19.8750  -33.3630 N   0  0  0  0  0  0  0  0  0  0  0  0
   -5.5390   18.6330  -33.8180 C   0  0  0  0  0  0  0  0  0  0  0  0
   -6.2940   17.4470  -33.8170 C   0  0  0  0  0  0  0  0  0  0  0  0
   -7.3438   17.4661  -33.4890 H   0  0  0  0  0  0  0  0  0  0  0  0
   -5.7160   16.2440  -34.2310 C   0  0  0  0  0  0  0  0  0  0  0  0
   -6.3161   15.3222  -34.2436 H   0  0  0  0  0  0  0  0  0  0  0  0
   -4.3770   16.2100  -34.6290 C   0  0  0  0  0  0  0  0  0  0  0  0
   -3.8190   15.0390  -35.0260 F   0  0  0  0  0  0  0  0  0  0  0  0
   -3.6110   17.3800  -34.6060 C   0  0  0  0  0  0  0  0  0  0  0  0
   -2.3080   17.3450  -34.9790 F   0  0  0  0  0  0  0  0  0  0  0  0
   -4.1880   18.5870  -34.1930 C   0  0  0  0  0  0  0  0  0  0  0  0
   -3.4350   19.7160  -34.1660 F   0  0  0  0  0  0  0  0  0  0  0  0
   -5.6170   22.6420  -31.9510 C   0  0  0  0  0  0  0  0  0  0  0  0
   -5.4966   21.7403  -32.5695 H   0  0  0  0  0  0  0  0  0  0  0  0
   -4.4950   23.3930  -31.5870 C   0  0  0  0  0  0  0  0  0  0  0  0
   -3.4927   23.0706  -31.9053 H   0  0  0  0  0  0  0  0  0  0  0  0
   -4.6430   24.5520  -30.8200 C   0  0  0  0  0  0  0  0  0  0  0  0
   -3.5170   25.2860  -30.4650 O   0  0  0  0  0  0  0  0  0  0  0  0
  1  2  1  0
  2  3  1  0
  3  4  2  0
  4  5  1  0
  4  6  1  0
  6  7  1  0
  7  8  1  0
  7  9  2  0
  9 10  1  0
  9 11  1  0
 11 12  2  0
 11 13  1  0
 13 14  1  0
 14 15  2  0
 15 16  1  0
 15 17  1  0
 17 18  1  0
 17 19  2  0
 19 20  1  0
 19 21  1  0
 21 22  1  0
 21 23  2  0
 23 24  1  0
  6 25  2  0
 25 26  1  0
 25 27  1  0
 27 28  1  0
 27 29  2  0
 29 30  1  0
 29  3  1  0
 23 14  1  0
M  CHG  2  13  -1  30  -1
M  END
>  <UniqueID>  (27) 
24

>  <SMILES>  (27) 
O=C(/C=C\c1ccc([O-])c(O)c1)[N-]c1ccc(F)c(F)c1F

>  <Energy>  (27) 
45.11540140902855

>  <Genealogy>  (27) 
O=C(C=Cc1ccc([O-])c(O)c1)[N-]c1ccc(F)c(F)c1F (protonated)
O=C(/C=C\c1ccc([O-])c(O)c1)[N-]c1ccc(F)c(F)c1F (cis-trans isomerization)
O=C(/C=C\c1ccc([O-])c(O)c1)[N-]c1ccc(F)c(F)c1F (3D coordinates assigned)
O=C(/C=C\c1ccc([O-])c(O)c1)[N-]c1ccc(F)c(F)c1F (optimized conformer: 45.11540140902855 kcal/mol)

>  <smiles>  (27) 
O=C(C=Cc1ccc(O)c(O)c1)Nc1ccc(F)c(F)c1F

>  <score_type>  (27) 
oracle

>  <origin>  (27) 
adgpu

>  <m_score__min__energy>  (27) 
-10.460000000000001

>  <m_primary>  (27) 
energy

$$$$
27:0
     RDKit          3D

 38 40  0  0  0  0  0  0  0  0999 V2000
   -8.8400   22.1390  -31.4520 C   0  0  0  0  0  0  0  0  0  0  0  0
   -7.3850   22.3270  -31.5780 N   0  0  0  0  0  0  0  0  0  0  0  0
   -6.8590   23.5280  -31.1850 C   0  0  0  0  0  0  0  0  0  0  0  0
   -5.4830   23.7960  -31.2670 C   0  0  0  0  0  0  0  0  0  0  0  0
   -4.9640   25.1220  -30.8230 C   0  0  0  0  0  0  0  0  0  0  0  0
   -5.7330   26.1200  -30.7630 O   0  0  0  0  0  0  0  0  0  0  0  0
   -3.5960   25.2540  -30.4100 N   0  0  0  0  0  0  0  0  0  0  0  0
   -2.9520   24.5500  -29.3380 C   0  0  0  0  0  0  0  0  0  0  0  0
   -3.5980   23.5210  -28.6260 C   0  0  0  0  0  0  0  0  0  0  0  0
   -2.9420   22.8770  -27.5710 C   0  0  0  0  0  0  0  0  0  0  0  0
   -1.6460   23.2600  -27.2130 C   0  0  0  0  0  0  0  0  0  0  0  0
   -1.0120   22.6350  -26.1900 F   0  0  0  0  0  0  0  0  0  0  0  0
   -1.0100   24.2960  -27.9020 C   0  0  0  0  0  0  0  0  0  0  0  0
   -1.6640   24.9430  -28.9540 C   0  0  0  0  0  0  0  0  0  0  0  0
   -4.6350   22.7900  -31.7680 C   0  0  0  0  0  0  0  0  0  0  0  0
   -3.3920   22.9930  -31.8530 O   0  0  0  0  0  0  0  0  0  0  0  0
   -5.1710   21.5550  -32.1760 C   0  0  0  0  0  0  0  0  0  0  0  0
   -4.3390   20.5440  -32.6880 C   0  0  0  0  0  0  0  0  0  0  0  0
   -4.8710   19.3210  -33.0910 C   0  0  0  0  0  0  0  0  0  0  0  0
   -6.2450   19.0730  -32.9890 C   0  0  0  0  0  0  0  0  0  0  0  0
   -6.7920   17.7640  -33.4270 C   0  0  0  0  0  0  0  0  0  0  0  0
   -6.4330   17.1880  -34.6860 N   0  0  0  0  0  0  0  0  0  0  0  0
   -7.6040   17.1490  -32.6860 O   0  0  0  0  0  0  0  0  0  0  0  0
   -7.0860   20.0830  -32.4930 C   0  0  0  0  0  0  0  0  0  0  0  0
   -6.5680   21.3330  -32.0740 C   0  0  0  0  0  0  0  0  0  0  0  0
   -9.1143   22.1036  -30.3873 H   0  0  0  0  0  0  0  0  0  0  0  0
   -9.3614   22.9772  -31.9373 H   0  0  0  0  0  0  0  0  0  0  0  0
   -9.1312   21.1958  -31.9373 H   0  0  0  0  0  0  0  0  0  0  0  0
   -7.5328   24.3047  -30.7941 H   0  0  0  0  0  0  0  0  0  0  0  0
   -4.6208   23.2227  -28.8998 H   0  0  0  0  0  0  0  0  0  0  0  0
   -3.4468   22.0681  -27.0225 H   0  0  0  0  0  0  0  0  0  0  0  0
    0.0069   24.6027  -27.6159 H   0  0  0  0  0  0  0  0  0  0  0  0
   -1.1635   25.7667  -29.4841 H   0  0  0  0  0  0  0  0  0  0  0  0
   -3.2564   20.7204  -32.7713 H   0  0  0  0  0  0  0  0  0  0  0  0
   -4.2052   18.5431  -33.4930 H   0  0  0  0  0  0  0  0  0  0  0  0
   -5.8990   17.7250  -35.4040 H   0  0  0  0  0  0  0  0  0  0  0  0
   -6.7850   16.2390  -34.9430 H   0  0  0  0  0  0  0  0  0  0  0  0
   -8.1687   19.8994  -32.4287 H   0  0  0  0  0  0  0  0  0  0  0  0
  1  2  1  0
  2  3  1  0
  3  4  2  0
  4  5  1  0
  5  6  2  0
  5  7  1  0
  7  8  1  0
  8  9  2  0
  9 10  1  0
 10 11  2  0
 11 12  1  0
 11 13  1  0
 13 14  2  0
  4 15  1  0
 15 16  2  0
 15 17  1  0
 17 18  2  0
 18 19  1  0
 19 20  2  0
 20 21  1  0
 21 22  1  0
 21 23  2  0
 20 24  1  0
 24 25  2  0
 25  2  1  0
 14  8  1  0
 25 17  1  0
  1 26  1  0
  1 27  1  0
  1 28  1  0
  3 29  1  0
  9 30  1  0
 10 31  1  0
 13 32  1  0
 14 33  1  0
 18 34  1  0
 19 35  1  0
 22 36  1  0
 22 37  1  0
 24 38  1  0
M  CHG  1   7  -1
M  END
>  <UniqueID>  (28) 
25

>  <SMILES>  (28) 
Cn1cc(C(=O)[N-]c2ccc(F)cc2)c(=O)c2ccc(C(N)=O)cc21

>  <Energy>  (28) 
57.753566491152505

>  <Genealogy>  (28) 
Cn1cc(C(=O)[N-]c2ccc(F)cc2)c(=O)c2ccc(C(N)=O)cc21 (protonated)
Cn1cc(C(=O)[N-]c2ccc(F)cc2)c(=O)c2ccc(C(N)=O)cc21 (3D coordinates assigned)
Cn1cc(C(=O)[N-]c2ccc(F)cc2)c(=O)c2ccc(C(N)=O)cc21 (optimized conformer: 57.753566491152505 kcal/mol)

>  <smiles>  (28) 
Cn1cc(C(=O)Nc2ccc(F)cc2)c(=O)c2ccc(C(N)=O)cc21

>  <score_type>  (28) 
oracle

>  <origin>  (28) 
adgpu

>  <m_score__min__energy>  (28) 
-10.01

>  <m_primary>  (28) 
energy

$$$$
28:0
     RDKit          3D

 36 38  0  0  0  0  0  0  0  0999 V2000
   -1.4020   20.9630  -33.1810 C   0  0  0  0  0  0  0  0  0  0  0  0
   -2.8670   20.6290  -33.1640 C   0  0  0  0  0  0  0  0  0  0  0  0
   -3.3350   19.4720  -33.8090 C   0  0  0  0  0  0  0  0  0  0  0  0
   -4.6970   19.1620  -33.8020 C   0  0  0  0  0  0  0  0  0  0  0  0
   -5.6020   20.0000  -33.1490 C   0  0  0  0  0  0  0  0  0  0  0  0
   -6.9210   19.6860  -33.1280 F   0  0  0  0  0  0  0  0  0  0  0  0
   -5.1490   21.1570  -32.5100 C   0  0  0  0  0  0  0  0  0  0  0  0
   -3.7820   21.4920  -32.5270 C   0  0  0  0  0  0  0  0  0  0  0  0
   -3.3010   22.6430  -31.8850 O   0  0  0  0  0  0  0  0  0  0  0  0
   -2.8600   22.7060  -30.5560 C   0  0  0  0  0  0  0  0  0  0  0  0
   -2.3070   21.6170  -29.9510 N   0  0  0  0  0  0  0  0  0  0  0  0
   -1.8890   21.6460  -28.6580 C   0  0  0  0  0  0  0  0  0  0  0  0
   -2.0200   22.8150  -27.9090 C   0  0  0  0  0  0  0  0  0  0  0  0
   -2.5900   23.9440  -28.4980 C   0  0  0  0  0  0  0  0  0  0  0  0
   -3.0360   23.8920  -29.8290 C   0  0  0  0  0  0  0  0  0  0  0  0
   -3.6160   25.0350  -30.4740 N   0  0  0  0  0  0  0  0  0  0  0  0
   -5.0150   25.3400  -30.5550 C   0  0  0  0  0  0  0  0  0  0  0  0
   -5.3770   26.5420  -30.4460 O   0  0  0  0  0  0  0  0  0  0  0  0
   -6.0370   24.3030  -30.8070 C   0  0  0  0  0  0  0  0  0  0  0  0
   -6.4410   23.4120  -29.8030 C   0  0  0  0  0  0  0  0  0  0  0  0
   -7.4010   22.4490  -30.1120 C   0  0  0  0  0  0  0  0  0  0  0  0
   -7.9130   22.3790  -31.3670 N   0  0  0  0  0  0  0  0  0  0  0  0
   -7.5020   23.2390  -32.3350 C   0  0  0  0  0  0  0  0  0  0  0  0
   -6.5690   24.1860  -32.0530 N   0  0  0  0  0  0  0  0  0  0  0  0
   -1.0331   21.0471  -32.1481 H   0  0  0  0  0  0  0  0  0  0  0  0
   -0.8506   20.1675  -33.7037 H   0  0  0  0  0  0  0  0  0  0  0  0
   -1.2499   21.9189  -33.7037 H   0  0  0  0  0  0  0  0  0  0  0  0
   -2.6251   18.8067  -34.3223 H   0  0  0  0  0  0  0  0  0  0  0  0
   -5.0567   18.2561  -34.3119 H   0  0  0  0  0  0  0  0  0  0  0  0
   -5.8653   21.8103  -31.9903 H   0  0  0  0  0  0  0  0  0  0  0  0
   -1.4474   20.7474  -28.2024 H   0  0  0  0  0  0  0  0  0  0  0  0
   -1.6773   22.8466  -26.8642 H   0  0  0  0  0  0  0  0  0  0  0  0
   -2.6901   24.8747  -27.9202 H   0  0  0  0  0  0  0  0  0  0  0  0
   -6.0098   23.4713  -28.7928 H   0  0  0  0  0  0  0  0  0  0  0  0
   -7.7434   21.7459  -29.3384 H   0  0  0  0  0  0  0  0  0  0  0  0
   -7.9248   23.1688  -33.3481 H   0  0  0  0  0  0  0  0  0  0  0  0
  1  2  1  0
  2  3  2  0
  3  4  1  0
  4  5  2  0
  5  6  1  0
  5  7  1  0
  7  8  2  0
  8  9  1  0
  9 10  1  0
 10 11  2  0
 11 12  1  0
 12 13  2  0
 13 14  1  0
 14 15  2  0
 15 16  1  0
 16 17  1  0
 17 18  2  0
 17 19  1  0
 19 20  2  0
 20 21  1  0
 21 22  2  0
 22 23  1  0
 23 24  2  0
  8  2  1  0
 15 10  1  0
 24 19  1  0
  1 25  1  0
  1 26  1  0
  1 27  1  0
  3 28  1  0
  4 29  1  0
  7 30  1  0
 12 31  1  0
 13 32  1  0
 14 33  1  0
 20 34  1  0
 21 35  1  0
 23 36  1  0
M  CHG  1  16  -1
M  END
>  <UniqueID>  (29) 
26

>  <SMILES>  (29) 
Cc1ccc(F)cc1Oc1ncccc1[N-]C(=O)c1ccncn1

>  <Energy>  (29) 
51.713467832021394

>  <Genealogy>  (29) 
Cc1ccc(F)cc1Oc1ncccc1[N-]C(=O)c1ccncn1 (protonated)
Cc1ccc(F)cc1Oc1ncccc1[N-]C(=O)c1ccncn1 (3D coordinates assigned)
Cc1ccc(F)cc1Oc1ncccc1[N-]C(=O)c1ccncn1 (optimized conformer: 51.713467832021394 kcal/mol)

>  <smiles>  (29) 
Cc1ccc(F)cc1Oc1ncccc1NC(=O)c1ccncn1

>  <score_type>  (29) 
oracle

>  <origin>  (29) 
adgpu

>  <m_score__min__energy>  (29) 
-9.2100000000000009

>  <m_primary>  (29) 
energy

$$$$
29:0
     RDKit          3D

 30 32  0  0  0  0  0  0  0  0999 V2000
   -3.8990   25.5690  -30.4880 O   0  0  0  0  0  0  0  0  0  0  0  0
   -4.7010   24.4820  -30.8340 C   0  0  0  0  0  0  0  0  0  0  0  0
   -6.0220   24.7000  -31.2460 C   0  0  0  0  0  0  0  0  0  0  0  0
   -6.8520   23.6240  -31.5620 C   0  0  0  0  0  0  0  0  0  0  0  0
   -6.3760   22.3070  -31.4720 C   0  0  0  0  0  0  0  0  0  0  0  0
   -7.2600   21.1610  -31.8100 C   0  0  0  0  0  0  0  0  0  0  0  0
   -8.6440   21.3520  -31.9760 C   0  0  0  0  0  0  0  0  0  0  0  0
   -9.4760   20.2730  -32.2930 C   0  0  0  0  0  0  0  0  0  0  0  0
   -8.9350   18.9940  -32.4460 C   0  0  0  0  0  0  0  0  0  0  0  0
   -7.5630   18.7920  -32.2830 C   0  0  0  0  0  0  0  0  0  0  0  0
   -6.7270   19.8670  -31.9660 C   0  0  0  0  0  0  0  0  0  0  0  0
   -5.0480   22.0880  -31.0630 C   0  0  0  0  0  0  0  0  0  0  0  0
   -4.2000   23.1670  -30.7500 C   0  0  0  0  0  0  0  0  0  0  0  0
   -2.8020   22.8990  -30.3300 C   0  0  0  0  0  0  0  0  0  0  0  0
   -1.9630   21.9810  -30.9880 C   0  0  0  0  0  0  0  0  0  0  0  0
   -0.6890   21.8990  -30.4440 C   0  0  0  0  0  0  0  0  0  0  0  0
   -0.6020   22.9730  -29.1550 S   0  0  0  0  0  0  0  0  0  0  0  0
   -2.1760   23.5490  -29.2680 C   0  0  0  0  0  0  0  0  0  0  0  0
   -2.9550   25.6700  -30.8430 H   0  0  0  0  0  0  0  0  0  0  0  0
   -6.4079   25.7274  -31.3210 H   0  0  0  0  0  0  0  0  0  0  0  0
   -7.8873   23.8094  -31.8841 H   0  0  0  0  0  0  0  0  0  0  0  0
   -9.0749   22.3569  -31.8557 H   0  0  0  0  0  0  0  0  0  0  0  0
  -10.5568   20.4317  -32.4219 H   0  0  0  0  0  0  0  0  0  0  0  0
   -9.5900   18.1460  -32.6949 H   0  0  0  0  0  0  0  0  0  0  0  0
   -7.1387   17.7844  -32.4043 H   0  0  0  0  0  0  0  0  0  0  0  0
   -5.6472   19.7010  -31.8378 H   0  0  0  0  0  0  0  0  0  0  0  0
   -4.6668   21.0590  -30.9867 H   0  0  0  0  0  0  0  0  0  0  0  0
   -2.2868   21.3838  -31.8532 H   0  0  0  0  0  0  0  0  0  0  0  0
    0.1225   21.2448  -30.7955 H   0  0  0  0  0  0  0  0  0  0  0  0
   -2.6335   24.3080  -28.6164 H   0  0  0  0  0  0  0  0  0  0  0  0
  1  2  1  0
  2  3  2  0
  3  4  1  0
  4  5  2  0
  5  6  1  0
  6  7  2  0
  7  8  1  0
  8  9  2  0
  9 10  1  0
 10 11  2  0
  5 12  1  0
 12 13  2  0
 13 14  1  0
 14 15  1  0
 15 16  2  0
 16 17  1  0
 17 18  1  0
 13  2  1  0
 18 14  2  0
 11  6  1  0
  1 19  1  0
  3 20  1  0
  4 21  1  0
  7 22  1  0
  8 23  1  0
  9 24  1  0
 10 25  1  0
 11 26  1  0
 12 27  1  0
 15 28  1  0
 16 29  1  0
 18 30  1  0
M  END
>  <UniqueID>  (30) 
27

>  <SMILES>  (30) 
Oc1ccc(-c2ccccc2)cc1-c1ccsc1

>  <Energy>  (30) 
68.66975646329004

>  <Genealogy>  (30) 
Oc1ccc(-c2ccccc2)cc1-c1ccsc1 (3D coordinates assigned)
Oc1ccc(-c2ccccc2)cc1-c1ccsc1 (optimized conformer: 68.66975646329004 kcal/mol)

>  <smiles>  (30) 
Oc1ccc(-c2ccccc2)cc1-c1ccsc1

>  <score_type>  (30) 
oracle

>  <origin>  (30) 
adgpu

>  <m_score__min__energy>  (30) 
-8.8599999999999994

>  <m_primary>  (30) 
energy

$$$$
30:0
     RDKit          3D

 33 35  0  0  0  0  0  0  0  0999 V2000
   -8.5530   19.1870  -31.3310 C   0  0  0  0  0  0  0  0  0  0  0  0
   -8.4420   20.6720  -31.4760 C   0  0  0  0  0  0  0  0  0  0  0  0
   -9.5070   21.4160  -31.9970 C   0  0  0  0  0  0  0  0  0  0  0  0
   -9.3660   22.7960  -32.1490 C   0  0  0  0  0  0  0  0  0  0  0  0
   -8.1700   23.4190  -31.7890 C   0  0  0  0  0  0  0  0  0  0  0  0
   -7.1210   22.6440  -31.2730 C   0  0  0  0  0  0  0  0  0  0  0  0
   -5.8320   23.2460  -30.9090 C   0  0  0  0  0  0  0  0  0  0  0  0
   -5.3780   24.4340  -31.3600 N   0  0  0  0  0  0  0  0  0  0  0  0
   -4.1680   24.5900  -30.8440 N   0  0  0  0  0  0  0  0  0  0  0  0
   -3.9360   23.4930  -30.1010 C   0  0  0  0  0  0  0  0  0  0  0  0
   -2.4090   23.1660  -29.2250 S   0  0  0  0  0  0  0  0  0  0  0  0
   -1.6090   22.3140  -30.6330 C   0  0  0  0  0  0  0  0  0  0  0  0
   -2.6130   21.5280  -31.4350 C   0  0  0  0  0  0  0  0  0  0  0  0
   -2.9120   21.8970  -32.7590 C   0  0  0  0  0  0  0  0  0  0  0  0
   -3.9140   21.2280  -33.4670 C   0  0  0  0  0  0  0  0  0  0  0  0
   -4.6210   20.1830  -32.8640 C   0  0  0  0  0  0  0  0  0  0  0  0
   -6.0110   19.2930  -33.8260 Br  0  0  0  0  0  0  0  0  0  0  0  0
   -4.3180   19.8000  -31.5540 C   0  0  0  0  0  0  0  0  0  0  0  0
   -3.3180   20.4690  -30.8410 C   0  0  0  0  0  0  0  0  0  0  0  0
   -4.9540   22.6700  -30.1270 O   0  0  0  0  0  0  0  0  0  0  0  0
   -7.2840   21.3000  -31.1350 N   0  0  0  0  0  0  0  0  0  0  0  0
   -8.5727   18.9233  -30.2633 H   0  0  0  0  0  0  0  0  0  0  0  0
   -9.4796   18.8399  -31.8116 H   0  0  0  0  0  0  0  0  0  0  0  0
   -7.6883   18.7060  -31.8116 H   0  0  0  0  0  0  0  0  0  0  0  0
  -10.4451   20.9182  -32.2836 H   0  0  0  0  0  0  0  0  0  0  0  0
  -10.1973   23.3927  -32.5525 H   0  0  0  0  0  0  0  0  0  0  0  0
   -8.0514   24.5060  -31.9087 H   0  0  0  0  0  0  0  0  0  0  0  0
   -1.1368   23.0638  -31.2848 H   0  0  0  0  0  0  0  0  0  0  0  0
   -0.8567   21.6164  -30.2364 H   0  0  0  0  0  0  0  0  0  0  0  0
   -2.3550   22.7152  -33.2389 H   0  0  0  0  0  0  0  0  0  0  0  0
   -4.1470   21.5239  -34.5005 H   0  0  0  0  0  0  0  0  0  0  0  0
   -4.8670   18.9711  -31.0833 H   0  0  0  0  0  0  0  0  0  0  0  0
   -3.0828   20.1642  -29.8106 H   0  0  0  0  0  0  0  0  0  0  0  0
  1  2  1  0
  2  3  2  0
  3  4  1  0
  4  5  2  0
  5  6  1  0
  6  7  1  0
  7  8  2  0
  8  9  1  0
  9 10  2  0
 10 11  1  0
 11 12  1  0
 12 13  1  0
 13 14  2  0
 14 15  1  0
 15 16  2  0
 16 17  1  0
 16 18  1  0
 18 19  2  0
 10 20  1  0
  6 21  2  0
 21  2  1  0
 20  7  1  0
 19 13  1  0
  1 22  1  0
  1 23  1  0
  1 24  1  0
  3 25  1  0
  4 26  1  0
  5 27  1  0
 12 28  1  0
 12 29  1  0
 14 30  1  0
 15 31  1  0
 18 32  1  0
 19 33  1  0
M  END
>  <UniqueID>  (31) 
28

>  <SMILES>  (31) 
Cc1cccc(-c2nnc(SCc3ccc(Br)cc3)o2)n1

>  <Energy>  (31) 
63.30538496151451

>  <Genealogy>  (31) 
Cc1cccc(-c2nnc(SCc3ccc(Br)cc3)o2)n1 (3D coordinates assigned)
Cc1cccc(-c2nnc(SCc3ccc(Br)cc3)o2)n1 (optimized conformer: 63.30538496151451 kcal/mol)

>  <smiles>  (31) 
Cc1cccc(-c2nnc(SCc3ccc(Br)cc3)o2)n1

>  <score_type>  (31) 
oracle

>  <origin>  (31) 
adgpu

>  <m_score__min__energy>  (31) 
-8.6300000000000008

>  <m_primary>  (31) 
energy

$$$$
31:0
     RDKit          3D

 27 28  0  0  0  0  0  0  0  0999 V2000
   -2.6330   23.3810  -28.9360 O   0  0  0  0  0  0  0  0  0  0  0  0
   -2.5950   24.5480  -29.4060 C   0  0  0  0  0  0  0  0  0  0  0  0
   -1.5740   25.4430  -28.9500 N   0  0  0  0  0  0  0  0  0  0  0  0
   -1.4070   25.9140  -27.6050 C   0  0  0  0  0  0  0  0  0  0  0  0
   -2.1140   25.3460  -26.5290 C   0  0  0  0  0  0  0  0  0  0  0  0
   -1.9050   25.8120  -25.2260 C   0  0  0  0  0  0  0  0  0  0  0  0
   -0.9830   26.8340  -24.9880 C   0  0  0  0  0  0  0  0  0  0  0  0
   -0.2600   27.3860  -26.0500 C   0  0  0  0  0  0  0  0  0  0  0  0
   -0.4660   26.9210  -27.3530 C   0  0  0  0  0  0  0  0  0  0  0  0
   -3.4970   24.9360  -30.4550 N   0  0  0  0  0  0  0  0  0  0  0  0
   -4.7370   24.2610  -30.7320 C   0  0  0  0  0  0  0  0  0  0  0  0
   -4.7570   22.9960  -31.3510 C   0  0  0  0  0  0  0  0  0  0  0  0
   -5.9710   22.3440  -31.5890 C   0  0  0  0  0  0  0  0  0  0  0  0
   -7.1730   22.9410  -31.2030 C   0  0  0  0  0  0  0  0  0  0  0  0
   -7.1640   24.1860  -30.5710 C   0  0  0  0  0  0  0  0  0  0  0  0
   -5.9530   24.8430  -30.3290 C   0  0  0  0  0  0  0  0  0  0  0  0
   -5.9650   26.0540  -29.7160 F   0  0  0  0  0  0  0  0  0  0  0  0
   -2.8327   24.5337  -26.7125 H   0  0  0  0  0  0  0  0  0  0  0  0
   -2.4672   25.3731  -24.3886 H   0  0  0  0  0  0  0  0  0  0  0  0
   -0.8256   27.2048  -23.9644 H   0  0  0  0  0  0  0  0  0  0  0  0
    0.4708   28.1860  -25.8607 H   0  0  0  0  0  0  0  0  0  0  0  0
    0.1139   27.3482  -28.1844 H   0  0  0  0  0  0  0  0  0  0  0  0
   -3.1930   25.7000  -31.0980 H   0  0  0  0  0  0  0  0  0  0  0  0
   -3.8121   22.5181  -31.6490 H   0  0  0  0  0  0  0  0  0  0  0  0
   -5.9792   21.3600  -32.0807 H   0  0  0  0  0  0  0  0  0  0  0  0
   -8.1276   22.4300  -31.3970 H   0  0  0  0  0  0  0  0  0  0  0  0
   -8.1118   24.6514  -30.2626 H   0  0  0  0  0  0  0  0  0  0  0  0
  1  2  2  0
  2  3  1  0
  3  4  1  0
  4  5  2  0
  5  6  1  0
  6  7  2  0
  7  8  1  0
  8  9  2  0
  2 10  1  0
 10 11  1  0
 11 12  2  0
 12 13  1  0
 13 14  2  0
 14 15  1  0
 15 16  2  0
 16 17  1  0
  9  4  1  0
 16 11  1  0
  5 18  1  0
  6 19  1  0
  7 20  1  0
  8 21  1  0
  9 22  1  0
 10 23  1  0
 12 24  1  0
 13 25  1  0
 14 26  1  0
 15 27  1  0
M  CHG  1   3  -1
M  END
>  <UniqueID>  (32) 
29

>  <SMILES>  (32) 
O=C([N-]c1ccccc1)Nc1ccccc1F

>  <Energy>  (32) 
34.993382686413895

>  <Genealogy>  (32) 
O=C([N-]c1ccccc1)Nc1ccccc1F (protonated)
O=C([N-]c1ccccc1)Nc1ccccc1F (3D coordinates assigned)
O=C([N-]c1ccccc1)Nc1ccccc1F (optimized conformer: 34.993382686413895 kcal/mol)

>  <smiles>  (32) 
O=C(Nc1ccccc1)Nc1ccccc1F

>  <score_type>  (32) 
oracle

>  <origin>  (32) 
adgpu

>  <m_score__min__energy>  (32) 
-7.6799999999999997

>  <m_primary>  (32) 
energy

$$$$
32:0
     RDKit          3D

 17 17  0  0  0  0  0  0  0  0999 V2000
   -9.1100   19.0660  -32.3250 C   0  0  0  0  0  0  0  0  0  0  0  0
   -8.2650   20.3040  -32.2530 C   0  0  0  0  0  0  0  0  0  0  0  0
   -8.7810   21.4800  -31.6900 C   0  0  0  0  0  0  0  0  0  0  0  0
   -7.9830   22.6230  -31.5890 C   0  0  0  0  0  0  0  0  0  0  0  0
   -6.6550   22.6050  -32.0360 C   0  0  0  0  0  0  0  0  0  0  0  0
   -5.8720   23.8020  -31.9120 N   0  0  0  0  0  0  0  0  0  0  0  0
   -5.9750   24.6210  -30.9410 C   0  0  0  0  0  0  0  0  0  0  0  0
   -6.1080   25.6570  -29.7140 S   0  0  0  0  0  0  0  0  0  0  0  0
   -6.1320   21.4180  -32.5850 C   0  0  0  0  0  0  0  0  0  0  0  0
   -6.9310   20.2750  -32.6860 C   0  0  0  0  0  0  0  0  0  0  0  0
   -9.3445   18.7224  -31.3067 H   0  0  0  0  0  0  0  0  0  0  0  0
  -10.0443   19.2904  -32.8605 H   0  0  0  0  0  0  0  0  0  0  0  0
   -8.5606   18.2777  -32.8605 H   0  0  0  0  0  0  0  0  0  0  0  0
   -9.8188   21.5031  -31.3261 H   0  0  0  0  0  0  0  0  0  0  0  0
   -8.4005   23.5437  -31.1554 H   0  0  0  0  0  0  0  0  0  0  0  0
   -5.0899   21.3901  -32.9360 H   0  0  0  0  0  0  0  0  0  0  0  0
   -6.5118   19.3491  -33.1068 H   0  0  0  0  0  0  0  0  0  0  0  0
  1  2  1  0
  2  3  2  0
  3  4  1  0
  4  5  2  0
  5  6  1  0
  6  7  2  0
  7  8  2  0
  5  9  1  0
  9 10  2  0
 10  2  1  0
  1 11  1  0
  1 12  1  0
  1 13  1  0
  3 14  1  0
  4 15  1  0
  9 16  1  0
 10 17  1  0
M  END
>  <UniqueID>  (33) 
30

>  <SMILES>  (33) 
Cc1ccc(N=C=S)cc1

>  <Energy>  (33) 
15.509577327348685

>  <Genealogy>  (33) 
Cc1ccc(N=C=S)cc1 (3D coordinates assigned)
Cc1ccc(N=C=S)cc1 (optimized conformer: 15.509577327348685 kcal/mol)

>  <smiles>  (33) 
Cc1ccc(N=C=S)cc1

>  <score_type>  (33) 
oracle

>  <origin>  (33) 
adgpu

>  <m_score__min__energy>  (33) 
-5.4000000000000004

>  <m_primary>  (33) 
energy

$$$$
33:0
     RDKit          3D

 42 44  0  0  1  0  0  0  0  0999 V2000
   -4.2250   24.5390  -27.0930 C   0  0  0  0  0  0  0  0  0  0  0  0
   -3.8590   24.2530  -28.4590 N   0  0  0  0  0  0  0  0  0  0  0  0
   -2.7230   23.3710  -28.5200 C   0  0  0  0  0  0  0  0  0  0  0  0
   -2.2900   23.1550  -29.9440 C   0  0  0  0  0  0  0  0  0  0  0  0
   -3.4020   22.9460  -30.8520 N   0  0  0  0  0  0  0  0  0  0  0  0
   -3.3710   21.9210  -31.8410 C   0  0  0  0  0  0  0  0  0  0  0  0
   -4.4250   21.1380  -32.1440 N   0  0  0  0  0  0  0  0  0  0  0  0
   -4.2490   20.1810  -33.0990 C   0  0  0  0  0  0  0  0  0  0  0  0
   -5.1710   19.3900  -33.4930 N   0  0  0  0  0  0  0  0  0  0  0  0
   -6.4730   19.4520  -32.9580 C   0  0  0  0  0  0  0  0  0  0  0  0
   -7.0360   18.2600  -32.4840 C   0  0  0  0  0  0  0  0  0  0  0  0
   -8.3240   18.2290  -31.9600 C   0  0  0  0  0  0  0  0  0  0  0  0
   -9.0980   19.3750  -31.8870 C   0  0  0  0  0  0  0  0  0  0  0  0
   -8.5200   20.5460  -32.3600 C   0  0  0  0  0  0  0  0  0  0  0  0
   -7.2440   20.5910  -32.8830 C   0  0  0  0  0  0  0  0  0  0  0  0
   -3.0080   20.0290  -33.7330 C   0  0  0  0  0  0  0  0  0  0  0  0
   -1.9470   20.8420  -33.4040 C   0  0  0  0  0  0  0  0  0  0  0  0
   -0.6260   20.6800  -34.0810 C   0  0  0  0  0  0  0  0  0  0  0  0
   -0.7340   19.6220  -34.9730 F   0  0  0  0  0  0  0  0  0  0  0  0
   -0.4340   21.8210  -34.8520 F   0  0  0  0  0  0  0  0  0  0  0  0
    0.4000   20.5110  -33.1830 F   0  0  0  0  0  0  0  0  0  0  0  0
   -2.1580   21.7720  -32.4610 N   0  0  0  0  0  0  0  0  0  0  0  0
   -4.5800   23.8150  -30.7030 C   0  0  0  0  0  0  0  0  0  0  0  0
   -4.9620   23.7620  -29.2190 C   0  0  0  0  0  0  0  0  0  0  0  0
   -3.5443   24.0071  -26.4120 H   0  0  0  0  0  0  0  0  0  0  0  0
   -4.1518   25.6217  -26.9128 H   0  0  0  0  0  0  0  0  0  0  0  0
   -5.2579   24.2063  -26.9128 H   0  0  0  0  0  0  0  0  0  0  0  0
   -1.8911   23.8149  -27.9535 H   0  0  0  0  0  0  0  0  0  0  0  0
   -3.0067   22.4005  -28.0868 H   0  0  0  0  0  0  0  0  0  0  0  0
   -1.7279   24.0400  -30.2769 H   0  0  0  0  0  0  0  0  0  0  0  0
   -1.6742   22.2438  -29.9647 H   0  0  0  0  0  0  0  0  0  0  0  0
   -6.4484   17.3311  -32.5270 H   0  0  0  0  0  0  0  0  0  0  0  0
   -8.7357   17.2759  -31.5966 H   0  0  0  0  0  0  0  0  0  0  0  0
  -10.1180   19.3587  -31.4756 H   0  0  0  0  0  0  0  0  0  0  0  0
   -9.1042   21.4770  -32.3158 H   0  0  0  0  0  0  0  0  0  0  0  0
   -6.8378   21.5473  -33.2442 H   0  0  0  0  0  0  0  0  0  0  0  0
   -2.8807   19.2521  -34.5013 H   0  0  0  0  0  0  0  0  0  0  0  0
   -1.3500   22.3830  -32.2210 H   0  0  0  0  0  0  0  0  0  0  0  0
   -4.3337   24.8459  -30.9973 H   0  0  0  0  0  0  0  0  0  0  0  0
   -5.4094   23.4812  -31.3438 H   0  0  0  0  0  0  0  0  0  0  0  0
   -5.8473   24.3897  -29.0394 H   0  0  0  0  0  0  0  0  0  0  0  0
   -5.1986   22.7292  -28.9233 H   0  0  0  0  0  0  0  0  0  0  0  0
  1  2  1  0
  2  3  1  0
  3  4  1  0
  4  5  1  0
  5  6  1  0
  6  7  2  0
  7  8  1  0
  8  9  2  0
  9 10  1  0
 10 11  2  0
 11 12  1  0
 12 13  2  0
 13 14  1  0
 14 15  2  0
  8 16  1  0
 16 17  2  0
 17 18  1  0
 18 19  1  0
 18 20  1  0
 18 21  1  0
 17 22  1  0
  5 23  1  0
 23 24  1  0
 24  2  1  0
 22  6  1  0
 15 10  1  0
  1 25  1  0
  1 26  1  0
  1 27  1  0
  3 28  1  0
  3 29  1  0
  4 30  1  0
  4 31  1  0
 11 32  1  0
 12 33  1  0
 13 34  1  0
 14 35  1  0
 15 36  1  0
 16 37  1  0
 22 38  1  0
 23 39  1  0
 23 40  1  0
 24 41  1  0
 24 42  1  0
M  END
>  <smiles>  (34) 
CN1CCN(c2nc(=Nc3ccccc3)cc(C(F)(F)F)[nH]2)CC1

>  <score_type>  (34) 
oracle

>  <origin>  (34) 
adgpu

>  <m_score__min__energy>  (34) 
-6.8700000000000001

>  <m_primary>  (34) 
energy

$$$$
34:0
     RDKit          3D

 37 38  0  0  0  0  0  0  0  0999 V2000
    0.9410   22.7380  -35.3290 N   0  0  0  0  0  0  0  0  0  0  0  0
    0.6780   21.6900  -34.9150 C   0  0  0  0  0  0  0  0  0  0  0  0
    0.3430   20.3590  -34.3900 C   0  0  0  0  0  0  0  0  0  0  0  0
   -1.1490   20.0480  -34.5790 C   0  0  0  0  0  0  0  0  0  0  0  0
   -1.9100   20.1670  -33.3140 N   0  0  0  0  0  0  0  0  0  0  0  0
   -2.4220   21.5460  -33.1090 C   0  0  0  0  0  0  0  0  0  0  0  0
   -3.6620   21.5600  -32.2060 C   0  0  0  0  0  0  0  0  0  0  0  0
   -4.7940   20.8230  -32.8260 N   0  0  0  0  0  0  0  0  0  0  0  0
   -5.7570   20.4090  -31.7720 C   0  0  0  0  0  0  0  0  0  0  0  0
   -7.0670   21.1730  -31.8540 C   0  0  0  0  0  0  0  0  0  0  0  0
   -7.0630   22.5840  -31.8860 C   0  0  0  0  0  0  0  0  0  0  0  0
   -5.8970   23.2780  -31.8670 F   0  0  0  0  0  0  0  0  0  0  0  0
   -8.2670   23.2920  -31.9460 C   0  0  0  0  0  0  0  0  0  0  0  0
   -9.4830   22.6120  -31.9830 C   0  0  0  0  0  0  0  0  0  0  0  0
   -9.5030   21.2170  -31.9670 C   0  0  0  0  0  0  0  0  0  0  0  0
   -8.3070   20.4920  -31.9080 C   0  0  0  0  0  0  0  0  0  0  0  0
   -8.4050   18.7330  -31.9300 Cl  0  0  0  0  0  0  0  0  0  0  0  0
   -4.3440   19.6710  -33.6580 C   0  0  0  0  0  0  0  0  0  0  0  0
   -2.9720   19.1330  -33.2200 C   0  0  0  0  0  0  0  0  0  0  0  0
    0.9377   19.6027  -34.9232 H   0  0  0  0  0  0  0  0  0  0  0  0
    0.5693   20.3415  -33.3137 H   0  0  0  0  0  0  0  0  0  0  0  0
   -1.5678   20.7532  -35.3120 H   0  0  0  0  0  0  0  0  0  0  0  0
   -1.2356   19.0087  -34.9286 H   0  0  0  0  0  0  0  0  0  0  0  0
   -1.6332   22.1538  -32.6416 H   0  0  0  0  0  0  0  0  0  0  0  0
   -2.7058   21.9567  -34.0892 H   0  0  0  0  0  0  0  0  0  0  0  0
   -3.4103   21.0867  -31.2454 H   0  0  0  0  0  0  0  0  0  0  0  0
   -3.9700   22.6056  -32.0578 H   0  0  0  0  0  0  0  0  0  0  0  0
   -5.2760   21.4970  -33.4670 H   0  0  0  0  0  0  0  0  0  0  0  0
   -5.9663   19.3352  -31.8865 H   0  0  0  0  0  0  0  0  0  0  0  0
   -5.3008   20.6282  -30.7953 H   0  0  0  0  0  0  0  0  0  0  0  0
   -8.2545   24.3918  -31.9641 H   0  0  0  0  0  0  0  0  0  0  0  0
  -10.4270   23.1751  -32.0248 H   0  0  0  0  0  0  0  0  0  0  0  0
  -10.4644   20.6836  -32.0010 H   0  0  0  0  0  0  0  0  0  0  0  0
   -5.0846   18.8623  -33.5718 H   0  0  0  0  0  0  0  0  0  0  0  0
   -4.2507   20.0228  -34.6960 H   0  0  0  0  0  0  0  0  0  0  0  0
   -3.0420   18.7903  -32.1771 H   0  0  0  0  0  0  0  0  0  0  0  0
   -2.7012   18.3072  -33.8944 H   0  0  0  0  0  0  0  0  0  0  0  0
  1  2  3  0
  2  3  1  0
  3  4  1  0
  4  5  1  0
  5  6  1  0
  6  7  1  0
  7  8  1  0
  8  9  1  0
  9 10  1  0
 10 11  2  0
 11 12  1  0
 11 13  1  0
 13 14  2  0
 14 15  1  0
 15 16  2  0
 16 17  1  0
  8 18  1  0
 18 19  1  0
 19  5  1  0
 16 10  1  0
  3 20  1  0
  3 21  1  0
  4 22  1  0
  4 23  1  0
  6 24  1  0
  6 25  1  0
  7 26  1  0
  7 27  1  0
  8 28  1  0
  9 29  1  0
  9 30  1  0
 13 31  1  0
 14 32  1  0
 15 33  1  0
 18 34  1  0
 18 35  1  0
 19 36  1  0
 19 37  1  0
M  CHG  1   8   1
M  END
>  <UniqueID>  (35) 
31

>  <SMILES>  (35) 
N#CCCN1CC[NH+](Cc2c(F)cccc2Cl)CC1

>  <Energy>  (35) 
50.38788318687119

>  <Genealogy>  (35) 
N#CCCN1CC[NH+](Cc2c(F)cccc2Cl)CC1 (protonated)
N#CCCN1CC[NH+](Cc2c(F)cccc2Cl)CC1 (3D coordinates assigned)
N#CCCN1CC[NH+](Cc2c(F)cccc2Cl)CC1 (nonaromatic ring conformer: 50.38788318687119 kcal/mol)

>  <smiles>  (35) 
N#CCCN1CCN(Cc2c(F)cccc2Cl)CC1

>  <score_type>  (35) 
oracle

>  <origin>  (35) 
adgpu

>  <m_score__min__energy>  (35) 
-6.6600000000000001

>  <m_primary>  (35) 
energy

$$$$
35:0
     RDKit          3D

 34 35  0  0  0  0  0  0  0  0999 V2000
   -7.7020   20.0320  -31.9810 C   0  0  0  0  0  0  0  0  0  0  0  0
   -8.3580   21.3470  -31.8520 N   0  0  0  0  0  0  0  0  0  0  0  0
   -9.8070   21.2020  -32.0790 C   0  0  0  0  0  0  0  0  0  0  0  0
   -8.1130   21.9460  -30.5200 C   0  0  0  0  0  0  0  0  0  0  0  0
   -6.8860   22.8300  -30.5150 C   0  0  0  0  0  0  0  0  0  0  0  0
   -6.9940   24.1940  -30.2060 C   0  0  0  0  0  0  0  0  0  0  0  0
   -5.8570   25.0020  -30.1850 C   0  0  0  0  0  0  0  0  0  0  0  0
   -4.5980   24.4600  -30.4670 C   0  0  0  0  0  0  0  0  0  0  0  0
   -3.4870   25.2970  -30.4700 O   0  0  0  0  0  0  0  0  0  0  0  0
   -4.4710   23.0870  -30.7640 C   0  0  0  0  0  0  0  0  0  0  0  0
   -3.1470   22.4810  -31.0490 C   0  0  0  0  0  0  0  0  0  0  0  0
   -2.8970   21.8770  -32.2940 C   0  0  0  0  0  0  0  0  0  0  0  0
   -1.6540   21.2960  -32.5620 C   0  0  0  0  0  0  0  0  0  0  0  0
   -0.6510   21.3100  -31.5890 C   0  0  0  0  0  0  0  0  0  0  0  0
    0.5550   20.7460  -31.8500 F   0  0  0  0  0  0  0  0  0  0  0  0
   -0.8910   21.9010  -30.3460 C   0  0  0  0  0  0  0  0  0  0  0  0
   -2.1330   22.4830  -30.0740 C   0  0  0  0  0  0  0  0  0  0  0  0
   -5.6240   22.2830  -30.7900 C   0  0  0  0  0  0  0  0  0  0  0  0
   -7.4985   19.6240  -30.9799 H   0  0  0  0  0  0  0  0  0  0  0  0
   -8.3629   19.3448  -32.5296 H   0  0  0  0  0  0  0  0  0  0  0  0
   -6.7555   20.1467  -32.5296 H   0  0  0  0  0  0  0  0  0  0  0  0
   -7.9810   21.9820  -32.5950 H   0  0  0  0  0  0  0  0  0  0  0  0
  -10.3264   21.1500  -31.1108 H   0  0  0  0  0  0  0  0  0  0  0  0
  -10.1775   22.0676  -32.6478 H   0  0  0  0  0  0  0  0  0  0  0  0
   -9.9986   20.2802  -32.6478 H   0  0  0  0  0  0  0  0  0  0  0  0
   -8.9873   22.5499  -30.2356 H   0  0  0  0  0  0  0  0  0  0  0  0
   -7.9458   21.1276  -29.8043 H   0  0  0  0  0  0  0  0  0  0  0  0
   -7.9790   24.6281  -29.9794 H   0  0  0  0  0  0  0  0  0  0  0  0
   -5.9506   26.0715  -29.9454 H   0  0  0  0  0  0  0  0  0  0  0  0
   -3.6845   21.8616  -33.0619 H   0  0  0  0  0  0  0  0  0  0  0  0
   -1.4654   20.8276  -33.5392 H   0  0  0  0  0  0  0  0  0  0  0  0
   -0.1016   21.9085  -29.5800 H   0  0  0  0  0  0  0  0  0  0  0  0
   -2.3180   22.9446  -29.0928 H   0  0  0  0  0  0  0  0  0  0  0  0
   -5.5355   21.2129  -31.0287 H   0  0  0  0  0  0  0  0  0  0  0  0
  1  2  1  0
  2  3  1  0
  2  4  1  0
  4  5  1  0
  5  6  2  0
  6  7  1  0
  7  8  2  0
  8  9  1  0
  8 10  1  0
 10 11  1  0
 11 12  2  0
 12 13  1  0
 13 14  2  0
 14 15  1  0
 14 16  1  0
 16 17  2  0
 10 18  2  0
 18  5  1  0
 17 11  1  0
  1 19  1  0
  1 20  1  0
  1 21  1  0
  2 22  1  0
  3 23  1  0
  3 24  1  0
  3 25  1  0
  4 26  1  0
  4 27  1  0
  6 28  1  0
  7 29  1  0
 12 30  1  0
 13 31  1  0
 16 32  1  0
 17 33  1  0
 18 34  1  0
M  CHG  2   2   1   9  -1
M  END
>  <UniqueID>  (36) 
32

>  <SMILES>  (36) 
C[NH+](C)Cc1ccc([O-])c(-c2ccc(F)cc2)c1

>  <Energy>  (36) 
40.96488730491053

>  <Genealogy>  (36) 
C[NH+](C)Cc1ccc([O-])c(-c2ccc(F)cc2)c1 (protonated)
C[NH+](C)Cc1ccc([O-])c(-c2ccc(F)cc2)c1 (3D coordinates assigned)
C[NH+](C)Cc1ccc([O-])c(-c2ccc(F)cc2)c1 (optimized conformer: 40.96488730491053 kcal/mol)

>  <smiles>  (36) 
CN(C)Cc1ccc(O)c(-c2ccc(F)cc2)c1

>  <score_type>  (36) 
oracle

>  <origin>  (36) 
adgpu

>  <m_score__min__energy>  (36) 
-8.7799999999999994

>  <m_primary>  (36) 
energy

$$$$
36:0
     RDKit          3D

 41 43  0  0  0  0  0  0  0  0999 V2000
   -6.1710   25.2850  -29.4230 C   0  0  0  0  0  0  0  0  0  0  0  0
   -5.0630   24.6600  -30.6680 S   0  0  0  0  0  0  0  0  0  0  0  0
   -5.7950   24.5200  -31.9740 O   0  0  0  0  0  0  0  0  0  0  0  0
   -3.9410   25.6470  -30.8300 O   0  0  0  0  0  0  0  0  0  0  0  0
   -4.4230   23.1130  -30.1880 N   0  0  0  0  0  0  0  0  0  0  0  0
   -4.4070   22.7400  -28.7700 C   0  0  0  0  0  0  0  0  0  0  0  0
   -3.5590   23.7070  -27.9910 C   0  0  0  0  0  0  0  0  0  0  0  0
   -2.2720   24.0430  -28.4360 C   0  0  0  0  0  0  0  0  0  0  0  0
   -1.5070   24.9850  -27.7420 C   0  0  0  0  0  0  0  0  0  0  0  0
   -2.0200   25.6140  -26.5930 C   0  0  0  0  0  0  0  0  0  0  0  0
   -1.2090   26.6180  -25.8570 C   0  0  0  0  0  0  0  0  0  0  0  0
   -0.5000   27.6210  -26.5370 C   0  0  0  0  0  0  0  0  0  0  0  0
    0.2340   28.5280  -25.8430 N   0  0  0  0  0  0  0  0  0  0  0  0
    0.3010   28.4850  -24.4880 C   0  0  0  0  0  0  0  0  0  0  0  0
   -0.3720   27.5240  -23.8060 N   0  0  0  0  0  0  0  0  0  0  0  0
   -1.1210   26.5980  -24.4570 C   0  0  0  0  0  0  0  0  0  0  0  0
   -3.3140   25.2810  -26.1570 C   0  0  0  0  0  0  0  0  0  0  0  0
   -4.0780   24.3400  -26.8530 C   0  0  0  0  0  0  0  0  0  0  0  0
   -3.8230   22.2500  -31.1700 C   0  0  0  0  0  0  0  0  0  0  0  0
   -2.4370   22.0230  -31.1650 C   0  0  0  0  0  0  0  0  0  0  0  0
   -1.8540   21.2050  -32.1380 C   0  0  0  0  0  0  0  0  0  0  0  0
   -2.6490   20.6100  -33.1220 C   0  0  0  0  0  0  0  0  0  0  0  0
   -4.0280   20.8350  -33.1360 C   0  0  0  0  0  0  0  0  0  0  0  0
   -4.6140   21.6520  -32.1660 C   0  0  0  0  0  0  0  0  0  0  0  0
   -5.7674   25.0574  -28.4253 H   0  0  0  0  0  0  0  0  0  0  0  0
   -6.2739   26.3742  -29.5371 H   0  0  0  0  0  0  0  0  0  0  0  0
   -7.1564   24.8097  -29.5371 H   0  0  0  0  0  0  0  0  0  0  0  0
   -5.4343   22.7587  -28.3772 H   0  0  0  0  0  0  0  0  0  0  0  0
   -3.9859   21.7289  -28.6684 H   0  0  0  0  0  0  0  0  0  0  0  0
   -1.8621   23.5624  -29.3366 H   0  0  0  0  0  0  0  0  0  0  0  0
   -0.4966   25.2362  -28.0969 H   0  0  0  0  0  0  0  0  0  0  0  0
   -0.5393   27.6721  -27.6351 H   0  0  0  0  0  0  0  0  0  0  0  0
    0.9006   29.2289  -23.9429 H   0  0  0  0  0  0  0  0  0  0  0  0
   -1.6609   25.8291  -23.8849 H   0  0  0  0  0  0  0  0  0  0  0  0
   -3.7289   25.7650  -25.2606 H   0  0  0  0  0  0  0  0  0  0  0  0
   -5.0925   24.0947  -26.5057 H   0  0  0  0  0  0  0  0  0  0  0  0
   -1.8079   22.4902  -30.3931 H   0  0  0  0  0  0  0  0  0  0  0  0
   -0.7681   21.0295  -32.1290 H   0  0  0  0  0  0  0  0  0  0  0  0
   -2.1891   19.9649  -33.8851 H   0  0  0  0  0  0  0  0  0  0  0  0
   -4.6529   20.3683  -33.9117 H   0  0  0  0  0  0  0  0  0  0  0  0
   -5.6997   21.8281  -32.1819 H   0  0  0  0  0  0  0  0  0  0  0  0
  1  2  1  0
  2  3  2  0
  2  4  2  0
  2  5  1  0
  5  6  1  0
  6  7  1  0
  7  8  2  0
  8  9  1  0
  9 10  2  0
 10 11  1  0
 11 12  2  0
 12 13  1  0
 13 14  2  0
 14 15  1  0
 15 16  2  0
 10 17  1  0
 17 18  2  0
  5 19  1  0
 19 20  2  0
 20 21  1  0
 21 22  2  0
 22 23  1  0
 23 24  2  0
 18  7  1  0
 24 19  1  0
 16 11  1  0
  1 25  1  0
  1 26  1  0
  1 27  1  0
  6 28  1  0
  6 29  1  0
  8 30  1  0
  9 31  1  0
 12 32  1  0
 14 33  1  0
 16 34  1  0
 17 35  1  0
 18 36  1  0
 20 37  1  0
 21 38  1  0
 22 39  1  0
 23 40  1  0
 24 41  1  0
M  END
>  <UniqueID>  (37) 
33

>  <SMILES>  (37) 
CS(=O)(=O)N(Cc1ccc(-c2cncnc2)cc1)c1ccccc1

>  <Energy>  (37) 
49.18903064785361

>  <Genealogy>  (37) 
CS(=O)(=O)N(Cc1ccc(-c2cncnc2)cc1)c1ccccc1 (3D coordinates assigned)
CS(=O)(=O)N(Cc1ccc(-c2cncnc2)cc1)c1ccccc1 (optimized conformer: 49.18903064785361 kcal/mol)

>  <smiles>  (37) 
CS(=O)(=O)N(Cc1ccc(-c2cncnc2)cc1)c1ccccc1

>  <score_type>  (37) 
oracle

>  <origin>  (37) 
adgpu

>  <m_score__min__energy>  (37) 
-8.4399999999999995

>  <m_primary>  (37) 
energy

$$$$
37:0
     RDKit          3D

 46 48  0  0  0  0  0  0  0  0999 V2000
   -5.5930   18.4450  -32.4250 C   0  0  0  0  0  0  0  0  0  0  0  0
   -6.8670   19.2490  -32.3820 C   0  0  0  0  0  0  0  0  0  0  0  0
   -8.1060   18.5980  -32.4740 C   0  0  0  0  0  0  0  0  0  0  0  0
   -9.2870   19.3340  -32.4330 C   0  0  0  0  0  0  0  0  0  0  0  0
   -9.2260   20.7190  -32.3040 C   0  0  0  0  0  0  0  0  0  0  0  0
   -8.0220   21.3480  -32.2070 N   0  0  0  0  0  0  0  0  0  0  0  0
   -6.8400   20.6530  -32.2240 C   0  0  0  0  0  0  0  0  0  0  0  0
   -5.6840   21.2560  -32.1380 N   0  0  0  0  0  0  0  0  0  0  0  0
   -5.4170   22.6430  -31.8790 C   0  0  0  0  0  0  0  0  0  0  0  0
   -6.1830   23.5320  -32.3390 O   0  0  0  0  0  0  0  0  0  0  0  0
   -4.2950   23.0250  -30.9900 C   0  0  0  0  0  0  0  0  0  0  0  0
   -4.4110   24.1310  -30.1250 C   0  0  0  0  0  0  0  0  0  0  0  0
   -3.3570   24.4800  -29.2750 C   0  0  0  0  0  0  0  0  0  0  0  0
   -2.1710   23.7330  -29.2770 C   0  0  0  0  0  0  0  0  0  0  0  0
   -0.8380   24.1630  -28.2070 S   0  0  0  0  0  0  0  0  0  0  0  0
   -1.0640   25.5460  -27.6620 O   0  0  0  0  0  0  0  0  0  0  0  0
    0.4600   24.1720  -28.9690 O   0  0  0  0  0  0  0  0  0  0  0  0
   -0.7320   23.0220  -26.8950 N   0  0  0  0  0  0  0  0  0  0  0  0
   -0.5700   23.5230  -25.5300 C   0  0  0  0  0  0  0  0  0  0  0  0
   -0.7920   21.6020  -27.1470 C   0  0  0  0  0  0  0  0  0  0  0  0
    0.2510   20.9520  -27.8360 C   0  0  0  0  0  0  0  0  0  0  0  0
    0.1950   19.5750  -28.0750 C   0  0  0  0  0  0  0  0  0  0  0  0
   -0.9030   18.8320  -27.6360 C   0  0  0  0  0  0  0  0  0  0  0  0
   -1.9490   19.4650  -26.9610 C   0  0  0  0  0  0  0  0  0  0  0  0
   -1.8960   20.8410  -26.7180 C   0  0  0  0  0  0  0  0  0  0  0  0
   -2.0490   22.6330  -30.1330 C   0  0  0  0  0  0  0  0  0  0  0  0
   -3.1020   22.2800  -30.9830 C   0  0  0  0  0  0  0  0  0  0  0  0
   -5.2580   18.2336  -31.3988 H   0  0  0  0  0  0  0  0  0  0  0  0
   -5.7749   17.4977  -32.9538 H   0  0  0  0  0  0  0  0  0  0  0  0
   -4.8162   19.0168  -32.9538 H   0  0  0  0  0  0  0  0  0  0  0  0
   -8.1446   17.5037  -32.5788 H   0  0  0  0  0  0  0  0  0  0  0  0
  -10.2601   18.8257  -32.5019 H   0  0  0  0  0  0  0  0  0  0  0  0
  -10.1547   21.3080  -32.2803 H   0  0  0  0  0  0  0  0  0  0  0  0
   -8.0450   22.3890  -32.1640 H   0  0  0  0  0  0  0  0  0  0  0  0
   -5.3373   24.7242  -30.1183 H   0  0  0  0  0  0  0  0  0  0  0  0
   -3.4590   25.3442  -28.6021 H   0  0  0  0  0  0  0  0  0  0  0  0
   -0.8271   22.7279  -24.8147 H   0  0  0  0  0  0  0  0  0  0  0  0
    0.4740   23.8326  -25.3745 H   0  0  0  0  0  0  0  0  0  0  0  0
   -1.2351   24.3852  -25.3745 H   0  0  0  0  0  0  0  0  0  0  0  0
    1.1164   21.5322  -28.1888 H   0  0  0  0  0  0  0  0  0  0  0  0
    1.0171   19.0765  -28.6096 H   0  0  0  0  0  0  0  0  0  0  0  0
   -0.9440   17.7486  -27.8218 H   0  0  0  0  0  0  0  0  0  0  0  0
   -2.8160   18.8802  -26.6199 H   0  0  0  0  0  0  0  0  0  0  0  0
   -2.7241   21.3332  -26.1870 H   0  0  0  0  0  0  0  0  0  0  0  0
   -1.1206   22.0431  -30.1374 H   0  0  0  0  0  0  0  0  0  0  0  0
   -2.9964   21.4128  -31.6514 H   0  0  0  0  0  0  0  0  0  0  0  0
  1  2  1  0
  2  3  2  0
  3  4  1  0
  4  5  2  0
  5  6  1  0
  6  7  1  0
  7  8  2  3
  8  9  1  0
  9 10  2  0
  9 11  1  0
 11 12  2  0
 12 13  1  0
 13 14  2  0
 14 15  1  0
 15 16  2  0
 15 17  2  0
 15 18  1  0
 18 19  1  0
 18 20  1  0
 20 21  2  0
 21 22  1  0
 22 23  2  0
 23 24  1  0
 24 25  2  0
 14 26  1  0
 26 27  2  0
  7  2  1  0
 27 11  1  0
 25 20  1  0
  1 28  1  0
  1 29  1  0
  1 30  1  0
  3 31  1  0
  4 32  1  0
  5 33  1  0
  6 34  1  0
 12 35  1  0
 13 36  1  0
 19 37  1  0
 19 38  1  0
 19 39  1  0
 21 40  1  0
 22 41  1  0
 23 42  1  0
 24 43  1  0
 25 44  1  0
 26 45  1  0
 27 46  1  0
M  END
>  <UniqueID>  (38) 
34

>  <SMILES>  (38) 
Cc1ccc[nH]c1=NC(=O)c1ccc(S(=O)(=O)N(C)c2ccccc2)cc1

>  <Energy>  (38) 
61.58685693972544

>  <Genealogy>  (38) 
Cc1ccc[nH]c1=NC(=O)c1ccc(S(=O)(=O)N(C)c2ccccc2)cc1 (3D coordinates assigned)
Cc1ccc[nH]c1=NC(=O)c1ccc(S(=O)(=O)N(C)c2ccccc2)cc1 (optimized conformer: 61.58685693972544 kcal/mol)

>  <smiles>  (38) 
Cc1ccc[nH]c1=NC(=O)c1ccc(S(=O)(=O)N(C)c2ccccc2)cc1

>  <score_type>  (38) 
oracle

>  <origin>  (38) 
adgpu

>  <m_score__min__energy>  (38) 
-9.4000000000000004

>  <m_primary>  (38) 
energy

$$$$
38:0
     RDKit          3D

 46 49  0  0  0  0  0  0  0  0999 V2000
   -3.7770   22.3040  -33.5960 O   0  0  0  0  0  0  0  0  0  0  0  0
   -3.6720   21.1700  -32.7570 C   0  0  1  0  0  0  0  0  0  0  0  0
   -2.7260   20.1520  -33.4860 C   0  0  0  0  0  0  0  0  0  0  0  0
   -1.3220   20.5820  -33.4720 N   0  0  0  0  0  0  0  0  0  0  0  0
   -0.3090   20.0400  -32.7720 C   0  0  0  0  0  0  0  0  0  0  0  0
    0.8460   20.7090  -33.1050 C   0  0  0  0  0  0  0  0  0  0  0  0
    0.5720   21.6560  -34.0240 N   0  0  0  0  0  0  0  0  0  0  0  0
   -0.7570   21.5450  -34.2290 C   0  0  0  0  0  0  0  0  0  0  0  0
   -3.1490   21.6870  -31.4090 C   0  0  0  0  0  0  0  0  0  0  0  0
   -3.1140   23.0500  -31.0520 C   0  0  0  0  0  0  0  0  0  0  0  0
   -2.6090   23.4560  -29.8150 C   0  0  0  0  0  0  0  0  0  0  0  0
   -2.1100   22.5160  -28.9000 C   0  0  0  0  0  0  0  0  0  0  0  0
   -1.5720   22.9500  -27.5860 C   0  0  0  0  0  0  0  0  0  0  0  0
   -1.6360   24.3020  -27.1980 C   0  0  0  0  0  0  0  0  0  0  0  0
   -1.1290   24.7090  -25.9590 C   0  0  0  0  0  0  0  0  0  0  0  0
   -0.5540   23.7730  -25.0960 C   0  0  0  0  0  0  0  0  0  0  0  0
   -0.4860   22.4290  -25.4690 C   0  0  0  0  0  0  0  0  0  0  0  0
   -0.9910   22.0160  -26.7060 C   0  0  0  0  0  0  0  0  0  0  0  0
   -2.1190   21.1590  -29.2550 C   0  0  0  0  0  0  0  0  0  0  0  0
   -2.6240   20.7530  -30.4930 C   0  0  0  0  0  0  0  0  0  0  0  0
   -5.0740   20.5480  -32.5270 C   0  0  0  0  0  0  0  0  0  0  0  0
   -5.2680   19.1570  -32.7260 C   0  0  0  0  0  0  0  0  0  0  0  0
   -6.5110   18.5570  -32.5260 C   0  0  0  0  0  0  0  0  0  0  0  0
   -7.6050   19.3230  -32.1400 C   0  0  0  0  0  0  0  0  0  0  0  0
   -9.1670   18.5640  -31.8920 Cl  0  0  0  0  0  0  0  0  0  0  0  0
   -7.4620   20.6980  -31.9750 C   0  0  0  0  0  0  0  0  0  0  0  0
   -6.2230   21.3210  -32.1740 C   0  0  0  0  0  0  0  0  0  0  0  0
   -6.2250   23.0730  -32.0150 Cl  0  0  0  0  0  0  0  0  0  0  0  0
   -4.5780   22.1960  -34.1760 H   0  0  0  0  0  0  0  0  0  0  0  0
   -2.8016   19.1769  -32.9825 H   0  0  0  0  0  0  0  0  0  0  0  0
   -3.0467   20.0899  -34.5364 H   0  0  0  0  0  0  0  0  0  0  0  0
   -0.3901   19.2072  -32.0580 H   0  0  0  0  0  0  0  0  0  0  0  0
    1.8415   20.5025  -32.6852 H   0  0  0  0  0  0  0  0  0  0  0  0
   -1.3190   22.1720  -34.9369 H   0  0  0  0  0  0  0  0  0  0  0  0
   -3.4900   23.8050  -31.7581 H   0  0  0  0  0  0  0  0  0  0  0  0
   -2.6022   24.5247  -29.5548 H   0  0  0  0  0  0  0  0  0  0  0  0
   -2.0877   25.0434  -27.8736 H   0  0  0  0  0  0  0  0  0  0  0  0
   -1.1833   25.7674  -25.6641 H   0  0  0  0  0  0  0  0  0  0  0  0
   -0.1548   24.0946  -24.1227 H   0  0  0  0  0  0  0  0  0  0  0  0
   -0.0339   21.6930  -24.7879 H   0  0  0  0  0  0  0  0  0  0  0  0
   -0.9342   20.9557  -26.9934 H   0  0  0  0  0  0  0  0  0  0  0  0
   -1.7255   20.4087  -28.5534 H   0  0  0  0  0  0  0  0  0  0  0  0
   -2.6116   19.6854  -30.7575 H   0  0  0  0  0  0  0  0  0  0  0  0
   -4.4177   18.5367  -33.0457 H   0  0  0  0  0  0  0  0  0  0  0  0
   -6.6262   17.4731  -32.6743 H   0  0  0  0  0  0  0  0  0  0  0  0
   -8.3334   21.3033  -31.6845 H   0  0  0  0  0  0  0  0  0  0  0  0
  2  1  1  6
  2  3  1  0
  3  4  1  0
  4  5  1  0
  5  6  2  0
  6  7  1  0
  7  8  2  0
  2  9  1  0
  9 10  2  0
 10 11  1  0
 11 12  2  0
 12 13  1  0
 13 14  2  0
 14 15  1  0
 15 16  2  0
 16 17  1  0
 17 18  2  0
 12 19  1  0
 19 20  2  0
  2 21  1  0
 21 22  2  0
 22 23  1  0
 23 24  2  0
 24 25  1  0
 24 26  1  0
 26 27  2  0
 27 28  1  0
  8  4  1  0
 20  9  1  0
 27 21  1  0
 18 13  1  0
  1 29  1  0
  3 30  1  0
  3 31  1  0
  5 32  1  0
  6 33  1  0
  8 34  1  0
 10 35  1  0
 11 36  1  0
 14 37  1  0
 15 38  1  0
 16 39  1  0
 17 40  1  0
 18 41  1  0
 19 42  1  0
 20 43  1  0
 22 44  1  0
 23 45  1  0
 26 46  1  0
M  END
>  <UniqueID>  (39) 
35

>  <SMILES>  (39) 
O[C@@](Cn1ccnc1)(c1ccc(-c2ccccc2)cc1)c1ccc(Cl)cc1Cl

>  <Energy>  (39) 
100.3305723738487

>  <Genealogy>  (39) 
O[C@@](Cn1ccnc1)(c1ccc(-c2ccccc2)cc1)c1ccc(Cl)cc1Cl (chirality)
O[C@@](Cn1ccnc1)(c1ccc(-c2ccccc2)cc1)c1ccc(Cl)cc1Cl (3D coordinates assigned)
O[C@@](Cn1ccnc1)(c1ccc(-c2ccccc2)cc1)c1ccc(Cl)cc1Cl (optimized conformer: 100.3305723738487 kcal/mol)

>  <smiles>  (39) 
OC(Cn1ccnc1)(c1ccc(-c2ccccc2)cc1)c1ccc(Cl)cc1Cl

>  <score_type>  (39) 
oracle

>  <origin>  (39) 
adgpu

>  <m_score__min__energy>  (39) 
-8.6600000000000001

>  <m_primary>  (39) 
energy

$$$$
39:0
     RDKit          3D

 36 38  0  0  0  0  0  0  0  0999 V2000
   -6.2880   17.5870  -32.4630 C   0  0  0  0  0  0  0  0  0  0  0  0
   -6.5380   19.1950  -33.1800 S   0  0  0  0  0  0  0  0  0  0  0  0
   -6.1240   19.1720  -34.6250 O   0  0  0  0  0  0  0  0  0  0  0  0
   -7.9950   19.5580  -33.1030 O   0  0  0  0  0  0  0  0  0  0  0  0
   -5.5790   20.3810  -32.3030 C   0  0  0  0  0  0  0  0  0  0  0  0
   -4.1850   20.4010  -32.4410 C   0  0  0  0  0  0  0  0  0  0  0  0
   -3.4200   21.3290  -31.7310 C   0  0  0  0  0  0  0  0  0  0  0  0
   -4.0410   22.2460  -30.8670 C   0  0  0  0  0  0  0  0  0  0  0  0
   -3.2300   23.2100  -30.0970 C   0  0  0  0  0  0  0  0  0  0  0  0
   -2.1050   22.9490  -29.3230 C   0  0  0  0  0  0  0  0  0  0  0  0
   -1.5100   21.6380  -28.9800 C   0  0  0  0  0  0  0  0  0  0  0  0
   -0.4800   21.0870  -29.7640 C   0  0  0  0  0  0  0  0  0  0  0  0
    0.0750   19.8470  -29.4320 C   0  0  0  0  0  0  0  0  0  0  0  0
   -0.3980   19.1420  -28.3220 C   0  0  0  0  0  0  0  0  0  0  0  0
    0.3620   17.4490  -27.8710 Br  0  0  0  0  0  0  0  0  0  0  0  0
   -1.4320   19.6740  -27.5460 C   0  0  0  0  0  0  0  0  0  0  0  0
   -1.9890   20.9140  -27.8750 C   0  0  0  0  0  0  0  0  0  0  0  0
   -1.6560   24.1820  -28.8760 C   0  0  0  0  0  0  0  0  0  0  0  0
   -2.4360   25.1340  -29.3360 O   0  0  0  0  0  0  0  0  0  0  0  0
   -3.3770   24.5870  -30.0690 C   0  0  0  0  0  0  0  0  0  0  0  0
   -4.3450   25.3290  -30.7410 O   0  0  0  0  0  0  0  0  0  0  0  0
   -5.4370   22.2200  -30.7250 C   0  0  0  0  0  0  0  0  0  0  0  0
   -6.2010   21.2910  -31.4380 C   0  0  0  0  0  0  0  0  0  0  0  0
   -6.3007   17.6686  -31.3661 H   0  0  0  0  0  0  0  0  0  0  0  0
   -7.0918   16.9109  -32.7897 H   0  0  0  0  0  0  0  0  0  0  0  0
   -5.3168   17.1868  -32.7897 H   0  0  0  0  0  0  0  0  0  0  0  0
   -3.6908   19.6826  -33.1116 H   0  0  0  0  0  0  0  0  0  0  0  0
   -2.3264   21.3419  -31.8489 H   0  0  0  0  0  0  0  0  0  0  0  0
   -0.1091   21.6345  -30.6430 H   0  0  0  0  0  0  0  0  0  0  0  0
    0.8851   19.4260  -30.0456 H   0  0  0  0  0  0  0  0  0  0  0  0
   -1.8080   19.1166  -26.6754 H   0  0  0  0  0  0  0  0  0  0  0  0
   -2.8070   21.3250  -27.2651 H   0  0  0  0  0  0  0  0  0  0  0  0
   -0.7780   24.3398  -28.2324 H   0  0  0  0  0  0  0  0  0  0  0  0
   -4.1950   25.6740  -31.6810 H   0  0  0  0  0  0  0  0  0  0  0  0
   -5.9322   22.9335  -30.0499 H   0  0  0  0  0  0  0  0  0  0  0  0
   -7.2945   21.2745  -31.3194 H   0  0  0  0  0  0  0  0  0  0  0  0
  1  2  1  0
  2  3  2  0
  2  4  2  0
  2  5  1  0
  5  6  2  0
  6  7  1  0
  7  8  2  0
  8  9  1  0
  9 10  1  0
 10 11  1  0
 11 12  2  0
 12 13  1  0
 13 14  2  0
 14 15  1  0
 14 16  1  0
 16 17  2  0
 10 18  2  0
 18 19  1  0
 19 20  1  0
 20 21  1  0
  8 22  1  0
 22 23  2  0
 23  5  1  0
 20  9  2  0
 17 11  1  0
  1 24  1  0
  1 25  1  0
  1 26  1  0
  6 27  1  0
  7 28  1  0
 12 29  1  0
 13 30  1  0
 16 31  1  0
 17 32  1  0
 18 33  1  0
 21 34  1  0
 22 35  1  0
 23 36  1  0
M  END
>  <UniqueID>  (40) 
36

>  <SMILES>  (40) 
CS(=O)(=O)c1ccc(-c2c(-c3ccc(Br)cc3)coc2O)cc1

>  <Energy>  (40) 
71.87517116848365

>  <Genealogy>  (40) 
CS(=O)(=O)c1ccc(-c2c(-c3ccc(Br)cc3)coc2O)cc1 (3D coordinates assigned)
CS(=O)(=O)c1ccc(-c2c(-c3ccc(Br)cc3)coc2O)cc1 (optimized conformer: 71.87517116848365 kcal/mol)

>  <smiles>  (40) 
CS(=O)(=O)c1ccc(-c2c(-c3ccc(Br)cc3)coc2O)cc1

>  <score_type>  (40) 
oracle

>  <origin>  (40) 
adgpu

>  <m_score__min__energy>  (40) 
-8.8900000000000006

>  <m_primary>  (40) 
energy

$$$$
40:0
     RDKit          3D

 48 50  0  0  0  0  0  0  0  0999 V2000
   -6.0680   25.6530  -29.9700 C   0  0  0  0  0  0  0  0  0  0  0  0
   -4.7040   25.5160  -30.3540 O   0  0  0  0  0  0  0  0  0  0  0  0
   -4.0350   24.2890  -30.4880 C   0  0  0  0  0  0  0  0  0  0  0  0
   -4.6130   23.1920  -31.1540 C   0  0  0  0  0  0  0  0  0  0  0  0
   -3.9190   21.9870  -31.2660 C   0  0  0  0  0  0  0  0  0  0  0  0
   -2.6410   21.8490  -30.7080 C   0  0  0  0  0  0  0  0  0  0  0  0
   -1.8980   20.5390  -30.8120 C   0  0  0  0  0  0  0  0  0  0  0  0
   -1.4860   20.2070  -32.2580 C   0  0  0  0  0  0  0  0  0  0  0  0
   -1.7090   18.7980  -32.6220 N   0  0  0  0  0  0  0  0  0  0  0  0
   -2.2050   18.6070  -33.9970 C   0  0  0  0  0  0  0  0  0  0  0  0
   -3.7030   18.5690  -34.0570 C   0  0  0  0  0  0  0  0  0  0  0  0
   -4.4580   17.7890  -34.9090 C   0  0  0  0  0  0  0  0  0  0  0  0
   -5.7740   18.0780  -34.6150 C   0  0  0  0  0  0  0  0  0  0  0  0
   -5.7390   19.0190  -33.5960 C   0  0  0  0  0  0  0  0  0  0  0  0
   -6.8970   19.6420  -32.9150 C   0  0  0  0  0  0  0  0  0  0  0  0
   -6.9220   21.0190  -32.6140 C   0  0  0  0  0  0  0  0  0  0  0  0
   -8.0310   21.5820  -31.9750 C   0  0  0  0  0  0  0  0  0  0  0  0
   -9.1240   20.7830  -31.6300 C   0  0  0  0  0  0  0  0  0  0  0  0
   -9.1100   19.4190  -31.9250 C   0  0  0  0  0  0  0  0  0  0  0  0
   -8.0040   18.8500  -32.5630 C   0  0  0  0  0  0  0  0  0  0  0  0
   -4.4880   19.2890  -33.2910 O   0  0  0  0  0  0  0  0  0  0  0  0
   -2.0560   22.9450  -30.0550 C   0  0  0  0  0  0  0  0  0  0  0  0
   -2.7490   24.1660  -29.9380 C   0  0  0  0  0  0  0  0  0  0  0  0
   -2.1950   25.2780  -29.2850 O   0  0  0  0  0  0  0  0  0  0  0  0
   -1.6760   25.2590  -27.9590 C   0  0  0  0  0  0  0  0  0  0  0  0
   -6.1410   25.6603  -28.8724 H   0  0  0  0  0  0  0  0  0  0  0  0
   -6.4687   26.5959  -30.3704 H   0  0  0  0  0  0  0  0  0  0  0  0
   -6.6482   24.8086  -30.3704 H   0  0  0  0  0  0  0  0  0  0  0  0
   -5.6189   23.2854  -31.5892 H   0  0  0  0  0  0  0  0  0  0  0  0
   -4.3781   21.1394  -31.7959 H   0  0  0  0  0  0  0  0  0  0  0  0
   -0.9915   20.5976  -30.1917 H   0  0  0  0  0  0  0  0  0  0  0  0
   -2.5743   19.7432  -30.4665 H   0  0  0  0  0  0  0  0  0  0  0  0
   -2.0712   20.8402  -32.9411 H   0  0  0  0  0  0  0  0  0  0  0  0
   -0.4053   20.3954  -32.3385 H   0  0  0  0  0  0  0  0  0  0  0  0
   -2.3100   18.3140  -31.9130 H   0  0  0  0  0  0  0  0  0  0  0  0
   -1.8461   19.4380  -34.6220 H   0  0  0  0  0  0  0  0  0  0  0  0
   -1.8271   17.6405  -34.3619 H   0  0  0  0  0  0  0  0  0  0  0  0
   -4.0868   17.0827  -35.6662 H   0  0  0  0  0  0  0  0  0  0  0  0
   -6.6685   17.6500  -35.0910 H   0  0  0  0  0  0  0  0  0  0  0  0
   -6.0648   21.6537  -32.8831 H   0  0  0  0  0  0  0  0  0  0  0  0
   -8.0429   22.6572  -31.7432 H   0  0  0  0  0  0  0  0  0  0  0  0
   -9.9946   21.2285  -31.1264 H   0  0  0  0  0  0  0  0  0  0  0  0
   -9.9712   18.7903  -31.6549 H   0  0  0  0  0  0  0  0  0  0  0  0
   -7.9998   17.7740  -32.7915 H   0  0  0  0  0  0  0  0  0  0  0  0
   -1.0459   22.8496  -29.6301 H   0  0  0  0  0  0  0  0  0  0  0  0
   -2.5074   25.2894  -27.2394 H   0  0  0  0  0  0  0  0  0  0  0  0
   -1.0927   24.3389  -27.8067 H   0  0  0  0  0  0  0  0  0  0  0  0
   -1.0270   26.1340  -27.8067 H   0  0  0  0  0  0  0  0  0  0  0  0
  1  2  1  0
  2  3  1  0
  3  4  2  0
  4  5  1  0
  5  6  2  0
  6  7  1  0
  7  8  1  0
  8  9  1  0
  9 10  1  0
 10 11  1  0
 11 12  2  0
 12 13  1  0
 13 14  2  0
 14 15  1  0
 15 16  2  0
 16 17  1  0
 17 18  2  0
 18 19  1  0
 19 20  2  0
 14 21  1  0
  6 22  1  0
 22 23  2  0
 23 24  1  0
 24 25  1  0
 23  3  1  0
 21 11  1  0
 20 15  1  0
  1 26  1  0
  1 27  1  0
  1 28  1  0
  4 29  1  0
  5 30  1  0
  7 31  1  0
  7 32  1  0
  8 33  1  0
  8 34  1  0
  9 35  1  0
 10 36  1  0
 10 37  1  0
 12 38  1  0
 13 39  1  0
 16 40  1  0
 17 41  1  0
 18 42  1  0
 19 43  1  0
 20 44  1  0
 22 45  1  0
 25 46  1  0
 25 47  1  0
 25 48  1  0
M  END
>  <UniqueID>  (41) 
37

>  <SMILES>  (41) 
COc1ccc(CCNCc2ccc(-c3ccccc3)o2)cc1OC

>  <Energy>  (41) 
74.4492520230713

>  <Genealogy>  (41) 
COc1ccc(CCNCc2ccc(-c3ccccc3)o2)cc1OC (3D coordinates assigned)
COc1ccc(CCNCc2ccc(-c3ccccc3)o2)cc1OC (optimized conformer: 74.4492520230713 kcal/mol)

>  <smiles>  (41) 
COc1ccc(CCNCc2ccc(-c3ccccc3)o2)cc1OC

>  <score_type>  (41) 
oracle

>  <origin>  (41) 
adgpu

>  <m_score__min__energy>  (41) 
-8.6799999999999997

>  <m_primary>  (41) 
energy

$$$$
41:0
     RDKit          3D

 31 33  0  0  0  0  0  0  0  0999 V2000
   -3.4420   25.2920  -30.1050 O   0  0  0  0  0  0  0  0  0  0  0  0
   -4.4180   24.3940  -30.5200 C   0  0  0  0  0  0  0  0  0  0  0  0
   -4.3120   23.0410  -30.1860 C   0  0  0  0  0  0  0  0  0  0  0  0
   -5.2940   22.1370  -30.6000 C   0  0  0  0  0  0  0  0  0  0  0  0
   -6.4000   22.5800  -31.3460 C   0  0  0  0  0  0  0  0  0  0  0  0
   -7.4450   21.6320  -31.7950 C   0  0  0  0  0  0  0  0  0  0  0  0
   -8.8030   21.7680  -31.5610 C   0  0  0  0  0  0  0  0  0  0  0  0
   -9.4240   20.7300  -32.2230 C   0  0  0  0  0  0  0  0  0  0  0  0
   -8.5100   19.9620  -32.8430 N   0  0  0  0  0  0  0  0  0  0  0  0
   -7.2990   20.4920  -32.5800 C   0  0  0  0  0  0  0  0  0  0  0  0
   -6.0380   19.8800  -33.0490 C   0  0  0  0  0  0  0  0  0  0  0  0
   -4.8600   20.6430  -33.0420 C   0  0  0  0  0  0  0  0  0  0  0  0
   -3.6500   20.0870  -33.4700 C   0  0  0  0  0  0  0  0  0  0  0  0
   -2.1900   21.0620  -33.4330 Cl  0  0  0  0  0  0  0  0  0  0  0  0
   -3.6080   18.7610  -33.9220 C   0  0  0  0  0  0  0  0  0  0  0  0
   -2.4020   18.2060  -34.3440 O   0  0  0  0  0  0  0  0  0  0  0  0
   -4.7850   18.0000  -33.9510 C   0  0  0  0  0  0  0  0  0  0  0  0
   -5.9970   18.5560  -33.5270 C   0  0  0  0  0  0  0  0  0  0  0  0
   -7.1560   17.7910  -33.6070 O   0  0  0  0  0  0  0  0  0  0  0  0
   -6.4910   23.9410  -31.6900 C   0  0  0  0  0  0  0  0  0  0  0  0
   -5.5060   24.8420  -31.2740 C   0  0  0  0  0  0  0  0  0  0  0  0
   -3.4538   22.6869  -29.5960 H   0  0  0  0  0  0  0  0  0  0  0  0
   -5.2009   21.0721  -30.3405 H   0  0  0  0  0  0  0  0  0  0  0  0
   -9.2914   22.5517  -30.9633 H   0  0  0  0  0  0  0  0  0  0  0  0
  -10.5099   20.5552  -32.2415 H   0  0  0  0  0  0  0  0  0  0  0  0
   -8.7070   19.1020  -33.4010 H   0  0  0  0  0  0  0  0  0  0  0  0
   -4.8886   21.6871  -32.6970 H   0  0  0  0  0  0  0  0  0  0  0  0
   -2.3450   17.6330  -35.1780 H   0  0  0  0  0  0  0  0  0  0  0  0
   -4.7556   16.9603  -34.3090 H   0  0  0  0  0  0  0  0  0  0  0  0
   -7.3414   24.2982  -32.2893 H   0  0  0  0  0  0  0  0  0  0  0  0
   -5.5877   25.9060  -31.5409 H   0  0  0  0  0  0  0  0  0  0  0  0
  1  2  1  0
  2  3  2  0
  3  4  1  0
  4  5  2  0
  5  6  1  0
  6  7  1  0
  7  8  2  0
  8  9  1  0
  9 10  1  0
 10 11  1  0
 11 12  2  0
 12 13  1  0
 13 14  1  0
 13 15  2  0
 15 16  1  0
 15 17  1  0
 17 18  2  0
 18 19  1  0
  5 20  1  0
 20 21  2  0
 21  2  1  0
 10  6  2  0
 18 11  1  0
  3 22  1  0
  4 23  1  0
  7 24  1  0
  8 25  1  0
  9 26  1  0
 12 27  1  0
 16 28  1  0
 17 29  1  0
 20 30  1  0
 21 31  1  0
M  CHG  2   1  -1  19  -1
M  END
>  <UniqueID>  (42) 
38

>  <SMILES>  (42) 
[O-]c1ccc(-c2cc[nH]c2-c2cc(Cl)c(O)cc2[O-])cc1

>  <Energy>  (42) 
68.87693266122899

>  <Genealogy>  (42) 
[O-]c1ccc(-c2cc[nH]c2-c2cc(Cl)c(O)cc2[O-])cc1 (protonated)
[O-]c1ccc(-c2cc[nH]c2-c2cc(Cl)c(O)cc2[O-])cc1 (3D coordinates assigned)
[O-]c1ccc(-c2cc[nH]c2-c2cc(Cl)c(O)cc2[O-])cc1 (optimized conformer: 68.87693266122899 kcal/mol)

>  <smiles>  (42) 
Oc1ccc(-c2cc[nH]c2-c2cc(Cl)c(O)cc2O)cc1

>  <score_type>  (42) 
oracle

>  <origin>  (42) 
adgpu

>  <m_score__min__energy>  (42) 
-10.640000000000001

>  <m_primary>  (42) 
energy

$$$$
42:0
     RDKit          3D

 43 45  0  0  0  0  0  0  0  0999 V2000
    0.8280   16.7970  -27.5080 C   0  0  0  0  0  0  0  0  0  0  0  0
    0.3950   17.9550  -28.4000 C   0  0  0  0  0  0  0  0  0  0  0  0
   -0.7100   18.6520  -27.8250 O   0  0  0  0  0  0  0  0  0  0  0  0
   -1.3490   19.7720  -28.3820 C   0  0  0  0  0  0  0  0  0  0  0  0
   -0.9340   20.3660  -29.5910 C   0  0  0  0  0  0  0  0  0  0  0  0
   -1.6090   21.4800  -30.0960 C   0  0  0  0  0  0  0  0  0  0  0  0
   -2.7060   22.0180  -29.4090 C   0  0  0  0  0  0  0  0  0  0  0  0
   -3.3900   23.1750  -29.9220 N   0  0  0  0  0  0  0  0  0  0  0  0
   -4.3140   23.2460  -30.9080 C   0  0  0  0  0  0  0  0  0  0  0  0
   -4.9640   22.0930  -31.5720 C   0  0  0  0  0  0  0  0  0  0  0  0
   -4.2400   21.2540  -32.4320 C   0  0  0  0  0  0  0  0  0  0  0  0
   -4.8640   20.1670  -33.0480 C   0  0  0  0  0  0  0  0  0  0  0  0
   -6.2210   19.8910  -32.8030 C   0  0  0  0  0  0  0  0  0  0  0  0
   -6.8820   18.8090  -33.4070 O   0  0  0  0  0  0  0  0  0  0  0  0
   -7.2240   17.5990  -32.7390 C   0  0  0  0  0  0  0  0  0  0  0  0
   -6.9470   20.7120  -31.9260 C   0  0  0  0  0  0  0  0  0  0  0  0
   -8.2990   20.4070  -31.6960 O   0  0  0  0  0  0  0  0  0  0  0  0
   -9.3690   21.3400  -31.8180 C   0  0  0  0  0  0  0  0  0  0  0  0
   -6.3110   21.8070  -31.3090 C   0  0  0  0  0  0  0  0  0  0  0  0
   -4.6050   24.5260  -31.2140 N   0  0  0  0  0  0  0  0  0  0  0  0
   -3.8680   25.2960  -30.4260 N   0  0  0  0  0  0  0  0  0  0  0  0
   -3.1410   24.4740  -29.6490 C   0  0  0  0  0  0  0  0  0  0  0  0
   -2.0110   25.0160  -28.5940 S   0  0  0  0  0  0  0  0  0  0  0  0
   -3.1250   21.4220  -28.2100 C   0  0  0  0  0  0  0  0  0  0  0  0
   -2.4500   20.3080  -27.7040 C   0  0  0  0  0  0  0  0  0  0  0  0
    0.7196   17.0869  -26.4524 H   0  0  0  0  0  0  0  0  0  0  0  0
    0.1971   15.9197  -27.7140 H   0  0  0  0  0  0  0  0  0  0  0  0
    1.8797   16.5489  -27.7140 H   0  0  0  0  0  0  0  0  0  0  0  0
    1.2375   18.6518  -28.5208 H   0  0  0  0  0  0  0  0  0  0  0  0
    0.0883   17.5522  -29.3766 H   0  0  0  0  0  0  0  0  0  0  0  0
   -0.0753   19.9508  -30.1390 H   0  0  0  0  0  0  0  0  0  0  0  0
   -1.2773   21.9382  -31.0394 H   0  0  0  0  0  0  0  0  0  0  0  0
   -3.1751   21.4533  -32.6222 H   0  0  0  0  0  0  0  0  0  0  0  0
   -4.2900   19.5221  -33.7297 H   0  0  0  0  0  0  0  0  0  0  0  0
   -7.1797   17.7556  -31.6511 H   0  0  0  0  0  0  0  0  0  0  0  0
   -8.2425   17.2976  -33.0249 H   0  0  0  0  0  0  0  0  0  0  0  0
   -6.5140   16.8090  -33.0249 H   0  0  0  0  0  0  0  0  0  0  0  0
   -9.7113   21.6384  -30.8161 H   0  0  0  0  0  0  0  0  0  0  0  0
   -9.0206   22.2279  -32.3660 H   0  0  0  0  0  0  0  0  0  0  0  0
  -10.2012   20.8740  -32.3660 H   0  0  0  0  0  0  0  0  0  0  0  0
   -6.8771   22.4442  -30.6137 H   0  0  0  0  0  0  0  0  0  0  0  0
   -3.9882   21.8332  -27.6662 H   0  0  0  0  0  0  0  0  0  0  0  0
   -2.7872   19.8477  -26.7636 H   0  0  0  0  0  0  0  0  0  0  0  0
  1  2  1  0
  2  3  1  0
  3  4  1  0
  4  5  2  0
  5  6  1  0
  6  7  2  0
  7  8  1  0
  8  9  1  0
  9 10  1  0
 10 11  2  0
 11 12  1  0
 12 13  2  0
 13 14  1  0
 14 15  1  0
 13 16  1  0
 16 17  1  0
 17 18  1  0
 16 19  2  0
  9 20  2  0
 20 21  1  0
 21 22  1  0
 22 23  2  0
  7 24  1  0
 24 25  2  0
 25  4  1  0
 22  8  1  0
 19 10  1  0
  1 26  1  0
  1 27  1  0
  1 28  1  0
  2 29  1  0
  2 30  1  0
  5 31  1  0
  6 32  1  0
 11 33  1  0
 12 34  1  0
 15 35  1  0
 15 36  1  0
 15 37  1  0
 18 38  1  0
 18 39  1  0
 18 40  1  0
 19 41  1  0
 24 42  1  0
 25 43  1  0
M  CHG  1  21  -1
M  END
>  <UniqueID>  (43) 
39

>  <SMILES>  (43) 
CCOc1ccc(-n2c(-c3ccc(OC)c(OC)c3)n[n-]c2=S)cc1

>  <Energy>  (43) 
87.4678809988595

>  <Genealogy>  (43) 
CCOc1ccc(-n2c(-c3ccc(OC)c(OC)c3)n[n-]c2=S)cc1 (protonated)
CCOc1ccc(-n2c(-c3ccc(OC)c(OC)c3)n[n-]c2=S)cc1 (3D coordinates assigned)
CCOc1ccc(-n2c(-c3ccc(OC)c(OC)c3)n[n-]c2=S)cc1 (optimized conformer: 87.4678809988595 kcal/mol)

>  <smiles>  (43) 
CCOc1ccc(-n2c(-c3ccc(OC)c(OC)c3)n[nH]c2=S)cc1

>  <score_type>  (43) 
oracle

>  <origin>  (43) 
adgpu

>  <m_score__min__energy>  (43) 
-8.3399999999999999

>  <m_primary>  (43) 
energy

$$$$
43:0
     RDKit          3D

 27 28  0  0  0  0  0  0  0  0999 V2000
   -1.8440   25.5090  -28.9440 O   0  0  0  0  0  0  0  0  0  0  0  0
   -2.5610   24.6040  -29.4460 C   0  0  0  0  0  0  0  0  0  0  0  0
   -3.4990   24.9610  -30.4710 N   0  0  0  0  0  0  0  0  0  0  0  0
   -4.7750   24.3470  -30.7020 C   0  0  0  0  0  0  0  0  0  0  0  0
   -4.8530   23.2620  -31.5800 C   0  0  0  0  0  0  0  0  0  0  0  0
   -6.0820   22.6480  -31.8420 C   0  0  0  0  0  0  0  0  0  0  0  0
   -7.2600   23.1230  -31.2360 C   0  0  0  0  0  0  0  0  0  0  0  0
   -8.5270   22.4930  -31.4990 N   0  0  0  0  0  0  0  0  0  0  0  0
   -8.8130   21.3940  -30.9790 O   0  0  0  0  0  0  0  0  0  0  0  0
   -9.4470   23.0940  -32.3280 O   0  0  0  0  0  0  0  0  0  0  0  0
   -7.1800   24.2280  -30.3720 C   0  0  0  0  0  0  0  0  0  0  0  0
   -5.9500   24.8410  -30.1140 C   0  0  0  0  0  0  0  0  0  0  0  0
   -2.3750   23.2010  -29.0030 C   0  0  0  0  0  0  0  0  0  0  0  0
   -3.3010   22.6100  -28.1250 C   0  0  0  0  0  0  0  0  0  0  0  0
   -3.1280   21.2890  -27.7000 C   0  0  0  0  0  0  0  0  0  0  0  0
   -2.0270   20.5490  -28.1390 C   0  0  0  0  0  0  0  0  0  0  0  0
   -1.0930   21.1320  -28.9990 C   0  0  0  0  0  0  0  0  0  0  0  0
   -1.2610   22.4530  -29.4260 C   0  0  0  0  0  0  0  0  0  0  0  0
   -3.9410   22.8884  -32.0685 H   0  0  0  0  0  0  0  0  0  0  0  0
   -6.1282   21.7880  -32.5263 H   0  0  0  0  0  0  0  0  0  0  0  0
   -8.0926   24.6142  -29.8945 H   0  0  0  0  0  0  0  0  0  0  0  0
   -5.9029   25.7145  -29.4471 H   0  0  0  0  0  0  0  0  0  0  0  0
   -4.1660   23.1899  -27.7707 H   0  0  0  0  0  0  0  0  0  0  0  0
   -3.8603   20.8314  -27.0186 H   0  0  0  0  0  0  0  0  0  0  0  0
   -1.8958   19.5083  -27.8077 H   0  0  0  0  0  0  0  0  0  0  0  0
   -0.2239   20.5509  -29.3409 H   0  0  0  0  0  0  0  0  0  0  0  0
   -0.5180   22.9098  -30.0963 H   0  0  0  0  0  0  0  0  0  0  0  0
  1  2  2  0
  2  3  1  0
  3  4  1  0
  4  5  2  0
  5  6  1  0
  6  7  2  0
  7  8  1  0
  8  9  2  0
  8 10  1  0
  7 11  1  0
 11 12  2  0
  2 13  1  0
 13 14  2  0
 14 15  1  0
 15 16  2  0
 16 17  1  0
 17 18  2  0
 12  4  1  0
 18 13  1  0
  5 19  1  0
  6 20  1  0
 11 21  1  0
 12 22  1  0
 14 23  1  0
 15 24  1  0
 16 25  1  0
 17 26  1  0
 18 27  1  0
M  CHG  3   3  -1   8   1  10  -1
M  END
>  <UniqueID>  (44) 
40

>  <SMILES>  (44) 
O=C([N-]c1ccc([N+](=O)[O-])cc1)c1ccccc1

>  <Energy>  (44) 
35.982319456854796

>  <Genealogy>  (44) 
O=C([N-]c1ccc([N+](=O)[O-])cc1)c1ccccc1 (protonated)
O=C([N-]c1ccc([N+](=O)[O-])cc1)c1ccccc1 (3D coordinates assigned)
O=C([N-]c1ccc([N+](=O)[O-])cc1)c1ccccc1 (optimized conformer: 35.982319456854796 kcal/mol)

>  <smiles>  (44) 
O=C(Nc1ccc([N+](=O)[O-])cc1)c1ccccc1

>  <score_type>  (44) 
oracle

>  <origin>  (44) 
adgpu

>  <m_score__min__energy>  (44) 
-8.1699999999999999

>  <m_primary>  (44) 
energy

$$$$
44:0
     RDKit          3D

 47 51  0  0  0  0  0  0  0  0999 V2000
   -1.9300   26.0470  -28.6030 O   0  0  0  0  0  0  0  0  0  0  0  0
   -2.2600   24.9210  -29.3480 C   0  0  0  0  0  0  0  0  0  0  0  0
   -3.4850   24.8670  -30.0160 C   0  0  0  0  0  0  0  0  0  0  0  0
   -3.8300   23.7410  -30.7680 C   0  0  0  0  0  0  0  0  0  0  0  0
   -2.9430   22.6510  -30.8670 C   0  0  0  0  0  0  0  0  0  0  0  0
   -3.2900   21.4410  -31.6540 C   0  0  0  0  0  0  0  0  0  0  0  0
   -2.3240   20.7360  -32.3920 C   0  0  0  0  0  0  0  0  0  0  0  0
   -2.6930   19.5870  -33.1140 C   0  0  0  0  0  0  0  0  0  0  0  0
   -1.6830   18.8340  -33.9000 C   0  0  0  0  0  0  0  0  0  0  0  0
   -0.5270   19.4750  -34.3830 C   0  0  0  0  0  0  0  0  0  0  0  0
    0.4220   18.7620  -35.1230 C   0  0  0  0  0  0  0  0  0  0  0  0
    0.2290   17.4050  -35.3880 C   0  0  0  0  0  0  0  0  0  0  0  0
   -0.9140   16.7570  -34.9140 C   0  0  0  0  0  0  0  0  0  0  0  0
   -1.8660   17.4650  -34.1740 C   0  0  0  0  0  0  0  0  0  0  0  0
   -4.0290   19.1600  -33.0720 C   0  0  0  0  0  0  0  0  0  0  0  0
   -4.9650   19.8710  -32.3110 C   0  0  0  0  0  0  0  0  0  0  0  0
   -6.3850   19.4510  -32.2650 C   0  0  0  0  0  0  0  0  0  0  0  0
   -6.6780   18.0800  -32.3670 C   0  0  0  0  0  0  0  0  0  0  0  0
   -7.9970   17.6310  -32.3940 C   0  0  0  0  0  0  0  0  0  0  0  0
   -9.0510   18.5400  -32.3210 C   0  0  0  0  0  0  0  0  0  0  0  0
   -8.7940   19.9120  -32.2040 C   0  0  0  0  0  0  0  0  0  0  0  0
   -9.8620   20.8190  -32.1170 C   0  0  0  0  0  0  0  0  0  0  0  0
   -9.6150   22.1850  -31.9750 C   0  0  0  0  0  0  0  0  0  0  0  0
   -8.3050   22.6560  -31.9070 C   0  0  0  0  0  0  0  0  0  0  0  0
   -7.2300   21.7690  -31.9940 C   0  0  0  0  0  0  0  0  0  0  0  0
   -7.4530   20.3840  -32.1640 C   0  0  0  0  0  0  0  0  0  0  0  0
   -4.5720   20.9860  -31.6370 N   0  0  0  0  0  0  0  0  0  0  0  0
   -1.7150   22.7110  -30.1820 C   0  0  0  0  0  0  0  0  0  0  0  0
   -1.3730   23.8400  -29.4300 C   0  0  0  0  0  0  0  0  0  0  0  0
    0.1730   23.8870  -28.5950 Cl  0  0  0  0  0  0  0  0  0  0  0  0
   -4.1821   25.7154  -29.9499 H   0  0  0  0  0  0  0  0  0  0  0  0
   -4.7999   23.7054  -31.2857 H   0  0  0  0  0  0  0  0  0  0  0  0
   -1.2801   21.0826  -32.4049 H   0  0  0  0  0  0  0  0  0  0  0  0
   -0.3687   20.5439  -34.1772 H   0  0  0  0  0  0  0  0  0  0  0  0
    1.3223   19.2716  -35.4969 H   0  0  0  0  0  0  0  0  0  0  0  0
    0.9768   16.8463  -35.9699 H   0  0  0  0  0  0  0  0  0  0  0  0
   -1.0655   15.6878  -35.1232 H   0  0  0  0  0  0  0  0  0  0  0  0
   -2.7640   16.9490  -33.8034 H   0  0  0  0  0  0  0  0  0  0  0  0
   -4.3405   18.2683  -33.6359 H   0  0  0  0  0  0  0  0  0  0  0  0
   -5.8555   17.3521  -32.4263 H   0  0  0  0  0  0  0  0  0  0  0  0
   -8.2072   16.5542  -32.4733 H   0  0  0  0  0  0  0  0  0  0  0  0
  -10.0893   18.1784  -32.3554 H   0  0  0  0  0  0  0  0  0  0  0  0
  -10.8978   20.4513  -32.1610 H   0  0  0  0  0  0  0  0  0  0  0  0
  -10.4560   22.8916  -31.9166 H   0  0  0  0  0  0  0  0  0  0  0  0
   -8.1168   23.7328  -31.7841 H   0  0  0  0  0  0  0  0  0  0  0  0
   -6.2007   22.1517  -31.9296 H   0  0  0  0  0  0  0  0  0  0  0  0
   -1.0176   21.8622  -30.2384 H   0  0  0  0  0  0  0  0  0  0  0  0
  1  2  1  0
  2  3  2  0
  3  4  1  0
  4  5  2  0
  5  6  1  0
  6  7  2  0
  7  8  1  0
  8  9  1  0
  9 10  2  0
 10 11  1  0
 11 12  2  0
 12 13  1  0
 13 14  2  0
  8 15  2  0
 15 16  1  0
 16 17  1  0
 17 18  2  0
 18 19  1  0
 19 20  2  0
 20 21  1  0
 21 22  2  0
 22 23  1  0
 23 24  2  0
 24 25  1  0
 25 26  2  0
 16 27  2  0
  5 28  1  0
 28 29  2  0
 29 30  1  0
 29  2  1  0
 27  6  1  0
 14  9  1  0
 26 17  1  0
 26 21  1  0
  3 31  1  0
  4 32  1  0
  7 33  1  0
 10 34  1  0
 11 35  1  0
 12 36  1  0
 13 37  1  0
 14 38  1  0
 15 39  1  0
 18 40  1  0
 19 41  1  0
 20 42  1  0
 22 43  1  0
 23 44  1  0
 24 45  1  0
 25 46  1  0
 28 47  1  0
M  CHG  1   1  -1
M  END
>  <UniqueID>  (45) 
41

>  <SMILES>  (45) 
[O-]c1ccc(-c2cc(-c3ccccc3)cc(-c3cccc4ccccc34)n2)cc1Cl

>  <Energy>  (45) 
74.854682988022

>  <Genealogy>  (45) 
[O-]c1ccc(-c2cc(-c3ccccc3)cc(-c3cccc4ccccc34)n2)cc1Cl (protonated)
[O-]c1ccc(-c2cc(-c3ccccc3)cc(-c3cccc4ccccc34)n2)cc1Cl (3D coordinates assigned)
[O-]c1ccc(-c2cc(-c3ccccc3)cc(-c3cccc4ccccc34)n2)cc1Cl (optimized conformer: 74.854682988022 kcal/mol)

>  <smiles>  (45) 
Oc1ccc(-c2cc(-c3ccccc3)cc(-c3cccc4ccccc34)n2)cc1Cl

>  <score_type>  (45) 
oracle

>  <origin>  (45) 
adgpu

>  <m_score__min__energy>  (45) 
-11.44

>  <m_primary>  (45) 
energy

$$$$
45:0
     RDKit          3D

 44 47  0  0  0  0  0  0  0  0999 V2000
   -4.2490   14.7390  -34.5810 O   0  0  0  0  0  0  0  0  0  0  0  0
   -5.4360   15.0460  -34.3430 N   0  0  0  0  0  0  0  0  0  0  0  0
   -6.4180   14.1070  -34.5560 O   0  0  0  0  0  0  0  0  0  0  0  0
   -5.7710   16.3580  -33.8540 C   0  0  0  0  0  0  0  0  0  0  0  0
   -6.1270   16.5530  -32.5080 C   0  0  0  0  0  0  0  0  0  0  0  0
   -6.4500   17.8290  -32.0370 C   0  0  0  0  0  0  0  0  0  0  0  0
   -6.4310   18.9340  -32.9030 C   0  0  0  0  0  0  0  0  0  0  0  0
   -6.7660   20.2880  -32.3970 C   0  0  0  0  0  0  0  0  0  0  0  0
   -5.7450   21.1120  -31.8910 C   0  0  0  0  0  0  0  0  0  0  0  0
   -6.0280   22.4060  -31.4120 C   0  0  0  0  0  0  0  0  0  0  0  0
   -4.9870   23.2610  -30.8950 N   0  0  0  0  0  0  0  0  0  0  0  0
   -3.9050   22.9100  -30.1710 C   0  0  0  0  0  0  0  0  0  0  0  0
   -3.2050   24.0760  -29.9200 C   0  0  0  0  0  0  0  0  0  0  0  0
   -1.9380   24.2330  -29.1660 C   0  0  0  0  0  0  0  0  0  0  0  0
   -1.7340   25.3730  -28.3690 C   0  0  0  0  0  0  0  0  0  0  0  0
   -0.5460   25.5350  -27.6510 C   0  0  0  0  0  0  0  0  0  0  0  0
    0.4550   24.5580  -27.7130 C   0  0  0  0  0  0  0  0  0  0  0  0
    1.9570   24.7690  -26.8200 S   0  0  0  0  0  0  0  0  0  0  0  0
    2.1200   26.2100  -26.4280 O   0  0  0  0  0  0  0  0  0  0  0  0
    3.1230   24.3670  -27.6800 O   0  0  0  0  0  0  0  0  0  0  0  0
    1.9260   23.8120  -25.4390 O   0  0  0  0  0  0  0  0  0  0  0  0
    0.2630   23.4230  -28.5110 C   0  0  0  0  0  0  0  0  0  0  0  0
   -0.9250   23.2590  -29.2300 C   0  0  0  0  0  0  0  0  0  0  0  0
   -3.8760   25.0940  -30.4970 N   0  0  0  0  0  0  0  0  0  0  0  0
   -4.9460   24.5720  -31.0780 N   0  0  0  0  0  0  0  0  0  0  0  0
   -7.3580   22.8600  -31.4390 C   0  0  0  0  0  0  0  0  0  0  0  0
   -8.3780   22.0460  -31.9320 C   0  0  0  0  0  0  0  0  0  0  0  0
   -8.0930   20.7600  -32.4060 C   0  0  0  0  0  0  0  0  0  0  0  0
   -9.1290   19.9460  -32.8680 O   0  0  0  0  0  0  0  0  0  0  0  0
   -6.0690   18.7410  -34.2460 C   0  0  0  0  0  0  0  0  0  0  0  0
   -5.7440   17.4660  -34.7170 C   0  0  0  0  0  0  0  0  0  0  0  0
   -6.1516   15.6949  -31.8202 H   0  0  0  0  0  0  0  0  0  0  0  0
   -6.7211   17.9683  -30.9801 H   0  0  0  0  0  0  0  0  0  0  0  0
   -4.7099   20.7405  -31.8689 H   0  0  0  0  0  0  0  0  0  0  0  0
   -3.6326   21.8956  -29.8442 H   0  0  0  0  0  0  0  0  0  0  0  0
   -2.5162   26.1441  -28.3100 H   0  0  0  0  0  0  0  0  0  0  0  0
   -0.3967   26.4338  -27.0346 H   0  0  0  0  0  0  0  0  0  0  0  0
    1.0503   22.6572  -28.5723 H   0  0  0  0  0  0  0  0  0  0  0  0
   -1.0685   22.3619  -29.8502 H   0  0  0  0  0  0  0  0  0  0  0  0
   -7.5970   23.8674  -31.0676 H   0  0  0  0  0  0  0  0  0  0  0  0
   -9.4133   22.4172  -31.9484 H   0  0  0  0  0  0  0  0  0  0  0  0
   -9.1900   19.6630  -33.8390 H   0  0  0  0  0  0  0  0  0  0  0  0
   -6.0410   19.6000  -34.9326 H   0  0  0  0  0  0  0  0  0  0  0  0
   -5.4648   17.3290  -35.7721 H   0  0  0  0  0  0  0  0  0  0  0  0
  1  2  2  0
  2  3  1  0
  2  4  1  0
  4  5  2  0
  5  6  1  0
  6  7  2  0
  7  8  1  0
  8  9  2  0
  9 10  1  0
 10 11  1  0
 11 12  1  0
 12 13  2  0
 13 14  1  0
 14 15  2  0
 15 16  1  0
 16 17  2  0
 17 18  1  0
 18 19  2  0
 18 20  2  0
 18 21  1  0
 17 22  1  0
 22 23  2  0
 13 24  1  0
 24 25  2  0
 10 26  2  0
 26 27  1  0
 27 28  2  0
 28 29  1  0
  7 30  1  0
 30 31  2  0
 31  4  1  0
 28  8  1  0
 25 11  1  0
 23 14  1  0
  5 32  1  0
  6 33  1  0
  9 34  1  0
 12 35  1  0
 15 36  1  0
 16 37  1  0
 22 38  1  0
 23 39  1  0
 26 40  1  0
 27 41  1  0
 29 42  1  0
 30 43  1  0
 31 44  1  0
M  CHG  3   2   1   3  -1  21  -1
M  END
>  <UniqueID>  (46) 
42

>  <SMILES>  (46) 
O=[N+]([O-])c1ccc(-c2cc(-n3cc(-c4ccc(S(=O)(=O)[O-])cc4)nn3)ccc2O)cc1

>  <Energy>  (46) 
96.14615415870774

>  <Genealogy>  (46) 
O=[N+]([O-])c1ccc(-c2cc(-n3cc(-c4ccc(S(=O)(=O)[O-])cc4)nn3)ccc2O)cc1 (protonated)
O=[N+]([O-])c1ccc(-c2cc(-n3cc(-c4ccc(S(=O)(=O)[O-])cc4)nn3)ccc2O)cc1 (3D coordinates assigned)
O=[N+]([O-])c1ccc(-c2cc(-n3cc(-c4ccc(S(=O)(=O)[O-])cc4)nn3)ccc2O)cc1 (optimized conformer: 96.14615415870774 kcal/mol)

>  <smiles>  (46) 
O=[N+]([O-])c1ccc(-c2cc(-n3cc(-c4ccc(S(=O)(=O)O)cc4)nn3)ccc2O)cc1

>  <score_type>  (46) 
oracle

>  <origin>  (46) 
adgpu

>  <m_score__min__energy>  (46) 
-10.27

>  <m_primary>  (46) 
energy

$$$$
46:0
     RDKit          3D

 47 49  0  0  0  0  0  0  0  0999 V2000
   -4.2810   16.5510  -34.9890 C   0  0  0  0  0  0  0  0  0  0  0  0
   -5.2900   17.5680  -34.5660 C   0  0  0  0  0  0  0  0  0  0  0  0
   -5.7000   18.4150  -35.4060 O   0  0  0  0  0  0  0  0  0  0  0  0
   -5.7110   17.6320  -33.1950 N   0  0  0  0  0  0  0  0  0  0  0  0
   -6.8010   18.4420  -32.7230 C   0  0  0  0  0  0  0  0  0  0  0  0
   -7.9850   17.8220  -32.2970 C   0  0  0  0  0  0  0  0  0  0  0  0
   -9.0690   18.5880  -31.8630 C   0  0  0  0  0  0  0  0  0  0  0  0
   -8.9830   19.9830  -31.8550 C   0  0  0  0  0  0  0  0  0  0  0  0
   -7.8130   20.6210  -32.2790 C   0  0  0  0  0  0  0  0  0  0  0  0
   -7.7720   22.0230  -32.2800 O   0  0  0  0  0  0  0  0  0  0  0  0
   -6.7110   22.8040  -31.7970 C   0  0  0  0  0  0  0  0  0  0  0  0
   -7.0050   23.9780  -31.0940 C   0  0  0  0  0  0  0  0  0  0  0  0
   -5.9770   24.7770  -30.5860 C   0  0  0  0  0  0  0  0  0  0  0  0
   -4.6340   24.3920  -30.7490 C   0  0  0  0  0  0  0  0  0  0  0  0
   -3.5450   25.1920  -30.2660 N   0  0  0  0  0  0  0  0  0  0  0  0
   -2.5190   24.7880  -29.3490 C   0  0  0  0  0  0  0  0  0  0  0  0
   -2.4930   23.6140  -28.8950 O   0  0  0  0  0  0  0  0  0  0  0  0
   -1.5120   25.7150  -28.9300 N   0  0  0  0  0  0  0  0  0  0  0  0
   -1.2280   26.1070  -27.5800 C   0  0  0  0  0  0  0  0  0  0  0  0
   -1.7380   25.3980  -26.4780 C   0  0  0  0  0  0  0  0  0  0  0  0
   -1.4670   25.8300  -25.1770 C   0  0  0  0  0  0  0  0  0  0  0  0
   -0.6960   26.9760  -24.9640 C   0  0  0  0  0  0  0  0  0  0  0  0
   -0.1890   27.6970  -26.0540 C   0  0  0  0  0  0  0  0  0  0  0  0
    0.5930   28.9570  -25.8270 C   0  0  0  0  0  0  0  0  0  0  0  0
   -0.4800   27.2710  -27.3600 C   0  0  0  0  0  0  0  0  0  0  0  0
   -4.3400   23.2180  -31.4550 C   0  0  0  0  0  0  0  0  0  0  0  0
   -5.3690   22.4210  -31.9630 C   0  0  0  0  0  0  0  0  0  0  0  0
   -6.7320   19.8470  -32.7380 C   0  0  0  0  0  0  0  0  0  0  0  0
   -3.8265   16.0929  -34.0982 H   0  0  0  0  0  0  0  0  0  0  0  0
   -4.7743   15.7730  -35.5902 H   0  0  0  0  0  0  0  0  0  0  0  0
   -3.4992   17.0382  -35.5902 H   0  0  0  0  0  0  0  0  0  0  0  0
   -5.1370   17.1190  -32.4880 H   0  0  0  0  0  0  0  0  0  0  0  0
   -8.0601   16.7246  -32.3049 H   0  0  0  0  0  0  0  0  0  0  0  0
   -9.9919   18.0927  -31.5269 H   0  0  0  0  0  0  0  0  0  0  0  0
   -9.8400   20.5821  -31.5135 H   0  0  0  0  0  0  0  0  0  0  0  0
   -8.0532   24.2741  -30.9401 H   0  0  0  0  0  0  0  0  0  0  0  0
   -6.2191   25.7104  -30.0567 H   0  0  0  0  0  0  0  0  0  0  0  0
   -2.3524   24.5002  -26.6406 H   0  0  0  0  0  0  0  0  0  0  0  0
   -1.8615   25.2667  -24.3185 H   0  0  0  0  0  0  0  0  0  0  0  0
   -0.4864   27.3132  -23.9381 H   0  0  0  0  0  0  0  0  0  0  0  0
    0.7014   29.1316  -24.7464 H   0  0  0  0  0  0  0  0  0  0  0  0
    1.5886   28.8580  -26.2841 H   0  0  0  0  0  0  0  0  0  0  0  0
    0.0624   29.8052  -26.2841 H   0  0  0  0  0  0  0  0  0  0  0  0
   -0.1175   27.8563  -28.2179 H   0  0  0  0  0  0  0  0  0  0  0  0
   -3.2921   22.9218  -31.6104 H   0  0  0  0  0  0  0  0  0  0  0  0
   -5.1276   21.4892  -32.4955 H   0  0  0  0  0  0  0  0  0  0  0  0
   -5.8250   20.3445  -33.1119 H   0  0  0  0  0  0  0  0  0  0  0  0
  1  2  1  0
  2  3  2  0
  2  4  1  0
  4  5  1  0
  5  6  2  0
  6  7  1  0
  7  8  2  0
  8  9  1  0
  9 10  1  0
 10 11  1  0
 11 12  2  0
 12 13  1  0
 13 14  2  0
 14 15  1  0
 15 16  1  0
 16 17  2  0
 16 18  1  0
 18 19  1  0
 19 20  2  0
 20 21  1  0
 21 22  2  0
 22 23  1  0
 23 24  1  0
 23 25  2  0
 14 26  1  0
 26 27  2  0
  9 28  2  0
 28  5  1  0
 27 11  1  0
 25 19  1  0
  1 29  1  0
  1 30  1  0
  1 31  1  0
  4 32  1  0
  6 33  1  0
  7 34  1  0
  8 35  1  0
 12 36  1  0
 13 37  1  0
 20 38  1  0
 21 39  1  0
 22 40  1  0
 24 41  1  0
 24 42  1  0
 24 43  1  0
 25 44  1  0
 26 45  1  0
 27 46  1  0
 28 47  1  0
M  CHG  2  15  -1  18  -1
M  END
>  <UniqueID>  (47) 
43

>  <SMILES>  (47) 
CC(=O)Nc1cccc(Oc2ccc([N-]C(=O)[N-]c3cccc(C)c3)cc2)c1

>  <Energy>  (47) 
63.14550697352384

>  <Genealogy>  (47) 
CC(=O)Nc1cccc(Oc2ccc([N-]C(=O)[N-]c3cccc(C)c3)cc2)c1 (protonated)
CC(=O)Nc1cccc(Oc2ccc([N-]C(=O)[N-]c3cccc(C)c3)cc2)c1 (3D coordinates assigned)
CC(=O)Nc1cccc(Oc2ccc([N-]C(=O)[N-]c3cccc(C)c3)cc2)c1 (optimized conformer: 63.14550697352384 kcal/mol)

>  <smiles>  (47) 
CC(=O)Nc1cccc(Oc2ccc(NC(=O)Nc3cccc(C)c3)cc2)c1

>  <score_type>  (47) 
oracle

>  <origin>  (47) 
adgpu

>  <m_score__min__energy>  (47) 
-12.68

>  <m_primary>  (47) 
energy

$$$$
