0:0
     RDKit          3D

 47 49  0  0  0  0  0  0  0  0999 V2000
   -9.1340   21.4910  -30.8460 C   0  0  0  0  0  0  0  0  0  0  0  0
   -8.4130   20.5040  -31.7150 C   0  0  0  0  0  0  0  0  0  0  0  0
   -7.4500   20.9450  -32.6360 C   0  0  0  0  0  0  0  0  0  0  0  0
   -6.7540   20.0230  -33.4230 C   0  0  0  0  0  0  0  0  0  0  0  0
   -7.0090   18.6500  -33.2940 C   0  0  0  0  0  0  0  0  0  0  0  0
   -6.1450   17.4950  -34.3060 S   0  0  0  0  0  0  0  0  0  0  0  0
   -7.0460   16.3240  -34.5780 O   0  0  0  0  0  0  0  0  0  0  0  0
   -5.7530   18.1250  -35.6140 O   0  0  0  0  0  0  0  0  0  0  0  0
   -4.7140   16.9430  -33.4930 N   0  0  0  0  0  0  0  0  0  0  0  0
   -3.6160   17.8000  -33.1300 C   0  0  0  0  0  0  0  0  0  0  0  0
   -2.3050   17.3100  -33.2330 C   0  0  0  0  0  0  0  0  0  0  0  0
   -1.2180   18.1080  -32.8670 C   0  0  0  0  0  0  0  0  0  0  0  0
   -1.4240   19.4110  -32.4000 C   0  0  0  0  0  0  0  0  0  0  0  0
   -0.0490   20.3870  -31.9010 S   0  0  0  0  0  0  0  0  0  0  0  0
    0.2710   21.4200  -32.9470 O   0  0  0  0  0  0  0  0  0  0  0  0
    1.1550   19.5040  -31.7290 O   0  0  0  0  0  0  0  0  0  0  0  0
   -0.4450   21.1910  -30.3870 C   0  0  0  0  0  0  0  0  0  0  0  0
    0.0900   20.7130  -29.1840 C   0  0  0  0  0  0  0  0  0  0  0  0
   -0.1990   21.3620  -27.9810 C   0  0  0  0  0  0  0  0  0  0  0  0
   -1.0180   22.4950  -27.9730 C   0  0  0  0  0  0  0  0  0  0  0  0
   -1.5440   22.9910  -29.1730 C   0  0  0  0  0  0  0  0  0  0  0  0
   -2.5760   24.4180  -29.1660 S   0  0  0  0  0  0  0  0  0  0  0  0
   -1.5990   25.8300  -28.9630 N   0  0  0  0  0  0  0  0  0  0  0  0
   -3.5670   24.3260  -28.0400 O   0  0  0  0  0  0  0  0  0  0  0  0
   -3.3280   24.5080  -30.4650 O   0  0  0  0  0  0  0  0  0  0  0  0
   -1.2600   22.3330  -30.3790 C   0  0  0  0  0  0  0  0  0  0  0  0
   -2.7280   19.9110  -32.3030 C   0  0  0  0  0  0  0  0  0  0  0  0
   -3.8180   19.1140  -32.6690 C   0  0  0  0  0  0  0  0  0  0  0  0
   -7.9530   18.2070  -32.3590 C   0  0  0  0  0  0  0  0  0  0  0  0
   -8.6460   19.1280  -31.5680 C   0  0  0  0  0  0  0  0  0  0  0  0
   -8.9558   21.2471  -29.7883 H   0  0  0  0  0  0  0  0  0  0  0  0
   -8.7623   22.5047  -31.0562 H   0  0  0  0  0  0  0  0  0  0  0  0
  -10.2128   21.4451  -31.0562 H   0  0  0  0  0  0  0  0  0  0  0  0
   -7.2422   22.0203  -32.7389 H   0  0  0  0  0  0  0  0  0  0  0  0
   -6.0037   20.3756  -34.1460 H   0  0  0  0  0  0  0  0  0  0  0  0
   -4.7040   15.9460  -33.1810 H   0  0  0  0  0  0  0  0  0  0  0  0
   -2.1317   16.2894  -33.6049 H   0  0  0  0  0  0  0  0  0  0  0  0
   -0.1955   17.7101  -32.9463 H   0  0  0  0  0  0  0  0  0  0  0  0
    0.7390   19.8249  -29.1864 H   0  0  0  0  0  0  0  0  0  0  0  0
    0.2189   20.9805  -27.0377 H   0  0  0  0  0  0  0  0  0  0  0  0
   -1.2499   22.9980  -27.0226 H   0  0  0  0  0  0  0  0  0  0  0  0
   -1.1920   26.0560  -29.9000 H   0  0  0  0  0  0  0  0  0  0  0  0
   -1.6781   22.7140  -31.3224 H   0  0  0  0  0  0  0  0  0  0  0  0
   -2.8963   20.9348  -31.9375 H   0  0  0  0  0  0  0  0  0  0  0  0
   -4.8389   19.5169  -32.5960 H   0  0  0  0  0  0  0  0  0  0  0  0
   -8.1498   17.1306  -32.2467 H   0  0  0  0  0  0  0  0  0  0  0  0
   -9.3772   18.7725  -30.8271 H   0  0  0  0  0  0  0  0  0  0  0  0
  1  2  1  0
  2  3  2  0
  3  4  1  0
  4  5  2  0
  5  6  1  0
  6  7  2  0
  6  8  2  0
  6  9  1  0
  9 10  1  0
 10 11  2  0
 11 12  1  0
 12 13  2  0
 13 14  1  0
 14 15  2  0
 14 16  2  0
 14 17  1  0
 17 18  2  0
 18 19  1  0
 19 20  2  0
 20 21  1  0
 21 22  1  0
 22 23  1  0
 22 24  2  0
 22 25  2  0
 21 26  2  0
 13 27  1  0
 27 28  2  0
  5 29  1  0
 29 30  2  0
 30  2  1  0
 28 10  1  0
 26 17  1  0
  1 31  1  0
  1 32  1  0
  1 33  1  0
  3 34  1  0
  4 35  1  0
  9 36  1  0
 11 37  1  0
 12 38  1  0
 18 39  1  0
 19 40  1  0
 20 41  1  0
 23 42  1  0
 26 43  1  0
 27 44  1  0
 28 45  1  0
 29 46  1  0
 30 47  1  0
M  CHG  1  23  -1
M  END
>  <UniqueID>  (1) 
1

>  <SMILES>  (1) 
Cc1ccc(S(=O)(=O)Nc2ccc(S(=O)(=O)c3cccc(S([NH-])(=O)=O)c3)cc2)cc1

>  <Energy>  (1) 
52.8586803792366

>  <Genealogy>  (1) 
Cc1ccc(S(=O)(=O)Nc2ccc(S(=O)(=O)c3cccc(S([NH-])(=O)=O)c3)cc2)cc1 (protonated)
Cc1ccc(S(=O)(=O)Nc2ccc(S(=O)(=O)c3cccc(S([NH-])(=O)=O)c3)cc2)cc1 (3D coordinates assigned)
Cc1ccc(S(=O)(=O)Nc2ccc(S(=O)(=O)c3cccc(S([NH-])(=O)=O)c3)cc2)cc1 (optimized conformer: 52.8586803792366 kcal/mol)

>  <smiles>  (1) 
Cc1ccc(S(=O)(=O)Nc2ccc(S(=O)(=O)c3cccc(S(N)(=O)=O)c3)cc2)cc1

>  <score_type>  (1) 
oracle

>  <origin>  (1) 
adgpu

>  <m_score__min__energy>  (1) 
-12.42

>  <m_primary>  (1) 
energy

$$$$
1:0
     RDKit          3D

 49 51  0  0  0  0  0  0  0  0999 V2000
   -1.4310   15.3400  -33.4850 C   0  0  0  0  0  0  0  0  0  0  0  0
   -1.0930   16.7760  -33.1950 C   0  0  0  0  0  0  0  0  0  0  0  0
    0.0020   17.0810  -32.3740 C   0  0  0  0  0  0  0  0  0  0  0  0
    0.3060   18.4070  -32.0690 C   0  0  0  0  0  0  0  0  0  0  0  0
   -0.4670   19.4410  -32.5930 C   0  0  0  0  0  0  0  0  0  0  0  0
   -1.5640   19.1640  -33.4250 C   0  0  0  0  0  0  0  0  0  0  0  0
   -2.3190   20.3180  -34.0270 C   0  0  0  0  0  0  0  0  0  0  0  0
   -1.9130   17.8130  -33.6880 C   0  0  0  0  0  0  0  0  0  0  0  0
   -3.0400   17.4600  -34.4510 O   0  0  0  0  0  0  0  0  0  0  0  0
   -4.3690   17.5220  -34.0090 C   0  0  0  0  0  0  0  0  0  0  0  0
   -5.0130   18.7630  -34.0520 C   0  0  0  0  0  0  0  0  0  0  0  0
   -6.3080   18.9210  -33.5440 C   0  0  0  0  0  0  0  0  0  0  0  0
   -6.8970   20.2280  -33.5460 N   0  0  0  0  0  0  0  0  0  0  0  0
   -6.4520   21.3030  -32.6980 C   0  0  0  0  0  0  0  0  0  0  0  0
   -5.1220   21.3820  -32.2420 C   0  0  0  0  0  0  0  0  0  0  0  0
   -4.7170   22.4420  -31.4250 C   0  0  0  0  0  0  0  0  0  0  0  0
   -5.6280   23.4410  -31.0610 C   0  0  0  0  0  0  0  0  0  0  0  0
   -5.1180   24.7650  -30.0180 S   0  0  0  0  0  0  0  0  0  0  0  0
   -3.5390   25.2890  -30.4820 N   0  0  0  0  0  0  0  0  0  0  0  0
   -5.0920   24.3070  -28.5870 O   0  0  0  0  0  0  0  0  0  0  0  0
   -6.0840   25.9100  -30.1400 O   0  0  0  0  0  0  0  0  0  0  0  0
   -6.9510   23.3690  -31.5150 C   0  0  0  0  0  0  0  0  0  0  0  0
   -7.3590   22.3110  -32.3330 C   0  0  0  0  0  0  0  0  0  0  0  0
   -7.0010   17.8000  -33.0410 C   0  0  0  0  0  0  0  0  0  0  0  0
   -8.3540   17.9070  -32.5810 N   0  0  0  0  0  0  0  0  0  0  0  0
   -6.3700   16.5480  -33.0350 C   0  0  0  0  0  0  0  0  0  0  0  0
   -5.0680   16.3920  -33.5280 C   0  0  0  0  0  0  0  0  0  0  0  0
   -4.5000   15.0780  -33.5840 N   0  0  0  0  0  0  0  0  0  0  0  0
   -1.5593   14.7951  -32.5381 H   0  0  0  0  0  0  0  0  0  0  0  0
   -2.3648   15.2929  -34.0645 H   0  0  0  0  0  0  0  0  0  0  0  0
   -0.6163   14.8814  -34.0645 H   0  0  0  0  0  0  0  0  0  0  0  0
    0.6244   16.2698  -31.9684 H   0  0  0  0  0  0  0  0  0  0  0  0
    1.1583   18.6375  -31.4130 H   0  0  0  0  0  0  0  0  0  0  0  0
   -0.2156   20.4846  -32.3527 H   0  0  0  0  0  0  0  0  0  0  0  0
   -2.7301   20.9464  -33.2232 H   0  0  0  0  0  0  0  0  0  0  0  0
   -1.6378   20.9173  -34.6489 H   0  0  0  0  0  0  0  0  0  0  0  0
   -3.1410   19.9339  -34.6489 H   0  0  0  0  0  0  0  0  0  0  0  0
   -4.4942   19.6277  -34.4915 H   0  0  0  0  0  0  0  0  0  0  0  0
   -7.5900   20.4430  -34.2980 H   0  0  0  0  0  0  0  0  0  0  0  0
   -4.3979   20.6057  -32.5301 H   0  0  0  0  0  0  0  0  0  0  0  0
   -3.6782   22.4913  -31.0667 H   0  0  0  0  0  0  0  0  0  0  0  0
   -3.6640   26.0390  -31.1990 H   0  0  0  0  0  0  0  0  0  0  0  0
   -7.6721   24.1481  -31.2268 H   0  0  0  0  0  0  0  0  0  0  0  0
   -8.3975   22.2680  -32.6931 H   0  0  0  0  0  0  0  0  0  0  0  0
   -9.0930   18.3130  -33.1990 H   0  0  0  0  0  0  0  0  0  0  0  0
   -8.6290   17.6360  -31.6130 H   0  0  0  0  0  0  0  0  0  0  0  0
   -6.9060   15.6739  -32.6367 H   0  0  0  0  0  0  0  0  0  0  0  0
   -3.6160   14.9050  -34.1140 H   0  0  0  0  0  0  0  0  0  0  0  0
   -4.8720   14.2930  -33.0100 H   0  0  0  0  0  0  0  0  0  0  0  0
  1  2  1  0
  2  3  2  0
  3  4  1  0
  4  5  2  0
  5  6  1  0
  6  7  1  0
  6  8  2  0
  8  9  1  0
  9 10  1  0
 10 11  2  0
 11 12  1  0
 12 13  1  0
 13 14  1  0
 14 15  2  0
 15 16  1  0
 16 17  2  0
 17 18  1  0
 18 19  1  0
 18 20  2  0
 18 21  2  0
 17 22  1  0
 22 23  2  0
 12 24  2  0
 24 25  1  0
 24 26  1  0
 26 27  2  0
 27 28  1  0
  8  2  1  0
 27 10  1  0
 23 14  1  0
  1 29  1  0
  1 30  1  0
  1 31  1  0
  3 32  1  0
  4 33  1  0
  5 34  1  0
  7 35  1  0
  7 36  1  0
  7 37  1  0
 11 38  1  0
 13 39  1  0
 15 40  1  0
 16 41  1  0
 19 42  1  0
 22 43  1  0
 23 44  1  0
 25 45  1  0
 25 46  1  0
 26 47  1  0
 28 48  1  0
 28 49  1  0
M  CHG  1  19  -1
M  END
>  <UniqueID>  (2) 
2

>  <SMILES>  (2) 
Cc1cccc(C)c1Oc1cc(Nc2ccc(S([NH-])(=O)=O)cc2)c(N)cc1N

>  <Energy>  (2) 
68.27140660361697

>  <Genealogy>  (2) 
Cc1cccc(C)c1Oc1cc(Nc2ccc(S([NH-])(=O)=O)cc2)c(N)cc1N (protonated)
Cc1cccc(C)c1Oc1cc(Nc2ccc(S([NH-])(=O)=O)cc2)c(N)cc1N (3D coordinates assigned)
Cc1cccc(C)c1Oc1cc(Nc2ccc(S([NH-])(=O)=O)cc2)c(N)cc1N (optimized conformer: 68.27140660361697 kcal/mol)

>  <smiles>  (2) 
Cc1cccc(C)c1Oc1cc(Nc2ccc(S(N)(=O)=O)cc2)c(N)cc1N

>  <score_type>  (2) 
oracle

>  <origin>  (2) 
adgpu

>  <m_score__min__energy>  (2) 
-10.220000000000001

>  <m_primary>  (2) 
energy

$$$$
2:0
     RDKit          3D

 58 61  0  0  0  0  0  0  0  0999 V2000
    0.9267   15.1563  -30.6097 H   0  0  0  0  0  0  0  0  0  0  0  0
    0.8800   15.8150  -29.7300 C   0  0  0  0  0  0  0  0  0  0  0  0
    0.2920   17.0800  -29.8340 C   0  0  0  0  0  0  0  0  0  0  0  0
   -0.1391   17.4057  -30.7922 H   0  0  0  0  0  0  0  0  0  0  0  0
    0.2490   17.9370  -28.7210 C   0  0  0  0  0  0  0  0  0  0  0  0
   -0.3830   19.2250  -28.7940 N   0  0  0  0  0  0  0  0  0  0  0  0
   -0.6450   19.8790  -29.8880 C   0  0  0  0  0  0  0  0  0  0  0  0
   -0.2040   19.4390  -31.0980 N   0  0  0  0  0  0  0  0  0  0  0  0
   -0.5010   20.1310  -32.2300 C   0  0  0  0  0  0  0  0  0  0  0  0
    0.1470   19.6310  -33.8350 S   0  0  0  0  0  0  0  0  0  0  0  0
   -0.8620   18.1190  -34.1050 C   0  0  0  0  0  0  0  0  0  0  0  0
   -0.6685   17.7649  -35.1283 H   0  0  0  0  0  0  0  0  0  0  0  0
   -0.5551   17.4160  -33.3165 H   0  0  0  0  0  0  0  0  0  0  0  0
   -2.3530   18.2760  -33.9470 C   0  0  0  0  0  0  0  0  0  0  0  0
   -3.0920   17.7560  -34.8270 O   0  0  0  0  0  0  0  0  0  0  0  0
   -2.9490   19.0120  -32.8660 N   0  0  0  0  0  0  0  0  0  0  0  0
   -2.3500   19.3560  -32.0880 H   0  0  0  0  0  0  0  0  0  0  0  0
   -4.3740   19.1430  -32.7190 C   0  0  0  0  0  0  0  0  0  0  0  0
   -5.1630   18.0310  -32.3690 C   0  0  0  0  0  0  0  0  0  0  0  0
   -4.6862   17.0539  -32.2020 H   0  0  0  0  0  0  0  0  0  0  0  0
   -6.5500   18.1600  -32.2320 C   0  0  0  0  0  0  0  0  0  0  0  0
   -7.1575   17.2884  -31.9471 H   0  0  0  0  0  0  0  0  0  0  0  0
   -7.1640   19.3960  -32.4570 C   0  0  0  0  0  0  0  0  0  0  0  0
   -8.9050   19.5590  -32.2850 Cl  0  0  0  0  0  0  0  0  0  0  0  0
   -6.3900   20.5040  -32.8190 C   0  0  0  0  0  0  0  0  0  0  0  0
   -6.8744   21.4751  -32.9985 H   0  0  0  0  0  0  0  0  0  0  0  0
   -4.9990   20.3820  -32.9540 C   0  0  0  0  0  0  0  0  0  0  0  0
   -4.0530   21.8050  -33.3720 Cl  0  0  0  0  0  0  0  0  0  0  0  0
   -1.2180   21.2790  -32.1460 N   0  0  0  0  0  0  0  0  0  0  0  0
   -1.6330   21.7440  -30.9400 C   0  0  0  0  0  0  0  0  0  0  0  0
   -2.2710   22.8750  -30.8800 N   0  0  0  0  0  0  0  0  0  0  0  0
   -2.7550   23.4710  -29.6640 C   0  0  0  0  0  0  0  0  0  0  0  0
   -1.8520   23.9380  -28.6810 C   0  0  0  0  0  0  0  0  0  0  0  0
   -0.3650   23.8710  -28.8980 C   0  0  0  0  0  0  0  0  0  0  0  0
    0.1469   23.8479  -27.9247 H   0  0  0  0  0  0  0  0  0  0  0  0
   -0.1177   22.9608  -29.4640 H   0  0  0  0  0  0  0  0  0  0  0  0
   -0.0368   24.7553  -29.4640 H   0  0  0  0  0  0  0  0  0  0  0  0
   -2.3480   24.4990  -27.4930 C   0  0  0  0  0  0  0  0  0  0  0  0
   -1.6470   24.9002  -26.7462 H   0  0  0  0  0  0  0  0  0  0  0  0
   -3.7280   24.5530  -27.2490 C   0  0  0  0  0  0  0  0  0  0  0  0
   -4.2550   25.1630  -25.9810 C   0  0  0  0  0  0  0  0  0  0  0  0
   -3.8114   24.6496  -25.1152 H   0  0  0  0  0  0  0  0  0  0  0  0
   -3.9900   26.2302  -25.9498 H   0  0  0  0  0  0  0  0  0  0  0  0
   -5.3493   25.0558  -25.9498 H   0  0  0  0  0  0  0  0  0  0  0  0
   -4.6200   24.0850  -28.2220 C   0  0  0  0  0  0  0  0  0  0  0  0
   -5.7035   24.1464  -28.0424 H   0  0  0  0  0  0  0  0  0  0  0  0
   -4.1440   23.5380  -29.4250 C   0  0  0  0  0  0  0  0  0  0  0  0
   -5.1210   23.0420  -30.4580 C   0  0  0  0  0  0  0  0  0  0  0  0
   -5.9932   22.5992  -29.9549 H   0  0  0  0  0  0  0  0  0  0  0  0
   -5.4483   23.8831  -31.0868 H   0  0  0  0  0  0  0  0  0  0  0  0
   -4.6351   22.2814  -31.0868 H   0  0  0  0  0  0  0  0  0  0  0  0
   -1.3400   21.0410  -29.8120 N   0  0  0  0  0  0  0  0  0  0  0  0
    0.7570   17.4930  -27.4940 C   0  0  0  0  0  0  0  0  0  0  0  0
    0.6947   18.1422  -26.6082 H   0  0  0  0  0  0  0  0  0  0  0  0
    1.3440   16.2260  -27.3900 C   0  0  0  0  0  0  0  0  0  0  0  0
    1.7555   15.8888  -26.4272 H   0  0  0  0  0  0  0  0  0  0  0  0
    1.4080   15.3880  -28.5090 C   0  0  0  0  0  0  0  0  0  0  0  0
    2.1380   13.7980  -28.3760 Cl  0  0  0  0  0  0  0  0  0  0  0  0
  1  2  1  0
  2  3  2  0
  3  4  1  0
  3  5  1  0
  5  6  1  0
  6  7  2  3
  7  8  1  0
  8  9  1  0
  9 10  1  0
 10 11  1  0
 11 12  1  0
 11 13  1  0
 11 14  1  0
 14 15  2  0
 14 16  1  0
 16 17  1  0
 16 18  1  0
 18 19  2  0
 19 20  1  0
 19 21  1  0
 21 22  1  0
 21 23  2  0
 23 24  1  0
 23 25  1  0
 25 26  1  0
 25 27  2  0
 27 28  1  0
  9 29  2  0
 29 30  1  0
 30 31  2  0
 31 32  1  0
 32 33  2  0
 33 34  1  0
 34 35  1  0
 34 36  1  0
 34 37  1  0
 33 38  1  0
 38 39  1  0
 38 40  2  0
 40 41  1  0
 41 42  1  0
 41 43  1  0
 41 44  1  0
 40 45  1  0
 45 46  1  0
 45 47  2  0
 47 48  1  0
 48 49  1  0
 48 50  1  0
 48 51  1  0
 30 52  1  0
  5 53  2  0
 53 54  1  0
 53 55  1  0
 55 56  1  0
 55 57  2  0
 57 58  1  0
 57  2  1  0
 52  7  1  0
 27 18  1  0
 47 32  1  0
M  CHG  2   8  -1  52  -1
M  END
>  <UniqueID>  (3) 
3

>  <SMILES>  (3) 
Cc1cc(C)c(/N=c2/nc(SCC(=O)Nc3ccc(Cl)cc3Cl)[n-]c(=Nc3ccc(Cl)cc3)[n-]2)c(C)c1

>  <Energy>  (3) 
85.46733318020752

>  <Genealogy>  (3) 
Cc1cc(C)c(N=c2nc(SCC(=O)Nc3ccc(Cl)cc3Cl)[n-]c(=Nc3ccc(Cl)cc3)[n-]2)c(C)c1 (protonated)
Cc1cc(C)c(/N=c2/nc(SCC(=O)Nc3ccc(Cl)cc3Cl)[n-]c(=Nc3ccc(Cl)cc3)[n-]2)c(C)c1 (cis-trans isomerization)
Cc1cc(C)c(/N=c2/nc(SCC(=O)Nc3ccc(Cl)cc3Cl)[n-]c(=Nc3ccc(Cl)cc3)[n-]2)c(C)c1 (3D coordinates assigned)
Cc1cc(C)c(/N=c2/nc(SCC(=O)Nc3ccc(Cl)cc3Cl)[n-]c(=Nc3ccc(Cl)cc3)[n-]2)c(C)c1 (optimized conformer: 85.46733318020752 kcal/mol)

>  <smiles>  (3) 
Cc1cc(C)c(N=c2nc(SCC(=O)Nc3ccc(Cl)cc3Cl)[nH]c(=Nc3ccc(Cl)cc3)[nH]2)c(C)c1

>  <score_type>  (3) 
oracle

>  <origin>  (3) 
adgpu

>  <m_score__min__energy>  (3) 
-12.75

>  <m_primary>  (3) 
energy

$$$$
3:0
     RDKit          3D

 52 54  0  0  1  0  0  0  0  0999 V2000
   -9.5220   21.5830  -30.4020 C   0  0  0  0  0  0  0  0  0  0  0  0
   -9.1450   21.5590  -31.8580 C   0  0  0  0  0  0  0  0  0  0  0  0
   -7.7650   21.5070  -32.1580 N   0  0  0  0  0  0  0  0  0  0  0  0
   -7.2230   20.4270  -32.5490 C   0  0  0  0  0  0  0  0  0  0  0  0
   -5.8820   20.5190  -32.8020 N   0  0  0  0  0  0  0  0  0  0  0  0
   -5.2050   19.4580  -33.2190 C   0  0  0  0  0  0  0  0  0  0  0  0
   -3.7930   19.5910  -33.4760 N   0  0  0  0  0  0  0  0  0  0  0  0
   -2.9850   20.0250  -32.5620 C   0  0  0  0  0  0  0  0  0  0  0  0
   -1.6480   20.1240  -32.8880 C   0  0  0  0  0  0  0  0  0  0  0  0
   -0.7840   20.5910  -31.8980 C   0  0  0  0  0  0  0  0  0  0  0  0
   -1.2780   20.9330  -30.6560 C   0  0  0  0  0  0  0  0  0  0  0  0
   -0.1510   21.5290  -29.3990 S   0  0  0  0  0  0  0  0  0  0  0  0
   -0.8240   23.0590  -28.7660 C   0  0  0  0  0  0  0  0  0  0  0  0
    0.0730   24.1140  -28.6070 C   0  0  0  0  0  0  0  0  0  0  0  0
   -0.4120   25.2820  -28.1290 N   0  0  0  0  0  0  0  0  0  0  0  0
   -1.7200   25.4230  -27.8130 C   0  0  0  0  0  0  0  0  0  0  0  0
   -2.6330   24.4240  -27.9500 C   0  0  0  0  0  0  0  0  0  0  0  0
   -4.0740   24.5270  -27.6280 C   0  0  0  0  0  0  0  0  0  0  0  0
   -4.8230   23.9840  -28.7420 N   0  0  0  0  0  0  0  0  0  0  0  0
   -4.6640   24.4010  -30.0870 C   0  0  0  0  0  0  0  0  0  0  0  0
   -5.4910   23.7710  -31.1790 C   0  0  0  0  0  0  0  0  0  0  0  0
   -3.8610   25.2820  -30.4550 O   0  0  0  0  0  0  0  0  0  0  0  0
   -2.1620   23.2020  -28.4440 C   0  0  0  0  0  0  0  0  0  0  0  0
   -2.6340   20.8060  -30.4070 C   0  0  0  0  0  0  0  0  0  0  0  0
   -3.4690   20.3610  -31.3460 N   0  0  0  0  0  0  0  0  0  0  0  0
   -5.7810   18.2610  -33.4100 N   0  0  0  0  0  0  0  0  0  0  0  0
   -7.0930   18.1650  -33.1630 C   0  0  0  0  0  0  0  0  0  0  0  0
   -7.8800   19.2250  -32.7250 C   0  0  0  0  0  0  0  0  0  0  0  0
   -9.3100   19.0910  -32.4660 C   0  0  0  0  0  0  0  0  0  0  0  0
   -8.6121   21.5251  -29.7866 H   0  0  0  0  0  0  0  0  0  0  0  0
  -10.0578   22.5171  -30.1773 H   0  0  0  0  0  0  0  0  0  0  0  0
  -10.1719   20.7244  -30.1773 H   0  0  0  0  0  0  0  0  0  0  0  0
   -9.6173   20.6741  -32.3095 H   0  0  0  0  0  0  0  0  0  0  0  0
   -9.4911   22.5223  -32.2609 H   0  0  0  0  0  0  0  0  0  0  0  0
   -1.2792   19.8463  -33.8865 H   0  0  0  0  0  0  0  0  0  0  0  0
    0.2916   20.6867  -32.1074 H   0  0  0  0  0  0  0  0  0  0  0  0
    1.1372   24.0004  -28.8613 H   0  0  0  0  0  0  0  0  0  0  0  0
   -2.0622   26.3941  -27.4259 H   0  0  0  0  0  0  0  0  0  0  0  0
   -4.2942   23.9535  -26.7155 H   0  0  0  0  0  0  0  0  0  0  0  0
   -4.3525   25.5773  -27.4569 H   0  0  0  0  0  0  0  0  0  0  0  0
   -5.5500   23.2230  -28.5890 H   0  0  0  0  0  0  0  0  0  0  0  0
   -6.2896   23.1626  -30.7295 H   0  0  0  0  0  0  0  0  0  0  0  0
   -5.9376   24.5598  -31.8021 H   0  0  0  0  0  0  0  0  0  0  0  0
   -4.8491   23.1309  -31.8021 H   0  0  0  0  0  0  0  0  0  0  0  0
   -2.8541   22.3572  -28.5759 H   0  0  0  0  0  0  0  0  0  0  0  0
   -3.0293   21.0771  -29.4169 H   0  0  0  0  0  0  0  0  0  0  0  0
   -4.4630   20.2810  -31.1220 H   0  0  0  0  0  0  0  0  0  0  0  0
   -5.2500   17.4100  -33.7410 H   0  0  0  0  0  0  0  0  0  0  0  0
   -7.5779   17.1895  -33.3155 H   0  0  0  0  0  0  0  0  0  0  0  0
   -9.4860   19.0745  -31.3803 H   0  0  0  0  0  0  0  0  0  0  0  0
   -9.8447   19.9430  -32.9112 H   0  0  0  0  0  0  0  0  0  0  0  0
   -9.6771   18.1545  -32.9112 H   0  0  0  0  0  0  0  0  0  0  0  0
  1  2  1  0
  2  3  1  0
  3  4  2  0
  4  5  1  0
  5  6  2  0
  6  7  1  0
  7  8  2  0
  8  9  1  0
  9 10  2  0
 10 11  1  0
 11 12  1  0
 12 13  1  0
 13 14  2  0
 14 15  1  0
 15 16  2  0
 16 17  1  0
 17 18  1  0
 18 19  1  0
 19 20  1  0
 20 21  1  0
 20 22  2  0
 17 23  2  0
 11 24  2  0
 24 25  1  0
  6 26  1  0
 26 27  1  0
 27 28  2  0
 28 29  1  0
 28  4  1  0
 25  8  1  0
 23 13  1  0
  1 30  1  0
  1 31  1  0
  1 32  1  0
  2 33  1  0
  2 34  1  0
  9 35  1  0
 10 36  1  0
 14 37  1  0
 16 38  1  0
 18 39  1  0
 18 40  1  0
 19 41  1  0
 21 42  1  0
 21 43  1  0
 21 44  1  0
 23 45  1  0
 24 46  1  0
 25 47  1  0
 26 48  1  0
 27 49  1  0
 29 50  1  0
 29 51  1  0
 29 52  1  0
M  END
>  <smiles>  (4) 
CCN=c1nc(N=c2ccc(Sc3cncc(CNC(C)=O)c3)c[nH]2)[nH]cc1C

>  <score_type>  (4) 
oracle

>  <origin>  (4) 
adgpu

>  <m_score__min__energy>  (4) 
-9.4900000000000002

>  <m_primary>  (4) 
energy

$$$$
4:0
     RDKit          3D

 28 29  0  0  0  0  0  0  0  0999 V2000
   -9.1750   18.1850  -31.7550 C   0  0  0  0  0  0  0  0  0  0  0  0
   -8.5170   19.5310  -31.8930 C   0  0  0  0  0  0  0  0  0  0  0  0
   -7.3390   19.6720  -32.6090 C   0  0  0  0  0  0  0  0  0  0  0  0
   -6.7580   20.9360  -32.7160 C   0  0  0  0  0  0  0  0  0  0  0  0
   -7.3450   22.0470  -32.1160 C   0  0  0  0  0  0  0  0  0  0  0  0
   -6.5400   23.6120  -32.3020 S   0  0  0  0  0  0  0  0  0  0  0  0
   -5.1110   23.7760  -31.2480 C   0  0  0  0  0  0  0  0  0  0  0  0
   -5.0840   24.5880  -30.1340 C   0  0  0  0  0  0  0  0  0  0  0  0
   -6.4930   25.5060  -29.7140 Cl  0  0  0  0  0  0  0  0  0  0  0  0
   -3.9410   24.6420  -29.3940 N   0  0  0  0  0  0  0  0  0  0  0  0
   -2.8460   23.9210  -29.7310 C   0  0  0  0  0  0  0  0  0  0  0  0
   -1.7600   23.9840  -29.0110 N   0  0  0  0  0  0  0  0  0  0  0  0
   -2.8770   23.1200  -30.8330 N   0  0  0  0  0  0  0  0  0  0  0  0
   -3.9900   23.0450  -31.5840 C   0  0  0  0  0  0  0  0  0  0  0  0
   -3.9690   22.2590  -32.6330 N   0  0  0  0  0  0  0  0  0  0  0  0
   -8.5240   21.8780  -31.4060 C   0  0  0  0  0  0  0  0  0  0  0  0
   -9.1060   20.6150  -31.2970 C   0  0  0  0  0  0  0  0  0  0  0  0
   -9.2936   17.9424  -30.6886 H   0  0  0  0  0  0  0  0  0  0  0  0
  -10.1631   18.2087  -32.2377 H   0  0  0  0  0  0  0  0  0  0  0  0
   -8.5494   17.4198  -32.2377 H   0  0  0  0  0  0  0  0  0  0  0  0
   -6.8686   18.7997  -33.0863 H   0  0  0  0  0  0  0  0  0  0  0  0
   -5.8228   21.0566  -33.2825 H   0  0  0  0  0  0  0  0  0  0  0  0
   -3.9050   25.2510  -28.5490 H   0  0  0  0  0  0  0  0  0  0  0  0
   -0.9240   23.4280  -29.2760 H   0  0  0  0  0  0  0  0  0  0  0  0
   -2.0310   22.5720  -31.0790 H   0  0  0  0  0  0  0  0  0  0  0  0
   -4.8450   22.2250  -33.1910 H   0  0  0  0  0  0  0  0  0  0  0  0
   -9.0028   22.7444  -30.9262 H   0  0  0  0  0  0  0  0  0  0  0  0
  -10.0406   20.4889  -30.7308 H   0  0  0  0  0  0  0  0  0  0  0  0
  1  2  1  0
  2  3  2  0
  3  4  1  0
  4  5  2  0
  5  6  1  0
  6  7  1  0
  7  8  2  0
  8  9  1  0
  8 10  1  0
 10 11  1  0
 11 12  2  3
 11 13  1  0
 13 14  1  0
 14 15  2  3
  5 16  1  0
 16 17  2  0
 17  2  1  0
 14  7  1  0
  1 18  1  0
  1 19  1  0
  1 20  1  0
  3 21  1  0
  4 22  1  0
 10 23  1  0
 12 24  1  0
 13 25  1  0
 15 26  1  0
 16 27  1  0
 17 28  1  0
M  END
>  <smiles>  (5) 
Cc1ccc(Sc2c(Cl)[nH]c(=N)[nH]c2=N)cc1

>  <score_type>  (5) 
oracle

>  <origin>  (5) 
adgpu

>  <m_score__min__energy>  (5) 
-7.2400000000000002

>  <m_primary>  (5) 
energy

$$$$
5:0
     RDKit          3D

 38 39  0  0  0  0  0  0  0  0999 V2000
   -4.2520   16.9220  -34.9740 C   0  0  0  0  0  0  0  0  0  0  0  0
   -5.3400   17.6440  -34.2370 C   0  0  0  0  0  0  0  0  0  0  0  0
   -5.3870   19.0420  -34.2350 C   0  0  0  0  0  0  0  0  0  0  0  0
   -6.3660   19.7180  -33.5030 C   0  0  0  0  0  0  0  0  0  0  0  0
   -7.3080   19.0100  -32.7200 C   0  0  0  0  0  0  0  0  0  0  0  0
   -8.3870   19.7190  -31.8720 C   0  0  0  0  0  0  0  0  0  0  0  0
   -9.0960   18.6460  -31.0180 C   0  0  0  0  0  0  0  0  0  0  0  0
   -9.4910   20.3990  -32.7240 C   0  0  0  0  0  0  0  0  0  0  0  0
   -7.7900   20.7150  -30.9390 N   0  0  0  0  0  0  0  0  0  0  0  0
   -8.0250   22.1460  -31.2210 C   0  0  0  0  0  0  0  0  0  0  0  0
   -6.7830   22.9880  -31.0690 C   0  0  0  0  0  0  0  0  0  0  0  0
   -5.5200   22.4490  -31.3590 C   0  0  0  0  0  0  0  0  0  0  0  0
   -4.3840   23.2540  -31.2420 C   0  0  0  0  0  0  0  0  0  0  0  0
   -4.5030   24.5480  -30.8400 N   0  0  0  0  0  0  0  0  0  0  0  0
   -5.7120   25.0920  -30.5390 C   0  0  0  0  0  0  0  0  0  0  0  0
   -6.8730   24.3210  -30.6420 C   0  0  0  0  0  0  0  0  0  0  0  0
   -7.2610   17.5990  -32.7560 C   0  0  0  0  0  0  0  0  0  0  0  0
   -6.2800   16.9270  -33.4890 C   0  0  0  0  0  0  0  0  0  0  0  0
   -3.5612   16.4636  -34.2511 H   0  0  0  0  0  0  0  0  0  0  0  0
   -4.6949   16.1380  -35.6058 H   0  0  0  0  0  0  0  0  0  0  0  0
   -3.7017   17.6347  -35.6058 H   0  0  0  0  0  0  0  0  0  0  0  0
   -4.6471   19.6136  -34.8145 H   0  0  0  0  0  0  0  0  0  0  0  0
   -6.4051   20.8168  -33.5358 H   0  0  0  0  0  0  0  0  0  0  0  0
   -8.9481   18.8698  -29.9512 H   0  0  0  0  0  0  0  0  0  0  0  0
  -10.1719   18.6470  -31.2471 H   0  0  0  0  0  0  0  0  0  0  0  0
   -8.6732   17.6567  -31.2471 H   0  0  0  0  0  0  0  0  0  0  0  0
  -10.2368   20.8584  -32.0586 H   0  0  0  0  0  0  0  0  0  0  0  0
   -9.0384   21.1751  -33.3587 H   0  0  0  0  0  0  0  0  0  0  0  0
   -9.9805   19.6456  -33.3587 H   0  0  0  0  0  0  0  0  0  0  0  0
   -6.7700   20.5450  -30.7870 H   0  0  0  0  0  0  0  0  0  0  0  0
   -8.3910   22.2443  -32.2537 H   0  0  0  0  0  0  0  0  0  0  0  0
   -8.7607   22.5094  -30.4884 H   0  0  0  0  0  0  0  0  0  0  0  0
   -5.4251   21.4000  -31.6762 H   0  0  0  0  0  0  0  0  0  0  0  0
   -3.3917   22.8406  -31.4754 H   0  0  0  0  0  0  0  0  0  0  0  0
   -5.7765   26.1409  -30.2138 H   0  0  0  0  0  0  0  0  0  0  0  0
   -7.8511   24.7567  -30.3898 H   0  0  0  0  0  0  0  0  0  0  0  0
   -8.0101   17.0190  -32.1970 H   0  0  0  0  0  0  0  0  0  0  0  0
   -6.2464   15.8276  -33.4780 H   0  0  0  0  0  0  0  0  0  0  0  0
  1  2  1  0
  2  3  2  0
  3  4  1  0
  4  5  2  0
  5  6  1  0
  6  7  1  0
  6  8  1  0
  6  9  1  0
  9 10  1  0
 10 11  1  0
 11 12  2  0
 12 13  1  0
 13 14  2  0
 14 15  1  0
 15 16  2  0
  5 17  1  0
 17 18  2  0
 18  2  1  0
 16 11  1  0
  1 19  1  0
  1 20  1  0
  1 21  1  0
  3 22  1  0
  4 23  1  0
  7 24  1  0
  7 25  1  0
  7 26  1  0
  8 27  1  0
  8 28  1  0
  8 29  1  0
  9 30  1  0
 10 31  1  0
 10 32  1  0
 12 33  1  0
 13 34  1  0
 15 35  1  0
 16 36  1  0
 17 37  1  0
 18 38  1  0
M  END
>  <UniqueID>  (6) 
4

>  <SMILES>  (6) 
Cc1ccc(C(C)(C)NCc2ccncc2)cc1

>  <Energy>  (6) 
43.84998961622507

>  <Genealogy>  (6) 
Cc1ccc(C(C)(C)NCc2ccncc2)cc1 (3D coordinates assigned)
Cc1ccc(C(C)(C)NCc2ccncc2)cc1 (optimized conformer: 43.84998961622507 kcal/mol)

>  <smiles>  (6) 
Cc1ccc(C(C)(C)NCc2ccncc2)cc1

>  <score_type>  (6) 
oracle

>  <origin>  (6) 
adgpu

>  <m_score__min__energy>  (6) 
-7.5899999999999999

>  <m_primary>  (6) 
energy

$$$$
6:0
     RDKit          3D

 39 41  0  0  0  0  0  0  0  0999 V2000
   -1.0080   24.5230  -28.4530 C   0  0  0  0  0  0  0  0  0  0  0  0
   -2.0680   24.8290  -29.3530 O   0  0  0  0  0  0  0  0  0  0  0  0
   -2.8830   23.8710  -29.9780 C   0  0  0  0  0  0  0  0  0  0  0  0
   -2.5150   22.5150  -30.0570 C   0  0  0  0  0  0  0  0  0  0  0  0
   -3.3500   21.5910  -30.6860 C   0  0  0  0  0  0  0  0  0  0  0  0
   -4.5670   22.0000  -31.2490 C   0  0  0  0  0  0  0  0  0  0  0  0
   -5.4450   21.0150  -31.9120 C   0  0  0  0  0  0  0  0  0  0  0  0
   -6.6890   20.7030  -31.4780 N   0  0  0  0  0  0  0  0  0  0  0  0
   -7.1070   19.7810  -32.3640 C   0  0  0  0  0  0  0  0  0  0  0  0
   -8.4300   19.2160  -32.3560 C   0  0  0  0  0  0  0  0  0  0  0  0
   -9.4950   18.7630  -32.3510 N   0  0  0  0  0  0  0  0  0  0  0  0
   -6.1110   19.5700  -33.2950 C   0  0  0  0  0  0  0  0  0  0  0  0
   -6.1360   18.7040  -34.4380 N   0  0  0  0  0  0  0  0  0  0  0  0
   -5.5060   17.4160  -34.4860 C   0  0  0  0  0  0  0  0  0  0  0  0
   -4.2440   17.2910  -35.0870 C   0  0  0  0  0  0  0  0  0  0  0  0
   -3.6020   16.0500  -35.1310 C   0  0  0  0  0  0  0  0  0  0  0  0
   -4.2080   14.9280  -34.5600 C   0  0  0  0  0  0  0  0  0  0  0  0
   -5.4520   15.0480  -33.9340 C   0  0  0  0  0  0  0  0  0  0  0  0
   -6.0980   16.2870  -33.8870 C   0  0  0  0  0  0  0  0  0  0  0  0
   -7.2830   16.3910  -33.2350 F   0  0  0  0  0  0  0  0  0  0  0  0
   -5.1030   20.3490  -32.9970 O   0  0  0  0  0  0  0  0  0  0  0  0
   -4.9380   23.3530  -31.1710 C   0  0  0  0  0  0  0  0  0  0  0  0
   -4.0990   24.2920  -30.5370 C   0  0  0  0  0  0  0  0  0  0  0  0
   -4.4400   25.6510  -30.4420 O   0  0  0  0  0  0  0  0  0  0  0  0
   -5.7420   26.1370  -30.1330 C   0  0  0  0  0  0  0  0  0  0  0  0
   -1.3649   24.6260  -27.4176 H   0  0  0  0  0  0  0  0  0  0  0  0
   -0.6692   23.4904  -28.6230 H   0  0  0  0  0  0  0  0  0  0  0  0
   -0.1710   25.2162  -28.6230 H   0  0  0  0  0  0  0  0  0  0  0  0
   -1.5624   22.1812  -29.6198 H   0  0  0  0  0  0  0  0  0  0  0  0
   -3.0512   20.5338  -30.7406 H   0  0  0  0  0  0  0  0  0  0  0  0
   -6.6640   19.0280  -35.2790 H   0  0  0  0  0  0  0  0  0  0  0  0
   -3.7573   18.1745  -35.5259 H   0  0  0  0  0  0  0  0  0  0  0  0
   -2.6189   15.9567  -35.6156 H   0  0  0  0  0  0  0  0  0  0  0  0
   -3.7061   13.9501  -34.6031 H   0  0  0  0  0  0  0  0  0  0  0  0
   -5.9238   14.1655  -33.4773 H   0  0  0  0  0  0  0  0  0  0  0  0
   -5.8919   23.6826  -31.6086 H   0  0  0  0  0  0  0  0  0  0  0  0
   -5.8664   26.1835  -29.0410 H   0  0  0  0  0  0  0  0  0  0  0  0
   -5.8687   27.1430  -30.5596 H   0  0  0  0  0  0  0  0  0  0  0  0
   -6.4969   25.4601  -30.5596 H   0  0  0  0  0  0  0  0  0  0  0  0
  1  2  1  0
  2  3  1  0
  3  4  2  0
  4  5  1  0
  5  6  2  0
  6  7  1  0
  7  8  2  0
  8  9  1  0
  9 10  1  0
 10 11  3  0
  9 12  2  0
 12 13  1  0
 13 14  1  0
 14 15  2  0
 15 16  1  0
 16 17  2  0
 17 18  1  0
 18 19  2  0
 19 20  1  0
 12 21  1  0
  6 22  1  0
 22 23  2  0
 23 24  1  0
 24 25  1  0
 23  3  1  0
 21  7  1  0
 19 14  1  0
  1 26  1  0
  1 27  1  0
  1 28  1  0
  4 29  1  0
  5 30  1  0
 13 31  1  0
 15 32  1  0
 16 33  1  0
 17 34  1  0
 18 35  1  0
 22 36  1  0
 25 37  1  0
 25 38  1  0
 25 39  1  0
M  END
>  <UniqueID>  (7) 
5

>  <SMILES>  (7) 
COc1ccc(-c2nc(C#N)c(Nc3ccccc3F)o2)cc1OC

>  <Energy>  (7) 
77.15475427011616

>  <Genealogy>  (7) 
COc1ccc(-c2nc(C#N)c(Nc3ccccc3F)o2)cc1OC (3D coordinates assigned)
COc1ccc(-c2nc(C#N)c(Nc3ccccc3F)o2)cc1OC (optimized conformer: 77.15475427011616 kcal/mol)

>  <smiles>  (7) 
COc1ccc(-c2nc(C#N)c(Nc3ccccc3F)o2)cc1OC

>  <score_type>  (7) 
oracle

>  <origin>  (7) 
adgpu

>  <m_score__min__energy>  (7) 
-8.1099999999999994

>  <m_primary>  (7) 
energy

$$$$
7:0
     RDKit          3D

 39 40  0  0  0  0  0  0  0  0999 V2000
   -0.3180   20.1230  -27.8780 C   0  0  0  0  0  0  0  0  0  0  0  0
   -1.7360   20.4910  -27.7690 N   0  0  0  0  0  0  0  0  0  0  0  0
   -2.6290   19.6490  -26.9660 C   0  0  0  0  0  0  0  0  0  0  0  0
   -2.2450   21.6710  -28.4450 C   0  0  0  0  0  0  0  0  0  0  0  0
   -2.7190   22.7780  -27.7120 C   0  0  0  0  0  0  0  0  0  0  0  0
   -3.2070   23.9150  -28.3630 C   0  0  0  0  0  0  0  0  0  0  0  0
   -3.2200   23.9780  -29.7660 C   0  0  0  0  0  0  0  0  0  0  0  0
   -3.7290   25.1170  -30.4750 N   0  0  0  0  0  0  0  0  0  0  0  0
   -5.0910   25.5630  -30.5080 C   0  0  0  0  0  0  0  0  0  0  0  0
   -5.3710   26.7910  -30.4650 O   0  0  0  0  0  0  0  0  0  0  0  0
   -6.1880   24.5610  -30.7020 C   0  0  0  0  0  0  0  0  0  0  0  0
   -5.9580   23.7060  -31.9540 C   0  0  0  0  0  0  0  0  0  0  0  0
   -6.9170   22.5450  -32.0220 C   0  0  0  0  0  0  0  0  0  0  0  0
   -6.5120   21.3180  -32.5740 C   0  0  0  0  0  0  0  0  0  0  0  0
   -7.4160   20.2550  -32.6670 C   0  0  0  0  0  0  0  0  0  0  0  0
   -8.7280   20.4090  -32.2150 C   0  0  0  0  0  0  0  0  0  0  0  0
   -9.1420   21.6290  -31.6710 C   0  0  0  0  0  0  0  0  0  0  0  0
   -8.2420   22.6950  -31.5770 C   0  0  0  0  0  0  0  0  0  0  0  0
   -2.7760   22.8750  -30.5010 C   0  0  0  0  0  0  0  0  0  0  0  0
   -2.2870   21.7380  -29.8540 C   0  0  0  0  0  0  0  0  0  0  0  0
    0.1104   20.0118  -26.8710 H   0  0  0  0  0  0  0  0  0  0  0  0
   -0.2269   19.1715  -28.4223 H   0  0  0  0  0  0  0  0  0  0  0  0
    0.2243   20.9102  -28.4223 H   0  0  0  0  0  0  0  0  0  0  0  0
   -2.4391   19.8280  -25.8974 H   0  0  0  0  0  0  0  0  0  0  0  0
   -3.6750   19.8972  -27.1992 H   0  0  0  0  0  0  0  0  0  0  0  0
   -2.4427   18.5903  -27.1992 H   0  0  0  0  0  0  0  0  0  0  0  0
   -2.7047   22.7468  -26.6125 H   0  0  0  0  0  0  0  0  0  0  0  0
   -3.5826   24.7644  -27.7735 H   0  0  0  0  0  0  0  0  0  0  0  0
   -6.2288   23.9018  -29.8223 H   0  0  0  0  0  0  0  0  0  0  0  0
   -7.1342   25.1075  -30.8282 H   0  0  0  0  0  0  0  0  0  0  0  0
   -6.0967   24.3353  -32.8455 H   0  0  0  0  0  0  0  0  0  0  0  0
   -4.9354   23.3031  -31.9102 H   0  0  0  0  0  0  0  0  0  0  0  0
   -5.4802   21.1931  -32.9343 H   0  0  0  0  0  0  0  0  0  0  0  0
   -7.0927   19.2956  -33.0971 H   0  0  0  0  0  0  0  0  0  0  0  0
   -9.4363   19.5704  -32.2868 H   0  0  0  0  0  0  0  0  0  0  0  0
  -10.1764   21.7501  -31.3168 H   0  0  0  0  0  0  0  0  0  0  0  0
   -8.5721   23.6549  -31.1531 H   0  0  0  0  0  0  0  0  0  0  0  0
   -2.8121   22.9028  -31.6001 H   0  0  0  0  0  0  0  0  0  0  0  0
   -1.9304   20.8847  -30.4496 H   0  0  0  0  0  0  0  0  0  0  0  0
  1  2  1  0
  2  3  1  0
  2  4  1  0
  4  5  2  0
  5  6  1  0
  6  7  2  0
  7  8  1  0
  8  9  1  0
  9 10  2  0
  9 11  1  0
 11 12  1  0
 12 13  1  0
 13 14  2  0
 14 15  1  0
 15 16  2  0
 16 17  1  0
 17 18  2  0
  7 19  1  0
 19 20  2  0
 20  4  1  0
 18 13  1  0
  1 21  1  0
  1 22  1  0
  1 23  1  0
  3 24  1  0
  3 25  1  0
  3 26  1  0
  5 27  1  0
  6 28  1  0
 11 29  1  0
 11 30  1  0
 12 31  1  0
 12 32  1  0
 14 33  1  0
 15 34  1  0
 16 35  1  0
 17 36  1  0
 18 37  1  0
 19 38  1  0
 20 39  1  0
M  CHG  1   8  -1
M  END
>  <UniqueID>  (8) 
6

>  <SMILES>  (8) 
CN(C)c1ccc([N-]C(=O)CCc2ccccc2)cc1

>  <Energy>  (8) 
39.944191679917864

>  <Genealogy>  (8) 
CN(C)c1ccc([N-]C(=O)CCc2ccccc2)cc1 (protonated)
CN(C)c1ccc([N-]C(=O)CCc2ccccc2)cc1 (3D coordinates assigned)
CN(C)c1ccc([N-]C(=O)CCc2ccccc2)cc1 (optimized conformer: 39.944191679917864 kcal/mol)

>  <smiles>  (8) 
CN(C)c1ccc(NC(=O)CCc2ccccc2)cc1

>  <score_type>  (8) 
oracle

>  <origin>  (8) 
adgpu

>  <m_score__min__energy>  (8) 
-9.0600000000000005

>  <m_primary>  (8) 
energy

$$$$
8:0
     RDKit          3D

 46 50  0  0  0  0  0  0  0  0999 V2000
    0.5630   23.1290  -27.4130 O   0  0  0  0  0  0  0  0  0  0  0  0
   -0.4740   23.8280  -27.2480 C   0  0  0  0  0  0  0  0  0  0  0  0
   -0.5590   24.7170  -26.0770 C   0  0  0  0  0  0  0  0  0  0  0  0
   -0.7910   26.0880  -26.1190 C   0  0  0  0  0  0  0  0  0  0  0  0
   -0.8710   26.6740  -24.8500 C   0  0  0  0  0  0  0  0  0  0  0  0
   -0.7200   25.7700  -23.8070 C   0  0  0  0  0  0  0  0  0  0  0  0
   -0.4920   24.2410  -24.4650 S   0  0  0  0  0  0  0  0  0  0  0  0
   -1.5600   23.7420  -28.2430 C   0  0  0  0  0  0  0  0  0  0  0  0
   -2.0210   24.7800  -29.0250 C   0  0  0  0  0  0  0  0  0  0  0  0
   -1.6150   26.1070  -28.9600 O   0  0  0  0  0  0  0  0  0  0  0  0
   -2.9610   24.2640  -29.8810 C   0  0  0  0  0  0  0  0  0  0  0  0
   -3.6830   25.0200  -30.8040 O   0  0  0  0  0  0  0  0  0  0  0  0
   -3.0960   22.9330  -29.6840 N   0  0  0  0  0  0  0  0  0  0  0  0
   -3.8350   22.0200  -30.5130 C   0  0  0  0  0  0  0  0  0  0  0  0
   -5.1730   22.0760  -30.6750 N   0  0  0  0  0  0  0  0  0  0  0  0
   -5.6480   21.0570  -31.4450 C   0  0  0  0  0  0  0  0  0  0  0  0
   -7.1000   20.9260  -31.7410 C   0  0  0  0  0  0  0  0  0  0  0  0
   -7.5830   19.7670  -32.3780 C   0  0  0  0  0  0  0  0  0  0  0  0
   -8.9440   19.6270  -32.6680 C   0  0  0  0  0  0  0  0  0  0  0  0
   -9.8410   20.6400  -32.3240 C   0  0  0  0  0  0  0  0  0  0  0  0
   -9.3790   21.7920  -31.6870 C   0  0  0  0  0  0  0  0  0  0  0  0
   -8.0190   21.9380  -31.3950 C   0  0  0  0  0  0  0  0  0  0  0  0
   -4.6640   20.1660  -31.8880 C   0  0  0  0  0  0  0  0  0  0  0  0
   -3.1790   20.6830  -31.2920 S   0  0  0  0  0  0  0  0  0  0  0  0
   -2.2470   22.6060  -28.6740 C   0  0  0  0  0  0  0  0  0  0  0  0
   -1.9360   21.2220  -28.2570 C   0  0  0  0  0  0  0  0  0  0  0  0
   -0.7650   20.5960  -28.7110 C   0  0  0  0  0  0  0  0  0  0  0  0
   -0.4530   19.3000  -28.2920 C   0  0  0  0  0  0  0  0  0  0  0  0
   -1.3030   18.6240  -27.4130 C   0  0  0  0  0  0  0  0  0  0  0  0
   -2.4660   19.2460  -26.9490 C   0  0  0  0  0  0  0  0  0  0  0  0
   -2.7790   20.5420  -27.3650 C   0  0  0  0  0  0  0  0  0  0  0  0
   -0.9006   26.6548  -27.0553 H   0  0  0  0  0  0  0  0  0  0  0  0
   -1.0379   27.7500  -24.6939 H   0  0  0  0  0  0  0  0  0  0  0  0
   -0.7453   26.0131  -22.7345 H   0  0  0  0  0  0  0  0  0  0  0  0
   -3.2360   25.4910  -31.5790 H   0  0  0  0  0  0  0  0  0  0  0  0
   -6.8828   18.9635  -32.6503 H   0  0  0  0  0  0  0  0  0  0  0  0
   -9.3082   18.7174  -33.1679 H   0  0  0  0  0  0  0  0  0  0  0  0
  -10.9108   20.5300  -32.5550 H   0  0  0  0  0  0  0  0  0  0  0  0
  -10.0868   22.5883  -31.4134 H   0  0  0  0  0  0  0  0  0  0  0  0
   -7.6636   22.8492  -30.8916 H   0  0  0  0  0  0  0  0  0  0  0  0
   -4.8329   19.2800  -32.5177 H   0  0  0  0  0  0  0  0  0  0  0  0
   -0.0906   21.1272  -29.3988 H   0  0  0  0  0  0  0  0  0  0  0  0
    0.4632   18.8112  -28.6548 H   0  0  0  0  0  0  0  0  0  0  0  0
   -1.0573   17.6028  -27.0862 H   0  0  0  0  0  0  0  0  0  0  0  0
   -3.1348   18.7144  -26.2560 H   0  0  0  0  0  0  0  0  0  0  0  0
   -3.6904   21.0318  -26.9917 H   0  0  0  0  0  0  0  0  0  0  0  0
  1  2  2  0
  2  3  1  0
  3  4  2  0
  4  5  1  0
  5  6  2  0
  6  7  1  0
  2  8  1  0
  8  9  1  0
  9 10  1  0
  9 11  2  0
 11 12  1  0
 11 13  1  0
 13 14  1  0
 14 15  2  0
 15 16  1  0
 16 17  1  0
 17 18  2  0
 18 19  1  0
 19 20  2  0
 20 21  1  0
 21 22  2  0
 16 23  2  0
 23 24  1  0
 13 25  1  0
 25 26  1  0
 26 27  2  0
 27 28  1  0
 28 29  2  0
 29 30  1  0
 30 31  2  0
  7  3  1  0
 25  8  2  0
 31 26  1  0
 24 14  1  0
 22 17  1  0
  4 32  1  0
  5 33  1  0
  6 34  1  0
 12 35  1  0
 18 36  1  0
 19 37  1  0
 20 38  1  0
 21 39  1  0
 22 40  1  0
 23 41  1  0
 27 42  1  0
 28 43  1  0
 29 44  1  0
 30 45  1  0
 31 46  1  0
M  CHG  1  10  -1
M  END
>  <UniqueID>  (9) 
7

>  <SMILES>  (9) 
O=C(c1cccs1)c1c([O-])c(O)n(-c2nc(-c3ccccc3)cs2)c1-c1ccccc1

>  <Energy>  (9) 
154.09651248574244

>  <Genealogy>  (9) 
O=C(c1cccs1)c1c([O-])c(O)n(-c2nc(-c3ccccc3)cs2)c1-c1ccccc1 (protonated)
O=C(c1cccs1)c1c([O-])c(O)n(-c2nc(-c3ccccc3)cs2)c1-c1ccccc1 (3D coordinates assigned)
O=C(c1cccs1)c1c([O-])c(O)n(-c2nc(-c3ccccc3)cs2)c1-c1ccccc1 (optimized conformer: 154.09651248574244 kcal/mol)

>  <smiles>  (9) 
O=C(c1cccs1)c1c(O)c(O)n(-c2nc(-c3ccccc3)cs2)c1-c1ccccc1

>  <score_type>  (9) 
oracle

>  <origin>  (9) 
adgpu

>  <m_score__min__energy>  (9) 
-13.869999999999999

>  <m_primary>  (9) 
energy

$$$$
9:0
     RDKit          3D

 42 43  0  0  0  0  0  0  0  0999 V2000
   -3.2020   16.3370  -33.1260 C   0  0  0  0  0  0  0  0  0  0  0  0
   -3.1250   17.6740  -33.8540 C   0  0  0  0  0  0  0  0  0  0  0  0
   -4.2380   18.5450  -33.4590 N   0  0  0  0  0  0  0  0  0  0  0  0
   -3.9970   19.7790  -32.7600 C   0  0  0  0  0  0  0  0  0  0  0  0
   -4.0680   19.8300  -31.3590 C   0  0  0  0  0  0  0  0  0  0  0  0
   -3.8200   21.0290  -30.6820 C   0  0  0  0  0  0  0  0  0  0  0  0
   -3.4780   22.1900  -31.3980 C   0  0  0  0  0  0  0  0  0  0  0  0
   -3.2350   23.4450  -30.7450 N   0  0  0  0  0  0  0  0  0  0  0  0
   -4.2080   24.4510  -30.4390 C   0  0  0  0  0  0  0  0  0  0  0  0
   -5.4930   24.0600  -29.7910 C   0  0  0  0  0  0  0  0  0  0  0  0
   -4.0020   25.6610  -30.7270 O   0  0  0  0  0  0  0  0  0  0  0  0
   -3.4290   22.1410  -32.7960 C   0  0  0  0  0  0  0  0  0  0  0  0
   -3.6780   20.9440  -33.4730 C   0  0  0  0  0  0  0  0  0  0  0  0
   -5.8640   18.0800  -33.8650 S   0  0  0  0  0  0  0  0  0  0  0  0
   -6.0980   18.2350  -35.3420 O   0  0  0  0  0  0  0  0  0  0  0  0
   -6.0680   16.6400  -33.4830 O   0  0  0  0  0  0  0  0  0  0  0  0
   -7.0020   19.1160  -33.0120 C   0  0  0  0  0  0  0  0  0  0  0  0
   -8.0450   18.5410  -32.2750 C   0  0  0  0  0  0  0  0  0  0  0  0
   -8.9610   19.3530  -31.6010 C   0  0  0  0  0  0  0  0  0  0  0  0
   -8.8340   20.7500  -31.6430 C   0  0  0  0  0  0  0  0  0  0  0  0
   -9.8410   21.6200  -30.9500 C   0  0  0  0  0  0  0  0  0  0  0  0
   -7.7970   21.3250  -32.3930 C   0  0  0  0  0  0  0  0  0  0  0  0
   -6.8810   20.5130  -33.0680 C   0  0  0  0  0  0  0  0  0  0  0  0
   -3.1920   16.5099  -32.0397 H   0  0  0  0  0  0  0  0  0  0  0  0
   -4.1314   15.8198  -33.4065 H   0  0  0  0  0  0  0  0  0  0  0  0
   -2.3381   15.7165  -33.4065 H   0  0  0  0  0  0  0  0  0  0  0  0
   -2.1742   18.1672  -33.6036 H   0  0  0  0  0  0  0  0  0  0  0  0
   -3.1866   17.4909  -34.9369 H   0  0  0  0  0  0  0  0  0  0  0  0
   -4.3199   18.9226  -30.7905 H   0  0  0  0  0  0  0  0  0  0  0  0
   -3.8928   21.0637  -29.5850 H   0  0  0  0  0  0  0  0  0  0  0  0
   -5.3778   24.0950  -28.6976 H   0  0  0  0  0  0  0  0  0  0  0  0
   -6.2860   24.7575  -30.0987 H   0  0  0  0  0  0  0  0  0  0  0  0
   -5.7630   23.0390  -30.0987 H   0  0  0  0  0  0  0  0  0  0  0  0
   -3.1927   23.0516  -33.3661 H   0  0  0  0  0  0  0  0  0  0  0  0
   -3.6235   20.9153  -34.5713 H   0  0  0  0  0  0  0  0  0  0  0  0
   -8.1434   17.4465  -32.2266 H   0  0  0  0  0  0  0  0  0  0  0  0
   -9.7855   18.8951  -31.0349 H   0  0  0  0  0  0  0  0  0  0  0  0
   -9.7246   21.5195  -29.8608 H   0  0  0  0  0  0  0  0  0  0  0  0
   -9.6812   22.6688  -31.2406 H   0  0  0  0  0  0  0  0  0  0  0  0
  -10.8555   21.3096  -31.2406 H   0  0  0  0  0  0  0  0  0  0  0  0
   -7.7044   22.4196  -32.4501 H   0  0  0  0  0  0  0  0  0  0  0  0
   -6.0633   20.9702  -33.6445 H   0  0  0  0  0  0  0  0  0  0  0  0
  1  2  1  0
  2  3  1  0
  3  4  1  0
  4  5  2  0
  5  6  1  0
  6  7  2  0
  7  8  1  0
  8  9  1  0
  9 10  1  0
  9 11  2  0
  7 12  1  0
 12 13  2  0
  3 14  1  0
 14 15  2  0
 14 16  2  0
 14 17  1  0
 17 18  2  0
 18 19  1  0
 19 20  2  0
 20 21  1  0
 20 22  1  0
 22 23  2  0
 13  4  1  0
 23 17  1  0
  1 24  1  0
  1 25  1  0
  1 26  1  0
  2 27  1  0
  2 28  1  0
  5 29  1  0
  6 30  1  0
 10 31  1  0
 10 32  1  0
 10 33  1  0
 12 34  1  0
 13 35  1  0
 18 36  1  0
 19 37  1  0
 21 38  1  0
 21 39  1  0
 21 40  1  0
 22 41  1  0
 23 42  1  0
M  CHG  1   8  -1
M  END
>  <UniqueID>  (10) 
8

>  <SMILES>  (10) 
CCN(c1ccc([N-]C(C)=O)cc1)S(=O)(=O)c1ccc(C)cc1

>  <Energy>  (10) 
44.952074663114416

>  <Genealogy>  (10) 
CCN(c1ccc([N-]C(C)=O)cc1)S(=O)(=O)c1ccc(C)cc1 (protonated)
CCN(c1ccc([N-]C(C)=O)cc1)S(=O)(=O)c1ccc(C)cc1 (3D coordinates assigned)
CCN(c1ccc([N-]C(C)=O)cc1)S(=O)(=O)c1ccc(C)cc1 (optimized conformer: 44.952074663114416 kcal/mol)

>  <smiles>  (10) 
CCN(c1ccc(NC(C)=O)cc1)S(=O)(=O)c1ccc(C)cc1

>  <score_type>  (10) 
oracle

>  <origin>  (10) 
adgpu

>  <m_score__min__energy>  (10) 
-9.4600000000000009

>  <m_primary>  (10) 
energy

$$$$
10:0
     RDKit          3D

 27 28  0  0  0  0  0  0  0  0999 V2000
   -6.5380   18.5250  -32.0070 C   0  0  0  0  0  0  0  0  0  0  0  0
   -7.7950   19.2380  -31.7660 N   0  0  0  0  0  0  0  0  0  0  0  0
   -9.0520   18.5000  -31.6110 C   0  0  0  0  0  0  0  0  0  0  0  0
   -7.7970   20.6760  -31.6840 C   0  0  0  0  0  0  0  0  0  0  0  0
   -8.9050   21.3840  -32.0340 N   0  0  0  0  0  0  0  0  0  0  0  0
   -8.9250   22.7390  -31.9580 C   0  0  0  0  0  0  0  0  0  0  0  0
   -7.7980   23.4300  -31.5180 C   0  0  0  0  0  0  0  0  0  0  0  0
   -6.6530   22.6990  -31.1660 C   0  0  0  0  0  0  0  0  0  0  0  0
   -5.4130   23.3620  -30.6830 C   0  0  0  0  0  0  0  0  0  0  0  0
   -4.9890   24.6070  -31.1770 C   0  0  0  0  0  0  0  0  0  0  0  0
   -3.8450   25.1720  -30.7150 N   0  0  0  0  0  0  0  0  0  0  0  0
   -3.0860   24.5520  -29.7730 C   0  0  0  0  0  0  0  0  0  0  0  0
   -2.0010   25.1050  -29.3410 N   0  0  0  0  0  0  0  0  0  0  0  0
   -3.4670   23.3430  -29.2860 N   0  0  0  0  0  0  0  0  0  0  0  0
   -4.6030   22.7390  -29.7220 C   0  0  0  0  0  0  0  0  0  0  0  0
   -6.6890   21.3410  -31.2540 N   0  0  0  0  0  0  0  0  0  0  0  0
   -6.0750   18.2624  -31.0443 H   0  0  0  0  0  0  0  0  0  0  0  0
   -6.7407   17.6074  -32.5788 H   0  0  0  0  0  0  0  0  0  0  0  0
   -5.8545   19.1699  -32.5788 H   0  0  0  0  0  0  0  0  0  0  0  0
   -9.2719   18.3709  -30.5410 H   0  0  0  0  0  0  0  0  0  0  0  0
   -9.8684   19.0622  -32.0879 H   0  0  0  0  0  0  0  0  0  0  0  0
   -8.9590   17.5131  -32.0879 H   0  0  0  0  0  0  0  0  0  0  0  0
   -9.8318   23.2921  -32.2440 H   0  0  0  0  0  0  0  0  0  0  0  0
   -7.8056   24.5277  -31.4479 H   0  0  0  0  0  0  0  0  0  0  0  0
   -5.5866   25.1257  -31.9411 H   0  0  0  0  0  0  0  0  0  0  0  0
   -1.6810   26.0340  -29.6980 H   0  0  0  0  0  0  0  0  0  0  0  0
   -4.8892   21.7562  -29.3193 H   0  0  0  0  0  0  0  0  0  0  0  0
  1  2  1  0
  2  3  1  0
  2  4  1  0
  4  5  2  0
  5  6  1  0
  6  7  2  0
  7  8  1  0
  8  9  1  0
  9 10  1  0
 10 11  2  0
 11 12  1  0
 12 13  2  3
 12 14  1  0
 14 15  1  0
  8 16  2  0
 16  4  1  0
 15  9  2  0
  1 17  1  0
  1 18  1  0
  1 19  1  0
  3 20  1  0
  3 21  1  0
  3 22  1  0
  6 23  1  0
  7 24  1  0
 10 25  1  0
 13 26  1  0
 15 27  1  0
M  CHG  1  14  -1
M  END
>  <UniqueID>  (11) 
9

>  <SMILES>  (11) 
CN(C)c1nccc(-c2cnc(=N)[n-]c2)n1

>  <Energy>  (11) 
29.864965050996613

>  <Genealogy>  (11) 
CN(C)c1nccc(-c2cnc(=N)[n-]c2)n1 (protonated)
CN(C)c1nccc(-c2cnc(=N)[n-]c2)n1 (3D coordinates assigned)
CN(C)c1nccc(-c2cnc(=N)[n-]c2)n1 (optimized conformer: 29.864965050996613 kcal/mol)

>  <smiles>  (11) 
CN(C)c1nccc(-c2cnc(=N)[nH]c2)n1

>  <score_type>  (11) 
oracle

>  <origin>  (11) 
adgpu

>  <m_score__min__energy>  (11) 
-7.9900000000000002

>  <m_primary>  (11) 
energy

$$$$
11:0
     RDKit          3D

 38 40  0  0  0  0  0  0  0  0999 V2000
   -6.3360   18.4290  -33.6940 C   0  0  0  0  0  0  0  0  0  0  0  0
   -7.5950   18.7210  -33.0920 O   0  0  0  0  0  0  0  0  0  0  0  0
   -7.8930   19.9150  -32.4200 C   0  0  0  0  0  0  0  0  0  0  0  0
   -9.2350   20.2940  -32.3000 C   0  0  0  0  0  0  0  0  0  0  0  0
   -9.5810   21.4730  -31.6380 C   0  0  0  0  0  0  0  0  0  0  0  0
   -8.5880   22.2910  -31.0910 C   0  0  0  0  0  0  0  0  0  0  0  0
   -7.2350   21.9320  -31.2040 C   0  0  0  0  0  0  0  0  0  0  0  0
   -6.2030   22.7620  -30.6390 N   0  0  0  0  0  0  0  0  0  0  0  0
   -5.6740   22.6310  -29.4020 C   0  0  0  0  0  0  0  0  0  0  0  0
   -4.6510   23.5500  -29.2180 C   0  0  0  0  0  0  0  0  0  0  0  0
   -3.8110   23.7180  -28.0150 C   0  0  0  0  0  0  0  0  0  0  0  0
   -4.2820   23.4180  -26.8870 O   0  0  0  0  0  0  0  0  0  0  0  0
   -2.4490   24.1610  -28.0990 N   0  0  0  0  0  0  0  0  0  0  0  0
   -1.8520   25.2070  -27.3170 C   0  0  0  0  0  0  0  0  0  0  0  0
   -1.8300   25.1490  -25.9110 C   0  0  0  0  0  0  0  0  0  0  0  0
   -1.2570   26.1890  -25.1730 C   0  0  0  0  0  0  0  0  0  0  0  0
   -0.6810   27.2800  -25.8290 C   0  0  0  0  0  0  0  0  0  0  0  0
   -0.6690   27.3270  -27.2260 C   0  0  0  0  0  0  0  0  0  0  0  0
   -1.2470   26.2920  -27.9700 C   0  0  0  0  0  0  0  0  0  0  0  0
   -1.2300   26.3530  -29.3590 O   0  0  0  0  0  0  0  0  0  0  0  0
   -4.5780   24.2790  -30.3900 C   0  0  0  0  0  0  0  0  0  0  0  0
   -3.6920   25.3160  -30.6650 O   0  0  0  0  0  0  0  0  0  0  0  0
   -5.5330   23.7680  -31.2410 C   0  0  0  0  0  0  0  0  0  0  0  0
   -5.7510   24.1940  -32.5460 O   0  0  0  0  0  0  0  0  0  0  0  0
   -6.8950   20.7390  -31.8680 C   0  0  0  0  0  0  0  0  0  0  0  0
   -5.5856   18.2550  -32.9087 H   0  0  0  0  0  0  0  0  0  0  0  0
   -6.4284   17.5285  -34.3189 H   0  0  0  0  0  0  0  0  0  0  0  0
   -6.0226   19.2783  -34.3189 H   0  0  0  0  0  0  0  0  0  0  0  0
  -10.0226   19.6581  -32.7305 H   0  0  0  0  0  0  0  0  0  0  0  0
  -10.6390   21.7597  -31.5463 H   0  0  0  0  0  0  0  0  0  0  0  0
   -8.8673   23.2189  -30.5704 H   0  0  0  0  0  0  0  0  0  0  0  0
   -6.0067   21.9009  -28.6495 H   0  0  0  0  0  0  0  0  0  0  0  0
   -2.2650   24.2827  -25.3911 H   0  0  0  0  0  0  0  0  0  0  0  0
   -1.2596   26.1483  -24.0738 H   0  0  0  0  0  0  0  0  0  0  0  0
   -0.2374   28.1011  -25.2467 H   0  0  0  0  0  0  0  0  0  0  0  0
   -0.2040   28.1799  -27.7421 H   0  0  0  0  0  0  0  0  0  0  0  0
   -3.0620   25.6660  -29.9530 H   0  0  0  0  0  0  0  0  0  0  0  0
   -5.8380   20.4475  -31.9565 H   0  0  0  0  0  0  0  0  0  0  0  0
  1  2  1  0
  2  3  1  0
  3  4  2  0
  4  5  1  0
  5  6  2  0
  6  7  1  0
  7  8  1  0
  8  9  1  0
  9 10  2  0
 10 11  1  0
 11 12  2  0
 11 13  1  0
 13 14  1  0
 14 15  2  0
 15 16  1  0
 16 17  2  0
 17 18  1  0
 18 19  2  0
 19 20  1  0
 10 21  1  0
 21 22  1  0
 21 23  2  0
 23 24  1  0
  7 25  2  0
 25  3  1  0
 23  8  1  0
 19 14  1  0
  1 26  1  0
  1 27  1  0
  1 28  1  0
  4 29  1  0
  5 30  1  0
  6 31  1  0
  9 32  1  0
 15 33  1  0
 16 34  1  0
 17 35  1  0
 18 36  1  0
 22 37  1  0
 25 38  1  0
M  CHG  3  13  -1  20  -1  24  -1
M  END
>  <UniqueID>  (12) 
10

>  <SMILES>  (12) 
COc1cccc(-n2cc(C(=O)[N-]c3ccccc3[O-])c(O)c2[O-])c1

>  <Energy>  (12) 
78.0335879124392

>  <Genealogy>  (12) 
COc1cccc(-n2cc(C(=O)[N-]c3ccccc3[O-])c(O)c2[O-])c1 (protonated)
COc1cccc(-n2cc(C(=O)[N-]c3ccccc3[O-])c(O)c2[O-])c1 (3D coordinates assigned)
COc1cccc(-n2cc(C(=O)[N-]c3ccccc3[O-])c(O)c2[O-])c1 (optimized conformer: 78.0335879124392 kcal/mol)

>  <smiles>  (12) 
COc1cccc(-n2cc(C(=O)Nc3ccccc3O)c(O)c2O)c1

>  <score_type>  (12) 
oracle

>  <origin>  (12) 
adgpu

>  <m_score__min__energy>  (12) 
-12.380000000000001

>  <m_primary>  (12) 
energy

$$$$
12:0
     RDKit          3D

 37 39  0  0  0  0  0  0  0  0999 V2000
   -0.8970   22.3430  -26.2230 C   0  0  0  0  0  0  0  0  0  0  0  0
   -1.5830   23.1210  -27.3070 C   0  0  0  0  0  0  0  0  0  0  0  0
   -2.8650   22.7500  -27.7450 C   0  0  0  0  0  0  0  0  0  0  0  0
   -3.4910   23.4570  -28.7740 C   0  0  0  0  0  0  0  0  0  0  0  0
   -2.8530   24.5470  -29.3790 C   0  0  0  0  0  0  0  0  0  0  0  0
   -3.5250   25.2310  -30.4460 N   0  0  0  0  0  0  0  0  0  0  0  0
   -4.9420   25.2940  -30.6630 C   0  0  0  0  0  0  0  0  0  0  0  0
   -5.5690   26.3680  -30.4520 O   0  0  0  0  0  0  0  0  0  0  0  0
   -5.6800   24.0830  -31.0840 C   0  0  0  0  0  0  0  0  0  0  0  0
   -7.0740   23.9530  -30.8500 C   0  0  0  0  0  0  0  0  0  0  0  0
   -7.7470   22.8310  -31.2410 N   0  0  0  0  0  0  0  0  0  0  0  0
   -7.0600   21.8400  -31.8560 C   0  0  0  0  0  0  0  0  0  0  0  0
   -7.5780   20.6810  -32.2960 N   0  0  0  0  0  0  0  0  0  0  0  0
   -6.4650   20.0900  -32.8120 C   0  0  0  0  0  0  0  0  0  0  0  0
   -6.4770   18.7900  -33.4250 N   0  0  0  0  0  0  0  0  0  0  0  0
   -5.7300   18.5700  -34.6660 C   0  0  0  0  0  0  0  0  0  0  0  0
   -7.2350   17.7020  -32.8010 C   0  0  0  0  0  0  0  0  0  0  0  0
   -5.3410   20.8440  -32.6910 N   0  0  0  0  0  0  0  0  0  0  0  0
   -5.7530   21.9390  -32.0850 N   0  0  0  0  0  0  0  0  0  0  0  0
   -5.0170   23.0170  -31.7290 C   0  0  0  0  0  0  0  0  0  0  0  0
   -1.5540   24.8960  -28.9700 C   0  0  0  0  0  0  0  0  0  0  0  0
   -0.9240   24.1890  -27.9400 C   0  0  0  0  0  0  0  0  0  0  0  0
    0.3350   24.5370  -27.5680 F   0  0  0  0  0  0  0  0  0  0  0  0
   -1.2249   22.7149  -25.2411 H   0  0  0  0  0  0  0  0  0  0  0  0
   -1.1552   21.2778  -26.3166 H   0  0  0  0  0  0  0  0  0  0  0  0
    0.1921   22.4658  -26.3166 H   0  0  0  0  0  0  0  0  0  0  0  0
   -3.3786   21.8982  -27.2751 H   0  0  0  0  0  0  0  0  0  0  0  0
   -4.4933   23.1552  -29.1120 H   0  0  0  0  0  0  0  0  0  0  0  0
   -7.6187   24.7659  -30.3476 H   0  0  0  0  0  0  0  0  0  0  0  0
   -4.7004   18.2668  -34.4253 H   0  0  0  0  0  0  0  0  0  0  0  0
   -6.2181   17.7775  -35.2522 H   0  0  0  0  0  0  0  0  0  0  0  0
   -5.7106   19.5006  -35.2522 H   0  0  0  0  0  0  0  0  0  0  0  0
   -7.1722   17.7921  -31.7065 H   0  0  0  0  0  0  0  0  0  0  0  0
   -8.2878   17.7620  -33.1141 H   0  0  0  0  0  0  0  0  0  0  0  0
   -6.8139   16.7352  -33.1141 H   0  0  0  0  0  0  0  0  0  0  0  0
   -3.9375   23.0612  -31.9355 H   0  0  0  0  0  0  0  0  0  0  0  0
   -1.0304   25.7289  -29.4621 H   0  0  0  0  0  0  0  0  0  0  0  0
  1  2  1  0
  2  3  2  0
  3  4  1  0
  4  5  2  0
  5  6  1  0
  6  7  1  0
  7  8  2  0
  7  9  1  0
  9 10  1  0
 10 11  2  0
 11 12  1  0
 12 13  2  0
 13 14  1  0
 14 15  1  0
 15 16  1  0
 15 17  1  0
 14 18  2  0
 18 19  1  0
 19 20  1  0
  5 21  1  0
 21 22  2  0
 22 23  1  0
 22  2  1  0
 20  9  2  0
 19 12  1  0
  1 24  1  0
  1 25  1  0
  1 26  1  0
  3 27  1  0
  4 28  1  0
 10 29  1  0
 16 30  1  0
 16 31  1  0
 16 32  1  0
 17 33  1  0
 17 34  1  0
 17 35  1  0
 20 36  1  0
 21 37  1  0
M  CHG  1   6  -1
M  END
>  <UniqueID>  (13) 
11

>  <SMILES>  (13) 
Cc1ccc([N-]C(=O)c2cnc3nc(N(C)C)nn3c2)cc1F

>  <Energy>  (13) 
79.61877350490687

>  <Genealogy>  (13) 
Cc1ccc([N-]C(=O)c2cnc3nc(N(C)C)nn3c2)cc1F (protonated)
Cc1ccc([N-]C(=O)c2cnc3nc(N(C)C)nn3c2)cc1F (3D coordinates assigned)
Cc1ccc([N-]C(=O)c2cnc3nc(N(C)C)nn3c2)cc1F (optimized conformer: 79.61877350490687 kcal/mol)

>  <smiles>  (13) 
Cc1ccc(NC(=O)c2cnc3nc(N(C)C)nn3c2)cc1F

>  <score_type>  (13) 
oracle

>  <origin>  (13) 
adgpu

>  <m_score__min__energy>  (13) 
-9.0399999999999991

>  <m_primary>  (13) 
energy

$$$$
13:0
     RDKit          3D

 43 45  0  0  0  0  0  0  0  0999 V2000
   -1.4713   23.1014  -28.2113 H   0  0  0  0  0  0  0  0  0  0  0  0
   -2.3160   23.3880  -28.8550 C   0  0  0  0  0  0  0  0  0  0  0  0
   -3.2850   22.4490  -29.2190 C   0  0  0  0  0  0  0  0  0  0  0  0
   -3.1880   21.0350  -28.7430 C   0  0  0  0  0  0  0  0  0  0  0  0
   -3.1868   21.0176  -27.6431 H   0  0  0  0  0  0  0  0  0  0  0  0
   -4.0490   20.4621  -29.1178 H   0  0  0  0  0  0  0  0  0  0  0  0
   -2.2569   20.5850  -29.1178 H   0  0  0  0  0  0  0  0  0  0  0  0
   -4.3200   22.8260  -30.0160 N   0  0  0  0  0  0  0  0  0  0  0  0
   -4.4310   24.1050  -30.4700 C   0  0  0  0  0  0  0  0  0  0  0  0
   -5.4230   24.4620  -31.2310 N   0  0  0  0  0  0  0  0  0  0  0  0
   -6.4860   23.5700  -31.6890 C   0  0  0  0  0  0  0  0  0  0  0  0
   -7.0930   23.2588  -30.8260 H   0  0  0  0  0  0  0  0  0  0  0  0
   -7.1084   24.1076  -32.4195 H   0  0  0  0  0  0  0  0  0  0  0  0
   -5.8970   22.3270  -32.3640 C   0  0  0  0  0  0  0  0  0  0  0  0
   -5.6794   22.5565  -33.4176 H   0  0  0  0  0  0  0  0  0  0  0  0
   -4.9737   22.0416  -31.8385 H   0  0  0  0  0  0  0  0  0  0  0  0
   -6.8680   21.1790  -32.2980 C   0  0  0  0  0  0  0  0  0  0  0  0
   -8.2160   21.4100  -31.9820 C   0  0  0  0  0  0  0  0  0  0  0  0
   -8.5586   22.4306  -31.7563 H   0  0  0  0  0  0  0  0  0  0  0  0
   -9.1250   20.3480  -31.9530 C   0  0  0  0  0  0  0  0  0  0  0  0
  -10.1792   20.5337  -31.6995 H   0  0  0  0  0  0  0  0  0  0  0  0
   -8.6950   19.0500  -32.2460 C   0  0  0  0  0  0  0  0  0  0  0  0
   -9.4094   18.2141  -32.2168 H   0  0  0  0  0  0  0  0  0  0  0  0
   -7.3570   18.8150  -32.5760 C   0  0  0  0  0  0  0  0  0  0  0  0
   -7.0208   17.7945  -32.8117 H   0  0  0  0  0  0  0  0  0  0  0  0
   -6.4450   19.8750  -32.6070 C   0  0  0  0  0  0  0  0  0  0  0  0
   -5.3944   19.6875  -32.8738 H   0  0  0  0  0  0  0  0  0  0  0  0
   -3.4950   25.0270  -30.1190 N   0  0  0  0  0  0  0  0  0  0  0  0
   -2.4410   24.6960  -29.3240 C   0  0  0  0  0  0  0  0  0  0  0  0
   -1.4570   25.6720  -28.9580 N   0  0  0  0  0  0  0  0  0  0  0  0
   -0.4490   25.5140  -27.9500 C   0  0  0  0  0  0  0  0  0  0  0  0
    0.5590   24.7880  -28.1690 O   0  0  0  0  0  0  0  0  0  0  0  0
   -0.5900   26.2050  -26.6460 C   0  0  0  0  0  0  0  0  0  0  0  0
   -0.6870   25.4670  -25.4500 C   0  0  0  0  0  0  0  0  0  0  0  0
   -0.6571   24.3679  -25.4819 H   0  0  0  0  0  0  0  0  0  0  0  0
   -0.8210   26.1230  -24.2230 C   0  0  0  0  0  0  0  0  0  0  0  0
   -0.8952   25.5383  -23.2942 H   0  0  0  0  0  0  0  0  0  0  0  0
   -0.8610   27.5180  -24.1720 C   0  0  0  0  0  0  0  0  0  0  0  0
   -0.9680   28.0307  -23.2047 H   0  0  0  0  0  0  0  0  0  0  0  0
   -0.7650   28.2620  -25.3510 C   0  0  0  0  0  0  0  0  0  0  0  0
   -0.8200   30.1700  -25.2800 Br  0  0  0  0  0  0  0  0  0  0  0  0
   -0.6320   27.6110  -26.5830 C   0  0  0  0  0  0  0  0  0  0  0  0
   -0.5598   28.2017  -27.5081 H   0  0  0  0  0  0  0  0  0  0  0  0
  1  2  1  0
  2  3  1  0
  3  4  1  0
  4  5  1  0
  4  6  1  0
  4  7  1  0
  3  8  2  0
  8  9  1  0
  9 10  2  0
 10 11  1  0
 11 12  1  0
 11 13  1  0
 11 14  1  0
 14 15  1  0
 14 16  1  0
 14 17  1  0
 17 18  2  0
 18 19  1  0
 18 20  1  0
 20 21  1  0
 20 22  2  0
 22 23  1  0
 22 24  1  0
 24 25  1  0
 24 26  2  0
 26 27  1  0
  9 28  1  0
 28 29  1  0
 29 30  1  0
 30 31  1  0
 31 32  2  0
 31 33  1  0
 33 34  2  0
 34 35  1  0
 34 36  1  0
 36 37  1  0
 36 38  2  0
 38 39  1  0
 38 40  1  0
 40 41  1  0
 40 42  2  0
 42 43  1  0
 29  2  2  0
 42 33  1  0
 26 17  1  0
M  CHG  2  28  -1  30  -1
M  END
>  <UniqueID>  (14) 
12

>  <SMILES>  (14) 
Cc1cc([N-]C(=O)c2cccc(Br)c2)[n-]/c(=N/CCc2ccccc2)n1

>  <Energy>  (14) 
43.172703546444886

>  <Genealogy>  (14) 
Cc1cc([N-]C(=O)c2cccc(Br)c2)[n-]c(=NCCc2ccccc2)n1 (protonated)
Cc1cc([N-]C(=O)c2cccc(Br)c2)[n-]/c(=N/CCc2ccccc2)n1 (cis-trans isomerization)
Cc1cc([N-]C(=O)c2cccc(Br)c2)[n-]/c(=N/CCc2ccccc2)n1 (3D coordinates assigned)
Cc1cc([N-]C(=O)c2cccc(Br)c2)[n-]/c(=N/CCc2ccccc2)n1 (optimized conformer: 43.172703546444886 kcal/mol)

>  <smiles>  (14) 
Cc1cc(NC(=O)c2cccc(Br)c2)[nH]c(=NCCc2ccccc2)n1

>  <score_type>  (14) 
oracle

>  <origin>  (14) 
adgpu

>  <m_score__min__energy>  (14) 
-12.18

>  <m_primary>  (14) 
energy

$$$$
14:0
     RDKit          3D

 37 39  0  0  0  0  0  0  0  0999 V2000
   -7.3072   16.3978  -34.3861 H   0  0  0  0  0  0  0  0  0  0  0  0
   -6.4670   17.1010  -34.2880 C   0  0  0  0  0  0  0  0  0  0  0  0
   -5.3860   17.1370  -35.0920 N   0  0  0  0  0  0  0  0  0  0  0  0
   -4.6360   18.1430  -34.5980 C   0  0  0  0  0  0  0  0  0  0  0  0
   -3.6690   18.4482  -35.0243 H   0  0  0  0  0  0  0  0  0  0  0  0
   -5.2000   18.7350  -33.5240 N   0  0  0  0  0  0  0  0  0  0  0  0
   -4.6760   19.8350  -32.7520 C   0  0  0  0  0  0  0  0  0  0  0  0
   -5.5370   20.6770  -32.0270 C   0  0  0  0  0  0  0  0  0  0  0  0
   -6.6217   20.4956  -32.0481 H   0  0  0  0  0  0  0  0  0  0  0  0
   -5.0280   21.7420  -31.2800 C   0  0  0  0  0  0  0  0  0  0  0  0
   -5.7152   22.3926  -30.7192 H   0  0  0  0  0  0  0  0  0  0  0  0
   -3.6460   21.9890  -31.2390 C   0  0  0  0  0  0  0  0  0  0  0  0
   -3.1080   23.1170  -30.4480 C   0  0  0  0  0  0  0  0  0  0  0  0
   -3.7020   24.3270  -30.3650 N   0  0  0  0  0  0  0  0  0  0  0  0
   -2.9360   25.0580  -29.5790 N   0  0  0  0  0  0  0  0  0  0  0  0
   -3.1310   26.0510  -29.3200 H   0  0  0  0  0  0  0  0  0  0  0  0
   -1.9010   24.2870  -29.2010 C   0  0  0  0  0  0  0  0  0  0  0  0
   -0.9360   24.6710  -28.4210 N   0  0  0  0  0  0  0  0  0  0  0  0
   -0.8340   26.0060  -27.8360 C   0  0  0  0  0  0  0  0  0  0  0  0
   -1.6614   26.1556  -27.1267 H   0  0  0  0  0  0  0  0  0  0  0  0
   -0.8875   26.7543  -28.6405 H   0  0  0  0  0  0  0  0  0  0  0  0
    0.5040   26.1630  -27.0950 C   0  0  2  0  0  0  0  0  0  0  0  0
    0.9034   27.1653  -27.3090 H   0  0  0  0  0  0  0  0  0  0  0  0
    1.4490   25.1450  -27.5600 N   0  0  0  0  0  0  0  0  0  0  0  0
    1.2830   24.2670  -27.0160 H   0  0  0  0  0  0  0  0  0  0  0  0
    1.2190   24.9100  -28.5530 H   0  0  0  0  0  0  0  0  0  0  0  0
    0.3090   26.0300  -25.5780 C   0  0  0  0  0  0  0  0  0  0  0  0
    1.1090   26.5757  -25.0562 H   0  0  0  0  0  0  0  0  0  0  0  0
   -0.6669   26.4515  -25.2954 H   0  0  0  0  0  0  0  0  0  0  0  0
    0.3452   24.9675  -25.2954 H   0  0  0  0  0  0  0  0  0  0  0  0
   -1.9650   23.0500  -29.7250 N   0  0  0  0  0  0  0  0  0  0  0  0
   -2.7840   21.1500  -31.9610 C   0  0  0  0  0  0  0  0  0  0  0  0
   -1.6994   21.3320  -31.9371 H   0  0  0  0  0  0  0  0  0  0  0  0
   -3.2920   20.0840  -32.7110 C   0  0  0  0  0  0  0  0  0  0  0  0
   -2.6039   19.4354  -33.2731 H   0  0  0  0  0  0  0  0  0  0  0  0
   -6.3590   18.0780  -33.3260 C   0  0  0  0  0  0  0  0  0  0  0  0
   -7.0919   18.2866  -32.5327 H   0  0  0  0  0  0  0  0  0  0  0  0
  1  2  1  0
  2  3  1  0
  3  4  2  0
  4  5  1  0
  4  6  1  0
  6  7  1  0
  7  8  2  0
  8  9  1  0
  8 10  1  0
 10 11  1  0
 10 12  2  0
 12 13  1  0
 13 14  2  0
 14 15  1  0
 15 16  1  0
 15 17  1  0
 17 18  2  0
 18 19  1  0
 19 20  1  0
 19 21  1  0
 19 22  1  0
 22 23  1  1
 22 24  1  0
 24 25  1  0
 24 26  1  0
 22 27  1  0
 27 28  1  0
 27 29  1  0
 27 30  1  0
 17 31  1  0
 12 32  1  0
 32 33  1  0
 32 34  2  0
 34 35  1  0
  6 36  1  0
 36 37  1  0
 36  2  2  0
 34  7  1  0
 31 13  1  0
M  CHG  1  31  -1
M  END
>  <UniqueID>  (15) 
13

>  <SMILES>  (15) 
C[C@@H](N)C/N=c1/[n-]c(-c2ccc(-n3ccnc3)cc2)n[nH]1

>  <Energy>  (15) 
100.17542109535123

>  <Genealogy>  (15) 
CC(N)CN=c1[n-]c(-c2ccc(-n3ccnc3)cc2)n[nH]1 (protonated)
C[C@@H](N)CN=c1[n-]c(-c2ccc(-n3ccnc3)cc2)n[nH]1 (chirality)
C[C@@H](N)C/N=c1/[n-]c(-c2ccc(-n3ccnc3)cc2)n[nH]1 (cis-trans isomerization)
C[C@@H](N)C/N=c1/[n-]c(-c2ccc(-n3ccnc3)cc2)n[nH]1 (3D coordinates assigned)
C[C@@H](N)C/N=c1/[n-]c(-c2ccc(-n3ccnc3)cc2)n[nH]1 (optimized conformer: 100.17542109535123 kcal/mol)

>  <smiles>  (15) 
CC(N)CN=c1[nH]nc(-c2ccc(-n3ccnc3)cc2)[nH]1

>  <score_type>  (15) 
oracle

>  <origin>  (15) 
adgpu

>  <m_score__min__energy>  (15) 
-7.5499999999999998

>  <m_primary>  (15) 
energy

$$$$
15:0
     RDKit          3D

 39 41  0  0  0  0  0  0  0  0999 V2000
   -6.8900   24.7000  -29.7320 C   0  0  0  0  0  0  0  0  0  0  0  0
   -6.2570   23.6880  -30.5800 N   0  0  0  0  0  0  0  0  0  0  0  0
   -7.0430   22.6190  -31.1530 C   0  0  0  0  0  0  0  0  0  0  0  0
   -8.4410   22.7320  -31.2510 C   0  0  0  0  0  0  0  0  0  0  0  0
   -9.1970   21.7040  -31.8160 C   0  0  0  0  0  0  0  0  0  0  0  0
   -8.5710   20.5540  -32.2970 C   0  0  0  0  0  0  0  0  0  0  0  0
   -7.1750   20.4170  -32.2190 C   0  0  0  0  0  0  0  0  0  0  0  0
   -6.5040   19.1990  -32.7420 C   0  0  0  0  0  0  0  0  0  0  0  0
   -6.3730   18.0520  -31.9400 C   0  0  0  0  0  0  0  0  0  0  0  0
   -5.7350   16.9190  -32.4500 C   0  0  0  0  0  0  0  0  0  0  0  0
   -5.2450   16.9250  -33.7180 N   0  0  0  0  0  0  0  0  0  0  0  0
   -5.3560   18.0170  -34.5190 C   0  0  0  0  0  0  0  0  0  0  0  0
   -5.9850   19.1720  -34.0480 C   0  0  0  0  0  0  0  0  0  0  0  0
   -6.4200   21.4550  -31.6430 C   0  0  0  0  0  0  0  0  0  0  0  0
   -4.5520   23.8240  -30.9200 S   0  0  0  0  0  0  0  0  0  0  0  0
   -4.2110   25.2730  -31.1290 O   0  0  0  0  0  0  0  0  0  0  0  0
   -4.2280   23.0670  -32.1760 O   0  0  0  0  0  0  0  0  0  0  0  0
   -3.5960   23.1760  -29.5850 C   0  0  0  0  0  0  0  0  0  0  0  0
   -3.7670   21.8470  -29.1680 C   0  0  0  0  0  0  0  0  0  0  0  0
   -3.0160   21.3430  -28.1020 C   0  0  0  0  0  0  0  0  0  0  0  0
   -2.0890   22.1580  -27.4510 C   0  0  0  0  0  0  0  0  0  0  0  0
   -1.9080   23.4810  -27.8660 C   0  0  0  0  0  0  0  0  0  0  0  0
   -2.6580   23.9910  -28.9300 C   0  0  0  0  0  0  0  0  0  0  0  0
   -2.4670   25.2770  -29.3210 F   0  0  0  0  0  0  0  0  0  0  0  0
   -6.7300   24.4442  -28.6742 H   0  0  0  0  0  0  0  0  0  0  0  0
   -6.4463   25.6843  -29.9424 H   0  0  0  0  0  0  0  0  0  0  0  0
   -7.9692   24.7317  -29.9424 H   0  0  0  0  0  0  0  0  0  0  0  0
   -8.9427   23.6377  -30.8795 H   0  0  0  0  0  0  0  0  0  0  0  0
  -10.2907   21.8010  -31.8823 H   0  0  0  0  0  0  0  0  0  0  0  0
   -9.1748   19.7486  -32.7406 H   0  0  0  0  0  0  0  0  0  0  0  0
   -6.7714   18.0468  -30.9147 H   0  0  0  0  0  0  0  0  0  0  0  0
   -5.6289   16.0203  -31.8246 H   0  0  0  0  0  0  0  0  0  0  0  0
   -4.9496   17.9915  -35.5408 H   0  0  0  0  0  0  0  0  0  0  0  0
   -6.0737   20.0563  -34.6962 H   0  0  0  0  0  0  0  0  0  0  0  0
   -5.3266   21.3559  -31.5744 H   0  0  0  0  0  0  0  0  0  0  0  0
   -4.4938   21.2002  -29.6812 H   0  0  0  0  0  0  0  0  0  0  0  0
   -3.1561   20.3019  -27.7757 H   0  0  0  0  0  0  0  0  0  0  0  0
   -1.5006   21.7596  -26.6113 H   0  0  0  0  0  0  0  0  0  0  0  0
   -1.1744   24.1215  -27.3545 H   0  0  0  0  0  0  0  0  0  0  0  0
  1  2  1  0
  2  3  1  0
  3  4  2  0
  4  5  1  0
  5  6  2  0
  6  7  1  0
  7  8  1  0
  8  9  2  0
  9 10  1  0
 10 11  2  0
 11 12  1  0
 12 13  2  0
  7 14  2  0
  2 15  1  0
 15 16  2  0
 15 17  2  0
 15 18  1  0
 18 19  2  0
 19 20  1  0
 20 21  2  0
 21 22  1  0
 22 23  2  0
 23 24  1  0
 14  3  1  0
 23 18  1  0
 13  8  1  0
  1 25  1  0
  1 26  1  0
  1 27  1  0
  4 28  1  0
  5 29  1  0
  6 30  1  0
  9 31  1  0
 10 32  1  0
 12 33  1  0
 13 34  1  0
 14 35  1  0
 19 36  1  0
 20 37  1  0
 21 38  1  0
 22 39  1  0
M  END
>  <UniqueID>  (16) 
14

>  <SMILES>  (16) 
CN(c1cccc(-c2ccncc2)c1)S(=O)(=O)c1ccccc1F

>  <Energy>  (16) 
51.97136761243103

>  <Genealogy>  (16) 
CN(c1cccc(-c2ccncc2)c1)S(=O)(=O)c1ccccc1F (3D coordinates assigned)
CN(c1cccc(-c2ccncc2)c1)S(=O)(=O)c1ccccc1F (optimized conformer: 51.97136761243103 kcal/mol)

>  <smiles>  (16) 
CN(c1cccc(-c2ccncc2)c1)S(=O)(=O)c1ccccc1F

>  <score_type>  (16) 
oracle

>  <origin>  (16) 
adgpu

>  <m_score__min__energy>  (16) 
-9.3300000000000001

>  <m_primary>  (16) 
energy

$$$$
16:0
     RDKit          3D

 30 31  0  0  0  0  0  0  0  0999 V2000
   -6.0980   26.0150  -29.9750 C   0  0  0  0  0  0  0  0  0  0  0  0
   -4.9890   25.0150  -29.9320 C   0  0  0  0  0  0  0  0  0  0  0  0
   -3.8830   25.2950  -30.4670 O   0  0  0  0  0  0  0  0  0  0  0  0
   -5.1610   23.7890  -29.2070 N   0  0  0  0  0  0  0  0  0  0  0  0
   -4.1770   22.7400  -29.1820 C   0  0  0  0  0  0  0  0  0  0  0  0
   -3.6730   22.2680  -27.9570 C   0  0  0  0  0  0  0  0  0  0  0  0
   -2.7000   21.2660  -27.9300 C   0  0  0  0  0  0  0  0  0  0  0  0
   -2.2130   20.7320  -29.1240 C   0  0  0  0  0  0  0  0  0  0  0  0
   -2.6950   21.2000  -30.3480 C   0  0  0  0  0  0  0  0  0  0  0  0
   -3.6760   22.2010  -30.3860 C   0  0  0  0  0  0  0  0  0  0  0  0
   -4.2870   22.7480  -31.9870 S   0  0  0  0  0  0  0  0  0  0  0  0
   -5.6530   21.5860  -31.9710 C   0  0  0  0  0  0  0  0  0  0  0  0
   -5.4750   20.2860  -32.4640 C   0  0  0  0  0  0  0  0  0  0  0  0
   -6.5370   19.3770  -32.4430 C   0  0  0  0  0  0  0  0  0  0  0  0
   -7.7820   19.7660  -31.9340 C   0  0  0  0  0  0  0  0  0  0  0  0
   -9.1130   18.6250  -31.9060 Cl  0  0  0  0  0  0  0  0  0  0  0  0
   -7.9630   21.0660  -31.4490 C   0  0  0  0  0  0  0  0  0  0  0  0
   -6.9010   21.9750  -31.4710 C   0  0  0  0  0  0  0  0  0  0  0  0
   -6.3924   26.2804  -28.9489 H   0  0  0  0  0  0  0  0  0  0  0  0
   -5.7577   26.9175  -30.5039 H   0  0  0  0  0  0  0  0  0  0  0  0
   -6.9606   25.5834  -30.5039 H   0  0  0  0  0  0  0  0  0  0  0  0
   -6.0090   23.6930  -28.6040 H   0  0  0  0  0  0  0  0  0  0  0  0
   -4.0476   22.6909  -27.0132 H   0  0  0  0  0  0  0  0  0  0  0  0
   -2.3173   20.8975  -26.9668 H   0  0  0  0  0  0  0  0  0  0  0  0
   -1.4485   19.9414  -29.1007 H   0  0  0  0  0  0  0  0  0  0  0  0
   -2.3033   20.7814  -31.2868 H   0  0  0  0  0  0  0  0  0  0  0  0
   -4.4985   19.9806  -32.8679 H   0  0  0  0  0  0  0  0  0  0  0  0
   -6.3944   18.3559  -32.8265 H   0  0  0  0  0  0  0  0  0  0  0  0
   -8.9412   21.3729  -31.0503 H   0  0  0  0  0  0  0  0  0  0  0  0
   -7.0466   22.9982  -31.0945 H   0  0  0  0  0  0  0  0  0  0  0  0
  1  2  1  0
  2  3  2  0
  2  4  1  0
  4  5  1  0
  5  6  2  0
  6  7  1  0
  7  8  2  0
  8  9  1  0
  9 10  2  0
 10 11  1  0
 11 12  1  0
 12 13  2  0
 13 14  1  0
 14 15  2  0
 15 16  1  0
 15 17  1  0
 17 18  2  0
 10  5  1  0
 18 12  1  0
  1 19  1  0
  1 20  1  0
  1 21  1  0
  4 22  1  0
  6 23  1  0
  7 24  1  0
  8 25  1  0
  9 26  1  0
 13 27  1  0
 14 28  1  0
 17 29  1  0
 18 30  1  0
M  END
>  <UniqueID>  (17) 
15

>  <SMILES>  (17) 
CC(=O)Nc1ccccc1Sc1ccc(Cl)cc1

>  <Energy>  (17) 
27.55540017621765

>  <Genealogy>  (17) 
CC(=O)Nc1ccccc1Sc1ccc(Cl)cc1 (3D coordinates assigned)
CC(=O)Nc1ccccc1Sc1ccc(Cl)cc1 (optimized conformer: 27.55540017621765 kcal/mol)

>  <smiles>  (17) 
CC(=O)Nc1ccccc1Sc1ccc(Cl)cc1

>  <score_type>  (17) 
oracle

>  <origin>  (17) 
adgpu

>  <m_score__min__energy>  (17) 
-7.7400000000000002

>  <m_primary>  (17) 
energy

$$$$
17:0
     RDKit          3D

 36 37  0  0  0  0  0  0  0  0999 V2000
   -6.8740   17.0270  -33.4540 C   0  0  0  0  0  0  0  0  0  0  0  0
   -6.9350   18.4260  -32.8990 C   0  0  0  0  0  0  0  0  0  0  0  0
   -8.0790   18.8380  -32.1960 C   0  0  0  0  0  0  0  0  0  0  0  0
   -8.1620   20.1270  -31.6700 C   0  0  0  0  0  0  0  0  0  0  0  0
   -7.1030   21.0250  -31.8300 C   0  0  0  0  0  0  0  0  0  0  0  0
   -7.2060   22.6510  -31.1510 S   0  0  0  0  0  0  0  0  0  0  0  0
   -7.7390   22.5650  -29.7480 O   0  0  0  0  0  0  0  0  0  0  0  0
   -8.1810   23.4580  -31.9630 O   0  0  0  0  0  0  0  0  0  0  0  0
   -5.6580   23.4680  -31.1280 N   0  0  0  0  0  0  0  0  0  0  0  0
   -5.7800   24.9360  -31.2200 C   0  0  0  0  0  0  0  0  0  0  0  0
   -5.9790   25.6360  -29.8540 C   0  0  0  0  0  0  0  0  0  0  0  0
   -5.3640   24.9230  -28.7180 N   0  0  0  0  0  0  0  0  0  0  0  0
   -4.2480   24.0720  -29.1330 C   0  0  0  0  0  0  0  0  0  0  0  0
   -4.7500   22.9670  -30.0710 C   0  0  0  0  0  0  0  0  0  0  0  0
   -5.9680   20.6330  -32.5520 C   0  0  0  0  0  0  0  0  0  0  0  0
   -5.8710   19.3400  -33.0900 C   0  0  0  0  0  0  0  0  0  0  0  0
   -4.6260   18.9430  -33.8410 C   0  0  0  0  0  0  0  0  0  0  0  0
   -6.8425   16.3047  -32.6250 H   0  0  0  0  0  0  0  0  0  0  0  0
   -7.7648   16.8382  -34.0712 H   0  0  0  0  0  0  0  0  0  0  0  0
   -5.9702   16.9165  -34.0712 H   0  0  0  0  0  0  0  0  0  0  0  0
   -8.9165   18.1381  -32.0591 H   0  0  0  0  0  0  0  0  0  0  0  0
   -9.0660   20.4387  -31.1262 H   0  0  0  0  0  0  0  0  0  0  0  0
   -4.8631   25.3314  -31.6814 H   0  0  0  0  0  0  0  0  0  0  0  0
   -6.6785   25.1446  -31.8194 H   0  0  0  0  0  0  0  0  0  0  0  0
   -5.5353   26.6408  -29.9126 H   0  0  0  0  0  0  0  0  0  0  0  0
   -7.0623   25.6611  -29.6646 H   0  0  0  0  0  0  0  0  0  0  0  0
   -5.0110   25.6230  -28.0240 H   0  0  0  0  0  0  0  0  0  0  0  0
   -6.0840   24.3370  -28.2350 H   0  0  0  0  0  0  0  0  0  0  0  0
   -3.4997   24.6835  -29.6585 H   0  0  0  0  0  0  0  0  0  0  0  0
   -3.7954   23.6112  -28.2426 H   0  0  0  0  0  0  0  0  0  0  0  0
   -3.8807   22.4946  -30.5517 H   0  0  0  0  0  0  0  0  0  0  0  0
   -5.3219   22.2535  -29.4595 H   0  0  0  0  0  0  0  0  0  0  0  0
   -5.1437   21.3464  -32.6989 H   0  0  0  0  0  0  0  0  0  0  0  0
   -3.8308   18.6894  -33.1245 H   0  0  0  0  0  0  0  0  0  0  0  0
   -4.8421   18.0692  -34.4733 H   0  0  0  0  0  0  0  0  0  0  0  0
   -4.2964   19.7806  -34.4733 H   0  0  0  0  0  0  0  0  0  0  0  0
  1  2  1  0
  2  3  2  0
  3  4  1  0
  4  5  2  0
  5  6  1  0
  6  7  2  0
  6  8  2  0
  6  9  1  0
  9 10  1  0
 10 11  1  0
 11 12  1  0
 12 13  1  0
 13 14  1  0
  5 15  1  0
 15 16  2  0
 16 17  1  0
 16  2  1  0
 14  9  1  0
  1 18  1  0
  1 19  1  0
  1 20  1  0
  3 21  1  0
  4 22  1  0
 10 23  1  0
 10 24  1  0
 11 25  1  0
 11 26  1  0
 12 27  1  0
 12 28  1  0
 13 29  1  0
 13 30  1  0
 14 31  1  0
 14 32  1  0
 15 33  1  0
 17 34  1  0
 17 35  1  0
 17 36  1  0
M  CHG  1  12   1
M  END
>  <UniqueID>  (18) 
16

>  <SMILES>  (18) 
Cc1ccc(S(=O)(=O)N2CC[NH2+]CC2)cc1C

>  <Energy>  (18) 
44.74623403507291

>  <Genealogy>  (18) 
Cc1ccc(S(=O)(=O)N2CC[NH2+]CC2)cc1C (protonated)
Cc1ccc(S(=O)(=O)N2CC[NH2+]CC2)cc1C (3D coordinates assigned)
Cc1ccc(S(=O)(=O)N2CC[NH2+]CC2)cc1C (nonaromatic ring conformer: 44.74623403507291 kcal/mol)

>  <smiles>  (18) 
Cc1ccc(S(=O)(=O)N2CCNCC2)cc1C

>  <score_type>  (18) 
oracle

>  <origin>  (18) 
adgpu

>  <m_score__min__energy>  (18) 
-7.2000000000000002

>  <m_primary>  (18) 
energy

$$$$
18:0
     RDKit          3D

 78 82  0  0  0  0  0  0  0  0999 V2000
   -5.6044   23.5248  -30.9773 H   0  0  0  0  0  0  0  0  0  0  0  0
   -4.5570   23.4690  -30.6460 C   0  0  0  0  0  0  0  0  0  0  0  0
   -3.9280   24.6040  -30.1350 C   0  0  0  0  0  0  0  0  0  0  0  0
   -4.4764   25.5555  -30.0734 H   0  0  0  0  0  0  0  0  0  0  0  0
   -2.5950   24.5330  -29.6990 C   0  0  0  0  0  0  0  0  0  0  0  0
   -1.9940   25.5950  -28.9590 N   0  0  0  0  0  0  0  0  0  0  0  0
   -1.2390   25.3910  -27.4100 S   0  0  0  0  0  0  0  0  0  0  0  0
   -2.1380   24.5910  -26.5150 O   0  0  0  0  0  0  0  0  0  0  0  0
    0.0720   24.6830  -27.5980 O   0  0  0  0  0  0  0  0  0  0  0  0
   -0.9020   26.9630  -26.6900 C   0  0  0  0  0  0  0  0  0  0  0  0
   -0.4570   28.0140  -27.5000 C   0  0  0  0  0  0  0  0  0  0  0  0
   -0.2997   27.8483  -28.5760 H   0  0  0  0  0  0  0  0  0  0  0  0
   -0.2120   29.2730  -26.9460 C   0  0  0  0  0  0  0  0  0  0  0  0
    0.1418   30.0938  -27.5872 H   0  0  0  0  0  0  0  0  0  0  0  0
   -0.4150   29.4950  -25.5770 C   0  0  0  0  0  0  0  0  0  0  0  0
   -0.1020   30.8320  -24.9780 C   0  0  0  0  0  0  0  0  0  0  0  0
   -0.1199   30.7555  -23.8808 H   0  0  0  0  0  0  0  0  0  0  0  0
    0.8964   31.1564  -25.3067 H   0  0  0  0  0  0  0  0  0  0  0  0
   -0.8526   31.5658  -25.3067 H   0  0  0  0  0  0  0  0  0  0  0  0
   -0.8320   28.4320  -24.7610 C   0  0  0  0  0  0  0  0  0  0  0  0
   -0.9665   28.5907  -23.6809 H   0  0  0  0  0  0  0  0  0  0  0  0
   -1.0770   27.1730  -25.3150 C   0  0  0  0  0  0  0  0  0  0  0  0
   -1.4079   26.3449  -24.6710 H   0  0  0  0  0  0  0  0  0  0  0  0
   -1.8590   23.3650  -29.9230 C   0  0  0  0  0  0  0  0  0  0  0  0
   -0.7844   23.3402  -29.6895 H   0  0  0  0  0  0  0  0  0  0  0  0
   -2.4860   22.2290  -30.4430 C   0  0  0  0  0  0  0  0  0  0  0  0
   -1.9026   21.3135  -30.6205 H   0  0  0  0  0  0  0  0  0  0  0  0
   -3.8560   22.2530  -30.7390 C   0  0  0  0  0  0  0  0  0  0  0  0
   -4.5250   21.0280  -31.0810 N   0  0  0  0  0  0  0  0  0  0  0  0
   -3.9840   20.0480  -31.7450 C   0  0  0  0  0  0  0  0  0  0  0  0
   -2.7040   20.1290  -32.1960 N   0  0  0  0  0  0  0  0  0  0  0  0
   -2.1740   19.1320  -32.9430 C   0  0  0  0  0  0  0  0  0  0  0  0
   -0.8220   19.2260  -33.4060 N   0  0  0  0  0  0  0  0  0  0  0  0
   -0.5780   19.5070  -34.8200 C   0  0  0  0  0  0  0  0  0  0  0  0
    0.1408   20.3348  -34.9106 H   0  0  0  0  0  0  0  0  0  0  0  0
   -0.1674   18.6100  -35.3066 H   0  0  0  0  0  0  0  0  0  0  0  0
   -1.5238   19.7877  -35.3066 H   0  0  0  0  0  0  0  0  0  0  0  0
    0.2830   18.8520  -32.5120 C   0  0  0  0  0  0  0  0  0  0  0  0
    0.1529   17.8062  -32.1969 H   0  0  0  0  0  0  0  0  0  0  0  0
    1.2314   18.9748  -33.0556 H   0  0  0  0  0  0  0  0  0  0  0  0
    0.3110   19.7490  -31.2720 C   0  0  0  0  0  0  0  0  0  0  0  0
    1.3564   19.9389  -30.9872 H   0  0  0  0  0  0  0  0  0  0  0  0
   -0.1980   20.6951  -31.5083 H   0  0  0  0  0  0  0  0  0  0  0  0
   -0.4150   19.0780  -30.1020 C   0  0  0  0  0  0  0  0  0  0  0  0
   -1.4391   18.8219  -30.4111 H   0  0  0  0  0  0  0  0  0  0  0  0
    0.1352   18.1689  -29.8176 H   0  0  0  0  0  0  0  0  0  0  0  0
   -0.4730   20.0030  -28.9130 C   0  0  0  0  0  0  0  0  0  0  0  0
   -1.6370   20.0870  -28.1290 C   0  0  0  0  0  0  0  0  0  0  0  0
   -2.5124   19.4709  -28.3819 H   0  0  0  0  0  0  0  0  0  0  0  0
   -1.6880   20.9490  -27.0300 C   0  0  0  0  0  0  0  0  0  0  0  0
   -2.5989   21.0021  -26.4156 H   0  0  0  0  0  0  0  0  0  0  0  0
   -0.5790   21.7470  -26.7090 C   0  0  0  0  0  0  0  0  0  0  0  0
   -0.6300   22.6300  -25.5840 N   0  0  0  0  0  0  0  0  0  0  0  0
   -0.4590   23.6550  -25.6990 H   0  0  0  0  0  0  0  0  0  0  0  0
   -0.8610   22.2700  -24.6330 H   0  0  0  0  0  0  0  0  0  0  0  0
    0.5790   21.6740  -27.4970 C   0  0  0  0  0  0  0  0  0  0  0  0
    1.4507   22.2970  -27.2478 H   0  0  0  0  0  0  0  0  0  0  0  0
    0.6310   20.8140  -28.5970 C   0  0  0  0  0  0  0  0  0  0  0  0
    1.5383   20.7714  -29.2175 H   0  0  0  0  0  0  0  0  0  0  0  0
   -2.9340   18.0540  -33.2580 N   0  0  0  0  0  0  0  0  0  0  0  0
   -4.2150   17.9550  -32.8100 C   0  0  0  0  0  0  0  0  0  0  0  0
   -5.0130   16.8020  -33.1490 N   0  0  0  0  0  0  0  0  0  0  0  0
   -4.8050   15.5300  -32.4290 C   0  0  0  0  0  0  0  0  0  0  0  0
   -3.7325   15.4274  -32.2073 H   0  0  0  0  0  0  0  0  0  0  0  0
   -5.4190   15.5717  -31.5173 H   0  0  0  0  0  0  0  0  0  0  0  0
   -5.2610   14.2840  -33.2260 C   0  0  0  0  0  0  0  0  0  0  0  0
   -4.3680   13.6997  -33.4929 H   0  0  0  0  0  0  0  0  0  0  0  0
   -5.9549   13.7305  -32.5763 H   0  0  0  0  0  0  0  0  0  0  0  0
   -5.9960   14.5930  -34.4620 N   0  0  0  0  0  0  0  0  0  0  0  0
   -6.5310   13.7440  -34.7550 H   0  0  0  0  0  0  0  0  0  0  0  0
   -5.3200   14.8290  -35.2260 H   0  0  0  0  0  0  0  0  0  0  0  0
   -6.9350   15.6980  -34.2610 C   0  0  0  0  0  0  0  0  0  0  0  0
   -7.5765   15.7985  -35.1489 H   0  0  0  0  0  0  0  0  0  0  0  0
   -7.5562   15.4911  -33.3771 H   0  0  0  0  0  0  0  0  0  0  0  0
   -6.1640   16.9970  -34.0430 C   0  0  0  0  0  0  0  0  0  0  0  0
   -5.8025   17.3645  -35.0147 H   0  0  0  0  0  0  0  0  0  0  0  0
   -6.8430   17.7246  -33.5745 H   0  0  0  0  0  0  0  0  0  0  0  0
   -4.7320   18.9580  -32.0550 N   0  0  0  0  0  0  0  0  0  0  0  0
  1  2  1  0
  2  3  2  0
  3  4  1  0
  3  5  1  0
  5  6  1  0
  6  7  1  0
  7  8  2  0
  7  9  2  0
  7 10  1  0
 10 11  2  0
 11 12  1  0
 11 13  1  0
 13 14  1  0
 13 15  2  0
 15 16  1  0
 16 17  1  0
 16 18  1  0
 16 19  1  0
 15 20  1  0
 20 21  1  0
 20 22  2  0
 22 23  1  0
  5 24  2  0
 24 25  1  0
 24 26  1  0
 26 27  1  0
 26 28  2  0
 28 29  1  0
 29 30  2  0
 30 31  1  0
 31 32  2  0
 32 33  1  0
 33 34  1  0
 34 35  1  0
 34 36  1  0
 34 37  1  0
 33 38  1  0
 38 39  1  0
 38 40  1  0
 38 41  1  0
 41 42  1  0
 41 43  1  0
 41 44  1  0
 44 45  1  0
 44 46  1  0
 44 47  1  0
 47 48  2  0
 48 49  1  0
 48 50  1  0
 50 51  1  0
 50 52  2  0
 52 53  1  0
 53 54  1  0
 53 55  1  0
 52 56  1  0
 56 57  1  0
 56 58  2  0
 58 59  1  0
 32 60  1  0
 60 61  2  0
 61 62  1  0
 62 63  1  0
 63 64  1  0
 63 65  1  0
 63 66  1  0
 66 67  1  0
 66 68  1  0
 66 69  1  0
 69 70  1  0
 69 71  1  0
 69 72  1  0
 72 73  1  0
 72 74  1  0
 72 75  1  0
 75 76  1  0
 75 77  1  0
 61 78  1  0
 28  2  1  0
 78 30  1  0
 22 10  1  0
 58 47  1  0
 75 62  1  0
M  CHG  3   6  -1  69   1  78  -1
M  END
>  <UniqueID>  (19) 
17

>  <SMILES>  (19) 
Cc1ccc(S(=O)(=O)[N-]c2ccc(/N=c3\nc(N(C)CCCc4ccc(N)cc4)nc(N4CC[NH2+]CC4)[n-]3)cc2)cc1

>  <Energy>  (19) 
96.57146876855309

>  <Genealogy>  (19) 
Cc1ccc(S(=O)(=O)[N-]c2ccc(N=c3nc(N(C)CCCc4ccc(N)cc4)nc(N4CC[NH2+]CC4)[n-]3)cc2)cc1 (protonated)
Cc1ccc(S(=O)(=O)[N-]c2ccc(/N=c3\nc(N(C)CCCc4ccc(N)cc4)nc(N4CC[NH2+]CC4)[n-]3)cc2)cc1 (cis-trans isomerization)
Cc1ccc(S(=O)(=O)[N-]c2ccc(/N=c3\nc(N(C)CCCc4ccc(N)cc4)nc(N4CC[NH2+]CC4)[n-]3)cc2)cc1 (3D coordinates assigned)
Cc1ccc(S(=O)(=O)[N-]c2ccc(/N=c3\nc(N(C)CCCc4ccc(N)cc4)nc(N4CC[NH2+]CC4)[n-]3)cc2)cc1 (nonaromatic ring conformer: 96.57146876855309 kcal/mol)

>  <smiles>  (19) 
Cc1ccc(S(=O)(=O)Nc2ccc(N=c3nc(N(C)CCCc4ccc(N)cc4)nc(N4CCNCC4)[nH]3)cc2)cc1

>  <score_type>  (19) 
oracle

>  <origin>  (19) 
adgpu

>  <m_score__min__energy>  (19) 
-11.800000000000001

>  <m_primary>  (19) 
energy

$$$$
19:0
     RDKit          3D

 23 25  0  0  0  0  0  0  0  0999 V2000
   -6.5180   25.6760  -29.4000 Cl  0  0  0  0  0  0  0  0  0  0  0  0
   -5.4470   24.5290  -30.1770 C   0  0  0  0  0  0  0  0  0  0  0  0
   -5.6430   23.1680  -30.2540 C   0  0  0  0  0  0  0  0  0  0  0  0
   -4.5410   22.7300  -30.9560 C   0  0  0  0  0  0  0  0  0  0  0  0
   -4.2460   21.3210  -31.3560 C   0  0  0  0  0  0  0  0  0  0  0  0
   -4.7780   21.0160  -33.0760 S   0  0  0  0  0  0  0  0  0  0  0  0
   -6.3510   20.2840  -32.6190 C   0  0  0  0  0  0  0  0  0  0  0  0
   -6.4890   18.9270  -32.5430 N   0  0  0  0  0  0  0  0  0  0  0  0
   -7.6830   18.3490  -32.1900 C   0  0  0  0  0  0  0  0  0  0  0  0
   -8.7720   19.1260  -31.9050 N   0  0  0  0  0  0  0  0  0  0  0  0
   -8.6290   20.4700  -31.9860 C   0  0  0  0  0  0  0  0  0  0  0  0
   -9.5590   21.3990  -31.7480 N   0  0  0  0  0  0  0  0  0  0  0  0
   -8.9000   22.5660  -31.9670 C   0  0  0  0  0  0  0  0  0  0  0  0
   -7.5980   22.3990  -32.3300 N   0  0  0  0  0  0  0  0  0  0  0  0
   -7.4650   21.0620  -32.3330 C   0  0  0  0  0  0  0  0  0  0  0  0
   -3.7840   23.7620  -31.2540 O   0  0  0  0  0  0  0  0  0  0  0  0
   -4.3000   24.8660  -30.7970 N   0  0  0  0  0  0  0  0  0  0  0  0
   -6.4773   22.5742  -29.8523 H   0  0  0  0  0  0  0  0  0  0  0  0
   -3.1638   21.1413  -31.2751 H   0  0  0  0  0  0  0  0  0  0  0  0
   -4.7957   20.6406  -30.6890 H   0  0  0  0  0  0  0  0  0  0  0  0
   -7.7646   17.2534  -32.1360 H   0  0  0  0  0  0  0  0  0  0  0  0
  -10.5530   21.2630  -31.4620 H   0  0  0  0  0  0  0  0  0  0  0  0
   -9.3733   23.5533  -31.8612 H   0  0  0  0  0  0  0  0  0  0  0  0
  1  2  1  0
  2  3  1  0
  3  4  2  0
  4  5  1  0
  5  6  1  0
  6  7  1  0
  7  8  2  0
  8  9  1  0
  9 10  2  0
 10 11  1  0
 11 12  1  0
 12 13  1  0
 13 14  2  0
 14 15  1  0
  4 16  1  0
 16 17  1  0
 17  2  2  0
 15  7  1  0
 15 11  2  0
  3 18  1  0
  5 19  1  0
  5 20  1  0
  9 21  1  0
 12 22  1  0
 13 23  1  0
M  END
>  <UniqueID>  (20) 
18

>  <SMILES>  (20) 
Clc1cc(CSc2ncnc3[nH]cnc23)on1

>  <Energy>  (20) 
90.82904276447692

>  <Genealogy>  (20) 
Clc1cc(CSc2ncnc3[nH]cnc23)on1 (3D coordinates assigned)
Clc1cc(CSc2ncnc3[nH]cnc23)on1 (optimized conformer: 90.82904276447692 kcal/mol)

>  <smiles>  (20) 
Clc1cc(CSc2ncnc3[nH]cnc23)on1

>  <score_type>  (20) 
oracle

>  <origin>  (20) 
adgpu

>  <m_score__min__energy>  (20) 
-7.1799999999999997

>  <m_primary>  (20) 
energy

$$$$
20:0
     RDKit          3D

 41 42  0  0  0  0  0  0  0  0999 V2000
   -1.6550   20.1280  -33.1850 C   0  0  0  0  0  0  0  0  0  0  0  0
   -2.4030   21.0930  -32.3110 C   0  0  0  0  0  0  0  0  0  0  0  0
   -1.9120   21.4250  -31.0460 C   0  0  0  0  0  0  0  0  0  0  0  0
   -2.5900   22.3440  -30.2470 C   0  0  0  0  0  0  0  0  0  0  0  0
   -3.7660   22.9690  -30.7030 C   0  0  0  0  0  0  0  0  0  0  0  0
   -4.4750   23.9500  -29.7770 C   0  0  0  0  0  0  0  0  0  0  0  0
   -4.7340   25.2970  -30.4650 C   0  0  0  0  0  0  0  0  0  0  0  0
   -3.7330   24.1320  -28.4470 C   0  0  0  0  0  0  0  0  0  0  0  0
   -4.2510   22.6610  -31.9980 C   0  0  0  0  0  0  0  0  0  0  0  0
   -5.4050   23.3070  -32.4680 O   0  0  0  0  0  0  0  0  0  0  0  0
   -7.0080   22.9620  -31.9770 S   0  0  0  0  0  0  0  0  0  0  0  0
   -7.1540   23.3310  -30.5270 O   0  0  0  0  0  0  0  0  0  0  0  0
   -7.9630   23.7950  -32.7850 O   0  0  0  0  0  0  0  0  0  0  0  0
   -7.3900   21.2480  -32.2200 C   0  0  0  0  0  0  0  0  0  0  0  0
   -6.5340   20.4730  -33.0190 C   0  0  0  0  0  0  0  0  0  0  0  0
   -6.8120   19.1260  -33.2610 C   0  0  0  0  0  0  0  0  0  0  0  0
   -5.7380   18.1750  -34.2720 Cl  0  0  0  0  0  0  0  0  0  0  0  0
   -7.9480   18.5370  -32.7050 C   0  0  0  0  0  0  0  0  0  0  0  0
   -8.8030   19.2910  -31.9010 C   0  0  0  0  0  0  0  0  0  0  0  0
   -8.5300   20.6430  -31.6340 C   0  0  0  0  0  0  0  0  0  0  0  0
   -9.4990   21.4210  -30.7830 C   0  0  0  0  0  0  0  0  0  0  0  0
   -3.5620   21.7180  -32.7880 C   0  0  0  0  0  0  0  0  0  0  0  0
   -1.1025   19.4152  -32.5551 H   0  0  0  0  0  0  0  0  0  0  0  0
   -2.3671   19.5807  -33.8201 H   0  0  0  0  0  0  0  0  0  0  0  0
   -0.9474   20.6811  -33.8201 H   0  0  0  0  0  0  0  0  0  0  0  0
   -0.9858   20.9589  -30.6787 H   0  0  0  0  0  0  0  0  0  0  0  0
   -2.2009   22.5841  -29.2465 H   0  0  0  0  0  0  0  0  0  0  0  0
   -5.4538   23.5075  -29.5401 H   0  0  0  0  0  0  0  0  0  0  0  0
   -4.8837   26.0755  -29.7024 H   0  0  0  0  0  0  0  0  0  0  0  0
   -3.8700   25.5601  -31.0929 H   0  0  0  0  0  0  0  0  0  0  0  0
   -5.6340   25.2210  -31.0929 H   0  0  0  0  0  0  0  0  0  0  0  0
   -4.4290   23.9613  -27.6125 H   0  0  0  0  0  0  0  0  0  0  0  0
   -2.9050   23.4103  -28.3873 H   0  0  0  0  0  0  0  0  0  0  0  0
   -3.3329   25.1549  -28.3873 H   0  0  0  0  0  0  0  0  0  0  0  0
   -5.6358   20.9313  -33.4585 H   0  0  0  0  0  0  0  0  0  0  0  0
   -8.1696   17.4775  -32.9007 H   0  0  0  0  0  0  0  0  0  0  0  0
   -9.7005   18.8220  -31.4715 H   0  0  0  0  0  0  0  0  0  0  0  0
   -9.2780   21.2435  -29.7201 H   0  0  0  0  0  0  0  0  0  0  0  0
   -9.4011   22.4942  -31.0037 H   0  0  0  0  0  0  0  0  0  0  0  0
  -10.5257   21.0935  -31.0037 H   0  0  0  0  0  0  0  0  0  0  0  0
   -3.9394   21.4702  -33.7911 H   0  0  0  0  0  0  0  0  0  0  0  0
  1  2  1  0
  2  3  2  0
  3  4  1  0
  4  5  2  0
  5  6  1  0
  6  7  1  0
  6  8  1  0
  5  9  1  0
  9 10  1  0
 10 11  1  0
 11 12  2  0
 11 13  2  0
 11 14  1  0
 14 15  2  0
 15 16  1  0
 16 17  1  0
 16 18  2  0
 18 19  1  0
 19 20  2  0
 20 21  1  0
  9 22  2  0
 22  2  1  0
 20 14  1  0
  1 23  1  0
  1 24  1  0
  1 25  1  0
  3 26  1  0
  4 27  1  0
  6 28  1  0
  7 29  1  0
  7 30  1  0
  7 31  1  0
  8 32  1  0
  8 33  1  0
  8 34  1  0
 15 35  1  0
 18 36  1  0
 19 37  1  0
 21 38  1  0
 21 39  1  0
 21 40  1  0
 22 41  1  0
M  END
>  <UniqueID>  (21) 
19

>  <SMILES>  (21) 
Cc1ccc(C(C)C)c(OS(=O)(=O)c2cc(Cl)ccc2C)c1

>  <Energy>  (21) 
38.03358386402342

>  <Genealogy>  (21) 
Cc1ccc(C(C)C)c(OS(=O)(=O)c2cc(Cl)ccc2C)c1 (3D coordinates assigned)
Cc1ccc(C(C)C)c(OS(=O)(=O)c2cc(Cl)ccc2C)c1 (optimized conformer: 38.03358386402342 kcal/mol)

>  <smiles>  (21) 
Cc1ccc(C(C)C)c(OS(=O)(=O)c2cc(Cl)ccc2C)c1

>  <score_type>  (21) 
oracle

>  <origin>  (21) 
adgpu

>  <m_score__min__energy>  (21) 
-8.5500000000000007

>  <m_primary>  (21) 
energy

$$$$
21:0
     RDKit          3D

 45 47  0  0  0  0  0  0  0  0999 V2000
   -4.5600   24.1620  -28.3010 C   0  0  0  0  0  0  0  0  0  0  0  0
   -4.5100   23.1160  -29.3140 N   0  0  0  0  0  0  0  0  0  0  0  0
   -4.3690   23.4220  -30.7100 C   0  0  0  0  0  0  0  0  0  0  0  0
   -4.3670   24.6240  -31.0870 O   0  0  0  0  0  0  0  0  0  0  0  0
   -4.2940   22.3790  -31.6960 N   0  0  0  0  0  0  0  0  0  0  0  0
   -3.1480   21.8960  -32.1380 N   0  0  0  0  0  0  0  0  0  0  0  0
   -3.4690   20.9900  -33.0810 C   0  0  0  0  0  0  0  0  0  0  0  0
   -2.4630   20.1630  -33.8060 C   0  0  0  0  0  0  0  0  0  0  0  0
   -4.8020   20.8520  -33.2420 N   0  0  0  0  0  0  0  0  0  0  0  0
   -5.2900   21.7470  -32.3600 C   0  0  0  0  0  0  0  0  0  0  0  0
   -6.7370   21.9050  -32.1050 C   0  0  0  0  0  0  0  0  0  0  0  0
   -7.3100   23.1830  -32.2260 C   0  0  0  0  0  0  0  0  0  0  0  0
   -8.6690   23.3780  -31.9810 C   0  0  0  0  0  0  0  0  0  0  0  0
   -9.4710   22.3040  -31.6010 C   0  0  0  0  0  0  0  0  0  0  0  0
   -8.9190   21.0280  -31.4700 C   0  0  0  0  0  0  0  0  0  0  0  0
   -7.5550   20.8070  -31.7280 C   0  0  0  0  0  0  0  0  0  0  0  0
   -7.0070   19.4000  -31.5960 C   0  0  0  0  0  0  0  0  0  0  0  0
   -7.2280   18.6360  -32.7820 O   0  0  0  0  0  0  0  0  0  0  0  0
   -6.2540   17.8820  -33.4530 C   0  0  0  0  0  0  0  0  0  0  0  0
   -5.7410   18.2540  -34.7100 C   0  0  0  0  0  0  0  0  0  0  0  0
   -4.7260   17.5000  -35.3070 C   0  0  0  0  0  0  0  0  0  0  0  0
   -4.2070   16.3710  -34.6580 C   0  0  0  0  0  0  0  0  0  0  0  0
   -3.1320   15.5520  -35.3080 C   0  0  0  0  0  0  0  0  0  0  0  0
   -4.7470   15.9770  -33.4240 C   0  0  0  0  0  0  0  0  0  0  0  0
   -5.7630   16.7300  -32.8280 C   0  0  0  0  0  0  0  0  0  0  0  0
   -4.5382   23.7050  -27.3007 H   0  0  0  0  0  0  0  0  0  0  0  0
   -3.6927   24.8282  -28.4188 H   0  0  0  0  0  0  0  0  0  0  0  0
   -5.4869   24.7425  -28.4188 H   0  0  0  0  0  0  0  0  0  0  0  0
   -4.6420   22.1310  -29.0050 H   0  0  0  0  0  0  0  0  0  0  0  0
   -1.8258   19.6392  -33.0782 H   0  0  0  0  0  0  0  0  0  0  0  0
   -2.9807   19.4259  -34.4374 H   0  0  0  0  0  0  0  0  0  0  0  0
   -1.8400   20.8135  -34.4374 H   0  0  0  0  0  0  0  0  0  0  0  0
   -6.6806   24.0371  -32.5166 H   0  0  0  0  0  0  0  0  0  0  0  0
   -9.1082   24.3808  -32.0879 H   0  0  0  0  0  0  0  0  0  0  0  0
  -10.5416   22.4616  -31.4037 H   0  0  0  0  0  0  0  0  0  0  0  0
   -9.5580   20.1874  -31.1618 H   0  0  0  0  0  0  0  0  0  0  0  0
   -5.9254   19.4549  -31.4032 H   0  0  0  0  0  0  0  0  0  0  0  0
   -7.5297   18.9039  -30.7650 H   0  0  0  0  0  0  0  0  0  0  0  0
   -6.1399   19.1408  -35.2243 H   0  0  0  0  0  0  0  0  0  0  0  0
   -4.3326   17.7943  -36.2912 H   0  0  0  0  0  0  0  0  0  0  0  0
   -2.5116   15.0793  -34.5323 H   0  0  0  0  0  0  0  0  0  0  0  0
   -3.5922   14.7735  -35.9342 H   0  0  0  0  0  0  0  0  0  0  0  0
   -2.5036   16.2024  -35.9342 H   0  0  0  0  0  0  0  0  0  0  0  0
   -4.3696   15.0727  -32.9241 H   0  0  0  0  0  0  0  0  0  0  0  0
   -6.1798   16.4146  -31.8601 H   0  0  0  0  0  0  0  0  0  0  0  0
  1  2  1  0
  2  3  1  0
  3  4  2  0
  3  5  1  0
  5  6  1  0
  6  7  2  0
  7  8  1  0
  7  9  1  0
  9 10  2  0
 10 11  1  0
 11 12  2  0
 12 13  1  0
 13 14  2  0
 14 15  1  0
 15 16  2  0
 16 17  1  0
 17 18  1  0
 18 19  1  0
 19 20  2  0
 20 21  1  0
 21 22  2  0
 22 23  1  0
 22 24  1  0
 24 25  2  0
 10  5  1  0
 16 11  1  0
 25 19  1  0
  1 26  1  0
  1 27  1  0
  1 28  1  0
  2 29  1  0
  8 30  1  0
  8 31  1  0
  8 32  1  0
 12 33  1  0
 13 34  1  0
 14 35  1  0
 15 36  1  0
 17 37  1  0
 17 38  1  0
 20 39  1  0
 21 40  1  0
 23 41  1  0
 23 42  1  0
 23 43  1  0
 24 44  1  0
 25 45  1  0
M  END
>  <UniqueID>  (22) 
20

>  <SMILES>  (22) 
CNC(=O)n1nc(C)nc1-c1ccccc1COc1ccc(C)cc1

>  <Energy>  (22) 
80.79124404272655

>  <Genealogy>  (22) 
CNC(=O)n1nc(C)nc1-c1ccccc1COc1ccc(C)cc1 (3D coordinates assigned)
CNC(=O)n1nc(C)nc1-c1ccccc1COc1ccc(C)cc1 (optimized conformer: 80.79124404272655 kcal/mol)

>  <smiles>  (22) 
CNC(=O)n1nc(C)nc1-c1ccccc1COc1ccc(C)cc1

>  <score_type>  (22) 
oracle

>  <origin>  (22) 
adgpu

>  <m_score__min__energy>  (22) 
-8.5299999999999994

>  <m_primary>  (22) 
energy

$$$$
22:0
     RDKit          3D

 44 46  0  0  0  0  0  0  0  0999 V2000
   -9.4950   19.6710  -32.7010 C   0  0  0  0  0  0  0  0  0  0  0  0
   -8.0660   20.0770  -32.5260 C   0  0  0  0  0  0  0  0  0  0  0  0
   -7.7430   21.2490  -31.8340 C   0  0  0  0  0  0  0  0  0  0  0  0
   -6.4040   21.6150  -31.6920 C   0  0  0  0  0  0  0  0  0  0  0  0
   -5.3880   20.8140  -32.2410 C   0  0  0  0  0  0  0  0  0  0  0  0
   -3.9600   21.1890  -32.0960 C   0  0  0  0  0  0  0  0  0  0  0  0
   -3.5340   21.8570  -30.9910 N   0  0  0  0  0  0  0  0  0  0  0  0
   -2.2330   22.2180  -30.8390 C   0  0  0  0  0  0  0  0  0  0  0  0
   -1.8030   22.9250  -29.5900 C   0  0  0  0  0  0  0  0  0  0  0  0
   -2.7860   24.3920  -29.3400 S   0  0  0  0  0  0  0  0  0  0  0  0
   -3.9530   24.1030  -28.0300 C   0  0  0  0  0  0  0  0  0  0  0  0
   -1.8950   25.5430  -28.9660 O   0  0  0  0  0  0  0  0  0  0  0  0
   -3.5300   24.7270  -30.6030 O   0  0  0  0  0  0  0  0  0  0  0  0
   -1.3020   21.8810  -31.8280 C   0  0  0  0  0  0  0  0  0  0  0  0
   -1.7440   21.1840  -32.9640 C   0  0  0  0  0  0  0  0  0  0  0  0
   -0.8360   20.8060  -34.0220 N   0  0  0  0  0  0  0  0  0  0  0  0
   -0.1100   21.8230  -34.7960 C   0  0  0  0  0  0  0  0  0  0  0  0
    1.1870   21.2360  -35.3620 C   0  0  0  0  0  0  0  0  0  0  0  0
    0.9360   20.0260  -36.0470 O   0  0  0  0  0  0  0  0  0  0  0  0
    0.4860   19.0490  -35.1290 C   0  0  0  0  0  0  0  0  0  0  0  0
   -0.8770   19.4360  -34.5490 C   0  0  0  0  0  0  0  0  0  0  0  0
   -3.0630   20.8640  -33.0650 N   0  0  0  0  0  0  0  0  0  0  0  0
   -5.7620   19.6470  -32.9320 C   0  0  0  0  0  0  0  0  0  0  0  0
   -7.0730   19.3130  -33.0570 N   0  0  0  0  0  0  0  0  0  0  0  0
   -9.9620   19.5383  -31.7139 H   0  0  0  0  0  0  0  0  0  0  0  0
  -10.0324   20.4520  -33.2589 H   0  0  0  0  0  0  0  0  0  0  0  0
   -9.5415   18.7241  -33.2589 H   0  0  0  0  0  0  0  0  0  0  0  0
   -8.5380   21.8769  -31.4053 H   0  0  0  0  0  0  0  0  0  0  0  0
   -6.1425   22.5346  -31.1479 H   0  0  0  0  0  0  0  0  0  0  0  0
   -1.9305   22.2517  -28.7296 H   0  0  0  0  0  0  0  0  0  0  0  0
   -0.7464   23.2146  -29.6883 H   0  0  0  0  0  0  0  0  0  0  0  0
   -3.4520   24.2271  -27.0586 H   0  0  0  0  0  0  0  0  0  0  0  0
   -4.7804   24.8234  -28.1105 H   0  0  0  0  0  0  0  0  0  0  0  0
   -4.3486   23.0798  -28.1105 H   0  0  0  0  0  0  0  0  0  0  0  0
   -0.2430   22.1572  -31.7174 H   0  0  0  0  0  0  0  0  0  0  0  0
   -0.7442   22.1685  -35.6257 H   0  0  0  0  0  0  0  0  0  0  0  0
    0.1380   22.6661  -34.1344 H   0  0  0  0  0  0  0  0  0  0  0  0
    1.6349   21.9587  -36.0599 H   0  0  0  0  0  0  0  0  0  0  0  0
    1.8738   21.0315  -34.5274 H   0  0  0  0  0  0  0  0  0  0  0  0
    0.3967   18.0822  -35.6460 H   0  0  0  0  0  0  0  0  0  0  0  0
    1.2122   18.9770  -34.3059 H   0  0  0  0  0  0  0  0  0  0  0  0
   -1.6388   19.3741  -35.3401 H   0  0  0  0  0  0  0  0  0  0  0  0
   -1.1269   18.7450  -33.7304 H   0  0  0  0  0  0  0  0  0  0  0  0
   -4.9886   19.0013  -33.3736 H   0  0  0  0  0  0  0  0  0  0  0  0
  1  2  1  0
  2  3  2  0
  3  4  1  0
  4  5  2  0
  5  6  1  0
  6  7  2  0
  7  8  1  0
  8  9  1  0
  9 10  1  0
 10 11  1  0
 10 12  2  0
 10 13  2  0
  8 14  2  0
 14 15  1  0
 15 16  1  0
 16 17  1  0
 17 18  1  0
 18 19  1  0
 19 20  1  0
 20 21  1  0
 15 22  2  0
  5 23  1  0
 23 24  2  0
 24  2  1  0
 22  6  1  0
 21 16  1  0
  1 25  1  0
  1 26  1  0
  1 27  1  0
  3 28  1  0
  4 29  1  0
  9 30  1  0
  9 31  1  0
 11 32  1  0
 11 33  1  0
 11 34  1  0
 14 35  1  0
 17 36  1  0
 17 37  1  0
 18 38  1  0
 18 39  1  0
 20 40  1  0
 20 41  1  0
 21 42  1  0
 21 43  1  0
 23 44  1  0
M  END
>  <UniqueID>  (23) 
21

>  <SMILES>  (23) 
Cc1ccc(-c2nc(CS(C)(=O)=O)cc(N3CCOCC3)n2)cn1

>  <Energy>  (23) 
41.62318101056602

>  <Genealogy>  (23) 
Cc1ccc(-c2nc(CS(C)(=O)=O)cc(N3CCOCC3)n2)cn1 (3D coordinates assigned)
Cc1ccc(-c2nc(CS(C)(=O)=O)cc(N3CCOCC3)n2)cn1 (nonaromatic ring conformer: 41.62318101056602 kcal/mol)

>  <smiles>  (23) 
Cc1ccc(-c2nc(CS(C)(=O)=O)cc(N3CCOCC3)n2)cn1

>  <score_type>  (23) 
oracle

>  <origin>  (23) 
adgpu

>  <m_score__min__energy>  (23) 
-7.8399999999999999

>  <m_primary>  (23) 
energy

$$$$
23:0
     RDKit          3D

 40 41  0  0  0  0  0  0  0  0999 V2000
   -2.7570   19.1840  -26.4560 C   0  0  0  0  0  0  0  0  0  0  0  0
   -2.5480   20.1610  -27.6070 C   0  0  0  0  0  0  0  0  0  0  0  0
   -1.9720   21.4530  -27.1070 C   0  0  0  0  0  0  0  0  0  0  0  0
   -2.2710   22.6650  -27.7450 C   0  0  0  0  0  0  0  0  0  0  0  0
   -1.6930   23.8540  -27.2800 C   0  0  0  0  0  0  0  0  0  0  0  0
   -1.9760   25.1650  -27.9620 C   0  0  0  0  0  0  0  0  0  0  0  0
   -2.4440   24.9350  -29.3260 N   0  0  0  0  0  0  0  0  0  0  0  0
   -3.8170   24.6440  -29.6310 C   0  0  0  0  0  0  0  0  0  0  0  0
   -4.6440   24.4510  -28.7000 O   0  0  0  0  0  0  0  0  0  0  0  0
   -4.2570   24.5020  -30.9860 N   0  0  0  0  0  0  0  0  0  0  0  0
   -5.0150   23.4040  -31.5140 C   0  0  0  0  0  0  0  0  0  0  0  0
   -4.3880   22.3130  -32.1380 C   0  0  0  0  0  0  0  0  0  0  0  0
   -5.1540   21.2760  -32.6710 C   0  0  0  0  0  0  0  0  0  0  0  0
   -6.5480   21.3240  -32.6020 C   0  0  0  0  0  0  0  0  0  0  0  0
   -7.1980   22.4220  -32.0060 C   0  0  0  0  0  0  0  0  0  0  0  0
   -8.6850   22.4650  -31.9530 C   0  0  0  0  0  0  0  0  0  0  0  0
   -9.4930   21.3100  -31.4420 C   0  0  0  0  0  0  0  0  0  0  0  0
   -9.2960   23.4970  -32.3440 O   0  0  0  0  0  0  0  0  0  0  0  0
   -6.4130   23.4640  -31.4720 C   0  0  0  0  0  0  0  0  0  0  0  0
   -0.8110   23.8060  -26.1910 C   0  0  0  0  0  0  0  0  0  0  0  0
   -0.5310   22.5790  -25.5860 C   0  0  0  0  0  0  0  0  0  0  0  0
   -1.1070   21.4410  -26.0560 N   0  0  0  0  0  0  0  0  0  0  0  0
   -2.6434   19.7148  -25.4993 H   0  0  0  0  0  0  0  0  0  0  0  0
   -3.7675   18.7539  -26.5190 H   0  0  0  0  0  0  0  0  0  0  0  0
   -2.0109   18.3781  -26.5190 H   0  0  0  0  0  0  0  0  0  0  0  0
   -1.8565   19.7159  -28.3375 H   0  0  0  0  0  0  0  0  0  0  0  0
   -3.5205   20.3659  -28.0784 H   0  0  0  0  0  0  0  0  0  0  0  0
   -2.9555   22.6826  -28.6059 H   0  0  0  0  0  0  0  0  0  0  0  0
   -2.7500   25.7074  -27.3992 H   0  0  0  0  0  0  0  0  0  0  0  0
   -1.0503   25.7582  -27.9961 H   0  0  0  0  0  0  0  0  0  0  0  0
   -1.7360   24.9340  -30.0940 H   0  0  0  0  0  0  0  0  0  0  0  0
   -3.2908   22.2762  -32.2066 H   0  0  0  0  0  0  0  0  0  0  0  0
   -4.6582   20.4174  -33.1474 H   0  0  0  0  0  0  0  0  0  0  0  0
   -7.1433   20.4972  -33.0167 H   0  0  0  0  0  0  0  0  0  0  0  0
   -9.4880   21.3172  -30.3420 H   0  0  0  0  0  0  0  0  0  0  0  0
  -10.5278   21.3976  -31.8045 H   0  0  0  0  0  0  0  0  0  0  0  0
   -9.0560   20.3679  -31.8045 H   0  0  0  0  0  0  0  0  0  0  0  0
   -6.9054   24.3357  -31.0163 H   0  0  0  0  0  0  0  0  0  0  0  0
   -0.3431   24.7282  -25.8160 H   0  0  0  0  0  0  0  0  0  0  0  0
    0.1563   22.5333  -24.7283 H   0  0  0  0  0  0  0  0  0  0  0  0
  1  2  1  0
  2  3  1  0
  3  4  2  0
  4  5  1  0
  5  6  1  0
  6  7  1  0
  7  8  1  0
  8  9  2  0
  8 10  1  0
 10 11  1  0
 11 12  2  0
 12 13  1  0
 13 14  2  0
 14 15  1  0
 15 16  1  0
 16 17  1  0
 16 18  2  0
 15 19  2  0
  5 20  2  0
 20 21  1  0
 21 22  2  0
 22  3  1  0
 19 11  1  0
  1 23  1  0
  1 24  1  0
  1 25  1  0
  2 26  1  0
  2 27  1  0
  4 28  1  0
  6 29  1  0
  6 30  1  0
  7 31  1  0
 12 32  1  0
 13 33  1  0
 14 34  1  0
 17 35  1  0
 17 36  1  0
 17 37  1  0
 19 38  1  0
 20 39  1  0
 21 40  1  0
M  CHG  1  10  -1
M  END
>  <UniqueID>  (24) 
22

>  <SMILES>  (24) 
CCc1cc(CNC(=O)[N-]c2cccc(C(C)=O)c2)ccn1

>  <Energy>  (24) 
38.908425097495304

>  <Genealogy>  (24) 
CCc1cc(CNC(=O)[N-]c2cccc(C(C)=O)c2)ccn1 (protonated)
CCc1cc(CNC(=O)[N-]c2cccc(C(C)=O)c2)ccn1 (3D coordinates assigned)
CCc1cc(CNC(=O)[N-]c2cccc(C(C)=O)c2)ccn1 (optimized conformer: 38.908425097495304 kcal/mol)

>  <smiles>  (24) 
CCc1cc(CNC(=O)Nc2cccc(C(C)=O)c2)ccn1

>  <score_type>  (24) 
oracle

>  <origin>  (24) 
adgpu

>  <m_score__min__energy>  (24) 
-9.1899999999999995

>  <m_primary>  (24) 
energy

$$$$
24:0
     RDKit          3D

 38 40  0  0  1  0  0  0  0  0999 V2000
   -8.3430   18.2190  -31.9660 C   0  0  0  0  0  0  0  0  0  0  0  0
   -8.7710   19.5270  -32.1010 C   0  0  0  0  0  0  0  0  0  0  0  0
   -7.8270   20.5180  -32.3130 C   0  0  0  0  0  0  0  0  0  0  0  0
   -6.4820   20.1760  -32.3860 C   0  0  0  0  0  0  0  0  0  0  0  0
   -5.4270   21.2260  -32.6160 C   0  0  0  0  0  0  0  0  0  0  0  0
   -6.0930   22.4760  -32.3670 N   0  0  0  0  0  0  0  0  0  0  0  0
   -5.5800   23.2790  -31.4680 C   0  0  0  0  0  0  0  0  0  0  0  0
   -6.2750   24.4630  -31.2800 C   0  0  0  0  0  0  0  0  0  0  0  0
   -5.7580   25.3290  -30.3380 C   0  0  0  0  0  0  0  0  0  0  0  0
   -4.6340   24.9800  -29.6710 N   0  0  0  0  0  0  0  0  0  0  0  0
   -3.9840   23.8240  -29.8740 C   0  0  0  0  0  0  0  0  0  0  0  0
   -2.8070   23.4540  -29.1770 N   0  0  0  0  0  0  0  0  0  0  0  0
   -2.5040   23.8410  -27.8170 C   0  0  0  0  0  0  0  0  0  0  0  0
   -1.3680   24.8630  -27.8460 C   0  0  0  0  0  0  0  0  0  0  0  0
   -0.5200   24.5550  -28.9760 N   0  0  0  0  0  0  0  0  0  0  0  0
   -0.4590   23.1430  -29.2900 C   0  0  0  0  0  0  0  0  0  0  0  0
   -1.7880   22.6210  -29.8370 C   0  0  0  0  0  0  0  0  0  0  0  0
   -4.4680   22.9640  -30.7880 N   0  0  0  0  0  0  0  0  0  0  0  0
   -6.1090   18.8890  -32.2490 N   0  0  0  0  0  0  0  0  0  0  0  0
   -7.0020   17.8930  -32.0410 C   0  0  0  0  0  0  0  0  0  0  0  0
   -9.0834   17.4235  -31.7958 H   0  0  0  0  0  0  0  0  0  0  0  0
   -9.8409   19.7756  -32.0412 H   0  0  0  0  0  0  0  0  0  0  0  0
   -8.1392   21.5670  -32.4227 H   0  0  0  0  0  0  0  0  0  0  0  0
   -4.5861   21.0895  -31.9201 H   0  0  0  0  0  0  0  0  0  0  0  0
   -5.0046   21.1752  -33.6304 H   0  0  0  0  0  0  0  0  0  0  0  0
   -7.1864   24.6991  -31.8489 H   0  0  0  0  0  0  0  0  0  0  0  0
   -6.2530   26.2896  -30.1324 H   0  0  0  0  0  0  0  0  0  0  0  0
   -4.2890   25.6660  -28.9760 H   0  0  0  0  0  0  0  0  0  0  0  0
   -3.3943   24.2888  -27.3514 H   0  0  0  0  0  0  0  0  0  0  0  0
   -2.2033   22.9593  -27.2320 H   0  0  0  0  0  0  0  0  0  0  0  0
   -1.7805   25.8770  -27.9540 H   0  0  0  0  0  0  0  0  0  0  0  0
   -0.7902   24.8194  -26.9110 H   0  0  0  0  0  0  0  0  0  0  0  0
   -0.8990   25.0400  -29.8230 H   0  0  0  0  0  0  0  0  0  0  0  0
    0.3244   22.9804  -30.0449 H   0  0  0  0  0  0  0  0  0  0  0  0
   -0.2354   22.5973  -28.3614 H   0  0  0  0  0  0  0  0  0  0  0  0
   -1.8339   22.7420  -30.9294 H   0  0  0  0  0  0  0  0  0  0  0  0
   -1.9307   21.5483  -29.6397 H   0  0  0  0  0  0  0  0  0  0  0  0
   -6.6686   16.8502  -31.9343 H   0  0  0  0  0  0  0  0  0  0  0  0
  1  2  2  0
  2  3  1  0
  3  4  2  0
  4  5  1  0
  5  6  1  0
  6  7  2  0
  7  8  1  0
  8  9  2  0
  9 10  1  0
 10 11  1  0
 11 12  1  0
 12 13  1  0
 13 14  1  0
 14 15  1  0
 15 16  1  0
 16 17  1  0
 11 18  2  0
  4 19  1  0
 19 20  2  0
 20  1  1  0
 18  7  1  0
 17 12  1  0
  1 21  1  0
  2 22  1  0
  3 23  1  0
  5 24  1  0
  5 25  1  0
  8 26  1  0
  9 27  1  0
 10 28  1  0
 13 29  1  0
 13 30  1  0
 14 31  1  0
 14 32  1  0
 15 33  1  0
 16 34  1  0
 16 35  1  0
 17 36  1  0
 17 37  1  0
 20 38  1  0
M  END
>  <smiles>  (25) 
c1ccc(CN=c2cc[nH]c(N3CCNCC3)n2)nc1

>  <score_type>  (25) 
oracle

>  <origin>  (25) 
adgpu

>  <m_score__min__energy>  (25) 
-7.6299999999999999

>  <m_primary>  (25) 
energy

$$$$
25:0
     RDKit          3D

 49 51  0  0  0  0  0  0  0  0999 V2000
   -1.7959   24.5573  -24.7768 H   0  0  0  0  0  0  0  0  0  0  0  0
   -1.6210   24.9850  -25.7750 C   0  0  0  0  0  0  0  0  0  0  0  0
   -1.8550   24.2130  -26.9160 C   0  0  0  0  0  0  0  0  0  0  0  0
   -2.1963   23.1724  -26.8130 H   0  0  0  0  0  0  0  0  0  0  0  0
   -1.6560   24.7610  -28.1940 C   0  0  0  0  0  0  0  0  0  0  0  0
   -1.8340   23.9690  -29.3780 N   0  0  0  0  0  0  0  0  0  0  0  0
   -2.9270   23.8170  -30.0710 C   0  0  0  0  0  0  0  0  0  0  0  0
   -2.9220   22.9340  -31.1000 N   0  0  0  0  0  0  0  0  0  0  0  0
   -4.0350   22.7330  -31.8510 C   0  0  0  0  0  0  0  0  0  0  0  0
   -4.0360   21.8900  -32.8410 N   0  0  0  0  0  0  0  0  0  0  0  0
   -2.9430   21.0330  -33.2100 C   0  0  0  0  0  0  0  0  0  0  0  0
   -1.6430   21.5430  -33.1450 C   0  0  0  0  0  0  0  0  0  0  0  0
   -1.4799   22.5786  -32.8119 H   0  0  0  0  0  0  0  0  0  0  0  0
   -0.5500   20.7500  -33.4990 C   0  0  0  0  0  0  0  0  0  0  0  0
    0.4690   21.1581  -33.4269 H   0  0  0  0  0  0  0  0  0  0  0  0
   -0.7460   19.4330  -33.9470 C   0  0  0  0  0  0  0  0  0  0  0  0
    0.3450   18.5810  -34.3190 N   0  0  0  0  0  0  0  0  0  0  0  0
    1.0870   18.5030  -35.8850 S   0  0  0  0  0  0  0  0  0  0  0  0
    0.6490   19.6720  -36.7210 O   0  0  0  0  0  0  0  0  0  0  0  0
    2.5790   18.5630  -35.7140 O   0  0  0  0  0  0  0  0  0  0  0  0
    0.6660   16.9710  -36.6880 C   0  0  0  0  0  0  0  0  0  0  0  0
    0.4553   16.2044  -35.9278 H   0  0  0  0  0  0  0  0  0  0  0  0
   -0.2248   17.1190  -37.3162 H   0  0  0  0  0  0  0  0  0  0  0  0
    1.5073   16.6430  -37.3162 H   0  0  0  0  0  0  0  0  0  0  0  0
   -2.0490   18.9310  -34.0460 C   0  0  0  0  0  0  0  0  0  0  0  0
   -2.2086   17.9016  -34.3993 H   0  0  0  0  0  0  0  0  0  0  0  0
   -3.1590   19.7270  -33.6990 C   0  0  0  0  0  0  0  0  0  0  0  0
   -4.4770   19.2640  -33.8480 O   0  0  0  0  0  0  0  0  0  0  0  0
   -5.4450   19.2290  -32.8040 C   0  0  0  0  0  0  0  0  0  0  0  0
   -4.9345   19.2475  -31.8298 H   0  0  0  0  0  0  0  0  0  0  0  0
   -6.1066   20.1038  -32.8879 H   0  0  0  0  0  0  0  0  0  0  0  0
   -6.0417   18.3087  -32.8879 H   0  0  0  0  0  0  0  0  0  0  0  0
   -5.1560   23.4460  -31.5850 N   0  0  0  0  0  0  0  0  0  0  0  0
   -5.1800   24.3490  -30.5740 C   0  0  0  0  0  0  0  0  0  0  0  0
   -6.2800   25.0130  -30.3590 N   0  0  0  0  0  0  0  0  0  0  0  0
   -6.4860   26.0190  -29.3220 C   0  0  0  0  0  0  0  0  0  0  0  0
   -6.3899   25.5498  -28.3317 H   0  0  0  0  0  0  0  0  0  0  0  0
   -5.7318   26.8129  -29.4263 H   0  0  0  0  0  0  0  0  0  0  0  0
   -7.4916   26.4525  -29.4263 H   0  0  0  0  0  0  0  0  0  0  0  0
   -4.0580   24.5440  -29.8160 N   0  0  0  0  0  0  0  0  0  0  0  0
   -4.0530   25.2750  -29.0730 H   0  0  0  0  0  0  0  0  0  0  0  0
   -1.1640   26.0670  -28.3140 C   0  0  0  0  0  0  0  0  0  0  0  0
   -0.9607   26.4850  -29.3110 H   0  0  0  0  0  0  0  0  0  0  0  0
   -0.9290   26.8450  -27.1710 C   0  0  0  0  0  0  0  0  0  0  0  0
   -0.4440   28.1850  -27.2990 N   0  0  0  0  0  0  0  0  0  0  0  0
   -1.0780   28.9550  -27.6090 H   0  0  0  0  0  0  0  0  0  0  0  0
    0.5510   28.4160  -27.0840 H   0  0  0  0  0  0  0  0  0  0  0  0
   -1.1650   26.3000  -25.9010 C   0  0  0  0  0  0  0  0  0  0  0  0
   -0.9908   26.9089  -25.0016 H   0  0  0  0  0  0  0  0  0  0  0  0
  1  2  1  0
  2  3  2  0
  3  4  1  0
  3  5  1  0
  5  6  1  0
  6  7  2  3
  7  8  1  0
  8  9  1  0
  9 10  2  3
 10 11  1  0
 11 12  2  0
 12 13  1  0
 12 14  1  0
 14 15  1  0
 14 16  2  0
 16 17  1  0
 17 18  1  0
 18 19  2  0
 18 20  2  0
 18 21  1  0
 21 22  1  0
 21 23  1  0
 21 24  1  0
 16 25  1  0
 25 26  1  0
 25 27  2  0
 27 28  1  0
 28 29  1  0
 29 30  1  0
 29 31  1  0
 29 32  1  0
  9 33  1  0
 33 34  1  0
 34 35  2  0
 35 36  1  0
 36 37  1  0
 36 38  1  0
 36 39  1  0
 34 40  1  0
 40 41  1  0
  5 42  2  0
 42 43  1  0
 42 44  1  0
 44 45  1  0
 45 46  1  0
 45 47  1  0
 44 48  2  0
 48 49  1  0
 48  2  1  0
 40  7  1  0
 27 11  1  0
M  CHG  3   8  -1  17  -1  33  -1
M  END
>  <UniqueID>  (26) 
23

>  <SMILES>  (26) 
C/N=c1/[n-]c(=Nc2ccc([N-]S(C)(=O)=O)cc2OC)[n-]c(=Nc2cccc(N)c2)[nH]1

>  <Energy>  (26) 
65.61100342356457

>  <Genealogy>  (26) 
CN=c1[n-]c(=Nc2ccc([N-]S(C)(=O)=O)cc2OC)[n-]c(=Nc2cccc(N)c2)[nH]1 (protonated)
C/N=c1/[n-]c(=Nc2ccc([N-]S(C)(=O)=O)cc2OC)[n-]c(=Nc2cccc(N)c2)[nH]1 (cis-trans isomerization)
C/N=c1/[n-]c(=Nc2ccc([N-]S(C)(=O)=O)cc2OC)[n-]c(=Nc2cccc(N)c2)[nH]1 (3D coordinates assigned)
C/N=c1/[n-]c(=Nc2ccc([N-]S(C)(=O)=O)cc2OC)[n-]c(=Nc2cccc(N)c2)[nH]1 (optimized conformer: 65.61100342356457 kcal/mol)

>  <smiles>  (26) 
CN=c1[nH]c(=Nc2cccc(N)c2)[nH]c(=Nc2ccc(NS(C)(=O)=O)cc2OC)[nH]1

>  <score_type>  (26) 
oracle

>  <origin>  (26) 
adgpu

>  <m_score__min__energy>  (26) 
-10.289999999999999

>  <m_primary>  (26) 
energy

$$$$
26:0
     RDKit          3D

 67 70  0  0  1  0  0  0  0  0999 V2000
   -5.8000   24.2990  -30.7920 C   0  0  0  0  0  0  0  0  0  0  0  0
   -4.4850   23.9920  -31.2120 O   0  0  0  0  0  0  0  0  0  0  0  0
   -4.2010   22.6690  -31.5220 C   0  0  0  0  0  0  0  0  0  0  0  0
   -5.1630   21.7940  -32.0000 C   0  0  0  0  0  0  0  0  0  0  0  0
   -4.8810   20.4810  -32.3050 C   0  0  0  0  0  0  0  0  0  0  0  0
   -5.8360   19.5650  -32.7950 N   0  0  0  0  0  0  0  0  0  0  0  0
   -6.2700   19.4860  -34.1700 C   0  0  0  0  0  0  0  0  0  0  0  0
   -6.0810   18.0320  -34.6070 C   0  0  0  0  0  0  0  0  0  0  0  0
   -6.7990   17.1190  -33.7730 N   0  0  0  0  0  0  0  0  0  0  0  0
   -6.0490   15.9320  -33.4460 C   0  0  0  0  0  0  0  0  0  0  0  0
   -7.4090   17.7580  -32.6280 C   0  0  0  0  0  0  0  0  0  0  0  0
   -6.4500   18.6180  -31.8660 C   0  0  0  0  0  0  0  0  0  0  0  0
   -3.5690   20.0740  -32.1100 C   0  0  0  0  0  0  0  0  0  0  0  0
   -2.5850   20.8960  -31.6410 C   0  0  0  0  0  0  0  0  0  0  0  0
   -2.9100   22.2030  -31.3470 C   0  0  0  0  0  0  0  0  0  0  0  0
   -1.8630   23.0350  -30.8620 N   0  0  0  0  0  0  0  0  0  0  0  0
   -2.0430   23.6210  -29.7100 C   0  0  0  0  0  0  0  0  0  0  0  0
   -3.1920   23.4360  -29.0100 N   0  0  0  0  0  0  0  0  0  0  0  0
   -3.2960   24.0810  -27.8240 C   0  0  0  0  0  0  0  0  0  0  0  0
   -2.3160   24.8900  -27.3200 C   0  0  0  0  0  0  0  0  0  0  0  0
   -2.4790   25.7060  -25.8090 Cl  0  0  0  0  0  0  0  0  0  0  0  0
   -1.1700   25.0520  -28.0560 C   0  0  0  0  0  0  0  0  0  0  0  0
   -0.1790   25.7760  -27.6930 N   0  0  0  0  0  0  0  0  0  0  0  0
   -0.1390   26.5040  -26.4800 C   0  0  0  0  0  0  0  0  0  0  0  0
   -0.5640   27.8390  -26.4130 C   0  0  0  0  0  0  0  0  0  0  0  0
   -0.5630   28.5600  -25.2560 C   0  0  0  0  0  0  0  0  0  0  0  0
   -0.1210   27.9380  -24.1090 C   0  0  0  0  0  0  0  0  0  0  0  0
    0.3060   26.6250  -24.1310 C   0  0  0  0  0  0  0  0  0  0  0  0
    0.3100   25.8730  -25.3100 C   0  0  0  0  0  0  0  0  0  0  0  0
    0.8500   24.2380  -25.2640 S   0  0  0  0  0  0  0  0  0  0  0  0
    2.0090   24.0280  -24.3400 O   0  0  0  0  0  0  0  0  0  0  0  0
    1.3690   23.9010  -26.6570 O   0  0  0  0  0  0  0  0  0  0  0  0
   -0.4210   23.0510  -24.9380 C   0  0  0  0  0  0  0  0  0  0  0  0
   -0.2540   22.2900  -23.6730 C   0  0  0  0  0  0  0  0  0  0  0  0
   -0.4140   22.0840  -26.1020 C   0  0  0  0  0  0  0  0  0  0  0  0
   -1.0580   24.4120  -29.2400 N   0  0  0  0  0  0  0  0  0  0  0  0
   -5.8410   24.3086  -29.6928 H   0  0  0  0  0  0  0  0  0  0  0  0
   -6.0867   25.2882  -31.1782 H   0  0  0  0  0  0  0  0  0  0  0  0
   -6.4951   23.5390  -31.1782 H   0  0  0  0  0  0  0  0  0  0  0  0
   -6.1901   22.1617  -32.1411 H   0  0  0  0  0  0  0  0  0  0  0  0
   -7.3293   19.7715  -34.2503 H   0  0  0  0  0  0  0  0  0  0  0  0
   -5.6908   20.1697  -34.8080 H   0  0  0  0  0  0  0  0  0  0  0  0
   -6.4394   17.9237  -35.6413 H   0  0  0  0  0  0  0  0  0  0  0  0
   -5.0105   17.7920  -34.5267 H   0  0  0  0  0  0  0  0  0  0  0  0
   -5.9839   15.8290  -32.3528 H   0  0  0  0  0  0  0  0  0  0  0  0
   -6.5547   15.0509  -33.8679 H   0  0  0  0  0  0  0  0  0  0  0  0
   -5.0361   16.0104  -33.8679 H   0  0  0  0  0  0  0  0  0  0  0  0
   -8.2423   18.3851  -32.9777 H   0  0  0  0  0  0  0  0  0  0  0  0
   -7.7536   16.9638  -31.9494 H   0  0  0  0  0  0  0  0  0  0  0  0
   -6.9883   19.1665  -31.0790 H   0  0  0  0  0  0  0  0  0  0  0  0
   -5.6749   17.9938  -31.3975 H   0  0  0  0  0  0  0  0  0  0  0  0
   -3.3073   19.0320  -32.3462 H   0  0  0  0  0  0  0  0  0  0  0  0
   -1.5590   20.5248  -31.5013 H   0  0  0  0  0  0  0  0  0  0  0  0
   -3.9440   22.8190  -29.3890 H   0  0  0  0  0  0  0  0  0  0  0  0
   -4.2160   23.9472  -27.2360 H   0  0  0  0  0  0  0  0  0  0  0  0
   -0.9137   28.3260  -27.3352 H   0  0  0  0  0  0  0  0  0  0  0  0
   -0.9044   29.6055  -25.2388 H   0  0  0  0  0  0  0  0  0  0  0  0
   -0.1080   28.4959  -23.1610 H   0  0  0  0  0  0  0  0  0  0  0  0
    0.6520   26.1585  -23.1969 H   0  0  0  0  0  0  0  0  0  0  0  0
   -1.3693   23.5963  -24.8222 H   0  0  0  0  0  0  0  0  0  0  0  0
   -0.4021   22.9647  -22.8169 H   0  0  0  0  0  0  0  0  0  0  0  0
   -0.9954   21.4784  -23.6327 H   0  0  0  0  0  0  0  0  0  0  0  0
    0.7591   21.8634  -23.6327 H   0  0  0  0  0  0  0  0  0  0  0  0
   -0.4065   21.0520  -25.7213 H   0  0  0  0  0  0  0  0  0  0  0  0
   -1.3133   22.2420  -26.7154 H   0  0  0  0  0  0  0  0  0  0  0  0
    0.4829   22.2550  -26.7154 H   0  0  0  0  0  0  0  0  0  0  0  0
   -0.1980   24.5170  -29.8210 H   0  0  0  0  0  0  0  0  0  0  0  0
  1  2  1  0
  2  3  1  0
  3  4  2  0
  4  5  1  0
  5  6  1  0
  6  7  1  0
  7  8  1  0
  8  9  1  0
  9 10  1  0
  9 11  1  0
 11 12  1  0
  5 13  2  0
 13 14  1  0
 14 15  2  0
 15 16  1  0
 16 17  2  0
 17 18  1  0
 18 19  1  0
 19 20  2  0
 20 21  1  0
 20 22  1  0
 22 23  2  0
 23 24  1  0
 24 25  2  0
 25 26  1  0
 26 27  2  0
 27 28  1  0
 28 29  2  0
 29 30  1  0
 30 31  2  0
 30 32  2  0
 30 33  1  0
 33 34  1  0
 33 35  1  0
 22 36  1  0
 15  3  1  0
 36 17  1  0
 12  6  1  0
 29 24  1  0
  1 37  1  0
  1 38  1  0
  1 39  1  0
  4 40  1  0
  7 41  1  0
  7 42  1  0
  8 43  1  0
  8 44  1  0
 10 45  1  0
 10 46  1  0
 10 47  1  0
 11 48  1  0
 11 49  1  0
 12 50  1  0
 12 51  1  0
 13 52  1  0
 14 53  1  0
 18 54  1  0
 19 55  1  0
 25 56  1  0
 26 57  1  0
 27 58  1  0
 28 59  1  0
 33 60  1  0
 34 61  1  0
 34 62  1  0
 34 63  1  0
 35 64  1  0
 35 65  1  0
 35 66  1  0
 36 67  1  0
M  END
>  <smiles>  (27) 
COc1cc(N2CCN(C)CC2)ccc1N=c1[nH]cc(Cl)c(=Nc2ccccc2S(=O)(=O)C(C)C)[nH]1

>  <score_type>  (27) 
oracle

>  <origin>  (27) 
adgpu

>  <m_score__min__energy>  (27) 
-10.85

>  <m_primary>  (27) 
energy

$$$$
27:0
     RDKit          3D

 35 36  0  0  0  0  0  0  0  0999 V2000
   -2.5460   15.4780  -35.3210 C   0  0  0  0  0  0  0  0  0  0  0  0
   -3.8080   16.1030  -34.8050 C   0  0  0  0  0  0  0  0  0  0  0  0
   -4.0530   17.4700  -35.0060 C   0  0  0  0  0  0  0  0  0  0  0  0
   -5.2470   18.0450  -34.5570 C   0  0  0  0  0  0  0  0  0  0  0  0
   -6.2230   17.2590  -33.9280 C   0  0  0  0  0  0  0  0  0  0  0  0
   -7.4330   17.8780  -33.4600 N   0  0  0  0  0  0  0  0  0  0  0  0
   -7.4630   19.0800  -32.6750 C   0  0  0  0  0  0  0  0  0  0  0  0
   -8.8850   19.8830  -32.5200 S   0  0  0  0  0  0  0  0  0  0  0  0
   -6.3650   19.3930  -31.8030 N   0  0  0  0  0  0  0  0  0  0  0  0
   -5.9930   20.7280  -31.4170 C   0  0  0  0  0  0  0  0  0  0  0  0
   -6.9340   21.5480  -30.7780 C   0  0  0  0  0  0  0  0  0  0  0  0
   -6.5890   22.8400  -30.3700 C   0  0  0  0  0  0  0  0  0  0  0  0
   -5.2890   23.3200  -30.5790 C   0  0  0  0  0  0  0  0  0  0  0  0
   -4.8550   24.9520  -30.0780 S   0  0  0  0  0  0  0  0  0  0  0  0
   -3.1930   24.9900  -29.6100 N   0  0  0  0  0  0  0  0  0  0  0  0
   -5.7140   25.3740  -28.9190 O   0  0  0  0  0  0  0  0  0  0  0  0
   -5.0750   25.9110  -31.2140 O   0  0  0  0  0  0  0  0  0  0  0  0
   -4.3400   22.5000  -31.2020 C   0  0  0  0  0  0  0  0  0  0  0  0
   -4.6860   21.2090  -31.6120 C   0  0  0  0  0  0  0  0  0  0  0  0
   -5.9740   15.8900  -33.7250 C   0  0  0  0  0  0  0  0  0  0  0  0
   -4.7810   15.3140  -34.1720 C   0  0  0  0  0  0  0  0  0  0  0  0
   -1.9177   15.1669  -34.4734 H   0  0  0  0  0  0  0  0  0  0  0  0
   -2.7959   14.5995  -35.9340 H   0  0  0  0  0  0  0  0  0  0  0  0
   -1.9987   16.2092  -35.9340 H   0  0  0  0  0  0  0  0  0  0  0  0
   -3.3039   18.0916  -35.5183 H   0  0  0  0  0  0  0  0  0  0  0  0
   -5.4213   19.1218  -34.6986 H   0  0  0  0  0  0  0  0  0  0  0  0
   -8.3410   17.4150  -33.6860 H   0  0  0  0  0  0  0  0  0  0  0  0
   -5.8060   18.5960  -31.4210 H   0  0  0  0  0  0  0  0  0  0  0  0
   -7.9516   21.1718  -30.5963 H   0  0  0  0  0  0  0  0  0  0  0  0
   -7.3393   23.4810  -29.8840 H   0  0  0  0  0  0  0  0  0  0  0  0
   -2.6460   25.2870  -30.4500 H   0  0  0  0  0  0  0  0  0  0  0  0
   -3.3188   22.8730  -31.3693 H   0  0  0  0  0  0  0  0  0  0  0  0
   -3.9320   20.5661  -32.0896 H   0  0  0  0  0  0  0  0  0  0  0  0
   -6.7223   15.2685  -33.2114 H   0  0  0  0  0  0  0  0  0  0  0  0
   -4.6042   14.2380  -34.0270 H   0  0  0  0  0  0  0  0  0  0  0  0
  1  2  1  0
  2  3  2  0
  3  4  1  0
  4  5  2  0
  5  6  1  0
  6  7  1  0
  7  8  2  0
  7  9  1  0
  9 10  1  0
 10 11  2  0
 11 12  1  0
 12 13  2  0
 13 14  1  0
 14 15  1  0
 14 16  2  0
 14 17  2  0
 13 18  1  0
 18 19  2  0
  5 20  1  0
 20 21  2  0
 21  2  1  0
 19 10  1  0
  1 22  1  0
  1 23  1  0
  1 24  1  0
  3 25  1  0
  4 26  1  0
  6 27  1  0
  9 28  1  0
 11 29  1  0
 12 30  1  0
 15 31  1  0
 18 32  1  0
 19 33  1  0
 20 34  1  0
 21 35  1  0
M  CHG  1  15  -1
M  END
>  <UniqueID>  (28) 
24

>  <SMILES>  (28) 
Cc1ccc(NC(=S)Nc2ccc(S([NH-])(=O)=O)cc2)cc1

>  <Energy>  (28) 
42.05183205563253

>  <Genealogy>  (28) 
Cc1ccc(NC(=S)Nc2ccc(S([NH-])(=O)=O)cc2)cc1 (protonated)
Cc1ccc(NC(=S)Nc2ccc(S([NH-])(=O)=O)cc2)cc1 (3D coordinates assigned)
Cc1ccc(NC(=S)Nc2ccc(S([NH-])(=O)=O)cc2)cc1 (optimized conformer: 42.05183205563253 kcal/mol)

>  <smiles>  (28) 
Cc1ccc(NC(=S)Nc2ccc(S(N)(=O)=O)cc2)cc1

>  <score_type>  (28) 
oracle

>  <origin>  (28) 
adgpu

>  <m_score__min__energy>  (28) 
-9.7200000000000006

>  <m_primary>  (28) 
energy

$$$$
28:0
     RDKit          3D

 38 40  0  0  0  0  0  0  0  0999 V2000
   -8.8200   22.9290  -32.0310 N   0  0  0  0  0  0  0  0  0  0  0  0
   -8.9930   19.4580  -32.1490 C   0  0  0  0  0  0  0  0  0  0  0  0
   -9.3450   20.7550  -32.2000 N   0  0  0  0  0  0  0  0  0  0  0  0
   -8.4260   21.7190  -31.9530 C   0  0  0  0  0  0  0  0  0  0  0  0
   -9.8600   18.5840  -32.3810 O   0  0  0  0  0  0  0  0  0  0  0  0
   -7.7510   19.0800  -31.8590 N   0  0  0  0  0  0  0  0  0  0  0  0
   -7.3100   17.7000  -31.7890 C   0  0  0  0  0  0  0  0  0  0  0  0
   -6.2620   17.4020  -32.7930 C   0  0  0  0  0  0  0  0  0  0  0  0
   -6.2500   18.0780  -34.0100 C   0  0  0  0  0  0  0  0  0  0  0  0
   -5.2860   17.8230  -34.9690 C   0  0  0  0  0  0  0  0  0  0  0  0
   -4.2970   16.8680  -34.7220 C   0  0  0  0  0  0  0  0  0  0  0  0
   -3.3500   16.6300  -35.6820 F   0  0  0  0  0  0  0  0  0  0  0  0
   -4.3070   16.2010  -33.5220 C   0  0  0  0  0  0  0  0  0  0  0  0
   -5.2740   16.4530  -32.5560 C   0  0  0  0  0  0  0  0  0  0  0  0
   -6.8070   20.0260  -31.6060 C   0  0  0  0  0  0  0  0  0  0  0  0
   -7.1320   21.3720  -31.6480 C   0  0  0  0  0  0  0  0  0  0  0  0
   -6.0790   22.3160  -31.3420 C   0  0  0  0  0  0  0  0  0  0  0  0
   -4.7490   22.1240  -31.6410 C   0  0  0  0  0  0  0  0  0  0  0  0
   -3.8330   23.0920  -31.2850 C   0  0  0  0  0  0  0  0  0  0  0  0
   -4.2170   24.2620  -30.6320 C   0  0  0  0  0  0  0  0  0  0  0  0
   -3.3190   25.2410  -30.2670 O   0  0  0  0  0  0  0  0  0  0  0  0
   -5.5530   24.4560  -30.3320 C   0  0  0  0  0  0  0  0  0  0  0  0
   -6.0050   25.5940  -29.6830 O   0  0  0  0  0  0  0  0  0  0  0  0
   -6.4690   23.4880  -30.6870 C   0  0  0  0  0  0  0  0  0  0  0  0
   -8.1650   23.7060  -31.8540 H   0  0  0  0  0  0  0  0  0  0  0  0
  -10.3360   20.9860  -32.4330 H   0  0  0  0  0  0  0  0  0  0  0  0
   -6.9052   17.5068  -30.7846 H   0  0  0  0  0  0  0  0  0  0  0  0
   -8.1759   17.0549  -31.9991 H   0  0  0  0  0  0  0  0  0  0  0  0
   -7.0246   18.8320  -34.2137 H   0  0  0  0  0  0  0  0  0  0  0  0
   -5.2983   18.3706  -35.9230 H   0  0  0  0  0  0  0  0  0  0  0  0
   -3.5305   15.4485  -33.3201 H   0  0  0  0  0  0  0  0  0  0  0  0
   -5.2576   15.9018  -31.6042 H   0  0  0  0  0  0  0  0  0  0  0  0
   -5.7780   19.7200  -31.3663 H   0  0  0  0  0  0  0  0  0  0  0  0
   -4.4208   21.2099  -32.1574 H   0  0  0  0  0  0  0  0  0  0  0  0
   -2.7704   22.9363  -31.5230 H   0  0  0  0  0  0  0  0  0  0  0  0
   -3.5080   26.0510  -29.7180 H   0  0  0  0  0  0  0  0  0  0  0  0
   -5.3580   26.1230  -29.1190 H   0  0  0  0  0  0  0  0  0  0  0  0
   -7.5319   23.6417  -30.4491 H   0  0  0  0  0  0  0  0  0  0  0  0
  1  2  2  3
  2  3  1  0
  3  4  1  0
  4  5  2  0
  4  6  1  0
  6  7  1  0
  7  8  1  0
  8  9  2  0
  9 10  1  0
 10 11  2  0
 11 12  1  0
 11 13  1  0
 13 14  2  0
  6 15  1  0
 15 16  2  0
 16 17  1  0
 17 18  2  0
 18 19  1  0
 19 20  2  0
 20 21  1  0
 20 22  1  0
 22 23  1  0
 22 24  2  0
 16  2  1  0
 24 17  1  0
 14  8  1  0
  1 25  1  0
  3 26  1  0
  7 27  1  0
  7 28  1  0
  9 29  1  0
 10 30  1  0
 13 31  1  0
 14 32  1  0
 15 33  1  0
 18 34  1  0
 19 35  1  0
 21 36  1  0
 23 37  1  0
 24 38  1  0
M  END
>  <smiles>  (29) 
N=c1[nH]c(=O)n(Cc2ccc(F)cc2)cc1-c1ccc(O)c(O)c1

>  <score_type>  (29) 
oracle

>  <origin>  (29) 
adgpu

>  <m_score__min__energy>  (29) 
-8.9100000000000001

>  <m_primary>  (29) 
energy

$$$$
29:0
     RDKit          3D

 60 64  0  0  0  0  0  0  0  0999 V2000
   -3.0298   19.6118  -34.6869 H   0  0  0  0  0  0  0  0  0  0  0  0
   -2.5760   18.7150  -34.2400 C   0  0  0  0  0  0  0  0  0  0  0  0
   -3.3620   17.6610  -33.8930 N   0  0  0  0  0  0  0  0  0  0  0  0
   -2.8530   16.5250  -33.3420 C   0  0  0  0  0  0  0  0  0  0  0  0
   -3.7410   15.4510  -32.9770 N   0  0  0  0  0  0  0  0  0  0  0  0
   -5.1990   15.5810  -33.1110 C   0  0  0  0  0  0  0  0  0  0  0  0
   -5.6494   15.6611  -32.1106 H   0  0  0  0  0  0  0  0  0  0  0  0
   -5.4247   16.4823  -33.6998 H   0  0  0  0  0  0  0  0  0  0  0  0
   -5.7810   14.3550  -33.8320 C   0  0  0  0  0  0  0  0  0  0  0  0
   -6.8501   14.2804  -33.5841 H   0  0  0  0  0  0  0  0  0  0  0  0
   -5.6114   14.5025  -34.9088 H   0  0  0  0  0  0  0  0  0  0  0  0
   -5.0950   13.0270  -33.4420 C   0  0  0  0  0  0  0  0  0  0  0  0
   -5.8718   12.2675  -33.2695 H   0  0  0  0  0  0  0  0  0  0  0  0
   -4.4251   12.7451  -34.2677 H   0  0  0  0  0  0  0  0  0  0  0  0
   -4.2400   13.1500  -32.1750 C   0  0  0  0  0  0  0  0  0  0  0  0
   -4.8882   13.4060  -31.3240 H   0  0  0  0  0  0  0  0  0  0  0  0
   -3.7353   12.1901  -31.9910 H   0  0  0  0  0  0  0  0  0  0  0  0
   -3.1780   14.2450  -32.3490 C   0  0  0  0  0  0  0  0  0  0  0  0
   -2.7753   14.5120  -31.3608 H   0  0  0  0  0  0  0  0  0  0  0  0
   -2.3852   13.8543  -33.0038 H   0  0  0  0  0  0  0  0  0  0  0  0
   -1.4740   16.4420  -33.0980 C   0  0  0  0  0  0  0  0  0  0  0  0
   -1.0479   15.5410  -32.6327 H   0  0  0  0  0  0  0  0  0  0  0  0
   -0.6460   17.5090  -33.4490 C   0  0  0  0  0  0  0  0  0  0  0  0
    0.4371   17.4435  -33.2685 H   0  0  0  0  0  0  0  0  0  0  0  0
   -1.1880   18.6650  -34.0310 C   0  0  0  0  0  0  0  0  0  0  0  0
   -0.3170   19.8080  -34.4100 C   0  0  0  0  0  0  0  0  0  0  0  0
    1.0800   19.6950  -34.3480 C   0  0  0  0  0  0  0  0  0  0  0  0
    1.5399   18.7525  -34.0160 H   0  0  0  0  0  0  0  0  0  0  0  0
    1.8870   20.7740  -34.7060 C   0  0  0  0  0  0  0  0  0  0  0  0
    2.9823   20.6795  -34.6674 H   0  0  0  0  0  0  0  0  0  0  0  0
    1.3020   21.9760  -35.1140 C   0  0  0  0  0  0  0  0  0  0  0  0
    2.0830   22.9670  -35.4460 N   0  0  0  0  0  0  0  0  0  0  0  0
    1.6930   24.3050  -35.7900 C   0  0  0  0  0  0  0  0  0  0  0  0
    0.4940   24.5610  -36.4660 C   0  0  0  0  0  0  0  0  0  0  0  0
   -0.1438   23.7229  -36.7836 H   0  0  0  0  0  0  0  0  0  0  0  0
    0.1020   25.8740  -36.7400 C   0  0  0  0  0  0  0  0  0  0  0  0
   -0.8348   26.0560  -37.2870 H   0  0  0  0  0  0  0  0  0  0  0  0
    0.8910   26.9740  -36.3250 C   0  0  0  0  0  0  0  0  0  0  0  0
    0.4870   28.3490  -36.6140 N   0  0  0  0  0  0  0  0  0  0  0  0
    0.6480   29.3860  -35.5720 C   0  0  0  0  0  0  0  0  0  0  0  0
    0.0137   29.1180  -34.7142 H   0  0  0  0  0  0  0  0  0  0  0  0
    1.7160   29.4164  -35.3105 H   0  0  0  0  0  0  0  0  0  0  0  0
    0.2610   30.7920  -36.0390 C   0  0  0  0  0  0  0  0  0  0  0  0
    0.0249   31.4100  -35.1602 H   0  0  0  0  0  0  0  0  0  0  0  0
    1.1071   31.2196  -36.5969 H   0  0  0  0  0  0  0  0  0  0  0  0
   -0.8610   30.7540  -36.8890 O   0  0  0  0  0  0  0  0  0  0  0  0
   -0.4810   30.1380  -38.0960 C   0  0  0  0  0  0  0  0  0  0  0  0
   -1.2915   30.2544  -38.8306 H   0  0  0  0  0  0  0  0  0  0  0  0
    0.4396   30.6172  -38.4607 H   0  0  0  0  0  0  0  0  0  0  0  0
   -0.2060   28.6470  -37.8850 C   0  0  0  0  0  0  0  0  0  0  0  0
   -1.1668   28.1115  -37.8915 H   0  0  0  0  0  0  0  0  0  0  0  0
    0.4583   28.3223  -38.6994 H   0  0  0  0  0  0  0  0  0  0  0  0
    2.0750   26.6920  -35.6020 C   0  0  0  0  0  0  0  0  0  0  0  0
    2.7022   27.5227  -35.2462 H   0  0  0  0  0  0  0  0  0  0  0  0
    2.4600   25.3770  -35.3330 C   0  0  0  0  0  0  0  0  0  0  0  0
    3.3763   25.1846  -34.7556 H   0  0  0  0  0  0  0  0  0  0  0  0
   -0.0620   22.0650  -35.1920 N   0  0  0  0  0  0  0  0  0  0  0  0
   -0.5300   22.9270  -35.5500 H   0  0  0  0  0  0  0  0  0  0  0  0
   -0.8670   21.0230  -34.8470 C   0  0  0  0  0  0  0  0  0  0  0  0
   -1.9595   21.1343  -34.9113 H   0  0  0  0  0  0  0  0  0  0  0  0
  1  2  1  0
  2  3  2  0
  3  4  1  0
  4  5  1  0
  5  6  1  0
  6  7  1  0
  6  8  1  0
  6  9  1  0
  9 10  1  0
  9 11  1  0
  9 12  1  0
 12 13  1  0
 12 14  1  0
 12 15  1  0
 15 16  1  0
 15 17  1  0
 15 18  1  0
 18 19  1  0
 18 20  1  0
  4 21  2  0
 21 22  1  0
 21 23  1  0
 23 24  1  0
 23 25  2  0
 25 26  1  0
 26 27  1  0
 27 28  1  0
 27 29  2  0
 29 30  1  0
 29 31  1  0
 31 32  2  0
 32 33  1  0
 33 34  2  0
 34 35  1  0
 34 36  1  0
 36 37  1  0
 36 38  2  0
 38 39  1  0
 39 40  1  0
 40 41  1  0
 40 42  1  0
 40 43  1  0
 43 44  1  0
 43 45  1  0
 43 46  1  0
 46 47  1  0
 47 48  1  0
 47 49  1  0
 47 50  1  0
 50 51  1  0
 50 52  1  0
 38 53  1  0
 53 54  1  0
 53 55  2  0
 55 56  1  0
 31 57  1  0
 57 58  1  0
 57 59  1  0
 59 60  1  0
 25  2  1  0
 59 26  2  0
 18  5  1  0
 55 33  1  0
 50 39  1  0
M  END
>  <UniqueID>  (30) 
25

>  <SMILES>  (30) 
c1cc(N2CCOCC2)ccc1/N=c1/ccc(-c2ccc(N3CCCCC3)nc2)c[nH]1

>  <Energy>  (30) 
91.47522159361594

>  <Genealogy>  (30) 
c1cc(N2CCOCC2)ccc1/N=c1/ccc(-c2ccc(N3CCCCC3)nc2)c[nH]1 (cis-trans isomerization)
c1cc(N2CCOCC2)ccc1/N=c1/ccc(-c2ccc(N3CCCCC3)nc2)c[nH]1 (3D coordinates assigned)
c1cc(N2CCOCC2)ccc1/N=c1/ccc(-c2ccc(N3CCCCC3)nc2)c[nH]1 (nonaromatic ring conformer: 91.47522159361594 kcal/mol)

>  <smiles>  (30) 
c1cc(N2CCOCC2)ccc1N=c1ccc(-c2ccc(N3CCCCC3)nc2)c[nH]1

>  <score_type>  (30) 
oracle

>  <origin>  (30) 
adgpu

>  <m_score__min__energy>  (30) 
-8.9399999999999995

>  <m_primary>  (30) 
energy

$$$$
30:0
     RDKit          3D

 38 40  0  0  0  0  0  0  0  0999 V2000
   -3.8290   24.9360  -30.4930 N   0  0  0  0  0  0  0  0  0  0  0  0
   -4.6900   24.2260  -30.7980 C   0  0  0  0  0  0  0  0  0  0  0  0
   -5.7670   23.3390  -31.1780 C   0  0  0  0  0  0  0  0  0  0  0  0
   -5.5190   22.0690  -31.7410 C   0  0  0  0  0  0  0  0  0  0  0  0
   -4.1680   21.6030  -32.1250 C   0  0  0  0  0  0  0  0  0  0  0  0
   -3.1580   21.5170  -31.1530 C   0  0  0  0  0  0  0  0  0  0  0  0
   -1.9010   21.0000  -31.4820 C   0  0  0  0  0  0  0  0  0  0  0  0
   -1.6460   20.5500  -32.7810 C   0  0  0  0  0  0  0  0  0  0  0  0
   -0.0730   19.8880  -33.1880 Cl  0  0  0  0  0  0  0  0  0  0  0  0
   -2.6510   20.6120  -33.7500 C   0  0  0  0  0  0  0  0  0  0  0  0
   -3.9090   21.1280  -33.4240 C   0  0  0  0  0  0  0  0  0  0  0  0
   -6.5690   21.2460  -31.9960 N   0  0  0  0  0  0  0  0  0  0  0  0
   -7.8510   21.6300  -31.7760 C   0  0  0  0  0  0  0  0  0  0  0  0
   -9.1850   20.5340  -32.2620 S   0  0  0  0  0  0  0  0  0  0  0  0
   -8.5510   19.0850  -31.3330 C   0  0  0  0  0  0  0  0  0  0  0  0
   -7.3350   18.4920  -31.9980 C   0  0  0  0  0  0  0  0  0  0  0  0
   -6.5240   17.5790  -31.3060 C   0  0  0  0  0  0  0  0  0  0  0  0
   -5.4730   16.9340  -31.9620 C   0  0  0  0  0  0  0  0  0  0  0  0
   -5.2150   17.1910  -33.3120 C   0  0  0  0  0  0  0  0  0  0  0  0
   -3.9010   16.3190  -34.0920 Cl  0  0  0  0  0  0  0  0  0  0  0  0
   -6.0100   18.1210  -34.0120 C   0  0  0  0  0  0  0  0  0  0  0  0
   -5.7770   18.4050  -35.3980 N   0  0  0  0  0  0  0  0  0  0  0  0
   -7.0630   18.7680  -33.3470 C   0  0  0  0  0  0  0  0  0  0  0  0
   -8.1140   22.8580  -31.2600 N   0  0  0  0  0  0  0  0  0  0  0  0
   -7.1020   23.7120  -30.9440 C   0  0  0  0  0  0  0  0  0  0  0  0
   -7.3720   24.8380  -30.4440 O   0  0  0  0  0  0  0  0  0  0  0  0
   -3.3569   21.8585  -30.1264 H   0  0  0  0  0  0  0  0  0  0  0  0
   -1.1117   20.9473  -30.7177 H   0  0  0  0  0  0  0  0  0  0  0  0
   -2.4521   20.2542  -34.7710 H   0  0  0  0  0  0  0  0  0  0  0  0
   -4.7005   21.1628  -34.1871 H   0  0  0  0  0  0  0  0  0  0  0  0
   -8.2824   19.4028  -30.3147 H   0  0  0  0  0  0  0  0  0  0  0  0
   -9.3396   18.3185  -31.3085 H   0  0  0  0  0  0  0  0  0  0  0  0
   -6.7168   17.3707  -30.2433 H   0  0  0  0  0  0  0  0  0  0  0  0
   -4.8436   16.2185  -31.4125 H   0  0  0  0  0  0  0  0  0  0  0  0
   -4.8920   18.1290  -35.8770 H   0  0  0  0  0  0  0  0  0  0  0  0
   -6.4990   18.9000  -35.9670 H   0  0  0  0  0  0  0  0  0  0  0  0
   -7.6815   19.4989  -33.8886 H   0  0  0  0  0  0  0  0  0  0  0  0
   -9.1060   23.1480  -31.1020 H   0  0  0  0  0  0  0  0  0  0  0  0
  1  2  3  0
  2  3  1  0
  3  4  2  0
  4  5  1  0
  5  6  2  0
  6  7  1  0
  7  8  2  0
  8  9  1  0
  8 10  1  0
 10 11  2  0
  4 12  1  0
 12 13  2  0
 13 14  1  0
 14 15  1  0
 15 16  1  0
 16 17  2  0
 17 18  1  0
 18 19  2  0
 19 20  1  0
 19 21  1  0
 21 22  1  0
 21 23  2  0
 13 24  1  0
 24 25  1  0
 25 26  2  0
 25  3  1  0
 11  5  1  0
 23 16  1  0
  6 27  1  0
  7 28  1  0
 10 29  1  0
 11 30  1  0
 15 31  1  0
 15 32  1  0
 17 33  1  0
 18 34  1  0
 22 35  1  0
 22 36  1  0
 23 37  1  0
 24 38  1  0
M  END
>  <UniqueID>  (31) 
26

>  <SMILES>  (31) 
N#Cc1c(-c2ccc(Cl)cc2)nc(SCc2ccc(Cl)c(N)c2)[nH]c1=O

>  <Energy>  (31) 
41.47013354272153

>  <Genealogy>  (31) 
N#Cc1c(-c2ccc(Cl)cc2)nc(SCc2ccc(Cl)c(N)c2)[nH]c1=O (3D coordinates assigned)
N#Cc1c(-c2ccc(Cl)cc2)nc(SCc2ccc(Cl)c(N)c2)[nH]c1=O (optimized conformer: 41.47013354272153 kcal/mol)

>  <smiles>  (31) 
N#Cc1c(-c2ccc(Cl)cc2)nc(SCc2ccc(Cl)c(N)c2)[nH]c1=O

>  <score_type>  (31) 
oracle

>  <origin>  (31) 
adgpu

>  <m_score__min__energy>  (31) 
-9.1999999999999993

>  <m_primary>  (31) 
energy

$$$$
31:0
     RDKit          3D

 42 43  0  0  0  0  0  0  0  0999 V2000
   -3.2330   19.7140  -33.8250 C   0  0  0  0  0  0  0  0  0  0  0  0
   -3.6670   18.6820  -32.7900 C   0  0  0  0  0  0  0  0  0  0  0  0
   -5.1000   18.3710  -32.9250 N   0  0  0  0  0  0  0  0  0  0  0  0
   -5.5070   16.9900  -33.2310 C   0  0  0  0  0  0  0  0  0  0  0  0
   -6.1590   16.8910  -34.6150 C   0  0  0  0  0  0  0  0  0  0  0  0
   -6.0830   18.1160  -35.2910 O   0  0  0  0  0  0  0  0  0  0  0  0
   -6.1060   19.3680  -32.6330 C   0  0  0  0  0  0  0  0  0  0  0  0
   -5.7700   20.5970  -32.0430 C   0  0  0  0  0  0  0  0  0  0  0  0
   -6.7860   21.5320  -31.7860 C   0  0  0  0  0  0  0  0  0  0  0  0
   -6.4950   22.8500  -31.1650 C   0  0  0  0  0  0  0  0  0  0  0  0
   -7.5250   23.6680  -30.6660 C   0  0  0  0  0  0  0  0  0  0  0  0
   -7.2300   24.9060  -30.0930 C   0  0  0  0  0  0  0  0  0  0  0  0
   -5.9090   25.3500  -30.0150 C   0  0  0  0  0  0  0  0  0  0  0  0
   -4.8670   24.5550  -30.5200 C   0  0  0  0  0  0  0  0  0  0  0  0
   -3.4940   24.9690  -30.4690 N   0  0  0  0  0  0  0  0  0  0  0  0
   -2.3510   24.5430  -29.2360 S   0  0  0  0  0  0  0  0  0  0  0  0
   -3.2020   24.0870  -27.7410 C   0  0  0  0  0  0  0  0  0  0  0  0
   -1.4820   25.7350  -28.9520 O   0  0  0  0  0  0  0  0  0  0  0  0
   -1.4800   23.4130  -29.7090 O   0  0  0  0  0  0  0  0  0  0  0  0
   -5.1670   23.3130  -31.0930 C   0  0  0  0  0  0  0  0  0  0  0  0
   -8.0650   21.2290  -32.1370 N   0  0  0  0  0  0  0  0  0  0  0  0
   -8.3780   20.0410  -32.7150 C   0  0  0  0  0  0  0  0  0  0  0  0
   -7.4070   19.1270  -32.9570 N   0  0  0  0  0  0  0  0  0  0  0  0
   -2.8557   20.6111  -33.3124 H   0  0  0  0  0  0  0  0  0  0  0  0
   -2.4372   19.2895  -34.4547 H   0  0  0  0  0  0  0  0  0  0  0  0
   -4.0930   19.9859  -34.4547 H   0  0  0  0  0  0  0  0  0  0  0  0
   -3.0836   17.7606  -32.9339 H   0  0  0  0  0  0  0  0  0  0  0  0
   -3.4909   19.0962  -31.7863 H   0  0  0  0  0  0  0  0  0  0  0  0
   -4.6186   16.3417  -33.2070 H   0  0  0  0  0  0  0  0  0  0  0  0
   -6.2436   16.6721  -32.4785 H   0  0  0  0  0  0  0  0  0  0  0  0
   -5.6389   16.1214  -35.2042 H   0  0  0  0  0  0  0  0  0  0  0  0
   -7.2186   16.6249  -34.4867 H   0  0  0  0  0  0  0  0  0  0  0  0
   -6.8650   18.6530  -34.9960 H   0  0  0  0  0  0  0  0  0  0  0  0
   -4.7250   20.8245  -31.7855 H   0  0  0  0  0  0  0  0  0  0  0  0
   -8.5698   23.3297  -30.7278 H   0  0  0  0  0  0  0  0  0  0  0  0
   -8.0427   25.5350  -29.7009 H   0  0  0  0  0  0  0  0  0  0  0  0
   -5.6836   26.3244  -29.5571 H   0  0  0  0  0  0  0  0  0  0  0  0
   -2.6094   24.4045  -26.8704 H   0  0  0  0  0  0  0  0  0  0  0  0
   -4.1855   24.5790  -27.7143 H   0  0  0  0  0  0  0  0  0  0  0  0
   -3.3371   22.9957  -27.7143 H   0  0  0  0  0  0  0  0  0  0  0  0
   -4.3534   22.6899  -31.4927 H   0  0  0  0  0  0  0  0  0  0  0  0
   -9.4207   19.8201  -32.9871 H   0  0  0  0  0  0  0  0  0  0  0  0
  1  2  1  0
  2  3  1  0
  3  4  1  0
  4  5  1  0
  5  6  1  0
  3  7  1  0
  7  8  2  0
  8  9  1  0
  9 10  1  0
 10 11  2  0
 11 12  1  0
 12 13  2  0
 13 14  1  0
 14 15  1  0
 15 16  1  0
 16 17  1  0
 16 18  2  0
 16 19  2  0
 14 20  2  0
  9 21  2  0
 21 22  1  0
 22 23  2  0
 23  7  1  0
 20 10  1  0
  1 24  1  0
  1 25  1  0
  1 26  1  0
  2 27  1  0
  2 28  1  0
  4 29  1  0
  4 30  1  0
  5 31  1  0
  5 32  1  0
  6 33  1  0
  8 34  1  0
 11 35  1  0
 12 36  1  0
 13 37  1  0
 17 38  1  0
 17 39  1  0
 17 40  1  0
 20 41  1  0
 22 42  1  0
M  CHG  1  15  -1
M  END
>  <UniqueID>  (32) 
27

>  <SMILES>  (32) 
CCN(CCO)c1cc(-c2cccc([N-]S(C)(=O)=O)c2)ncn1

>  <Energy>  (32) 
42.11024149588956

>  <Genealogy>  (32) 
CCN(CCO)c1cc(-c2cccc([N-]S(C)(=O)=O)c2)ncn1 (protonated)
CCN(CCO)c1cc(-c2cccc([N-]S(C)(=O)=O)c2)ncn1 (3D coordinates assigned)
CCN(CCO)c1cc(-c2cccc([N-]S(C)(=O)=O)c2)ncn1 (optimized conformer: 42.11024149588956 kcal/mol)

>  <smiles>  (32) 
CCN(CCO)c1cc(-c2cccc(NS(C)(=O)=O)c2)ncn1

>  <score_type>  (32) 
oracle

>  <origin>  (32) 
adgpu

>  <m_score__min__energy>  (32) 
-9.0600000000000005

>  <m_primary>  (32) 
energy

$$$$
32:0
     RDKit          3D

 26 27  0  0  0  0  0  0  0  0999 V2000
   -1.2970   23.7270  -28.0610 C   0  0  0  0  0  0  0  0  0  0  0  0
   -2.6070   23.9750  -28.7410 C   0  0  0  0  0  0  0  0  0  0  0  0
   -2.6960   24.9180  -29.7170 N   0  0  0  0  0  0  0  0  0  0  0  0
   -3.8500   25.1640  -30.3380 N   0  0  0  0  0  0  0  0  0  0  0  0
   -4.9760   24.4800  -30.0100 C   0  0  0  0  0  0  0  0  0  0  0  0
   -6.5220   24.8460  -30.8370 S   0  0  0  0  0  0  0  0  0  0  0  0
   -6.1810   23.7800  -32.2800 C   0  0  0  0  0  0  0  0  0  0  0  0
   -6.9030   22.4640  -32.1630 C   0  0  0  0  0  0  0  0  0  0  0  0
   -8.1100   22.3840  -31.4530 C   0  0  0  0  0  0  0  0  0  0  0  0
   -8.7630   21.1570  -31.3110 C   0  0  0  0  0  0  0  0  0  0  0  0
   -8.2150   19.9970  -31.8690 C   0  0  0  0  0  0  0  0  0  0  0  0
   -9.0620   18.4690  -31.6620 Cl  0  0  0  0  0  0  0  0  0  0  0  0
   -7.0030   20.0680  -32.5780 C   0  0  0  0  0  0  0  0  0  0  0  0
   -6.2720   18.6320  -33.2810 Cl  0  0  0  0  0  0  0  0  0  0  0  0
   -6.3540   21.2990  -32.7230 C   0  0  0  0  0  0  0  0  0  0  0  0
   -4.9260   23.5270  -29.0450 N   0  0  0  0  0  0  0  0  0  0  0  0
   -3.7630   23.2590  -28.4000 C   0  0  0  0  0  0  0  0  0  0  0  0
   -3.7360   22.3720  -27.5060 O   0  0  0  0  0  0  0  0  0  0  0  0
   -1.4390   23.7539  -26.9705 H   0  0  0  0  0  0  0  0  0  0  0  0
   -0.9116   22.7399  -28.3563 H   0  0  0  0  0  0  0  0  0  0  0  0
   -0.5775   24.5049  -28.3563 H   0  0  0  0  0  0  0  0  0  0  0  0
   -6.5156   24.2936  -33.1934 H   0  0  0  0  0  0  0  0  0  0  0  0
   -5.0996   23.5832  -32.3218 H   0  0  0  0  0  0  0  0  0  0  0  0
   -8.5441   23.2907  -31.0063 H   0  0  0  0  0  0  0  0  0  0  0  0
   -9.7123   21.1028  -30.7579 H   0  0  0  0  0  0  0  0  0  0  0  0
   -5.4069   21.3547  -33.2797 H   0  0  0  0  0  0  0  0  0  0  0  0
  1  2  1  0
  2  3  2  0
  3  4  1  0
  4  5  1  0
  5  6  1  0
  6  7  1  0
  7  8  1  0
  8  9  2  0
  9 10  1  0
 10 11  2  0
 11 12  1  0
 11 13  1  0
 13 14  1  0
 13 15  2  0
  5 16  2  0
 16 17  1  0
 17 18  2  0
 17  2  1  0
 15  8  1  0
  1 19  1  0
  1 20  1  0
  1 21  1  0
  7 22  1  0
  7 23  1  0
  9 24  1  0
 10 25  1  0
 15 26  1  0
M  CHG  1   4  -1
M  END
>  <UniqueID>  (33) 
28

>  <SMILES>  (33) 
Cc1n[n-]c(SCc2ccc(Cl)c(Cl)c2)nc1=O

>  <Energy>  (33) 
24.07159625224528

>  <Genealogy>  (33) 
Cc1n[n-]c(SCc2ccc(Cl)c(Cl)c2)nc1=O (protonated)
Cc1n[n-]c(SCc2ccc(Cl)c(Cl)c2)nc1=O (3D coordinates assigned)
Cc1n[n-]c(SCc2ccc(Cl)c(Cl)c2)nc1=O (optimized conformer: 24.07159625224528 kcal/mol)

>  <smiles>  (33) 
Cc1n[nH]c(SCc2ccc(Cl)c(Cl)c2)nc1=O

>  <score_type>  (33) 
oracle

>  <origin>  (33) 
adgpu

>  <m_score__min__energy>  (33) 
-8.8499999999999996

>  <m_primary>  (33) 
energy

$$$$
33:0
     RDKit          3D

 22 24  0  0  0  0  0  0  0  0999 V2000
   -8.6740   20.1620  -32.0360 C   0  0  0  0  0  0  0  0  0  0  0  0
   -9.2950   21.8710  -31.9600 S   0  0  0  0  0  0  0  0  0  0  0  0
   -7.7070   22.5430  -31.4830 C   0  0  0  0  0  0  0  0  0  0  0  0
   -7.0120   22.1070  -30.3950 N   0  0  0  0  0  0  0  0  0  0  0  0
   -5.8820   22.7890  -30.3050 N   0  0  0  0  0  0  0  0  0  0  0  0
   -4.8530   22.7790  -29.4600 C   0  0  0  0  0  0  0  0  0  0  0  0
   -3.9870   23.7640  -29.9510 C   0  0  0  0  0  0  0  0  0  0  0  0
   -2.6950   24.1400  -29.3610 C   0  0  0  0  0  0  0  0  0  0  0  0
   -1.5550   23.3590  -29.3210 C   0  0  0  0  0  0  0  0  0  0  0  0
   -0.6040   24.1220  -28.6760 C   0  0  0  0  0  0  0  0  0  0  0  0
   -1.2240   25.3130  -28.3670 C   0  0  0  0  0  0  0  0  0  0  0  0
   -0.4150   26.7840  -27.4630 Br  0  0  0  0  0  0  0  0  0  0  0  0
   -2.4680   25.2980  -28.7850 O   0  0  0  0  0  0  0  0  0  0  0  0
   -4.4920   24.3560  -31.0760 N   0  0  0  0  0  0  0  0  0  0  0  0
   -5.6550   23.6970  -31.2210 C   0  0  0  0  0  0  0  0  0  0  0  0
   -6.8950   23.7950  -32.3450 S   0  0  0  0  0  0  0  0  0  0  0  0
   -8.5341   19.7770  -31.0151 H   0  0  0  0  0  0  0  0  0  0  0  0
   -9.4004   19.5313  -32.5694 H   0  0  0  0  0  0  0  0  0  0  0  0
   -7.7121   20.1448  -32.5694 H   0  0  0  0  0  0  0  0  0  0  0  0
   -4.7143   22.1405  -28.5751 H   0  0  0  0  0  0  0  0  0  0  0  0
   -1.4320   22.3414  -29.7202 H   0  0  0  0  0  0  0  0  0  0  0  0
    0.4353   23.8381  -28.4540 H   0  0  0  0  0  0  0  0  0  0  0  0
  1  2  1  0
  2  3  1  0
  3  4  2  0
  4  5  1  0
  5  6  1  0
  6  7  2  0
  7  8  1  0
  8  9  2  0
  9 10  1  0
 10 11  2  0
 11 12  1  0
 11 13  1  0
  7 14  1  0
 14 15  2  0
 15 16  1  0
 16  3  1  0
 15  5  1  0
 13  8  1  0
  1 17  1  0
  1 18  1  0
  1 19  1  0
  6 20  1  0
  9 21  1  0
 10 22  1  0
M  END
>  <UniqueID>  (34) 
29

>  <SMILES>  (34) 
CSc1nn2cc(-c3ccc(Br)o3)nc2s1

>  <Energy>  (34) 
129.60262776147127

>  <Genealogy>  (34) 
CSc1nn2cc(-c3ccc(Br)o3)nc2s1 (3D coordinates assigned)
CSc1nn2cc(-c3ccc(Br)o3)nc2s1 (optimized conformer: 129.60262776147127 kcal/mol)

>  <smiles>  (34) 
CSc1nn2cc(-c3ccc(Br)o3)nc2s1

>  <score_type>  (34) 
oracle

>  <origin>  (34) 
adgpu

>  <m_score__min__energy>  (34) 
-6.6399999999999997

>  <m_primary>  (34) 
energy

$$$$
34:0
     RDKit          3D

 26 27  0  0  0  0  0  0  0  0999 V2000
   -6.4810   16.3360  -34.1410 C   0  0  0  0  0  0  0  0  0  0  0  0
   -6.3720   17.7610  -33.6870 C   0  0  0  0  0  0  0  0  0  0  0  0
   -5.2140   18.5020  -33.9560 C   0  0  0  0  0  0  0  0  0  0  0  0
   -5.1260   19.8410  -33.5660 C   0  0  0  0  0  0  0  0  0  0  0  0
   -6.2050   20.4690  -32.9200 C   0  0  0  0  0  0  0  0  0  0  0  0
   -6.1030   21.8390  -32.4920 N   0  0  0  0  0  0  0  0  0  0  0  0
   -5.4020   22.2480  -31.3070 C   0  0  0  0  0  0  0  0  0  0  0  0
   -4.6640   21.4340  -30.6880 O   0  0  0  0  0  0  0  0  0  0  0  0
   -5.5120   23.6340  -30.8280 C   0  0  0  0  0  0  0  0  0  0  0  0
   -6.5710   24.1640  -30.1150 C   0  0  0  0  0  0  0  0  0  0  0  0
   -6.2420   25.4830  -29.8880 C   0  0  0  0  0  0  0  0  0  0  0  0
   -5.0070   25.6770  -30.4740 C   0  0  0  0  0  0  0  0  0  0  0  0
   -4.5990   24.5580  -31.0250 O   0  0  0  0  0  0  0  0  0  0  0  0
   -7.3700   19.7240  -32.6510 C   0  0  0  0  0  0  0  0  0  0  0  0
   -8.7600   20.4560  -31.8580 Cl  0  0  0  0  0  0  0  0  0  0  0  0
   -7.4530   18.3830  -33.0450 C   0  0  0  0  0  0  0  0  0  0  0  0
   -6.5316   15.6745  -33.2636 H   0  0  0  0  0  0  0  0  0  0  0  0
   -7.3912   16.2126  -34.7462 H   0  0  0  0  0  0  0  0  0  0  0  0
   -5.6001   16.0756  -34.7462 H   0  0  0  0  0  0  0  0  0  0  0  0
   -4.3695   18.0273  -34.4770 H   0  0  0  0  0  0  0  0  0  0  0  0
   -4.2050   20.4081  -33.7661 H   0  0  0  0  0  0  0  0  0  0  0  0
   -6.5100   22.5810  -33.1030 H   0  0  0  0  0  0  0  0  0  0  0  0
   -7.4851   23.6422  -29.7956 H   0  0  0  0  0  0  0  0  0  0  0  0
   -6.8423   26.2305  -29.3487 H   0  0  0  0  0  0  0  0  0  0  0  0
   -4.4497   26.6254  -30.4784 H   0  0  0  0  0  0  0  0  0  0  0  0
   -8.3731   17.8128  -32.8496 H   0  0  0  0  0  0  0  0  0  0  0  0
  1  2  1  0
  2  3  2  0
  3  4  1  0
  4  5  2  0
  5  6  1  0
  6  7  1  0
  7  8  2  0
  7  9  1  0
  9 10  2  0
 10 11  1  0
 11 12  2  0
 12 13  1  0
  5 14  1  0
 14 15  1  0
 14 16  2  0
 16  2  1  0
 13  9  1  0
  1 17  1  0
  1 18  1  0
  1 19  1  0
  3 20  1  0
  4 21  1  0
  6 22  1  0
 10 23  1  0
 11 24  1  0
 12 25  1  0
 16 26  1  0
M  END
>  <UniqueID>  (35) 
30

>  <SMILES>  (35) 
Cc1ccc(NC(=O)c2ccco2)c(Cl)c1

>  <Energy>  (35) 
55.0806048985802

>  <Genealogy>  (35) 
Cc1ccc(NC(=O)c2ccco2)c(Cl)c1 (3D coordinates assigned)
Cc1ccc(NC(=O)c2ccco2)c(Cl)c1 (optimized conformer: 55.0806048985802 kcal/mol)

>  <smiles>  (35) 
Cc1ccc(NC(=O)c2ccco2)c(Cl)c1

>  <score_type>  (35) 
oracle

>  <origin>  (35) 
adgpu

>  <m_score__min__energy>  (35) 
-6.9800000000000004

>  <m_primary>  (35) 
energy

$$$$
35:0
     RDKit          3D

 53 54  0  0  0  0  0  0  0  0999 V2000
   -0.7230   26.2840  -24.3840 C   0  0  0  0  0  0  0  0  0  0  0  0
   -1.1880   25.9650  -25.7740 C   0  0  0  0  0  0  0  0  0  0  0  0
   -0.4370   26.3820  -26.8840 C   0  0  0  0  0  0  0  0  0  0  0  0
   -0.8490   26.0520  -28.1790 C   0  0  0  0  0  0  0  0  0  0  0  0
   -2.0220   25.3010  -28.3810 C   0  0  0  0  0  0  0  0  0  0  0  0
   -2.4660   24.9210  -29.6910 N   0  0  0  0  0  0  0  0  0  0  0  0
   -2.9160   23.6240  -30.0960 C   0  0  0  0  0  0  0  0  0  0  0  0
   -2.5930   22.5980  -29.4370 O   0  0  0  0  0  0  0  0  0  0  0  0
   -3.7260   23.5180  -31.2330 O   0  0  0  0  0  0  0  0  0  0  0  0
   -4.2470   22.3230  -31.7500 C   0  0  0  0  0  0  0  0  0  0  0  0
   -3.3760   21.3500  -32.2630 C   0  0  0  0  0  0  0  0  0  0  0  0
   -3.8590   20.1590  -32.7910 C   0  0  0  0  0  0  0  0  0  0  0  0
   -5.2410   19.8960  -32.8360 C   0  0  0  0  0  0  0  0  0  0  0  0
   -5.8180   18.5830  -33.4100 C   0  0  0  0  0  0  0  0  0  0  0  0
   -5.7630   18.5190  -34.9570 C   0  0  0  0  0  0  0  0  0  0  0  0
   -7.2980   18.4420  -32.9900 C   0  0  0  0  0  0  0  0  0  0  0  0
   -5.0130   17.3810  -32.8670 C   0  0  0  0  0  0  0  0  0  0  0  0
   -6.1160   20.8870  -32.3400 C   0  0  0  0  0  0  0  0  0  0  0  0
   -5.6530   22.1130  -31.7980 C   0  0  0  0  0  0  0  0  0  0  0  0
   -6.6420   23.1860  -31.2600 C   0  0  0  0  0  0  0  0  0  0  0  0
   -8.0410   22.9840  -31.8890 C   0  0  0  0  0  0  0  0  0  0  0  0
   -6.8320   23.1240  -29.7220 C   0  0  0  0  0  0  0  0  0  0  0  0
   -6.1180   24.6040  -31.5880 C   0  0  0  0  0  0  0  0  0  0  0  0
   -2.7440   24.8500  -27.2690 C   0  0  0  0  0  0  0  0  0  0  0  0
   -2.3330   25.1800  -25.9740 C   0  0  0  0  0  0  0  0  0  0  0  0
   -1.4018   25.8183  -23.6544 H   0  0  0  0  0  0  0  0  0  0  0  0
    0.2950   25.8932  -24.2392 H   0  0  0  0  0  0  0  0  0  0  0  0
   -0.7212   27.3744  -24.2392 H   0  0  0  0  0  0  0  0  0  0  0  0
    0.4799   26.9711  -26.7346 H   0  0  0  0  0  0  0  0  0  0  0  0
   -0.2537   26.3808  -29.0435 H   0  0  0  0  0  0  0  0  0  0  0  0
   -2.2915   21.5333  -32.2469 H   0  0  0  0  0  0  0  0  0  0  0  0
   -3.1516   19.4114  -33.1792 H   0  0  0  0  0  0  0  0  0  0  0  0
   -5.0751   17.7185  -35.2666 H   0  0  0  0  0  0  0  0  0  0  0  0
   -6.7686   18.3112  -35.3514 H   0  0  0  0  0  0  0  0  0  0  0  0
   -5.4063   19.4819  -35.3514 H   0  0  0  0  0  0  0  0  0  0  0  0
   -7.3686   18.4353  -31.8923 H   0  0  0  0  0  0  0  0  0  0  0  0
   -7.8748   19.2893  -33.3893 H   0  0  0  0  0  0  0  0  0  0  0  0
   -7.7044   17.5011  -33.3893 H   0  0  0  0  0  0  0  0  0  0  0  0
   -5.0248   17.3986  -31.7672 H   0  0  0  0  0  0  0  0  0  0  0  0
   -5.4668   16.4446  -33.2236 H   0  0  0  0  0  0  0  0  0  0  0  0
   -3.9743   17.4441  -33.2236 H   0  0  0  0  0  0  0  0  0  0  0  0
   -7.1995   20.7007  -32.3754 H   0  0  0  0  0  0  0  0  0  0  0  0
   -8.7899   22.8759  -31.0906 H   0  0  0  0  0  0  0  0  0  0  0  0
   -8.2923   23.8552  -32.5118 H   0  0  0  0  0  0  0  0  0  0  0  0
   -8.0356   22.0773  -32.5118 H   0  0  0  0  0  0  0  0  0  0  0  0
   -5.8992   23.4284  -29.2248 H   0  0  0  0  0  0  0  0  0  0  0  0
   -7.6444   23.8037  -29.4252 H   0  0  0  0  0  0  0  0  0  0  0  0
   -7.0872   22.0960  -29.4252 H   0  0  0  0  0  0  0  0  0  0  0  0
   -5.9176   25.1464  -30.6522 H   0  0  0  0  0  0  0  0  0  0  0  0
   -5.1894   24.5257  -32.1725 H   0  0  0  0  0  0  0  0  0  0  0  0
   -6.8744   25.1483  -32.1725 H   0  0  0  0  0  0  0  0  0  0  0  0
   -3.6416   24.2312  -27.4156 H   0  0  0  0  0  0  0  0  0  0  0  0
   -2.9100   24.8225  -25.1084 H   0  0  0  0  0  0  0  0  0  0  0  0
  1  2  1  0
  2  3  2  0
  3  4  1  0
  4  5  2  0
  5  6  1  0
  6  7  1  0
  7  8  2  0
  7  9  1  0
  9 10  1  0
 10 11  2  0
 11 12  1  0
 12 13  2  0
 13 14  1  0
 14 15  1  0
 14 16  1  0
 14 17  1  0
 13 18  1  0
 18 19  2  0
 19 20  1  0
 20 21  1  0
 20 22  1  0
 20 23  1  0
  5 24  1  0
 24 25  2  0
 25  2  1  0
 19 10  1  0
  1 26  1  0
  1 27  1  0
  1 28  1  0
  3 29  1  0
  4 30  1  0
 11 31  1  0
 12 32  1  0
 15 33  1  0
 15 34  1  0
 15 35  1  0
 16 36  1  0
 16 37  1  0
 16 38  1  0
 17 39  1  0
 17 40  1  0
 17 41  1  0
 18 42  1  0
 21 43  1  0
 21 44  1  0
 21 45  1  0
 22 46  1  0
 22 47  1  0
 22 48  1  0
 23 49  1  0
 23 50  1  0
 23 51  1  0
 24 52  1  0
 25 53  1  0
M  CHG  1   6  -1
M  END
>  <UniqueID>  (36) 
31

>  <SMILES>  (36) 
Cc1ccc([N-]C(=O)Oc2ccc(C(C)(C)C)cc2C(C)(C)C)cc1

>  <Energy>  (36) 
65.75681735944227

>  <Genealogy>  (36) 
Cc1ccc([N-]C(=O)Oc2ccc(C(C)(C)C)cc2C(C)(C)C)cc1 (protonated)
Cc1ccc([N-]C(=O)Oc2ccc(C(C)(C)C)cc2C(C)(C)C)cc1 (3D coordinates assigned)
Cc1ccc([N-]C(=O)Oc2ccc(C(C)(C)C)cc2C(C)(C)C)cc1 (optimized conformer: 65.75681735944227 kcal/mol)

>  <smiles>  (36) 
Cc1ccc(NC(=O)Oc2ccc(C(C)(C)C)cc2C(C)(C)C)cc1

>  <score_type>  (36) 
oracle

>  <origin>  (36) 
adgpu

>  <m_score__min__energy>  (36) 
-10.300000000000001

>  <m_primary>  (36) 
energy

$$$$
36:0
     RDKit          3D

 34 35  0  0  0  0  0  0  0  0999 V2000
   -2.7990   25.2960  -29.7260 O   0  0  0  0  0  0  0  0  0  0  0  0
   -3.9440   24.6990  -30.2390 C   0  0  0  0  0  0  0  0  0  0  0  0
   -3.8670   23.4370  -30.8370 C   0  0  0  0  0  0  0  0  0  0  0  0
   -5.0200   22.8300  -31.3430 C   0  0  0  0  0  0  0  0  0  0  0  0
   -6.2590   23.4850  -31.2610 C   0  0  0  0  0  0  0  0  0  0  0  0
   -7.5040   22.8030  -31.7650 C   0  0  0  0  0  0  0  0  0  0  0  0
   -8.3440   22.3910  -30.6330 N   0  0  0  0  0  0  0  0  0  0  0  0
   -8.9800   21.0820  -30.8610 C   0  0  0  0  0  0  0  0  0  0  0  0
   -9.0000   20.7670  -32.3580 C   0  0  0  0  0  0  0  0  0  0  0  0
   -7.9540   19.7400  -32.7080 C   0  0  0  0  0  0  0  0  0  0  0  0
   -6.8700   20.0900  -33.5310 C   0  0  0  0  0  0  0  0  0  0  0  0
   -5.9280   19.1270  -33.9020 C   0  0  0  0  0  0  0  0  0  0  0  0
   -6.0610   17.8040  -33.4610 C   0  0  0  0  0  0  0  0  0  0  0  0
   -5.1340   16.8340  -33.8320 O   0  0  0  0  0  0  0  0  0  0  0  0
   -7.1410   17.4510  -32.6440 C   0  0  0  0  0  0  0  0  0  0  0  0
   -8.0860   18.4110  -32.2740 C   0  0  0  0  0  0  0  0  0  0  0  0
   -6.3300   24.7520  -30.6590 C   0  0  0  0  0  0  0  0  0  0  0  0
   -5.1750   25.3550  -30.1500 C   0  0  0  0  0  0  0  0  0  0  0  0
   -2.8979   22.9215  -30.9092 H   0  0  0  0  0  0  0  0  0  0  0  0
   -4.9563   21.8349  -31.8074 H   0  0  0  0  0  0  0  0  0  0  0  0
   -8.0681   23.4994  -32.4028 H   0  0  0  0  0  0  0  0  0  0  0  0
   -7.2186   21.9134  -32.3456 H   0  0  0  0  0  0  0  0  0  0  0  0
   -7.7370   22.3190  -29.7820 H   0  0  0  0  0  0  0  0  0  0  0  0
   -8.4115   20.3031  -30.3319 H   0  0  0  0  0  0  0  0  0  0  0  0
  -10.0126   21.1100  -30.4828 H   0  0  0  0  0  0  0  0  0  0  0  0
   -9.9920   20.3773  -32.6304 H   0  0  0  0  0  0  0  0  0  0  0  0
   -8.7832   21.6913  -32.9135 H   0  0  0  0  0  0  0  0  0  0  0  0
   -6.7627   21.1261  -33.8845 H   0  0  0  0  0  0  0  0  0  0  0  0
   -5.0792   19.4086  -34.5425 H   0  0  0  0  0  0  0  0  0  0  0  0
   -4.9520   16.6200  -34.8060 H   0  0  0  0  0  0  0  0  0  0  0  0
   -7.2461   16.4142  -32.2920 H   0  0  0  0  0  0  0  0  0  0  0  0
   -8.9377   18.1245  -31.6396 H   0  0  0  0  0  0  0  0  0  0  0  0
   -7.2969   25.2717  -30.5876 H   0  0  0  0  0  0  0  0  0  0  0  0
   -5.2356   26.3472  -29.6789 H   0  0  0  0  0  0  0  0  0  0  0  0
  1  2  1  0
  2  3  2  0
  3  4  1  0
  4  5  2  0
  5  6  1  0
  6  7  1  0
  7  8  1  0
  8  9  1  0
  9 10  1  0
 10 11  2  0
 11 12  1  0
 12 13  2  0
 13 14  1  0
 13 15  1  0
 15 16  2  0
  5 17  1  0
 17 18  2  0
 18  2  1  0
 16 10  1  0
  3 19  1  0
  4 20  1  0
  6 21  1  0
  6 22  1  0
  7 23  1  0
  8 24  1  0
  8 25  1  0
  9 26  1  0
  9 27  1  0
 11 28  1  0
 12 29  1  0
 14 30  1  0
 15 31  1  0
 16 32  1  0
 17 33  1  0
 18 34  1  0
M  CHG  1   1  -1
M  END
>  <UniqueID>  (37) 
32

>  <SMILES>  (37) 
[O-]c1ccc(CNCCc2ccc(O)cc2)cc1

>  <Energy>  (37) 
27.05910524624246

>  <Genealogy>  (37) 
[O-]c1ccc(CNCCc2ccc(O)cc2)cc1 (protonated)
[O-]c1ccc(CNCCc2ccc(O)cc2)cc1 (3D coordinates assigned)
[O-]c1ccc(CNCCc2ccc(O)cc2)cc1 (optimized conformer: 27.05910524624246 kcal/mol)

>  <smiles>  (37) 
Oc1ccc(CCNCc2ccc(O)cc2)cc1

>  <score_type>  (37) 
oracle

>  <origin>  (37) 
adgpu

>  <m_score__min__energy>  (37) 
-9.9100000000000001

>  <m_primary>  (37) 
energy

$$$$
37:0
     RDKit          3D

 26 27  0  0  0  0  0  0  0  0999 V2000
   -7.5590   17.6580  -32.6630 C   0  0  0  0  0  0  0  0  0  0  0  0
   -7.3150   19.1230  -32.4880 C   0  0  0  0  0  0  0  0  0  0  0  0
   -8.3520   19.9740  -32.0890 C   0  0  0  0  0  0  0  0  0  0  0  0
   -8.0870   21.3420  -31.9730 C   0  0  0  0  0  0  0  0  0  0  0  0
   -9.1670   22.2920  -31.5660 C   0  0  0  0  0  0  0  0  0  0  0  0
   -6.8470   21.8150  -32.2720 N   0  0  0  0  0  0  0  0  0  0  0  0
   -5.8550   20.9760  -32.6690 C   0  0  0  0  0  0  0  0  0  0  0  0
   -4.2430   21.6300  -33.0950 S   0  0  0  0  0  0  0  0  0  0  0  0
   -3.7230   21.8890  -31.3640 C   0  0  0  0  0  0  0  0  0  0  0  0
   -4.2130   23.2090  -30.8570 C   0  0  0  0  0  0  0  0  0  0  0  0
   -3.4690   24.3340  -30.8460 N   0  0  0  0  0  0  0  0  0  0  0  0
   -4.2550   25.3100  -30.4190 N   0  0  0  0  0  0  0  0  0  0  0  0
   -5.4600   24.7580  -30.1880 C   0  0  0  0  0  0  0  0  0  0  0  0
   -6.7640   25.6020  -29.6830 S   0  0  0  0  0  0  0  0  0  0  0  0
   -5.4740   23.4420  -30.4530 N   0  0  0  0  0  0  0  0  0  0  0  0
   -6.0930   19.6420  -32.7720 N   0  0  0  0  0  0  0  0  0  0  0  0
   -7.6388   17.1791  -31.6759 H   0  0  0  0  0  0  0  0  0  0  0  0
   -8.4948   17.5062  -33.2209 H   0  0  0  0  0  0  0  0  0  0  0  0
   -6.7229   17.2111  -33.2209 H   0  0  0  0  0  0  0  0  0  0  0  0
   -9.3538   19.5753  -31.8714 H   0  0  0  0  0  0  0  0  0  0  0  0
   -9.2199   22.3385  -30.4683 H   0  0  0  0  0  0  0  0  0  0  0  0
   -8.9447   23.2926  -31.9651 H   0  0  0  0  0  0  0  0  0  0  0  0
  -10.1311   21.9439  -31.9651 H   0  0  0  0  0  0  0  0  0  0  0  0
   -4.1378   21.0851  -30.7381 H   0  0  0  0  0  0  0  0  0  0  0  0
   -2.6240   21.8786  -31.3193 H   0  0  0  0  0  0  0  0  0  0  0  0
   -6.2740   22.7720  -30.3930 H   0  0  0  0  0  0  0  0  0  0  0  0
  1  2  1  0
  2  3  2  0
  3  4  1  0
  4  5  1  0
  4  6  2  0
  6  7  1  0
  7  8  1  0
  8  9  1  0
  9 10  1  0
 10 11  2  0
 11 12  1  0
 12 13  1  0
 13 14  2  0
 13 15  1  0
  7 16  2  0
 16  2  1  0
 15 10  1  0
  1 17  1  0
  1 18  1  0
  1 19  1  0
  3 20  1  0
  5 21  1  0
  5 22  1  0
  5 23  1  0
  9 24  1  0
  9 25  1  0
 15 26  1  0
M  CHG  1  12  -1
M  END
>  <UniqueID>  (38) 
33

>  <SMILES>  (38) 
Cc1cc(C)nc(SCc2n[n-]c(=S)[nH]2)n1

>  <Energy>  (38) 
52.26272549812505

>  <Genealogy>  (38) 
Cc1cc(C)nc(SCc2n[n-]c(=S)[nH]2)n1 (protonated)
Cc1cc(C)nc(SCc2n[n-]c(=S)[nH]2)n1 (3D coordinates assigned)
Cc1cc(C)nc(SCc2n[n-]c(=S)[nH]2)n1 (optimized conformer: 52.26272549812505 kcal/mol)

>  <smiles>  (38) 
Cc1cc(C)nc(SCc2n[nH]c(=S)[nH]2)n1

>  <score_type>  (38) 
oracle

>  <origin>  (38) 
adgpu

>  <m_score__min__energy>  (38) 
-7.79

>  <m_primary>  (38) 
energy

$$$$
38:0
     RDKit          3D

 44 45  0  0  0  0  0  0  0  0999 V2000
   -6.1150   17.3270  -31.2200 C   0  0  0  0  0  0  0  0  0  0  0  0
   -6.8510   17.1520  -32.5450 C   0  0  0  0  0  0  0  0  0  0  0  0
   -7.8810   18.2700  -32.7600 C   0  0  0  0  0  0  0  0  0  0  0  0
   -8.8570   18.4350  -31.5820 C   0  0  0  0  0  0  0  0  0  0  0  0
   -9.0870   19.8990  -31.1480 C   0  0  0  0  0  0  0  0  0  0  0  0
   -9.0960   20.8990  -32.3120 C   0  0  0  0  0  0  0  0  0  0  0  0
   -8.9910   22.6300  -31.7150 S   0  0  0  0  0  0  0  0  0  0  0  0
   -7.1970   22.6830  -31.6920 C   0  0  0  0  0  0  0  0  0  0  0  0
   -6.4880   21.6230  -32.1590 N   0  0  0  0  0  0  0  0  0  0  0  0
   -5.1290   21.6310  -32.1880 C   0  0  0  0  0  0  0  0  0  0  0  0
   -4.4060   20.4590  -32.7400 C   0  0  0  0  0  0  0  0  0  0  0  0
   -3.1020   20.1810  -32.2970 C   0  0  0  0  0  0  0  0  0  0  0  0
   -2.4000   19.0800  -32.7900 C   0  0  0  0  0  0  0  0  0  0  0  0
   -2.9860   18.2390  -33.7530 C   0  0  0  0  0  0  0  0  0  0  0  0
   -2.3230   17.1200  -34.2790 O   0  0  0  0  0  0  0  0  0  0  0  0
   -2.9000   15.8210  -34.3830 C   0  0  0  0  0  0  0  0  0  0  0  0
   -4.2750   18.5240  -34.2130 C   0  0  0  0  0  0  0  0  0  0  0  0
   -4.9830   19.6260  -33.7200 C   0  0  0  0  0  0  0  0  0  0  0  0
   -6.2070   19.8970  -34.2380 F   0  0  0  0  0  0  0  0  0  0  0  0
   -4.4480   22.7740  -31.7420 C   0  0  0  0  0  0  0  0  0  0  0  0
   -5.1910   23.8520  -31.2580 C   0  0  0  0  0  0  0  0  0  0  0  0
   -4.6010   24.8880  -30.8490 O   0  0  0  0  0  0  0  0  0  0  0  0
   -6.5490   23.7880  -31.2350 N   0  0  0  0  0  0  0  0  0  0  0  0
   -6.8143   17.1607  -30.3874 H   0  0  0  0  0  0  0  0  0  0  0  0
   -5.2923   16.5994  -31.1587 H   0  0  0  0  0  0  0  0  0  0  0  0
   -5.7078   18.3470  -31.1587 H   0  0  0  0  0  0  0  0  0  0  0  0
   -6.1203   17.1744  -33.3670 H   0  0  0  0  0  0  0  0  0  0  0  0
   -7.3818   16.1888  -32.5240 H   0  0  0  0  0  0  0  0  0  0  0  0
   -7.3420   19.2183  -32.9020 H   0  0  0  0  0  0  0  0  0  0  0  0
   -8.4789   17.9962  -33.6418 H   0  0  0  0  0  0  0  0  0  0  0  0
   -9.8266   18.0062  -31.8752 H   0  0  0  0  0  0  0  0  0  0  0  0
   -8.4039   17.9190  -30.7227 H   0  0  0  0  0  0  0  0  0  0  0  0
  -10.0568   19.9590  -30.6324 H   0  0  0  0  0  0  0  0  0  0  0  0
   -8.2445   20.1749  -30.4968 H   0  0  0  0  0  0  0  0  0  0  0  0
   -8.2354   20.6939  -32.9656 H   0  0  0  0  0  0  0  0  0  0  0  0
  -10.0423   20.7807  -32.8602 H   0  0  0  0  0  0  0  0  0  0  0  0
   -2.6288   20.8387  -31.5530 H   0  0  0  0  0  0  0  0  0  0  0  0
   -1.3844   18.8692  -32.4239 H   0  0  0  0  0  0  0  0  0  0  0  0
   -3.0792   15.4176  -33.3754 H   0  0  0  0  0  0  0  0  0  0  0  0
   -3.8539   15.8860  -34.9269 H   0  0  0  0  0  0  0  0  0  0  0  0
   -2.2123   15.1568  -34.9269 H   0  0  0  0  0  0  0  0  0  0  0  0
   -4.7379   17.8749  -34.9709 H   0  0  0  0  0  0  0  0  0  0  0  0
   -3.3494   22.8196  -31.7732 H   0  0  0  0  0  0  0  0  0  0  0  0
   -7.1010   24.6000  -30.8790 H   0  0  0  0  0  0  0  0  0  0  0  0
  1  2  1  0
  2  3  1  0
  3  4  1  0
  4  5  1  0
  5  6  1  0
  6  7  1  0
  7  8  1  0
  8  9  2  0
  9 10  1  0
 10 11  1  0
 11 12  2  0
 12 13  1  0
 13 14  2  0
 14 15  1  0
 15 16  1  0
 14 17  1  0
 17 18  2  0
 18 19  1  0
 10 20  2  0
 20 21  1  0
 21 22  2  0
 21 23  1  0
 23  8  1  0
 18 11  1  0
  1 24  1  0
  1 25  1  0
  1 26  1  0
  2 27  1  0
  2 28  1  0
  3 29  1  0
  3 30  1  0
  4 31  1  0
  4 32  1  0
  5 33  1  0
  5 34  1  0
  6 35  1  0
  6 36  1  0
 12 37  1  0
 13 38  1  0
 16 39  1  0
 16 40  1  0
 16 41  1  0
 17 42  1  0
 20 43  1  0
 23 44  1  0
M  END
>  <UniqueID>  (39) 
34

>  <SMILES>  (39) 
CCCCCCSc1nc(-c2ccc(OC)cc2F)cc(=O)[nH]1

>  <Energy>  (39) 
37.44406065254047

>  <Genealogy>  (39) 
CCCCCCSc1nc(-c2ccc(OC)cc2F)cc(=O)[nH]1 (3D coordinates assigned)
CCCCCCSc1nc(-c2ccc(OC)cc2F)cc(=O)[nH]1 (optimized conformer: 37.44406065254047 kcal/mol)

>  <smiles>  (39) 
CCCCCCSc1nc(-c2ccc(OC)cc2F)cc(=O)[nH]1

>  <score_type>  (39) 
oracle

>  <origin>  (39) 
adgpu

>  <m_score__min__energy>  (39) 
-7.5

>  <m_primary>  (39) 
energy

$$$$
39:0
     RDKit          3D

 51 54  0  0  1  0  0  0  0  0999 V2000
   -2.1780   23.6530  -27.3560 O   0  0  0  0  0  0  0  0  0  0  0  0
   -1.7920   24.5430  -28.1380 C   0  0  0  0  0  0  0  0  0  0  0  0
   -2.4870   24.9030  -29.3150 N   0  0  0  0  0  0  0  0  0  0  0  0
   -3.6860   24.3330  -29.7790 C   0  0  0  0  0  0  0  0  0  0  0  0
   -3.6140   23.4090  -30.8190 C   0  0  0  0  0  0  0  0  0  0  0  0
   -4.7300   22.8180  -31.3190 C   0  0  0  0  0  0  0  0  0  0  0  0
   -5.9900   23.0910  -30.8380 C   0  0  0  0  0  0  0  0  0  0  0  0
   -7.4400   22.3410  -31.4680 S   0  0  0  0  0  0  0  0  0  0  0  0
   -7.8920   23.1180  -32.6630 O   0  0  0  0  0  0  0  0  0  0  0  0
   -8.4960   22.3020  -30.3980 O   0  0  0  0  0  0  0  0  0  0  0  0
   -7.0690   20.7010  -31.8610 N   0  0  0  0  0  0  0  0  0  0  0  0
   -8.3240   19.9730  -31.9270 C   0  0  0  0  0  0  0  0  0  0  0  0
   -8.0820   18.4850  -32.0410 C   0  0  0  0  0  0  0  0  0  0  0  0
   -6.6090   18.2850  -32.3310 C   0  0  0  0  0  0  0  0  0  0  0  0
   -6.2620   19.1530  -33.5190 C   0  0  0  0  0  0  0  0  0  0  0  0
   -6.4780   20.6090  -33.1890 C   0  0  0  0  0  0  0  0  0  0  0  0
   -6.0930   23.9960  -29.8140 C   0  0  0  0  0  0  0  0  0  0  0  0
   -4.9420   24.6020  -29.3030 C   0  0  0  0  0  0  0  0  0  0  0  0
   -0.5430   25.2330  -27.7820 C   0  0  0  0  0  0  0  0  0  0  0  0
   -0.5040   26.5360  -27.3680 C   0  0  0  0  0  0  0  0  0  0  0  0
    0.6660   27.1520  -27.0440 C   0  0  0  0  0  0  0  0  0  0  0  0
    0.6590   28.3790  -26.6600 N   0  0  0  0  0  0  0  0  0  0  0  0
   -0.5300   29.1930  -26.5360 C   0  0  0  0  0  0  0  0  0  0  0  0
   -0.2340   30.5780  -25.9100 C   0  0  0  0  0  0  0  0  0  0  0  0
   -0.9260   29.5220  -25.1240 C   0  0  0  0  0  0  0  0  0  0  0  0
    1.8410   26.5020  -27.1180 N   0  0  0  0  0  0  0  0  0  0  0  0
    1.8160   25.2180  -27.5240 C   0  0  0  0  0  0  0  0  0  0  0  0
    0.6560   24.5870  -27.8520 N   0  0  0  0  0  0  0  0  0  0  0  0
   -2.0460   25.6740  -29.8850 H   0  0  0  0  0  0  0  0  0  0  0  0
   -2.6325   23.1526  -31.2443 H   0  0  0  0  0  0  0  0  0  0  0  0
   -4.6225   22.0935  -32.1397 H   0  0  0  0  0  0  0  0  0  0  0  0
   -8.9049   20.1741  -31.0148 H   0  0  0  0  0  0  0  0  0  0  0  0
   -8.8766   20.3074  -32.8174 H   0  0  0  0  0  0  0  0  0  0  0  0
   -8.3501   17.9874  -31.0973 H   0  0  0  0  0  0  0  0  0  0  0  0
   -8.6974   18.0525  -32.8436 H   0  0  0  0  0  0  0  0  0  0  0  0
   -6.0097   18.5843  -31.4585 H   0  0  0  0  0  0  0  0  0  0  0  0
   -6.3948   17.2277  -32.5458 H   0  0  0  0  0  0  0  0  0  0  0  0
   -5.2069   18.9950  -33.7872 H   0  0  0  0  0  0  0  0  0  0  0  0
   -6.9123   18.8786  -34.3627 H   0  0  0  0  0  0  0  0  0  0  0  0
   -5.5144   21.1393  -33.2035 H   0  0  0  0  0  0  0  0  0  0  0  0
   -7.1478   21.0675  -33.9313 H   0  0  0  0  0  0  0  0  0  0  0  0
   -7.0793   24.2448  -29.3953 H   0  0  0  0  0  0  0  0  0  0  0  0
   -5.0494   25.3268  -28.4825 H   0  0  0  0  0  0  0  0  0  0  0  0
   -1.4443   27.1020  -27.2948 H   0  0  0  0  0  0  0  0  0  0  0  0
   -1.0572   28.8060  -27.4205 H   0  0  0  0  0  0  0  0  0  0  0  0
    0.7994   30.8623  -25.6625 H   0  0  0  0  0  0  0  0  0  0  0  0
   -0.4534   31.6214  -26.1807 H   0  0  0  0  0  0  0  0  0  0  0  0
   -0.4030   29.0377  -24.2862 H   0  0  0  0  0  0  0  0  0  0  0  0
   -1.8742   29.4819  -24.5678 H   0  0  0  0  0  0  0  0  0  0  0  0
    2.7020   27.0180  -26.8610 H   0  0  0  0  0  0  0  0  0  0  0  0
    2.7628   24.6622  -27.5925 H   0  0  0  0  0  0  0  0  0  0  0  0
  1  2  2  0
  2  3  1  0
  3  4  1  0
  4  5  2  0
  5  6  1  0
  6  7  2  0
  7  8  1  0
  8  9  2  0
  8 10  2  0
  8 11  1  0
 11 12  1  0
 12 13  1  0
 13 14  1  0
 14 15  1  0
 15 16  1  0
  7 17  1  0
 17 18  2  0
  2 19  1  0
 19 20  2  0
 20 21  1  0
 21 22  2  0
 22 23  1  0
 23 24  1  0
 24 25  1  0
 21 26  1  0
 26 27  1  0
 27 28  2  0
 18  4  1  0
 28 19  1  0
 16 11  1  0
 25 23  1  0
  3 29  1  0
  5 30  1  0
  6 31  1  0
 12 32  1  0
 12 33  1  0
 13 34  1  0
 13 35  1  0
 14 36  1  0
 14 37  1  0
 15 38  1  0
 15 39  1  0
 16 40  1  0
 16 41  1  0
 17 42  1  0
 18 43  1  0
 20 44  1  0
 23 45  1  0
 24 46  1  0
 24 47  1  0
 25 48  1  0
 25 49  1  0
 26 50  1  0
 27 51  1  0
M  END
>  <smiles>  (40) 
O=C(Nc1ccc(S(=O)(=O)N2CCCCC2)cc1)c1cc(=NC2CC2)[nH]cn1

>  <score_type>  (40) 
oracle

>  <origin>  (40) 
adgpu

>  <m_score__min__energy>  (40) 
-9.3200000000000003

>  <m_primary>  (40) 
energy

$$$$
40:0
     RDKit          3D

 43 45  0  0  0  0  0  0  0  0999 V2000
   -0.4270   23.9090  -24.7940 C   0  0  0  0  0  0  0  0  0  0  0  0
   -0.8090   23.0980  -25.8990 O   0  0  0  0  0  0  0  0  0  0  0  0
   -1.5020   23.5670  -27.0250 C   0  0  0  0  0  0  0  0  0  0  0  0
   -2.9080   23.6090  -27.0820 C   0  0  0  0  0  0  0  0  0  0  0  0
   -3.5520   24.0900  -28.2260 C   0  0  0  0  0  0  0  0  0  0  0  0
   -2.8090   24.5210  -29.3310 C   0  0  0  0  0  0  0  0  0  0  0  0
   -3.5060   25.0290  -30.4790 N   0  0  0  0  0  0  0  0  0  0  0  0
   -4.9290   25.0870  -30.6520 C   0  0  0  0  0  0  0  0  0  0  0  0
   -5.5410   26.1180  -30.2660 O   0  0  0  0  0  0  0  0  0  0  0  0
   -5.6990   23.9440  -31.1950 C   0  0  0  0  0  0  0  0  0  0  0  0
   -7.0910   24.0650  -31.3480 C   0  0  0  0  0  0  0  0  0  0  0  0
   -7.8390   23.0200  -31.8920 C   0  0  0  0  0  0  0  0  0  0  0  0
   -7.2090   21.8420  -32.2900 C   0  0  0  0  0  0  0  0  0  0  0  0
   -5.8280   21.7040  -32.1430 C   0  0  0  0  0  0  0  0  0  0  0  0
   -5.0580   22.7500  -31.6040 C   0  0  0  0  0  0  0  0  0  0  0  0
   -3.6510   22.5590  -31.3690 N   0  0  0  0  0  0  0  0  0  0  0  0
   -3.0780   21.3140  -30.9380 C   0  0  0  0  0  0  0  0  0  0  0  0
   -3.7690   20.2590  -30.9280 O   0  0  0  0  0  0  0  0  0  0  0  0
   -1.6530   21.2650  -30.4850 C   0  0  0  0  0  0  0  0  0  0  0  0
   -1.5620   20.5360  -29.1830 C   0  0  0  0  0  0  0  0  0  0  0  0
   -2.5760   20.4330  -28.2390 C   0  0  0  0  0  0  0  0  0  0  0  0
   -2.1790   19.7560  -27.0780 C   0  0  0  0  0  0  0  0  0  0  0  0
   -0.8540   19.3400  -27.1010 C   0  0  0  0  0  0  0  0  0  0  0  0
   -0.1740   19.8170  -28.5650 S   0  0  0  0  0  0  0  0  0  0  0  0
   -1.4060   24.5010  -29.2660 C   0  0  0  0  0  0  0  0  0  0  0  0
   -0.7620   24.0180  -28.1240 C   0  0  0  0  0  0  0  0  0  0  0  0
   -0.6718   23.3894  -23.8559 H   0  0  0  0  0  0  0  0  0  0  0  0
    0.6556   24.0996  -24.8359 H   0  0  0  0  0  0  0  0  0  0  0  0
   -0.9695   24.8650  -24.8359 H   0  0  0  0  0  0  0  0  0  0  0  0
   -3.5020   23.2622  -26.2236 H   0  0  0  0  0  0  0  0  0  0  0  0
   -4.6508   24.1300  -28.2578 H   0  0  0  0  0  0  0  0  0  0  0  0
   -7.5952   24.9916  -31.0362 H   0  0  0  0  0  0  0  0  0  0  0  0
   -8.9278   23.1261  -32.0069 H   0  0  0  0  0  0  0  0  0  0  0  0
   -7.8007   21.0206  -32.7202 H   0  0  0  0  0  0  0  0  0  0  0  0
   -5.3376   20.7689  -32.4514 H   0  0  0  0  0  0  0  0  0  0  0  0
   -3.0050   23.3630  -31.5370 H   0  0  0  0  0  0  0  0  0  0  0  0
   -1.0473   20.7420  -31.2398 H   0  0  0  0  0  0  0  0  0  0  0  0
   -1.2771   22.2905  -30.3549 H   0  0  0  0  0  0  0  0  0  0  0  0
   -3.5867   20.8409  -28.3876 H   0  0  0  0  0  0  0  0  0  0  0  0
   -2.8531   19.5715  -26.2286 H   0  0  0  0  0  0  0  0  0  0  0  0
   -0.3372   18.7922  -26.2992 H   0  0  0  0  0  0  0  0  0  0  0  0
   -0.8124   24.8667  -30.1168 H   0  0  0  0  0  0  0  0  0  0  0  0
    0.3371   23.9920  -28.0883 H   0  0  0  0  0  0  0  0  0  0  0  0
  1  2  1  0
  2  3  1  0
  3  4  2  0
  4  5  1  0
  5  6  2  0
  6  7  1  0
  7  8  1  0
  8  9  2  0
  8 10  1  0
 10 11  2  0
 11 12  1  0
 12 13  2  0
 13 14  1  0
 14 15  2  0
 15 16  1  0
 16 17  1  0
 17 18  2  0
 17 19  1  0
 19 20  1  0
 20 21  2  0
 21 22  1  0
 22 23  2  0
 23 24  1  0
  6 25  1  0
 25 26  2  0
 26  3  1  0
 15 10  1  0
 24 20  1  0
  1 27  1  0
  1 28  1  0
  1 29  1  0
  4 30  1  0
  5 31  1  0
 11 32  1  0
 12 33  1  0
 13 34  1  0
 14 35  1  0
 16 36  1  0
 19 37  1  0
 19 38  1  0
 21 39  1  0
 22 40  1  0
 23 41  1  0
 25 42  1  0
 26 43  1  0
M  CHG  1   7  -1
M  END
>  <UniqueID>  (41) 
35

>  <SMILES>  (41) 
COc1ccc([N-]C(=O)c2ccccc2NC(=O)Cc2cccs2)cc1

>  <Energy>  (41) 
79.79295505803147

>  <Genealogy>  (41) 
COc1ccc([N-]C(=O)c2ccccc2NC(=O)Cc2cccs2)cc1 (protonated)
COc1ccc([N-]C(=O)c2ccccc2NC(=O)Cc2cccs2)cc1 (3D coordinates assigned)
COc1ccc([N-]C(=O)c2ccccc2NC(=O)Cc2cccs2)cc1 (optimized conformer: 79.79295505803147 kcal/mol)

>  <smiles>  (41) 
COc1ccc(NC(=O)c2ccccc2NC(=O)Cc2cccs2)cc1

>  <score_type>  (41) 
oracle

>  <origin>  (41) 
adgpu

>  <m_score__min__energy>  (41) 
-9.0500000000000007

>  <m_primary>  (41) 
energy

$$$$
41:0
     RDKit          3D

 26 27  0  0  0  0  0  0  0  0999 V2000
   -0.4770   21.9680  -36.1330 H   0  0  0  0  0  0  0  0  0  0  0  0
    0.0710   21.8670  -35.2490 N   0  0  0  0  0  0  0  0  0  0  0  0
   -0.4560   21.3540  -34.1850 C   0  0  0  0  0  0  0  0  0  0  0  0
    0.3540   21.1650  -32.7240 S   0  0  0  0  0  0  0  0  0  0  0  0
   -1.0310   20.4660  -32.0390 C   0  0  0  0  0  0  0  0  0  0  0  0
   -1.1950   20.1140  -30.6580 N   0  0  0  0  0  0  0  0  0  0  0  0
   -1.9170   20.7280  -29.7640 C   0  0  0  0  0  0  0  0  0  0  0  0
   -2.0553   20.2365  -28.7897 H   0  0  0  0  0  0  0  0  0  0  0  0
   -2.5620   22.0400  -29.9720 C   0  0  0  0  0  0  0  0  0  0  0  0
   -3.8520   22.0950  -30.5150 C   0  0  0  0  0  0  0  0  0  0  0  0
   -4.3608   21.1655  -30.8103 H   0  0  0  0  0  0  0  0  0  0  0  0
   -4.4970   23.3240  -30.6840 C   0  0  0  0  0  0  0  0  0  0  0  0
   -5.5037   23.3576  -31.1261 H   0  0  0  0  0  0  0  0  0  0  0  0
   -3.8640   24.5190  -30.2910 C   0  0  0  0  0  0  0  0  0  0  0  0
   -4.4720   25.7740  -30.4460 O   0  0  0  0  0  0  0  0  0  0  0  0
   -5.8320   26.0540  -30.1330 C   0  0  0  0  0  0  0  0  0  0  0  0
   -5.9590   26.0801  -29.0407 H   0  0  0  0  0  0  0  0  0  0  0  0
   -6.1129   27.0288  -30.5582 H   0  0  0  0  0  0  0  0  0  0  0  0
   -6.4751   25.2694  -30.5582 H   0  0  0  0  0  0  0  0  0  0  0  0
   -2.5860   24.4580  -29.7190 C   0  0  0  0  0  0  0  0  0  0  0  0
   -1.9520   25.6260  -29.3100 O   0  0  0  0  0  0  0  0  0  0  0  0
   -1.9430   23.2280  -29.5490 C   0  0  0  0  0  0  0  0  0  0  0  0
   -0.9478   23.1905  -29.0819 H   0  0  0  0  0  0  0  0  0  0  0  0
   -2.0600   20.4400  -32.9140 N   0  0  0  0  0  0  0  0  0  0  0  0
   -1.7320   20.9190  -34.1130 N   0  0  0  0  0  0  0  0  0  0  0  0
   -2.4130   20.9590  -34.9040 H   0  0  0  0  0  0  0  0  0  0  0  0
  1  2  1  0
  2  3  2  0
  3  4  1  0
  4  5  1  0
  5  6  1  0
  6  7  2  0
  7  8  1  0
  7  9  1  0
  9 10  2  0
 10 11  1  0
 10 12  1  0
 12 13  1  0
 12 14  2  0
 14 15  1  0
 15 16  1  0
 16 17  1  0
 16 18  1  0
 16 19  1  0
 14 20  1  0
 20 21  1  0
 20 22  2  0
 22 23  1  0
  5 24  2  0
 24 25  1  0
 25 26  1  0
 25  3  1  0
 22  9  1  0
M  CHG  1  21  -1
M  END
>  <UniqueID>  (42) 
36

>  <SMILES>  (42) 
[H]/N=c1\[nH]nc(/N=C\c2ccc(OC)c([O-])c2)s1

>  <Energy>  (42) 
70.77649801148267

>  <Genealogy>  (42) 
COc1ccc(C=Nc2n[nH]c(=N)s2)cc1[O-] (protonated)
[H]/N=c1\[nH]nc(/N=C\c2ccc(OC)c([O-])c2)s1 (cis-trans isomerization)
[H]/N=c1\[nH]nc(/N=C\c2ccc(OC)c([O-])c2)s1 (3D coordinates assigned)
[H]/N=c1\[nH]nc(/N=C\c2ccc(OC)c([O-])c2)s1 (optimized conformer: 70.77649801148267 kcal/mol)

>  <smiles>  (42) 
COc1ccc(C=Nc2n[nH]c(=N)s2)cc1O

>  <score_type>  (42) 
oracle

>  <origin>  (42) 
adgpu

>  <m_score__min__energy>  (42) 
-9.8000000000000007

>  <m_primary>  (42) 
energy

$$$$
42:0
     RDKit          3D

 49 52  0  0  0  0  0  0  0  0999 V2000
   -0.6220   25.8878  -27.3055 H   0  0  0  0  0  0  0  0  0  0  0  0
   -1.3450   25.2180  -27.7940 C   0  0  0  0  0  0  0  0  0  0  0  0
   -1.9590   25.5380  -28.9640 N   0  0  0  0  0  0  0  0  0  0  0  0
   -2.7990   24.5620  -29.3660 C   0  0  0  0  0  0  0  0  0  0  0  0
   -3.4940   24.6550  -30.4580 N   0  0  0  0  0  0  0  0  0  0  0  0
   -4.5950   23.4400  -31.0230 S   0  0  0  0  0  0  0  0  0  0  0  0
   -5.5650   24.0570  -31.9920 O   0  0  0  0  0  0  0  0  0  0  0  0
   -5.3680   22.8910  -29.8560 O   0  0  0  0  0  0  0  0  0  0  0  0
   -3.6980   22.1280  -31.7810 C   0  0  0  0  0  0  0  0  0  0  0  0
   -3.8760   21.8320  -33.1380 C   0  0  0  0  0  0  0  0  0  0  0  0
   -4.6010   22.4061  -33.7337 H   0  0  0  0  0  0  0  0  0  0  0  0
   -3.1360   20.8100  -33.7380 C   0  0  0  0  0  0  0  0  0  0  0  0
   -3.2693   20.5926  -34.8080 H   0  0  0  0  0  0  0  0  0  0  0  0
   -2.2200   20.0570  -32.9780 C   0  0  0  0  0  0  0  0  0  0  0  0
   -1.4160   19.0280  -33.5730 N   0  0  0  0  0  0  0  0  0  0  0  0
   -1.2210   17.7130  -33.0390 C   0  0  0  0  0  0  0  0  0  0  0  0
   -0.1350   17.4460  -32.4610 O   0  0  0  0  0  0  0  0  0  0  0  0
   -2.2740   16.6800  -33.1270 C   0  0  0  0  0  0  0  0  0  0  0  0
   -2.0190   15.3640  -32.7070 C   0  0  0  0  0  0  0  0  0  0  0  0
   -1.0216   15.0922  -32.3312 H   0  0  0  0  0  0  0  0  0  0  0  0
   -3.0280   14.3990  -32.7650 C   0  0  0  0  0  0  0  0  0  0  0  0
   -2.8186   13.3663  -32.4493 H   0  0  0  0  0  0  0  0  0  0  0  0
   -4.3020   14.7430  -33.2230 C   0  0  0  0  0  0  0  0  0  0  0  0
   -5.0956   13.9823  -33.2626 H   0  0  0  0  0  0  0  0  0  0  0  0
   -4.5700   16.0560  -33.6320 C   0  0  0  0  0  0  0  0  0  0  0  0
   -6.2030   16.5430  -34.0740 S   0  0  0  0  0  0  0  0  0  0  0  0
   -6.9850   15.3790  -34.6130 O   0  0  0  0  0  0  0  0  0  0  0  0
   -6.1260   17.6150  -35.1260 O   0  0  0  0  0  0  0  0  0  0  0  0
   -7.0090   17.1700  -32.6720 N   0  0  0  0  0  0  0  0  0  0  0  0
   -7.3670   18.5460  -32.4830 C   0  0  0  0  0  0  0  0  0  0  0  0
   -8.6710   18.8510  -32.0740 C   0  0  0  0  0  0  0  0  0  0  0  0
   -9.3850   18.0385  -31.8740 H   0  0  0  0  0  0  0  0  0  0  0  0
   -9.0720   20.1830  -31.9180 C   0  0  0  0  0  0  0  0  0  0  0  0
  -10.0987   20.4141  -31.5978 H   0  0  0  0  0  0  0  0  0  0  0  0
   -8.1680   21.2200  -32.1690 C   0  0  0  0  0  0  0  0  0  0  0  0
   -8.7130   23.0400  -31.9670 Br  0  0  0  0  0  0  0  0  0  0  0  0
   -6.8580   20.9230  -32.5580 C   0  0  0  0  0  0  0  0  0  0  0  0
   -6.1415   21.7377  -32.7393 H   0  0  0  0  0  0  0  0  0  0  0  0
   -6.4570   19.5940  -32.7170 C   0  0  0  0  0  0  0  0  0  0  0  0
   -5.4263   19.3659  -33.0262 H   0  0  0  0  0  0  0  0  0  0  0  0
   -3.5490   17.0150  -33.6050 C   0  0  0  0  0  0  0  0  0  0  0  0
   -3.7487   18.0365  -33.9608 H   0  0  0  0  0  0  0  0  0  0  0  0
   -2.0320   20.3690  -31.6270 C   0  0  0  0  0  0  0  0  0  0  0  0
   -1.2985   19.8046  -31.0325 H   0  0  0  0  0  0  0  0  0  0  0  0
   -2.7710   21.3940  -31.0280 C   0  0  0  0  0  0  0  0  0  0  0  0
   -2.6244   21.6250  -29.9626 H   0  0  0  0  0  0  0  0  0  0  0  0
   -2.8150   23.2670  -28.2880 S   0  0  0  0  0  0  0  0  0  0  0  0
   -1.6960   23.9840  -27.2590 C   0  0  0  0  0  0  0  0  0  0  0  0
   -1.3087   23.5518  -26.3245 H   0  0  0  0  0  0  0  0  0  0  0  0
  1  2  1  0
  2  3  1  0
  3  4  1  0
  4  5  2  0
  5  6  1  0
  6  7  2  0
  6  8  2  0
  6  9  1  0
  9 10  2  0
 10 11  1  0
 10 12  1  0
 12 13  1  0
 12 14  2  0
 14 15  1  0
 15 16  1  0
 16 17  2  0
 16 18  1  0
 18 19  2  0
 19 20  1  0
 19 21  1  0
 21 22  1  0
 21 23  2  0
 23 24  1  0
 23 25  1  0
 25 26  1  0
 26 27  2  0
 26 28  2  0
 26 29  1  0
 29 30  1  0
 30 31  2  0
 31 32  1  0
 31 33  1  0
 33 34  1  0
 33 35  2  0
 35 36  1  0
 35 37  1  0
 37 38  1  0
 37 39  2  0
 39 40  1  0
 25 41  2  0
 41 42  1  0
 14 43  1  0
 43 44  1  0
 43 45  2  0
 45 46  1  0
  4 47  1  0
 47 48  1  0
 48 49  1  0
 48  2  2  0
 45  9  1  0
 41 18  1  0
 39 30  1  0
M  CHG  3   3  -1  15  -1  29  -1
M  END
>  <UniqueID>  (43) 
37

>  <SMILES>  (43) 
O=C([N-]c1ccc(S(=O)(=O)/N=c2/[n-]ccs2)cc1)c1cccc(S(=O)(=O)[N-]c2ccc(Br)cc2)c1

>  <Energy>  (43) 
94.32582989411544

>  <Genealogy>  (43) 
O=C([N-]c1ccc(S(=O)(=O)N=c2[n-]ccs2)cc1)c1cccc(S(=O)(=O)[N-]c2ccc(Br)cc2)c1 (protonated)
O=C([N-]c1ccc(S(=O)(=O)/N=c2/[n-]ccs2)cc1)c1cccc(S(=O)(=O)[N-]c2ccc(Br)cc2)c1 (cis-trans isomerization)
O=C([N-]c1ccc(S(=O)(=O)/N=c2/[n-]ccs2)cc1)c1cccc(S(=O)(=O)[N-]c2ccc(Br)cc2)c1 (3D coordinates assigned)
O=C([N-]c1ccc(S(=O)(=O)/N=c2/[n-]ccs2)cc1)c1cccc(S(=O)(=O)[N-]c2ccc(Br)cc2)c1 (optimized conformer: 94.32582989411544 kcal/mol)

>  <smiles>  (43) 
O=C(Nc1ccc(S(=O)(=O)N=c2[nH]ccs2)cc1)c1cccc(S(=O)(=O)Nc2ccc(Br)cc2)c1

>  <score_type>  (43) 
oracle

>  <origin>  (43) 
adgpu

>  <m_score__min__energy>  (43) 
-12.550000000000001

>  <m_primary>  (43) 
energy

$$$$
43:0
     RDKit          3D

 42 44  0  0  0  0  0  0  0  0999 V2000
   -0.5290   30.8140  -26.6690 C   0  0  0  0  0  0  0  0  0  0  0  0
   -0.6360   29.3790  -26.2490 C   0  0  0  0  0  0  0  0  0  0  0  0
   -0.8500   29.0380  -24.9090 C   0  0  0  0  0  0  0  0  0  0  0  0
   -0.9080   27.7310  -24.5410 N   0  0  0  0  0  0  0  0  0  0  0  0
   -0.7520   26.7400  -25.4580 C   0  0  0  0  0  0  0  0  0  0  0  0
   -0.8460   25.0290  -24.9480 S   0  0  0  0  0  0  0  0  0  0  0  0
   -1.8640   24.5770  -26.3520 C   0  0  0  0  0  0  0  0  0  0  0  0
   -1.2970   23.9130  -27.4460 C   0  0  0  0  0  0  0  0  0  0  0  0
   -2.0900   23.5670  -28.5440 C   0  0  0  0  0  0  0  0  0  0  0  0
   -3.4610   23.8620  -28.5520 C   0  0  0  0  0  0  0  0  0  0  0  0
   -4.2460   23.5200  -29.7060 N   0  0  0  0  0  0  0  0  0  0  0  0
   -4.6170   24.4530  -30.7360 C   0  0  0  0  0  0  0  0  0  0  0  0
   -4.2190   25.6480  -30.6900 O   0  0  0  0  0  0  0  0  0  0  0  0
   -5.4160   24.0390  -31.8500 N   0  0  0  0  0  0  0  0  0  0  0  0
   -6.2420   22.8690  -31.9000 C   0  0  0  0  0  0  0  0  0  0  0  0
   -7.6150   22.9250  -31.6040 C   0  0  0  0  0  0  0  0  0  0  0  0
   -8.4050   21.7760  -31.6970 C   0  0  0  0  0  0  0  0  0  0  0  0
   -7.8360   20.5500  -32.0820 C   0  0  0  0  0  0  0  0  0  0  0  0
   -8.6930   19.3170  -32.2240 C   0  0  0  0  0  0  0  0  0  0  0  0
   -9.8100   19.5880  -32.9960 F   0  0  0  0  0  0  0  0  0  0  0  0
   -7.9850   18.2950  -32.8310 F   0  0  0  0  0  0  0  0  0  0  0  0
   -9.1010   18.9000  -30.9710 F   0  0  0  0  0  0  0  0  0  0  0  0
   -6.4740   20.5110  -32.4290 C   0  0  0  0  0  0  0  0  0  0  0  0
   -5.6860   21.6630  -32.3380 C   0  0  0  0  0  0  0  0  0  0  0  0
   -4.0210   24.5480  -27.4580 C   0  0  0  0  0  0  0  0  0  0  0  0
   -3.2260   24.8950  -26.3620 C   0  0  0  0  0  0  0  0  0  0  0  0
   -0.5270   27.0480  -26.7620 N   0  0  0  0  0  0  0  0  0  0  0  0
   -0.4600   28.3410  -27.1730 C   0  0  0  0  0  0  0  0  0  0  0  0
   -0.4812   31.4548  -25.7762 H   0  0  0  0  0  0  0  0  0  0  0  0
    0.3820   30.9533  -27.2695 H   0  0  0  0  0  0  0  0  0  0  0  0
   -1.4093   31.0869  -27.2695 H   0  0  0  0  0  0  0  0  0  0  0  0
   -0.9713   29.8280  -24.1532 H   0  0  0  0  0  0  0  0  0  0  0  0
   -0.2258   23.6631  -27.4417 H   0  0  0  0  0  0  0  0  0  0  0  0
   -1.6354   23.0598  -29.4078 H   0  0  0  0  0  0  0  0  0  0  0  0
   -4.6140   22.5440  -29.7600 H   0  0  0  0  0  0  0  0  0  0  0  0
   -8.0701   23.8784  -31.2975 H   0  0  0  0  0  0  0  0  0  0  0  0
   -9.4793   21.8316  -31.4673 H   0  0  0  0  0  0  0  0  0  0  0  0
   -6.0251   19.5680  -32.7744 H   0  0  0  0  0  0  0  0  0  0  0  0
   -4.6218   21.6200  -32.6128 H   0  0  0  0  0  0  0  0  0  0  0  0
   -5.0888   24.8122  -27.4656 H   0  0  0  0  0  0  0  0  0  0  0  0
   -3.6729   25.4198  -25.5047 H   0  0  0  0  0  0  0  0  0  0  0  0
   -0.2676   28.5728  -28.2309 H   0  0  0  0  0  0  0  0  0  0  0  0
  1  2  1  0
  2  3  2  0
  3  4  1  0
  4  5  2  0
  5  6  1  0
  6  7  1  0
  7  8  2  0
  8  9  1  0
  9 10  2  0
 10 11  1  0
 11 12  1  0
 12 13  2  0
 12 14  1  0
 14 15  1  0
 15 16  2  0
 16 17  1  0
 17 18  2  0
 18 19  1  0
 19 20  1  0
 19 21  1  0
 19 22  1  0
 18 23  1  0
 23 24  2  0
 10 25  1  0
 25 26  2  0
  5 27  1  0
 27 28  2  0
 28  2  1  0
 26  7  1  0
 24 15  1  0
  1 29  1  0
  1 30  1  0
  1 31  1  0
  3 32  1  0
  8 33  1  0
  9 34  1  0
 11 35  1  0
 16 36  1  0
 17 37  1  0
 23 38  1  0
 24 39  1  0
 25 40  1  0
 26 41  1  0
 28 42  1  0
M  CHG  1  14  -1
M  END
>  <UniqueID>  (44) 
38

>  <SMILES>  (44) 
Cc1cnc(Sc2ccc(NC(=O)[N-]c3ccc(C(F)(F)F)cc3)cc2)nc1

>  <Energy>  (44) 
49.424795460189145

>  <Genealogy>  (44) 
Cc1cnc(Sc2ccc(NC(=O)[N-]c3ccc(C(F)(F)F)cc3)cc2)nc1 (protonated)
Cc1cnc(Sc2ccc(NC(=O)[N-]c3ccc(C(F)(F)F)cc3)cc2)nc1 (3D coordinates assigned)
Cc1cnc(Sc2ccc(NC(=O)[N-]c3ccc(C(F)(F)F)cc3)cc2)nc1 (optimized conformer: 49.424795460189145 kcal/mol)

>  <smiles>  (44) 
Cc1cnc(Sc2ccc(NC(=O)Nc3ccc(C(F)(F)F)cc3)cc2)nc1

>  <score_type>  (44) 
oracle

>  <origin>  (44) 
adgpu

>  <m_score__min__energy>  (44) 
-10.58

>  <m_primary>  (44) 
energy

$$$$
44:0
     RDKit          3D

 52 55  0  0  0  0  0  0  0  0999 V2000
   -5.7760   25.7760  -30.1750 C   0  0  0  0  0  0  0  0  0  0  0  0
   -4.6110   24.8710  -29.9340 C   0  0  0  0  0  0  0  0  0  0  0  0
   -3.4990   25.1410  -30.4600 O   0  0  0  0  0  0  0  0  0  0  0  0
   -4.7470   23.7580  -29.0360 N   0  0  0  0  0  0  0  0  0  0  0  0
   -3.7570   22.7280  -28.8760 C   0  0  0  0  0  0  0  0  0  0  0  0
   -3.6530   22.0660  -27.6440 C   0  0  0  0  0  0  0  0  0  0  0  0
   -2.7130   21.0490  -27.4640 C   0  0  0  0  0  0  0  0  0  0  0  0
   -1.8790   20.6650  -28.5170 C   0  0  0  0  0  0  0  0  0  0  0  0
   -0.9650   19.6770  -28.3250 N   0  0  0  0  0  0  0  0  0  0  0  0
   -0.1380   19.2640  -29.3200 C   0  0  0  0  0  0  0  0  0  0  0  0
   -0.2130   19.8490  -30.5830 C   0  0  0  0  0  0  0  0  0  0  0  0
   -1.1510   20.8600  -30.8280 C   0  0  0  0  0  0  0  0  0  0  0  0
   -1.2340   21.5570  -32.4880 S   0  0  0  0  0  0  0  0  0  0  0  0
   -2.6100   20.5080  -32.9650 C   0  0  0  0  0  0  0  0  0  0  0  0
   -2.4060   19.1480  -33.2250 C   0  0  0  0  0  0  0  0  0  0  0  0
   -3.4770   18.3400  -33.6190 C   0  0  0  0  0  0  0  0  0  0  0  0
   -4.7660   18.8760  -33.7330 C   0  0  0  0  0  0  0  0  0  0  0  0
   -5.8300   18.0180  -34.1700 N   0  0  0  0  0  0  0  0  0  0  0  0
   -6.6600   17.1950  -33.3400 C   0  0  0  0  0  0  0  0  0  0  0  0
   -6.8750   15.9910  -33.6420 O   0  0  0  0  0  0  0  0  0  0  0  0
   -7.2360   17.7650  -32.1600 N   0  0  0  0  0  0  0  0  0  0  0  0
   -7.8630   19.0520  -32.0500 C   0  0  0  0  0  0  0  0  0  0  0  0
   -9.2040   19.1780  -32.4290 C   0  0  0  0  0  0  0  0  0  0  0  0
   -9.8530   20.4110  -32.3320 C   0  0  0  0  0  0  0  0  0  0  0  0
   -9.1730   21.5240  -31.8310 C   0  0  0  0  0  0  0  0  0  0  0  0
   -7.8420   21.4070  -31.3940 C   0  0  0  0  0  0  0  0  0  0  0  0
   -7.0890   22.6010  -30.8620 C   0  0  0  0  0  0  0  0  0  0  0  0
   -5.7570   22.5000  -31.2230 F   0  0  0  0  0  0  0  0  0  0  0  0
   -7.1810   22.6450  -29.4790 F   0  0  0  0  0  0  0  0  0  0  0  0
   -7.6050   23.7840  -31.3670 F   0  0  0  0  0  0  0  0  0  0  0  0
   -7.1880   20.1680  -31.5210 C   0  0  0  0  0  0  0  0  0  0  0  0
   -4.9660   20.2460  -33.4810 C   0  0  0  0  0  0  0  0  0  0  0  0
   -3.8930   21.0530  -33.0890 C   0  0  0  0  0  0  0  0  0  0  0  0
   -1.9930   21.2940  -29.7800 C   0  0  0  0  0  0  0  0  0  0  0  0
   -2.9370   22.3270  -29.9470 C   0  0  0  0  0  0  0  0  0  0  0  0
   -6.1938   26.1006  -29.2106 H   0  0  0  0  0  0  0  0  0  0  0  0
   -5.4448   26.6560  -30.7459 H   0  0  0  0  0  0  0  0  0  0  0  0
   -6.5467   25.2374  -30.7459 H   0  0  0  0  0  0  0  0  0  0  0  0
   -5.5770   23.7460  -28.4010 H   0  0  0  0  0  0  0  0  0  0  0  0
   -4.3164   22.3498  -26.8137 H   0  0  0  0  0  0  0  0  0  0  0  0
   -2.6288   20.5479  -26.4884 H   0  0  0  0  0  0  0  0  0  0  0  0
    0.5935   18.4651  -29.1285 H   0  0  0  0  0  0  0  0  0  0  0  0
    0.4627   19.5175  -31.3852 H   0  0  0  0  0  0  0  0  0  0  0  0
   -1.4009   18.7138  -33.1192 H   0  0  0  0  0  0  0  0  0  0  0  0
   -3.3061   17.2763  -33.8409 H   0  0  0  0  0  0  0  0  0  0  0  0
   -9.7504   18.3007  -32.8056 H   0  0  0  0  0  0  0  0  0  0  0  0
  -10.9015   20.5060  -32.6507 H   0  0  0  0  0  0  0  0  0  0  0  0
   -9.6822   22.4976  -31.7782 H   0  0  0  0  0  0  0  0  0  0  0  0
   -6.1392   20.0705  -31.2039 H   0  0  0  0  0  0  0  0  0  0  0  0
   -5.9691   20.6834  -33.5926 H   0  0  0  0  0  0  0  0  0  0  0  0
   -4.0582   22.1198  -32.8774 H   0  0  0  0  0  0  0  0  0  0  0  0
   -3.0337   22.8243  -30.9234 H   0  0  0  0  0  0  0  0  0  0  0  0
  1  2  1  0
  2  3  2  0
  2  4  1  0
  4  5  1  0
  5  6  2  0
  6  7  1  0
  7  8  2  0
  8  9  1  0
  9 10  2  0
 10 11  1  0
 11 12  2  0
 12 13  1  0
 13 14  1  0
 14 15  2  0
 15 16  1  0
 16 17  2  0
 17 18  1  0
 18 19  1  0
 19 20  2  0
 19 21  1  0
 21 22  1  0
 22 23  2  0
 23 24  1  0
 24 25  2  0
 25 26  1  0
 26 27  1  0
 27 28  1  0
 27 29  1  0
 27 30  1  0
 26 31  2  0
 17 32  1  0
 32 33  2  0
 12 34  1  0
 34 35  2  0
 35  5  1  0
 34  8  1  0
 33 14  1  0
 31 22  1  0
  1 36  1  0
  1 37  1  0
  1 38  1  0
  4 39  1  0
  6 40  1  0
  7 41  1  0
 10 42  1  0
 11 43  1  0
 15 44  1  0
 16 45  1  0
 23 46  1  0
 24 47  1  0
 25 48  1  0
 31 49  1  0
 32 50  1  0
 33 51  1  0
 35 52  1  0
M  CHG  2  18  -1  21  -1
M  END
>  <UniqueID>  (45) 
39

>  <SMILES>  (45) 
CC(=O)Nc1ccc2nccc(Sc3ccc([N-]C(=O)[N-]c4cccc(C(F)(F)F)c4)cc3)c2c1

>  <Energy>  (45) 
65.92271802652827

>  <Genealogy>  (45) 
CC(=O)Nc1ccc2nccc(Sc3ccc([N-]C(=O)[N-]c4cccc(C(F)(F)F)c4)cc3)c2c1 (protonated)
CC(=O)Nc1ccc2nccc(Sc3ccc([N-]C(=O)[N-]c4cccc(C(F)(F)F)c4)cc3)c2c1 (3D coordinates assigned)
CC(=O)Nc1ccc2nccc(Sc3ccc([N-]C(=O)[N-]c4cccc(C(F)(F)F)c4)cc3)c2c1 (optimized conformer: 65.92271802652827 kcal/mol)

>  <smiles>  (45) 
CC(=O)Nc1ccc2nccc(Sc3ccc(NC(=O)Nc4cccc(C(F)(F)F)c4)cc3)c2c1

>  <score_type>  (45) 
oracle

>  <origin>  (45) 
adgpu

>  <m_score__min__energy>  (45) 
-11.949999999999999

>  <m_primary>  (45) 
energy

$$$$
45:0
     RDKit          3D

 28 30  0  0  0  0  0  0  0  0999 V2000
   -1.3240   25.5170  -29.3310 O   0  0  0  0  0  0  0  0  0  0  0  0
   -1.2890   24.3930  -28.5020 C   0  0  0  0  0  0  0  0  0  0  0  0
   -0.2390   24.2970  -27.5800 C   0  0  0  0  0  0  0  0  0  0  0  0
   -0.1860   23.2430  -26.6690 C   0  0  0  0  0  0  0  0  0  0  0  0
   -1.1850   22.2700  -26.6690 C   0  0  0  0  0  0  0  0  0  0  0  0
   -2.2260   22.3370  -27.5970 C   0  0  0  0  0  0  0  0  0  0  0  0
   -2.2830   23.3800  -28.5390 C   0  0  0  0  0  0  0  0  0  0  0  0
   -3.3650   23.3460  -29.5480 C   0  0  0  0  0  0  0  0  0  0  0  0
   -3.5800   24.2880  -30.4860 N   0  0  0  0  0  0  0  0  0  0  0  0
   -4.6060   23.8700  -31.2110 N   0  0  0  0  0  0  0  0  0  0  0  0
   -4.9760   22.6830  -30.6930 C   0  0  0  0  0  0  0  0  0  0  0  0
   -6.0890   21.8580  -31.2020 C   0  0  0  0  0  0  0  0  0  0  0  0
   -5.8620   20.9210  -32.2250 C   0  0  0  0  0  0  0  0  0  0  0  0
   -6.9140   20.1370  -32.7110 C   0  0  0  0  0  0  0  0  0  0  0  0
   -8.2000   20.2820  -32.1810 C   0  0  0  0  0  0  0  0  0  0  0  0
   -9.5170   19.2980  -32.7910 Cl  0  0  0  0  0  0  0  0  0  0  0  0
   -8.4340   21.2120  -31.1630 C   0  0  0  0  0  0  0  0  0  0  0  0
   -7.3840   21.9970  -30.6740 C   0  0  0  0  0  0  0  0  0  0  0  0
   -4.2160   22.3550  -29.6750 O   0  0  0  0  0  0  0  0  0  0  0  0
   -1.9950   25.6420  -30.0740 H   0  0  0  0  0  0  0  0  0  0  0  0
    0.5521   25.0613  -27.5746 H   0  0  0  0  0  0  0  0  0  0  0  0
    0.6440   23.1789  -25.9500 H   0  0  0  0  0  0  0  0  0  0  0  0
   -1.1528   21.4492  -25.9374 H   0  0  0  0  0  0  0  0  0  0  0  0
   -3.0102   21.5656  -27.5914 H   0  0  0  0  0  0  0  0  0  0  0  0
   -4.8523   20.8036  -32.6455 H   0  0  0  0  0  0  0  0  0  0  0  0
   -6.7292   19.4053  -33.5113 H   0  0  0  0  0  0  0  0  0  0  0  0
   -9.4454   21.3266  -30.7460 H   0  0  0  0  0  0  0  0  0  0  0  0
   -7.5730   22.7263  -29.8725 H   0  0  0  0  0  0  0  0  0  0  0  0
  1  2  1  0
  2  3  2  0
  3  4  1  0
  4  5  2  0
  5  6  1  0
  6  7  2  0
  7  8  1  0
  8  9  2  0
  9 10  1  0
 10 11  2  0
 11 12  1  0
 12 13  2  0
 13 14  1  0
 14 15  2  0
 15 16  1  0
 15 17  1  0
 17 18  2  0
 11 19  1  0
  7  2  1  0
 19  8  1  0
 18 12  1  0
  1 20  1  0
  3 21  1  0
  4 22  1  0
  5 23  1  0
  6 24  1  0
 13 25  1  0
 14 26  1  0
 17 27  1  0
 18 28  1  0
M  END
>  <UniqueID>  (46) 
40

>  <SMILES>  (46) 
Oc1ccccc1-c1nnc(-c2ccc(Cl)cc2)o1

>  <Energy>  (46) 
70.63411988741727

>  <Genealogy>  (46) 
Oc1ccccc1-c1nnc(-c2ccc(Cl)cc2)o1 (3D coordinates assigned)
Oc1ccccc1-c1nnc(-c2ccc(Cl)cc2)o1 (optimized conformer: 70.63411988741727 kcal/mol)

>  <smiles>  (46) 
Oc1ccccc1-c1nnc(-c2ccc(Cl)cc2)o1

>  <score_type>  (46) 
oracle

>  <origin>  (46) 
adgpu

>  <m_score__min__energy>  (46) 
-8.7799999999999994

>  <m_primary>  (46) 
energy

$$$$
46:0
     RDKit          3D

 62 65  0  0  0  0  0  0  0  0999 V2000
   -5.3040   26.4450  -30.4850 O   0  0  0  0  0  0  0  0  0  0  0  0
   -4.9510   25.2480  -30.3240 C   0  0  0  0  0  0  0  0  0  0  0  0
   -5.9590   24.2310  -29.8820 C   0  0  0  0  0  0  0  0  0  0  0  0
   -7.1450   24.1390  -30.8530 C   0  0  0  0  0  0  0  0  0  0  0  0
   -6.8030   23.3370  -32.1200 C   0  0  0  0  0  0  0  0  0  0  0  0
   -7.4380   21.9820  -32.0690 C   0  0  0  0  0  0  0  0  0  0  0  0
   -6.7670   20.7660  -32.0110 C   0  0  0  0  0  0  0  0  0  0  0  0
   -7.6240   19.6670  -31.8570 C   0  0  0  0  0  0  0  0  0  0  0  0
   -8.9680   20.0160  -31.7850 C   0  0  0  0  0  0  0  0  0  0  0  0
   -9.0860   21.6910  -31.9060 S   0  0  0  0  0  0  0  0  0  0  0  0
   -3.5850   24.8510  -30.4700 N   0  0  0  0  0  0  0  0  0  0  0  0
   -3.0510   23.5210  -30.5720 C   0  0  0  0  0  0  0  0  0  0  0  0
   -3.3460   22.6820  -31.6650 C   0  0  0  0  0  0  0  0  0  0  0  0
   -2.8070   21.3910  -31.7360 C   0  0  0  0  0  0  0  0  0  0  0  0
   -3.1950   20.3320  -33.0900 S   0  0  0  0  0  0  0  0  0  0  0  0
   -3.4300   18.9350  -32.5830 O   0  0  0  0  0  0  0  0  0  0  0  0
   -4.4590   20.8250  -33.7370 O   0  0  0  0  0  0  0  0  0  0  0  0
   -1.8770   20.3610  -34.2450 N   0  0  0  0  0  0  0  0  0  0  0  0
   -0.8620   21.3810  -33.8990 C   0  0  0  0  0  0  0  0  0  0  0  0
    0.3600   20.7840  -33.1760 C   0  0  0  0  0  0  0  0  0  0  0  0
   -0.0280   19.6850  -32.3830 O   0  0  0  0  0  0  0  0  0  0  0  0
   -0.4230   18.6010  -33.2070 C   0  0  0  0  0  0  0  0  0  0  0  0
   -1.2820   19.0250  -34.4230 C   0  0  0  0  0  0  0  0  0  0  0  0
   -1.9820   20.9260  -30.7060 C   0  0  0  0  0  0  0  0  0  0  0  0
   -1.7010   21.7390  -29.6080 C   0  0  0  0  0  0  0  0  0  0  0  0
   -2.2400   23.0310  -29.5250 C   0  0  0  0  0  0  0  0  0  0  0  0
   -1.9630   23.8340  -28.3650 N   0  0  0  0  0  0  0  0  0  0  0  0
   -0.7750   24.6950  -28.3160 C   0  0  0  0  0  0  0  0  0  0  0  0
   -1.1540   26.0740  -27.7630 C   0  0  0  0  0  0  0  0  0  0  0  0
   -1.8980   25.9380  -26.4280 C   0  0  0  0  0  0  0  0  0  0  0  0
   -3.1380   25.0450  -26.5800 C   0  0  0  0  0  0  0  0  0  0  0  0
   -2.7620   23.6730  -27.1460 C   0  0  0  0  0  0  0  0  0  0  0  0
   -5.4698   23.2475  -29.8243 H   0  0  0  0  0  0  0  0  0  0  0  0
   -6.3463   24.5401  -28.8999 H   0  0  0  0  0  0  0  0  0  0  0  0
   -7.9848   23.6478  -30.3397 H   0  0  0  0  0  0  0  0  0  0  0  0
   -7.4055   25.1618  -31.1630 H   0  0  0  0  0  0  0  0  0  0  0  0
   -7.1747   23.8782  -33.0026 H   0  0  0  0  0  0  0  0  0  0  0  0
   -5.7113   23.2167  -32.1816 H   0  0  0  0  0  0  0  0  0  0  0  0
   -5.6729   20.6750  -32.0791 H   0  0  0  0  0  0  0  0  0  0  0  0
   -7.2672   18.6281  -31.7987 H   0  0  0  0  0  0  0  0  0  0  0  0
   -9.8098   19.3175  -31.6689 H   0  0  0  0  0  0  0  0  0  0  0  0
   -4.0045   23.0435  -32.4685 H   0  0  0  0  0  0  0  0  0  0  0  0
   -0.5204   21.8656  -34.8255 H   0  0  0  0  0  0  0  0  0  0  0  0
   -1.3345   22.0999  -33.2135 H   0  0  0  0  0  0  0  0  0  0  0  0
    1.0959   20.4507  -33.9225 H   0  0  0  0  0  0  0  0  0  0  0  0
    0.8027   21.5541  -32.5272 H   0  0  0  0  0  0  0  0  0  0  0  0
    0.4826   18.0997  -33.5793 H   0  0  0  0  0  0  0  0  0  0  0  0
   -1.0457   17.9375  -32.5890 H   0  0  0  0  0  0  0  0  0  0  0  0
   -0.6450   19.0375  -35.3197 H   0  0  0  0  0  0  0  0  0  0  0  0
   -2.1032   18.3004  -34.5256 H   0  0  0  0  0  0  0  0  0  0  0  0
   -1.5531   19.9147  -30.7624 H   0  0  0  0  0  0  0  0  0  0  0  0
   -1.0526   21.3644  -28.8022 H   0  0  0  0  0  0  0  0  0  0  0  0
   -0.0179   24.2356  -27.6635 H   0  0  0  0  0  0  0  0  0  0  0  0
   -0.3687   24.8107  -29.3317 H   0  0  0  0  0  0  0  0  0  0  0  0
   -0.2391   26.6646  -27.6078 H   0  0  0  0  0  0  0  0  0  0  0  0
   -1.8142   26.5754  -28.4860 H   0  0  0  0  0  0  0  0  0  0  0  0
   -1.2224   25.4924  -25.6830 H   0  0  0  0  0  0  0  0  0  0  0  0
   -2.2225   26.9376  -26.1032 H   0  0  0  0  0  0  0  0  0  0  0  0
   -3.6073   24.9108  -25.5942 H   0  0  0  0  0  0  0  0  0  0  0  0
   -3.8361   25.5316  -27.2771 H   0  0  0  0  0  0  0  0  0  0  0  0
   -2.1768   23.1184  -26.3977 H   0  0  0  0  0  0  0  0  0  0  0  0
   -3.6808   23.1185  -27.3877 H   0  0  0  0  0  0  0  0  0  0  0  0
  1  2  2  0
  2  3  1  0
  3  4  1  0
  4  5  1  0
  5  6  1  0
  6  7  2  0
  7  8  1  0
  8  9  2  0
  9 10  1  0
  2 11  1  0
 11 12  1  0
 12 13  2  0
 13 14  1  0
 14 15  1  0
 15 16  2  0
 15 17  2  0
 15 18  1  0
 18 19  1  0
 19 20  1  0
 20 21  1  0
 21 22  1  0
 22 23  1  0
 14 24  2  0
 24 25  1  0
 25 26  2  0
 26 27  1  0
 27 28  1  0
 28 29  1  0
 29 30  1  0
 30 31  1  0
 31 32  1  0
 10  6  1  0
 26 12  1  0
 32 27  1  0
 23 18  1  0
  3 33  1  0
  3 34  1  0
  4 35  1  0
  4 36  1  0
  5 37  1  0
  5 38  1  0
  7 39  1  0
  8 40  1  0
  9 41  1  0
 13 42  1  0
 19 43  1  0
 19 44  1  0
 20 45  1  0
 20 46  1  0
 22 47  1  0
 22 48  1  0
 23 49  1  0
 23 50  1  0
 24 51  1  0
 25 52  1  0
 28 53  1  0
 28 54  1  0
 29 55  1  0
 29 56  1  0
 30 57  1  0
 30 58  1  0
 31 59  1  0
 31 60  1  0
 32 61  1  0
 32 62  1  0
M  CHG  1  11  -1
M  END
>  <UniqueID>  (47) 
41

>  <SMILES>  (47) 
O=C(CCCc1cccs1)[N-]c1cc(S(=O)(=O)N2CCOCC2)ccc1N1CCCCC1

>  <Energy>  (47) 
97.22641281241124

>  <Genealogy>  (47) 
O=C(CCCc1cccs1)[N-]c1cc(S(=O)(=O)N2CCOCC2)ccc1N1CCCCC1 (protonated)
O=C(CCCc1cccs1)[N-]c1cc(S(=O)(=O)N2CCOCC2)ccc1N1CCCCC1 (3D coordinates assigned)
O=C(CCCc1cccs1)[N-]c1cc(S(=O)(=O)N2CCOCC2)ccc1N1CCCCC1 (nonaromatic ring conformer: 97.22641281241124 kcal/mol)

>  <smiles>  (47) 
O=C(CCCc1cccs1)Nc1cc(S(=O)(=O)N2CCOCC2)ccc1N1CCCCC1

>  <score_type>  (47) 
oracle

>  <origin>  (47) 
adgpu

>  <m_score__min__energy>  (47) 
-11.42

>  <m_primary>  (47) 
energy

$$$$
47:0
     RDKit          3D

 47 50  0  0  0  0  0  0  0  0999 V2000
   -2.1250   25.2910  -29.2150 N   0  0  0  0  0  0  0  0  0  0  0  0
   -3.2190   24.0940  -29.8080 S   0  0  0  0  0  0  0  0  0  0  0  0
   -4.0180   23.5500  -28.6580 O   0  0  0  0  0  0  0  0  0  0  0  0
   -4.1570   24.7210  -30.7990 O   0  0  0  0  0  0  0  0  0  0  0  0
   -2.3160   22.8050  -30.5940 C   0  0  0  0  0  0  0  0  0  0  0  0
   -2.7200   22.3460  -31.8540 C   0  0  0  0  0  0  0  0  0  0  0  0
   -2.0070   21.3280  -32.4920 C   0  0  0  0  0  0  0  0  0  0  0  0
   -0.8710   20.7720  -31.8920 C   0  0  0  0  0  0  0  0  0  0  0  0
   -0.1540   19.7440  -32.5910 N   0  0  0  0  0  0  0  0  0  0  0  0
   -0.6440   18.0840  -32.6860 S   0  0  0  0  0  0  0  0  0  0  0  0
   -0.8380   17.5500  -31.2930 O   0  0  0  0  0  0  0  0  0  0  0  0
    0.4290   17.2820  -33.3690 O   0  0  0  0  0  0  0  0  0  0  0  0
   -2.1730   17.9710  -33.5520 C   0  0  0  0  0  0  0  0  0  0  0  0
   -2.2810   17.1100  -34.6500 C   0  0  0  0  0  0  0  0  0  0  0  0
   -3.5000   16.9730  -35.3180 C   0  0  0  0  0  0  0  0  0  0  0  0
   -4.6180   17.6950  -34.8940 C   0  0  0  0  0  0  0  0  0  0  0  0
   -4.5210   18.5700  -33.8030 C   0  0  0  0  0  0  0  0  0  0  0  0
   -5.6790   19.2860  -33.3480 N   0  0  0  0  0  0  0  0  0  0  0  0
   -6.8690   18.7400  -32.9970 C   0  0  0  0  0  0  0  0  0  0  0  0
   -7.1470   17.3780  -33.0270 O   0  0  0  0  0  0  0  0  0  0  0  0
   -7.7360   19.7200  -32.5600 C   0  0  0  0  0  0  0  0  0  0  0  0
   -7.0450   20.9010  -32.6110 C   0  0  0  0  0  0  0  0  0  0  0  0
   -5.7890   20.6160  -33.1030 C   0  0  0  0  0  0  0  0  0  0  0  0
   -4.7900   21.5610  -33.3320 O   0  0  0  0  0  0  0  0  0  0  0  0
   -7.6240   22.1620  -32.1440 C   0  0  0  0  0  0  0  0  0  0  0  0
   -8.9110   22.1740  -31.7610 C   0  0  0  0  0  0  0  0  0  0  0  0
   -9.8190   20.9690  -31.9660 C   0  0  0  0  0  0  0  0  0  0  0  0
   -9.0800   19.6070  -31.9090 C   0  0  0  0  0  0  0  0  0  0  0  0
   -3.2940   18.7010  -33.1310 C   0  0  0  0  0  0  0  0  0  0  0  0
   -0.4670   21.2290  -30.6250 C   0  0  0  0  0  0  0  0  0  0  0  0
   -1.1870   22.2420  -29.9810 C   0  0  0  0  0  0  0  0  0  0  0  0
   -1.6130   25.6680  -30.0430 H   0  0  0  0  0  0  0  0  0  0  0  0
   -3.6009   22.7881  -32.3425 H   0  0  0  0  0  0  0  0  0  0  0  0
   -2.3409   20.9605  -33.4735 H   0  0  0  0  0  0  0  0  0  0  0  0
   -1.4033   16.5395  -34.9879 H   0  0  0  0  0  0  0  0  0  0  0  0
   -3.5798   16.2947  -36.1803 H   0  0  0  0  0  0  0  0  0  0  0  0
   -5.5779   17.5766  -35.4180 H   0  0  0  0  0  0  0  0  0  0  0  0
   -4.6250   21.9520  -34.2500 H   0  0  0  0  0  0  0  0  0  0  0  0
   -7.0181   23.0794  -32.1077 H   0  0  0  0  0  0  0  0  0  0  0  0
   -9.3201   23.0782  -31.2866 H   0  0  0  0  0  0  0  0  0  0  0  0
  -10.5889   20.9782  -31.1804 H   0  0  0  0  0  0  0  0  0  0  0  0
  -10.2445   21.0587  -32.9764 H   0  0  0  0  0  0  0  0  0  0  0  0
   -8.9508   19.3074  -30.8585 H   0  0  0  0  0  0  0  0  0  0  0  0
   -9.6757   18.8528  -32.4442 H   0  0  0  0  0  0  0  0  0  0  0  0
   -3.2122   19.3802  -32.2696 H   0  0  0  0  0  0  0  0  0  0  0  0
    0.4166   20.7896  -30.1390 H   0  0  0  0  0  0  0  0  0  0  0  0
   -0.8663   22.5978  -28.9908 H   0  0  0  0  0  0  0  0  0  0  0  0
  1  2  1  0
  2  3  2  0
  2  4  2  0
  2  5  1  0
  5  6  2  0
  6  7  1  0
  7  8  2  0
  8  9  1  0
  9 10  1  0
 10 11  2  0
 10 12  2  0
 10 13  1  0
 13 14  2  0
 14 15  1  0
 15 16  2  0
 16 17  1  0
 17 18  1  0
 18 19  1  0
 19 20  1  0
 19 21  2  0
 21 22  1  0
 22 23  2  0
 23 24  1  0
 22 25  1  0
 25 26  2  0
 26 27  1  0
 27 28  1  0
 17 29  2  0
  8 30  1  0
 30 31  2  0
 31  5  1  0
 29 13  1  0
 23 18  1  0
 28 21  1  0
  1 32  1  0
  6 33  1  0
  7 34  1  0
 14 35  1  0
 15 36  1  0
 16 37  1  0
 24 38  1  0
 25 39  1  0
 26 40  1  0
 27 41  1  0
 27 42  1  0
 28 43  1  0
 28 44  1  0
 29 45  1  0
 30 46  1  0
 31 47  1  0
M  CHG  3   1  -1   9  -1  20  -1
M  END
>  <UniqueID>  (48) 
42

>  <SMILES>  (48) 
[NH-]S(=O)(=O)c1ccc([N-]S(=O)(=O)c2cccc(-n3c([O-])c4c(c3O)C=CCC4)c2)cc1

>  <Energy>  (48) 
93.11737479859536

>  <Genealogy>  (48) 
[NH-]S(=O)(=O)c1ccc([N-]S(=O)(=O)c2cccc(-n3c([O-])c4c(c3O)C=CCC4)c2)cc1 (protonated)
[NH-]S(=O)(=O)c1ccc([N-]S(=O)(=O)c2cccc(-n3c([O-])c4c(c3O)C=CCC4)c2)cc1 (3D coordinates assigned)
[NH-]S(=O)(=O)c1ccc([N-]S(=O)(=O)c2cccc(-n3c([O-])c4c(c3O)C=CCC4)c2)cc1 (nonaromatic ring conformer: 93.11737479859536 kcal/mol)

>  <smiles>  (48) 
NS(=O)(=O)c1ccc(NS(=O)(=O)c2cccc(-n3c(O)c4c(c3O)CCC=C4)c2)cc1

>  <score_type>  (48) 
oracle

>  <origin>  (48) 
adgpu

>  <m_score__min__energy>  (48) 
-12.359999999999999

>  <m_primary>  (48) 
energy

$$$$
48:0
     RDKit          3D

 69 73  0  0  0  0  0  0  0  0999 V2000
    1.0980   14.1450  -26.7040 C   0  0  0  0  0  0  0  0  0  0  0  0
    1.3890   15.5380  -26.7320 O   0  0  0  0  0  0  0  0  0  0  0  0
    1.1100   16.3840  -27.8150 C   0  0  0  0  0  0  0  0  0  0  0  0
    0.3610   17.5410  -27.5770 C   0  0  0  0  0  0  0  0  0  0  0  0
    0.0540   18.4180  -28.6190 C   0  0  0  0  0  0  0  0  0  0  0  0
    0.4940   18.1510  -29.9280 C   0  0  0  0  0  0  0  0  0  0  0  0
    0.1660   19.0670  -31.0470 C   0  0  0  0  0  0  0  0  0  0  0  0
    0.9750   19.1480  -32.1900 C   0  0  0  0  0  0  0  0  0  0  0  0
    0.6180   20.0370  -33.2170 C   0  0  0  0  0  0  0  0  0  0  0  0
    1.4180   20.1560  -34.4630 C   0  0  0  0  0  0  0  0  0  0  0  0
    2.6540   20.8250  -34.4780 C   0  0  0  0  0  0  0  0  0  0  0  0
    3.4010   20.9130  -35.6550 C   0  0  0  0  0  0  0  0  0  0  0  0
    2.9230   20.3410  -36.8470 C   0  0  0  0  0  0  0  0  0  0  0  0
    3.6510   20.3980  -38.0460 O   0  0  0  0  0  0  0  0  0  0  0  0
    4.4730   19.3450  -38.5410 C   0  0  0  0  0  0  0  0  0  0  0  0
    1.6800   19.6900  -36.8530 C   0  0  0  0  0  0  0  0  0  0  0  0
    1.2240   19.1390  -38.0610 O   0  0  0  0  0  0  0  0  0  0  0  0
    1.2260   17.7480  -38.3670 C   0  0  0  0  0  0  0  0  0  0  0  0
    0.9330   19.6030  -35.6630 C   0  0  0  0  0  0  0  0  0  0  0  0
   -0.5150   20.7790  -33.0780 N   0  0  0  0  0  0  0  0  0  0  0  0
   -1.3060   20.6870  -31.9760 C   0  0  0  0  0  0  0  0  0  0  0  0
   -2.5140   21.4700  -31.8700 N   0  0  0  0  0  0  0  0  0  0  0  0
   -3.1220   21.6740  -30.5430 C   0  0  0  0  0  0  0  0  0  0  0  0
   -4.4070   22.5040  -30.6280 C   0  0  0  0  0  0  0  0  0  0  0  0
   -5.2280   22.0310  -31.7470 N   0  0  0  0  0  0  0  0  0  0  0  0
   -6.5650   21.5690  -31.5070 C   0  0  0  0  0  0  0  0  0  0  0  0
   -6.8880   20.2350  -31.7970 C   0  0  0  0  0  0  0  0  0  0  0  0
   -8.1870   19.7630  -31.6030 C   0  0  0  0  0  0  0  0  0  0  0  0
   -8.5740   18.0880  -31.9590 Cl  0  0  0  0  0  0  0  0  0  0  0  0
   -9.1770   20.6260  -31.1230 C   0  0  0  0  0  0  0  0  0  0  0  0
   -8.8640   21.9550  -30.8230 C   0  0  0  0  0  0  0  0  0  0  0  0
   -7.5560   22.4360  -30.9950 C   0  0  0  0  0  0  0  0  0  0  0  0
   -7.2390   23.8650  -30.6570 C   0  0  0  0  0  0  0  0  0  0  0  0
   -4.6310   21.8290  -33.0740 C   0  0  0  0  0  0  0  0  0  0  0  0
   -3.1220   22.0970  -33.0550 C   0  0  0  0  0  0  0  0  0  0  0  0
   -0.9570   19.8310  -30.9770 N   0  0  0  0  0  0  0  0  0  0  0  0
    1.2360   16.9820  -30.1700 C   0  0  0  0  0  0  0  0  0  0  0  0
    1.5500   16.1090  -29.1230 C   0  0  0  0  0  0  0  0  0  0  0  0
    1.0272   13.8061  -25.6599 H   0  0  0  0  0  0  0  0  0  0  0  0
    0.1418   13.9598  -27.2152 H   0  0  0  0  0  0  0  0  0  0  0  0
    1.9001   13.5925  -27.2152 H   0  0  0  0  0  0  0  0  0  0  0  0
    0.0102   17.7623  -26.5582 H   0  0  0  0  0  0  0  0  0  0  0  0
   -0.5359   19.3238  -28.4149 H   0  0  0  0  0  0  0  0  0  0  0  0
    1.8763   18.5240  -32.2807 H   0  0  0  0  0  0  0  0  0  0  0  0
    3.0366   21.2835  -33.5542 H   0  0  0  0  0  0  0  0  0  0  0  0
    4.3700   21.4335  -35.6492 H   0  0  0  0  0  0  0  0  0  0  0  0
    4.9063   18.7899  -37.6959 H   0  0  0  0  0  0  0  0  0  0  0  0
    3.8657   18.6633  -39.1546 H   0  0  0  0  0  0  0  0  0  0  0  0
    5.2817   19.7687  -39.1546 H   0  0  0  0  0  0  0  0  0  0  0  0
    1.2268   17.1671  -37.4329 H   0  0  0  0  0  0  0  0  0  0  0  0
    0.3282   17.5000  -38.9522 H   0  0  0  0  0  0  0  0  0  0  0  0
    2.1245   17.5026  -38.9522 H   0  0  0  0  0  0  0  0  0  0  0  0
   -0.0431   19.0959  -35.6711 H   0  0  0  0  0  0  0  0  0  0  0  0
   -3.3599   20.6931  -30.1056 H   0  0  0  0  0  0  0  0  0  0  0  0
   -2.4018   22.2215  -29.9172 H   0  0  0  0  0  0  0  0  0  0  0  0
   -4.9723   22.3998  -29.6901 H   0  0  0  0  0  0  0  0  0  0  0  0
   -4.1479   23.5610  -30.7877 H   0  0  0  0  0  0  0  0  0  0  0  0
   -6.1119   19.5561  -32.1801 H   0  0  0  0  0  0  0  0  0  0  0  0
  -10.2040   20.2584  -30.9812 H   0  0  0  0  0  0  0  0  0  0  0  0
   -9.6486   22.6293  -30.4492 H   0  0  0  0  0  0  0  0  0  0  0  0
   -7.2122   23.9860  -29.5640 H   0  0  0  0  0  0  0  0  0  0  0  0
   -6.2595   24.1332  -31.0798 H   0  0  0  0  0  0  0  0  0  0  0  0
   -8.0132   24.5222  -31.0798 H   0  0  0  0  0  0  0  0  0  0  0  0
   -4.8061   20.7903  -33.3908 H   0  0  0  0  0  0  0  0  0  0  0  0
   -5.0992   22.5352  -33.7754 H   0  0  0  0  0  0  0  0  0  0  0  0
   -2.6660   21.6770  -33.9637 H   0  0  0  0  0  0  0  0  0  0  0  0
   -2.9486   23.1826  -33.0180 H   0  0  0  0  0  0  0  0  0  0  0  0
    1.5727   16.7516  -31.1915 H   0  0  0  0  0  0  0  0  0  0  0  0
    2.1430   15.2043  -29.3229 H   0  0  0  0  0  0  0  0  0  0  0  0
  1  2  1  0
  2  3  1  0
  3  4  2  0
  4  5  1  0
  5  6  2  0
  6  7  1  0
  7  8  2  0
  8  9  1  0
  9 10  1  0
 10 11  2  0
 11 12  1  0
 12 13  2  0
 13 14  1  0
 14 15  1  0
 13 16  1  0
 16 17  1  0
 17 18  1  0
 16 19  2  0
  9 20  2  0
 20 21  1  0
 21 22  1  0
 22 23  1  0
 23 24  1  0
 24 25  1  0
 25 26  1  0
 26 27  2  0
 27 28  1  0
 28 29  1  0
 28 30  2  0
 30 31  1  0
 31 32  2  0
 32 33  1  0
 25 34  1  0
 34 35  1  0
 21 36  2  0
  6 37  1  0
 37 38  2  0
 38  3  1  0
 36  7  1  0
 19 10  1  0
 35 22  1  0
 32 26  1  0
  1 39  1  0
  1 40  1  0
  1 41  1  0
  4 42  1  0
  5 43  1  0
  8 44  1  0
 11 45  1  0
 12 46  1  0
 15 47  1  0
 15 48  1  0
 15 49  1  0
 18 50  1  0
 18 51  1  0
 18 52  1  0
 19 53  1  0
 23 54  1  0
 23 55  1  0
 24 56  1  0
 24 57  1  0
 27 58  1  0
 30 59  1  0
 31 60  1  0
 33 61  1  0
 33 62  1  0
 33 63  1  0
 34 64  1  0
 34 65  1  0
 35 66  1  0
 35 67  1  0
 37 68  1  0
 38 69  1  0
M  END
>  <UniqueID>  (49) 
43

>  <SMILES>  (49) 
COc1ccc(-c2cc(-c3ccc(OC)c(OC)c3)nc(N3CCN(c4cc(Cl)ccc4C)CC3)n2)cc1

>  <Energy>  (49) 
86.57864616291322

>  <Genealogy>  (49) 
COc1ccc(-c2cc(-c3ccc(OC)c(OC)c3)nc(N3CCN(c4cc(Cl)ccc4C)CC3)n2)cc1 (3D coordinates assigned)
COc1ccc(-c2cc(-c3ccc(OC)c(OC)c3)nc(N3CCN(c4cc(Cl)ccc4C)CC3)n2)cc1 (nonaromatic ring conformer: 86.57864616291322 kcal/mol)

>  <smiles>  (49) 
COc1ccc(-c2cc(-c3ccc(OC)c(OC)c3)nc(N3CCN(c4cc(Cl)ccc4C)CC3)n2)cc1

>  <score_type>  (49) 
oracle

>  <origin>  (49) 
adgpu

>  <m_score__min__energy>  (49) 
-9.6400000000000006

>  <m_primary>  (49) 
energy

$$$$
49:0
     RDKit          3D

 24 24  0  0  0  0  0  0  0  0999 V2000
   -2.3850   21.8630  -31.1550 C   0  0  0  0  0  0  0  0  0  0  0  0
   -2.9900   23.1510  -31.2230 O   0  0  0  0  0  0  0  0  0  0  0  0
   -4.3680   23.3880  -31.1050 C   0  0  0  0  0  0  0  0  0  0  0  0
   -5.3270   22.3830  -31.3450 C   0  0  0  0  0  0  0  0  0  0  0  0
   -6.6980   22.6590  -31.2090 C   0  0  0  0  0  0  0  0  0  0  0  0
   -7.7190   21.5910  -31.5000 C   0  0  0  0  0  0  0  0  0  0  0  0
   -7.2770   20.7300  -32.6840 C   0  0  0  0  0  0  0  0  0  0  0  0
   -8.4240   20.0280  -33.2500 N   0  0  0  0  0  0  0  0  0  0  0  0
   -7.1090   23.9520  -30.8550 C   0  0  0  0  0  0  0  0  0  0  0  0
   -6.1630   24.9510  -30.6160 C   0  0  0  0  0  0  0  0  0  0  0  0
   -4.7990   24.6700  -30.7390 C   0  0  0  0  0  0  0  0  0  0  0  0
   -3.8670   25.6750  -30.4980 O   0  0  0  0  0  0  0  0  0  0  0  0
   -2.2503   21.5763  -30.1016 H   0  0  0  0  0  0  0  0  0  0  0  0
   -3.0317   21.1272  -31.6555 H   0  0  0  0  0  0  0  0  0  0  0  0
   -1.4058   21.8909  -31.6555 H   0  0  0  0  0  0  0  0  0  0  0  0
   -4.9996   21.3754  -31.6409 H   0  0  0  0  0  0  0  0  0  0  0  0
   -7.8362   20.9519  -30.6124 H   0  0  0  0  0  0  0  0  0  0  0  0
   -8.6749   22.0741  -31.7509 H   0  0  0  0  0  0  0  0  0  0  0  0
   -6.8283   21.3741  -33.4546 H   0  0  0  0  0  0  0  0  0  0  0  0
   -6.5391   19.9919  -32.3365 H   0  0  0  0  0  0  0  0  0  0  0  0
   -8.6020   20.4260  -34.2010 H   0  0  0  0  0  0  0  0  0  0  0  0
   -8.1560   19.0270  -33.3960 H   0  0  0  0  0  0  0  0  0  0  0  0
   -8.1813   24.1804  -30.7652 H   0  0  0  0  0  0  0  0  0  0  0  0
   -6.4917   25.9611  -30.3304 H   0  0  0  0  0  0  0  0  0  0  0  0
  1  2  1  0
  2  3  1  0
  3  4  2  0
  4  5  1  0
  5  6  1  0
  6  7  1  0
  7  8  1  0
  5  9  2  0
  9 10  1  0
 10 11  2  0
 11 12  1  0
 11  3  1  0
  1 13  1  0
  1 14  1  0
  1 15  1  0
  4 16  1  0
  6 17  1  0
  6 18  1  0
  7 19  1  0
  7 20  1  0
  8 21  1  0
  8 22  1  0
  9 23  1  0
 10 24  1  0
M  CHG  1  12  -1
M  END
>  <UniqueID>  (50) 
44

>  <SMILES>  (50) 
COc1cc(CCN)ccc1[O-]

>  <Energy>  (50) 
17.434223643033484

>  <Genealogy>  (50) 
COc1cc(CCN)ccc1[O-] (protonated)
COc1cc(CCN)ccc1[O-] (3D coordinates assigned)
COc1cc(CCN)ccc1[O-] (optimized conformer: 17.434223643033484 kcal/mol)

>  <smiles>  (50) 
COc1cc(CCN)ccc1O

>  <score_type>  (50) 
oracle

>  <origin>  (50) 
adgpu

>  <m_score__min__energy>  (50) 
-8.1099999999999994

>  <m_primary>  (50) 
energy

$$$$
