0:0
     RDKit          3D

 57 60  0  0  1  0  0  0  0  0999 V2000
   -5.7840   25.6570  -29.7140 C   0  0  0  0  0  0  0  0  0  0  0  0
   -6.6520   24.4990  -29.8310 N   0  0  0  0  0  0  0  0  0  0  0  0
   -6.6190   23.7900  -31.0800 C   0  0  0  0  0  0  0  0  0  0  0  0
   -5.8250   24.2670  -31.9460 O   0  0  0  0  0  0  0  0  0  0  0  0
   -7.4230   22.6230  -31.3420 C   0  0  0  0  0  0  0  0  0  0  0  0
   -8.7880   22.6670  -31.5900 C   0  0  0  0  0  0  0  0  0  0  0  0
   -9.4790   21.5030  -31.8360 C   0  0  0  0  0  0  0  0  0  0  0  0
   -8.8450   20.2830  -31.8430 C   0  0  0  0  0  0  0  0  0  0  0  0
   -7.4680   20.2070  -31.5970 C   0  0  0  0  0  0  0  0  0  0  0  0
   -6.7780   18.9630  -31.6040 N   0  0  0  0  0  0  0  0  0  0  0  0
   -6.2660   18.4570  -32.6690 C   0  0  0  0  0  0  0  0  0  0  0  0
   -6.3490   19.0850  -33.8890 C   0  0  0  0  0  0  0  0  0  0  0  0
   -5.7670   18.4490  -34.9650 C   0  0  0  0  0  0  0  0  0  0  0  0
   -5.1380   17.2630  -34.8640 N   0  0  0  0  0  0  0  0  0  0  0  0
   -5.0660   16.6620  -33.6650 C   0  0  0  0  0  0  0  0  0  0  0  0
   -4.4310   15.4130  -33.4360 N   0  0  0  0  0  0  0  0  0  0  0  0
   -3.2120   15.2330  -33.1440 C   0  0  0  0  0  0  0  0  0  0  0  0
   -2.6770   13.9780  -32.9370 C   0  0  0  0  0  0  0  0  0  0  0  0
   -1.3440   13.8410  -32.6170 C   0  0  0  0  0  0  0  0  0  0  0  0
   -0.5350   14.9360  -32.4990 N   0  0  0  0  0  0  0  0  0  0  0  0
   -1.0680   16.1540  -32.7020 C   0  0  0  0  0  0  0  0  0  0  0  0
   -0.2160   17.2960  -32.5750 N   0  0  0  0  0  0  0  0  0  0  0  0
    0.7670   17.4130  -31.5030 C   0  0  0  0  0  0  0  0  0  0  0  0
   -0.3760   18.3480  -33.5850 C   0  0  0  0  0  0  0  0  0  0  0  0
   -1.2970   19.4000  -33.1160 C   0  0  0  0  0  0  0  0  0  0  0  0
   -2.5250   19.5730  -33.7500 C   0  0  0  0  0  0  0  0  0  0  0  0
   -3.3960   20.5550  -33.3160 C   0  0  0  0  0  0  0  0  0  0  0  0
   -3.0730   21.3900  -32.2440 C   0  0  0  0  0  0  0  0  0  0  0  0
   -1.8810   21.2040  -31.6480 N   0  0  0  0  0  0  0  0  0  0  0  0
   -1.0300   20.2520  -32.0640 C   0  0  0  0  0  0  0  0  0  0  0  0
   -2.3970   16.3570  -33.0260 C   0  0  0  0  0  0  0  0  0  0  0  0
   -5.6370   17.2850  -32.6020 N   0  0  0  0  0  0  0  0  0  0  0  0
   -6.8090   21.3940  -31.3550 C   0  0  0  0  0  0  0  0  0  0  0  0
   -5.6149   25.8826  -28.6507 H   0  0  0  0  0  0  0  0  0  0  0  0
   -4.8211   25.4442  -30.2013 H   0  0  0  0  0  0  0  0  0  0  0  0
   -6.2584   26.5216  -30.2013 H   0  0  0  0  0  0  0  0  0  0  0  0
   -7.2830   24.1710  -29.0620 H   0  0  0  0  0  0  0  0  0  0  0  0
   -9.3168   23.6316  -31.5899 H   0  0  0  0  0  0  0  0  0  0  0  0
  -10.5606   21.5494  -32.0310 H   0  0  0  0  0  0  0  0  0  0  0  0
   -9.4193   19.3662  -32.0419 H   0  0  0  0  0  0  0  0  0  0  0  0
   -6.8580   20.0536  -34.0020 H   0  0  0  0  0  0  0  0  0  0  0  0
   -5.8190   18.9329  -35.9515 H   0  0  0  0  0  0  0  0  0  0  0  0
   -4.6980   16.7780  -35.6650 H   0  0  0  0  0  0  0  0  0  0  0  0
   -3.3151   13.0866  -33.0275 H   0  0  0  0  0  0  0  0  0  0  0  0
   -0.9253   12.8369  -32.4543 H   0  0  0  0  0  0  0  0  0  0  0  0
    0.4710   14.7880  -32.2530 H   0  0  0  0  0  0  0  0  0  0  0  0
    0.2574   17.3523  -30.5300 H   0  0  0  0  0  0  0  0  0  0  0  0
    1.4985   16.5956  -31.5854 H   0  0  0  0  0  0  0  0  0  0  0  0
    1.2862   18.3793  -31.5854 H   0  0  0  0  0  0  0  0  0  0  0  0
    0.6060   18.7975  -33.7940 H   0  0  0  0  0  0  0  0  0  0  0  0
   -0.7967   17.8964  -34.4955 H   0  0  0  0  0  0  0  0  0  0  0  0
   -2.8021   18.9278  -34.5967 H   0  0  0  0  0  0  0  0  0  0  0  0
   -4.3628   20.6812  -33.8252 H   0  0  0  0  0  0  0  0  0  0  0  0
   -3.7673   22.1707  -31.8997 H   0  0  0  0  0  0  0  0  0  0  0  0
   -0.0695   20.1459  -31.5384 H   0  0  0  0  0  0  0  0  0  0  0  0
   -2.7964   17.3695  -33.1849 H   0  0  0  0  0  0  0  0  0  0  0  0
   -5.7270   21.3544  -31.1608 H   0  0  0  0  0  0  0  0  0  0  0  0
  1  2  1  0
  2  3  1  0
  3  4  2  0
  3  5  1  0
  5  6  2  0
  6  7  1  0
  7  8  2  0
  8  9  1  0
  9 10  1  0
 10 11  2  0
 11 12  1  0
 12 13  2  0
 13 14  1  0
 14 15  1  0
 15 16  1  0
 16 17  2  0
 17 18  1  0
 18 19  2  0
 19 20  1  0
 20 21  1  0
 21 22  1  0
 22 23  1  0
 22 24  1  0
 24 25  1  0
 25 26  2  0
 26 27  1  0
 27 28  2  0
 28 29  1  0
 29 30  2  0
 21 31  2  0
 15 32  2  0
  9 33  2  0
 33  5  1  0
 32 11  1  0
 31 17  1  0
 30 25  1  0
  1 34  1  0
  1 35  1  0
  1 36  1  0
  2 37  1  0
  6 38  1  0
  7 39  1  0
  8 40  1  0
 12 41  1  0
 13 42  1  0
 14 43  1  0
 18 44  1  0
 19 45  1  0
 20 46  1  0
 23 47  1  0
 23 48  1  0
 23 49  1  0
 24 50  1  0
 24 51  1  0
 26 52  1  0
 27 53  1  0
 28 54  1  0
 30 55  1  0
 31 56  1  0
 33 57  1  0
M  END
>  <smiles>  (1) 
CNC(=O)c1cccc(N=c2cc[nH]c(N=c3cc[nH]c(N(C)Cc4cccnc4)c3)n2)c1

>  <score_type>  (1) 
oracle

>  <origin>  (1) 
adgpu

>  <m_score__min__energy>  (1) 
-10.08

>  <m_primary>  (1) 
energy

$$$$
1:0
     RDKit          3D

 38 40  0  0  0  0  0  0  0  0999 V2000
   -9.1340   18.6310  -31.9810 C   0  0  0  0  0  0  0  0  0  0  0  0
   -8.9180   19.9410  -32.4980 O   0  0  0  0  0  0  0  0  0  0  0  0
   -7.7240   20.6620  -32.3520 C   0  0  0  0  0  0  0  0  0  0  0  0
   -7.6940   21.9910  -31.8900 C   0  0  0  0  0  0  0  0  0  0  0  0
   -6.4770   22.6650  -31.7600 C   0  0  0  0  0  0  0  0  0  0  0  0
   -5.2680   22.0180  -32.0720 C   0  0  0  0  0  0  0  0  0  0  0  0
   -4.0100   22.7030  -31.9740 N   0  0  0  0  0  0  0  0  0  0  0  0
   -3.2750   22.8650  -30.7520 C   0  0  0  0  0  0  0  0  0  0  0  0
   -2.7420   21.8350  -30.0020 C   0  0  0  0  0  0  0  0  0  0  0  0
   -2.1980   22.4390  -28.8830 C   0  0  0  0  0  0  0  0  0  0  0  0
   -1.5640   21.7620  -27.8440 O   0  0  0  0  0  0  0  0  0  0  0  0
   -2.3870   23.7780  -28.9070 N   0  0  0  0  0  0  0  0  0  0  0  0
   -1.9760   24.7270  -27.9060 C   0  0  0  0  0  0  0  0  0  0  0  0
   -0.8870   25.5840  -28.1410 C   0  0  0  0  0  0  0  0  0  0  0  0
   -0.4900   26.5060  -27.1670 C   0  0  0  0  0  0  0  0  0  0  0  0
   -1.1770   26.5810  -25.9500 C   0  0  0  0  0  0  0  0  0  0  0  0
   -0.7670   27.5300  -24.9470 C   0  0  0  0  0  0  0  0  0  0  0  0
   -0.4380   28.2930  -24.1420 N   0  0  0  0  0  0  0  0  0  0  0  0
   -2.2620   25.7310  -25.7090 C   0  0  0  0  0  0  0  0  0  0  0  0
   -2.6610   24.8090  -26.6830 C   0  0  0  0  0  0  0  0  0  0  0  0
   -3.0620   24.0360  -30.0470 C   0  0  0  0  0  0  0  0  0  0  0  0
   -3.4890   25.3030  -30.4320 O   0  0  0  0  0  0  0  0  0  0  0  0
   -5.3030   20.7030  -32.5540 C   0  0  0  0  0  0  0  0  0  0  0  0
   -6.5210   20.0280  -32.6850 C   0  0  0  0  0  0  0  0  0  0  0  0
   -9.1284   18.6652  -30.8815 H   0  0  0  0  0  0  0  0  0  0  0  0
  -10.1064   18.2543  -32.3312 H   0  0  0  0  0  0  0  0  0  0  0  0
   -8.3340   17.9621  -32.3312 H   0  0  0  0  0  0  0  0  0  0  0  0
   -8.6330   22.5015  -31.6300 H   0  0  0  0  0  0  0  0  0  0  0  0
   -6.4645   23.7082  -31.4114 H   0  0  0  0  0  0  0  0  0  0  0  0
   -3.6040   23.1180  -32.8430 H   0  0  0  0  0  0  0  0  0  0  0  0
   -2.7487   20.7618  -30.2434 H   0  0  0  0  0  0  0  0  0  0  0  0
   -1.6980   20.7660  -27.7140 H   0  0  0  0  0  0  0  0  0  0  0  0
   -0.3440   25.5293  -29.0961 H   0  0  0  0  0  0  0  0  0  0  0  0
    0.3635   27.1732  -27.3578 H   0  0  0  0  0  0  0  0  0  0  0  0
   -2.8021   25.7877  -24.7524 H   0  0  0  0  0  0  0  0  0  0  0  0
   -3.5161   24.1447  -26.4895 H   0  0  0  0  0  0  0  0  0  0  0  0
   -4.3660   20.1978  -32.8314 H   0  0  0  0  0  0  0  0  0  0  0  0
   -6.5338   18.9913  -33.0524 H   0  0  0  0  0  0  0  0  0  0  0  0
  1  2  1  0
  2  3  1  0
  3  4  2  0
  4  5  1  0
  5  6  2  0
  6  7  1  0
  7  8  1  0
  8  9  1  0
  9 10  2  0
 10 11  1  0
 10 12  1  0
 12 13  1  0
 13 14  2  0
 14 15  1  0
 15 16  2  0
 16 17  1  0
 17 18  3  0
 16 19  1  0
 19 20  2  0
 12 21  1  0
 21 22  1  0
  6 23  1  0
 23 24  2  0
 24  3  1  0
 21  8  2  0
 20 13  1  0
  1 25  1  0
  1 26  1  0
  1 27  1  0
  4 28  1  0
  5 29  1  0
  7 30  1  0
  9 31  1  0
 11 32  1  0
 14 33  1  0
 15 34  1  0
 19 35  1  0
 20 36  1  0
 23 37  1  0
 24 38  1  0
M  CHG  1  22  -1
M  END
>  <UniqueID>  (2) 
1

>  <SMILES>  (2) 
COc1ccc(Nc2cc(O)n(-c3ccc(C#N)cc3)c2[O-])cc1

>  <Energy>  (2) 
78.16466828494123

>  <Genealogy>  (2) 
COc1ccc(Nc2cc(O)n(-c3ccc(C#N)cc3)c2[O-])cc1 (protonated)
COc1ccc(Nc2cc(O)n(-c3ccc(C#N)cc3)c2[O-])cc1 (3D coordinates assigned)
COc1ccc(Nc2cc(O)n(-c3ccc(C#N)cc3)c2[O-])cc1 (optimized conformer: 78.16466828494123 kcal/mol)

>  <smiles>  (2) 
COc1ccc(Nc2cc(O)n(-c3ccc(C#N)cc3)c2O)cc1

>  <score_type>  (2) 
oracle

>  <origin>  (2) 
adgpu

>  <m_score__min__energy>  (2) 
-9.8000000000000007

>  <m_primary>  (2) 
energy

$$$$
2:0
     RDKit          3D

 46 48  0  0  0  0  0  0  0  0999 V2000
   -2.3460   23.0020  -29.4480 C   0  0  0  0  0  0  0  0  0  0  0  0
   -2.6520   24.4940  -29.3580 C   0  0  0  0  0  0  0  0  0  0  0  0
   -3.4870   24.9410  -30.4760 N   0  0  0  0  0  0  0  0  0  0  0  0
   -5.1710   25.0350  -30.0430 S   0  0  0  0  0  0  0  0  0  0  0  0
   -5.7040   26.3750  -30.4690 O   0  0  0  0  0  0  0  0  0  0  0  0
   -5.3190   24.9280  -28.5520 O   0  0  0  0  0  0  0  0  0  0  0  0
   -6.1190   23.7770  -30.8370 C   0  0  0  0  0  0  0  0  0  0  0  0
   -7.5010   23.9390  -30.9930 C   0  0  0  0  0  0  0  0  0  0  0  0
   -8.2530   22.9560  -31.6400 C   0  0  0  0  0  0  0  0  0  0  0  0
   -7.6290   21.8100  -32.1400 C   0  0  0  0  0  0  0  0  0  0  0  0
   -6.2420   21.6400  -32.0010 C   0  0  0  0  0  0  0  0  0  0  0  0
   -5.5750   20.4310  -32.5330 C   0  0  0  0  0  0  0  0  0  0  0  0
   -4.3110   20.3130  -33.1000 C   0  0  0  0  0  0  0  0  0  0  0  0
   -3.3170   21.4070  -33.3260 C   0  0  0  0  0  0  0  0  0  0  0  0
   -4.0770   19.0250  -33.4290 N   0  0  0  0  0  0  0  0  0  0  0  0
   -5.1420   18.3160  -33.0850 N   0  0  0  0  0  0  0  0  0  0  0  0
   -5.2480   16.9040  -33.3170 C   0  0  0  0  0  0  0  0  0  0  0  0
   -6.3430   16.3940  -34.0310 C   0  0  0  0  0  0  0  0  0  0  0  0
   -6.4710   15.0180  -34.2410 C   0  0  0  0  0  0  0  0  0  0  0  0
   -5.5210   14.1300  -33.7140 C   0  0  0  0  0  0  0  0  0  0  0  0
   -5.6380   12.6570  -33.9720 C   0  0  0  0  0  0  0  0  0  0  0  0
   -4.4290   14.6380  -32.9950 C   0  0  0  0  0  0  0  0  0  0  0  0
   -4.3000   16.0140  -32.7860 C   0  0  0  0  0  0  0  0  0  0  0  0
   -6.0570   19.1360  -32.5250 C   0  0  0  0  0  0  0  0  0  0  0  0
   -7.2830   18.7360  -31.9920 O   0  0  0  0  0  0  0  0  0  0  0  0
   -5.4920   22.6290  -31.3420 C   0  0  0  0  0  0  0  0  0  0  0  0
   -2.2602   22.5835  -28.4343 H   0  0  0  0  0  0  0  0  0  0  0  0
   -3.1584   22.4930  -29.9873 H   0  0  0  0  0  0  0  0  0  0  0  0
   -1.3988   22.8538  -29.9873 H   0  0  0  0  0  0  0  0  0  0  0  0
   -3.1814   24.6937  -28.4147 H   0  0  0  0  0  0  0  0  0  0  0  0
   -1.7001   25.0438  -29.3978 H   0  0  0  0  0  0  0  0  0  0  0  0
   -7.9952   24.8420  -30.6053 H   0  0  0  0  0  0  0  0  0  0  0  0
   -9.3393   23.0842  -31.7563 H   0  0  0  0  0  0  0  0  0  0  0  0
   -8.2272   21.0372  -32.6450 H   0  0  0  0  0  0  0  0  0  0  0  0
   -2.9679   21.7913  -32.3562 H   0  0  0  0  0  0  0  0  0  0  0  0
   -2.4612   21.0133  -33.8940 H   0  0  0  0  0  0  0  0  0  0  0  0
   -3.7907   22.2212  -33.8940 H   0  0  0  0  0  0  0  0  0  0  0  0
   -7.1050   17.0810  -34.4277 H   0  0  0  0  0  0  0  0  0  0  0  0
   -7.3204   14.6295  -34.8221 H   0  0  0  0  0  0  0  0  0  0  0  0
   -5.6807   12.1191  -33.0134 H   0  0  0  0  0  0  0  0  0  0  0  0
   -6.5549   12.4570  -34.5459 H   0  0  0  0  0  0  0  0  0  0  0  0
   -4.7642   12.3147  -34.5459 H   0  0  0  0  0  0  0  0  0  0  0  0
   -3.6703   13.9500  -32.5936 H   0  0  0  0  0  0  0  0  0  0  0  0
   -3.4518   16.4018  -32.2027 H   0  0  0  0  0  0  0  0  0  0  0  0
   -8.1550   19.1620  -32.2710 H   0  0  0  0  0  0  0  0  0  0  0  0
   -4.4060   22.5017  -31.2216 H   0  0  0  0  0  0  0  0  0  0  0  0
  1  2  1  0
  2  3  1  0
  3  4  1  0
  4  5  2  0
  4  6  2  0
  4  7  1  0
  7  8  2  0
  8  9  1  0
  9 10  2  0
 10 11  1  0
 11 12  1  0
 12 13  1  0
 13 14  1  0
 13 15  2  0
 15 16  1  0
 16 17  1  0
 17 18  2  0
 18 19  1  0
 19 20  2  0
 20 21  1  0
 20 22  1  0
 22 23  2  0
 16 24  1  0
 24 25  1  0
 11 26  2  0
 26  7  1  0
 24 12  2  0
 23 17  1  0
  1 27  1  0
  1 28  1  0
  1 29  1  0
  2 30  1  0
  2 31  1  0
  8 32  1  0
  9 33  1  0
 10 34  1  0
 14 35  1  0
 14 36  1  0
 14 37  1  0
 18 38  1  0
 19 39  1  0
 21 40  1  0
 21 41  1  0
 21 42  1  0
 22 43  1  0
 23 44  1  0
 25 45  1  0
 26 46  1  0
M  CHG  1   3  -1
M  END
>  <UniqueID>  (3) 
2

>  <SMILES>  (3) 
CC[N-]S(=O)(=O)c1cccc(-c2c(C)nn(-c3ccc(C)cc3)c2O)c1

>  <Energy>  (3) 
84.81859880317674

>  <Genealogy>  (3) 
CC[N-]S(=O)(=O)c1cccc(-c2c(C)nn(-c3ccc(C)cc3)c2O)c1 (protonated)
CC[N-]S(=O)(=O)c1cccc(-c2c(C)nn(-c3ccc(C)cc3)c2O)c1 (3D coordinates assigned)
CC[N-]S(=O)(=O)c1cccc(-c2c(C)nn(-c3ccc(C)cc3)c2O)c1 (optimized conformer: 84.81859880317674 kcal/mol)

>  <smiles>  (3) 
CCNS(=O)(=O)c1cccc(-c2c(C)nn(-c3ccc(C)cc3)c2O)c1

>  <score_type>  (3) 
oracle

>  <origin>  (3) 
adgpu

>  <m_score__min__energy>  (3) 
-9.6899999999999995

>  <m_primary>  (3) 
energy

$$$$
3:0
     RDKit          3D

 43 45  0  0  0  0  0  0  0  0999 V2000
   -4.0650   25.6370  -30.7040 N   0  0  0  0  0  0  0  0  0  0  0  0
   -4.8840   24.1160  -30.7240 S   0  0  0  0  0  0  0  0  0  0  0  0
   -5.3080   23.7930  -32.1290 O   0  0  0  0  0  0  0  0  0  0  0  0
   -6.1080   24.1950  -29.8570 O   0  0  0  0  0  0  0  0  0  0  0  0
   -3.8070   22.8610  -30.1180 C   0  0  0  0  0  0  0  0  0  0  0  0
   -3.4330   22.8430  -28.7680 C   0  0  0  0  0  0  0  0  0  0  0  0
   -2.6080   21.8260  -28.2830 C   0  0  0  0  0  0  0  0  0  0  0  0
   -2.1470   20.8260  -29.1430 C   0  0  0  0  0  0  0  0  0  0  0  0
   -2.4990   20.8400  -30.4990 C   0  0  0  0  0  0  0  0  0  0  0  0
   -2.0300   19.7780  -31.3410 N   0  0  0  0  0  0  0  0  0  0  0  0
   -1.1890   19.9070  -32.4950 C   0  0  0  0  0  0  0  0  0  0  0  0
   -0.5340   20.9690  -32.6800 O   0  0  0  0  0  0  0  0  0  0  0  0
   -1.0140   18.7630  -33.4270 C   0  0  0  0  0  0  0  0  0  0  0  0
    0.2610   18.1820  -33.5580 C   0  0  0  0  0  0  0  0  0  0  0  0
    0.4620   17.0850  -34.3970 C   0  0  0  0  0  0  0  0  0  0  0  0
   -0.6030   16.5570  -35.1240 C   0  0  0  0  0  0  0  0  0  0  0  0
   -1.8720   17.1290  -35.0210 C   0  0  0  0  0  0  0  0  0  0  0  0
   -2.0930   18.2370  -34.1810 C   0  0  0  0  0  0  0  0  0  0  0  0
   -3.3840   18.8630  -34.1110 N   0  0  0  0  0  0  0  0  0  0  0  0
   -4.9090   18.0380  -34.0600 S   0  0  0  0  0  0  0  0  0  0  0  0
   -5.3540   17.7450  -35.4640 O   0  0  0  0  0  0  0  0  0  0  0  0
   -4.7430   16.7430  -33.3160 O   0  0  0  0  0  0  0  0  0  0  0  0
   -6.1170   19.0550  -33.2810 C   0  0  0  0  0  0  0  0  0  0  0  0
   -5.8680   20.4220  -33.0950 C   0  0  0  0  0  0  0  0  0  0  0  0
   -6.8250   21.2320  -32.4760 C   0  0  0  0  0  0  0  0  0  0  0  0
   -8.0370   20.6810  -32.0450 C   0  0  0  0  0  0  0  0  0  0  0  0
   -9.3450   21.7890  -31.2050 Br  0  0  0  0  0  0  0  0  0  0  0  0
   -8.2900   19.3190  -32.2350 C   0  0  0  0  0  0  0  0  0  0  0  0
   -7.3330   18.5070  -32.8520 C   0  0  0  0  0  0  0  0  0  0  0  0
   -3.3510   21.8520  -30.9790 C   0  0  0  0  0  0  0  0  0  0  0  0
   -3.5160   25.6770  -29.8170 H   0  0  0  0  0  0  0  0  0  0  0  0
   -3.7898   23.6313  -28.0889 H   0  0  0  0  0  0  0  0  0  0  0  0
   -2.3204   21.8122  -27.2214 H   0  0  0  0  0  0  0  0  0  0  0  0
   -1.5040   20.0231  -28.7532 H   0  0  0  0  0  0  0  0  0  0  0  0
    1.1086   18.5971  -32.9929 H   0  0  0  0  0  0  0  0  0  0  0  0
    1.4626   16.6365  -34.4845 H   0  0  0  0  0  0  0  0  0  0  0  0
   -0.4435   15.6884  -35.7798 H   0  0  0  0  0  0  0  0  0  0  0  0
   -2.7072   16.7102  -35.6015 H   0  0  0  0  0  0  0  0  0  0  0  0
   -4.9178   20.8583  -33.4367 H   0  0  0  0  0  0  0  0  0  0  0  0
   -6.6250   22.3034  -32.3277 H   0  0  0  0  0  0  0  0  0  0  0  0
   -9.2434   18.8855  -31.8986 H   0  0  0  0  0  0  0  0  0  0  0  0
   -7.5354   17.4361  -33.0008 H   0  0  0  0  0  0  0  0  0  0  0  0
   -3.6608   21.8517  -32.0345 H   0  0  0  0  0  0  0  0  0  0  0  0
  1  2  1  0
  2  3  2  0
  2  4  2  0
  2  5  1  0
  5  6  2  0
  6  7  1  0
  7  8  2  0
  8  9  1  0
  9 10  1  0
 10 11  1  0
 11 12  2  0
 11 13  1  0
 13 14  2  0
 14 15  1  0
 15 16  2  0
 16 17  1  0
 17 18  2  0
 18 19  1  0
 19 20  1  0
 20 21  2  0
 20 22  2  0
 20 23  1  0
 23 24  2  0
 24 25  1  0
 25 26  2  0
 26 27  1  0
 26 28  1  0
 28 29  2  0
  9 30  2  0
 30  5  1  0
 18 13  1  0
 29 23  1  0
  1 31  1  0
  6 32  1  0
  7 33  1  0
  8 34  1  0
 14 35  1  0
 15 36  1  0
 16 37  1  0
 17 38  1  0
 24 39  1  0
 25 40  1  0
 28 41  1  0
 29 42  1  0
 30 43  1  0
M  CHG  3   1  -1  10  -1  19  -1
M  END
>  <UniqueID>  (4) 
3

>  <SMILES>  (4) 
[NH-]S(=O)(=O)c1cccc([N-]C(=O)c2ccccc2[N-]S(=O)(=O)c2ccc(Br)cc2)c1

>  <Energy>  (4) 
55.3206199526975

>  <Genealogy>  (4) 
[NH-]S(=O)(=O)c1cccc([N-]C(=O)c2ccccc2[N-]S(=O)(=O)c2ccc(Br)cc2)c1 (protonated)
[NH-]S(=O)(=O)c1cccc([N-]C(=O)c2ccccc2[N-]S(=O)(=O)c2ccc(Br)cc2)c1 (3D coordinates assigned)
[NH-]S(=O)(=O)c1cccc([N-]C(=O)c2ccccc2[N-]S(=O)(=O)c2ccc(Br)cc2)c1 (optimized conformer: 55.3206199526975 kcal/mol)

>  <smiles>  (4) 
NS(=O)(=O)c1cccc(NC(=O)c2ccccc2NS(=O)(=O)c2ccc(Br)cc2)c1

>  <score_type>  (4) 
oracle

>  <origin>  (4) 
adgpu

>  <m_score__min__energy>  (4) 
-12.41

>  <m_primary>  (4) 
energy

$$$$
4:0
     RDKit          3D

 33 34  0  0  0  0  0  0  0  0999 V2000
    2.5070   21.5680  -36.5990 H   0  0  0  0  0  0  0  0  0  0  0  0
    2.2670   21.5550  -35.5830 N   0  0  0  0  0  0  0  0  0  0  0  0
    0.5670   21.8340  -35.4620 S   0  0  0  0  0  0  0  0  0  0  0  0
    0.2960   23.3110  -35.5410 O   0  0  0  0  0  0  0  0  0  0  0  0
   -0.1370   21.1520  -36.6000 O   0  0  0  0  0  0  0  0  0  0  0  0
   -0.0220   21.2020  -33.9290 C   0  0  0  0  0  0  0  0  0  0  0  0
    0.8530   20.5350  -33.0600 C   0  0  0  0  0  0  0  0  0  0  0  0
    1.9034   20.3837  -33.3493 H   0  0  0  0  0  0  0  0  0  0  0  0
    0.3950   20.0620  -31.8280 C   0  0  0  0  0  0  0  0  0  0  0  0
    1.0802   19.5183  -31.1610 H   0  0  0  0  0  0  0  0  0  0  0  0
   -0.9380   20.2780  -31.4370 C   0  0  0  0  0  0  0  0  0  0  0  0
   -1.4320   19.8190  -30.1690 N   0  0  0  0  0  0  0  0  0  0  0  0
   -1.6970   20.5440  -29.1180 C   0  0  0  0  0  0  0  0  0  0  0  0
   -1.9423   20.0203  -28.1823 H   0  0  0  0  0  0  0  0  0  0  0  0
   -1.6900   22.0250  -29.0990 C   0  0  0  0  0  0  0  0  0  0  0  0
   -0.7210   22.6920  -28.3360 C   0  0  0  0  0  0  0  0  0  0  0  0
    0.0226   22.1135  -27.7681 H   0  0  0  0  0  0  0  0  0  0  0  0
   -0.6960   24.0880  -28.2940 C   0  0  0  0  0  0  0  0  0  0  0  0
    0.0712   24.6043  -27.6984 H   0  0  0  0  0  0  0  0  0  0  0  0
   -1.6410   24.8310  -29.0050 C   0  0  0  0  0  0  0  0  0  0  0  0
   -1.5950   26.2200  -28.9660 O   0  0  0  0  0  0  0  0  0  0  0  0
   -2.6330   24.1830  -29.7540 C   0  0  0  0  0  0  0  0  0  0  0  0
   -3.5600   24.9650  -30.4620 O   0  0  0  0  0  0  0  0  0  0  0  0
   -4.9700   24.9090  -30.2710 C   0  0  0  0  0  0  0  0  0  0  0  0
   -5.1941   24.9001  -29.1941 H   0  0  0  0  0  0  0  0  0  0  0  0
   -5.4382   25.7893  -30.7357 H   0  0  0  0  0  0  0  0  0  0  0  0
   -5.3669   23.9944  -30.7357 H   0  0  0  0  0  0  0  0  0  0  0  0
   -2.6690   22.7750  -29.7750 C   0  0  0  0  0  0  0  0  0  0  0  0
   -3.4693   22.2579  -30.3246 H   0  0  0  0  0  0  0  0  0  0  0  0
   -1.8180   20.9110  -32.3230 C   0  0  0  0  0  0  0  0  0  0  0  0
   -2.8754   21.0368  -32.0473 H   0  0  0  0  0  0  0  0  0  0  0  0
   -1.3600   21.3840  -33.5560 C   0  0  0  0  0  0  0  0  0  0  0  0
   -2.0529   21.9011  -34.2361 H   0  0  0  0  0  0  0  0  0  0  0  0
  1  2  1  0
  2  3  1  0
  3  4  2  0
  3  5  2  0
  3  6  1  0
  6  7  2  0
  7  8  1  0
  7  9  1  0
  9 10  1  0
  9 11  2  0
 11 12  1  0
 12 13  2  0
 13 14  1  0
 13 15  1  0
 15 16  2  0
 16 17  1  0
 16 18  1  0
 18 19  1  0
 18 20  2  0
 20 21  1  0
 20 22  1  0
 22 23  1  0
 23 24  1  0
 24 25  1  0
 24 26  1  0
 24 27  1  0
 22 28  2  0
 28 29  1  0
 11 30  1  0
 30 31  1  0
 30 32  2  0
 32 33  1  0
 32  6  1  0
 28 15  1  0
M  CHG  2   2  -1  21  -1
M  END
>  <UniqueID>  (5) 
4

>  <SMILES>  (5) 
COc1cc(/C=N\c2ccc(S([NH-])(=O)=O)cc2)ccc1[O-]

>  <Energy>  (5) 
43.19438833479212

>  <Genealogy>  (5) 
COc1cc(C=Nc2ccc(S([NH-])(=O)=O)cc2)ccc1[O-] (protonated)
COc1cc(/C=N\c2ccc(S([NH-])(=O)=O)cc2)ccc1[O-] (cis-trans isomerization)
COc1cc(/C=N\c2ccc(S([NH-])(=O)=O)cc2)ccc1[O-] (3D coordinates assigned)
COc1cc(/C=N\c2ccc(S([NH-])(=O)=O)cc2)ccc1[O-] (optimized conformer: 43.19438833479212 kcal/mol)

>  <smiles>  (5) 
COc1cc(C=Nc2ccc(S(N)(=O)=O)cc2)ccc1O

>  <score_type>  (5) 
oracle

>  <origin>  (5) 
adgpu

>  <m_score__min__energy>  (5) 
-10.59

>  <m_primary>  (5) 
energy

$$$$
5:0
     RDKit          3D

 44 48  0  0  0  0  0  0  0  0999 V2000
   -3.7860   25.6530  -30.4690 O   0  0  0  0  0  0  0  0  0  0  0  0
   -4.5430   24.5450  -30.8300 C   0  0  0  0  0  0  0  0  0  0  0  0
   -5.9280   24.5820  -30.7140 C   0  0  0  0  0  0  0  0  0  0  0  0
   -6.6890   23.4680  -31.0660 C   0  0  0  0  0  0  0  0  0  0  0  0
   -6.0790   22.2880  -31.5330 C   0  0  0  0  0  0  0  0  0  0  0  0
   -4.6600   22.2630  -31.6920 C   0  0  0  0  0  0  0  0  0  0  0  0
   -3.9150   23.3960  -31.3090 C   0  0  0  0  0  0  0  0  0  0  0  0
   -3.8670   21.0490  -32.1450 C   0  0  0  0  0  0  0  0  0  0  0  0
   -4.4770   20.3020  -33.3320 C   0  0  0  0  0  0  0  0  0  0  0  0
   -5.5420   19.3970  -32.8820 N   0  0  0  0  0  0  0  0  0  0  0  0
   -5.5630   18.0420  -33.3560 C   0  0  0  0  0  0  0  0  0  0  0  0
   -6.7460   17.4950  -33.7440 N   0  0  0  0  0  0  0  0  0  0  0  0
   -6.8150   16.2220  -34.2060 C   0  0  0  0  0  0  0  0  0  0  0  0
   -5.6910   15.4700  -34.3010 N   0  0  0  0  0  0  0  0  0  0  0  0
   -4.4800   15.9700  -33.9440 C   0  0  0  0  0  0  0  0  0  0  0  0
   -4.3790   17.2830  -33.4530 C   0  0  0  0  0  0  0  0  0  0  0  0
   -3.0390   17.8630  -33.0550 C   0  0  0  0  0  0  0  0  0  0  0  0
   -1.8680   16.9580  -33.3410 C   0  0  0  0  0  0  0  0  0  0  0  0
   -0.5640   17.4140  -33.0870 C   0  0  0  0  0  0  0  0  0  0  0  0
    0.5320   16.5770  -33.3120 C   0  0  0  0  0  0  0  0  0  0  0  0
    0.3360   15.2780  -33.7870 C   0  0  0  0  0  0  0  0  0  0  0  0
   -0.9590   14.8140  -34.0400 C   0  0  0  0  0  0  0  0  0  0  0  0
   -2.0600   15.6490  -33.8210 C   0  0  0  0  0  0  0  0  0  0  0  0
   -3.3440   15.1730  -34.0880 O   0  0  0  0  0  0  0  0  0  0  0  0
   -6.4100   19.7580  -31.7580 C   0  0  0  0  0  0  0  0  0  0  0  0
   -7.0070   21.1550  -31.9410 C   0  0  0  0  0  0  0  0  0  0  0  0
   -6.4241   25.4914  -30.3440 H   0  0  0  0  0  0  0  0  0  0  0  0
   -7.7846   23.5117  -30.9774 H   0  0  0  0  0  0  0  0  0  0  0  0
   -2.8182   23.3736  -31.3894 H   0  0  0  0  0  0  0  0  0  0  0  0
   -2.8589   21.3838  -32.4307 H   0  0  0  0  0  0  0  0  0  0  0  0
   -3.8620   20.3446  -31.3002 H   0  0  0  0  0  0  0  0  0  0  0  0
   -4.8976   21.0310  -34.0403 H   0  0  0  0  0  0  0  0  0  0  0  0
   -3.6897   19.7080  -33.8193 H   0  0  0  0  0  0  0  0  0  0  0  0
   -7.7853   15.7985  -34.5044 H   0  0  0  0  0  0  0  0  0  0  0  0
   -2.8919   18.8033  -33.6066 H   0  0  0  0  0  0  0  0  0  0  0  0
   -3.0678   18.0102  -31.9653 H   0  0  0  0  0  0  0  0  0  0  0  0
   -0.4049   18.4348  -32.7092 H   0  0  0  0  0  0  0  0  0  0  0  0
    1.5509   16.9416  -33.1148 H   0  0  0  0  0  0  0  0  0  0  0  0
    1.2000   14.6201  -33.9620 H   0  0  0  0  0  0  0  0  0  0  0  0
   -1.1122   13.7902  -34.4120 H   0  0  0  0  0  0  0  0  0  0  0  0
   -7.2277   19.0256  -31.6875 H   0  0  0  0  0  0  0  0  0  0  0  0
   -5.8054   19.7571  -30.8390 H   0  0  0  0  0  0  0  0  0  0  0  0
   -7.2630   21.2843  -33.0030 H   0  0  0  0  0  0  0  0  0  0  0  0
   -7.8849   21.2124  -31.2807 H   0  0  0  0  0  0  0  0  0  0  0  0
  1  2  1  0
  2  3  2  0
  3  4  1  0
  4  5  2  0
  5  6  1  0
  6  7  2  0
  6  8  1  0
  8  9  1  0
  9 10  1  0
 10 11  1  0
 11 12  2  0
 12 13  1  0
 13 14  2  0
 14 15  1  0
 15 16  2  0
 16 17  1  0
 17 18  1  0
 18 19  2  0
 19 20  1  0
 20 21  2  0
 21 22  1  0
 22 23  2  0
 23 24  1  0
 10 25  1  0
 25 26  1  0
  7  2  1  0
 16 11  1  0
 23 18  1  0
 26  5  1  0
 24 15  1  0
  3 27  1  0
  4 28  1  0
  7 29  1  0
  8 30  1  0
  8 31  1  0
  9 32  1  0
  9 33  1  0
 13 34  1  0
 17 35  1  0
 17 36  1  0
 19 37  1  0
 20 38  1  0
 21 39  1  0
 22 40  1  0
 25 41  1  0
 25 42  1  0
 26 43  1  0
 26 44  1  0
M  CHG  1   1  -1
M  END
>  <UniqueID>  (6) 
5

>  <SMILES>  (6) 
[O-]c1ccc2c(c1)CCN(c1ncnc3c1Cc1ccccc1O3)CC2

>  <Energy>  (6) 
67.22107726317788

>  <Genealogy>  (6) 
[O-]c1ccc2c(c1)CCN(c1ncnc3c1Cc1ccccc1O3)CC2 (protonated)
[O-]c1ccc2c(c1)CCN(c1ncnc3c1Cc1ccccc1O3)CC2 (3D coordinates assigned)
[O-]c1ccc2c(c1)CCN(c1ncnc3c1Cc1ccccc1O3)CC2 (nonaromatic ring conformer: 67.22107726317788 kcal/mol)

>  <smiles>  (6) 
Oc1ccc2c(c1)CCN(c1ncnc3c1Cc1ccccc1O3)CC2

>  <score_type>  (6) 
oracle

>  <origin>  (6) 
adgpu

>  <m_score__min__energy>  (6) 
-9.1699999999999999

>  <m_primary>  (6) 
energy

$$$$
6:0
     RDKit          3D

 57 61  0  0  0  0  0  0  0  0999 V2000
    1.5750   19.3810  -34.4540 C   0  0  0  0  0  0  0  0  0  0  0  0
    1.0240   20.0740  -33.2730 N   0  0  0  0  0  0  0  0  0  0  0  0
    0.3150   19.1030  -32.3910 C   0  0  0  0  0  0  0  0  0  0  0  0
   -0.8560   19.7380  -31.6380 C   0  0  0  0  0  0  0  0  0  0  0  0
   -1.8040   20.2850  -32.6150 N   0  0  0  0  0  0  0  0  0  0  0  0
   -3.2090   20.0020  -32.5050 C   0  0  0  0  0  0  0  0  0  0  0  0
   -3.7260   18.9440  -33.1900 N   0  0  0  0  0  0  0  0  0  0  0  0
   -5.0240   18.5710  -33.0490 C   0  0  0  0  0  0  0  0  0  0  0  0
   -5.5320   17.4720  -33.7510 C   0  0  0  0  0  0  0  0  0  0  0  0
   -6.8660   17.0900  -33.5750 C   0  0  0  0  0  0  0  0  0  0  0  0
   -7.6930   17.8040  -32.6990 C   0  0  0  0  0  0  0  0  0  0  0  0
   -7.1910   18.9050  -31.9960 C   0  0  0  0  0  0  0  0  0  0  0  0
   -5.8560   19.2890  -32.1680 C   0  0  0  0  0  0  0  0  0  0  0  0
   -5.3510   20.3560  -31.4980 N   0  0  0  0  0  0  0  0  0  0  0  0
   -4.0550   20.7460  -31.6480 C   0  0  0  0  0  0  0  0  0  0  0  0
   -3.5870   21.9450  -30.9250 C   0  0  0  0  0  0  0  0  0  0  0  0
   -2.5350   21.8380  -30.0050 C   0  0  0  0  0  0  0  0  0  0  0  0
   -2.0580   22.9730  -29.3460 C   0  0  0  0  0  0  0  0  0  0  0  0
   -2.6300   24.2320  -29.5990 C   0  0  0  0  0  0  0  0  0  0  0  0
   -2.1330   25.4200  -28.9680 N   0  0  0  0  0  0  0  0  0  0  0  0
   -0.9450   25.5020  -28.1680 C   0  0  0  0  0  0  0  0  0  0  0  0
    0.0820   24.8780  -28.5440 O   0  0  0  0  0  0  0  0  0  0  0  0
   -0.9090   26.2630  -26.8940 C   0  0  0  0  0  0  0  0  0  0  0  0
   -1.2820   25.6550  -25.6810 C   0  0  0  0  0  0  0  0  0  0  0  0
   -1.2570   26.3840  -24.4880 C   0  0  0  0  0  0  0  0  0  0  0  0
   -0.8450   27.7180  -24.4920 C   0  0  0  0  0  0  0  0  0  0  0  0
   -0.4530   28.3260  -25.6880 C   0  0  0  0  0  0  0  0  0  0  0  0
   -0.4770   27.6000  -26.8830 C   0  0  0  0  0  0  0  0  0  0  0  0
   -3.7220   24.3280  -30.4680 C   0  0  0  0  0  0  0  0  0  0  0  0
   -4.1970   23.1940  -31.1320 C   0  0  0  0  0  0  0  0  0  0  0  0
   -1.2890   20.9090  -33.8370 C   0  0  0  0  0  0  0  0  0  0  0  0
    0.2010   21.2470  -33.6840 C   0  0  0  0  0  0  0  0  0  0  0  0
    2.2283   18.5593  -34.1253 H   0  0  0  0  0  0  0  0  0  0  0  0
    0.7507   18.9746  -35.0584 H   0  0  0  0  0  0  0  0  0  0  0  0
    2.1567   20.0926  -35.0584 H   0  0  0  0  0  0  0  0  0  0  0  0
    1.8440   20.4500  -32.7340 H   0  0  0  0  0  0  0  0  0  0  0  0
   -0.0697   18.2798  -33.0110 H   0  0  0  0  0  0  0  0  0  0  0  0
    1.0369   18.7442  -31.6426 H   0  0  0  0  0  0  0  0  0  0  0  0
   -1.3571   18.9760  -31.0229 H   0  0  0  0  0  0  0  0  0  0  0  0
   -0.4881   20.5416  -30.9831 H   0  0  0  0  0  0  0  0  0  0  0  0
   -4.8838   16.9100  -34.4395 H   0  0  0  0  0  0  0  0  0  0  0  0
   -7.2666   16.2264  -34.1262 H   0  0  0  0  0  0  0  0  0  0  0  0
   -8.7409   17.4983  -32.5630 H   0  0  0  0  0  0  0  0  0  0  0  0
   -7.8431   19.4665  -31.3108 H   0  0  0  0  0  0  0  0  0  0  0  0
   -2.0833   20.8559  -29.8013 H   0  0  0  0  0  0  0  0  0  0  0  0
   -1.2314   22.8816  -28.6260 H   0  0  0  0  0  0  0  0  0  0  0  0
   -1.5949   24.6005  -25.6712 H   0  0  0  0  0  0  0  0  0  0  0  0
   -1.5622   25.9060  -23.5455 H   0  0  0  0  0  0  0  0  0  0  0  0
   -0.8289   28.2910  -23.5532 H   0  0  0  0  0  0  0  0  0  0  0  0
   -0.1255   29.3761  -25.6893 H   0  0  0  0  0  0  0  0  0  0  0  0
   -0.1558   28.0785  -27.8199 H   0  0  0  0  0  0  0  0  0  0  0  0
   -4.2091   25.3010  -30.6294 H   0  0  0  0  0  0  0  0  0  0  0  0
   -5.0516   23.2792  -31.8193 H   0  0  0  0  0  0  0  0  0  0  0  0
   -1.4174   20.2138  -34.6798 H   0  0  0  0  0  0  0  0  0  0  0  0
   -1.8465   21.8389  -34.0227 H   0  0  0  0  0  0  0  0  0  0  0  0
    0.5772   21.6187  -34.6485 H   0  0  0  0  0  0  0  0  0  0  0  0
    0.2874   22.0043  -32.8909 H   0  0  0  0  0  0  0  0  0  0  0  0
  1  2  1  0
  2  3  1  0
  3  4  1  0
  4  5  1  0
  5  6  1  0
  6  7  2  0
  7  8  1  0
  8  9  2  0
  9 10  1  0
 10 11  2  0
 11 12  1  0
 12 13  2  0
 13 14  1  0
 14 15  2  0
 15 16  1  0
 16 17  2  0
 17 18  1  0
 18 19  2  0
 19 20  1  0
 20 21  1  0
 21 22  2  0
 21 23  1  0
 23 24  2  0
 24 25  1  0
 25 26  2  0
 26 27  1  0
 27 28  2  0
 19 29  1  0
 29 30  2  0
  5 31  1  0
 31 32  1  0
 32  2  1  0
 15  6  1  0
 30 16  1  0
 13  8  1  0
 28 23  1  0
  1 33  1  0
  1 34  1  0
  1 35  1  0
  2 36  1  0
  3 37  1  0
  3 38  1  0
  4 39  1  0
  4 40  1  0
  9 41  1  0
 10 42  1  0
 11 43  1  0
 12 44  1  0
 17 45  1  0
 18 46  1  0
 24 47  1  0
 25 48  1  0
 26 49  1  0
 27 50  1  0
 28 51  1  0
 29 52  1  0
 30 53  1  0
 31 54  1  0
 31 55  1  0
 32 56  1  0
 32 57  1  0
M  CHG  2   2   1  20  -1
M  END
>  <UniqueID>  (7) 
6

>  <SMILES>  (7) 
C[NH+]1CCN(c2nc3ccccc3nc2-c2ccc([N-]C(=O)c3ccccc3)cc2)CC1

>  <Energy>  (7) 
88.68219494676386

>  <Genealogy>  (7) 
C[NH+]1CCN(c2nc3ccccc3nc2-c2ccc([N-]C(=O)c3ccccc3)cc2)CC1 (protonated)
C[NH+]1CCN(c2nc3ccccc3nc2-c2ccc([N-]C(=O)c3ccccc3)cc2)CC1 (3D coordinates assigned)
C[NH+]1CCN(c2nc3ccccc3nc2-c2ccc([N-]C(=O)c3ccccc3)cc2)CC1 (nonaromatic ring conformer: 88.68219494676386 kcal/mol)

>  <smiles>  (7) 
CN1CCN(c2nc3ccccc3nc2-c2ccc(NC(=O)c3ccccc3)cc2)CC1

>  <score_type>  (7) 
oracle

>  <origin>  (7) 
adgpu

>  <m_score__min__energy>  (7) 
-10.390000000000001

>  <m_primary>  (7) 
energy

$$$$
7:0
     RDKit          3D

 58 62  0  0  0  0  0  0  0  0999 V2000
   -9.3680   21.5450  -30.4870 C   0  0  0  0  0  0  0  0  0  0  0  0
   -9.4890   20.7630  -31.6730 O   0  0  0  0  0  0  0  0  0  0  0  0
   -8.4930   19.9030  -32.1580 C   0  0  0  0  0  0  0  0  0  0  0  0
   -7.5670   20.4070  -33.0820 C   0  0  0  0  0  0  0  0  0  0  0  0
   -6.5630   19.5840  -33.6010 C   0  0  0  0  0  0  0  0  0  0  0  0
   -6.4720   18.2440  -33.2000 C   0  0  0  0  0  0  0  0  0  0  0  0
   -5.1890   17.2230  -33.8470 S   0  0  0  0  0  0  0  0  0  0  0  0
   -5.0780   17.4700  -35.3250 O   0  0  0  0  0  0  0  0  0  0  0  0
   -5.4980   15.7670  -33.6230 O   0  0  0  0  0  0  0  0  0  0  0  0
   -3.6800   17.6150  -33.0820 N   0  0  0  0  0  0  0  0  0  0  0  0
   -3.0670   18.9170  -33.1320 C   0  0  0  0  0  0  0  0  0  0  0  0
   -2.0550   19.2300  -34.0590 C   0  0  0  0  0  0  0  0  0  0  0  0
   -1.4910   20.5070  -34.0840 C   0  0  0  0  0  0  0  0  0  0  0  0
   -1.9240   21.4860  -33.1890 C   0  0  0  0  0  0  0  0  0  0  0  0
   -2.9200   21.1920  -32.2470 C   0  0  0  0  0  0  0  0  0  0  0  0
   -3.3850   22.2420  -31.3120 C   0  0  0  0  0  0  0  0  0  0  0  0
   -2.6580   22.7680  -30.2470 C   0  0  0  0  0  0  0  0  0  0  0  0
   -3.3780   23.7160  -29.6050 N   0  0  0  0  0  0  0  0  0  0  0  0
   -2.9540   24.4400  -28.4060 C   0  0  0  0  0  0  0  0  0  0  0  0
   -1.7070   23.8190  -27.8390 C   0  0  0  0  0  0  0  0  0  0  0  0
   -0.4510   24.3820  -28.1210 C   0  0  0  0  0  0  0  0  0  0  0  0
    0.7140   23.7930  -27.6190 C   0  0  0  0  0  0  0  0  0  0  0  0
    0.6330   22.6400  -26.8330 C   0  0  0  0  0  0  0  0  0  0  0  0
   -0.6130   22.0730  -26.5490 C   0  0  0  0  0  0  0  0  0  0  0  0
   -1.7800   22.6570  -27.0500 C   0  0  0  0  0  0  0  0  0  0  0  0
   -4.5680   23.7880  -30.2420 C   0  0  0  0  0  0  0  0  0  0  0  0
   -5.6630   24.5990  -29.9300 C   0  0  0  0  0  0  0  0  0  0  0  0
   -6.8220   24.4730  -30.7120 C   0  0  0  0  0  0  0  0  0  0  0  0
   -6.8730   23.5400  -31.7700 C   0  0  0  0  0  0  0  0  0  0  0  0
   -5.7600   22.7330  -32.0650 C   0  0  0  0  0  0  0  0  0  0  0  0
   -4.6080   22.8970  -31.2900 C   0  0  0  0  0  0  0  0  0  0  0  0
   -3.4960   19.9090  -32.2350 C   0  0  0  0  0  0  0  0  0  0  0  0
   -7.3940   17.7340  -32.2760 C   0  0  0  0  0  0  0  0  0  0  0  0
   -8.3990   18.5560  -31.7550 C   0  0  0  0  0  0  0  0  0  0  0  0
   -9.4688   20.8936  -29.6064 H   0  0  0  0  0  0  0  0  0  0  0  0
   -8.3833   22.0351  -30.4698 H   0  0  0  0  0  0  0  0  0  0  0  0
  -10.1585   22.3097  -30.4698 H   0  0  0  0  0  0  0  0  0  0  0  0
   -7.6308   21.4578  -33.4011 H   0  0  0  0  0  0  0  0  0  0  0  0
   -5.8422   19.9894  -34.3263 H   0  0  0  0  0  0  0  0  0  0  0  0
   -3.1740   16.8340  -32.6040 H   0  0  0  0  0  0  0  0  0  0  0  0
   -1.7066   18.4642  -34.7677 H   0  0  0  0  0  0  0  0  0  0  0  0
   -0.7015   20.7424  -34.8128 H   0  0  0  0  0  0  0  0  0  0  0  0
   -1.4820   22.4928  -33.2226 H   0  0  0  0  0  0  0  0  0  0  0  0
   -1.6409   22.4562  -29.9672 H   0  0  0  0  0  0  0  0  0  0  0  0
   -2.7511   25.4890  -28.6675 H   0  0  0  0  0  0  0  0  0  0  0  0
   -3.7548   24.3891  -27.6536 H   0  0  0  0  0  0  0  0  0  0  0  0
   -0.3837   25.2895  -28.7390 H   0  0  0  0  0  0  0  0  0  0  0  0
    1.6949   24.2376  -27.8429 H   0  0  0  0  0  0  0  0  0  0  0  0
    1.5500   22.1785  -26.4377 H   0  0  0  0  0  0  0  0  0  0  0  0
   -0.6751   21.1657  -25.9302 H   0  0  0  0  0  0  0  0  0  0  0  0
   -2.7583   22.2064  -26.8265 H   0  0  0  0  0  0  0  0  0  0  0  0
   -5.6178   25.3150  -29.0961 H   0  0  0  0  0  0  0  0  0  0  0  0
   -7.6963   25.1056  -30.4988 H   0  0  0  0  0  0  0  0  0  0  0  0
   -7.7909   23.4435  -32.3685 H   0  0  0  0  0  0  0  0  0  0  0  0
   -5.7946   21.9954  -32.8803 H   0  0  0  0  0  0  0  0  0  0  0  0
   -4.2935   19.6793  -31.5131 H   0  0  0  0  0  0  0  0  0  0  0  0
   -7.3272   16.6828  -31.9590 H   0  0  0  0  0  0  0  0  0  0  0  0
   -9.1181   18.1496  -31.0285 H   0  0  0  0  0  0  0  0  0  0  0  0
  1  2  1  0
  2  3  1  0
  3  4  2  0
  4  5  1  0
  5  6  2  0
  6  7  1  0
  7  8  2  0
  7  9  2  0
  7 10  1  0
 10 11  1  0
 11 12  2  0
 12 13  1  0
 13 14  2  0
 14 15  1  0
 15 16  1  0
 16 17  2  0
 17 18  1  0
 18 19  1  0
 19 20  1  0
 20 21  2  0
 21 22  1  0
 22 23  2  0
 23 24  1  0
 24 25  2  0
 18 26  1  0
 26 27  2  0
 27 28  1  0
 28 29  2  0
 29 30  1  0
 30 31  2  0
 15 32  2  0
  6 33  1  0
 33 34  2  0
 34  3  1  0
 32 11  1  0
 31 16  1  0
 25 20  1  0
 31 26  1  0
  1 35  1  0
  1 36  1  0
  1 37  1  0
  4 38  1  0
  5 39  1  0
 10 40  1  0
 12 41  1  0
 13 42  1  0
 14 43  1  0
 17 44  1  0
 19 45  1  0
 19 46  1  0
 21 47  1  0
 22 48  1  0
 23 49  1  0
 24 50  1  0
 25 51  1  0
 27 52  1  0
 28 53  1  0
 29 54  1  0
 30 55  1  0
 32 56  1  0
 33 57  1  0
 34 58  1  0
M  END
>  <UniqueID>  (8) 
7

>  <SMILES>  (8) 
COc1ccc(S(=O)(=O)Nc2cccc(-c3cn(Cc4ccccc4)c4ccccc34)c2)cc1

>  <Energy>  (8) 
103.18856522222775

>  <Genealogy>  (8) 
COc1ccc(S(=O)(=O)Nc2cccc(-c3cn(Cc4ccccc4)c4ccccc34)c2)cc1 (3D coordinates assigned)
COc1ccc(S(=O)(=O)Nc2cccc(-c3cn(Cc4ccccc4)c4ccccc34)c2)cc1 (optimized conformer: 103.18856522222775 kcal/mol)

>  <smiles>  (8) 
COc1ccc(S(=O)(=O)Nc2cccc(-c3cn(Cc4ccccc4)c4ccccc34)c2)cc1

>  <score_type>  (8) 
oracle

>  <origin>  (8) 
adgpu

>  <m_score__min__energy>  (8) 
-10.43

>  <m_primary>  (8) 
energy

$$$$
8:0
     RDKit          3D

 49 51  0  0  0  0  0  0  0  0999 V2000
   -4.6980   19.0900  -34.2770 N   0  0  0  0  0  0  0  0  0  0  0  0
   -4.7470   20.1950  -33.3660 C   0  0  0  0  0  0  0  0  0  0  0  0
   -3.5500   20.8110  -32.9760 C   0  0  0  0  0  0  0  0  0  0  0  0
   -3.5530   21.8410  -32.0340 C   0  0  0  0  0  0  0  0  0  0  0  0
   -4.7570   22.2750  -31.4680 C   0  0  0  0  0  0  0  0  0  0  0  0
   -4.7550   23.5510  -30.2490 S   0  0  0  0  0  0  0  0  0  0  0  0
   -4.1740   24.7980  -30.8540 O   0  0  0  0  0  0  0  0  0  0  0  0
   -6.1740   23.8550  -29.8550 O   0  0  0  0  0  0  0  0  0  0  0  0
   -3.8370   23.1260  -28.8190 N   0  0  0  0  0  0  0  0  0  0  0  0
   -2.4750   22.6550  -29.1400 C   0  0  0  0  0  0  0  0  0  0  0  0
   -1.4640   23.8110  -29.3380 C   0  0  0  0  0  0  0  0  0  0  0  0
   -1.9630   25.0700  -28.9310 O   0  0  0  0  0  0  0  0  0  0  0  0
   -2.5630   24.9540  -27.6620 C   0  0  0  0  0  0  0  0  0  0  0  0
   -3.8800   24.1740  -27.7760 C   0  0  0  0  0  0  0  0  0  0  0  0
   -5.9600   21.6700  -31.8560 C   0  0  0  0  0  0  0  0  0  0  0  0
   -5.9700   20.6500  -32.8190 C   0  0  0  0  0  0  0  0  0  0  0  0
   -7.2320   20.0940  -33.2160 N   0  0  0  0  0  0  0  0  0  0  0  0
   -8.0860   19.3280  -32.3480 C   0  0  0  0  0  0  0  0  0  0  0  0
   -9.6950   19.3050  -32.6440 S   0  0  0  0  0  0  0  0  0  0  0  0
   -7.5630   18.5280  -31.2740 N   0  0  0  0  0  0  0  0  0  0  0  0
   -6.1830   18.0460  -31.2440 C   0  0  0  0  0  0  0  0  0  0  0  0
   -5.9910   16.9130  -32.2130 C   0  0  0  0  0  0  0  0  0  0  0  0
   -4.9780   15.9620  -32.0000 C   0  0  0  0  0  0  0  0  0  0  0  0
   -4.8170   14.8970  -32.8910 C   0  0  0  0  0  0  0  0  0  0  0  0
   -5.6680   14.7680  -33.9920 C   0  0  0  0  0  0  0  0  0  0  0  0
   -6.6860   15.7020  -34.2010 C   0  0  0  0  0  0  0  0  0  0  0  0
   -6.8520   16.7690  -33.3120 C   0  0  0  0  0  0  0  0  0  0  0  0
   -5.5310   18.8440  -34.8560 H   0  0  0  0  0  0  0  0  0  0  0  0
   -3.8150   18.5640  -34.4570 H   0  0  0  0  0  0  0  0  0  0  0  0
   -2.5983   20.4793  -33.4168 H   0  0  0  0  0  0  0  0  0  0  0  0
   -2.6055   22.3133  -31.7354 H   0  0  0  0  0  0  0  0  0  0  0  0
   -2.1215   22.0179  -28.3159 H   0  0  0  0  0  0  0  0  0  0  0  0
   -2.5337   22.1040  -30.0902 H   0  0  0  0  0  0  0  0  0  0  0  0
   -0.5604   23.5881  -28.7517 H   0  0  0  0  0  0  0  0  0  0  0  0
   -1.2546   23.8779  -30.4158 H   0  0  0  0  0  0  0  0  0  0  0  0
   -1.8809   24.4208  -26.9834 H   0  0  0  0  0  0  0  0  0  0  0  0
   -2.7706   25.9592  -27.2664 H   0  0  0  0  0  0  0  0  0  0  0  0
   -4.0912   23.6974  -26.8074 H   0  0  0  0  0  0  0  0  0  0  0  0
   -4.6657   24.8902  -28.0583 H   0  0  0  0  0  0  0  0  0  0  0  0
   -6.9061   21.9983  -31.4008 H   0  0  0  0  0  0  0  0  0  0  0  0
   -7.5250   20.2170  -34.2120 H   0  0  0  0  0  0  0  0  0  0  0  0
   -8.2370   18.1700  -30.5580 H   0  0  0  0  0  0  0  0  0  0  0  0
   -5.5072   18.8705  -31.5151 H   0  0  0  0  0  0  0  0  0  0  0  0
   -5.9585   17.6839  -30.2299 H   0  0  0  0  0  0  0  0  0  0  0  0
   -4.3107   16.0560  -31.1306 H   0  0  0  0  0  0  0  0  0  0  0  0
   -4.0186   14.1587  -32.7251 H   0  0  0  0  0  0  0  0  0  0  0  0
   -5.5364   13.9313  -34.6939 H   0  0  0  0  0  0  0  0  0  0  0  0
   -7.3578   15.5980  -35.0658 H   0  0  0  0  0  0  0  0  0  0  0  0
   -7.6599   17.4976  -33.4747 H   0  0  0  0  0  0  0  0  0  0  0  0
  1  2  1  0
  2  3  2  0
  3  4  1  0
  4  5  2  0
  5  6  1  0
  6  7  2  0
  6  8  2  0
  6  9  1  0
  9 10  1  0
 10 11  1  0
 11 12  1  0
 12 13  1  0
 13 14  1  0
  5 15  1  0
 15 16  2  0
 16 17  1  0
 17 18  1  0
 18 19  2  0
 18 20  1  0
 20 21  1  0
 21 22  1  0
 22 23  2  0
 23 24  1  0
 24 25  2  0
 25 26  1  0
 26 27  2  0
 16  2  1  0
 27 22  1  0
 14  9  1  0
  1 28  1  0
  1 29  1  0
  3 30  1  0
  4 31  1  0
 10 32  1  0
 10 33  1  0
 11 34  1  0
 11 35  1  0
 13 36  1  0
 13 37  1  0
 14 38  1  0
 14 39  1  0
 15 40  1  0
 17 41  1  0
 20 42  1  0
 21 43  1  0
 21 44  1  0
 23 45  1  0
 24 46  1  0
 25 47  1  0
 26 48  1  0
 27 49  1  0
M  END
>  <UniqueID>  (9) 
8

>  <SMILES>  (9) 
Nc1ccc(S(=O)(=O)N2CCOCC2)cc1NC(=S)NCc1ccccc1

>  <Energy>  (9) 
64.29791632853714

>  <Genealogy>  (9) 
Nc1ccc(S(=O)(=O)N2CCOCC2)cc1NC(=S)NCc1ccccc1 (3D coordinates assigned)
Nc1ccc(S(=O)(=O)N2CCOCC2)cc1NC(=S)NCc1ccccc1 (nonaromatic ring conformer: 64.29791632853714 kcal/mol)

>  <smiles>  (9) 
Nc1ccc(S(=O)(=O)N2CCOCC2)cc1NC(=S)NCc1ccccc1

>  <score_type>  (9) 
oracle

>  <origin>  (9) 
adgpu

>  <m_score__min__energy>  (9) 
-9.1699999999999999

>  <m_primary>  (9) 
energy

$$$$
9:0
     RDKit          3D

 52 54  0  0  0  0  0  0  0  0999 V2000
   -1.2710   18.7600  -34.3290 C   0  0  0  0  0  0  0  0  0  0  0  0
   -2.3820   19.1770  -33.4670 N   0  0  0  0  0  0  0  0  0  0  0  0
   -3.6620   18.9810  -34.1580 C   0  0  0  0  0  0  0  0  0  0  0  0
   -2.1950   20.8580  -33.0290 S   0  0  0  0  0  0  0  0  0  0  0  0
   -1.1580   21.4920  -33.9150 O   0  0  0  0  0  0  0  0  0  0  0  0
   -3.4960   21.5790  -33.2480 O   0  0  0  0  0  0  0  0  0  0  0  0
   -1.7060   21.0400  -31.3420 C   0  0  0  0  0  0  0  0  0  0  0  0
   -1.1830   19.9470  -30.6390 C   0  0  0  0  0  0  0  0  0  0  0  0
   -0.7710   20.0990  -29.3130 C   0  0  0  0  0  0  0  0  0  0  0  0
   -0.8870   21.3390  -28.6810 C   0  0  0  0  0  0  0  0  0  0  0  0
   -1.4320   22.4350  -29.3610 C   0  0  0  0  0  0  0  0  0  0  0  0
   -1.5140   23.6950  -28.6800 N   0  0  0  0  0  0  0  0  0  0  0  0
   -2.0270   24.9240  -29.2120 C   0  0  0  0  0  0  0  0  0  0  0  0
   -1.4780   26.0230  -28.9360 O   0  0  0  0  0  0  0  0  0  0  0  0
   -3.1470   24.9110  -30.1020 N   0  0  0  0  0  0  0  0  0  0  0  0
   -4.5050   24.5730  -29.6900 C   0  0  0  0  0  0  0  0  0  0  0  0
   -5.5270   24.9290  -30.7790 C   0  0  0  0  0  0  0  0  0  0  0  0
   -6.8660   24.1920  -30.6080 C   0  0  0  0  0  0  0  0  0  0  0  0
   -7.1320   23.2840  -31.7410 N   0  0  0  0  0  0  0  0  0  0  0  0
   -6.1060   22.2180  -31.8430 C   0  0  0  0  0  0  0  0  0  0  0  0
   -6.8580   20.9650  -32.0510 C   0  0  0  0  0  0  0  0  0  0  0  0
   -6.3540   19.6860  -32.3000 C   0  0  0  0  0  0  0  0  0  0  0  0
   -7.2630   18.6240  -32.4410 C   0  0  0  0  0  0  0  0  0  0  0  0
   -8.6470   18.8580  -32.3220 C   0  0  0  0  0  0  0  0  0  0  0  0
   -9.1230   20.1540  -32.0640 C   0  0  0  0  0  0  0  0  0  0  0  0
   -8.1960   21.1910  -31.9370 C   0  0  0  0  0  0  0  0  0  0  0  0
   -8.4530   22.6150  -31.6450 C   0  0  0  0  0  0  0  0  0  0  0  0
   -1.8240   22.2840  -30.7040 C   0  0  0  0  0  0  0  0  0  0  0  0
   -0.4226   18.4416  -33.7054 H   0  0  0  0  0  0  0  0  0  0  0  0
   -1.5942   17.9220  -34.9640 H   0  0  0  0  0  0  0  0  0  0  0  0
   -0.9630   19.6037  -34.9640 H   0  0  0  0  0  0  0  0  0  0  0  0
   -4.4644   18.8581  -33.4157 H   0  0  0  0  0  0  0  0  0  0  0  0
   -3.8764   19.8568  -34.7881 H   0  0  0  0  0  0  0  0  0  0  0  0
   -3.6045   18.0812  -34.7881 H   0  0  0  0  0  0  0  0  0  0  0  0
   -1.0966   18.9675  -31.1320 H   0  0  0  0  0  0  0  0  0  0  0  0
   -0.3545   19.2406  -28.7656 H   0  0  0  0  0  0  0  0  0  0  0  0
   -0.5477   21.4555  -27.6412 H   0  0  0  0  0  0  0  0  0  0  0  0
   -4.5591   23.4931  -29.4880 H   0  0  0  0  0  0  0  0  0  0  0  0
   -4.7465   25.1523  -28.7866 H   0  0  0  0  0  0  0  0  0  0  0  0
   -5.7155   26.0121  -30.7427 H   0  0  0  0  0  0  0  0  0  0  0  0
   -5.1011   24.6194  -31.7448 H   0  0  0  0  0  0  0  0  0  0  0  0
   -6.8344   23.6043  -29.6787 H   0  0  0  0  0  0  0  0  0  0  0  0
   -7.6702   24.9415  -30.5701 H   0  0  0  0  0  0  0  0  0  0  0  0
   -5.4357   22.4098  -32.6939 H   0  0  0  0  0  0  0  0  0  0  0  0
   -5.4758   22.1709  -30.9427 H   0  0  0  0  0  0  0  0  0  0  0  0
   -5.2707   19.5144  -32.3837 H   0  0  0  0  0  0  0  0  0  0  0  0
   -6.8934   17.6082  -32.6446 H   0  0  0  0  0  0  0  0  0  0  0  0
   -9.3562   18.0243  -32.4313 H   0  0  0  0  0  0  0  0  0  0  0  0
  -10.2012   20.3479  -31.9642 H   0  0  0  0  0  0  0  0  0  0  0  0
   -9.1526   23.0382  -32.3809 H   0  0  0  0  0  0  0  0  0  0  0  0
   -8.9090   22.7524  -30.6534 H   0  0  0  0  0  0  0  0  0  0  0  0
   -2.2252   23.1462  -31.2568 H   0  0  0  0  0  0  0  0  0  0  0  0
  1  2  1  0
  2  3  1  0
  2  4  1  0
  4  5  2  0
  4  6  2  0
  4  7  1  0
  7  8  2  0
  8  9  1  0
  9 10  2  0
 10 11  1  0
 11 12  1  0
 12 13  1  0
 13 14  2  0
 13 15  1  0
 15 16  1  0
 16 17  1  0
 17 18  1  0
 18 19  1  0
 19 20  1  0
 20 21  1  0
 21 22  2  0
 22 23  1  0
 23 24  2  0
 24 25  1  0
 25 26  2  0
 26 27  1  0
 11 28  2  0
 28  7  1  0
 27 19  1  0
 26 21  1  0
  1 29  1  0
  1 30  1  0
  1 31  1  0
  3 32  1  0
  3 33  1  0
  3 34  1  0
  8 35  1  0
  9 36  1  0
 10 37  1  0
 16 38  1  0
 16 39  1  0
 17 40  1  0
 17 41  1  0
 18 42  1  0
 18 43  1  0
 20 44  1  0
 20 45  1  0
 22 46  1  0
 23 47  1  0
 24 48  1  0
 25 49  1  0
 27 50  1  0
 27 51  1  0
 28 52  1  0
M  CHG  2  12  -1  15  -1
M  END
>  <UniqueID>  (10) 
9

>  <SMILES>  (10) 
CN(C)S(=O)(=O)c1cccc([N-]C(=O)[N-]CCCN2Cc3ccccc3C2)c1

>  <Energy>  (10) 
61.343743985144435

>  <Genealogy>  (10) 
CN(C)S(=O)(=O)c1cccc([N-]C(=O)[N-]CCCN2Cc3ccccc3C2)c1 (protonated)
CN(C)S(=O)(=O)c1cccc([N-]C(=O)[N-]CCCN2Cc3ccccc3C2)c1 (3D coordinates assigned)
CN(C)S(=O)(=O)c1cccc([N-]C(=O)[N-]CCCN2Cc3ccccc3C2)c1 (nonaromatic ring conformer: 61.343743985144435 kcal/mol)

>  <smiles>  (10) 
CN(C)S(=O)(=O)c1cccc(NC(=O)NCCCN2Cc3ccccc3C2)c1

>  <score_type>  (10) 
oracle

>  <origin>  (10) 
adgpu

>  <m_score__min__energy>  (10) 
-12.31

>  <m_primary>  (10) 
energy

$$$$
10:0
     RDKit          3D

 30 31  0  0  0  0  0  0  0  0999 V2000
   -8.7850   23.4170  -32.2760 C   0  0  0  0  0  0  0  0  0  0  0  0
   -7.8820   23.7630  -31.2300 O   0  0  0  0  0  0  0  0  0  0  0  0
   -6.5080   23.4840  -31.2460 C   0  0  0  0  0  0  0  0  0  0  0  0
   -5.9520   22.4780  -32.0580 C   0  0  0  0  0  0  0  0  0  0  0  0
   -4.5780   22.2270  -32.0220 C   0  0  0  0  0  0  0  0  0  0  0  0
   -3.7470   22.9800  -31.1890 C   0  0  0  0  0  0  0  0  0  0  0  0
   -4.2800   24.0040  -30.3950 C   0  0  0  0  0  0  0  0  0  0  0  0
   -3.4070   24.7480  -29.5290 N   0  0  0  0  0  0  0  0  0  0  0  0
   -3.0730   24.3500  -28.1870 C   0  0  0  0  0  0  0  0  0  0  0  0
   -3.5690   23.3010  -27.6910 O   0  0  0  0  0  0  0  0  0  0  0  0
   -2.1410   25.1540  -27.3680 C   0  0  0  0  0  0  0  0  0  0  0  0
   -2.1680   25.0220  -25.9680 C   0  0  0  0  0  0  0  0  0  0  0  0
   -1.2930   25.7630  -25.1700 C   0  0  0  0  0  0  0  0  0  0  0  0
   -0.3900   26.6510  -25.7580 C   0  0  0  0  0  0  0  0  0  0  0  0
   -0.3670   26.8070  -27.1450 C   0  0  0  0  0  0  0  0  0  0  0  0
   -1.2440   26.0740  -27.9530 C   0  0  0  0  0  0  0  0  0  0  0  0
   -1.2350   26.2910  -29.3270 O   0  0  0  0  0  0  0  0  0  0  0  0
   -5.6680   24.2370  -30.4150 C   0  0  0  0  0  0  0  0  0  0  0  0
   -9.7285   23.0555  -31.8412 H   0  0  0  0  0  0  0  0  0  0  0  0
   -8.9832   24.3029  -32.8973 H   0  0  0  0  0  0  0  0  0  0  0  0
   -8.3405   22.6255  -32.8973 H   0  0  0  0  0  0  0  0  0  0  0  0
   -6.6005   21.8881  -32.7224 H   0  0  0  0  0  0  0  0  0  0  0  0
   -4.1491   21.4337  -32.6518 H   0  0  0  0  0  0  0  0  0  0  0  0
   -2.6682   22.7678  -31.1562 H   0  0  0  0  0  0  0  0  0  0  0  0
   -3.0390   25.6570  -29.8880 H   0  0  0  0  0  0  0  0  0  0  0  0
   -2.8830   24.3306  -25.4982 H   0  0  0  0  0  0  0  0  0  0  0  0
   -1.3154   25.6467  -24.0764 H   0  0  0  0  0  0  0  0  0  0  0  0
    0.3033   27.2277  -25.1282 H   0  0  0  0  0  0  0  0  0  0  0  0
    0.3437   27.5093  -27.6052 H   0  0  0  0  0  0  0  0  0  0  0  0
   -6.0978   25.0186  -29.7713 H   0  0  0  0  0  0  0  0  0  0  0  0
  1  2  1  0
  2  3  1  0
  3  4  2  0
  4  5  1  0
  5  6  2  0
  6  7  1  0
  7  8  1  0
  8  9  1  0
  9 10  2  0
  9 11  1  0
 11 12  2  0
 12 13  1  0
 13 14  2  0
 14 15  1  0
 15 16  2  0
 16 17  1  0
  7 18  2  0
 18  3  1  0
 16 11  1  0
  1 19  1  0
  1 20  1  0
  1 21  1  0
  4 22  1  0
  5 23  1  0
  6 24  1  0
  8 25  1  0
 12 26  1  0
 13 27  1  0
 14 28  1  0
 15 29  1  0
 18 30  1  0
M  CHG  1  17  -1
M  END
>  <UniqueID>  (11) 
10

>  <SMILES>  (11) 
COc1cccc(NC(=O)c2ccccc2[O-])c1

>  <Energy>  (11) 
39.06069807435765

>  <Genealogy>  (11) 
COc1cccc(NC(=O)c2ccccc2[O-])c1 (protonated)
COc1cccc(NC(=O)c2ccccc2[O-])c1 (3D coordinates assigned)
COc1cccc(NC(=O)c2ccccc2[O-])c1 (optimized conformer: 39.06069807435765 kcal/mol)

>  <smiles>  (11) 
COc1cccc(NC(=O)c2ccccc2O)c1

>  <score_type>  (11) 
oracle

>  <origin>  (11) 
adgpu

>  <m_score__min__energy>  (11) 
-9.2899999999999991

>  <m_primary>  (11) 
energy

$$$$
11:0
     RDKit          3D

 32 33  0  0  0  0  0  0  0  0999 V2000
   -0.8560   26.7940  -28.0300 C   0  0  0  0  0  0  0  0  0  0  0  0
   -1.3300   25.7890  -28.9690 N   0  0  0  0  0  0  0  0  0  0  0  0
   -0.8630   24.4360  -29.0660 C   0  0  0  0  0  0  0  0  0  0  0  0
    0.3220   24.1900  -28.7180 O   0  0  0  0  0  0  0  0  0  0  0  0
   -1.6990   23.3270  -29.5800 C   0  0  0  0  0  0  0  0  0  0  0  0
   -1.3620   21.6790  -29.4790 S   0  0  0  0  0  0  0  0  0  0  0  0
   -2.7100   21.1380  -30.3260 C   0  0  0  0  0  0  0  0  0  0  0  0
   -3.4500   22.2480  -30.7120 C   0  0  0  0  0  0  0  0  0  0  0  0
   -2.8840   23.4620  -30.3050 C   0  0  0  0  0  0  0  0  0  0  0  0
   -3.5130   24.7170  -30.5590 N   0  0  0  0  0  0  0  0  0  0  0  0
   -5.1320   25.0090  -30.0270 S   0  0  0  0  0  0  0  0  0  0  0  0
   -5.1810   24.9380  -28.5270 O   0  0  0  0  0  0  0  0  0  0  0  0
   -5.5660   26.3810  -30.4610 O   0  0  0  0  0  0  0  0  0  0  0  0
   -6.2070   23.7920  -30.7080 C   0  0  0  0  0  0  0  0  0  0  0  0
   -7.1610   23.1570  -29.9020 C   0  0  0  0  0  0  0  0  0  0  0  0
   -7.9690   22.1460  -30.4320 C   0  0  0  0  0  0  0  0  0  0  0  0
   -7.8210   21.7500  -31.7690 C   0  0  0  0  0  0  0  0  0  0  0  0
   -8.6990   20.6780  -32.3420 C   0  0  0  0  0  0  0  0  0  0  0  0
   -6.8800   22.4020  -32.5810 C   0  0  0  0  0  0  0  0  0  0  0  0
   -6.0710   23.4100  -32.0500 C   0  0  0  0  0  0  0  0  0  0  0  0
   -1.0221   26.4419  -27.0012 H   0  0  0  0  0  0  0  0  0  0  0  0
    0.2186   26.9669  -28.1894 H   0  0  0  0  0  0  0  0  0  0  0  0
   -1.4061   27.7331  -28.1894 H   0  0  0  0  0  0  0  0  0  0  0  0
   -2.9618   20.0883  -30.5374 H   0  0  0  0  0  0  0  0  0  0  0  0
   -4.3886   22.1800  -31.2816 H   0  0  0  0  0  0  0  0  0  0  0  0
   -7.2748   23.4545  -28.8491 H   0  0  0  0  0  0  0  0  0  0  0  0
   -8.7240   21.6593  -29.7972 H   0  0  0  0  0  0  0  0  0  0  0  0
   -9.1648   20.1093  -31.5237 H   0  0  0  0  0  0  0  0  0  0  0  0
   -9.4830   21.1383  -32.9613 H   0  0  0  0  0  0  0  0  0  0  0  0
   -8.0933   20.0001  -32.9613 H   0  0  0  0  0  0  0  0  0  0  0  0
   -6.7790   22.1185  -33.6390 H   0  0  0  0  0  0  0  0  0  0  0  0
   -5.3243   23.9059  -32.6876 H   0  0  0  0  0  0  0  0  0  0  0  0
  1  2  1  0
  2  3  1  0
  3  4  2  0
  3  5  1  0
  5  6  1  0
  6  7  1  0
  7  8  2  0
  8  9  1  0
  9 10  1  0
 10 11  1  0
 11 12  2  0
 11 13  2  0
 11 14  1  0
 14 15  2  0
 15 16  1  0
 16 17  2  0
 17 18  1  0
 17 19  1  0
 19 20  2  0
  9  5  2  0
 20 14  1  0
  1 21  1  0
  1 22  1  0
  1 23  1  0
  7 24  1  0
  8 25  1  0
 15 26  1  0
 16 27  1  0
 18 28  1  0
 18 29  1  0
 18 30  1  0
 19 31  1  0
 20 32  1  0
M  CHG  2   2  -1  10  -1
M  END
>  <UniqueID>  (12) 
11

>  <SMILES>  (12) 
C[N-]C(=O)c1sccc1[N-]S(=O)(=O)c1ccc(C)cc1

>  <Energy>  (12) 
65.9080439393346

>  <Genealogy>  (12) 
C[N-]C(=O)c1sccc1[N-]S(=O)(=O)c1ccc(C)cc1 (protonated)
C[N-]C(=O)c1sccc1[N-]S(=O)(=O)c1ccc(C)cc1 (3D coordinates assigned)
C[N-]C(=O)c1sccc1[N-]S(=O)(=O)c1ccc(C)cc1 (optimized conformer: 65.9080439393346 kcal/mol)

>  <smiles>  (12) 
CNC(=O)c1sccc1NS(=O)(=O)c1ccc(C)cc1

>  <score_type>  (12) 
oracle

>  <origin>  (12) 
adgpu

>  <m_score__min__energy>  (12) 
-10.470000000000001

>  <m_primary>  (12) 
energy

$$$$
12:0
     RDKit          3D

 45 47  0  0  0  0  0  0  0  0999 V2000
   -9.7910   21.3460  -31.9350 C   0  0  0  0  0  0  0  0  0  0  0  0
   -8.6750   21.3730  -31.0490 O   0  0  0  0  0  0  0  0  0  0  0  0
   -7.4210   21.9240  -31.3580 C   0  0  0  0  0  0  0  0  0  0  0  0
   -6.9300   23.0640  -30.6890 C   0  0  0  0  0  0  0  0  0  0  0  0
   -5.6790   23.6120  -31.0140 C   0  0  0  0  0  0  0  0  0  0  0  0
   -5.1810   24.8090  -30.2930 C   0  0  0  0  0  0  0  0  0  0  0  0
   -5.7100   25.1890  -29.0190 N   0  0  0  0  0  0  0  0  0  0  0  0
   -4.2610   25.5060  -30.8010 O   0  0  0  0  0  0  0  0  0  0  0  0
   -4.9070   22.9940  -32.0100 C   0  0  0  0  0  0  0  0  0  0  0  0
   -5.3820   21.8660  -32.6790 C   0  0  0  0  0  0  0  0  0  0  0  0
   -6.6410   21.3190  -32.3660 C   0  0  0  0  0  0  0  0  0  0  0  0
   -7.1370   20.1510  -33.0520 N   0  0  0  0  0  0  0  0  0  0  0  0
   -6.4780   19.5720  -34.2280 C   0  0  0  0  0  0  0  0  0  0  0  0
   -5.8020   18.2690  -33.8950 C   0  0  0  0  0  0  0  0  0  0  0  0
   -6.3520   17.0060  -34.0060 C   0  0  0  0  0  0  0  0  0  0  0  0
   -5.4350   16.1110  -33.5970 N   0  0  0  0  0  0  0  0  0  0  0  0
   -5.5960   14.6640  -33.6050 C   0  0  0  0  0  0  0  0  0  0  0  0
   -4.3100   16.7260  -33.2700 N   0  0  0  0  0  0  0  0  0  0  0  0
   -4.5010   18.0500  -33.4510 C   0  0  0  0  0  0  0  0  0  0  0  0
   -3.4400   19.0510  -33.2170 C   0  0  0  0  0  0  0  0  0  0  0  0
   -3.3400   19.6790  -31.9640 C   0  0  0  0  0  0  0  0  0  0  0  0
   -2.3290   20.6140  -31.7210 C   0  0  0  0  0  0  0  0  0  0  0  0
   -1.4010   20.9180  -32.7200 C   0  0  0  0  0  0  0  0  0  0  0  0
   -0.4200   21.8230  -32.4810 F   0  0  0  0  0  0  0  0  0  0  0  0
   -1.4780   20.2810  -33.9610 C   0  0  0  0  0  0  0  0  0  0  0  0
   -2.4870   19.3460  -34.2090 C   0  0  0  0  0  0  0  0  0  0  0  0
  -10.7227   21.3235  -31.3506 H   0  0  0  0  0  0  0  0  0  0  0  0
   -9.7776   22.2447  -32.5691 H   0  0  0  0  0  0  0  0  0  0  0  0
   -9.7341   20.4490  -32.5691 H   0  0  0  0  0  0  0  0  0  0  0  0
   -7.5370   23.5315  -29.8997 H   0  0  0  0  0  0  0  0  0  0  0  0
   -6.3540   24.5670  -28.4840 H   0  0  0  0  0  0  0  0  0  0  0  0
   -5.3820   26.0680  -28.5610 H   0  0  0  0  0  0  0  0  0  0  0  0
   -3.9183   23.4030  -32.2653 H   0  0  0  0  0  0  0  0  0  0  0  0
   -4.7655   21.3981  -33.4606 H   0  0  0  0  0  0  0  0  0  0  0  0
   -7.9880   19.6750  -32.6750 H   0  0  0  0  0  0  0  0  0  0  0  0
   -7.2319   19.3943  -35.0091 H   0  0  0  0  0  0  0  0  0  0  0  0
   -5.7116   20.2793  -34.5777 H   0  0  0  0  0  0  0  0  0  0  0  0
   -7.3648   16.7729  -34.3666 H   0  0  0  0  0  0  0  0  0  0  0  0
   -5.6372   14.2939  -32.5699 H   0  0  0  0  0  0  0  0  0  0  0  0
   -6.5289   14.4017  -34.1256 H   0  0  0  0  0  0  0  0  0  0  0  0
   -4.7436   14.2031  -34.1256 H   0  0  0  0  0  0  0  0  0  0  0  0
   -4.0608   19.4338  -31.1701 H   0  0  0  0  0  0  0  0  0  0  0  0
   -2.2643   21.1109  -30.7418 H   0  0  0  0  0  0  0  0  0  0  0  0
   -0.7428   20.5158  -34.7448 H   0  0  0  0  0  0  0  0  0  0  0  0
   -2.5361   18.8387  -35.1838 H   0  0  0  0  0  0  0  0  0  0  0  0
  1  2  1  0
  2  3  1  0
  3  4  2  0
  4  5  1  0
  5  6  1  0
  6  7  1  0
  6  8  2  0
  5  9  2  0
  9 10  1  0
 10 11  2  0
 11 12  1  0
 12 13  1  0
 13 14  1  0
 14 15  2  0
 15 16  1  0
 16 17  1  0
 16 18  1  0
 18 19  2  0
 19 20  1  0
 20 21  2  0
 21 22  1  0
 22 23  2  0
 23 24  1  0
 23 25  1  0
 25 26  2  0
 11  3  1  0
 19 14  1  0
 26 20  1  0
  1 27  1  0
  1 28  1  0
  1 29  1  0
  4 30  1  0
  7 31  1  0
  7 32  1  0
  9 33  1  0
 10 34  1  0
 12 35  1  0
 13 36  1  0
 13 37  1  0
 15 38  1  0
 17 39  1  0
 17 40  1  0
 17 41  1  0
 21 42  1  0
 22 43  1  0
 25 44  1  0
 26 45  1  0
M  END
>  <UniqueID>  (13) 
12

>  <SMILES>  (13) 
COc1cc(C(N)=O)ccc1NCc1cn(C)nc1-c1ccc(F)cc1

>  <Energy>  (13) 
82.36584432046114

>  <Genealogy>  (13) 
COc1cc(C(N)=O)ccc1NCc1cn(C)nc1-c1ccc(F)cc1 (3D coordinates assigned)
COc1cc(C(N)=O)ccc1NCc1cn(C)nc1-c1ccc(F)cc1 (optimized conformer: 82.36584432046114 kcal/mol)

>  <smiles>  (13) 
COc1cc(C(N)=O)ccc1NCc1cn(C)nc1-c1ccc(F)cc1

>  <score_type>  (13) 
oracle

>  <origin>  (13) 
adgpu

>  <m_score__min__energy>  (13) 
-8.3499999999999996

>  <m_primary>  (13) 
energy

$$$$
13:0
     RDKit          3D

 53 55  0  0  0  0  0  0  0  0999 V2000
   -2.0830   24.9540  -29.3430 N   0  0  0  0  0  0  0  0  0  0  0  0
   -2.7940   23.4260  -29.7300 S   0  0  0  0  0  0  0  0  0  0  0  0
   -4.1600   23.3650  -29.1030 O   0  0  0  0  0  0  0  0  0  0  0  0
   -2.9180   23.3100  -31.2230 O   0  0  0  0  0  0  0  0  0  0  0  0
   -1.7960   22.0970  -29.1180 C   0  0  0  0  0  0  0  0  0  0  0  0
   -1.9210   21.7220  -27.7700 C   0  0  0  0  0  0  0  0  0  0  0  0
   -1.1780   20.6580  -27.2590 C   0  0  0  0  0  0  0  0  0  0  0  0
   -0.3010   19.9570  -28.0840 C   0  0  0  0  0  0  0  0  0  0  0  0
   -0.1570   20.3230  -29.4220 C   0  0  0  0  0  0  0  0  0  0  0  0
   -0.8960   21.3950  -29.9600 C   0  0  0  0  0  0  0  0  0  0  0  0
   -0.7040   21.7930  -31.3320 N   0  0  0  0  0  0  0  0  0  0  0  0
   -0.8740   20.7040  -32.6720 S   0  0  0  0  0  0  0  0  0  0  0  0
   -0.0200   19.4910  -32.4350 O   0  0  0  0  0  0  0  0  0  0  0  0
   -0.4040   21.3900  -33.9250 O   0  0  0  0  0  0  0  0  0  0  0  0
   -2.5540   20.2060  -32.8330 C   0  0  0  0  0  0  0  0  0  0  0  0
   -2.8900   18.8490  -32.7730 C   0  0  0  0  0  0  0  0  0  0  0  0
   -4.2250   18.4460  -32.8890 C   0  0  0  0  0  0  0  0  0  0  0  0
   -5.2410   19.4050  -33.0720 C   0  0  0  0  0  0  0  0  0  0  0  0
   -6.5990   19.0620  -33.1880 O   0  0  0  0  0  0  0  0  0  0  0  0
   -7.5830   19.2170  -32.1650 C   0  0  0  0  0  0  0  0  0  0  0  0
   -8.4470   20.4530  -32.4310 C   0  0  0  0  0  0  0  0  0  0  0  0
   -7.8070   21.6820  -31.8450 C   0  0  0  0  0  0  0  0  0  0  0  0
   -7.8250   21.8970  -30.4580 C   0  0  0  0  0  0  0  0  0  0  0  0
   -7.2590   23.0550  -29.9170 C   0  0  0  0  0  0  0  0  0  0  0  0
   -6.6670   24.0130  -30.7550 C   0  0  0  0  0  0  0  0  0  0  0  0
   -6.0870   25.2770  -30.1720 C   0  0  0  0  0  0  0  0  0  0  0  0
   -4.6720   25.4090  -30.5120 N   0  0  0  0  0  0  0  0  0  0  0  0
   -6.6740   23.8110  -32.1430 C   0  0  0  0  0  0  0  0  0  0  0  0
   -7.2410   22.6530  -32.6850 C   0  0  0  0  0  0  0  0  0  0  0  0
   -4.8960   20.7600  -33.1340 C   0  0  0  0  0  0  0  0  0  0  0  0
   -3.5610   21.1600  -33.0190 C   0  0  0  0  0  0  0  0  0  0  0  0
   -2.8550   25.6580  -29.3390 H   0  0  0  0  0  0  0  0  0  0  0  0
   -2.6103   22.2718  -27.1123 H   0  0  0  0  0  0  0  0  0  0  0  0
   -1.2847   20.3717  -26.2023 H   0  0  0  0  0  0  0  0  0  0  0  0
    0.2784   19.1140  -27.6796 H   0  0  0  0  0  0  0  0  0  0  0  0
    0.5420   19.7680  -30.0650 H   0  0  0  0  0  0  0  0  0  0  0  0
   -0.4780   22.7830  -31.5640 H   0  0  0  0  0  0  0  0  0  0  0  0
   -2.1009   18.0954  -32.6340 H   0  0  0  0  0  0  0  0  0  0  0  0
   -4.4820   17.3777  -32.8372 H   0  0  0  0  0  0  0  0  0  0  0  0
   -8.2257   18.3245  -32.1434 H   0  0  0  0  0  0  0  0  0  0  0  0
   -7.0730   19.3422  -31.1984 H   0  0  0  0  0  0  0  0  0  0  0  0
   -8.5612   20.5875  -33.5168 H   0  0  0  0  0  0  0  0  0  0  0  0
   -9.4304   20.3064  -31.9605 H   0  0  0  0  0  0  0  0  0  0  0  0
   -8.2864   21.1512  -29.7941 H   0  0  0  0  0  0  0  0  0  0  0  0
   -7.2776   23.2164  -28.8291 H   0  0  0  0  0  0  0  0  0  0  0  0
   -6.6354   26.1425  -30.5723 H   0  0  0  0  0  0  0  0  0  0  0  0
   -6.1818   25.2337  -29.0770 H   0  0  0  0  0  0  0  0  0  0  0  0
   -4.3520   24.5260  -30.9720 H   0  0  0  0  0  0  0  0  0  0  0  0
   -4.1230   25.5230  -29.6280 H   0  0  0  0  0  0  0  0  0  0  0  0
   -6.2315   24.5669  -32.8084 H   0  0  0  0  0  0  0  0  0  0  0  0
   -7.2432   22.5028  -33.7747 H   0  0  0  0  0  0  0  0  0  0  0  0
   -5.6818   21.5168  -33.2744 H   0  0  0  0  0  0  0  0  0  0  0  0
   -3.3016   22.2275  -33.0749 H   0  0  0  0  0  0  0  0  0  0  0  0
  1  2  1  0
  2  3  2  0
  2  4  2  0
  2  5  1  0
  5  6  2  0
  6  7  1  0
  7  8  2  0
  8  9  1  0
  9 10  2  0
 10 11  1  0
 11 12  1  0
 12 13  2  0
 12 14  2  0
 12 15  1  0
 15 16  2  0
 16 17  1  0
 17 18  2  0
 18 19  1  0
 19 20  1  0
 20 21  1  0
 21 22  1  0
 22 23  2  0
 23 24  1  0
 24 25  2  0
 25 26  1  0
 26 27  1  0
 25 28  1  0
 28 29  2  0
 18 30  1  0
 30 31  2  0
 10  5  1  0
 31 15  1  0
 29 22  1  0
  1 32  1  0
  6 33  1  0
  7 34  1  0
  8 35  1  0
  9 36  1  0
 11 37  1  0
 16 38  1  0
 17 39  1  0
 20 40  1  0
 20 41  1  0
 21 42  1  0
 21 43  1  0
 23 44  1  0
 24 45  1  0
 26 46  1  0
 26 47  1  0
 27 48  1  0
 27 49  1  0
 28 50  1  0
 29 51  1  0
 30 52  1  0
 31 53  1  0
M  CHG  1   1  -1
M  END
>  <UniqueID>  (14) 
13

>  <SMILES>  (14) 
[NH-]S(=O)(=O)c1ccccc1NS(=O)(=O)c1ccc(OCCc2ccc(CN)cc2)cc1

>  <Energy>  (14) 
57.08605586340566

>  <Genealogy>  (14) 
[NH-]S(=O)(=O)c1ccccc1NS(=O)(=O)c1ccc(OCCc2ccc(CN)cc2)cc1 (protonated)
[NH-]S(=O)(=O)c1ccccc1NS(=O)(=O)c1ccc(OCCc2ccc(CN)cc2)cc1 (3D coordinates assigned)
[NH-]S(=O)(=O)c1ccccc1NS(=O)(=O)c1ccc(OCCc2ccc(CN)cc2)cc1 (optimized conformer: 57.08605586340566 kcal/mol)

>  <smiles>  (14) 
NCc1ccc(CCOc2ccc(S(=O)(=O)Nc3ccccc3S(N)(=O)=O)cc2)cc1

>  <score_type>  (14) 
oracle

>  <origin>  (14) 
adgpu

>  <m_score__min__energy>  (14) 
-12.48

>  <m_primary>  (14) 
energy

$$$$
14:0
     RDKit          3D

 47 50  0  0  0  0  0  0  0  0999 V2000
   -3.9850   25.3640  -30.8400 O   0  0  0  0  0  0  0  0  0  0  0  0
   -5.0140   24.6310  -30.0260 S   0  0  0  0  0  0  0  0  0  0  0  0
   -6.0700   25.6000  -29.5760 O   0  0  0  0  0  0  0  0  0  0  0  0
   -4.2500   23.9190  -28.6390 N   0  0  0  0  0  0  0  0  0  0  0  0
   -2.8950   23.4330  -28.6490 C   0  0  0  0  0  0  0  0  0  0  0  0
   -2.6120   22.0620  -28.5020 C   0  0  0  0  0  0  0  0  0  0  0  0
   -1.2910   21.6050  -28.4570 C   0  0  0  0  0  0  0  0  0  0  0  0
   -0.9790   19.8900  -28.2010 S   0  0  0  0  0  0  0  0  0  0  0  0
    0.3010   19.7070  -27.4310 O   0  0  0  0  0  0  0  0  0  0  0  0
   -2.1160   19.3120  -27.4070 O   0  0  0  0  0  0  0  0  0  0  0  0
   -0.8580   19.0690  -29.7400 N   0  0  0  0  0  0  0  0  0  0  0  0
   -1.2390   19.9870  -30.8310 C   0  0  0  0  0  0  0  0  0  0  0  0
   -0.6650   19.5000  -32.1720 C   0  0  0  0  0  0  0  0  0  0  0  0
    0.7540   19.4080  -32.2000 O   0  0  0  0  0  0  0  0  0  0  0  0
    1.3460   19.2870  -30.9140 C   0  0  0  0  0  0  0  0  0  0  0  0
    0.4870   18.4790  -29.9240 C   0  0  0  0  0  0  0  0  0  0  0  0
   -0.2380   22.5150  -28.5920 C   0  0  0  0  0  0  0  0  0  0  0  0
   -0.5050   23.8740  -28.7730 C   0  0  0  0  0  0  0  0  0  0  0  0
   -1.8260   24.3360  -28.8000 C   0  0  0  0  0  0  0  0  0  0  0  0
   -2.0660   25.6950  -28.9620 O   0  0  0  0  0  0  0  0  0  0  0  0
   -5.7730   23.3810  -30.9970 C   0  0  0  0  0  0  0  0  0  0  0  0
   -7.0280   23.4720  -31.5830 C   0  0  0  0  0  0  0  0  0  0  0  0
   -7.4310   22.2830  -32.2010 C   0  0  0  0  0  0  0  0  0  0  0  0
   -6.4940   21.2610  -32.0880 C   0  0  0  0  0  0  0  0  0  0  0  0
   -6.6560   19.8970  -32.6070 C   0  0  0  0  0  0  0  0  0  0  0  0
   -6.0560   19.3810  -33.7370 C   0  0  0  0  0  0  0  0  0  0  0  0
   -6.4900   18.0760  -33.8240 C   0  0  0  0  0  0  0  0  0  0  0  0
   -7.3260   17.8770  -32.7450 C   0  0  0  0  0  0  0  0  0  0  0  0
   -7.4060   18.9810  -32.0370 O   0  0  0  0  0  0  0  0  0  0  0  0
   -5.1650   21.8300  -31.2220 S   0  0  0  0  0  0  0  0  0  0  0  0
   -4.8600   23.7260  -27.8140 H   0  0  0  0  0  0  0  0  0  0  0  0
   -3.4395   21.3417  -28.4216 H   0  0  0  0  0  0  0  0  0  0  0  0
   -2.3359   20.0297  -30.9013 H   0  0  0  0  0  0  0  0  0  0  0  0
   -0.8330   20.9858  -30.6127 H   0  0  0  0  0  0  0  0  0  0  0  0
   -1.0795   18.5032  -32.3830 H   0  0  0  0  0  0  0  0  0  0  0  0
   -0.9481   20.2480  -32.9272 H   0  0  0  0  0  0  0  0  0  0  0  0
    2.3189   18.7854  -31.0229 H   0  0  0  0  0  0  0  0  0  0  0  0
    1.4482   20.3028  -30.5045 H   0  0  0  0  0  0  0  0  0  0  0  0
    0.3748   17.4539  -30.3070 H   0  0  0  0  0  0  0  0  0  0  0  0
    0.9963   18.4886  -28.9490 H   0  0  0  0  0  0  0  0  0  0  0  0
    0.8025   22.1600  -28.5556 H   0  0  0  0  0  0  0  0  0  0  0  0
    0.3262   24.5841  -28.8948 H   0  0  0  0  0  0  0  0  0  0  0  0
   -7.6422   24.3844  -31.5636 H   0  0  0  0  0  0  0  0  0  0  0  0
   -8.3921   22.1680  -32.7236 H   0  0  0  0  0  0  0  0  0  0  0  0
   -5.3738   19.9022  -34.4247 H   0  0  0  0  0  0  0  0  0  0  0  0
   -6.2235   17.3411  -34.5979 H   0  0  0  0  0  0  0  0  0  0  0  0
   -7.8469   16.9364  -32.5125 H   0  0  0  0  0  0  0  0  0  0  0  0
  1  2  2  0
  2  3  2  0
  2  4  1  0
  4  5  1  0
  5  6  2  0
  6  7  1  0
  7  8  1  0
  8  9  2  0
  8 10  2  0
  8 11  1  0
 11 12  1  0
 12 13  1  0
 13 14  1  0
 14 15  1  0
 15 16  1  0
  7 17  2  0
 17 18  1  0
 18 19  2  0
 19 20  1  0
  2 21  1  0
 21 22  2  0
 22 23  1  0
 23 24  2  0
 24 25  1  0
 25 26  2  0
 26 27  1  0
 27 28  2  0
 28 29  1  0
 24 30  1  0
 19  5  1  0
 30 21  1  0
 16 11  1  0
 29 25  1  0
  4 31  1  0
  6 32  1  0
 12 33  1  0
 12 34  1  0
 13 35  1  0
 13 36  1  0
 15 37  1  0
 15 38  1  0
 16 39  1  0
 16 40  1  0
 17 41  1  0
 18 42  1  0
 22 43  1  0
 23 44  1  0
 26 45  1  0
 27 46  1  0
 28 47  1  0
M  CHG  1  20  -1
M  END
>  <UniqueID>  (15) 
14

>  <SMILES>  (15) 
O=S(=O)(Nc1cc(S(=O)(=O)N2CCOCC2)ccc1[O-])c1ccc(-c2ccco2)s1

>  <Energy>  (15) 
116.1392663851215

>  <Genealogy>  (15) 
O=S(=O)(Nc1cc(S(=O)(=O)N2CCOCC2)ccc1[O-])c1ccc(-c2ccco2)s1 (protonated)
O=S(=O)(Nc1cc(S(=O)(=O)N2CCOCC2)ccc1[O-])c1ccc(-c2ccco2)s1 (3D coordinates assigned)
O=S(=O)(Nc1cc(S(=O)(=O)N2CCOCC2)ccc1[O-])c1ccc(-c2ccco2)s1 (nonaromatic ring conformer: 116.1392663851215 kcal/mol)

>  <smiles>  (15) 
O=S(=O)(Nc1cc(S(=O)(=O)N2CCOCC2)ccc1O)c1ccc(-c2ccco2)s1

>  <score_type>  (15) 
oracle

>  <origin>  (15) 
adgpu

>  <m_score__min__energy>  (15) 
-13.35

>  <m_primary>  (15) 
energy

$$$$
15:0
     RDKit          3D

 45 47  0  0  0  0  0  0  0  0999 V2000
   -3.3060   21.2680  -33.2650 O   0  0  0  0  0  0  0  0  0  0  0  0
   -3.8110   21.9220  -32.3150 C   0  0  0  0  0  0  0  0  0  0  0  0
   -2.9390   22.6330  -31.4260 N   0  0  0  0  0  0  0  0  0  0  0  0
   -2.7640   22.3470  -30.0280 C   0  0  0  0  0  0  0  0  0  0  0  0
   -2.7110   21.0110  -29.5870 C   0  0  0  0  0  0  0  0  0  0  0  0
   -2.5180   20.7150  -28.2380 C   0  0  0  0  0  0  0  0  0  0  0  0
   -2.3730   21.7450  -27.3120 C   0  0  0  0  0  0  0  0  0  0  0  0
   -2.4090   23.0750  -27.7320 C   0  0  0  0  0  0  0  0  0  0  0  0
   -2.5960   23.3990  -29.0900 C   0  0  0  0  0  0  0  0  0  0  0  0
   -2.6320   24.8320  -29.4860 C   0  0  0  0  0  0  0  0  0  0  0  0
   -1.8510   25.6730  -28.9670 O   0  0  0  0  0  0  0  0  0  0  0  0
   -3.5330   25.2690  -30.4510 O   0  0  0  0  0  0  0  0  0  0  0  0
   -5.2830   21.9800  -32.1670 C   0  0  0  0  0  0  0  0  0  0  0  0
   -5.9290   23.2140  -32.0000 C   0  0  0  0  0  0  0  0  0  0  0  0
   -7.3220   23.2710  -31.9000 C   0  0  0  0  0  0  0  0  0  0  0  0
   -8.0820   22.0990  -31.9510 C   0  0  0  0  0  0  0  0  0  0  0  0
   -9.4680   22.1850  -31.8790 O   0  0  0  0  0  0  0  0  0  0  0  0
   -7.4450   20.8540  -32.0800 C   0  0  0  0  0  0  0  0  0  0  0  0
   -8.3810   19.3580  -32.1610 S   0  0  0  0  0  0  0  0  0  0  0  0
   -8.9420   19.0350  -30.8040 O   0  0  0  0  0  0  0  0  0  0  0  0
   -9.5290   19.5450  -33.1150 O   0  0  0  0  0  0  0  0  0  0  0  0
   -7.3570   18.0560  -32.7110 N   0  0  0  0  0  0  0  0  0  0  0  0
   -6.5130   18.5200  -33.8260 C   0  0  0  0  0  0  0  0  0  0  0  0
   -5.7590   17.3390  -34.4620 C   0  0  0  0  0  0  0  0  0  0  0  0
   -5.5910   16.1580  -33.4920 C   0  0  0  0  0  0  0  0  0  0  0  0
   -5.3740   16.6520  -32.0590 C   0  0  0  0  0  0  0  0  0  0  0  0
   -6.5250   17.5710  -31.5900 C   0  0  0  0  0  0  0  0  0  0  0  0
   -6.0480   20.8030  -32.1870 C   0  0  0  0  0  0  0  0  0  0  0  0
   -2.8229   20.1927  -30.3136 H   0  0  0  0  0  0  0  0  0  0  0  0
   -2.4803   19.6673  -27.9051 H   0  0  0  0  0  0  0  0  0  0  0  0
   -2.2298   21.5095  -26.2471 H   0  0  0  0  0  0  0  0  0  0  0  0
   -2.2898   23.8811  -26.9930 H   0  0  0  0  0  0  0  0  0  0  0  0
   -5.3373   24.1398  -31.9476 H   0  0  0  0  0  0  0  0  0  0  0  0
   -7.8227   24.2431  -31.7806 H   0  0  0  0  0  0  0  0  0  0  0  0
   -7.1490   18.9951  -34.5874 H   0  0  0  0  0  0  0  0  0  0  0  0
   -5.7792   19.2422  -33.4388 H   0  0  0  0  0  0  0  0  0  0  0  0
   -6.3207   16.9950  -35.3430 H   0  0  0  0  0  0  0  0  0  0  0  0
   -4.7541   17.6923  -34.7363 H   0  0  0  0  0  0  0  0  0  0  0  0
   -6.4965   15.5343  -33.5243 H   0  0  0  0  0  0  0  0  0  0  0  0
   -4.7103   15.5747  -33.7989 H   0  0  0  0  0  0  0  0  0  0  0  0
   -5.3157   15.7828  -31.3874 H   0  0  0  0  0  0  0  0  0  0  0  0
   -4.4401   17.2328  -32.0345 H   0  0  0  0  0  0  0  0  0  0  0  0
   -7.1645   17.0078  -30.8944 H   0  0  0  0  0  0  0  0  0  0  0  0
   -6.0739   18.4494  -31.1052 H   0  0  0  0  0  0  0  0  0  0  0  0
   -5.5456   19.8296  -32.2878 H   0  0  0  0  0  0  0  0  0  0  0  0
  1  2  2  0
  2  3  1  0
  3  4  1  0
  4  5  2  0
  5  6  1  0
  6  7  2  0
  7  8  1  0
  8  9  2  0
  9 10  1  0
 10 11  2  0
 10 12  1  0
  2 13  1  0
 13 14  2  0
 14 15  1  0
 15 16  2  0
 16 17  1  0
 16 18  1  0
 18 19  1  0
 19 20  2  0
 19 21  2  0
 19 22  1  0
 22 23  1  0
 23 24  1  0
 24 25  1  0
 25 26  1  0
 26 27  1  0
 18 28  2  0
  9  4  1  0
 28 13  1  0
 27 22  1  0
  5 29  1  0
  6 30  1  0
  7 31  1  0
  8 32  1  0
 14 33  1  0
 15 34  1  0
 23 35  1  0
 23 36  1  0
 24 37  1  0
 24 38  1  0
 25 39  1  0
 25 40  1  0
 26 41  1  0
 26 42  1  0
 27 43  1  0
 27 44  1  0
 28 45  1  0
M  CHG  3   3  -1  12  -1  17  -1
M  END
>  <UniqueID>  (16) 
15

>  <SMILES>  (16) 
O=C([N-]c1ccccc1C(=O)[O-])c1ccc([O-])c(S(=O)(=O)N2CCCCC2)c1

>  <Energy>  (16) 
56.968655061019334

>  <Genealogy>  (16) 
O=C([N-]c1ccccc1C(=O)[O-])c1ccc([O-])c(S(=O)(=O)N2CCCCC2)c1 (protonated)
O=C([N-]c1ccccc1C(=O)[O-])c1ccc([O-])c(S(=O)(=O)N2CCCCC2)c1 (3D coordinates assigned)
O=C([N-]c1ccccc1C(=O)[O-])c1ccc([O-])c(S(=O)(=O)N2CCCCC2)c1 (nonaromatic ring conformer: 56.968655061019334 kcal/mol)

>  <smiles>  (16) 
O=C(Nc1ccccc1C(=O)O)c1ccc(O)c(S(=O)(=O)N2CCCCC2)c1

>  <score_type>  (16) 
oracle

>  <origin>  (16) 
adgpu

>  <m_score__min__energy>  (16) 
-12.51

>  <m_primary>  (16) 
energy

$$$$
16:0
     RDKit          3D

 44 46  0  0  0  0  0  0  0  0999 V2000
    0.6260   20.1720  -31.0880 N   0  0  0  0  0  0  0  0  0  0  0  0
   -0.4030   20.6880  -31.2090 C   0  0  0  0  0  0  0  0  0  0  0  0
   -1.6820   21.3320  -31.3610 C   0  0  0  0  0  0  0  0  0  0  0  0
   -2.6340   20.7960  -32.2330 C   0  0  0  0  0  0  0  0  0  0  0  0
   -3.8750   21.4200  -32.3830 C   0  0  0  0  0  0  0  0  0  0  0  0
   -4.1790   22.5890  -31.6620 C   0  0  0  0  0  0  0  0  0  0  0  0
   -5.4520   23.2380  -31.7890 N   0  0  0  0  0  0  0  0  0  0  0  0
   -6.9960   22.4510  -31.7420 S   0  0  0  0  0  0  0  0  0  0  0  0
   -7.5680   22.5180  -30.3540 O   0  0  0  0  0  0  0  0  0  0  0  0
   -7.9390   23.1210  -32.7040 O   0  0  0  0  0  0  0  0  0  0  0  0
   -6.7780   20.7660  -32.1960 C   0  0  0  0  0  0  0  0  0  0  0  0
   -6.8680   19.7650  -31.2240 C   0  0  0  0  0  0  0  0  0  0  0  0
   -6.6730   18.4260  -31.5710 C   0  0  0  0  0  0  0  0  0  0  0  0
   -6.3800   18.0690  -32.8980 C   0  0  0  0  0  0  0  0  0  0  0  0
   -6.1680   16.6470  -33.2690 C   0  0  0  0  0  0  0  0  0  0  0  0
   -5.0910   15.9220  -32.7290 C   0  0  0  0  0  0  0  0  0  0  0  0
   -4.8900   14.5830  -33.0790 C   0  0  0  0  0  0  0  0  0  0  0  0
   -5.7730   13.9350  -33.9600 C   0  0  0  0  0  0  0  0  0  0  0  0
   -5.5400   12.5030  -34.3760 C   0  0  0  0  0  0  0  0  0  0  0  0
   -6.6470   11.9880  -35.0330 F   0  0  0  0  0  0  0  0  0  0  0  0
   -5.2890   11.7370  -33.2540 F   0  0  0  0  0  0  0  0  0  0  0  0
   -4.4530   12.4210  -35.2300 F   0  0  0  0  0  0  0  0  0  0  0  0
   -6.8350   14.6660  -34.5170 C   0  0  0  0  0  0  0  0  0  0  0  0
   -7.0350   16.0050  -34.1700 C   0  0  0  0  0  0  0  0  0  0  0  0
   -6.2850   19.0800  -33.8690 C   0  0  0  0  0  0  0  0  0  0  0  0
   -6.4790   20.4190  -33.5200 C   0  0  0  0  0  0  0  0  0  0  0  0
   -3.2150   23.1300  -30.7860 C   0  0  0  0  0  0  0  0  0  0  0  0
   -3.5630   24.5940  -29.8570 S   0  0  0  0  0  0  0  0  0  0  0  0
   -2.0850   25.2740  -29.2690 N   0  0  0  0  0  0  0  0  0  0  0  0
   -4.4480   24.2700  -28.6840 O   0  0  0  0  0  0  0  0  0  0  0  0
   -4.2620   25.5870  -30.7420 O   0  0  0  0  0  0  0  0  0  0  0  0
   -1.9730   22.4940  -30.6380 C   0  0  0  0  0  0  0  0  0  0  0  0
   -2.4059   19.8823  -32.8015 H   0  0  0  0  0  0  0  0  0  0  0  0
   -4.6204   20.9937  -33.0705 H   0  0  0  0  0  0  0  0  0  0  0  0
   -7.0934   20.0331  -30.1813 H   0  0  0  0  0  0  0  0  0  0  0  0
   -6.7494   17.6454  -30.7997 H   0  0  0  0  0  0  0  0  0  0  0  0
   -4.4013   16.4118  -32.0259 H   0  0  0  0  0  0  0  0  0  0  0  0
   -4.0340   14.0325  -32.6615 H   0  0  0  0  0  0  0  0  0  0  0  0
   -7.5151   14.1806  -35.2324 H   0  0  0  0  0  0  0  0  0  0  0  0
   -7.8781   16.5612  -34.6057 H   0  0  0  0  0  0  0  0  0  0  0  0
   -6.0562   18.8154  -34.9119 H   0  0  0  0  0  0  0  0  0  0  0  0
   -6.3967   21.2031  -34.2871 H   0  0  0  0  0  0  0  0  0  0  0  0
   -1.5860   25.6750  -30.0930 H   0  0  0  0  0  0  0  0  0  0  0  0
   -1.2236   22.9115  -29.9494 H   0  0  0  0  0  0  0  0  0  0  0  0
  1  2  3  0
  2  3  1  0
  3  4  2  0
  4  5  1  0
  5  6  2  0
  6  7  1  0
  7  8  1  0
  8  9  2  0
  8 10  2  0
  8 11  1  0
 11 12  2  0
 12 13  1  0
 13 14  2  0
 14 15  1  0
 15 16  2  0
 16 17  1  0
 17 18  2  0
 18 19  1  0
 19 20  1  0
 19 21  1  0
 19 22  1  0
 18 23  1  0
 23 24  2  0
 14 25  1  0
 25 26  2  0
  6 27  1  0
 27 28  1  0
 28 29  1  0
 28 30  2  0
 28 31  2  0
 27 32  2  0
 32  3  1  0
 26 11  1  0
 24 15  1  0
  4 33  1  0
  5 34  1  0
 12 35  1  0
 13 36  1  0
 16 37  1  0
 17 38  1  0
 23 39  1  0
 24 40  1  0
 25 41  1  0
 26 42  1  0
 29 43  1  0
 32 44  1  0
M  CHG  2   7  -1  29  -1
M  END
>  <UniqueID>  (17) 
16

>  <SMILES>  (17) 
N#Cc1ccc([N-]S(=O)(=O)c2ccc(-c3ccc(C(F)(F)F)cc3)cc2)c(S([NH-])(=O)=O)c1

>  <Energy>  (17) 
56.65877666655335

>  <Genealogy>  (17) 
N#Cc1ccc([N-]S(=O)(=O)c2ccc(-c3ccc(C(F)(F)F)cc3)cc2)c(S([NH-])(=O)=O)c1 (protonated)
N#Cc1ccc([N-]S(=O)(=O)c2ccc(-c3ccc(C(F)(F)F)cc3)cc2)c(S([NH-])(=O)=O)c1 (3D coordinates assigned)
N#Cc1ccc([N-]S(=O)(=O)c2ccc(-c3ccc(C(F)(F)F)cc3)cc2)c(S([NH-])(=O)=O)c1 (optimized conformer: 56.65877666655335 kcal/mol)

>  <smiles>  (17) 
N#Cc1ccc(NS(=O)(=O)c2ccc(-c3ccc(C(F)(F)F)cc3)cc2)c(S(N)(=O)=O)c1

>  <score_type>  (17) 
oracle

>  <origin>  (17) 
adgpu

>  <m_score__min__energy>  (17) 
-12.19

>  <m_primary>  (17) 
energy

$$$$
17:0
     RDKit          3D

 34 35  0  0  0  0  0  0  0  0999 V2000
   -8.6610   20.8670  -32.3320 C   0  0  0  0  0  0  0  0  0  0  0  0
   -7.5390   21.6520  -31.7190 C   0  0  0  0  0  0  0  0  0  0  0  0
   -6.2730   21.6930  -32.3270 C   0  0  0  0  0  0  0  0  0  0  0  0
   -5.2350   22.4280  -31.7450 C   0  0  0  0  0  0  0  0  0  0  0  0
   -5.4510   23.1240  -30.5470 C   0  0  0  0  0  0  0  0  0  0  0  0
   -4.1510   24.0440  -29.7970 S   0  0  0  0  0  0  0  0  0  0  0  0
   -4.5650   24.4220  -28.4030 O   0  0  0  0  0  0  0  0  0  0  0  0
   -3.8590   25.2970  -30.5750 O   0  0  0  0  0  0  0  0  0  0  0  0
   -2.7150   23.0730  -29.7200 N   0  0  0  0  0  0  0  0  0  0  0  0
   -2.2850   22.3080  -28.5830 C   0  0  0  0  0  0  0  0  0  0  0  0
   -2.7530   20.9980  -28.3590 C   0  0  0  0  0  0  0  0  0  0  0  0
   -2.3240   20.2740  -27.2460 C   0  0  0  0  0  0  0  0  0  0  0  0
   -1.4270   20.8440  -26.3440 C   0  0  0  0  0  0  0  0  0  0  0  0
   -0.9510   22.1400  -26.5540 C   0  0  0  0  0  0  0  0  0  0  0  0
   -1.3720   22.8790  -27.6710 C   0  0  0  0  0  0  0  0  0  0  0  0
   -0.7440   24.5130  -27.9250 S   0  0  0  0  0  0  0  0  0  0  0  0
   -1.8040   25.3920  -28.9710 N   0  0  0  0  0  0  0  0  0  0  0  0
    0.6210   24.4540  -28.5510 O   0  0  0  0  0  0  0  0  0  0  0  0
   -0.6340   25.2230  -26.6040 O   0  0  0  0  0  0  0  0  0  0  0  0
   -6.7130   23.0830  -29.9400 C   0  0  0  0  0  0  0  0  0  0  0  0
   -7.7520   22.3530  -30.5240 C   0  0  0  0  0  0  0  0  0  0  0  0
   -9.2824   20.4322  -31.5352 H   0  0  0  0  0  0  0  0  0  0  0  0
   -9.2765   21.5325  -32.9551 H   0  0  0  0  0  0  0  0  0  0  0  0
   -8.2467   20.0607  -32.9551 H   0  0  0  0  0  0  0  0  0  0  0  0
   -6.0975   21.1449  -33.2644 H   0  0  0  0  0  0  0  0  0  0  0  0
   -4.2473   22.4601  -32.2280 H   0  0  0  0  0  0  0  0  0  0  0  0
   -3.4616   20.5428  -29.0666 H   0  0  0  0  0  0  0  0  0  0  0  0
   -2.6943   19.2516  -27.0801 H   0  0  0  0  0  0  0  0  0  0  0  0
   -1.0936   20.2721  -25.4655 H   0  0  0  0  0  0  0  0  0  0  0  0
   -0.2420   22.5844  -25.8400 H   0  0  0  0  0  0  0  0  0  0  0  0
   -2.7800   25.2100  -28.6480 H   0  0  0  0  0  0  0  0  0  0  0  0
   -1.7190   24.9680  -29.9220 H   0  0  0  0  0  0  0  0  0  0  0  0
   -6.8868   23.6275  -29.0001 H   0  0  0  0  0  0  0  0  0  0  0  0
   -8.7413   22.3285  -30.0437 H   0  0  0  0  0  0  0  0  0  0  0  0
  1  2  1  0
  2  3  2  0
  3  4  1  0
  4  5  2  0
  5  6  1  0
  6  7  2  0
  6  8  2  0
  6  9  1  0
  9 10  1  0
 10 11  2  0
 11 12  1  0
 12 13  2  0
 13 14  1  0
 14 15  2  0
 15 16  1  0
 16 17  1  0
 16 18  2  0
 16 19  2  0
  5 20  1  0
 20 21  2  0
 21  2  1  0
 15 10  1  0
  1 22  1  0
  1 23  1  0
  1 24  1  0
  3 25  1  0
  4 26  1  0
 11 27  1  0
 12 28  1  0
 13 29  1  0
 14 30  1  0
 17 31  1  0
 17 32  1  0
 20 33  1  0
 21 34  1  0
M  CHG  1   9  -1
M  END
>  <UniqueID>  (18) 
17

>  <SMILES>  (18) 
Cc1ccc(S(=O)(=O)[N-]c2ccccc2S(N)(=O)=O)cc1

>  <Energy>  (18) 
36.25056201095824

>  <Genealogy>  (18) 
Cc1ccc(S(=O)(=O)[N-]c2ccccc2S(N)(=O)=O)cc1 (protonated)
Cc1ccc(S(=O)(=O)[N-]c2ccccc2S(N)(=O)=O)cc1 (3D coordinates assigned)
Cc1ccc(S(=O)(=O)[N-]c2ccccc2S(N)(=O)=O)cc1 (optimized conformer: 36.25056201095824 kcal/mol)

>  <smiles>  (18) 
Cc1ccc(S(=O)(=O)Nc2ccccc2S(N)(=O)=O)cc1

>  <score_type>  (18) 
oracle

>  <origin>  (18) 
adgpu

>  <m_score__min__energy>  (18) 
-9.2699999999999996

>  <m_primary>  (18) 
energy

$$$$
18:0
     RDKit          3D

 56 59  0  0  0  0  0  0  0  0999 V2000
   -2.5720   16.3630  -35.2600 C   0  0  0  0  0  0  0  0  0  0  0  0
   -3.9470   16.6610  -35.4780 O   0  0  0  0  0  0  0  0  0  0  0  0
   -4.8190   17.1500  -34.4910 C   0  0  0  0  0  0  0  0  0  0  0  0
   -5.5770   18.3240  -34.6720 C   0  0  0  0  0  0  0  0  0  0  0  0
   -6.4310   18.7860  -33.6560 C   0  0  0  0  0  0  0  0  0  0  0  0
   -7.2310   20.0490  -33.8490 C   0  0  0  0  0  0  0  0  0  0  0  0
   -7.1600   20.9010  -32.6550 N   0  0  0  0  0  0  0  0  0  0  0  0
   -6.0140   21.6510  -32.2570 C   0  0  0  0  0  0  0  0  0  0  0  0
   -4.9250   21.6390  -32.8900 O   0  0  0  0  0  0  0  0  0  0  0  0
   -6.2300   22.4060  -31.0740 N   0  0  0  0  0  0  0  0  0  0  0  0
   -5.3030   23.2660  -30.3880 C   0  0  0  0  0  0  0  0  0  0  0  0
   -4.7970   24.4750  -30.8330 C   0  0  0  0  0  0  0  0  0  0  0  0
   -3.9730   24.9750  -29.8910 N   0  0  0  0  0  0  0  0  0  0  0  0
   -3.9460   24.1180  -28.8800 N   0  0  0  0  0  0  0  0  0  0  0  0
   -3.2030   24.3440  -27.6460 C   0  0  0  0  0  0  0  0  0  0  0  0
   -1.7490   24.5540  -27.9550 C   0  0  0  0  0  0  0  0  0  0  0  0
   -0.8760   25.4510  -27.3680 C   0  0  0  0  0  0  0  0  0  0  0  0
   -1.2120   26.4780  -26.3370 C   0  0  0  0  0  0  0  0  0  0  0  0
    0.3640   25.2520  -27.8550 N   0  0  0  0  0  0  0  0  0  0  0  0
    0.2880   24.2670  -28.7040 O   0  0  0  0  0  0  0  0  0  0  0  0
   -0.9420   23.8130  -28.7970 C   0  0  0  0  0  0  0  0  0  0  0  0
   -1.3480   22.6560  -29.6500 C   0  0  0  0  0  0  0  0  0  0  0  0
   -4.7470   23.0670  -29.1410 C   0  0  0  0  0  0  0  0  0  0  0  0
   -7.5760   22.1010  -30.7110 C   0  0  0  0  0  0  0  0  0  0  0  0
   -8.1460   22.5770  -29.6930 O   0  0  0  0  0  0  0  0  0  0  0  0
   -8.2290   21.1390  -31.6720 C   0  0  0  0  0  0  0  0  0  0  0  0
   -8.6060   19.8390  -30.9460 C   0  0  0  0  0  0  0  0  0  0  0  0
   -9.4550   21.7920  -32.3260 C   0  0  0  0  0  0  0  0  0  0  0  0
   -6.5360   18.0580  -32.4620 C   0  0  0  0  0  0  0  0  0  0  0  0
   -5.7880   16.8920  -32.2800 C   0  0  0  0  0  0  0  0  0  0  0  0
   -4.9330   16.4400  -33.2880 C   0  0  0  0  0  0  0  0  0  0  0  0
   -4.1950   15.2790  -33.0930 O   0  0  0  0  0  0  0  0  0  0  0  0
   -2.3731   16.3199  -34.1790 H   0  0  0  0  0  0  0  0  0  0  0  0
   -2.3305   15.3917  -35.7163 H   0  0  0  0  0  0  0  0  0  0  0  0
   -1.9500   17.1472  -35.7163 H   0  0  0  0  0  0  0  0  0  0  0  0
   -5.4997   18.8833  -35.6160 H   0  0  0  0  0  0  0  0  0  0  0  0
   -6.8289   20.6020  -34.7107 H   0  0  0  0  0  0  0  0  0  0  0  0
   -8.2821   19.7763  -34.0245 H   0  0  0  0  0  0  0  0  0  0  0  0
   -5.0294   24.9500  -31.7976 H   0  0  0  0  0  0  0  0  0  0  0  0
   -3.6005   25.2357  -27.1393 H   0  0  0  0  0  0  0  0  0  0  0  0
   -3.3108   23.4655  -26.9928 H   0  0  0  0  0  0  0  0  0  0  0  0
   -1.0719   26.0497  -25.3335 H   0  0  0  0  0  0  0  0  0  0  0  0
   -0.5522   27.3496  -26.4591 H   0  0  0  0  0  0  0  0  0  0  0  0
   -2.2594   26.7911  -26.4591 H   0  0  0  0  0  0  0  0  0  0  0  0
   -1.6438   21.8131  -29.0080 H   0  0  0  0  0  0  0  0  0  0  0  0
   -2.1971   22.9488  -30.2851 H   0  0  0  0  0  0  0  0  0  0  0  0
   -0.5021   22.3540  -30.2851 H   0  0  0  0  0  0  0  0  0  0  0  0
   -4.9255   22.2062  -28.4799 H   0  0  0  0  0  0  0  0  0  0  0  0
   -8.5595   19.9995  -29.8588 H   0  0  0  0  0  0  0  0  0  0  0  0
   -9.6269   19.5434  -31.2297 H   0  0  0  0  0  0  0  0  0  0  0  0
   -7.9017   19.0431  -31.2297 H   0  0  0  0  0  0  0  0  0  0  0  0
  -10.1377   22.1556  -31.5439 H   0  0  0  0  0  0  0  0  0  0  0  0
   -9.1306   22.6368  -32.9513 H   0  0  0  0  0  0  0  0  0  0  0  0
   -9.9751   21.0514  -32.9513 H   0  0  0  0  0  0  0  0  0  0  0  0
   -7.2100   18.4064  -31.6655 H   0  0  0  0  0  0  0  0  0  0  0  0
   -5.8727   16.3279  -31.3395 H   0  0  0  0  0  0  0  0  0  0  0  0
  1  2  1  0
  2  3  1  0
  3  4  2  0
  4  5  1  0
  5  6  1  0
  6  7  1  0
  7  8  1  0
  8  9  2  0
  8 10  1  0
 10 11  1  0
 11 12  1  0
 12 13  2  0
 13 14  1  0
 14 15  1  0
 15 16  1  0
 16 17  1  0
 17 18  1  0
 17 19  2  0
 19 20  1  0
 20 21  1  0
 21 22  1  0
 14 23  1  0
 10 24  1  0
 24 25  2  0
 24 26  1  0
 26 27  1  0
 26 28  1  0
  5 29  2  0
 29 30  1  0
 30 31  2  0
 31 32  1  0
 31  3  1  0
 26  7  1  0
 23 11  2  0
 21 16  2  0
  1 33  1  0
  1 34  1  0
  1 35  1  0
  4 36  1  0
  6 37  1  0
  6 38  1  0
 12 39  1  0
 15 40  1  0
 15 41  1  0
 18 42  1  0
 18 43  1  0
 18 44  1  0
 22 45  1  0
 22 46  1  0
 22 47  1  0
 23 48  1  0
 27 49  1  0
 27 50  1  0
 27 51  1  0
 28 52  1  0
 28 53  1  0
 28 54  1  0
 29 55  1  0
 30 56  1  0
M  CHG  1  32  -1
M  END
>  <UniqueID>  (19) 
18

>  <SMILES>  (19) 
COc1cc(CN2C(=O)N(c3cnn(Cc4c(C)noc4C)c3)C(=O)C2(C)C)ccc1[O-]

>  <Energy>  (19) 
132.10529993837758

>  <Genealogy>  (19) 
COc1cc(CN2C(=O)N(c3cnn(Cc4c(C)noc4C)c3)C(=O)C2(C)C)ccc1[O-] (protonated)
COc1cc(CN2C(=O)N(c3cnn(Cc4c(C)noc4C)c3)C(=O)C2(C)C)ccc1[O-] (3D coordinates assigned)
COc1cc(CN2C(=O)N(c3cnn(Cc4c(C)noc4C)c3)C(=O)C2(C)C)ccc1[O-] (nonaromatic ring conformer: 132.10529993837758 kcal/mol)

>  <smiles>  (19) 
COc1cc(CN2C(=O)N(c3cnn(Cc4c(C)noc4C)c3)C(=O)C2(C)C)ccc1O

>  <score_type>  (19) 
oracle

>  <origin>  (19) 
adgpu

>  <m_score__min__energy>  (19) 
-11.869999999999999

>  <m_primary>  (19) 
energy

$$$$
19:0
     RDKit          3D

 38 39  0  0  0  0  0  0  0  0999 V2000
   -3.5100   22.1360  -28.2720 C   0  0  0  0  0  0  0  0  0  0  0  0
   -2.2200   22.1080  -28.9780 N   0  0  0  0  0  0  0  0  0  0  0  0
   -2.1040   20.9140  -29.8310 C   0  0  0  0  0  0  0  0  0  0  0  0
   -1.9310   23.3660  -29.7050 C   0  0  0  0  0  0  0  0  0  0  0  0
   -2.8230   24.5530  -29.2990 C   0  0  0  0  0  0  0  0  0  0  0  0
   -3.5020   25.0960  -30.4770 N   0  0  0  0  0  0  0  0  0  0  0  0
   -5.1710   24.6060  -30.5240 S   0  0  0  0  0  0  0  0  0  0  0  0
   -5.6700   24.4220  -29.1180 O   0  0  0  0  0  0  0  0  0  0  0  0
   -6.0030   25.6670  -31.1880 O   0  0  0  0  0  0  0  0  0  0  0  0
   -5.3260   23.0810  -31.3910 C   0  0  0  0  0  0  0  0  0  0  0  0
   -6.5350   22.3770  -31.3500 C   0  0  0  0  0  0  0  0  0  0  0  0
   -6.6650   21.1570  -32.0210 C   0  0  0  0  0  0  0  0  0  0  0  0
   -5.5830   20.6220  -32.7400 C   0  0  0  0  0  0  0  0  0  0  0  0
   -5.7180   19.3310  -33.4480 C   0  0  0  0  0  0  0  0  0  0  0  0
   -6.0960   19.2180  -34.7380 N   0  0  0  0  0  0  0  0  0  0  0  0
   -6.0950   17.9430  -34.9780 O   0  0  0  0  0  0  0  0  0  0  0  0
   -5.7320   17.2930  -33.8990 C   0  0  0  0  0  0  0  0  0  0  0  0
   -5.6460   15.8060  -33.8010 C   0  0  0  0  0  0  0  0  0  0  0  0
   -6.8540   15.2500  -34.1770 F   0  0  0  0  0  0  0  0  0  0  0  0
   -4.6490   15.3350  -34.6350 F   0  0  0  0  0  0  0  0  0  0  0  0
   -5.3590   15.4380  -32.5000 F   0  0  0  0  0  0  0  0  0  0  0  0
   -5.4810   18.1310  -32.8760 N   0  0  0  0  0  0  0  0  0  0  0  0
   -4.3690   21.3300  -32.7730 C   0  0  0  0  0  0  0  0  0  0  0  0
   -4.2410   22.5500  -32.1020 C   0  0  0  0  0  0  0  0  0  0  0  0
   -3.3339   22.1322  -27.1862 H   0  0  0  0  0  0  0  0  0  0  0  0
   -4.0609   23.0463  -28.5509 H   0  0  0  0  0  0  0  0  0  0  0  0
   -4.0999   21.2504  -28.5509 H   0  0  0  0  0  0  0  0  0  0  0  0
   -2.0170   20.0184  -29.1983 H   0  0  0  0  0  0  0  0  0  0  0  0
   -2.9981   20.8288  -30.4661 H   0  0  0  0  0  0  0  0  0  0  0  0
   -1.2102   21.0025  -30.4661 H   0  0  0  0  0  0  0  0  0  0  0  0
   -0.8834   23.6414  -29.5136 H   0  0  0  0  0  0  0  0  0  0  0  0
   -2.1346   23.1688  -30.7679 H   0  0  0  0  0  0  0  0  0  0  0  0
   -3.5737   24.2120  -28.5709 H   0  0  0  0  0  0  0  0  0  0  0  0
   -2.1967   25.3379  -28.8499 H   0  0  0  0  0  0  0  0  0  0  0  0
   -7.3872   22.7855  -30.7871 H   0  0  0  0  0  0  0  0  0  0  0  0
   -7.6203   20.6128  -31.9857 H   0  0  0  0  0  0  0  0  0  0  0  0
   -3.5135   20.9212  -33.3308 H   0  0  0  0  0  0  0  0  0  0  0  0
   -3.2858   23.0948  -32.1322 H   0  0  0  0  0  0  0  0  0  0  0  0
  1  2  1  0
  2  3  1  0
  2  4  1  0
  4  5  1  0
  5  6  1  0
  6  7  1  0
  7  8  2  0
  7  9  2  0
  7 10  1  0
 10 11  2  0
 11 12  1  0
 12 13  2  0
 13 14  1  0
 14 15  2  0
 15 16  1  0
 16 17  1  0
 17 18  1  0
 18 19  1  0
 18 20  1  0
 18 21  1  0
 17 22  2  0
 13 23  1  0
 23 24  2  0
 24 10  1  0
 22 14  1  0
  1 25  1  0
  1 26  1  0
  1 27  1  0
  3 28  1  0
  3 29  1  0
  3 30  1  0
  4 31  1  0
  4 32  1  0
  5 33  1  0
  5 34  1  0
 11 35  1  0
 12 36  1  0
 23 37  1  0
 24 38  1  0
M  CHG  1   6  -1
M  END
>  <UniqueID>  (20) 
19

>  <SMILES>  (20) 
CN(C)CC[N-]S(=O)(=O)c1ccc(-c2noc(C(F)(F)F)n2)cc1

>  <Energy>  (20) 
70.95831540610347

>  <Genealogy>  (20) 
CN(C)CC[N-]S(=O)(=O)c1ccc(-c2noc(C(F)(F)F)n2)cc1 (protonated)
CN(C)CC[N-]S(=O)(=O)c1ccc(-c2noc(C(F)(F)F)n2)cc1 (3D coordinates assigned)
CN(C)CC[N-]S(=O)(=O)c1ccc(-c2noc(C(F)(F)F)n2)cc1 (optimized conformer: 70.95831540610347 kcal/mol)

>  <smiles>  (20) 
CN(C)CCNS(=O)(=O)c1ccc(-c2noc(C(F)(F)F)n2)cc1

>  <score_type>  (20) 
oracle

>  <origin>  (20) 
adgpu

>  <m_score__min__energy>  (20) 
-8.5399999999999991

>  <m_primary>  (20) 
energy

$$$$
20:0
     RDKit          3D

 53 55  0  0  0  0  0  0  0  0999 V2000
   -8.9220   19.4880  -32.6220 C   0  0  0  0  0  0  0  0  0  0  0  0
   -7.7360   20.3120  -32.3570 N   0  0  0  0  0  0  0  0  0  0  0  0
   -6.7440   19.5420  -31.5970 C   0  0  0  0  0  0  0  0  0  0  0  0
   -8.1950   21.7380  -31.4590 S   0  0  0  0  0  0  0  0  0  0  0  0
   -8.8060   21.3250  -30.1470 O   0  0  0  0  0  0  0  0  0  0  0  0
   -9.2330   22.5050  -32.2320 O   0  0  0  0  0  0  0  0  0  0  0  0
   -6.8100   22.7860  -31.1500 C   0  0  0  0  0  0  0  0  0  0  0  0
   -6.8850   24.1560  -31.4340 C   0  0  0  0  0  0  0  0  0  0  0  0
   -5.7880   24.9850  -31.1900 C   0  0  0  0  0  0  0  0  0  0  0  0
   -4.6100   24.4560  -30.6550 C   0  0  0  0  0  0  0  0  0  0  0  0
   -3.5150   25.2930  -30.4690 O   0  0  0  0  0  0  0  0  0  0  0  0
   -4.5330   23.0860  -30.3360 C   0  0  0  0  0  0  0  0  0  0  0  0
   -3.3390   22.5090  -29.7840 N   0  0  0  0  0  0  0  0  0  0  0  0
   -2.9540   22.6710  -28.4090 C   0  0  0  0  0  0  0  0  0  0  0  0
   -3.8130   23.0390  -27.5600 O   0  0  0  0  0  0  0  0  0  0  0  0
   -1.5700   22.3730  -27.9650 C   0  0  0  0  0  0  0  0  0  0  0  0
   -1.1320   21.0410  -27.8620 C   0  0  0  0  0  0  0  0  0  0  0  0
    0.1670   20.7540  -27.4330 C   0  0  0  0  0  0  0  0  0  0  0  0
    1.0390   21.7900  -27.0950 C   0  0  0  0  0  0  0  0  0  0  0  0
    0.6150   23.1220  -27.1800 C   0  0  0  0  0  0  0  0  0  0  0  0
    1.7090   24.4330  -26.7300 S   0  0  0  0  0  0  0  0  0  0  0  0
    2.9240   23.8570  -26.0570 O   0  0  0  0  0  0  0  0  0  0  0  0
    2.1630   25.1440  -27.9760 O   0  0  0  0  0  0  0  0  0  0  0  0
    0.9440   25.5810  -25.6600 N   0  0  0  0  0  0  0  0  0  0  0  0
   -0.0770   26.3570  -26.3780 C   0  0  0  0  0  0  0  0  0  0  0  0
   -0.7200   27.3860  -25.4240 C   0  0  0  0  0  0  0  0  0  0  0  0
   -0.3170   27.1980  -24.0780 O   0  0  0  0  0  0  0  0  0  0  0  0
   -0.5420   25.8560  -23.6920 C   0  0  0  0  0  0  0  0  0  0  0  0
    0.3400   24.8890  -24.5080 C   0  0  0  0  0  0  0  0  0  0  0  0
   -0.6860   23.4100  -27.6150 C   0  0  0  0  0  0  0  0  0  0  0  0
   -5.6310   22.2560  -30.6090 C   0  0  0  0  0  0  0  0  0  0  0  0
   -9.3719   19.1754  -31.6681 H   0  0  0  0  0  0  0  0  0  0  0  0
   -9.6538   20.0732  -33.1982 H   0  0  0  0  0  0  0  0  0  0  0  0
   -8.6289   18.5980  -33.1982 H   0  0  0  0  0  0  0  0  0  0  0  0
   -6.9204   19.6789  -30.5199 H   0  0  0  0  0  0  0  0  0  0  0  0
   -6.8348   18.4755  -31.8508 H   0  0  0  0  0  0  0  0  0  0  0  0
   -5.7334   19.8945  -31.8508 H   0  0  0  0  0  0  0  0  0  0  0  0
   -7.8107   24.5798  -31.8504 H   0  0  0  0  0  0  0  0  0  0  0  0
   -5.8512   26.0589  -31.4198 H   0  0  0  0  0  0  0  0  0  0  0  0
   -2.8330   21.7970  -30.3570 H   0  0  0  0  0  0  0  0  0  0  0  0
   -1.8161   20.2193  -28.1207 H   0  0  0  0  0  0  0  0  0  0  0  0
    0.5029   19.7090  -27.3616 H   0  0  0  0  0  0  0  0  0  0  0  0
    2.0615   21.5598  -26.7611 H   0  0  0  0  0  0  0  0  0  0  0  0
    0.3919   26.8847  -27.2216 H   0  0  0  0  0  0  0  0  0  0  0  0
   -0.8542   25.6747  -26.7528 H   0  0  0  0  0  0  0  0  0  0  0  0
   -0.4255   28.3966  -25.7434 H   0  0  0  0  0  0  0  0  0  0  0  0
   -1.8108   27.2515  -25.4702 H   0  0  0  0  0  0  0  0  0  0  0  0
   -0.3043   25.7446  -22.6238 H   0  0  0  0  0  0  0  0  0  0  0  0
   -1.5975   25.6102  -23.8805 H   0  0  0  0  0  0  0  0  0  0  0  0
    1.1397   24.4975  -23.8621 H   0  0  0  0  0  0  0  0  0  0  0  0
   -0.2880   24.0658  -24.8796 H   0  0  0  0  0  0  0  0  0  0  0  0
   -1.0188   24.4562  -27.6833 H   0  0  0  0  0  0  0  0  0  0  0  0
   -5.5656   21.1788  -30.3962 H   0  0  0  0  0  0  0  0  0  0  0  0
  1  2  1  0
  2  3  1  0
  2  4  1  0
  4  5  2  0
  4  6  2  0
  4  7  1  0
  7  8  2  0
  8  9  1  0
  9 10  2  0
 10 11  1  0
 10 12  1  0
 12 13  1  0
 13 14  1  0
 14 15  2  0
 14 16  1  0
 16 17  2  0
 17 18  1  0
 18 19  2  0
 19 20  1  0
 20 21  1  0
 21 22  2  0
 21 23  2  0
 21 24  1  0
 24 25  1  0
 25 26  1  0
 26 27  1  0
 27 28  1  0
 28 29  1  0
 20 30  2  0
 12 31  2  0
 31  7  1  0
 30 16  1  0
 29 24  1  0
  1 32  1  0
  1 33  1  0
  1 34  1  0
  3 35  1  0
  3 36  1  0
  3 37  1  0
  8 38  1  0
  9 39  1  0
 13 40  1  0
 17 41  1  0
 18 42  1  0
 19 43  1  0
 25 44  1  0
 25 45  1  0
 26 46  1  0
 26 47  1  0
 28 48  1  0
 28 49  1  0
 29 50  1  0
 29 51  1  0
 30 52  1  0
 31 53  1  0
M  CHG  1  11  -1
M  END
>  <UniqueID>  (21) 
20

>  <SMILES>  (21) 
CN(C)S(=O)(=O)c1ccc([O-])c(NC(=O)c2cccc(S(=O)(=O)N3CCOCC3)c2)c1

>  <Energy>  (21) 
65.53615970371875

>  <Genealogy>  (21) 
CN(C)S(=O)(=O)c1ccc([O-])c(NC(=O)c2cccc(S(=O)(=O)N3CCOCC3)c2)c1 (protonated)
CN(C)S(=O)(=O)c1ccc([O-])c(NC(=O)c2cccc(S(=O)(=O)N3CCOCC3)c2)c1 (3D coordinates assigned)
CN(C)S(=O)(=O)c1ccc([O-])c(NC(=O)c2cccc(S(=O)(=O)N3CCOCC3)c2)c1 (nonaromatic ring conformer: 65.53615970371875 kcal/mol)

>  <smiles>  (21) 
CN(C)S(=O)(=O)c1ccc(O)c(NC(=O)c2cccc(S(=O)(=O)N3CCOCC3)c2)c1

>  <score_type>  (21) 
oracle

>  <origin>  (21) 
adgpu

>  <m_score__min__energy>  (21) 
-13.210000000000001

>  <m_primary>  (21) 
energy

$$$$
21:0
     RDKit          3D

 44 45  0  0  0  0  0  0  0  0999 V2000
   -4.7073   20.1932  -31.1881 H   0  0  0  0  0  0  0  0  0  0  0  0
   -4.6120   20.8200  -32.0870 C   0  0  0  0  0  0  0  0  0  0  0  0
   -4.2710   22.2490  -31.9210 C   0  0  0  0  0  0  0  0  0  0  0  0
   -3.1500   22.6490  -32.3370 O   0  0  0  0  0  0  0  0  0  0  0  0
   -5.1870   23.2240  -31.2840 C   0  0  0  0  0  0  0  0  0  0  0  0
   -6.5830   23.0690  -31.4260 C   0  0  0  0  0  0  0  0  0  0  0  0
   -7.0730   21.9750  -32.1580 O   0  0  0  0  0  0  0  0  0  0  0  0
   -8.3450   21.3660  -31.9510 C   0  0  0  0  0  0  0  0  0  0  0  0
   -8.5364   21.2744  -30.8717 H   0  0  0  0  0  0  0  0  0  0  0  0
   -9.1280   21.9869  -32.4108 H   0  0  0  0  0  0  0  0  0  0  0  0
   -8.3523   20.3667  -32.4108 H   0  0  0  0  0  0  0  0  0  0  0  0
   -7.4470   24.0010  -30.8210 C   0  0  0  0  0  0  0  0  0  0  0  0
   -8.5357   23.8852  -30.9269 H   0  0  0  0  0  0  0  0  0  0  0  0
   -6.9330   25.0690  -30.0890 C   0  0  0  0  0  0  0  0  0  0  0  0
   -7.6176   25.7869  -29.6138 H   0  0  0  0  0  0  0  0  0  0  0  0
   -5.5550   25.2320  -29.9560 C   0  0  0  0  0  0  0  0  0  0  0  0
   -5.1584   26.0793  -29.3773 H   0  0  0  0  0  0  0  0  0  0  0  0
   -4.6680   24.3200  -30.5570 C   0  0  0  0  0  0  0  0  0  0  0  0
   -3.2750   24.4790  -30.4660 O   0  0  0  0  0  0  0  0  0  0  0  0
   -2.4400   23.7960  -29.5370 C   0  0  0  0  0  0  0  0  0  0  0  0
   -2.7488   24.0486  -28.5119 H   0  0  0  0  0  0  0  0  0  0  0  0
   -2.5317   22.7106  -29.6907 H   0  0  0  0  0  0  0  0  0  0  0  0
   -1.3944   24.1010  -29.6907 H   0  0  0  0  0  0  0  0  0  0  0  0
   -4.8100   20.2560  -33.2870 C   0  0  0  0  0  0  0  0  0  0  0  0
   -4.7220   20.8919  -34.1802 H   0  0  0  0  0  0  0  0  0  0  0  0
   -5.1410   18.8230  -33.4780 C   0  0  0  0  0  0  0  0  0  0  0  0
   -4.2790   18.0280  -34.2450 C   0  0  0  0  0  0  0  0  0  0  0  0
   -3.3725   18.4734  -34.6806 H   0  0  0  0  0  0  0  0  0  0  0  0
   -4.5570   16.6770  -34.4630 C   0  0  0  0  0  0  0  0  0  0  0  0
   -3.8616   16.0691  -35.0604 H   0  0  0  0  0  0  0  0  0  0  0  0
   -5.7180   16.0820  -33.9270 C   0  0  0  0  0  0  0  0  0  0  0  0
   -6.0080   14.6780  -34.1520 N   0  0  0  0  0  0  0  0  0  0  0  0
   -7.3430   14.2520  -34.5890 C   0  0  0  0  0  0  0  0  0  0  0  0
   -7.9706   14.0517  -33.7081 H   0  0  0  0  0  0  0  0  0  0  0  0
   -7.8024   15.0482  -35.1932 H   0  0  0  0  0  0  0  0  0  0  0  0
   -7.2564   13.3369  -35.1932 H   0  0  0  0  0  0  0  0  0  0  0  0
   -4.9710   13.6590  -33.9490 C   0  0  0  0  0  0  0  0  0  0  0  0
   -4.8143   13.5050  -32.8712 H   0  0  0  0  0  0  0  0  0  0  0  0
   -5.2903   12.7136  -34.4119 H   0  0  0  0  0  0  0  0  0  0  0  0
   -4.0313   13.9948  -34.4119 H   0  0  0  0  0  0  0  0  0  0  0  0
   -6.5910   16.8910  -33.1710 C   0  0  0  0  0  0  0  0  0  0  0  0
   -7.5059   16.4522  -32.7463 H   0  0  0  0  0  0  0  0  0  0  0  0
   -6.3100   18.2420  -32.9540 C   0  0  0  0  0  0  0  0  0  0  0  0
   -7.0090   18.8570  -32.3682 H   0  0  0  0  0  0  0  0  0  0  0  0
  1  2  1  0
  2  3  1  0
  3  4  2  0
  3  5  1  0
  5  6  2  0
  6  7  1  0
  7  8  1  0
  8  9  1  0
  8 10  1  0
  8 11  1  0
  6 12  1  0
 12 13  1  0
 12 14  2  0
 14 15  1  0
 14 16  1  0
 16 17  1  0
 16 18  2  0
 18 19  1  0
 19 20  1  0
 20 21  1  0
 20 22  1  0
 20 23  1  0
  2 24  2  0
 24 25  1  0
 24 26  1  0
 26 27  2  0
 27 28  1  0
 27 29  1  0
 29 30  1  0
 29 31  2  0
 31 32  1  0
 32 33  1  0
 33 34  1  0
 33 35  1  0
 33 36  1  0
 32 37  1  0
 37 38  1  0
 37 39  1  0
 37 40  1  0
 31 41  1  0
 41 42  1  0
 41 43  2  0
 43 44  1  0
 18  5  1  0
 43 26  1  0
M  END
>  <UniqueID>  (22) 
21

>  <SMILES>  (22) 
COc1cccc(OC)c1C(=O)/C=C/c1ccc(N(C)C)cc1

>  <Energy>  (22) 
52.94052583220696

>  <Genealogy>  (22) 
COc1cccc(OC)c1C(=O)/C=C/c1ccc(N(C)C)cc1 (cis-trans isomerization)
COc1cccc(OC)c1C(=O)/C=C/c1ccc(N(C)C)cc1 (3D coordinates assigned)
COc1cccc(OC)c1C(=O)/C=C/c1ccc(N(C)C)cc1 (optimized conformer: 52.94052583220696 kcal/mol)

>  <smiles>  (22) 
COc1cccc(OC)c1C(=O)C=Cc1ccc(N(C)C)cc1

>  <score_type>  (22) 
oracle

>  <origin>  (22) 
adgpu

>  <m_score__min__energy>  (22) 
-6.8600000000000003

>  <m_primary>  (22) 
energy

$$$$
22:0
     RDKit          3D

 65 69  0  0  0  0  0  0  0  0999 V2000
    0.0545   14.3033  -39.6233 H   0  0  0  0  0  0  0  0  0  0  0  0
   -0.5810   14.4700  -38.7410 C   0  0  0  0  0  0  0  0  0  0  0  0
   -1.9210   14.0720  -38.7590 C   0  0  0  0  0  0  0  0  0  0  0  0
   -2.3398   13.5918  -39.6556 H   0  0  0  0  0  0  0  0  0  0  0  0
   -2.7290   14.2840  -37.6380 C   0  0  0  0  0  0  0  0  0  0  0  0
   -3.7802   13.9601  -37.6515 H   0  0  0  0  0  0  0  0  0  0  0  0
   -2.2050   14.9080  -36.4960 C   0  0  0  0  0  0  0  0  0  0  0  0
   -3.0400   15.1360  -35.3490 N   0  0  0  0  0  0  0  0  0  0  0  0
   -3.9020   16.1600  -35.1940 C   0  0  0  0  0  0  0  0  0  0  0  0
   -4.0870   17.0740  -36.0410 O   0  0  0  0  0  0  0  0  0  0  0  0
   -4.5660   16.0300  -33.9960 C   0  0  0  0  0  0  0  0  0  0  0  0
   -5.6360   16.8710  -33.5400 N   0  0  0  0  0  0  0  0  0  0  0  0
   -5.5160   18.1320  -33.2570 C   0  0  0  0  0  0  0  0  0  0  0  0
   -4.4190   18.8400  -33.4040 O   0  0  0  0  0  0  0  0  0  0  0  0
   -4.6230   20.0690  -33.0270 N   0  0  0  0  0  0  0  0  0  0  0  0
   -3.9010   20.8220  -33.0570 H   0  0  0  0  0  0  0  0  0  0  0  0
   -5.9090   20.1900  -32.6250 C   0  0  0  0  0  0  0  0  0  0  0  0
   -6.5060   21.4390  -32.1020 C   0  0  0  0  0  0  0  0  0  0  0  0
   -7.8910   21.6690  -32.1700 C   0  0  0  0  0  0  0  0  0  0  0  0
   -8.5521   20.9062  -32.6071 H   0  0  0  0  0  0  0  0  0  0  0  0
   -8.4320   22.8640  -31.6840 C   0  0  0  0  0  0  0  0  0  0  0  0
   -9.5159   23.0403  -31.7475 H   0  0  0  0  0  0  0  0  0  0  0  0
   -7.6010   23.8350  -31.1180 C   0  0  0  0  0  0  0  0  0  0  0  0
   -8.0326   24.7678  -30.7261 H   0  0  0  0  0  0  0  0  0  0  0  0
   -6.2190   23.6200  -31.0500 C   0  0  0  0  0  0  0  0  0  0  0  0
   -5.1520   24.7990  -30.3030 S   0  0  0  0  0  0  0  0  0  0  0  0
   -5.3230   24.8280  -28.8090 O   0  0  0  0  0  0  0  0  0  0  0  0
   -5.4840   26.1620  -30.8390 O   0  0  0  0  0  0  0  0  0  0  0  0
   -3.5120   24.4160  -30.7150 N   0  0  0  0  0  0  0  0  0  0  0  0
   -2.7600   23.2950  -30.2220 C   0  0  0  0  0  0  0  0  0  0  0  0
   -2.5290   22.1570  -31.0130 C   0  0  0  0  0  0  0  0  0  0  0  0
   -2.8868   22.1339  -32.0529 H   0  0  0  0  0  0  0  0  0  0  0  0
   -1.8490   21.0550  -30.4900 C   0  0  0  0  0  0  0  0  0  0  0  0
   -1.6834   20.1662  -31.1166 H   0  0  0  0  0  0  0  0  0  0  0  0
   -1.3770   21.0760  -29.1720 C   0  0  0  0  0  0  0  0  0  0  0  0
   -0.6400   19.8890  -28.6250 C   0  0  0  0  0  0  0  0  0  0  0  0
   -0.6593   19.9201  -27.5256 H   0  0  0  0  0  0  0  0  0  0  0  0
   -1.1232   18.9646  -28.9742 H   0  0  0  0  0  0  0  0  0  0  0  0
    0.4028   19.9121  -28.9742 H   0  0  0  0  0  0  0  0  0  0  0  0
   -1.5560   22.2310  -28.3940 C   0  0  0  0  0  0  0  0  0  0  0  0
   -1.1450   22.2706  -27.3744 H   0  0  0  0  0  0  0  0  0  0  0  0
   -2.2550   23.3360  -28.9060 C   0  0  0  0  0  0  0  0  0  0  0  0
   -2.4280   24.5700  -28.0610 C   0  0  0  0  0  0  0  0  0  0  0  0
   -2.3893   24.2941  -26.9969 H   0  0  0  0  0  0  0  0  0  0  0  0
   -1.6211   25.2834  -28.2844 H   0  0  0  0  0  0  0  0  0  0  0  0
   -3.4000   25.0341  -28.2844 H   0  0  0  0  0  0  0  0  0  0  0  0
   -5.6760   22.4260  -31.5440 C   0  0  0  0  0  0  0  0  0  0  0  0
   -4.5897   22.2600  -31.4944 H   0  0  0  0  0  0  0  0  0  0  0  0
   -6.5150   18.9520  -32.7720 C   0  0  0  0  0  0  0  0  0  0  0  0
   -7.8540   18.5980  -32.4260 N   0  0  0  0  0  0  0  0  0  0  0  0
   -8.1510   18.2360  -31.2690 O   0  0  0  0  0  0  0  0  0  0  0  0
   -4.0970   14.8350  -33.4550 C   0  0  0  0  0  0  0  0  0  0  0  0
   -4.5950   14.1520  -32.2150 C   0  0  0  0  0  0  0  0  0  0  0  0
   -4.2118   14.6775  -31.3279 H   0  0  0  0  0  0  0  0  0  0  0  0
   -5.6948   14.1681  -32.2041 H   0  0  0  0  0  0  0  0  0  0  0  0
   -4.2434   13.1098  -32.2041 H   0  0  0  0  0  0  0  0  0  0  0  0
   -3.1410   14.3400  -34.2850 N   0  0  0  0  0  0  0  0  0  0  0  0
   -2.3810   13.1030  -34.0830 C   0  0  0  0  0  0  0  0  0  0  0  0
   -2.2657   12.9153  -33.0053 H   0  0  0  0  0  0  0  0  0  0  0  0
   -2.9187   12.2625  -34.5461 H   0  0  0  0  0  0  0  0  0  0  0  0
   -1.3882   13.2028  -34.5461 H   0  0  0  0  0  0  0  0  0  0  0  0
   -0.8560   15.2990  -36.4810 C   0  0  0  0  0  0  0  0  0  0  0  0
   -0.4337   15.7787  -35.5857 H   0  0  0  0  0  0  0  0  0  0  0  0
   -0.0490   15.0800  -37.6010 C   0  0  0  0  0  0  0  0  0  0  0  0
    1.0068   15.3882  -37.5855 H   0  0  0  0  0  0  0  0  0  0  0  0
  1  2  1  0
  2  3  2  0
  3  4  1  0
  3  5  1  0
  5  6  1  0
  5  7  2  0
  7  8  1  0
  8  9  1  0
  9 10  2  0
  9 11  1  0
 11 12  1  0
 12 13  2  0
 13 14  1  0
 14 15  1  0
 15 16  1  0
 15 17  1  0
 17 18  1  0
 18 19  2  0
 19 20  1  0
 19 21  1  0
 21 22  1  0
 21 23  2  0
 23 24  1  0
 23 25  1  0
 25 26  1  0
 26 27  2  0
 26 28  2  0
 26 29  1  0
 29 30  1  0
 30 31  2  0
 31 32  1  0
 31 33  1  0
 33 34  1  0
 33 35  2  0
 35 36  1  0
 36 37  1  0
 36 38  1  0
 36 39  1  0
 35 40  1  0
 40 41  1  0
 40 42  2  0
 42 43  1  0
 43 44  1  0
 43 45  1  0
 43 46  1  0
 25 47  2  0
 47 48  1  0
 17 49  2  0
 49 50  1  0
 50 51  2  0
 11 52  2  0
 52 53  1  0
 53 54  1  0
 53 55  1  0
 53 56  1  0
 52 57  1  0
 57 58  1  0
 58 59  1  0
 58 60  1  0
 58 61  1  0
  7 62  1  0
 62 63  1  0
 62 64  2  0
 64 65  1  0
 64  2  1  0
 57  8  1  0
 49 13  1  0
 47 18  1  0
 42 30  1  0
M  CHG  1  29  -1
M  END
>  <UniqueID>  (23) 
22

>  <SMILES>  (23) 
Cc1ccc([N-]S(=O)(=O)c2cccc(-c3[nH]o/c(=N\c4c(C)n(C)n(-c5ccccc5)c4=O)c3N=O)c2)c(C)c1

>  <Energy>  (23) 
159.916308013201

>  <Genealogy>  (23) 
Cc1ccc([N-]S(=O)(=O)c2cccc(-c3[nH]oc(=Nc4c(C)n(C)n(-c5ccccc5)c4=O)c3N=O)c2)c(C)c1 (protonated)
Cc1ccc([N-]S(=O)(=O)c2cccc(-c3[nH]o/c(=N\c4c(C)n(C)n(-c5ccccc5)c4=O)c3N=O)c2)c(C)c1 (cis-trans isomerization)
Cc1ccc([N-]S(=O)(=O)c2cccc(-c3[nH]o/c(=N\c4c(C)n(C)n(-c5ccccc5)c4=O)c3N=O)c2)c(C)c1 (3D coordinates assigned)
Cc1ccc([N-]S(=O)(=O)c2cccc(-c3[nH]o/c(=N\c4c(C)n(C)n(-c5ccccc5)c4=O)c3N=O)c2)c(C)c1 (optimized conformer: 159.916308013201 kcal/mol)

>  <smiles>  (23) 
Cc1ccc(NS(=O)(=O)c2cccc(-c3[nH]oc(=Nc4c(C)n(C)n(-c5ccccc5)c4=O)c3N=O)c2)c(C)c1

>  <score_type>  (23) 
oracle

>  <origin>  (23) 
adgpu

>  <m_score__min__energy>  (23) 
-11.06

>  <m_primary>  (23) 
energy

$$$$
23:0
     RDKit          3D

 43 45  0  0  0  0  0  0  0  0999 V2000
   -0.9830   27.9650  -25.4230 C   0  0  0  0  0  0  0  0  0  0  0  0
   -1.3510   26.7940  -24.6160 N   0  0  0  0  0  0  0  0  0  0  0  0
   -0.6950   26.8420  -23.3020 C   0  0  0  0  0  0  0  0  0  0  0  0
   -0.9250   25.3220  -25.4530 S   0  0  0  0  0  0  0  0  0  0  0  0
   -0.8640   24.1860  -24.4710 O   0  0  0  0  0  0  0  0  0  0  0  0
    0.4360   25.4740  -26.0740 O   0  0  0  0  0  0  0  0  0  0  0  0
   -2.0990   24.9370  -26.7140 C   0  0  0  0  0  0  0  0  0  0  0  0
   -1.6730   24.7160  -28.0290 C   0  0  0  0  0  0  0  0  0  0  0  0
   -2.6020   24.4200  -29.0300 C   0  0  0  0  0  0  0  0  0  0  0  0
   -3.9760   24.3450  -28.7340 C   0  0  0  0  0  0  0  0  0  0  0  0
   -4.9480   24.0320  -29.8150 C   0  0  0  0  0  0  0  0  0  0  0  0
   -5.4030   24.9570  -30.7610 C   0  0  0  0  0  0  0  0  0  0  0  0
   -6.4700   24.1690  -31.7930 S   0  0  0  0  0  0  0  0  0  0  0  0
   -6.3180   22.6890  -31.0060 C   0  0  0  0  0  0  0  0  0  0  0  0
   -6.9920   21.4690  -31.3750 N   0  0  0  0  0  0  0  0  0  0  0  0
   -8.4010   21.2910  -31.0030 C   0  0  0  0  0  0  0  0  0  0  0  0
   -9.0690   20.2550  -31.9110 C   0  0  0  0  0  0  0  0  0  0  0  0
   -8.3040   19.0670  -31.9640 O   0  0  0  0  0  0  0  0  0  0  0  0
   -7.0700   19.3300  -32.5980 C   0  0  0  0  0  0  0  0  0  0  0  0
   -6.2150   20.2850  -31.7600 C   0  0  0  0  0  0  0  0  0  0  0  0
   -5.4610   22.7780  -29.9630 N   0  0  0  0  0  0  0  0  0  0  0  0
   -4.3940   24.5630  -27.4070 C   0  0  0  0  0  0  0  0  0  0  0  0
   -3.4620   24.8570  -26.4070 C   0  0  0  0  0  0  0  0  0  0  0  0
   -0.7203   28.8008  -24.7579 H   0  0  0  0  0  0  0  0  0  0  0  0
   -0.1197   27.7163  -26.0577 H   0  0  0  0  0  0  0  0  0  0  0  0
   -1.8334   28.2548  -26.0577 H   0  0  0  0  0  0  0  0  0  0  0  0
   -2.3890   26.7980  -24.4730 H   0  0  0  0  0  0  0  0  0  0  0  0
   -1.4562   26.7863  -22.5099 H   0  0  0  0  0  0  0  0  0  0  0  0
   -0.0033   25.9921  -23.2062 H   0  0  0  0  0  0  0  0  0  0  0  0
   -0.1344   27.7836  -23.2062 H   0  0  0  0  0  0  0  0  0  0  0  0
   -0.6026   24.7756  -28.2754 H   0  0  0  0  0  0  0  0  0  0  0  0
   -2.2562   24.2439  -30.0593 H   0  0  0  0  0  0  0  0  0  0  0  0
   -5.1127   26.0164  -30.8192 H   0  0  0  0  0  0  0  0  0  0  0  0
   -8.4593   20.9486  -29.9593 H   0  0  0  0  0  0  0  0  0  0  0  0
   -8.9230   22.2526  -31.1166 H   0  0  0  0  0  0  0  0  0  0  0  0
  -10.0697   20.0225  -31.5178 H   0  0  0  0  0  0  0  0  0  0  0  0
   -9.1442   20.6718  -32.9262 H   0  0  0  0  0  0  0  0  0  0  0  0
   -6.5256   18.3836  -32.7322 H   0  0  0  0  0  0  0  0  0  0  0  0
   -7.2697   19.8012  -33.5717 H   0  0  0  0  0  0  0  0  0  0  0  0
   -5.8752   19.7645  -30.8525 H   0  0  0  0  0  0  0  0  0  0  0  0
   -5.3507   20.6068  -32.3595 H   0  0  0  0  0  0  0  0  0  0  0  0
   -5.4630   24.5015  -27.1550 H   0  0  0  0  0  0  0  0  0  0  0  0
   -3.8016   25.0261  -25.3745 H   0  0  0  0  0  0  0  0  0  0  0  0
  1  2  1  0
  2  3  1  0
  2  4  1  0
  4  5  2  0
  4  6  2  0
  4  7  1  0
  7  8  2  0
  8  9  1  0
  9 10  2  0
 10 11  1  0
 11 12  2  0
 12 13  1  0
 13 14  1  0
 14 15  1  0
 15 16  1  0
 16 17  1  0
 17 18  1  0
 18 19  1  0
 19 20  1  0
 14 21  2  0
 10 22  1  0
 22 23  2  0
 23  7  1  0
 21 11  1  0
 20 15  1  0
  1 24  1  0
  1 25  1  0
  1 26  1  0
  2 27  1  0
  3 28  1  0
  3 29  1  0
  3 30  1  0
  8 31  1  0
  9 32  1  0
 12 33  1  0
 16 34  1  0
 16 35  1  0
 17 36  1  0
 17 37  1  0
 19 38  1  0
 19 39  1  0
 20 40  1  0
 20 41  1  0
 22 42  1  0
 23 43  1  0
M  CHG  1   2   1
M  END
>  <UniqueID>  (24) 
23

>  <SMILES>  (24) 
C[NH+](C)S(=O)(=O)c1ccc(-c2csc(N3CCOCC3)n2)cc1

>  <Energy>  (24) 
74.59550083090822

>  <Genealogy>  (24) 
C[NH+](C)S(=O)(=O)c1ccc(-c2csc(N3CCOCC3)n2)cc1 (protonated)
C[NH+](C)S(=O)(=O)c1ccc(-c2csc(N3CCOCC3)n2)cc1 (3D coordinates assigned)
C[NH+](C)S(=O)(=O)c1ccc(-c2csc(N3CCOCC3)n2)cc1 (nonaromatic ring conformer: 74.59550083090822 kcal/mol)

>  <smiles>  (24) 
CN(C)S(=O)(=O)c1ccc(-c2csc(N3CCOCC3)n2)cc1

>  <score_type>  (24) 
oracle

>  <origin>  (24) 
adgpu

>  <m_score__min__energy>  (24) 
-7.5700000000000003

>  <m_primary>  (24) 
energy

$$$$
24:0
     RDKit          3D

 45 47  0  0  0  0  0  0  0  0999 V2000
   -5.6229   16.0235  -35.0063 H   0  0  0  0  0  0  0  0  0  0  0  0
   -4.8760   16.7540  -34.6620 C   0  0  0  0  0  0  0  0  0  0  0  0
   -3.5330   16.6280  -35.0290 C   0  0  0  0  0  0  0  0  0  0  0  0
   -3.0870   15.4910  -35.8920 C   0  0  0  0  0  0  0  0  0  0  0  0
   -2.7591   14.6551  -35.2566 H   0  0  0  0  0  0  0  0  0  0  0  0
   -3.9230   15.1628  -36.5271 H   0  0  0  0  0  0  0  0  0  0  0  0
   -2.2508   15.8188  -36.5271 H   0  0  0  0  0  0  0  0  0  0  0  0
   -2.6210   17.5200  -34.5610 N   0  0  0  0  0  0  0  0  0  0  0  0
   -2.9860   18.5390  -33.7410 C   0  0  0  0  0  0  0  0  0  0  0  0
   -2.0800   19.3790  -33.3320 N   0  0  0  0  0  0  0  0  0  0  0  0
   -2.2690   20.4800  -32.4270 C   0  0  0  0  0  0  0  0  0  0  0  0
   -3.3660   21.3300  -32.6220 C   0  0  0  0  0  0  0  0  0  0  0  0
   -4.0727   21.1298  -33.4409 H   0  0  0  0  0  0  0  0  0  0  0  0
   -3.5690   22.4290  -31.7850 C   0  0  0  0  0  0  0  0  0  0  0  0
   -4.4405   23.0821  -31.9398 H   0  0  0  0  0  0  0  0  0  0  0  0
   -2.6670   22.7030  -30.7490 C   0  0  0  0  0  0  0  0  0  0  0  0
   -2.9200   24.1060  -29.7150 S   0  0  0  0  0  0  0  0  0  0  0  0
   -1.5980   24.6960  -29.3080 O   0  0  0  0  0  0  0  0  0  0  0  0
   -3.6490   23.6750  -28.4740 O   0  0  0  0  0  0  0  0  0  0  0  0
   -3.8670   25.3040  -30.5440 N   0  0  0  0  0  0  0  0  0  0  0  0
   -5.2590   25.2220  -30.1110 C   0  0  0  0  0  0  0  0  0  0  0  0
   -5.6614   26.2369  -29.9764 H   0  0  0  0  0  0  0  0  0  0  0  0
   -5.3147   24.6758  -29.1578 H   0  0  0  0  0  0  0  0  0  0  0  0
   -6.0750   24.4890  -31.1630 C   0  0  0  0  0  0  0  0  0  0  0  0
   -6.8059   23.8324  -30.6683 H   0  0  0  0  0  0  0  0  0  0  0  0
   -6.6050   25.2202  -31.7910 H   0  0  0  0  0  0  0  0  0  0  0  0
   -5.4047   23.8839  -31.7910 H   0  0  0  0  0  0  0  0  0  0  0  0
   -1.5470   21.8800  -30.5720 C   0  0  0  0  0  0  0  0  0  0  0  0
   -0.8257   22.1005  -29.7713 H   0  0  0  0  0  0  0  0  0  0  0  0
   -1.3430   20.7790  -31.4100 C   0  0  0  0  0  0  0  0  0  0  0  0
   -0.4551   20.1441  -31.2737 H   0  0  0  0  0  0  0  0  0  0  0  0
   -4.2950   18.6840  -33.3950 N   0  0  0  0  0  0  0  0  0  0  0  0
   -5.2520   17.8320  -33.8450 C   0  0  0  0  0  0  0  0  0  0  0  0
   -6.6050   18.0220  -33.4030 N   0  0  0  0  0  0  0  0  0  0  0  0
   -7.1510   19.1430  -33.0310 C   0  0  0  0  0  0  0  0  0  0  0  0
   -6.5000   20.3180  -32.9160 N   0  0  0  0  0  0  0  0  0  0  0  0
   -7.3770   21.2050  -32.4790 N   0  0  0  0  0  0  0  0  0  0  0  0
   -7.1600   22.2130  -32.3110 H   0  0  0  0  0  0  0  0  0  0  0  0
   -8.5700   20.6050  -32.2970 C   0  0  0  0  0  0  0  0  0  0  0  0
   -9.8150   21.3110  -31.8730 C   0  0  0  0  0  0  0  0  0  0  0  0
   -9.8646   21.3391  -30.7745 H   0  0  0  0  0  0  0  0  0  0  0  0
   -9.8059   22.3383  -32.2660 H   0  0  0  0  0  0  0  0  0  0  0  0
  -10.6920   20.7758  -32.2660 H   0  0  0  0  0  0  0  0  0  0  0  0
   -8.4690   19.2740  -32.6470 C   0  0  0  0  0  0  0  0  0  0  0  0
   -9.2524   18.5021  -32.6250 H   0  0  0  0  0  0  0  0  0  0  0  0
  1  2  1  0
  2  3  1  0
  3  4  1  0
  4  5  1  0
  4  6  1  0
  4  7  1  0
  3  8  2  0
  8  9  1  0
  9 10  2  0
 10 11  1  0
 11 12  2  0
 12 13  1  0
 12 14  1  0
 14 15  1  0
 14 16  2  0
 16 17  1  0
 17 18  2  0
 17 19  2  0
 17 20  1  0
 20 21  1  0
 21 22  1  0
 21 23  1  0
 21 24  1  0
 24 25  1  0
 24 26  1  0
 24 27  1  0
 16 28  1  0
 28 29  1  0
 28 30  2  0
 30 31  1  0
  9 32  1  0
 32 33  1  0
 33 34  1  0
 34 35  2  3
 35 36  1  0
 36 37  1  0
 37 38  1  0
 37 39  1  0
 39 40  1  0
 40 41  1  0
 40 42  1  0
 40 43  1  0
 39 44  2  0
 44 45  1  0
 33  2  2  0
 44 35  1  0
 30 11  1  0
M  CHG  3  20  -1  32  -1  36  -1
M  END
>  <UniqueID>  (25) 
24

>  <SMILES>  (25) 
CC[N-]S(=O)(=O)c1ccc(/N=c2/nc(C)cc(N=c3cc(C)[nH][n-]3)[n-]2)cc1

>  <Energy>  (25) 
82.75993229814945

>  <Genealogy>  (25) 
CC[N-]S(=O)(=O)c1ccc(N=c2nc(C)cc(N=c3cc(C)[nH][n-]3)[n-]2)cc1 (protonated)
CC[N-]S(=O)(=O)c1ccc(/N=c2/nc(C)cc(N=c3cc(C)[nH][n-]3)[n-]2)cc1 (cis-trans isomerization)
CC[N-]S(=O)(=O)c1ccc(/N=c2/nc(C)cc(N=c3cc(C)[nH][n-]3)[n-]2)cc1 (3D coordinates assigned)
CC[N-]S(=O)(=O)c1ccc(/N=c2/nc(C)cc(N=c3cc(C)[nH][n-]3)[n-]2)cc1 (optimized conformer: 82.75993229814945 kcal/mol)

>  <smiles>  (25) 
CCNS(=O)(=O)c1ccc(N=c2nc(C)cc(N=c3cc(C)[nH][nH]3)[nH]2)cc1

>  <score_type>  (25) 
oracle

>  <origin>  (25) 
adgpu

>  <m_score__min__energy>  (25) 
-10.57

>  <m_primary>  (25) 
energy

$$$$
25:0
     RDKit          3D

 46 48  0  0  0  0  0  0  0  0999 V2000
   -9.2790   21.7030  -30.2680 C   0  0  0  0  0  0  0  0  0  0  0  0
   -7.9980   22.1550  -30.9020 C   0  0  0  0  0  0  0  0  0  0  0  0
   -7.5800   21.6290  -32.1340 C   0  0  0  0  0  0  0  0  0  0  0  0
   -6.3970   22.0810  -32.7260 C   0  0  0  0  0  0  0  0  0  0  0  0
   -5.6330   23.0700  -32.1010 C   0  0  0  0  0  0  0  0  0  0  0  0
   -6.0490   23.6110  -30.8770 C   0  0  0  0  0  0  0  0  0  0  0  0
   -5.1320   24.9050  -30.1050 S   0  0  0  0  0  0  0  0  0  0  0  0
   -5.6250   26.2210  -30.6400 O   0  0  0  0  0  0  0  0  0  0  0  0
   -5.3200   24.8760  -28.6110 O   0  0  0  0  0  0  0  0  0  0  0  0
   -3.4450   24.7360  -30.4730 N   0  0  0  0  0  0  0  0  0  0  0  0
   -2.5040   24.0270  -29.6520 C   0  0  0  0  0  0  0  0  0  0  0  0
   -2.6440   22.6340  -29.4980 C   0  0  0  0  0  0  0  0  0  0  0  0
   -3.7360   21.8850  -30.2130 C   0  0  0  0  0  0  0  0  0  0  0  0
   -1.7430   21.9330  -28.6870 C   0  0  0  0  0  0  0  0  0  0  0  0
   -0.7300   22.6050  -27.9950 C   0  0  0  0  0  0  0  0  0  0  0  0
    0.1480   21.8850  -27.1860 O   0  0  0  0  0  0  0  0  0  0  0  0
   -0.5950   23.9980  -28.1260 C   0  0  0  0  0  0  0  0  0  0  0  0
    0.6730   24.8550  -27.2350 S   0  0  0  0  0  0  0  0  0  0  0  0
    1.7710   25.2740  -28.1740 O   0  0  0  0  0  0  0  0  0  0  0  0
    1.2870   23.9570  -26.1960 O   0  0  0  0  0  0  0  0  0  0  0  0
   -0.0210   26.2740  -26.4600 C   0  0  0  0  0  0  0  0  0  0  0  0
    0.0520   27.5270  -27.0860 C   0  0  0  0  0  0  0  0  0  0  0  0
   -0.4950   28.6550  -26.4640 C   0  0  0  0  0  0  0  0  0  0  0  0
   -1.1130   28.5360  -25.2160 C   0  0  0  0  0  0  0  0  0  0  0  0
   -1.1800   27.2910  -24.5840 C   0  0  0  0  0  0  0  0  0  0  0  0
   -0.6330   26.1620  -25.2030 C   0  0  0  0  0  0  0  0  0  0  0  0
   -1.4510   24.6980  -28.9960 C   0  0  0  0  0  0  0  0  0  0  0  0
   -1.2370   26.0510  -29.2330 O   0  0  0  0  0  0  0  0  0  0  0  0
   -7.2270   23.1460  -30.2780 C   0  0  0  0  0  0  0  0  0  0  0  0
   -9.1787   21.7384  -29.1732 H   0  0  0  0  0  0  0  0  0  0  0  0
  -10.0980   22.3664  -30.5828 H   0  0  0  0  0  0  0  0  0  0  0  0
   -9.5003   20.6725  -30.5828 H   0  0  0  0  0  0  0  0  0  0  0  0
   -8.1848   20.8590  -32.6352 H   0  0  0  0  0  0  0  0  0  0  0  0
   -6.0669   21.6572  -33.6859 H   0  0  0  0  0  0  0  0  0  0  0  0
   -4.7035   23.4245  -32.5705 H   0  0  0  0  0  0  0  0  0  0  0  0
   -4.4084   21.4238  -29.4746 H   0  0  0  0  0  0  0  0  0  0  0  0
   -4.3069   22.5825  -30.8435 H   0  0  0  0  0  0  0  0  0  0  0  0
   -3.2909   21.1012  -30.8435 H   0  0  0  0  0  0  0  0  0  0  0  0
   -1.8329   20.8407  -28.5930 H   0  0  0  0  0  0  0  0  0  0  0  0
    0.8820   22.3410  -26.6560 H   0  0  0  0  0  0  0  0  0  0  0  0
    0.5399   27.6232  -28.0672 H   0  0  0  0  0  0  0  0  0  0  0  0
   -0.4385   29.6363  -26.9578 H   0  0  0  0  0  0  0  0  0  0  0  0
   -1.5470   29.4227  -24.7308 H   0  0  0  0  0  0  0  0  0  0  0  0
   -1.6628   27.1990  -23.5999 H   0  0  0  0  0  0  0  0  0  0  0  0
   -0.6830   25.1837  -24.7025 H   0  0  0  0  0  0  0  0  0  0  0  0
   -7.5492   23.5612  -29.3117 H   0  0  0  0  0  0  0  0  0  0  0  0
  1  2  1  0
  2  3  2  0
  3  4  1  0
  4  5  2  0
  5  6  1  0
  6  7  1  0
  7  8  2  0
  7  9  2  0
  7 10  1  0
 10 11  1  0
 11 12  2  0
 12 13  1  0
 12 14  1  0
 14 15  2  0
 15 16  1  0
 15 17  1  0
 17 18  1  0
 18 19  2  0
 18 20  2  0
 18 21  1  0
 21 22  2  0
 22 23  1  0
 23 24  2  0
 24 25  1  0
 25 26  2  0
 17 27  2  0
 27 28  1  0
  6 29  2  0
 29  2  1  0
 27 11  1  0
 26 21  1  0
  1 30  1  0
  1 31  1  0
  1 32  1  0
  3 33  1  0
  4 34  1  0
  5 35  1  0
 13 36  1  0
 13 37  1  0
 13 38  1  0
 14 39  1  0
 16 40  1  0
 22 41  1  0
 23 42  1  0
 24 43  1  0
 25 44  1  0
 26 45  1  0
 29 46  1  0
M  CHG  2  10  -1  28  -1
M  END
>  <UniqueID>  (26) 
25

>  <SMILES>  (26) 
Cc1cccc(S(=O)(=O)[N-]c2c(C)cc(O)c(S(=O)(=O)c3ccccc3)c2[O-])c1

>  <Energy>  (26) 
57.66783639142173

>  <Genealogy>  (26) 
Cc1cccc(S(=O)(=O)[N-]c2c(C)cc(O)c(S(=O)(=O)c3ccccc3)c2[O-])c1 (protonated)
Cc1cccc(S(=O)(=O)[N-]c2c(C)cc(O)c(S(=O)(=O)c3ccccc3)c2[O-])c1 (3D coordinates assigned)
Cc1cccc(S(=O)(=O)[N-]c2c(C)cc(O)c(S(=O)(=O)c3ccccc3)c2[O-])c1 (optimized conformer: 57.66783639142173 kcal/mol)

>  <smiles>  (26) 
Cc1cccc(S(=O)(=O)Nc2c(C)cc(O)c(S(=O)(=O)c3ccccc3)c2O)c1

>  <score_type>  (26) 
oracle

>  <origin>  (26) 
adgpu

>  <m_score__min__energy>  (26) 
-13.15

>  <m_primary>  (26) 
energy

$$$$
26:0
     RDKit          3D

 59 62  0  0  0  0  0  0  0  0999 V2000
   -6.0550   25.8250  -30.5610 O   0  0  0  0  0  0  0  0  0  0  0  0
   -5.1990   24.9130  -30.6950 C   0  0  0  0  0  0  0  0  0  0  0  0
   -3.8380   25.1830  -30.3270 N   0  0  0  0  0  0  0  0  0  0  0  0
   -3.0460   24.4000  -29.4220 C   0  0  0  0  0  0  0  0  0  0  0  0
   -3.6020   24.0100  -28.1990 C   0  0  0  0  0  0  0  0  0  0  0  0
   -2.8470   23.2780  -27.2780 C   0  0  0  0  0  0  0  0  0  0  0  0
   -1.5180   22.9370  -27.5660 C   0  0  0  0  0  0  0  0  0  0  0  0
   -0.5550   22.0390  -26.3910 S   0  0  0  0  0  0  0  0  0  0  0  0
   -0.8840   22.5270  -25.0070 O   0  0  0  0  0  0  0  0  0  0  0  0
    0.9030   22.3080  -26.6430 O   0  0  0  0  0  0  0  0  0  0  0  0
   -0.8480   20.3200  -26.4820 N   0  0  0  0  0  0  0  0  0  0  0  0
   -2.2920   20.0400  -26.4570 C   0  0  0  0  0  0  0  0  0  0  0  0
   -2.5580   18.5430  -26.7230 C   0  0  0  0  0  0  0  0  0  0  0  0
   -1.3530   17.7980  -26.7100 O   0  0  0  0  0  0  0  0  0  0  0  0
   -0.5100   18.2350  -27.7620 C   0  0  0  0  0  0  0  0  0  0  0  0
   -0.2410   19.7540  -27.6980 C   0  0  0  0  0  0  0  0  0  0  0  0
   -0.9530   23.3370  -28.7850 C   0  0  0  0  0  0  0  0  0  0  0  0
   -1.7090   24.0680  -29.7060 C   0  0  0  0  0  0  0  0  0  0  0  0
   -5.6040   23.6160  -31.1710 N   0  0  0  0  0  0  0  0  0  0  0  0
   -6.5580   23.5150  -32.2880 C   0  0  0  0  0  0  0  0  0  0  0  0
   -7.4150   22.2790  -32.1700 C   0  0  0  0  0  0  0  0  0  0  0  0
   -8.6430   22.3300  -31.4890 C   0  0  0  0  0  0  0  0  0  0  0  0
   -9.4110   21.1720  -31.3310 C   0  0  0  0  0  0  0  0  0  0  0  0
   -8.9620   19.9560  -31.8550 C   0  0  0  0  0  0  0  0  0  0  0  0
   -7.7470   19.8990  -32.5450 C   0  0  0  0  0  0  0  0  0  0  0  0
   -6.9750   21.0550  -32.7040 C   0  0  0  0  0  0  0  0  0  0  0  0
   -5.1140   22.3950  -30.5080 C   0  0  0  0  0  0  0  0  0  0  0  0
   -3.9340   21.8160  -31.2480 C   0  0  0  0  0  0  0  0  0  0  0  0
   -3.8330   21.9470  -32.6430 C   0  0  0  0  0  0  0  0  0  0  0  0
   -2.7550   21.3810  -33.3300 C   0  0  0  0  0  0  0  0  0  0  0  0
   -1.7630   20.6910  -32.6290 C   0  0  0  0  0  0  0  0  0  0  0  0
   -1.8430   20.5760  -31.2390 C   0  0  0  0  0  0  0  0  0  0  0  0
   -2.9180   21.1400  -30.5490 C   0  0  0  0  0  0  0  0  0  0  0  0
   -4.6409   24.2813  -27.9603 H   0  0  0  0  0  0  0  0  0  0  0  0
   -3.2975   22.9683  -26.3234 H   0  0  0  0  0  0  0  0  0  0  0  0
   -2.6958   20.3094  -25.4699 H   0  0  0  0  0  0  0  0  0  0  0  0
   -2.7827   20.6332  -27.2427 H   0  0  0  0  0  0  0  0  0  0  0  0
   -3.2289   18.1537  -25.9430 H   0  0  0  0  0  0  0  0  0  0  0  0
   -3.0188   18.4425  -27.7168 H   0  0  0  0  0  0  0  0  0  0  0  0
    0.4495   17.7016  -27.6924 H   0  0  0  0  0  0  0  0  0  0  0  0
   -1.0177   18.0208  -28.7140 H   0  0  0  0  0  0  0  0  0  0  0  0
    0.8444   19.9317  -27.6804 H   0  0  0  0  0  0  0  0  0  0  0  0
   -0.6828   20.2374  -28.5818 H   0  0  0  0  0  0  0  0  0  0  0  0
    0.0896   23.0746  -29.0178 H   0  0  0  0  0  0  0  0  0  0  0  0
   -1.2563   24.3850  -30.6571 H   0  0  0  0  0  0  0  0  0  0  0  0
   -7.2077   24.4026  -32.2851 H   0  0  0  0  0  0  0  0  0  0  0  0
   -5.9871   23.4521  -33.2262 H   0  0  0  0  0  0  0  0  0  0  0  0
   -9.0019   23.2852  -31.0782 H   0  0  0  0  0  0  0  0  0  0  0  0
  -10.3697   21.2179  -30.7937 H   0  0  0  0  0  0  0  0  0  0  0  0
   -9.5641   19.0447  -31.7246 H   0  0  0  0  0  0  0  0  0  0  0  0
   -7.3976   18.9436  -32.9635 H   0  0  0  0  0  0  0  0  0  0  0  0
   -6.0206   21.0061  -33.2486 H   0  0  0  0  0  0  0  0  0  0  0  0
   -4.8088   22.6412  -29.4803 H   0  0  0  0  0  0  0  0  0  0  0  0
   -5.9236   21.6504  -30.5010 H   0  0  0  0  0  0  0  0  0  0  0  0
   -4.6065   22.4981  -33.1980 H   0  0  0  0  0  0  0  0  0  0  0  0
   -2.6878   21.4791  -34.4236 H   0  0  0  0  0  0  0  0  0  0  0  0
   -0.9195   20.2386  -33.1711 H   0  0  0  0  0  0  0  0  0  0  0  0
   -1.0572   20.0398  -30.6867 H   0  0  0  0  0  0  0  0  0  0  0  0
   -2.9704   21.0552  -29.4535 H   0  0  0  0  0  0  0  0  0  0  0  0
  1  2  2  0
  2  3  1  0
  3  4  1  0
  4  5  2  0
  5  6  1  0
  6  7  2  0
  7  8  1  0
  8  9  2  0
  8 10  2  0
  8 11  1  0
 11 12  1  0
 12 13  1  0
 13 14  1  0
 14 15  1  0
 15 16  1  0
  7 17  1  0
 17 18  2  0
  2 19  1  0
 19 20  1  0
 20 21  1  0
 21 22  2  0
 22 23  1  0
 23 24  2  0
 24 25  1  0
 25 26  2  0
 19 27  1  0
 27 28  1  0
 28 29  2  0
 29 30  1  0
 30 31  2  0
 31 32  1  0
 32 33  2  0
 18  4  1  0
 26 21  1  0
 33 28  1  0
 16 11  1  0
  5 34  1  0
  6 35  1  0
 12 36  1  0
 12 37  1  0
 13 38  1  0
 13 39  1  0
 15 40  1  0
 15 41  1  0
 16 42  1  0
 16 43  1  0
 17 44  1  0
 18 45  1  0
 20 46  1  0
 20 47  1  0
 22 48  1  0
 23 49  1  0
 24 50  1  0
 25 51  1  0
 26 52  1  0
 27 53  1  0
 27 54  1  0
 29 55  1  0
 30 56  1  0
 31 57  1  0
 32 58  1  0
 33 59  1  0
M  CHG  1   3  -1
M  END
>  <UniqueID>  (27) 
26

>  <SMILES>  (27) 
O=C([N-]c1ccc(S(=O)(=O)N2CCOCC2)cc1)N(Cc1ccccc1)Cc1ccccc1

>  <Energy>  (27) 
71.62917705296724

>  <Genealogy>  (27) 
O=C([N-]c1ccc(S(=O)(=O)N2CCOCC2)cc1)N(Cc1ccccc1)Cc1ccccc1 (protonated)
O=C([N-]c1ccc(S(=O)(=O)N2CCOCC2)cc1)N(Cc1ccccc1)Cc1ccccc1 (3D coordinates assigned)
O=C([N-]c1ccc(S(=O)(=O)N2CCOCC2)cc1)N(Cc1ccccc1)Cc1ccccc1 (nonaromatic ring conformer: 71.62917705296724 kcal/mol)

>  <smiles>  (27) 
O=C(Nc1ccc(S(=O)(=O)N2CCOCC2)cc1)N(Cc1ccccc1)Cc1ccccc1

>  <score_type>  (27) 
oracle

>  <origin>  (27) 
adgpu

>  <m_score__min__energy>  (27) 
-11.57

>  <m_primary>  (27) 
energy

$$$$
27:0
     RDKit          3D

 42 44  0  0  0  0  0  0  0  0999 V2000
   -6.7860   18.1220  -33.1920 C   0  0  0  0  0  0  0  0  0  0  0  0
   -5.7110   18.6990  -34.0630 C   0  0  0  0  0  0  0  0  0  0  0  0
   -5.8200   18.5850  -35.3140 O   0  0  0  0  0  0  0  0  0  0  0  0
   -4.5810   19.3980  -33.4980 N   0  0  0  0  0  0  0  0  0  0  0  0
   -3.2500   18.8550  -33.6410 C   0  0  0  0  0  0  0  0  0  0  0  0
   -2.2250   19.6090  -34.2340 C   0  0  0  0  0  0  0  0  0  0  0  0
   -0.9460   19.0670  -34.3740 C   0  0  0  0  0  0  0  0  0  0  0  0
   -0.7010   17.7700  -33.9220 C   0  0  0  0  0  0  0  0  0  0  0  0
   -1.7010   17.0460  -33.3530 N   0  0  0  0  0  0  0  0  0  0  0  0
   -2.9540   17.5520  -33.2060 C   0  0  0  0  0  0  0  0  0  0  0  0
   -4.7690   20.6460  -32.8010 C   0  0  0  0  0  0  0  0  0  0  0  0
   -3.6720   21.3120  -32.2380 C   0  0  0  0  0  0  0  0  0  0  0  0
   -3.8500   22.5250  -31.5680 C   0  0  0  0  0  0  0  0  0  0  0  0
   -5.1270   23.0960  -31.4530 C   0  0  0  0  0  0  0  0  0  0  0  0
   -5.3260   24.6290  -30.5990 S   0  0  0  0  0  0  0  0  0  0  0  0
   -5.8570   25.6600  -31.5560 O   0  0  0  0  0  0  0  0  0  0  0  0
   -6.2860   24.4350  -29.4590 O   0  0  0  0  0  0  0  0  0  0  0  0
   -3.8000   25.1690  -29.9730 N   0  0  0  0  0  0  0  0  0  0  0  0
   -2.9810   24.4430  -29.0460 C   0  0  0  0  0  0  0  0  0  0  0  0
   -3.4260   23.2610  -28.4250 C   0  0  0  0  0  0  0  0  0  0  0  0
   -2.5980   22.5820  -27.5260 C   0  0  0  0  0  0  0  0  0  0  0  0
   -1.3230   23.0750  -27.2380 C   0  0  0  0  0  0  0  0  0  0  0  0
   -0.8740   24.2480  -27.8490 C   0  0  0  0  0  0  0  0  0  0  0  0
   -1.6980   24.9310  -28.7500 C   0  0  0  0  0  0  0  0  0  0  0  0
   -1.2370   26.0970  -29.3510 O   0  0  0  0  0  0  0  0  0  0  0  0
   -6.2320   22.4320  -32.0260 C   0  0  0  0  0  0  0  0  0  0  0  0
   -7.8630   23.0890  -31.9320 Cl  0  0  0  0  0  0  0  0  0  0  0  0
   -6.0460   21.2180  -32.6970 C   0  0  0  0  0  0  0  0  0  0  0  0
   -6.5180   18.2658  -32.1349 H   0  0  0  0  0  0  0  0  0  0  0  0
   -7.7392   18.6297  -33.4010 H   0  0  0  0  0  0  0  0  0  0  0  0
   -6.8897   17.0470  -33.4010 H   0  0  0  0  0  0  0  0  0  0  0  0
   -2.4301   20.6296  -34.5893 H   0  0  0  0  0  0  0  0  0  0  0  0
   -0.1401   19.6563  -34.8357 H   0  0  0  0  0  0  0  0  0  0  0  0
    0.3029   17.3326  -34.0262 H   0  0  0  0  0  0  0  0  0  0  0  0
   -3.7409   16.9379  -32.7438 H   0  0  0  0  0  0  0  0  0  0  0  0
   -2.6652   20.8773  -32.3241 H   0  0  0  0  0  0  0  0  0  0  0  0
   -2.9820   23.0369  -31.1269 H   0  0  0  0  0  0  0  0  0  0  0  0
   -4.4296   22.8697  -28.6479 H   0  0  0  0  0  0  0  0  0  0  0  0
   -2.9511   21.6581  -27.0447 H   0  0  0  0  0  0  0  0  0  0  0  0
   -0.6730   22.5396  -26.5303 H   0  0  0  0  0  0  0  0  0  0  0  0
    0.1299   24.6357  -27.6212 H   0  0  0  0  0  0  0  0  0  0  0  0
   -6.9097   20.7070  -33.1474 H   0  0  0  0  0  0  0  0  0  0  0  0
  1  2  1  0
  2  3  2  0
  2  4  1  0
  4  5  1  0
  5  6  2  0
  6  7  1  0
  7  8  2  0
  8  9  1  0
  9 10  2  0
  4 11  1  0
 11 12  2  0
 12 13  1  0
 13 14  2  0
 14 15  1  0
 15 16  2  0
 15 17  2  0
 15 18  1  0
 18 19  1  0
 19 20  2  0
 20 21  1  0
 21 22  2  0
 22 23  1  0
 23 24  2  0
 24 25  1  0
 14 26  1  0
 26 27  1  0
 26 28  2  0
 10  5  1  0
 28 11  1  0
 24 19  1  0
  1 29  1  0
  1 30  1  0
  1 31  1  0
  6 32  1  0
  7 33  1  0
  8 34  1  0
 10 35  1  0
 12 36  1  0
 13 37  1  0
 20 38  1  0
 21 39  1  0
 22 40  1  0
 23 41  1  0
 28 42  1  0
M  CHG  2  18  -1  25  -1
M  END
>  <UniqueID>  (28) 
27

>  <SMILES>  (28) 
CC(=O)N(c1cccnc1)c1ccc(S(=O)(=O)[N-]c2ccccc2[O-])c(Cl)c1

>  <Energy>  (28) 
61.38949252933213

>  <Genealogy>  (28) 
CC(=O)N(c1cccnc1)c1ccc(S(=O)(=O)[N-]c2ccccc2[O-])c(Cl)c1 (protonated)
CC(=O)N(c1cccnc1)c1ccc(S(=O)(=O)[N-]c2ccccc2[O-])c(Cl)c1 (3D coordinates assigned)
CC(=O)N(c1cccnc1)c1ccc(S(=O)(=O)[N-]c2ccccc2[O-])c(Cl)c1 (optimized conformer: 61.38949252933213 kcal/mol)

>  <smiles>  (28) 
CC(=O)N(c1cccnc1)c1ccc(S(=O)(=O)Nc2ccccc2O)c(Cl)c1

>  <score_type>  (28) 
oracle

>  <origin>  (28) 
adgpu

>  <m_score__min__energy>  (28) 
-14.41

>  <m_primary>  (28) 
energy

$$$$
28:0
     RDKit          3D

 39 41  0  0  0  0  0  0  0  0999 V2000
    0.4480   22.7540  -35.3910 N   0  0  0  0  0  0  0  0  0  0  0  0
    0.8170   21.0950  -35.7130 S   0  0  0  0  0  0  0  0  0  0  0  0
    2.3080   20.9020  -35.7370 O   0  0  0  0  0  0  0  0  0  0  0  0
    0.2590   20.7180  -37.0590 O   0  0  0  0  0  0  0  0  0  0  0  0
    0.1120   20.0810  -34.4580 C   0  0  0  0  0  0  0  0  0  0  0  0
   -1.1960   19.5910  -34.5850 C   0  0  0  0  0  0  0  0  0  0  0  0
   -1.7410   18.7840  -33.5840 C   0  0  0  0  0  0  0  0  0  0  0  0
   -0.9930   18.4710  -32.4470 C   0  0  0  0  0  0  0  0  0  0  0  0
    0.3090   18.9830  -32.2940 C   0  0  0  0  0  0  0  0  0  0  0  0
    1.1170   18.6820  -31.1470 N   0  0  0  0  0  0  0  0  0  0  0  0
    0.6660   18.1650  -29.8880 C   0  0  0  0  0  0  0  0  0  0  0  0
    1.0460   17.0270  -29.5000 O   0  0  0  0  0  0  0  0  0  0  0  0
   -0.2930   18.9410  -29.0690 C   0  0  0  0  0  0  0  0  0  0  0  0
   -0.6660   18.4920  -27.7870 C   0  0  0  0  0  0  0  0  0  0  0  0
   -1.5740   19.2230  -27.0160 C   0  0  0  0  0  0  0  0  0  0  0  0
   -2.1210   20.4080  -27.5100 C   0  0  0  0  0  0  0  0  0  0  0  0
   -1.7610   20.8700  -28.7830 C   0  0  0  0  0  0  0  0  0  0  0  0
   -2.3460   22.1170  -29.3110 C   0  0  0  0  0  0  0  0  0  0  0  0
   -1.8480   23.3650  -28.8820 C   0  0  0  0  0  0  0  0  0  0  0  0
   -0.4250   23.4770  -27.5940 Br  0  0  0  0  0  0  0  0  0  0  0  0
   -2.4030   24.5480  -29.3870 C   0  0  0  0  0  0  0  0  0  0  0  0
   -1.9190   25.7820  -28.9650 O   0  0  0  0  0  0  0  0  0  0  0  0
   -3.4470   24.4970  -30.3150 C   0  0  0  0  0  0  0  0  0  0  0  0
   -3.9850   25.6820  -30.8070 O   0  0  0  0  0  0  0  0  0  0  0  0
   -3.9510   23.2630  -30.7450 C   0  0  0  0  0  0  0  0  0  0  0  0
   -5.3870   23.2420  -32.0220 Br  0  0  0  0  0  0  0  0  0  0  0  0
   -3.4010   22.0670  -30.2470 C   0  0  0  0  0  0  0  0  0  0  0  0
   -4.0740   20.3670  -30.8570 Br  0  0  0  0  0  0  0  0  0  0  0  0
   -0.8480   20.1390  -29.5570 C   0  0  0  0  0  0  0  0  0  0  0  0
    0.8590   19.7710  -33.3140 C   0  0  0  0  0  0  0  0  0  0  0  0
   -0.4970   22.9410  -35.7960 H   0  0  0  0  0  0  0  0  0  0  0  0
   -1.7931   19.8426  -35.4739 H   0  0  0  0  0  0  0  0  0  0  0  0
   -2.7636   18.3933  -33.6916 H   0  0  0  0  0  0  0  0  0  0  0  0
   -1.4225   17.8227  -31.6691 H   0  0  0  0  0  0  0  0  0  0  0  0
   -0.2395   17.5591  -27.3898 H   0  0  0  0  0  0  0  0  0  0  0  0
   -1.8585   18.8630  -26.0163 H   0  0  0  0  0  0  0  0  0  0  0  0
   -2.8354   20.9799  -26.8996 H   0  0  0  0  0  0  0  0  0  0  0  0
   -0.5631   20.5052  -30.5544 H   0  0  0  0  0  0  0  0  0  0  0  0
    1.8870   20.1498  -33.2155 H   0  0  0  0  0  0  0  0  0  0  0  0
  1  2  1  0
  2  3  2  0
  2  4  2  0
  2  5  1  0
  5  6  2  0
  6  7  1  0
  7  8  2  0
  8  9  1  0
  9 10  1  0
 10 11  1  0
 11 12  2  0
 11 13  1  0
 13 14  2  0
 14 15  1  0
 15 16  2  0
 16 17  1  0
 17 18  1  0
 18 19  2  0
 19 20  1  0
 19 21  1  0
 21 22  1  0
 21 23  2  0
 23 24  1  0
 23 25  1  0
 25 26  1  0
 25 27  2  0
 27 28  1  0
 17 29  2  0
  9 30  2  0
 30  5  1  0
 29 13  1  0
 27 18  1  0
  1 31  1  0
  6 32  1  0
  7 33  1  0
  8 34  1  0
 14 35  1  0
 15 36  1  0
 16 37  1  0
 29 38  1  0
 30 39  1  0
M  CHG  4   1  -1  10  -1  22  -1  24  -1
M  END
>  <UniqueID>  (29) 
28

>  <SMILES>  (29) 
[NH-]S(=O)(=O)c1cccc([N-]C(=O)c2cccc(-c3c(Br)c([O-])c([O-])c(Br)c3Br)c2)c1

>  <Energy>  (29) 
58.34709773993689

>  <Genealogy>  (29) 
[NH-]S(=O)(=O)c1cccc([N-]C(=O)c2cccc(-c3c(Br)c([O-])c([O-])c(Br)c3Br)c2)c1 (protonated)
[NH-]S(=O)(=O)c1cccc([N-]C(=O)c2cccc(-c3c(Br)c([O-])c([O-])c(Br)c3Br)c2)c1 (3D coordinates assigned)
[NH-]S(=O)(=O)c1cccc([N-]C(=O)c2cccc(-c3c(Br)c([O-])c([O-])c(Br)c3Br)c2)c1 (optimized conformer: 58.34709773993689 kcal/mol)

>  <smiles>  (29) 
NS(=O)(=O)c1cccc(NC(=O)c2cccc(-c3c(Br)c(O)c(O)c(Br)c3Br)c2)c1

>  <score_type>  (29) 
oracle

>  <origin>  (29) 
adgpu

>  <m_score__min__energy>  (29) 
-15.16

>  <m_primary>  (29) 
energy

$$$$
29:0
     RDKit          3D

 57 60  0  0  0  0  0  0  0  0999 V2000
   -3.8680   25.5530  -30.4640 O   0  0  0  0  0  0  0  0  0  0  0  0
   -4.2770   24.3710  -30.6350 C   0  0  0  0  0  0  0  0  0  0  0  0
   -5.3010   24.0990  -31.6020 N   0  0  0  0  0  0  0  0  0  0  0  0
   -6.2470   23.0220  -31.5530 C   0  0  0  0  0  0  0  0  0  0  0  0
   -7.4650   23.1390  -30.8600 C   0  0  0  0  0  0  0  0  0  0  0  0
   -8.3780   22.0810  -30.8650 C   0  0  0  0  0  0  0  0  0  0  0  0
   -8.0840   20.9040  -31.5610 C   0  0  0  0  0  0  0  0  0  0  0  0
   -6.8760   20.7790  -32.2590 C   0  0  0  0  0  0  0  0  0  0  0  0
   -6.4900   19.2850  -33.1190 S   0  0  0  0  0  0  0  0  0  0  0  0
   -6.4900   19.5530  -34.6000 O   0  0  0  0  0  0  0  0  0  0  0  0
   -7.5570   18.2610  -32.8300 O   0  0  0  0  0  0  0  0  0  0  0  0
   -4.9300   18.6530  -32.6470 N   0  0  0  0  0  0  0  0  0  0  0  0
   -3.8540   19.5810  -33.0470 C   0  0  0  0  0  0  0  0  0  0  0  0
   -2.5110   18.8430  -33.1580 C   0  0  0  0  0  0  0  0  0  0  0  0
   -2.5050   17.8130  -34.1410 O   0  0  0  0  0  0  0  0  0  0  0  0
   -3.7860   17.2410  -34.3770 C   0  0  0  0  0  0  0  0  0  0  0  0
   -4.7200   17.2750  -33.1490 C   0  0  0  0  0  0  0  0  0  0  0  0
   -5.9690   21.8490  -32.2660 C   0  0  0  0  0  0  0  0  0  0  0  0
   -3.7520   23.2750  -29.7890 C   0  0  0  0  0  0  0  0  0  0  0  0
   -2.8770   22.3120  -30.3230 C   0  0  0  0  0  0  0  0  0  0  0  0
   -2.3850   21.2780  -29.5210 C   0  0  0  0  0  0  0  0  0  0  0  0
   -2.7680   21.1820  -28.1760 C   0  0  0  0  0  0  0  0  0  0  0  0
   -2.1710   19.8600  -27.1680 S   0  0  0  0  0  0  0  0  0  0  0  0
   -3.3150   18.9500  -26.8200 O   0  0  0  0  0  0  0  0  0  0  0  0
   -1.6250   20.4280  -25.8870 O   0  0  0  0  0  0  0  0  0  0  0  0
   -0.9250   18.9320  -27.9710 N   0  0  0  0  0  0  0  0  0  0  0  0
    0.2220   19.7950  -28.3030 C   0  0  0  0  0  0  0  0  0  0  0  0
    1.3860   18.9540  -28.8750 C   0  0  0  0  0  0  0  0  0  0  0  0
    0.9990   17.6070  -29.0720 O   0  0  0  0  0  0  0  0  0  0  0  0
    0.6410   17.0250  -27.8300 C   0  0  0  0  0  0  0  0  0  0  0  0
   -0.4870   17.8100  -27.1270 C   0  0  0  0  0  0  0  0  0  0  0  0
   -3.6390   22.1380  -27.6380 C   0  0  0  0  0  0  0  0  0  0  0  0
   -4.1230   23.1790  -28.4340 C   0  0  0  0  0  0  0  0  0  0  0  0
   -7.6994   24.0643  -30.3134 H   0  0  0  0  0  0  0  0  0  0  0  0
   -9.3294   22.1740  -30.3207 H   0  0  0  0  0  0  0  0  0  0  0  0
   -8.8046   20.0729  -31.5603 H   0  0  0  0  0  0  0  0  0  0  0  0
   -4.1038   20.0241  -34.0223 H   0  0  0  0  0  0  0  0  0  0  0  0
   -3.7629   20.3662  -32.2821 H   0  0  0  0  0  0  0  0  0  0  0  0
   -1.7323   19.5754  -33.4173 H   0  0  0  0  0  0  0  0  0  0  0  0
   -2.3266   18.3618  -32.1862 H   0  0  0  0  0  0  0  0  0  0  0  0
   -4.2683   17.7964  -35.1949 H   0  0  0  0  0  0  0  0  0  0  0  0
   -3.6227   16.1820  -34.6256 H   0  0  0  0  0  0  0  0  0  0  0  0
   -5.6936   16.8482  -33.4318 H   0  0  0  0  0  0  0  0  0  0  0  0
   -4.2462   16.6905  -32.3466 H   0  0  0  0  0  0  0  0  0  0  0  0
   -5.0319   21.7662  -32.8360 H   0  0  0  0  0  0  0  0  0  0  0  0
   -2.5775   22.3729  -31.3797 H   0  0  0  0  0  0  0  0  0  0  0  0
   -1.6939   20.5361  -29.9475 H   0  0  0  0  0  0  0  0  0  0  0  0
   -0.0893   20.5383  -29.0517 H   0  0  0  0  0  0  0  0  0  0  0  0
    0.5643   20.2989  -27.3871 H   0  0  0  0  0  0  0  0  0  0  0  0
    1.6972   19.3821  -29.8393 H   0  0  0  0  0  0  0  0  0  0  0  0
    2.2163   18.9747  -28.1538 H   0  0  0  0  0  0  0  0  0  0  0  0
    0.2998   15.9942  -28.0061 H   0  0  0  0  0  0  0  0  0  0  0  0
    1.5264   17.0452  -27.1776 H   0  0  0  0  0  0  0  0  0  0  0  0
   -1.3386   17.1381  -26.9446 H   0  0  0  0  0  0  0  0  0  0  0  0
   -0.1096   18.2043  -26.1720 H   0  0  0  0  0  0  0  0  0  0  0  0
   -3.9435   22.0687  -26.5833 H   0  0  0  0  0  0  0  0  0  0  0  0
   -4.7992   23.9296  -27.9989 H   0  0  0  0  0  0  0  0  0  0  0  0
  1  2  2  0
  2  3  1  0
  3  4  1  0
  4  5  2  0
  5  6  1  0
  6  7  2  0
  7  8  1  0
  8  9  1  0
  9 10  2  0
  9 11  2  0
  9 12  1  0
 12 13  1  0
 13 14  1  0
 14 15  1  0
 15 16  1  0
 16 17  1  0
  8 18  2  0
  2 19  1  0
 19 20  2  0
 20 21  1  0
 21 22  2  0
 22 23  1  0
 23 24  2  0
 23 25  2  0
 23 26  1  0
 26 27  1  0
 27 28  1  0
 28 29  1  0
 29 30  1  0
 30 31  1  0
 22 32  1  0
 32 33  2  0
 18  4  1  0
 33 19  1  0
 17 12  1  0
 31 26  1  0
  5 34  1  0
  6 35  1  0
  7 36  1  0
 13 37  1  0
 13 38  1  0
 14 39  1  0
 14 40  1  0
 16 41  1  0
 16 42  1  0
 17 43  1  0
 17 44  1  0
 18 45  1  0
 20 46  1  0
 21 47  1  0
 27 48  1  0
 27 49  1  0
 28 50  1  0
 28 51  1  0
 30 52  1  0
 30 53  1  0
 31 54  1  0
 31 55  1  0
 32 56  1  0
 33 57  1  0
M  CHG  1   3  -1
M  END
>  <UniqueID>  (30) 
29

>  <SMILES>  (30) 
O=C([N-]c1cccc(S(=O)(=O)N2CCOCC2)c1)c1ccc(S(=O)(=O)N2CCOCC2)cc1

>  <Energy>  (30) 
82.91991070823582

>  <Genealogy>  (30) 
O=C([N-]c1cccc(S(=O)(=O)N2CCOCC2)c1)c1ccc(S(=O)(=O)N2CCOCC2)cc1 (protonated)
O=C([N-]c1cccc(S(=O)(=O)N2CCOCC2)c1)c1ccc(S(=O)(=O)N2CCOCC2)cc1 (3D coordinates assigned)
O=C([N-]c1cccc(S(=O)(=O)N2CCOCC2)c1)c1ccc(S(=O)(=O)N2CCOCC2)cc1 (nonaromatic ring conformer: 82.91991070823582 kcal/mol)

>  <smiles>  (30) 
O=C(Nc1cccc(S(=O)(=O)N2CCOCC2)c1)c1ccc(S(=O)(=O)N2CCOCC2)cc1

>  <score_type>  (30) 
oracle

>  <origin>  (30) 
adgpu

>  <m_score__min__energy>  (30) 
-12.67

>  <m_primary>  (30) 
energy

$$$$
30:0
     RDKit          3D

 37 38  0  0  0  0  0  0  0  0999 V2000
   -2.0550   24.7340  -27.9600 C   0  0  0  0  0  0  0  0  0  0  0  0
   -2.2790   25.1380  -29.3440 N   0  0  0  0  0  0  0  0  0  0  0  0
   -3.8560   24.6250  -29.8600 S   0  0  0  0  0  0  0  0  0  0  0  0
   -4.7180   24.3320  -28.6630 O   0  0  0  0  0  0  0  0  0  0  0  0
   -4.4990   25.7320  -30.6480 O   0  0  0  0  0  0  0  0  0  0  0  0
   -3.7310   23.1900  -30.8770 C   0  0  0  0  0  0  0  0  0  0  0  0
   -2.7660   22.2150  -30.5960 C   0  0  0  0  0  0  0  0  0  0  0  0
   -2.6820   21.0610  -31.3810 C   0  0  0  0  0  0  0  0  0  0  0  0
   -3.5700   20.8700  -32.4500 C   0  0  0  0  0  0  0  0  0  0  0  0
   -3.5090   19.4030  -33.4180 S   0  0  0  0  0  0  0  0  0  0  0  0
   -3.0260   18.2360  -32.6010 O   0  0  0  0  0  0  0  0  0  0  0  0
   -2.5620   19.6170  -34.5660 O   0  0  0  0  0  0  0  0  0  0  0  0
   -5.0880   19.0470  -34.0390 N   0  0  0  0  0  0  0  0  0  0  0  0
   -6.3130   19.1550  -33.3000 C   0  0  0  0  0  0  0  0  0  0  0  0
   -7.1490   20.2840  -33.4130 C   0  0  0  0  0  0  0  0  0  0  0  0
   -8.3420   20.3550  -32.6880 C   0  0  0  0  0  0  0  0  0  0  0  0
   -8.7120   19.3080  -31.8420 C   0  0  0  0  0  0  0  0  0  0  0  0
   -7.8910   18.1850  -31.7190 C   0  0  0  0  0  0  0  0  0  0  0  0
   -6.6890   18.1090  -32.4360 C   0  0  0  0  0  0  0  0  0  0  0  0
   -5.6490   16.6540  -32.2450 S   0  0  0  0  0  0  0  0  0  0  0  0
   -6.1120   15.9640  -33.8640 C   0  0  0  0  0  0  0  0  0  0  0  0
   -4.5340   21.8460  -32.7300 C   0  0  0  0  0  0  0  0  0  0  0  0
   -4.6140   23.0010  -31.9480 C   0  0  0  0  0  0  0  0  0  0  0  0
   -2.4757   25.4928  -27.2839 H   0  0  0  0  0  0  0  0  0  0  0  0
   -2.5457   23.7668  -27.7764 H   0  0  0  0  0  0  0  0  0  0  0  0
   -0.9747   24.6378  -27.7764 H   0  0  0  0  0  0  0  0  0  0  0  0
   -2.0717   22.3574  -29.7548 H   0  0  0  0  0  0  0  0  0  0  0  0
   -1.9179   20.3012  -31.1598 H   0  0  0  0  0  0  0  0  0  0  0  0
   -6.8611   21.1138  -34.0753 H   0  0  0  0  0  0  0  0  0  0  0  0
   -8.9908   21.2380  -32.7843 H   0  0  0  0  0  0  0  0  0  0  0  0
   -9.6508   19.3676  -31.2719 H   0  0  0  0  0  0  0  0  0  0  0  0
   -8.1884   17.3579  -31.0576 H   0  0  0  0  0  0  0  0  0  0  0  0
   -6.7194   15.0588  -33.7167 H   0  0  0  0  0  0  0  0  0  0  0  0
   -6.6940   16.7085  -34.4270 H   0  0  0  0  0  0  0  0  0  0  0  0
   -5.2024   15.7076  -34.4270 H   0  0  0  0  0  0  0  0  0  0  0  0
   -5.2310   21.7029  -33.5689 H   0  0  0  0  0  0  0  0  0  0  0  0
   -5.3729   23.7645  -32.1740 H   0  0  0  0  0  0  0  0  0  0  0  0
  1  2  1  0
  2  3  1  0
  3  4  2  0
  3  5  2  0
  3  6  1  0
  6  7  2  0
  7  8  1  0
  8  9  2  0
  9 10  1  0
 10 11  2  0
 10 12  2  0
 10 13  1  0
 13 14  1  0
 14 15  2  0
 15 16  1  0
 16 17  2  0
 17 18  1  0
 18 19  2  0
 19 20  1  0
 20 21  1  0
  9 22  1  0
 22 23  2  0
 23  6  1  0
 19 14  1  0
  1 24  1  0
  1 25  1  0
  1 26  1  0
  7 27  1  0
  8 28  1  0
 15 29  1  0
 16 30  1  0
 17 31  1  0
 18 32  1  0
 21 33  1  0
 21 34  1  0
 21 35  1  0
 22 36  1  0
 23 37  1  0
M  CHG  2   2  -1  13  -1
M  END
>  <UniqueID>  (31) 
30

>  <SMILES>  (31) 
C[N-]S(=O)(=O)c1ccc(S(=O)(=O)[N-]c2ccccc2SC)cc1

>  <Energy>  (31) 
34.4252572970466

>  <Genealogy>  (31) 
C[N-]S(=O)(=O)c1ccc(S(=O)(=O)[N-]c2ccccc2SC)cc1 (protonated)
C[N-]S(=O)(=O)c1ccc(S(=O)(=O)[N-]c2ccccc2SC)cc1 (3D coordinates assigned)
C[N-]S(=O)(=O)c1ccc(S(=O)(=O)[N-]c2ccccc2SC)cc1 (optimized conformer: 34.4252572970466 kcal/mol)

>  <smiles>  (31) 
CNS(=O)(=O)c1ccc(S(=O)(=O)Nc2ccccc2SC)cc1

>  <score_type>  (31) 
oracle

>  <origin>  (31) 
adgpu

>  <m_score__min__energy>  (31) 
-9.4600000000000009

>  <m_primary>  (31) 
energy

$$$$
31:0
     RDKit          3D

 29 31  0  0  0  0  0  0  0  0999 V2000
   -6.8390   17.4830  -33.3450 Cl  0  0  0  0  0  0  0  0  0  0  0  0
   -7.0940   19.1170  -32.7600 C   0  0  0  0  0  0  0  0  0  0  0  0
   -8.3440   19.4920  -32.2560 C   0  0  0  0  0  0  0  0  0  0  0  0
   -8.5480   20.7940  -31.7900 C   0  0  0  0  0  0  0  0  0  0  0  0
   -7.5010   21.7290  -31.8160 C   0  0  0  0  0  0  0  0  0  0  0  0
   -7.7310   23.1400  -31.3510 C   0  0  0  0  0  0  0  0  0  0  0  0
   -6.4290   23.7770  -30.9930 C   0  0  0  0  0  0  0  0  0  0  0  0
   -5.8030   23.6010  -29.8130 N   0  0  0  0  0  0  0  0  0  0  0  0
   -4.6860   24.3370  -29.9950 C   0  0  0  0  0  0  0  0  0  0  0  0
   -3.6260   24.4920  -28.9850 C   0  0  0  0  0  0  0  0  0  0  0  0
   -3.8680   24.2070  -27.6320 C   0  0  0  0  0  0  0  0  0  0  0  0
   -2.8360   24.3660  -26.7030 C   0  0  0  0  0  0  0  0  0  0  0  0
   -1.5810   24.8040  -27.1270 C   0  0  0  0  0  0  0  0  0  0  0  0
   -1.3740   25.0780  -28.4810 C   0  0  0  0  0  0  0  0  0  0  0  0
   -2.3900   24.9180  -29.3700 N   0  0  0  0  0  0  0  0  0  0  0  0
   -4.6410   24.9160  -31.2120 N   0  0  0  0  0  0  0  0  0  0  0  0
   -5.7370   24.5420  -31.7990 O   0  0  0  0  0  0  0  0  0  0  0  0
   -6.2520   21.3490  -32.3370 C   0  0  0  0  0  0  0  0  0  0  0  0
   -6.0490   20.0460  -32.8010 C   0  0  0  0  0  0  0  0  0  0  0  0
   -9.1665   18.7622  -32.2264 H   0  0  0  0  0  0  0  0  0  0  0  0
   -9.5341   21.0876  -31.4009 H   0  0  0  0  0  0  0  0  0  0  0  0
   -8.2092   23.7160  -32.1569 H   0  0  0  0  0  0  0  0  0  0  0  0
   -8.3829   23.1271  -30.4651 H   0  0  0  0  0  0  0  0  0  0  0  0
   -4.8603   23.8619  -27.3061 H   0  0  0  0  0  0  0  0  0  0  0  0
   -3.0128   24.1463  -25.6398 H   0  0  0  0  0  0  0  0  0  0  0  0
   -0.7631   24.9322  -26.4027 H   0  0  0  0  0  0  0  0  0  0  0  0
   -0.3889   25.4232  -28.8279 H   0  0  0  0  0  0  0  0  0  0  0  0
   -5.4310   22.0799  -32.3798 H   0  0  0  0  0  0  0  0  0  0  0  0
   -5.0667   19.7510  -33.1987 H   0  0  0  0  0  0  0  0  0  0  0  0
  1  2  1  0
  2  3  2  0
  3  4  1  0
  4  5  2  0
  5  6  1  0
  6  7  1  0
  7  8  2  0
  8  9  1  0
  9 10  1  0
 10 11  2  0
 11 12  1  0
 12 13  2  0
 13 14  1  0
 14 15  2  0
  9 16  2  0
 16 17  1  0
  5 18  1  0
 18 19  2  0
 19  2  1  0
 17  7  1  0
 15 10  1  0
  3 20  1  0
  4 21  1  0
  6 22  1  0
  6 23  1  0
 11 24  1  0
 12 25  1  0
 13 26  1  0
 14 27  1  0
 18 28  1  0
 19 29  1  0
M  END
>  <UniqueID>  (32) 
31

>  <SMILES>  (32) 
Clc1ccc(Cc2nc(-c3ccccn3)no2)cc1

>  <Energy>  (32) 
63.07740065456533

>  <Genealogy>  (32) 
Clc1ccc(Cc2nc(-c3ccccn3)no2)cc1 (3D coordinates assigned)
Clc1ccc(Cc2nc(-c3ccccn3)no2)cc1 (optimized conformer: 63.07740065456533 kcal/mol)

>  <smiles>  (32) 
Clc1ccc(Cc2nc(-c3ccccn3)no2)cc1

>  <score_type>  (32) 
oracle

>  <origin>  (32) 
adgpu

>  <m_score__min__energy>  (32) 
-8.2799999999999994

>  <m_primary>  (32) 
energy

$$$$
32:0
     RDKit          3D

 56 59  0  0  0  0  0  0  0  0999 V2000
  -10.1070   21.1670  -32.2840 C   0  0  0  0  0  0  0  0  0  0  0  0
   -8.8140   21.7900  -31.8490 C   0  0  0  0  0  0  0  0  0  0  0  0
   -8.5790   23.1570  -32.0580 C   0  0  0  0  0  0  0  0  0  0  0  0
   -7.3590   23.7290  -31.6850 C   0  0  0  0  0  0  0  0  0  0  0  0
   -6.3510   22.9390  -31.1080 C   0  0  0  0  0  0  0  0  0  0  0  0
   -5.0520   23.5350  -30.7330 C   0  0  0  0  0  0  0  0  0  0  0  0
   -4.7620   24.8490  -30.8420 N   0  0  0  0  0  0  0  0  0  0  0  0
   -3.5230   24.9510  -30.4690 O   0  0  0  0  0  0  0  0  0  0  0  0
   -3.0640   23.7680  -30.1470 C   0  0  0  0  0  0  0  0  0  0  0  0
   -1.6540   23.4910  -29.7270 C   0  0  0  0  0  0  0  0  0  0  0  0
   -1.5500   22.1930  -29.0340 N   0  0  0  0  0  0  0  0  0  0  0  0
   -1.7300   22.1390  -27.5790 C   0  0  0  0  0  0  0  0  0  0  0  0
   -1.2290   20.9630  -29.7290 C   0  0  0  0  0  0  0  0  0  0  0  0
   -0.6280   20.0400  -29.1140 O   0  0  0  0  0  0  0  0  0  0  0  0
   -1.5350   20.7590  -31.1600 C   0  0  0  0  0  0  0  0  0  0  0  0
   -0.6290   21.2040  -32.1340 C   0  0  0  0  0  0  0  0  0  0  0  0
   -0.9320   21.0690  -33.4910 C   0  0  0  0  0  0  0  0  0  0  0  0
   -2.1340   20.4800  -33.8860 C   0  0  0  0  0  0  0  0  0  0  0  0
   -3.0350   20.0030  -32.9230 C   0  0  0  0  0  0  0  0  0  0  0  0
   -4.5530   19.2580  -33.4180 S   0  0  0  0  0  0  0  0  0  0  0  0
   -4.4090   18.7280  -34.8180 O   0  0  0  0  0  0  0  0  0  0  0  0
   -5.6250   20.3140  -33.4380 O   0  0  0  0  0  0  0  0  0  0  0  0
   -5.0470   17.9560  -32.3550 N   0  0  0  0  0  0  0  0  0  0  0  0
   -6.3710   18.1930  -31.7480 C   0  0  0  0  0  0  0  0  0  0  0  0
   -7.5430   17.8070  -32.6810 C   0  0  0  0  0  0  0  0  0  0  0  0
   -7.1310   17.1080  -33.8390 O   0  0  0  0  0  0  0  0  0  0  0  0
   -6.2610   16.0620  -33.4780 C   0  0  0  0  0  0  0  0  0  0  0  0
   -4.9190   16.6230  -32.9830 C   0  0  0  0  0  0  0  0  0  0  0  0
   -2.7280   20.1360  -31.5610 C   0  0  0  0  0  0  0  0  0  0  0  0
   -4.0020   22.8150  -30.2870 N   0  0  0  0  0  0  0  0  0  0  0  0
   -6.5840   21.5660  -30.9160 C   0  0  0  0  0  0  0  0  0  0  0  0
   -7.8030   20.9960  -31.2900 C   0  0  0  0  0  0  0  0  0  0  0  0
  -10.6941   20.8841  -31.3978 H   0  0  0  0  0  0  0  0  0  0  0  0
  -10.6775   21.8891  -32.8866 H   0  0  0  0  0  0  0  0  0  0  0  0
   -9.8978   20.2708  -32.8866 H   0  0  0  0  0  0  0  0  0  0  0  0
   -9.3586   23.7822  -32.5177 H   0  0  0  0  0  0  0  0  0  0  0  0
   -7.1875   24.8038  -31.8443 H   0  0  0  0  0  0  0  0  0  0  0  0
   -1.0105   23.4743  -30.6189 H   0  0  0  0  0  0  0  0  0  0  0  0
   -1.3347   24.2830  -29.0337 H   0  0  0  0  0  0  0  0  0  0  0  0
   -0.7898   22.4211  -27.0825 H   0  0  0  0  0  0  0  0  0  0  0  0
   -2.5257   22.8380  -27.2818 H   0  0  0  0  0  0  0  0  0  0  0  0
   -2.0095   21.1175  -27.2818 H   0  0  0  0  0  0  0  0  0  0  0  0
    0.3237   21.6610  -31.8281 H   0  0  0  0  0  0  0  0  0  0  0  0
   -0.2214   21.4278  -34.2501 H   0  0  0  0  0  0  0  0  0  0  0  0
   -2.3753   20.3897  -34.9554 H   0  0  0  0  0  0  0  0  0  0  0  0
   -6.4457   17.5967  -30.8266 H   0  0  0  0  0  0  0  0  0  0  0  0
   -6.4522   19.2716  -31.5477 H   0  0  0  0  0  0  0  0  0  0  0  0
   -8.2412   17.1696  -32.1187 H   0  0  0  0  0  0  0  0  0  0  0  0
   -8.0134   18.7431  -33.0164 H   0  0  0  0  0  0  0  0  0  0  0  0
   -6.7228   15.4680  -32.6756 H   0  0  0  0  0  0  0  0  0  0  0  0
   -6.0784   15.4313  -34.3606 H   0  0  0  0  0  0  0  0  0  0  0  0
   -4.4989   15.9257  -32.2432 H   0  0  0  0  0  0  0  0  0  0  0  0
   -4.2646   16.7337  -33.8602 H   0  0  0  0  0  0  0  0  0  0  0  0
   -3.4254   19.7503  -30.8028 H   0  0  0  0  0  0  0  0  0  0  0  0
   -5.8010   20.9364  -30.4682 H   0  0  0  0  0  0  0  0  0  0  0  0
   -7.9706   19.9185  -31.1452 H   0  0  0  0  0  0  0  0  0  0  0  0
  1  2  1  0
  2  3  2  0
  3  4  1  0
  4  5  2  0
  5  6  1  0
  6  7  2  0
  7  8  1  0
  8  9  1  0
  9 10  1  0
 10 11  1  0
 11 12  1  0
 11 13  1  0
 13 14  2  0
 13 15  1  0
 15 16  2  0
 16 17  1  0
 17 18  2  0
 18 19  1  0
 19 20  1  0
 20 21  2  0
 20 22  2  0
 20 23  1  0
 23 24  1  0
 24 25  1  0
 25 26  1  0
 26 27  1  0
 27 28  1  0
 19 29  2  0
  9 30  2  0
  5 31  1  0
 31 32  2  0
 32  2  1  0
 30  6  1  0
 29 15  1  0
 28 23  1  0
  1 33  1  0
  1 34  1  0
  1 35  1  0
  3 36  1  0
  4 37  1  0
 10 38  1  0
 10 39  1  0
 12 40  1  0
 12 41  1  0
 12 42  1  0
 16 43  1  0
 17 44  1  0
 18 45  1  0
 24 46  1  0
 24 47  1  0
 25 48  1  0
 25 49  1  0
 27 50  1  0
 27 51  1  0
 28 52  1  0
 28 53  1  0
 29 54  1  0
 31 55  1  0
 32 56  1  0
M  END
>  <UniqueID>  (33) 
32

>  <SMILES>  (33) 
Cc1ccc(-c2noc(CN(C)C(=O)c3cccc(S(=O)(=O)N4CCOCC4)c3)n2)cc1

>  <Energy>  (33) 
102.35558141538691

>  <Genealogy>  (33) 
Cc1ccc(-c2noc(CN(C)C(=O)c3cccc(S(=O)(=O)N4CCOCC4)c3)n2)cc1 (3D coordinates assigned)
Cc1ccc(-c2noc(CN(C)C(=O)c3cccc(S(=O)(=O)N4CCOCC4)c3)n2)cc1 (nonaromatic ring conformer: 102.35558141538691 kcal/mol)

>  <smiles>  (33) 
Cc1ccc(-c2noc(CN(C)C(=O)c3cccc(S(=O)(=O)N4CCOCC4)c3)n2)cc1

>  <score_type>  (33) 
oracle

>  <origin>  (33) 
adgpu

>  <m_score__min__energy>  (33) 
-10.300000000000001

>  <m_primary>  (33) 
energy

$$$$
33:0
     RDKit          3D

 52 55  0  0  0  0  0  0  0  0999 V2000
   -6.8520   16.7830  -33.7650 C   0  0  0  0  0  0  0  0  0  0  0  0
   -6.7350   18.1770  -33.2260 C   0  0  0  0  0  0  0  0  0  0  0  0
   -5.8940   19.1100  -33.8540 C   0  0  0  0  0  0  0  0  0  0  0  0
   -5.8130   20.4200  -33.3730 C   0  0  0  0  0  0  0  0  0  0  0  0
   -6.5690   20.8130  -32.2600 C   0  0  0  0  0  0  0  0  0  0  0  0
   -6.5090   22.1600  -31.7730 N   0  0  0  0  0  0  0  0  0  0  0  0
   -7.5620   22.8150  -31.3100 N   0  0  0  0  0  0  0  0  0  0  0  0
   -7.2090   24.0190  -30.8810 N   0  0  0  0  0  0  0  0  0  0  0  0
   -5.8770   24.1270  -31.0570 C   0  0  0  0  0  0  0  0  0  0  0  0
   -5.1030   25.3150  -30.6490 C   0  0  0  0  0  0  0  0  0  0  0  0
   -5.7090   26.4030  -30.4720 O   0  0  0  0  0  0  0  0  0  0  0  0
   -3.6840   25.2760  -30.4570 N   0  0  0  0  0  0  0  0  0  0  0  0
   -2.9890   24.5470  -29.4350 C   0  0  0  0  0  0  0  0  0  0  0  0
   -1.6650   24.8900  -29.1390 C   0  0  0  0  0  0  0  0  0  0  0  0
   -0.9580   24.1980  -28.1530 C   0  0  0  0  0  0  0  0  0  0  0  0
   -1.5750   23.1640  -27.4350 C   0  0  0  0  0  0  0  0  0  0  0  0
   -0.6850   22.2980  -26.1810 S   0  0  0  0  0  0  0  0  0  0  0  0
   -1.4280   21.0380  -25.8320 O   0  0  0  0  0  0  0  0  0  0  0  0
    0.6640   21.9060  -26.7150 O   0  0  0  0  0  0  0  0  0  0  0  0
   -0.4770   23.2650  -24.7360 N   0  0  0  0  0  0  0  0  0  0  0  0
   -1.0400   24.6080  -24.9100 C   0  0  0  0  0  0  0  0  0  0  0  0
    0.0920   25.5620  -25.2630 C   0  0  0  0  0  0  0  0  0  0  0  0
    1.3740   24.8150  -24.9530 C   0  0  0  0  0  0  0  0  0  0  0  0
    0.9450   23.4540  -24.4260 C   0  0  0  0  0  0  0  0  0  0  0  0
   -2.9060   22.8300  -27.7170 C   0  0  0  0  0  0  0  0  0  0  0  0
   -3.6140   23.5230  -28.7010 C   0  0  0  0  0  0  0  0  0  0  0  0
   -5.4260   22.9530  -31.6430 C   0  0  0  0  0  0  0  0  0  0  0  0
   -4.0110   22.5670  -31.9650 C   0  0  0  0  0  0  0  0  0  0  0  0
   -7.4390   19.8930  -31.6580 C   0  0  0  0  0  0  0  0  0  0  0  0
   -7.5210   18.5820  -32.1370 C   0  0  0  0  0  0  0  0  0  0  0  0
   -6.9118   16.0705  -32.9291 H   0  0  0  0  0  0  0  0  0  0  0  0
   -7.7600   16.7030  -34.3807 H   0  0  0  0  0  0  0  0  0  0  0  0
   -5.9700   16.5527  -34.3807 H   0  0  0  0  0  0  0  0  0  0  0  0
   -5.2969   18.8089  -34.7274 H   0  0  0  0  0  0  0  0  0  0  0  0
   -5.1529   21.1459  -33.8703 H   0  0  0  0  0  0  0  0  0  0  0  0
   -1.1777   25.7102  -29.6866 H   0  0  0  0  0  0  0  0  0  0  0  0
    0.0873   24.4655  -27.9390 H   0  0  0  0  0  0  0  0  0  0  0  0
   -1.7830   24.5970  -25.7211 H   0  0  0  0  0  0  0  0  0  0  0  0
   -1.5332   24.9339  -23.9823 H   0  0  0  0  0  0  0  0  0  0  0  0
    0.0513   25.8265  -26.3300 H   0  0  0  0  0  0  0  0  0  0  0  0
    0.0227   26.5006  -24.6935 H   0  0  0  0  0  0  0  0  0  0  0  0
    1.9795   24.6993  -25.8640 H   0  0  0  0  0  0  0  0  0  0  0  0
    1.9904   25.3564  -24.2202 H   0  0  0  0  0  0  0  0  0  0  0  0
    1.5389   22.6643  -24.9094 H   0  0  0  0  0  0  0  0  0  0  0  0
    1.1053   23.4017  -23.3390 H   0  0  0  0  0  0  0  0  0  0  0  0
   -3.3959   22.0175  -27.1603 H   0  0  0  0  0  0  0  0  0  0  0  0
   -4.6646   23.2670  -28.9028 H   0  0  0  0  0  0  0  0  0  0  0  0
   -3.4509   22.4142  -31.0307 H   0  0  0  0  0  0  0  0  0  0  0  0
   -4.0091   21.6355  -32.5501 H   0  0  0  0  0  0  0  0  0  0  0  0
   -3.5364   23.3685  -32.5501 H   0  0  0  0  0  0  0  0  0  0  0  0
   -8.0599   20.2040  -30.8049 H   0  0  0  0  0  0  0  0  0  0  0  0
   -8.2045   17.8654  -31.6581 H   0  0  0  0  0  0  0  0  0  0  0  0
  1  2  1  0
  2  3  2  0
  3  4  1  0
  4  5  2  0
  5  6  1  0
  6  7  1  0
  7  8  2  0
  8  9  1  0
  9 10  1  0
 10 11  2  0
 10 12  1  0
 12 13  1  0
 13 14  2  0
 14 15  1  0
 15 16  2  0
 16 17  1  0
 17 18  2  0
 17 19  2  0
 17 20  1  0
 20 21  1  0
 21 22  1  0
 22 23  1  0
 23 24  1  0
 16 25  1  0
 25 26  2  0
  9 27  2  0
 27 28  1  0
  5 29  1  0
 29 30  2  0
 30  2  1  0
 27  6  1  0
 26 13  1  0
 24 20  1  0
  1 31  1  0
  1 32  1  0
  1 33  1  0
  3 34  1  0
  4 35  1  0
 14 36  1  0
 15 37  1  0
 21 38  1  0
 21 39  1  0
 22 40  1  0
 22 41  1  0
 23 42  1  0
 23 43  1  0
 24 44  1  0
 24 45  1  0
 25 46  1  0
 26 47  1  0
 28 48  1  0
 28 49  1  0
 28 50  1  0
 29 51  1  0
 30 52  1  0
M  CHG  1  12  -1
M  END
>  <UniqueID>  (34) 
33

>  <SMILES>  (34) 
Cc1ccc(-n2nnc(C(=O)[N-]c3ccc(S(=O)(=O)N4CCCC4)cc3)c2C)cc1

>  <Energy>  (34) 
101.83934176006328

>  <Genealogy>  (34) 
Cc1ccc(-n2nnc(C(=O)[N-]c3ccc(S(=O)(=O)N4CCCC4)cc3)c2C)cc1 (protonated)
Cc1ccc(-n2nnc(C(=O)[N-]c3ccc(S(=O)(=O)N4CCCC4)cc3)c2C)cc1 (3D coordinates assigned)
Cc1ccc(-n2nnc(C(=O)[N-]c3ccc(S(=O)(=O)N4CCCC4)cc3)c2C)cc1 (nonaromatic ring conformer: 101.83934176006328 kcal/mol)

>  <smiles>  (34) 
Cc1ccc(-n2nnc(C(=O)Nc3ccc(S(=O)(=O)N4CCCC4)cc3)c2C)cc1

>  <score_type>  (34) 
oracle

>  <origin>  (34) 
adgpu

>  <m_score__min__energy>  (34) 
-12.199999999999999

>  <m_primary>  (34) 
energy

$$$$
34:0
     RDKit          3D

 64 67  0  0  0  0  0  0  0  0999 V2000
   -1.6200   27.1160  -29.3410 H   0  0  0  0  0  0  0  0  0  0  0  0
   -1.4880   26.4650  -28.5760 O   0  0  0  0  0  0  0  0  0  0  0  0
   -1.5030   25.0860  -28.7780 C   0  0  0  0  0  0  0  0  0  0  0  0
   -0.5220   24.2790  -28.1870 C   0  0  0  0  0  0  0  0  0  0  0  0
    0.2522   24.7356  -27.5529 H   0  0  0  0  0  0  0  0  0  0  0  0
   -0.5210   22.8980  -28.3980 C   0  0  0  0  0  0  0  0  0  0  0  0
    0.2455   22.2699  -27.9205 H   0  0  0  0  0  0  0  0  0  0  0  0
   -1.4950   22.3120  -29.2170 C   0  0  0  0  0  0  0  0  0  0  0  0
   -1.5590   20.5660  -29.4300 S   0  0  0  0  0  0  0  0  0  0  0  0
   -2.9860   20.1120  -29.5840 O   0  0  0  0  0  0  0  0  0  0  0  0
   -0.9730   19.9090  -28.2100 O   0  0  0  0  0  0  0  0  0  0  0  0
   -0.6340   20.1220  -30.8440 N   0  0  0  0  0  0  0  0  0  0  0  0
   -0.2520   21.3200  -31.6360 C   0  0  0  0  0  0  0  0  0  0  0  0
   -0.3557   22.2095  -30.9972 H   0  0  0  0  0  0  0  0  0  0  0  0
    0.7848   21.1732  -31.9730 H   0  0  0  0  0  0  0  0  0  0  0  0
   -1.1170   21.5150  -32.8890 C   0  0  0  0  0  0  0  0  0  0  0  0
   -2.1629   21.6661  -32.5835 H   0  0  0  0  0  0  0  0  0  0  0  0
   -0.7439   22.3922  -33.4380 H   0  0  0  0  0  0  0  0  0  0  0  0
   -1.0360   20.2880  -33.8150 C   0  0  0  0  0  0  0  0  0  0  0  0
   -1.9732   20.2160  -34.3863 H   0  0  0  0  0  0  0  0  0  0  0  0
   -0.1667   20.4267  -34.4745 H   0  0  0  0  0  0  0  0  0  0  0  0
   -0.8280   18.9730  -33.0430 C   0  0  0  0  0  0  0  0  0  0  0  0
   -1.3619   18.1634  -33.5622 H   0  0  0  0  0  0  0  0  0  0  0  0
    0.2504   18.7601  -33.0002 H   0  0  0  0  0  0  0  0  0  0  0  0
   -1.3590   19.0840  -31.6100 C   0  0  0  0  0  0  0  0  0  0  0  0
   -2.4272   19.3446  -31.6434 H   0  0  0  0  0  0  0  0  0  0  0  0
   -1.2086   18.1162  -31.1093 H   0  0  0  0  0  0  0  0  0  0  0  0
   -2.4670   23.1160  -29.8230 C   0  0  0  0  0  0  0  0  0  0  0  0
   -3.2143   22.6607  -30.4895 H   0  0  0  0  0  0  0  0  0  0  0  0
   -2.4950   24.4960  -29.5870 C   0  0  0  0  0  0  0  0  0  0  0  0
   -3.5530   25.2730  -30.1650 N   0  0  0  0  0  0  0  0  0  0  0  0
   -4.9180   24.8520  -30.2830 C   0  0  0  0  0  0  0  0  0  0  0  0
   -5.8330   25.6840  -30.0520 O   0  0  0  0  0  0  0  0  0  0  0  0
   -5.2910   23.4780  -30.6810 C   0  0  0  0  0  0  0  0  0  0  0  0
   -6.0333   22.9328  -30.0796 H   0  0  0  0  0  0  0  0  0  0  0  0
   -4.7540   22.8750  -31.7510 C   0  0  0  0  0  0  0  0  0  0  0  0
   -4.0330   23.4434  -32.3568 H   0  0  0  0  0  0  0  0  0  0  0  0
   -5.0730   21.4890  -32.1670 C   0  0  0  0  0  0  0  0  0  0  0  0
   -6.2350   20.8850  -31.6560 C   0  0  0  0  0  0  0  0  0  0  0  0
   -6.8651   21.4335  -30.9404 H   0  0  0  0  0  0  0  0  0  0  0  0
   -6.5960   19.5950  -32.0490 C   0  0  0  0  0  0  0  0  0  0  0  0
   -7.5018   19.1298  -31.6331 H   0  0  0  0  0  0  0  0  0  0  0  0
   -5.8110   18.8900  -32.9700 C   0  0  0  0  0  0  0  0  0  0  0  0
   -6.2870   17.2730  -33.4940 S   0  0  0  0  0  0  0  0  0  0  0  0
   -7.6150   16.9290  -32.8810 O   0  0  0  0  0  0  0  0  0  0  0  0
   -6.4490   17.2640  -34.9880 O   0  0  0  0  0  0  0  0  0  0  0  0
   -5.1080   16.0700  -33.0330 N   0  0  0  0  0  0  0  0  0  0  0  0
   -3.7730   16.4440  -33.5210 C   0  0  0  0  0  0  0  0  0  0  0  0
   -3.7917   16.5111  -34.6188 H   0  0  0  0  0  0  0  0  0  0  0  0
   -3.4911   17.4174  -33.0933 H   0  0  0  0  0  0  0  0  0  0  0  0
   -2.7390   15.3820  -33.0910 C   0  0  0  0  0  0  0  0  0  0  0  0
   -2.1709   15.0628  -33.9772 H   0  0  0  0  0  0  0  0  0  0  0  0
   -2.0831   15.8387  -32.3352 H   0  0  0  0  0  0  0  0  0  0  0  0
   -3.3470   14.2430  -32.5050 O   0  0  0  0  0  0  0  0  0  0  0  0
   -4.3430   13.7340  -33.3720 C   0  0  0  0  0  0  0  0  0  0  0  0
   -3.8915   13.5219  -34.3524 H   0  0  0  0  0  0  0  0  0  0  0  0
   -4.7553   12.8154  -32.9290 H   0  0  0  0  0  0  0  0  0  0  0  0
   -5.4910   14.7470  -33.5550 C   0  0  0  0  0  0  0  0  0  0  0  0
   -5.7264   14.8360  -34.6258 H   0  0  0  0  0  0  0  0  0  0  0  0
   -6.3698   14.3889  -32.9987 H   0  0  0  0  0  0  0  0  0  0  0  0
   -4.6560   19.4880  -33.4900 C   0  0  0  0  0  0  0  0  0  0  0  0
   -4.0334   18.9389  -34.2116 H   0  0  0  0  0  0  0  0  0  0  0  0
   -4.2900   20.7790  -33.0970 C   0  0  0  0  0  0  0  0  0  0  0  0
   -3.3851   21.2425  -33.5169 H   0  0  0  0  0  0  0  0  0  0  0  0
  1  2  1  0
  2  3  1  0
  3  4  2  0
  4  5  1  0
  4  6  1  0
  6  7  1  0
  6  8  2  0
  8  9  1  0
  9 10  2  0
  9 11  2  0
  9 12  1  0
 12 13  1  0
 13 14  1  0
 13 15  1  0
 13 16  1  0
 16 17  1  0
 16 18  1  0
 16 19  1  0
 19 20  1  0
 19 21  1  0
 19 22  1  0
 22 23  1  0
 22 24  1  0
 22 25  1  0
 25 26  1  0
 25 27  1  0
  8 28  1  0
 28 29  1  0
 28 30  2  0
 30 31  1  0
 31 32  1  0
 32 33  2  0
 32 34  1  0
 34 35  1  0
 34 36  2  0
 36 37  1  0
 36 38  1  0
 38 39  2  0
 39 40  1  0
 39 41  1  0
 41 42  1  0
 41 43  2  0
 43 44  1  0
 44 45  2  0
 44 46  2  0
 44 47  1  0
 47 48  1  0
 48 49  1  0
 48 50  1  0
 48 51  1  0
 51 52  1  0
 51 53  1  0
 51 54  1  0
 54 55  1  0
 55 56  1  0
 55 57  1  0
 55 58  1  0
 58 59  1  0
 58 60  1  0
 43 61  1  0
 61 62  1  0
 61 63  2  0
 63 64  1  0
 30  3  1  0
 63 38  1  0
 25 12  1  0
 58 47  1  0
M  CHG  1  31  -1
M  END
>  <UniqueID>  (35) 
34

>  <SMILES>  (35) 
O=C(/C=C/c1ccc(S(=O)(=O)N2CCOCC2)cc1)[N-]c1cc(S(=O)(=O)N2CCCCC2)ccc1O

>  <Energy>  (35) 
86.25911273433101

>  <Genealogy>  (35) 
O=C(C=Cc1ccc(S(=O)(=O)N2CCOCC2)cc1)[N-]c1cc(S(=O)(=O)N2CCCCC2)ccc1O (protonated)
O=C(/C=C/c1ccc(S(=O)(=O)N2CCOCC2)cc1)[N-]c1cc(S(=O)(=O)N2CCCCC2)ccc1O (cis-trans isomerization)
O=C(/C=C/c1ccc(S(=O)(=O)N2CCOCC2)cc1)[N-]c1cc(S(=O)(=O)N2CCCCC2)ccc1O (3D coordinates assigned)
O=C(/C=C/c1ccc(S(=O)(=O)N2CCOCC2)cc1)[N-]c1cc(S(=O)(=O)N2CCCCC2)ccc1O (nonaromatic ring conformer: 86.25911273433101 kcal/mol)

>  <smiles>  (35) 
O=C(C=Cc1ccc(S(=O)(=O)N2CCOCC2)cc1)Nc1cc(S(=O)(=O)N2CCCCC2)ccc1O

>  <score_type>  (35) 
oracle

>  <origin>  (35) 
adgpu

>  <m_score__min__energy>  (35) 
-12.19

>  <m_primary>  (35) 
energy

$$$$
35:0
     RDKit          3D

 27 28  0  0  0  0  0  0  0  0999 V2000
   -6.2360   24.8700  -31.3060 O   0  0  0  0  0  0  0  0  0  0  0  0
   -6.0310   23.5590  -30.6020 S   0  0  0  0  0  0  0  0  0  0  0  0
   -7.2110   23.2910  -29.7100 O   0  0  0  0  0  0  0  0  0  0  0  0
   -5.9290   22.2970  -31.7870 N   0  0  0  0  0  0  0  0  0  0  0  0
   -6.8820   21.2370  -31.9610 C   0  0  0  0  0  0  0  0  0  0  0  0
   -6.4750   19.8960  -32.1050 C   0  0  0  0  0  0  0  0  0  0  0  0
   -7.4250   18.8860  -32.2810 C   0  0  0  0  0  0  0  0  0  0  0  0
   -8.7840   19.2000  -32.3140 C   0  0  0  0  0  0  0  0  0  0  0  0
   -9.1990   20.5260  -32.1720 C   0  0  0  0  0  0  0  0  0  0  0  0
   -8.2570   21.5460  -31.9960 C   0  0  0  0  0  0  0  0  0  0  0  0
   -8.7100   22.8600  -31.8600 O   0  0  0  0  0  0  0  0  0  0  0  0
   -4.5420   23.6470  -29.6560 C   0  0  0  0  0  0  0  0  0  0  0  0
   -4.2680   22.6620  -28.6970 C   0  0  0  0  0  0  0  0  0  0  0  0
   -3.0950   22.7220  -27.9390 C   0  0  0  0  0  0  0  0  0  0  0  0
   -2.1850   23.7620  -28.1380 C   0  0  0  0  0  0  0  0  0  0  0  0
   -2.4420   24.7420  -29.1010 C   0  0  0  0  0  0  0  0  0  0  0  0
   -1.5290   25.7710  -29.2990 O   0  0  0  0  0  0  0  0  0  0  0  0
   -3.6160   24.6870  -29.8640 C   0  0  0  0  0  0  0  0  0  0  0  0
   -3.8530   25.6640  -30.8270 O   0  0  0  0  0  0  0  0  0  0  0  0
   -5.4049   19.6427  -32.0788 H   0  0  0  0  0  0  0  0  0  0  0  0
   -7.1004   17.8410  -32.3938 H   0  0  0  0  0  0  0  0  0  0  0  0
   -9.5291   18.4027  -32.4520 H   0  0  0  0  0  0  0  0  0  0  0  0
  -10.2713   20.7698  -32.1986 H   0  0  0  0  0  0  0  0  0  0  0  0
   -8.0870   23.6300  -31.6510 H   0  0  0  0  0  0  0  0  0  0  0  0
   -4.9795   21.8379  -28.5402 H   0  0  0  0  0  0  0  0  0  0  0  0
   -2.8886   21.9486  -27.1845 H   0  0  0  0  0  0  0  0  0  0  0  0
   -1.2652   23.8102  -27.5366 H   0  0  0  0  0  0  0  0  0  0  0  0
  1  2  2  0
  2  3  2  0
  2  4  1  0
  4  5  1  0
  5  6  2  0
  6  7  1  0
  7  8  2  0
  8  9  1  0
  9 10  2  0
 10 11  1  0
  2 12  1  0
 12 13  2  0
 13 14  1  0
 14 15  2  0
 15 16  1  0
 16 17  1  0
 16 18  2  0
 18 19  1  0
 10  5  1  0
 18 12  1  0
  6 20  1  0
  7 21  1  0
  8 22  1  0
  9 23  1  0
 11 24  1  0
 13 25  1  0
 14 26  1  0
 15 27  1  0
M  CHG  3   4  -1  17  -1  19  -1
M  END
>  <UniqueID>  (36) 
35

>  <SMILES>  (36) 
O=S(=O)([N-]c1ccccc1O)c1cccc([O-])c1[O-]

>  <Energy>  (36) 
32.70628921123056

>  <Genealogy>  (36) 
O=S(=O)([N-]c1ccccc1O)c1cccc([O-])c1[O-] (protonated)
O=S(=O)([N-]c1ccccc1O)c1cccc([O-])c1[O-] (3D coordinates assigned)
O=S(=O)([N-]c1ccccc1O)c1cccc([O-])c1[O-] (optimized conformer: 32.70628921123056 kcal/mol)

>  <smiles>  (36) 
O=S(=O)(Nc1ccccc1O)c1cccc(O)c1O

>  <score_type>  (36) 
oracle

>  <origin>  (36) 
adgpu

>  <m_score__min__energy>  (36) 
-13.32

>  <m_primary>  (36) 
energy

$$$$
36:0
     RDKit          3D

 56 58  0  0  0  0  0  0  0  0999 V2000
   -2.6330   20.1820  -28.5010 C   0  0  0  0  0  0  0  0  0  0  0  0
   -2.5010   20.2190  -27.0400 N   0  0  0  0  0  0  0  0  0  0  0  0
   -2.3760   18.8570  -26.5070 C   0  0  0  0  0  0  0  0  0  0  0  0
   -1.0980   21.1610  -26.5960 S   0  0  0  0  0  0  0  0  0  0  0  0
   -1.0370   21.2900  -25.0990 O   0  0  0  0  0  0  0  0  0  0  0  0
    0.1450   20.4500  -27.0510 O   0  0  0  0  0  0  0  0  0  0  0  0
   -1.1410   22.7720  -27.3180 C   0  0  0  0  0  0  0  0  0  0  0  0
   -0.1750   23.7260  -26.9740 C   0  0  0  0  0  0  0  0  0  0  0  0
   -0.2300   25.0090  -27.5230 C   0  0  0  0  0  0  0  0  0  0  0  0
   -1.2440   25.3490  -28.4240 C   0  0  0  0  0  0  0  0  0  0  0  0
   -1.2840   26.6330  -28.9550 O   0  0  0  0  0  0  0  0  0  0  0  0
   -2.2100   24.3950  -28.7940 C   0  0  0  0  0  0  0  0  0  0  0  0
   -3.2650   24.7580  -29.6990 N   0  0  0  0  0  0  0  0  0  0  0  0
   -3.8810   23.8440  -30.6150 C   0  0  0  0  0  0  0  0  0  0  0  0
   -3.3110   22.7590  -30.9100 O   0  0  0  0  0  0  0  0  0  0  0  0
   -5.1050   24.2150  -31.2580 N   0  0  0  0  0  0  0  0  0  0  0  0
   -6.2170   23.3500  -31.5290 C   0  0  0  0  0  0  0  0  0  0  0  0
   -7.5150   23.8600  -31.4020 C   0  0  0  0  0  0  0  0  0  0  0  0
   -8.6220   23.0390  -31.6290 C   0  0  0  0  0  0  0  0  0  0  0  0
   -8.4420   21.6950  -31.9650 C   0  0  0  0  0  0  0  0  0  0  0  0
   -7.1500   21.1620  -32.0680 C   0  0  0  0  0  0  0  0  0  0  0  0
   -6.9210   19.4520  -32.4450 S   0  0  0  0  0  0  0  0  0  0  0  0
   -8.2520   18.8360  -32.7790 O   0  0  0  0  0  0  0  0  0  0  0  0
   -6.3740   18.7460  -31.2360 O   0  0  0  0  0  0  0  0  0  0  0  0
   -5.8280   19.2310  -33.7930 N   0  0  0  0  0  0  0  0  0  0  0  0
   -5.9210   17.8450  -34.3050 C   0  0  0  0  0  0  0  0  0  0  0  0
   -4.7130   17.4900  -35.1780 C   0  0  0  0  0  0  0  0  0  0  0  0
   -3.4050   17.5540  -34.3670 C   0  0  0  0  0  0  0  0  0  0  0  0
   -3.4950   18.5170  -33.1700 C   0  0  0  0  0  0  0  0  0  0  0  0
   -4.4520   19.6820  -33.4650 C   0  0  0  0  0  0  0  0  0  0  0  0
   -6.0390   21.9910  -31.8510 C   0  0  0  0  0  0  0  0  0  0  0  0
   -2.1570   23.1100  -28.2220 C   0  0  0  0  0  0  0  0  0  0  0  0
   -3.6602   19.8941  -28.7692 H   0  0  0  0  0  0  0  0  0  0  0  0
   -2.4113   21.1769  -28.9145 H   0  0  0  0  0  0  0  0  0  0  0  0
   -1.9265   19.4473  -28.9145 H   0  0  0  0  0  0  0  0  0  0  0  0
   -2.3792   18.8918  -25.4076 H   0  0  0  0  0  0  0  0  0  0  0  0
   -3.2220   18.2472  -26.8570 H   0  0  0  0  0  0  0  0  0  0  0  0
   -1.4332   18.4114  -26.8570 H   0  0  0  0  0  0  0  0  0  0  0  0
    0.6286   23.4642  -26.2700 H   0  0  0  0  0  0  0  0  0  0  0  0
    0.5282   25.7560  -27.2452 H   0  0  0  0  0  0  0  0  0  0  0  0
   -3.5910   25.7510  -29.7160 H   0  0  0  0  0  0  0  0  0  0  0  0
   -7.6637   24.9133  -31.1218 H   0  0  0  0  0  0  0  0  0  0  0  0
   -9.6380   23.4517  -31.5430 H   0  0  0  0  0  0  0  0  0  0  0  0
   -9.3165   21.0536  -32.1492 H   0  0  0  0  0  0  0  0  0  0  0  0
   -5.9633   17.1507  -33.4529 H   0  0  0  0  0  0  0  0  0  0  0  0
   -6.8291   17.7631  -34.9203 H   0  0  0  0  0  0  0  0  0  0  0  0
   -4.8417   16.4712  -35.5724 H   0  0  0  0  0  0  0  0  0  0  0  0
   -4.6502   18.2178  -36.0004 H   0  0  0  0  0  0  0  0  0  0  0  0
   -3.1742   16.5462  -33.9913 H   0  0  0  0  0  0  0  0  0  0  0  0
   -2.6169   17.9289  -35.0366 H   0  0  0  0  0  0  0  0  0  0  0  0
   -3.8617   17.9649  -32.2921 H   0  0  0  0  0  0  0  0  0  0  0  0
   -2.4933   18.9291  -32.9784 H   0  0  0  0  0  0  0  0  0  0  0  0
   -4.4976   20.3317  -32.5786 H   0  0  0  0  0  0  0  0  0  0  0  0
   -4.0613   20.2154  -34.3441 H   0  0  0  0  0  0  0  0  0  0  0  0
   -5.0232   21.5768  -31.9329 H   0  0  0  0  0  0  0  0  0  0  0  0
   -2.9205   22.3639  -28.4872 H   0  0  0  0  0  0  0  0  0  0  0  0
  1  2  1  0
  2  3  1  0
  2  4  1  0
  4  5  2  0
  4  6  2  0
  4  7  1  0
  7  8  2  0
  8  9  1  0
  9 10  2  0
 10 11  1  0
 10 12  1  0
 12 13  1  0
 13 14  1  0
 14 15  2  0
 14 16  1  0
 16 17  1  0
 17 18  2  0
 18 19  1  0
 19 20  2  0
 20 21  1  0
 21 22  1  0
 22 23  2  0
 22 24  2  0
 22 25  1  0
 25 26  1  0
 26 27  1  0
 27 28  1  0
 28 29  1  0
 29 30  1  0
 21 31  2  0
 12 32  2  0
 32  7  1  0
 31 17  1  0
 30 25  1  0
  1 33  1  0
  1 34  1  0
  1 35  1  0
  3 36  1  0
  3 37  1  0
  3 38  1  0
  8 39  1  0
  9 40  1  0
 13 41  1  0
 18 42  1  0
 19 43  1  0
 20 44  1  0
 26 45  1  0
 26 46  1  0
 27 47  1  0
 27 48  1  0
 28 49  1  0
 28 50  1  0
 29 51  1  0
 29 52  1  0
 30 53  1  0
 30 54  1  0
 31 55  1  0
 32 56  1  0
M  CHG  2  11  -1  16  -1
M  END
>  <UniqueID>  (37) 
36

>  <SMILES>  (37) 
CN(C)S(=O)(=O)c1ccc([O-])c(NC(=O)[N-]c2cccc(S(=O)(=O)N3CCCCC3)c2)c1

>  <Energy>  (37) 
65.33397996456902

>  <Genealogy>  (37) 
CN(C)S(=O)(=O)c1ccc([O-])c(NC(=O)[N-]c2cccc(S(=O)(=O)N3CCCCC3)c2)c1 (protonated)
CN(C)S(=O)(=O)c1ccc([O-])c(NC(=O)[N-]c2cccc(S(=O)(=O)N3CCCCC3)c2)c1 (3D coordinates assigned)
CN(C)S(=O)(=O)c1ccc([O-])c(NC(=O)[N-]c2cccc(S(=O)(=O)N3CCCCC3)c2)c1 (nonaromatic ring conformer: 65.33397996456902 kcal/mol)

>  <smiles>  (37) 
CN(C)S(=O)(=O)c1ccc(O)c(NC(=O)Nc2cccc(S(=O)(=O)N3CCCCC3)c2)c1

>  <score_type>  (37) 
oracle

>  <origin>  (37) 
adgpu

>  <m_score__min__energy>  (37) 
-14.9

>  <m_primary>  (37) 
energy

$$$$
37:0
     RDKit          3D

 41 43  0  0  0  0  0  0  0  0999 V2000
   -1.0160   21.4030  -26.1840 C   0  0  0  0  0  0  0  0  0  0  0  0
   -1.6560   22.0590  -27.3790 C   0  0  0  0  0  0  0  0  0  0  0  0
   -2.5910   21.3210  -28.1190 C   0  0  0  0  0  0  0  0  0  0  0  0
   -3.2030   21.8670  -29.2420 C   0  0  0  0  0  0  0  0  0  0  0  0
   -2.8840   23.1630  -29.6670 C   0  0  0  0  0  0  0  0  0  0  0  0
   -3.5140   23.7410  -30.8220 N   0  0  0  0  0  0  0  0  0  0  0  0
   -4.4790   24.7990  -30.8270 C   0  0  0  0  0  0  0  0  0  0  0  0
   -4.2470   25.8810  -30.2250 O   0  0  0  0  0  0  0  0  0  0  0  0
   -5.7110   24.6060  -31.5310 N   0  0  0  0  0  0  0  0  0  0  0  0
   -6.4060   23.3640  -31.7150 C   0  0  0  0  0  0  0  0  0  0  0  0
   -7.7060   23.1560  -31.2180 C   0  0  0  0  0  0  0  0  0  0  0  0
   -8.3390   21.9210  -31.4000 C   0  0  0  0  0  0  0  0  0  0  0  0
   -9.5910   21.7260  -30.9160 F   0  0  0  0  0  0  0  0  0  0  0  0
   -7.6790   20.8840  -32.0640 C   0  0  0  0  0  0  0  0  0  0  0  0
   -6.3780   21.0760  -32.5430 C   0  0  0  0  0  0  0  0  0  0  0  0
   -5.6920   20.0040  -33.2160 C   0  0  0  0  0  0  0  0  0  0  0  0
   -5.1400   19.1430  -33.7580 N   0  0  0  0  0  0  0  0  0  0  0  0
   -5.7420   22.3110  -32.3600 C   0  0  0  0  0  0  0  0  0  0  0  0
   -1.9770   23.9350  -28.9140 C   0  0  0  0  0  0  0  0  0  0  0  0
   -1.6640   25.2340  -29.3210 O   0  0  0  0  0  0  0  0  0  0  0  0
   -1.3710   23.3990  -27.7540 C   0  0  0  0  0  0  0  0  0  0  0  0
   -0.2300   24.3950  -26.8090 S   0  0  0  0  0  0  0  0  0  0  0  0
    0.8430   23.5320  -26.2050 O   0  0  0  0  0  0  0  0  0  0  0  0
    0.4530   25.3740  -27.7220 O   0  0  0  0  0  0  0  0  0  0  0  0
   -1.0270   25.3110  -25.4860 C   0  0  0  0  0  0  0  0  0  0  0  0
   -2.4840   25.6420  -25.7660 C   0  0  0  0  0  0  0  0  0  0  0  0
   -1.4400   26.7450  -25.7840 C   0  0  0  0  0  0  0  0  0  0  0  0
   -1.4349   21.8323  -25.2619 H   0  0  0  0  0  0  0  0  0  0  0  0
   -1.2157   20.3216  -26.2086 H   0  0  0  0  0  0  0  0  0  0  0  0
    0.0700   21.5760  -26.2086 H   0  0  0  0  0  0  0  0  0  0  0  0
   -2.8436   20.2968  -27.8071 H   0  0  0  0  0  0  0  0  0  0  0  0
   -3.9436   21.2763  -29.8011 H   0  0  0  0  0  0  0  0  0  0  0  0
   -8.2259   23.9659  -30.6852 H   0  0  0  0  0  0  0  0  0  0  0  0
   -8.1818   19.9167  -32.2103 H   0  0  0  0  0  0  0  0  0  0  0  0
   -4.7144   22.4554  -32.7250 H   0  0  0  0  0  0  0  0  0  0  0  0
   -2.0800   25.6720  -30.1340 H   0  0  0  0  0  0  0  0  0  0  0  0
   -0.4553   24.8383  -24.6738 H   0  0  0  0  0  0  0  0  0  0  0  0
   -2.9519   25.3125  -26.7054 H   0  0  0  0  0  0  0  0  0  0  0  0
   -3.4338   25.4794  -25.2355 H   0  0  0  0  0  0  0  0  0  0  0  0
   -1.1516   27.2138  -26.7364 H   0  0  0  0  0  0  0  0  0  0  0  0
   -1.3204   27.7113  -25.2721 H   0  0  0  0  0  0  0  0  0  0  0  0
  1  2  1  0
  2  3  2  0
  3  4  1  0
  4  5  2  0
  5  6  1  0
  6  7  1  0
  7  8  2  0
  7  9  1  0
  9 10  1  0
 10 11  2  0
 11 12  1  0
 12 13  1  0
 12 14  2  0
 14 15  1  0
 15 16  1  0
 16 17  3  0
 15 18  2  0
  5 19  1  0
 19 20  1  0
 19 21  2  0
 21 22  1  0
 22 23  2  0
 22 24  2  0
 22 25  1  0
 25 26  1  0
 26 27  1  0
 21  2  1  0
 27 25  1  0
 18 10  1  0
  1 28  1  0
  1 29  1  0
  1 30  1  0
  3 31  1  0
  4 32  1  0
 11 33  1  0
 14 34  1  0
 18 35  1  0
 20 36  1  0
 25 37  1  0
 26 38  1  0
 26 39  1  0
 27 40  1  0
 27 41  1  0
M  CHG  2   6  -1   9  -1
M  END
>  <UniqueID>  (38) 
37

>  <SMILES>  (38) 
Cc1ccc([N-]C(=O)[N-]c2cc(F)cc(C#N)c2)c(O)c1S(=O)(=O)C1CC1

>  <Energy>  (38) 
315.8459880247234

>  <Genealogy>  (38) 
Cc1ccc([N-]C(=O)[N-]c2cc(F)cc(C#N)c2)c(O)c1S(=O)(=O)C1CC1 (protonated)
Cc1ccc([N-]C(=O)[N-]c2cc(F)cc(C#N)c2)c(O)c1S(=O)(=O)C1CC1 (3D coordinates assigned)
Cc1ccc([N-]C(=O)[N-]c2cc(F)cc(C#N)c2)c(O)c1S(=O)(=O)C1CC1 (nonaromatic ring conformer: 315.8459880247234 kcal/mol)

>  <smiles>  (38) 
Cc1ccc(NC(=O)Nc2cc(F)cc(C#N)c2)c(O)c1S(=O)(=O)C1CC1

>  <score_type>  (38) 
oracle

>  <origin>  (38) 
adgpu

>  <m_score__min__energy>  (38) 
-12.01

>  <m_primary>  (38) 
energy

$$$$
38:0
     RDKit          3D

 57 60  0  0  0  0  0  0  0  0999 V2000
   -2.9900   18.7720  -32.7290 C   0  0  0  0  0  0  0  0  0  0  0  0
   -4.2150   18.3390  -33.4190 N   0  0  0  0  0  0  0  0  0  0  0  0
   -4.9190   17.2640  -32.6720 C   0  0  0  0  0  0  0  0  0  0  0  0
   -6.2300   17.7450  -32.0300 C   0  0  0  0  0  0  0  0  0  0  0  0
   -7.1540   18.2930  -33.0460 N   0  0  0  0  0  0  0  0  0  0  0  0
   -8.4160   19.2290  -32.2740 S   0  0  0  0  0  0  0  0  0  0  0  0
   -9.5810   19.3820  -33.2130 O   0  0  0  0  0  0  0  0  0  0  0  0
   -8.8980   18.4930  -31.0530 O   0  0  0  0  0  0  0  0  0  0  0  0
   -7.8410   20.8310  -31.8000 C   0  0  0  0  0  0  0  0  0  0  0  0
   -8.1170   21.3280  -30.5190 C   0  0  0  0  0  0  0  0  0  0  0  0
   -7.6430   22.5850  -30.1330 C   0  0  0  0  0  0  0  0  0  0  0  0
   -6.8880   23.3640  -31.0180 C   0  0  0  0  0  0  0  0  0  0  0  0
   -6.3690   24.6170  -30.5480 N   0  0  0  0  0  0  0  0  0  0  0  0
   -5.0110   25.0650  -30.5850 C   0  0  0  0  0  0  0  0  0  0  0  0
   -4.7650   26.2870  -30.3980 O   0  0  0  0  0  0  0  0  0  0  0  0
   -3.9460   24.1660  -30.9140 N   0  0  0  0  0  0  0  0  0  0  0  0
   -3.1710   23.4300  -29.9570 C   0  0  0  0  0  0  0  0  0  0  0  0
   -3.3120   22.0420  -29.9160 C   0  0  0  0  0  0  0  0  0  0  0  0
   -2.6180   21.2900  -28.9740 C   0  0  0  0  0  0  0  0  0  0  0  0
   -1.7600   21.9080  -28.0590 C   0  0  0  0  0  0  0  0  0  0  0  0
   -0.9830   20.8540  -26.8770 Cl  0  0  0  0  0  0  0  0  0  0  0  0
   -1.5840   23.3140  -28.0880 C   0  0  0  0  0  0  0  0  0  0  0  0
   -0.4610   24.1290  -26.9670 S   0  0  0  0  0  0  0  0  0  0  0  0
    0.2440   25.2470  -27.6830 O   0  0  0  0  0  0  0  0  0  0  0  0
    0.5990   23.1880  -26.4600 O   0  0  0  0  0  0  0  0  0  0  0  0
   -1.4190   24.8010  -25.6080 C   0  0  0  0  0  0  0  0  0  0  0  0
   -2.7410   25.4400  -25.9980 C   0  0  0  0  0  0  0  0  0  0  0  0
   -1.5560   26.3140  -25.6150 C   0  0  0  0  0  0  0  0  0  0  0  0
   -2.3510   24.0800  -29.0090 C   0  0  0  0  0  0  0  0  0  0  0  0
   -2.3680   25.4790  -28.9780 O   0  0  0  0  0  0  0  0  0  0  0  0
   -6.5960   22.8570  -32.2970 C   0  0  0  0  0  0  0  0  0  0  0  0
   -7.0840   21.6060  -32.6880 C   0  0  0  0  0  0  0  0  0  0  0  0
   -6.4830   19.0590  -34.1210 C   0  0  0  0  0  0  0  0  0  0  0  0
   -5.0680   19.5070  -33.7320 C   0  0  0  0  0  0  0  0  0  0  0  0
   -3.1433   18.7178  -31.6411 H   0  0  0  0  0  0  0  0  0  0  0  0
   -2.1561   18.1142  -33.0150 H   0  0  0  0  0  0  0  0  0  0  0  0
   -2.7547   19.8078  -33.0150 H   0  0  0  0  0  0  0  0  0  0  0  0
   -5.1489   16.4445  -33.3688 H   0  0  0  0  0  0  0  0  0  0  0  0
   -4.2539   16.9348  -31.8600 H   0  0  0  0  0  0  0  0  0  0  0  0
   -6.7146   16.8964  -31.5250 H   0  0  0  0  0  0  0  0  0  0  0  0
   -5.9929   18.5416  -31.3094 H   0  0  0  0  0  0  0  0  0  0  0  0
   -8.7094   20.7261  -29.8141 H   0  0  0  0  0  0  0  0  0  0  0  0
   -7.8651   22.9655  -29.1251 H   0  0  0  0  0  0  0  0  0  0  0  0
   -3.9768   21.5392  -30.6338 H   0  0  0  0  0  0  0  0  0  0  0  0
   -2.7454   20.1977  -28.9485 H   0  0  0  0  0  0  0  0  0  0  0  0
   -1.1103   24.0463  -24.8697 H   0  0  0  0  0  0  0  0  0  0  0  0
   -3.0826   25.4034  -27.0430 H   0  0  0  0  0  0  0  0  0  0  0  0
   -3.7818   25.3462  -25.6547 H   0  0  0  0  0  0  0  0  0  0  0  0
   -1.0407   26.9095  -26.3830 H   0  0  0  0  0  0  0  0  0  0  0  0
   -1.3848   27.1142  -24.8799 H   0  0  0  0  0  0  0  0  0  0  0  0
   -3.1180   26.0460  -29.3440 H   0  0  0  0  0  0  0  0  0  0  0  0
   -5.9812   23.4469  -32.9927 H   0  0  0  0  0  0  0  0  0  0  0  0
   -6.8720   21.2283  -33.6991 H   0  0  0  0  0  0  0  0  0  0  0  0
   -6.4177   18.4247  -35.0173 H   0  0  0  0  0  0  0  0  0  0  0  0
   -7.0795   19.9643  -34.3069 H   0  0  0  0  0  0  0  0  0  0  0  0
   -4.6231   20.0645  -34.5694 H   0  0  0  0  0  0  0  0  0  0  0  0
   -5.1332   20.1457  -32.8388 H   0  0  0  0  0  0  0  0  0  0  0  0
  1  2  1  0
  2  3  1  0
  3  4  1  0
  4  5  1  0
  5  6  1  0
  6  7  2  0
  6  8  2  0
  6  9  1  0
  9 10  2  0
 10 11  1  0
 11 12  2  0
 12 13  1  0
 13 14  1  0
 14 15  2  0
 14 16  1  0
 16 17  1  0
 17 18  2  0
 18 19  1  0
 19 20  2  0
 20 21  1  0
 20 22  1  0
 22 23  1  0
 23 24  2  0
 23 25  2  0
 23 26  1  0
 26 27  1  0
 27 28  1  0
 22 29  2  0
 29 30  1  0
 12 31  1  0
 31 32  2  0
  5 33  1  0
 33 34  1  0
 34  2  1  0
 32  9  1  0
 29 17  1  0
 28 26  1  0
  1 35  1  0
  1 36  1  0
  1 37  1  0
  3 38  1  0
  3 39  1  0
  4 40  1  0
  4 41  1  0
 10 42  1  0
 11 43  1  0
 18 44  1  0
 19 45  1  0
 26 46  1  0
 27 47  1  0
 27 48  1  0
 28 49  1  0
 28 50  1  0
 30 51  1  0
 31 52  1  0
 32 53  1  0
 33 54  1  0
 33 55  1  0
 34 56  1  0
 34 57  1  0
M  CHG  2  13  -1  16  -1
M  END
>  <UniqueID>  (39) 
38

>  <SMILES>  (39) 
CN1CCN(S(=O)(=O)c2ccc([N-]C(=O)[N-]c3ccc(Cl)c(S(=O)(=O)C4CC4)c3O)cc2)CC1

>  <Energy>  (39) 
347.0340071713739

>  <Genealogy>  (39) 
CN1CCN(S(=O)(=O)c2ccc([N-]C(=O)[N-]c3ccc(Cl)c(S(=O)(=O)C4CC4)c3O)cc2)CC1 (protonated)
CN1CCN(S(=O)(=O)c2ccc([N-]C(=O)[N-]c3ccc(Cl)c(S(=O)(=O)C4CC4)c3O)cc2)CC1 (3D coordinates assigned)
CN1CCN(S(=O)(=O)c2ccc([N-]C(=O)[N-]c3ccc(Cl)c(S(=O)(=O)C4CC4)c3O)cc2)CC1 (nonaromatic ring conformer: 347.0340071713739 kcal/mol)

>  <smiles>  (39) 
CN1CCN(S(=O)(=O)c2ccc(NC(=O)Nc3ccc(Cl)c(S(=O)(=O)C4CC4)c3O)cc2)CC1

>  <score_type>  (39) 
oracle

>  <origin>  (39) 
adgpu

>  <m_score__min__energy>  (39) 
-14.369999999999999

>  <m_primary>  (39) 
energy

$$$$
39:0
     RDKit          3D

 31 33  0  0  0  0  0  0  0  0999 V2000
   -4.7340   14.5420  -33.7410 H   0  0  0  0  0  0  0  0  0  0  0  0
   -4.9090   14.9010  -32.7750 N   0  0  0  0  0  0  0  0  0  0  0  0
   -5.5450   16.0080  -32.5480 C   0  0  0  0  0  0  0  0  0  0  0  0
   -6.0320   16.7830  -33.6110 C   0  0  0  0  0  0  0  0  0  0  0  0
   -5.8781   16.4573  -34.6503 H   0  0  0  0  0  0  0  0  0  0  0  0
   -6.7130   17.9700  -33.3400 C   0  0  0  0  0  0  0  0  0  0  0  0
   -7.0983   18.5836  -34.1677 H   0  0  0  0  0  0  0  0  0  0  0  0
   -6.9070   18.3820  -32.0130 C   0  0  0  0  0  0  0  0  0  0  0  0
   -7.6240   19.6350  -31.7060 C   0  0  0  0  0  0  0  0  0  0  0  0
   -7.2240   20.8570  -32.1110 N   0  0  0  0  0  0  0  0  0  0  0  0
   -8.1940   21.6380  -31.5910 C   0  0  0  0  0  0  0  0  0  0  0  0
   -8.1990   23.1280  -31.6970 C   0  0  0  0  0  0  0  0  0  0  0  0
   -8.3640   23.4179  -32.7452 H   0  0  0  0  0  0  0  0  0  0  0  0
   -9.0049   23.5317  -31.0665 H   0  0  0  0  0  0  0  0  0  0  0  0
   -6.8830   23.6820  -31.2290 C   0  0  0  0  0  0  0  0  0  0  0  0
   -5.6780   23.0820  -31.6340 C   0  0  0  0  0  0  0  0  0  0  0  0
   -5.6989   22.1874  -32.2738 H   0  0  0  0  0  0  0  0  0  0  0  0
   -4.4520   23.6190  -31.2260 C   0  0  0  0  0  0  0  0  0  0  0  0
   -3.5117   23.1406  -31.5374 H   0  0  0  0  0  0  0  0  0  0  0  0
   -4.4210   24.7630  -30.4230 C   0  0  0  0  0  0  0  0  0  0  0  0
   -3.2020   25.2960  -30.0200 O   0  0  0  0  0  0  0  0  0  0  0  0
   -5.6160   25.3730  -30.0280 C   0  0  0  0  0  0  0  0  0  0  0  0
   -5.5907   26.2745  -29.3981 H   0  0  0  0  0  0  0  0  0  0  0  0
   -6.8430   24.8380  -30.4330 C   0  0  0  0  0  0  0  0  0  0  0  0
   -7.7806   25.3248  -30.1267 H   0  0  0  0  0  0  0  0  0  0  0  0
   -9.1120   20.9360  -30.9000 N   0  0  0  0  0  0  0  0  0  0  0  0
   -8.7270   19.7000  -31.0010 O   0  0  0  0  0  0  0  0  0  0  0  0
   -6.4040   17.5780  -30.9800 C   0  0  0  0  0  0  0  0  0  0  0  0
   -6.5445   17.8835  -29.9326 H   0  0  0  0  0  0  0  0  0  0  0  0
   -5.7430   16.4220  -31.2640 N   0  0  0  0  0  0  0  0  0  0  0  0
   -5.3800   15.8450  -30.4710 H   0  0  0  0  0  0  0  0  0  0  0  0
  1  2  1  0
  2  3  2  0
  3  4  1  0
  4  5  1  0
  4  6  2  0
  6  7  1  0
  6  8  1  0
  8  9  1  0
  9 10  2  0
 10 11  1  0
 11 12  1  0
 12 13  1  0
 12 14  1  0
 12 15  1  0
 15 16  2  0
 16 17  1  0
 16 18  1  0
 18 19  1  0
 18 20  2  0
 20 21  1  0
 20 22  1  0
 22 23  1  0
 22 24  2  0
 24 25  1  0
 11 26  2  0
 26 27  1  0
  8 28  2  0
 28 29  1  0
 28 30  1  0
 30 31  1  0
 30  3  1  0
 27  9  1  0
 24 15  1  0
M  CHG  1  21  -1
M  END
>  <UniqueID>  (40) 
39

>  <SMILES>  (40) 
[H]/N=c1\ccc(-c2nc(Cc3ccc([O-])cc3)no2)c[nH]1

>  <Energy>  (40) 
65.53497880568793

>  <Genealogy>  (40) 
N=c1ccc(-c2nc(Cc3ccc([O-])cc3)no2)c[nH]1 (protonated)
[H]/N=c1\ccc(-c2nc(Cc3ccc([O-])cc3)no2)c[nH]1 (cis-trans isomerization)
[H]/N=c1\ccc(-c2nc(Cc3ccc([O-])cc3)no2)c[nH]1 (3D coordinates assigned)
[H]/N=c1\ccc(-c2nc(Cc3ccc([O-])cc3)no2)c[nH]1 (optimized conformer: 65.53497880568793 kcal/mol)

>  <smiles>  (40) 
N=c1ccc(-c2nc(Cc3ccc(O)cc3)no2)c[nH]1

>  <score_type>  (40) 
oracle

>  <origin>  (40) 
adgpu

>  <m_score__min__energy>  (40) 
-10.890000000000001

>  <m_primary>  (40) 
energy

$$$$
40:0
     RDKit          3D

 50 53  0  0  0  0  0  0  0  0999 V2000
   -2.1660   23.4220  -27.7670 C   0  0  0  0  0  0  0  0  0  0  0  0
   -3.0550   24.0370  -28.7980 C   0  0  0  0  0  0  0  0  0  0  0  0
   -4.4130   23.8360  -28.9240 C   0  0  0  0  0  0  0  0  0  0  0  0
   -4.7640   24.6400  -29.9890 C   0  0  0  0  0  0  0  0  0  0  0  0
   -6.1280   24.8150  -30.5240 C   0  0  0  0  0  0  0  0  0  0  0  0
   -6.9510   25.5300  -29.8940 O   0  0  0  0  0  0  0  0  0  0  0  0
   -6.5240   24.2490  -31.7810 N   0  0  0  0  0  0  0  0  0  0  0  0
   -6.8420   22.8710  -32.0250 C   0  0  0  0  0  0  0  0  0  0  0  0
   -5.8510   21.9400  -32.3840 C   0  0  0  0  0  0  0  0  0  0  0  0
   -6.1860   20.5980  -32.5860 C   0  0  0  0  0  0  0  0  0  0  0  0
   -7.5140   20.1670  -32.4220 C   0  0  0  0  0  0  0  0  0  0  0  0
   -7.8850   18.8260  -32.6000 O   0  0  0  0  0  0  0  0  0  0  0  0
   -6.9960   17.7470  -32.7040 C   0  0  0  0  0  0  0  0  0  0  0  0
   -6.2520   17.3730  -31.5790 C   0  0  0  0  0  0  0  0  0  0  0  0
   -5.3580   16.3010  -31.6460 C   0  0  0  0  0  0  0  0  0  0  0  0
   -5.2110   15.5780  -32.8360 C   0  0  0  0  0  0  0  0  0  0  0  0
   -4.0570   14.2490  -32.9130 S   0  0  0  0  0  0  0  0  0  0  0  0
   -4.6340   13.1120  -33.7110 O   0  0  0  0  0  0  0  0  0  0  0  0
   -3.7920   13.7660  -31.5140 O   0  0  0  0  0  0  0  0  0  0  0  0
   -2.5640   14.8060  -33.6390 N   0  0  0  0  0  0  0  0  0  0  0  0
   -2.1780   16.1100  -33.0920 C   0  0  0  0  0  0  0  0  0  0  0  0
   -2.7530   17.1900  -33.9960 C   0  0  0  0  0  0  0  0  0  0  0  0
   -3.0930   16.4890  -35.2980 C   0  0  0  0  0  0  0  0  0  0  0  0
   -2.7420   15.0230  -35.0780 C   0  0  0  0  0  0  0  0  0  0  0  0
   -5.9710   15.9340  -33.9600 C   0  0  0  0  0  0  0  0  0  0  0  0
   -6.8620   17.0080  -33.8940 C   0  0  0  0  0  0  0  0  0  0  0  0
   -8.4890   21.0870  -32.0210 C   0  0  0  0  0  0  0  0  0  0  0  0
   -8.1540   22.4310  -31.8210 C   0  0  0  0  0  0  0  0  0  0  0  0
   -3.6770   25.2920  -30.4470 N   0  0  0  0  0  0  0  0  0  0  0  0
   -2.6330   24.9230  -29.7190 N   0  0  0  0  0  0  0  0  0  0  0  0
   -2.5364   23.6783  -26.7635 H   0  0  0  0  0  0  0  0  0  0  0  0
   -2.1644   22.3288  -27.8892 H   0  0  0  0  0  0  0  0  0  0  0  0
   -1.1425   23.8061  -27.8892 H   0  0  0  0  0  0  0  0  0  0  0  0
   -5.0633   23.1877  -28.3184 H   0  0  0  0  0  0  0  0  0  0  0  0
   -4.8085   22.2690  -32.5063 H   0  0  0  0  0  0  0  0  0  0  0  0
   -5.4075   19.8764  -32.8744 H   0  0  0  0  0  0  0  0  0  0  0  0
   -6.3718   17.9265  -30.6360 H   0  0  0  0  0  0  0  0  0  0  0  0
   -4.7674   16.0241  -30.7603 H   0  0  0  0  0  0  0  0  0  0  0  0
   -2.5810   16.2217  -32.0746 H   0  0  0  0  0  0  0  0  0  0  0  0
   -1.0823   16.1949  -33.0458 H   0  0  0  0  0  0  0  0  0  0  0  0
   -3.6572   17.6264  -33.5467 H   0  0  0  0  0  0  0  0  0  0  0  0
   -2.0419   18.0150  -34.1499 H   0  0  0  0  0  0  0  0  0  0  0  0
   -4.1640   16.5976  -35.5242 H   0  0  0  0  0  0  0  0  0  0  0  0
   -2.5398   16.9169  -36.1471 H   0  0  0  0  0  0  0  0  0  0  0  0
   -3.5557   14.3849  -35.4530 H   0  0  0  0  0  0  0  0  0  0  0  0
   -1.8182   14.7681  -35.6180 H   0  0  0  0  0  0  0  0  0  0  0  0
   -5.8651   15.3659  -34.8960 H   0  0  0  0  0  0  0  0  0  0  0  0
   -7.4615   17.2772  -34.7762 H   0  0  0  0  0  0  0  0  0  0  0  0
   -9.5246   20.7520  -31.8621 H   0  0  0  0  0  0  0  0  0  0  0  0
   -8.9269   23.1455  -31.5015 H   0  0  0  0  0  0  0  0  0  0  0  0
  1  2  1  0
  2  3  1  0
  3  4  2  0
  4  5  1  0
  5  6  2  0
  5  7  1  0
  7  8  1  0
  8  9  2  0
  9 10  1  0
 10 11  2  0
 11 12  1  0
 12 13  1  0
 13 14  2  0
 14 15  1  0
 15 16  2  0
 16 17  1  0
 17 18  2  0
 17 19  2  0
 17 20  1  0
 20 21  1  0
 21 22  1  0
 22 23  1  0
 23 24  1  0
 16 25  1  0
 25 26  2  0
 11 27  1  0
 27 28  2  0
  4 29  1  0
 29 30  1  0
 30  2  2  0
 28  8  1  0
 26 13  1  0
 24 20  1  0
  1 31  1  0
  1 32  1  0
  1 33  1  0
  3 34  1  0
  9 35  1  0
 10 36  1  0
 14 37  1  0
 15 38  1  0
 21 39  1  0
 21 40  1  0
 22 41  1  0
 22 42  1  0
 23 43  1  0
 23 44  1  0
 24 45  1  0
 24 46  1  0
 25 47  1  0
 26 48  1  0
 27 49  1  0
 28 50  1  0
M  CHG  2   7  -1  29  -1
M  END
>  <UniqueID>  (41) 
40

>  <SMILES>  (41) 
Cc1cc(C(=O)[N-]c2ccc(Oc3ccc(S(=O)(=O)N4CCCC4)cc3)cc2)[n-]n1

>  <Energy>  (41) 
93.33304331738913

>  <Genealogy>  (41) 
Cc1cc(C(=O)[N-]c2ccc(Oc3ccc(S(=O)(=O)N4CCCC4)cc3)cc2)[n-]n1 (protonated)
Cc1cc(C(=O)[N-]c2ccc(Oc3ccc(S(=O)(=O)N4CCCC4)cc3)cc2)[n-]n1 (3D coordinates assigned)
Cc1cc(C(=O)[N-]c2ccc(Oc3ccc(S(=O)(=O)N4CCCC4)cc3)cc2)[n-]n1 (nonaromatic ring conformer: 93.33304331738913 kcal/mol)

>  <smiles>  (41) 
Cc1cc(C(=O)Nc2ccc(Oc3ccc(S(=O)(=O)N4CCCC4)cc3)cc2)[nH]n1

>  <score_type>  (41) 
oracle

>  <origin>  (41) 
adgpu

>  <m_score__min__energy>  (41) 
-11.19

>  <m_primary>  (41) 
energy

$$$$
41:0
     RDKit          3D

 23 24  0  0  1  0  0  0  0  0999 V2000
   -7.2420   16.3990  -33.3090 O   0  0  0  0  0  0  0  0  0  0  0  0
   -6.7650   17.4710  -33.7720 N   0  0  0  0  0  0  0  0  0  0  0  0
   -6.0920   17.3800  -34.9580 O   0  0  0  0  0  0  0  0  0  0  0  0
   -6.9480   18.6840  -33.0540 C   0  0  0  0  0  0  0  0  0  0  0  0
   -8.2270   18.9170  -32.5600 C   0  0  0  0  0  0  0  0  0  0  0  0
   -8.5250   20.0560  -31.8490 C   0  0  0  0  0  0  0  0  0  0  0  0
   -7.5040   20.9600  -31.6460 C   0  0  0  0  0  0  0  0  0  0  0  0
   -7.4940   22.1540  -30.9940 C   0  0  0  0  0  0  0  0  0  0  0  0
   -6.2100   22.6760  -31.0760 C   0  0  0  0  0  0  0  0  0  0  0  0
   -5.7270   23.9360  -30.5230 C   0  0  0  0  0  0  0  0  0  0  0  0
   -6.4510   24.6240  -29.5580 O   0  0  0  0  0  0  0  0  0  0  0  0
   -4.6040   24.4780  -30.9010 N   0  0  0  0  0  0  0  0  0  0  0  0
   -4.1730   25.6690  -30.3620 O   0  0  0  0  0  0  0  0  0  0  0  0
   -5.4530   21.8080  -31.7690 N   0  0  0  0  0  0  0  0  0  0  0  0
   -6.2160   20.7400  -32.1360 C   0  0  0  0  0  0  0  0  0  0  0  0
   -5.9130   19.5940  -32.8520 C   0  0  0  0  0  0  0  0  0  0  0  0
   -9.0176   18.1741  -32.7419 H   0  0  0  0  0  0  0  0  0  0  0  0
   -9.5369   20.2383  -31.4582 H   0  0  0  0  0  0  0  0  0  0  0  0
   -8.3521   22.6232  -30.4905 H   0  0  0  0  0  0  0  0  0  0  0  0
   -6.1620   24.5250  -28.5760 H   0  0  0  0  0  0  0  0  0  0  0  0
   -4.7320   26.0130  -29.5650 H   0  0  0  0  0  0  0  0  0  0  0  0
   -4.4350   21.9250  -31.9960 H   0  0  0  0  0  0  0  0  0  0  0  0
   -4.9014   19.4108  -33.2432 H   0  0  0  0  0  0  0  0  0  0  0  0
  1  2  2  0
  2  3  1  0
  2  4  1  0
  4  5  2  0
  5  6  1  0
  6  7  2  0
  7  8  1  0
  8  9  2  0
  9 10  1  0
 10 11  1  0
 10 12  2  0
 12 13  1  0
  9 14  1  0
 14 15  1  0
 15 16  2  0
 16  4  1  0
 15  7  1  0
  5 17  1  0
  6 18  1  0
  8 19  1  0
 11 20  1  0
 13 21  1  0
 14 22  1  0
 16 23  1  0
M  CHG  2   2   1   3  -1
M  END
>  <smiles>  (42) 
O=[N+]([O-])c1ccc2cc(C(O)=NO)[nH]c2c1

>  <score_type>  (42) 
oracle

>  <origin>  (42) 
adgpu

>  <m_score__min__energy>  (42) 
-7.8899999999999997

>  <m_primary>  (42) 
energy

$$$$
42:0
     RDKit          3D

 64 67  0  0  0  0  0  0  0  0999 V2000
   -0.9170   22.0600  -25.9660 C   0  0  0  0  0  0  0  0  0  0  0  0
   -1.5510   22.9920  -26.9700 C   0  0  0  0  0  0  0  0  0  0  0  0
   -2.7820   22.5950  -27.5140 C   0  0  0  0  0  0  0  0  0  0  0  0
   -3.4130   23.3530  -28.4890 C   0  0  0  0  0  0  0  0  0  0  0  0
   -2.8230   24.5140  -28.9740 C   0  0  0  0  0  0  0  0  0  0  0  0
   -3.5420   25.2700  -29.9610 N   0  0  0  0  0  0  0  0  0  0  0  0
   -4.7260   24.8410  -30.6450 C   0  0  0  0  0  0  0  0  0  0  0  0
   -5.4300   25.6910  -31.2480 O   0  0  0  0  0  0  0  0  0  0  0  0
   -5.1150   23.4640  -30.6650 N   0  0  0  0  0  0  0  0  0  0  0  0
   -4.4560   22.4410  -31.4220 C   0  0  0  0  0  0  0  0  0  0  0  0
   -5.1220   21.2340  -31.6620 C   0  0  0  0  0  0  0  0  0  0  0  0
   -4.4660   20.1810  -32.3050 C   0  0  0  0  0  0  0  0  0  0  0  0
   -3.1240   20.3130  -32.6920 C   0  0  0  0  0  0  0  0  0  0  0  0
   -2.2550   18.9380  -33.3840 S   0  0  0  0  0  0  0  0  0  0  0  0
   -1.3210   18.3700  -32.3500 O   0  0  0  0  0  0  0  0  0  0  0  0
   -1.4230   19.4180  -34.5410 O   0  0  0  0  0  0  0  0  0  0  0  0
   -3.3340   17.6690  -33.9140 N   0  0  0  0  0  0  0  0  0  0  0  0
   -3.9490   16.9990  -32.7510 C   0  0  0  0  0  0  0  0  0  0  0  0
   -5.0630   16.0490  -33.2000 C   0  0  0  0  0  0  0  0  0  0  0  0
   -6.2000   16.8100  -33.9290 C   0  0  0  0  0  0  0  0  0  0  0  0
   -7.4290   16.9660  -33.0270 C   0  0  0  0  0  0  0  0  0  0  0  0
   -5.7430   18.1920  -34.4470 C   0  0  0  0  0  0  0  0  0  0  0  0
   -4.2930   18.1370  -34.9470 C   0  0  0  0  0  0  0  0  0  0  0  0
   -2.4590   21.5240  -32.4600 C   0  0  0  0  0  0  0  0  0  0  0  0
   -3.1220   22.5860  -31.8380 C   0  0  0  0  0  0  0  0  0  0  0  0
   -1.5940   24.9600  -28.4370 C   0  0  0  0  0  0  0  0  0  0  0  0
   -1.0870   26.1640  -28.9330 O   0  0  0  0  0  0  0  0  0  0  0  0
   -0.9370   24.2020  -27.4180 C   0  0  0  0  0  0  0  0  0  0  0  0
    0.6140   24.7680  -26.6990 S   0  0  0  0  0  0  0  0  0  0  0  0
    1.3720   23.6130  -26.1090 O   0  0  0  0  0  0  0  0  0  0  0  0
    1.5080   25.3370  -27.7620 O   0  0  0  0  0  0  0  0  0  0  0  0
    0.4130   25.9860  -25.3820 C   0  0  0  0  0  0  0  0  0  0  0  0
   -0.5270   27.1510  -25.6820 C   0  0  0  0  0  0  0  0  0  0  0  0
   -1.4090   26.7420  -24.5130 C   0  0  0  0  0  0  0  0  0  0  0  0
   -0.5040   25.5500  -24.2430 C   0  0  0  0  0  0  0  0  0  0  0  0
   -1.1510   22.4040  -24.9477 H   0  0  0  0  0  0  0  0  0  0  0  0
   -1.3116   21.0433  -26.1093 H   0  0  0  0  0  0  0  0  0  0  0  0
    0.1736   22.0536  -26.1093 H   0  0  0  0  0  0  0  0  0  0  0  0
   -3.2547   21.6666  -27.1610 H   0  0  0  0  0  0  0  0  0  0  0  0
   -4.3891   23.0324  -28.8819 H   0  0  0  0  0  0  0  0  0  0  0  0
   -6.1677   21.1134  -31.3427 H   0  0  0  0  0  0  0  0  0  0  0  0
   -5.0046   19.2438  -32.5088 H   0  0  0  0  0  0  0  0  0  0  0  0
   -3.1784   16.4245  -32.2161 H   0  0  0  0  0  0  0  0  0  0  0  0
   -4.3820   17.7644  -32.0902 H   0  0  0  0  0  0  0  0  0  0  0  0
   -4.6390   15.2992  -33.8841 H   0  0  0  0  0  0  0  0  0  0  0  0
   -5.4875   15.5684  -32.3062 H   0  0  0  0  0  0  0  0  0  0  0  0
   -6.4742   16.2000  -34.8023 H   0  0  0  0  0  0  0  0  0  0  0  0
   -7.1175   16.9265  -31.9728 H   0  0  0  0  0  0  0  0  0  0  0  0
   -7.9128   17.9328  -33.2304 H   0  0  0  0  0  0  0  0  0  0  0  0
   -8.1389   16.1508  -33.2304 H   0  0  0  0  0  0  0  0  0  0  0  0
   -6.3980   18.5010  -35.2749 H   0  0  0  0  0  0  0  0  0  0  0  0
   -5.8025   18.9148  -33.6199 H   0  0  0  0  0  0  0  0  0  0  0  0
   -4.2451   17.4502  -35.8049 H   0  0  0  0  0  0  0  0  0  0  0  0
   -4.0031   19.1622  -35.2208 H   0  0  0  0  0  0  0  0  0  0  0  0
   -1.4096   21.6398  -32.7689 H   0  0  0  0  0  0  0  0  0  0  0  0
   -2.5972   23.5387  -31.6737 H   0  0  0  0  0  0  0  0  0  0  0  0
   -1.6240   26.9080  -29.3450 H   0  0  0  0  0  0  0  0  0  0  0  0
    1.4823   26.1770  -25.2082 H   0  0  0  0  0  0  0  0  0  0  0  0
   -0.0635   28.1422  -25.5694 H   0  0  0  0  0  0  0  0  0  0  0  0
   -0.9571   27.2743  -26.6869 H   0  0  0  0  0  0  0  0  0  0  0  0
   -1.4390   27.4769  -23.6950 H   0  0  0  0  0  0  0  0  0  0  0  0
   -2.4900   26.5977  -24.6564 H   0  0  0  0  0  0  0  0  0  0  0  0
   -0.0267   25.5642  -23.2520 H   0  0  0  0  0  0  0  0  0  0  0  0
   -0.9179   24.5311  -24.2212 H   0  0  0  0  0  0  0  0  0  0  0  0
  1  2  1  0
  2  3  2  0
  3  4  1  0
  4  5  2  0
  5  6  1  0
  6  7  1  0
  7  8  2  0
  7  9  1  0
  9 10  1  0
 10 11  2  0
 11 12  1  0
 12 13  2  0
 13 14  1  0
 14 15  2  0
 14 16  2  0
 14 17  1  0
 17 18  1  0
 18 19  1  0
 19 20  1  0
 20 21  1  0
 20 22  1  0
 22 23  1  0
 13 24  1  0
 24 25  2  0
  5 26  1  0
 26 27  1  0
 26 28  2  0
 28 29  1  0
 29 30  2  0
 29 31  2  0
 29 32  1  0
 32 33  1  0
 33 34  1  0
 34 35  1  0
 28  2  1  0
 35 32  1  0
 25 10  1  0
 23 17  1  0
  1 36  1  0
  1 37  1  0
  1 38  1  0
  3 39  1  0
  4 40  1  0
 11 41  1  0
 12 42  1  0
 18 43  1  0
 18 44  1  0
 19 45  1  0
 19 46  1  0
 20 47  1  0
 21 48  1  0
 21 49  1  0
 21 50  1  0
 22 51  1  0
 22 52  1  0
 23 53  1  0
 23 54  1  0
 24 55  1  0
 25 56  1  0
 27 57  1  0
 32 58  1  0
 33 59  1  0
 33 60  1  0
 34 61  1  0
 34 62  1  0
 35 63  1  0
 35 64  1  0
M  CHG  2   6  -1   9  -1
M  END
>  <UniqueID>  (43) 
41

>  <SMILES>  (43) 
Cc1ccc([N-]C(=O)[N-]c2ccc(S(=O)(=O)N3CCC(C)CC3)cc2)c(O)c1S(=O)(=O)C1CCC1

>  <Energy>  (43) 
145.58853992068128

>  <Genealogy>  (43) 
Cc1ccc([N-]C(=O)[N-]c2ccc(S(=O)(=O)N3CCC(C)CC3)cc2)c(O)c1S(=O)(=O)C1CCC1 (protonated)
Cc1ccc([N-]C(=O)[N-]c2ccc(S(=O)(=O)N3CCC(C)CC3)cc2)c(O)c1S(=O)(=O)C1CCC1 (3D coordinates assigned)
Cc1ccc([N-]C(=O)[N-]c2ccc(S(=O)(=O)N3CCC(C)CC3)cc2)c(O)c1S(=O)(=O)C1CCC1 (nonaromatic ring conformer: 145.58853992068128 kcal/mol)

>  <smiles>  (43) 
Cc1ccc(NC(=O)Nc2ccc(S(=O)(=O)N3CCC(C)CC3)cc2)c(O)c1S(=O)(=O)C1CCC1

>  <score_type>  (43) 
oracle

>  <origin>  (43) 
adgpu

>  <m_score__min__energy>  (43) 
-16.010000000000002

>  <m_primary>  (43) 
energy

$$$$
43:0
     RDKit          3D

 59 62  0  0  0  0  0  0  0  0999 V2000
   -5.7710   25.7150  -30.3920 C   0  0  0  0  0  0  0  0  0  0  0  0
   -4.3780   25.6570  -30.8050 N   0  0  0  0  0  0  0  0  0  0  0  0
   -3.4830   24.6370  -30.3550 C   0  0  0  0  0  0  0  0  0  0  0  0
   -3.5790   23.4780  -30.8350 O   0  0  0  0  0  0  0  0  0  0  0  0
   -2.4820   24.9320  -29.3750 N   0  0  0  0  0  0  0  0  0  0  0  0
   -1.7550   23.9160  -28.6220 C   0  0  0  0  0  0  0  0  0  0  0  0
   -2.7220   23.0960  -27.7700 C   0  0  0  0  0  0  0  0  0  0  0  0
   -2.9230   21.7820  -28.3760 N   0  0  0  0  0  0  0  0  0  0  0  0
   -2.2740   20.5350  -27.3420 S   0  0  0  0  0  0  0  0  0  0  0  0
   -1.6160   21.1590  -26.1370 O   0  0  0  0  0  0  0  0  0  0  0  0
   -3.4030   19.6620  -26.8690 O   0  0  0  0  0  0  0  0  0  0  0  0
   -1.0950   19.5480  -28.2120 C   0  0  0  0  0  0  0  0  0  0  0  0
   -0.4780   18.4530  -27.5930 C   0  0  0  0  0  0  0  0  0  0  0  0
    0.4450   17.6710  -28.2970 C   0  0  0  0  0  0  0  0  0  0  0  0
    1.2280   16.3200  -27.4900 Cl  0  0  0  0  0  0  0  0  0  0  0  0
    0.7330   17.9610  -29.6370 C   0  0  0  0  0  0  0  0  0  0  0  0
    1.6540   17.1790  -30.3260 O   0  0  0  0  0  0  0  0  0  0  0  0
    0.0900   19.0390  -30.2750 C   0  0  0  0  0  0  0  0  0  0  0  0
    0.3730   19.3990  -31.9800 S   0  0  0  0  0  0  0  0  0  0  0  0
    0.2990   18.1450  -32.8050 O   0  0  0  0  0  0  0  0  0  0  0  0
    1.7400   20.0070  -32.1310 O   0  0  0  0  0  0  0  0  0  0  0  0
   -0.8380   20.4990  -32.5540 N   0  0  0  0  0  0  0  0  0  0  0  0
   -2.2040   20.1130  -32.7230 C   0  0  0  0  0  0  0  0  0  0  0  0
   -3.1830   20.7340  -31.9410 C   0  0  0  0  0  0  0  0  0  0  0  0
   -4.5400   20.4720  -32.1580 C   0  0  0  0  0  0  0  0  0  0  0  0
   -4.9270   19.5390  -33.1340 C   0  0  0  0  0  0  0  0  0  0  0  0
   -3.9430   18.8690  -33.8760 C   0  0  0  0  0  0  0  0  0  0  0  0
   -2.5860   19.1410  -33.6700 C   0  0  0  0  0  0  0  0  0  0  0  0
   -1.6430   18.4170  -34.3960 O   0  0  0  0  0  0  0  0  0  0  0  0
   -6.3830   19.2160  -33.3670 C   0  0  0  0  0  0  0  0  0  0  0  0
   -7.3370   20.0970  -32.5950 C   0  0  0  0  0  0  0  0  0  0  0  0
   -8.7170   19.9680  -32.8120 C   0  0  0  0  0  0  0  0  0  0  0  0
   -9.6200   20.7630  -32.1030 C   0  0  0  0  0  0  0  0  0  0  0  0
   -9.1560   21.6890  -31.1690 C   0  0  0  0  0  0  0  0  0  0  0  0
   -7.7790   21.8240  -30.9290 C   0  0  0  0  0  0  0  0  0  0  0  0
   -7.2770   22.8320  -29.9330 C   0  0  0  0  0  0  0  0  0  0  0  0
   -6.8680   21.0250  -31.6450 C   0  0  0  0  0  0  0  0  0  0  0  0
   -5.4970   21.1670  -31.4170 O   0  0  0  0  0  0  0  0  0  0  0  0
   -0.7900   19.8460  -29.5440 C   0  0  0  0  0  0  0  0  0  0  0  0
   -5.8280   25.7174  -29.2935 H   0  0  0  0  0  0  0  0  0  0  0  0
   -6.2321   26.6331  -30.7850 H   0  0  0  0  0  0  0  0  0  0  0  0
   -6.3068   24.8384  -30.7850 H   0  0  0  0  0  0  0  0  0  0  0  0
   -1.2332   23.2483  -29.3233 H   0  0  0  0  0  0  0  0  0  0  0  0
   -1.0275   24.4112  -27.9621 H   0  0  0  0  0  0  0  0  0  0  0  0
   -2.3042   22.9723  -26.7600 H   0  0  0  0  0  0  0  0  0  0  0  0
   -3.6873   23.6199  -27.7100 H   0  0  0  0  0  0  0  0  0  0  0  0
   -0.7201   18.2066  -26.5486 H   0  0  0  0  0  0  0  0  0  0  0  0
   -2.8833   21.4349  -31.1480 H   0  0  0  0  0  0  0  0  0  0  0  0
   -4.2410   18.1226  -34.6270 H   0  0  0  0  0  0  0  0  0  0  0  0
   -0.6560   18.4240  -34.1590 H   0  0  0  0  0  0  0  0  0  0  0  0
   -6.5960   19.3318  -34.4400 H   0  0  0  0  0  0  0  0  0  0  0  0
   -6.5421   18.1866  -33.0133 H   0  0  0  0  0  0  0  0  0  0  0  0
   -9.0897   19.2368  -33.5444 H   0  0  0  0  0  0  0  0  0  0  0  0
  -10.7004   20.6586  -32.2817 H   0  0  0  0  0  0  0  0  0  0  0  0
   -9.8719   22.3164  -30.6178 H   0  0  0  0  0  0  0  0  0  0  0  0
   -7.4609   22.4628  -28.9133 H   0  0  0  0  0  0  0  0  0  0  0  0
   -6.1975   22.9850  -30.0785 H   0  0  0  0  0  0  0  0  0  0  0  0
   -7.8054   23.7858  -30.0785 H   0  0  0  0  0  0  0  0  0  0  0  0
   -1.2468   20.7246  -30.0228 H   0  0  0  0  0  0  0  0  0  0  0  0
  1  2  1  0
  2  3  1  0
  3  4  2  0
  3  5  1  0
  5  6  1  0
  6  7  1  0
  7  8  1  0
  8  9  1  0
  9 10  2  0
  9 11  2  0
  9 12  1  0
 12 13  2  0
 13 14  1  0
 14 15  1  0
 14 16  2  0
 16 17  1  0
 16 18  1  0
 18 19  1  0
 19 20  2  0
 19 21  2  0
 19 22  1  0
 22 23  1  0
 23 24  2  0
 24 25  1  0
 25 26  2  0
 26 27  1  0
 27 28  2  0
 28 29  1  0
 26 30  1  0
 30 31  1  0
 31 32  2  0
 32 33  1  0
 33 34  2  0
 34 35  1  0
 35 36  1  0
 35 37  2  0
 37 38  1  0
 18 39  2  0
 39 12  1  0
 28 23  1  0
 37 31  1  0
 38 25  1  0
  1 40  1  0
  1 41  1  0
  1 42  1  0
  6 43  1  0
  6 44  1  0
  7 45  1  0
  7 46  1  0
 13 47  1  0
 24 48  1  0
 27 49  1  0
 29 50  1  0
 30 51  1  0
 30 52  1  0
 32 53  1  0
 33 54  1  0
 34 55  1  0
 36 56  1  0
 36 57  1  0
 36 58  1  0
 39 59  1  0
M  CHG  5   2  -1   5  -1   8  -1  17  -1  22  -1
M  END
>  <UniqueID>  (44) 
42

>  <SMILES>  (44) 
C[N-]C(=O)[N-]CC[N-]S(=O)(=O)c1cc(Cl)c([O-])c(S(=O)(=O)[N-]c2cc3c(cc2O)Cc2cccc(C)c2O3)c1

>  <Energy>  (44) 
65.49470994981621

>  <Genealogy>  (44) 
C[N-]C(=O)[N-]CC[N-]S(=O)(=O)c1cc(Cl)c([O-])c(S(=O)(=O)[N-]c2cc3c(cc2O)Cc2cccc(C)c2O3)c1 (protonated)
C[N-]C(=O)[N-]CC[N-]S(=O)(=O)c1cc(Cl)c([O-])c(S(=O)(=O)[N-]c2cc3c(cc2O)Cc2cccc(C)c2O3)c1 (3D coordinates assigned)
C[N-]C(=O)[N-]CC[N-]S(=O)(=O)c1cc(Cl)c([O-])c(S(=O)(=O)[N-]c2cc3c(cc2O)Cc2cccc(C)c2O3)c1 (nonaromatic ring conformer: 65.49470994981621 kcal/mol)

>  <smiles>  (44) 
CNC(=O)NCCNS(=O)(=O)c1cc(Cl)c(O)c(S(=O)(=O)Nc2cc3c(cc2O)Cc2cccc(C)c2O3)c1

>  <score_type>  (44) 
oracle

>  <origin>  (44) 
adgpu

>  <m_score__min__energy>  (44) 
-15.529999999999999

>  <m_primary>  (44) 
energy

$$$$
44:0
     RDKit          3D

 43 45  0  0  0  0  0  0  0  0999 V2000
   -7.3100   13.2290  -34.8160 C   0  0  0  0  0  0  0  0  0  0  0  0
   -6.4510   14.3040  -34.2190 C   0  0  0  0  0  0  0  0  0  0  0  0
   -5.3560   14.0190  -33.7580 O   0  0  0  0  0  0  0  0  0  0  0  0
   -6.9060   15.7370  -34.2240 C   0  0  0  0  0  0  0  0  0  0  0  0
   -5.8420   16.6080  -33.8380 O   0  0  0  0  0  0  0  0  0  0  0  0
   -5.9950   17.9170  -33.3510 C   0  0  0  0  0  0  0  0  0  0  0  0
   -6.9920   18.2720  -32.4240 C   0  0  0  0  0  0  0  0  0  0  0  0
   -7.0960   19.5890  -31.9700 C   0  0  0  0  0  0  0  0  0  0  0  0
   -6.2150   20.5780  -32.4390 C   0  0  0  0  0  0  0  0  0  0  0  0
   -6.3180   21.9310  -31.9570 N   0  0  0  0  0  0  0  0  0  0  0  0
   -5.2890   22.7260  -31.5960 C   0  0  0  0  0  0  0  0  0  0  0  0
   -5.7680   23.9620  -31.1920 C   0  0  0  0  0  0  0  0  0  0  0  0
   -4.9750   25.1050  -30.7010 C   0  0  0  0  0  0  0  0  0  0  0  0
   -5.5550   26.1980  -30.4610 O   0  0  0  0  0  0  0  0  0  0  0  0
   -3.5710   24.9970  -30.4310 N   0  0  0  0  0  0  0  0  0  0  0  0
   -2.9790   24.4290  -29.2540 C   0  0  0  0  0  0  0  0  0  0  0  0
   -3.5180   23.2820  -28.6420 C   0  0  0  0  0  0  0  0  0  0  0  0
   -2.9130   22.7400  -27.5050 C   0  0  0  0  0  0  0  0  0  0  0  0
   -1.7590   23.3260  -26.9790 C   0  0  0  0  0  0  0  0  0  0  0  0
   -1.2040   24.4510  -27.5950 C   0  0  0  0  0  0  0  0  0  0  0  0
   -1.8070   24.9990  -28.7330 C   0  0  0  0  0  0  0  0  0  0  0  0
   -1.2420   26.1150  -29.3390 O   0  0  0  0  0  0  0  0  0  0  0  0
   -7.1480   23.9110  -31.2820 C   0  0  0  0  0  0  0  0  0  0  0  0
   -7.4440   22.6500  -31.7570 C   0  0  0  0  0  0  0  0  0  0  0  0
   -8.7310   22.1640  -31.9710 O   0  0  0  0  0  0  0  0  0  0  0  0
   -5.2210   20.2190  -33.3640 C   0  0  0  0  0  0  0  0  0  0  0  0
   -5.1170   18.9010  -33.8160 C   0  0  0  0  0  0  0  0  0  0  0  0
   -7.7777   12.6438  -34.0105 H   0  0  0  0  0  0  0  0  0  0  0  0
   -8.0928   13.6881  -35.4376 H   0  0  0  0  0  0  0  0  0  0  0  0
   -6.6895   12.5668  -35.4376 H   0  0  0  0  0  0  0  0  0  0  0  0
   -7.2423   16.0051  -35.2364 H   0  0  0  0  0  0  0  0  0  0  0  0
   -7.7309   15.8476  -33.5048 H   0  0  0  0  0  0  0  0  0  0  0  0
   -7.6930   17.5088  -32.0549 H   0  0  0  0  0  0  0  0  0  0  0  0
   -7.8742   19.8540  -31.2391 H   0  0  0  0  0  0  0  0  0  0  0  0
   -4.2281   22.4361  -31.6190 H   0  0  0  0  0  0  0  0  0  0  0  0
   -4.4193   22.8102  -29.0605 H   0  0  0  0  0  0  0  0  0  0  0  0
   -3.3459   21.8508  -27.0235 H   0  0  0  0  0  0  0  0  0  0  0  0
   -1.2873   22.9020  -26.0802 H   0  0  0  0  0  0  0  0  0  0  0  0
   -0.2910   24.9069  -27.1845 H   0  0  0  0  0  0  0  0  0  0  0  0
   -7.8605   24.7096  -31.0278 H   0  0  0  0  0  0  0  0  0  0  0  0
   -9.3730   22.0350  -31.1980 H   0  0  0  0  0  0  0  0  0  0  0  0
   -4.5195   20.9807  -33.7352 H   0  0  0  0  0  0  0  0  0  0  0  0
   -4.3370   18.6349  -34.5446 H   0  0  0  0  0  0  0  0  0  0  0  0
  1  2  1  0
  2  3  2  0
  2  4  1  0
  4  5  1  0
  5  6  1  0
  6  7  2  0
  7  8  1  0
  8  9  2  0
  9 10  1  0
 10 11  1  0
 11 12  2  0
 12 13  1  0
 13 14  2  0
 13 15  1  0
 15 16  1  0
 16 17  2  0
 17 18  1  0
 18 19  2  0
 19 20  1  0
 20 21  2  0
 21 22  1  0
 12 23  1  0
 23 24  2  0
 24 25  1  0
  9 26  1  0
 26 27  2  0
 27  6  1  0
 24 10  1  0
 21 16  1  0
  1 28  1  0
  1 29  1  0
  1 30  1  0
  4 31  1  0
  4 32  1  0
  7 33  1  0
  8 34  1  0
 11 35  1  0
 17 36  1  0
 18 37  1  0
 19 38  1  0
 20 39  1  0
 23 40  1  0
 25 41  1  0
 26 42  1  0
 27 43  1  0
M  CHG  2  15  -1  22  -1
M  END
>  <UniqueID>  (45) 
43

>  <SMILES>  (45) 
CC(=O)COc1ccc(-n2cc(C(=O)[N-]c3ccccc3[O-])cc2O)cc1

>  <Energy>  (45) 
79.40889792616363

>  <Genealogy>  (45) 
CC(=O)COc1ccc(-n2cc(C(=O)[N-]c3ccccc3[O-])cc2O)cc1 (protonated)
CC(=O)COc1ccc(-n2cc(C(=O)[N-]c3ccccc3[O-])cc2O)cc1 (3D coordinates assigned)
CC(=O)COc1ccc(-n2cc(C(=O)[N-]c3ccccc3[O-])cc2O)cc1 (optimized conformer: 79.40889792616363 kcal/mol)

>  <smiles>  (45) 
CC(=O)COc1ccc(-n2cc(C(=O)Nc3ccccc3O)cc2O)cc1

>  <score_type>  (45) 
oracle

>  <origin>  (45) 
adgpu

>  <m_score__min__energy>  (45) 
-12.960000000000001

>  <m_primary>  (45) 
energy

$$$$
45:0
     RDKit          3D

 44 46  0  0  0  0  0  0  0  0999 V2000
   -7.1350   23.6310  -29.9230 C   0  0  0  0  0  0  0  0  0  0  0  0
   -7.1010   22.8430  -31.1620 N   0  0  0  0  0  0  0  0  0  0  0  0
   -6.9720   23.7240  -32.3320 C   0  0  0  0  0  0  0  0  0  0  0  0
   -8.5400   21.8630  -31.2980 S   0  0  0  0  0  0  0  0  0  0  0  0
   -9.4650   22.4680  -32.3180 O   0  0  0  0  0  0  0  0  0  0  0  0
   -9.2580   21.8380  -29.9770 O   0  0  0  0  0  0  0  0  0  0  0  0
   -8.1470   20.2110  -31.7760 C   0  0  0  0  0  0  0  0  0  0  0  0
   -9.0800   19.1820  -31.5890 C   0  0  0  0  0  0  0  0  0  0  0  0
   -8.7730   17.8770  -31.9800 C   0  0  0  0  0  0  0  0  0  0  0  0
   -7.5390   17.5930  -32.5680 C   0  0  0  0  0  0  0  0  0  0  0  0
   -6.6020   18.6180  -32.7790 C   0  0  0  0  0  0  0  0  0  0  0  0
   -5.2920   18.3290  -33.4010 C   0  0  0  0  0  0  0  0  0  0  0  0
   -5.0130   17.2840  -34.2560 C   0  0  0  0  0  0  0  0  0  0  0  0
   -3.7470   17.4350  -34.6910 N   0  0  0  0  0  0  0  0  0  0  0  0
   -3.2630   18.5270  -34.1150 N   0  0  0  0  0  0  0  0  0  0  0  0
   -4.1720   19.0840  -33.3310 N   0  0  0  0  0  0  0  0  0  0  0  0
   -3.9090   20.2330  -32.5100 C   0  0  0  0  0  0  0  0  0  0  0  0
   -3.5900   20.0650  -31.1540 C   0  0  0  0  0  0  0  0  0  0  0  0
   -3.3420   21.1760  -30.3430 C   0  0  0  0  0  0  0  0  0  0  0  0
   -3.4280   22.4710  -30.8740 C   0  0  0  0  0  0  0  0  0  0  0  0
   -3.0980   23.8710  -29.8590 S   0  0  0  0  0  0  0  0  0  0  0  0
   -3.7810   25.2830  -30.5850 N   0  0  0  0  0  0  0  0  0  0  0  0
   -3.6980   23.6640  -28.4970 O   0  0  0  0  0  0  0  0  0  0  0  0
   -1.6140   24.0560  -29.7090 O   0  0  0  0  0  0  0  0  0  0  0  0
   -3.7620   22.6430  -32.2230 C   0  0  0  0  0  0  0  0  0  0  0  0
   -4.0100   21.5330  -33.0350 C   0  0  0  0  0  0  0  0  0  0  0  0
   -6.9070   19.9240  -32.3640 C   0  0  0  0  0  0  0  0  0  0  0  0
   -7.1058   22.9537  -29.0568 H   0  0  0  0  0  0  0  0  0  0  0  0
   -6.2650   24.3035  -29.8922 H   0  0  0  0  0  0  0  0  0  0  0  0
   -8.0597   24.2260  -29.8922 H   0  0  0  0  0  0  0  0  0  0  0  0
   -6.2740   22.2020  -31.1310 H   0  0  0  0  0  0  0  0  0  0  0  0
   -6.8203   24.7603  -31.9957 H   0  0  0  0  0  0  0  0  0  0  0  0
   -6.1109   23.4053  -32.9378 H   0  0  0  0  0  0  0  0  0  0  0  0
   -7.8883   23.6655  -32.9378 H   0  0  0  0  0  0  0  0  0  0  0  0
  -10.0564   19.4029  -31.1332 H   0  0  0  0  0  0  0  0  0  0  0  0
   -9.5051   17.0709  -31.8243 H   0  0  0  0  0  0  0  0  0  0  0  0
   -7.2994   16.5620  -32.8674 H   0  0  0  0  0  0  0  0  0  0  0  0
   -5.7012   16.4720  -34.5334 H   0  0  0  0  0  0  0  0  0  0  0  0
   -3.5348   19.0529  -30.7267 H   0  0  0  0  0  0  0  0  0  0  0  0
   -3.0784   21.0340  -29.2845 H   0  0  0  0  0  0  0  0  0  0  0  0
   -3.8730   25.9990  -29.8300 H   0  0  0  0  0  0  0  0  0  0  0  0
   -3.8295   23.6564  -32.6454 H   0  0  0  0  0  0  0  0  0  0  0  0
   -4.2856   21.6773  -34.0901 H   0  0  0  0  0  0  0  0  0  0  0  0
   -6.1683   20.7274  -32.5011 H   0  0  0  0  0  0  0  0  0  0  0  0
  1  2  1  0
  2  3  1  0
  2  4  1  0
  4  5  2  0
  4  6  2  0
  4  7  1  0
  7  8  2  0
  8  9  1  0
  9 10  2  0
 10 11  1  0
 11 12  1  0
 12 13  2  0
 13 14  1  0
 14 15  2  0
 15 16  1  0
 16 17  1  0
 17 18  2  0
 18 19  1  0
 19 20  2  0
 20 21  1  0
 21 22  1  0
 21 23  2  0
 21 24  2  0
 20 25  1  0
 25 26  2  0
 11 27  2  0
 27  7  1  0
 16 12  1  0
 26 17  1  0
  1 28  1  0
  1 29  1  0
  1 30  1  0
  2 31  1  0
  3 32  1  0
  3 33  1  0
  3 34  1  0
  8 35  1  0
  9 36  1  0
 10 37  1  0
 13 38  1  0
 18 39  1  0
 19 40  1  0
 22 41  1  0
 25 42  1  0
 26 43  1  0
 27 44  1  0
M  CHG  2   2   1  22  -1
M  END
>  <UniqueID>  (46) 
44

>  <SMILES>  (46) 
C[NH+](C)S(=O)(=O)c1cccc(-c2cnnn2-c2ccc(S([NH-])(=O)=O)cc2)c1

>  <Energy>  (46) 
86.56126970099706

>  <Genealogy>  (46) 
C[NH+](C)S(=O)(=O)c1cccc(-c2cnnn2-c2ccc(S([NH-])(=O)=O)cc2)c1 (protonated)
C[NH+](C)S(=O)(=O)c1cccc(-c2cnnn2-c2ccc(S([NH-])(=O)=O)cc2)c1 (3D coordinates assigned)
C[NH+](C)S(=O)(=O)c1cccc(-c2cnnn2-c2ccc(S([NH-])(=O)=O)cc2)c1 (optimized conformer: 86.56126970099706 kcal/mol)

>  <smiles>  (46) 
CN(C)S(=O)(=O)c1cccc(-c2cnnn2-c2ccc(S(N)(=O)=O)cc2)c1

>  <score_type>  (46) 
oracle

>  <origin>  (46) 
adgpu

>  <m_score__min__energy>  (46) 
-10.800000000000001

>  <m_primary>  (46) 
energy

$$$$
46:0
     RDKit          3D

 48 50  0  0  0  0  0  0  0  0999 V2000
    0.2970   18.4880  -30.1450 C   0  0  0  0  0  0  0  0  0  0  0  0
   -0.6970   19.0830  -30.9740 O   0  0  0  0  0  0  0  0  0  0  0  0
   -1.3980   20.2560  -30.6570 C   0  0  0  0  0  0  0  0  0  0  0  0
   -0.9720   21.0030  -29.5620 C   0  0  0  0  0  0  0  0  0  0  0  0
   -1.6350   22.1740  -29.2020 C   0  0  0  0  0  0  0  0  0  0  0  0
   -2.7460   22.6330  -29.9300 C   0  0  0  0  0  0  0  0  0  0  0  0
   -3.5190   24.1340  -29.3670 S   0  0  0  0  0  0  0  0  0  0  0  0
   -4.9430   23.8590  -28.9690 O   0  0  0  0  0  0  0  0  0  0  0  0
   -3.5450   25.1350  -30.4850 O   0  0  0  0  0  0  0  0  0  0  0  0
   -2.7120   24.7950  -27.9500 C   0  0  0  0  0  0  0  0  0  0  0  0
   -3.3890   24.8500  -26.7260 C   0  0  0  0  0  0  0  0  0  0  0  0
   -2.7530   25.3710  -25.5940 C   0  0  0  0  0  0  0  0  0  0  0  0
   -1.4320   25.8370  -25.6770 C   0  0  0  0  0  0  0  0  0  0  0  0
   -0.7630   26.4280  -24.4710 C   0  0  0  0  0  0  0  0  0  0  0  0
   -0.7680   25.8100  -26.9120 C   0  0  0  0  0  0  0  0  0  0  0  0
   -1.4040   25.2900  -28.0440 C   0  0  0  0  0  0  0  0  0  0  0  0
   -3.1910   21.8800  -31.0560 C   0  0  0  0  0  0  0  0  0  0  0  0
   -4.5710   22.3450  -32.0790 S   0  0  0  0  0  0  0  0  0  0  0  0
   -4.1530   22.3800  -33.5230 O   0  0  0  0  0  0  0  0  0  0  0  0
   -5.0300   23.7250  -31.7060 O   0  0  0  0  0  0  0  0  0  0  0  0
   -5.8930   21.1900  -31.9590 C   0  0  0  0  0  0  0  0  0  0  0  0
   -5.6730   19.8450  -32.2830 C   0  0  0  0  0  0  0  0  0  0  0  0
   -6.7150   18.9190  -32.1860 C   0  0  0  0  0  0  0  0  0  0  0  0
   -7.9930   19.3330  -31.7820 C   0  0  0  0  0  0  0  0  0  0  0  0
   -9.1010   18.3320  -31.6350 C   0  0  0  0  0  0  0  0  0  0  0  0
   -8.2110   20.6810  -31.4540 C   0  0  0  0  0  0  0  0  0  0  0  0
   -7.1680   21.6060  -31.5530 C   0  0  0  0  0  0  0  0  0  0  0  0
   -2.5060   20.6990  -31.3990 C   0  0  0  0  0  0  0  0  0  0  0  0
    0.0350   18.6448  -29.0882 H   0  0  0  0  0  0  0  0  0  0  0  0
    0.3505   17.4092  -30.3533 H   0  0  0  0  0  0  0  0  0  0  0  0
    1.2731   18.9505  -30.3533 H   0  0  0  0  0  0  0  0  0  0  0  0
   -0.1043   20.6655  -28.9761 H   0  0  0  0  0  0  0  0  0  0  0  0
   -1.2829   22.7493  -28.3330 H   0  0  0  0  0  0  0  0  0  0  0  0
   -4.4234   24.4828  -26.6540 H   0  0  0  0  0  0  0  0  0  0  0  0
   -3.2905   25.4155  -24.6353 H   0  0  0  0  0  0  0  0  0  0  0  0
   -1.2242   26.0205  -23.5593 H   0  0  0  0  0  0  0  0  0  0  0  0
    0.3075   26.1753  -24.4848 H   0  0  0  0  0  0  0  0  0  0  0  0
   -0.8818   27.5215  -24.4848 H   0  0  0  0  0  0  0  0  0  0  0  0
    0.2577   26.1996  -26.9908 H   0  0  0  0  0  0  0  0  0  0  0  0
   -0.8770   25.2695  -29.0093 H   0  0  0  0  0  0  0  0  0  0  0  0
   -4.6769   19.5168  -32.6148 H   0  0  0  0  0  0  0  0  0  0  0  0
   -6.5324   17.8614  -32.4273 H   0  0  0  0  0  0  0  0  0  0  0  0
   -9.2964   18.1555  -30.5670 H   0  0  0  0  0  0  0  0  0  0  0  0
  -10.0116   18.7198  -32.1151 H   0  0  0  0  0  0  0  0  0  0  0  0
   -8.8074   17.3869  -32.1151 H   0  0  0  0  0  0  0  0  0  0  0  0
   -9.2056   21.0098  -31.1182 H   0  0  0  0  0  0  0  0  0  0  0  0
   -7.3485   22.6639  -31.3115 H   0  0  0  0  0  0  0  0  0  0  0  0
   -2.8448   20.1114  -32.2650 H   0  0  0  0  0  0  0  0  0  0  0  0
  1  2  1  0
  2  3  1  0
  3  4  2  0
  4  5  1  0
  5  6  2  0
  6  7  1  0
  7  8  2  0
  7  9  2  0
  7 10  1  0
 10 11  2  0
 11 12  1  0
 12 13  2  0
 13 14  1  0
 13 15  1  0
 15 16  2  0
  6 17  1  0
 17 18  1  0
 18 19  2  0
 18 20  2  0
 18 21  1  0
 21 22  2  0
 22 23  1  0
 23 24  2  0
 24 25  1  0
 24 26  1  0
 26 27  2  0
 17 28  2  0
 28  3  1  0
 16 10  1  0
 27 21  1  0
  1 29  1  0
  1 30  1  0
  1 31  1  0
  4 32  1  0
  5 33  1  0
 11 34  1  0
 12 35  1  0
 14 36  1  0
 14 37  1  0
 14 38  1  0
 15 39  1  0
 16 40  1  0
 22 41  1  0
 23 42  1  0
 25 43  1  0
 25 44  1  0
 25 45  1  0
 26 46  1  0
 27 47  1  0
 28 48  1  0
M  END
>  <UniqueID>  (47) 
45

>  <SMILES>  (47) 
COc1ccc(S(=O)(=O)c2ccc(C)cc2)c(S(=O)(=O)c2ccc(C)cc2)c1

>  <Energy>  (47) 
55.34824419788521

>  <Genealogy>  (47) 
COc1ccc(S(=O)(=O)c2ccc(C)cc2)c(S(=O)(=O)c2ccc(C)cc2)c1 (3D coordinates assigned)
COc1ccc(S(=O)(=O)c2ccc(C)cc2)c(S(=O)(=O)c2ccc(C)cc2)c1 (optimized conformer: 55.34824419788521 kcal/mol)

>  <smiles>  (47) 
COc1ccc(S(=O)(=O)c2ccc(C)cc2)c(S(=O)(=O)c2ccc(C)cc2)c1

>  <score_type>  (47) 
oracle

>  <origin>  (47) 
adgpu

>  <m_score__min__energy>  (47) 
-9.6099999999999994

>  <m_primary>  (47) 
energy

$$$$
47:0
     RDKit          3D

 58 60  0  0  0  0  0  0  0  0999 V2000
   -0.8550   21.9280  -25.0710 C   0  0  0  0  0  0  0  0  0  0  0  0
   -0.4450   23.2890  -25.5640 C   0  0  0  0  0  0  0  0  0  0  0  0
   -0.4690   24.3700  -24.6670 C   0  0  0  0  0  0  0  0  0  0  0  0
   -0.1110   25.6560  -25.0870 C   0  0  0  0  0  0  0  0  0  0  0  0
   -0.1120   26.9870  -23.9320 S   0  0  0  0  0  0  0  0  0  0  0  0
   -1.2370   26.7750  -22.9560 O   0  0  0  0  0  0  0  0  0  0  0  0
   -0.3440   28.2880  -24.6500 O   0  0  0  0  0  0  0  0  0  0  0  0
    1.4100   27.0340  -23.0810 N   0  0  0  0  0  0  0  0  0  0  0  0
    1.7190   28.4160  -22.6860 C   0  0  0  0  0  0  0  0  0  0  0  0
    2.4790   26.4880  -23.9300 C   0  0  0  0  0  0  0  0  0  0  0  0
    0.2790   25.8670  -26.4140 C   0  0  0  0  0  0  0  0  0  0  0  0
    0.2900   24.8050  -27.3190 C   0  0  0  0  0  0  0  0  0  0  0  0
   -0.0880   23.5190  -26.9120 C   0  0  0  0  0  0  0  0  0  0  0  0
   -0.0690   22.1990  -28.1370 S   0  0  0  0  0  0  0  0  0  0  0  0
   -1.6470   22.6770  -28.8430 C   0  0  0  0  0  0  0  0  0  0  0  0
   -2.6140   21.7070  -29.1260 C   0  0  0  0  0  0  0  0  0  0  0  0
   -3.8380   22.0790  -29.6860 C   0  0  0  0  0  0  0  0  0  0  0  0
   -4.1000   23.4250  -29.9780 C   0  0  0  0  0  0  0  0  0  0  0  0
   -5.6030   23.8720  -30.7790 S   0  0  0  0  0  0  0  0  0  0  0  0
   -6.7630   23.6900  -29.8420 O   0  0  0  0  0  0  0  0  0  0  0  0
   -5.5410   25.3140  -31.1970 O   0  0  0  0  0  0  0  0  0  0  0  0
   -5.8150   22.8810  -32.1810 N   0  0  0  0  0  0  0  0  0  0  0  0
   -6.8260   21.8740  -32.2100 C   0  0  0  0  0  0  0  0  0  0  0  0
   -8.1860   22.0640  -32.0720 C   0  0  0  0  0  0  0  0  0  0  0  0
   -8.8980   23.3740  -31.9830 C   0  0  0  0  0  0  0  0  0  0  0  0
   -8.7810   20.8720  -31.8670 N   0  0  0  0  0  0  0  0  0  0  0  0
   -7.8360   19.9400  -31.8930 N   0  0  0  0  0  0  0  0  0  0  0  0
   -8.0900   18.5350  -31.6010 C   0  0  0  0  0  0  0  0  0  0  0  0
   -6.6300   20.5150  -32.0860 C   0  0  0  0  0  0  0  0  0  0  0  0
   -5.3120   19.8100  -31.9760 C   0  0  0  0  0  0  0  0  0  0  0  0
   -3.1240   24.3940  -29.7090 C   0  0  0  0  0  0  0  0  0  0  0  0
   -1.9010   24.0210  -29.1430 C   0  0  0  0  0  0  0  0  0  0  0  0
   -0.8569   21.9217  -23.9710 H   0  0  0  0  0  0  0  0  0  0  0  0
   -1.8639   21.6927  -25.4408 H   0  0  0  0  0  0  0  0  0  0  0  0
   -0.1440   21.1745  -25.4408 H   0  0  0  0  0  0  0  0  0  0  0  0
   -0.7726   24.2037  -23.6229 H   0  0  0  0  0  0  0  0  0  0  0  0
    1.3270   26.4450  -22.2200 H   0  0  0  0  0  0  0  0  0  0  0  0
    1.7353   28.4887  -21.5885 H   0  0  0  0  0  0  0  0  0  0  0  0
    2.7030   28.7007  -23.0870 H   0  0  0  0  0  0  0  0  0  0  0  0
    0.9500   29.0926  -23.0870 H   0  0  0  0  0  0  0  0  0  0  0  0
    3.2789   26.0794  -23.2950 H   0  0  0  0  0  0  0  0  0  0  0  0
    2.0704   25.6882  -24.5651 H   0  0  0  0  0  0  0  0  0  0  0  0
    2.8875   27.2879  -24.5651 H   0  0  0  0  0  0  0  0  0  0  0  0
    0.5777   26.8727  -26.7447 H   0  0  0  0  0  0  0  0  0  0  0  0
    0.5980   24.9790  -28.3606 H   0  0  0  0  0  0  0  0  0  0  0  0
   -2.4099   20.6485  -28.9069 H   0  0  0  0  0  0  0  0  0  0  0  0
   -4.5989   21.3136  -29.8987 H   0  0  0  0  0  0  0  0  0  0  0  0
   -9.0433   23.6413  -30.9259 H   0  0  0  0  0  0  0  0  0  0  0  0
   -8.2984   24.1516  -32.4788 H   0  0  0  0  0  0  0  0  0  0  0  0
   -9.8767   23.2938  -32.4788 H   0  0  0  0  0  0  0  0  0  0  0  0
   -8.1169   18.3860  -30.5115 H   0  0  0  0  0  0  0  0  0  0  0  0
   -9.0562   18.2390  -32.0356 H   0  0  0  0  0  0  0  0  0  0  0  0
   -7.2886   17.9195  -32.0356 H   0  0  0  0  0  0  0  0  0  0  0  0
   -5.0567   19.6734  -30.9148 H   0  0  0  0  0  0  0  0  0  0  0  0
   -5.3796   18.8276  -32.4662 H   0  0  0  0  0  0  0  0  0  0  0  0
   -4.5324   20.4115  -32.4662 H   0  0  0  0  0  0  0  0  0  0  0  0
   -3.3205   25.4506  -29.9437 H   0  0  0  0  0  0  0  0  0  0  0  0
   -1.1374   24.7844  -28.9331 H   0  0  0  0  0  0  0  0  0  0  0  0
  1  2  1  0
  2  3  2  0
  3  4  1  0
  4  5  1  0
  5  6  2  0
  5  7  2  0
  5  8  1  0
  8  9  1  0
  8 10  1  0
  4 11  2  0
 11 12  1  0
 12 13  2  0
 13 14  1  0
 14 15  1  0
 15 16  2  0
 16 17  1  0
 17 18  2  0
 18 19  1  0
 19 20  2  0
 19 21  2  0
 19 22  1  0
 22 23  1  0
 23 24  1  0
 24 25  1  0
 24 26  2  0
 26 27  1  0
 27 28  1  0
 27 29  1  0
 29 30  1  0
 18 31  1  0
 31 32  2  0
 13  2  1  0
 32 15  1  0
 29 23  2  0
  1 33  1  0
  1 34  1  0
  1 35  1  0
  3 36  1  0
  8 37  1  0
  9 38  1  0
  9 39  1  0
  9 40  1  0
 10 41  1  0
 10 42  1  0
 10 43  1  0
 11 44  1  0
 12 45  1  0
 16 46  1  0
 17 47  1  0
 25 48  1  0
 25 49  1  0
 25 50  1  0
 28 51  1  0
 28 52  1  0
 28 53  1  0
 30 54  1  0
 30 55  1  0
 30 56  1  0
 31 57  1  0
 32 58  1  0
M  CHG  2   8   1  22  -1
M  END
>  <UniqueID>  (48) 
46

>  <SMILES>  (48) 
Cc1cc(S(=O)(=O)[NH+](C)C)ccc1Sc1ccc(S(=O)(=O)[N-]c2c(C)nn(C)c2C)cc1

>  <Energy>  (48) 
88.95358095421169

>  <Genealogy>  (48) 
Cc1cc(S(=O)(=O)[NH+](C)C)ccc1Sc1ccc(S(=O)(=O)[N-]c2c(C)nn(C)c2C)cc1 (protonated)
Cc1cc(S(=O)(=O)[NH+](C)C)ccc1Sc1ccc(S(=O)(=O)[N-]c2c(C)nn(C)c2C)cc1 (3D coordinates assigned)
Cc1cc(S(=O)(=O)[NH+](C)C)ccc1Sc1ccc(S(=O)(=O)[N-]c2c(C)nn(C)c2C)cc1 (optimized conformer: 88.95358095421169 kcal/mol)

>  <smiles>  (48) 
Cc1cc(S(=O)(=O)N(C)C)ccc1Sc1ccc(S(=O)(=O)Nc2c(C)nn(C)c2C)cc1

>  <score_type>  (48) 
oracle

>  <origin>  (48) 
adgpu

>  <m_score__min__energy>  (48) 
-11.050000000000001

>  <m_primary>  (48) 
energy

$$$$
48:0
     RDKit          3D

 34 35  0  0  0  0  0  0  0  0999 V2000
   -0.8750   26.4480  -26.8320 C   0  0  0  0  0  0  0  0  0  0  0  0
   -0.8600   25.5980  -28.0560 C   0  0  0  0  0  0  0  0  0  0  0  0
    0.1630   24.9130  -28.3240 O   0  0  0  0  0  0  0  0  0  0  0  0
   -1.9650   25.6560  -28.9660 N   0  0  0  0  0  0  0  0  0  0  0  0
   -2.8600   24.5820  -29.2910 C   0  0  0  0  0  0  0  0  0  0  0  0
   -2.8670   23.4450  -28.4770 C   0  0  0  0  0  0  0  0  0  0  0  0
   -3.7020   22.3650  -28.7760 C   0  0  0  0  0  0  0  0  0  0  0  0
   -4.5340   22.4110  -29.8970 C   0  0  0  0  0  0  0  0  0  0  0  0
   -4.5390   23.5460  -30.7270 C   0  0  0  0  0  0  0  0  0  0  0  0
   -5.3450   23.6170  -31.9120 N   0  0  0  0  0  0  0  0  0  0  0  0
   -6.6170   22.9860  -32.1220 C   0  0  0  0  0  0  0  0  0  0  0  0
   -7.6730   23.6750  -32.1110 O   0  0  0  0  0  0  0  0  0  0  0  0
   -6.6860   21.5340  -32.4060 C   0  0  0  0  0  0  0  0  0  0  0  0
   -5.6190   20.8780  -33.0480 C   0  0  0  0  0  0  0  0  0  0  0  0
   -5.6900   19.5090  -33.3210 C   0  0  0  0  0  0  0  0  0  0  0  0
   -6.8200   18.7770  -32.9530 C   0  0  0  0  0  0  0  0  0  0  0  0
   -7.8850   19.4080  -32.2960 C   0  0  0  0  0  0  0  0  0  0  0  0
   -9.1160   18.6290  -31.9350 C   0  0  0  0  0  0  0  0  0  0  0  0
   -7.8210   20.7860  -32.0380 C   0  0  0  0  0  0  0  0  0  0  0  0
   -3.6810   24.6150  -30.4340 C   0  0  0  0  0  0  0  0  0  0  0  0
   -0.8637   25.8055  -25.9392 H   0  0  0  0  0  0  0  0  0  0  0  0
    0.0118   27.0988  -26.8267 H   0  0  0  0  0  0  0  0  0  0  0  0
   -1.7842   27.0671  -26.8267 H   0  0  0  0  0  0  0  0  0  0  0  0
   -2.2108   23.4004  -27.5953 H   0  0  0  0  0  0  0  0  0  0  0  0
   -3.7040   21.4768  -28.1271 H   0  0  0  0  0  0  0  0  0  0  0  0
   -5.1869   21.5572  -30.1311 H   0  0  0  0  0  0  0  0  0  0  0  0
   -4.7229   21.4467  -33.3370 H   0  0  0  0  0  0  0  0  0  0  0  0
   -4.8526   19.0069  -33.8275 H   0  0  0  0  0  0  0  0  0  0  0  0
   -6.8748   17.7019  -33.1793 H   0  0  0  0  0  0  0  0  0  0  0  0
   -9.2059   18.5721  -30.8402 H   0  0  0  0  0  0  0  0  0  0  0  0
  -10.0024   19.1309  -32.3501 H   0  0  0  0  0  0  0  0  0  0  0  0
   -9.0419   17.6130  -32.3501 H   0  0  0  0  0  0  0  0  0  0  0  0
   -8.6661   21.2870  -31.5432 H   0  0  0  0  0  0  0  0  0  0  0  0
   -3.6489   25.4874  -31.1032 H   0  0  0  0  0  0  0  0  0  0  0  0
  1  2  1  0
  2  3  2  0
  2  4  1  0
  4  5  1  0
  5  6  2  0
  6  7  1  0
  7  8  2  0
  8  9  1  0
  9 10  1  0
 10 11  1  0
 11 12  2  0
 11 13  1  0
 13 14  2  0
 14 15  1  0
 15 16  2  0
 16 17  1  0
 17 18  1  0
 17 19  2  0
  9 20  2  0
 20  5  1  0
 19 13  1  0
  1 21  1  0
  1 22  1  0
  1 23  1  0
  6 24  1  0
  7 25  1  0
  8 26  1  0
 14 27  1  0
 15 28  1  0
 16 29  1  0
 18 30  1  0
 18 31  1  0
 18 32  1  0
 19 33  1  0
 20 34  1  0
M  CHG  2   4  -1  10  -1
M  END
>  <UniqueID>  (49) 
47

>  <SMILES>  (49) 
CC(=O)[N-]c1cccc([N-]C(=O)c2cccc(C)c2)c1

>  <Energy>  (49) 
39.62001083167317

>  <Genealogy>  (49) 
CC(=O)[N-]c1cccc([N-]C(=O)c2cccc(C)c2)c1 (protonated)
CC(=O)[N-]c1cccc([N-]C(=O)c2cccc(C)c2)c1 (3D coordinates assigned)
CC(=O)[N-]c1cccc([N-]C(=O)c2cccc(C)c2)c1 (optimized conformer: 39.62001083167317 kcal/mol)

>  <smiles>  (49) 
CC(=O)Nc1cccc(NC(=O)c2cccc(C)c2)c1

>  <score_type>  (49) 
oracle

>  <origin>  (49) 
adgpu

>  <m_score__min__energy>  (49) 
-9.8100000000000005

>  <m_primary>  (49) 
energy

$$$$
49:0
     RDKit          3D

 28 29  0  0  0  0  0  0  0  0999 V2000
   -6.7870   16.6510  -33.4480 C   0  0  0  0  0  0  0  0  0  0  0  0
   -7.2100   18.0080  -32.9520 C   0  0  0  0  0  0  0  0  0  0  0  0
   -8.3290   18.1160  -32.1090 C   0  0  0  0  0  0  0  0  0  0  0  0
   -8.7400   19.3600  -31.6290 C   0  0  0  0  0  0  0  0  0  0  0  0
   -8.0430   20.5180  -31.9860 C   0  0  0  0  0  0  0  0  0  0  0  0
   -8.5480   22.0850  -31.3650 S   0  0  0  0  0  0  0  0  0  0  0  0
   -9.4900   22.7420  -32.3350 O   0  0  0  0  0  0  0  0  0  0  0  0
   -9.2640   21.9160  -30.0540 O   0  0  0  0  0  0  0  0  0  0  0  0
   -7.1540   23.0840  -31.1400 N   0  0  0  0  0  0  0  0  0  0  0  0
   -6.6570   23.5200  -29.9740 C   0  0  0  0  0  0  0  0  0  0  0  0
   -5.5210   24.2480  -30.2530 C   0  0  0  0  0  0  0  0  0  0  0  0
   -5.3060   24.2600  -31.5860 N   0  0  0  0  0  0  0  0  0  0  0  0
   -6.3240   23.5360  -32.0960 C   0  0  0  0  0  0  0  0  0  0  0  0
   -6.9180   20.4230  -32.8130 C   0  0  0  0  0  0  0  0  0  0  0  0
   -6.4880   19.1750  -33.2990 C   0  0  0  0  0  0  0  0  0  0  0  0
   -5.2770   19.1090  -34.1920 C   0  0  0  0  0  0  0  0  0  0  0  0
   -6.5823   15.9943  -32.5896 H   0  0  0  0  0  0  0  0  0  0  0  0
   -7.5923   16.2163  -34.0584 H   0  0  0  0  0  0  0  0  0  0  0  0
   -5.8774   16.7509  -34.0584 H   0  0  0  0  0  0  0  0  0  0  0  0
   -8.8863   17.2112  -31.8248 H   0  0  0  0  0  0  0  0  0  0  0  0
   -9.6158   19.4298  -30.9671 H   0  0  0  0  0  0  0  0  0  0  0  0
   -7.0792   23.3310  -28.9760 H   0  0  0  0  0  0  0  0  0  0  0  0
   -4.8860   24.7438  -29.5040 H   0  0  0  0  0  0  0  0  0  0  0  0
   -6.4591   23.3385  -33.1697 H   0  0  0  0  0  0  0  0  0  0  0  0
   -6.3644   21.3336  -33.0857 H   0  0  0  0  0  0  0  0  0  0  0  0
   -4.3682   19.0595  -33.5743 H   0  0  0  0  0  0  0  0  0  0  0  0
   -5.3381   18.2128  -34.8270 H   0  0  0  0  0  0  0  0  0  0  0  0
   -5.2403   20.0065  -34.8270 H   0  0  0  0  0  0  0  0  0  0  0  0
  1  2  1  0
  2  3  2  0
  3  4  1  0
  4  5  2  0
  5  6  1  0
  6  7  2  0
  6  8  2  0
  6  9  1  0
  9 10  1  0
 10 11  2  0
 11 12  1  0
 12 13  2  0
  5 14  1  0
 14 15  2  0
 15 16  1  0
 15  2  1  0
 13  9  1  0
  1 17  1  0
  1 18  1  0
  1 19  1  0
  3 20  1  0
  4 21  1  0
 10 22  1  0
 11 23  1  0
 13 24  1  0
 14 25  1  0
 16 26  1  0
 16 27  1  0
 16 28  1  0
M  END
>  <UniqueID>  (50) 
48

>  <SMILES>  (50) 
Cc1ccc(S(=O)(=O)n2ccnc2)cc1C

>  <Energy>  (50) 
59.40211409005991

>  <Genealogy>  (50) 
Cc1ccc(S(=O)(=O)n2ccnc2)cc1C (3D coordinates assigned)
Cc1ccc(S(=O)(=O)n2ccnc2)cc1C (optimized conformer: 59.40211409005991 kcal/mol)

>  <smiles>  (50) 
Cc1ccc(S(=O)(=O)n2ccnc2)cc1C

>  <score_type>  (50) 
oracle

>  <origin>  (50) 
adgpu

>  <m_score__min__energy>  (50) 
-7.1500000000000004

>  <m_primary>  (50) 
energy

$$$$
