0:0
     RDKit          3D

 33 34  0  0  0  0  0  0  0  0999 V2000
   -9.1370   19.9600  -32.3900 C   0  0  0  0  0  0  0  0  0  0  0  0
   -7.6850   20.0070  -32.1860 N   0  0  0  0  0  0  0  0  0  0  0  0
   -7.0580   21.2030  -31.6670 C   0  0  0  0  0  0  0  0  0  0  0  0
   -5.9290   21.7610  -32.2950 C   0  0  0  0  0  0  0  0  0  0  0  0
   -5.3310   22.9180  -31.7830 C   0  0  0  0  0  0  0  0  0  0  0  0
   -5.8470   23.5310  -30.6340 C   0  0  0  0  0  0  0  0  0  0  0  0
   -5.1020   24.9930  -29.9990 S   0  0  0  0  0  0  0  0  0  0  0  0
   -3.5150   25.1610  -30.6610 N   0  0  0  0  0  0  0  0  0  0  0  0
   -5.0160   24.9110  -28.5010 O   0  0  0  0  0  0  0  0  0  0  0  0
   -5.9320   26.1900  -30.3700 O   0  0  0  0  0  0  0  0  0  0  0  0
   -6.9760   22.9870  -30.0090 C   0  0  0  0  0  0  0  0  0  0  0  0
   -7.5760   21.8310  -30.5190 C   0  0  0  0  0  0  0  0  0  0  0  0
   -6.8730   18.9230  -32.6790 C   0  0  0  0  0  0  0  0  0  0  0  0
   -6.4210   18.9240  -34.0080 C   0  0  0  0  0  0  0  0  0  0  0  0
   -5.6270   17.8770  -34.4840 C   0  0  0  0  0  0  0  0  0  0  0  0
   -5.2750   16.8220  -33.6380 C   0  0  0  0  0  0  0  0  0  0  0  0
   -5.7150   16.8110  -32.3060 C   0  0  0  0  0  0  0  0  0  0  0  0
   -5.3480   15.7350  -31.4380 N   0  0  0  0  0  0  0  0  0  0  0  0
   -6.5110   17.8630  -31.8300 C   0  0  0  0  0  0  0  0  0  0  0  0
   -9.6440   19.9436  -31.4140 H   0  0  0  0  0  0  0  0  0  0  0  0
   -9.4569   20.8483  -32.9545 H   0  0  0  0  0  0  0  0  0  0  0  0
   -9.3988   19.0529  -32.9545 H   0  0  0  0  0  0  0  0  0  0  0  0
   -5.5135   21.2842  -33.1950 H   0  0  0  0  0  0  0  0  0  0  0  0
   -4.4518   23.3480  -32.2851 H   0  0  0  0  0  0  0  0  0  0  0  0
   -3.5070   26.0470  -31.2130 H   0  0  0  0  0  0  0  0  0  0  0  0
   -7.3927   23.4708  -29.1133 H   0  0  0  0  0  0  0  0  0  0  0  0
   -8.4601   21.4092  -30.0186 H   0  0  0  0  0  0  0  0  0  0  0  0
   -6.6931   19.7529  -34.6780 H   0  0  0  0  0  0  0  0  0  0  0  0
   -5.2783   17.8834  -35.5272 H   0  0  0  0  0  0  0  0  0  0  0  0
   -4.6518   15.9987  -34.0172 H   0  0  0  0  0  0  0  0  0  0  0  0
   -5.5400   15.7870  -30.4130 H   0  0  0  0  0  0  0  0  0  0  0  0
   -4.8810   14.8800  -31.8150 H   0  0  0  0  0  0  0  0  0  0  0  0
   -6.8544   17.8585  -30.7850 H   0  0  0  0  0  0  0  0  0  0  0  0
  1  2  1  0
  2  3  1  0
  3  4  2  0
  4  5  1  0
  5  6  2  0
  6  7  1  0
  7  8  1  0
  7  9  2  0
  7 10  2  0
  6 11  1  0
 11 12  2  0
  2 13  1  0
 13 14  2  0
 14 15  1  0
 15 16  2  0
 16 17  1  0
 17 18  1  0
 17 19  2  0
 12  3  1  0
 19 13  1  0
  1 20  1  0
  1 21  1  0
  1 22  1  0
  4 23  1  0
  5 24  1  0
  8 25  1  0
 11 26  1  0
 12 27  1  0
 14 28  1  0
 15 29  1  0
 16 30  1  0
 18 31  1  0
 18 32  1  0
 19 33  1  0
M  CHG  1   8  -1
M  END
>  <UniqueID>  (1) 
1

>  <SMILES>  (1) 
CN(c1ccc(S([NH-])(=O)=O)cc1)c1cccc(N)c1

>  <Energy>  (1) 
40.76060094249376

>  <Genealogy>  (1) 
CN(c1ccc(S([NH-])(=O)=O)cc1)c1cccc(N)c1 (protonated)
CN(c1ccc(S([NH-])(=O)=O)cc1)c1cccc(N)c1 (3D coordinates assigned)
CN(c1ccc(S([NH-])(=O)=O)cc1)c1cccc(N)c1 (optimized conformer: 40.76060094249376 kcal/mol)

>  <smiles>  (1) 
CN(c1ccc(S(N)(=O)=O)cc1)c1cccc(N)c1

>  <score_type>  (1) 
oracle

>  <origin>  (1) 
adgpu

>  <m_score__min__energy>  (1) 
-10.109999999999999

>  <m_primary>  (1) 
energy

$$$$
1:0
     RDKit          3D

 73 80  0  0  0  0  0  0  0  0999 V2000
   -0.9130   25.6350  -25.9470 C   0  0  0  0  0  0  0  0  0  0  0  0
   -2.1560   24.9940  -26.0100 C   0  0  0  0  0  0  0  0  0  0  0  0
   -2.7610   24.7670  -27.2530 C   0  0  0  0  0  0  0  0  0  0  0  0
   -2.1330   25.1940  -28.4310 C   0  0  0  0  0  0  0  0  0  0  0  0
   -2.7360   24.9470  -29.6680 O   0  0  0  0  0  0  0  0  0  0  0  0
   -2.9830   23.6640  -30.1780 C   0  0  0  0  0  0  0  0  0  0  0  0
   -4.1750   23.4340  -30.8660 C   0  0  0  0  0  0  0  0  0  0  0  0
   -4.4260   22.1930  -31.4550 C   0  0  0  0  0  0  0  0  0  0  0  0
   -3.4750   21.1510  -31.3870 C   0  0  0  0  0  0  0  0  0  0  0  0
   -3.7460   19.8760  -32.1220 C   0  0  0  0  0  0  0  0  0  0  0  0
   -4.9960   19.3230  -32.0230 N   0  0  0  0  0  0  0  0  0  0  0  0
   -5.3430   18.1630  -32.6480 C   0  0  0  0  0  0  0  0  0  0  0  0
   -6.6130   17.6130  -32.4880 C   0  0  0  0  0  0  0  0  0  0  0  0
   -6.9270   16.4020  -33.1110 C   0  0  0  0  0  0  0  0  0  0  0  0
   -5.9570   15.7410  -33.8950 C   0  0  0  0  0  0  0  0  0  0  0  0
   -6.2270   14.4630  -34.5220 N   0  0  0  0  0  0  0  0  0  0  0  0
   -5.1270   13.6000  -34.9810 C   0  0  0  0  0  0  0  0  0  0  0  0
   -5.6530   12.2770  -35.5490 C   0  0  0  0  0  0  0  0  0  0  0  0
   -6.7370   12.5240  -36.5110 N   0  0  0  0  0  0  0  0  0  0  0  0
   -7.8820   13.2750  -35.9440 C   0  0  0  0  0  0  0  0  0  0  0  0
   -7.5990   13.9370  -34.5810 C   0  0  0  0  0  0  0  0  0  0  0  0
   -4.7280   16.3180  -34.0410 N   0  0  0  0  0  0  0  0  0  0  0  0
   -4.4030   17.4960  -33.4490 C   0  0  0  0  0  0  0  0  0  0  0  0
   -3.1660   18.0500  -33.5670 N   0  0  0  0  0  0  0  0  0  0  0  0
   -2.8040   19.1860  -32.9200 C   0  0  0  0  0  0  0  0  0  0  0  0
   -1.5070   19.5340  -33.1340 N   0  0  0  0  0  0  0  0  0  0  0  0
   -1.0760   18.5690  -33.9740 C   0  0  0  0  0  0  0  0  0  0  0  0
    0.1730   18.4530  -34.5720 C   0  0  0  0  0  0  0  0  0  0  0  0
    0.3770   17.4180  -35.4390 N   0  0  0  0  0  0  0  0  0  0  0  0
   -0.5980   16.4950  -35.7290 C   0  0  0  0  0  0  0  0  0  0  0  0
   -0.3270   15.4400  -36.6740 N   0  0  0  0  0  0  0  0  0  0  0  0
    1.0280   14.8970  -36.8240 C   0  0  0  0  0  0  0  0  0  0  0  0
    1.2090   14.3400  -38.2400 C   0  0  0  0  0  0  0  0  0  0  0  0
    0.1740   13.4280  -38.5550 O   0  0  0  0  0  0  0  0  0  0  0  0
   -1.0660   14.1070  -38.5930 C   0  0  0  0  0  0  0  0  0  0  0  0
   -1.4360   14.6470  -37.2080 C   0  0  0  0  0  0  0  0  0  0  0  0
   -1.8700   16.6100  -35.1230 C   0  0  0  0  0  0  0  0  0  0  0  0
   -2.0660   17.6710  -34.2410 C   0  0  0  0  0  0  0  0  0  0  0  0
   -2.2770   21.3920  -30.6820 C   0  0  0  0  0  0  0  0  0  0  0  0
   -2.0430   22.6260  -30.0670 C   0  0  0  0  0  0  0  0  0  0  0  0
   -0.8880   25.8430  -28.3630 C   0  0  0  0  0  0  0  0  0  0  0  0
   -0.2770   26.0560  -27.1220 C   0  0  0  0  0  0  0  0  0  0  0  0
   -0.4343   25.8086  -24.9719 H   0  0  0  0  0  0  0  0  0  0  0  0
   -2.6564   24.6694  -25.0858 H   0  0  0  0  0  0  0  0  0  0  0  0
   -3.7317   24.2522  -27.3046 H   0  0  0  0  0  0  0  0  0  0  0  0
   -4.9230   24.2367  -30.9450 H   0  0  0  0  0  0  0  0  0  0  0  0
   -5.3781   22.0245  -31.9795 H   0  0  0  0  0  0  0  0  0  0  0  0
   -7.3653   18.1297  -31.8740 H   0  0  0  0  0  0  0  0  0  0  0  0
   -7.9290   15.9644  -32.9905 H   0  0  0  0  0  0  0  0  0  0  0  0
   -4.5623   14.1264  -35.7646 H   0  0  0  0  0  0  0  0  0  0  0  0
   -4.4817   13.3743  -34.1192 H   0  0  0  0  0  0  0  0  0  0  0  0
   -4.8321   11.7491  -36.0564 H   0  0  0  0  0  0  0  0  0  0  0  0
   -6.0437   11.6654  -34.7224 H   0  0  0  0  0  0  0  0  0  0  0  0
   -6.3480   13.0440  -37.3320 H   0  0  0  0  0  0  0  0  0  0  0  0
   -7.0750   11.5950  -36.8600 H   0  0  0  0  0  0  0  0  0  0  0  0
   -8.1630   14.0637  -36.6575 H   0  0  0  0  0  0  0  0  0  0  0  0
   -8.6848   12.5421  -35.7756 H   0  0  0  0  0  0  0  0  0  0  0  0
   -8.3077   14.7645  -34.4296 H   0  0  0  0  0  0  0  0  0  0  0  0
   -7.7162   13.1782  -33.7933 H   0  0  0  0  0  0  0  0  0  0  0  0
    0.9743   19.1742  -34.3532 H   0  0  0  0  0  0  0  0  0  0  0  0
    1.7633   15.6962  -36.6490 H   0  0  0  0  0  0  0  0  0  0  0  0
    1.1788   14.0887  -36.0933 H   0  0  0  0  0  0  0  0  0  0  0  0
    1.1894   15.1712  -38.9602 H   0  0  0  0  0  0  0  0  0  0  0  0
    2.1729   13.8126  -38.2919 H   0  0  0  0  0  0  0  0  0  0  0  0
   -0.9953   14.9468  -39.2999 H   0  0  0  0  0  0  0  0  0  0  0  0
   -1.8446   13.3993  -38.9139 H   0  0  0  0  0  0  0  0  0  0  0  0
   -2.3318   15.2801  -37.2899 H   0  0  0  0  0  0  0  0  0  0  0  0
   -1.6395   13.8040  -36.5312 H   0  0  0  0  0  0  0  0  0  0  0  0
   -2.6734   15.8904  -35.3391 H   0  0  0  0  0  0  0  0  0  0  0  0
   -1.5173   20.5992  -30.6152 H   0  0  0  0  0  0  0  0  0  0  0  0
   -1.1180   22.7847  -29.4933 H   0  0  0  0  0  0  0  0  0  0  0  0
   -0.3940   26.1834  -29.2850 H   0  0  0  0  0  0  0  0  0  0  0  0
    0.7024   26.5539  -27.0693 H   0  0  0  0  0  0  0  0  0  0  0  0
  1  2  2  0
  2  3  1  0
  3  4  2  0
  4  5  1  0
  5  6  1  0
  6  7  2  0
  7  8  1  0
  8  9  2  0
  9 10  1  0
 10 11  2  0
 11 12  1  0
 12 13  2  0
 13 14  1  0
 14 15  2  0
 15 16  1  0
 16 17  1  0
 17 18  1  0
 18 19  1  0
 19 20  1  0
 20 21  1  0
 15 22  1  0
 22 23  2  0
 23 24  1  0
 24 25  1  0
 25 26  2  0
 26 27  1  0
 27 28  2  0
 28 29  1  0
 29 30  2  0
 30 31  1  0
 31 32  1  0
 32 33  1  0
 33 34  1  0
 34 35  1  0
 35 36  1  0
 30 37  1  0
 37 38  2  0
  9 39  1  0
 39 40  2  0
  4 41  1  0
 41 42  2  0
 42  1  1  0
 40  6  1  0
 25 10  1  0
 38 27  1  0
 23 12  1  0
 38 24  1  0
 21 16  1  0
 36 31  1  0
  1 43  1  0
  2 44  1  0
  3 45  1  0
  7 46  1  0
  8 47  1  0
 13 48  1  0
 14 49  1  0
 17 50  1  0
 17 51  1  0
 18 52  1  0
 18 53  1  0
 19 54  1  0
 19 55  1  0
 20 56  1  0
 20 57  1  0
 21 58  1  0
 21 59  1  0
 28 60  1  0
 32 61  1  0
 32 62  1  0
 33 63  1  0
 33 64  1  0
 35 65  1  0
 35 66  1  0
 36 67  1  0
 36 68  1  0
 37 69  1  0
 39 70  1  0
 40 71  1  0
 41 72  1  0
 42 73  1  0
M  CHG  1  19   1
M  END
>  <UniqueID>  (2) 
2

>  <SMILES>  (2) 
c1ccc(Oc2ccc(-c3nc4ccc(N5CC[NH2+]CC5)nc4n4c3nc3cnc(N5CCOCC5)cc34)cc2)cc1

>  <Energy>  (2) 
158.17443567313276

>  <Genealogy>  (2) 
c1ccc(Oc2ccc(-c3nc4ccc(N5CC[NH2+]CC5)nc4n4c3nc3cnc(N5CCOCC5)cc34)cc2)cc1 (protonated)
c1ccc(Oc2ccc(-c3nc4ccc(N5CC[NH2+]CC5)nc4n4c3nc3cnc(N5CCOCC5)cc34)cc2)cc1 (3D coordinates assigned)
c1ccc(Oc2ccc(-c3nc4ccc(N5CC[NH2+]CC5)nc4n4c3nc3cnc(N5CCOCC5)cc34)cc2)cc1 (nonaromatic ring conformer: 158.17443567313276 kcal/mol)

>  <smiles>  (2) 
c1ccc(Oc2ccc(-c3nc4ccc(N5CCNCC5)nc4n4c3nc3cnc(N5CCOCC5)cc34)cc2)cc1

>  <score_type>  (2) 
oracle

>  <origin>  (2) 
adgpu

>  <m_score__min__energy>  (2) 
-8.3699999999999992

>  <m_primary>  (2) 
energy

$$$$
2:0
     RDKit          3D

 40 42  0  0  0  0  0  0  0  0999 V2000
   -6.0694   19.3688  -35.6339 H   0  0  0  0  0  0  0  0  0  0  0  0
   -6.0150   18.5910  -34.8580 C   0  0  0  0  0  0  0  0  0  0  0  0
   -5.7170   17.2940  -35.0750 N   0  0  0  0  0  0  0  0  0  0  0  0
   -5.7520   16.6690  -33.9090 N   0  0  0  0  0  0  0  0  0  0  0  0
   -5.4970   15.2410  -33.7560 C   0  0  0  0  0  0  0  0  0  0  0  0
   -5.4520   14.9891  -32.6862 H   0  0  0  0  0  0  0  0  0  0  0  0
   -6.3075   14.6706  -34.2332 H   0  0  0  0  0  0  0  0  0  0  0  0
   -4.5392   14.9864  -34.2332 H   0  0  0  0  0  0  0  0  0  0  0  0
   -6.0640   17.5450  -32.9310 C   0  0  0  0  0  0  0  0  0  0  0  0
   -6.2660   17.1890  -31.4870 C   0  0  0  0  0  0  0  0  0  0  0  0
   -5.8229   17.9698  -30.8514 H   0  0  0  0  0  0  0  0  0  0  0  0
   -7.3427   17.1114  -31.2756 H   0  0  0  0  0  0  0  0  0  0  0  0
   -5.7804   16.2249  -31.2756 H   0  0  0  0  0  0  0  0  0  0  0  0
   -6.2420   18.7920  -33.5060 C   0  0  0  0  0  0  0  0  0  0  0  0
   -6.7100   20.0300  -32.8470 C   0  0  0  0  0  0  0  0  0  0  0  0
   -5.8020   21.0170  -32.6230 N   0  0  0  0  0  0  0  0  0  0  0  0
   -6.1320   22.1780  -32.0010 C   0  0  0  0  0  0  0  0  0  0  0  0
   -5.2030   23.0740  -31.8220 N   0  0  0  0  0  0  0  0  0  0  0  0
   -5.3490   24.3700  -31.1600 C   0  0  0  0  0  0  0  0  0  0  0  0
   -6.3655   24.4521  -30.7477 H   0  0  0  0  0  0  0  0  0  0  0  0
   -5.1705   25.1657  -31.8982 H   0  0  0  0  0  0  0  0  0  0  0  0
   -4.3560   24.5130  -30.0500 C   0  0  0  0  0  0  0  0  0  0  0  0
   -3.1160   24.9170  -30.2050 O   0  0  0  0  0  0  0  0  0  0  0  0
   -2.4890   24.9520  -29.0640 N   0  0  0  0  0  0  0  0  0  0  0  0
   -3.3650   24.5380  -28.1280 C   0  0  0  0  0  0  0  0  0  0  0  0
   -3.0670   24.4910  -26.6660 C   0  0  0  0  0  0  0  0  0  0  0  0
   -3.9971   24.6377  -26.0973 H   0  0  0  0  0  0  0  0  0  0  0  0
   -2.6321   23.5132  -26.4117 H   0  0  0  0  0  0  0  0  0  0  0  0
   -2.3522   25.2875  -26.4117 H   0  0  0  0  0  0  0  0  0  0  0  0
   -4.5800   24.2550  -28.7140 C   0  0  0  0  0  0  0  0  0  0  0  0
   -5.5055   23.9071  -28.2320 H   0  0  0  0  0  0  0  0  0  0  0  0
   -7.4160   22.3700  -31.5780 N   0  0  0  0  0  0  0  0  0  0  0  0
   -7.7100   23.2470  -31.0950 H   0  0  0  0  0  0  0  0  0  0  0  0
   -8.3650   21.4210  -31.7860 C   0  0  0  0  0  0  0  0  0  0  0  0
   -9.3928   21.5927  -31.4336 H   0  0  0  0  0  0  0  0  0  0  0  0
   -8.0490   20.2270  -32.4440 C   0  0  0  0  0  0  0  0  0  0  0  0
   -9.1340   19.2130  -32.6930 C   0  0  0  0  0  0  0  0  0  0  0  0
   -9.5235   18.8490  -31.7308 H   0  0  0  0  0  0  0  0  0  0  0  0
   -9.9488   19.6808  -33.2650 H   0  0  0  0  0  0  0  0  0  0  0  0
   -8.7223   18.3684  -33.2650 H   0  0  0  0  0  0  0  0  0  0  0  0
  1  2  1  0
  2  3  2  0
  3  4  1  0
  4  5  1  0
  5  6  1  0
  5  7  1  0
  5  8  1  0
  4  9  1  0
  9 10  1  0
 10 11  1  0
 10 12  1  0
 10 13  1  0
  9 14  2  0
 14 15  1  0
 15 16  2  0
 16 17  1  0
 17 18  2  0
 18 19  1  0
 19 20  1  0
 19 21  1  0
 19 22  1  0
 22 23  1  0
 23 24  1  0
 24 25  2  0
 25 26  1  0
 26 27  1  0
 26 28  1  0
 26 29  1  0
 25 30  1  0
 30 31  1  0
 17 32  1  0
 32 33  1  0
 32 34  1  0
 34 35  1  0
 34 36  2  0
 36 37  1  0
 37 38  1  0
 37 39  1  0
 37 40  1  0
 14  2  1  0
 36 15  1  0
 30 22  2  0
M  END
>  <UniqueID>  (3) 
3

>  <SMILES>  (3) 
Cc1cc(C/N=c2/nc(-c3cnn(C)c3C)c(C)c[nH]2)on1

>  <Energy>  (3) 
105.25715582590695

>  <Genealogy>  (3) 
Cc1cc(C/N=c2/nc(-c3cnn(C)c3C)c(C)c[nH]2)on1 (cis-trans isomerization)
Cc1cc(C/N=c2/nc(-c3cnn(C)c3C)c(C)c[nH]2)on1 (3D coordinates assigned)
Cc1cc(C/N=c2/nc(-c3cnn(C)c3C)c(C)c[nH]2)on1 (optimized conformer: 105.25715582590695 kcal/mol)

>  <smiles>  (3) 
Cc1cc(CN=c2nc(-c3cnn(C)c3C)c(C)c[nH]2)on1

>  <score_type>  (3) 
oracle

>  <origin>  (3) 
adgpu

>  <m_score__min__energy>  (3) 
-8.5099999999999998

>  <m_primary>  (3) 
energy

$$$$
3:0
     RDKit          3D

 26 27  0  0  0  0  0  0  0  0999 V2000
   -3.1140   25.6740  -29.7860 H   0  0  0  0  0  0  0  0  0  0  0  0
   -4.0000   25.6620  -30.2790 O   0  0  0  0  0  0  0  0  0  0  0  0
   -4.5150   24.4850  -30.8200 C   0  0  0  0  0  0  0  0  0  0  0  0
   -3.7020   23.3500  -30.9020 C   0  0  0  0  0  0  0  0  0  0  0  0
   -2.6641   23.3913  -30.5399 H   0  0  0  0  0  0  0  0  0  0  0  0
   -4.2050   22.1630  -31.4430 C   0  0  0  0  0  0  0  0  0  0  0  0
   -3.5600   21.2741  -31.5043 H   0  0  0  0  0  0  0  0  0  0  0  0
   -5.5290   22.0980  -31.9090 C   0  0  0  0  0  0  0  0  0  0  0  0
   -6.0370   20.8320  -32.4760 C   0  0  0  0  0  0  0  0  0  0  0  0
   -7.1016   20.7419  -32.7379 H   0  0  0  0  0  0  0  0  0  0  0  0
   -5.2400   19.8230  -32.6690 N   0  0  0  0  0  0  0  0  0  0  0  0
   -5.5950   18.5430  -33.2200 C   0  0  0  0  0  0  0  0  0  0  0  0
   -4.7660   17.8400  -34.1200 C   0  0  0  0  0  0  0  0  0  0  0  0
   -3.8053   18.2742  -34.4340 H   0  0  0  0  0  0  0  0  0  0  0  0
   -5.1620   16.5930  -34.6140 C   0  0  0  0  0  0  0  0  0  0  0  0
   -4.5145   16.0522  -35.3199 H   0  0  0  0  0  0  0  0  0  0  0  0
   -6.3770   16.0320  -34.2140 C   0  0  0  0  0  0  0  0  0  0  0  0
   -6.6875   15.0528  -34.6073 H   0  0  0  0  0  0  0  0  0  0  0  0
   -7.1970   16.7160  -33.3140 C   0  0  0  0  0  0  0  0  0  0  0  0
   -8.1526   16.2735  -32.9962 H   0  0  0  0  0  0  0  0  0  0  0  0
   -6.8050   17.9630  -32.8160 C   0  0  0  0  0  0  0  0  0  0  0  0
   -7.4520   18.4928  -32.1013 H   0  0  0  0  0  0  0  0  0  0  0  0
   -6.3410   23.2440  -31.8240 C   0  0  0  0  0  0  0  0  0  0  0  0
   -7.3791   23.2067  -32.1860 H   0  0  0  0  0  0  0  0  0  0  0  0
   -5.8360   24.4300  -31.2820 C   0  0  0  0  0  0  0  0  0  0  0  0
   -6.4774   25.3214  -31.2184 H   0  0  0  0  0  0  0  0  0  0  0  0
  1  2  1  0
  2  3  1  0
  3  4  2  0
  4  5  1  0
  4  6  1  0
  6  7  1  0
  6  8  2  0
  8  9  1  0
  9 10  1  0
  9 11  2  0
 11 12  1  0
 12 13  2  0
 13 14  1  0
 13 15  1  0
 15 16  1  0
 15 17  2  0
 17 18  1  0
 17 19  1  0
 19 20  1  0
 19 21  2  0
 21 22  1  0
  8 23  1  0
 23 24  1  0
 23 25  2  0
 25 26  1  0
 25  3  1  0
 21 12  1  0
M  END
>  <UniqueID>  (4) 
4

>  <SMILES>  (4) 
Oc1ccc(/C=N/c2ccccc2)cc1

>  <Energy>  (4) 
29.151649799413168

>  <Genealogy>  (4) 
Oc1ccc(/C=N/c2ccccc2)cc1 (cis-trans isomerization)
Oc1ccc(/C=N/c2ccccc2)cc1 (3D coordinates assigned)
Oc1ccc(/C=N/c2ccccc2)cc1 (optimized conformer: 29.151649799413168 kcal/mol)

>  <smiles>  (4) 
Oc1ccc(C=Nc2ccccc2)cc1

>  <score_type>  (4) 
oracle

>  <origin>  (4) 
adgpu

>  <m_score__min__energy>  (4) 
-6.6500000000000004

>  <m_primary>  (4) 
energy

$$$$
4:0
     RDKit          3D

 32 34  0  0  0  0  0  0  0  0999 V2000
   -2.0740   25.2900  -29.2080 N   0  0  0  0  0  0  0  0  0  0  0  0
   -3.5450   24.5590  -29.7430 S   0  0  0  0  0  0  0  0  0  0  0  0
   -4.3240   25.5430  -30.5700 O   0  0  0  0  0  0  0  0  0  0  0  0
   -4.3720   24.1700  -28.5500 O   0  0  0  0  0  0  0  0  0  0  0  0
   -3.1760   23.1320  -30.7040 C   0  0  0  0  0  0  0  0  0  0  0  0
   -4.0660   22.7020  -31.6990 C   0  0  0  0  0  0  0  0  0  0  0  0
   -3.7680   21.5760  -32.4710 C   0  0  0  0  0  0  0  0  0  0  0  0
   -2.5840   20.8550  -32.2430 C   0  0  0  0  0  0  0  0  0  0  0  0
   -2.2300   19.7280  -33.0610 N   0  0  0  0  0  0  0  0  0  0  0  0
   -1.2640   19.6490  -33.9340 C   0  0  0  0  0  0  0  0  0  0  0  0
   -0.4820   20.7630  -34.3050 C   0  0  0  0  0  0  0  0  0  0  0  0
    0.5390   20.6130  -35.2600 C   0  0  0  0  0  0  0  0  0  0  0  0
    1.3740   21.7690  -35.6570 C   0  0  0  0  0  0  0  0  0  0  0  0
    2.5400   21.6440  -36.3300 N   0  0  0  0  0  0  0  0  0  0  0  0
    2.9630   22.9110  -36.4860 C   0  0  0  0  0  0  0  0  0  0  0  0
    2.0550   23.7650  -35.9110 C   0  0  0  0  0  0  0  0  0  0  0  0
    1.0470   23.0510  -35.3840 N   0  0  0  0  0  0  0  0  0  0  0  0
    0.7490   19.3530  -35.8370 C   0  0  0  0  0  0  0  0  0  0  0  0
   -0.0580   18.2790  -35.4620 C   0  0  0  0  0  0  0  0  0  0  0  0
   -1.0350   18.4510  -34.5350 N   0  0  0  0  0  0  0  0  0  0  0  0
   -1.6770   21.3110  -31.2800 C   0  0  0  0  0  0  0  0  0  0  0  0
   -1.9740   22.4380  -30.5060 C   0  0  0  0  0  0  0  0  0  0  0  0
   -1.5990   25.6740  -30.0550 H   0  0  0  0  0  0  0  0  0  0  0  0
   -5.0021   23.2531  -31.8723 H   0  0  0  0  0  0  0  0  0  0  0  0
   -4.4630   21.2530  -33.2601 H   0  0  0  0  0  0  0  0  0  0  0  0
   -0.6704   21.7459  -33.8486 H   0  0  0  0  0  0  0  0  0  0  0  0
    3.8901   23.2150  -36.9941 H   0  0  0  0  0  0  0  0  0  0  0  0
    2.1397   24.8614  -35.8859 H   0  0  0  0  0  0  0  0  0  0  0  0
    1.5462   19.2119  -36.5817 H   0  0  0  0  0  0  0  0  0  0  0  0
    0.0975   17.2903  -35.9184 H   0  0  0  0  0  0  0  0  0  0  0  0
   -0.7251   20.7804  -31.1307 H   0  0  0  0  0  0  0  0  0  0  0  0
   -1.2626   22.7805  -29.7401 H   0  0  0  0  0  0  0  0  0  0  0  0
  1  2  1  0
  2  3  2  0
  2  4  2  0
  2  5  1  0
  5  6  2  0
  6  7  1  0
  7  8  2  0
  8  9  1  0
  9 10  2  3
 10 11  1  0
 11 12  2  0
 12 13  1  0
 13 14  2  0
 14 15  1  0
 15 16  2  0
 16 17  1  0
 12 18  1  0
 18 19  2  0
 19 20  1  0
  8 21  1  0
 21 22  2  0
 22  5  1  0
 20 10  1  0
 17 13  1  0
  1 23  1  0
  6 24  1  0
  7 25  1  0
 11 26  1  0
 15 27  1  0
 16 28  1  0
 18 29  1  0
 19 30  1  0
 21 31  1  0
 22 32  1  0
M  CHG  3   1  -1  17  -1  20  -1
M  END
>  <UniqueID>  (5) 
5

>  <SMILES>  (5) 
[NH-]S(=O)(=O)c1ccc(N=c2cc(-c3ncc[n-]3)cc[n-]2)cc1

>  <Energy>  (5) 
72.50097447226344

>  <Genealogy>  (5) 
[NH-]S(=O)(=O)c1ccc(N=c2cc(-c3ncc[n-]3)cc[n-]2)cc1 (protonated)
[NH-]S(=O)(=O)c1ccc(N=c2cc(-c3ncc[n-]3)cc[n-]2)cc1 (3D coordinates assigned)
[NH-]S(=O)(=O)c1ccc(N=c2cc(-c3ncc[n-]3)cc[n-]2)cc1 (optimized conformer: 72.50097447226344 kcal/mol)

>  <smiles>  (5) 
NS(=O)(=O)c1ccc(N=c2cc(-c3ncc[nH]3)cc[nH]2)cc1

>  <score_type>  (5) 
oracle

>  <origin>  (5) 
adgpu

>  <m_score__min__energy>  (5) 
-10.199999999999999

>  <m_primary>  (5) 
energy

$$$$
5:0
     RDKit          3D

 40 42  0  0  0  0  0  0  0  0999 V2000
   -2.7045   24.3943  -29.8051 H   0  0  0  0  0  0  0  0  0  0  0  0
   -3.5870   23.9650  -30.3020 C   0  0  0  0  0  0  0  0  0  0  0  0
   -4.5280   24.7800  -30.8480 N   0  0  0  0  0  0  0  0  0  0  0  0
   -5.6270   24.2770  -31.4670 C   0  0  0  0  0  0  0  0  0  0  0  0
   -6.3796   24.9541  -31.8972 H   0  0  0  0  0  0  0  0  0  0  0  0
   -5.7940   22.8930  -31.5530 C   0  0  0  0  0  0  0  0  0  0  0  0
   -6.8340   22.4020  -32.1600 N   0  0  0  0  0  0  0  0  0  0  0  0
   -7.1110   20.9970  -32.2810 C   0  0  0  0  0  0  0  0  0  0  0  0
   -8.2970   20.4840  -31.7280 C   0  0  0  0  0  0  0  0  0  0  0  0
   -9.4380   21.5420  -30.9090 Cl  0  0  0  0  0  0  0  0  0  0  0  0
   -8.5980   19.1240  -31.8460 C   0  0  0  0  0  0  0  0  0  0  0  0
   -9.5310   18.7294  -31.4174 H   0  0  0  0  0  0  0  0  0  0  0  0
   -7.7180   18.2660  -32.5060 C   0  0  0  0  0  0  0  0  0  0  0  0
   -7.9662   17.1994  -32.6096 H   0  0  0  0  0  0  0  0  0  0  0  0
   -6.5240   18.7570  -33.0350 C   0  0  0  0  0  0  0  0  0  0  0  0
   -5.8357   18.0742  -33.5547 H   0  0  0  0  0  0  0  0  0  0  0  0
   -6.1940   20.1170  -32.9090 C   0  0  0  0  0  0  0  0  0  0  0  0
   -4.8850   20.6030  -33.4690 C   0  0  0  0  0  0  0  0  0  0  0  0
   -4.2041   20.8558  -32.6429 H   0  0  0  0  0  0  0  0  0  0  0  0
   -4.4343   19.8123  -34.0868 H   0  0  0  0  0  0  0  0  0  0  0  0
   -5.0595   21.4963  -34.0868 H   0  0  0  0  0  0  0  0  0  0  0  0
   -4.8460   22.0790  -31.0130 N   0  0  0  0  0  0  0  0  0  0  0  0
   -3.7480   22.5700  -30.3760 C   0  0  0  0  0  0  0  0  0  0  0  0
   -2.7550   21.6260  -29.8020 C   0  0  0  0  0  0  0  0  0  0  0  0
   -1.7910   21.0370  -30.6380 C   0  0  0  0  0  0  0  0  0  0  0  0
   -1.7739   21.2860  -31.7093 H   0  0  0  0  0  0  0  0  0  0  0  0
   -0.8550   20.1390  -30.1220 C   0  0  0  0  0  0  0  0  0  0  0  0
   -0.1020   19.6897  -30.7861 H   0  0  0  0  0  0  0  0  0  0  0  0
   -0.8720   19.8100  -28.7670 C   0  0  0  0  0  0  0  0  0  0  0  0
   -0.1275   19.1062  -28.3665 H   0  0  0  0  0  0  0  0  0  0  0  0
   -1.8330   20.3710  -27.9100 C   0  0  0  0  0  0  0  0  0  0  0  0
   -1.8550   20.0070  -26.4750 C   0  0  0  0  0  0  0  0  0  0  0  0
   -1.3640   20.7880  -25.6150 O   0  0  0  0  0  0  0  0  0  0  0  0
   -2.4240   18.7930  -26.0730 O   0  0  0  0  0  0  0  0  0  0  0  0
   -3.8270   18.5590  -26.0920 C   0  0  0  0  0  0  0  0  0  0  0  0
   -4.2023   18.4964  -25.0599 H   0  0  0  0  0  0  0  0  0  0  0  0
   -4.3296   19.3857  -26.6154 H   0  0  0  0  0  0  0  0  0  0  0  0
   -4.0341   17.6139  -26.6154 H   0  0  0  0  0  0  0  0  0  0  0  0
   -2.7740   21.2760  -28.4360 C   0  0  0  0  0  0  0  0  0  0  0  0
   -3.5338   21.7158  -27.7732 H   0  0  0  0  0  0  0  0  0  0  0  0
  1  2  1  0
  2  3  1  0
  3  4  2  0
  4  5  1  0
  4  6  1  0
  6  7  2  0
  7  8  1  0
  8  9  2  0
  9 10  1  0
  9 11  1  0
 11 12  1  0
 11 13  2  0
 13 14  1  0
 13 15  1  0
 15 16  1  0
 15 17  2  0
 17 18  1  0
 18 19  1  0
 18 20  1  0
 18 21  1  0
  6 22  1  0
 22 23  1  0
 23 24  1  0
 24 25  2  0
 25 26  1  0
 25 27  1  0
 27 28  1  0
 27 29  2  0
 29 30  1  0
 29 31  1  0
 31 32  1  0
 32 33  2  0
 32 34  1  0
 34 35  1  0
 35 36  1  0
 35 37  1  0
 35 38  1  0
 31 39  2  0
 39 40  1  0
 23  2  2  0
 39 24  1  0
 17  8  1  0
M  CHG  1  22  -1
M  END
>  <UniqueID>  (6) 
6

>  <SMILES>  (6) 
COC(=O)c1cccc(-c2cnc/c(=N/c3c(C)cccc3Cl)[n-]2)c1

>  <Energy>  (6) 
54.962698552433

>  <Genealogy>  (6) 
COC(=O)c1cccc(-c2cncc(=Nc3c(C)cccc3Cl)[n-]2)c1 (protonated)
COC(=O)c1cccc(-c2cnc/c(=N/c3c(C)cccc3Cl)[n-]2)c1 (cis-trans isomerization)
COC(=O)c1cccc(-c2cnc/c(=N/c3c(C)cccc3Cl)[n-]2)c1 (3D coordinates assigned)
COC(=O)c1cccc(-c2cnc/c(=N/c3c(C)cccc3Cl)[n-]2)c1 (optimized conformer: 54.962698552433 kcal/mol)

>  <smiles>  (6) 
COC(=O)c1cccc(-c2cncc(=Nc3c(C)cccc3Cl)[nH]2)c1

>  <score_type>  (6) 
oracle

>  <origin>  (6) 
adgpu

>  <m_score__min__energy>  (6) 
-8.9399999999999995

>  <m_primary>  (6) 
energy

$$$$
6:0
     RDKit          3D

 30 31  0  0  0  0  0  0  0  0999 V2000
   -4.2750   21.1760  -33.1820 C   0  0  0  0  0  0  0  0  0  0  0  0
   -5.5100   20.4240  -32.7700 C   0  0  0  0  0  0  0  0  0  0  0  0
   -5.4610   19.0320  -32.6210 C   0  0  0  0  0  0  0  0  0  0  0  0
   -6.5940   18.3130  -32.2390 C   0  0  0  0  0  0  0  0  0  0  0  0
   -6.4990   16.9320  -32.1040 O   0  0  0  0  0  0  0  0  0  0  0  0
   -7.8130   18.9800  -32.0020 C   0  0  0  0  0  0  0  0  0  0  0  0
   -9.0460   18.2070  -31.6110 C   0  0  0  0  0  0  0  0  0  0  0  0
   -7.8770   20.3810  -32.1750 C   0  0  0  0  0  0  0  0  0  0  0  0
   -9.4140   21.2330  -31.9810 Cl  0  0  0  0  0  0  0  0  0  0  0  0
   -6.7230   21.1030  -32.5420 C   0  0  0  0  0  0  0  0  0  0  0  0
   -6.7850   22.5280  -32.7160 N   0  0  0  0  0  0  0  0  0  0  0  0
   -6.4540   23.4700  -31.6800 C   0  0  0  0  0  0  0  0  0  0  0  0
   -7.4190   23.9230  -30.7600 C   0  0  0  0  0  0  0  0  0  0  0  0
   -7.0660   24.8340  -29.7590 C   0  0  0  0  0  0  0  0  0  0  0  0
   -5.7530   25.2950  -29.6610 C   0  0  0  0  0  0  0  0  0  0  0  0
   -4.7850   24.8440  -30.5640 C   0  0  0  0  0  0  0  0  0  0  0  0
   -3.4770   25.3020  -30.4650 O   0  0  0  0  0  0  0  0  0  0  0  0
   -5.1340   23.9340  -31.5670 C   0  0  0  0  0  0  0  0  0  0  0  0
   -3.7311   21.5072  -32.2851 H   0  0  0  0  0  0  0  0  0  0  0  0
   -3.6281   20.5184  -33.7812 H   0  0  0  0  0  0  0  0  0  0  0  0
   -4.5623   22.0526  -33.7812 H   0  0  0  0  0  0  0  0  0  0  0  0
   -4.5171   18.4989  -32.8076 H   0  0  0  0  0  0  0  0  0  0  0  0
   -9.1180   18.1618  -30.5143 H   0  0  0  0  0  0  0  0  0  0  0  0
   -9.9371   18.7084  -32.0166 H   0  0  0  0  0  0  0  0  0  0  0  0
   -8.9830   17.1865  -32.0166 H   0  0  0  0  0  0  0  0  0  0  0  0
   -6.9950   22.8890  -33.6750 H   0  0  0  0  0  0  0  0  0  0  0  0
   -8.4547   23.5589  -30.8288 H   0  0  0  0  0  0  0  0  0  0  0  0
   -7.8260   25.1880  -29.0469 H   0  0  0  0  0  0  0  0  0  0  0  0
   -5.4792   26.0129  -28.8738 H   0  0  0  0  0  0  0  0  0  0  0  0
   -4.3684   23.5792  -32.2726 H   0  0  0  0  0  0  0  0  0  0  0  0
  1  2  1  0
  2  3  2  0
  3  4  1  0
  4  5  1  0
  4  6  2  0
  6  7  1  0
  6  8  1  0
  8  9  1  0
  8 10  2  0
 10 11  1  0
 11 12  1  0
 12 13  2  0
 13 14  1  0
 14 15  2  0
 15 16  1  0
 16 17  1  0
 16 18  2  0
 10  2  1  0
 18 12  1  0
  1 19  1  0
  1 20  1  0
  1 21  1  0
  3 22  1  0
  7 23  1  0
  7 24  1  0
  7 25  1  0
 11 26  1  0
 13 27  1  0
 14 28  1  0
 15 29  1  0
 18 30  1  0
M  CHG  2   5  -1  17  -1
M  END
>  <UniqueID>  (7) 
7

>  <SMILES>  (7) 
Cc1cc([O-])c(C)c(Cl)c1Nc1cccc([O-])c1

>  <Energy>  (7) 
39.917597641115826

>  <Genealogy>  (7) 
Cc1cc([O-])c(C)c(Cl)c1Nc1cccc([O-])c1 (protonated)
Cc1cc([O-])c(C)c(Cl)c1Nc1cccc([O-])c1 (3D coordinates assigned)
Cc1cc([O-])c(C)c(Cl)c1Nc1cccc([O-])c1 (optimized conformer: 39.917597641115826 kcal/mol)

>  <smiles>  (7) 
Cc1cc(O)c(C)c(Cl)c1Nc1cccc(O)c1

>  <score_type>  (7) 
oracle

>  <origin>  (7) 
adgpu

>  <m_score__min__energy>  (7) 
-10.9

>  <m_primary>  (7) 
energy

$$$$
7:0
     RDKit          3D

 64 69  0  0  0  0  0  0  0  0999 V2000
   -0.6500   19.7040  -29.8300 O   0  0  0  0  0  0  0  0  0  0  0  0
   -0.9500   19.6370  -31.0540 C   0  0  0  0  0  0  0  0  0  0  0  0
   -1.5060   20.7590  -31.7010 C   0  0  0  0  0  0  0  0  0  0  0  0
   -1.7300   22.0440  -30.9910 C   0  0  0  0  0  0  0  0  0  0  0  0
   -2.9620   22.7140  -31.0930 C   0  0  0  0  0  0  0  0  0  0  0  0
   -3.1650   23.9230  -30.4200 C   0  0  0  0  0  0  0  0  0  0  0  0
   -2.1430   24.4710  -29.6380 C   0  0  0  0  0  0  0  0  0  0  0  0
   -2.3470   25.6730  -28.9700 O   0  0  0  0  0  0  0  0  0  0  0  0
   -0.9180   23.8070  -29.5250 C   0  0  0  0  0  0  0  0  0  0  0  0
   -0.7120   22.5970  -30.1950 C   0  0  0  0  0  0  0  0  0  0  0  0
   -1.8630   20.6380  -33.0510 C   0  0  0  0  0  0  0  0  0  0  0  0
   -1.6730   19.5000  -33.7060 O   0  0  0  0  0  0  0  0  0  0  0  0
   -1.1430   18.4210  -33.1390 C   0  0  0  0  0  0  0  0  0  0  0  0
   -0.9680   17.2640  -33.9050 C   0  0  0  0  0  0  0  0  0  0  0  0
   -0.4090   16.1090  -33.3320 C   0  0  0  0  0  0  0  0  0  0  0  0
   -0.2050   14.9290  -34.0630 O   0  0  0  0  0  0  0  0  0  0  0  0
   -1.1730   13.8930  -34.2080 C   0  0  0  0  0  0  0  0  0  0  0  0
   -2.3440   14.3720  -35.0700 C   0  0  0  0  0  0  0  0  0  0  0  0
   -3.0970   15.4510  -34.3910 N   0  0  0  0  0  0  0  0  0  0  0  0
   -3.5850   16.4880  -35.3460 C   0  0  0  0  0  0  0  0  0  0  0  0
   -4.9910   17.0340  -35.0330 C   0  0  0  0  0  0  0  0  0  0  0  0
   -5.2120   17.1280  -33.5850 N   0  0  0  0  0  0  0  0  0  0  0  0
   -6.0320   18.1820  -33.0370 C   0  0  0  0  0  0  0  0  0  0  0  0
   -7.3230   17.9010  -32.5570 C   0  0  0  0  0  0  0  0  0  0  0  0
   -8.1310   18.9200  -32.0410 C   0  0  0  0  0  0  0  0  0  0  0  0
   -7.6610   20.2400  -32.0030 C   0  0  0  0  0  0  0  0  0  0  0  0
   -8.4670   21.2720  -31.4960 C   0  0  0  0  0  0  0  0  0  0  0  0
   -7.9930   22.5870  -31.4720 C   0  0  0  0  0  0  0  0  0  0  0  0
   -6.7130   22.8800  -31.9490 C   0  0  0  0  0  0  0  0  0  0  0  0
   -5.8980   21.8610  -32.4510 C   0  0  0  0  0  0  0  0  0  0  0  0
   -6.3630   20.5370  -32.4820 C   0  0  0  0  0  0  0  0  0  0  0  0
   -5.5580   19.5070  -32.9920 C   0  0  0  0  0  0  0  0  0  0  0  0
   -4.8050   16.0120  -32.7220 C   0  0  0  0  0  0  0  0  0  0  0  0
   -4.1670   14.8920  -33.5440 C   0  0  0  0  0  0  0  0  0  0  0  0
   -0.0340   16.1250  -31.9860 C   0  0  0  0  0  0  0  0  0  0  0  0
   -0.1990   17.2740  -31.2070 C   0  0  0  0  0  0  0  0  0  0  0  0
    0.1980   17.2370  -29.8730 O   0  0  0  0  0  0  0  0  0  0  0  0
   -0.7560   18.4410  -31.7780 C   0  0  0  0  0  0  0  0  0  0  0  0
   -3.7695   22.2854  -31.7047 H   0  0  0  0  0  0  0  0  0  0  0  0
   -4.1301   24.4439  -30.5058 H   0  0  0  0  0  0  0  0  0  0  0  0
   -0.1151   24.2369  -28.9082 H   0  0  0  0  0  0  0  0  0  0  0  0
    0.2516   22.0753  -30.0986 H   0  0  0  0  0  0  0  0  0  0  0  0
   -2.3065   21.4979  -33.5743 H   0  0  0  0  0  0  0  0  0  0  0  0
   -1.2699   17.2581  -34.9628 H   0  0  0  0  0  0  0  0  0  0  0  0
   -0.7025   13.0222  -34.6878 H   0  0  0  0  0  0  0  0  0  0  0  0
   -1.5523   13.6179  -33.2128 H   0  0  0  0  0  0  0  0  0  0  0  0
   -1.9549   14.7518  -36.0262 H   0  0  0  0  0  0  0  0  0  0  0  0
   -3.0237   13.5240  -35.2398 H   0  0  0  0  0  0  0  0  0  0  0  0
   -2.8778   17.3304  -35.3293 H   0  0  0  0  0  0  0  0  0  0  0  0
   -3.6507   16.0008  -36.3300 H   0  0  0  0  0  0  0  0  0  0  0  0
   -5.0949   18.0347  -35.4778 H   0  0  0  0  0  0  0  0  0  0  0  0
   -5.7356   16.3434  -35.4556 H   0  0  0  0  0  0  0  0  0  0  0  0
   -7.7021   16.8688  -32.5874 H   0  0  0  0  0  0  0  0  0  0  0  0
   -9.1374   18.6847  -31.6643 H   0  0  0  0  0  0  0  0  0  0  0  0
   -9.4743   21.0451  -31.1166 H   0  0  0  0  0  0  0  0  0  0  0  0
   -8.6292   23.3926  -31.0767 H   0  0  0  0  0  0  0  0  0  0  0  0
   -6.3450   23.9164  -31.9295 H   0  0  0  0  0  0  0  0  0  0  0  0
   -4.8900   22.0974  -32.8225 H   0  0  0  0  0  0  0  0  0  0  0  0
   -4.5472   19.7369  -33.3601 H   0  0  0  0  0  0  0  0  0  0  0  0
   -4.0766   16.3757  -31.9823 H   0  0  0  0  0  0  0  0  0  0  0  0
   -5.6978   15.6135  -32.2179 H   0  0  0  0  0  0  0  0  0  0  0  0
   -3.7415   14.1370  -32.8666 H   0  0  0  0  0  0  0  0  0  0  0  0
   -4.9318   14.4241  -34.1813 H   0  0  0  0  0  0  0  0  0  0  0  0
    0.3973   15.2203  -31.5328 H   0  0  0  0  0  0  0  0  0  0  0  0
  1  2  2  0
  2  3  1  0
  3  4  1  0
  4  5  2  0
  5  6  1  0
  6  7  2  0
  7  8  1  0
  7  9  1  0
  9 10  2  0
  3 11  2  0
 11 12  1  0
 12 13  1  0
 13 14  2  0
 14 15  1  0
 15 16  1  0
 16 17  1  0
 17 18  1  0
 18 19  1  0
 19 20  1  0
 20 21  1  0
 21 22  1  0
 22 23  1  0
 23 24  2  0
 24 25  1  0
 25 26  2  0
 26 27  1  0
 27 28  2  0
 28 29  1  0
 29 30  2  0
 30 31  1  0
 31 32  2  0
 22 33  1  0
 33 34  1  0
 15 35  2  0
 35 36  1  0
 36 37  1  0
 36 38  2  0
 38  2  1  0
 10  4  1  0
 38 13  1  0
 34 19  1  0
 32 23  1  0
 31 26  1  0
  5 39  1  0
  6 40  1  0
  9 41  1  0
 10 42  1  0
 11 43  1  0
 14 44  1  0
 17 45  1  0
 17 46  1  0
 18 47  1  0
 18 48  1  0
 20 49  1  0
 20 50  1  0
 21 51  1  0
 21 52  1  0
 24 53  1  0
 25 54  1  0
 27 55  1  0
 28 56  1  0
 29 57  1  0
 30 58  1  0
 32 59  1  0
 33 60  1  0
 33 61  1  0
 34 62  1  0
 34 63  1  0
 35 64  1  0
M  CHG  2   8  -1  37  -1
M  END
>  <UniqueID>  (8) 
8

>  <SMILES>  (8) 
O=c1c(-c2ccc([O-])cc2)coc2cc(OCCN3CCN(c4ccc5ccccc5c4)CC3)cc([O-])c12

>  <Energy>  (8) 
97.83729231174556

>  <Genealogy>  (8) 
O=c1c(-c2ccc([O-])cc2)coc2cc(OCCN3CCN(c4ccc5ccccc5c4)CC3)cc([O-])c12 (protonated)
O=c1c(-c2ccc([O-])cc2)coc2cc(OCCN3CCN(c4ccc5ccccc5c4)CC3)cc([O-])c12 (3D coordinates assigned)
O=c1c(-c2ccc([O-])cc2)coc2cc(OCCN3CCN(c4ccc5ccccc5c4)CC3)cc([O-])c12 (nonaromatic ring conformer: 97.83729231174556 kcal/mol)

>  <smiles>  (8) 
O=c1c(-c2ccc(O)cc2)coc2cc(OCCN3CCN(c4ccc5ccccc5c4)CC3)cc(O)c12

>  <score_type>  (8) 
oracle

>  <origin>  (8) 
adgpu

>  <m_score__min__energy>  (8) 
-12.57

>  <m_primary>  (8) 
energy

$$$$
8:0
     RDKit          3D

 48 50  0  0  0  0  0  0  0  0999 V2000
    0.5850   21.7770  -35.3600 C   0  0  0  0  0  0  0  0  0  0  0  0
    0.1140   21.7390  -34.0160 O   0  0  0  0  0  0  0  0  0  0  0  0
   -1.0570   21.0810  -33.6090 C   0  0  0  0  0  0  0  0  0  0  0  0
   -1.8410   21.5270  -32.5280 C   0  0  0  0  0  0  0  0  0  0  0  0
   -2.9930   20.8270  -32.1570 C   0  0  0  0  0  0  0  0  0  0  0  0
   -3.3840   19.6770  -32.8530 C   0  0  0  0  0  0  0  0  0  0  0  0
   -4.5620   18.9820  -32.4240 N   0  0  0  0  0  0  0  0  0  0  0  0
   -6.1530   19.1940  -33.0810 S   0  0  0  0  0  0  0  0  0  0  0  0
   -6.0860   19.1760  -34.5830 O   0  0  0  0  0  0  0  0  0  0  0  0
   -7.0270   18.0570  -32.6320 O   0  0  0  0  0  0  0  0  0  0  0  0
   -6.8440   20.7070  -32.4980 C   0  0  0  0  0  0  0  0  0  0  0  0
   -8.2070   20.8020  -32.1900 C   0  0  0  0  0  0  0  0  0  0  0  0
   -8.7450   22.0170  -31.7590 C   0  0  0  0  0  0  0  0  0  0  0  0
   -7.9210   23.1370  -31.6120 C   0  0  0  0  0  0  0  0  0  0  0  0
   -6.5440   23.0430  -31.8850 C   0  0  0  0  0  0  0  0  0  0  0  0
   -5.6660   24.1720  -31.7600 N   0  0  0  0  0  0  0  0  0  0  0  0
   -4.6250   24.3360  -30.7910 C   0  0  0  0  0  0  0  0  0  0  0  0
   -3.8830   25.3550  -30.8200 O   0  0  0  0  0  0  0  0  0  0  0  0
   -4.5020   23.3800  -29.7290 N   0  0  0  0  0  0  0  0  0  0  0  0
   -3.4390   23.3860  -28.7590 C   0  0  0  0  0  0  0  0  0  0  0  0
   -2.5030   22.3370  -28.6890 C   0  0  0  0  0  0  0  0  0  0  0  0
   -1.4750   22.3720  -27.7420 C   0  0  0  0  0  0  0  0  0  0  0  0
   -1.3850   23.4360  -26.8420 C   0  0  0  0  0  0  0  0  0  0  0  0
   -2.3370   24.4650  -26.8680 C   0  0  0  0  0  0  0  0  0  0  0  0
   -2.2230   25.6200  -25.9170 C   0  0  0  0  0  0  0  0  0  0  0  0
   -3.3590   24.4370  -27.8320 C   0  0  0  0  0  0  0  0  0  0  0  0
   -6.0200   21.8320  -32.3540 C   0  0  0  0  0  0  0  0  0  0  0  0
   -2.6080   19.2380  -33.9400 C   0  0  0  0  0  0  0  0  0  0  0  0
   -1.4560   19.9390  -34.3140 C   0  0  0  0  0  0  0  0  0  0  0  0
    1.6814   21.8655  -35.3619 H   0  0  0  0  0  0  0  0  0  0  0  0
    0.2908   20.8522  -35.8779 H   0  0  0  0  0  0  0  0  0  0  0  0
    0.1464   22.6427  -35.8779 H   0  0  0  0  0  0  0  0  0  0  0  0
   -1.5460   22.4298  -31.9731 H   0  0  0  0  0  0  0  0  0  0  0  0
   -3.5979   21.1833  -31.3101 H   0  0  0  0  0  0  0  0  0  0  0  0
   -8.8549   19.9184  -32.2876 H   0  0  0  0  0  0  0  0  0  0  0  0
   -9.8192   22.0928  -31.5348 H   0  0  0  0  0  0  0  0  0  0  0  0
   -8.3506   24.0944  -31.2820 H   0  0  0  0  0  0  0  0  0  0  0  0
   -5.2960   22.7160  -29.5880 H   0  0  0  0  0  0  0  0  0  0  0  0
   -2.5806   21.4864  -29.3821 H   0  0  0  0  0  0  0  0  0  0  0  0
   -0.7349   21.5590  -27.7058 H   0  0  0  0  0  0  0  0  0  0  0  0
   -0.5644   23.4669  -26.1101 H   0  0  0  0  0  0  0  0  0  0  0  0
   -2.2597   25.2481  -24.8824 H   0  0  0  0  0  0  0  0  0  0  0  0
   -1.2691   26.1411  -26.0857 H   0  0  0  0  0  0  0  0  0  0  0  0
   -3.0567   26.3175  -26.0857 H   0  0  0  0  0  0  0  0  0  0  0  0
   -4.1034   25.2464  -27.8605 H   0  0  0  0  0  0  0  0  0  0  0  0
   -4.9528   21.7629  -32.6116 H   0  0  0  0  0  0  0  0  0  0  0  0
   -2.9077   18.3394  -34.4991 H   0  0  0  0  0  0  0  0  0  0  0  0
   -0.8588   19.5898  -35.1692 H   0  0  0  0  0  0  0  0  0  0  0  0
  1  2  1  0
  2  3  1  0
  3  4  2  0
  4  5  1  0
  5  6  2  0
  6  7  1  0
  7  8  1  0
  8  9  2  0
  8 10  2  0
  8 11  1  0
 11 12  2  0
 12 13  1  0
 13 14  2  0
 14 15  1  0
 15 16  1  0
 16 17  1  0
 17 18  2  0
 17 19  1  0
 19 20  1  0
 20 21  2  0
 21 22  1  0
 22 23  2  0
 23 24  1  0
 24 25  1  0
 24 26  2  0
 15 27  2  0
  6 28  1  0
 28 29  2  0
 29  3  1  0
 27 11  1  0
 26 20  1  0
  1 30  1  0
  1 31  1  0
  1 32  1  0
  4 33  1  0
  5 34  1  0
 12 35  1  0
 13 36  1  0
 14 37  1  0
 19 38  1  0
 21 39  1  0
 22 40  1  0
 23 41  1  0
 25 42  1  0
 25 43  1  0
 25 44  1  0
 26 45  1  0
 27 46  1  0
 28 47  1  0
 29 48  1  0
M  CHG  2   7  -1  16  -1
M  END
>  <UniqueID>  (9) 
9

>  <SMILES>  (9) 
COc1ccc([N-]S(=O)(=O)c2cccc([N-]C(=O)Nc3cccc(C)c3)c2)cc1

>  <Energy>  (9) 
59.0297854880184

>  <Genealogy>  (9) 
COc1ccc([N-]S(=O)(=O)c2cccc([N-]C(=O)Nc3cccc(C)c3)c2)cc1 (protonated)
COc1ccc([N-]S(=O)(=O)c2cccc([N-]C(=O)Nc3cccc(C)c3)c2)cc1 (3D coordinates assigned)
COc1ccc([N-]S(=O)(=O)c2cccc([N-]C(=O)Nc3cccc(C)c3)c2)cc1 (optimized conformer: 59.0297854880184 kcal/mol)

>  <smiles>  (9) 
COc1ccc(NS(=O)(=O)c2cccc(NC(=O)Nc3cccc(C)c3)c2)cc1

>  <score_type>  (9) 
oracle

>  <origin>  (9) 
adgpu

>  <m_score__min__energy>  (9) 
-10.720000000000001

>  <m_primary>  (9) 
energy

$$$$
9:0
     RDKit          3D

 46 47  0  0  0  0  0  0  0  0999 V2000
   -1.8240   21.5420  -32.6640 C   0  0  0  0  0  0  0  0  0  0  0  0
   -2.0200   22.2940  -31.3430 C   0  0  0  0  0  0  0  0  0  0  0  0
   -1.5550   21.4750  -30.1340 C   0  0  0  0  0  0  0  0  0  0  0  0
   -3.4370   22.7970  -31.1820 C   0  0  0  0  0  0  0  0  0  0  0  0
   -3.6970   24.0680  -30.8030 N   0  0  0  0  0  0  0  0  0  0  0  0
   -5.0090   24.2240  -30.7500 N   0  0  0  0  0  0  0  0  0  0  0  0
   -5.6560   25.4790  -30.3870 C   0  0  0  0  0  0  0  0  0  0  0  0
   -5.6110   23.0720  -31.1000 C   0  0  0  0  0  0  0  0  0  0  0  0
   -7.0330   22.8920  -31.1880 N   0  0  0  0  0  0  0  0  0  0  0  0
   -7.7580   22.3100  -30.0600 C   0  0  0  0  0  0  0  0  0  0  0  0
   -7.7760   23.4530  -32.3150 C   0  0  0  0  0  0  0  0  0  0  0  0
   -4.6450   22.1220  -31.3900 C   0  0  0  0  0  0  0  0  0  0  0  0
   -4.8900   20.7040  -31.8320 C   0  0  0  0  0  0  0  0  0  0  0  0
   -4.7040   20.5760  -33.2830 N   0  0  0  0  0  0  0  0  0  0  0  0
   -5.4840   19.4550  -33.8210 C   0  0  0  0  0  0  0  0  0  0  0  0
   -6.7760   19.3330  -33.0630 C   0  0  0  0  0  0  0  0  0  0  0  0
   -7.0080   18.2250  -32.2340 C   0  0  0  0  0  0  0  0  0  0  0  0
   -8.1960   18.1500  -31.5040 C   0  0  0  0  0  0  0  0  0  0  0  0
   -9.1140   19.1490  -31.5900 N   0  0  0  0  0  0  0  0  0  0  0  0
   -8.9110   20.2380  -32.3780 C   0  0  0  0  0  0  0  0  0  0  0  0
   -7.7360   20.3530  -33.1250 C   0  0  0  0  0  0  0  0  0  0  0  0
   -1.5517   20.4971  -32.4542 H   0  0  0  0  0  0  0  0  0  0  0  0
   -2.7589   21.5681  -33.2430 H   0  0  0  0  0  0  0  0  0  0  0  0
   -1.0207   22.0211  -33.2430 H   0  0  0  0  0  0  0  0  0  0  0  0
   -1.3717   23.1816  -31.3859 H   0  0  0  0  0  0  0  0  0  0  0  0
   -1.8477   21.9905  -29.2074 H   0  0  0  0  0  0  0  0  0  0  0  0
   -2.0228   20.4799  -30.1634 H   0  0  0  0  0  0  0  0  0  0  0  0
   -0.4607   21.3668  -30.1634 H   0  0  0  0  0  0  0  0  0  0  0  0
   -5.7004   25.5651  -29.2913 H   0  0  0  0  0  0  0  0  0  0  0  0
   -5.0796   26.3210  -30.7979 H   0  0  0  0  0  0  0  0  0  0  0  0
   -6.6762   25.4978  -30.7979 H   0  0  0  0  0  0  0  0  0  0  0  0
   -7.3158   22.6650  -29.1174 H   0  0  0  0  0  0  0  0  0  0  0  0
   -8.8141   22.6139  -30.1069 H   0  0  0  0  0  0  0  0  0  0  0  0
   -7.6897   21.2131  -30.1069 H   0  0  0  0  0  0  0  0  0  0  0  0
   -8.6005   24.0755  -31.9372 H   0  0  0  0  0  0  0  0  0  0  0  0
   -7.1021   24.0696  -32.9279 H   0  0  0  0  0  0  0  0  0  0  0  0
   -8.1845   22.6360  -32.9279 H   0  0  0  0  0  0  0  0  0  0  0  0
   -4.1830   20.0373  -31.3166 H   0  0  0  0  0  0  0  0  0  0  0  0
   -5.9248   20.4279  -31.5812 H   0  0  0  0  0  0  0  0  0  0  0  0
   -5.0590   21.4560  -33.7270 H   0  0  0  0  0  0  0  0  0  0  0  0
   -5.6987   19.6350  -34.8847 H   0  0  0  0  0  0  0  0  0  0  0  0
   -4.9080   18.5239  -33.7152 H   0  0  0  0  0  0  0  0  0  0  0  0
   -6.2600   17.4219  -32.1597 H   0  0  0  0  0  0  0  0  0  0  0  0
   -8.3894   17.2809  -30.8581 H   0  0  0  0  0  0  0  0  0  0  0  0
   -9.6730   21.0298  -32.4275 H   0  0  0  0  0  0  0  0  0  0  0  0
   -7.5653   21.2370  -33.7570 H   0  0  0  0  0  0  0  0  0  0  0  0
  1  2  1  0
  2  3  1  0
  2  4  1  0
  4  5  2  0
  5  6  1  0
  6  7  1  0
  6  8  1  0
  8  9  1  0
  9 10  1  0
  9 11  1  0
  8 12  2  0
 12 13  1  0
 13 14  1  0
 14 15  1  0
 15 16  1  0
 16 17  2  0
 17 18  1  0
 18 19  2  0
 19 20  1  0
 20 21  2  0
 12  4  1  0
 21 16  1  0
  1 22  1  0
  1 23  1  0
  1 24  1  0
  2 25  1  0
  3 26  1  0
  3 27  1  0
  3 28  1  0
  7 29  1  0
  7 30  1  0
  7 31  1  0
 10 32  1  0
 10 33  1  0
 10 34  1  0
 11 35  1  0
 11 36  1  0
 11 37  1  0
 13 38  1  0
 13 39  1  0
 14 40  1  0
 15 41  1  0
 15 42  1  0
 17 43  1  0
 18 44  1  0
 20 45  1  0
 21 46  1  0
M  END
>  <UniqueID>  (10) 
10

>  <SMILES>  (10) 
CC(C)c1nn(C)c(N(C)C)c1CNCc1ccncc1

>  <Energy>  (10) 
72.58084777835332

>  <Genealogy>  (10) 
CC(C)c1nn(C)c(N(C)C)c1CNCc1ccncc1 (3D coordinates assigned)
CC(C)c1nn(C)c(N(C)C)c1CNCc1ccncc1 (optimized conformer: 72.58084777835332 kcal/mol)

>  <smiles>  (10) 
CC(C)c1nn(C)c(N(C)C)c1CNCc1ccncc1

>  <score_type>  (10) 
oracle

>  <origin>  (10) 
adgpu

>  <m_score__min__energy>  (10) 
-7.1100000000000003

>  <m_primary>  (10) 
energy

$$$$
10:0
     RDKit          3D

 34 36  0  0  0  0  0  0  0  0999 V2000
   -4.0600   22.6440  -27.5920 C   0  0  0  0  0  0  0  0  0  0  0  0
   -2.7010   22.4040  -28.1740 C   0  0  0  0  0  0  0  0  0  0  0  0
   -2.0640   21.2160  -27.9790 N   0  0  0  0  0  0  0  0  0  0  0  0
   -0.8710   21.1580  -28.6090 C   0  0  0  0  0  0  0  0  0  0  0  0
   -0.5570   22.5840  -29.4360 S   0  0  0  0  0  0  0  0  0  0  0  0
   -1.9900   23.3230  -28.9560 C   0  0  0  0  0  0  0  0  0  0  0  0
   -2.3900   24.6860  -29.3610 C   0  0  0  0  0  0  0  0  0  0  0  0
   -1.7350   25.6670  -28.9210 O   0  0  0  0  0  0  0  0  0  0  0  0
   -3.4860   24.9310  -30.2490 N   0  0  0  0  0  0  0  0  0  0  0  0
   -4.5150   23.9950  -30.6030 C   0  0  0  0  0  0  0  0  0  0  0  0
   -4.2010   22.9440  -31.4730 C   0  0  0  0  0  0  0  0  0  0  0  0
   -5.1770   22.0130  -31.8390 C   0  0  0  0  0  0  0  0  0  0  0  0
   -6.4890   22.1300  -31.3520 C   0  0  0  0  0  0  0  0  0  0  0  0
   -7.4940   21.1640  -31.7150 N   0  0  0  0  0  0  0  0  0  0  0  0
   -7.1490   19.8400  -31.7650 C   0  0  0  0  0  0  0  0  0  0  0  0
   -8.0890   18.8710  -32.1220 C   0  0  0  0  0  0  0  0  0  0  0  0
   -9.3910   19.2610  -32.4270 C   0  0  0  0  0  0  0  0  0  0  0  0
   -9.7410   20.6080  -32.3700 C   0  0  0  0  0  0  0  0  0  0  0  0
   -8.7780   21.5570  -32.0060 C   0  0  0  0  0  0  0  0  0  0  0  0
   -9.1130   22.7720  -31.9360 O   0  0  0  0  0  0  0  0  0  0  0  0
   -6.8070   23.1960  -30.4950 C   0  0  0  0  0  0  0  0  0  0  0  0
   -5.8310   24.1270  -30.1300 C   0  0  0  0  0  0  0  0  0  0  0  0
   -3.9958   22.6327  -26.4939 H   0  0  0  0  0  0  0  0  0  0  0  0
   -4.4349   23.6223  -27.9273 H   0  0  0  0  0  0  0  0  0  0  0  0
   -4.7473   21.8533  -27.9273 H   0  0  0  0  0  0  0  0  0  0  0  0
   -0.1946   20.2909  -28.5835 H   0  0  0  0  0  0  0  0  0  0  0  0
   -3.1798   22.8504  -31.8710 H   0  0  0  0  0  0  0  0  0  0  0  0
   -4.9159   21.1835  -32.5126 H   0  0  0  0  0  0  0  0  0  0  0  0
   -6.1202   19.5363  -31.5213 H   0  0  0  0  0  0  0  0  0  0  0  0
   -7.8039   17.8093  -32.1620 H   0  0  0  0  0  0  0  0  0  0  0  0
  -10.1403   18.5077  -32.7119 H   0  0  0  0  0  0  0  0  0  0  0  0
  -10.7671   20.9241  -32.6093 H   0  0  0  0  0  0  0  0  0  0  0  0
   -7.8316   23.2989  -30.1083 H   0  0  0  0  0  0  0  0  0  0  0  0
   -6.0943   24.9665  -29.4697 H   0  0  0  0  0  0  0  0  0  0  0  0
  1  2  1  0
  2  3  1  0
  3  4  2  0
  4  5  1  0
  5  6  1  0
  6  7  1  0
  7  8  2  0
  7  9  1  0
  9 10  1  0
 10 11  2  0
 11 12  1  0
 12 13  2  0
 13 14  1  0
 14 15  1  0
 15 16  2  0
 16 17  1  0
 17 18  2  0
 18 19  1  0
 19 20  2  0
 13 21  1  0
 21 22  2  0
  6  2  2  0
 22 10  1  0
 19 14  1  0
  1 23  1  0
  1 24  1  0
  1 25  1  0
  4 26  1  0
 11 27  1  0
 12 28  1  0
 15 29  1  0
 16 30  1  0
 17 31  1  0
 18 32  1  0
 21 33  1  0
 22 34  1  0
M  CHG  1   9  -1
M  END
>  <UniqueID>  (11) 
11

>  <SMILES>  (11) 
Cc1ncsc1C(=O)[N-]c1ccc(-n2ccccc2=O)cc1

>  <Energy>  (11) 
81.06019906982958

>  <Genealogy>  (11) 
Cc1ncsc1C(=O)[N-]c1ccc(-n2ccccc2=O)cc1 (protonated)
Cc1ncsc1C(=O)[N-]c1ccc(-n2ccccc2=O)cc1 (3D coordinates assigned)
Cc1ncsc1C(=O)[N-]c1ccc(-n2ccccc2=O)cc1 (optimized conformer: 81.06019906982958 kcal/mol)

>  <smiles>  (11) 
Cc1ncsc1C(=O)Nc1ccc(-n2ccccc2=O)cc1

>  <score_type>  (11) 
oracle

>  <origin>  (11) 
adgpu

>  <m_score__min__energy>  (11) 
-9.4900000000000002

>  <m_primary>  (11) 
energy

$$$$
11:0
     RDKit          3D

 38 40  0  0  0  0  0  0  0  0999 V2000
   -9.0100   18.9850  -32.0610 C   0  0  0  0  0  0  0  0  0  0  0  0
   -9.0240   20.4220  -32.5730 C   0  0  0  0  0  0  0  0  0  0  0  0
   -7.8950   21.2140  -31.9680 C   0  0  0  0  0  0  0  0  0  0  0  0
   -6.5750   20.9970  -32.3880 C   0  0  0  0  0  0  0  0  0  0  0  0
   -5.5240   21.7110  -31.8050 C   0  0  0  0  0  0  0  0  0  0  0  0
   -5.7710   22.6470  -30.7840 C   0  0  0  0  0  0  0  0  0  0  0  0
   -4.6430   23.3940  -30.1770 C   0  0  0  0  0  0  0  0  0  0  0  0
   -3.9820   23.0970  -28.9980 C   0  0  0  0  0  0  0  0  0  0  0  0
   -3.0240   24.0890  -28.8830 C   0  0  0  0  0  0  0  0  0  0  0  0
   -2.0300   24.2540  -27.7930 C   0  0  0  0  0  0  0  0  0  0  0  0
   -0.9110   23.4110  -27.6920 C   0  0  0  0  0  0  0  0  0  0  0  0
    0.0140   23.5800  -26.6610 C   0  0  0  0  0  0  0  0  0  0  0  0
   -0.1550   24.5900  -25.7100 C   0  0  0  0  0  0  0  0  0  0  0  0
    0.8000   24.7160  -24.6990 O   0  0  0  0  0  0  0  0  0  0  0  0
   -1.2730   25.4490  -25.7940 C   0  0  0  0  0  0  0  0  0  0  0  0
   -1.4870   26.5470  -24.7890 C   0  0  0  0  0  0  0  0  0  0  0  0
   -2.2010   25.2720  -26.8370 C   0  0  0  0  0  0  0  0  0  0  0  0
   -3.1200   24.9210  -29.9390 N   0  0  0  0  0  0  0  0  0  0  0  0
   -4.1000   24.5000  -30.7230 N   0  0  0  0  0  0  0  0  0  0  0  0
   -7.0970   22.8490  -30.3570 C   0  0  0  0  0  0  0  0  0  0  0  0
   -8.1480   22.1360  -30.9410 C   0  0  0  0  0  0  0  0  0  0  0  0
   -9.0100   18.9877  -30.9610 H   0  0  0  0  0  0  0  0  0  0  0  0
   -9.9030   18.4568  -32.4264 H   0  0  0  0  0  0  0  0  0  0  0  0
   -8.1068   18.4743  -32.4264 H   0  0  0  0  0  0  0  0  0  0  0  0
   -8.9151   20.4163  -33.6676 H   0  0  0  0  0  0  0  0  0  0  0  0
   -9.9774   20.8901  -32.2866 H   0  0  0  0  0  0  0  0  0  0  0  0
   -6.3656   20.2621  -33.1793 H   0  0  0  0  0  0  0  0  0  0  0  0
   -4.4931   21.5392  -32.1481 H   0  0  0  0  0  0  0  0  0  0  0  0
   -4.1745   22.2618  -28.3086 H   0  0  0  0  0  0  0  0  0  0  0  0
   -0.7626   22.6108  -28.4320 H   0  0  0  0  0  0  0  0  0  0  0  0
    0.8851   22.9114  -26.5961 H   0  0  0  0  0  0  0  0  0  0  0  0
    0.5970   24.5390  -23.7240 H   0  0  0  0  0  0  0  0  0  0  0  0
   -1.4066   26.1344  -23.7725 H   0  0  0  0  0  0  0  0  0  0  0  0
   -0.7239   27.3267  -24.9297 H   0  0  0  0  0  0  0  0  0  0  0  0
   -2.4870   26.9831  -24.9297 H   0  0  0  0  0  0  0  0  0  0  0  0
   -3.0728   25.9393  -26.9058 H   0  0  0  0  0  0  0  0  0  0  0  0
   -7.3079   23.5740  -29.5571 H   0  0  0  0  0  0  0  0  0  0  0  0
   -9.1789   22.2986  -30.5936 H   0  0  0  0  0  0  0  0  0  0  0  0
  1  2  1  0
  2  3  1  0
  3  4  2  0
  4  5  1  0
  5  6  2  0
  6  7  1  0
  7  8  1  0
  8  9  2  0
  9 10  1  0
 10 11  2  0
 11 12  1  0
 12 13  2  0
 13 14  1  0
 13 15  1  0
 15 16  1  0
 15 17  2  0
  9 18  1  0
 18 19  1  0
  6 20  1  0
 20 21  2  0
 21  3  1  0
 19  7  2  0
 17 10  1  0
  1 22  1  0
  1 23  1  0
  1 24  1  0
  2 25  1  0
  2 26  1  0
  4 27  1  0
  5 28  1  0
  8 29  1  0
 11 30  1  0
 12 31  1  0
 14 32  1  0
 16 33  1  0
 16 34  1  0
 16 35  1  0
 17 36  1  0
 20 37  1  0
 21 38  1  0
M  CHG  1  18  -1
M  END
>  <UniqueID>  (12) 
12

>  <SMILES>  (12) 
CCc1ccc(-c2cc(-c3ccc(O)c(C)c3)[n-]n2)cc1

>  <Energy>  (12) 
69.74510559622094

>  <Genealogy>  (12) 
CCc1ccc(-c2cc(-c3ccc(O)c(C)c3)[n-]n2)cc1 (protonated)
CCc1ccc(-c2cc(-c3ccc(O)c(C)c3)[n-]n2)cc1 (3D coordinates assigned)
CCc1ccc(-c2cc(-c3ccc(O)c(C)c3)[n-]n2)cc1 (optimized conformer: 69.74510559622094 kcal/mol)

>  <smiles>  (12) 
CCc1ccc(-c2cc(-c3ccc(O)c(C)c3)[nH]n2)cc1

>  <score_type>  (12) 
oracle

>  <origin>  (12) 
adgpu

>  <m_score__min__energy>  (12) 
-10.199999999999999

>  <m_primary>  (12) 
energy

$$$$
12:0
     RDKit          3D

 29 30  0  0  0  0  0  0  0  0999 V2000
   -3.9790   22.4500  -31.8460 C   0  0  0  0  0  0  0  0  0  0  0  0
   -5.0890   23.2580  -31.2310 C   0  0  0  0  0  0  0  0  0  0  0  0
   -6.4240   22.8650  -31.4340 C   0  0  0  0  0  0  0  0  0  0  0  0
   -7.4720   23.5980  -30.8740 C   0  0  0  0  0  0  0  0  0  0  0  0
   -7.2010   24.7370  -30.1140 C   0  0  0  0  0  0  0  0  0  0  0  0
   -5.8810   25.1460  -29.9140 C   0  0  0  0  0  0  0  0  0  0  0  0
   -4.8130   24.4120  -30.4610 C   0  0  0  0  0  0  0  0  0  0  0  0
   -3.4570   24.8620  -30.2800 N   0  0  0  0  0  0  0  0  0  0  0  0
   -2.5740   24.3580  -29.2630 C   0  0  0  0  0  0  0  0  0  0  0  0
   -2.8410   23.1120  -28.6870 C   0  0  0  0  0  0  0  0  0  0  0  0
   -2.0080   22.5960  -27.6960 C   0  0  0  0  0  0  0  0  0  0  0  0
   -0.8940   23.3230  -27.2370 C   0  0  0  0  0  0  0  0  0  0  0  0
   -0.0490   22.7280  -26.1690 C   0  0  0  0  0  0  0  0  0  0  0  0
    1.1150   22.3280  -26.4340 O   0  0  0  0  0  0  0  0  0  0  0  0
   -0.5300   22.5660  -24.8760 O   0  0  0  0  0  0  0  0  0  0  0  0
   -0.6290   24.5940  -27.8060 C   0  0  0  0  0  0  0  0  0  0  0  0
    0.7750   25.5580  -27.3430 Cl  0  0  0  0  0  0  0  0  0  0  0  0
   -1.4770   25.1090  -28.8020 C   0  0  0  0  0  0  0  0  0  0  0  0
   -1.2370   26.3790  -29.3180 O   0  0  0  0  0  0  0  0  0  0  0  0
   -3.3657   22.0036  -31.0494 H   0  0  0  0  0  0  0  0  0  0  0  0
   -4.4084   21.6517  -32.4691 H   0  0  0  0  0  0  0  0  0  0  0  0
   -3.3513   23.1040  -32.4691 H   0  0  0  0  0  0  0  0  0  0  0  0
   -6.6442   21.9730  -32.0388 H   0  0  0  0  0  0  0  0  0  0  0  0
   -8.5124   23.2776  -31.0319 H   0  0  0  0  0  0  0  0  0  0  0  0
   -8.0278   25.3127  -29.6724 H   0  0  0  0  0  0  0  0  0  0  0  0
   -5.6744   26.0506  -29.3232 H   0  0  0  0  0  0  0  0  0  0  0  0
   -3.1260   25.6760  -30.8450 H   0  0  0  0  0  0  0  0  0  0  0  0
   -3.7161   22.5341  -29.0190 H   0  0  0  0  0  0  0  0  0  0  0  0
   -2.2243   21.6066  -27.2666 H   0  0  0  0  0  0  0  0  0  0  0  0
  1  2  1  0
  2  3  2  0
  3  4  1  0
  4  5  2  0
  5  6  1  0
  6  7  2  0
  7  8  1  0
  8  9  1  0
  9 10  2  0
 10 11  1  0
 11 12  2  0
 12 13  1  0
 13 14  2  0
 13 15  1  0
 12 16  1  0
 16 17  1  0
 16 18  2  0
 18 19  1  0
  7  2  1  0
 18  9  1  0
  1 20  1  0
  1 21  1  0
  1 22  1  0
  3 23  1  0
  4 24  1  0
  5 25  1  0
  6 26  1  0
  8 27  1  0
 10 28  1  0
 11 29  1  0
M  CHG  2  15  -1  19  -1
M  END
>  <UniqueID>  (13) 
13

>  <SMILES>  (13) 
Cc1ccccc1Nc1ccc(C(=O)[O-])c(Cl)c1[O-]

>  <Energy>  (13) 
42.452424527643565

>  <Genealogy>  (13) 
Cc1ccccc1Nc1ccc(C(=O)[O-])c(Cl)c1[O-] (protonated)
Cc1ccccc1Nc1ccc(C(=O)[O-])c(Cl)c1[O-] (3D coordinates assigned)
Cc1ccccc1Nc1ccc(C(=O)[O-])c(Cl)c1[O-] (optimized conformer: 42.452424527643565 kcal/mol)

>  <smiles>  (13) 
Cc1ccccc1Nc1ccc(C(=O)O)c(Cl)c1O

>  <score_type>  (13) 
oracle

>  <origin>  (13) 
adgpu

>  <m_score__min__energy>  (13) 
-10.119999999999999

>  <m_primary>  (13) 
energy

$$$$
13:0
     RDKit          3D

 44 47  0  0  0  0  0  0  0  0999 V2000
   -4.3360   16.7410  -34.6460 C   0  0  0  0  0  0  0  0  0  0  0  0
   -3.5170   17.9060  -34.6350 O   0  0  0  0  0  0  0  0  0  0  0  0
   -3.8130   19.0790  -33.9220 C   0  0  0  0  0  0  0  0  0  0  0  0
   -5.0810   19.3100  -33.3570 C   0  0  0  0  0  0  0  0  0  0  0  0
   -5.3380   20.4870  -32.6530 C   0  0  0  0  0  0  0  0  0  0  0  0
   -4.3370   21.4600  -32.4970 C   0  0  0  0  0  0  0  0  0  0  0  0
   -4.5980   22.7210  -31.7610 C   0  0  0  0  0  0  0  0  0  0  0  0
   -5.7960   23.4400  -31.8300 C   0  0  0  0  0  0  0  0  0  0  0  0
   -5.6620   24.7880  -30.8310 S   0  0  0  0  0  0  0  0  0  0  0  0
   -4.1050   24.4010  -30.3510 C   0  0  0  0  0  0  0  0  0  0  0  0
   -3.3980   25.1330  -29.5430 N   0  0  0  0  0  0  0  0  0  0  0  0
   -2.0710   24.8420  -29.0770 C   0  0  0  0  0  0  0  0  0  0  0  0
   -1.2600   25.7980  -28.9500 O   0  0  0  0  0  0  0  0  0  0  0  0
   -1.6440   23.4760  -28.6770 C   0  0  0  0  0  0  0  0  0  0  0  0
   -2.5950   22.5240  -28.2830 C   0  0  0  0  0  0  0  0  0  0  0  0
   -2.1790   21.2550  -27.8730 C   0  0  0  0  0  0  0  0  0  0  0  0
   -3.0990   20.2720  -27.4790 C   0  0  0  0  0  0  0  0  0  0  0  0
   -2.6420   19.0190  -27.0580 C   0  0  0  0  0  0  0  0  0  0  0  0
   -1.2720   18.7440  -27.0290 C   0  0  0  0  0  0  0  0  0  0  0  0
   -0.3500   19.7190  -27.4240 C   0  0  0  0  0  0  0  0  0  0  0  0
   -0.7970   20.9740  -27.8490 C   0  0  0  0  0  0  0  0  0  0  0  0
    0.0800   21.8990  -28.2240 O   0  0  0  0  0  0  0  0  0  0  0  0
   -0.2820   23.1140  -28.6280 C   0  0  0  0  0  0  0  0  0  0  0  0
    0.6120   23.9310  -28.9760 O   0  0  0  0  0  0  0  0  0  0  0  0
   -3.6610   23.2680  -30.9380 N   0  0  0  0  0  0  0  0  0  0  0  0
   -3.0730   21.2310  -33.0660 C   0  0  0  0  0  0  0  0  0  0  0  0
   -2.8050   20.0420  -33.7750 C   0  0  0  0  0  0  0  0  0  0  0  0
   -1.5490   19.7830  -34.3470 O   0  0  0  0  0  0  0  0  0  0  0  0
   -0.3620   20.5110  -34.0490 C   0  0  0  0  0  0  0  0  0  0  0  0
   -4.5515   16.4345  -33.6118 H   0  0  0  0  0  0  0  0  0  0  0  0
   -5.2793   16.9609  -35.1674 H   0  0  0  0  0  0  0  0  0  0  0  0
   -3.8098   15.9278  -35.1674 H   0  0  0  0  0  0  0  0  0  0  0  0
   -5.8751   18.5574  -33.4711 H   0  0  0  0  0  0  0  0  0  0  0  0
   -6.3336   20.6544  -32.2162 H   0  0  0  0  0  0  0  0  0  0  0  0
   -6.6751   23.1705  -32.4338 H   0  0  0  0  0  0  0  0  0  0  0  0
   -3.6657   22.7757  -28.2967 H   0  0  0  0  0  0  0  0  0  0  0  0
   -4.1777   20.4863  -27.5011 H   0  0  0  0  0  0  0  0  0  0  0  0
   -3.3629   18.2478  -26.7488 H   0  0  0  0  0  0  0  0  0  0  0  0
   -0.9177   17.7578  -26.6945 H   0  0  0  0  0  0  0  0  0  0  0  0
    0.7274   19.4983  -27.4003 H   0  0  0  0  0  0  0  0  0  0  0  0
   -2.2828   21.9885  -32.9571 H   0  0  0  0  0  0  0  0  0  0  0  0
   -0.2414   20.5850  -32.9581 H   0  0  0  0  0  0  0  0  0  0  0  0
    0.5057   19.9896  -34.4793 H   0  0  0  0  0  0  0  0  0  0  0  0
   -0.4334   21.5208  -34.4793 H   0  0  0  0  0  0  0  0  0  0  0  0
  1  2  1  0
  2  3  1  0
  3  4  2  0
  4  5  1  0
  5  6  2  0
  6  7  1  0
  7  8  2  0
  8  9  1  0
  9 10  1  0
 10 11  2  3
 11 12  1  0
 12 13  2  0
 12 14  1  0
 14 15  2  0
 15 16  1  0
 16 17  2  0
 17 18  1  0
 18 19  2  0
 19 20  1  0
 20 21  2  0
 21 22  1  0
 22 23  1  0
 23 24  2  0
 10 25  1  0
  6 26  1  0
 26 27  2  0
 27 28  1  0
 28 29  1  0
 27  3  1  0
 25  7  1  0
 23 14  1  0
 21 16  1  0
  1 30  1  0
  1 31  1  0
  1 32  1  0
  4 33  1  0
  5 34  1  0
  8 35  1  0
 15 36  1  0
 17 37  1  0
 18 38  1  0
 19 39  1  0
 20 40  1  0
 26 41  1  0
 29 42  1  0
 29 43  1  0
 29 44  1  0
M  CHG  1  25  -1
M  END
>  <UniqueID>  (14) 
14

>  <SMILES>  (14) 
COc1ccc(-c2csc(=NC(=O)c3cc4ccccc4oc3=O)[n-]2)cc1OC

>  <Energy>  (14) 
89.01426212237278

>  <Genealogy>  (14) 
COc1ccc(-c2csc(=NC(=O)c3cc4ccccc4oc3=O)[n-]2)cc1OC (protonated)
COc1ccc(-c2csc(=NC(=O)c3cc4ccccc4oc3=O)[n-]2)cc1OC (3D coordinates assigned)
COc1ccc(-c2csc(=NC(=O)c3cc4ccccc4oc3=O)[n-]2)cc1OC (optimized conformer: 89.01426212237278 kcal/mol)

>  <smiles>  (14) 
COc1ccc(-c2csc(=NC(=O)c3cc4ccccc4oc3=O)[nH]2)cc1OC

>  <score_type>  (14) 
oracle

>  <origin>  (14) 
adgpu

>  <m_score__min__energy>  (14) 
-10.01

>  <m_primary>  (14) 
energy

$$$$
14:0
     RDKit          3D

 25 26  0  0  0  0  0  0  0  0999 V2000
   -6.0230   17.2030  -34.2530 C   0  0  0  0  0  0  0  0  0  0  0  0
   -5.0160   18.1740  -34.5200 O   0  0  0  0  0  0  0  0  0  0  0  0
   -4.7390   19.2750  -33.6950 C   0  0  0  0  0  0  0  0  0  0  0  0
   -5.6660   19.7690  -32.7580 C   0  0  0  0  0  0  0  0  0  0  0  0
   -5.3410   20.8680  -31.9580 C   0  0  0  0  0  0  0  0  0  0  0  0
   -4.0850   21.4820  -32.0680 C   0  0  0  0  0  0  0  0  0  0  0  0
   -3.7680   22.6620  -31.2360 C   0  0  0  0  0  0  0  0  0  0  0  0
   -4.6590   23.6880  -31.2020 N   0  0  0  0  0  0  0  0  0  0  0  0
   -4.4320   24.8050  -30.4670 C   0  0  0  0  0  0  0  0  0  0  0  0
   -5.5380   26.0100  -30.4700 S   0  0  0  0  0  0  0  0  0  0  0  0
   -3.2910   24.9180  -29.7350 N   0  0  0  0  0  0  0  0  0  0  0  0
   -2.3720   23.9130  -29.7180 C   0  0  0  0  0  0  0  0  0  0  0  0
   -1.3300   24.0330  -29.0180 O   0  0  0  0  0  0  0  0  0  0  0  0
   -2.5890   22.7500  -30.4690 C   0  0  0  0  0  0  0  0  0  0  0  0
   -1.4360   21.4170  -30.3630 Cl  0  0  0  0  0  0  0  0  0  0  0  0
   -3.1690   21.0000  -33.0180 C   0  0  0  0  0  0  0  0  0  0  0  0
   -3.4940   19.9010  -33.8180 C   0  0  0  0  0  0  0  0  0  0  0  0
   -6.1423   17.0880  -33.1656 H   0  0  0  0  0  0  0  0  0  0  0  0
   -6.9757   17.5321  -34.6936 H   0  0  0  0  0  0  0  0  0  0  0  0
   -5.7288   16.2390  -34.6936 H   0  0  0  0  0  0  0  0  0  0  0  0
   -6.6500   19.2882  -32.6550 H   0  0  0  0  0  0  0  0  0  0  0  0
   -6.0760   21.2543  -31.2366 H   0  0  0  0  0  0  0  0  0  0  0  0
   -3.1150   25.7810  -29.1700 H   0  0  0  0  0  0  0  0  0  0  0  0
   -2.1909   21.4901  -33.1328 H   0  0  0  0  0  0  0  0  0  0  0  0
   -2.7646   19.5251  -34.5506 H   0  0  0  0  0  0  0  0  0  0  0  0
  1  2  1  0
  2  3  1  0
  3  4  2  0
  4  5  1  0
  5  6  2  0
  6  7  1  0
  7  8  1  0
  8  9  1  0
  9 10  2  0
  9 11  1  0
 11 12  1  0
 12 13  2  0
 12 14  1  0
 14 15  1  0
  6 16  1  0
 16 17  2  0
 17  3  1  0
 14  7  2  0
  1 18  1  0
  1 19  1  0
  1 20  1  0
  4 21  1  0
  5 22  1  0
 11 23  1  0
 16 24  1  0
 17 25  1  0
M  CHG  1   8  -1
M  END
>  <UniqueID>  (15) 
15

>  <SMILES>  (15) 
COc1ccc(-c2[n-]c(=S)[nH]c(=O)c2Cl)cc1

>  <Energy>  (15) 
33.558611382969424

>  <Genealogy>  (15) 
COc1ccc(-c2[n-]c(=S)[nH]c(=O)c2Cl)cc1 (protonated)
COc1ccc(-c2[n-]c(=S)[nH]c(=O)c2Cl)cc1 (3D coordinates assigned)
COc1ccc(-c2[n-]c(=S)[nH]c(=O)c2Cl)cc1 (optimized conformer: 33.558611382969424 kcal/mol)

>  <smiles>  (15) 
COc1ccc(-c2[nH]c(=S)[nH]c(=O)c2Cl)cc1

>  <score_type>  (15) 
oracle

>  <origin>  (15) 
adgpu

>  <m_score__min__energy>  (15) 
-7.3600000000000003

>  <m_primary>  (15) 
energy

$$$$
15:0
     RDKit          3D

 37 39  0  0  0  0  0  0  0  0999 V2000
   -6.4690   17.1070  -33.8450 C   0  0  0  0  0  0  0  0  0  0  0  0
   -6.9050   18.3450  -33.1200 C   0  0  0  0  0  0  0  0  0  0  0  0
   -7.9960   18.2980  -32.2390 C   0  0  0  0  0  0  0  0  0  0  0  0
   -8.4150   19.4520  -31.5730 C   0  0  0  0  0  0  0  0  0  0  0  0
   -7.7530   20.6730  -31.7840 C   0  0  0  0  0  0  0  0  0  0  0  0
   -8.1350   21.8950  -30.9910 C   0  0  0  0  0  0  0  0  0  0  0  0
   -7.8960   23.4200  -31.9730 S   0  0  0  0  0  0  0  0  0  0  0  0
   -6.2910   23.7930  -31.2750 C   0  0  0  0  0  0  0  0  0  0  0  0
   -5.5580   24.8780  -31.5850 N   0  0  0  0  0  0  0  0  0  0  0  0
   -4.4720   24.8140  -30.8310 N   0  0  0  0  0  0  0  0  0  0  0  0
   -4.5870   23.6940  -30.0880 C   0  0  0  0  0  0  0  0  0  0  0  0
   -3.6140   23.2540  -29.0730 C   0  0  0  0  0  0  0  0  0  0  0  0
   -3.3050   21.8910  -28.9410 C   0  0  0  0  0  0  0  0  0  0  0  0
   -2.3980   21.4620  -27.9680 C   0  0  0  0  0  0  0  0  0  0  0  0
   -1.7770   22.3920  -27.1200 C   0  0  0  0  0  0  0  0  0  0  0  0
   -0.8350   21.9280  -26.0500 C   0  0  0  0  0  0  0  0  0  0  0  0
   -2.0990   23.7520  -27.2380 C   0  0  0  0  0  0  0  0  0  0  0  0
   -3.0080   24.1810  -28.2100 C   0  0  0  0  0  0  0  0  0  0  0  0
   -5.7000   23.0580  -30.3660 O   0  0  0  0  0  0  0  0  0  0  0  0
   -6.6790   20.7250  -32.6870 C   0  0  0  0  0  0  0  0  0  0  0  0
   -6.2630   19.5700  -33.3560 C   0  0  0  0  0  0  0  0  0  0  0  0
   -6.1958   16.3313  -33.1145 H   0  0  0  0  0  0  0  0  0  0  0  0
   -7.2928   16.7424  -34.4762 H   0  0  0  0  0  0  0  0  0  0  0  0
   -5.5985   17.3391  -34.4762 H   0  0  0  0  0  0  0  0  0  0  0  0
   -8.5240   17.3476  -32.0720 H   0  0  0  0  0  0  0  0  0  0  0  0
   -9.2677   19.4046  -30.8797 H   0  0  0  0  0  0  0  0  0  0  0  0
   -9.1929   21.8177  -30.6995 H   0  0  0  0  0  0  0  0  0  0  0  0
   -7.4911   21.9487  -30.1008 H   0  0  0  0  0  0  0  0  0  0  0  0
   -3.7797   21.1560  -29.6076 H   0  0  0  0  0  0  0  0  0  0  0  0
   -2.1699   20.3907  -27.8664 H   0  0  0  0  0  0  0  0  0  0  0  0
   -1.2686   22.1416  -25.0619 H   0  0  0  0  0  0  0  0  0  0  0  0
   -0.6695   20.8453  -26.1515 H   0  0  0  0  0  0  0  0  0  0  0  0
    0.1243   22.4567  -26.1515 H   0  0  0  0  0  0  0  0  0  0  0  0
   -1.6340   24.4850  -26.5623 H   0  0  0  0  0  0  0  0  0  0  0  0
   -3.2496   25.2504  -28.2990 H   0  0  0  0  0  0  0  0  0  0  0  0
   -6.1625   21.6790  -32.8689 H   0  0  0  0  0  0  0  0  0  0  0  0
   -5.4285   19.6219  -34.0707 H   0  0  0  0  0  0  0  0  0  0  0  0
  1  2  1  0
  2  3  2  0
  3  4  1  0
  4  5  2  0
  5  6  1  0
  6  7  1  0
  7  8  1  0
  8  9  2  0
  9 10  1  0
 10 11  2  0
 11 12  1  0
 12 13  2  0
 13 14  1  0
 14 15  2  0
 15 16  1  0
 15 17  1  0
 17 18  2  0
 11 19  1  0
  5 20  1  0
 20 21  2  0
 21  2  1  0
 19  8  1  0
 18 12  1  0
  1 22  1  0
  1 23  1  0
  1 24  1  0
  3 25  1  0
  4 26  1  0
  6 27  1  0
  6 28  1  0
 13 29  1  0
 14 30  1  0
 16 31  1  0
 16 32  1  0
 16 33  1  0
 17 34  1  0
 18 35  1  0
 20 36  1  0
 21 37  1  0
M  END
>  <UniqueID>  (16) 
16

>  <SMILES>  (16) 
Cc1ccc(CSc2nnc(-c3ccc(C)cc3)o2)cc1

>  <Energy>  (16) 
66.88298655172395

>  <Genealogy>  (16) 
Cc1ccc(CSc2nnc(-c3ccc(C)cc3)o2)cc1 (3D coordinates assigned)
Cc1ccc(CSc2nnc(-c3ccc(C)cc3)o2)cc1 (optimized conformer: 66.88298655172395 kcal/mol)

>  <smiles>  (16) 
Cc1ccc(CSc2nnc(-c3ccc(C)cc3)o2)cc1

>  <score_type>  (16) 
oracle

>  <origin>  (16) 
adgpu

>  <m_score__min__energy>  (16) 
-8.3599999999999994

>  <m_primary>  (16) 
energy

$$$$
16:0
     RDKit          3D

 48 50  0  0  0  0  0  0  0  0999 V2000
   -6.1569   25.7748  -29.4939 H   0  0  0  0  0  0  0  0  0  0  0  0
   -6.0720   24.8900  -30.1420 C   0  0  0  0  0  0  0  0  0  0  0  0
   -7.2270   24.2560  -30.6110 C   0  0  0  0  0  0  0  0  0  0  0  0
   -8.2169   24.6397  -30.3232 H   0  0  0  0  0  0  0  0  0  0  0  0
   -7.1300   23.1340  -31.4460 C   0  0  0  0  0  0  0  0  0  0  0  0
   -8.3750   22.4800  -31.9680 C   0  0  0  0  0  0  0  0  0  0  0  0
   -8.9988   22.1523  -31.1233 H   0  0  0  0  0  0  0  0  0  0  0  0
   -8.9373   23.1992  -32.5817 H   0  0  0  0  0  0  0  0  0  0  0  0
   -8.1019   21.6089  -32.5817 H   0  0  0  0  0  0  0  0  0  0  0  0
   -5.8640   22.6730  -31.8380 C   0  0  0  0  0  0  0  0  0  0  0  0
   -5.7798   21.8108  -32.5159 H   0  0  0  0  0  0  0  0  0  0  0  0
   -4.7090   23.3070  -31.3690 C   0  0  0  0  0  0  0  0  0  0  0  0
   -3.7205   22.9448  -31.6878 H   0  0  0  0  0  0  0  0  0  0  0  0
   -4.8000   24.3990  -30.4970 C   0  0  0  0  0  0  0  0  0  0  0  0
   -3.5860   25.0360  -30.0620 N   0  0  0  0  0  0  0  0  0  0  0  0
   -2.6650   24.5280  -29.2960 C   0  0  0  0  0  0  0  0  0  0  0  0
   -2.7280   23.2350  -28.8750 N   0  0  0  0  0  0  0  0  0  0  0  0
   -1.7510   22.7160  -28.0920 C   0  0  0  0  0  0  0  0  0  0  0  0
   -1.8140   21.3290  -27.7280 N   0  0  0  0  0  0  0  0  0  0  0  0
   -0.8790   20.4180  -27.7570 C   0  0  0  0  0  0  0  0  0  0  0  0
   -1.2100   19.0650  -27.4770 C   0  0  0  0  0  0  0  0  0  0  0  0
   -2.4970   18.6020  -27.1450 O   0  0  0  0  0  0  0  0  0  0  0  0
   -3.2510   18.9330  -25.9830 C   0  0  0  0  0  0  0  0  0  0  0  0
   -2.6703   18.6781  -25.0842 H   0  0  0  0  0  0  0  0  0  0  0  0
   -3.4715   20.0107  -25.9837 H   0  0  0  0  0  0  0  0  0  0  0  0
   -4.1935   18.3659  -25.9837 H   0  0  0  0  0  0  0  0  0  0  0  0
   -0.1990   18.1030  -27.5370 C   0  0  0  0  0  0  0  0  0  0  0  0
   -0.4426   17.0479  -27.3434 H   0  0  0  0  0  0  0  0  0  0  0  0
    1.1160   18.4610  -27.8390 C   0  0  0  0  0  0  0  0  0  0  0  0
    2.1830   17.4100  -27.9400 C   0  0  0  0  0  0  0  0  0  0  0  0
    2.4933   17.1043  -26.9299 H   0  0  0  0  0  0  0  0  0  0  0  0
    1.7885   16.5379  -28.4820 H   0  0  0  0  0  0  0  0  0  0  0  0
    3.0490   17.8176  -28.4820 H   0  0  0  0  0  0  0  0  0  0  0  0
    1.4060   19.8030  -28.0850 C   0  0  0  0  0  0  0  0  0  0  0  0
    2.4359   20.1027  -28.3288 H   0  0  0  0  0  0  0  0  0  0  0  0
    0.4270   20.7430  -28.0260 N   0  0  0  0  0  0  0  0  0  0  0  0
    0.7320   21.7300  -28.1510 H   0  0  0  0  0  0  0  0  0  0  0  0
   -0.6730   23.4790  -27.7770 N   0  0  0  0  0  0  0  0  0  0  0  0
   -0.5980   24.7710  -28.1950 C   0  0  0  0  0  0  0  0  0  0  0  0
    0.4180   25.5150  -27.8790 N   0  0  0  0  0  0  0  0  0  0  0  0
    1.5410   25.0600  -27.0630 C   0  0  0  0  0  0  0  0  0  0  0  0
    2.3414   25.8141  -27.0898 H   0  0  0  0  0  0  0  0  0  0  0  0
    1.9175   24.1065  -27.4617 H   0  0  0  0  0  0  0  0  0  0  0  0
    1.0840   24.8590  -25.6260 C   0  0  0  0  0  0  0  0  0  0  0  0
    1.8706   25.2050  -24.9393 H   0  0  0  0  0  0  0  0  0  0  0  0
    0.1639   25.4355  -25.4498 H   0  0  0  0  0  0  0  0  0  0  0  0
    0.8871   23.7912  -25.4498 H   0  0  0  0  0  0  0  0  0  0  0  0
   -1.5950   25.2880  -28.9540 N   0  0  0  0  0  0  0  0  0  0  0  0
  1  2  1  0
  2  3  2  0
  3  4  1  0
  3  5  1  0
  5  6  1  0
  6  7  1  0
  6  8  1  0
  6  9  1  0
  5 10  2  0
 10 11  1  0
 10 12  1  0
 12 13  1  0
 12 14  2  0
 14 15  1  0
 15 16  2  0
 16 17  1  0
 17 18  1  0
 18 19  1  0
 19 20  2  0
 20 21  1  0
 21 22  1  0
 22 23  1  0
 23 24  1  0
 23 25  1  0
 23 26  1  0
 21 27  2  0
 27 28  1  0
 27 29  1  0
 29 30  1  0
 30 31  1  0
 30 32  1  0
 30 33  1  0
 29 34  2  0
 34 35  1  0
 34 36  1  0
 36 37  1  0
 18 38  2  0
 38 39  1  0
 39 40  2  3
 40 41  1  0
 41 42  1  0
 41 43  1  0
 41 44  1  0
 44 45  1  0
 44 46  1  0
 44 47  1  0
 39 48  1  0
 14  2  1  0
 48 16  1  0
 36 20  1  0
M  CHG  2  17  -1  48  -1
M  END
>  <UniqueID>  (17) 
17

>  <SMILES>  (17) 
CCN=c1nc(/N=c2\[nH]cc(C)cc2OC)[n-]/c(=N\c2ccc(C)cc2)[n-]1

>  <Energy>  (17) 
62.05026541413708

>  <Genealogy>  (17) 
CCN=c1nc(N=c2[nH]cc(C)cc2OC)[n-]c(=Nc2ccc(C)cc2)[n-]1 (protonated)
CCN=c1nc(/N=c2\[nH]cc(C)cc2OC)[n-]/c(=N\c2ccc(C)cc2)[n-]1 (cis-trans isomerization)
CCN=c1nc(/N=c2\[nH]cc(C)cc2OC)[n-]/c(=N\c2ccc(C)cc2)[n-]1 (3D coordinates assigned)
CCN=c1nc(/N=c2\[nH]cc(C)cc2OC)[n-]/c(=N\c2ccc(C)cc2)[n-]1 (optimized conformer: 62.05026541413708 kcal/mol)

>  <smiles>  (17) 
CCN=c1nc(N=c2[nH]cc(C)cc2OC)[nH]c(=Nc2ccc(C)cc2)[nH]1

>  <score_type>  (17) 
oracle

>  <origin>  (17) 
adgpu

>  <m_score__min__energy>  (17) 
-10.17

>  <m_primary>  (17) 
energy

$$$$
17:0
     RDKit          3D

 54 57  0  0  0  0  0  0  0  0999 V2000
   -4.5830   13.6640  -31.3190 C   0  0  0  0  0  0  0  0  0  0  0  0
   -4.5730   13.8940  -32.8260 C   0  0  0  0  0  0  0  0  0  0  0  0
   -4.2270   15.2470  -33.1290 O   0  0  0  0  0  0  0  0  0  0  0  0
   -5.1190   16.3300  -33.1640 C   0  0  0  0  0  0  0  0  0  0  0  0
   -5.2410   17.0440  -34.3610 C   0  0  0  0  0  0  0  0  0  0  0  0
   -6.1110   18.1330  -34.4570 C   0  0  0  0  0  0  0  0  0  0  0  0
   -6.8810   18.5290  -33.3470 C   0  0  0  0  0  0  0  0  0  0  0  0
   -7.7900   19.6410  -33.4120 N   0  0  0  0  0  0  0  0  0  0  0  0
   -8.4310   20.4420  -32.0110 S   0  0  0  0  0  0  0  0  0  0  0  0
   -9.5660   21.3340  -32.4260 O   0  0  0  0  0  0  0  0  0  0  0  0
   -8.9450   19.4120  -31.0460 O   0  0  0  0  0  0  0  0  0  0  0  0
   -7.1770   21.4290  -31.2660 C   0  0  0  0  0  0  0  0  0  0  0  0
   -7.5150   22.4890  -30.4150 C   0  0  0  0  0  0  0  0  0  0  0  0
   -6.5130   23.2480  -29.8040 C   0  0  0  0  0  0  0  0  0  0  0  0
   -5.1560   22.9660  -30.0460 C   0  0  0  0  0  0  0  0  0  0  0  0
   -4.0850   23.7550  -29.3940 C   0  0  0  0  0  0  0  0  0  0  0  0
   -3.0960   24.3790  -30.0760 N   0  0  0  0  0  0  0  0  0  0  0  0
   -2.2280   25.0220  -29.2950 N   0  0  0  0  0  0  0  0  0  0  0  0
   -2.5110   24.9180  -27.9780 C   0  0  0  0  0  0  0  0  0  0  0  0
   -1.7100   25.5280  -26.9470 N   0  0  0  0  0  0  0  0  0  0  0  0
   -2.2860   25.6780  -25.6020 C   0  0  0  0  0  0  0  0  0  0  0  0
   -1.2460   26.1750  -24.5920 C   0  0  0  0  0  0  0  0  0  0  0  0
   -0.5290   27.4260  -25.1160 C   0  0  0  0  0  0  0  0  0  0  0  0
   -0.0100   27.2790  -26.5650 C   0  0  0  0  0  0  0  0  0  0  0  0
   -0.3100   25.9090  -27.1910 C   0  0  0  0  0  0  0  0  0  0  0  0
   -3.9000   23.9910  -27.7320 S   0  0  0  0  0  0  0  0  0  0  0  0
   -4.8250   21.9090  -30.9140 C   0  0  0  0  0  0  0  0  0  0  0  0
   -5.8280   21.1490  -31.5190 C   0  0  0  0  0  0  0  0  0  0  0  0
   -6.7490   17.8210  -32.1440 C   0  0  0  0  0  0  0  0  0  0  0  0
   -5.8790   16.7300  -32.0490 C   0  0  0  0  0  0  0  0  0  0  0  0
   -4.5409   14.6329  -30.7999 H   0  0  0  0  0  0  0  0  0  0  0  0
   -5.5050   13.1356  -31.0348 H   0  0  0  0  0  0  0  0  0  0  0  0
   -3.7104   13.0576  -31.0348 H   0  0  0  0  0  0  0  0  0  0  0  0
   -3.8365   13.2208  -33.2890 H   0  0  0  0  0  0  0  0  0  0  0  0
   -5.5790   13.6896  -33.2212 H   0  0  0  0  0  0  0  0  0  0  0  0
   -4.6455   16.7447  -35.2361 H   0  0  0  0  0  0  0  0  0  0  0  0
   -6.1948   18.6841  -35.4053 H   0  0  0  0  0  0  0  0  0  0  0  0
   -7.9980   20.0730  -34.3390 H   0  0  0  0  0  0  0  0  0  0  0  0
   -8.5728   22.7249  -30.2269 H   0  0  0  0  0  0  0  0  0  0  0  0
   -6.7874   24.0720  -29.1289 H   0  0  0  0  0  0  0  0  0  0  0  0
   -3.1132   26.4016  -25.6472 H   0  0  0  0  0  0  0  0  0  0  0  0
   -2.6425   24.6918  -25.2698 H   0  0  0  0  0  0  0  0  0  0  0  0
   -1.7508   26.4190  -23.6456 H   0  0  0  0  0  0  0  0  0  0  0  0
   -0.5002   25.3816  -24.4359 H   0  0  0  0  0  0  0  0  0  0  0  0
   -1.2332   28.2704  -25.0825 H   0  0  0  0  0  0  0  0  0  0  0  0
    0.3488   27.5885  -24.4732 H   0  0  0  0  0  0  0  0  0  0  0  0
   -0.4835   28.0552  -27.1841 H   0  0  0  0  0  0  0  0  0  0  0  0
    1.0844   27.3830  -26.5271 H   0  0  0  0  0  0  0  0  0  0  0  0
   -0.1320   25.9594  -28.2753 H   0  0  0  0  0  0  0  0  0  0  0  0
    0.3491   25.1563  -26.7338 H   0  0  0  0  0  0  0  0  0  0  0  0
   -3.7685   21.6798  -31.1173 H   0  0  0  0  0  0  0  0  0  0  0  0
   -5.5576   20.3265  -32.1975 H   0  0  0  0  0  0  0  0  0  0  0  0
   -7.3360   18.1269  -31.2654 H   0  0  0  0  0  0  0  0  0  0  0  0
   -5.7884   16.1825  -31.0992 H   0  0  0  0  0  0  0  0  0  0  0  0
  1  2  1  0
  2  3  1  0
  3  4  1  0
  4  5  2  0
  5  6  1  0
  6  7  2  0
  7  8  1  0
  8  9  1  0
  9 10  2  0
  9 11  2  0
  9 12  1  0
 12 13  2  0
 13 14  1  0
 14 15  2  0
 15 16  1  0
 16 17  2  0
 17 18  1  0
 18 19  2  0
 19 20  1  0
 20 21  1  0
 21 22  1  0
 22 23  1  0
 23 24  1  0
 24 25  1  0
 19 26  1  0
 15 27  1  0
 27 28  2  0
  7 29  1  0
 29 30  2  0
 30  4  1  0
 28 12  1  0
 26 16  1  0
 25 20  1  0
  1 31  1  0
  1 32  1  0
  1 33  1  0
  2 34  1  0
  2 35  1  0
  5 36  1  0
  6 37  1  0
  8 38  1  0
 13 39  1  0
 14 40  1  0
 21 41  1  0
 21 42  1  0
 22 43  1  0
 22 44  1  0
 23 45  1  0
 23 46  1  0
 24 47  1  0
 24 48  1  0
 25 49  1  0
 25 50  1  0
 27 51  1  0
 28 52  1  0
 29 53  1  0
 30 54  1  0
M  END
>  <UniqueID>  (18) 
18

>  <SMILES>  (18) 
CCOc1ccc(NS(=O)(=O)c2ccc(-c3nnc(N4CCCCC4)s3)cc2)cc1

>  <Energy>  (18) 
93.77981662214339

>  <Genealogy>  (18) 
CCOc1ccc(NS(=O)(=O)c2ccc(-c3nnc(N4CCCCC4)s3)cc2)cc1 (3D coordinates assigned)
CCOc1ccc(NS(=O)(=O)c2ccc(-c3nnc(N4CCCCC4)s3)cc2)cc1 (nonaromatic ring conformer: 93.77981662214339 kcal/mol)

>  <smiles>  (18) 
CCOc1ccc(NS(=O)(=O)c2ccc(-c3nnc(N4CCCCC4)s3)cc2)cc1

>  <score_type>  (18) 
oracle

>  <origin>  (18) 
adgpu

>  <m_score__min__energy>  (18) 
-9.6899999999999995

>  <m_primary>  (18) 
energy

$$$$
18:0
     RDKit          3D

 52 54  0  0  0  0  0  0  0  0999 V2000
   -5.7210   18.5790  -34.6530 C   0  0  0  0  0  0  0  0  0  0  0  0
   -6.4620   18.0630  -33.4180 C   0  0  0  0  0  0  0  0  0  0  0  0
   -5.8930   16.7340  -32.9070 C   0  0  0  0  0  0  0  0  0  0  0  0
   -6.0760   15.6330  -33.9050 C   0  0  0  0  0  0  0  0  0  0  0  0
   -7.2370   15.3140  -34.2770 O   0  0  0  0  0  0  0  0  0  0  0  0
   -4.9290   14.9450  -34.4170 N   0  0  0  0  0  0  0  0  0  0  0  0
   -3.6140   14.9570  -33.8410 C   0  0  0  0  0  0  0  0  0  0  0  0
   -3.0120   13.7920  -33.3460 C   0  0  0  0  0  0  0  0  0  0  0  0
   -1.7200   13.8370  -32.8170 C   0  0  0  0  0  0  0  0  0  0  0  0
   -1.0070   15.0490  -32.7760 C   0  0  0  0  0  0  0  0  0  0  0  0
    0.3080   15.1190  -32.2890 O   0  0  0  0  0  0  0  0  0  0  0  0
    1.4150   15.6300  -33.0240 C   0  0  0  0  0  0  0  0  0  0  0  0
   -1.6200   16.2220  -33.2580 C   0  0  0  0  0  0  0  0  0  0  0  0
   -0.9680   17.4640  -33.2220 O   0  0  0  0  0  0  0  0  0  0  0  0
   -1.6070   18.7120  -33.2180 C   0  0  0  0  0  0  0  0  0  0  0  0
   -1.0510   19.8360  -33.8460 C   0  0  0  0  0  0  0  0  0  0  0  0
   -1.7440   21.0430  -33.7900 C   0  0  0  0  0  0  0  0  0  0  0  0
   -2.9240   21.1180  -33.1220 N   0  0  0  0  0  0  0  0  0  0  0  0
   -3.4510   20.0250  -32.5030 C   0  0  0  0  0  0  0  0  0  0  0  0
   -4.5580   20.1030  -31.8240 N   0  0  0  0  0  0  0  0  0  0  0  0
   -5.4110   21.2530  -31.7070 C   0  0  0  0  0  0  0  0  0  0  0  0
   -6.7220   21.2600  -32.2200 C   0  0  0  0  0  0  0  0  0  0  0  0
   -7.5380   22.3810  -32.0490 C   0  0  0  0  0  0  0  0  0  0  0  0
   -7.0600   23.4980  -31.3570 C   0  0  0  0  0  0  0  0  0  0  0  0
   -5.7610   23.4970  -30.8300 C   0  0  0  0  0  0  0  0  0  0  0  0
   -5.1630   24.8960  -29.9430 S   0  0  0  0  0  0  0  0  0  0  0  0
   -3.8780   25.6370  -30.8300 N   0  0  0  0  0  0  0  0  0  0  0  0
   -6.2760   25.8870  -29.7480 O   0  0  0  0  0  0  0  0  0  0  0  0
   -4.6580   24.4670  -28.5930 O   0  0  0  0  0  0  0  0  0  0  0  0
   -4.9480   22.3660  -30.9900 C   0  0  0  0  0  0  0  0  0  0  0  0
   -2.7840   18.8420  -32.5510 N   0  0  0  0  0  0  0  0  0  0  0  0
   -2.8990   16.1590  -33.8190 C   0  0  0  0  0  0  0  0  0  0  0  0
   -4.8564   19.1811  -34.3369 H   0  0  0  0  0  0  0  0  0  0  0  0
   -5.3737   17.7264  -35.2550 H   0  0  0  0  0  0  0  0  0  0  0  0
   -6.4002   19.2005  -35.2550 H   0  0  0  0  0  0  0  0  0  0  0  0
   -6.3799   18.8133  -32.6178 H   0  0  0  0  0  0  0  0  0  0  0  0
   -7.5102   17.8910  -33.7037 H   0  0  0  0  0  0  0  0  0  0  0  0
   -4.8185   16.8594  -32.7076 H   0  0  0  0  0  0  0  0  0  0  0  0
   -6.4347   16.4591  -31.9899 H   0  0  0  0  0  0  0  0  0  0  0  0
   -3.5593   12.8383  -33.3742 H   0  0  0  0  0  0  0  0  0  0  0  0
   -1.2565   12.9177  -32.4295 H   0  0  0  0  0  0  0  0  0  0  0  0
    2.1862   15.9860  -32.3251 H   0  0  0  0  0  0  0  0  0  0  0  0
    1.8335   14.8340  -33.6574 H   0  0  0  0  0  0  0  0  0  0  0  0
    1.0806   16.4649  -33.6574 H   0  0  0  0  0  0  0  0  0  0  0  0
   -0.0874   19.7659  -34.3720 H   0  0  0  0  0  0  0  0  0  0  0  0
   -1.3355   21.9354  -34.2868 H   0  0  0  0  0  0  0  0  0  0  0  0
   -7.1051   20.3799  -32.7573 H   0  0  0  0  0  0  0  0  0  0  0  0
   -8.5585   22.3849  -32.4595 H   0  0  0  0  0  0  0  0  0  0  0  0
   -7.7047   24.3795  -31.2258 H   0  0  0  0  0  0  0  0  0  0  0  0
   -2.9860   25.2870  -30.4170 H   0  0  0  0  0  0  0  0  0  0  0  0
   -3.9399   22.3514  -30.5501 H   0  0  0  0  0  0  0  0  0  0  0  0
   -3.3488   17.0663  -34.2486 H   0  0  0  0  0  0  0  0  0  0  0  0
  1  2  1  0
  2  3  1  0
  3  4  1  0
  4  5  2  0
  4  6  1  0
  6  7  1  0
  7  8  2  0
  8  9  1  0
  9 10  2  0
 10 11  1  0
 11 12  1  0
 10 13  1  0
 13 14  1  0
 14 15  1  0
 15 16  1  0
 16 17  2  0
 17 18  1  0
 18 19  1  0
 19 20  2  3
 20 21  1  0
 21 22  2  0
 22 23  1  0
 23 24  2  0
 24 25  1  0
 25 26  1  0
 26 27  1  0
 26 28  2  0
 26 29  2  0
 25 30  2  0
 19 31  1  0
 13 32  2  0
 32  7  1  0
 31 15  2  0
 30 21  1  0
  1 33  1  0
  1 34  1  0
  1 35  1  0
  2 36  1  0
  2 37  1  0
  3 38  1  0
  3 39  1  0
  8 40  1  0
  9 41  1  0
 12 42  1  0
 12 43  1  0
 12 44  1  0
 16 45  1  0
 17 46  1  0
 22 47  1  0
 23 48  1  0
 24 49  1  0
 27 50  1  0
 30 51  1  0
 32 52  1  0
M  CHG  3   6  -1  18  -1  27  -1
M  END
>  <UniqueID>  (19) 
19

>  <SMILES>  (19) 
CCCC(=O)[N-]c1ccc(OC)c(Oc2cc[n-]c(=Nc3cccc(S([NH-])(=O)=O)c3)n2)c1

>  <Energy>  (19) 
66.20312108200635

>  <Genealogy>  (19) 
CCCC(=O)[N-]c1ccc(OC)c(Oc2cc[n-]c(=Nc3cccc(S([NH-])(=O)=O)c3)n2)c1 (protonated)
CCCC(=O)[N-]c1ccc(OC)c(Oc2cc[n-]c(=Nc3cccc(S([NH-])(=O)=O)c3)n2)c1 (3D coordinates assigned)
CCCC(=O)[N-]c1ccc(OC)c(Oc2cc[n-]c(=Nc3cccc(S([NH-])(=O)=O)c3)n2)c1 (optimized conformer: 66.20312108200635 kcal/mol)

>  <smiles>  (19) 
CCCC(=O)Nc1ccc(OC)c(Oc2cc[nH]c(=Nc3cccc(S(N)(=O)=O)c3)n2)c1

>  <score_type>  (19) 
oracle

>  <origin>  (19) 
adgpu

>  <m_score__min__energy>  (19) 
-11.140000000000001

>  <m_primary>  (19) 
energy

$$$$
19:0
     RDKit          3D

 49 52  0  0  0  0  0  0  0  0999 V2000
   -1.2440   26.2300  -28.9530 N   0  0  0  0  0  0  0  0  0  0  0  0
   -1.4880   25.2610  -27.5430 S   0  0  0  0  0  0  0  0  0  0  0  0
   -0.6850   25.8340  -26.4090 O   0  0  0  0  0  0  0  0  0  0  0  0
   -2.9400   25.2870  -27.1550 O   0  0  0  0  0  0  0  0  0  0  0  0
   -0.9700   23.5980  -27.8670 C   0  0  0  0  0  0  0  0  0  0  0  0
    0.2700   23.1710  -27.3680 C   0  0  0  0  0  0  0  0  0  0  0  0
    0.6990   21.8550  -27.5580 C   0  0  0  0  0  0  0  0  0  0  0  0
   -0.1070   20.9500  -28.2470 C   0  0  0  0  0  0  0  0  0  0  0  0
   -1.3390   21.3600  -28.7600 C   0  0  0  0  0  0  0  0  0  0  0  0
   -1.7770   22.6840  -28.5890 C   0  0  0  0  0  0  0  0  0  0  0  0
   -3.0740   23.0730  -29.1770 C   0  0  0  0  0  0  0  0  0  0  0  0
   -4.2500   22.4050  -28.8070 C   0  0  0  0  0  0  0  0  0  0  0  0
   -5.4780   22.7780  -29.3620 C   0  0  0  0  0  0  0  0  0  0  0  0
   -5.5470   23.8420  -30.2790 C   0  0  0  0  0  0  0  0  0  0  0  0
   -6.7820   24.2400  -30.8930 N   0  0  0  0  0  0  0  0  0  0  0  0
   -7.6850   23.3980  -31.6240 C   0  0  0  0  0  0  0  0  0  0  0  0
   -8.8510   23.8000  -31.8880 O   0  0  0  0  0  0  0  0  0  0  0  0
   -7.2300   22.0760  -32.1160 C   0  0  0  0  0  0  0  0  0  0  0  0
   -5.9250   21.9050  -32.6070 C   0  0  0  0  0  0  0  0  0  0  0  0
   -5.4980   20.6560  -33.0700 C   0  0  0  0  0  0  0  0  0  0  0  0
   -6.3650   19.5510  -33.0510 C   0  0  0  0  0  0  0  0  0  0  0  0
   -5.9110   18.2250  -33.5420 C   0  0  0  0  0  0  0  0  0  0  0  0
   -4.6670   18.0880  -34.1860 C   0  0  0  0  0  0  0  0  0  0  0  0
   -4.2420   16.8390  -34.6490 C   0  0  0  0  0  0  0  0  0  0  0  0
   -5.0500   15.7130  -34.4720 C   0  0  0  0  0  0  0  0  0  0  0  0
   -6.2850   15.8360  -33.8330 C   0  0  0  0  0  0  0  0  0  0  0  0
   -6.7160   17.0830  -33.3700 C   0  0  0  0  0  0  0  0  0  0  0  0
   -7.6710   19.7220  -32.5590 C   0  0  0  0  0  0  0  0  0  0  0  0
   -8.0980   20.9700  -32.0970 C   0  0  0  0  0  0  0  0  0  0  0  0
   -4.3690   24.5000  -30.6530 C   0  0  0  0  0  0  0  0  0  0  0  0
   -3.1420   24.1280  -30.0970 C   0  0  0  0  0  0  0  0  0  0  0  0
   -1.5740   25.6680  -29.7700 H   0  0  0  0  0  0  0  0  0  0  0  0
    0.9105   23.8792  -26.8219 H   0  0  0  0  0  0  0  0  0  0  0  0
    1.6739   21.5326  -27.1635 H   0  0  0  0  0  0  0  0  0  0  0  0
    0.2281   19.9116  -28.3866 H   0  0  0  0  0  0  0  0  0  0  0  0
   -1.9713   20.6413  -29.3019 H   0  0  0  0  0  0  0  0  0  0  0  0
   -4.2063   21.5836  -28.0766 H   0  0  0  0  0  0  0  0  0  0  0  0
   -6.3935   22.2372  -29.0803 H   0  0  0  0  0  0  0  0  0  0  0  0
   -5.2334   22.7601  -32.6275 H   0  0  0  0  0  0  0  0  0  0  0  0
   -4.4735   20.5380  -33.4526 H   0  0  0  0  0  0  0  0  0  0  0  0
   -4.0245   18.9698  -34.3261 H   0  0  0  0  0  0  0  0  0  0  0  0
   -3.2694   16.7427  -35.1537 H   0  0  0  0  0  0  0  0  0  0  0  0
   -4.7134   14.7309  -34.8357 H   0  0  0  0  0  0  0  0  0  0  0  0
   -6.9209   14.9494  -33.6933 H   0  0  0  0  0  0  0  0  0  0  0  0
   -7.6907   17.1723  -32.8680 H   0  0  0  0  0  0  0  0  0  0  0  0
   -8.3623   18.8666  -32.5375 H   0  0  0  0  0  0  0  0  0  0  0  0
   -9.1227   21.0881  -31.7149 H   0  0  0  0  0  0  0  0  0  0  0  0
   -4.4096   25.3157  -31.3899 H   0  0  0  0  0  0  0  0  0  0  0  0
   -2.2258   24.6655  -30.3827 H   0  0  0  0  0  0  0  0  0  0  0  0
  1  2  1  0
  2  3  2  0
  2  4  2  0
  2  5  1  0
  5  6  2  0
  6  7  1  0
  7  8  2  0
  8  9  1  0
  9 10  2  0
 10 11  1  0
 11 12  2  0
 12 13  1  0
 13 14  2  0
 14 15  1  0
 15 16  1  0
 16 17  2  0
 16 18  1  0
 18 19  2  0
 19 20  1  0
 20 21  2  0
 21 22  1  0
 22 23  2  0
 23 24  1  0
 24 25  2  0
 25 26  1  0
 26 27  2  0
 21 28  1  0
 28 29  2  0
 14 30  1  0
 30 31  2  0
 10  5  1  0
 31 11  1  0
 29 18  1  0
 27 22  1  0
  1 32  1  0
  6 33  1  0
  7 34  1  0
  8 35  1  0
  9 36  1  0
 12 37  1  0
 13 38  1  0
 19 39  1  0
 20 40  1  0
 23 41  1  0
 24 42  1  0
 25 43  1  0
 26 44  1  0
 27 45  1  0
 28 46  1  0
 29 47  1  0
 30 48  1  0
 31 49  1  0
M  CHG  2   1  -1  15  -1
M  END
>  <UniqueID>  (20) 
20

>  <SMILES>  (20) 
[NH-]S(=O)(=O)c1ccccc1-c1ccc([N-]C(=O)c2ccc(-c3ccccc3)cc2)cc1

>  <Energy>  (20) 
72.18772345654067

>  <Genealogy>  (20) 
[NH-]S(=O)(=O)c1ccccc1-c1ccc([N-]C(=O)c2ccc(-c3ccccc3)cc2)cc1 (protonated)
[NH-]S(=O)(=O)c1ccccc1-c1ccc([N-]C(=O)c2ccc(-c3ccccc3)cc2)cc1 (3D coordinates assigned)
[NH-]S(=O)(=O)c1ccccc1-c1ccc([N-]C(=O)c2ccc(-c3ccccc3)cc2)cc1 (optimized conformer: 72.18772345654067 kcal/mol)

>  <smiles>  (20) 
NS(=O)(=O)c1ccccc1-c1ccc(NC(=O)c2ccc(-c3ccccc3)cc2)cc1

>  <score_type>  (20) 
oracle

>  <origin>  (20) 
adgpu

>  <m_score__min__energy>  (20) 
-11.59

>  <m_primary>  (20) 
energy

$$$$
20:0
     RDKit          3D

 42 45  0  0  0  0  0  0  0  0999 V2000
   -3.8650   25.2900  -30.8320 O   0  0  0  0  0  0  0  0  0  0  0  0
   -4.1060   24.3760  -30.0010 C   0  0  0  0  0  0  0  0  0  0  0  0
   -3.9490   24.6640  -28.6060 N   0  0  0  0  0  0  0  0  0  0  0  0
   -2.7080   24.6810  -27.8860 C   0  0  0  0  0  0  0  0  0  0  0  0
   -2.6650   24.9180  -26.4990 C   0  0  0  0  0  0  0  0  0  0  0  0
   -1.4400   24.9190  -25.8260 C   0  0  0  0  0  0  0  0  0  0  0  0
   -0.2560   24.6670  -26.5230 C   0  0  0  0  0  0  0  0  0  0  0  0
   -0.2940   24.4040  -27.8990 C   0  0  0  0  0  0  0  0  0  0  0  0
    0.8780   24.1410  -28.6040 O   0  0  0  0  0  0  0  0  0  0  0  0
   -1.5200   24.4050  -28.5730 C   0  0  0  0  0  0  0  0  0  0  0  0
   -4.5880   23.0560  -30.4720 C   0  0  0  0  0  0  0  0  0  0  0  0
   -5.8400   22.7760  -30.9870 C   0  0  0  0  0  0  0  0  0  0  0  0
   -5.9300   21.4470  -31.2080 N   0  0  0  0  0  0  0  0  0  0  0  0
   -7.0690   20.7270  -31.7220 C   0  0  0  0  0  0  0  0  0  0  0  0
   -6.9550   19.3910  -32.1560 C   0  0  0  0  0  0  0  0  0  0  0  0
   -8.0690   18.7100  -32.6560 C   0  0  0  0  0  0  0  0  0  0  0  0
   -9.3070   19.3530  -32.7340 C   0  0  0  0  0  0  0  0  0  0  0  0
   -9.4320   20.6790  -32.3140 C   0  0  0  0  0  0  0  0  0  0  0  0
   -8.3200   21.3650  -31.8140 C   0  0  0  0  0  0  0  0  0  0  0  0
   -4.7880   20.8660  -30.8740 N   0  0  0  0  0  0  0  0  0  0  0  0
   -3.9460   21.8220  -30.4350 C   0  0  0  0  0  0  0  0  0  0  0  0
   -2.5810   21.5230  -29.9690 C   0  0  0  0  0  0  0  0  0  0  0  0
   -2.3620   20.8090  -28.7830 C   0  0  0  0  0  0  0  0  0  0  0  0
   -1.0590   20.5700  -28.3430 C   0  0  0  0  0  0  0  0  0  0  0  0
    0.0150   21.0650  -29.0870 C   0  0  0  0  0  0  0  0  0  0  0  0
   -0.2140   21.7790  -30.2210 N   0  0  0  0  0  0  0  0  0  0  0  0
   -1.4740   22.0230  -30.6700 C   0  0  0  0  0  0  0  0  0  0  0  0
   -3.5967   25.1026  -25.9442 H   0  0  0  0  0  0  0  0  0  0  0  0
   -1.4082   25.1187  -24.7448 H   0  0  0  0  0  0  0  0  0  0  0  0
    0.7070   24.6750  -25.9914 H   0  0  0  0  0  0  0  0  0  0  0  0
    0.9250   23.4060  -29.2990 H   0  0  0  0  0  0  0  0  0  0  0  0
   -1.5506   24.1873  -29.6508 H   0  0  0  0  0  0  0  0  0  0  0  0
   -6.6318   23.5137  -31.1841 H   0  0  0  0  0  0  0  0  0  0  0  0
   -5.9823   18.8802  -32.1009 H   0  0  0  0  0  0  0  0  0  0  0  0
   -7.9706   17.6661  -32.9886 H   0  0  0  0  0  0  0  0  0  0  0  0
  -10.1827   18.8151  -33.1260 H   0  0  0  0  0  0  0  0  0  0  0  0
  -10.4067   21.1850  -32.3764 H   0  0  0  0  0  0  0  0  0  0  0  0
   -8.4243   22.4111  -31.4903 H   0  0  0  0  0  0  0  0  0  0  0  0
   -3.2168   20.4370  -28.1990 H   0  0  0  0  0  0  0  0  0  0  0  0
   -0.8797   19.9982  -27.4206 H   0  0  0  0  0  0  0  0  0  0  0  0
    1.0467   20.8769  -28.7549 H   0  0  0  0  0  0  0  0  0  0  0  0
   -1.6255   22.6140  -31.5853 H   0  0  0  0  0  0  0  0  0  0  0  0
  1  2  2  0
  2  3  1  0
  3  4  1  0
  4  5  2  0
  5  6  1  0
  6  7  2  0
  7  8  1  0
  8  9  1  0
  8 10  2  0
  2 11  1  0
 11 12  2  0
 12 13  1  0
 13 14  1  0
 14 15  2  0
 15 16  1  0
 16 17  2  0
 17 18  1  0
 18 19  2  0
 13 20  1  0
 20 21  2  0
 21 22  1  0
 22 23  2  0
 23 24  1  0
 24 25  2  0
 25 26  1  0
 26 27  2  0
 10  4  1  0
 21 11  1  0
 27 22  1  0
 19 14  1  0
  5 28  1  0
  6 29  1  0
  7 30  1  0
  9 31  1  0
 10 32  1  0
 12 33  1  0
 15 34  1  0
 16 35  1  0
 17 36  1  0
 18 37  1  0
 19 38  1  0
 23 39  1  0
 24 40  1  0
 25 41  1  0
 27 42  1  0
M  CHG  1   3  -1
M  END
>  <UniqueID>  (21) 
21

>  <SMILES>  (21) 
O=C([N-]c1cccc(O)c1)c1cn(-c2ccccc2)nc1-c1cccnc1

>  <Energy>  (21) 
92.39702267735329

>  <Genealogy>  (21) 
O=C([N-]c1cccc(O)c1)c1cn(-c2ccccc2)nc1-c1cccnc1 (protonated)
O=C([N-]c1cccc(O)c1)c1cn(-c2ccccc2)nc1-c1cccnc1 (3D coordinates assigned)
O=C([N-]c1cccc(O)c1)c1cn(-c2ccccc2)nc1-c1cccnc1 (optimized conformer: 92.39702267735329 kcal/mol)

>  <smiles>  (21) 
O=C(Nc1cccc(O)c1)c1cn(-c2ccccc2)nc1-c1cccnc1

>  <score_type>  (21) 
oracle

>  <origin>  (21) 
adgpu

>  <m_score__min__energy>  (21) 
-9.6699999999999999

>  <m_primary>  (21) 
energy

$$$$
21:0
     RDKit          3D

 70 73  0  0  0  0  0  0  0  0999 V2000
    0.6460   24.9130  -27.1480 C   0  0  0  0  0  0  0  0  0  0  0  0
   -0.1310   24.9440  -28.3420 O   0  0  0  0  0  0  0  0  0  0  0  0
   -1.3660   24.2960  -28.5020 C   0  0  0  0  0  0  0  0  0  0  0  0
   -1.7020   23.1400  -27.7780 C   0  0  0  0  0  0  0  0  0  0  0  0
   -2.9460   22.5470  -27.9700 C   0  0  0  0  0  0  0  0  0  0  0  0
   -3.8480   23.0950  -28.8810 C   0  0  0  0  0  0  0  0  0  0  0  0
   -3.4840   24.2450  -29.6110 C   0  0  0  0  0  0  0  0  0  0  0  0
   -4.2920   24.8100  -30.4690 N   0  0  0  0  0  0  0  0  0  0  0  0
   -5.5770   24.3310  -30.8950 C   0  0  0  0  0  0  0  0  0  0  0  0
   -6.5970   25.0250  -30.6370 O   0  0  0  0  0  0  0  0  0  0  0  0
   -5.7200   23.0850  -31.6850 C   0  0  0  0  0  0  0  0  0  0  0  0
   -6.9560   22.4200  -31.7370 C   0  0  0  0  0  0  0  0  0  0  0  0
   -7.0890   21.2100  -32.4460 C   0  0  0  0  0  0  0  0  0  0  0  0
   -8.2900   20.4820  -32.4820 O   0  0  0  0  0  0  0  0  0  0  0  0
   -8.5850   19.3370  -31.6820 C   0  0  0  0  0  0  0  0  0  0  0  0
   -7.3210   18.6020  -31.3120 C   0  0  0  0  0  0  0  0  0  0  0  0
   -6.6930   17.7430  -32.1410 C   0  0  0  0  0  0  0  0  0  0  0  0
   -5.4440   17.0530  -31.6600 C   0  0  0  0  0  0  0  0  0  0  0  0
   -7.2160   17.4640  -33.5290 C   0  0  0  0  0  0  0  0  0  0  0  0
   -5.9860   20.6970  -33.1350 C   0  0  0  0  0  0  0  0  0  0  0  0
   -4.7540   21.3720  -33.1210 C   0  0  0  0  0  0  0  0  0  0  0  0
   -3.6280   20.8710  -33.7900 O   0  0  0  0  0  0  0  0  0  0  0  0
   -2.4900   20.3270  -33.1770 C   0  0  0  0  0  0  0  0  0  0  0  0
   -2.3010   18.9370  -33.0560 C   0  0  0  0  0  0  0  0  0  0  0  0
   -1.1430   18.4350  -32.4550 C   0  0  0  0  0  0  0  0  0  0  0  0
   -0.1550   19.3100  -31.9810 C   0  0  0  0  0  0  0  0  0  0  0  0
    1.3100   18.6760  -31.2280 S   0  0  0  0  0  0  0  0  0  0  0  0
    2.4030   19.7040  -31.3290 O   0  0  0  0  0  0  0  0  0  0  0  0
    1.7550   17.4500  -31.9750 O   0  0  0  0  0  0  0  0  0  0  0  0
    1.0560   18.2660  -29.5490 N   0  0  0  0  0  0  0  0  0  0  0  0
    0.8330   16.8220  -29.3980 C   0  0  0  0  0  0  0  0  0  0  0  0
    0.6560   16.4750  -27.9030 C   0  0  0  0  0  0  0  0  0  0  0  0
    0.5350   17.6310  -27.0900 O   0  0  0  0  0  0  0  0  0  0  0  0
   -0.4710   18.4810  -27.6060 C   0  0  0  0  0  0  0  0  0  0  0  0
   -0.0830   19.0190  -28.9990 C   0  0  0  0  0  0  0  0  0  0  0  0
   -0.3370   20.6920  -32.1170 C   0  0  0  0  0  0  0  0  0  0  0  0
   -1.4930   21.1950  -32.7180 C   0  0  0  0  0  0  0  0  0  0  0  0
   -4.6240   22.5500  -32.3800 C   0  0  0  0  0  0  0  0  0  0  0  0
   -2.2620   24.8120  -29.3910 N   0  0  0  0  0  0  0  0  0  0  0  0
   -0.0224   24.9397  -26.2748 H   0  0  0  0  0  0  0  0  0  0  0  0
    1.2443   23.9903  -27.1237 H   0  0  0  0  0  0  0  0  0  0  0  0
    1.3159   25.7851  -27.1237 H   0  0  0  0  0  0  0  0  0  0  0  0
   -0.9863   22.7064  -27.0640 H   0  0  0  0  0  0  0  0  0  0  0  0
   -3.2181   21.6449  -27.4024 H   0  0  0  0  0  0  0  0  0  0  0  0
   -4.8357   22.6339  -29.0290 H   0  0  0  0  0  0  0  0  0  0  0  0
   -7.8275   22.8476  -31.2197 H   0  0  0  0  0  0  0  0  0  0  0  0
   -9.0959   19.6609  -30.7633 H   0  0  0  0  0  0  0  0  0  0  0  0
   -9.2303   18.6595  -32.2605 H   0  0  0  0  0  0  0  0  0  0  0  0
   -6.8892   18.7753  -30.3152 H   0  0  0  0  0  0  0  0  0  0  0  0
   -5.4298   17.0452  -30.5601 H   0  0  0  0  0  0  0  0  0  0  0  0
   -5.4292   16.0187  -32.0343 H   0  0  0  0  0  0  0  0  0  0  0  0
   -4.5606   17.5910  -32.0343 H   0  0  0  0  0  0  0  0  0  0  0  0
   -8.1846   16.9473  -33.4589 H   0  0  0  0  0  0  0  0  0  0  0  0
   -7.3450   18.4131  -34.0699 H   0  0  0  0  0  0  0  0  0  0  0  0
   -6.4996   16.8282  -34.0699 H   0  0  0  0  0  0  0  0  0  0  0  0
   -6.0838   19.7547  -33.6941 H   0  0  0  0  0  0  0  0  0  0  0  0
   -3.0666   18.2442  -33.4354 H   0  0  0  0  0  0  0  0  0  0  0  0
   -1.0061   17.3483  -32.3534 H   0  0  0  0  0  0  0  0  0  0  0  0
   -0.0732   16.5324  -29.9502 H   0  0  0  0  0  0  0  0  0  0  0  0
    1.7001   16.2761  -29.7981 H   0  0  0  0  0  0  0  0  0  0  0  0
   -0.2520   15.8650  -27.7871 H   0  0  0  0  0  0  0  0  0  0  0  0
    1.5532   15.9284  -27.5772 H   0  0  0  0  0  0  0  0  0  0  0  0
   -1.4113   17.9161  -27.6882 H   0  0  0  0  0  0  0  0  0  0  0  0
   -0.5913   19.3347  -26.9228 H   0  0  0  0  0  0  0  0  0  0  0  0
   -0.9433   18.9189  -29.6772 H   0  0  0  0  0  0  0  0  0  0  0  0
    0.2057   20.0760  -28.9020 H   0  0  0  0  0  0  0  0  0  0  0  0
    0.4342   21.3845  -31.7487 H   0  0  0  0  0  0  0  0  0  0  0  0
   -1.6207   22.2817  -32.8314 H   0  0  0  0  0  0  0  0  0  0  0  0
   -3.6520   23.0635  -32.3410 H   0  0  0  0  0  0  0  0  0  0  0  0
   -1.9940   25.6720  -29.9230 H   0  0  0  0  0  0  0  0  0  0  0  0
  1  2  1  0
  2  3  1  0
  3  4  2  0
  4  5  1  0
  5  6  2  0
  6  7  1  0
  7  8  2  3
  8  9  1  0
  9 10  2  0
  9 11  1  0
 11 12  2  0
 12 13  1  0
 13 14  1  0
 14 15  1  0
 15 16  1  0
 16 17  2  3
 17 18  1  0
 17 19  1  0
 13 20  2  0
 20 21  1  0
 21 22  1  0
 22 23  1  0
 23 24  2  0
 24 25  1  0
 25 26  2  0
 26 27  1  0
 27 28  2  0
 27 29  2  0
 27 30  1  0
 30 31  1  0
 31 32  1  0
 32 33  1  0
 33 34  1  0
 34 35  1  0
 26 36  1  0
 36 37  2  0
 21 38  2  0
  7 39  1  0
 39  3  1  0
 38 11  1  0
 37 23  1  0
 35 30  1  0
  1 40  1  0
  1 41  1  0
  1 42  1  0
  4 43  1  0
  5 44  1  0
  6 45  1  0
 12 46  1  0
 15 47  1  0
 15 48  1  0
 16 49  1  0
 18 50  1  0
 18 51  1  0
 18 52  1  0
 19 53  1  0
 19 54  1  0
 19 55  1  0
 20 56  1  0
 24 57  1  0
 25 58  1  0
 31 59  1  0
 31 60  1  0
 32 61  1  0
 32 62  1  0
 34 63  1  0
 34 64  1  0
 35 65  1  0
 35 66  1  0
 36 67  1  0
 37 68  1  0
 38 69  1  0
 39 70  1  0
M  END
>  <UniqueID>  (22) 
22

>  <SMILES>  (22) 
COc1cccc(=NC(=O)c2cc(OCC=C(C)C)cc(Oc3ccc(S(=O)(=O)N4CCOCC4)cc3)c2)[nH]1

>  <Energy>  (22) 
91.86091338552274

>  <Genealogy>  (22) 
COc1cccc(=NC(=O)c2cc(OCC=C(C)C)cc(Oc3ccc(S(=O)(=O)N4CCOCC4)cc3)c2)[nH]1 (3D coordinates assigned)
COc1cccc(=NC(=O)c2cc(OCC=C(C)C)cc(Oc3ccc(S(=O)(=O)N4CCOCC4)cc3)c2)[nH]1 (nonaromatic ring conformer: 91.86091338552274 kcal/mol)

>  <smiles>  (22) 
COc1cccc(=NC(=O)c2cc(OCC=C(C)C)cc(Oc3ccc(S(=O)(=O)N4CCOCC4)cc3)c2)[nH]1

>  <score_type>  (22) 
oracle

>  <origin>  (22) 
adgpu

>  <m_score__min__energy>  (22) 
-11.359999999999999

>  <m_primary>  (22) 
energy

$$$$
22:0
     RDKit          3D

 33 35  0  0  0  0  0  0  0  0999 V2000
   -2.2260   24.7720  -28.1650 C   0  0  0  0  0  0  0  0  0  0  0  0
   -2.8080   25.2920  -29.3550 O   0  0  0  0  0  0  0  0  0  0  0  0
   -3.8140   24.6490  -30.0920 C   0  0  0  0  0  0  0  0  0  0  0  0
   -5.0960   25.2090  -30.0970 C   0  0  0  0  0  0  0  0  0  0  0  0
   -6.1320   24.6000  -30.8080 C   0  0  0  0  0  0  0  0  0  0  0  0
   -5.8940   23.4280  -31.5280 C   0  0  0  0  0  0  0  0  0  0  0  0
   -4.6120   22.8580  -31.5530 C   0  0  0  0  0  0  0  0  0  0  0  0
   -4.3700   21.6130  -32.3130 C   0  0  0  0  0  0  0  0  0  0  0  0
   -3.1520   21.2090  -32.8550 C   0  0  0  0  0  0  0  0  0  0  0  0
   -3.2930   20.0270  -33.4980 N   0  0  0  0  0  0  0  0  0  0  0  0
   -2.2360   19.2780  -34.1710 C   0  0  0  0  0  0  0  0  0  0  0  0
   -4.5820   19.6640  -33.3530 C   0  0  0  0  0  0  0  0  0  0  0  0
   -5.2000   18.4980  -33.8110 C   0  0  0  0  0  0  0  0  0  0  0  0
   -6.5600   18.3070  -33.5070 C   0  0  0  0  0  0  0  0  0  0  0  0
   -7.2650   19.2660  -32.7480 C   0  0  0  0  0  0  0  0  0  0  0  0
   -9.1030   18.9770  -32.3220 Br  0  0  0  0  0  0  0  0  0  0  0  0
   -6.6170   20.4300  -32.2940 C   0  0  0  0  0  0  0  0  0  0  0  0
   -5.2730   20.6080  -32.6320 C   0  0  0  0  0  0  0  0  0  0  0  0
   -3.5770   23.4640  -30.8190 C   0  0  0  0  0  0  0  0  0  0  0  0
   -2.7227   25.2158  -27.2896 H   0  0  0  0  0  0  0  0  0  0  0  0
   -2.3511   23.6794  -28.1428 H   0  0  0  0  0  0  0  0  0  0  0  0
   -1.1543   25.0189  -28.1428 H   0  0  0  0  0  0  0  0  0  0  0  0
   -5.2893   26.1357  -29.5368 H   0  0  0  0  0  0  0  0  0  0  0  0
   -7.1380   25.0448  -30.8007 H   0  0  0  0  0  0  0  0  0  0  0  0
   -6.7164   22.9484  -32.0791 H   0  0  0  0  0  0  0  0  0  0  0  0
   -2.2100   21.7708  -32.7720 H   0  0  0  0  0  0  0  0  0  0  0  0
   -1.5804   18.8135  -33.4197 H   0  0  0  0  0  0  0  0  0  0  0  0
   -2.6848   18.4953  -34.8002 H   0  0  0  0  0  0  0  0  0  0  0  0
   -1.6463   19.9609  -34.8002 H   0  0  0  0  0  0  0  0  0  0  0  0
   -4.6395   17.7511  -34.3924 H   0  0  0  0  0  0  0  0  0  0  0  0
   -7.0778   17.4042  -33.8631 H   0  0  0  0  0  0  0  0  0  0  0  0
   -7.1529   21.1776  -31.6908 H   0  0  0  0  0  0  0  0  0  0  0  0
   -2.5749   23.0104  -30.8118 H   0  0  0  0  0  0  0  0  0  0  0  0
  1  2  1  0
  2  3  1  0
  3  4  2  0
  4  5  1  0
  5  6  2  0
  6  7  1  0
  7  8  1  0
  8  9  2  0
  9 10  1  0
 10 11  1  0
 10 12  1  0
 12 13  2  0
 13 14  1  0
 14 15  2  0
 15 16  1  0
 15 17  1  0
 17 18  2  0
  7 19  2  0
 19  3  1  0
 18  8  1  0
 18 12  1  0
  1 20  1  0
  1 21  1  0
  1 22  1  0
  4 23  1  0
  5 24  1  0
  6 25  1  0
  9 26  1  0
 11 27  1  0
 11 28  1  0
 11 29  1  0
 13 30  1  0
 14 31  1  0
 17 32  1  0
 19 33  1  0
M  END
>  <UniqueID>  (23) 
23

>  <SMILES>  (23) 
COc1cccc(-c2cn(C)c3ccc(Br)cc23)c1

>  <Energy>  (23) 
71.97130598797426

>  <Genealogy>  (23) 
COc1cccc(-c2cn(C)c3ccc(Br)cc23)c1 (3D coordinates assigned)
COc1cccc(-c2cn(C)c3ccc(Br)cc23)c1 (optimized conformer: 71.97130598797426 kcal/mol)

>  <smiles>  (23) 
COc1cccc(-c2cn(C)c3ccc(Br)cc23)c1

>  <score_type>  (23) 
oracle

>  <origin>  (23) 
adgpu

>  <m_score__min__energy>  (23) 
-8.5199999999999996

>  <m_primary>  (23) 
energy

$$$$
23:0
     RDKit          3D

 53 56  0  0  0  0  0  0  0  0999 V2000
   -0.9230   18.0030  -34.6290 C   0  0  0  0  0  0  0  0  0  0  0  0
   -0.1130   19.1030  -35.2370 C   0  0  0  0  0  0  0  0  0  0  0  0
    0.7520   18.9190  -36.2070 O   0  0  0  0  0  0  0  0  0  0  0  0
    1.3410   20.0350  -36.5310 N   0  0  0  0  0  0  0  0  0  0  0  0
    0.8330   21.0020  -35.7410 C   0  0  0  0  0  0  0  0  0  0  0  0
    1.2390   22.4200  -35.8430 C   0  0  0  0  0  0  0  0  0  0  0  0
    2.5790   22.8050  -35.6610 C   0  0  0  0  0  0  0  0  0  0  0  0
    2.9430   24.1530  -35.7420 C   0  0  0  0  0  0  0  0  0  0  0  0
    1.9730   25.1260  -35.9920 C   0  0  0  0  0  0  0  0  0  0  0  0
    0.6360   24.7560  -36.1540 C   0  0  0  0  0  0  0  0  0  0  0  0
    0.2680   23.4090  -36.0720 C   0  0  0  0  0  0  0  0  0  0  0  0
   -0.1140   20.4440  -34.8920 C   0  0  0  0  0  0  0  0  0  0  0  0
   -0.8310   21.0820  -33.7700 C   0  0  0  0  0  0  0  0  0  0  0  0
   -0.1730   21.5620  -32.8070 O   0  0  0  0  0  0  0  0  0  0  0  0
   -2.2630   21.1860  -33.7870 N   0  0  0  0  0  0  0  0  0  0  0  0
   -3.0570   21.4250  -32.6140 C   0  0  0  0  0  0  0  0  0  0  0  0
   -2.4940   21.2130  -31.3460 C   0  0  0  0  0  0  0  0  0  0  0  0
   -3.2480   21.4380  -30.1910 C   0  0  0  0  0  0  0  0  0  0  0  0
   -4.5650   21.8930  -30.2910 C   0  0  0  0  0  0  0  0  0  0  0  0
   -5.1280   22.1430  -31.5490 C   0  0  0  0  0  0  0  0  0  0  0  0
   -6.7950   22.6870  -31.6780 S   0  0  0  0  0  0  0  0  0  0  0  0
   -6.9490   23.6000  -32.8620 O   0  0  0  0  0  0  0  0  0  0  0  0
   -7.1770   23.4530  -30.4440 O   0  0  0  0  0  0  0  0  0  0  0  0
   -7.8190   21.2990  -31.8690 N   0  0  0  0  0  0  0  0  0  0  0  0
   -9.2630   21.5070  -31.9300 C   0  0  0  0  0  0  0  0  0  0  0  0
   -7.2490   20.0850  -32.3760 C   0  0  0  0  0  0  0  0  0  0  0  0
   -6.6700   20.0490  -33.6550 C   0  0  0  0  0  0  0  0  0  0  0  0
   -6.1100   18.8630  -34.1410 C   0  0  0  0  0  0  0  0  0  0  0  0
   -6.1240   17.7080  -33.3530 C   0  0  0  0  0  0  0  0  0  0  0  0
   -6.7000   17.7370  -32.0800 C   0  0  0  0  0  0  0  0  0  0  0  0
   -7.2600   18.9210  -31.5910 C   0  0  0  0  0  0  0  0  0  0  0  0
   -4.3740   21.9090  -32.7070 C   0  0  0  0  0  0  0  0  0  0  0  0
   -0.8716   18.0728  -33.5324 H   0  0  0  0  0  0  0  0  0  0  0  0
   -1.9699   18.0960  -34.9536 H   0  0  0  0  0  0  0  0  0  0  0  0
   -0.5234   17.0309  -34.9536 H   0  0  0  0  0  0  0  0  0  0  0  0
    3.3445   22.0426  -35.4540 H   0  0  0  0  0  0  0  0  0  0  0  0
    3.9945   24.4471  -35.6086 H   0  0  0  0  0  0  0  0  0  0  0  0
    2.2623   26.1850  -36.0614 H   0  0  0  0  0  0  0  0  0  0  0  0
   -0.1277   25.5240  -36.3461 H   0  0  0  0  0  0  0  0  0  0  0  0
   -0.7877   23.1225  -36.1875 H   0  0  0  0  0  0  0  0  0  0  0  0
   -2.7390   21.1910  -34.7160 H   0  0  0  0  0  0  0  0  0  0  0  0
   -1.4531   20.8677  -31.2608 H   0  0  0  0  0  0  0  0  0  0  0  0
   -2.8036   21.2565  -29.2013 H   0  0  0  0  0  0  0  0  0  0  0  0
   -5.1607   22.0552  -29.3806 H   0  0  0  0  0  0  0  0  0  0  0  0
   -9.6685   21.5654  -30.9091 H   0  0  0  0  0  0  0  0  0  0  0  0
   -9.4761   22.4451  -32.4634 H   0  0  0  0  0  0  0  0  0  0  0  0
   -9.7322   20.6672  -32.4634 H   0  0  0  0  0  0  0  0  0  0  0  0
   -6.6569   20.9565  -34.2766 H   0  0  0  0  0  0  0  0  0  0  0  0
   -5.6583   18.8389  -35.1437 H   0  0  0  0  0  0  0  0  0  0  0  0
   -5.6815   16.7763  -33.7352 H   0  0  0  0  0  0  0  0  0  0  0  0
   -6.7128   16.8271  -31.4620 H   0  0  0  0  0  0  0  0  0  0  0  0
   -7.7108   18.9407  -30.5878 H   0  0  0  0  0  0  0  0  0  0  0  0
   -4.8154   22.1053  -33.6953 H   0  0  0  0  0  0  0  0  0  0  0  0
  1  2  1  0
  2  3  1  0
  3  4  1  0
  4  5  2  0
  5  6  1  0
  6  7  2  0
  7  8  1  0
  8  9  2  0
  9 10  1  0
 10 11  2  0
  5 12  1  0
 12 13  1  0
 13 14  2  0
 13 15  1  0
 15 16  1  0
 16 17  2  0
 17 18  1  0
 18 19  2  0
 19 20  1  0
 20 21  1  0
 21 22  2  0
 21 23  2  0
 21 24  1  0
 24 25  1  0
 24 26  1  0
 26 27  2  0
 27 28  1  0
 28 29  2  0
 29 30  1  0
 30 31  2  0
 20 32  2  0
 12  2  2  0
 32 16  1  0
 11  6  1  0
 31 26  1  0
  1 33  1  0
  1 34  1  0
  1 35  1  0
  7 36  1  0
  8 37  1  0
  9 38  1  0
 10 39  1  0
 11 40  1  0
 15 41  1  0
 17 42  1  0
 18 43  1  0
 19 44  1  0
 25 45  1  0
 25 46  1  0
 25 47  1  0
 27 48  1  0
 28 49  1  0
 29 50  1  0
 30 51  1  0
 31 52  1  0
 32 53  1  0
M  END
>  <UniqueID>  (24) 
24

>  <SMILES>  (24) 
Cc1onc(-c2ccccc2)c1C(=O)Nc1cccc(S(=O)(=O)N(C)c2ccccc2)c1

>  <Energy>  (24) 
102.5140382491495

>  <Genealogy>  (24) 
Cc1onc(-c2ccccc2)c1C(=O)Nc1cccc(S(=O)(=O)N(C)c2ccccc2)c1 (3D coordinates assigned)
Cc1onc(-c2ccccc2)c1C(=O)Nc1cccc(S(=O)(=O)N(C)c2ccccc2)c1 (optimized conformer: 102.5140382491495 kcal/mol)

>  <smiles>  (24) 
Cc1onc(-c2ccccc2)c1C(=O)Nc1cccc(S(=O)(=O)N(C)c2ccccc2)c1

>  <score_type>  (24) 
oracle

>  <origin>  (24) 
adgpu

>  <m_score__min__energy>  (24) 
-10.66

>  <m_primary>  (24) 
energy

$$$$
24:0
     RDKit          3D

 56 59  0  0  0  0  0  0  0  0999 V2000
   -6.7300   15.3820  -34.2140 C   0  0  0  0  0  0  0  0  0  0  0  0
   -5.2990   15.8950  -34.0600 C   0  0  0  0  0  0  0  0  0  0  0  0
   -5.2770   17.2840  -33.5510 N   0  0  0  0  0  0  0  0  0  0  0  0
   -6.1280   17.3980  -32.3510 C   0  0  0  0  0  0  0  0  0  0  0  0
   -5.9370   18.7770  -31.7130 C   0  0  0  0  0  0  0  0  0  0  0  0
   -5.9910   19.8310  -32.7300 N   0  0  0  0  0  0  0  0  0  0  0  0
   -5.6850   21.1890  -32.3700 C   0  0  0  0  0  0  0  0  0  0  0  0
   -6.3280   21.7630  -31.3900 N   0  0  0  0  0  0  0  0  0  0  0  0
   -6.0990   23.1110  -30.9220 C   0  0  0  0  0  0  0  0  0  0  0  0
   -7.2080   23.8530  -30.4820 C   0  0  0  0  0  0  0  0  0  0  0  0
   -7.0450   25.1300  -29.9420 C   0  0  0  0  0  0  0  0  0  0  0  0
   -5.7700   25.6740  -29.8080 C   0  0  0  0  0  0  0  0  0  0  0  0
   -4.6530   24.9460  -30.2210 C   0  0  0  0  0  0  0  0  0  0  0  0
   -4.7970   23.6750  -30.7940 C   0  0  0  0  0  0  0  0  0  0  0  0
   -3.5980   22.9660  -31.1470 N   0  0  0  0  0  0  0  0  0  0  0  0
   -3.4560   22.1370  -32.1400 C   0  0  0  0  0  0  0  0  0  0  0  0
   -2.1610   21.4310  -32.3050 C   0  0  0  0  0  0  0  0  0  0  0  0
   -1.4480   20.9970  -31.1780 C   0  0  0  0  0  0  0  0  0  0  0  0
   -0.2340   20.3230  -31.3220 C   0  0  0  0  0  0  0  0  0  0  0  0
    0.2910   20.0590  -32.5960 C   0  0  0  0  0  0  0  0  0  0  0  0
    1.6050   19.3330  -32.7180 C   0  0  0  0  0  0  0  0  0  0  0  0
   -0.4170   20.4930  -33.7410 C   0  0  0  0  0  0  0  0  0  0  0  0
    0.1010   20.2260  -35.1300 C   0  0  0  0  0  0  0  0  0  0  0  0
   -1.6430   21.1610  -33.5840 C   0  0  0  0  0  0  0  0  0  0  0  0
   -4.5900   21.9070  -33.0980 C   0  0  0  0  0  0  0  0  0  0  0  0
   -6.4100   19.4970  -34.0930 C   0  0  0  0  0  0  0  0  0  0  0  0
   -5.6450   18.2640  -34.6110 C   0  0  0  0  0  0  0  0  0  0  0  0
   -7.1718   15.2236  -33.2191 H   0  0  0  0  0  0  0  0  0  0  0  0
   -7.3273   16.1220  -34.7669 H   0  0  0  0  0  0  0  0  0  0  0  0
   -6.7211   14.4311  -34.7669 H   0  0  0  0  0  0  0  0  0  0  0  0
   -4.7599   15.2462  -33.3540 H   0  0  0  0  0  0  0  0  0  0  0  0
   -4.8169   15.8802  -35.0486 H   0  0  0  0  0  0  0  0  0  0  0  0
   -7.1825   17.2701  -32.6368 H   0  0  0  0  0  0  0  0  0  0  0  0
   -5.8447   16.6192  -31.6277 H   0  0  0  0  0  0  0  0  0  0  0  0
   -6.7345   18.9467  -30.9746 H   0  0  0  0  0  0  0  0  0  0  0  0
   -4.9517   18.8071  -31.2248 H   0  0  0  0  0  0  0  0  0  0  0  0
   -7.1290   21.2480  -30.9590 H   0  0  0  0  0  0  0  0  0  0  0  0
   -8.2169   23.4225  -30.5640 H   0  0  0  0  0  0  0  0  0  0  0  0
   -7.9249   25.7074  -29.6219 H   0  0  0  0  0  0  0  0  0  0  0  0
   -5.6432   26.6778  -29.3765 H   0  0  0  0  0  0  0  0  0  0  0  0
   -3.6479   25.3748  -30.0953 H   0  0  0  0  0  0  0  0  0  0  0  0
   -1.8488   21.1894  -30.1719 H   0  0  0  0  0  0  0  0  0  0  0  0
    0.3165   19.9956  -30.4277 H   0  0  0  0  0  0  0  0  0  0  0  0
    1.9984   19.1156  -31.7140 H   0  0  0  0  0  0  0  0  0  0  0  0
    1.4538   18.3904  -33.2645 H   0  0  0  0  0  0  0  0  0  0  0  0
    2.3225   19.9627  -33.2645 H   0  0  0  0  0  0  0  0  0  0  0  0
    1.0771   19.7229  -35.0669 H   0  0  0  0  0  0  0  0  0  0  0  0
   -0.6094   19.5818  -35.6687 H   0  0  0  0  0  0  0  0  0  0  0  0
    0.2136   21.1784  -35.6687 H   0  0  0  0  0  0  0  0  0  0  0  0
   -2.2058   21.4774  -34.4746 H   0  0  0  0  0  0  0  0  0  0  0  0
   -4.9627   22.8723  -33.4713 H   0  0  0  0  0  0  0  0  0  0  0  0
   -4.2468   21.3059  -33.9530 H   0  0  0  0  0  0  0  0  0  0  0  0
   -7.4885   19.2806  -34.0964 H   0  0  0  0  0  0  0  0  0  0  0  0
   -6.1902   20.3514  -34.7500 H   0  0  0  0  0  0  0  0  0  0  0  0
   -6.2776   17.7511  -35.3504 H   0  0  0  0  0  0  0  0  0  0  0  0
   -4.7023   18.6342  -35.0403 H   0  0  0  0  0  0  0  0  0  0  0  0
  1  2  1  0
  2  3  1  0
  3  4  1  0
  4  5  1  0
  5  6  1  0
  6  7  1  0
  7  8  2  0
  8  9  1  0
  9 10  2  0
 10 11  1  0
 11 12  2  0
 12 13  1  0
 13 14  2  0
 14 15  1  0
 15 16  2  0
 16 17  1  0
 17 18  2  0
 18 19  1  0
 19 20  2  0
 20 21  1  0
 20 22  1  0
 22 23  1  0
 22 24  2  0
 16 25  1  0
  6 26  1  0
 26 27  1  0
 27  3  1  0
 25  7  1  0
 14  9  1  0
 24 17  1  0
  1 28  1  0
  1 29  1  0
  1 30  1  0
  2 31  1  0
  2 32  1  0
  4 33  1  0
  4 34  1  0
  5 35  1  0
  5 36  1  0
  8 37  1  0
 10 38  1  0
 11 39  1  0
 12 40  1  0
 13 41  1  0
 18 42  1  0
 19 43  1  0
 21 44  1  0
 21 45  1  0
 21 46  1  0
 23 47  1  0
 23 48  1  0
 23 49  1  0
 24 50  1  0
 25 51  1  0
 25 52  1  0
 26 53  1  0
 26 54  1  0
 27 55  1  0
 27 56  1  0
M  CHG  1   8   1
M  END
>  <UniqueID>  (25) 
25

>  <SMILES>  (25) 
CCN1CCN(C2=[NH+]c3ccccc3N=C(c3ccc(C)c(C)c3)C2)CC1

>  <Energy>  (25) 
79.60873220869426

>  <Genealogy>  (25) 
CCN1CCN(C2=[NH+]c3ccccc3N=C(c3ccc(C)c(C)c3)C2)CC1 (protonated)
CCN1CCN(C2=[NH+]c3ccccc3N=C(c3ccc(C)c(C)c3)C2)CC1 (3D coordinates assigned)
CCN1CCN(C2=[NH+]c3ccccc3N=C(c3ccc(C)c(C)c3)C2)CC1 (nonaromatic ring conformer: 79.60873220869426 kcal/mol)

>  <smiles>  (25) 
CCN1CCN(C2=Nc3ccccc3N=C(c3ccc(C)c(C)c3)C2)CC1

>  <score_type>  (25) 
oracle

>  <origin>  (25) 
adgpu

>  <m_score__min__energy>  (25) 
-7.0700000000000003

>  <m_primary>  (25) 
energy

$$$$
25:0
     RDKit          3D

 51 53  0  0  0  0  0  0  0  0999 V2000
   -3.7913   22.5697  -31.1123 H   0  0  0  0  0  0  0  0  0  0  0  0
   -4.4380   23.3440  -30.6740 C   0  0  0  0  0  0  0  0  0  0  0  0
   -3.8080   24.5460  -30.0910 C   0  0  0  0  0  0  0  0  0  0  0  0
   -4.2010   25.6770  -30.4800 O   0  0  0  0  0  0  0  0  0  0  0  0
   -2.7590   24.4840  -29.0510 C   0  0  0  0  0  0  0  0  0  0  0  0
   -2.9310   24.5310  -27.6710 C   0  0  0  0  0  0  0  0  0  0  0  0
   -4.2340   24.5790  -26.9230 C   0  0  0  0  0  0  0  0  0  0  0  0
   -4.0361   24.5717  -25.8410 H   0  0  0  0  0  0  0  0  0  0  0  0
   -4.7766   25.4977  -27.1903 H   0  0  0  0  0  0  0  0  0  0  0  0
   -4.8428   23.7027  -27.1903 H   0  0  0  0  0  0  0  0  0  0  0  0
   -1.6580   24.4510  -27.1120 C   0  0  0  0  0  0  0  0  0  0  0  0
   -1.3140   24.4970  -25.6730 C   0  0  0  0  0  0  0  0  0  0  0  0
   -0.7750   23.5000  -25.1200 O   0  0  0  0  0  0  0  0  0  0  0  0
   -1.5760   25.6510  -24.9300 O   0  0  0  0  0  0  0  0  0  0  0  0
   -0.6680   26.1680  -23.9660 C   0  0  0  0  0  0  0  0  0  0  0  0
   -1.0449   25.9534  -22.9551 H   0  0  0  0  0  0  0  0  0  0  0  0
    0.3162   25.6948  -24.0985 H   0  0  0  0  0  0  0  0  0  0  0  0
   -0.5726   27.2558  -24.0985 H   0  0  0  0  0  0  0  0  0  0  0  0
   -0.7780   24.3240  -28.1810 C   0  0  0  0  0  0  0  0  0  0  0  0
    0.7120   24.1980  -28.1030 C   0  0  0  0  0  0  0  0  0  0  0  0
    1.0230   24.1717  -27.0482 H   0  0  0  0  0  0  0  0  0  0  0  0
    1.0281   23.2699  -28.6017 H   0  0  0  0  0  0  0  0  0  0  0  0
    1.1795   25.0598  -28.6017 H   0  0  0  0  0  0  0  0  0  0  0  0
   -1.4540   24.3340  -29.3470 N   0  0  0  0  0  0  0  0  0  0  0  0
   -1.0400   24.2610  -30.3040 H   0  0  0  0  0  0  0  0  0  0  0  0
   -5.7640   23.1580  -30.6910 C   0  0  0  0  0  0  0  0  0  0  0  0
   -6.4091   23.9387  -30.2617 H   0  0  0  0  0  0  0  0  0  0  0  0
   -6.4010   21.9500  -31.2610 C   0  0  0  0  0  0  0  0  0  0  0  0
   -7.7310   21.7910  -31.6200 C   0  0  0  0  0  0  0  0  0  0  0  0
   -8.5351   22.5340  -31.5132 H   0  0  0  0  0  0  0  0  0  0  0  0
   -7.8470   20.5160  -32.1380 C   0  0  0  0  0  0  0  0  0  0  0  0
   -9.1200   19.9240  -32.6630 C   0  0  0  0  0  0  0  0  0  0  0  0
   -9.7608   19.6260  -31.8200 H   0  0  0  0  0  0  0  0  0  0  0  0
   -9.6455   20.6702  -33.2771 H   0  0  0  0  0  0  0  0  0  0  0  0
   -8.8880   19.0414  -33.2771 H   0  0  0  0  0  0  0  0  0  0  0  0
   -6.6500   19.8870  -32.1140 N   0  0  0  0  0  0  0  0  0  0  0  0
   -6.3910   18.5520  -32.5870 C   0  0  0  0  0  0  0  0  0  0  0  0
   -6.4830   18.2770  -33.9180 N   0  0  0  0  0  0  0  0  0  0  0  0
   -6.2340   17.0360  -34.4150 C   0  0  0  0  0  0  0  0  0  0  0  0
   -6.3240   16.8484  -35.4951 H   0  0  0  0  0  0  0  0  0  0  0  0
   -5.8640   15.9990  -33.5550 C   0  0  0  0  0  0  0  0  0  0  0  0
   -5.5040   14.2540  -34.2440 Br  0  0  0  0  0  0  0  0  0  0  0  0
   -5.7520   16.2550  -32.1870 C   0  0  0  0  0  0  0  0  0  0  0  0
   -5.4605   15.4491  -31.4974 H   0  0  0  0  0  0  0  0  0  0  0  0
   -6.0110   17.5370  -31.6960 C   0  0  0  0  0  0  0  0  0  0  0  0
   -5.9179   17.7487  -30.6206 H   0  0  0  0  0  0  0  0  0  0  0  0
   -5.7650   20.7500  -31.5600 C   0  0  0  0  0  0  0  0  0  0  0  0
   -4.3120   20.4510  -31.3120 C   0  0  0  0  0  0  0  0  0  0  0  0
   -4.1253   20.4126  -30.2286 H   0  0  0  0  0  0  0  0  0  0  0  0
   -4.0551   19.4812  -31.7630 H   0  0  0  0  0  0  0  0  0  0  0  0
   -3.6930   21.2406  -31.7630 H   0  0  0  0  0  0  0  0  0  0  0  0
  1  2  1  0
  2  3  1  0
  3  4  2  0
  3  5  1  0
  5  6  2  0
  6  7  1  0
  7  8  1  0
  7  9  1  0
  7 10  1  0
  6 11  1  0
 11 12  1  0
 12 13  2  0
 12 14  1  0
 14 15  1  0
 15 16  1  0
 15 17  1  0
 15 18  1  0
 11 19  2  0
 19 20  1  0
 20 21  1  0
 20 22  1  0
 20 23  1  0
 19 24  1  0
 24 25  1  0
  2 26  2  0
 26 27  1  0
 26 28  1  0
 28 29  1  0
 29 30  1  0
 29 31  2  0
 31 32  1  0
 32 33  1  0
 32 34  1  0
 32 35  1  0
 31 36  1  0
 36 37  1  0
 37 38  2  0
 38 39  1  0
 39 40  1  0
 39 41  2  0
 41 42  1  0
 41 43  1  0
 43 44  1  0
 43 45  2  0
 45 46  1  0
 36 47  1  0
 47 48  1  0
 48 49  1  0
 48 50  1  0
 48 51  1  0
 24  5  1  0
 47 28  2  0
 45 37  1  0
M  END
>  <UniqueID>  (26) 
26

>  <SMILES>  (26) 
COC(=O)c1c(C)[nH]c(C(=O)/C=C/c2cc(C)n(-c3ccc(Br)cn3)c2C)c1C

>  <Energy>  (26) 
111.51036741700405

>  <Genealogy>  (26) 
COC(=O)c1c(C)[nH]c(C(=O)/C=C/c2cc(C)n(-c3ccc(Br)cn3)c2C)c1C (cis-trans isomerization)
COC(=O)c1c(C)[nH]c(C(=O)/C=C/c2cc(C)n(-c3ccc(Br)cn3)c2C)c1C (3D coordinates assigned)
COC(=O)c1c(C)[nH]c(C(=O)/C=C/c2cc(C)n(-c3ccc(Br)cn3)c2C)c1C (optimized conformer: 111.51036741700405 kcal/mol)

>  <smiles>  (26) 
COC(=O)c1c(C)[nH]c(C(=O)C=Cc2cc(C)n(-c3ccc(Br)cn3)c2C)c1C

>  <score_type>  (26) 
oracle

>  <origin>  (26) 
adgpu

>  <m_score__min__energy>  (26) 
-9.9399999999999995

>  <m_primary>  (26) 
energy

$$$$
26:0
     RDKit          3D

 29 30  0  0  0  0  0  0  0  0999 V2000
   -1.4960   25.5630  -28.9690 O   0  0  0  0  0  0  0  0  0  0  0  0
   -2.5660   24.9070  -29.0640 C   0  0  0  0  0  0  0  0  0  0  0  0
   -2.7840   23.7410  -28.1470 C   0  0  0  0  0  0  0  0  0  0  0  0
   -3.9280   23.9410  -27.3990 F   0  0  0  0  0  0  0  0  0  0  0  0
   -3.5070   25.2630  -30.0860 N   0  0  0  0  0  0  0  0  0  0  0  0
   -4.5880   24.4560  -30.5740 C   0  0  0  0  0  0  0  0  0  0  0  0
   -5.9240   24.8810  -30.4890 C   0  0  0  0  0  0  0  0  0  0  0  0
   -6.9510   24.0850  -31.0040 C   0  0  0  0  0  0  0  0  0  0  0  0
   -6.6600   22.8610  -31.6160 C   0  0  0  0  0  0  0  0  0  0  0  0
   -7.7180   22.0980  -32.1320 O   0  0  0  0  0  0  0  0  0  0  0  0
   -7.7330   20.6980  -32.2420 C   0  0  0  0  0  0  0  0  0  0  0  0
   -6.7940   20.0020  -33.0250 C   0  0  0  0  0  0  0  0  0  0  0  0
   -6.8320   18.6060  -33.0940 C   0  0  0  0  0  0  0  0  0  0  0  0
   -7.7980   17.8960  -32.3760 C   0  0  0  0  0  0  0  0  0  0  0  0
   -8.7210   18.5810  -31.5800 C   0  0  0  0  0  0  0  0  0  0  0  0
   -8.6850   19.9770  -31.5090 C   0  0  0  0  0  0  0  0  0  0  0  0
   -5.3200   22.4580  -31.7450 C   0  0  0  0  0  0  0  0  0  0  0  0
   -4.2930   23.2550  -31.2300 C   0  0  0  0  0  0  0  0  0  0  0  0
   -2.8934   22.8231  -28.7432 H   0  0  0  0  0  0  0  0  0  0  0  0
   -1.9211   23.6439  -27.4717 H   0  0  0  0  0  0  0  0  0  0  0  0
   -6.1631   25.8445  -30.0151 H   0  0  0  0  0  0  0  0  0  0  0  0
   -7.9950   24.4231  -30.9276 H   0  0  0  0  0  0  0  0  0  0  0  0
   -6.0274   20.5579  -33.5848 H   0  0  0  0  0  0  0  0  0  0  0  0
   -6.1010   18.0663  -33.7139 H   0  0  0  0  0  0  0  0  0  0  0  0
   -7.8322   16.7982  -32.4371 H   0  0  0  0  0  0  0  0  0  0  0  0
   -9.4763   18.0211  -31.0090 H   0  0  0  0  0  0  0  0  0  0  0  0
   -9.4074   20.5117  -30.8748 H   0  0  0  0  0  0  0  0  0  0  0  0
   -5.0782   21.5126  -32.2527 H   0  0  0  0  0  0  0  0  0  0  0  0
   -3.2461   22.9361  -31.3411 H   0  0  0  0  0  0  0  0  0  0  0  0
  1  2  2  0
  2  3  1  0
  3  4  1  0
  2  5  1  0
  5  6  1  0
  6  7  2  0
  7  8  1  0
  8  9  2  0
  9 10  1  0
 10 11  1  0
 11 12  2  0
 12 13  1  0
 13 14  2  0
 14 15  1  0
 15 16  2  0
  9 17  1  0
 17 18  2  0
 18  6  1  0
 16 11  1  0
  3 19  1  0
  3 20  1  0
  7 21  1  0
  8 22  1  0
 12 23  1  0
 13 24  1  0
 14 25  1  0
 15 26  1  0
 16 27  1  0
 17 28  1  0
 18 29  1  0
M  CHG  1   5  -1
M  END
>  <UniqueID>  (27) 
27

>  <SMILES>  (27) 
O=C(CF)[N-]c1ccc(Oc2ccccc2)cc1

>  <Energy>  (27) 
39.606286054012244

>  <Genealogy>  (27) 
O=C(CF)[N-]c1ccc(Oc2ccccc2)cc1 (protonated)
O=C(CF)[N-]c1ccc(Oc2ccccc2)cc1 (3D coordinates assigned)
O=C(CF)[N-]c1ccc(Oc2ccccc2)cc1 (optimized conformer: 39.606286054012244 kcal/mol)

>  <smiles>  (27) 
O=C(CF)Nc1ccc(Oc2ccccc2)cc1

>  <score_type>  (27) 
oracle

>  <origin>  (27) 
adgpu

>  <m_score__min__energy>  (27) 
-8.5

>  <m_primary>  (27) 
energy

$$$$
27:0
     RDKit          3D

 52 55  0  0  1  0  0  0  0  0999 V2000
   -3.1140   19.9560  -27.5300 C   0  0  0  0  0  0  0  0  0  0  0  0
   -3.1830   21.0020  -28.4570 O   0  0  0  0  0  0  0  0  0  0  0  0
   -2.3120   21.0030  -29.5400 C   0  0  0  0  0  0  0  0  0  0  0  0
   -2.7680   21.1300  -30.8580 C   0  0  0  0  0  0  0  0  0  0  0  0
   -1.8430   21.1210  -31.8530 C   0  0  0  0  0  0  0  0  0  0  0  0
   -2.2320   21.2410  -33.1550 C   0  0  0  0  0  0  0  0  0  0  0  0
   -3.4180   21.3260  -33.4760 N   0  0  0  0  0  0  0  0  0  0  0  0
   -4.5960   21.3320  -32.7990 C   0  0  0  0  0  0  0  0  0  0  0  0
   -5.0610   22.5540  -32.2490 C   0  0  0  0  0  0  0  0  0  0  0  0
   -6.3100   22.5850  -31.6610 C   0  0  0  0  0  0  0  0  0  0  0  0
   -7.1290   21.4790  -31.5820 C   0  0  0  0  0  0  0  0  0  0  0  0
   -8.6980   21.5860  -30.8250 Cl  0  0  0  0  0  0  0  0  0  0  0  0
   -6.6710   20.2820  -32.1190 C   0  0  0  0  0  0  0  0  0  0  0  0
   -7.8390   18.7810  -31.9850 Br  0  0  0  0  0  0  0  0  0  0  0  0
   -5.4420   20.1950  -32.7150 C   0  0  0  0  0  0  0  0  0  0  0  0
   -1.2900   21.2320  -34.1280 N   0  0  0  0  0  0  0  0  0  0  0  0
    0.0230   21.1110  -33.8950 C   0  0  0  0  0  0  0  0  0  0  0  0
    0.4170   20.9910  -32.6200 N   0  0  0  0  0  0  0  0  0  0  0  0
   -0.4920   20.9960  -31.6200 C   0  0  0  0  0  0  0  0  0  0  0  0
   -0.0380   20.8730  -30.3490 C   0  0  0  0  0  0  0  0  0  0  0  0
   -0.9570   20.8780  -29.3240 C   0  0  0  0  0  0  0  0  0  0  0  0
   -0.5700   20.7520  -28.0340 O   0  0  0  0  0  0  0  0  0  0  0  0
   -0.1160   21.6170  -27.0750 C   0  0  0  0  0  0  0  0  0  0  0  0
   -1.2230   22.3900  -26.4550 C   0  0  0  0  0  0  0  0  0  0  0  0
   -1.4620   23.6700  -27.0880 N   0  0  0  0  0  0  0  0  0  0  0  0
   -0.5220   24.0220  -28.1040 C   0  0  0  0  0  0  0  0  0  0  0  0
   -0.9160   25.3890  -28.6290 C   0  0  0  0  0  0  0  0  0  0  0  0
   -2.1120   25.2870  -29.3090 O   0  0  0  0  0  0  0  0  0  0  0  0
   -2.8410   24.1690  -28.9740 C   0  0  0  0  0  0  0  0  0  0  0  0
   -2.8160   23.8910  -27.4860 C   0  0  0  0  0  0  0  0  0  0  0  0
   -3.1411   20.3675  -26.5102 H   0  0  0  0  0  0  0  0  0  0  0  0
   -3.9695   19.2800  -27.6756 H   0  0  0  0  0  0  0  0  0  0  0  0
   -2.1771   19.3983  -27.6756 H   0  0  0  0  0  0  0  0  0  0  0  0
   -3.8403   21.2337  -31.0804 H   0  0  0  0  0  0  0  0  0  0  0  0
   -4.4384   23.4599  -32.2901 H   0  0  0  0  0  0  0  0  0  0  0  0
   -6.6674   23.5348  -31.2366 H   0  0  0  0  0  0  0  0  0  0  0  0
   -5.1064   19.2345  -33.1331 H   0  0  0  0  0  0  0  0  0  0  0  0
   -1.5650   21.3250  -35.1440 H   0  0  0  0  0  0  0  0  0  0  0  0
    0.7510   21.1101  -34.7196 H   0  0  0  0  0  0  0  0  0  0  0  0
    1.0375   20.7717  -30.1416 H   0  0  0  0  0  0  0  0  0  0  0  0
    0.3975   21.0408  -26.2912 H   0  0  0  0  0  0  0  0  0  0  0  0
    0.5687   22.3303  -27.5570 H   0  0  0  0  0  0  0  0  0  0  0  0
   -2.1440   21.7922  -26.5209 H   0  0  0  0  0  0  0  0  0  0  0  0
   -0.9303   22.5945  -25.4146 H   0  0  0  0  0  0  0  0  0  0  0  0
    0.4928   24.0593  -27.6813 H   0  0  0  0  0  0  0  0  0  0  0  0
   -0.5270   23.2776  -28.9138 H   0  0  0  0  0  0  0  0  0  0  0  0
   -1.0301   26.0875  -27.7869 H   0  0  0  0  0  0  0  0  0  0  0  0
   -0.1357   25.7627  -29.3083 H   0  0  0  0  0  0  0  0  0  0  0  0
   -3.8843   24.3199  -29.2881 H   0  0  0  0  0  0  0  0  0  0  0  0
   -2.3881   23.3066  -29.4850 H   0  0  0  0  0  0  0  0  0  0  0  0
   -3.2268   24.7534  -26.9406 H   0  0  0  0  0  0  0  0  0  0  0  0
   -3.4249   23.0036  -27.2585 H   0  0  0  0  0  0  0  0  0  0  0  0
  1  2  1  0
  2  3  1  0
  3  4  2  0
  4  5  1  0
  5  6  1  0
  6  7  2  0
  7  8  1  0
  8  9  2  0
  9 10  1  0
 10 11  2  0
 11 12  1  0
 11 13  1  0
 13 14  1  0
 13 15  2  0
  6 16  1  0
 16 17  1  0
 17 18  2  0
 18 19  1  0
 19 20  1  0
 20 21  2  0
 21 22  1  0
 22 23  1  0
 23 24  1  0
 24 25  1  0
 25 26  1  0
 26 27  1  0
 27 28  1  0
 28 29  1  0
 29 30  1  0
 21  3  1  0
 30 25  1  0
 19  5  2  0
 15  8  1  0
  1 31  1  0
  1 32  1  0
  1 33  1  0
  4 34  1  0
  9 35  1  0
 10 36  1  0
 15 37  1  0
 16 38  1  0
 17 39  1  0
 20 40  1  0
 23 41  1  0
 23 42  1  0
 24 43  1  0
 24 44  1  0
 26 45  1  0
 26 46  1  0
 27 47  1  0
 27 48  1  0
 29 49  1  0
 29 50  1  0
 30 51  1  0
 30 52  1  0
M  END
>  <smiles>  (28) 
COc1cc2c(=Nc3ccc(Cl)c(Br)c3)[nH]cnc2cc1OCCN1CCOCC1

>  <score_type>  (28) 
oracle

>  <origin>  (28) 
adgpu

>  <m_score__min__energy>  (28) 
-8.8900000000000006

>  <m_primary>  (28) 
energy

$$$$
28:0
     RDKit          3D

 37 39  0  0  0  0  0  0  0  0999 V2000
   -9.1170   18.2400  -31.6540 C   0  0  0  0  0  0  0  0  0  0  0  0
   -8.9850   19.3290  -32.7140 C   0  0  0  0  0  0  0  0  0  0  0  0
   -7.6080   19.9110  -32.7010 C   0  0  0  0  0  0  0  0  0  0  0  0
   -6.7690   19.8650  -33.7540 N   0  0  0  0  0  0  0  0  0  0  0  0
   -5.7150   20.5150  -33.3650 O   0  0  0  0  0  0  0  0  0  0  0  0
   -5.8890   20.9520  -32.1410 C   0  0  0  0  0  0  0  0  0  0  0  0
   -4.8890   21.7350  -31.3880 C   0  0  0  0  0  0  0  0  0  0  0  0
   -3.8320   21.0840  -30.7390 C   0  0  0  0  0  0  0  0  0  0  0  0
   -2.8800   21.8170  -30.0290 C   0  0  0  0  0  0  0  0  0  0  0  0
   -2.9610   23.2170  -29.9560 C   0  0  0  0  0  0  0  0  0  0  0  0
   -1.9560   23.9510  -29.2300 N   0  0  0  0  0  0  0  0  0  0  0  0
   -0.6170   23.8210  -29.3450 C   0  0  0  0  0  0  0  0  0  0  0  0
    0.0590   24.6910  -28.5630 N   0  0  0  0  0  0  0  0  0  0  0  0
   -0.9110   25.3830  -27.9320 C   0  0  0  0  0  0  0  0  0  0  0  0
   -0.6530   26.5270  -27.0110 C   0  0  0  0  0  0  0  0  0  0  0  0
   -2.1490   24.9480  -28.3480 C   0  0  0  0  0  0  0  0  0  0  0  0
   -4.0310   23.8830  -30.5910 C   0  0  0  0  0  0  0  0  0  0  0  0
   -4.1320   25.2790  -30.4700 O   0  0  0  0  0  0  0  0  0  0  0  0
   -5.3560   26.0070  -30.4620 C   0  0  0  0  0  0  0  0  0  0  0  0
   -4.9830   23.1330  -31.3110 C   0  0  0  0  0  0  0  0  0  0  0  0
   -7.0980   20.5980  -31.6590 N   0  0  0  0  0  0  0  0  0  0  0  0
   -9.0620   18.6937  -30.6534 H   0  0  0  0  0  0  0  0  0  0  0  0
  -10.0837   17.7286  -31.7721 H   0  0  0  0  0  0  0  0  0  0  0  0
   -8.3005   17.5125  -31.7721 H   0  0  0  0  0  0  0  0  0  0  0  0
   -9.1849   18.8953  -33.7049 H   0  0  0  0  0  0  0  0  0  0  0  0
   -9.7097   20.1271  -32.4950 H   0  0  0  0  0  0  0  0  0  0  0  0
   -3.7518   19.9881  -30.7893 H   0  0  0  0  0  0  0  0  0  0  0  0
   -2.0573   21.2924  -29.5211 H   0  0  0  0  0  0  0  0  0  0  0  0
   -0.1297   23.0869  -30.0035 H   0  0  0  0  0  0  0  0  0  0  0  0
   -0.7305   26.1834  -25.9689 H   0  0  0  0  0  0  0  0  0  0  0  0
    0.3570   26.9231  -27.1923 H   0  0  0  0  0  0  0  0  0  0  0  0
   -1.3952   27.3183  -27.1923 H   0  0  0  0  0  0  0  0  0  0  0  0
   -3.1208   25.3443  -28.0185 H   0  0  0  0  0  0  0  0  0  0  0  0
   -5.6661   26.1915  -29.4229 H   0  0  0  0  0  0  0  0  0  0  0  0
   -5.2145   26.9679  -30.9785 H   0  0  0  0  0  0  0  0  0  0  0  0
   -6.1328   25.4240  -30.9785 H   0  0  0  0  0  0  0  0  0  0  0  0
   -5.8102   23.6503  -31.8190 H   0  0  0  0  0  0  0  0  0  0  0  0
  1  2  1  0
  2  3  1  0
  3  4  2  0
  4  5  1  0
  5  6  1  0
  6  7  1  0
  7  8  2  0
  8  9  1  0
  9 10  2  0
 10 11  1  0
 11 12  1  0
 12 13  2  0
 13 14  1  0
 14 15  1  0
 14 16  2  0
 10 17  1  0
 17 18  1  0
 18 19  1  0
 17 20  2  0
  6 21  2  0
 21  3  1  0
 20  7  1  0
 16 11  1  0
  1 22  1  0
  1 23  1  0
  1 24  1  0
  2 25  1  0
  2 26  1  0
  8 27  1  0
  9 28  1  0
 12 29  1  0
 15 30  1  0
 15 31  1  0
 15 32  1  0
 16 33  1  0
 19 34  1  0
 19 35  1  0
 19 36  1  0
 20 37  1  0
M  END
>  <UniqueID>  (29) 
28

>  <SMILES>  (29) 
CCc1noc(-c2ccc(-n3cnc(C)c3)c(OC)c2)n1

>  <Energy>  (29) 
100.34545271745633

>  <Genealogy>  (29) 
CCc1noc(-c2ccc(-n3cnc(C)c3)c(OC)c2)n1 (3D coordinates assigned)
CCc1noc(-c2ccc(-n3cnc(C)c3)c(OC)c2)n1 (optimized conformer: 100.34545271745633 kcal/mol)

>  <smiles>  (29) 
CCc1noc(-c2ccc(-n3cnc(C)c3)c(OC)c2)n1

>  <score_type>  (29) 
oracle

>  <origin>  (29) 
adgpu

>  <m_score__min__energy>  (29) 
-7.4900000000000002

>  <m_primary>  (29) 
energy

$$$$
29:0
     RDKit          3D

 44 46  0  0  0  0  0  0  0  0999 V2000
   -1.5590   21.8770  -32.2520 C   0  0  0  0  0  0  0  0  0  0  0  0
   -2.6510   20.8580  -32.4350 C   0  0  0  0  0  0  0  0  0  0  0  0
   -2.6010   19.9990  -33.5410 C   0  0  0  0  0  0  0  0  0  0  0  0
   -3.5670   19.0090  -33.7200 C   0  0  0  0  0  0  0  0  0  0  0  0
   -4.6080   18.8380  -32.7860 C   0  0  0  0  0  0  0  0  0  0  0  0
   -5.6100   17.7990  -32.9660 N   0  0  0  0  0  0  0  0  0  0  0  0
   -5.7210   17.0790  -34.2400 C   0  0  0  0  0  0  0  0  0  0  0  0
   -6.5280   17.4510  -31.8740 C   0  0  0  0  0  0  0  0  0  0  0  0
   -4.6600   19.7130  -31.6820 C   0  0  0  0  0  0  0  0  0  0  0  0
   -3.7280   20.7450  -31.5260 C   0  0  0  0  0  0  0  0  0  0  0  0
   -3.9030   21.6330  -30.4530 O   0  0  0  0  0  0  0  0  0  0  0  0
   -4.3430   22.9630  -30.5720 C   0  0  0  0  0  0  0  0  0  0  0  0
   -5.6040   23.3100  -31.1180 C   0  0  0  0  0  0  0  0  0  0  0  0
   -6.6080   22.2890  -31.4810 C   0  0  0  0  0  0  0  0  0  0  0  0
   -6.5440   21.6460  -32.7280 C   0  0  0  0  0  0  0  0  0  0  0  0
   -7.5180   20.7090  -33.0870 C   0  0  0  0  0  0  0  0  0  0  0  0
   -8.5630   20.4070  -32.2040 C   0  0  0  0  0  0  0  0  0  0  0  0
   -9.5490   19.4890  -32.5590 O   0  0  0  0  0  0  0  0  0  0  0  0
   -8.6170   21.0300  -30.9530 C   0  0  0  0  0  0  0  0  0  0  0  0
   -7.6400   21.9610  -30.5870 C   0  0  0  0  0  0  0  0  0  0  0  0
   -5.9350   24.6640  -31.2680 C   0  0  0  0  0  0  0  0  0  0  0  0
   -5.0420   25.6450  -30.8410 C   0  0  0  0  0  0  0  0  0  0  0  0
   -3.8590   25.2910  -30.2770 N   0  0  0  0  0  0  0  0  0  0  0  0
   -3.4950   23.9900  -30.1310 C   0  0  0  0  0  0  0  0  0  0  0  0
   -2.3830   23.7130  -29.6090 O   0  0  0  0  0  0  0  0  0  0  0  0
   -1.3851   22.0392  -31.1780 H   0  0  0  0  0  0  0  0  0  0  0  0
   -0.6340   21.5117  -32.7221 H   0  0  0  0  0  0  0  0  0  0  0  0
   -1.8596   22.8250  -32.7221 H   0  0  0  0  0  0  0  0  0  0  0  0
   -1.7903   20.1068  -34.2767 H   0  0  0  0  0  0  0  0  0  0  0  0
   -3.5155   18.3533  -34.6017 H   0  0  0  0  0  0  0  0  0  0  0  0
   -5.8859   16.0093  -34.0435 H   0  0  0  0  0  0  0  0  0  0  0  0
   -6.5678   17.4809  -34.8157 H   0  0  0  0  0  0  0  0  0  0  0  0
   -4.7925   17.2072  -34.8157 H   0  0  0  0  0  0  0  0  0  0  0  0
   -6.0361   17.6375  -30.9080 H   0  0  0  0  0  0  0  0  0  0  0  0
   -7.4362   18.0672  -31.9480 H   0  0  0  0  0  0  0  0  0  0  0  0
   -6.7994   16.3876  -31.9480 H   0  0  0  0  0  0  0  0  0  0  0  0
   -5.4496   19.5818  -30.9275 H   0  0  0  0  0  0  0  0  0  0  0  0
   -5.7253   21.8801  -33.4243 H   0  0  0  0  0  0  0  0  0  0  0  0
   -7.4636   20.2080  -34.0648 H   0  0  0  0  0  0  0  0  0  0  0  0
   -9.5330   19.0160  -33.4540 H   0  0  0  0  0  0  0  0  0  0  0  0
   -9.4311   20.7867  -30.2544 H   0  0  0  0  0  0  0  0  0  0  0  0
   -7.6799   22.4376  -29.5964 H   0  0  0  0  0  0  0  0  0  0  0  0
   -6.8955   24.9509  -31.7208 H   0  0  0  0  0  0  0  0  0  0  0  0
   -5.2963   26.7084  -30.9612 H   0  0  0  0  0  0  0  0  0  0  0  0
  1  2  1  0
  2  3  2  0
  3  4  1  0
  4  5  2  0
  5  6  1  0
  6  7  1  0
  6  8  1  0
  5  9  1  0
  9 10  2  0
 10 11  1  0
 11 12  1  0
 12 13  2  0
 13 14  1  0
 14 15  2  0
 15 16  1  0
 16 17  2  0
 17 18  1  0
 17 19  1  0
 19 20  2  0
 13 21  1  0
 21 22  2  0
 22 23  1  0
 23 24  1  0
 24 25  2  0
 10  2  1  0
 24 12  1  0
 20 14  1  0
  1 26  1  0
  1 27  1  0
  1 28  1  0
  3 29  1  0
  4 30  1  0
  7 31  1  0
  7 32  1  0
  7 33  1  0
  8 34  1  0
  8 35  1  0
  8 36  1  0
  9 37  1  0
 15 38  1  0
 16 39  1  0
 18 40  1  0
 19 41  1  0
 20 42  1  0
 21 43  1  0
 22 44  1  0
M  CHG  1  23  -1
M  END
>  <UniqueID>  (30) 
29

>  <SMILES>  (30) 
Cc1ccc(N(C)C)cc1Oc1c(-c2ccc(O)cc2)cc[n-]c1=O

>  <Energy>  (30) 
61.71648137517522

>  <Genealogy>  (30) 
Cc1ccc(N(C)C)cc1Oc1c(-c2ccc(O)cc2)cc[n-]c1=O (protonated)
Cc1ccc(N(C)C)cc1Oc1c(-c2ccc(O)cc2)cc[n-]c1=O (3D coordinates assigned)
Cc1ccc(N(C)C)cc1Oc1c(-c2ccc(O)cc2)cc[n-]c1=O (optimized conformer: 61.71648137517522 kcal/mol)

>  <smiles>  (30) 
Cc1ccc(N(C)C)cc1Oc1c(-c2ccc(O)cc2)cc[nH]c1=O

>  <score_type>  (30) 
oracle

>  <origin>  (30) 
adgpu

>  <m_score__min__energy>  (30) 
-9.6699999999999999

>  <m_primary>  (30) 
energy

$$$$
30:0
     RDKit          3D

 22 23  0  0  0  0  0  0  0  0999 V2000
   -3.8700   25.5300  -30.3950 O   0  0  0  0  0  0  0  0  0  0  0  0
   -4.6940   24.4710  -30.7670 C   0  0  0  0  0  0  0  0  0  0  0  0
   -6.0780   24.6490  -30.8850 C   0  0  0  0  0  0  0  0  0  0  0  0
   -6.8960   23.5790  -31.2600 C   0  0  0  0  0  0  0  0  0  0  0  0
   -6.3400   22.3130  -31.5220 C   0  0  0  0  0  0  0  0  0  0  0  0
   -7.2070   21.1750  -31.9190 C   0  0  0  0  0  0  0  0  0  0  0  0
   -8.6070   21.3090  -31.9300 C   0  0  0  0  0  0  0  0  0  0  0  0
   -9.4040   20.2260  -32.3070 C   0  0  0  0  0  0  0  0  0  0  0  0
   -8.8300   19.0470  -32.6620 N   0  0  0  0  0  0  0  0  0  0  0  0
   -7.4810   18.8840  -32.6620 C   0  0  0  0  0  0  0  0  0  0  0  0
   -6.6460   19.9410  -32.2920 C   0  0  0  0  0  0  0  0  0  0  0  0
   -4.9480   22.1440  -31.4000 C   0  0  0  0  0  0  0  0  0  0  0  0
   -4.1330   23.2170  -31.0250 C   0  0  0  0  0  0  0  0  0  0  0  0
   -2.9620   25.6720  -30.8240 H   0  0  0  0  0  0  0  0  0  0  0  0
   -6.5231   25.6342  -30.6819 H   0  0  0  0  0  0  0  0  0  0  0  0
   -7.9821   23.7278  -31.3509 H   0  0  0  0  0  0  0  0  0  0  0  0
   -9.0725   22.2634  -31.6427 H   0  0  0  0  0  0  0  0  0  0  0  0
  -10.4992   20.3278  -32.3165 H   0  0  0  0  0  0  0  0  0  0  0  0
   -7.0453   17.9171  -32.9541 H   0  0  0  0  0  0  0  0  0  0  0  0
   -5.5540   19.8084  -32.2925 H   0  0  0  0  0  0  0  0  0  0  0  0
   -4.4978   21.1607  -31.6011 H   0  0  0  0  0  0  0  0  0  0  0  0
   -3.0463   23.0735  -30.9327 H   0  0  0  0  0  0  0  0  0  0  0  0
  1  2  1  0
  2  3  2  0
  3  4  1  0
  4  5  2  0
  5  6  1  0
  6  7  2  0
  7  8  1  0
  8  9  2  0
  9 10  1  0
 10 11  2  0
  5 12  1  0
 12 13  2  0
 13  2  1  0
 11  6  1  0
  1 14  1  0
  3 15  1  0
  4 16  1  0
  7 17  1  0
  8 18  1  0
 10 19  1  0
 11 20  1  0
 12 21  1  0
 13 22  1  0
M  END
>  <UniqueID>  (31) 
30

>  <SMILES>  (31) 
Oc1ccc(-c2ccncc2)cc1

>  <Energy>  (31) 
28.586983988702702

>  <Genealogy>  (31) 
Oc1ccc(-c2ccncc2)cc1 (3D coordinates assigned)
Oc1ccc(-c2ccncc2)cc1 (optimized conformer: 28.586983988702702 kcal/mol)

>  <smiles>  (31) 
Oc1ccc(-c2ccncc2)cc1

>  <score_type>  (31) 
oracle

>  <origin>  (31) 
adgpu

>  <m_score__min__energy>  (31) 
-7.29

>  <m_primary>  (31) 
energy

$$$$
31:0
     RDKit          3D

 70 74  0  0  0  0  0  0  0  0999 V2000
   -0.4720   22.0880  -35.6380 H   0  0  0  0  0  0  0  0  0  0  0  0
   -0.4980   22.0880  -34.5950 N   0  0  0  0  0  0  0  0  0  0  0  0
   -0.8770   21.0490  -33.9250 C   0  0  0  0  0  0  0  0  0  0  0  0
   -1.2510   19.9230  -34.5780 N   0  0  0  0  0  0  0  0  0  0  0  0
   -1.6400   18.8220  -33.8810 C   0  0  0  0  0  0  0  0  0  0  0  0
   -1.9830   17.6420  -34.5480 O   0  0  0  0  0  0  0  0  0  0  0  0
   -2.9640   16.7540  -34.0920 C   0  0  0  0  0  0  0  0  0  0  0  0
   -4.2760   16.8150  -34.5960 C   0  0  0  0  0  0  0  0  0  0  0  0
   -4.5443   17.5857  -35.3336 H   0  0  0  0  0  0  0  0  0  0  0  0
   -5.2400   15.9000  -34.1630 C   0  0  0  0  0  0  0  0  0  0  0  0
   -6.2631   15.9494  -34.5640 H   0  0  0  0  0  0  0  0  0  0  0  0
   -4.9060   14.9220  -33.2210 C   0  0  0  0  0  0  0  0  0  0  0  0
   -5.6627   14.1937  -32.8939 H   0  0  0  0  0  0  0  0  0  0  0  0
   -3.6120   14.8680  -32.6940 C   0  0  0  0  0  0  0  0  0  0  0  0
   -3.3553   14.0979  -31.9517 H   0  0  0  0  0  0  0  0  0  0  0  0
   -2.6370   15.7930  -33.1080 C   0  0  0  0  0  0  0  0  0  0  0  0
   -1.2310   15.6770  -32.5710 C   0  0  0  0  0  0  0  0  0  0  0  0
   -1.2185   14.9510  -31.7447 H   0  0  0  0  0  0  0  0  0  0  0  0
   -0.9051   16.6653  -32.2145 H   0  0  0  0  0  0  0  0  0  0  0  0
   -0.2750   15.2090  -33.6640 C   0  0  0  0  0  0  0  0  0  0  0  0
    0.6221   14.7698  -33.2031 H   0  0  0  0  0  0  0  0  0  0  0  0
   -0.7738   14.4532  -34.2885 H   0  0  0  0  0  0  0  0  0  0  0  0
    0.0160   16.0665  -34.2885 H   0  0  0  0  0  0  0  0  0  0  0  0
   -1.6450   18.8530  -32.5250 N   0  0  0  0  0  0  0  0  0  0  0  0
   -1.2840   19.9780  -31.8570 C   0  0  0  0  0  0  0  0  0  0  0  0
   -1.2620   19.9490  -30.5540 N   0  0  0  0  0  0  0  0  0  0  0  0
   -0.9440   21.0460  -29.6860 C   0  0  0  0  0  0  0  0  0  0  0  0
    0.0860   20.9060  -28.7550 C   0  0  0  0  0  0  0  0  0  0  0  0
    0.6508   19.9636  -28.7014 H   0  0  0  0  0  0  0  0  0  0  0  0
    0.4030   21.9550  -27.8920 C   0  0  0  0  0  0  0  0  0  0  0  0
    1.2278   21.8392  -27.1735 H   0  0  0  0  0  0  0  0  0  0  0  0
   -0.3220   23.1590  -27.9320 C   0  0  0  0  0  0  0  0  0  0  0  0
    0.0660   24.2710  -26.9920 C   0  0  0  0  0  0  0  0  0  0  0  0
   -0.0527   23.9308  -25.9527 H   0  0  0  0  0  0  0  0  0  0  0  0
    1.1150   24.5511  -27.1686 H   0  0  0  0  0  0  0  0  0  0  0  0
   -0.5810   25.1429  -27.1686 H   0  0  0  0  0  0  0  0  0  0  0  0
   -1.3790   23.3040  -28.8650 C   0  0  0  0  0  0  0  0  0  0  0  0
   -2.3600   24.7770  -28.9570 S   0  0  0  0  0  0  0  0  0  0  0  0
   -1.4900   26.0030  -28.9570 O   0  0  0  0  0  0  0  0  0  0  0  0
   -3.2750   24.8300  -27.7660 O   0  0  0  0  0  0  0  0  0  0  0  0
   -3.3320   24.7420  -30.3930 N   0  0  0  0  0  0  0  0  0  0  0  0
   -4.4220   23.8400  -30.6170 C   0  0  0  0  0  0  0  0  0  0  0  0
   -5.7600   24.1110  -30.3800 C   0  0  0  0  0  0  0  0  0  0  0  0
   -6.3160   25.3400  -29.7310 C   0  0  0  0  0  0  0  0  0  0  0  0
   -6.2669   25.2314  -28.6375 H   0  0  0  0  0  0  0  0  0  0  0  0
   -5.7266   26.2161  -30.0393 H   0  0  0  0  0  0  0  0  0  0  0  0
   -7.3632   25.4757  -30.0393 H   0  0  0  0  0  0  0  0  0  0  0  0
   -6.4950   23.0560  -30.8060 N   0  0  0  0  0  0  0  0  0  0  0  0
   -7.9580   22.9880  -30.8270 C   0  0  0  0  0  0  0  0  0  0  0  0
   -8.3391   22.9703  -29.7953 H   0  0  0  0  0  0  0  0  0  0  0  0
   -8.3585   23.8685  -31.3507 H   0  0  0  0  0  0  0  0  0  0  0  0
   -8.2751   22.0741  -31.3507 H   0  0  0  0  0  0  0  0  0  0  0  0
   -5.6760   22.1470  -31.3250 N   0  0  0  0  0  0  0  0  0  0  0  0
   -6.0900   20.9950  -32.0730 C   0  0  0  0  0  0  0  0  0  0  0  0
   -7.1130   20.1730  -31.5800 C   0  0  0  0  0  0  0  0  0  0  0  0
   -7.6235   20.4357  -30.6417 H   0  0  0  0  0  0  0  0  0  0  0  0
   -7.4860   19.0210  -32.2770 C   0  0  0  0  0  0  0  0  0  0  0  0
   -8.2847   18.3751  -31.8835 H   0  0  0  0  0  0  0  0  0  0  0  0
   -6.8440   18.6880  -33.4760 C   0  0  0  0  0  0  0  0  0  0  0  0
   -7.1373   17.7801  -34.0235 H   0  0  0  0  0  0  0  0  0  0  0  0
   -5.8300   19.5100  -33.9770 C   0  0  0  0  0  0  0  0  0  0  0  0
   -5.3275   19.2502  -34.9204 H   0  0  0  0  0  0  0  0  0  0  0  0
   -5.4540   20.6630  -33.2790 C   0  0  0  0  0  0  0  0  0  0  0  0
   -4.6584   21.3104  -33.6764 H   0  0  0  0  0  0  0  0  0  0  0  0
   -4.4120   22.6020  -31.2280 C   0  0  0  0  0  0  0  0  0  0  0  0
   -3.4080   21.9960  -31.6910 O   0  0  0  0  0  0  0  0  0  0  0  0
   -1.6980   22.2280  -29.7110 C   0  0  0  0  0  0  0  0  0  0  0  0
   -2.5499   22.3142  -30.4015 H   0  0  0  0  0  0  0  0  0  0  0  0
   -0.8950   21.0830  -32.5660 N   0  0  0  0  0  0  0  0  0  0  0  0
   -0.5740   21.9550  -32.0910 H   0  0  0  0  0  0  0  0  0  0  0  0
  1  2  1  0
  2  3  2  3
  3  4  1  0
  4  5  2  0
  5  6  1  0
  6  7  1  0
  7  8  2  0
  8  9  1  0
  8 10  1  0
 10 11  1  0
 10 12  2  0
 12 13  1  0
 12 14  1  0
 14 15  1  0
 14 16  2  0
 16 17  1  0
 17 18  1  0
 17 19  1  0
 17 20  1  0
 20 21  1  0
 20 22  1  0
 20 23  1  0
  5 24  1  0
 24 25  1  0
 25 26  2  0
 26 27  1  0
 27 28  2  0
 28 29  1  0
 28 30  1  0
 30 31  1  0
 30 32  2  0
 32 33  1  0
 33 34  1  0
 33 35  1  0
 33 36  1  0
 32 37  1  0
 37 38  1  0
 38 39  2  0
 38 40  2  0
 38 41  1  0
 41 42  1  0
 42 43  2  0
 43 44  1  0
 44 45  1  0
 44 46  1  0
 44 47  1  0
 43 48  1  0
 48 49  1  0
 49 50  1  0
 49 51  1  0
 49 52  1  0
 48 53  1  0
 53 54  1  0
 54 55  2  0
 55 56  1  0
 55 57  1  0
 57 58  1  0
 57 59  2  0
 59 60  1  0
 59 61  1  0
 61 62  1  0
 61 63  2  0
 63 64  1  0
 53 65  1  0
 65 66  2  0
 37 67  2  0
 67 68  1  0
 25 69  1  0
 69 70  1  0
 69  3  1  0
 16  7  1  0
 67 27  1  0
 65 42  1  0
 63 54  1  0
M  CHG  2  24  -1  41  -1
M  END
>  <UniqueID>  (32) 
31

>  <SMILES>  (32) 
CCc1ccccc1Oc1nc(=N)[nH]/c(=N\c2ccc(C)c(S(=O)(=O)[N-]c3c(C)n(C)n(-c4ccccc4)c3=O)c2)[n-]1

>  <Energy>  (32) 
133.91546057210397

>  <Genealogy>  (32) 
CCc1ccccc1Oc1nc(=N)[nH]c(=Nc2ccc(C)c(S(=O)(=O)[N-]c3c(C)n(C)n(-c4ccccc4)c3=O)c2)[n-]1 (protonated)
CCc1ccccc1Oc1nc(=N)[nH]/c(=N\c2ccc(C)c(S(=O)(=O)[N-]c3c(C)n(C)n(-c4ccccc4)c3=O)c2)[n-]1 (cis-trans isomerization)
CCc1ccccc1Oc1nc(=N)[nH]/c(=N\c2ccc(C)c(S(=O)(=O)[N-]c3c(C)n(C)n(-c4ccccc4)c3=O)c2)[n-]1 (3D coordinates assigned)
CCc1ccccc1Oc1nc(=N)[nH]/c(=N\c2ccc(C)c(S(=O)(=O)[N-]c3c(C)n(C)n(-c4ccccc4)c3=O)c2)[n-]1 (optimized conformer: 133.91546057210397 kcal/mol)

>  <smiles>  (32) 
CCc1ccccc1Oc1nc(=N)[nH]c(=Nc2ccc(C)c(S(=O)(=O)Nc3c(C)n(C)n(-c4ccccc4)c3=O)c2)[nH]1

>  <score_type>  (32) 
oracle

>  <origin>  (32) 
adgpu

>  <m_score__min__energy>  (32) 
-12.24

>  <m_primary>  (32) 
energy

$$$$
32:0
     RDKit          3D

 70 74  0  0  0  0  0  0  0  0999 V2000
   -0.8620   26.4120  -23.4500 C   0  0  0  0  0  0  0  0  0  0  0  0
    0.3580   25.7340  -24.0650 C   0  0  0  0  0  0  0  0  0  0  0  0
    0.0520   25.1890  -25.3880 N   0  0  0  0  0  0  0  0  0  0  0  0
   -0.1880   23.7870  -25.5730 C   0  0  0  0  0  0  0  0  0  0  0  0
   -0.1670   23.0150  -24.5760 O   0  0  0  0  0  0  0  0  0  0  0  0
   -0.4950   23.2290  -26.9140 C   0  0  0  0  0  0  0  0  0  0  0  0
   -0.0310   21.9600  -27.2990 C   0  0  0  0  0  0  0  0  0  0  0  0
   -0.3190   21.4570  -28.5700 C   0  0  0  0  0  0  0  0  0  0  0  0
   -1.0810   22.2070  -29.4760 C   0  0  0  0  0  0  0  0  0  0  0  0
   -1.3040   21.7130  -30.8070 N   0  0  0  0  0  0  0  0  0  0  0  0
   -0.2120   21.3370  -31.7060 C   0  0  0  0  0  0  0  0  0  0  0  0
   -0.8790   20.5980  -32.9240 C   0  0  0  0  0  0  0  0  0  0  0  0
   -0.2540   19.1850  -33.1430 C   0  0  0  0  0  0  0  0  0  0  0  0
   -0.1150   18.8510  -34.6310 C   0  0  0  0  0  0  0  0  0  0  0  0
    0.7890   19.8140  -35.2940 N   0  0  0  0  0  0  0  0  0  0  0  0
    0.7640   19.6080  -36.7520 C   0  0  0  0  0  0  0  0  0  0  0  0
    0.5400   21.2410  -34.9380 C   0  0  0  0  0  0  0  0  0  0  0  0
   -0.7940   21.4660  -34.2090 C   0  0  0  0  0  0  0  0  0  0  0  0
   -2.3160   20.4950  -32.4830 C   0  0  0  0  0  0  0  0  0  0  0  0
   -3.3840   19.8700  -33.1380 C   0  0  0  0  0  0  0  0  0  0  0  0
   -4.6590   19.9170  -32.5510 C   0  0  0  0  0  0  0  0  0  0  0  0
   -4.8520   20.5960  -31.3350 C   0  0  0  0  0  0  0  0  0  0  0  0
   -3.7700   21.2210  -30.6960 C   0  0  0  0  0  0  0  0  0  0  0  0
   -2.5060   21.1420  -31.2900 C   0  0  0  0  0  0  0  0  0  0  0  0
   -1.5520   23.4770  -29.1050 C   0  0  0  0  0  0  0  0  0  0  0  0
   -2.3750   24.2140  -30.0190 N   0  0  0  0  0  0  0  0  0  0  0  0
   -3.7320   24.6120  -29.7850 C   0  0  0  0  0  0  0  0  0  0  0  0
   -4.2780   24.4020  -28.6680 O   0  0  0  0  0  0  0  0  0  0  0  0
   -4.4630   25.3000  -30.8020 N   0  0  0  0  0  0  0  0  0  0  0  0
   -5.7980   24.8960  -31.2420 C   0  0  0  0  0  0  0  0  0  0  0  0
   -6.5800   24.2890  -30.0890 C   0  0  0  0  0  0  0  0  0  0  0  0
   -7.5850   23.3610  -30.7510 C   0  0  0  0  0  0  0  0  0  0  0  0
   -6.9080   22.8580  -32.0230 C   0  0  0  0  0  0  0  0  0  0  0  0
   -5.7320   23.7960  -32.3030 C   0  0  0  0  0  0  0  0  0  0  0  0
   -1.2730   23.9730  -27.8190 C   0  0  0  0  0  0  0  0  0  0  0  0
   -0.7898   26.3719  -22.3531 H   0  0  0  0  0  0  0  0  0  0  0  0
   -0.9018   27.4616  -23.7767 H   0  0  0  0  0  0  0  0  0  0  0  0
   -1.7743   25.8915  -23.7767 H   0  0  0  0  0  0  0  0  0  0  0  0
    1.1683   26.4718  -24.1599 H   0  0  0  0  0  0  0  0  0  0  0  0
    0.6621   24.9047  -23.4094 H   0  0  0  0  0  0  0  0  0  0  0  0
   -0.0740   25.8450  -26.1930 H   0  0  0  0  0  0  0  0  0  0  0  0
    0.5629   21.3586  -26.5950 H   0  0  0  0  0  0  0  0  0  0  0  0
    0.0552   20.4646  -28.8619 H   0  0  0  0  0  0  0  0  0  0  0  0
    0.3234   22.2338  -32.0511 H   0  0  0  0  0  0  0  0  0  0  0  0
    0.5201   20.6917  -31.1984 H   0  0  0  0  0  0  0  0  0  0  0  0
    0.7424   19.1600  -32.6776 H   0  0  0  0  0  0  0  0  0  0  0  0
   -0.9219   18.4402  -32.6856 H   0  0  0  0  0  0  0  0  0  0  0  0
    0.2957   17.8361  -34.7376 H   0  0  0  0  0  0  0  0  0  0  0  0
   -1.1066   18.9097  -35.1035 H   0  0  0  0  0  0  0  0  0  0  0  0
    0.6341   18.5374  -36.9689 H   0  0  0  0  0  0  0  0  0  0  0  0
   -0.0720   20.1745  -37.1881 H   0  0  0  0  0  0  0  0  0  0  0  0
    1.7112   19.9581  -37.1881 H   0  0  0  0  0  0  0  0  0  0  0  0
    1.3560   21.5847  -34.2853 H   0  0  0  0  0  0  0  0  0  0  0  0
    0.4938   21.8067  -35.8802 H   0  0  0  0  0  0  0  0  0  0  0  0
   -0.8783   22.5273  -33.9325 H   0  0  0  0  0  0  0  0  0  0  0  0
   -1.6145   21.1769  -34.8822 H   0  0  0  0  0  0  0  0  0  0  0  0
   -3.2272   19.3514  -34.0953 H   0  0  0  0  0  0  0  0  0  0  0  0
   -5.5086   19.4215  -33.0437 H   0  0  0  0  0  0  0  0  0  0  0  0
   -5.8541   20.6375  -30.8832 H   0  0  0  0  0  0  0  0  0  0  0  0
   -3.9128   21.7613  -29.7485 H   0  0  0  0  0  0  0  0  0  0  0  0
   -6.2745   25.8053  -31.6371 H   0  0  0  0  0  0  0  0  0  0  0  0
   -5.9120   23.7248  -29.4216 H   0  0  0  0  0  0  0  0  0  0  0  0
   -7.0671   25.0548  -29.4675 H   0  0  0  0  0  0  0  0  0  0  0  0
   -7.8252   22.5186  -30.0857 H   0  0  0  0  0  0  0  0  0  0  0  0
   -8.5305   23.8780  -30.9718 H   0  0  0  0  0  0  0  0  0  0  0  0
   -6.5451   21.8299  -31.8769 H   0  0  0  0  0  0  0  0  0  0  0  0
   -7.6136   22.8494  -32.8668 H   0  0  0  0  0  0  0  0  0  0  0  0
   -4.7812   23.2484  -32.2252 H   0  0  0  0  0  0  0  0  0  0  0  0
   -5.7884   24.2158  -33.3182 H   0  0  0  0  0  0  0  0  0  0  0  0
   -1.6679   24.9544  -27.5174 H   0  0  0  0  0  0  0  0  0  0  0  0
  1  2  1  0
  2  3  1  0
  3  4  1  0
  4  5  2  0
  4  6  1  0
  6  7  2  0
  7  8  1  0
  8  9  2  0
  9 10  1  0
 10 11  1  0
 11 12  1  0
 12 13  1  0
 13 14  1  0
 14 15  1  0
 15 16  1  0
 15 17  1  0
 17 18  1  0
 12 19  1  0
 19 20  2  0
 20 21  1  0
 21 22  2  0
 22 23  1  0
 23 24  2  0
  9 25  1  0
 25 26  1  0
 26 27  1  0
 27 28  2  0
 27 29  1  0
 29 30  1  0
 30 31  1  0
 31 32  1  0
 32 33  1  0
 33 34  1  0
 25 35  2  0
 35  6  1  0
 24 10  1  0
 34 30  1  0
 18 12  1  0
 24 19  1  0
  1 36  1  0
  1 37  1  0
  1 38  1  0
  2 39  1  0
  2 40  1  0
  3 41  1  0
  7 42  1  0
  8 43  1  0
 11 44  1  0
 11 45  1  0
 13 46  1  0
 13 47  1  0
 14 48  1  0
 14 49  1  0
 16 50  1  0
 16 51  1  0
 16 52  1  0
 17 53  1  0
 17 54  1  0
 18 55  1  0
 18 56  1  0
 20 57  1  0
 21 58  1  0
 22 59  1  0
 23 60  1  0
 30 61  1  0
 31 62  1  0
 31 63  1  0
 32 64  1  0
 32 65  1  0
 33 66  1  0
 33 67  1  0
 34 68  1  0
 34 69  1  0
 35 70  1  0
M  CHG  2  26  -1  29  -1
M  END
>  <UniqueID>  (33) 
32

>  <SMILES>  (33) 
CCNC(=O)c1ccc(N2CC3(CCN(C)CC3)c3ccccc32)c([N-]C(=O)[N-]C2CCCC2)c1

>  <Energy>  (33) 
102.31321246017612

>  <Genealogy>  (33) 
CCNC(=O)c1ccc(N2CC3(CCN(C)CC3)c3ccccc32)c([N-]C(=O)[N-]C2CCCC2)c1 (protonated)
CCNC(=O)c1ccc(N2CC3(CCN(C)CC3)c3ccccc32)c([N-]C(=O)[N-]C2CCCC2)c1 (3D coordinates assigned)
CCNC(=O)c1ccc(N2CC3(CCN(C)CC3)c3ccccc32)c([N-]C(=O)[N-]C2CCCC2)c1 (nonaromatic ring conformer: 102.31321246017612 kcal/mol)

>  <smiles>  (33) 
CCNC(=O)c1ccc(N2CC3(CCN(C)CC3)c3ccccc32)c(NC(=O)NC2CCCC2)c1

>  <score_type>  (33) 
oracle

>  <origin>  (33) 
adgpu

>  <m_score__min__energy>  (33) 
-12.85

>  <m_primary>  (33) 
energy

$$$$
33:0
     RDKit          3D

 28 30  0  0  0  0  0  0  0  0999 V2000
   -4.1270   21.1970  -29.7420 H   0  0  0  0  0  0  0  0  0  0  0  0
   -3.5620   22.0650  -29.6160 N   0  0  0  0  0  0  0  0  0  0  0  0
   -3.9090   23.2100  -30.1150 C   0  0  0  0  0  0  0  0  0  0  0  0
   -5.0460   23.4790  -30.8600 C   0  0  0  0  0  0  0  0  0  0  0  0
   -6.0850   22.5550  -31.3610 C   0  0  0  0  0  0  0  0  0  0  0  0
   -7.4240   22.7300  -30.9760 C   0  0  0  0  0  0  0  0  0  0  0  0
   -7.6932   23.5467  -30.2900 H   0  0  0  0  0  0  0  0  0  0  0  0
   -8.4170   21.8730  -31.4590 C   0  0  0  0  0  0  0  0  0  0  0  0
   -9.4615   22.0116  -31.1431 H   0  0  0  0  0  0  0  0  0  0  0  0
   -8.0870   20.8380  -32.3440 C   0  0  0  0  0  0  0  0  0  0  0  0
   -9.1040   19.9620  -32.8390 N   0  0  0  0  0  0  0  0  0  0  0  0
   -9.8330   19.5740  -32.2000 H   0  0  0  0  0  0  0  0  0  0  0  0
   -9.1340   19.6960  -33.8490 H   0  0  0  0  0  0  0  0  0  0  0  0
   -6.7550   20.6720  -32.7470 C   0  0  0  0  0  0  0  0  0  0  0  0
   -6.4906   19.8654  -33.4466 H   0  0  0  0  0  0  0  0  0  0  0  0
   -5.7610   21.5280  -32.2630 C   0  0  0  0  0  0  0  0  0  0  0  0
   -4.7192   21.3964  -32.5905 H   0  0  0  0  0  0  0  0  0  0  0  0
   -5.0010   24.8510  -31.0560 C   0  0  0  0  0  0  0  0  0  0  0  0
   -5.7545   25.4379  -31.6017 H   0  0  0  0  0  0  0  0  0  0  0  0
   -3.8930   25.3570  -30.4760 N   0  0  0  0  0  0  0  0  0  0  0  0
   -3.2330   24.3600  -29.9080 N   0  0  0  0  0  0  0  0  0  0  0  0
   -2.0090   24.5420  -29.1810 C   0  0  0  0  0  0  0  0  0  0  0  0
   -1.0850   23.5690  -29.0270 N   0  0  0  0  0  0  0  0  0  0  0  0
   -0.1210   24.1600  -28.3000 C   0  0  0  0  0  0  0  0  0  0  0  0
    0.8116   23.6796  -27.9692 H   0  0  0  0  0  0  0  0  0  0  0  0
   -0.4840   25.4590  -28.0350 C   0  0  0  0  0  0  0  0  0  0  0  0
    0.1122   26.1805  -27.4572 H   0  0  0  0  0  0  0  0  0  0  0  0
   -1.6810   25.7100  -28.5920 N   0  0  0  0  0  0  0  0  0  0  0  0
  1  2  1  0
  2  3  2  0
  3  4  1  0
  4  5  1  0
  5  6  2  0
  6  7  1  0
  6  8  1  0
  8  9  1  0
  8 10  2  0
 10 11  1  0
 11 12  1  0
 11 13  1  0
 10 14  1  0
 14 15  1  0
 14 16  2  0
 16 17  1  0
  4 18  2  0
 18 19  1  0
 18 20  1  0
 20 21  1  0
 21 22  1  0
 22 23  2  0
 23 24  1  0
 24 25  1  0
 24 26  2  0
 26 27  1  0
 26 28  1  0
 21  3  1  0
 28 22  1  0
 16  5  1  0
M  CHG  2  20  -1  28  -1
M  END
>  <UniqueID>  (34) 
33

>  <SMILES>  (34) 
[H]/N=c1\c(-c2ccc(N)cc2)c[n-]n1-c1ncc[n-]1

>  <Energy>  (34) 
95.2778391326553

>  <Genealogy>  (34) 
N=c1c(-c2ccc(N)cc2)c[n-]n1-c1ncc[n-]1 (protonated)
[H]/N=c1\c(-c2ccc(N)cc2)c[n-]n1-c1ncc[n-]1 (cis-trans isomerization)
[H]/N=c1\c(-c2ccc(N)cc2)c[n-]n1-c1ncc[n-]1 (3D coordinates assigned)
[H]/N=c1\c(-c2ccc(N)cc2)c[n-]n1-c1ncc[n-]1 (optimized conformer: 95.2778391326553 kcal/mol)

>  <smiles>  (34) 
N=c1c(-c2ccc(N)cc2)c[nH]n1-c1ncc[nH]1

>  <score_type>  (34) 
oracle

>  <origin>  (34) 
adgpu

>  <m_score__min__energy>  (34) 
-9.8599999999999994

>  <m_primary>  (34) 
energy

$$$$
34:0
     RDKit          3D

 46 48  0  0  0  0  0  0  0  0999 V2000
   -8.8520   18.5580  -31.5880 C   0  0  0  0  0  0  0  0  0  0  0  0
   -9.4200   19.5100  -32.6360 C   0  0  0  0  0  0  0  0  0  0  0  0
   -8.6250   20.6940  -32.7330 O   0  0  0  0  0  0  0  0  0  0  0  0
   -7.2200   20.7590  -32.7690 C   0  0  0  0  0  0  0  0  0  0  0  0
   -6.4650   19.6950  -33.3060 C   0  0  0  0  0  0  0  0  0  0  0  0
   -5.0620   19.7310  -33.3140 C   0  0  0  0  0  0  0  0  0  0  0  0
   -4.2880   18.6890  -33.8470 O   0  0  0  0  0  0  0  0  0  0  0  0
   -4.6350   17.3380  -33.7540 C   0  0  0  0  0  0  0  0  0  0  0  0
   -5.8280   16.8800  -34.3150 C   0  0  0  0  0  0  0  0  0  0  0  0
   -6.1700   15.5300  -34.2180 C   0  0  0  0  0  0  0  0  0  0  0  0
   -5.3220   14.6320  -33.5620 C   0  0  0  0  0  0  0  0  0  0  0  0
   -4.1050   15.0700  -32.9930 C   0  0  0  0  0  0  0  0  0  0  0  0
   -3.2070   14.1330  -32.3320 N   0  0  0  0  0  0  0  0  0  0  0  0
   -3.7380   13.0670  -31.4710 C   0  0  0  0  0  0  0  0  0  0  0  0
   -1.7500   14.2400  -32.5040 C   0  0  0  0  0  0  0  0  0  0  0  0
   -3.7840   16.4440  -33.0950 C   0  0  0  0  0  0  0  0  0  0  0  0
   -4.4070   20.8400  -32.7880 C   0  0  0  0  0  0  0  0  0  0  0  0
   -5.1250   21.9180  -32.2710 C   0  0  0  0  0  0  0  0  0  0  0  0
   -4.4480   22.9550  -31.7910 O   0  0  0  0  0  0  0  0  0  0  0  0
   -5.0380   24.0270  -31.2820 C   0  0  0  0  0  0  0  0  0  0  0  0
   -4.3350   24.9730  -30.8420 O   0  0  0  0  0  0  0  0  0  0  0  0
   -6.4260   24.1120  -31.2370 C   0  0  0  0  0  0  0  0  0  0  0  0
   -7.2040   23.0550  -31.7300 C   0  0  0  0  0  0  0  0  0  0  0  0
   -8.7030   23.2080  -31.6790 C   0  0  0  0  0  0  0  0  0  0  0  0
   -6.5470   21.9050  -32.2600 C   0  0  0  0  0  0  0  0  0  0  0  0
   -9.0805   18.9410  -30.5825 H   0  0  0  0  0  0  0  0  0  0  0  0
   -9.3043   17.5631  -31.7129 H   0  0  0  0  0  0  0  0  0  0  0  0
   -7.7617   18.4835  -31.7129 H   0  0  0  0  0  0  0  0  0  0  0  0
   -9.4335   19.0041  -33.6127 H   0  0  0  0  0  0  0  0  0  0  0  0
  -10.4396   19.7945  -32.3369 H   0  0  0  0  0  0  0  0  0  0  0  0
   -6.9853   18.8215  -33.7259 H   0  0  0  0  0  0  0  0  0  0  0  0
   -6.4980   17.5819  -34.8330 H   0  0  0  0  0  0  0  0  0  0  0  0
   -7.1112   15.1708  -34.6598 H   0  0  0  0  0  0  0  0  0  0  0  0
   -5.6058   13.5718  -33.4881 H   0  0  0  0  0  0  0  0  0  0  0  0
   -3.5996   13.3449  -30.4157 H   0  0  0  0  0  0  0  0  0  0  0  0
   -4.8099   12.9295  -31.6764 H   0  0  0  0  0  0  0  0  0  0  0  0
   -3.2020   12.1286  -31.6764 H   0  0  0  0  0  0  0  0  0  0  0  0
   -1.2659   14.2756  -31.5169 H   0  0  0  0  0  0  0  0  0  0  0  0
   -1.3815   13.3665  -33.0619 H   0  0  0  0  0  0  0  0  0  0  0  0
   -1.5131   15.1580  -33.0619 H   0  0  0  0  0  0  0  0  0  0  0  0
   -2.8498   16.8157  -32.6488 H   0  0  0  0  0  0  0  0  0  0  0  0
   -3.3074   20.8669  -32.7798 H   0  0  0  0  0  0  0  0  0  0  0  0
   -6.9111   25.0051  -30.8162 H   0  0  0  0  0  0  0  0  0  0  0  0
   -9.0327   23.2416  -30.6301 H   0  0  0  0  0  0  0  0  0  0  0  0
   -8.9938   24.1405  -32.1848 H   0  0  0  0  0  0  0  0  0  0  0  0
   -9.1762   22.3535  -32.1848 H   0  0  0  0  0  0  0  0  0  0  0  0
  1  2  1  0
  2  3  1  0
  3  4  1  0
  4  5  2  0
  5  6  1  0
  6  7  1  0
  7  8  1  0
  8  9  2  0
  9 10  1  0
 10 11  2  0
 11 12  1  0
 12 13  1  0
 13 14  1  0
 13 15  1  0
 12 16  2  0
  6 17  2  0
 17 18  1  0
 18 19  1  0
 19 20  1  0
 20 21  2  0
 20 22  1  0
 22 23  2  0
 23 24  1  0
 23 25  1  0
 25  4  1  0
 16  8  1  0
 25 18  2  0
  1 26  1  0
  1 27  1  0
  1 28  1  0
  2 29  1  0
  2 30  1  0
  5 31  1  0
  9 32  1  0
 10 33  1  0
 11 34  1  0
 14 35  1  0
 14 36  1  0
 14 37  1  0
 15 38  1  0
 15 39  1  0
 15 40  1  0
 16 41  1  0
 17 42  1  0
 22 43  1  0
 24 44  1  0
 24 45  1  0
 24 46  1  0
M  END
>  <UniqueID>  (35) 
34

>  <SMILES>  (35) 
CCOc1cc(Oc2cccc(N(C)C)c2)cc2oc(=O)cc(C)c12

>  <Energy>  (35) 
65.40918055721005

>  <Genealogy>  (35) 
CCOc1cc(Oc2cccc(N(C)C)c2)cc2oc(=O)cc(C)c12 (3D coordinates assigned)
CCOc1cc(Oc2cccc(N(C)C)c2)cc2oc(=O)cc(C)c12 (optimized conformer: 65.40918055721005 kcal/mol)

>  <smiles>  (35) 
CCOc1cc(Oc2cccc(N(C)C)c2)cc2oc(=O)cc(C)c12

>  <score_type>  (35) 
oracle

>  <origin>  (35) 
adgpu

>  <m_score__min__energy>  (35) 
-7.8399999999999999

>  <m_primary>  (35) 
energy

$$$$
35:0
     RDKit          3D

 27 28  0  0  0  0  0  0  0  0999 V2000
   -1.9510   25.6290  -28.9690 O   0  0  0  0  0  0  0  0  0  0  0  0
   -2.5380   24.5550  -29.6290 C   0  0  0  0  0  0  0  0  0  0  0  0
   -1.9760   23.2820  -29.5140 C   0  0  0  0  0  0  0  0  0  0  0  0
   -2.5550   22.1970  -30.1740 C   0  0  0  0  0  0  0  0  0  0  0  0
   -3.7040   22.3740  -30.9650 C   0  0  0  0  0  0  0  0  0  0  0  0
   -4.2930   21.2090  -31.6690 C   0  0  0  0  0  0  0  0  0  0  0  0
   -3.5340   20.4900  -32.6040 C   0  0  0  0  0  0  0  0  0  0  0  0
   -4.0900   19.4030  -33.2800 C   0  0  0  0  0  0  0  0  0  0  0  0
   -5.4120   19.0150  -33.0360 C   0  0  0  0  0  0  0  0  0  0  0  0
   -6.0990   17.5190  -34.0240 Br  0  0  0  0  0  0  0  0  0  0  0  0
   -6.1890   19.7240  -32.0930 C   0  0  0  0  0  0  0  0  0  0  0  0
   -7.6290   19.3740  -31.8210 C   0  0  0  0  0  0  0  0  0  0  0  0
   -8.7310   20.5990  -32.5930 S   0  0  0  0  0  0  0  0  0  0  0  0
   -5.6230   20.8260  -31.4280 C   0  0  0  0  0  0  0  0  0  0  0  0
   -4.2790   23.6590  -31.0710 C   0  0  0  0  0  0  0  0  0  0  0  0
   -5.4420   23.8410  -31.8210 O   0  0  0  0  0  0  0  0  0  0  0  0
   -3.6870   24.7470  -30.4050 C   0  0  0  0  0  0  0  0  0  0  0  0
   -4.2390   26.0190  -30.5060 O   0  0  0  0  0  0  0  0  0  0  0  0
   -1.0744   23.1338  -28.9015 H   0  0  0  0  0  0  0  0  0  0  0  0
   -2.1093   21.1963  -30.0747 H   0  0  0  0  0  0  0  0  0  0  0  0
   -2.4936   20.7848  -32.8058 H   0  0  0  0  0  0  0  0  0  0  0  0
   -3.4841   18.8468  -34.0105 H   0  0  0  0  0  0  0  0  0  0  0  0
   -7.8454   18.3784  -32.2358 H   0  0  0  0  0  0  0  0  0  0  0  0
   -7.7988   19.3735  -30.7342 H   0  0  0  0  0  0  0  0  0  0  0  0
   -8.6990   19.9660  -33.8500 H   0  0  0  0  0  0  0  0  0  0  0  0
   -6.2299   21.3961  -30.7092 H   0  0  0  0  0  0  0  0  0  0  0  0
   -5.9260   24.7310  -31.8630 H   0  0  0  0  0  0  0  0  0  0  0  0
  1  2  1  0
  2  3  2  0
  3  4  1  0
  4  5  2  0
  5  6  1  0
  6  7  2  0
  7  8  1  0
  8  9  2  0
  9 10  1  0
  9 11  1  0
 11 12  1  0
 12 13  1  0
 11 14  2  0
  5 15  1  0
 15 16  1  0
 15 17  2  0
 17 18  1  0
 17  2  1  0
 14  6  1  0
  3 19  1  0
  4 20  1  0
  7 21  1  0
  8 22  1  0
 12 23  1  0
 12 24  1  0
 13 25  1  0
 14 26  1  0
 16 27  1  0
M  CHG  2   1  -1  18  -1
M  END
>  <UniqueID>  (36) 
35

>  <SMILES>  (36) 
[O-]c1ccc(-c2ccc(Br)c(CS)c2)c(O)c1[O-]

>  <Energy>  (36) 
34.39622763941955

>  <Genealogy>  (36) 
[O-]c1ccc(-c2ccc(Br)c(CS)c2)c(O)c1[O-] (protonated)
[O-]c1ccc(-c2ccc(Br)c(CS)c2)c(O)c1[O-] (3D coordinates assigned)
[O-]c1ccc(-c2ccc(Br)c(CS)c2)c(O)c1[O-] (optimized conformer: 34.39622763941955 kcal/mol)

>  <smiles>  (36) 
Oc1ccc(-c2ccc(Br)c(CS)c2)c(O)c1O

>  <score_type>  (36) 
oracle

>  <origin>  (36) 
adgpu

>  <m_score__min__energy>  (36) 
-11.94

>  <m_primary>  (36) 
energy

$$$$
36:0
     RDKit          3D

 59 63  0  0  0  0  0  0  0  0999 V2000
    0.6670   27.9740  -23.4320 C   0  0  0  0  0  0  0  0  0  0  0  0
   -0.1910   26.8320  -22.9360 C   0  0  0  0  0  0  0  0  0  0  0  0
   -0.7020   26.0140  -24.0580 C   0  0  0  0  0  0  0  0  0  0  0  0
   -0.3880   24.7860  -24.1870 O   0  0  0  0  0  0  0  0  0  0  0  0
   -1.5630   26.6590  -24.9960 N   0  0  0  0  0  0  0  0  0  0  0  0
   -2.1000   25.9270  -26.1140 C   0  0  0  0  0  0  0  0  0  0  0  0
   -3.3280   25.2990  -25.9320 C   0  0  0  0  0  0  0  0  0  0  0  0
   -3.8540   24.5980  -26.9960 C   0  0  0  0  0  0  0  0  0  0  0  0
   -3.1880   24.5100  -28.2260 C   0  0  0  0  0  0  0  0  0  0  0  0
   -3.8470   23.7320  -29.2520 C   0  0  0  0  0  0  0  0  0  0  0  0
   -3.2160   22.5960  -29.7130 C   0  0  0  0  0  0  0  0  0  0  0  0
   -3.7610   21.8360  -30.6770 N   0  0  0  0  0  0  0  0  0  0  0  0
   -4.9290   22.1410  -31.2300 C   0  0  0  0  0  0  0  0  0  0  0  0
   -5.6560   21.5250  -32.2120 C   0  0  0  0  0  0  0  0  0  0  0  0
   -5.4710   20.3580  -33.0220 C   0  0  0  0  0  0  0  0  0  0  0  0
   -6.4080   19.6160  -33.6710 C   0  0  0  0  0  0  0  0  0  0  0  0
   -6.0930   18.4960  -34.4570 C   0  0  0  0  0  0  0  0  0  0  0  0
   -4.7800   18.1090  -34.5940 C   0  0  0  0  0  0  0  0  0  0  0  0
   -3.8390   18.8700  -33.9310 C   0  0  0  0  0  0  0  0  0  0  0  0
   -2.4330   18.5570  -34.0100 N   0  0  0  0  0  0  0  0  0  0  0  0
   -1.4230   19.6170  -33.9410 C   0  0  0  0  0  0  0  0  0  0  0  0
   -0.1850   19.0400  -33.2830 C   0  0  0  0  0  0  0  0  0  0  0  0
    0.2640   17.9400  -34.1190 N   0  0  0  0  0  0  0  0  0  0  0  0
   -0.6490   16.8380  -34.0490 C   0  0  0  0  0  0  0  0  0  0  0  0
   -2.0890   17.1730  -34.1610 C   0  0  0  0  0  0  0  0  0  0  0  0
   -4.1790   19.9340  -33.1900 N   0  0  0  0  0  0  0  0  0  0  0  0
   -6.7880   22.3510  -32.3430 C   0  0  0  0  0  0  0  0  0  0  0  0
   -6.6730   23.3760  -31.4560 N   0  0  0  0  0  0  0  0  0  0  0  0
   -5.5600   23.2470  -30.7940 N   0  0  0  0  0  0  0  0  0  0  0  0
   -5.0560   24.0500  -29.8230 C   0  0  0  0  0  0  0  0  0  0  0  0
   -5.7230   25.0740  -29.4450 N   0  0  0  0  0  0  0  0  0  0  0  0
   -1.9740   25.1410  -28.3820 C   0  0  0  0  0  0  0  0  0  0  0  0
   -1.4140   25.8610  -27.3180 C   0  0  0  0  0  0  0  0  0  0  0  0
    1.0794   28.5229  -22.5726 H   0  0  0  0  0  0  0  0  0  0  0  0
    1.4910   27.5754  -24.0421 H   0  0  0  0  0  0  0  0  0  0  0  0
    0.0548   28.6544  -24.0421 H   0  0  0  0  0  0  0  0  0  0  0  0
    0.4113   26.1936  -22.2729 H   0  0  0  0  0  0  0  0  0  0  0  0
   -1.0510   27.2544  -22.3957 H   0  0  0  0  0  0  0  0  0  0  0  0
   -1.8260   27.6650  -24.8990 H   0  0  0  0  0  0  0  0  0  0  0  0
   -3.8611   25.3598  -24.9717 H   0  0  0  0  0  0  0  0  0  0  0  0
   -4.8240   24.0933  -26.8763 H   0  0  0  0  0  0  0  0  0  0  0  0
   -2.2462   22.3062  -29.2823 H   0  0  0  0  0  0  0  0  0  0  0  0
   -3.2250   21.0120  -30.9780 H   0  0  0  0  0  0  0  0  0  0  0  0
   -7.4643   19.9076  -33.5755 H   0  0  0  0  0  0  0  0  0  0  0  0
   -6.8915   17.9312  -34.9604 H   0  0  0  0  0  0  0  0  0  0  0  0
   -4.4947   17.2372  -35.2012 H   0  0  0  0  0  0  0  0  0  0  0  0
   -1.1786   19.9668  -34.9549 H   0  0  0  0  0  0  0  0  0  0  0  0
   -1.8028   20.4705  -33.3602 H   0  0  0  0  0  0  0  0  0  0  0  0
    0.5997   19.8078  -33.2147 H   0  0  0  0  0  0  0  0  0  0  0  0
   -0.4067   18.6938  -32.2627 H   0  0  0  0  0  0  0  0  0  0  0  0
    1.1820   17.6240  -33.7360 H   0  0  0  0  0  0  0  0  0  0  0  0
   -0.4012   16.1444  -34.8660 H   0  0  0  0  0  0  0  0  0  0  0  0
   -0.5227   16.4145  -33.0417 H   0  0  0  0  0  0  0  0  0  0  0  0
   -2.4322   16.8488  -35.1545 H   0  0  0  0  0  0  0  0  0  0  0  0
   -2.5765   16.6563  -33.3211 H   0  0  0  0  0  0  0  0  0  0  0  0
   -7.6224   22.1946  -33.0425 H   0  0  0  0  0  0  0  0  0  0  0  0
   -5.3880   25.7060  -28.6960 H   0  0  0  0  0  0  0  0  0  0  0  0
   -1.4429   25.0798  -29.3434 H   0  0  0  0  0  0  0  0  0  0  0  0
   -0.4442   26.3666  -27.4359 H   0  0  0  0  0  0  0  0  0  0  0  0
  1  2  1  0
  2  3  1  0
  3  4  2  0
  3  5  1  0
  5  6  1  0
  6  7  2  0
  7  8  1  0
  8  9  2  0
  9 10  1  0
 10 11  2  0
 11 12  1  0
 12 13  1  0
 13 14  2  0
 14 15  1  0
 15 16  2  0
 16 17  1  0
 17 18  2  0
 18 19  1  0
 19 20  1  0
 20 21  1  0
 21 22  1  0
 22 23  1  0
 23 24  1  0
 24 25  1  0
 19 26  2  0
 14 27  1  0
 27 28  2  0
 28 29  1  0
 29 30  1  0
 30 31  2  3
  9 32  1  0
 32 33  2  0
 33  6  1  0
 30 10  1  0
 29 13  1  0
 26 15  1  0
 25 20  1  0
  1 34  1  0
  1 35  1  0
  1 36  1  0
  2 37  1  0
  2 38  1  0
  5 39  1  0
  7 40  1  0
  8 41  1  0
 11 42  1  0
 12 43  1  0
 16 44  1  0
 17 45  1  0
 18 46  1  0
 21 47  1  0
 21 48  1  0
 22 49  1  0
 22 50  1  0
 23 51  1  0
 24 52  1  0
 24 53  1  0
 25 54  1  0
 25 55  1  0
 27 56  1  0
 31 57  1  0
 32 58  1  0
 33 59  1  0
M  END
>  <smiles>  (37) 
CCC(=O)Nc1ccc(-c2c[nH]c3c(-c4cccc(N5CCNCC5)n4)cnn3c2=N)cc1

>  <score_type>  (37) 
oracle

>  <origin>  (37) 
adgpu

>  <m_score__min__energy>  (37) 
-9.8699999999999992

>  <m_primary>  (37) 
energy

$$$$
37:0
     RDKit          3D

 32 34  0  0  0  0  0  0  0  0999 V2000
   -3.4330   25.2970  -30.4850 O   0  0  0  0  0  0  0  0  0  0  0  0
   -4.7590   24.8780  -30.4670 C   0  0  0  0  0  0  0  0  0  0  0  0
   -5.7250   25.6520  -29.8190 C   0  0  0  0  0  0  0  0  0  0  0  0
   -7.0570   25.2300  -29.7960 C   0  0  0  0  0  0  0  0  0  0  0  0
   -7.4260   24.0350  -30.4200 C   0  0  0  0  0  0  0  0  0  0  0  0
   -6.4620   23.2470  -31.0780 C   0  0  0  0  0  0  0  0  0  0  0  0
   -6.8510   21.9780  -31.7430 C   0  0  0  0  0  0  0  0  0  0  0  0
   -8.2000   21.5850  -31.7980 C   0  0  0  0  0  0  0  0  0  0  0  0
   -8.5640   20.3920  -32.4250 C   0  0  0  0  0  0  0  0  0  0  0  0
   -7.5900   19.5760  -33.0040 C   0  0  0  0  0  0  0  0  0  0  0  0
   -6.2350   19.9460  -32.9630 C   0  0  0  0  0  0  0  0  0  0  0  0
   -5.1980   19.0800  -33.5790 C   0  0  0  0  0  0  0  0  0  0  0  0
   -5.5660   17.9530  -34.3390 C   0  0  0  0  0  0  0  0  0  0  0  0
   -4.5880   17.1390  -34.9190 C   0  0  0  0  0  0  0  0  0  0  0  0
   -3.2340   17.4390  -34.7480 C   0  0  0  0  0  0  0  0  0  0  0  0
   -2.8570   18.5540  -33.9960 C   0  0  0  0  0  0  0  0  0  0  0  0
   -3.8310   19.3720  -33.4140 C   0  0  0  0  0  0  0  0  0  0  0  0
   -5.8750   21.1510  -32.3300 C   0  0  0  0  0  0  0  0  0  0  0  0
   -5.1230   23.6830  -31.0940 C   0  0  0  0  0  0  0  0  0  0  0  0
   -5.4372   26.5929  -29.3273 H   0  0  0  0  0  0  0  0  0  0  0  0
   -7.8170   25.8398  -29.2855 H   0  0  0  0  0  0  0  0  0  0  0  0
   -8.4760   23.7080  -30.3970 H   0  0  0  0  0  0  0  0  0  0  0  0
   -8.9736   22.2218  -31.3440 H   0  0  0  0  0  0  0  0  0  0  0  0
   -9.6221   20.0937  -32.4631 H   0  0  0  0  0  0  0  0  0  0  0  0
   -7.8854   18.6373  -33.4955 H   0  0  0  0  0  0  0  0  0  0  0  0
   -6.6302   17.7113  -34.4774 H   0  0  0  0  0  0  0  0  0  0  0  0
   -4.8851   16.2608  -35.5110 H   0  0  0  0  0  0  0  0  0  0  0  0
   -2.4659   16.7978  -35.2051 H   0  0  0  0  0  0  0  0  0  0  0  0
   -1.7910   18.7895  -33.8611 H   0  0  0  0  0  0  0  0  0  0  0  0
   -3.5268   20.2489  -32.8237 H   0  0  0  0  0  0  0  0  0  0  0  0
   -4.8171   21.4501  -32.2937 H   0  0  0  0  0  0  0  0  0  0  0  0
   -4.3581   23.0787  -31.6036 H   0  0  0  0  0  0  0  0  0  0  0  0
  1  2  1  0
  2  3  2  0
  3  4  1  0
  4  5  2  0
  5  6  1  0
  6  7  1  0
  7  8  2  0
  8  9  1  0
  9 10  2  0
 10 11  1  0
 11 12  1  0
 12 13  2  0
 13 14  1  0
 14 15  2  0
 15 16  1  0
 16 17  2  0
 11 18  2  0
  6 19  2  0
 19  2  1  0
 18  7  1  0
 17 12  1  0
  3 20  1  0
  4 21  1  0
  5 22  1  0
  8 23  1  0
  9 24  1  0
 10 25  1  0
 13 26  1  0
 14 27  1  0
 15 28  1  0
 16 29  1  0
 17 30  1  0
 18 31  1  0
 19 32  1  0
M  CHG  1   1  -1
M  END
>  <UniqueID>  (38) 
36

>  <SMILES>  (38) 
[O-]c1cccc(-c2cccc(-c3ccccc3)c2)c1

>  <Energy>  (38) 
45.57662998441518

>  <Genealogy>  (38) 
[O-]c1cccc(-c2cccc(-c3ccccc3)c2)c1 (protonated)
[O-]c1cccc(-c2cccc(-c3ccccc3)c2)c1 (3D coordinates assigned)
[O-]c1cccc(-c2cccc(-c3ccccc3)c2)c1 (optimized conformer: 45.57662998441518 kcal/mol)

>  <smiles>  (38) 
Oc1cccc(-c2cccc(-c3ccccc3)c2)c1

>  <score_type>  (38) 
oracle

>  <origin>  (38) 
adgpu

>  <m_score__min__energy>  (38) 
-11.279999999999999

>  <m_primary>  (38) 
energy

$$$$
38:0
     RDKit          3D

 36 38  0  0  0  0  0  0  0  0999 V2000
   -5.7880   26.4910  -30.1120 O   0  0  0  0  0  0  0  0  0  0  0  0
   -5.2810   25.3980  -30.4780 C   0  0  0  0  0  0  0  0  0  0  0  0
   -3.8550   25.2990  -30.5740 N   0  0  0  0  0  0  0  0  0  0  0  0
   -3.0630   24.1830  -30.0680 C   0  0  0  0  0  0  0  0  0  0  0  0
   -3.1570   24.1410  -28.5460 C   0  0  0  0  0  0  0  0  0  0  0  0
   -2.0200   24.8920  -27.9320 C   0  0  0  0  0  0  0  0  0  0  0  0
   -2.0000   25.3180  -26.6540 N   0  0  0  0  0  0  0  0  0  0  0  0
   -0.8080   25.9510  -26.6040 C   0  0  0  0  0  0  0  0  0  0  0  0
   -0.2800   26.6180  -25.3940 C   0  0  0  0  0  0  0  0  0  0  0  0
   -0.6640   26.1820  -24.1140 C   0  0  0  0  0  0  0  0  0  0  0  0
   -0.1630   26.8140  -22.9710 C   0  0  0  0  0  0  0  0  0  0  0  0
    0.7250   27.8860  -23.0960 C   0  0  0  0  0  0  0  0  0  0  0  0
    1.1130   28.3280  -24.3640 C   0  0  0  0  0  0  0  0  0  0  0  0
    2.2290   29.6750  -24.5180 Cl  0  0  0  0  0  0  0  0  0  0  0  0
    0.6140   27.6990  -25.5090 C   0  0  0  0  0  0  0  0  0  0  0  0
   -0.1550   25.9110  -27.7840 N   0  0  0  0  0  0  0  0  0  0  0  0
   -0.9390   25.2500  -28.5790 O   0  0  0  0  0  0  0  0  0  0  0  0
   -6.1720   24.2530  -30.7560 C   0  0  0  0  0  0  0  0  0  0  0  0
   -6.3500   23.8120  -32.0770 C   0  0  0  0  0  0  0  0  0  0  0  0
   -7.1810   22.7210  -32.3500 C   0  0  0  0  0  0  0  0  0  0  0  0
   -7.8270   22.0540  -31.3060 C   0  0  0  0  0  0  0  0  0  0  0  0
   -7.6370   22.4730  -29.9860 C   0  0  0  0  0  0  0  0  0  0  0  0
   -6.8080   23.5640  -29.7090 C   0  0  0  0  0  0  0  0  0  0  0  0
   -3.4485   23.2410  -30.4852 H   0  0  0  0  0  0  0  0  0  0  0  0
   -2.0125   24.3139  -30.3668 H   0  0  0  0  0  0  0  0  0  0  0  0
   -4.1061   24.5977  -28.2289 H   0  0  0  0  0  0  0  0  0  0  0  0
   -3.1121   23.0930  -28.2149 H   0  0  0  0  0  0  0  0  0  0  0  0
   -1.3627   25.3387  -24.0105 H   0  0  0  0  0  0  0  0  0  0  0  0
   -0.4682   26.4669  -21.9728 H   0  0  0  0  0  0  0  0  0  0  0  0
    1.1186   28.3819  -22.1965 H   0  0  0  0  0  0  0  0  0  0  0  0
    0.9218   28.0509  -26.5047 H   0  0  0  0  0  0  0  0  0  0  0  0
   -5.8336   24.3268  -32.9006 H   0  0  0  0  0  0  0  0  0  0  0  0
   -7.3263   22.3874  -33.3881 H   0  0  0  0  0  0  0  0  0  0  0  0
   -8.4849   21.1995  -31.5227 H   0  0  0  0  0  0  0  0  0  0  0  0
   -8.1406   21.9434  -29.1639 H   0  0  0  0  0  0  0  0  0  0  0  0
   -6.6529   23.8843  -28.6682 H   0  0  0  0  0  0  0  0  0  0  0  0
  1  2  2  0
  2  3  1  0
  3  4  1  0
  4  5  1  0
  5  6  1  0
  6  7  2  0
  7  8  1  0
  8  9  1  0
  9 10  2  0
 10 11  1  0
 11 12  2  0
 12 13  1  0
 13 14  1  0
 13 15  2  0
  8 16  2  0
 16 17  1  0
  2 18  1  0
 18 19  2  0
 19 20  1  0
 20 21  2  0
 21 22  1  0
 22 23  2  0
 17  6  1  0
 23 18  1  0
 15  9  1  0
  4 24  1  0
  4 25  1  0
  5 26  1  0
  5 27  1  0
 10 28  1  0
 11 29  1  0
 12 30  1  0
 15 31  1  0
 19 32  1  0
 20 33  1  0
 21 34  1  0
 22 35  1  0
 23 36  1  0
M  CHG  1   3  -1
M  END
>  <UniqueID>  (39) 
37

>  <SMILES>  (39) 
O=C([N-]CCc1nc(-c2cccc(Cl)c2)no1)c1ccccc1

>  <Energy>  (39) 
72.23771547993627

>  <Genealogy>  (39) 
O=C([N-]CCc1nc(-c2cccc(Cl)c2)no1)c1ccccc1 (protonated)
O=C([N-]CCc1nc(-c2cccc(Cl)c2)no1)c1ccccc1 (3D coordinates assigned)
O=C([N-]CCc1nc(-c2cccc(Cl)c2)no1)c1ccccc1 (optimized conformer: 72.23771547993627 kcal/mol)

>  <smiles>  (39) 
O=C(NCCc1nc(-c2cccc(Cl)c2)no1)c1ccccc1

>  <score_type>  (39) 
oracle

>  <origin>  (39) 
adgpu

>  <m_score__min__energy>  (39) 
-11.17

>  <m_primary>  (39) 
energy

$$$$
39:0
     RDKit          3D

 28 30  0  0  0  0  0  0  0  0999 V2000
   -3.9673   21.4370  -29.0616 H   0  0  0  0  0  0  0  0  0  0  0  0
   -3.8590   22.4720  -29.4180 C   0  0  0  0  0  0  0  0  0  0  0  0
   -4.7410   22.9730  -30.3850 C   0  0  0  0  0  0  0  0  0  0  0  0
   -5.8210   22.1250  -30.9370 C   0  0  0  0  0  0  0  0  0  0  0  0
   -7.1090   22.5480  -31.0510 N   0  0  0  0  0  0  0  0  0  0  0  0
   -7.7240   21.4830  -31.5850 C   0  0  0  0  0  0  0  0  0  0  0  0
   -9.0690   21.3540  -31.9210 C   0  0  0  0  0  0  0  0  0  0  0  0
   -9.7783   22.1790  -31.7589 H   0  0  0  0  0  0  0  0  0  0  0  0
   -9.4890   20.1290  -32.4760 C   0  0  0  0  0  0  0  0  0  0  0  0
  -10.5435   19.9872  -32.7550 H   0  0  0  0  0  0  0  0  0  0  0  0
   -8.5610   19.0810  -32.6760 C   0  0  0  0  0  0  0  0  0  0  0  0
   -8.8980   18.1282  -33.1103 H   0  0  0  0  0  0  0  0  0  0  0  0
   -7.2090   19.2490  -32.3230 C   0  0  0  0  0  0  0  0  0  0  0  0
   -6.4765   18.4420  -32.4719 H   0  0  0  0  0  0  0  0  0  0  0  0
   -6.8320   20.4750  -31.7780 C   0  0  0  0  0  0  0  0  0  0  0  0
   -5.6110   20.8520  -31.3740 N   0  0  0  0  0  0  0  0  0  0  0  0
   -4.5760   24.2980  -30.8170 C   0  0  0  0  0  0  0  0  0  0  0  0
   -5.2565   24.7138  -31.5746 H   0  0  0  0  0  0  0  0  0  0  0  0
   -3.5810   25.0720  -30.3060 N   0  0  0  0  0  0  0  0  0  0  0  0
   -3.4890   26.0550  -30.6520 H   0  0  0  0  0  0  0  0  0  0  0  0
   -2.7110   24.6060  -29.3640 C   0  0  0  0  0  0  0  0  0  0  0  0
   -1.7810   25.4030  -28.9180 N   0  0  0  0  0  0  0  0  0  0  0  0
   -0.7710   25.0750  -27.9160 C   0  0  0  0  0  0  0  0  0  0  0  0
   -1.1943   25.2125  -26.9101 H   0  0  0  0  0  0  0  0  0  0  0  0
   -0.4563   24.0285  -28.0415 H   0  0  0  0  0  0  0  0  0  0  0  0
    0.0985   25.7369  -28.0415 H   0  0  0  0  0  0  0  0  0  0  0  0
   -2.8450   23.2800  -28.9060 C   0  0  0  0  0  0  0  0  0  0  0  0
   -2.1528   22.8845  -28.1481 H   0  0  0  0  0  0  0  0  0  0  0  0
  1  2  1  0
  2  3  1  0
  3  4  1  0
  4  5  2  0
  5  6  1  0
  6  7  2  0
  7  8  1  0
  7  9  1  0
  9 10  1  0
  9 11  2  0
 11 12  1  0
 11 13  1  0
 13 14  1  0
 13 15  2  0
 15 16  1  0
  3 17  2  0
 17 18  1  0
 17 19  1  0
 19 20  1  0
 19 21  1  0
 21 22  2  0
 22 23  1  0
 23 24  1  0
 23 25  1  0
 23 26  1  0
 21 27  1  0
 27 28  1  0
 27  2  2  0
 16  4  1  0
 15  6  1  0
M  CHG  1  16  -1
M  END
>  <UniqueID>  (40) 
38

>  <SMILES>  (40) 
C/N=c1\ccc(-c2nc3ccccc3[n-]2)c[nH]1

>  <Energy>  (40) 
67.25391131008666

>  <Genealogy>  (40) 
CN=c1ccc(-c2nc3ccccc3[n-]2)c[nH]1 (protonated)
C/N=c1\ccc(-c2nc3ccccc3[n-]2)c[nH]1 (cis-trans isomerization)
C/N=c1\ccc(-c2nc3ccccc3[n-]2)c[nH]1 (3D coordinates assigned)
C/N=c1\ccc(-c2nc3ccccc3[n-]2)c[nH]1 (optimized conformer: 67.25391131008666 kcal/mol)

>  <smiles>  (40) 
CN=c1ccc(-c2nc3ccccc3[nH]2)c[nH]1

>  <score_type>  (40) 
oracle

>  <origin>  (40) 
adgpu

>  <m_score__min__energy>  (40) 
-7.1699999999999999

>  <m_primary>  (40) 
energy

$$$$
40:0
     RDKit          3D

 19 20  0  0  0  0  0  0  0  0999 V2000
   -5.5530   24.2240  -31.5850 O   0  0  0  0  0  0  0  0  0  0  0  0
   -4.6180   24.2190  -30.7410 C   0  0  0  0  0  0  0  0  0  0  0  0
   -4.2720   23.1200  -30.0360 N   0  0  0  0  0  0  0  0  0  0  0  0
   -3.2470   23.5390  -29.2610 C   0  0  0  0  0  0  0  0  0  0  0  0
   -2.5260   22.6560  -28.3150 C   0  0  0  0  0  0  0  0  0  0  0  0
   -1.3210   23.0540  -27.7080 C   0  0  0  0  0  0  0  0  0  0  0  0
   -0.6630   22.2040  -26.8130 C   0  0  0  0  0  0  0  0  0  0  0  0
   -1.2020   20.9520  -26.5090 C   0  0  0  0  0  0  0  0  0  0  0  0
   -2.4050   20.5490  -27.0940 C   0  0  0  0  0  0  0  0  0  0  0  0
   -3.0860   18.9800  -26.7070 Cl  0  0  0  0  0  0  0  0  0  0  0  0
   -3.0670   21.3980  -27.9900 C   0  0  0  0  0  0  0  0  0  0  0  0
   -3.0050   24.8750  -29.5360 C   0  0  0  0  0  0  0  0  0  0  0  0
   -2.0060   25.6720  -28.9910 O   0  0  0  0  0  0  0  0  0  0  0  0
   -3.8730   25.3030  -30.4630 N   0  0  0  0  0  0  0  0  0  0  0  0
   -0.8931   24.0407  -27.9388 H   0  0  0  0  0  0  0  0  0  0  0  0
    0.2814   22.5225  -26.3474 H   0  0  0  0  0  0  0  0  0  0  0  0
   -0.6795   20.2833  -25.8091 H   0  0  0  0  0  0  0  0  0  0  0  0
   -4.0172   21.0790  -28.4432 H   0  0  0  0  0  0  0  0  0  0  0  0
   -3.9420   26.2570  -30.8840 H   0  0  0  0  0  0  0  0  0  0  0  0
  1  2  2  0
  2  3  1  0
  3  4  1  0
  4  5  1  0
  5  6  2  0
  6  7  1  0
  7  8  2  0
  8  9  1  0
  9 10  1  0
  9 11  2  0
  4 12  2  0
 12 13  1  0
 12 14  1  0
 14  2  1  0
 11  5  1  0
  6 15  1  0
  7 16  1  0
  8 17  1  0
 11 18  1  0
 14 19  1  0
M  CHG  2   3  -1  13  -1
M  END
>  <UniqueID>  (41) 
39

>  <SMILES>  (41) 
O=c1[n-]c(-c2cccc(Cl)c2)c([O-])[nH]1

>  <Energy>  (41) 
53.92166228143017

>  <Genealogy>  (41) 
O=c1[n-]c(-c2cccc(Cl)c2)c([O-])[nH]1 (protonated)
O=c1[n-]c(-c2cccc(Cl)c2)c([O-])[nH]1 (3D coordinates assigned)
O=c1[n-]c(-c2cccc(Cl)c2)c([O-])[nH]1 (optimized conformer: 53.92166228143017 kcal/mol)

>  <smiles>  (41) 
O=c1[nH]c(O)c(-c2cccc(Cl)c2)[nH]1

>  <score_type>  (41) 
oracle

>  <origin>  (41) 
adgpu

>  <m_score__min__energy>  (41) 
-9.8499999999999996

>  <m_primary>  (41) 
energy

$$$$
41:0
     RDKit          3D

 42 44  0  0  0  0  0  0  0  0999 V2000
   -2.1820   17.8890  -33.8030 C   0  0  0  0  0  0  0  0  0  0  0  0
   -3.2530   17.5920  -34.6940 O   0  0  0  0  0  0  0  0  0  0  0  0
   -4.1110   16.4860  -34.5720 C   0  0  0  0  0  0  0  0  0  0  0  0
   -3.7510   15.2170  -35.0700 C   0  0  0  0  0  0  0  0  0  0  0  0
   -4.5990   14.1210  -34.8970 C   0  0  0  0  0  0  0  0  0  0  0  0
   -5.8110   14.2720  -34.2260 C   0  0  0  0  0  0  0  0  0  0  0  0
   -6.1870   15.5230  -33.7340 C   0  0  0  0  0  0  0  0  0  0  0  0
   -5.3540   16.6430  -33.9130 C   0  0  0  0  0  0  0  0  0  0  0  0
   -5.7920   17.9590  -33.3890 C   0  0  0  0  0  0  0  0  0  0  0  0
   -6.7710   18.0140  -32.5950 O   0  0  0  0  0  0  0  0  0  0  0  0
   -5.1600   19.1720  -33.8300 N   0  0  0  0  0  0  0  0  0  0  0  0
   -5.2220   20.4150  -33.1110 C   0  0  0  0  0  0  0  0  0  0  0  0
   -6.4510   20.9830  -32.7290 C   0  0  0  0  0  0  0  0  0  0  0  0
   -6.4830   22.1810  -32.0110 C   0  0  0  0  0  0  0  0  0  0  0  0
   -5.2910   22.8230  -31.6540 C   0  0  0  0  0  0  0  0  0  0  0  0
   -5.3490   24.3400  -30.7620 S   0  0  0  0  0  0  0  0  0  0  0  0
   -6.0430   24.1560  -29.4420 O   0  0  0  0  0  0  0  0  0  0  0  0
   -6.1050   25.3540  -31.5740 O   0  0  0  0  0  0  0  0  0  0  0  0
   -3.7380   24.9190  -30.4780 N   0  0  0  0  0  0  0  0  0  0  0  0
   -3.0110   24.5570  -29.4660 C   0  0  0  0  0  0  0  0  0  0  0  0
   -1.7570   25.0630  -29.3300 N   0  0  0  0  0  0  0  0  0  0  0  0
   -0.9650   24.7040  -28.2860 C   0  0  0  0  0  0  0  0  0  0  0  0
   -1.4380   23.8050  -27.3320 C   0  0  0  0  0  0  0  0  0  0  0  0
   -2.7250   23.2910  -27.4840 C   0  0  0  0  0  0  0  0  0  0  0  0
   -3.4840   23.6750  -28.5420 N   0  0  0  0  0  0  0  0  0  0  0  0
   -4.0630   22.2490  -32.0090 C   0  0  0  0  0  0  0  0  0  0  0  0
   -4.0290   21.0500  -32.7280 C   0  0  0  0  0  0  0  0  0  0  0  0
   -2.5314   17.7921  -32.7645 H   0  0  0  0  0  0  0  0  0  0  0  0
   -1.3538   17.1866  -33.9782 H   0  0  0  0  0  0  0  0  0  0  0  0
   -1.8338   18.9176  -33.9782 H   0  0  0  0  0  0  0  0  0  0  0  0
   -2.7949   15.0893  -35.5988 H   0  0  0  0  0  0  0  0  0  0  0  0
   -4.3095   13.1358  -35.2915 H   0  0  0  0  0  0  0  0  0  0  0  0
   -6.4721   13.4044  -34.0839 H   0  0  0  0  0  0  0  0  0  0  0  0
   -7.1431   15.6344  -33.2016 H   0  0  0  0  0  0  0  0  0  0  0  0
   -4.7140   19.1730  -34.7750 H   0  0  0  0  0  0  0  0  0  0  0  0
   -7.3923   20.4809  -32.9972 H   0  0  0  0  0  0  0  0  0  0  0  0
   -7.4492   22.6220  -31.7248 H   0  0  0  0  0  0  0  0  0  0  0  0
    0.0482   25.1224  -28.1939 H   0  0  0  0  0  0  0  0  0  0  0  0
   -0.8105   23.5078  -26.4788 H   0  0  0  0  0  0  0  0  0  0  0  0
   -3.1242   22.5766  -26.7490 H   0  0  0  0  0  0  0  0  0  0  0  0
   -3.1231   22.7429  -31.7213 H   0  0  0  0  0  0  0  0  0  0  0  0
   -3.0611   20.6010  -32.9955 H   0  0  0  0  0  0  0  0  0  0  0  0
  1  2  1  0
  2  3  1  0
  3  4  2  0
  4  5  1  0
  5  6  2  0
  6  7  1  0
  7  8  2  0
  8  9  1  0
  9 10  2  0
  9 11  1  0
 11 12  1  0
 12 13  2  0
 13 14  1  0
 14 15  2  0
 15 16  1  0
 16 17  2  0
 16 18  2  0
 16 19  1  0
 19 20  2  3
 20 21  1  0
 21 22  2  0
 22 23  1  0
 23 24  2  0
 24 25  1  0
 15 26  1  0
 26 27  2  0
  8  3  1  0
 27 12  1  0
 25 20  1  0
  1 28  1  0
  1 29  1  0
  1 30  1  0
  4 31  1  0
  5 32  1  0
  6 33  1  0
  7 34  1  0
 11 35  1  0
 13 36  1  0
 14 37  1  0
 22 38  1  0
 23 39  1  0
 24 40  1  0
 26 41  1  0
 27 42  1  0
M  CHG  1  25  -1
M  END
>  <UniqueID>  (42) 
40

>  <SMILES>  (42) 
COc1ccccc1C(=O)Nc1ccc(S(=O)(=O)N=c2nccc[n-]2)cc1

>  <Energy>  (42) 
55.471032511201145

>  <Genealogy>  (42) 
COc1ccccc1C(=O)Nc1ccc(S(=O)(=O)N=c2nccc[n-]2)cc1 (protonated)
COc1ccccc1C(=O)Nc1ccc(S(=O)(=O)N=c2nccc[n-]2)cc1 (3D coordinates assigned)
COc1ccccc1C(=O)Nc1ccc(S(=O)(=O)N=c2nccc[n-]2)cc1 (optimized conformer: 55.471032511201145 kcal/mol)

>  <smiles>  (42) 
COc1ccccc1C(=O)Nc1ccc(S(=O)(=O)N=c2nccc[nH]2)cc1

>  <score_type>  (42) 
oracle

>  <origin>  (42) 
adgpu

>  <m_score__min__energy>  (42) 
-8.9299999999999997

>  <m_primary>  (42) 
energy

$$$$
42:0
     RDKit          3D

 36 38  0  0  0  0  0  0  0  0999 V2000
   -6.1190   24.8700  -30.9690 C   0  0  0  0  0  0  0  0  0  0  0  0
   -6.5960   23.5400  -31.4410 C   0  0  0  0  0  0  0  0  0  0  0  0
   -7.8990   23.1870  -31.4810 N   0  0  0  0  0  0  0  0  0  0  0  0
   -8.0720   21.8960  -31.8770 C   0  0  0  0  0  0  0  0  0  0  0  0
   -9.4420   21.3000  -31.9600 C   0  0  0  0  0  0  0  0  0  0  0  0
   -6.8820   21.2080  -32.1610 C   0  0  0  0  0  0  0  0  0  0  0  0
   -6.7270   19.8060  -32.6080 C   0  0  0  0  0  0  0  0  0  0  0  0
   -6.0300   19.4970  -33.7860 C   0  0  0  0  0  0  0  0  0  0  0  0
   -5.8770   18.1680  -34.1920 C   0  0  0  0  0  0  0  0  0  0  0  0
   -6.4160   17.1180  -33.4230 C   0  0  0  0  0  0  0  0  0  0  0  0
   -6.2600   15.6990  -33.8330 C   0  0  0  0  0  0  0  0  0  0  0  0
   -5.1270   14.9480  -33.4940 C   0  0  0  0  0  0  0  0  0  0  0  0
   -5.0360   13.6230  -33.9100 C   0  0  0  0  0  0  0  0  0  0  0  0
   -6.0710   13.0680  -34.6610 C   0  0  0  0  0  0  0  0  0  0  0  0
   -5.9920   11.8670  -35.0400 O   0  0  0  0  0  0  0  0  0  0  0  0
   -7.1580   13.8350  -34.9820 N   0  0  0  0  0  0  0  0  0  0  0  0
   -8.2550   13.2820  -35.7750 C   0  0  0  0  0  0  0  0  0  0  0  0
   -7.2350   15.1060  -34.5760 N   0  0  0  0  0  0  0  0  0  0  0  0
   -7.0870   17.4320  -32.2290 C   0  0  0  0  0  0  0  0  0  0  0  0
   -7.2390   18.7610  -31.8250 C   0  0  0  0  0  0  0  0  0  0  0  0
   -5.5980   22.2590  -31.8650 S   0  0  0  0  0  0  0  0  0  0  0  0
   -6.1125   24.8881  -29.8692 H   0  0  0  0  0  0  0  0  0  0  0  0
   -5.1007   25.0488  -31.3447 H   0  0  0  0  0  0  0  0  0  0  0  0
   -6.7915   25.6552  -31.3447 H   0  0  0  0  0  0  0  0  0  0  0  0
   -9.8305   21.1310  -30.9448 H   0  0  0  0  0  0  0  0  0  0  0  0
  -10.1096   21.9890  -32.4981 H   0  0  0  0  0  0  0  0  0  0  0  0
   -9.3930   20.3418  -32.4981 H   0  0  0  0  0  0  0  0  0  0  0  0
   -5.6008   20.3065  -34.3946 H   0  0  0  0  0  0  0  0  0  0  0  0
   -5.3313   17.9404  -35.1195 H   0  0  0  0  0  0  0  0  0  0  0  0
   -4.3166   15.4015  -32.9044 H   0  0  0  0  0  0  0  0  0  0  0  0
   -4.1548   13.0188  -33.6484 H   0  0  0  0  0  0  0  0  0  0  0  0
   -9.0323   12.8901  -35.1025 H   0  0  0  0  0  0  0  0  0  0  0  0
   -8.6833   14.0719  -36.4095 H   0  0  0  0  0  0  0  0  0  0  0  0
   -7.8747   12.4679  -36.4095 H   0  0  0  0  0  0  0  0  0  0  0  0
   -7.4968   16.6234  -31.6060 H   0  0  0  0  0  0  0  0  0  0  0  0
   -7.7642   18.9894  -30.8858 H   0  0  0  0  0  0  0  0  0  0  0  0
  1  2  1  0
  2  3  2  0
  3  4  1  0
  4  5  1  0
  4  6  2  0
  6  7  1  0
  7  8  2  0
  8  9  1  0
  9 10  2  0
 10 11  1  0
 11 12  1  0
 12 13  2  0
 13 14  1  0
 14 15  2  0
 14 16  1  0
 16 17  1  0
 16 18  1  0
 10 19  1  0
 19 20  2  0
  6 21  1  0
 21  2  1  0
 20  7  1  0
 18 11  2  0
  1 22  1  0
  1 23  1  0
  1 24  1  0
  5 25  1  0
  5 26  1  0
  5 27  1  0
  8 28  1  0
  9 29  1  0
 12 30  1  0
 13 31  1  0
 17 32  1  0
 17 33  1  0
 17 34  1  0
 19 35  1  0
 20 36  1  0
M  END
>  <UniqueID>  (43) 
41

>  <SMILES>  (43) 
Cc1nc(C)c(-c2ccc(-c3ccc(=O)n(C)n3)cc2)s1

>  <Energy>  (43) 
75.02457240206427

>  <Genealogy>  (43) 
Cc1nc(C)c(-c2ccc(-c3ccc(=O)n(C)n3)cc2)s1 (3D coordinates assigned)
Cc1nc(C)c(-c2ccc(-c3ccc(=O)n(C)n3)cc2)s1 (optimized conformer: 75.02457240206427 kcal/mol)

>  <smiles>  (43) 
Cc1nc(C)c(-c2ccc(-c3ccc(=O)n(C)n3)cc2)s1

>  <score_type>  (43) 
oracle

>  <origin>  (43) 
adgpu

>  <m_score__min__energy>  (43) 
-7.4000000000000004

>  <m_primary>  (43) 
energy

$$$$
43:0
     RDKit          3D

 38 40  0  0  0  0  0  0  0  0999 V2000
   -2.0550   19.4080  -26.8250 C   0  0  0  0  0  0  0  0  0  0  0  0
   -2.7450   20.5630  -27.5460 C   0  0  0  0  0  0  0  0  0  0  0  0
   -1.9280   21.1020  -28.7310 C   0  0  0  0  0  0  0  0  0  0  0  0
   -2.1970   22.5730  -28.9910 C   0  0  0  0  0  0  0  0  0  0  0  0
   -1.2690   23.5020  -28.4980 C   0  0  0  0  0  0  0  0  0  0  0  0
   -1.4790   24.8660  -28.7000 C   0  0  0  0  0  0  0  0  0  0  0  0
   -0.6440   25.7010  -28.2650 O   0  0  0  0  0  0  0  0  0  0  0  0
   -2.5550   25.2910  -29.3490 O   0  0  0  0  0  0  0  0  0  0  0  0
   -3.4770   24.4630  -29.8300 C   0  0  0  0  0  0  0  0  0  0  0  0
   -4.5850   24.9960  -30.4930 C   0  0  0  0  0  0  0  0  0  0  0  0
   -5.5770   24.1560  -30.9960 C   0  0  0  0  0  0  0  0  0  0  0  0
   -5.4760   22.7640  -30.8440 C   0  0  0  0  0  0  0  0  0  0  0  0
   -6.5450   21.8740  -31.3670 C   0  0  0  0  0  0  0  0  0  0  0  0
   -6.2200   20.7360  -32.1270 C   0  0  0  0  0  0  0  0  0  0  0  0
   -7.2270   19.9000  -32.6180 C   0  0  0  0  0  0  0  0  0  0  0  0
   -8.5720   20.1870  -32.3570 C   0  0  0  0  0  0  0  0  0  0  0  0
   -9.6020   19.3300  -32.8600 N   0  0  0  0  0  0  0  0  0  0  0  0
   -8.9040   21.3180  -31.6020 C   0  0  0  0  0  0  0  0  0  0  0  0
   -7.8990   22.1570  -31.1100 C   0  0  0  0  0  0  0  0  0  0  0  0
   -4.3560   22.2240  -30.1870 C   0  0  0  0  0  0  0  0  0  0  0  0
   -3.3440   23.0610  -29.6710 C   0  0  0  0  0  0  0  0  0  0  0  0
   -2.1405   19.5511  -25.7377 H   0  0  0  0  0  0  0  0  0  0  0  0
   -2.5347   18.4597  -27.1089 H   0  0  0  0  0  0  0  0  0  0  0  0
   -0.9926   19.3809  -27.1089 H   0  0  0  0  0  0  0  0  0  0  0  0
   -3.7175   20.2116  -27.9211 H   0  0  0  0  0  0  0  0  0  0  0  0
   -2.8576   21.3837  -26.8223 H   0  0  0  0  0  0  0  0  0  0  0  0
   -0.8580   20.9708  -28.5124 H   0  0  0  0  0  0  0  0  0  0  0  0
   -2.2249   20.5405  -29.6291 H   0  0  0  0  0  0  0  0  0  0  0  0
   -0.3781   23.1558  -27.9536 H   0  0  0  0  0  0  0  0  0  0  0  0
   -4.6751   26.0851  -30.6189 H   0  0  0  0  0  0  0  0  0  0  0  0
   -6.4454   24.5869  -31.5159 H   0  0  0  0  0  0  0  0  0  0  0  0
   -5.1658   20.5022  -32.3365 H   0  0  0  0  0  0  0  0  0  0  0  0
   -6.9614   19.0130  -33.2119 H   0  0  0  0  0  0  0  0  0  0  0  0
  -10.1470   18.7140  -32.2160 H   0  0  0  0  0  0  0  0  0  0  0  0
   -9.8270   19.3050  -33.8800 H   0  0  0  0  0  0  0  0  0  0  0  0
   -9.9596   21.5478  -31.3948 H   0  0  0  0  0  0  0  0  0  0  0  0
   -8.1690   23.0440  -30.5182 H   0  0  0  0  0  0  0  0  0  0  0  0
   -4.2676   21.1334  -30.0737 H   0  0  0  0  0  0  0  0  0  0  0  0
  1  2  1  0
  2  3  1  0
  3  4  1  0
  4  5  2  0
  5  6  1  0
  6  7  2  0
  6  8  1  0
  8  9  1  0
  9 10  2  0
 10 11  1  0
 11 12  2  0
 12 13  1  0
 13 14  2  0
 14 15  1  0
 15 16  2  0
 16 17  1  0
 16 18  1  0
 18 19  2  0
 12 20  1  0
 20 21  2  0
 21  4  1  0
 21  9  1  0
 19 13  1  0
  1 22  1  0
  1 23  1  0
  1 24  1  0
  2 25  1  0
  2 26  1  0
  3 27  1  0
  3 28  1  0
  5 29  1  0
 10 30  1  0
 11 31  1  0
 14 32  1  0
 15 33  1  0
 17 34  1  0
 17 35  1  0
 18 36  1  0
 19 37  1  0
 20 38  1  0
M  END
>  <UniqueID>  (44) 
42

>  <SMILES>  (44) 
CCCc1cc(=O)oc2ccc(-c3ccc(N)cc3)cc12

>  <Energy>  (44) 
46.835926401519906

>  <Genealogy>  (44) 
CCCc1cc(=O)oc2ccc(-c3ccc(N)cc3)cc12 (3D coordinates assigned)
CCCc1cc(=O)oc2ccc(-c3ccc(N)cc3)cc12 (optimized conformer: 46.835926401519906 kcal/mol)

>  <smiles>  (44) 
CCCc1cc(=O)oc2ccc(-c3ccc(N)cc3)cc12

>  <score_type>  (44) 
oracle

>  <origin>  (44) 
adgpu

>  <m_score__min__energy>  (44) 
-8.4399999999999995

>  <m_primary>  (44) 
energy

$$$$
44:0
     RDKit          3D

 31 32  0  0  0  0  0  0  0  0999 V2000
   -0.3500   26.1710  -29.0320 H   0  0  0  0  0  0  0  0  0  0  0  0
   -1.2030   25.6530  -29.3420 N   0  0  0  0  0  0  0  0  0  0  0  0
   -2.1090   25.2700  -28.4990 C   0  0  0  0  0  0  0  0  0  0  0  0
   -1.9510   25.5380  -27.1740 N   0  0  0  0  0  0  0  0  0  0  0  0
   -2.8670   25.1400  -26.2550 C   0  0  0  0  0  0  0  0  0  0  0  0
   -2.7177   25.3663  -25.1889 H   0  0  0  0  0  0  0  0  0  0  0  0
   -3.9970   24.4430  -26.6730 C   0  0  0  0  0  0  0  0  0  0  0  0
   -4.7476   24.1116  -25.9403 H   0  0  0  0  0  0  0  0  0  0  0  0
   -4.1640   24.1760  -27.9940 N   0  0  0  0  0  0  0  0  0  0  0  0
   -3.2520   24.5610  -28.9290 C   0  0  0  0  0  0  0  0  0  0  0  0
   -3.4980   24.2490  -30.3600 C   0  0  0  0  0  0  0  0  0  0  0  0
   -2.8930   23.2810  -30.8920 O   0  0  0  0  0  0  0  0  0  0  0  0
   -4.3970   25.0160  -31.1760 N   0  0  0  0  0  0  0  0  0  0  0  0
   -5.8420   25.1530  -31.0030 C   0  0  0  0  0  0  0  0  0  0  0  0
   -6.0619   26.1456  -30.5830 H   0  0  0  0  0  0  0  0  0  0  0  0
   -6.3260   25.0348  -31.9837 H   0  0  0  0  0  0  0  0  0  0  0  0
   -6.3840   24.0770  -30.0570 C   0  0  0  0  0  0  0  0  0  0  0  0
   -5.5888   23.7737  -29.3601 H   0  0  0  0  0  0  0  0  0  0  0  0
   -7.2384   24.4897  -29.5005 H   0  0  0  0  0  0  0  0  0  0  0  0
   -6.8450   22.8750  -30.8360 C   0  0  0  0  0  0  0  0  0  0  0  0
   -8.2150   22.5810  -30.9350 C   0  0  0  0  0  0  0  0  0  0  0  0
   -8.9505   23.2163  -30.4197 H   0  0  0  0  0  0  0  0  0  0  0  0
   -8.6470   21.4840  -31.6860 C   0  0  0  0  0  0  0  0  0  0  0  0
   -9.7207   21.2546  -31.7534 H   0  0  0  0  0  0  0  0  0  0  0  0
   -7.7190   20.6770  -32.3520 C   0  0  0  0  0  0  0  0  0  0  0  0
   -8.1640   19.5860  -33.0960 O   0  0  0  0  0  0  0  0  0  0  0  0
   -8.4910   19.6950  -34.0490 H   0  0  0  0  0  0  0  0  0  0  0  0
   -6.3510   20.9730  -32.2660 C   0  0  0  0  0  0  0  0  0  0  0  0
   -5.6183   20.3409  -32.7890 H   0  0  0  0  0  0  0  0  0  0  0  0
   -5.9170   22.0710  -31.5160 C   0  0  0  0  0  0  0  0  0  0  0  0
   -4.8438   22.3054  -31.4589 H   0  0  0  0  0  0  0  0  0  0  0  0
  1  2  1  0
  2  3  2  0
  3  4  1  0
  4  5  1  0
  5  6  1  0
  5  7  2  0
  7  8  1  0
  7  9  1  0
  9 10  2  0
 10 11  1  0
 11 12  2  0
 11 13  1  0
 13 14  1  0
 14 15  1  0
 14 16  1  0
 14 17  1  0
 17 18  1  0
 17 19  1  0
 17 20  1  0
 20 21  2  0
 21 22  1  0
 21 23  1  0
 23 24  1  0
 23 25  2  0
 25 26  1  0
 26 27  1  0
 25 28  1  0
 28 29  1  0
 28 30  2  0
 30 31  1  0
 10  3  1  0
 30 20  1  0
M  CHG  2   4  -1  13  -1
M  END
>  <UniqueID>  (45) 
43

>  <SMILES>  (45) 
[H]/N=c1\[n-]ccnc1C(=O)[N-]CCc1ccc(O)cc1

>  <Energy>  (45) 
33.547574031741036

>  <Genealogy>  (45) 
N=c1[n-]ccnc1C(=O)[N-]CCc1ccc(O)cc1 (protonated)
[H]/N=c1\[n-]ccnc1C(=O)[N-]CCc1ccc(O)cc1 (cis-trans isomerization)
[H]/N=c1\[n-]ccnc1C(=O)[N-]CCc1ccc(O)cc1 (3D coordinates assigned)
[H]/N=c1\[n-]ccnc1C(=O)[N-]CCc1ccc(O)cc1 (optimized conformer: 33.547574031741036 kcal/mol)

>  <smiles>  (45) 
N=c1[nH]ccnc1C(=O)NCCc1ccc(O)cc1

>  <score_type>  (45) 
oracle

>  <origin>  (45) 
adgpu

>  <m_score__min__energy>  (45) 
-9.6400000000000006

>  <m_primary>  (45) 
energy

$$$$
45:0
     RDKit          3D

 37 38  0  0  0  0  0  0  0  0999 V2000
   -9.7663   18.1543  -32.1425 H   0  0  0  0  0  0  0  0  0  0  0  0
   -9.0200   18.9570  -32.2360 C   0  0  0  0  0  0  0  0  0  0  0  0
   -7.7610   18.6370  -32.1600 N   0  0  0  0  0  0  0  0  0  0  0  0
   -6.6630   19.5340  -32.3620 C   0  0  0  0  0  0  0  0  0  0  0  0
   -5.7490   19.4800  -33.3950 C   0  0  0  0  0  0  0  0  0  0  0  0
   -5.7100   18.5270  -34.4710 C   0  0  0  0  0  0  0  0  0  0  0  0
   -5.6800   17.7600  -35.3380 N   0  0  0  0  0  0  0  0  0  0  0  0
   -4.8100   20.4570  -33.1440 C   0  0  0  0  0  0  0  0  0  0  0  0
   -3.9357   20.7073  -33.7628 H   0  0  0  0  0  0  0  0  0  0  0  0
   -5.1900   21.0630  -31.9510 C   0  0  0  0  0  0  0  0  0  0  0  0
   -4.4720   22.1710  -31.2720 C   0  0  0  0  0  0  0  0  0  0  0  0
   -5.1040   23.4090  -31.0640 C   0  0  0  0  0  0  0  0  0  0  0  0
   -6.1386   23.5573  -31.4068 H   0  0  0  0  0  0  0  0  0  0  0  0
   -4.4290   24.4540  -30.4250 C   0  0  0  0  0  0  0  0  0  0  0  0
   -4.9360   25.4175  -30.2681 H   0  0  0  0  0  0  0  0  0  0  0  0
   -3.1060   24.2800  -29.9820 C   0  0  0  0  0  0  0  0  0  0  0  0
   -2.3870   25.2970  -29.3360 O   0  0  0  0  0  0  0  0  0  0  0  0
   -1.7010   25.1340  -28.0990 C   0  0  0  0  0  0  0  0  0  0  0  0
   -2.4009   25.3003  -27.2669 H   0  0  0  0  0  0  0  0  0  0  0  0
   -1.2937   24.1141  -28.0372 H   0  0  0  0  0  0  0  0  0  0  0  0
   -0.8784   25.8617  -28.0372 H   0  0  0  0  0  0  0  0  0  0  0  0
   -2.4750   23.0490  -30.1900 C   0  0  0  0  0  0  0  0  0  0  0  0
   -1.4399   22.9025  -29.8478 H   0  0  0  0  0  0  0  0  0  0  0  0
   -3.1480   22.0030  -30.8290 C   0  0  0  0  0  0  0  0  0  0  0  0
   -2.6378   21.0413  -30.9864 H   0  0  0  0  0  0  0  0  0  0  0  0
   -6.3140   20.4820  -31.4760 N   0  0  0  0  0  0  0  0  0  0  0  0
   -6.8130   20.6940  -30.5830 H   0  0  0  0  0  0  0  0  0  0  0  0
   -9.5130   20.3660  -32.4450 C   0  0  0  0  0  0  0  0  0  0  0  0
  -10.5969   20.3426  -32.6312 H   0  0  0  0  0  0  0  0  0  0  0  0
   -8.9799   20.7966  -33.3054 H   0  0  0  0  0  0  0  0  0  0  0  0
   -9.2360   21.2400  -31.2170 C   0  0  0  0  0  0  0  0  0  0  0  0
   -8.5236   20.7202  -30.5595 H   0  0  0  0  0  0  0  0  0  0  0  0
  -10.1869   21.4179  -30.6934 H   0  0  0  0  0  0  0  0  0  0  0  0
   -8.6470   22.5880  -31.6230 C   0  0  0  0  0  0  0  0  0  0  0  0
   -8.3950   23.1647  -30.7208 H   0  0  0  0  0  0  0  0  0  0  0  0
   -7.7377   22.4259  -32.2204 H   0  0  0  0  0  0  0  0  0  0  0  0
   -9.3837   23.1451  -32.2204 H   0  0  0  0  0  0  0  0  0  0  0  0
  1  2  1  0
  2  3  2  0
  3  4  1  0
  4  5  2  0
  5  6  1  0
  6  7  3  0
  5  8  1  0
  8  9  1  0
  8 10  2  0
 10 11  1  0
 11 12  2  0
 12 13  1  0
 12 14  1  0
 14 15  1  0
 14 16  2  0
 16 17  1  0
 17 18  1  0
 18 19  1  0
 18 20  1  0
 18 21  1  0
 16 22  1  0
 22 23  1  0
 22 24  2  0
 24 25  1  0
 10 26  1  0
 26 27  1  0
  2 28  1  0
 28 29  1  0
 28 30  1  0
 28 31  1  0
 31 32  1  0
 31 33  1  0
 31 34  1  0
 34 35  1  0
 34 36  1  0
 34 37  1  0
 26  4  1  0
 24 11  1  0
M  END
>  <UniqueID>  (46) 
44

>  <SMILES>  (46) 
CCC/C=N\c1[nH]c(-c2ccc(OC)cc2)cc1C#N

>  <Energy>  (46) 
66.62029225316182

>  <Genealogy>  (46) 
CCC/C=N\c1[nH]c(-c2ccc(OC)cc2)cc1C#N (cis-trans isomerization)
CCC/C=N\c1[nH]c(-c2ccc(OC)cc2)cc1C#N (3D coordinates assigned)
CCC/C=N\c1[nH]c(-c2ccc(OC)cc2)cc1C#N (optimized conformer: 66.62029225316182 kcal/mol)

>  <smiles>  (46) 
CCCC=Nc1[nH]c(-c2ccc(OC)cc2)cc1C#N

>  <score_type>  (46) 
oracle

>  <origin>  (46) 
adgpu

>  <m_score__min__energy>  (46) 
-7.54

>  <m_primary>  (46) 
energy

$$$$
46:0
     RDKit          3D

 38 40  0  0  0  0  0  0  0  0999 V2000
   -4.2300   22.1520  -33.4660 O   0  0  0  0  0  0  0  0  0  0  0  0
   -4.7260   21.8740  -32.3400 C   0  0  0  0  0  0  0  0  0  0  0  0
   -4.8330   20.5000  -31.9330 N   0  0  0  0  0  0  0  0  0  0  0  0
   -4.6340   19.4070  -32.8420 C   0  0  0  0  0  0  0  0  0  0  0  0
   -3.3260   19.0910  -33.2400 C   0  0  0  0  0  0  0  0  0  0  0  0
   -3.0900   18.0700  -34.1630 C   0  0  0  0  0  0  0  0  0  0  0  0
   -1.4490   17.7030  -34.6650 Cl  0  0  0  0  0  0  0  0  0  0  0  0
   -4.1610   17.3480  -34.6920 C   0  0  0  0  0  0  0  0  0  0  0  0
   -5.4650   17.6310  -34.2860 C   0  0  0  0  0  0  0  0  0  0  0  0
   -5.7170   18.6480  -33.3500 C   0  0  0  0  0  0  0  0  0  0  0  0
   -7.0590   18.8550  -32.8780 N   0  0  0  0  0  0  0  0  0  0  0  0
   -7.7900   20.0930  -33.0840 C   0  0  0  0  0  0  0  0  0  0  0  0
   -8.9930   20.0190  -32.1530 C   0  0  0  0  0  0  0  0  0  0  0  0
   -9.1120   18.5530  -31.7450 C   0  0  0  0  0  0  0  0  0  0  0  0
   -7.7270   17.9570  -31.9510 C   0  0  0  0  0  0  0  0  0  0  0  0
   -5.1370   22.9780  -31.4360 C   0  0  0  0  0  0  0  0  0  0  0  0
   -4.1890   23.5490  -30.5660 C   0  0  0  0  0  0  0  0  0  0  0  0
   -4.5470   24.5910  -29.7060 C   0  0  0  0  0  0  0  0  0  0  0  0
   -5.8520   25.0830  -29.7080 C   0  0  0  0  0  0  0  0  0  0  0  0
   -6.8010   24.5380  -30.5750 C   0  0  0  0  0  0  0  0  0  0  0  0
   -6.4530   23.4940  -31.4380 C   0  0  0  0  0  0  0  0  0  0  0  0
   -7.3940   23.0240  -32.2940 F   0  0  0  0  0  0  0  0  0  0  0  0
   -4.8020   20.2890  -30.9100 H   0  0  0  0  0  0  0  0  0  0  0  0
   -2.4784   19.6530  -32.8209 H   0  0  0  0  0  0  0  0  0  0  0  0
   -3.9762   16.5541  -35.4307 H   0  0  0  0  0  0  0  0  0  0  0  0
   -6.3033   17.0530  -34.7022 H   0  0  0  0  0  0  0  0  0  0  0  0
   -7.1599   20.9578  -32.8289 H   0  0  0  0  0  0  0  0  0  0  0  0
   -8.0951   20.2153  -34.1338 H   0  0  0  0  0  0  0  0  0  0  0  0
   -8.8318   20.6514  -31.2675 H   0  0  0  0  0  0  0  0  0  0  0  0
   -9.9089   20.3785  -32.6448 H   0  0  0  0  0  0  0  0  0  0  0  0
   -9.4121   18.4712  -30.6899 H   0  0  0  0  0  0  0  0  0  0  0  0
   -9.8741   18.0261  -32.3380 H   0  0  0  0  0  0  0  0  0  0  0  0
   -7.1810   17.9115  -30.9971 H   0  0  0  0  0  0  0  0  0  0  0  0
   -7.7757   16.9286  -32.3383 H   0  0  0  0  0  0  0  0  0  0  0  0
   -3.1559   23.1713  -30.5630 H   0  0  0  0  0  0  0  0  0  0  0  0
   -3.7981   25.0238  -29.0264 H   0  0  0  0  0  0  0  0  0  0  0  0
   -6.1334   25.8998  -29.0270 H   0  0  0  0  0  0  0  0  0  0  0  0
   -7.8280   24.9319  -30.5793 H   0  0  0  0  0  0  0  0  0  0  0  0
  1  2  2  0
  2  3  1  0
  3  4  1  0
  4  5  2  0
  5  6  1  0
  6  7  1  0
  6  8  2  0
  8  9  1  0
  9 10  2  0
 10 11  1  0
 11 12  1  0
 12 13  1  0
 13 14  1  0
 14 15  1  0
  2 16  1  0
 16 17  2  0
 17 18  1  0
 18 19  2  0
 19 20  1  0
 20 21  2  0
 21 22  1  0
 10  4  1  0
 15 11  1  0
 21 16  1  0
  3 23  1  0
  5 24  1  0
  8 25  1  0
  9 26  1  0
 12 27  1  0
 12 28  1  0
 13 29  1  0
 13 30  1  0
 14 31  1  0
 14 32  1  0
 15 33  1  0
 15 34  1  0
 17 35  1  0
 18 36  1  0
 19 37  1  0
 20 38  1  0
M  END
>  <UniqueID>  (47) 
45

>  <SMILES>  (47) 
O=C(Nc1cc(Cl)ccc1N1CCCC1)c1ccccc1F

>  <Energy>  (47) 
51.700302951686474

>  <Genealogy>  (47) 
O=C(Nc1cc(Cl)ccc1N1CCCC1)c1ccccc1F (3D coordinates assigned)
O=C(Nc1cc(Cl)ccc1N1CCCC1)c1ccccc1F (nonaromatic ring conformer: 51.700302951686474 kcal/mol)

>  <smiles>  (47) 
O=C(Nc1cc(Cl)ccc1N1CCCC1)c1ccccc1F

>  <score_type>  (47) 
oracle

>  <origin>  (47) 
adgpu

>  <m_score__min__energy>  (47) 
-7.5999999999999996

>  <m_primary>  (47) 
energy

$$$$
47:0
     RDKit          3D

 40 42  0  0  0  0  0  0  0  0999 V2000
   -8.2450   19.9600  -33.4400 N   0  0  0  0  0  0  0  0  0  0  0  0
   -8.8140   20.7250  -31.9980 S   0  0  0  0  0  0  0  0  0  0  0  0
  -10.2220   21.2080  -32.2090 O   0  0  0  0  0  0  0  0  0  0  0  0
   -8.8080   19.7340  -30.8690 O   0  0  0  0  0  0  0  0  0  0  0  0
   -7.7700   22.0860  -31.6040 C   0  0  0  0  0  0  0  0  0  0  0  0
   -7.6570   22.5240  -30.2780 C   0  0  0  0  0  0  0  0  0  0  0  0
   -6.7930   23.5740  -29.9560 C   0  0  0  0  0  0  0  0  0  0  0  0
   -6.0160   24.1880  -30.9530 C   0  0  0  0  0  0  0  0  0  0  0  0
   -5.0460   25.2530  -30.6100 C   0  0  0  0  0  0  0  0  0  0  0  0
   -5.4550   26.4350  -30.4640 O   0  0  0  0  0  0  0  0  0  0  0  0
   -3.6520   24.9770  -30.4060 N   0  0  0  0  0  0  0  0  0  0  0  0
   -3.0270   23.6850  -30.4660 C   0  0  0  0  0  0  0  0  0  0  0  0
   -1.9740   23.4020  -29.5900 C   0  0  0  0  0  0  0  0  0  0  0  0
   -1.3610   22.1470  -29.6090 C   0  0  0  0  0  0  0  0  0  0  0  0
   -1.7930   21.1660  -30.5050 C   0  0  0  0  0  0  0  0  0  0  0  0
   -2.8350   21.4390  -31.4090 C   0  0  0  0  0  0  0  0  0  0  0  0
   -3.3180   20.3950  -32.3490 C   0  0  0  0  0  0  0  0  0  0  0  0
   -4.6980   20.1930  -32.5420 C   0  0  0  0  0  0  0  0  0  0  0  0
   -5.1520   19.2080  -33.4240 C   0  0  0  0  0  0  0  0  0  0  0  0
   -4.2370   18.4150  -34.1210 C   0  0  0  0  0  0  0  0  0  0  0  0
   -2.8660   18.6060  -33.9360 C   0  0  0  0  0  0  0  0  0  0  0  0
   -2.4060   19.5880  -33.0550 C   0  0  0  0  0  0  0  0  0  0  0  0
   -3.4270   22.7140  -31.4000 C   0  0  0  0  0  0  0  0  0  0  0  0
   -6.1520   23.7620  -32.2850 C   0  0  0  0  0  0  0  0  0  0  0  0
   -7.0160   22.7110  -32.6060 C   0  0  0  0  0  0  0  0  0  0  0  0
   -8.7270   20.4250  -34.2430 H   0  0  0  0  0  0  0  0  0  0  0  0
   -8.5850   18.9730  -33.4150 H   0  0  0  0  0  0  0  0  0  0  0  0
   -8.2501   22.0400  -29.4881 H   0  0  0  0  0  0  0  0  0  0  0  0
   -6.7206   23.9223  -28.9151 H   0  0  0  0  0  0  0  0  0  0  0  0
   -1.6273   24.1706  -28.8835 H   0  0  0  0  0  0  0  0  0  0  0  0
   -0.5349   21.9302  -28.9158 H   0  0  0  0  0  0  0  0  0  0  0  0
   -1.3156   20.1750  -30.5033 H   0  0  0  0  0  0  0  0  0  0  0  0
   -5.4232   20.8139  -31.9955 H   0  0  0  0  0  0  0  0  0  0  0  0
   -6.2318   19.0570  -33.5695 H   0  0  0  0  0  0  0  0  0  0  0  0
   -4.5962   17.6408  -34.8150 H   0  0  0  0  0  0  0  0  0  0  0  0
   -2.1462   17.9815  -34.4855 H   0  0  0  0  0  0  0  0  0  0  0  0
   -1.3248   19.7313  -32.9122 H   0  0  0  0  0  0  0  0  0  0  0  0
   -4.2120   22.9544  -32.1321 H   0  0  0  0  0  0  0  0  0  0  0  0
   -5.5754   24.2582  -33.0796 H   0  0  0  0  0  0  0  0  0  0  0  0
   -7.1043   22.3734  -33.6492 H   0  0  0  0  0  0  0  0  0  0  0  0
  1  2  1  0
  2  3  2  0
  2  4  2  0
  2  5  1  0
  5  6  2  0
  6  7  1  0
  7  8  2  0
  8  9  1  0
  9 10  2  0
  9 11  1  0
 11 12  1  0
 12 13  2  0
 13 14  1  0
 14 15  2  0
 15 16  1  0
 16 17  1  0
 17 18  2  0
 18 19  1  0
 19 20  2  0
 20 21  1  0
 21 22  2  0
 16 23  2  0
  8 24  1  0
 24 25  2  0
 25  5  1  0
 23 12  1  0
 22 17  1  0
  1 26  1  0
  1 27  1  0
  6 28  1  0
  7 29  1  0
 13 30  1  0
 14 31  1  0
 15 32  1  0
 18 33  1  0
 19 34  1  0
 20 35  1  0
 21 36  1  0
 22 37  1  0
 23 38  1  0
 24 39  1  0
 25 40  1  0
M  CHG  1  11  -1
M  END
>  <UniqueID>  (48) 
46

>  <SMILES>  (48) 
NS(=O)(=O)c1ccc(C(=O)[N-]c2cccc(-c3ccccc3)c2)cc1

>  <Energy>  (48) 
51.42859940516349

>  <Genealogy>  (48) 
NS(=O)(=O)c1ccc(C(=O)[N-]c2cccc(-c3ccccc3)c2)cc1 (protonated)
NS(=O)(=O)c1ccc(C(=O)[N-]c2cccc(-c3ccccc3)c2)cc1 (3D coordinates assigned)
NS(=O)(=O)c1ccc(C(=O)[N-]c2cccc(-c3ccccc3)c2)cc1 (optimized conformer: 51.42859940516349 kcal/mol)

>  <smiles>  (48) 
NS(=O)(=O)c1ccc(C(=O)Nc2cccc(-c3ccccc3)c2)cc1

>  <score_type>  (48) 
oracle

>  <origin>  (48) 
adgpu

>  <m_score__min__energy>  (48) 
-11.52

>  <m_primary>  (48) 
energy

$$$$
48:0
     RDKit          3D

 46 48  0  0  0  0  0  0  0  0999 V2000
   -8.7380   18.9240  -31.5350 C   0  0  0  0  0  0  0  0  0  0  0  0
   -7.4090   19.1640  -31.9880 O   0  0  0  0  0  0  0  0  0  0  0  0
   -6.6940   18.3170  -32.8520 C   0  0  0  0  0  0  0  0  0  0  0  0
   -7.1870   17.0460  -33.2120 C   0  0  0  0  0  0  0  0  0  0  0  0
   -6.4630   16.2260  -34.0780 C   0  0  0  0  0  0  0  0  0  0  0  0
   -5.2460   16.6620  -34.5970 C   0  0  0  0  0  0  0  0  0  0  0  0
   -4.7450   17.9180  -34.2530 C   0  0  0  0  0  0  0  0  0  0  0  0
   -5.4560   18.7590  -33.3720 C   0  0  0  0  0  0  0  0  0  0  0  0
   -4.9440   20.0500  -32.9870 N   0  0  0  0  0  0  0  0  0  0  0  0
   -3.2640   20.4120  -32.7350 S   0  0  0  0  0  0  0  0  0  0  0  0
   -2.4780   19.1310  -32.7480 O   0  0  0  0  0  0  0  0  0  0  0  0
   -2.7560   21.2850  -33.8490 O   0  0  0  0  0  0  0  0  0  0  0  0
   -3.0490   21.1860  -31.1690 C   0  0  0  0  0  0  0  0  0  0  0  0
   -2.8290   20.4250  -30.0120 C   0  0  0  0  0  0  0  0  0  0  0  0
   -2.6710   21.0580  -28.7770 C   0  0  0  0  0  0  0  0  0  0  0  0
   -2.7310   22.4510  -28.6870 C   0  0  0  0  0  0  0  0  0  0  0  0
   -2.9370   23.2230  -29.8400 C   0  0  0  0  0  0  0  0  0  0  0  0
   -3.0210   24.6940  -29.7580 C   0  0  0  0  0  0  0  0  0  0  0  0
   -2.3470   25.2940  -28.8800 O   0  0  0  0  0  0  0  0  0  0  0  0
   -3.8710   25.4610  -30.6200 N   0  0  0  0  0  0  0  0  0  0  0  0
   -5.3150   25.6260  -30.4640 C   0  0  0  0  0  0  0  0  0  0  0  0
   -6.0390   24.3550  -30.8180 C   0  0  0  0  0  0  0  0  0  0  0  0
   -6.7950   23.6660  -29.8580 C   0  0  0  0  0  0  0  0  0  0  0  0
   -7.4570   22.4890  -30.2050 C   0  0  0  0  0  0  0  0  0  0  0  0
   -7.3620   22.0090  -31.5120 C   0  0  0  0  0  0  0  0  0  0  0  0
   -6.6260   22.6850  -32.4340 N   0  0  0  0  0  0  0  0  0  0  0  0
   -5.9680   23.8340  -32.1190 C   0  0  0  0  0  0  0  0  0  0  0  0
   -3.1050   22.5840  -31.0780 C   0  0  0  0  0  0  0  0  0  0  0  0
   -8.7555   18.9208  -30.4351 H   0  0  0  0  0  0  0  0  0  0  0  0
   -9.4020   19.7168  -31.9100 H   0  0  0  0  0  0  0  0  0  0  0  0
   -9.0828   17.9491  -31.9100 H   0  0  0  0  0  0  0  0  0  0  0  0
   -8.1490   16.6986  -32.8073 H   0  0  0  0  0  0  0  0  0  0  0  0
   -6.8534   15.2346  -34.3511 H   0  0  0  0  0  0  0  0  0  0  0  0
   -4.6779   16.0138  -35.2805 H   0  0  0  0  0  0  0  0  0  0  0  0
   -3.7860   18.2555  -34.6731 H   0  0  0  0  0  0  0  0  0  0  0  0
   -5.6020   20.8530  -32.8720 H   0  0  0  0  0  0  0  0  0  0  0  0
   -2.7808   19.3280  -30.0771 H   0  0  0  0  0  0  0  0  0  0  0  0
   -2.4986   20.4575  -27.8717 H   0  0  0  0  0  0  0  0  0  0  0  0
   -2.6165   22.9433  -27.7100 H   0  0  0  0  0  0  0  0  0  0  0  0
   -5.5373   25.8887  -29.4192 H   0  0  0  0  0  0  0  0  0  0  0  0
   -5.6538   26.4250  -31.1399 H   0  0  0  0  0  0  0  0  0  0  0  0
   -6.8655   24.0544  -28.8313 H   0  0  0  0  0  0  0  0  0  0  0  0
   -8.0489   21.9436  -29.4552 H   0  0  0  0  0  0  0  0  0  0  0  0
   -7.8830   21.0829  -31.7965 H   0  0  0  0  0  0  0  0  0  0  0  0
   -5.3784   24.3561  -32.8870 H   0  0  0  0  0  0  0  0  0  0  0  0
   -3.2818   23.1838  -31.9830 H   0  0  0  0  0  0  0  0  0  0  0  0
  1  2  1  0
  2  3  1  0
  3  4  2  0
  4  5  1  0
  5  6  2  0
  6  7  1  0
  7  8  2  0
  8  9  1  0
  9 10  1  0
 10 11  2  0
 10 12  2  0
 10 13  1  0
 13 14  2  0
 14 15  1  0
 15 16  2  0
 16 17  1  0
 17 18  1  0
 18 19  2  0
 18 20  1  0
 20 21  1  0
 21 22  1  0
 22 23  2  0
 23 24  1  0
 24 25  2  0
 25 26  1  0
 26 27  2  0
 17 28  2  0
  8  3  1  0
 28 13  1  0
 27 22  1  0
  1 29  1  0
  1 30  1  0
  1 31  1  0
  4 32  1  0
  5 33  1  0
  6 34  1  0
  7 35  1  0
  9 36  1  0
 14 37  1  0
 15 38  1  0
 16 39  1  0
 21 40  1  0
 21 41  1  0
 23 42  1  0
 24 43  1  0
 25 44  1  0
 27 45  1  0
 28 46  1  0
M  CHG  1  20  -1
M  END
>  <UniqueID>  (49) 
47

>  <SMILES>  (49) 
COc1ccccc1NS(=O)(=O)c1cccc(C(=O)[N-]Cc2cccnc2)c1

>  <Energy>  (49) 
51.44854522008315

>  <Genealogy>  (49) 
COc1ccccc1NS(=O)(=O)c1cccc(C(=O)[N-]Cc2cccnc2)c1 (protonated)
COc1ccccc1NS(=O)(=O)c1cccc(C(=O)[N-]Cc2cccnc2)c1 (3D coordinates assigned)
COc1ccccc1NS(=O)(=O)c1cccc(C(=O)[N-]Cc2cccnc2)c1 (optimized conformer: 51.44854522008315 kcal/mol)

>  <smiles>  (49) 
COc1ccccc1NS(=O)(=O)c1cccc(C(=O)NCc2cccnc2)c1

>  <score_type>  (49) 
oracle

>  <origin>  (49) 
adgpu

>  <m_score__min__energy>  (49) 
-10.630000000000001

>  <m_primary>  (49) 
energy

$$$$
