0:0
     RDKit          3D

 22 22  0  0  0  0  0  0  0  0999 V2000
   -3.8000   21.6860  -33.8150 N   0  0  0  0  0  0  0  0  0  0  0  0
   -4.8840   20.8590  -33.2940 C   0  0  0  0  0  0  0  0  0  0  0  0
   -5.7140   21.6520  -32.3170 C   0  0  0  0  0  0  0  0  0  0  0  0
   -5.1550   22.7800  -31.6930 C   0  0  0  0  0  0  0  0  0  0  0  0
   -5.8950   23.5230  -30.7640 C   0  0  0  0  0  0  0  0  0  0  0  0
   -5.1770   24.9280  -29.9820 S   0  0  0  0  0  0  0  0  0  0  0  0
   -4.8440   24.5630  -28.3260 N   0  0  0  0  0  0  0  0  0  0  0  0
   -6.1210   26.0930  -30.0580 O   0  0  0  0  0  0  0  0  0  0  0  0
   -3.8980   25.2980  -30.6800 O   0  0  0  0  0  0  0  0  0  0  0  0
   -7.1970   23.1250  -30.4390 C   0  0  0  0  0  0  0  0  0  0  0  0
   -7.7580   21.9970  -31.0420 C   0  0  0  0  0  0  0  0  0  0  0  0
   -7.0260   21.2550  -31.9760 C   0  0  0  0  0  0  0  0  0  0  0  0
   -7.7770   19.8310  -32.6870 Cl  0  0  0  0  0  0  0  0  0  0  0  0
   -4.2220   22.5320  -34.2640 H   0  0  0  0  0  0  0  0  0  0  0  0
   -3.3260   21.1480  -34.5760 H   0  0  0  0  0  0  0  0  0  0  0  0
   -5.5208   20.5262  -34.1269 H   0  0  0  0  0  0  0  0  0  0  0  0
   -4.4565   19.9860  -32.7791 H   0  0  0  0  0  0  0  0  0  0  0  0
   -4.1259   23.0828  -31.9364 H   0  0  0  0  0  0  0  0  0  0  0  0
   -5.7220   24.1660  -27.9190 H   0  0  0  0  0  0  0  0  0  0  0  0
   -4.6740   25.4730  -27.8410 H   0  0  0  0  0  0  0  0  0  0  0  0
   -7.7801   23.7024  -29.7065 H   0  0  0  0  0  0  0  0  0  0  0  0
   -8.7816   21.6899  -30.7812 H   0  0  0  0  0  0  0  0  0  0  0  0
  1  2  1  0
  2  3  1  0
  3  4  2  0
  4  5  1  0
  5  6  1  0
  6  7  1  0
  6  8  2  0
  6  9  2  0
  5 10  2  0
 10 11  1  0
 11 12  2  0
 12 13  1  0
 12  3  1  0
  1 14  1  0
  1 15  1  0
  2 16  1  0
  2 17  1  0
  4 18  1  0
  7 19  1  0
  7 20  1  0
 10 21  1  0
 11 22  1  0
M  END
>  <UniqueID>  (1) 
1

>  <SMILES>  (1) 
NCc1cc(S(N)(=O)=O)ccc1Cl

>  <Energy>  (1) 
18.129694431803173

>  <Genealogy>  (1) 
NCc1cc(S(N)(=O)=O)ccc1Cl (3D coordinates assigned)
NCc1cc(S(N)(=O)=O)ccc1Cl (optimized conformer: 18.129694431803173 kcal/mol)

>  <smiles>  (1) 
NCc1cc(S(N)(=O)=O)ccc1Cl

>  <score_type>  (1) 
oracle

>  <origin>  (1) 
adgpu

>  <m_score__min__energy>  (1) 
-7.5700000000000003

>  <m_primary>  (1) 
energy

$$$$
1:0
     RDKit          3D

 20 21  0  0  0  0  0  0  0  0999 V2000
   -7.9420   17.8110  -32.3270 O   0  0  0  0  0  0  0  0  0  0  0  0
   -7.3840   18.7970  -32.8510 N   0  0  0  0  0  0  0  0  0  0  0  0
   -6.4710   18.5820  -33.8590 O   0  0  0  0  0  0  0  0  0  0  0  0
   -7.6890   20.1330  -32.4120 C   0  0  0  0  0  0  0  0  0  0  0  0
   -9.0230   20.5610  -32.2930 C   0  0  0  0  0  0  0  0  0  0  0  0
   -9.3140   21.8550  -31.8620 C   0  0  0  0  0  0  0  0  0  0  0  0
   -8.2820   22.7410  -31.5460 C   0  0  0  0  0  0  0  0  0  0  0  0
   -6.9390   22.3400  -31.6570 C   0  0  0  0  0  0  0  0  0  0  0  0
   -5.8720   23.2540  -31.3300 N   0  0  0  0  0  0  0  0  0  0  0  0
   -4.5660   22.9810  -31.1460 C   0  0  0  0  0  0  0  0  0  0  0  0
   -3.8730   24.0960  -30.8530 N   0  0  0  0  0  0  0  0  0  0  0  0
   -4.7360   25.1010  -30.8430 N   0  0  0  0  0  0  0  0  0  0  0  0
   -5.9450   24.5860  -31.1350 C   0  0  0  0  0  0  0  0  0  0  0  0
   -6.6540   21.0310  -32.0910 C   0  0  0  0  0  0  0  0  0  0  0  0
   -9.8425   19.8706  -32.5415 H   0  0  0  0  0  0  0  0  0  0  0  0
  -10.3612   22.1792  -31.7706 H   0  0  0  0  0  0  0  0  0  0  0  0
   -8.5215   23.7600  -31.2078 H   0  0  0  0  0  0  0  0  0  0  0  0
   -4.1237   21.9770  -31.2250 H   0  0  0  0  0  0  0  0  0  0  0  0
   -6.8714   25.1750  -31.2053 H   0  0  0  0  0  0  0  0  0  0  0  0
   -5.6070   20.7056  -32.1804 H   0  0  0  0  0  0  0  0  0  0  0  0
  1  2  2  0
  2  3  1  0
  2  4  1  0
  4  5  2  0
  5  6  1  0
  6  7  2  0
  7  8  1  0
  8  9  1  0
  9 10  1  0
 10 11  2  0
 11 12  1  0
 12 13  2  0
  8 14  2  0
 14  4  1  0
 13  9  1  0
  5 15  1  0
  6 16  1  0
  7 17  1  0
 10 18  1  0
 13 19  1  0
 14 20  1  0
M  CHG  2   2   1   3  -1
M  END
>  <UniqueID>  (2) 
2

>  <SMILES>  (2) 
O=[N+]([O-])c1cccc(-n2cnnc2)c1

>  <Energy>  (2) 
59.426816696487016

>  <Genealogy>  (2) 
O=[N+]([O-])c1cccc(-n2cnnc2)c1 (3D coordinates assigned)
O=[N+]([O-])c1cccc(-n2cnnc2)c1 (optimized conformer: 59.426816696487016 kcal/mol)

>  <smiles>  (2) 
O=[N+]([O-])c1cccc(-n2cnnc2)c1

>  <score_type>  (2) 
oracle

>  <origin>  (2) 
adgpu

>  <m_score__min__energy>  (2) 
-6.4699999999999998

>  <m_primary>  (2) 
energy

$$$$
2:0
     RDKit          3D

 39 41  0  0  0  0  0  0  0  0999 V2000
   -3.4400   13.8030  -35.8010 C   0  0  0  0  0  0  0  0  0  0  0  0
   -4.5950   14.0270  -34.9980 O   0  0  0  0  0  0  0  0  0  0  0  0
   -4.9840   15.2800  -34.5020 C   0  0  0  0  0  0  0  0  0  0  0  0
   -6.2130   15.4850  -33.8500 C   0  0  0  0  0  0  0  0  0  0  0  0
   -6.5550   16.7530  -33.3720 C   0  0  0  0  0  0  0  0  0  0  0  0
   -5.6850   17.8430  -33.5450 C   0  0  0  0  0  0  0  0  0  0  0  0
   -6.0820   19.1760  -33.0280 C   0  0  0  0  0  0  0  0  0  0  0  0
   -7.3830   19.6770  -33.0720 C   0  0  0  0  0  0  0  0  0  0  0  0
   -7.3760   21.1920  -32.3450 S   0  0  0  0  0  0  0  0  0  0  0  0
   -5.7290   21.1560  -31.9970 C   0  0  0  0  0  0  0  0  0  0  0  0
   -4.9620   22.2210  -31.3100 C   0  0  0  0  0  0  0  0  0  0  0  0
   -3.6270   22.0140  -30.9230 C   0  0  0  0  0  0  0  0  0  0  0  0
   -2.9120   23.0230  -30.2760 C   0  0  0  0  0  0  0  0  0  0  0  0
   -3.5140   24.2640  -30.0000 C   0  0  0  0  0  0  0  0  0  0  0  0
   -2.8190   25.2980  -29.3490 O   0  0  0  0  0  0  0  0  0  0  0  0
   -1.9820   25.1180  -28.2130 C   0  0  0  0  0  0  0  0  0  0  0  0
   -4.8510   24.4800  -30.3830 C   0  0  0  0  0  0  0  0  0  0  0  0
   -5.5140   25.7980  -30.0970 C   0  0  0  0  0  0  0  0  0  0  0  0
   -5.5650   23.4600  -31.0340 C   0  0  0  0  0  0  0  0  0  0  0  0
   -5.1780   19.9980  -32.4250 N   0  0  0  0  0  0  0  0  0  0  0  0
   -4.4470   17.6300  -34.1860 C   0  0  0  0  0  0  0  0  0  0  0  0
   -3.5400   18.6310  -34.3150 F   0  0  0  0  0  0  0  0  0  0  0  0
   -4.1090   16.3580  -34.6610 C   0  0  0  0  0  0  0  0  0  0  0  0
   -2.5687   13.6340  -35.1511 H   0  0  0  0  0  0  0  0  0  0  0  0
   -3.6007   12.9193  -36.4360 H   0  0  0  0  0  0  0  0  0  0  0  0
   -3.2587   14.6827  -36.4360 H   0  0  0  0  0  0  0  0  0  0  0  0
   -6.9084   14.6434  -33.7156 H   0  0  0  0  0  0  0  0  0  0  0  0
   -7.5149   16.8993  -32.8551 H   0  0  0  0  0  0  0  0  0  0  0  0
   -8.2579   19.1705  -33.5055 H   0  0  0  0  0  0  0  0  0  0  0  0
   -3.1417   21.0491  -31.1316 H   0  0  0  0  0  0  0  0  0  0  0  0
   -1.8677   22.8461  -29.9791 H   0  0  0  0  0  0  0  0  0  0  0  0
   -2.5760   25.2457  -27.2960 H   0  0  0  0  0  0  0  0  0  0  0  0
   -1.5502   24.1065  -28.2323 H   0  0  0  0  0  0  0  0  0  0  0  0
   -1.1726   25.8626  -28.2323 H   0  0  0  0  0  0  0  0  0  0  0  0
   -5.5871   25.9433  -29.0091 H   0  0  0  0  0  0  0  0  0  0  0  0
   -4.9178   26.6113  -30.5363 H   0  0  0  0  0  0  0  0  0  0  0  0
   -6.5225   25.8041  -30.5363 H   0  0  0  0  0  0  0  0  0  0  0  0
   -6.6097   23.6335  -31.3315 H   0  0  0  0  0  0  0  0  0  0  0  0
   -3.1435   16.2048  -35.1653 H   0  0  0  0  0  0  0  0  0  0  0  0
  1  2  1  0
  2  3  1  0
  3  4  2  0
  4  5  1  0
  5  6  2  0
  6  7  1  0
  7  8  2  0
  8  9  1  0
  9 10  1  0
 10 11  1  0
 11 12  2  0
 12 13  1  0
 13 14  2  0
 14 15  1  0
 15 16  1  0
 14 17  1  0
 17 18  1  0
 17 19  2  0
 10 20  2  0
  6 21  1  0
 21 22  1  0
 21 23  2  0
 23  3  1  0
 20  7  1  0
 19 11  1  0
  1 24  1  0
  1 25  1  0
  1 26  1  0
  4 27  1  0
  5 28  1  0
  8 29  1  0
 12 30  1  0
 13 31  1  0
 16 32  1  0
 16 33  1  0
 16 34  1  0
 18 35  1  0
 18 36  1  0
 18 37  1  0
 19 38  1  0
 23 39  1  0
M  END
>  <UniqueID>  (3) 
3

>  <SMILES>  (3) 
COc1ccc(-c2csc(-c3ccc(OC)c(C)c3)n2)c(F)c1

>  <Energy>  (3) 
74.6221260236428

>  <Genealogy>  (3) 
COc1ccc(-c2csc(-c3ccc(OC)c(C)c3)n2)c(F)c1 (3D coordinates assigned)
COc1ccc(-c2csc(-c3ccc(OC)c(C)c3)n2)c(F)c1 (optimized conformer: 74.6221260236428 kcal/mol)

>  <smiles>  (3) 
COc1ccc(-c2csc(-c3ccc(OC)c(C)c3)n2)c(F)c1

>  <score_type>  (3) 
oracle

>  <origin>  (3) 
adgpu

>  <m_score__min__energy>  (3) 
-7.3399999999999999

>  <m_primary>  (3) 
energy

$$$$
3:0
     RDKit          3D

 25 26  0  0  0  0  0  0  0  0999 V2000
   -0.3260   25.7290  -27.2530 C   0  0  0  0  0  0  0  0  0  0  0  0
   -1.5120   25.0460  -27.8440 C   0  0  0  0  0  0  0  0  0  0  0  0
   -2.2170   24.0090  -27.2660 C   0  0  0  0  0  0  0  0  0  0  0  0
   -3.2080   23.6850  -28.1680 C   0  0  0  0  0  0  0  0  0  0  0  0
   -3.0440   24.5470  -29.2370 C   0  0  0  0  0  0  0  0  0  0  0  0
   -3.8700   24.5760  -30.4570 C   0  0  0  0  0  0  0  0  0  0  0  0
   -4.3330   25.6740  -30.8640 O   0  0  0  0  0  0  0  0  0  0  0  0
   -4.2220   23.3750  -31.1570 N   0  0  0  0  0  0  0  0  0  0  0  0
   -5.5520   22.8990  -31.4040 C   0  0  0  0  0  0  0  0  0  0  0  0
   -6.6250   23.7940  -31.3010 C   0  0  0  0  0  0  0  0  0  0  0  0
   -7.9300   23.3640  -31.5550 C   0  0  0  0  0  0  0  0  0  0  0  0
   -8.1710   22.0400  -31.9300 C   0  0  0  0  0  0  0  0  0  0  0  0
   -7.1040   21.1440  -32.0630 C   0  0  0  0  0  0  0  0  0  0  0  0
   -7.4040   19.4870  -32.5510 Cl  0  0  0  0  0  0  0  0  0  0  0  0
   -5.7970   21.5740  -31.8130 C   0  0  0  0  0  0  0  0  0  0  0  0
   -2.0200   25.3400  -29.0190 O   0  0  0  0  0  0  0  0  0  0  0  0
   -0.3906   25.6918  -26.1555 H   0  0  0  0  0  0  0  0  0  0  0  0
    0.5921   25.2213  -27.5837 H   0  0  0  0  0  0  0  0  0  0  0  0
   -0.3044   26.7779  -27.5837 H   0  0  0  0  0  0  0  0  0  0  0  0
   -2.0275   23.5393  -26.2895 H   0  0  0  0  0  0  0  0  0  0  0  0
   -3.9724   22.9015  -28.0597 H   0  0  0  0  0  0  0  0  0  0  0  0
   -6.4391   24.8408  -31.0187 H   0  0  0  0  0  0  0  0  0  0  0  0
   -8.7689   24.0691  -31.4595 H   0  0  0  0  0  0  0  0  0  0  0  0
   -9.2001   21.7014  -32.1209 H   0  0  0  0  0  0  0  0  0  0  0  0
   -4.9571   20.8745  -31.9363 H   0  0  0  0  0  0  0  0  0  0  0  0
  1  2  1  0
  2  3  2  0
  3  4  1  0
  4  5  2  0
  5  6  1  0
  6  7  2  0
  6  8  1  0
  8  9  1  0
  9 10  2  0
 10 11  1  0
 11 12  2  0
 12 13  1  0
 13 14  1  0
 13 15  2  0
  5 16  1  0
 16  2  1  0
 15  9  1  0
  1 17  1  0
  1 18  1  0
  1 19  1  0
  3 20  1  0
  4 21  1  0
 10 22  1  0
 11 23  1  0
 12 24  1  0
 15 25  1  0
M  CHG  1   8  -1
M  END
>  <UniqueID>  (4) 
4

>  <SMILES>  (4) 
Cc1ccc(C(=O)[N-]c2cccc(Cl)c2)o1

>  <Energy>  (4) 
53.799067918437686

>  <Genealogy>  (4) 
Cc1ccc(C(=O)[N-]c2cccc(Cl)c2)o1 (protonated)
Cc1ccc(C(=O)[N-]c2cccc(Cl)c2)o1 (3D coordinates assigned)
Cc1ccc(C(=O)[N-]c2cccc(Cl)c2)o1 (optimized conformer: 53.799067918437686 kcal/mol)

>  <smiles>  (4) 
Cc1ccc(C(=O)Nc2cccc(Cl)c2)o1

>  <score_type>  (4) 
oracle

>  <origin>  (4) 
adgpu

>  <m_score__min__energy>  (4) 
-8.0999999999999996

>  <m_primary>  (4) 
energy

$$$$
4:0
     RDKit          3D

 49 52  0  0  0  0  0  0  0  0999 V2000
   -5.7510   24.8620  -29.6080 C   0  0  0  0  0  0  0  0  0  0  0  0
   -4.8240   23.7050  -29.8370 C   0  0  0  0  0  0  0  0  0  0  0  0
   -5.0310   22.5900  -30.6410 C   0  0  0  0  0  0  0  0  0  0  0  0
   -6.1770   22.3140  -31.5260 C   0  0  0  0  0  0  0  0  0  0  0  0
   -6.3280   23.0130  -32.5640 O   0  0  0  0  0  0  0  0  0  0  0  0
   -7.1370   21.3000  -31.2000 N   0  0  0  0  0  0  0  0  0  0  0  0
   -8.0740   20.7700  -32.1850 C   0  0  0  0  0  0  0  0  0  0  0  0
   -7.4870   19.5570  -32.8530 C   0  0  0  0  0  0  0  0  0  0  0  0
   -6.5340   19.6950  -33.8770 C   0  0  0  0  0  0  0  0  0  0  0  0
   -5.9670   18.5600  -34.4670 C   0  0  0  0  0  0  0  0  0  0  0  0
   -6.3430   17.2850  -34.0370 C   0  0  0  0  0  0  0  0  0  0  0  0
   -7.2830   17.1400  -33.0130 C   0  0  0  0  0  0  0  0  0  0  0  0
   -7.8530   18.2710  -32.4200 C   0  0  0  0  0  0  0  0  0  0  0  0
   -4.0180   21.7170  -30.4680 N   0  0  0  0  0  0  0  0  0  0  0  0
   -3.1620   22.2520  -29.6110 N   0  0  0  0  0  0  0  0  0  0  0  0
   -1.9530   21.5920  -29.2100 C   0  0  0  0  0  0  0  0  0  0  0  0
   -1.7420   21.3130  -27.8520 C   0  0  0  0  0  0  0  0  0  0  0  0
   -0.5630   20.6940  -27.4330 C   0  0  0  0  0  0  0  0  0  0  0  0
    0.4110   20.3350  -28.3690 C   0  0  0  0  0  0  0  0  0  0  0  0
    1.8910   19.5550  -27.8410 Cl  0  0  0  0  0  0  0  0  0  0  0  0
    0.1990   20.5860  -29.7280 C   0  0  0  0  0  0  0  0  0  0  0  0
   -0.9800   21.2070  -30.1560 C   0  0  0  0  0  0  0  0  0  0  0  0
   -1.2380   21.4300  -31.8820 Cl  0  0  0  0  0  0  0  0  0  0  0  0
   -3.6170   23.4580  -29.2000 C   0  0  0  0  0  0  0  0  0  0  0  0
   -2.9670   24.3180  -28.1840 C   0  0  0  0  0  0  0  0  0  0  0  0
   -3.5710   24.5230  -26.9330 C   0  0  0  0  0  0  0  0  0  0  0  0
   -2.9460   25.3220  -25.9700 C   0  0  0  0  0  0  0  0  0  0  0  0
   -1.7170   25.9240  -26.2510 C   0  0  0  0  0  0  0  0  0  0  0  0
   -0.8630   27.0130  -24.9340 Br  0  0  0  0  0  0  0  0  0  0  0  0
   -1.1120   25.7290  -27.4960 C   0  0  0  0  0  0  0  0  0  0  0  0
   -1.7340   24.9310  -28.4610 C   0  0  0  0  0  0  0  0  0  0  0  0
   -5.8786   25.0212  -28.5271 H   0  0  0  0  0  0  0  0  0  0  0  0
   -5.3262   25.7682  -30.0645 H   0  0  0  0  0  0  0  0  0  0  0  0
   -6.7280   24.6450  -30.0645 H   0  0  0  0  0  0  0  0  0  0  0  0
   -7.1900   20.9380  -30.2210 H   0  0  0  0  0  0  0  0  0  0  0  0
   -9.0118   20.4910  -31.6823 H   0  0  0  0  0  0  0  0  0  0  0  0
   -8.2727   21.5400  -32.9450 H   0  0  0  0  0  0  0  0  0  0  0  0
   -6.2333   20.6976  -34.2153 H   0  0  0  0  0  0  0  0  0  0  0  0
   -5.2241   18.6717  -35.2705 H   0  0  0  0  0  0  0  0  0  0  0  0
   -5.8986   16.3942  -34.5050 H   0  0  0  0  0  0  0  0  0  0  0  0
   -7.5748   16.1353  -32.6732 H   0  0  0  0  0  0  0  0  0  0  0  0
   -8.5902   18.1537  -31.6120 H   0  0  0  0  0  0  0  0  0  0  0  0
   -2.5101   21.5835  -27.1125 H   0  0  0  0  0  0  0  0  0  0  0  0
   -0.4003   20.4885  -26.3647 H   0  0  0  0  0  0  0  0  0  0  0  0
    0.9624   20.2941  -30.4642 H   0  0  0  0  0  0  0  0  0  0  0  0
   -4.5401   24.0531  -26.7093 H   0  0  0  0  0  0  0  0  0  0  0  0
   -3.4225   25.4765  -24.9907 H   0  0  0  0  0  0  0  0  0  0  0  0
   -0.1449   26.2042  -27.7169 H   0  0  0  0  0  0  0  0  0  0  0  0
   -1.2560   24.7827  -29.4406 H   0  0  0  0  0  0  0  0  0  0  0  0
  1  2  1  0
  2  3  1  0
  3  4  1  0
  4  5  2  0
  4  6  1  0
  6  7  1  0
  7  8  1  0
  8  9  2  0
  9 10  1  0
 10 11  2  0
 11 12  1  0
 12 13  2  0
  3 14  2  0
 14 15  1  0
 15 16  1  0
 16 17  2  0
 17 18  1  0
 18 19  2  0
 19 20  1  0
 19 21  1  0
 21 22  2  0
 22 23  1  0
 15 24  1  0
 24 25  1  0
 25 26  2  0
 26 27  1  0
 27 28  2  0
 28 29  1  0
 28 30  1  0
 30 31  2  0
 24  2  2  0
 31 25  1  0
 13  8  1  0
 22 16  1  0
  1 32  1  0
  1 33  1  0
  1 34  1  0
  6 35  1  0
  7 36  1  0
  7 37  1  0
  9 38  1  0
 10 39  1  0
 11 40  1  0
 12 41  1  0
 13 42  1  0
 17 43  1  0
 18 44  1  0
 21 45  1  0
 26 46  1  0
 27 47  1  0
 30 48  1  0
 31 49  1  0
M  END
>  <UniqueID>  (5) 
5

>  <SMILES>  (5) 
Cc1c(C(=O)NCc2ccccc2)nn(-c2ccc(Cl)cc2Cl)c1-c1ccc(Br)cc1

>  <Energy>  (5) 
93.34517014844158

>  <Genealogy>  (5) 
Cc1c(C(=O)NCc2ccccc2)nn(-c2ccc(Cl)cc2Cl)c1-c1ccc(Br)cc1 (3D coordinates assigned)
Cc1c(C(=O)NCc2ccccc2)nn(-c2ccc(Cl)cc2Cl)c1-c1ccc(Br)cc1 (optimized conformer: 93.34517014844158 kcal/mol)

>  <smiles>  (5) 
Cc1c(C(=O)NCc2ccccc2)nn(-c2ccc(Cl)cc2Cl)c1-c1ccc(Br)cc1

>  <score_type>  (5) 
oracle

>  <origin>  (5) 
adgpu

>  <m_score__min__energy>  (5) 
-9.9700000000000006

>  <m_primary>  (5) 
energy

$$$$
5:0
     RDKit          3D

 29 30  0  0  0  0  0  0  0  0999 V2000
   -0.1986   24.9410  -28.3075 H   0  0  0  0  0  0  0  0  0  0  0  0
   -1.1140   24.4880  -28.7160 C   0  0  0  0  0  0  0  0  0  0  0  0
   -2.0440   25.2710  -29.3230 N   0  0  0  0  0  0  0  0  0  0  0  0
   -3.1890   24.7490  -29.8450 C   0  0  0  0  0  0  0  0  0  0  0  0
   -4.1320   25.5720  -30.4700 O   0  0  0  0  0  0  0  0  0  0  0  0
   -5.5300   25.3160  -30.4180 C   0  0  0  0  0  0  0  0  0  0  0  0
   -5.8531   25.2568  -29.3682 H   0  0  0  0  0  0  0  0  0  0  0  0
   -6.0709   26.1300  -30.9228 H   0  0  0  0  0  0  0  0  0  0  0  0
   -5.7473   24.3631  -30.9228 H   0  0  0  0  0  0  0  0  0  0  0  0
   -3.4280   23.3740  -29.7580 C   0  0  0  0  0  0  0  0  0  0  0  0
   -4.3451   22.9470  -30.1899 H   0  0  0  0  0  0  0  0  0  0  0  0
   -2.5000   22.5400  -29.1210 C   0  0  0  0  0  0  0  0  0  0  0  0
   -2.7520   21.2610  -29.0660 N   0  0  0  0  0  0  0  0  0  0  0  0
   -2.0000   20.2520  -28.3770 C   0  0  0  0  0  0  0  0  0  0  0  0
   -0.9140   19.6600  -28.9100 N   0  0  0  0  0  0  0  0  0  0  0  0
   -0.6430   18.7200  -27.9810 C   0  0  0  0  0  0  0  0  0  0  0  0
    0.3600   17.9020  -28.0830 N   0  0  0  0  0  0  0  0  0  0  0  0
    0.6630   16.8730  -27.0950 C   0  0  0  0  0  0  0  0  0  0  0  0
    0.1148   15.9528  -27.3455 H   0  0  0  0  0  0  0  0  0  0  0  0
    0.3588   17.2245  -26.0980 H   0  0  0  0  0  0  0  0  0  0  0  0
    2.1570   16.5870  -27.0940 C   0  0  0  0  0  0  0  0  0  0  0  0
    2.5165   16.5182  -26.0567 H   0  0  0  0  0  0  0  0  0  0  0  0
    2.3486   15.6359  -27.6123 H   0  0  0  0  0  0  0  0  0  0  0  0
    2.6863   17.4001  -27.6123 H   0  0  0  0  0  0  0  0  0  0  0  0
   -1.5230   18.7080  -26.9580 N   0  0  0  0  0  0  0  0  0  0  0  0
   -2.3820   19.6740  -27.2230 N   0  0  0  0  0  0  0  0  0  0  0  0
   -3.2270   19.8890  -26.6490 H   0  0  0  0  0  0  0  0  0  0  0  0
   -1.3160   23.1110  -28.6090 C   0  0  0  0  0  0  0  0  0  0  0  0
   -0.5573   22.4756  -28.1288 H   0  0  0  0  0  0  0  0  0  0  0  0
  1  2  1  0
  2  3  1  0
  3  4  1  0
  4  5  1  0
  5  6  1  0
  6  7  1  0
  6  8  1  0
  6  9  1  0
  4 10  2  0
 10 11  1  0
 10 12  1  0
 12 13  2  0
 13 14  1  0
 14 15  2  0
 15 16  1  0
 16 17  2  0
 17 18  1  0
 18 19  1  0
 18 20  1  0
 18 21  1  0
 21 22  1  0
 21 23  1  0
 21 24  1  0
 16 25  1  0
 25 26  1  0
 26 27  1  0
 12 28  1  0
 28 29  1  0
 28  2  2  0
 26 14  1  0
M  CHG  2   3  -1  25  -1
M  END
>  <UniqueID>  (6) 
6

>  <SMILES>  (6) 
CC/N=c1/nc(/N=c2\cc[n-]c(OC)c2)[nH][n-]1

>  <Energy>  (6) 
65.28699200360586

>  <Genealogy>  (6) 
CCN=c1nc(N=c2cc[n-]c(OC)c2)[nH][n-]1 (protonated)
CC/N=c1/nc(/N=c2\cc[n-]c(OC)c2)[nH][n-]1 (cis-trans isomerization)
CC/N=c1/nc(/N=c2\cc[n-]c(OC)c2)[nH][n-]1 (3D coordinates assigned)
CC/N=c1/nc(/N=c2\cc[n-]c(OC)c2)[nH][n-]1 (optimized conformer: 65.28699200360586 kcal/mol)

>  <smiles>  (6) 
CCN=c1nc(N=c2cc[nH]c(OC)c2)[nH][nH]1

>  <score_type>  (6) 
oracle

>  <origin>  (6) 
adgpu

>  <m_score__min__energy>  (6) 
-7.3899999999999997

>  <m_primary>  (6) 
energy

$$$$
6:0
     RDKit          3D

 29 30  0  0  0  0  0  0  0  0999 V2000
   -5.6140   21.0610  -32.6680 C   0  0  0  0  0  0  0  0  0  0  0  0
   -5.7470   22.3270  -31.8770 C   0  0  0  0  0  0  0  0  0  0  0  0
   -7.0170   22.8260  -31.5500 C   0  0  0  0  0  0  0  0  0  0  0  0
   -7.1410   24.0240  -30.8440 C   0  0  0  0  0  0  0  0  0  0  0  0
   -6.0010   24.7420  -30.4710 C   0  0  0  0  0  0  0  0  0  0  0  0
   -4.7220   24.2640  -30.8110 C   0  0  0  0  0  0  0  0  0  0  0  0
   -3.5250   24.9740  -30.4630 N   0  0  0  0  0  0  0  0  0  0  0  0
   -2.4520   24.5510  -29.1680 S   0  0  0  0  0  0  0  0  0  0  0  0
   -1.2470   25.4480  -29.2170 O   0  0  0  0  0  0  0  0  0  0  0  0
   -3.1610   24.7510  -27.8590 O   0  0  0  0  0  0  0  0  0  0  0  0
   -1.9750   22.8620  -29.3040 C   0  0  0  0  0  0  0  0  0  0  0  0
   -2.2400   21.9630  -28.2600 C   0  0  0  0  0  0  0  0  0  0  0  0
   -1.8520   20.6250  -28.3700 C   0  0  0  0  0  0  0  0  0  0  0  0
   -1.2000   20.1770  -29.5240 C   0  0  0  0  0  0  0  0  0  0  0  0
   -0.9390   21.0680  -30.5690 C   0  0  0  0  0  0  0  0  0  0  0  0
   -1.3270   22.4070  -30.4620 C   0  0  0  0  0  0  0  0  0  0  0  0
   -4.6050   23.0590  -31.5160 C   0  0  0  0  0  0  0  0  0  0  0  0
   -5.5243   20.2069  -31.9806 H   0  0  0  0  0  0  0  0  0  0  0  0
   -6.5033   20.9296  -33.3020 H   0  0  0  0  0  0  0  0  0  0  0  0
   -4.7168   21.1173  -33.3020 H   0  0  0  0  0  0  0  0  0  0  0  0
   -7.9180   22.2714  -31.8510 H   0  0  0  0  0  0  0  0  0  0  0  0
   -8.1390   24.4042  -30.5804 H   0  0  0  0  0  0  0  0  0  0  0  0
   -6.1041   25.6828  -29.9104 H   0  0  0  0  0  0  0  0  0  0  0  0
   -2.7545   22.3122  -27.3526 H   0  0  0  0  0  0  0  0  0  0  0  0
   -2.0594   19.9234  -27.5486 H   0  0  0  0  0  0  0  0  0  0  0  0
   -0.8929   19.1242  -29.6089 H   0  0  0  0  0  0  0  0  0  0  0  0
   -0.4276   20.7152  -31.4768 H   0  0  0  0  0  0  0  0  0  0  0  0
   -1.1237   23.1050  -31.2875 H   0  0  0  0  0  0  0  0  0  0  0  0
   -3.6082   22.6827  -31.7894 H   0  0  0  0  0  0  0  0  0  0  0  0
  1  2  1  0
  2  3  2  0
  3  4  1  0
  4  5  2  0
  5  6  1  0
  6  7  1  0
  7  8  1  0
  8  9  2  0
  8 10  2  0
  8 11  1  0
 11 12  2  0
 12 13  1  0
 13 14  2  0
 14 15  1  0
 15 16  2  0
  6 17  2  0
 17  2  1  0
 16 11  1  0
  1 18  1  0
  1 19  1  0
  1 20  1  0
  3 21  1  0
  4 22  1  0
  5 23  1  0
 12 24  1  0
 13 25  1  0
 14 26  1  0
 15 27  1  0
 16 28  1  0
 17 29  1  0
M  CHG  1   7  -1
M  END
>  <UniqueID>  (7) 
7

>  <SMILES>  (7) 
Cc1cccc([N-]S(=O)(=O)c2ccccc2)c1

>  <Energy>  (7) 
31.760292186419996

>  <Genealogy>  (7) 
Cc1cccc([N-]S(=O)(=O)c2ccccc2)c1 (protonated)
Cc1cccc([N-]S(=O)(=O)c2ccccc2)c1 (3D coordinates assigned)
Cc1cccc([N-]S(=O)(=O)c2ccccc2)c1 (optimized conformer: 31.760292186419996 kcal/mol)

>  <smiles>  (7) 
Cc1cccc(NS(=O)(=O)c2ccccc2)c1

>  <score_type>  (7) 
oracle

>  <origin>  (7) 
adgpu

>  <m_score__min__energy>  (7) 
-8

>  <m_primary>  (7) 
energy

$$$$
7:0
     RDKit          3D

 36 37  0  0  0  0  0  0  0  0999 V2000
   -9.1190   18.3140  -31.9430 C   0  0  0  0  0  0  0  0  0  0  0  0
   -9.0650   19.6600  -32.6560 C   0  0  0  0  0  0  0  0  0  0  0  0
   -7.9600   20.4690  -32.1450 N   0  0  0  0  0  0  0  0  0  0  0  0
   -8.0980   21.8730  -31.8670 C   0  0  0  0  0  0  0  0  0  0  0  0
   -9.2310   22.4200  -31.9660 O   0  0  0  0  0  0  0  0  0  0  0  0
   -6.9330   22.6920  -31.4500 C   0  0  0  0  0  0  0  0  0  0  0  0
   -5.6160   22.2380  -31.6390 C   0  0  0  0  0  0  0  0  0  0  0  0
   -4.5300   23.0270  -31.2470 C   0  0  0  0  0  0  0  0  0  0  0  0
   -4.7400   24.2930  -30.6770 C   0  0  0  0  0  0  0  0  0  0  0  0
   -3.6390   25.1080  -30.2390 N   0  0  0  0  0  0  0  0  0  0  0  0
   -2.7260   24.7520  -29.1880 C   0  0  0  0  0  0  0  0  0  0  0  0
   -2.8620   23.5580  -28.4740 C   0  0  0  0  0  0  0  0  0  0  0  0
   -1.9240   23.2510  -27.4870 C   0  0  0  0  0  0  0  0  0  0  0  0
   -2.0400   22.1690  -26.8510 O   0  0  0  0  0  0  0  0  0  0  0  0
   -0.8890   24.1120  -27.2230 N   0  0  0  0  0  0  0  0  0  0  0  0
    0.1130   23.7750  -26.1990 C   0  0  0  0  0  0  0  0  0  0  0  0
   -0.7500   25.2520  -27.9760 C   0  0  0  0  0  0  0  0  0  0  0  0
    0.2230   26.0320  -27.7940 O   0  0  0  0  0  0  0  0  0  0  0  0
   -1.6610   25.5530  -28.9370 N   0  0  0  0  0  0  0  0  0  0  0  0
   -6.0520   24.7420  -30.4760 C   0  0  0  0  0  0  0  0  0  0  0  0
   -7.1380   23.9570  -30.8690 C   0  0  0  0  0  0  0  0  0  0  0  0
   -9.1125   18.4750  -30.8549 H   0  0  0  0  0  0  0  0  0  0  0  0
  -10.0391   17.7838  -32.2298 H   0  0  0  0  0  0  0  0  0  0  0  0
   -8.2443   17.7118  -32.2298 H   0  0  0  0  0  0  0  0  0  0  0  0
   -8.9223   19.4927  -33.7338 H   0  0  0  0  0  0  0  0  0  0  0  0
  -10.0091   20.1949  -32.4757 H   0  0  0  0  0  0  0  0  0  0  0  0
   -7.0510   19.9880  -31.9690 H   0  0  0  0  0  0  0  0  0  0  0  0
   -5.4384   21.2546  -32.0988 H   0  0  0  0  0  0  0  0  0  0  0  0
   -3.5047   22.6535  -31.3861 H   0  0  0  0  0  0  0  0  0  0  0  0
   -3.4930   26.0300  -30.7110 H   0  0  0  0  0  0  0  0  0  0  0  0
   -3.6948   22.8715  -28.6865 H   0  0  0  0  0  0  0  0  0  0  0  0
   -0.3213   23.9211  -25.1990 H   0  0  0  0  0  0  0  0  0  0  0  0
    0.4183   22.7247  -26.3163 H   0  0  0  0  0  0  0  0  0  0  0  0
    0.9909   24.4273  -26.3163 H   0  0  0  0  0  0  0  0  0  0  0  0
   -6.2279   25.7204  -30.0050 H   0  0  0  0  0  0  0  0  0  0  0  0
   -8.1622   24.3307  -30.7231 H   0  0  0  0  0  0  0  0  0  0  0  0
  1  2  1  0
  2  3  1  0
  3  4  1  0
  4  5  2  0
  4  6  1  0
  6  7  2  0
  7  8  1  0
  8  9  2  0
  9 10  1  0
 10 11  1  0
 11 12  2  0
 12 13  1  0
 13 14  2  0
 13 15  1  0
 15 16  1  0
 15 17  1  0
 17 18  2  0
 17 19  1  0
  9 20  1  0
 20 21  2  0
 21  6  1  0
 19 11  1  0
  1 22  1  0
  1 23  1  0
  1 24  1  0
  2 25  1  0
  2 26  1  0
  3 27  1  0
  7 28  1  0
  8 29  1  0
 10 30  1  0
 12 31  1  0
 16 32  1  0
 16 33  1  0
 16 34  1  0
 20 35  1  0
 21 36  1  0
M  CHG  1  19  -1
M  END
>  <UniqueID>  (8) 
8

>  <SMILES>  (8) 
CCNC(=O)c1ccc(Nc2cc(=O)n(C)c(=O)[n-]2)cc1

>  <Energy>  (8) 
43.50825482365744

>  <Genealogy>  (8) 
CCNC(=O)c1ccc(Nc2cc(=O)n(C)c(=O)[n-]2)cc1 (protonated)
CCNC(=O)c1ccc(Nc2cc(=O)n(C)c(=O)[n-]2)cc1 (3D coordinates assigned)
CCNC(=O)c1ccc(Nc2cc(=O)n(C)c(=O)[n-]2)cc1 (optimized conformer: 43.50825482365744 kcal/mol)

>  <smiles>  (8) 
CCNC(=O)c1ccc(Nc2cc(=O)n(C)c(=O)[nH]2)cc1

>  <score_type>  (8) 
oracle

>  <origin>  (8) 
adgpu

>  <m_score__min__energy>  (8) 
-8.5999999999999996

>  <m_primary>  (8) 
energy

$$$$
8:0
     RDKit          3D

 36 39  0  0  0  0  0  0  0  0999 V2000
    0.5273   26.2240  -26.0736 H   0  0  0  0  0  0  0  0  0  0  0  0
   -0.3060   25.7500  -26.6130 C   0  0  0  0  0  0  0  0  0  0  0  0
   -0.1260   25.3020  -27.8830 N   0  0  0  0  0  0  0  0  0  0  0  0
   -1.1310   24.7100  -28.5830 C   0  0  0  0  0  0  0  0  0  0  0  0
   -0.9495   24.3624  -29.6107 H   0  0  0  0  0  0  0  0  0  0  0  0
   -2.4010   24.5390  -28.0020 C   0  0  0  0  0  0  0  0  0  0  0  0
   -3.5000   23.8940  -28.7650 C   0  0  0  0  0  0  0  0  0  0  0  0
   -5.0390   24.5490  -29.0150 S   0  0  0  0  0  0  0  0  0  0  0  0
   -5.5760   23.2390  -29.9130 C   0  0  0  0  0  0  0  0  0  0  0  0
   -6.7610   23.1790  -30.4470 N   0  0  0  0  0  0  0  0  0  0  0  0
   -7.3260   22.0680  -31.1550 C   0  0  0  0  0  0  0  0  0  0  0  0
   -6.5790   21.0720  -31.6620 N   0  0  0  0  0  0  0  0  0  0  0  0
   -7.3840   20.2850  -32.3600 N   0  0  0  0  0  0  0  0  0  0  0  0
   -6.9350   19.1050  -33.0590 C   0  0  0  0  0  0  0  0  0  0  0  0
   -6.0860   19.2300  -34.1750 C   0  0  0  0  0  0  0  0  0  0  0  0
   -5.7707   20.2288  -34.5112 H   0  0  0  0  0  0  0  0  0  0  0  0
   -5.6400   18.0950  -34.8600 C   0  0  0  0  0  0  0  0  0  0  0  0
   -4.9788   18.2044  -35.7323 H   0  0  0  0  0  0  0  0  0  0  0  0
   -6.0330   16.8230  -34.4380 C   0  0  0  0  0  0  0  0  0  0  0  0
   -5.6848   15.9313  -34.9799 H   0  0  0  0  0  0  0  0  0  0  0  0
   -6.8680   16.6840  -33.3280 C   0  0  0  0  0  0  0  0  0  0  0  0
   -7.1735   15.6815  -32.9939 H   0  0  0  0  0  0  0  0  0  0  0  0
   -7.3170   17.8140  -32.6400 C   0  0  0  0  0  0  0  0  0  0  0  0
   -7.9732   17.6957  -31.7652 H   0  0  0  0  0  0  0  0  0  0  0  0
   -8.6380   20.7900  -32.3330 C   0  0  0  0  0  0  0  0  0  0  0  0
   -9.5156   20.3519  -32.8309 H   0  0  0  0  0  0  0  0  0  0  0  0
   -8.6360   21.9440  -31.5790 C   0  0  0  0  0  0  0  0  0  0  0  0
   -9.4825   22.6127  -31.3640 H   0  0  0  0  0  0  0  0  0  0  0  0
   -4.6050   22.3070  -30.0570 N   0  0  0  0  0  0  0  0  0  0  0  0
   -4.6790   21.4390  -30.6310 H   0  0  0  0  0  0  0  0  0  0  0  0
   -3.4550   22.6590  -29.4220 C   0  0  0  0  0  0  0  0  0  0  0  0
   -2.5583   22.0219  -29.4246 H   0  0  0  0  0  0  0  0  0  0  0  0
   -2.5950   25.0040  -26.6880 C   0  0  0  0  0  0  0  0  0  0  0  0
   -3.5772   24.8902  -26.2060 H   0  0  0  0  0  0  0  0  0  0  0  0
   -1.5460   25.6090  -25.9940 C   0  0  0  0  0  0  0  0  0  0  0  0
   -1.6972   25.9716  -24.9665 H   0  0  0  0  0  0  0  0  0  0  0  0
  1  2  1  0
  2  3  2  0
  3  4  1  0
  4  5  1  0
  4  6  2  0
  6  7  1  0
  7  8  1  0
  8  9  1  0
  9 10  2  0
 10 11  1  0
 11 12  2  0
 12 13  1  0
 13 14  1  0
 14 15  2  0
 15 16  1  0
 15 17  1  0
 17 18  1  0
 17 19  2  0
 19 20  1  0
 19 21  1  0
 21 22  1  0
 21 23  2  0
 23 24  1  0
 13 25  1  0
 25 26  1  0
 25 27  2  0
 27 28  1  0
  9 29  1  0
 29 30  1  0
 29 31  1  0
 31 32  1  0
  6 33  1  0
 33 34  1  0
 33 35  2  0
 35 36  1  0
 35  2  1  0
 31  7  2  0
 27 11  1  0
 23 14  1  0
M  END
>  <UniqueID>  (9) 
9

>  <SMILES>  (9) 
c1ccc(-n2ccc(/N=c3\[nH]cc(-c4cccnc4)s3)n2)cc1

>  <Energy>  (9) 
113.22625817869864

>  <Genealogy>  (9) 
c1ccc(-n2ccc(/N=c3\[nH]cc(-c4cccnc4)s3)n2)cc1 (cis-trans isomerization)
c1ccc(-n2ccc(/N=c3\[nH]cc(-c4cccnc4)s3)n2)cc1 (3D coordinates assigned)
c1ccc(-n2ccc(/N=c3\[nH]cc(-c4cccnc4)s3)n2)cc1 (optimized conformer: 113.22625817869864 kcal/mol)

>  <smiles>  (9) 
c1ccc(-n2ccc(N=c3[nH]cc(-c4cccnc4)s3)n2)cc1

>  <score_type>  (9) 
oracle

>  <origin>  (9) 
adgpu

>  <m_score__min__energy>  (9) 
-8.4600000000000009

>  <m_primary>  (9) 
energy

$$$$
9:0
     RDKit          3D

 41 44  0  0  0  0  0  0  0  0999 V2000
   -3.9746   13.2853  -35.1587 H   0  0  0  0  0  0  0  0  0  0  0  0
   -4.5480   14.1650  -34.8310 C   0  0  0  0  0  0  0  0  0  0  0  0
   -3.9950   15.4420  -34.9490 C   0  0  0  0  0  0  0  0  0  0  0  0
   -2.9830   15.5663  -35.3619 H   0  0  0  0  0  0  0  0  0  0  0  0
   -4.7260   16.5630  -34.5430 C   0  0  0  0  0  0  0  0  0  0  0  0
   -4.2809   17.5658  -34.6220 H   0  0  0  0  0  0  0  0  0  0  0  0
   -6.0310   16.4120  -34.0330 C   0  0  0  0  0  0  0  0  0  0  0  0
   -6.8030   17.5320  -33.5690 N   0  0  0  0  0  0  0  0  0  0  0  0
   -6.3540   18.6060  -32.9790 C   0  0  0  0  0  0  0  0  0  0  0  0
   -5.0170   18.8080  -32.8310 N   0  0  0  0  0  0  0  0  0  0  0  0
   -4.5250   19.8990  -32.2480 N   0  0  0  0  0  0  0  0  0  0  0  0
   -5.3250   20.8870  -31.7690 C   0  0  0  0  0  0  0  0  0  0  0  0
   -4.6770   22.0330  -31.0990 C   0  0  0  0  0  0  0  0  0  0  0  0
   -3.6410   21.8310  -30.1730 C   0  0  0  0  0  0  0  0  0  0  0  0
   -3.3245   20.8083  -29.9202 H   0  0  0  0  0  0  0  0  0  0  0  0
   -3.0100   22.9230  -29.5710 C   0  0  0  0  0  0  0  0  0  0  0  0
   -2.2070   22.7531  -28.8386 H   0  0  0  0  0  0  0  0  0  0  0  0
   -3.3910   24.2310  -29.8920 C   0  0  0  0  0  0  0  0  0  0  0  0
   -2.7280   25.2940  -29.2590 O   0  0  0  0  0  0  0  0  0  0  0  0
   -1.9590   25.1670  -28.0690 C   0  0  0  0  0  0  0  0  0  0  0  0
   -2.6168   25.2756  -27.1940 H   0  0  0  0  0  0  0  0  0  0  0  0
   -1.4791   24.1774  -28.0464 H   0  0  0  0  0  0  0  0  0  0  0  0
   -1.1865   25.9497  -28.0464 H   0  0  0  0  0  0  0  0  0  0  0  0
   -4.4150   24.4350  -30.8370 C   0  0  0  0  0  0  0  0  0  0  0  0
   -4.7195   25.4582  -31.1024 H   0  0  0  0  0  0  0  0  0  0  0  0
   -5.0460   23.3430  -31.4390 C   0  0  0  0  0  0  0  0  0  0  0  0
   -5.8372   23.5118  -32.1843 H   0  0  0  0  0  0  0  0  0  0  0  0
   -6.7250   20.7710  -31.9260 C   0  0  0  0  0  0  0  0  0  0  0  0
   -7.6140   21.7940  -31.5310 C   0  0  0  0  0  0  0  0  0  0  0  0
   -7.2181   22.7194  -31.0871 H   0  0  0  0  0  0  0  0  0  0  0  0
   -8.9910   21.6410  -31.6990 C   0  0  0  0  0  0  0  0  0  0  0  0
   -9.6743   22.4411  -31.3781 H   0  0  0  0  0  0  0  0  0  0  0  0
   -9.5040   20.4780  -32.2720 C   0  0  0  0  0  0  0  0  0  0  0  0
  -10.5909   20.3586  -32.3922 H   0  0  0  0  0  0  0  0  0  0  0  0
   -8.6420   19.4660  -32.6930 C   0  0  0  0  0  0  0  0  0  0  0  0
   -9.0534   18.5549  -33.1521 H   0  0  0  0  0  0  0  0  0  0  0  0
   -7.2470   19.6010  -32.5350 C   0  0  0  0  0  0  0  0  0  0  0  0
   -6.5630   15.1240  -33.8900 C   0  0  0  0  0  0  0  0  0  0  0  0
   -7.5646   14.9920  -33.4548 H   0  0  0  0  0  0  0  0  0  0  0  0
   -5.8290   14.0040  -34.2970 C   0  0  0  0  0  0  0  0  0  0  0  0
   -6.2606   12.9972  -34.1965 H   0  0  0  0  0  0  0  0  0  0  0  0
  1  2  1  0
  2  3  2  0
  3  4  1  0
  3  5  1  0
  5  6  1  0
  5  7  2  0
  7  8  1  0
  8  9  2  0
  9 10  1  0
 10 11  1  0
 11 12  2  0
 12 13  1  0
 13 14  2  0
 14 15  1  0
 14 16  1  0
 16 17  1  0
 16 18  2  0
 18 19  1  0
 19 20  1  0
 20 21  1  0
 20 22  1  0
 20 23  1  0
 18 24  1  0
 24 25  1  0
 24 26  2  0
 26 27  1  0
 12 28  1  0
 28 29  2  0
 29 30  1  0
 29 31  1  0
 31 32  1  0
 31 33  2  0
 33 34  1  0
 33 35  1  0
 35 36  1  0
 35 37  2  0
  7 38  1  0
 38 39  1  0
 38 40  2  0
 40 41  1  0
 40  2  1  0
 37  9  1  0
 26 13  1  0
 37 28  1  0
M  CHG  1  10  -1
M  END
>  <UniqueID>  (10) 
10

>  <SMILES>  (10) 
COc1ccc(-c2n[n-]/c(=N\c3ccccc3)c3ccccc23)cc1

>  <Energy>  (10) 
66.02592524820663

>  <Genealogy>  (10) 
COc1ccc(-c2n[n-]c(=Nc3ccccc3)c3ccccc23)cc1 (protonated)
COc1ccc(-c2n[n-]/c(=N\c3ccccc3)c3ccccc23)cc1 (cis-trans isomerization)
COc1ccc(-c2n[n-]/c(=N\c3ccccc3)c3ccccc23)cc1 (3D coordinates assigned)
COc1ccc(-c2n[n-]/c(=N\c3ccccc3)c3ccccc23)cc1 (optimized conformer: 66.02592524820663 kcal/mol)

>  <smiles>  (10) 
COc1ccc(-c2n[nH]c(=Nc3ccccc3)c3ccccc23)cc1

>  <score_type>  (10) 
oracle

>  <origin>  (10) 
adgpu

>  <m_score__min__energy>  (10) 
-8.9100000000000001

>  <m_primary>  (10) 
energy

$$$$
10:0
     RDKit          3D

 27 29  0  0  0  0  0  0  0  0999 V2000
   -8.1920   21.0460  -32.2950 C   0  0  0  0  0  0  0  0  0  0  0  0
   -6.8620   20.8760  -32.6860 C   0  0  0  0  0  0  0  0  0  0  0  0
   -5.8660   21.7080  -32.1640 C   0  0  0  0  0  0  0  0  0  0  0  0
   -6.1940   22.7200  -31.2440 C   0  0  0  0  0  0  0  0  0  0  0  0
   -5.1430   23.6010  -30.6920 C   0  0  0  0  0  0  0  0  0  0  0  0
   -4.8100   24.7970  -31.2180 N   0  0  0  0  0  0  0  0  0  0  0  0
   -3.8610   25.2460  -30.4560 O   0  0  0  0  0  0  0  0  0  0  0  0
   -3.6100   24.3830  -29.5030 C   0  0  0  0  0  0  0  0  0  0  0  0
   -2.5870   24.5710  -28.4560 C   0  0  0  0  0  0  0  0  0  0  0  0
   -2.9600   24.7280  -27.1090 C   0  0  0  0  0  0  0  0  0  0  0  0
   -1.9840   24.9060  -26.1240 C   0  0  0  0  0  0  0  0  0  0  0  0
   -0.6310   24.9300  -26.4730 C   0  0  0  0  0  0  0  0  0  0  0  0
   -0.2510   24.7760  -27.8090 C   0  0  0  0  0  0  0  0  0  0  0  0
   -1.2240   24.5970  -28.7980 C   0  0  0  0  0  0  0  0  0  0  0  0
   -4.4050   23.2980  -29.6010 N   0  0  0  0  0  0  0  0  0  0  0  0
   -7.5360   22.8830  -30.8580 C   0  0  0  0  0  0  0  0  0  0  0  0
   -8.5290   22.0480  -31.3820 C   0  0  0  0  0  0  0  0  0  0  0  0
   -8.9741   20.3908  -32.7060 H   0  0  0  0  0  0  0  0  0  0  0  0
   -6.5974   20.0869  -33.4053 H   0  0  0  0  0  0  0  0  0  0  0  0
   -4.8199   21.5699  -32.4749 H   0  0  0  0  0  0  0  0  0  0  0  0
   -4.0237   24.7107  -26.8295 H   0  0  0  0  0  0  0  0  0  0  0  0
   -2.2817   25.0274  -25.0720 H   0  0  0  0  0  0  0  0  0  0  0  0
    0.1350   25.0701  -25.6960 H   0  0  0  0  0  0  0  0  0  0  0  0
    0.8141   24.7956  -28.0831 H   0  0  0  0  0  0  0  0  0  0  0  0
   -0.9209   24.4760  -29.8485 H   0  0  0  0  0  0  0  0  0  0  0  0
   -7.8068   23.6712  -30.1401 H   0  0  0  0  0  0  0  0  0  0  0  0
   -9.5767   22.1809  -31.0745 H   0  0  0  0  0  0  0  0  0  0  0  0
  1  2  2  0
  2  3  1  0
  3  4  2  0
  4  5  1  0
  5  6  2  0
  6  7  1  0
  7  8  1  0
  8  9  1  0
  9 10  2  0
 10 11  1  0
 11 12  2  0
 12 13  1  0
 13 14  2  0
  8 15  2  0
  4 16  1  0
 16 17  2  0
 17  1  1  0
 15  5  1  0
 14  9  1  0
  1 18  1  0
  2 19  1  0
  3 20  1  0
 10 21  1  0
 11 22  1  0
 12 23  1  0
 13 24  1  0
 14 25  1  0
 16 26  1  0
 17 27  1  0
M  END
>  <UniqueID>  (11) 
11

>  <SMILES>  (11) 
c1ccc(-c2noc(-c3ccccc3)n2)cc1

>  <Energy>  (11) 
63.520911379097065

>  <Genealogy>  (11) 
c1ccc(-c2noc(-c3ccccc3)n2)cc1 (3D coordinates assigned)
c1ccc(-c2noc(-c3ccccc3)n2)cc1 (optimized conformer: 63.520911379097065 kcal/mol)

>  <smiles>  (11) 
c1ccc(-c2noc(-c3ccccc3)n2)cc1

>  <score_type>  (11) 
oracle

>  <origin>  (11) 
adgpu

>  <m_score__min__energy>  (11) 
-7.7000000000000002

>  <m_primary>  (11) 
energy

$$$$
11:0
     RDKit          3D

 44 47  0  0  0  0  0  0  0  0999 V2000
   -3.4290   14.4000  -34.1390 C   0  0  0  0  0  0  0  0  0  0  0  0
   -4.8820   14.1180  -34.4090 C   0  0  0  0  0  0  0  0  0  0  0  0
   -5.2380   12.9050  -35.0230 C   0  0  0  0  0  0  0  0  0  0  0  0
   -6.5730   12.6270  -35.3230 C   0  0  0  0  0  0  0  0  0  0  0  0
   -7.5680   13.5560  -35.0130 C   0  0  0  0  0  0  0  0  0  0  0  0
   -7.2330   14.7570  -34.3860 C   0  0  0  0  0  0  0  0  0  0  0  0
   -5.9000   15.0380  -34.0530 C   0  0  0  0  0  0  0  0  0  0  0  0
   -5.5990   16.2760  -33.3960 N   0  0  0  0  0  0  0  0  0  0  0  0
   -5.6340   17.5370  -34.0810 C   0  0  0  0  0  0  0  0  0  0  0  0
   -5.8650   17.5730  -35.3210 O   0  0  0  0  0  0  0  0  0  0  0  0
   -5.3760   18.7980  -33.3510 C   0  0  0  0  0  0  0  0  0  0  0  0
   -4.1120   19.4030  -33.4420 C   0  0  0  0  0  0  0  0  0  0  0  0
   -3.8460   20.6020  -32.7760 C   0  0  0  0  0  0  0  0  0  0  0  0
   -4.8410   21.2200  -32.0040 C   0  0  0  0  0  0  0  0  0  0  0  0
   -4.5650   22.4860  -31.2970 C   0  0  0  0  0  0  0  0  0  0  0  0
   -4.9680   23.7010  -31.7200 N   0  0  0  0  0  0  0  0  0  0  0  0
   -4.5300   24.5720  -30.8240 N   0  0  0  0  0  0  0  0  0  0  0  0
   -3.8750   23.8570  -29.8870 C   0  0  0  0  0  0  0  0  0  0  0  0
   -3.2230   24.4370  -28.6970 C   0  0  0  0  0  0  0  0  0  0  0  0
   -3.9030   24.5030  -27.4680 C   0  0  0  0  0  0  0  0  0  0  0  0
   -3.2770   25.0530  -26.3450 C   0  0  0  0  0  0  0  0  0  0  0  0
   -1.9710   25.5410  -26.4390 C   0  0  0  0  0  0  0  0  0  0  0  0
   -1.2870   25.4800  -27.6560 C   0  0  0  0  0  0  0  0  0  0  0  0
   -0.0210   25.9540  -27.7460 F   0  0  0  0  0  0  0  0  0  0  0  0
   -1.9100   24.9300  -28.7820 C   0  0  0  0  0  0  0  0  0  0  0  0
   -3.8950   22.5770  -30.1740 O   0  0  0  0  0  0  0  0  0  0  0  0
   -6.1040   20.6200  -31.9080 C   0  0  0  0  0  0  0  0  0  0  0  0
   -6.3790   19.4190  -32.5740 C   0  0  0  0  0  0  0  0  0  0  0  0
   -7.9710   18.6990  -32.3570 Cl  0  0  0  0  0  0  0  0  0  0  0  0
   -3.2576   14.4333  -33.0529 H   0  0  0  0  0  0  0  0  0  0  0  0
   -2.8124   13.6048  -34.5833 H   0  0  0  0  0  0  0  0  0  0  0  0
   -3.1547   15.3681  -34.5833 H   0  0  0  0  0  0  0  0  0  0  0  0
   -4.4587   12.1687  -35.2692 H   0  0  0  0  0  0  0  0  0  0  0  0
   -6.8411   11.6749  -35.8042 H   0  0  0  0  0  0  0  0  0  0  0  0
   -8.6174   13.3411  -35.2633 H   0  0  0  0  0  0  0  0  0  0  0  0
   -8.0203   15.4885  -34.1513 H   0  0  0  0  0  0  0  0  0  0  0  0
   -5.2340   16.2310  -32.4190 H   0  0  0  0  0  0  0  0  0  0  0  0
   -3.3232   18.9280  -34.0438 H   0  0  0  0  0  0  0  0  0  0  0  0
   -2.8510   21.0639  -32.8574 H   0  0  0  0  0  0  0  0  0  0  0  0
   -4.9314   24.1205  -27.3896 H   0  0  0  0  0  0  0  0  0  0  0  0
   -3.8136   25.1016  -25.3860 H   0  0  0  0  0  0  0  0  0  0  0  0
   -1.4810   25.9735  -25.5543 H   0  0  0  0  0  0  0  0  0  0  0  0
   -1.3689   24.8834  -29.7386 H   0  0  0  0  0  0  0  0  0  0  0  0
   -6.8883   21.0979  -31.3026 H   0  0  0  0  0  0  0  0  0  0  0  0
  1  2  1  0
  2  3  2  0
  3  4  1  0
  4  5  2  0
  5  6  1  0
  6  7  2  0
  7  8  1  0
  8  9  1  0
  9 10  2  0
  9 11  1  0
 11 12  2  0
 12 13  1  0
 13 14  2  0
 14 15  1  0
 15 16  2  0
 16 17  1  0
 17 18  2  0
 18 19  1  0
 19 20  2  0
 20 21  1  0
 21 22  2  0
 22 23  1  0
 23 24  1  0
 23 25  2  0
 18 26  1  0
 14 27  1  0
 27 28  2  0
 28 29  1  0
  7  2  1  0
 28 11  1  0
 26 15  1  0
 25 19  1  0
  1 30  1  0
  1 31  1  0
  1 32  1  0
  3 33  1  0
  4 34  1  0
  5 35  1  0
  6 36  1  0
  8 37  1  0
 12 38  1  0
 13 39  1  0
 20 40  1  0
 21 41  1  0
 22 42  1  0
 25 43  1  0
 27 44  1  0
M  END
>  <UniqueID>  (12) 
12

>  <SMILES>  (12) 
Cc1ccccc1NC(=O)c1ccc(-c2nnc(-c3cccc(F)c3)o2)cc1Cl

>  <Energy>  (12) 
94.89511350535204

>  <Genealogy>  (12) 
Cc1ccccc1NC(=O)c1ccc(-c2nnc(-c3cccc(F)c3)o2)cc1Cl (3D coordinates assigned)
Cc1ccccc1NC(=O)c1ccc(-c2nnc(-c3cccc(F)c3)o2)cc1Cl (optimized conformer: 94.89511350535204 kcal/mol)

>  <smiles>  (12) 
Cc1ccccc1NC(=O)c1ccc(-c2nnc(-c3cccc(F)c3)o2)cc1Cl

>  <score_type>  (12) 
oracle

>  <origin>  (12) 
adgpu

>  <m_score__min__energy>  (12) 
-8.8300000000000001

>  <m_primary>  (12) 
energy

$$$$
12:0
     RDKit          3D

 43 45  0  0  0  0  0  0  0  0999 V2000
   -0.4930   18.9420  -29.5760 C   0  0  0  0  0  0  0  0  0  0  0  0
   -1.0540   20.3290  -29.4580 C   0  0  0  0  0  0  0  0  0  0  0  0
   -2.1730   20.5720  -28.6470 C   0  0  0  0  0  0  0  0  0  0  0  0
   -2.7000   21.8630  -28.5430 C   0  0  0  0  0  0  0  0  0  0  0  0
   -2.1290   22.9190  -29.2650 C   0  0  0  0  0  0  0  0  0  0  0  0
   -2.7310   24.5620  -29.0570 S   0  0  0  0  0  0  0  0  0  0  0  0
   -1.5690   25.4990  -28.8960 O   0  0  0  0  0  0  0  0  0  0  0  0
   -3.5960   24.6440  -27.8310 O   0  0  0  0  0  0  0  0  0  0  0  0
   -3.6470   25.0180  -30.4530 N   0  0  0  0  0  0  0  0  0  0  0  0
   -4.7450   24.2170  -30.8890 C   0  0  0  0  0  0  0  0  0  0  0  0
   -6.0360   24.2440  -30.3850 C   0  0  0  0  0  0  0  0  0  0  0  0
   -6.5880   25.2720  -29.4440 C   0  0  0  0  0  0  0  0  0  0  0  0
   -6.6730   23.1050  -30.7610 N   0  0  0  0  0  0  0  0  0  0  0  0
   -7.9650   22.6430  -30.2460 C   0  0  0  0  0  0  0  0  0  0  0  0
   -5.8200   22.3530  -31.4540 N   0  0  0  0  0  0  0  0  0  0  0  0
   -6.0590   21.0060  -31.8940 C   0  0  0  0  0  0  0  0  0  0  0  0
   -7.2110   20.6970  -32.6320 C   0  0  0  0  0  0  0  0  0  0  0  0
   -7.4390   19.3860  -33.0650 C   0  0  0  0  0  0  0  0  0  0  0  0
   -6.5130   18.3810  -32.7670 C   0  0  0  0  0  0  0  0  0  0  0  0
   -5.3580   18.6860  -32.0430 C   0  0  0  0  0  0  0  0  0  0  0  0
   -5.1280   19.9950  -31.6120 C   0  0  0  0  0  0  0  0  0  0  0  0
   -4.6430   23.0030  -31.5260 C   0  0  0  0  0  0  0  0  0  0  0  0
   -3.5940   22.5300  -32.0430 O   0  0  0  0  0  0  0  0  0  0  0  0
   -1.0250   22.6730  -30.0930 C   0  0  0  0  0  0  0  0  0  0  0  0
   -0.4930   21.3840  -30.1940 C   0  0  0  0  0  0  0  0  0  0  0  0
   -0.3254   18.5275  -28.5709 H   0  0  0  0  0  0  0  0  0  0  0  0
   -1.2038   18.3042  -30.1218 H   0  0  0  0  0  0  0  0  0  0  0  0
    0.4614   18.9777  -30.1218 H   0  0  0  0  0  0  0  0  0  0  0  0
   -2.6372   19.7441  -28.0911 H   0  0  0  0  0  0  0  0  0  0  0  0
   -3.5664   22.0502  -27.8916 H   0  0  0  0  0  0  0  0  0  0  0  0
   -6.4150   24.9499  -28.4065 H   0  0  0  0  0  0  0  0  0  0  0  0
   -6.0857   26.2351  -29.6175 H   0  0  0  0  0  0  0  0  0  0  0  0
   -7.6683   25.3854  -29.6175 H   0  0  0  0  0  0  0  0  0  0  0  0
   -7.9451   22.6501  -29.1462 H   0  0  0  0  0  0  0  0  0  0  0  0
   -8.7622   23.3118  -30.6026 H   0  0  0  0  0  0  0  0  0  0  0  0
   -8.1574   21.6204  -30.6026 H   0  0  0  0  0  0  0  0  0  0  0  0
   -7.9375   21.4876  -32.8711 H   0  0  0  0  0  0  0  0  0  0  0  0
   -8.3459   19.1460  -33.6394 H   0  0  0  0  0  0  0  0  0  0  0  0
   -6.6945   17.3494  -33.1031 H   0  0  0  0  0  0  0  0  0  0  0  0
   -4.6291   17.8952  -31.8121 H   0  0  0  0  0  0  0  0  0  0  0  0
   -4.2134   20.2338  -31.0494 H   0  0  0  0  0  0  0  0  0  0  0  0
   -0.5753   23.4975  -30.6657 H   0  0  0  0  0  0  0  0  0  0  0  0
    0.3680   21.1962  -30.8524 H   0  0  0  0  0  0  0  0  0  0  0  0
  1  2  1  0
  2  3  2  0
  3  4  1  0
  4  5  2  0
  5  6  1  0
  6  7  2  0
  6  8  2  0
  6  9  1  0
  9 10  1  0
 10 11  2  0
 11 12  1  0
 11 13  1  0
 13 14  1  0
 13 15  1  0
 15 16  1  0
 16 17  2  0
 17 18  1  0
 18 19  2  0
 19 20  1  0
 20 21  2  0
 15 22  1  0
 22 23  2  0
  5 24  1  0
 24 25  2  0
 25  2  1  0
 22 10  1  0
 21 16  1  0
  1 26  1  0
  1 27  1  0
  1 28  1  0
  3 29  1  0
  4 30  1  0
 12 31  1  0
 12 32  1  0
 12 33  1  0
 14 34  1  0
 14 35  1  0
 14 36  1  0
 17 37  1  0
 18 38  1  0
 19 39  1  0
 20 40  1  0
 21 41  1  0
 24 42  1  0
 25 43  1  0
M  CHG  1   9  -1
M  END
>  <UniqueID>  (13) 
13

>  <SMILES>  (13) 
Cc1ccc(S(=O)(=O)[N-]c2c(C)n(C)n(-c3ccccc3)c2=O)cc1

>  <Energy>  (13) 
92.82292911212873

>  <Genealogy>  (13) 
Cc1ccc(S(=O)(=O)[N-]c2c(C)n(C)n(-c3ccccc3)c2=O)cc1 (protonated)
Cc1ccc(S(=O)(=O)[N-]c2c(C)n(C)n(-c3ccccc3)c2=O)cc1 (3D coordinates assigned)
Cc1ccc(S(=O)(=O)[N-]c2c(C)n(C)n(-c3ccccc3)c2=O)cc1 (optimized conformer: 92.82292911212873 kcal/mol)

>  <smiles>  (13) 
Cc1ccc(S(=O)(=O)Nc2c(C)n(C)n(-c3ccccc3)c2=O)cc1

>  <score_type>  (13) 
oracle

>  <origin>  (13) 
adgpu

>  <m_score__min__energy>  (13) 
-9.9100000000000001

>  <m_primary>  (13) 
energy

$$$$
13:0
     RDKit          3D

 38 40  0  0  0  0  0  0  0  0999 V2000
   -5.2070   15.6460  -33.6560 C   0  0  0  0  0  0  0  0  0  0  0  0
   -4.9830   16.0210  -32.3310 C   0  0  0  0  0  0  0  0  0  0  0  0
   -5.8970   16.8500  -31.6790 C   0  0  0  0  0  0  0  0  0  0  0  0
   -7.0340   17.2970  -32.3680 C   0  0  0  0  0  0  0  0  0  0  0  0
   -8.0310   18.2090  -31.7000 C   0  0  0  0  0  0  0  0  0  0  0  0
   -7.5630   19.6160  -31.6690 N   0  0  0  0  0  0  0  0  0  0  0  0
   -6.7850   19.9510  -32.8820 C   0  0  0  0  0  0  0  0  0  0  0  0
   -6.1190   21.3260  -32.7210 C   0  0  0  0  0  0  0  0  0  0  0  0
   -6.9900   22.2400  -31.9720 N   0  0  0  0  0  0  0  0  0  0  0  0
   -6.4390   23.4130  -31.3420 C   0  0  0  0  0  0  0  0  0  0  0  0
   -7.2150   24.1870  -30.4640 C   0  0  0  0  0  0  0  0  0  0  0  0
   -6.6650   25.3130  -29.8490 C   0  0  0  0  0  0  0  0  0  0  0  0
   -5.3380   25.6560  -30.1110 C   0  0  0  0  0  0  0  0  0  0  0  0
   -4.5930   24.8950  -30.9550 N   0  0  0  0  0  0  0  0  0  0  0  0
   -5.1050   23.7920  -31.5660 C   0  0  0  0  0  0  0  0  0  0  0  0
   -8.4330   21.9790  -31.9560 C   0  0  0  0  0  0  0  0  0  0  0  0
   -8.7270   20.5290  -31.5140 C   0  0  0  0  0  0  0  0  0  0  0  0
   -7.2280   16.9190  -33.6630 N   0  0  0  0  0  0  0  0  0  0  0  0
   -6.3480   16.1100  -34.3140 C   0  0  0  0  0  0  0  0  0  0  0  0
   -4.4924   14.9918  -34.1769 H   0  0  0  0  0  0  0  0  0  0  0  0
   -4.0876   15.6639  -31.8012 H   0  0  0  0  0  0  0  0  0  0  0  0
   -5.7273   17.1501  -30.6344 H   0  0  0  0  0  0  0  0  0  0  0  0
   -8.9808   18.1627  -32.2530 H   0  0  0  0  0  0  0  0  0  0  0  0
   -8.1585   17.8703  -30.6612 H   0  0  0  0  0  0  0  0  0  0  0  0
   -6.9480   19.7400  -30.8290 H   0  0  0  0  0  0  0  0  0  0  0  0
   -6.0090   19.1873  -33.0386 H   0  0  0  0  0  0  0  0  0  0  0  0
   -7.4633   19.9794  -33.7475 H   0  0  0  0  0  0  0  0  0  0  0  0
   -5.1697   21.2061  -32.1784 H   0  0  0  0  0  0  0  0  0  0  0  0
   -5.9370   21.7498  -33.7196 H   0  0  0  0  0  0  0  0  0  0  0  0
   -8.2587   23.9053  -30.2604 H   0  0  0  0  0  0  0  0  0  0  0  0
   -7.2718   25.9240  -29.1645 H   0  0  0  0  0  0  0  0  0  0  0  0
   -4.8949   26.5427  -29.6341 H   0  0  0  0  0  0  0  0  0  0  0  0
   -4.4715   23.1946  -32.2382 H   0  0  0  0  0  0  0  0  0  0  0  0
   -8.9168   22.6743  -31.2542 H   0  0  0  0  0  0  0  0  0  0  0  0
   -8.8269   22.1226  -32.9730 H   0  0  0  0  0  0  0  0  0  0  0  0
   -9.0222   20.5407  -30.4544 H   0  0  0  0  0  0  0  0  0  0  0  0
   -9.5275   20.1474  -32.1648 H   0  0  0  0  0  0  0  0  0  0  0  0
   -6.5357   15.8216  -35.3588 H   0  0  0  0  0  0  0  0  0  0  0  0
  1  2  2  0
  2  3  1  0
  3  4  2  0
  4  5  1  0
  5  6  1  0
  6  7  1  0
  7  8  1  0
  8  9  1  0
  9 10  1  0
 10 11  2  0
 11 12  1  0
 12 13  2  0
 13 14  1  0
 14 15  2  0
  9 16  1  0
 16 17  1  0
  4 18  1  0
 18 19  2  0
 19  1  1  0
 17  6  1  0
 15 10  1  0
  1 20  1  0
  2 21  1  0
  3 22  1  0
  5 23  1  0
  5 24  1  0
  6 25  1  0
  7 26  1  0
  7 27  1  0
  8 28  1  0
  8 29  1  0
 11 30  1  0
 12 31  1  0
 13 32  1  0
 15 33  1  0
 16 34  1  0
 16 35  1  0
 17 36  1  0
 17 37  1  0
 19 38  1  0
M  CHG  1   6   1
M  END
>  <UniqueID>  (14) 
14

>  <SMILES>  (14) 
c1ccc(C[NH+]2CCN(c3cccnc3)CC2)nc1

>  <Energy>  (14) 
51.88004718463284

>  <Genealogy>  (14) 
c1ccc(C[NH+]2CCN(c3cccnc3)CC2)nc1 (protonated)
c1ccc(C[NH+]2CCN(c3cccnc3)CC2)nc1 (3D coordinates assigned)
c1ccc(C[NH+]2CCN(c3cccnc3)CC2)nc1 (nonaromatic ring conformer: 51.88004718463284 kcal/mol)

>  <smiles>  (14) 
c1ccc(CN2CCN(c3cccnc3)CC2)nc1

>  <score_type>  (14) 
oracle

>  <origin>  (14) 
adgpu

>  <m_score__min__energy>  (14) 
-6.4699999999999998

>  <m_primary>  (14) 
energy

$$$$
14:0
     RDKit          3D

 49 51  0  0  0  0  0  0  0  0999 V2000
   -3.4900   26.0330  -29.9300 H   0  0  0  0  0  0  0  0  0  0  0  0
   -4.0670   25.5680  -30.6630 N   0  0  0  0  0  0  0  0  0  0  0  0
   -4.8110   24.5350  -30.4230 C   0  0  0  0  0  0  0  0  0  0  0  0
   -5.5510   23.9430  -31.3830 N   0  0  0  0  0  0  0  0  0  0  0  0
   -6.1530   22.9150  -30.7450 C   0  0  0  0  0  0  0  0  0  0  0  0
   -7.0640   21.9550  -31.4150 C   0  0  0  0  0  0  0  0  0  0  0  0
   -8.4600   22.1330  -31.3950 C   0  0  0  0  0  0  0  0  0  0  0  0
   -8.8921   23.0024  -30.8778 H   0  0  0  0  0  0  0  0  0  0  0  0
   -9.3010   21.2140  -32.0270 C   0  0  0  0  0  0  0  0  0  0  0  0
  -10.3907   21.3625  -32.0037 H   0  0  0  0  0  0  0  0  0  0  0  0
   -8.7640   20.1080  -32.6880 C   0  0  0  0  0  0  0  0  0  0  0  0
   -9.4316   19.3897  -33.1862 H   0  0  0  0  0  0  0  0  0  0  0  0
   -7.3710   19.9090  -32.7190 C   0  0  0  0  0  0  0  0  0  0  0  0
   -6.7820   18.8140  -33.3670 O   0  0  0  0  0  0  0  0  0  0  0  0
   -5.7170   18.9140  -34.3090 C   0  0  0  0  0  0  0  0  0  0  0  0
   -4.7606   19.0038  -33.7730 H   0  0  0  0  0  0  0  0  0  0  0  0
   -5.7003   18.0135  -34.9405 H   0  0  0  0  0  0  0  0  0  0  0  0
   -5.8682   19.8019  -34.9405 H   0  0  0  0  0  0  0  0  0  0  0  0
   -6.5340   20.8340  -32.0830 C   0  0  0  0  0  0  0  0  0  0  0  0
   -5.4447   20.6827  -32.1054 H   0  0  0  0  0  0  0  0  0  0  0  0
   -5.7670   22.9080  -29.4140 C   0  0  0  0  0  0  0  0  0  0  0  0
   -6.0926   22.1844  -28.6522 H   0  0  0  0  0  0  0  0  0  0  0  0
   -4.9260   23.9380  -29.2140 N   0  0  0  0  0  0  0  0  0  0  0  0
   -4.2210   24.2400  -27.9670 C   0  0  0  0  0  0  0  0  0  0  0  0
   -4.0343   25.3224  -27.9078 H   0  0  0  0  0  0  0  0  0  0  0  0
   -4.8409   23.9195  -27.1167 H   0  0  0  0  0  0  0  0  0  0  0  0
   -2.9070   23.5050  -27.9230 C   0  0  0  0  0  0  0  0  0  0  0  0
   -1.7210   24.1830  -28.2190 C   0  0  0  0  0  0  0  0  0  0  0  0
   -1.7580   25.2432  -28.5097 H   0  0  0  0  0  0  0  0  0  0  0  0
   -0.4820   23.5240  -28.1490 C   0  0  0  0  0  0  0  0  0  0  0  0
    0.7240   24.1830  -28.4370 O   0  0  0  0  0  0  0  0  0  0  0  0
    1.7060   24.5320  -27.4670 C   0  0  0  0  0  0  0  0  0  0  0  0
    1.2931   24.3853  -26.4580 H   0  0  0  0  0  0  0  0  0  0  0  0
    2.5926   23.8939  -27.5968 H   0  0  0  0  0  0  0  0  0  0  0  0
    1.9910   25.5865  -27.5968 H   0  0  0  0  0  0  0  0  0  0  0  0
   -0.4260   22.1700  -27.7770 C   0  0  0  0  0  0  0  0  0  0  0  0
    0.8530   21.5810  -27.7290 O   0  0  0  0  0  0  0  0  0  0  0  0
    1.2070   20.2810  -28.1880 C   0  0  0  0  0  0  0  0  0  0  0  0
    1.3861   19.6234  -27.3245 H   0  0  0  0  0  0  0  0  0  0  0  0
    0.3877   19.8715  -28.7971 H   0  0  0  0  0  0  0  0  0  0  0  0
    2.1208   20.3434  -28.7971 H   0  0  0  0  0  0  0  0  0  0  0  0
   -1.6260   21.4730  -27.4750 C   0  0  0  0  0  0  0  0  0  0  0  0
   -1.5780   20.1200  -27.1040 O   0  0  0  0  0  0  0  0  0  0  0  0
   -2.6990   19.3420  -26.6960 C   0  0  0  0  0  0  0  0  0  0  0  0
   -2.7435   19.3111  -25.5973 H   0  0  0  0  0  0  0  0  0  0  0  0
   -3.6217   19.7949  -27.0878 H   0  0  0  0  0  0  0  0  0  0  0  0
   -2.5976   18.3191  -27.0878 H   0  0  0  0  0  0  0  0  0  0  0  0
   -2.8540   22.1570  -27.5520 C   0  0  0  0  0  0  0  0  0  0  0  0
   -3.7866   21.6232  -27.3168 H   0  0  0  0  0  0  0  0  0  0  0  0
  1  2  1  0
  2  3  2  0
  3  4  1  0
  4  5  1  0
  5  6  1  0
  6  7  2  0
  7  8  1  0
  7  9  1  0
  9 10  1  0
  9 11  2  0
 11 12  1  0
 11 13  1  0
 13 14  1  0
 14 15  1  0
 15 16  1  0
 15 17  1  0
 15 18  1  0
 13 19  2  0
 19 20  1  0
  5 21  2  0
 21 22  1  0
 21 23  1  0
 23 24  1  0
 24 25  1  0
 24 26  1  0
 24 27  1  0
 27 28  2  0
 28 29  1  0
 28 30  1  0
 30 31  1  0
 31 32  1  0
 32 33  1  0
 32 34  1  0
 32 35  1  0
 30 36  2  0
 36 37  1  0
 37 38  1  0
 38 39  1  0
 38 40  1  0
 38 41  1  0
 36 42  1  0
 42 43  1  0
 43 44  1  0
 44 45  1  0
 44 46  1  0
 44 47  1  0
 42 48  2  0
 48 49  1  0
 23  3  1  0
 48 27  1  0
 19  6  1  0
M  CHG  1   4  -1
M  END
>  <UniqueID>  (15) 
15

>  <SMILES>  (15) 
[H]/N=c1/[n-]c(-c2cccc(OC)c2)cn1Cc1cc(OC)c(OC)c(OC)c1

>  <Energy>  (15) 
82.60384612437664

>  <Genealogy>  (15) 
COc1cccc(-c2cn(Cc3cc(OC)c(OC)c(OC)c3)c(=N)[n-]2)c1 (protonated)
[H]/N=c1/[n-]c(-c2cccc(OC)c2)cn1Cc1cc(OC)c(OC)c(OC)c1 (cis-trans isomerization)
[H]/N=c1/[n-]c(-c2cccc(OC)c2)cn1Cc1cc(OC)c(OC)c(OC)c1 (3D coordinates assigned)
[H]/N=c1/[n-]c(-c2cccc(OC)c2)cn1Cc1cc(OC)c(OC)c(OC)c1 (optimized conformer: 82.60384612437664 kcal/mol)

>  <smiles>  (15) 
COc1cccc(-c2cn(Cc3cc(OC)c(OC)c(OC)c3)c(=N)[nH]2)c1

>  <score_type>  (15) 
oracle

>  <origin>  (15) 
adgpu

>  <m_score__min__energy>  (15) 
-9.1699999999999999

>  <m_primary>  (15) 
energy

$$$$
15:0
     RDKit          3D

 36 36  0  0  0  0  0  0  0  0999 V2000
   -6.5980   16.4930  -33.8220 C   0  0  0  0  0  0  0  0  0  0  0  0
   -5.8640   17.6730  -33.3370 N   0  0  0  0  0  0  0  0  0  0  0  0
   -5.7390   18.6520  -34.4300 C   0  0  0  0  0  0  0  0  0  0  0  0
   -6.5580   18.2630  -32.1710 C   0  0  0  0  0  0  0  0  0  0  0  0
   -8.0810   18.1370  -32.3290 C   0  0  0  0  0  0  0  0  0  0  0  0
   -8.7610   19.5110  -32.4060 C   0  0  0  0  0  0  0  0  0  0  0  0
   -7.9030   20.4810  -33.0080 O   0  0  0  0  0  0  0  0  0  0  0  0
   -7.2010   21.4880  -32.3260 C   0  0  0  0  0  0  0  0  0  0  0  0
   -7.9330   22.3860  -31.5400 C   0  0  0  0  0  0  0  0  0  0  0  0
   -7.2880   23.4100  -30.8420 C   0  0  0  0  0  0  0  0  0  0  0  0
   -5.8950   23.5440  -30.9140 C   0  0  0  0  0  0  0  0  0  0  0  0
   -5.0840   24.8450  -30.0520 S   0  0  0  0  0  0  0  0  0  0  0  0
   -4.5570   24.2580  -28.4580 C   0  0  0  0  0  0  0  0  0  0  0  0
   -3.8890   25.3100  -30.8360 O   0  0  0  0  0  0  0  0  0  0  0  0
   -6.0250   26.0040  -29.8750 O   0  0  0  0  0  0  0  0  0  0  0  0
   -5.1560   22.6480  -31.6980 C   0  0  0  0  0  0  0  0  0  0  0  0
   -5.8000   21.6230  -32.3970 C   0  0  0  0  0  0  0  0  0  0  0  0
   -6.9613   15.9089  -32.9636 H   0  0  0  0  0  0  0  0  0  0  0  0
   -7.4532   16.8185  -34.4324 H   0  0  0  0  0  0  0  0  0  0  0  0
   -5.9280   15.8697  -34.4324 H   0  0  0  0  0  0  0  0  0  0  0  0
   -5.6104   19.6593  -34.0071 H   0  0  0  0  0  0  0  0  0  0  0  0
   -4.8657   18.4002  -35.0497 H   0  0  0  0  0  0  0  0  0  0  0  0
   -6.6475   18.6277  -35.0497 H   0  0  0  0  0  0  0  0  0  0  0  0
   -6.2442   17.7354  -31.2582 H   0  0  0  0  0  0  0  0  0  0  0  0
   -6.2950   19.3289  -32.1032 H   0  0  0  0  0  0  0  0  0  0  0  0
   -8.2984   17.5797  -33.2521 H   0  0  0  0  0  0  0  0  0  0  0  0
   -8.4740   17.6096  -31.4473 H   0  0  0  0  0  0  0  0  0  0  0  0
   -9.6792   19.4234  -33.0054 H   0  0  0  0  0  0  0  0  0  0  0  0
   -8.9945   19.8409  -31.3829 H   0  0  0  0  0  0  0  0  0  0  0  0
   -9.0261   22.2844  -31.4714 H   0  0  0  0  0  0  0  0  0  0  0  0
   -7.8756   24.1134  -30.2338 H   0  0  0  0  0  0  0  0  0  0  0  0
   -5.0693   24.8286  -27.6694 H   0  0  0  0  0  0  0  0  0  0  0  0
   -4.8062   23.1911  -28.3594 H   0  0  0  0  0  0  0  0  0  0  0  0
   -3.4696   24.3912  -28.3594 H   0  0  0  0  0  0  0  0  0  0  0  0
   -4.0629   22.7518  -31.7637 H   0  0  0  0  0  0  0  0  0  0  0  0
   -5.2114   20.9196  -33.0043 H   0  0  0  0  0  0  0  0  0  0  0  0
  1  2  1  0
  2  3  1  0
  2  4  1  0
  4  5  1  0
  5  6  1  0
  6  7  1  0
  7  8  1  0
  8  9  2  0
  9 10  1  0
 10 11  2  0
 11 12  1  0
 12 13  1  0
 12 14  2  0
 12 15  2  0
 11 16  1  0
 16 17  2  0
 17  8  1  0
  1 18  1  0
  1 19  1  0
  1 20  1  0
  3 21  1  0
  3 22  1  0
  3 23  1  0
  4 24  1  0
  4 25  1  0
  5 26  1  0
  5 27  1  0
  6 28  1  0
  6 29  1  0
  9 30  1  0
 10 31  1  0
 13 32  1  0
 13 33  1  0
 13 34  1  0
 16 35  1  0
 17 36  1  0
M  END
>  <UniqueID>  (16) 
16

>  <SMILES>  (16) 
CN(C)CCCOc1ccc(S(C)(=O)=O)cc1

>  <Energy>  (16) 
28.11706644246094

>  <Genealogy>  (16) 
CN(C)CCCOc1ccc(S(C)(=O)=O)cc1 (3D coordinates assigned)
CN(C)CCCOc1ccc(S(C)(=O)=O)cc1 (optimized conformer: 28.11706644246094 kcal/mol)

>  <smiles>  (16) 
CN(C)CCCOc1ccc(S(C)(=O)=O)cc1

>  <score_type>  (16) 
oracle

>  <origin>  (16) 
adgpu

>  <m_score__min__energy>  (16) 
-7.04

>  <m_primary>  (16) 
energy

$$$$
16:0
     RDKit          3D

 30 32  0  0  0  0  0  0  0  0999 V2000
   -2.1640   25.2990  -29.3700 O   0  0  0  0  0  0  0  0  0  0  0  0
   -3.1480   24.4270  -29.8220 C   0  0  0  0  0  0  0  0  0  0  0  0
   -4.3400   24.9290  -30.3710 C   0  0  0  0  0  0  0  0  0  0  0  0
   -4.5650   26.3020  -30.4690 O   0  0  0  0  0  0  0  0  0  0  0  0
   -5.3230   24.0450  -30.8250 C   0  0  0  0  0  0  0  0  0  0  0  0
   -5.1230   22.6560  -30.7540 C   0  0  0  0  0  0  0  0  0  0  0  0
   -6.1610   21.7120  -31.2260 C   0  0  0  0  0  0  0  0  0  0  0  0
   -7.4290   21.8560  -30.7540 N   0  0  0  0  0  0  0  0  0  0  0  0
   -8.4280   21.0890  -31.1880 N   0  0  0  0  0  0  0  0  0  0  0  0
   -8.2110   20.1350  -32.1260 C   0  0  0  0  0  0  0  0  0  0  0  0
   -9.4470   19.2110  -32.6560 S   0  0  0  0  0  0  0  0  0  0  0  0
   -6.9600   19.9420  -32.6090 N   0  0  0  0  0  0  0  0  0  0  0  0
   -5.9140   20.6950  -32.1770 C   0  0  0  0  0  0  0  0  0  0  0  0
   -4.5630   20.3770  -32.6920 C   0  0  0  0  0  0  0  0  0  0  0  0
   -4.0970   19.0490  -32.7270 C   0  0  0  0  0  0  0  0  0  0  0  0
   -2.8230   18.7630  -33.2260 C   0  0  0  0  0  0  0  0  0  0  0  0
   -2.0110   19.7940  -33.7090 C   0  0  0  0  0  0  0  0  0  0  0  0
   -2.4750   21.1110  -33.6990 C   0  0  0  0  0  0  0  0  0  0  0  0
   -3.7490   21.4030  -33.1990 C   0  0  0  0  0  0  0  0  0  0  0  0
   -3.9390   22.1630  -30.1850 C   0  0  0  0  0  0  0  0  0  0  0  0
   -2.9530   23.0430  -29.7270 C   0  0  0  0  0  0  0  0  0  0  0  0
   -1.3420   22.3340  -28.9760 Br  0  0  0  0  0  0  0  0  0  0  0  0
   -3.8610   26.9830  -30.2120 H   0  0  0  0  0  0  0  0  0  0  0  0
   -6.2613   24.4402  -31.2415 H   0  0  0  0  0  0  0  0  0  0  0  0
   -4.7378   18.2335  -32.3604 H   0  0  0  0  0  0  0  0  0  0  0  0
   -2.4585   17.7252  -33.2388 H   0  0  0  0  0  0  0  0  0  0  0  0
   -1.0068   19.5675  -34.0968 H   0  0  0  0  0  0  0  0  0  0  0  0
   -1.8379   21.9205  -34.0849 H   0  0  0  0  0  0  0  0  0  0  0  0
   -4.1144   22.4405  -33.2031 H   0  0  0  0  0  0  0  0  0  0  0  0
   -3.7852   21.0772  -30.0985 H   0  0  0  0  0  0  0  0  0  0  0  0
  1  2  1  0
  2  3  2  0
  3  4  1  0
  3  5  1  0
  5  6  2  0
  6  7  1  0
  7  8  2  0
  8  9  1  0
  9 10  1  0
 10 11  2  0
 10 12  1  0
 12 13  2  0
 13 14  1  0
 14 15  2  0
 15 16  1  0
 16 17  2  0
 17 18  1  0
 18 19  2  0
  6 20  1  0
 20 21  2  0
 21 22  1  0
 21  2  1  0
 13  7  1  0
 19 14  1  0
  4 23  1  0
  5 24  1  0
 15 25  1  0
 16 26  1  0
 17 27  1  0
 18 28  1  0
 19 29  1  0
 20 30  1  0
M  CHG  2   1  -1   9  -1
M  END
>  <UniqueID>  (17) 
17

>  <SMILES>  (17) 
[O-]c1c(O)cc(-c2n[n-]c(=S)nc2-c2ccccc2)cc1Br

>  <Energy>  (17) 
46.61244281070664

>  <Genealogy>  (17) 
[O-]c1c(O)cc(-c2n[n-]c(=S)nc2-c2ccccc2)cc1Br (protonated)
[O-]c1c(O)cc(-c2n[n-]c(=S)nc2-c2ccccc2)cc1Br (3D coordinates assigned)
[O-]c1c(O)cc(-c2n[n-]c(=S)nc2-c2ccccc2)cc1Br (optimized conformer: 46.61244281070664 kcal/mol)

>  <smiles>  (17) 
Oc1cc(-c2n[nH]c(=S)nc2-c2ccccc2)cc(Br)c1O

>  <score_type>  (17) 
oracle

>  <origin>  (17) 
adgpu

>  <m_score__min__energy>  (17) 
-10.949999999999999

>  <m_primary>  (17) 
energy

$$$$
17:0
     RDKit          3D

 25 26  0  0  0  0  0  0  0  0999 V2000
   -6.3429   25.3626  -31.2528 H   0  0  0  0  0  0  0  0  0  0  0  0
   -5.7240   24.4540  -31.2890 C   0  0  0  0  0  0  0  0  0  0  0  0
   -6.2600   23.2640  -31.7910 C   0  0  0  0  0  0  0  0  0  0  0  0
   -7.2998   23.2398  -32.1491 H   0  0  0  0  0  0  0  0  0  0  0  0
   -5.4760   22.0990  -31.8400 C   0  0  0  0  0  0  0  0  0  0  0  0
   -6.0460   20.8440  -32.3710 C   0  0  0  0  0  0  0  0  0  0  0  0
   -7.3410   20.6830  -32.7220 N   0  0  0  0  0  0  0  0  0  0  0  0
   -7.4450   19.4340  -33.1420 N   0  0  0  0  0  0  0  0  0  0  0  0
   -8.3280   19.0000  -33.4920 H   0  0  0  0  0  0  0  0  0  0  0  0
   -6.2230   18.8800  -33.0350 C   0  0  0  0  0  0  0  0  0  0  0  0
   -5.9190   17.6570  -33.3560 N   0  0  0  0  0  0  0  0  0  0  0  0
   -6.8570   16.6620  -33.8720 C   0  0  0  0  0  0  0  0  0  0  0  0
   -7.2767   17.0207  -34.8234 H   0  0  0  0  0  0  0  0  0  0  0  0
   -7.6581   16.5146  -33.1328 H   0  0  0  0  0  0  0  0  0  0  0  0
   -6.1540   15.3280  -34.1060 C   0  0  0  0  0  0  0  0  0  0  0  0
   -5.9109   14.8668  -33.1374 H   0  0  0  0  0  0  0  0  0  0  0  0
   -6.8167   14.6591  -34.6746 H   0  0  0  0  0  0  0  0  0  0  0  0
   -5.2276   15.4965  -34.6746 H   0  0  0  0  0  0  0  0  0  0  0  0
   -5.3550   19.7390  -32.5630 O   0  0  0  0  0  0  0  0  0  0  0  0
   -4.1490   22.1440  -31.3790 C   0  0  0  0  0  0  0  0  0  0  0  0
   -3.5266   21.2376  -31.4116 H   0  0  0  0  0  0  0  0  0  0  0  0
   -3.6170   23.3370  -30.8790 C   0  0  0  0  0  0  0  0  0  0  0  0
   -2.5773   23.3667  -30.5211 H   0  0  0  0  0  0  0  0  0  0  0  0
   -4.4030   24.4910  -30.8330 C   0  0  0  0  0  0  0  0  0  0  0  0
   -3.8730   25.6750  -30.3350 O   0  0  0  0  0  0  0  0  0  0  0  0
  1  2  1  0
  2  3  2  0
  3  4  1  0
  3  5  1  0
  5  6  1  0
  6  7  2  0
  7  8  1  0
  8  9  1  0
  8 10  1  0
 10 11  2  0
 11 12  1  0
 12 13  1  0
 12 14  1  0
 12 15  1  0
 15 16  1  0
 15 17  1  0
 15 18  1  0
 10 19  1  0
  5 20  2  0
 20 21  1  0
 20 22  1  0
 22 23  1  0
 22 24  2  0
 24 25  1  0
 24  2  1  0
 19  6  1  0
M  CHG  1  25  -1
M  END
>  <UniqueID>  (18) 
18

>  <SMILES>  (18) 
CC/N=c1\[nH]nc(-c2ccc([O-])cc2)o1

>  <Energy>  (18) 
59.28719817742826

>  <Genealogy>  (18) 
CCN=c1[nH]nc(-c2ccc([O-])cc2)o1 (protonated)
CC/N=c1\[nH]nc(-c2ccc([O-])cc2)o1 (cis-trans isomerization)
CC/N=c1\[nH]nc(-c2ccc([O-])cc2)o1 (3D coordinates assigned)
CC/N=c1\[nH]nc(-c2ccc([O-])cc2)o1 (optimized conformer: 59.28719817742826 kcal/mol)

>  <smiles>  (18) 
CCN=c1[nH]nc(-c2ccc(O)cc2)o1

>  <score_type>  (18) 
oracle

>  <origin>  (18) 
adgpu

>  <m_score__min__energy>  (18) 
-8.4900000000000002

>  <m_primary>  (18) 
energy

$$$$
18:0
     RDKit          3D

 65 69  0  0  0  0  0  0  0  0999 V2000
    1.6030   30.5440  -26.5640 C   0  0  0  0  0  0  0  0  0  0  0  0
    0.0840   29.6690  -26.8770 S   0  0  0  0  0  0  0  0  0  0  0  0
   -0.8970   29.9050  -25.7640 O   0  0  0  0  0  0  0  0  0  0  0  0
   -0.5070   30.1810  -28.1580 O   0  0  0  0  0  0  0  0  0  0  0  0
    0.3990   27.9700  -27.0450 N   0  0  0  0  0  0  0  0  0  0  0  0
   -0.5620   26.9300  -26.7820 C   0  0  0  0  0  0  0  0  0  0  0  0
   -1.0200   26.6480  -25.4820 C   0  0  0  0  0  0  0  0  0  0  0  0
   -1.9610   25.6400  -25.2700 C   0  0  0  0  0  0  0  0  0  0  0  0
   -2.4610   24.9040  -26.3450 C   0  0  0  0  0  0  0  0  0  0  0  0
   -2.0190   25.1640  -27.6540 C   0  0  0  0  0  0  0  0  0  0  0  0
   -2.5870   24.3940  -28.7900 C   0  0  0  0  0  0  0  0  0  0  0  0
   -3.9230   24.5490  -29.1990 C   0  0  0  0  0  0  0  0  0  0  0  0
   -4.3910   23.7830  -30.2660 C   0  0  0  0  0  0  0  0  0  0  0  0
   -3.5600   22.9130  -30.8920 N   0  0  0  0  0  0  0  0  0  0  0  0
   -2.2650   22.7700  -30.4980 C   0  0  0  0  0  0  0  0  0  0  0  0
   -1.4560   21.9600  -31.1170 N   0  0  0  0  0  0  0  0  0  0  0  0
   -1.8170   21.0610  -32.1800 C   0  0  0  0  0  0  0  0  0  0  0  0
   -0.8500   20.7030  -33.1240 C   0  0  0  0  0  0  0  0  0  0  0  0
   -1.1500   19.8190  -34.1860 C   0  0  0  0  0  0  0  0  0  0  0  0
   -0.1530   19.4900  -35.2040 N   0  0  0  0  0  0  0  0  0  0  0  0
    0.6620   20.5710  -35.7990 C   0  0  0  0  0  0  0  0  0  0  0  0
    1.7220   20.0720  -36.7850 C   0  0  0  0  0  0  0  0  0  0  0  0
    1.2360   18.9940  -37.5480 O   0  0  0  0  0  0  0  0  0  0  0  0
    1.0800   17.8840  -36.6990 C   0  0  0  0  0  0  0  0  0  0  0  0
   -0.0710   18.1050  -35.7160 C   0  0  0  0  0  0  0  0  0  0  0  0
   -2.4520   19.2640  -34.2290 C   0  0  0  0  0  0  0  0  0  0  0  0
   -3.4150   19.5810  -33.2600 C   0  0  0  0  0  0  0  0  0  0  0  0
   -4.7290   18.9900  -33.3220 N   0  0  0  0  0  0  0  0  0  0  0  0
   -5.8230   19.5530  -32.5220 C   0  0  0  0  0  0  0  0  0  0  0  0
   -6.8540   18.4620  -32.2200 C   0  0  0  0  0  0  0  0  0  0  0  0
   -7.2720   17.8230  -33.4140 O   0  0  0  0  0  0  0  0  0  0  0  0
   -6.1820   17.1290  -33.9910 C   0  0  0  0  0  0  0  0  0  0  0  0
   -5.0860   18.1040  -34.4340 C   0  0  0  0  0  0  0  0  0  0  0  0
   -3.0910   20.4820  -32.2390 C   0  0  0  0  0  0  0  0  0  0  0  0
   -1.7920   23.5160  -29.4640 N   0  0  0  0  0  0  0  0  0  0  0  0
   -1.0720   26.1870  -27.8600 C   0  0  0  0  0  0  0  0  0  0  0  0
    1.7578   30.6332  -25.4786 H   0  0  0  0  0  0  0  0  0  0  0  0
    2.4431   29.9914  -27.0100 H   0  0  0  0  0  0  0  0  0  0  0  0
    1.5465   31.5479  -27.0100 H   0  0  0  0  0  0  0  0  0  0  0  0
    1.3750   27.7020  -27.2990 H   0  0  0  0  0  0  0  0  0  0  0  0
   -0.6343   27.2250  -24.6286 H   0  0  0  0  0  0  0  0  0  0  0  0
   -2.3108   25.4242  -24.2497 H   0  0  0  0  0  0  0  0  0  0  0  0
   -3.2063   24.1148  -26.1669 H   0  0  0  0  0  0  0  0  0  0  0  0
   -4.5867   25.2612  -28.6869 H   0  0  0  0  0  0  0  0  0  0  0  0
   -5.4342   23.8843  -30.6000 H   0  0  0  0  0  0  0  0  0  0  0  0
    0.1653   21.1176  -33.0388 H   0  0  0  0  0  0  0  0  0  0  0  0
   -0.0104   21.2598  -36.3313 H   0  0  0  0  0  0  0  0  0  0  0  0
    1.1975   21.0615  -34.9727 H   0  0  0  0  0  0  0  0  0  0  0  0
    1.9996   20.8943  -37.4608 H   0  0  0  0  0  0  0  0  0  0  0  0
    2.5972   19.7293  -36.2136 H   0  0  0  0  0  0  0  0  0  0  0  0
    0.8677   16.9925  -37.3074 H   0  0  0  0  0  0  0  0  0  0  0  0
    2.0092   17.7466  -36.1265 H   0  0  0  0  0  0  0  0  0  0  0  0
   -1.0155   17.8663  -36.2268 H   0  0  0  0  0  0  0  0  0  0  0  0
    0.1129   17.4510  -34.8508 H   0  0  0  0  0  0  0  0  0  0  0  0
   -2.7139   18.5689  -35.0403 H   0  0  0  0  0  0  0  0  0  0  0  0
   -5.4202   19.9473  -31.5774 H   0  0  0  0  0  0  0  0  0  0  0  0
   -6.3058   20.3656  -33.0847 H   0  0  0  0  0  0  0  0  0  0  0  0
   -6.4036   17.7153  -31.5495 H   0  0  0  0  0  0  0  0  0  0  0  0
   -7.7295   18.9256  -31.7420 H   0  0  0  0  0  0  0  0  0  0  0  0
   -5.7655   16.4319  -33.2490 H   0  0  0  0  0  0  0  0  0  0  0  0
   -6.5422   16.5804  -34.8738 H   0  0  0  0  0  0  0  0  0  0  0  0
   -4.1977   17.5363  -34.7481 H   0  0  0  0  0  0  0  0  0  0  0  0
   -5.4566   18.7086  -35.2749 H   0  0  0  0  0  0  0  0  0  0  0  0
   -3.8425   20.7372  -31.4773 H   0  0  0  0  0  0  0  0  0  0  0  0
   -0.7266   26.4074  -28.8809 H   0  0  0  0  0  0  0  0  0  0  0  0
  1  2  1  0
  2  3  2  0
  2  4  2  0
  2  5  1  0
  5  6  1  0
  6  7  2  0
  7  8  1  0
  8  9  2  0
  9 10  1  0
 10 11  1  0
 11 12  1  0
 12 13  2  0
 13 14  1  0
 14 15  1  0
 15 16  2  3
 16 17  1  0
 17 18  2  0
 18 19  1  0
 19 20  1  0
 20 21  1  0
 21 22  1  0
 22 23  1  0
 23 24  1  0
 24 25  1  0
 19 26  2  0
 26 27  1  0
 27 28  1  0
 28 29  1  0
 29 30  1  0
 30 31  1  0
 31 32  1  0
 32 33  1  0
 27 34  2  0
 15 35  1  0
 10 36  2  0
 36  6  1  0
 35 11  2  0
 34 17  1  0
 25 20  1  0
 33 28  1  0
  1 37  1  0
  1 38  1  0
  1 39  1  0
  5 40  1  0
  7 41  1  0
  8 42  1  0
  9 43  1  0
 12 44  1  0
 13 45  1  0
 18 46  1  0
 21 47  1  0
 21 48  1  0
 22 49  1  0
 22 50  1  0
 24 51  1  0
 24 52  1  0
 25 53  1  0
 25 54  1  0
 26 55  1  0
 29 56  1  0
 29 57  1  0
 30 58  1  0
 30 59  1  0
 32 60  1  0
 32 61  1  0
 33 62  1  0
 33 63  1  0
 34 64  1  0
 36 65  1  0
M  CHG  1  14  -1
M  END
>  <UniqueID>  (19) 
19

>  <SMILES>  (19) 
CS(=O)(=O)Nc1cccc(-c2cc[n-]c(=Nc3cc(N4CCOCC4)cc(N4CCOCC4)c3)n2)c1

>  <Energy>  (19) 
92.48142812446164

>  <Genealogy>  (19) 
CS(=O)(=O)Nc1cccc(-c2cc[n-]c(=Nc3cc(N4CCOCC4)cc(N4CCOCC4)c3)n2)c1 (protonated)
CS(=O)(=O)Nc1cccc(-c2cc[n-]c(=Nc3cc(N4CCOCC4)cc(N4CCOCC4)c3)n2)c1 (3D coordinates assigned)
CS(=O)(=O)Nc1cccc(-c2cc[n-]c(=Nc3cc(N4CCOCC4)cc(N4CCOCC4)c3)n2)c1 (nonaromatic ring conformer: 92.48142812446164 kcal/mol)

>  <smiles>  (19) 
CS(=O)(=O)Nc1cccc(-c2cc[nH]c(=Nc3cc(N4CCOCC4)cc(N4CCOCC4)c3)n2)c1

>  <score_type>  (19) 
oracle

>  <origin>  (19) 
adgpu

>  <m_score__min__energy>  (19) 
-9.6199999999999992

>  <m_primary>  (19) 
energy

$$$$
19:0
     RDKit          3D

 38 40  0  0  0  0  0  0  0  0999 V2000
   -8.9200   18.4440  -31.5770 C   0  0  0  0  0  0  0  0  0  0  0  0
   -9.4900   19.9960  -32.3350 S   0  0  0  0  0  0  0  0  0  0  0  0
   -7.8470   20.7030  -32.3870 C   0  0  0  0  0  0  0  0  0  0  0  0
   -7.3650   21.5480  -31.4570 N   0  0  0  0  0  0  0  0  0  0  0  0
   -6.1190   21.7960  -31.9240 C   0  0  0  0  0  0  0  0  0  0  0  0
   -5.1520   22.6880  -31.2510 C   0  0  0  0  0  0  0  0  0  0  0  0
   -5.4520   24.0450  -31.0520 C   0  0  0  0  0  0  0  0  0  0  0  0
   -4.5360   24.8880  -30.4150 C   0  0  0  0  0  0  0  0  0  0  0  0
   -3.3140   24.3880  -29.9520 C   0  0  0  0  0  0  0  0  0  0  0  0
   -2.3950   25.2950  -29.3250 N   0  0  0  0  0  0  0  0  0  0  0  0
   -1.2210   24.9480  -28.5800 C   0  0  0  0  0  0  0  0  0  0  0  0
   -0.2730   24.3360  -29.1430 O   0  0  0  0  0  0  0  0  0  0  0  0
   -1.1070   25.3010  -27.1420 C   0  0  0  0  0  0  0  0  0  0  0  0
   -1.1940   26.6590  -26.7840 C   0  0  0  0  0  0  0  0  0  0  0  0
   -1.1290   27.0510  -25.4460 C   0  0  0  0  0  0  0  0  0  0  0  0
   -0.9760   26.0950  -24.4440 C   0  0  0  0  0  0  0  0  0  0  0  0
   -0.8720   24.7450  -24.7760 C   0  0  0  0  0  0  0  0  0  0  0  0
   -0.9180   24.3290  -26.1190 C   0  0  0  0  0  0  0  0  0  0  0  0
   -0.7520   22.8620  -26.4210 C   0  0  0  0  0  0  0  0  0  0  0  0
   -2.9980   23.0370  -30.1710 C   0  0  0  0  0  0  0  0  0  0  0  0
   -3.9120   22.1930  -30.8090 C   0  0  0  0  0  0  0  0  0  0  0  0
   -5.8590   21.1370  -33.0740 N   0  0  0  0  0  0  0  0  0  0  0  0
   -6.9520   20.4540  -33.3540 N   0  0  0  0  0  0  0  0  0  0  0  0
   -8.9541   18.5368  -30.4815 H   0  0  0  0  0  0  0  0  0  0  0  0
   -9.5737   17.6186  -31.8956 H   0  0  0  0  0  0  0  0  0  0  0  0
   -7.8875   18.2379  -31.8956 H   0  0  0  0  0  0  0  0  0  0  0  0
   -6.4146   24.4480  -31.3997 H   0  0  0  0  0  0  0  0  0  0  0  0
   -4.7780   25.9521  -30.2769 H   0  0  0  0  0  0  0  0  0  0  0  0
   -1.3147   27.4209  -27.5681 H   0  0  0  0  0  0  0  0  0  0  0  0
   -1.1987   28.1166  -25.1821 H   0  0  0  0  0  0  0  0  0  0  0  0
   -0.9372   26.4059  -23.3896 H   0  0  0  0  0  0  0  0  0  0  0  0
   -0.7526   23.9966  -23.9787 H   0  0  0  0  0  0  0  0  0  0  0  0
   -0.6882   22.2985  -25.4784 H   0  0  0  0  0  0  0  0  0  0  0  0
   -1.6157   22.5073  -27.0025 H   0  0  0  0  0  0  0  0  0  0  0  0
    0.1692   22.7093  -27.0025 H   0  0  0  0  0  0  0  0  0  0  0  0
   -2.0269   22.6412  -29.8390 H   0  0  0  0  0  0  0  0  0  0  0  0
   -3.6594   21.1340  -30.9664 H   0  0  0  0  0  0  0  0  0  0  0  0
   -7.0760   19.8370  -34.1880 H   0  0  0  0  0  0  0  0  0  0  0  0
  1  2  1  0
  2  3  1  0
  3  4  2  0
  4  5  1  0
  5  6  1  0
  6  7  2  0
  7  8  1  0
  8  9  2  0
  9 10  1  0
 10 11  1  0
 11 12  2  0
 11 13  1  0
 13 14  2  0
 14 15  1  0
 15 16  2  0
 16 17  1  0
 17 18  2  0
 18 19  1  0
  9 20  1  0
 20 21  2  0
  5 22  2  0
 22 23  1  0
 23  3  1  0
 21  6  1  0
 18 13  1  0
  1 24  1  0
  1 25  1  0
  1 26  1  0
  7 27  1  0
  8 28  1  0
 14 29  1  0
 15 30  1  0
 16 31  1  0
 17 32  1  0
 19 33  1  0
 19 34  1  0
 19 35  1  0
 20 36  1  0
 21 37  1  0
 23 38  1  0
M  CHG  1  10  -1
M  END
>  <UniqueID>  (20) 
20

>  <SMILES>  (20) 
CSc1nc(-c2ccc([N-]C(=O)c3ccccc3C)cc2)n[nH]1

>  <Energy>  (20) 
77.82670262996203

>  <Genealogy>  (20) 
CSc1nc(-c2ccc([N-]C(=O)c3ccccc3C)cc2)n[nH]1 (protonated)
CSc1nc(-c2ccc([N-]C(=O)c3ccccc3C)cc2)n[nH]1 (3D coordinates assigned)
CSc1nc(-c2ccc([N-]C(=O)c3ccccc3C)cc2)n[nH]1 (optimized conformer: 77.82670262996203 kcal/mol)

>  <smiles>  (20) 
CSc1nc(-c2ccc(NC(=O)c3ccccc3C)cc2)n[nH]1

>  <score_type>  (20) 
oracle

>  <origin>  (20) 
adgpu

>  <m_score__min__energy>  (20) 
-9.8900000000000006

>  <m_primary>  (20) 
energy

$$$$
20:0
     RDKit          3D

 42 44  0  0  0  0  0  0  0  0999 V2000
   -3.7956   23.4210  -30.6974 H   0  0  0  0  0  0  0  0  0  0  0  0
   -2.8900   23.6540  -30.1180 C   0  0  0  0  0  0  0  0  0  0  0  0
   -2.6720   24.9240  -29.6810 N   0  0  0  0  0  0  0  0  0  0  0  0
   -1.5620   25.2530  -28.9690 C   0  0  0  0  0  0  0  0  0  0  0  0
   -1.3980   26.4380  -28.5790 O   0  0  0  0  0  0  0  0  0  0  0  0
   -0.6040   24.2790  -28.6760 C   0  0  0  0  0  0  0  0  0  0  0  0
    0.2982   24.5405  -28.1036 H   0  0  0  0  0  0  0  0  0  0  0  0
   -0.8050   22.9700  -29.1180 C   0  0  0  0  0  0  0  0  0  0  0  0
   -0.0519   22.1972  -28.9047 H   0  0  0  0  0  0  0  0  0  0  0  0
   -1.9610   22.6390  -29.8310 C   0  0  0  0  0  0  0  0  0  0  0  0
   -2.1300   21.3200  -30.2780 O   0  0  0  0  0  0  0  0  0  0  0  0
   -1.6650   20.8090  -31.4990 C   0  0  0  0  0  0  0  0  0  0  0  0
   -0.3050   20.4930  -31.6780 C   0  0  0  0  0  0  0  0  0  0  0  0
    0.3979   20.6077  -30.8397 H   0  0  0  0  0  0  0  0  0  0  0  0
    0.1570   20.0350  -32.9130 C   0  0  0  0  0  0  0  0  0  0  0  0
    1.2193   19.7799  -33.0411 H   0  0  0  0  0  0  0  0  0  0  0  0
   -0.7250   19.9000  -33.9850 C   0  0  0  0  0  0  0  0  0  0  0  0
   -0.3577   19.5389  -34.9570 H   0  0  0  0  0  0  0  0  0  0  0  0
   -2.0740   20.2230  -33.8250 C   0  0  0  0  0  0  0  0  0  0  0  0
   -2.7637   20.1222  -34.6760 H   0  0  0  0  0  0  0  0  0  0  0  0
   -2.5580   20.6760  -32.5850 C   0  0  0  0  0  0  0  0  0  0  0  0
   -3.9990   20.9970  -32.4350 C   0  0  0  0  0  0  0  0  0  0  0  0
   -4.8730   20.0850  -31.8320 C   0  0  0  0  0  0  0  0  0  0  0  0
   -4.4915   19.1192  -31.4692 H   0  0  0  0  0  0  0  0  0  0  0  0
   -6.2250   20.3950  -31.6890 C   0  0  0  0  0  0  0  0  0  0  0  0
   -6.9113   19.6755  -31.2187 H   0  0  0  0  0  0  0  0  0  0  0  0
   -6.7060   21.6360  -32.1510 C   0  0  0  0  0  0  0  0  0  0  0  0
   -7.9620   21.9770  -32.0440 N   0  0  0  0  0  0  0  0  0  0  0  0
   -9.0310   21.1690  -31.4590 C   0  0  0  0  0  0  0  0  0  0  0  0
   -9.9049   21.8081  -31.2645 H   0  0  0  0  0  0  0  0  0  0  0  0
   -8.6731   20.7265  -30.5177 H   0  0  0  0  0  0  0  0  0  0  0  0
   -9.4290   20.0470  -32.4190 C   0  0  0  0  0  0  0  0  0  0  0  0
   -8.9279   20.2112  -33.3844 H   0  0  0  0  0  0  0  0  0  0  0  0
  -10.5232   20.0672  -32.5300 H   0  0  0  0  0  0  0  0  0  0  0  0
   -9.0340   18.6700  -31.8860 C   0  0  0  0  0  0  0  0  0  0  0  0
   -9.0390   18.6873  -30.7861 H   0  0  0  0  0  0  0  0  0  0  0  0
   -9.7527   17.9182  -32.2441 H   0  0  0  0  0  0  0  0  0  0  0  0
   -8.0261   18.4135  -32.2441 H   0  0  0  0  0  0  0  0  0  0  0  0
   -5.8340   22.5140  -32.7270 N   0  0  0  0  0  0  0  0  0  0  0  0
   -6.1830   23.4390  -33.0670 H   0  0  0  0  0  0  0  0  0  0  0  0
   -4.5130   22.2260  -32.8740 C   0  0  0  0  0  0  0  0  0  0  0  0
   -3.8425   22.9626  -33.3408 H   0  0  0  0  0  0  0  0  0  0  0  0
  1  2  1  0
  2  3  1  0
  3  4  1  0
  4  5  2  0
  4  6  1  0
  6  7  1  0
  6  8  2  0
  8  9  1  0
  8 10  1  0
 10 11  1  0
 11 12  1  0
 12 13  2  0
 13 14  1  0
 13 15  1  0
 15 16  1  0
 15 17  2  0
 17 18  1  0
 17 19  1  0
 19 20  1  0
 19 21  2  0
 21 22  1  0
 22 23  1  0
 23 24  1  0
 23 25  2  0
 25 26  1  0
 25 27  1  0
 27 28  2  0
 28 29  1  0
 29 30  1  0
 29 31  1  0
 29 32  1  0
 32 33  1  0
 32 34  1  0
 32 35  1  0
 35 36  1  0
 35 37  1  0
 35 38  1  0
 27 39  1  0
 39 40  1  0
 39 41  1  0
 41 42  1  0
 10  2  2  0
 21 12  1  0
 41 22  2  0
M  CHG  1   3  -1
M  END
>  <UniqueID>  (21) 
21

>  <SMILES>  (21) 
CCC/N=c1\ccc(-c2ccccc2Oc2ccc(=O)[n-]c2)c[nH]1

>  <Energy>  (21) 
54.735643959174425

>  <Genealogy>  (21) 
CCCN=c1ccc(-c2ccccc2Oc2ccc(=O)[n-]c2)c[nH]1 (protonated)
CCC/N=c1\ccc(-c2ccccc2Oc2ccc(=O)[n-]c2)c[nH]1 (cis-trans isomerization)
CCC/N=c1\ccc(-c2ccccc2Oc2ccc(=O)[n-]c2)c[nH]1 (3D coordinates assigned)
CCC/N=c1\ccc(-c2ccccc2Oc2ccc(=O)[n-]c2)c[nH]1 (optimized conformer: 54.735643959174425 kcal/mol)

>  <smiles>  (21) 
CCCN=c1ccc(-c2ccccc2Oc2ccc(=O)[nH]c2)c[nH]1

>  <score_type>  (21) 
oracle

>  <origin>  (21) 
adgpu

>  <m_score__min__energy>  (21) 
-9.5899999999999999

>  <m_primary>  (21) 
energy

$$$$
21:0
     RDKit          3D

 34 36  0  0  0  0  0  0  0  0999 V2000
   -5.3460   23.1380  -29.3730 C   0  0  0  0  0  0  0  0  0  0  0  0
   -5.6100   24.5310  -30.4510 S   0  0  0  0  0  0  0  0  0  0  0  0
   -6.3890   25.5730  -29.7000 O   0  0  0  0  0  0  0  0  0  0  0  0
   -4.2960   25.1240  -30.8750 O   0  0  0  0  0  0  0  0  0  0  0  0
   -6.5230   24.0470  -31.8470 N   0  0  0  0  0  0  0  0  0  0  0  0
   -7.2000   22.7830  -31.9800 C   0  0  0  0  0  0  0  0  0  0  0  0
   -8.5450   22.6880  -31.5930 C   0  0  0  0  0  0  0  0  0  0  0  0
   -9.2310   21.4790  -31.7030 C   0  0  0  0  0  0  0  0  0  0  0  0
   -8.5870   20.3490  -32.2090 C   0  0  0  0  0  0  0  0  0  0  0  0
   -7.2440   20.4200  -32.6230 C   0  0  0  0  0  0  0  0  0  0  0  0
   -6.5370   19.2280  -33.1570 C   0  0  0  0  0  0  0  0  0  0  0  0
   -6.1070   19.1520  -34.4960 C   0  0  0  0  0  0  0  0  0  0  0  0
   -5.4570   18.0420  -34.9350 N   0  0  0  0  0  0  0  0  0  0  0  0
   -5.2090   16.9960  -34.1060 C   0  0  0  0  0  0  0  0  0  0  0  0
   -4.5400   15.8580  -34.5700 C   0  0  0  0  0  0  0  0  0  0  0  0
   -4.2880   14.7940  -33.6980 C   0  0  0  0  0  0  0  0  0  0  0  0
   -4.7030   14.8650  -32.3610 C   0  0  0  0  0  0  0  0  0  0  0  0
   -4.3830   13.5260  -31.2730 Cl  0  0  0  0  0  0  0  0  0  0  0  0
   -5.3720   16.0020  -31.8920 C   0  0  0  0  0  0  0  0  0  0  0  0
   -5.6260   17.0680  -32.7630 C   0  0  0  0  0  0  0  0  0  0  0  0
   -6.2740   18.1790  -32.3270 N   0  0  0  0  0  0  0  0  0  0  0  0
   -6.5590   21.6430  -32.5000 C   0  0  0  0  0  0  0  0  0  0  0  0
   -5.4085   23.4680  -28.3255 H   0  0  0  0  0  0  0  0  0  0  0  0
   -6.1156   22.3756  -29.5639 H   0  0  0  0  0  0  0  0  0  0  0  0
   -4.3508   22.7101  -29.5639 H   0  0  0  0  0  0  0  0  0  0  0  0
   -6.6460   24.7640  -32.5960 H   0  0  0  0  0  0  0  0  0  0  0  0
   -9.0630   23.5749  -31.1993 H   0  0  0  0  0  0  0  0  0  0  0  0
  -10.2836   21.4157  -31.3898 H   0  0  0  0  0  0  0  0  0  0  0  0
   -9.1327   19.3969  -32.2847 H   0  0  0  0  0  0  0  0  0  0  0  0
   -6.2967   19.9886  -35.1845 H   0  0  0  0  0  0  0  0  0  0  0  0
   -4.2129   15.8003  -35.6187 H   0  0  0  0  0  0  0  0  0  0  0  0
   -3.7626   13.8989  -34.0624 H   0  0  0  0  0  0  0  0  0  0  0  0
   -5.6969   16.0574  -30.8426 H   0  0  0  0  0  0  0  0  0  0  0  0
   -5.5071   21.7090  -32.8149 H   0  0  0  0  0  0  0  0  0  0  0  0
  1  2  1  0
  2  3  2  0
  2  4  2  0
  2  5  1  0
  5  6  1  0
  6  7  2  0
  7  8  1  0
  8  9  2  0
  9 10  1  0
 10 11  1  0
 11 12  2  0
 12 13  1  0
 13 14  2  0
 14 15  1  0
 15 16  2  0
 16 17  1  0
 17 18  1  0
 17 19  2  0
 19 20  1  0
 20 21  2  0
 10 22  2  0
 22  6  1  0
 21 11  1  0
 20 14  1  0
  1 23  1  0
  1 24  1  0
  1 25  1  0
  5 26  1  0
  7 27  1  0
  8 28  1  0
  9 29  1  0
 12 30  1  0
 15 31  1  0
 16 32  1  0
 19 33  1  0
 22 34  1  0
M  END
>  <UniqueID>  (22) 
22

>  <SMILES>  (22) 
CS(=O)(=O)Nc1cccc(-c2cnc3ccc(Cl)cc3n2)c1

>  <Energy>  (22) 
42.89976177789263

>  <Genealogy>  (22) 
CS(=O)(=O)Nc1cccc(-c2cnc3ccc(Cl)cc3n2)c1 (3D coordinates assigned)
CS(=O)(=O)Nc1cccc(-c2cnc3ccc(Cl)cc3n2)c1 (optimized conformer: 42.89976177789263 kcal/mol)

>  <smiles>  (22) 
CS(=O)(=O)Nc1cccc(-c2cnc3ccc(Cl)cc3n2)c1

>  <score_type>  (22) 
oracle

>  <origin>  (22) 
adgpu

>  <m_score__min__energy>  (22) 
-9.1099999999999994

>  <m_primary>  (22) 
energy

$$$$
22:0
     RDKit          3D

 49 51  0  0  0  0  0  0  0  0999 V2000
   -1.7750   20.0790  -27.5730 C   0  0  0  0  0  0  0  0  0  0  0  0
   -2.2120   21.3460  -28.2490 C   0  0  0  0  0  0  0  0  0  0  0  0
   -2.5200   21.3440  -29.6150 C   0  0  0  0  0  0  0  0  0  0  0  0
   -2.9570   22.5160  -30.2510 C   0  0  0  0  0  0  0  0  0  0  0  0
   -3.2490   22.5010  -31.7270 C   0  0  0  0  0  0  0  0  0  0  0  0
   -3.0780   23.7090  -29.5120 C   0  0  0  0  0  0  0  0  0  0  0  0
   -3.4950   24.9070  -30.1830 N   0  0  0  0  0  0  0  0  0  0  0  0
   -4.8610   25.2330  -30.4660 C   0  0  0  0  0  0  0  0  0  0  0  0
   -5.2300   26.4390  -30.4630 O   0  0  0  0  0  0  0  0  0  0  0  0
   -5.8290   24.1610  -30.7920 C   0  0  0  0  0  0  0  0  0  0  0  0
   -6.2180   23.9310  -32.1250 C   0  0  0  0  0  0  0  0  0  0  0  0
   -7.1290   22.9170  -32.4330 C   0  0  0  0  0  0  0  0  0  0  0  0
   -7.6640   22.1140  -31.4170 C   0  0  0  0  0  0  0  0  0  0  0  0
   -8.7960   20.8190  -31.8110 S   0  0  0  0  0  0  0  0  0  0  0  0
   -9.1280   20.0560  -30.5580 O   0  0  0  0  0  0  0  0  0  0  0  0
  -10.0700   21.4190  -32.3360 O   0  0  0  0  0  0  0  0  0  0  0  0
   -8.1430   19.7150  -33.0040 N   0  0  0  0  0  0  0  0  0  0  0  0
   -6.7510   20.0440  -33.3260 C   0  0  0  0  0  0  0  0  0  0  0  0
   -5.8420   19.1270  -32.5200 C   0  0  0  0  0  0  0  0  0  0  0  0
   -6.7350   18.0230  -31.9900 C   0  0  0  0  0  0  0  0  0  0  0  0
   -8.1330   18.3370  -32.5020 C   0  0  0  0  0  0  0  0  0  0  0  0
   -7.2890   22.3450  -30.0870 C   0  0  0  0  0  0  0  0  0  0  0  0
   -6.3780   23.3580  -29.7760 C   0  0  0  0  0  0  0  0  0  0  0  0
   -2.8370   23.6990  -28.1160 C   0  0  0  0  0  0  0  0  0  0  0  0
   -3.0460   24.9220  -27.2650 C   0  0  0  0  0  0  0  0  0  0  0  0
   -2.3880   22.5180  -27.5030 C   0  0  0  0  0  0  0  0  0  0  0  0
   -1.8205   20.2110  -26.4819 H   0  0  0  0  0  0  0  0  0  0  0  0
   -2.4412   19.2559  -27.8709 H   0  0  0  0  0  0  0  0  0  0  0  0
   -0.7431   19.8416  -27.8709 H   0  0  0  0  0  0  0  0  0  0  0  0
   -2.4184   20.4149  -30.1950 H   0  0  0  0  0  0  0  0  0  0  0  0
   -4.3361   22.4451  -31.8851 H   0  0  0  0  0  0  0  0  0  0  0  0
   -2.8582   23.4204  -32.1874 H   0  0  0  0  0  0  0  0  0  0  0  0
   -2.7661   21.6265  -32.1874 H   0  0  0  0  0  0  0  0  0  0  0  0
   -5.8018   24.5541  -32.9304 H   0  0  0  0  0  0  0  0  0  0  0  0
   -7.4275   22.7484  -33.4782 H   0  0  0  0  0  0  0  0  0  0  0  0
   -6.5726   19.8928  -34.4009 H   0  0  0  0  0  0  0  0  0  0  0  0
   -6.5438   21.0953  -33.0774 H   0  0  0  0  0  0  0  0  0  0  0  0
   -5.0541   18.7072  -33.1627 H   0  0  0  0  0  0  0  0  0  0  0  0
   -5.3403   19.6687  -31.7046 H   0  0  0  0  0  0  0  0  0  0  0  0
   -6.3999   17.0454  -32.3669 H   0  0  0  0  0  0  0  0  0  0  0  0
   -6.7084   17.9738  -30.8914 H   0  0  0  0  0  0  0  0  0  0  0  0
   -8.3956   17.6436  -33.3146 H   0  0  0  0  0  0  0  0  0  0  0  0
   -8.8670   18.2249  -31.6904 H   0  0  0  0  0  0  0  0  0  0  0  0
   -7.7139   21.7257  -29.2833 H   0  0  0  0  0  0  0  0  0  0  0  0
   -6.0880   23.5287  -28.7287 H   0  0  0  0  0  0  0  0  0  0  0  0
   -2.9981   24.6418  -26.2024 H   0  0  0  0  0  0  0  0  0  0  0  0
   -2.2610   25.6605  -27.4852 H   0  0  0  0  0  0  0  0  0  0  0  0
   -4.0317   25.3579  -27.4852 H   0  0  0  0  0  0  0  0  0  0  0  0
   -2.1721   22.5135  -26.4244 H   0  0  0  0  0  0  0  0  0  0  0  0
  1  2  1  0
  2  3  2  0
  3  4  1  0
  4  5  1  0
  4  6  2  0
  6  7  1  0
  7  8  1  0
  8  9  2  0
  8 10  1  0
 10 11  2  0
 11 12  1  0
 12 13  2  0
 13 14  1  0
 14 15  2  0
 14 16  2  0
 14 17  1  0
 17 18  1  0
 18 19  1  0
 19 20  1  0
 20 21  1  0
 13 22  1  0
 22 23  2  0
  6 24  1  0
 24 25  1  0
 24 26  2  0
 26  2  1  0
 23 10  1  0
 21 17  1  0
  1 27  1  0
  1 28  1  0
  1 29  1  0
  3 30  1  0
  5 31  1  0
  5 32  1  0
  5 33  1  0
 11 34  1  0
 12 35  1  0
 18 36  1  0
 18 37  1  0
 19 38  1  0
 19 39  1  0
 20 40  1  0
 20 41  1  0
 21 42  1  0
 21 43  1  0
 22 44  1  0
 23 45  1  0
 25 46  1  0
 25 47  1  0
 25 48  1  0
 26 49  1  0
M  CHG  1   7  -1
M  END
>  <UniqueID>  (23) 
23

>  <SMILES>  (23) 
Cc1cc(C)c([N-]C(=O)c2ccc(S(=O)(=O)N3CCCC3)cc2)c(C)c1

>  <Energy>  (23) 
56.46803889813476

>  <Genealogy>  (23) 
Cc1cc(C)c([N-]C(=O)c2ccc(S(=O)(=O)N3CCCC3)cc2)c(C)c1 (protonated)
Cc1cc(C)c([N-]C(=O)c2ccc(S(=O)(=O)N3CCCC3)cc2)c(C)c1 (3D coordinates assigned)
Cc1cc(C)c([N-]C(=O)c2ccc(S(=O)(=O)N3CCCC3)cc2)c(C)c1 (nonaromatic ring conformer: 56.46803889813476 kcal/mol)

>  <smiles>  (23) 
Cc1cc(C)c(NC(=O)c2ccc(S(=O)(=O)N3CCCC3)cc2)c(C)c1

>  <score_type>  (23) 
oracle

>  <origin>  (23) 
adgpu

>  <m_score__min__energy>  (23) 
-11.23

>  <m_primary>  (23) 
energy

$$$$
23:0
     RDKit          3D

 32 34  0  0  0  0  0  0  0  0999 V2000
   -5.4890   14.4930  -33.4040 C   0  0  0  0  0  0  0  0  0  0  0  0
   -6.4500   15.0940  -34.2210 C   0  0  0  0  0  0  0  0  0  0  0  0
   -6.8500   16.4110  -33.9800 C   0  0  0  0  0  0  0  0  0  0  0  0
   -6.2920   17.1420  -32.9130 C   0  0  0  0  0  0  0  0  0  0  0  0
   -6.7160   18.5420  -32.6540 C   0  0  0  0  0  0  0  0  0  0  0  0
   -7.9790   18.8160  -32.0970 C   0  0  0  0  0  0  0  0  0  0  0  0
   -8.3790   20.1330  -31.8550 C   0  0  0  0  0  0  0  0  0  0  0  0
   -7.5200   21.1990  -32.1540 C   0  0  0  0  0  0  0  0  0  0  0  0
   -7.9680   22.6180  -31.9350 C   0  0  0  0  0  0  0  0  0  0  0  0
   -6.8800   23.3980  -31.3530 N   0  0  0  0  0  0  0  0  0  0  0  0
   -6.8260   23.9080  -30.1120 C   0  0  0  0  0  0  0  0  0  0  0  0
   -5.6640   24.6410  -30.0090 C   0  0  0  0  0  0  0  0  0  0  0  0
   -4.9980   24.6020  -31.1820 N   0  0  0  0  0  0  0  0  0  0  0  0
   -5.7730   23.8390  -31.9810 C   0  0  0  0  0  0  0  0  0  0  0  0
   -6.2650   20.9350  -32.7230 C   0  0  0  0  0  0  0  0  0  0  0  0
   -5.8650   19.6170  -32.9670 C   0  0  0  0  0  0  0  0  0  0  0  0
   -5.3260   16.5250  -32.0970 C   0  0  0  0  0  0  0  0  0  0  0  0
   -4.9290   15.2070  -32.3430 C   0  0  0  0  0  0  0  0  0  0  0  0
   -5.1736   13.4570  -33.5968 H   0  0  0  0  0  0  0  0  0  0  0  0
   -6.8923   14.5296  -35.0551 H   0  0  0  0  0  0  0  0  0  0  0  0
   -7.6054   16.8799  -34.6276 H   0  0  0  0  0  0  0  0  0  0  0  0
   -8.6574   17.9861  -31.8499 H   0  0  0  0  0  0  0  0  0  0  0  0
   -9.3726   20.3337  -31.4279 H   0  0  0  0  0  0  0  0  0  0  0  0
   -8.2598   23.0612  -32.8985 H   0  0  0  0  0  0  0  0  0  0  0  0
   -8.8267   22.6248  -31.2475 H   0  0  0  0  0  0  0  0  0  0  0  0
   -7.5754   23.7660  -29.3194 H   0  0  0  0  0  0  0  0  0  0  0  0
   -5.3301   25.1764  -29.1080 H   0  0  0  0  0  0  0  0  0  0  0  0
   -5.5282   23.6037  -33.0273 H   0  0  0  0  0  0  0  0  0  0  0  0
   -5.5930   21.7677  -32.9782 H   0  0  0  0  0  0  0  0  0  0  0  0
   -4.8765   19.4197  -33.4074 H   0  0  0  0  0  0  0  0  0  0  0  0
   -4.8803   17.0829  -31.2603 H   0  0  0  0  0  0  0  0  0  0  0  0
   -4.1741   14.7318  -31.6993 H   0  0  0  0  0  0  0  0  0  0  0  0
  1  2  2  0
  2  3  1  0
  3  4  2  0
  4  5  1  0
  5  6  2  0
  6  7  1  0
  7  8  2  0
  8  9  1  0
  9 10  1  0
 10 11  1  0
 11 12  2  0
 12 13  1  0
 13 14  2  0
  8 15  1  0
 15 16  2  0
  4 17  1  0
 17 18  2  0
 18  1  1  0
 16  5  1  0
 14 10  1  0
  1 19  1  0
  2 20  1  0
  3 21  1  0
  6 22  1  0
  7 23  1  0
  9 24  1  0
  9 25  1  0
 11 26  1  0
 12 27  1  0
 14 28  1  0
 15 29  1  0
 16 30  1  0
 17 31  1  0
 18 32  1  0
M  END
>  <UniqueID>  (24) 
24

>  <SMILES>  (24) 
c1ccc(-c2ccc(Cn3ccnc3)cc2)cc1

>  <Energy>  (24) 
67.16226958275502

>  <Genealogy>  (24) 
c1ccc(-c2ccc(Cn3ccnc3)cc2)cc1 (3D coordinates assigned)
c1ccc(-c2ccc(Cn3ccnc3)cc2)cc1 (optimized conformer: 67.16226958275502 kcal/mol)

>  <smiles>  (24) 
c1ccc(-c2ccc(Cn3ccnc3)cc2)cc1

>  <score_type>  (24) 
oracle

>  <origin>  (24) 
adgpu

>  <m_score__min__energy>  (24) 
-7.2000000000000002

>  <m_primary>  (24) 
energy

$$$$
24:0
     RDKit          3D

 31 32  0  0  0  0  0  0  0  0999 V2000
   -4.1840   22.5590  -32.3080 O   0  0  0  0  0  0  0  0  0  0  0  0
   -5.1810   23.2210  -31.9090 C   0  0  0  0  0  0  0  0  0  0  0  0
   -4.9990   24.5600  -31.4350 N   0  0  0  0  0  0  0  0  0  0  0  0
   -4.5450   24.8660  -30.0850 C   0  0  0  0  0  0  0  0  0  0  0  0
   -3.1390   24.3070  -29.8790 C   0  0  0  0  0  0  0  0  0  0  0  0
   -2.2790   25.2990  -29.2410 N   0  0  0  0  0  0  0  0  0  0  0  0
   -1.1370   25.0460  -28.4080 C   0  0  0  0  0  0  0  0  0  0  0  0
   -0.1000   24.5750  -28.9460 O   0  0  0  0  0  0  0  0  0  0  0  0
   -1.1290   25.3020  -26.9520 C   0  0  0  0  0  0  0  0  0  0  0  0
   -1.5850   26.4570  -26.3420 C   0  0  0  0  0  0  0  0  0  0  0  0
   -1.3870   26.2720  -24.9910 C   0  0  0  0  0  0  0  0  0  0  0  0
   -0.8220   25.0220  -24.8560 C   0  0  0  0  0  0  0  0  0  0  0  0
   -0.6790   24.4710  -26.0400 O   0  0  0  0  0  0  0  0  0  0  0  0
   -6.5340   22.6160  -31.9320 C   0  0  0  0  0  0  0  0  0  0  0  0
   -7.6820   23.4300  -31.9350 C   0  0  0  0  0  0  0  0  0  0  0  0
   -8.9570   22.8550  -31.9580 C   0  0  0  0  0  0  0  0  0  0  0  0
   -9.1010   21.4660  -31.9780 C   0  0  0  0  0  0  0  0  0  0  0  0
   -7.9680   20.6460  -31.9760 C   0  0  0  0  0  0  0  0  0  0  0  0
   -8.1510   18.9030  -32.0020 Cl  0  0  0  0  0  0  0  0  0  0  0  0
   -6.6910   21.2170  -31.9530 C   0  0  0  0  0  0  0  0  0  0  0  0
   -4.5301   25.9566  -29.9421 H   0  0  0  0  0  0  0  0  0  0  0  0
   -5.2306   24.4088  -29.3563 H   0  0  0  0  0  0  0  0  0  0  0  0
   -3.1955   23.4134  -29.2401 H   0  0  0  0  0  0  0  0  0  0  0  0
   -2.7137   24.0479  -30.8598 H   0  0  0  0  0  0  0  0  0  0  0  0
   -2.0167   27.3410  -26.8342 H   0  0  0  0  0  0  0  0  0  0  0  0
   -1.6305   26.9786  -24.1839 H   0  0  0  0  0  0  0  0  0  0  0  0
   -0.5345   24.5565  -23.9017 H   0  0  0  0  0  0  0  0  0  0  0  0
   -7.5761   24.5248  -31.9192 H   0  0  0  0  0  0  0  0  0  0  0  0
   -9.8489   23.4988  -31.9603 H   0  0  0  0  0  0  0  0  0  0  0  0
  -10.1051   21.0171  -31.9953 H   0  0  0  0  0  0  0  0  0  0  0  0
   -5.8029   20.5680  -31.9513 H   0  0  0  0  0  0  0  0  0  0  0  0
  1  2  2  0
  2  3  1  0
  3  4  1  0
  4  5  1  0
  5  6  1  0
  6  7  1  0
  7  8  2  0
  7  9  1  0
  9 10  2  0
 10 11  1  0
 11 12  2  0
 12 13  1  0
  2 14  1  0
 14 15  2  0
 15 16  1  0
 16 17  2  0
 17 18  1  0
 18 19  1  0
 18 20  2  0
 13  9  1  0
 20 14  1  0
  4 21  1  0
  4 22  1  0
  5 23  1  0
  5 24  1  0
 10 25  1  0
 11 26  1  0
 12 27  1  0
 15 28  1  0
 16 29  1  0
 17 30  1  0
 20 31  1  0
M  CHG  2   3  -1   6  -1
M  END
>  <UniqueID>  (25) 
25

>  <SMILES>  (25) 
O=C([N-]CC[N-]C(=O)c1ccco1)c1cccc(Cl)c1

>  <Energy>  (25) 
52.950469503196466

>  <Genealogy>  (25) 
O=C([N-]CC[N-]C(=O)c1ccco1)c1cccc(Cl)c1 (protonated)
O=C([N-]CC[N-]C(=O)c1ccco1)c1cccc(Cl)c1 (3D coordinates assigned)
O=C([N-]CC[N-]C(=O)c1ccco1)c1cccc(Cl)c1 (optimized conformer: 52.950469503196466 kcal/mol)

>  <smiles>  (25) 
O=C(NCCNC(=O)c1ccco1)c1cccc(Cl)c1

>  <score_type>  (25) 
oracle

>  <origin>  (25) 
adgpu

>  <m_score__min__energy>  (25) 
-10.289999999999999

>  <m_primary>  (25) 
energy

$$$$
25:0
     RDKit          3D

 37 38  0  0  0  0  0  0  0  0999 V2000
   -4.2350   21.8790  -32.5130 C   0  0  0  0  0  0  0  0  0  0  0  0
   -5.6620   21.9960  -32.0420 C   0  0  0  0  0  0  0  0  0  0  0  0
   -6.6490   21.2370  -32.6960 C   0  0  0  0  0  0  0  0  0  0  0  0
   -7.9780   21.2800  -32.2710 C   0  0  0  0  0  0  0  0  0  0  0  0
   -8.3400   22.0810  -31.1900 C   0  0  0  0  0  0  0  0  0  0  0  0
   -7.3780   22.8580  -30.5400 C   0  0  0  0  0  0  0  0  0  0  0  0
   -6.0400   22.8440  -30.9700 C   0  0  0  0  0  0  0  0  0  0  0  0
   -5.0720   23.7100  -30.2660 C   0  0  0  0  0  0  0  0  0  0  0  0
   -4.6200   24.7270  -30.8580 O   0  0  0  0  0  0  0  0  0  0  0  0
   -4.6460   23.3910  -28.9300 N   0  0  0  0  0  0  0  0  0  0  0  0
   -3.7140   24.1790  -28.1710 C   0  0  0  0  0  0  0  0  0  0  0  0
   -2.4580   24.5300  -28.6890 C   0  0  0  0  0  0  0  0  0  0  0  0
   -1.5590   25.2770  -27.9220 C   0  0  0  0  0  0  0  0  0  0  0  0
   -1.8890   25.6800  -26.6100 C   0  0  0  0  0  0  0  0  0  0  0  0
   -0.9570   26.4570  -25.8130 N   0  0  0  0  0  0  0  0  0  0  0  0
   -0.8860   26.2720  -24.3570 C   0  0  0  0  0  0  0  0  0  0  0  0
   -0.0720   27.4430  -26.4450 C   0  0  0  0  0  0  0  0  0  0  0  0
   -3.1430   25.2990  -26.0920 C   0  0  0  0  0  0  0  0  0  0  0  0
   -4.0380   24.5510  -26.8610 C   0  0  0  0  0  0  0  0  0  0  0  0
   -3.5649   21.8241  -31.6424 H   0  0  0  0  0  0  0  0  0  0  0  0
   -4.1227   20.9686  -33.1202 H   0  0  0  0  0  0  0  0  0  0  0  0
   -3.9760   22.7589  -33.1202 H   0  0  0  0  0  0  0  0  0  0  0  0
   -6.3710   20.6031  -33.5509 H   0  0  0  0  0  0  0  0  0  0  0  0
   -8.7404   20.6807  -32.7902 H   0  0  0  0  0  0  0  0  0  0  0  0
   -9.3852   22.1016  -30.8477 H   0  0  0  0  0  0  0  0  0  0  0  0
   -7.6700   23.4856  -29.6851 H   0  0  0  0  0  0  0  0  0  0  0  0
   -5.0920   22.5780  -28.4490 H   0  0  0  0  0  0  0  0  0  0  0  0
   -2.1789   24.2153  -29.7054 H   0  0  0  0  0  0  0  0  0  0  0  0
   -0.5826   25.5541  -28.3461 H   0  0  0  0  0  0  0  0  0  0  0  0
   -1.2365   27.1852  -23.8538 H   0  0  0  0  0  0  0  0  0  0  0  0
   -1.5227   25.4243  -24.0636 H   0  0  0  0  0  0  0  0  0  0  0  0
    0.1543   26.0679  -24.0636 H   0  0  0  0  0  0  0  0  0  0  0  0
    0.4473   28.0216  -25.6668 H   0  0  0  0  0  0  0  0  0  0  0  0
    0.6683   26.9232  -27.0709 H   0  0  0  0  0  0  0  0  0  0  0  0
   -0.6685   28.1231  -27.0709 H   0  0  0  0  0  0  0  0  0  0  0  0
   -3.4206   25.5942  -25.0694 H   0  0  0  0  0  0  0  0  0  0  0  0
   -5.0061   24.2517  -26.4331 H   0  0  0  0  0  0  0  0  0  0  0  0
  1  2  1  0
  2  3  2  0
  3  4  1  0
  4  5  2  0
  5  6  1  0
  6  7  2  0
  7  8  1  0
  8  9  2  0
  8 10  1  0
 10 11  1  0
 11 12  2  0
 12 13  1  0
 13 14  2  0
 14 15  1  0
 15 16  1  0
 15 17  1  0
 14 18  1  0
 18 19  2  0
  7  2  1  0
 19 11  1  0
  1 20  1  0
  1 21  1  0
  1 22  1  0
  3 23  1  0
  4 24  1  0
  5 25  1  0
  6 26  1  0
 10 27  1  0
 12 28  1  0
 13 29  1  0
 16 30  1  0
 16 31  1  0
 16 32  1  0
 17 33  1  0
 17 34  1  0
 17 35  1  0
 18 36  1  0
 19 37  1  0
M  END
>  <UniqueID>  (26) 
26

>  <SMILES>  (26) 
Cc1ccccc1C(=O)Nc1ccc(N(C)C)cc1

>  <Energy>  (26) 
48.51834955266639

>  <Genealogy>  (26) 
Cc1ccccc1C(=O)Nc1ccc(N(C)C)cc1 (3D coordinates assigned)
Cc1ccccc1C(=O)Nc1ccc(N(C)C)cc1 (optimized conformer: 48.51834955266639 kcal/mol)

>  <smiles>  (26) 
Cc1ccccc1C(=O)Nc1ccc(N(C)C)cc1

>  <score_type>  (26) 
oracle

>  <origin>  (26) 
adgpu

>  <m_score__min__energy>  (26) 
-7.0800000000000001

>  <m_primary>  (26) 
energy

$$$$
26:0
     RDKit          3D

 48 51  0  0  0  0  0  0  0  0999 V2000
   -5.1220   25.4670  -31.1620 O   0  0  0  0  0  0  0  0  0  0  0  0
   -4.9750   24.2160  -31.2000 C   0  0  0  0  0  0  0  0  0  0  0  0
   -3.6880   23.6360  -30.9620 N   0  0  0  0  0  0  0  0  0  0  0  0
   -3.4250   22.6530  -29.9180 C   0  0  0  0  0  0  0  0  0  0  0  0
   -2.5650   23.2550  -28.8340 C   0  0  0  0  0  0  0  0  0  0  0  0
   -2.2180   24.6170  -28.9000 C   0  0  0  0  0  0  0  0  0  0  0  0
   -1.4370   25.1980  -27.8970 C   0  0  0  0  0  0  0  0  0  0  0  0
   -0.9990   24.4290  -26.8180 C   0  0  0  0  0  0  0  0  0  0  0  0
   -1.3400   23.0770  -26.7380 C   0  0  0  0  0  0  0  0  0  0  0  0
   -2.1220   22.4830  -27.7370 C   0  0  0  0  0  0  0  0  0  0  0  0
   -2.5290   20.7780  -27.5800 Cl  0  0  0  0  0  0  0  0  0  0  0  0
   -6.1220   23.3360  -31.4840 C   0  0  0  0  0  0  0  0  0  0  0  0
   -7.4420   23.7830  -31.3240 C   0  0  0  0  0  0  0  0  0  0  0  0
   -8.4970   22.9080  -31.5880 C   0  0  0  0  0  0  0  0  0  0  0  0
   -8.2340   21.6040  -32.0110 C   0  0  0  0  0  0  0  0  0  0  0  0
   -6.9020   21.1840  -32.1740 C   0  0  0  0  0  0  0  0  0  0  0  0
   -6.5640   19.8060  -32.6160 C   0  0  0  0  0  0  0  0  0  0  0  0
   -6.0840   19.5470  -33.9140 C   0  0  0  0  0  0  0  0  0  0  0  0
   -5.7660   18.2430  -34.3070 C   0  0  0  0  0  0  0  0  0  0  0  0
   -5.9220   17.1740  -33.4090 C   0  0  0  0  0  0  0  0  0  0  0  0
   -5.5980   15.8560  -33.7620 O   0  0  0  0  0  0  0  0  0  0  0  0
   -4.5950   15.0780  -33.1650 C   0  0  0  0  0  0  0  0  0  0  0  0
   -4.9700   13.9780  -32.3850 C   0  0  0  0  0  0  0  0  0  0  0  0
   -3.9980   13.1720  -31.7840 C   0  0  0  0  0  0  0  0  0  0  0  0
   -2.6400   13.4540  -31.9700 C   0  0  0  0  0  0  0  0  0  0  0  0
   -1.4210   12.4410  -31.2200 Cl  0  0  0  0  0  0  0  0  0  0  0  0
   -2.2570   14.5390  -32.7660 C   0  0  0  0  0  0  0  0  0  0  0  0
   -3.2290   15.3460  -33.3670 C   0  0  0  0  0  0  0  0  0  0  0  0
   -6.3660   17.4320  -32.1090 C   0  0  0  0  0  0  0  0  0  0  0  0
   -6.6880   18.7330  -31.7140 C   0  0  0  0  0  0  0  0  0  0  0  0
   -5.8950   22.0610  -31.9000 N   0  0  0  0  0  0  0  0  0  0  0  0
   -4.3795   22.3229  -29.4821 H   0  0  0  0  0  0  0  0  0  0  0  0
   -2.8950   21.7962  -30.3596 H   0  0  0  0  0  0  0  0  0  0  0  0
   -2.5636   25.2285  -29.7465 H   0  0  0  0  0  0  0  0  0  0  0  0
   -1.1673   26.2627  -27.9582 H   0  0  0  0  0  0  0  0  0  0  0  0
   -0.3845   24.8882  -26.0296 H   0  0  0  0  0  0  0  0  0  0  0  0
   -0.9924   22.4750  -25.8855 H   0  0  0  0  0  0  0  0  0  0  0  0
   -7.6437   24.8127  -30.9938 H   0  0  0  0  0  0  0  0  0  0  0  0
   -9.5362   23.2462  -31.4626 H   0  0  0  0  0  0  0  0  0  0  0  0
   -9.0627   20.9101  -32.2153 H   0  0  0  0  0  0  0  0  0  0  0  0
   -5.9581   20.3770  -34.6248 H   0  0  0  0  0  0  0  0  0  0  0  0
   -5.3920   18.0536  -35.3240 H   0  0  0  0  0  0  0  0  0  0  0  0
   -6.0360   13.7460  -32.2438 H   0  0  0  0  0  0  0  0  0  0  0  0
   -4.3013   12.3153  -31.1643 H   0  0  0  0  0  0  0  0  0  0  0  0
   -1.1900   14.7579  -32.9195 H   0  0  0  0  0  0  0  0  0  0  0  0
   -2.9241   16.1927  -33.9995 H   0  0  0  0  0  0  0  0  0  0  0  0
   -6.4627   16.6042  -31.3911 H   0  0  0  0  0  0  0  0  0  0  0  0
   -7.0414   18.9201  -30.6893 H   0  0  0  0  0  0  0  0  0  0  0  0
  1  2  2  0
  2  3  1  0
  3  4  1  0
  4  5  1  0
  5  6  2  0
  6  7  1  0
  7  8  2  0
  8  9  1  0
  9 10  2  0
 10 11  1  0
  2 12  1  0
 12 13  2  0
 13 14  1  0
 14 15  2  0
 15 16  1  0
 16 17  1  0
 17 18  2  0
 18 19  1  0
 19 20  2  0
 20 21  1  0
 21 22  1  0
 22 23  2  0
 23 24  1  0
 24 25  2  0
 25 26  1  0
 25 27  1  0
 27 28  2  0
 20 29  1  0
 29 30  2  0
 16 31  2  0
 10  5  1  0
 31 12  1  0
 30 17  1  0
 28 22  1  0
  4 32  1  0
  4 33  1  0
  6 34  1  0
  7 35  1  0
  8 36  1  0
  9 37  1  0
 13 38  1  0
 14 39  1  0
 15 40  1  0
 18 41  1  0
 19 42  1  0
 23 43  1  0
 24 44  1  0
 27 45  1  0
 28 46  1  0
 29 47  1  0
 30 48  1  0
M  CHG  1   3  -1
M  END
>  <UniqueID>  (27) 
27

>  <SMILES>  (27) 
O=C([N-]Cc1ccccc1Cl)c1cccc(-c2ccc(Oc3ccc(Cl)cc3)cc2)n1

>  <Energy>  (27) 
62.14933955634632

>  <Genealogy>  (27) 
O=C([N-]Cc1ccccc1Cl)c1cccc(-c2ccc(Oc3ccc(Cl)cc3)cc2)n1 (protonated)
O=C([N-]Cc1ccccc1Cl)c1cccc(-c2ccc(Oc3ccc(Cl)cc3)cc2)n1 (3D coordinates assigned)
O=C([N-]Cc1ccccc1Cl)c1cccc(-c2ccc(Oc3ccc(Cl)cc3)cc2)n1 (optimized conformer: 62.14933955634632 kcal/mol)

>  <smiles>  (27) 
O=C(NCc1ccccc1Cl)c1cccc(-c2ccc(Oc3ccc(Cl)cc3)cc2)n1

>  <score_type>  (27) 
oracle

>  <origin>  (27) 
adgpu

>  <m_score__min__energy>  (27) 
-10.94

>  <m_primary>  (27) 
energy

$$$$
27:0
     RDKit          3D

 37 39  0  0  0  0  0  0  0  0999 V2000
    0.3900   26.3420  -28.5270 H   0  0  0  0  0  0  0  0  0  0  0  0
    0.2950   25.3620  -28.1800 N   0  0  0  0  0  0  0  0  0  0  0  0
   -0.7040   24.6090  -28.5160 C   0  0  0  0  0  0  0  0  0  0  0  0
   -0.7760   23.3430  -28.0330 N   0  0  0  0  0  0  0  0  0  0  0  0
   -1.8120   22.5320  -28.3710 C   0  0  0  0  0  0  0  0  0  0  0  0
   -1.8920   21.1490  -27.8390 C   0  0  0  0  0  0  0  0  0  0  0  0
   -3.1160   20.6210  -27.3920 C   0  0  0  0  0  0  0  0  0  0  0  0
   -4.0290   21.2332  -27.4320 H   0  0  0  0  0  0  0  0  0  0  0  0
   -3.1680   19.3160  -26.8970 C   0  0  0  0  0  0  0  0  0  0  0  0
   -4.1241   18.9000  -26.5467 H   0  0  0  0  0  0  0  0  0  0  0  0
   -2.0410   18.5590  -26.8470 N   0  0  0  0  0  0  0  0  0  0  0  0
   -0.8430   19.0390  -27.2710 C   0  0  0  0  0  0  0  0  0  0  0  0
    0.0525   18.4022  -27.2189 H   0  0  0  0  0  0  0  0  0  0  0  0
   -0.7450   20.3390  -27.7730 C   0  0  0  0  0  0  0  0  0  0  0  0
    0.2257   20.7272  -28.1152 H   0  0  0  0  0  0  0  0  0  0  0  0
   -2.7790   23.0020  -29.2000 N   0  0  0  0  0  0  0  0  0  0  0  0
   -2.7240   24.2710  -29.6830 C   0  0  0  0  0  0  0  0  0  0  0  0
   -3.6500   24.7190  -30.4810 N   0  0  0  0  0  0  0  0  0  0  0  0
   -4.8050   23.9640  -30.8840 C   0  0  0  0  0  0  0  0  0  0  0  0
   -6.0840   24.3840  -30.4580 C   0  0  0  0  0  0  0  0  0  0  0  0
   -6.2380   25.6150  -29.6080 C   0  0  0  0  0  0  0  0  0  0  0  0
   -6.2028   25.3335  -28.5452 H   0  0  0  0  0  0  0  0  0  0  0  0
   -5.4207   26.3175  -29.8285 H   0  0  0  0  0  0  0  0  0  0  0  0
   -7.2031   26.0945  -29.8285 H   0  0  0  0  0  0  0  0  0  0  0  0
   -7.2210   23.6740  -30.8720 C   0  0  0  0  0  0  0  0  0  0  0  0
   -8.2197   24.0078  -30.5539 H   0  0  0  0  0  0  0  0  0  0  0  0
   -7.0930   22.5480  -31.6840 C   0  0  0  0  0  0  0  0  0  0  0  0
   -7.9910   22.0042  -32.0125 H   0  0  0  0  0  0  0  0  0  0  0  0
   -5.8310   22.1090  -32.0810 C   0  0  0  0  0  0  0  0  0  0  0  0
   -5.7396   21.2197  -32.7219 H   0  0  0  0  0  0  0  0  0  0  0  0
   -4.6760   22.7920  -31.6700 C   0  0  0  0  0  0  0  0  0  0  0  0
   -3.3310   22.2750  -32.1040 C   0  0  0  0  0  0  0  0  0  0  0  0
   -2.7241   22.0417  -31.2167 H   0  0  0  0  0  0  0  0  0  0  0  0
   -3.4651   21.3643  -32.7063 H   0  0  0  0  0  0  0  0  0  0  0  0
   -2.8206   23.0410  -32.7063 H   0  0  0  0  0  0  0  0  0  0  0  0
   -1.6800   25.0750  -29.3440 N   0  0  0  0  0  0  0  0  0  0  0  0
   -1.6320   26.0500  -29.7210 H   0  0  0  0  0  0  0  0  0  0  0  0
  1  2  1  0
  2  3  2  0
  3  4  1  0
  4  5  2  0
  5  6  1  0
  6  7  2  0
  7  8  1  0
  7  9  1  0
  9 10  1  0
  9 11  2  0
 11 12  1  0
 12 13  1  0
 12 14  2  0
 14 15  1  0
  5 16  1  0
 16 17  1  0
 17 18  2  0
 18 19  1  0
 19 20  2  0
 20 21  1  0
 21 22  1  0
 21 23  1  0
 21 24  1  0
 20 25  1  0
 25 26  1  0
 25 27  2  0
 27 28  1  0
 27 29  1  0
 29 30  1  0
 29 31  2  0
 31 32  1  0
 32 33  1  0
 32 34  1  0
 32 35  1  0
 17 36  1  0
 36 37  1  0
 36  3  1  0
 14  6  1  0
 31 19  1  0
M  CHG  1  16  -1
M  END
>  <UniqueID>  (28) 
28

>  <SMILES>  (28) 
[H]/N=c1/nc(-c2ccncc2)[n-]/c(=N\c2c(C)cccc2C)[nH]1

>  <Energy>  (28) 
49.87890853076024

>  <Genealogy>  (28) 
Cc1cccc(C)c1N=c1[n-]c(-c2ccncc2)nc(=N)[nH]1 (protonated)
[H]/N=c1/nc(-c2ccncc2)[n-]/c(=N\c2c(C)cccc2C)[nH]1 (cis-trans isomerization)
[H]/N=c1/nc(-c2ccncc2)[n-]/c(=N\c2c(C)cccc2C)[nH]1 (3D coordinates assigned)
[H]/N=c1/nc(-c2ccncc2)[n-]/c(=N\c2c(C)cccc2C)[nH]1 (optimized conformer: 49.87890853076024 kcal/mol)

>  <smiles>  (28) 
Cc1cccc(C)c1N=c1[nH]c(-c2ccncc2)nc(=N)[nH]1

>  <score_type>  (28) 
oracle

>  <origin>  (28) 
adgpu

>  <m_score__min__energy>  (28) 
-9.8300000000000001

>  <m_primary>  (28) 
energy

$$$$
28:0
     RDKit          3D

 39 42  0  0  0  0  0  0  0  0999 V2000
   -3.3080   21.6510  -29.1870 H   0  0  0  0  0  0  0  0  0  0  0  0
   -4.1100   21.9620  -29.7770 N   0  0  0  0  0  0  0  0  0  0  0  0
   -4.2330   23.1730  -30.2270 C   0  0  0  0  0  0  0  0  0  0  0  0
   -5.3120   23.6490  -30.9500 C   0  0  0  0  0  0  0  0  0  0  0  0
   -6.4960   22.8960  -31.4220 C   0  0  0  0  0  0  0  0  0  0  0  0
   -6.3220   21.7130  -32.0710 N   0  0  0  0  0  0  0  0  0  0  0  0
   -7.3760   20.9870  -32.5350 C   0  0  0  0  0  0  0  0  0  0  0  0
   -7.1960   19.8460  -33.1360 N   0  0  0  0  0  0  0  0  0  0  0  0
   -5.9360   19.2430  -33.4760 C   0  0  0  0  0  0  0  0  0  0  0  0
   -5.9240   17.9190  -33.9350 C   0  0  0  0  0  0  0  0  0  0  0  0
   -6.8676   17.3588  -34.0119 H   0  0  0  0  0  0  0  0  0  0  0  0
   -4.7200   17.3050  -34.2960 C   0  0  0  0  0  0  0  0  0  0  0  0
   -4.7180   16.2605  -34.6410 H   0  0  0  0  0  0  0  0  0  0  0  0
   -3.5210   18.0160  -34.2190 C   0  0  0  0  0  0  0  0  0  0  0  0
   -2.3550   17.4210  -34.5710 F   0  0  0  0  0  0  0  0  0  0  0  0
   -3.5250   19.3480  -33.7940 C   0  0  0  0  0  0  0  0  0  0  0  0
   -2.5813   19.9108  -33.7427 H   0  0  0  0  0  0  0  0  0  0  0  0
   -4.7270   19.9660  -33.4340 C   0  0  0  0  0  0  0  0  0  0  0  0
   -4.7287   21.0194  -33.1172 H   0  0  0  0  0  0  0  0  0  0  0  0
   -8.6410   21.4370  -32.3310 N   0  0  0  0  0  0  0  0  0  0  0  0
   -8.8690   22.6110  -31.6880 C   0  0  0  0  0  0  0  0  0  0  0  0
   -9.9003   22.9627  -31.5371 H   0  0  0  0  0  0  0  0  0  0  0  0
   -7.8000   23.3710  -31.2190 C   0  0  0  0  0  0  0  0  0  0  0  0
   -7.9750   24.3248  -30.6997 H   0  0  0  0  0  0  0  0  0  0  0  0
   -5.0370   25.0000  -31.1070 C   0  0  0  0  0  0  0  0  0  0  0  0
   -5.6793   25.7198  -31.6355 H   0  0  0  0  0  0  0  0  0  0  0  0
   -3.8620   25.2970  -30.5130 N   0  0  0  0  0  0  0  0  0  0  0  0
   -3.3700   24.1850  -29.9870 N   0  0  0  0  0  0  0  0  0  0  0  0
   -2.1100   24.1390  -29.2990 C   0  0  0  0  0  0  0  0  0  0  0  0
   -1.3000   22.9970  -29.4010 C   0  0  0  0  0  0  0  0  0  0  0  0
   -1.6219   22.1513  -30.0265 H   0  0  0  0  0  0  0  0  0  0  0  0
   -0.0860   22.9300  -28.7110 C   0  0  0  0  0  0  0  0  0  0  0  0
    0.5500   22.0373  -28.8043 H   0  0  0  0  0  0  0  0  0  0  0  0
    0.3210   23.9950  -27.9030 C   0  0  0  0  0  0  0  0  0  0  0  0
    1.2803   23.9438  -27.3671 H   0  0  0  0  0  0  0  0  0  0  0  0
   -0.4910   25.1250  -27.7760 C   0  0  0  0  0  0  0  0  0  0  0  0
   -0.1050   26.1500  -26.9770 F   0  0  0  0  0  0  0  0  0  0  0  0
   -1.7060   25.1950  -28.4640 C   0  0  0  0  0  0  0  0  0  0  0  0
   -2.3487   26.0805  -28.3513 H   0  0  0  0  0  0  0  0  0  0  0  0
  1  2  1  0
  2  3  2  0
  3  4  1  0
  4  5  1  0
  5  6  2  0
  6  7  1  0
  7  8  2  0
  8  9  1  0
  9 10  2  0
 10 11  1  0
 10 12  1  0
 12 13  1  0
 12 14  2  0
 14 15  1  0
 14 16  1  0
 16 17  1  0
 16 18  2  0
 18 19  1  0
  7 20  1  0
 20 21  1  0
 21 22  1  0
 21 23  2  0
 23 24  1  0
  4 25  2  0
 25 26  1  0
 25 27  1  0
 27 28  1  0
 28 29  1  0
 29 30  2  0
 30 31  1  0
 30 32  1  0
 32 33  1  0
 32 34  2  0
 34 35  1  0
 34 36  1  0
 36 37  1  0
 36 38  2  0
 38 39  1  0
 28  3  1  0
 38 29  1  0
 23  5  1  0
 18  9  1  0
M  CHG  2  20  -1  27  -1
M  END
>  <UniqueID>  (29) 
29

>  <SMILES>  (29) 
[H]/N=c1/c(-c2cc[n-]/c(=N/c3ccc(F)cc3)n2)c[n-]n1-c1cccc(F)c1

>  <Energy>  (29) 
90.39559066002431

>  <Genealogy>  (29) 
N=c1c(-c2cc[n-]c(=Nc3ccc(F)cc3)n2)c[n-]n1-c1cccc(F)c1 (protonated)
[H]/N=c1/c(-c2cc[n-]/c(=N/c3ccc(F)cc3)n2)c[n-]n1-c1cccc(F)c1 (cis-trans isomerization)
[H]/N=c1/c(-c2cc[n-]/c(=N/c3ccc(F)cc3)n2)c[n-]n1-c1cccc(F)c1 (3D coordinates assigned)
[H]/N=c1/c(-c2cc[n-]/c(=N/c3ccc(F)cc3)n2)c[n-]n1-c1cccc(F)c1 (optimized conformer: 90.39559066002431 kcal/mol)

>  <smiles>  (29) 
N=c1c(-c2cc[nH]c(=Nc3ccc(F)cc3)n2)c[nH]n1-c1cccc(F)c1

>  <score_type>  (29) 
oracle

>  <origin>  (29) 
adgpu

>  <m_score__min__energy>  (29) 
-9.8399999999999999

>  <m_primary>  (29) 
energy

$$$$
29:0
     RDKit          3D

 41 43  0  0  0  0  0  0  0  0999 V2000
   -4.1270   25.4670  -30.8480 O   0  0  0  0  0  0  0  0  0  0  0  0
   -4.1970   24.2790  -29.9320 S   0  0  0  0  0  0  0  0  0  0  0  0
   -3.3080   24.5180  -28.7440 O   0  0  0  0  0  0  0  0  0  0  0  0
   -5.8310   24.0700  -29.3810 N   0  0  0  0  0  0  0  0  0  0  0  0
   -6.8230   23.4040  -30.1760 C   0  0  0  0  0  0  0  0  0  0  0  0
   -7.6040   22.3650  -29.6460 C   0  0  0  0  0  0  0  0  0  0  0  0
   -8.4740   21.6450  -30.4660 C   0  0  0  0  0  0  0  0  0  0  0  0
   -8.5840   21.9610  -31.8330 C   0  0  0  0  0  0  0  0  0  0  0  0
   -9.3690   21.2040  -32.7170 O   0  0  0  0  0  0  0  0  0  0  0  0
   -9.4340   19.7770  -32.7290 C   0  0  0  0  0  0  0  0  0  0  0  0
   -8.0540   19.1790  -32.6140 C   0  0  0  0  0  0  0  0  0  0  0  0
   -7.8000   18.1680  -31.6720 C   0  0  0  0  0  0  0  0  0  0  0  0
   -6.5340   17.5780  -31.5970 C   0  0  0  0  0  0  0  0  0  0  0  0
   -5.5120   17.9990  -32.4510 C   0  0  0  0  0  0  0  0  0  0  0  0
   -5.7540   19.0140  -33.3810 C   0  0  0  0  0  0  0  0  0  0  0  0
   -7.0170   19.6060  -33.4610 C   0  0  0  0  0  0  0  0  0  0  0  0
   -7.8700   23.0520  -32.3400 C   0  0  0  0  0  0  0  0  0  0  0  0
   -6.9930   23.7680  -31.5200 C   0  0  0  0  0  0  0  0  0  0  0  0
   -3.6760   22.8460  -30.8200 C   0  0  0  0  0  0  0  0  0  0  0  0
   -2.8440   21.8930  -30.2140 C   0  0  0  0  0  0  0  0  0  0  0  0
   -2.4860   20.7320  -30.9080 C   0  0  0  0  0  0  0  0  0  0  0  0
   -2.9540   20.5200  -32.2070 C   0  0  0  0  0  0  0  0  0  0  0  0
   -3.7810   21.4680  -32.8160 C   0  0  0  0  0  0  0  0  0  0  0  0
   -4.1370   22.6320  -32.1260 C   0  0  0  0  0  0  0  0  0  0  0  0
   -6.1370   24.6460  -28.5650 H   0  0  0  0  0  0  0  0  0  0  0  0
   -7.5298   22.1166  -28.5770 H   0  0  0  0  0  0  0  0  0  0  0  0
   -9.0759   20.8276  -30.0423 H   0  0  0  0  0  0  0  0  0  0  0  0
  -10.0468   19.4364  -31.8814 H   0  0  0  0  0  0  0  0  0  0  0  0
   -9.8822   19.4516  -33.6794 H   0  0  0  0  0  0  0  0  0  0  0  0
   -8.5992   17.8394  -30.9914 H   0  0  0  0  0  0  0  0  0  0  0  0
   -6.3428   16.7806  -30.8638 H   0  0  0  0  0  0  0  0  0  0  0  0
   -4.5177   17.5322  -32.3917 H   0  0  0  0  0  0  0  0  0  0  0  0
   -4.9482   19.3475  -34.0515 H   0  0  0  0  0  0  0  0  0  0  0  0
   -7.2004   20.4093  -34.1897 H   0  0  0  0  0  0  0  0  0  0  0  0
   -7.9996   23.3485  -33.3913 H   0  0  0  0  0  0  0  0  0  0  0  0
   -6.4333   24.6212  -31.9308 H   0  0  0  0  0  0  0  0  0  0  0  0
   -2.4726   22.0586  -29.1919 H   0  0  0  0  0  0  0  0  0  0  0  0
   -1.8351   19.9851  -30.4300 H   0  0  0  0  0  0  0  0  0  0  0  0
   -2.6715   19.6065  -32.7509 H   0  0  0  0  0  0  0  0  0  0  0  0
   -4.1520   21.2990  -33.8377 H   0  0  0  0  0  0  0  0  0  0  0  0
   -4.7806   23.3813  -32.6101 H   0  0  0  0  0  0  0  0  0  0  0  0
  1  2  2  0
  2  3  2  0
  2  4  1  0
  4  5  1  0
  5  6  2  0
  6  7  1  0
  7  8  2  0
  8  9  1  0
  9 10  1  0
 10 11  1  0
 11 12  2  0
 12 13  1  0
 13 14  2  0
 14 15  1  0
 15 16  2  0
  8 17  1  0
 17 18  2  0
  2 19  1  0
 19 20  2  0
 20 21  1  0
 21 22  2  0
 22 23  1  0
 23 24  2  0
 18  5  1  0
 24 19  1  0
 16 11  1  0
  4 25  1  0
  6 26  1  0
  7 27  1  0
 10 28  1  0
 10 29  1  0
 12 30  1  0
 13 31  1  0
 14 32  1  0
 15 33  1  0
 16 34  1  0
 17 35  1  0
 18 36  1  0
 20 37  1  0
 21 38  1  0
 22 39  1  0
 23 40  1  0
 24 41  1  0
M  END
>  <UniqueID>  (30) 
30

>  <SMILES>  (30) 
O=S(=O)(Nc1ccc(OCc2ccccc2)cc1)c1ccccc1

>  <Energy>  (30) 
45.10692325210317

>  <Genealogy>  (30) 
O=S(=O)(Nc1ccc(OCc2ccccc2)cc1)c1ccccc1 (3D coordinates assigned)
O=S(=O)(Nc1ccc(OCc2ccccc2)cc1)c1ccccc1 (optimized conformer: 45.10692325210317 kcal/mol)

>  <smiles>  (30) 
O=S(=O)(Nc1ccc(OCc2ccccc2)cc1)c1ccccc1

>  <score_type>  (30) 
oracle

>  <origin>  (30) 
adgpu

>  <m_score__min__energy>  (30) 
-9.5800000000000001

>  <m_primary>  (30) 
energy

$$$$
30:0
     RDKit          3D

 26 28  0  0  0  0  0  0  0  0999 V2000
   -4.2790   25.6610  -30.8280 O   0  0  0  0  0  0  0  0  0  0  0  0
   -4.2400   24.4130  -30.8270 N   0  0  0  0  0  0  0  0  0  0  0  0
   -3.0690   23.7870  -30.4650 O   0  0  0  0  0  0  0  0  0  0  0  0
   -5.4000   23.6420  -31.1960 C   0  0  0  0  0  0  0  0  0  0  0  0
   -6.6910   24.1730  -31.0360 C   0  0  0  0  0  0  0  0  0  0  0  0
   -7.8120   23.4230  -31.3950 C   0  0  0  0  0  0  0  0  0  0  0  0
   -7.6610   22.1380  -31.9170 C   0  0  0  0  0  0  0  0  0  0  0  0
   -6.3810   21.5820  -32.0870 C   0  0  0  0  0  0  0  0  0  0  0  0
   -6.2410   20.2120  -32.6440 C   0  0  0  0  0  0  0  0  0  0  0  0
   -5.2130   19.7450  -33.4630 C   0  0  0  0  0  0  0  0  0  0  0  0
   -5.4820   18.4610  -33.7290 N   0  0  0  0  0  0  0  0  0  0  0  0
   -4.8070   17.5510  -34.4720 C   0  0  0  0  0  0  0  0  0  0  0  0
   -5.3440   16.2600  -34.5670 C   0  0  0  0  0  0  0  0  0  0  0  0
   -6.5470   15.9750  -33.8910 C   0  0  0  0  0  0  0  0  0  0  0  0
   -7.1770   16.9400  -33.1580 N   0  0  0  0  0  0  0  0  0  0  0  0
   -6.6240   18.1760  -33.0920 C   0  0  0  0  0  0  0  0  0  0  0  0
   -7.1360   19.2170  -32.4090 N   0  0  0  0  0  0  0  0  0  0  0  0
   -5.2540   22.3450  -31.7230 C   0  0  0  0  0  0  0  0  0  0  0  0
   -6.8189   25.1855  -30.6255 H   0  0  0  0  0  0  0  0  0  0  0  0
   -8.8188   23.8468  -31.2658 H   0  0  0  0  0  0  0  0  0  0  0  0
   -8.5507   21.5552  -32.1978 H   0  0  0  0  0  0  0  0  0  0  0  0
   -4.3473   20.3213  -33.8215 H   0  0  0  0  0  0  0  0  0  0  0  0
   -3.8698   17.8164  -34.9831 H   0  0  0  0  0  0  0  0  0  0  0  0
   -4.8359   15.4838  -35.1581 H   0  0  0  0  0  0  0  0  0  0  0  0
   -6.9824   14.9668  -33.9541 H   0  0  0  0  0  0  0  0  0  0  0  0
   -4.2470   21.9217  -31.8523 H   0  0  0  0  0  0  0  0  0  0  0  0
  1  2  2  0
  2  3  1  0
  2  4  1  0
  4  5  2  0
  5  6  1  0
  6  7  2  0
  7  8  1  0
  8  9  1  0
  9 10  2  0
 10 11  1  0
 11 12  1  0
 12 13  2  0
 13 14  1  0
 14 15  2  0
 15 16  1  0
 16 17  2  0
  8 18  2  0
 18  4  1  0
 17  9  1  0
 16 11  1  0
  5 19  1  0
  6 20  1  0
  7 21  1  0
 10 22  1  0
 12 23  1  0
 13 24  1  0
 14 25  1  0
 18 26  1  0
M  CHG  2   2   1   3  -1
M  END
>  <UniqueID>  (31) 
31

>  <SMILES>  (31) 
O=[N+]([O-])c1cccc(-c2cn3cccnc3n2)c1

>  <Energy>  (31) 
67.69143787480255

>  <Genealogy>  (31) 
O=[N+]([O-])c1cccc(-c2cn3cccnc3n2)c1 (3D coordinates assigned)
O=[N+]([O-])c1cccc(-c2cn3cccnc3n2)c1 (optimized conformer: 67.69143787480255 kcal/mol)

>  <smiles>  (31) 
O=[N+]([O-])c1cccc(-c2cn3cccnc3n2)c1

>  <score_type>  (31) 
oracle

>  <origin>  (31) 
adgpu

>  <m_score__min__energy>  (31) 
-7.4299999999999997

>  <m_primary>  (31) 
energy

$$$$
31:0
     RDKit          3D

 29 31  0  0  0  0  0  0  0  0999 V2000
   -5.4940   26.3380  -30.1540 O   0  0  0  0  0  0  0  0  0  0  0  0
   -5.1900   25.2000  -30.5990 C   0  0  0  0  0  0  0  0  0  0  0  0
   -6.1050   24.4920  -31.3810 C   0  0  0  0  0  0  0  0  0  0  0  0
   -5.7580   23.2240  -31.8680 C   0  0  0  0  0  0  0  0  0  0  0  0
   -6.6710   22.5070  -32.7180 N   0  0  0  0  0  0  0  0  0  0  0  0
   -7.2910   21.2610  -32.3550 C   0  0  0  0  0  0  0  0  0  0  0  0
   -8.4610   21.2720  -31.5810 C   0  0  0  0  0  0  0  0  0  0  0  0
   -9.0900   20.0720  -31.2320 C   0  0  0  0  0  0  0  0  0  0  0  0
   -8.5620   18.8520  -31.6630 C   0  0  0  0  0  0  0  0  0  0  0  0
   -7.4070   18.8300  -32.4500 C   0  0  0  0  0  0  0  0  0  0  0  0
   -6.6950   17.1650  -33.0550 Br  0  0  0  0  0  0  0  0  0  0  0  0
   -6.7750   20.0280  -32.8010 C   0  0  0  0  0  0  0  0  0  0  0  0
   -4.4820   22.7060  -31.5620 C   0  0  0  0  0  0  0  0  0  0  0  0
   -4.0550   21.4360  -31.9970 C   0  0  0  0  0  0  0  0  0  0  0  0
   -2.7820   20.9700  -31.6580 C   0  0  0  0  0  0  0  0  0  0  0  0
   -1.9260   21.7550  -30.8820 C   0  0  0  0  0  0  0  0  0  0  0  0
   -2.3410   23.0110  -30.4350 C   0  0  0  0  0  0  0  0  0  0  0  0
   -3.6130   23.4910  -30.7650 C   0  0  0  0  0  0  0  0  0  0  0  0
   -3.9970   24.6850  -30.3230 O   0  0  0  0  0  0  0  0  0  0  0  0
   -7.0891   24.9253  -31.6128 H   0  0  0  0  0  0  0  0  0  0  0  0
   -6.9430   22.9470  -33.6260 H   0  0  0  0  0  0  0  0  0  0  0  0
   -8.8863   22.2297  -31.2465 H   0  0  0  0  0  0  0  0  0  0  0  0
  -10.0020   20.0889  -30.6171 H   0  0  0  0  0  0  0  0  0  0  0  0
   -9.0551   17.9094  -31.3830 H   0  0  0  0  0  0  0  0  0  0  0  0
   -5.8713   20.0072  -33.4279 H   0  0  0  0  0  0  0  0  0  0  0  0
   -4.7249   20.8100  -32.6047 H   0  0  0  0  0  0  0  0  0  0  0  0
   -2.4521   19.9794  -32.0042 H   0  0  0  0  0  0  0  0  0  0  0  0
   -0.9237   21.3832  -30.6227 H   0  0  0  0  0  0  0  0  0  0  0  0
   -1.6656   23.6251  -29.8213 H   0  0  0  0  0  0  0  0  0  0  0  0
  1  2  2  0
  2  3  1  0
  3  4  2  0
  4  5  1  0
  5  6  1  0
  6  7  2  0
  7  8  1  0
  8  9  2  0
  9 10  1  0
 10 11  1  0
 10 12  2  0
  4 13  1  0
 13 14  2  0
 14 15  1  0
 15 16  2  0
 16 17  1  0
 17 18  2  0
 18 19  1  0
 19  2  1  0
 12  6  1  0
 18 13  1  0
  3 20  1  0
  5 21  1  0
  7 22  1  0
  8 23  1  0
  9 24  1  0
 12 25  1  0
 14 26  1  0
 15 27  1  0
 16 28  1  0
 17 29  1  0
M  END
>  <UniqueID>  (32) 
32

>  <SMILES>  (32) 
O=c1cc(Nc2cccc(Br)c2)c2ccccc2o1

>  <Energy>  (32) 
42.89387604915657

>  <Genealogy>  (32) 
O=c1cc(Nc2cccc(Br)c2)c2ccccc2o1 (3D coordinates assigned)
O=c1cc(Nc2cccc(Br)c2)c2ccccc2o1 (optimized conformer: 42.89387604915657 kcal/mol)

>  <smiles>  (32) 
O=c1cc(Nc2cccc(Br)c2)c2ccccc2o1

>  <score_type>  (32) 
oracle

>  <origin>  (32) 
adgpu

>  <m_score__min__energy>  (32) 
-8.4600000000000009

>  <m_primary>  (32) 
energy

$$$$
32:0
     RDKit          3D

 46 49  0  0  0  0  0  0  0  0999 V2000
   -0.8720   21.8630  -28.1180 C   0  0  0  0  0  0  0  0  0  0  0  0
   -0.6850   22.8340  -29.2800 C   0  0  0  0  0  0  0  0  0  0  0  0
   -2.0160   23.4190  -29.7100 C   0  0  0  0  0  0  0  0  0  0  0  0
   -2.6340   24.4960  -29.0030 C   0  0  0  0  0  0  0  0  0  0  0  0
   -1.9810   25.1630  -27.8630 C   0  0  0  0  0  0  0  0  0  0  0  0
   -0.8880   26.0180  -28.0700 C   0  0  0  0  0  0  0  0  0  0  0  0
   -0.2900   26.6690  -26.9850 C   0  0  0  0  0  0  0  0  0  0  0  0
   -0.7920   26.4820  -25.6920 C   0  0  0  0  0  0  0  0  0  0  0  0
   -0.0440   27.3010  -24.3320 Cl  0  0  0  0  0  0  0  0  0  0  0  0
   -1.8950   25.6460  -25.4860 C   0  0  0  0  0  0  0  0  0  0  0  0
   -2.4930   24.9940  -26.5680 C   0  0  0  0  0  0  0  0  0  0  0  0
   -3.8840   24.9200  -29.3560 N   0  0  0  0  0  0  0  0  0  0  0  0
   -4.5180   24.3260  -30.3900 C   0  0  0  0  0  0  0  0  0  0  0  0
   -5.7750   24.5900  -30.8750 C   0  0  0  0  0  0  0  0  0  0  0  0
   -5.9110   23.6530  -31.9000 C   0  0  0  0  0  0  0  0  0  0  0  0
   -7.1530   23.4220  -32.7040 C   0  0  0  0  0  0  0  0  0  0  0  0
   -8.1760   22.5810  -31.9300 C   0  0  0  0  0  0  0  0  0  0  0  0
   -7.9980   21.1050  -32.1860 C   0  0  0  0  0  0  0  0  0  0  0  0
   -8.9360   20.1830  -31.6940 C   0  0  0  0  0  0  0  0  0  0  0  0
   -8.7520   18.8130  -31.9030 C   0  0  0  0  0  0  0  0  0  0  0  0
   -7.6260   18.3530  -32.5920 C   0  0  0  0  0  0  0  0  0  0  0  0
   -6.6810   19.2640  -33.0720 C   0  0  0  0  0  0  0  0  0  0  0  0
   -6.8640   20.6360  -32.8710 C   0  0  0  0  0  0  0  0  0  0  0  0
   -4.8010   22.8810  -31.9940 N   0  0  0  0  0  0  0  0  0  0  0  0
   -3.9650   23.3190  -31.0680 N   0  0  0  0  0  0  0  0  0  0  0  0
   -2.7420   22.8210  -30.7670 C   0  0  0  0  0  0  0  0  0  0  0  0
   -2.2780   21.8400  -31.4100 O   0  0  0  0  0  0  0  0  0  0  0  0
   -0.7676   22.4052  -27.1666 H   0  0  0  0  0  0  0  0  0  0  0  0
   -1.8736   21.4117  -28.1748 H   0  0  0  0  0  0  0  0  0  0  0  0
   -0.1097   21.0720  -28.1748 H   0  0  0  0  0  0  0  0  0  0  0  0
   -0.0172   23.6494  -28.9651 H   0  0  0  0  0  0  0  0  0  0  0  0
   -0.2478   22.2886  -30.1294 H   0  0  0  0  0  0  0  0  0  0  0  0
   -0.5003   26.1770  -29.0871 H   0  0  0  0  0  0  0  0  0  0  0  0
    0.5753   27.3282  -27.1486 H   0  0  0  0  0  0  0  0  0  0  0  0
   -2.2923   25.5017  -24.4704 H   0  0  0  0  0  0  0  0  0  0  0  0
   -3.3672   24.3468  -26.4037 H   0  0  0  0  0  0  0  0  0  0  0  0
   -6.4953   25.3505  -30.5393 H   0  0  0  0  0  0  0  0  0  0  0  0
   -7.6041   24.3941  -32.9521 H   0  0  0  0  0  0  0  0  0  0  0  0
   -6.8761   22.8742  -33.6168 H   0  0  0  0  0  0  0  0  0  0  0  0
   -8.0531   22.7729  -30.8539 H   0  0  0  0  0  0  0  0  0  0  0  0
   -9.1817   22.8678  -32.2710 H   0  0  0  0  0  0  0  0  0  0  0  0
   -9.8183   20.5399  -31.1424 H   0  0  0  0  0  0  0  0  0  0  0  0
   -9.4949   18.0955  -31.5245 H   0  0  0  0  0  0  0  0  0  0  0  0
   -7.4838   17.2747  -32.7563 H   0  0  0  0  0  0  0  0  0  0  0  0
   -5.7919   18.9014  -33.6087 H   0  0  0  0  0  0  0  0  0  0  0  0
   -6.1181   21.3501  -33.2502 H   0  0  0  0  0  0  0  0  0  0  0  0
  1  2  1  0
  2  3  1  0
  3  4  2  0
  4  5  1  0
  5  6  2  0
  6  7  1  0
  7  8  2  0
  8  9  1  0
  8 10  1  0
 10 11  2  0
  4 12  1  0
 12 13  1  0
 13 14  2  0
 14 15  1  0
 15 16  1  0
 16 17  1  0
 17 18  1  0
 18 19  2  0
 19 20  1  0
 20 21  2  0
 21 22  1  0
 22 23  2  0
 15 24  2  0
 24 25  1  0
 25 26  1  0
 26 27  2  0
 26  3  1  0
 11  5  1  0
 25 13  1  0
 23 18  1  0
  1 28  1  0
  1 29  1  0
  1 30  1  0
  2 31  1  0
  2 32  1  0
  6 33  1  0
  7 34  1  0
 10 35  1  0
 11 36  1  0
 14 37  1  0
 16 38  1  0
 16 39  1  0
 17 40  1  0
 17 41  1  0
 19 42  1  0
 20 43  1  0
 21 44  1  0
 22 45  1  0
 23 46  1  0
M  CHG  1  12  -1
M  END
>  <UniqueID>  (33) 
33

>  <SMILES>  (33) 
CCc1c(-c2ccc(Cl)cc2)[n-]c2cc(CCc3ccccc3)nn2c1=O

>  <Energy>  (33) 
88.57438133149181

>  <Genealogy>  (33) 
CCc1c(-c2ccc(Cl)cc2)[n-]c2cc(CCc3ccccc3)nn2c1=O (protonated)
CCc1c(-c2ccc(Cl)cc2)[n-]c2cc(CCc3ccccc3)nn2c1=O (3D coordinates assigned)
CCc1c(-c2ccc(Cl)cc2)[n-]c2cc(CCc3ccccc3)nn2c1=O (optimized conformer: 88.57438133149181 kcal/mol)

>  <smiles>  (33) 
CCc1c(-c2ccc(Cl)cc2)[nH]c2cc(CCc3ccccc3)nn2c1=O

>  <score_type>  (33) 
oracle

>  <origin>  (33) 
adgpu

>  <m_score__min__energy>  (33) 
-10.279999999999999

>  <m_primary>  (33) 
energy

$$$$
33:0
     RDKit          3D

 45 47  0  0  0  0  0  0  0  0999 V2000
   -9.1890   22.9920  -31.9680 C   0  0  0  0  0  0  0  0  0  0  0  0
   -8.7410   21.8890  -31.0170 C   0  0  0  0  0  0  0  0  0  0  0  0
   -7.7910   20.9470  -31.7040 C   0  0  0  0  0  0  0  0  0  0  0  0
   -8.1220   19.8860  -32.5330 C   0  0  0  0  0  0  0  0  0  0  0  0
   -9.4980   19.3750  -32.8150 C   0  0  0  0  0  0  0  0  0  0  0  0
   -7.0120   19.4010  -33.1230 N   0  0  0  0  0  0  0  0  0  0  0  0
   -5.9850   20.1240  -32.7060 N   0  0  0  0  0  0  0  0  0  0  0  0
   -4.6270   19.8690  -33.1040 C   0  0  0  0  0  0  0  0  0  0  0  0
   -3.7990   20.9450  -33.4680 C   0  0  0  0  0  0  0  0  0  0  0  0
   -2.4730   20.7240  -33.8420 C   0  0  0  0  0  0  0  0  0  0  0  0
   -1.9560   19.4300  -33.8510 C   0  0  0  0  0  0  0  0  0  0  0  0
   -2.7650   18.3490  -33.4920 C   0  0  0  0  0  0  0  0  0  0  0  0
   -4.1070   18.5530  -33.1280 C   0  0  0  0  0  0  0  0  0  0  0  0
   -4.9620   17.3690  -32.7680 C   0  0  0  0  0  0  0  0  0  0  0  0
   -6.4160   21.0740  -31.8440 C   0  0  0  0  0  0  0  0  0  0  0  0
   -5.5720   22.1410  -31.2680 C   0  0  0  0  0  0  0  0  0  0  0  0
   -4.4470   21.8190  -30.4950 C   0  0  0  0  0  0  0  0  0  0  0  0
   -3.6440   22.8310  -29.9630 C   0  0  0  0  0  0  0  0  0  0  0  0
   -3.9470   24.1770  -30.1990 C   0  0  0  0  0  0  0  0  0  0  0  0
   -3.1090   25.1560  -29.6450 O   0  0  0  0  0  0  0  0  0  0  0  0
   -2.1650   24.9140  -28.6070 C   0  0  0  0  0  0  0  0  0  0  0  0
   -5.0730   24.5010  -30.9800 C   0  0  0  0  0  0  0  0  0  0  0  0
   -5.8770   23.4880  -31.5110 C   0  0  0  0  0  0  0  0  0  0  0  0
   -9.5404   23.8571  -31.3865 H   0  0  0  0  0  0  0  0  0  0  0  0
   -8.3429   23.2956  -32.6020 H   0  0  0  0  0  0  0  0  0  0  0  0
  -10.0071   22.6196  -32.6020 H   0  0  0  0  0  0  0  0  0  0  0  0
   -8.2367   22.3421  -30.1508 H   0  0  0  0  0  0  0  0  0  0  0  0
   -9.6259   21.3228  -30.6908 H   0  0  0  0  0  0  0  0  0  0  0  0
  -10.0190   19.1815  -31.8657 H   0  0  0  0  0  0  0  0  0  0  0  0
  -10.0565   20.1257  -33.3934 H   0  0  0  0  0  0  0  0  0  0  0  0
   -9.4312   18.4417  -33.3934 H   0  0  0  0  0  0  0  0  0  0  0  0
   -4.1996   21.9694  -33.4579 H   0  0  0  0  0  0  0  0  0  0  0  0
   -1.8349   21.5724  -34.1301 H   0  0  0  0  0  0  0  0  0  0  0  0
   -0.9088   19.2593  -34.1413 H   0  0  0  0  0  0  0  0  0  0  0  0
   -2.3486   17.3309  -33.4943 H   0  0  0  0  0  0  0  0  0  0  0  0
   -5.0251   17.2816  -31.6733 H   0  0  0  0  0  0  0  0  0  0  0  0
   -5.9712   17.5056  -33.1837 H   0  0  0  0  0  0  0  0  0  0  0  0
   -4.5149   16.4539  -33.1837 H   0  0  0  0  0  0  0  0  0  0  0  0
   -4.1957   20.7648  -30.3067 H   0  0  0  0  0  0  0  0  0  0  0  0
   -2.7667   22.5679  -29.3538 H   0  0  0  0  0  0  0  0  0  0  0  0
   -2.6543   25.0394  -27.6298 H   0  0  0  0  0  0  0  0  0  0  0  0
   -1.7787   23.8878  -28.6946 H   0  0  0  0  0  0  0  0  0  0  0  0
   -1.3327   25.6278  -28.6946 H   0  0  0  0  0  0  0  0  0  0  0  0
   -5.3210   25.5552  -31.1730 H   0  0  0  0  0  0  0  0  0  0  0  0
   -6.7533   23.7489  -32.1225 H   0  0  0  0  0  0  0  0  0  0  0  0
  1  2  1  0
  2  3  1  0
  3  4  1  0
  4  5  1  0
  4  6  2  0
  6  7  1  0
  7  8  1  0
  8  9  2  0
  9 10  1  0
 10 11  2  0
 11 12  1  0
 12 13  2  0
 13 14  1  0
  7 15  1  0
 15 16  1  0
 16 17  2  0
 17 18  1  0
 18 19  2  0
 19 20  1  0
 20 21  1  0
 19 22  1  0
 22 23  2  0
 15  3  2  0
 23 16  1  0
 13  8  1  0
  1 24  1  0
  1 25  1  0
  1 26  1  0
  2 27  1  0
  2 28  1  0
  5 29  1  0
  5 30  1  0
  5 31  1  0
  9 32  1  0
 10 33  1  0
 11 34  1  0
 12 35  1  0
 14 36  1  0
 14 37  1  0
 14 38  1  0
 17 39  1  0
 18 40  1  0
 21 41  1  0
 21 42  1  0
 21 43  1  0
 22 44  1  0
 23 45  1  0
M  END
>  <UniqueID>  (34) 
34

>  <SMILES>  (34) 
CCc1c(C)nn(-c2ccccc2C)c1-c1ccc(OC)cc1

>  <Energy>  (34) 
81.70791172429433

>  <Genealogy>  (34) 
CCc1c(C)nn(-c2ccccc2C)c1-c1ccc(OC)cc1 (3D coordinates assigned)
CCc1c(C)nn(-c2ccccc2C)c1-c1ccc(OC)cc1 (optimized conformer: 81.70791172429433 kcal/mol)

>  <smiles>  (34) 
CCc1c(C)nn(-c2ccccc2C)c1-c1ccc(OC)cc1

>  <score_type>  (34) 
oracle

>  <origin>  (34) 
adgpu

>  <m_score__min__energy>  (34) 
-8.5299999999999994

>  <m_primary>  (34) 
energy

$$$$
34:0
     RDKit          3D

 41 43  0  0  0  0  0  0  0  0999 V2000
   -3.8430   21.8690  -32.2620 C   0  0  0  0  0  0  0  0  0  0  0  0
   -4.8830   22.7980  -32.5360 O   0  0  0  0  0  0  0  0  0  0  0  0
   -5.3760   23.6930  -31.5800 C   0  0  0  0  0  0  0  0  0  0  0  0
   -4.6210   24.7620  -31.1980 N   0  0  0  0  0  0  0  0  0  0  0  0
   -5.0620   25.6720  -30.2920 C   0  0  0  0  0  0  0  0  0  0  0  0
   -6.3260   25.5340  -29.7240 C   0  0  0  0  0  0  0  0  0  0  0  0
   -7.1250   24.4520  -30.0900 C   0  0  0  0  0  0  0  0  0  0  0  0
   -6.6610   23.5070  -31.0220 C   0  0  0  0  0  0  0  0  0  0  0  0
   -7.5170   22.3520  -31.3930 C   0  0  0  0  0  0  0  0  0  0  0  0
   -7.1320   21.0140  -31.3920 C   0  0  0  0  0  0  0  0  0  0  0  0
   -8.1450   20.1330  -31.8080 C   0  0  0  0  0  0  0  0  0  0  0  0
   -7.9560   18.6350  -31.8910 C   0  0  0  0  0  0  0  0  0  0  0  0
   -7.4050   18.1590  -33.1860 N   0  0  0  0  0  0  0  0  0  0  0  0
   -6.8880   16.7600  -33.1260 C   0  0  0  0  0  0  0  0  0  0  0  0
   -5.3540   16.6880  -33.1460 C   0  0  0  0  0  0  0  0  0  0  0  0
   -4.7870   17.3390  -34.4200 C   0  0  0  0  0  0  0  0  0  0  0  0
   -5.6530   18.5080  -34.9270 C   0  0  0  0  0  0  0  0  0  0  0  0
   -6.4550   19.1360  -33.7820 C   0  0  0  0  0  0  0  0  0  0  0  0
   -9.3220   20.7800  -32.1750 C   0  0  0  0  0  0  0  0  0  0  0  0
   -9.1060   22.4290  -31.9490 S   0  0  0  0  0  0  0  0  0  0  0  0
   -3.7238   21.7625  -31.1737 H   0  0  0  0  0  0  0  0  0  0  0  0
   -4.0984   20.8929  -32.7001 H   0  0  0  0  0  0  0  0  0  0  0  0
   -2.9018   22.2325  -32.7001 H   0  0  0  0  0  0  0  0  0  0  0  0
   -4.4205   26.5187  -30.0065 H   0  0  0  0  0  0  0  0  0  0  0  0
   -6.6903   26.2716  -28.9937 H   0  0  0  0  0  0  0  0  0  0  0  0
   -8.1251   24.3367  -29.6468 H   0  0  0  0  0  0  0  0  0  0  0  0
   -6.1282   20.6776  -31.0933 H   0  0  0  0  0  0  0  0  0  0  0  0
   -7.2663   18.3299  -31.0902 H   0  0  0  0  0  0  0  0  0  0  0  0
   -8.9548   18.1854  -31.7894 H   0  0  0  0  0  0  0  0  0  0  0  0
   -8.2280   18.1340  -33.8360 H   0  0  0  0  0  0  0  0  0  0  0  0
   -7.2492   16.2919  -32.1984 H   0  0  0  0  0  0  0  0  0  0  0  0
   -7.2547   16.2341  -34.0199 H   0  0  0  0  0  0  0  0  0  0  0  0
   -4.9578   17.2155  -32.2658 H   0  0  0  0  0  0  0  0  0  0  0  0
   -5.0530   15.6301  -33.1297 H   0  0  0  0  0  0  0  0  0  0  0  0
   -3.7775   17.7177  -34.2022 H   0  0  0  0  0  0  0  0  0  0  0  0
   -4.7725   16.5708  -35.2072 H   0  0  0  0  0  0  0  0  0  0  0  0
   -4.9994   19.2737  -35.3703 H   0  0  0  0  0  0  0  0  0  0  0  0
   -6.3584   18.1212  -35.6772 H   0  0  0  0  0  0  0  0  0  0  0  0
   -5.7583   19.4789  -33.0029 H   0  0  0  0  0  0  0  0  0  0  0  0
   -7.0338   19.9795  -34.1863 H   0  0  0  0  0  0  0  0  0  0  0  0
  -10.2356   20.2943  -32.5485 H   0  0  0  0  0  0  0  0  0  0  0  0
  1  2  1  0
  2  3  1  0
  3  4  2  0
  4  5  1  0
  5  6  2  0
  6  7  1  0
  7  8  2  0
  8  9  1  0
  9 10  2  0
 10 11  1  0
 11 12  1  0
 12 13  1  0
 13 14  1  0
 14 15  1  0
 15 16  1  0
 16 17  1  0
 17 18  1  0
 11 19  2  0
 19 20  1  0
  8  3  1  0
 20  9  1  0
 18 13  1  0
  1 21  1  0
  1 22  1  0
  1 23  1  0
  5 24  1  0
  6 25  1  0
  7 26  1  0
 10 27  1  0
 12 28  1  0
 12 29  1  0
 13 30  1  0
 14 31  1  0
 14 32  1  0
 15 33  1  0
 15 34  1  0
 16 35  1  0
 16 36  1  0
 17 37  1  0
 17 38  1  0
 18 39  1  0
 18 40  1  0
 19 41  1  0
M  CHG  1  13   1
M  END
>  <UniqueID>  (35) 
35

>  <SMILES>  (35) 
COc1ncccc1-c1cc(C[NH+]2CCCCC2)cs1

>  <Energy>  (35) 
79.50052515874376

>  <Genealogy>  (35) 
COc1ncccc1-c1cc(C[NH+]2CCCCC2)cs1 (protonated)
COc1ncccc1-c1cc(C[NH+]2CCCCC2)cs1 (3D coordinates assigned)
COc1ncccc1-c1cc(C[NH+]2CCCCC2)cs1 (nonaromatic ring conformer: 79.50052515874376 kcal/mol)

>  <smiles>  (35) 
COc1ncccc1-c1cc(CN2CCCCC2)cs1

>  <score_type>  (35) 
oracle

>  <origin>  (35) 
adgpu

>  <m_score__min__energy>  (35) 
-7.7199999999999998

>  <m_primary>  (35) 
energy

$$$$
35:0
     RDKit          3D

 25 26  0  0  0  0  0  0  0  0999 V2000
   -4.6860   24.4690  -31.1390 O   0  0  0  0  0  0  0  0  0  0  0  0
   -4.2710   23.6980  -30.2310 C   0  0  0  0  0  0  0  0  0  0  0  0
   -4.5220   22.2850  -30.3170 N   0  0  0  0  0  0  0  0  0  0  0  0
   -5.4860   21.6940  -31.2050 C   0  0  0  0  0  0  0  0  0  0  0  0
   -6.8530   22.0210  -31.1260 C   0  0  0  0  0  0  0  0  0  0  0  0
   -7.7740   21.4130  -31.9880 C   0  0  0  0  0  0  0  0  0  0  0  0
   -9.4750   21.8280  -31.8840 Cl  0  0  0  0  0  0  0  0  0  0  0  0
   -7.3410   20.4690  -32.9230 C   0  0  0  0  0  0  0  0  0  0  0  0
   -5.9890   20.1230  -32.9930 C   0  0  0  0  0  0  0  0  0  0  0  0
   -5.4490   18.9280  -34.1580 Cl  0  0  0  0  0  0  0  0  0  0  0  0
   -5.0650   20.7270  -32.1320 C   0  0  0  0  0  0  0  0  0  0  0  0
   -3.4930   24.2510  -29.1020 C   0  0  0  0  0  0  0  0  0  0  0  0
   -3.9460   24.1250  -27.7760 C   0  0  0  0  0  0  0  0  0  0  0  0
   -3.1810   24.6550  -26.7350 C   0  0  0  0  0  0  0  0  0  0  0  0
   -1.9770   25.3030  -27.0160 C   0  0  0  0  0  0  0  0  0  0  0  0
   -1.5540   25.4100  -28.3420 C   0  0  0  0  0  0  0  0  0  0  0  0
   -2.3110   24.8870  -29.3420 N   0  0  0  0  0  0  0  0  0  0  0  0
   -3.9080   21.6400  -29.7700 H   0  0  0  0  0  0  0  0  0  0  0  0
   -7.1988   22.7565  -30.3847 H   0  0  0  0  0  0  0  0  0  0  0  0
   -8.0649   19.9980  -33.6043 H   0  0  0  0  0  0  0  0  0  0  0  0
   -4.0036   20.4425  -32.1819 H   0  0  0  0  0  0  0  0  0  0  0  0
   -4.8955   23.6129  -27.5610 H   0  0  0  0  0  0  0  0  0  0  0  0
   -3.5267   24.5620  -25.6949 H   0  0  0  0  0  0  0  0  0  0  0  0
   -1.3687   25.7244  -26.2021 H   0  0  0  0  0  0  0  0  0  0  0  0
   -0.6072   25.9180  -28.5776 H   0  0  0  0  0  0  0  0  0  0  0  0
  1  2  2  0
  2  3  1  0
  3  4  1  0
  4  5  2  0
  5  6  1  0
  6  7  1  0
  6  8  2  0
  8  9  1  0
  9 10  1  0
  9 11  2  0
  2 12  1  0
 12 13  2  0
 13 14  1  0
 14 15  2  0
 15 16  1  0
 16 17  2  0
 11  4  1  0
 17 12  1  0
  3 18  1  0
  5 19  1  0
  8 20  1  0
 11 21  1  0
 13 22  1  0
 14 23  1  0
 15 24  1  0
 16 25  1  0
M  END
>  <UniqueID>  (36) 
36

>  <SMILES>  (36) 
O=C(Nc1cc(Cl)cc(Cl)c1)c1ccccn1

>  <Energy>  (36) 
30.121831487820206

>  <Genealogy>  (36) 
O=C(Nc1cc(Cl)cc(Cl)c1)c1ccccn1 (3D coordinates assigned)
O=C(Nc1cc(Cl)cc(Cl)c1)c1ccccn1 (optimized conformer: 30.121831487820206 kcal/mol)

>  <smiles>  (36) 
O=C(Nc1cc(Cl)cc(Cl)c1)c1ccccn1

>  <score_type>  (36) 
oracle

>  <origin>  (36) 
adgpu

>  <m_score__min__energy>  (36) 
-7.0700000000000003

>  <m_primary>  (36) 
energy

$$$$
36:0
     RDKit          3D

 42 45  0  0  0  0  0  0  0  0999 V2000
   -6.7707   23.4177  -32.6929 H   0  0  0  0  0  0  0  0  0  0  0  0
   -7.2460   22.4750  -32.3840 C   0  0  0  0  0  0  0  0  0  0  0  0
   -8.3470   22.5000  -31.5060 C   0  0  0  0  0  0  0  0  0  0  0  0
   -8.7268   23.4613  -31.1296 H   0  0  0  0  0  0  0  0  0  0  0  0
   -8.9610   21.3010  -31.1100 C   0  0  0  0  0  0  0  0  0  0  0  0
   -9.8185   21.3091  -30.4211 H   0  0  0  0  0  0  0  0  0  0  0  0
   -8.4590   20.0990  -31.6100 C   0  0  0  0  0  0  0  0  0  0  0  0
   -7.3920   20.0750  -32.4670 C   0  0  0  0  0  0  0  0  0  0  0  0
   -6.7520   21.2520  -32.8670 C   0  0  0  0  0  0  0  0  0  0  0  0
   -5.8843   21.2210  -33.5423 H   0  0  0  0  0  0  0  0  0  0  0  0
   -7.0570   18.7450  -32.8230 N   0  0  0  0  0  0  0  0  0  0  0  0
   -5.6980   18.2370  -33.7750 S   0  0  0  0  0  0  0  0  0  0  0  0
   -5.4530   16.7760  -33.5150 O   0  0  0  0  0  0  0  0  0  0  0  0
   -6.0010   18.4240  -35.2330 O   0  0  0  0  0  0  0  0  0  0  0  0
   -4.2530   19.1460  -33.3390 C   0  0  0  0  0  0  0  0  0  0  0  0
   -3.1150   19.0650  -34.1520 C   0  0  0  0  0  0  0  0  0  0  0  0
   -3.1386   18.4581  -35.0691 H   0  0  0  0  0  0  0  0  0  0  0  0
   -1.9510   19.7520  -33.8020 C   0  0  0  0  0  0  0  0  0  0  0  0
   -1.0580   19.6797  -34.4403 H   0  0  0  0  0  0  0  0  0  0  0  0
   -1.9180   20.5310  -32.6430 C   0  0  0  0  0  0  0  0  0  0  0  0
   -0.9947   21.0607  -32.3656 H   0  0  0  0  0  0  0  0  0  0  0  0
   -3.0570   20.6410  -31.8310 C   0  0  0  0  0  0  0  0  0  0  0  0
   -3.0200   21.4650  -30.6010 C   0  0  0  0  0  0  0  0  0  0  0  0
   -3.2230   20.9140  -29.4870 O   0  0  0  0  0  0  0  0  0  0  0  0
   -2.8030   22.8830  -30.6380 N   0  0  0  0  0  0  0  0  0  0  0  0
   -3.7310   23.7790  -30.4830 C   0  0  0  0  0  0  0  0  0  0  0  0
   -3.4890   25.1010  -30.4940 N   0  0  0  0  0  0  0  0  0  0  0  0
   -4.6670   25.6850  -30.3360 N   0  0  0  0  0  0  0  0  0  0  0  0
   -5.5750   24.6940  -30.2410 C   0  0  0  0  0  0  0  0  0  0  0  0
   -7.0360   24.9120  -30.0430 C   0  0  0  0  0  0  0  0  0  0  0  0
   -7.2592   24.9453  -28.9664 H   0  0  0  0  0  0  0  0  0  0  0  0
   -7.3310   25.8641  -30.5082 H   0  0  0  0  0  0  0  0  0  0  0  0
   -7.5961   24.0875  -30.5082 H   0  0  0  0  0  0  0  0  0  0  0  0
   -5.0070   23.5150  -30.3280 O   0  0  0  0  0  0  0  0  0  0  0  0
   -4.2210   19.9330  -32.1800 C   0  0  0  0  0  0  0  0  0  0  0  0
   -5.1124   19.9975  -31.5388 H   0  0  0  0  0  0  0  0  0  0  0  0
   -7.9520   17.8260  -32.1250 C   0  0  0  0  0  0  0  0  0  0  0  0
   -8.5037   17.2067  -32.8476 H   0  0  0  0  0  0  0  0  0  0  0  0
   -7.3952   17.1416  -31.4680 H   0  0  0  0  0  0  0  0  0  0  0  0
   -8.9310   18.7150  -31.3200 C   0  0  0  0  0  0  0  0  0  0  0  0
   -9.9660   18.5720  -31.6638 H   0  0  0  0  0  0  0  0  0  0  0  0
   -8.9394   18.4805  -30.2453 H   0  0  0  0  0  0  0  0  0  0  0  0
  1  2  1  0
  2  3  2  0
  3  4  1  0
  3  5  1  0
  5  6  1  0
  5  7  2  0
  7  8  1  0
  8  9  2  0
  9 10  1  0
  8 11  1  0
 11 12  1  0
 12 13  2  0
 12 14  2  0
 12 15  1  0
 15 16  2  0
 16 17  1  0
 16 18  1  0
 18 19  1  0
 18 20  2  0
 20 21  1  0
 20 22  1  0
 22 23  1  0
 23 24  2  0
 23 25  1  0
 25 26  2  0
 26 27  1  0
 27 28  1  0
 28 29  2  0
 29 30  1  0
 30 31  1  0
 30 32  1  0
 30 33  1  0
 29 34  1  0
 22 35  2  0
 35 36  1  0
 11 37  1  0
 37 38  1  0
 37 39  1  0
 37 40  1  0
 40 41  1  0
 40 42  1  0
  9  2  1  0
 35 15  1  0
 40  7  1  0
 34 26  1  0
M  CHG  1  27  -1
M  END
>  <UniqueID>  (37) 
37

>  <SMILES>  (37) 
Cc1n[n-]/c(=N/C(=O)c2cccc(S(=O)(=O)N3CCc4ccccc43)c2)o1

>  <Energy>  (37) 
98.96929414570346

>  <Genealogy>  (37) 
Cc1n[n-]c(=NC(=O)c2cccc(S(=O)(=O)N3CCc4ccccc43)c2)o1 (protonated)
Cc1n[n-]/c(=N/C(=O)c2cccc(S(=O)(=O)N3CCc4ccccc43)c2)o1 (cis-trans isomerization)
Cc1n[n-]/c(=N/C(=O)c2cccc(S(=O)(=O)N3CCc4ccccc43)c2)o1 (3D coordinates assigned)
Cc1n[n-]/c(=N/C(=O)c2cccc(S(=O)(=O)N3CCc4ccccc43)c2)o1 (nonaromatic ring conformer: 98.96929414570346 kcal/mol)

>  <smiles>  (37) 
Cc1n[nH]c(=NC(=O)c2cccc(S(=O)(=O)N3CCc4ccccc43)c2)o1

>  <score_type>  (37) 
oracle

>  <origin>  (37) 
adgpu

>  <m_score__min__energy>  (37) 
-10.85

>  <m_primary>  (37) 
energy

$$$$
37:0
     RDKit          3D

 35 36  0  0  0  0  0  0  0  0999 V2000
   -8.2277   20.6107  -31.0195 H   0  0  0  0  0  0  0  0  0  0  0  0
   -7.7260   21.5890  -31.0560 C   0  0  0  0  0  0  0  0  0  0  0  0
   -7.5490   22.3270  -29.8830 C   0  0  0  0  0  0  0  0  0  0  0  0
   -7.9127   21.9298  -28.9238 H   0  0  0  0  0  0  0  0  0  0  0  0
   -6.9100   23.5700  -29.9270 C   0  0  0  0  0  0  0  0  0  0  0  0
   -6.7742   24.1495  -29.0020 H   0  0  0  0  0  0  0  0  0  0  0  0
   -6.4410   24.0810  -31.1480 C   0  0  0  0  0  0  0  0  0  0  0  0
   -5.7330   25.4090  -31.2000 C   0  0  0  0  0  0  0  0  0  0  0  0
   -6.4365   26.2043  -30.9127 H   0  0  0  0  0  0  0  0  0  0  0  0
   -5.3667   25.5735  -32.2241 H   0  0  0  0  0  0  0  0  0  0  0  0
   -4.5910   25.4250  -30.2850 N   0  0  0  0  0  0  0  0  0  0  0  0
   -3.6300   24.5490  -30.2800 C   0  0  0  0  0  0  0  0  0  0  0  0
   -3.6180   23.5170  -31.1640 N   0  0  0  0  0  0  0  0  0  0  0  0
   -2.6060   22.6090  -31.1550 C   0  0  0  0  0  0  0  0  0  0  0  0
   -2.5940   21.5210  -32.0990 N   0  0  0  0  0  0  0  0  0  0  0  0
   -3.8490   21.0780  -32.7130 C   0  0  0  0  0  0  0  0  0  0  0  0
   -4.5726   20.8226  -31.9249 H   0  0  0  0  0  0  0  0  0  0  0  0
   -4.2571   21.8864  -33.3375 H   0  0  0  0  0  0  0  0  0  0  0  0
   -3.6592   20.1926  -33.3375 H   0  0  0  0  0  0  0  0  0  0  0  0
   -1.3260   20.8730  -32.4460 C   0  0  0  0  0  0  0  0  0  0  0  0
   -0.7901   20.5992  -31.5252 H   0  0  0  0  0  0  0  0  0  0  0  0
   -1.5268   19.9670  -33.0366 H   0  0  0  0  0  0  0  0  0  0  0  0
   -0.7094   21.5665  -33.0366 H   0  0  0  0  0  0  0  0  0  0  0  0
   -1.6030   22.7400  -30.2460 N   0  0  0  0  0  0  0  0  0  0  0  0
   -1.6100   23.7700  -29.3630 C   0  0  0  0  0  0  0  0  0  0  0  0
   -0.2830   23.9360  -28.1750 S   0  0  0  0  0  0  0  0  0  0  0  0
   -0.9190   25.5060  -27.5130 C   0  0  0  0  0  0  0  0  0  0  0  0
   -0.9055   25.4726  -26.4136 H   0  0  0  0  0  0  0  0  0  0  0  0
   -0.2857   26.3347  -27.8625 H   0  0  0  0  0  0  0  0  0  0  0  0
   -1.9505   25.6603  -27.8625 H   0  0  0  0  0  0  0  0  0  0  0  0
   -2.6230   24.6720  -29.3800 N   0  0  0  0  0  0  0  0  0  0  0  0
   -6.6250   23.3350  -32.3240 C   0  0  0  0  0  0  0  0  0  0  0  0
   -6.2638   23.7289  -33.2855 H   0  0  0  0  0  0  0  0  0  0  0  0
   -7.2660   22.0930  -32.2760 C   0  0  0  0  0  0  0  0  0  0  0  0
   -7.4084   21.5121  -33.1992 H   0  0  0  0  0  0  0  0  0  0  0  0
  1  2  1  0
  2  3  2  0
  3  4  1  0
  3  5  1  0
  5  6  1  0
  5  7  2  0
  7  8  1  0
  8  9  1  0
  8 10  1  0
  8 11  1  0
 11 12  2  0
 12 13  1  0
 13 14  2  0
 14 15  1  0
 15 16  1  0
 16 17  1  0
 16 18  1  0
 16 19  1  0
 15 20  1  0
 20 21  1  0
 20 22  1  0
 20 23  1  0
 14 24  1  0
 24 25  2  0
 25 26  1  0
 26 27  1  0
 27 28  1  0
 27 29  1  0
 27 30  1  0
 25 31  1  0
  7 32  1  0
 32 33  1  0
 32 34  2  0
 34 35  1  0
 34  2  1  0
 31 12  1  0
M  CHG  1  31  -1
M  END
>  <UniqueID>  (38) 
38

>  <SMILES>  (38) 
CSc1nc(N(C)C)n/c(=N\Cc2ccccc2)[n-]1

>  <Energy>  (38) 
26.595870980674096

>  <Genealogy>  (38) 
CSc1nc(N(C)C)nc(=NCc2ccccc2)[n-]1 (protonated)
CSc1nc(N(C)C)n/c(=N\Cc2ccccc2)[n-]1 (cis-trans isomerization)
CSc1nc(N(C)C)n/c(=N\Cc2ccccc2)[n-]1 (3D coordinates assigned)
CSc1nc(N(C)C)n/c(=N\Cc2ccccc2)[n-]1 (optimized conformer: 26.595870980674096 kcal/mol)

>  <smiles>  (38) 
CSc1nc(N(C)C)nc(=NCc2ccccc2)[nH]1

>  <score_type>  (38) 
oracle

>  <origin>  (38) 
adgpu

>  <m_score__min__energy>  (38) 
-7.1100000000000003

>  <m_primary>  (38) 
energy

$$$$
38:0
     RDKit          3D

 25 26  0  0  0  0  0  0  0  0999 V2000
   -7.3510   25.5150  -29.2500 O   0  0  0  0  0  0  0  0  0  0  0  0
   -6.3570   25.0000  -29.8580 C   0  0  0  0  0  0  0  0  0  0  0  0
   -6.3120   23.6870  -30.2550 C   0  0  0  0  0  0  0  0  0  0  0  0
   -5.0810   23.5330  -30.8700 C   0  0  0  0  0  0  0  0  0  0  0  0
   -4.5290   22.0230  -31.5570 S   0  0  0  0  0  0  0  0  0  0  0  0
   -4.4780   20.9710  -30.4880 O   0  0  0  0  0  0  0  0  0  0  0  0
   -3.1650   22.2310  -32.1600 O   0  0  0  0  0  0  0  0  0  0  0  0
   -5.5670   21.4840  -32.8090 N   0  0  0  0  0  0  0  0  0  0  0  0
   -6.7660   20.7320  -32.5330 C   0  0  0  0  0  0  0  0  0  0  0  0
   -7.9020   21.3560  -32.0690 C   0  0  0  0  0  0  0  0  0  0  0  0
   -9.0780   20.6650  -31.7900 C   0  0  0  0  0  0  0  0  0  0  0  0
   -9.0860   19.2910  -31.9940 C   0  0  0  0  0  0  0  0  0  0  0  0
   -7.9420   18.6490  -32.4630 C   0  0  0  0  0  0  0  0  0  0  0  0
   -6.7850   19.3460  -32.7350 C   0  0  0  0  0  0  0  0  0  0  0  0
   -4.4280   24.7220  -30.8320 N   0  0  0  0  0  0  0  0  0  0  0  0
   -5.2050   25.6260  -30.2130 N   0  0  0  0  0  0  0  0  0  0  0  0
   -7.0883   22.9204  -30.1146 H   0  0  0  0  0  0  0  0  0  0  0  0
   -5.3920   21.6690  -33.8200 H   0  0  0  0  0  0  0  0  0  0  0  0
   -7.8796   22.4446  -31.9124 H   0  0  0  0  0  0  0  0  0  0  0  0
   -9.9713   21.1897  -31.4203 H   0  0  0  0  0  0  0  0  0  0  0  0
   -9.9961   18.7095  -31.7851 H   0  0  0  0  0  0  0  0  0  0  0  0
   -7.9629   17.5604  -32.6198 H   0  0  0  0  0  0  0  0  0  0  0  0
   -5.8909   18.8226  -33.1047 H   0  0  0  0  0  0  0  0  0  0  0  0
   -3.4800   24.9170  -31.2150 H   0  0  0  0  0  0  0  0  0  0  0  0
   -4.9680   26.6320  -30.0350 H   0  0  0  0  0  0  0  0  0  0  0  0
  1  2  2  0
  2  3  1  0
  3  4  2  0
  4  5  1  0
  5  6  2  0
  5  7  2  0
  5  8  1  0
  8  9  1  0
  9 10  2  0
 10 11  1  0
 11 12  2  0
 12 13  1  0
 13 14  2  0
  4 15  1  0
 15 16  1  0
 16  2  1  0
 14  9  1  0
  3 17  1  0
  8 18  1  0
 10 19  1  0
 11 20  1  0
 12 21  1  0
 13 22  1  0
 14 23  1  0
 15 24  1  0
 16 25  1  0
M  END
>  <smiles>  (39) 
O=c1cc(S(=O)(=O)Nc2ccccc2)[nH][nH]1

>  <score_type>  (39) 
oracle

>  <origin>  (39) 
adgpu

>  <m_score__min__energy>  (39) 
-7.6699999999999999

>  <m_primary>  (39) 
energy

$$$$
39:0
     RDKit          3D

 36 38  0  0  0  0  0  0  0  0999 V2000
    0.6670   24.7142  -26.4999 H   0  0  0  0  0  0  0  0  0  0  0  0
   -0.1810   24.7430  -27.2000 C   0  0  0  0  0  0  0  0  0  0  0  0
   -0.8980   23.6200  -27.4540 N   0  0  0  0  0  0  0  0  0  0  0  0
   -1.9510   23.6180  -28.3170 C   0  0  0  0  0  0  0  0  0  0  0  0
   -2.6860   22.4420  -28.5170 O   0  0  0  0  0  0  0  0  0  0  0  0
   -2.2940   21.1690  -28.0830 C   0  0  0  0  0  0  0  0  0  0  0  0
   -3.1020   20.5120  -27.1470 C   0  0  0  0  0  0  0  0  0  0  0  0
   -4.0128   21.0020  -26.7724 H   0  0  0  0  0  0  0  0  0  0  0  0
   -2.7600   19.2400  -26.6860 C   0  0  0  0  0  0  0  0  0  0  0  0
   -3.4054   18.7269  -25.9578 H   0  0  0  0  0  0  0  0  0  0  0  0
   -1.5990   18.6190  -27.1490 C   0  0  0  0  0  0  0  0  0  0  0  0
   -1.3374   17.6107  -26.7956 H   0  0  0  0  0  0  0  0  0  0  0  0
   -0.7680   19.2760  -28.0610 C   0  0  0  0  0  0  0  0  0  0  0  0
    0.1489   18.7841  -28.4179 H   0  0  0  0  0  0  0  0  0  0  0  0
   -1.0980   20.5650  -28.5260 C   0  0  0  0  0  0  0  0  0  0  0  0
   -0.2550   21.2760  -29.3940 O   0  0  0  0  0  0  0  0  0  0  0  0
   -0.5260   21.5140  -30.7710 C   0  0  0  0  0  0  0  0  0  0  0  0
   -1.3496   22.2373  -30.8629 H   0  0  0  0  0  0  0  0  0  0  0  0
    0.3738   21.9191  -31.2571 H   0  0  0  0  0  0  0  0  0  0  0  0
   -0.8116   20.5695  -31.2571 H   0  0  0  0  0  0  0  0  0  0  0  0
   -2.2800   24.8190  -28.9980 C   0  0  0  0  0  0  0  0  0  0  0  0
   -3.2530   24.9210  -29.8640 N   0  0  0  0  0  0  0  0  0  0  0  0
   -4.0690   23.8720  -30.3990 C   0  0  0  0  0  0  0  0  0  0  0  0
   -5.4040   23.7290  -29.9920 C   0  0  0  0  0  0  0  0  0  0  0  0
   -5.8368   24.4374  -29.2703 H   0  0  0  0  0  0  0  0  0  0  0  0
   -6.1850   22.6880  -30.5020 C   0  0  0  0  0  0  0  0  0  0  0  0
   -7.2371   22.5914  -30.1958 H   0  0  0  0  0  0  0  0  0  0  0  0
   -5.6330   21.7680  -31.4010 C   0  0  0  0  0  0  0  0  0  0  0  0
   -6.6460   20.4730  -32.0240 Cl  0  0  0  0  0  0  0  0  0  0  0  0
   -4.2840   21.8870  -31.7830 C   0  0  0  0  0  0  0  0  0  0  0  0
   -3.5480   20.7450  -32.8980 Cl  0  0  0  0  0  0  0  0  0  0  0  0
   -3.5060   22.9330  -31.2720 C   0  0  0  0  0  0  0  0  0  0  0  0
   -2.4471   23.0175  -31.5578 H   0  0  0  0  0  0  0  0  0  0  0  0
   -1.5630   25.9400  -28.7130 N   0  0  0  0  0  0  0  0  0  0  0  0
   -0.5290   25.9320  -27.8340 C   0  0  0  0  0  0  0  0  0  0  0  0
    0.0288   26.8567  -27.6246 H   0  0  0  0  0  0  0  0  0  0  0  0
  1  2  1  0
  2  3  1  0
  3  4  2  0
  4  5  1  0
  5  6  1  0
  6  7  2  0
  7  8  1  0
  7  9  1  0
  9 10  1  0
  9 11  2  0
 11 12  1  0
 11 13  1  0
 13 14  1  0
 13 15  2  0
 15 16  1  0
 16 17  1  0
 17 18  1  0
 17 19  1  0
 17 20  1  0
  4 21  1  0
 21 22  2  0
 22 23  1  0
 23 24  2  0
 24 25  1  0
 24 26  1  0
 26 27  1  0
 26 28  2  0
 28 29  1  0
 28 30  1  0
 30 31  1  0
 30 32  2  0
 32 33  1  0
 21 34  1  0
 34 35  1  0
 35 36  1  0
 35  2  2  0
 15  6  1  0
 32 23  1  0
M  CHG  1  34  -1
M  END
>  <UniqueID>  (40) 
39

>  <SMILES>  (40) 
COc1ccccc1Oc1ncc[n-]/c1=N/c1ccc(Cl)c(Cl)c1

>  <Energy>  (40) 
58.77613589988638

>  <Genealogy>  (40) 
COc1ccccc1Oc1ncc[n-]c1=Nc1ccc(Cl)c(Cl)c1 (protonated)
COc1ccccc1Oc1ncc[n-]/c1=N/c1ccc(Cl)c(Cl)c1 (cis-trans isomerization)
COc1ccccc1Oc1ncc[n-]/c1=N/c1ccc(Cl)c(Cl)c1 (3D coordinates assigned)
COc1ccccc1Oc1ncc[n-]/c1=N/c1ccc(Cl)c(Cl)c1 (optimized conformer: 58.77613589988638 kcal/mol)

>  <smiles>  (40) 
COc1ccccc1Oc1ncc[nH]c1=Nc1ccc(Cl)c(Cl)c1

>  <score_type>  (40) 
oracle

>  <origin>  (40) 
adgpu

>  <m_score__min__energy>  (40) 
-8.6699999999999999

>  <m_primary>  (40) 
energy

$$$$
40:0
     RDKit          3D

 48 50  0  0  0  0  0  0  0  0999 V2000
   -0.8640   25.2480  -24.1740 C   0  0  0  0  0  0  0  0  0  0  0  0
   -0.7990   25.9880  -25.4710 C   0  0  0  0  0  0  0  0  0  0  0  0
   -0.5350   27.3600  -25.4930 C   0  0  0  0  0  0  0  0  0  0  0  0
   -0.4800   28.0120  -26.7280 C   0  0  0  0  0  0  0  0  0  0  0  0
   -0.1750   29.4740  -26.8020 C   0  0  0  0  0  0  0  0  0  0  0  0
   -0.6680   27.3000  -27.8720 N   0  0  0  0  0  0  0  0  0  0  0  0
   -0.9230   25.9660  -27.8390 C   0  0  0  0  0  0  0  0  0  0  0  0
   -1.0990   25.3230  -28.9510 N   0  0  0  0  0  0  0  0  0  0  0  0
   -1.4220   23.6220  -29.0370 S   0  0  0  0  0  0  0  0  0  0  0  0
   -0.5670   22.9910  -30.1000 O   0  0  0  0  0  0  0  0  0  0  0  0
   -1.1180   22.9800  -27.7130 O   0  0  0  0  0  0  0  0  0  0  0  0
   -3.1180   23.3810  -29.4430 C   0  0  0  0  0  0  0  0  0  0  0  0
   -3.5170   22.2170  -30.1130 C   0  0  0  0  0  0  0  0  0  0  0  0
   -4.8620   22.0160  -30.4340 C   0  0  0  0  0  0  0  0  0  0  0  0
   -5.8250   22.9860  -30.1030 C   0  0  0  0  0  0  0  0  0  0  0  0
   -7.2200   22.7830  -30.3830 N   0  0  0  0  0  0  0  0  0  0  0  0
   -7.8280   23.0190  -31.6620 C   0  0  0  0  0  0  0  0  0  0  0  0
   -7.2240   23.7020  -32.5330 O   0  0  0  0  0  0  0  0  0  0  0  0
   -9.1540   22.4320  -31.9490 C   0  0  0  0  0  0  0  0  0  0  0  0
   -9.4060   21.1310  -32.1580 C   0  0  0  0  0  0  0  0  0  0  0  0
   -8.3800   20.0820  -32.3350 C   0  0  0  0  0  0  0  0  0  0  0  0
   -8.5630   18.8290  -31.7290 C   0  0  0  0  0  0  0  0  0  0  0  0
   -7.6300   17.8060  -31.9270 C   0  0  0  0  0  0  0  0  0  0  0  0
   -6.5200   18.0210  -32.7500 C   0  0  0  0  0  0  0  0  0  0  0  0
   -6.3460   19.2560  -33.3810 C   0  0  0  0  0  0  0  0  0  0  0  0
   -7.2760   20.2820  -33.1830 C   0  0  0  0  0  0  0  0  0  0  0  0
   -5.4200   24.1450  -29.4240 C   0  0  0  0  0  0  0  0  0  0  0  0
   -4.0750   24.3470  -29.1050 C   0  0  0  0  0  0  0  0  0  0  0  0
   -0.9870   25.3210  -26.6410 N   0  0  0  0  0  0  0  0  0  0  0  0
   -0.8012   25.9630  -23.3404 H   0  0  0  0  0  0  0  0  0  0  0  0
   -1.8140   24.6968  -24.1135 H   0  0  0  0  0  0  0  0  0  0  0  0
   -0.0246   24.5396  -24.1135 H   0  0  0  0  0  0  0  0  0  0  0  0
   -0.3738   27.9156  -24.5574 H   0  0  0  0  0  0  0  0  0  0  0  0
   -0.0897   29.8827  -25.7843 H   0  0  0  0  0  0  0  0  0  0  0  0
    0.7738   29.6240  -27.3381 H   0  0  0  0  0  0  0  0  0  0  0  0
   -0.9847   29.9908  -27.3381 H   0  0  0  0  0  0  0  0  0  0  0  0
   -2.7688   21.4587  -30.3873 H   0  0  0  0  0  0  0  0  0  0  0  0
   -5.1694   21.0937  -30.9486 H   0  0  0  0  0  0  0  0  0  0  0  0
   -7.8440   22.5000  -29.5930 H   0  0  0  0  0  0  0  0  0  0  0  0
  -10.0090   23.1225  -31.9952 H   0  0  0  0  0  0  0  0  0  0  0  0
  -10.4603   20.8202  -32.2011 H   0  0  0  0  0  0  0  0  0  0  0  0
   -9.4444   18.6509  -31.0954 H   0  0  0  0  0  0  0  0  0  0  0  0
   -7.7694   16.8320  -31.4352 H   0  0  0  0  0  0  0  0  0  0  0  0
   -5.7836   17.2179  -32.9008 H   0  0  0  0  0  0  0  0  0  0  0  0
   -5.4765   19.4214  -34.0342 H   0  0  0  0  0  0  0  0  0  0  0  0
   -7.1434   21.2481  -33.6921 H   0  0  0  0  0  0  0  0  0  0  0  0
   -6.1674   24.9006  -29.1406 H   0  0  0  0  0  0  0  0  0  0  0  0
   -3.7664   25.2670  -28.5870 H   0  0  0  0  0  0  0  0  0  0  0  0
  1  2  1  0
  2  3  1  0
  3  4  2  0
  4  5  1  0
  4  6  1  0
  6  7  1  0
  7  8  2  3
  8  9  1  0
  9 10  2  0
  9 11  2  0
  9 12  1  0
 12 13  2  0
 13 14  1  0
 14 15  2  0
 15 16  1  0
 16 17  1  0
 17 18  2  0
 17 19  1  0
 19 20  2  3
 20 21  1  0
 21 22  2  0
 22 23  1  0
 23 24  2  0
 24 25  1  0
 25 26  2  0
 15 27  1  0
 27 28  2  0
  7 29  1  0
 29  2  2  0
 28 12  1  0
 26 21  1  0
  1 30  1  0
  1 31  1  0
  1 32  1  0
  3 33  1  0
  5 34  1  0
  5 35  1  0
  5 36  1  0
 13 37  1  0
 14 38  1  0
 16 39  1  0
 19 40  1  0
 20 41  1  0
 22 42  1  0
 23 43  1  0
 24 44  1  0
 25 45  1  0
 26 46  1  0
 27 47  1  0
 28 48  1  0
M  CHG  1   6  -1
M  END
>  <UniqueID>  (41) 
40

>  <SMILES>  (41) 
Cc1cc(C)[n-]c(=NS(=O)(=O)c2ccc(NC(=O)C=Cc3ccccc3)cc2)n1

>  <Energy>  (41) 
63.49130344257587

>  <Genealogy>  (41) 
Cc1cc(C)[n-]c(=NS(=O)(=O)c2ccc(NC(=O)C=Cc3ccccc3)cc2)n1 (protonated)
Cc1cc(C)[n-]c(=NS(=O)(=O)c2ccc(NC(=O)C=Cc3ccccc3)cc2)n1 (3D coordinates assigned)
Cc1cc(C)[n-]c(=NS(=O)(=O)c2ccc(NC(=O)C=Cc3ccccc3)cc2)n1 (optimized conformer: 63.49130344257587 kcal/mol)

>  <smiles>  (41) 
Cc1cc(C)[nH]c(=NS(=O)(=O)c2ccc(NC(=O)C=Cc3ccccc3)cc2)n1

>  <score_type>  (41) 
oracle

>  <origin>  (41) 
adgpu

>  <m_score__min__energy>  (41) 
-10.44

>  <m_primary>  (41) 
energy

$$$$
41:0
     RDKit          3D

 33 35  0  0  0  0  0  0  0  0999 V2000
    0.6160   28.9580  -22.6550 H   0  0  0  0  0  0  0  0  0  0  0  0
    0.6570   27.9160  -22.7340 N   0  0  0  0  0  0  0  0  0  0  0  0
   -0.0030   27.2800  -23.6480 C   0  0  0  0  0  0  0  0  0  0  0  0
   -0.7730   27.9660  -24.5340 N   0  0  0  0  0  0  0  0  0  0  0  0
   -1.4740   27.3210  -25.5020 C   0  0  0  0  0  0  0  0  0  0  0  0
   -2.0898   27.8964  -26.2089 H   0  0  0  0  0  0  0  0  0  0  0  0
   -1.4150   25.9230  -25.6030 C   0  0  0  0  0  0  0  0  0  0  0  0
   -2.1720   25.1950  -26.6520 C   0  0  0  0  0  0  0  0  0  0  0  0
   -3.5380   24.9090  -26.4790 C   0  0  0  0  0  0  0  0  0  0  0  0
   -4.0496   25.2270  -25.5586 H   0  0  0  0  0  0  0  0  0  0  0  0
   -4.2510   24.2240  -27.4670 C   0  0  0  0  0  0  0  0  0  0  0  0
   -5.3191   24.0078  -27.3175 H   0  0  0  0  0  0  0  0  0  0  0  0
   -3.6150   23.8090  -28.6500 C   0  0  0  0  0  0  0  0  0  0  0  0
   -4.3730   23.0810  -29.7000 C   0  0  0  0  0  0  0  0  0  0  0  0
   -3.7460   22.0910  -30.4790 C   0  0  0  0  0  0  0  0  0  0  0  0
   -2.6853   21.8540  -30.3093 H   0  0  0  0  0  0  0  0  0  0  0  0
   -4.4600   21.4060  -31.4670 C   0  0  0  0  0  0  0  0  0  0  0  0
   -3.9599   20.6339  -32.0701 H   0  0  0  0  0  0  0  0  0  0  0  0
   -5.8100   21.7010  -31.6900 C   0  0  0  0  0  0  0  0  0  0  0  0
   -6.5440   20.9950  -32.7070 C   0  0  0  0  0  0  0  0  0  0  0  0
   -7.1350   20.4280  -33.5250 N   0  0  0  0  0  0  0  0  0  0  0  0
   -6.4430   22.6830  -30.9200 C   0  0  0  0  0  0  0  0  0  0  0  0
   -7.5041   22.9158  -31.0927 H   0  0  0  0  0  0  0  0  0  0  0  0
   -5.7310   23.3690  -29.9320 C   0  0  0  0  0  0  0  0  0  0  0  0
   -6.2359   24.1398  -29.3312 H   0  0  0  0  0  0  0  0  0  0  0  0
   -2.2500   24.0950  -28.8230 C   0  0  0  0  0  0  0  0  0  0  0  0
   -1.7383   23.7766  -29.7432 H   0  0  0  0  0  0  0  0  0  0  0  0
   -1.5370   24.7810  -27.8350 C   0  0  0  0  0  0  0  0  0  0  0  0
   -0.4692   24.9985  -27.9853 H   0  0  0  0  0  0  0  0  0  0  0  0
   -0.6140   25.2390  -24.6760 C   0  0  0  0  0  0  0  0  0  0  0  0
   -0.5409   24.1424  -24.7210 H   0  0  0  0  0  0  0  0  0  0  0  0
    0.0720   25.9230  -23.7230 N   0  0  0  0  0  0  0  0  0  0  0  0
    0.6660   25.3930  -23.0460 H   0  0  0  0  0  0  0  0  0  0  0  0
  1  2  1  0
  2  3  2  0
  3  4  1  0
  4  5  2  0
  5  6  1  0
  5  7  1  0
  7  8  1  0
  8  9  2  0
  9 10  1  0
  9 11  1  0
 11 12  1  0
 11 13  2  0
 13 14  1  0
 14 15  2  0
 15 16  1  0
 15 17  1  0
 17 18  1  0
 17 19  2  0
 19 20  1  0
 20 21  3  0
 19 22  1  0
 22 23  1  0
 22 24  2  0
 24 25  1  0
 13 26  1  0
 26 27  1  0
 26 28  2  0
 28 29  1  0
  7 30  2  0
 30 31  1  0
 30 32  1  0
 32 33  1  0
 32  3  1  0
 28  8  1  0
 24 14  1  0
M  END
>  <UniqueID>  (42) 
41

>  <SMILES>  (42) 
[H]/N=c1\ncc(-c2ccc(-c3ccc(C#N)cc3)cc2)c[nH]1

>  <Energy>  (42) 
46.0656391556523

>  <Genealogy>  (42) 
[H]/N=c1\ncc(-c2ccc(-c3ccc(C#N)cc3)cc2)c[nH]1 (cis-trans isomerization)
[H]/N=c1\ncc(-c2ccc(-c3ccc(C#N)cc3)cc2)c[nH]1 (3D coordinates assigned)
[H]/N=c1\ncc(-c2ccc(-c3ccc(C#N)cc3)cc2)c[nH]1 (optimized conformer: 46.0656391556523 kcal/mol)

>  <smiles>  (42) 
N#Cc1ccc(-c2ccc(-c3cnc(=N)[nH]c3)cc2)cc1

>  <score_type>  (42) 
oracle

>  <origin>  (42) 
adgpu

>  <m_score__min__energy>  (42) 
-7.3799999999999999

>  <m_primary>  (42) 
energy

$$$$
42:0
     RDKit          3D

 42 43  0  0  0  0  0  0  0  0999 V2000
   -5.3450   17.4110  -34.6250 C   0  0  0  0  0  0  0  0  0  0  0  0
   -5.2090   18.2620  -33.4930 O   0  0  0  0  0  0  0  0  0  0  0  0
   -6.2240   19.0980  -32.9960 C   0  0  0  0  0  0  0  0  0  0  0  0
   -7.5050   18.6040  -32.6810 C   0  0  0  0  0  0  0  0  0  0  0  0
   -8.4980   19.4630  -32.2040 C   0  0  0  0  0  0  0  0  0  0  0  0
   -8.2300   20.8230  -32.0410 C   0  0  0  0  0  0  0  0  0  0  0  0
   -9.4840   21.9000  -31.4560 Cl  0  0  0  0  0  0  0  0  0  0  0  0
   -6.9630   21.3270  -32.3490 C   0  0  0  0  0  0  0  0  0  0  0  0
   -5.9490   20.4710  -32.8120 C   0  0  0  0  0  0  0  0  0  0  0  0
   -4.6010   21.0410  -33.1690 C   0  0  0  0  0  0  0  0  0  0  0  0
   -3.5550   20.3640  -32.3900 N   0  0  0  0  0  0  0  0  0  0  0  0
   -3.7620   20.5250  -30.9430 C   0  0  0  0  0  0  0  0  0  0  0  0
   -3.2620   21.8600  -30.4430 C   0  0  0  0  0  0  0  0  0  0  0  0
   -2.1480   21.9200  -29.5960 C   0  0  0  0  0  0  0  0  0  0  0  0
   -1.7010   23.1480  -29.1040 C   0  0  0  0  0  0  0  0  0  0  0  0
   -2.3690   24.3390  -29.4470 C   0  0  0  0  0  0  0  0  0  0  0  0
   -1.9510   25.5920  -28.9700 O   0  0  0  0  0  0  0  0  0  0  0  0
   -1.3040   25.8020  -27.7200 C   0  0  0  0  0  0  0  0  0  0  0  0
   -3.4900   24.2860  -30.2910 C   0  0  0  0  0  0  0  0  0  0  0  0
   -4.1390   25.4900  -30.6110 O   0  0  0  0  0  0  0  0  0  0  0  0
   -5.5370   25.7170  -30.4570 C   0  0  0  0  0  0  0  0  0  0  0  0
   -3.9320   23.0440  -30.7850 C   0  0  0  0  0  0  0  0  0  0  0  0
   -5.5103   16.3768  -34.2885 H   0  0  0  0  0  0  0  0  0  0  0  0
   -6.2018   17.7408  -35.2308 H   0  0  0  0  0  0  0  0  0  0  0  0
   -4.4280   17.4574  -35.2308 H   0  0  0  0  0  0  0  0  0  0  0  0
   -7.7250   17.5342  -32.8116 H   0  0  0  0  0  0  0  0  0  0  0  0
   -9.4937   19.0665  -31.9562 H   0  0  0  0  0  0  0  0  0  0  0  0
   -6.7582   22.4010  -32.2281 H   0  0  0  0  0  0  0  0  0  0  0  0
   -4.4129   20.8903  -34.2423 H   0  0  0  0  0  0  0  0  0  0  0  0
   -4.5878   22.1166  -32.9391 H   0  0  0  0  0  0  0  0  0  0  0  0
   -3.5580   19.3430  -32.6250 H   0  0  0  0  0  0  0  0  0  0  0  0
   -4.8378   20.4457  -30.7275 H   0  0  0  0  0  0  0  0  0  0  0  0
   -3.1931   19.7360  -30.4293 H   0  0  0  0  0  0  0  0  0  0  0  0
   -1.6225   20.9948  -29.3169 H   0  0  0  0  0  0  0  0  0  0  0  0
   -0.8215   23.1851  -28.4443 H   0  0  0  0  0  0  0  0  0  0  0  0
   -2.0037   25.5749  -26.9022 H   0  0  0  0  0  0  0  0  0  0  0  0
   -0.4268   25.1424  -27.6458 H   0  0  0  0  0  0  0  0  0  0  0  0
   -0.9814   26.8510  -27.6458 H   0  0  0  0  0  0  0  0  0  0  0  0
   -5.7861   25.7575  -29.3864 H   0  0  0  0  0  0  0  0  0  0  0  0
   -5.8082   26.6709  -30.9329 H   0  0  0  0  0  0  0  0  0  0  0  0
   -6.0961   24.8979  -30.9329 H   0  0  0  0  0  0  0  0  0  0  0  0
   -4.8108   23.0016  -31.4452 H   0  0  0  0  0  0  0  0  0  0  0  0
  1  2  1  0
  2  3  1  0
  3  4  2  0
  4  5  1  0
  5  6  2  0
  6  7  1  0
  6  8  1  0
  8  9  2  0
  9 10  1  0
 10 11  1  0
 11 12  1  0
 12 13  1  0
 13 14  2  0
 14 15  1  0
 15 16  2  0
 16 17  1  0
 17 18  1  0
 16 19  1  0
 19 20  1  0
 20 21  1  0
 19 22  2  0
  9  3  1  0
 22 13  1  0
  1 23  1  0
  1 24  1  0
  1 25  1  0
  4 26  1  0
  5 27  1  0
  8 28  1  0
 10 29  1  0
 10 30  1  0
 11 31  1  0
 12 32  1  0
 12 33  1  0
 14 34  1  0
 15 35  1  0
 18 36  1  0
 18 37  1  0
 18 38  1  0
 21 39  1  0
 21 40  1  0
 21 41  1  0
 22 42  1  0
M  END
>  <UniqueID>  (43) 
42

>  <SMILES>  (43) 
COc1ccc(Cl)cc1CNCc1ccc(OC)c(OC)c1

>  <Energy>  (43) 
39.36452708446557

>  <Genealogy>  (43) 
COc1ccc(Cl)cc1CNCc1ccc(OC)c(OC)c1 (3D coordinates assigned)
COc1ccc(Cl)cc1CNCc1ccc(OC)c(OC)c1 (optimized conformer: 39.36452708446557 kcal/mol)

>  <smiles>  (43) 
COc1ccc(Cl)cc1CNCc1ccc(OC)c(OC)c1

>  <score_type>  (43) 
oracle

>  <origin>  (43) 
adgpu

>  <m_score__min__energy>  (43) 
-8.2300000000000004

>  <m_primary>  (43) 
energy

$$$$
43:0
     RDKit          3D

 31 32  0  0  0  0  0  0  0  0999 V2000
   -9.4340   21.5440  -30.5570 C   0  0  0  0  0  0  0  0  0  0  0  0
   -8.5650   20.8170  -31.5450 C   0  0  0  0  0  0  0  0  0  0  0  0
   -8.7330   19.4360  -31.7440 C   0  0  0  0  0  0  0  0  0  0  0  0
   -7.9380   18.7510  -32.6650 C   0  0  0  0  0  0  0  0  0  0  0  0
   -6.9710   19.4320  -33.4130 C   0  0  0  0  0  0  0  0  0  0  0  0
   -6.1840   18.7110  -34.3750 N   0  0  0  0  0  0  0  0  0  0  0  0
   -5.0020   17.9600  -34.0490 C   0  0  0  0  0  0  0  0  0  0  0  0
   -4.6180   16.6490  -34.9490 S   0  0  0  0  0  0  0  0  0  0  0  0
   -4.1500   18.3280  -32.9520 N   0  0  0  0  0  0  0  0  0  0  0  0
   -3.9640   19.6790  -32.4960 C   0  0  0  0  0  0  0  0  0  0  0  0
   -3.3370   20.6110  -33.3360 C   0  0  0  0  0  0  0  0  0  0  0  0
   -3.1290   21.9240  -32.9040 C   0  0  0  0  0  0  0  0  0  0  0  0
   -3.5580   22.3210  -31.6350 C   0  0  0  0  0  0  0  0  0  0  0  0
   -3.3540   23.5940  -31.2170 F   0  0  0  0  0  0  0  0  0  0  0  0
   -4.2060   21.4060  -30.7990 C   0  0  0  0  0  0  0  0  0  0  0  0
   -4.4150   20.0910  -31.2290 C   0  0  0  0  0  0  0  0  0  0  0  0
   -6.7760   20.8070  -33.1940 C   0  0  0  0  0  0  0  0  0  0  0  0
   -7.5730   21.5010  -32.2760 C   0  0  0  0  0  0  0  0  0  0  0  0
   -7.3060   23.2280  -32.0670 Cl  0  0  0  0  0  0  0  0  0  0  0  0
   -9.1232   21.2840  -29.5344 H   0  0  0  0  0  0  0  0  0  0  0  0
   -9.3311   22.6289  -30.7068 H   0  0  0  0  0  0  0  0  0  0  0  0
  -10.4837   21.2511  -30.7068 H   0  0  0  0  0  0  0  0  0  0  0  0
   -9.4965   18.8906  -31.1699 H   0  0  0  0  0  0  0  0  0  0  0  0
   -8.0728   17.6681  -32.8036 H   0  0  0  0  0  0  0  0  0  0  0  0
   -6.4890   18.7310  -35.3750 H   0  0  0  0  0  0  0  0  0  0  0  0
   -3.6330   17.5670  -32.4560 H   0  0  0  0  0  0  0  0  0  0  0  0
   -3.0071   20.3069  -34.3404 H   0  0  0  0  0  0  0  0  0  0  0  0
   -2.6266   22.6461  -33.5644 H   0  0  0  0  0  0  0  0  0  0  0  0
   -4.5515   21.7203  -29.8031 H   0  0  0  0  0  0  0  0  0  0  0  0
   -4.9342   19.3764  -30.5734 H   0  0  0  0  0  0  0  0  0  0  0  0
   -5.9908   21.3418  -33.7485 H   0  0  0  0  0  0  0  0  0  0  0  0
  1  2  1  0
  2  3  2  0
  3  4  1  0
  4  5  2  0
  5  6  1  0
  6  7  1  0
  7  8  2  0
  7  9  1  0
  9 10  1  0
 10 11  2  0
 11 12  1  0
 12 13  2  0
 13 14  1  0
 13 15  1  0
 15 16  2  0
  5 17  1  0
 17 18  2  0
 18 19  1  0
 18  2  1  0
 16 10  1  0
  1 20  1  0
  1 21  1  0
  1 22  1  0
  3 23  1  0
  4 24  1  0
  6 25  1  0
  9 26  1  0
 11 27  1  0
 12 28  1  0
 15 29  1  0
 16 30  1  0
 17 31  1  0
M  END
>  <UniqueID>  (44) 
43

>  <SMILES>  (44) 
Cc1ccc(NC(=S)Nc2ccc(F)cc2)cc1Cl

>  <Energy>  (44) 
37.684261460518485

>  <Genealogy>  (44) 
Cc1ccc(NC(=S)Nc2ccc(F)cc2)cc1Cl (3D coordinates assigned)
Cc1ccc(NC(=S)Nc2ccc(F)cc2)cc1Cl (optimized conformer: 37.684261460518485 kcal/mol)

>  <smiles>  (44) 
Cc1ccc(NC(=S)Nc2ccc(F)cc2)cc1Cl

>  <score_type>  (44) 
oracle

>  <origin>  (44) 
adgpu

>  <m_score__min__energy>  (44) 
-6.9500000000000002

>  <m_primary>  (44) 
energy

$$$$
44:0
     RDKit          3D

 31 33  0  0  0  0  0  0  0  0999 V2000
   -2.3480   24.6310  -28.7940 Cl  0  0  0  0  0  0  0  0  0  0  0  0
   -3.8200   24.2260  -29.6590 C   0  0  0  0  0  0  0  0  0  0  0  0
   -5.0060   24.9120  -29.3800 C   0  0  0  0  0  0  0  0  0  0  0  0
   -6.1790   24.5930  -30.0710 C   0  0  0  0  0  0  0  0  0  0  0  0
   -6.1730   23.5830  -31.0470 C   0  0  0  0  0  0  0  0  0  0  0  0
   -7.4350   23.2600  -31.8050 C   0  0  0  0  0  0  0  0  0  0  0  0
   -7.2210   22.1320  -32.7170 N   0  0  0  0  0  0  0  0  0  0  0  0
   -7.6150   20.7770  -32.4300 C   0  0  0  0  0  0  0  0  0  0  0  0
   -8.6530   20.5590  -31.5100 C   0  0  0  0  0  0  0  0  0  0  0  0
   -9.0960   19.2650  -31.2210 C   0  0  0  0  0  0  0  0  0  0  0  0
   -8.5000   18.1650  -31.8400 C   0  0  0  0  0  0  0  0  0  0  0  0
   -7.4490   18.3560  -32.7390 C   0  0  0  0  0  0  0  0  0  0  0  0
   -6.8460   17.2880  -33.3260 N   0  0  0  0  0  0  0  0  0  0  0  0
   -5.8060   17.4520  -34.1860 C   0  0  0  0  0  0  0  0  0  0  0  0
   -5.3410   18.7380  -34.4660 C   0  0  0  0  0  0  0  0  0  0  0  0
   -5.9420   19.8080  -33.8830 N   0  0  0  0  0  0  0  0  0  0  0  0
   -6.9940   19.6610  -33.0350 C   0  0  0  0  0  0  0  0  0  0  0  0
   -4.9790   22.8930  -31.3170 C   0  0  0  0  0  0  0  0  0  0  0  0
   -3.8080   23.2160  -30.6260 C   0  0  0  0  0  0  0  0  0  0  0  0
   -5.0163   25.7034  -28.6161 H   0  0  0  0  0  0  0  0  0  0  0  0
   -7.1101   25.1352  -29.8494 H   0  0  0  0  0  0  0  0  0  0  0  0
   -8.2287   22.9995  -31.0894 H   0  0  0  0  0  0  0  0  0  0  0  0
   -7.7261   24.1408  -32.3962 H   0  0  0  0  0  0  0  0  0  0  0  0
   -6.5460   22.2870  -33.5010 H   0  0  0  0  0  0  0  0  0  0  0  0
   -9.1240   21.4181  -31.0099 H   0  0  0  0  0  0  0  0  0  0  0  0
   -9.9163   19.1133  -30.5040 H   0  0  0  0  0  0  0  0  0  0  0  0
   -8.8581   17.1485  -31.6197 H   0  0  0  0  0  0  0  0  0  0  0  0
   -5.3343   16.5775  -34.6579 H   0  0  0  0  0  0  0  0  0  0  0  0
   -4.4946   18.8840  -35.1533 H   0  0  0  0  0  0  0  0  0  0  0  0
   -4.9660   22.0959  -32.0749 H   0  0  0  0  0  0  0  0  0  0  0  0
   -2.8753   22.6748  -30.8432 H   0  0  0  0  0  0  0  0  0  0  0  0
  1  2  1  0
  2  3  2  0
  3  4  1  0
  4  5  2  0
  5  6  1  0
  6  7  1  0
  7  8  1  0
  8  9  2  0
  9 10  1  0
 10 11  2  0
 11 12  1  0
 12 13  2  0
 13 14  1  0
 14 15  2  0
 15 16  1  0
 16 17  2  0
  5 18  1  0
 18 19  2  0
 19  2  1  0
 17  8  1  0
 17 12  1  0
  3 20  1  0
  4 21  1  0
  6 22  1  0
  6 23  1  0
  7 24  1  0
  9 25  1  0
 10 26  1  0
 11 27  1  0
 14 28  1  0
 15 29  1  0
 18 30  1  0
 19 31  1  0
M  END
>  <UniqueID>  (45) 
44

>  <SMILES>  (45) 
Clc1ccc(CNc2cccc3nccnc23)cc1

>  <Energy>  (45) 
39.77104746817479

>  <Genealogy>  (45) 
Clc1ccc(CNc2cccc3nccnc23)cc1 (3D coordinates assigned)
Clc1ccc(CNc2cccc3nccnc23)cc1 (optimized conformer: 39.77104746817479 kcal/mol)

>  <smiles>  (45) 
Clc1ccc(CNc2cccc3nccnc23)cc1

>  <score_type>  (45) 
oracle

>  <origin>  (45) 
adgpu

>  <m_score__min__energy>  (45) 
-7.4699999999999998

>  <m_primary>  (45) 
energy

$$$$
45:0
     RDKit          3D

 41 43  0  0  1  0  0  0  0  0999 V2000
   -9.1290   19.8160  -33.0720 N   0  0  0  0  0  0  0  0  0  0  0  0
   -7.8750   19.9950  -32.8480 C   0  0  0  0  0  0  0  0  0  0  0  0
   -6.9440   19.0520  -33.0760 N   0  0  0  0  0  0  0  0  0  0  0  0
   -5.6370   19.2720  -32.8300 C   0  0  0  0  0  0  0  0  0  0  0  0
   -4.6500   18.3200  -33.0550 O   0  0  0  0  0  0  0  0  0  0  0  0
   -3.8670   18.1910  -34.1920 C   0  0  0  0  0  0  0  0  0  0  0  0
   -4.6710   17.4600  -35.2540 C   0  0  0  0  0  0  0  0  0  0  0  0
   -6.1040   17.4740  -34.9540 N   0  0  0  0  0  0  0  0  0  0  0  0
   -5.2320   20.4680  -32.3390 N   0  0  0  0  0  0  0  0  0  0  0  0
   -6.1030   21.4700  -32.0820 C   0  0  0  0  0  0  0  0  0  0  0  0
   -7.4330   21.1990  -32.3490 C   0  0  0  0  0  0  0  0  0  0  0  0
   -8.0990   22.3050  -32.0280 N   0  0  0  0  0  0  0  0  0  0  0  0
   -7.2250   23.2370  -31.5740 C   0  0  0  0  0  0  0  0  0  0  0  0
   -5.9770   22.7330  -31.6020 N   0  0  0  0  0  0  0  0  0  0  0  0
   -4.7250   23.3310  -31.2230 C   0  0  2  0  0  0  0  0  0  0  0  0
   -3.9120   22.5320  -30.2740 C   0  0  0  0  0  0  0  0  0  0  0  0
   -3.2180   23.3580  -29.2030 C   0  0  0  0  0  0  0  0  0  0  0  0
   -4.2260   23.9810  -28.2890 C   0  0  0  0  0  0  0  0  0  0  0  0
   -5.3770   24.4810  -29.1140 C   0  0  0  0  0  0  0  0  0  0  0  0
   -4.9690   24.6770  -30.5690 C   0  0  1  0  0  0  0  0  0  0  0  0
   -3.8690   25.5350  -30.6780 O   0  0  0  0  0  0  0  0  0  0  0  0
   -9.4310   18.8720  -33.4580 H   0  0  0  0  0  0  0  0  0  0  0  0
   -3.5839   19.1875  -34.5620 H   0  0  0  0  0  0  0  0  0  0  0  0
   -2.9533   17.6254  -33.9568 H   0  0  0  0  0  0  0  0  0  0  0  0
   -4.5055   17.9486  -36.2255 H   0  0  0  0  0  0  0  0  0  0  0  0
   -4.3359   16.4125  -35.2771 H   0  0  0  0  0  0  0  0  0  0  0  0
   -6.5300   18.4110  -35.1370 H   0  0  0  0  0  0  0  0  0  0  0  0
   -6.2510   17.1790  -33.9510 H   0  0  0  0  0  0  0  0  0  0  0  0
   -4.2420   20.6360  -32.1520 H   0  0  0  0  0  0  0  0  0  0  0  0
   -7.4941   24.2484  -31.2352 H   0  0  0  0  0  0  0  0  0  0  0  0
   -4.1616   23.4088  -32.1646 H   0  0  0  0  0  0  0  0  0  0  0  0
   -4.5740   21.8077  -29.7768 H   0  0  0  0  0  0  0  0  0  0  0  0
   -3.1199   22.0481  -30.8643 H   0  0  0  0  0  0  0  0  0  0  0  0
   -2.5521   22.7067  -28.6179 H   0  0  0  0  0  0  0  0  0  0  0  0
   -2.6363   24.1553  -29.6887 H   0  0  0  0  0  0  0  0  0  0  0  0
   -4.5849   23.2321  -27.5677 H   0  0  0  0  0  0  0  0  0  0  0  0
   -3.7682   24.8158  -27.7381 H   0  0  0  0  0  0  0  0  0  0  0  0
   -6.1967   23.7490  -29.0669 H   0  0  0  0  0  0  0  0  0  0  0  0
   -5.6995   25.4517  -28.7093 H   0  0  0  0  0  0  0  0  0  0  0  0
   -5.7929   25.1660  -31.1095 H   0  0  0  0  0  0  0  0  0  0  0  0
   -3.6470   25.6690  -31.6320 H   0  0  0  0  0  0  0  0  0  0  0  0
  1  2  2  3
  2  3  1  0
  3  4  2  0
  4  5  1  0
  5  6  1  0
  6  7  1  0
  7  8  1  0
  4  9  1  0
  9 10  1  0
 10 11  2  0
 11 12  1  0
 12 13  2  0
 13 14  1  0
 14 15  1  0
 15 16  1  0
 16 17  1  0
 17 18  1  0
 18 19  1  0
 19 20  1  0
 20 21  1  0
 11  2  1  0
 20 15  1  0
 14 10  1  0
  1 22  1  0
  6 23  1  0
  6 24  1  0
  7 25  1  0
  7 26  1  0
  8 27  1  0
  8 28  1  0
  9 29  1  0
 13 30  1  0
 15 31  1  6
 16 32  1  0
 16 33  1  0
 17 34  1  0
 17 35  1  0
 18 36  1  0
 18 37  1  0
 19 38  1  0
 19 39  1  0
 20 40  1  6
 21 41  1  0
M  END
>  <smiles>  (46) 
N=c1nc(OCCN)[nH]c2c1ncn2C1CCCCC1O

>  <score_type>  (46) 
oracle

>  <origin>  (46) 
adgpu

>  <m_score__min__energy>  (46) 
-7.7800000000000002

>  <m_primary>  (46) 
energy

$$$$
46:0
     RDKit          3D

 39 42  0  0  0  0  0  0  0  0999 V2000
   -1.9410   25.0550  -28.1860 C   0  0  0  0  0  0  0  0  0  0  0  0
   -2.7350   25.2730  -29.3480 O   0  0  0  0  0  0  0  0  0  0  0  0
   -3.5070   24.2850  -29.9770 C   0  0  0  0  0  0  0  0  0  0  0  0
   -4.6320   24.5950  -30.7660 C   0  0  0  0  0  0  0  0  0  0  0  0
   -5.3690   23.5740  -31.3730 C   0  0  0  0  0  0  0  0  0  0  0  0
   -4.9950   22.2330  -31.2040 C   0  0  0  0  0  0  0  0  0  0  0  0
   -5.7570   21.1810  -31.8300 N   0  0  0  0  0  0  0  0  0  0  0  0
   -5.1070   20.1360  -32.4430 C   0  0  0  0  0  0  0  0  0  0  0  0
   -3.8460   20.1220  -32.5000 O   0  0  0  0  0  0  0  0  0  0  0  0
   -5.8530   19.0980  -33.0450 C   0  0  0  0  0  0  0  0  0  0  0  0
   -5.2100   17.9380  -33.7090 C   0  0  0  0  0  0  0  0  0  0  0  0
   -4.1250   18.1110  -34.5900 C   0  0  0  0  0  0  0  0  0  0  0  0
   -3.5190   17.0030  -35.1900 C   0  0  0  0  0  0  0  0  0  0  0  0
   -3.9780   15.7150  -34.9090 C   0  0  0  0  0  0  0  0  0  0  0  0
   -5.0420   15.5310  -34.0230 C   0  0  0  0  0  0  0  0  0  0  0  0
   -5.6510   16.6360  -33.4200 C   0  0  0  0  0  0  0  0  0  0  0  0
   -7.2110   19.1730  -33.0390 N   0  0  0  0  0  0  0  0  0  0  0  0
   -7.8590   20.2040  -32.4470 C   0  0  0  0  0  0  0  0  0  0  0  0
   -9.2520   20.2670  -32.4330 C   0  0  0  0  0  0  0  0  0  0  0  0
   -9.8720   21.3060  -31.8160 N   0  0  0  0  0  0  0  0  0  0  0  0
   -9.1560   22.2880  -31.2080 C   0  0  0  0  0  0  0  0  0  0  0  0
   -7.7980   22.2440  -31.2130 N   0  0  0  0  0  0  0  0  0  0  0  0
   -7.1270   21.2270  -31.8230 C   0  0  0  0  0  0  0  0  0  0  0  0
   -3.8750   21.9250  -30.4160 C   0  0  0  0  0  0  0  0  0  0  0  0
   -3.1380   22.9450  -29.8100 C   0  0  0  0  0  0  0  0  0  0  0  0
   -2.5526   25.2229  -27.2872 H   0  0  0  0  0  0  0  0  0  0  0  0
   -1.5664   24.0208  -28.1866 H   0  0  0  0  0  0  0  0  0  0  0  0
   -1.0908   25.7529  -28.1866 H   0  0  0  0  0  0  0  0  0  0  0  0
   -4.9316   25.6442  -30.9050 H   0  0  0  0  0  0  0  0  0  0  0  0
   -6.2471   23.8238  -31.9866 H   0  0  0  0  0  0  0  0  0  0  0  0
   -3.7524   19.1229  -34.8072 H   0  0  0  0  0  0  0  0  0  0  0  0
   -2.6786   17.1466  -35.8851 H   0  0  0  0  0  0  0  0  0  0  0  0
   -3.5019   14.8452  -35.3852 H   0  0  0  0  0  0  0  0  0  0  0  0
   -5.4013   14.5157  -33.7993 H   0  0  0  0  0  0  0  0  0  0  0  0
   -6.4812   16.4846  -32.7144 H   0  0  0  0  0  0  0  0  0  0  0  0
   -9.8458   19.4790  -32.9193 H   0  0  0  0  0  0  0  0  0  0  0  0
   -9.6766   23.1198  -30.7110 H   0  0  0  0  0  0  0  0  0  0  0  0
   -3.5764   20.8757  -30.2751 H   0  0  0  0  0  0  0  0  0  0  0  0
   -2.2604   22.6933  -29.1965 H   0  0  0  0  0  0  0  0  0  0  0  0
  1  2  1  0
  2  3  1  0
  3  4  2  0
  4  5  1  0
  5  6  2  0
  6  7  1  0
  7  8  1  0
  8  9  2  0
  8 10  1  0
 10 11  1  0
 11 12  2  0
 12 13  1  0
 13 14  2  0
 14 15  1  0
 15 16  2  0
 10 17  2  0
 17 18  1  0
 18 19  2  0
 19 20  1  0
 20 21  2  0
 21 22  1  0
 22 23  2  0
  6 24  1  0
 24 25  2  0
 25  3  1  0
 23  7  1  0
 16 11  1  0
 23 18  1  0
  1 26  1  0
  1 27  1  0
  1 28  1  0
  4 29  1  0
  5 30  1  0
 12 31  1  0
 13 32  1  0
 14 33  1  0
 15 34  1  0
 16 35  1  0
 19 36  1  0
 21 37  1  0
 24 38  1  0
 25 39  1  0
M  END
>  <UniqueID>  (47) 
45

>  <SMILES>  (47) 
COc1ccc(-n2c(=O)c(-c3ccccc3)nc3cncnc32)cc1

>  <Energy>  (47) 
64.08070504568606

>  <Genealogy>  (47) 
COc1ccc(-n2c(=O)c(-c3ccccc3)nc3cncnc32)cc1 (3D coordinates assigned)
COc1ccc(-n2c(=O)c(-c3ccccc3)nc3cncnc32)cc1 (optimized conformer: 64.08070504568606 kcal/mol)

>  <smiles>  (47) 
COc1ccc(-n2c(=O)c(-c3ccccc3)nc3cncnc32)cc1

>  <score_type>  (47) 
oracle

>  <origin>  (47) 
adgpu

>  <m_score__min__energy>  (47) 
-8.2300000000000004

>  <m_primary>  (47) 
energy

$$$$
47:0
     RDKit          3D

 27 28  0  0  0  0  0  0  0  0999 V2000
   -5.7520   26.0370  -30.1080 C   0  0  0  0  0  0  0  0  0  0  0  0
   -6.7670   24.5690  -30.4620 S   0  0  0  0  0  0  0  0  0  0  0  0
   -5.4010   23.6710  -31.1970 C   0  0  0  0  0  0  0  0  0  0  0  0
   -4.1120   23.8360  -30.8430 N   0  0  0  0  0  0  0  0  0  0  0  0
   -3.3960   23.0080  -31.5940 N   0  0  0  0  0  0  0  0  0  0  0  0
   -4.2590   22.3500  -32.3950 C   0  0  0  0  0  0  0  0  0  0  0  0
   -3.8470   21.2880  -33.3620 C   0  0  0  0  0  0  0  0  0  0  0  0
   -5.5210   22.7690  -32.1810 N   0  0  0  0  0  0  0  0  0  0  0  0
   -6.7160   22.2780  -32.7380 N   0  0  0  0  0  0  0  0  0  0  0  0
   -7.2510   20.9890  -32.3970 C   0  0  0  0  0  0  0  0  0  0  0  0
   -6.5510   19.8080  -32.6990 C   0  0  0  0  0  0  0  0  0  0  0  0
   -7.0980   18.5620  -32.3750 C   0  0  0  0  0  0  0  0  0  0  0  0
   -8.3500   18.4870  -31.7590 C   0  0  0  0  0  0  0  0  0  0  0  0
   -9.0600   19.6560  -31.4730 C   0  0  0  0  0  0  0  0  0  0  0  0
   -8.5160   20.9030  -31.7960 C   0  0  0  0  0  0  0  0  0  0  0  0
   -5.6622   26.1669  -29.0194 H   0  0  0  0  0  0  0  0  0  0  0  0
   -4.7513   25.9050  -30.5453 H   0  0  0  0  0  0  0  0  0  0  0  0
   -6.2288   26.9266  -30.5453 H   0  0  0  0  0  0  0  0  0  0  0  0
   -3.5032   20.4017  -32.8087 H   0  0  0  0  0  0  0  0  0  0  0  0
   -4.7046   21.0154  -33.9946 H   0  0  0  0  0  0  0  0  0  0  0  0
   -3.0299   21.6651  -33.9946 H   0  0  0  0  0  0  0  0  0  0  0  0
   -7.1780   22.8280  -33.4960 H   0  0  0  0  0  0  0  0  0  0  0  0
   -5.5693   19.8639  -33.1920 H   0  0  0  0  0  0  0  0  0  0  0  0
   -6.5424   17.6410  -32.6052 H   0  0  0  0  0  0  0  0  0  0  0  0
   -8.7769   17.5071  -31.4991 H   0  0  0  0  0  0  0  0  0  0  0  0
  -10.0480   19.5952  -30.9932 H   0  0  0  0  0  0  0  0  0  0  0  0
   -9.0822   21.8205  -31.5780 H   0  0  0  0  0  0  0  0  0  0  0  0
  1  2  1  0
  2  3  1  0
  3  4  2  0
  4  5  1  0
  5  6  2  0
  6  7  1  0
  6  8  1  0
  8  9  1  0
  9 10  1  0
 10 11  2  0
 11 12  1  0
 12 13  2  0
 13 14  1  0
 14 15  2  0
  8  3  1  0
 15 10  1  0
  1 16  1  0
  1 17  1  0
  1 18  1  0
  7 19  1  0
  7 20  1  0
  7 21  1  0
  9 22  1  0
 11 23  1  0
 12 24  1  0
 13 25  1  0
 14 26  1  0
 15 27  1  0
M  END
>  <UniqueID>  (48) 
46

>  <SMILES>  (48) 
CSc1nnc(C)n1Nc1ccccc1

>  <Energy>  (48) 
63.261089489045744

>  <Genealogy>  (48) 
CSc1nnc(C)n1Nc1ccccc1 (3D coordinates assigned)
CSc1nnc(C)n1Nc1ccccc1 (optimized conformer: 63.261089489045744 kcal/mol)

>  <smiles>  (48) 
CSc1nnc(C)n1Nc1ccccc1

>  <score_type>  (48) 
oracle

>  <origin>  (48) 
adgpu

>  <m_score__min__energy>  (48) 
-6.6699999999999999

>  <m_primary>  (48) 
energy

$$$$
48:0
     RDKit          3D

 32 33  0  0  0  0  0  0  0  0999 V2000
   -9.6877   19.4167  -31.6310 H   0  0  0  0  0  0  0  0  0  0  0  0
   -8.8980   19.0570  -32.3070 C   0  0  0  0  0  0  0  0  0  0  0  0
   -8.8660   19.4054  -33.3499 H   0  0  0  0  0  0  0  0  0  0  0  0
   -7.9810   18.2000  -31.8630 C   0  0  0  0  0  0  0  0  0  0  0  0
   -8.0340   17.8662  -30.8162 H   0  0  0  0  0  0  0  0  0  0  0  0
   -6.8910   17.6770  -32.7220 C   0  0  0  0  0  0  0  0  0  0  0  0
   -7.1500   16.5020  -33.4450 C   0  0  0  0  0  0  0  0  0  0  0  0
   -8.1552   16.0562  -33.4163 H   0  0  0  0  0  0  0  0  0  0  0  0
   -6.1460   15.8930  -34.2000 C   0  0  0  0  0  0  0  0  0  0  0  0
   -6.3618   14.9706  -34.7591 H   0  0  0  0  0  0  0  0  0  0  0  0
   -4.8700   16.4530  -34.2460 C   0  0  0  0  0  0  0  0  0  0  0  0
   -4.0740   15.9592  -34.8226 H   0  0  0  0  0  0  0  0  0  0  0  0
   -4.6010   17.6400  -33.5610 C   0  0  0  0  0  0  0  0  0  0  0  0
   -3.5917   18.0755  -33.6014 H   0  0  0  0  0  0  0  0  0  0  0  0
   -5.6070   18.2830  -32.8210 C   0  0  0  0  0  0  0  0  0  0  0  0
   -5.2700   19.5900  -32.2110 C   0  0  0  0  0  0  0  0  0  0  0  0
   -4.4864   19.6320  -31.4401 H   0  0  0  0  0  0  0  0  0  0  0  0
   -5.8900   20.7230  -32.5690 C   0  0  0  0  0  0  0  0  0  0  0  0
   -6.6783   20.6615  -33.3337 H   0  0  0  0  0  0  0  0  0  0  0  0
   -5.5770   22.0550  -31.9960 C   0  0  0  0  0  0  0  0  0  0  0  0
   -4.4650   22.1730  -31.1450 C   0  0  0  0  0  0  0  0  0  0  0  0
   -3.8507   21.2873  -30.9253 H   0  0  0  0  0  0  0  0  0  0  0  0
   -4.1320   23.4050  -30.5750 C   0  0  0  0  0  0  0  0  0  0  0  0
   -3.2546   23.4845  -29.9164 H   0  0  0  0  0  0  0  0  0  0  0  0
   -4.9110   24.5390  -30.8390 C   0  0  0  0  0  0  0  0  0  0  0  0
   -4.5710   25.7980  -30.2550 N   0  0  0  0  0  0  0  0  0  0  0  0
   -5.0200   26.1150  -29.3660 H   0  0  0  0  0  0  0  0  0  0  0  0
   -3.8670   26.4240  -30.7060 H   0  0  0  0  0  0  0  0  0  0  0  0
   -6.0310   24.4270  -31.6730 C   0  0  0  0  0  0  0  0  0  0  0  0
   -6.6499   25.3127  -31.8794 H   0  0  0  0  0  0  0  0  0  0  0  0
   -6.3670   23.1950  -32.2450 C   0  0  0  0  0  0  0  0  0  0  0  0
   -7.2527   23.1159  -32.8926 H   0  0  0  0  0  0  0  0  0  0  0  0
  1  2  1  0
  2  3  1  0
  2  4  2  0
  4  5  1  0
  4  6  1  0
  6  7  2  0
  7  8  1  0
  7  9  1  0
  9 10  1  0
  9 11  2  0
 11 12  1  0
 11 13  1  0
 13 14  1  0
 13 15  2  0
 15 16  1  0
 16 17  1  0
 16 18  2  0
 18 19  1  0
 18 20  1  0
 20 21  2  0
 21 22  1  0
 21 23  1  0
 23 24  1  0
 23 25  2  0
 25 26  1  0
 26 27  1  0
 26 28  1  0
 25 29  1  0
 29 30  1  0
 29 31  2  0
 31 32  1  0
 15  6  1  0
 31 20  1  0
M  END
>  <UniqueID>  (49) 
47

>  <SMILES>  (49) 
C=Cc1ccccc1/C=C/c1ccc(N)cc1

>  <Energy>  (49) 
43.70142154676742

>  <Genealogy>  (49) 
C=Cc1ccccc1/C=C/c1ccc(N)cc1 (cis-trans isomerization)
C=Cc1ccccc1/C=C/c1ccc(N)cc1 (3D coordinates assigned)
C=Cc1ccccc1/C=C/c1ccc(N)cc1 (optimized conformer: 43.70142154676742 kcal/mol)

>  <smiles>  (49) 
C=Cc1ccccc1C=Cc1ccc(N)cc1

>  <score_type>  (49) 
oracle

>  <origin>  (49) 
adgpu

>  <m_score__min__energy>  (49) 
-7.5599999999999996

>  <m_primary>  (49) 
energy

$$$$
