0:0
     RDKit          3D

 31 31  0  0  0  0  0  0  0  0999 V2000
   -2.5300   23.5130  -29.5880 C   0  0  0  0  0  0  0  0  0  0  0  0
   -3.8340   24.1000  -30.0190 C   0  0  0  0  0  0  0  0  0  0  0  0
   -3.8640   25.2750  -30.4750 O   0  0  0  0  0  0  0  0  0  0  0  0
   -5.0240   23.2960  -29.9860 N   0  0  0  0  0  0  0  0  0  0  0  0
   -6.3430   23.7920  -30.2710 C   0  0  0  0  0  0  0  0  0  0  0  0
   -6.7820   25.3010  -29.7960 S   0  0  0  0  0  0  0  0  0  0  0  0
   -7.3680   22.8900  -30.7160 N   0  0  0  0  0  0  0  0  0  0  0  0
   -7.1100   21.6960  -31.4760 C   0  0  0  0  0  0  0  0  0  0  0  0
   -8.0420   20.6510  -31.4540 C   0  0  0  0  0  0  0  0  0  0  0  0
   -7.8240   19.4890  -32.1970 C   0  0  0  0  0  0  0  0  0  0  0  0
   -6.6710   19.3480  -32.9970 C   0  0  0  0  0  0  0  0  0  0  0  0
   -6.4430   18.1390  -33.7690 N   0  0  0  0  0  0  0  0  0  0  0  0
   -6.9310   16.8410  -33.2860 C   0  0  0  0  0  0  0  0  0  0  0  0
   -5.7190   18.1930  -35.0450 C   0  0  0  0  0  0  0  0  0  0  0  0
   -5.7490   20.4140  -33.0310 C   0  0  0  0  0  0  0  0  0  0  0  0
   -5.9700   21.5760  -32.2860 C   0  0  0  0  0  0  0  0  0  0  0  0
   -2.4828   23.4917  -28.4892 H   0  0  0  0  0  0  0  0  0  0  0  0
   -2.4421   22.4885  -29.9787 H   0  0  0  0  0  0  0  0  0  0  0  0
   -1.7047   24.1265  -29.9787 H   0  0  0  0  0  0  0  0  0  0  0  0
   -4.9160   22.2740  -29.7970 H   0  0  0  0  0  0  0  0  0  0  0  0
   -8.3590   23.1040  -30.4600 H   0  0  0  0  0  0  0  0  0  0  0  0
   -8.9538   20.7464  -30.8461 H   0  0  0  0  0  0  0  0  0  0  0  0
   -8.5609   18.6732  -32.1579 H   0  0  0  0  0  0  0  0  0  0  0  0
   -6.9328   16.8362  -32.1860 H   0  0  0  0  0  0  0  0  0  0  0  0
   -7.9536   16.6733  -33.6551 H   0  0  0  0  0  0  0  0  0  0  0  0
   -6.2722   16.0412  -33.6551 H   0  0  0  0  0  0  0  0  0  0  0  0
   -4.6393   18.2735  -34.8508 H   0  0  0  0  0  0  0  0  0  0  0  0
   -5.9208   17.2773  -35.6201 H   0  0  0  0  0  0  0  0  0  0  0  0
   -6.0544   19.0686  -35.6201 H   0  0  0  0  0  0  0  0  0  0  0  0
   -4.8445   20.3303  -33.6514 H   0  0  0  0  0  0  0  0  0  0  0  0
   -5.2454   22.4022  -32.3349 H   0  0  0  0  0  0  0  0  0  0  0  0
  1  2  1  0
  2  3  2  0
  2  4  1  0
  4  5  1  0
  5  6  2  0
  5  7  1  0
  7  8  1  0
  8  9  2  0
  9 10  1  0
 10 11  2  0
 11 12  1  0
 12 13  1  0
 12 14  1  0
 11 15  1  0
 15 16  2  0
 16  8  1  0
  1 17  1  0
  1 18  1  0
  1 19  1  0
  4 20  1  0
  7 21  1  0
  9 22  1  0
 10 23  1  0
 13 24  1  0
 13 25  1  0
 13 26  1  0
 14 27  1  0
 14 28  1  0
 14 29  1  0
 15 30  1  0
 16 31  1  0
M  END
>  <UniqueID>  (1) 
1

>  <SMILES>  (1) 
CC(=O)NC(=S)Nc1ccc(N(C)C)cc1

>  <Energy>  (1) 
33.96967454984994

>  <Genealogy>  (1) 
CC(=O)NC(=S)Nc1ccc(N(C)C)cc1 (3D coordinates assigned)
CC(=O)NC(=S)Nc1ccc(N(C)C)cc1 (optimized conformer: 33.96967454984994 kcal/mol)

>  <smiles>  (1) 
CC(=O)NC(=S)Nc1ccc(N(C)C)cc1

>  <score_type>  (1) 
oracle

>  <origin>  (1) 
adgpu

>  <m_score__min__energy>  (1) 
-6.7400000000000002

>  <m_primary>  (1) 
energy

$$$$
1:0
     RDKit          3D

 39 41  0  0  0  0  0  0  0  0999 V2000
   -2.6450   21.9910  -31.9470 C   0  0  0  0  0  0  0  0  0  0  0  0
   -2.9100   22.9740  -30.8980 N   0  0  0  0  0  0  0  0  0  0  0  0
   -4.1710   23.6540  -30.8580 C   0  0  0  0  0  0  0  0  0  0  0  0
   -4.2080   24.9560  -30.4680 N   0  0  0  0  0  0  0  0  0  0  0  0
   -5.3770   25.6440  -30.4010 C   0  0  0  0  0  0  0  0  0  0  0  0
   -6.5440   25.0360  -30.7320 N   0  0  0  0  0  0  0  0  0  0  0  0
   -6.5680   23.7420  -31.1390 C   0  0  0  0  0  0  0  0  0  0  0  0
   -7.7810   23.1430  -31.4870 C   0  0  0  0  0  0  0  0  0  0  0  0
   -7.8100   21.8180  -31.9310 C   0  0  0  0  0  0  0  0  0  0  0  0
   -6.6210   21.0740  -32.0380 C   0  0  0  0  0  0  0  0  0  0  0  0
   -6.6530   19.6680  -32.5170 C   0  0  0  0  0  0  0  0  0  0  0  0
   -7.5710   18.7520  -31.9780 C   0  0  0  0  0  0  0  0  0  0  0  0
   -7.6010   17.4300  -32.4280 C   0  0  0  0  0  0  0  0  0  0  0  0
   -6.7150   16.9960  -33.4230 C   0  0  0  0  0  0  0  0  0  0  0  0
   -6.7680   15.6330  -33.8660 N   0  0  0  0  0  0  0  0  0  0  0  0
   -5.7900   17.9080  -33.9700 C   0  0  0  0  0  0  0  0  0  0  0  0
   -4.6450   17.4310  -35.2170 Cl  0  0  0  0  0  0  0  0  0  0  0  0
   -5.7650   19.2330  -33.5160 C   0  0  0  0  0  0  0  0  0  0  0  0
   -5.4000   21.6780  -31.6860 C   0  0  0  0  0  0  0  0  0  0  0  0
   -5.3670   23.0060  -31.2240 C   0  0  0  0  0  0  0  0  0  0  0  0
   -1.9070   22.9830  -29.4830 S   0  0  0  0  0  0  0  0  0  0  0  0
   -2.7740   22.2160  -28.1310 C   0  0  0  0  0  0  0  0  0  0  0  0
   -1.5820   24.3990  -29.0990 O   0  0  0  0  0  0  0  0  0  0  0  0
   -0.6340   22.2360  -29.7600 O   0  0  0  0  0  0  0  0  0  0  0  0
   -2.3848   21.0259  -31.4878 H   0  0  0  0  0  0  0  0  0  0  0  0
   -3.5426   21.8699  -32.5713 H   0  0  0  0  0  0  0  0  0  0  0  0
   -1.8082   22.3375  -32.5713 H   0  0  0  0  0  0  0  0  0  0  0  0
   -5.3778   26.6955  -30.0780 H   0  0  0  0  0  0  0  0  0  0  0  0
   -8.7168   23.7162  -31.4113 H   0  0  0  0  0  0  0  0  0  0  0  0
   -8.7703   21.3533  -32.1989 H   0  0  0  0  0  0  0  0  0  0  0  0
   -8.2718   19.0781  -31.1954 H   0  0  0  0  0  0  0  0  0  0  0  0
   -8.3262   16.7237  -31.9977 H   0  0  0  0  0  0  0  0  0  0  0  0
   -6.1290   14.9180  -33.4530 H   0  0  0  0  0  0  0  0  0  0  0  0
   -7.4350   15.3170  -34.6020 H   0  0  0  0  0  0  0  0  0  0  0  0
   -5.0419   19.9414  -33.9464 H   0  0  0  0  0  0  0  0  0  0  0  0
   -4.4638   21.1071  -31.7728 H   0  0  0  0  0  0  0  0  0  0  0  0
   -2.3626   22.5800  -27.1780 H   0  0  0  0  0  0  0  0  0  0  0  0
   -3.8427   22.4697  -28.1897 H   0  0  0  0  0  0  0  0  0  0  0  0
   -2.6525   21.1243  -28.1897 H   0  0  0  0  0  0  0  0  0  0  0  0
  1  2  1  0
  2  3  1  0
  3  4  2  0
  4  5  1  0
  5  6  2  0
  6  7  1  0
  7  8  2  0
  8  9  1  0
  9 10  2  0
 10 11  1  0
 11 12  2  0
 12 13  1  0
 13 14  2  0
 14 15  1  0
 14 16  1  0
 16 17  1  0
 16 18  2  0
 10 19  1  0
 19 20  2  0
  2 21  1  0
 21 22  1  0
 21 23  2  0
 21 24  2  0
 20  3  1  0
 20  7  1  0
 18 11  1  0
  1 25  1  0
  1 26  1  0
  1 27  1  0
  5 28  1  0
  8 29  1  0
  9 30  1  0
 12 31  1  0
 13 32  1  0
 15 33  1  0
 15 34  1  0
 18 35  1  0
 19 36  1  0
 22 37  1  0
 22 38  1  0
 22 39  1  0
M  END
>  <UniqueID>  (2) 
2

>  <SMILES>  (2) 
CN(c1ncnc2ccc(-c3ccc(N)c(Cl)c3)cc12)S(C)(=O)=O

>  <Energy>  (2) 
52.73545278494494

>  <Genealogy>  (2) 
CN(c1ncnc2ccc(-c3ccc(N)c(Cl)c3)cc12)S(C)(=O)=O (3D coordinates assigned)
CN(c1ncnc2ccc(-c3ccc(N)c(Cl)c3)cc12)S(C)(=O)=O (optimized conformer: 52.73545278494494 kcal/mol)

>  <smiles>  (2) 
CN(c1ncnc2ccc(-c3ccc(N)c(Cl)c3)cc12)S(C)(=O)=O

>  <score_type>  (2) 
oracle

>  <origin>  (2) 
adgpu

>  <m_score__min__energy>  (2) 
-8.7699999999999996

>  <m_primary>  (2) 
energy

$$$$
2:0
     RDKit          3D

 42 44  0  0  0  0  0  0  0  0999 V2000
   -8.5710   21.5810  -31.0720 C   0  0  0  0  0  0  0  0  0  0  0  0
   -8.1480   20.2160  -31.5400 C   0  0  0  0  0  0  0  0  0  0  0  0
   -9.0680   19.1570  -31.5050 C   0  0  0  0  0  0  0  0  0  0  0  0
   -8.7030   17.8920  -31.9680 C   0  0  0  0  0  0  0  0  0  0  0  0
   -7.4140   17.6930  -32.4600 C   0  0  0  0  0  0  0  0  0  0  0  0
   -6.5230   18.7180  -32.4700 N   0  0  0  0  0  0  0  0  0  0  0  0
   -6.8400   19.9610  -32.0130 C   0  0  0  0  0  0  0  0  0  0  0  0
   -5.8360   20.9880  -32.0430 N   0  0  0  0  0  0  0  0  0  0  0  0
   -6.1330   22.3040  -32.6280 C   0  0  0  0  0  0  0  0  0  0  0  0
   -5.6690   23.4220  -31.6860 C   0  0  0  0  0  0  0  0  0  0  0  0
   -4.3430   23.1400  -31.1130 N   0  0  0  0  0  0  0  0  0  0  0  0
   -3.7580   24.0990  -30.2150 C   0  0  0  0  0  0  0  0  0  0  0  0
   -3.8740   25.3280  -30.4670 O   0  0  0  0  0  0  0  0  0  0  0  0
   -3.0540   23.6630  -29.0380 N   0  0  0  0  0  0  0  0  0  0  0  0
   -2.4670   24.5540  -28.0740 C   0  0  0  0  0  0  0  0  0  0  0  0
   -1.2550   25.1930  -28.3790 C   0  0  0  0  0  0  0  0  0  0  0  0
   -0.6510   26.0450  -27.4500 C   0  0  0  0  0  0  0  0  0  0  0  0
   -1.2440   26.2530  -26.2010 C   0  0  0  0  0  0  0  0  0  0  0  0
   -0.4840   27.3200  -25.0340 Cl  0  0  0  0  0  0  0  0  0  0  0  0
   -2.4390   25.6010  -25.8780 C   0  0  0  0  0  0  0  0  0  0  0  0
   -3.0450   24.7490  -26.8060 C   0  0  0  0  0  0  0  0  0  0  0  0
   -3.6110   21.9370  -31.5260 C   0  0  0  0  0  0  0  0  0  0  0  0
   -4.5320   20.7200  -31.4230 C   0  0  0  0  0  0  0  0  0  0  0  0
   -8.5786   21.6055  -29.9723 H   0  0  0  0  0  0  0  0  0  0  0  0
   -7.8640   22.3338  -31.4507 H   0  0  0  0  0  0  0  0  0  0  0  0
   -9.5798   21.8021  -31.4507 H   0  0  0  0  0  0  0  0  0  0  0  0
  -10.0812   19.3246  -31.1109 H   0  0  0  0  0  0  0  0  0  0  0  0
   -9.4241   17.0616  -31.9450 H   0  0  0  0  0  0  0  0  0  0  0  0
   -7.1180   16.7043  -32.8407 H   0  0  0  0  0  0  0  0  0  0  0  0
   -5.6093   22.3998  -33.5906 H   0  0  0  0  0  0  0  0  0  0  0  0
   -7.2190   22.3914  -32.7796 H   0  0  0  0  0  0  0  0  0  0  0  0
   -5.6197   24.3651  -32.2501 H   0  0  0  0  0  0  0  0  0  0  0  0
   -6.3905   23.4929  -30.8587 H   0  0  0  0  0  0  0  0  0  0  0  0
   -2.9150   22.6400  -28.8860 H   0  0  0  0  0  0  0  0  0  0  0  0
   -0.7776   25.0222  -29.3552 H   0  0  0  0  0  0  0  0  0  0  0  0
    0.2919   26.5524  -27.7018 H   0  0  0  0  0  0  0  0  0  0  0  0
   -2.9022   25.7589  -24.8928 H   0  0  0  0  0  0  0  0  0  0  0  0
   -3.9780   24.2286  -26.5437 H   0  0  0  0  0  0  0  0  0  0  0  0
   -3.2715   22.0531  -32.5658 H   0  0  0  0  0  0  0  0  0  0  0  0
   -2.7397   21.7943  -30.8699 H   0  0  0  0  0  0  0  0  0  0  0  0
   -4.0598   19.8681  -31.9342 H   0  0  0  0  0  0  0  0  0  0  0  0
   -4.6920   20.4928  -30.3587 H   0  0  0  0  0  0  0  0  0  0  0  0
  1  2  1  0
  2  3  2  0
  3  4  1  0
  4  5  2  0
  5  6  1  0
  6  7  2  0
  7  8  1  0
  8  9  1  0
  9 10  1  0
 10 11  1  0
 11 12  1  0
 12 13  2  0
 12 14  1  0
 14 15  1  0
 15 16  2  0
 16 17  1  0
 17 18  2  0
 18 19  1  0
 18 20  1  0
 20 21  2  0
 11 22  1  0
 22 23  1  0
  7  2  1  0
 23  8  1  0
 21 15  1  0
  1 24  1  0
  1 25  1  0
  1 26  1  0
  3 27  1  0
  4 28  1  0
  5 29  1  0
  9 30  1  0
  9 31  1  0
 10 32  1  0
 10 33  1  0
 14 34  1  0
 16 35  1  0
 17 36  1  0
 20 37  1  0
 21 38  1  0
 22 39  1  0
 22 40  1  0
 23 41  1  0
 23 42  1  0
M  END
>  <UniqueID>  (3) 
3

>  <SMILES>  (3) 
Cc1cccnc1N1CCN(C(=O)Nc2ccc(Cl)cc2)CC1

>  <Energy>  (3) 
55.499588953697035

>  <Genealogy>  (3) 
Cc1cccnc1N1CCN(C(=O)Nc2ccc(Cl)cc2)CC1 (3D coordinates assigned)
Cc1cccnc1N1CCN(C(=O)Nc2ccc(Cl)cc2)CC1 (nonaromatic ring conformer: 55.499588953697035 kcal/mol)

>  <smiles>  (3) 
Cc1cccnc1N1CCN(C(=O)Nc2ccc(Cl)cc2)CC1

>  <score_type>  (3) 
oracle

>  <origin>  (3) 
adgpu

>  <m_score__min__energy>  (3) 
-8.4800000000000004

>  <m_primary>  (3) 
energy

$$$$
3:0
     RDKit          3D

 44 46  0  0  0  0  0  0  0  0999 V2000
   -5.3650   17.0900  -34.5440 C   0  0  0  0  0  0  0  0  0  0  0  0
   -6.8810   16.7820  -33.5860 S   0  0  0  0  0  0  0  0  0  0  0  0
   -6.9720   18.4640  -32.9660 C   0  0  0  0  0  0  0  0  0  0  0  0
   -6.0620   19.4260  -33.4210 C   0  0  0  0  0  0  0  0  0  0  0  0
   -6.1380   20.7400  -32.9520 C   0  0  0  0  0  0  0  0  0  0  0  0
   -7.1140   21.1050  -32.0100 C   0  0  0  0  0  0  0  0  0  0  0  0
   -7.2000   22.4770  -31.5820 N   0  0  0  0  0  0  0  0  0  0  0  0
   -6.1250   23.2180  -30.9820 C   0  0  0  0  0  0  0  0  0  0  0  0
   -6.2860   23.8850  -29.7570 C   0  0  0  0  0  0  0  0  0  0  0  0
   -5.2130   24.5750  -29.1890 C   0  0  0  0  0  0  0  0  0  0  0  0
   -3.9750   24.6050  -29.8580 C   0  0  0  0  0  0  0  0  0  0  0  0
   -2.8560   25.2790  -29.3470 O   0  0  0  0  0  0  0  0  0  0  0  0
   -2.0530   24.8700  -28.2690 C   0  0  0  0  0  0  0  0  0  0  0  0
   -2.0060   25.5940  -27.0600 C   0  0  0  0  0  0  0  0  0  0  0  0
   -1.2000   25.1630  -25.9960 C   0  0  0  0  0  0  0  0  0  0  0  0
   -1.1570   25.9480  -24.7180 C   0  0  0  0  0  0  0  0  0  0  0  0
   -0.3810   24.0370  -26.1660 C   0  0  0  0  0  0  0  0  0  0  0  0
   -0.3900   23.3340  -27.3730 C   0  0  0  0  0  0  0  0  0  0  0  0
   -1.2310   23.7330  -28.4220 C   0  0  0  0  0  0  0  0  0  0  0  0
   -1.2030   22.9840  -29.7270 C   0  0  0  0  0  0  0  0  0  0  0  0
   -3.8340   23.9080  -31.0210 N   0  0  0  0  0  0  0  0  0  0  0  0
   -4.8600   23.2190  -31.5820 C   0  0  0  0  0  0  0  0  0  0  0  0
   -8.0350   20.1350  -31.5680 C   0  0  0  0  0  0  0  0  0  0  0  0
   -7.9540   18.8200  -32.0340 C   0  0  0  0  0  0  0  0  0  0  0  0
   -4.5244   17.2608  -33.8553 H   0  0  0  0  0  0  0  0  0  0  0  0
   -5.1482   16.2175  -35.1779 H   0  0  0  0  0  0  0  0  0  0  0  0
   -5.5059   17.9779  -35.1779 H   0  0  0  0  0  0  0  0  0  0  0  0
   -5.2860   19.1468  -34.1489 H   0  0  0  0  0  0  0  0  0  0  0  0
   -5.4284   21.4941  -33.3231 H   0  0  0  0  0  0  0  0  0  0  0  0
   -8.1220   22.9600  -31.6740 H   0  0  0  0  0  0  0  0  0  0  0  0
   -7.2588   23.8640  -29.2440 H   0  0  0  0  0  0  0  0  0  0  0  0
   -5.3345   25.0915  -28.2254 H   0  0  0  0  0  0  0  0  0  0  0  0
   -2.6086   26.5077  -26.9499 H   0  0  0  0  0  0  0  0  0  0  0  0
   -1.1948   25.2578  -23.8623 H   0  0  0  0  0  0  0  0  0  0  0  0
   -0.2255   26.5317  -24.6774 H   0  0  0  0  0  0  0  0  0  0  0  0
   -2.0191   26.6300  -24.6774 H   0  0  0  0  0  0  0  0  0  0  0  0
    0.2716   23.7059  -25.3447 H   0  0  0  0  0  0  0  0  0  0  0  0
    0.2672   22.4613  -27.5016 H   0  0  0  0  0  0  0  0  0  0  0  0
   -1.1626   21.9028  -29.5284 H   0  0  0  0  0  0  0  0  0  0  0  0
   -2.1105   23.2173  -30.3032 H   0  0  0  0  0  0  0  0  0  0  0  0
   -0.3155   23.2844  -30.3032 H   0  0  0  0  0  0  0  0  0  0  0  0
   -4.6966   22.6579  -32.5139 H   0  0  0  0  0  0  0  0  0  0  0  0
   -8.8222   20.4142  -30.8522 H   0  0  0  0  0  0  0  0  0  0  0  0
   -8.6633   18.0632  -31.6677 H   0  0  0  0  0  0  0  0  0  0  0  0
  1  2  1  0
  2  3  1  0
  3  4  2  0
  4  5  1  0
  5  6  2  0
  6  7  1  0
  7  8  1  0
  8  9  2  0
  9 10  1  0
 10 11  2  0
 11 12  1  0
 12 13  1  0
 13 14  2  0
 14 15  1  0
 15 16  1  0
 15 17  2  0
 17 18  1  0
 18 19  2  0
 19 20  1  0
 11 21  1  0
 21 22  2  0
  6 23  1  0
 23 24  2  0
 24  3  1  0
 22  8  1  0
 19 13  1  0
  1 25  1  0
  1 26  1  0
  1 27  1  0
  4 28  1  0
  5 29  1  0
  7 30  1  0
  9 31  1  0
 10 32  1  0
 14 33  1  0
 16 34  1  0
 16 35  1  0
 16 36  1  0
 17 37  1  0
 18 38  1  0
 20 39  1  0
 20 40  1  0
 20 41  1  0
 22 42  1  0
 23 43  1  0
 24 44  1  0
M  END
>  <UniqueID>  (4) 
4

>  <SMILES>  (4) 
CSc1ccc(Nc2ccc(Oc3cc(C)ccc3C)nc2)cc1

>  <Energy>  (4) 
54.056474059082404

>  <Genealogy>  (4) 
CSc1ccc(Nc2ccc(Oc3cc(C)ccc3C)nc2)cc1 (3D coordinates assigned)
CSc1ccc(Nc2ccc(Oc3cc(C)ccc3C)nc2)cc1 (optimized conformer: 54.056474059082404 kcal/mol)

>  <smiles>  (4) 
CSc1ccc(Nc2ccc(Oc3cc(C)ccc3C)nc2)cc1

>  <score_type>  (4) 
oracle

>  <origin>  (4) 
adgpu

>  <m_score__min__energy>  (4) 
-9.1199999999999992

>  <m_primary>  (4) 
energy

$$$$
4:0
     RDKit          3D

 26 27  0  0  0  0  0  0  0  0999 V2000
   -3.0970   24.9050  -27.7720 O   0  0  0  0  0  0  0  0  0  0  0  0
   -2.3970   24.6330  -29.0730 S   0  0  0  0  0  0  0  0  0  0  0  0
   -1.2240   25.5650  -29.2030 O   0  0  0  0  0  0  0  0  0  0  0  0
   -3.4970   24.9210  -30.3810 N   0  0  0  0  0  0  0  0  0  0  0  0
   -4.4970   24.0020  -30.8450 C   0  0  0  0  0  0  0  0  0  0  0  0
   -4.1600   22.8540  -31.5890 C   0  0  0  0  0  0  0  0  0  0  0  0
   -5.1570   21.9750  -32.0200 C   0  0  0  0  0  0  0  0  0  0  0  0
   -6.4960   22.2300  -31.7160 C   0  0  0  0  0  0  0  0  0  0  0  0
   -6.8410   23.3670  -30.9820 C   0  0  0  0  0  0  0  0  0  0  0  0
   -5.8480   24.2520  -30.5470 C   0  0  0  0  0  0  0  0  0  0  0  0
   -6.3170   25.6710  -29.6190 Cl  0  0  0  0  0  0  0  0  0  0  0  0
   -1.8630   22.9550  -29.0910 C   0  0  0  0  0  0  0  0  0  0  0  0
   -2.3810   22.0430  -28.1610 C   0  0  0  0  0  0  0  0  0  0  0  0
   -1.9640   20.7080  -28.1790 C   0  0  0  0  0  0  0  0  0  0  0  0
   -1.0260   20.2800  -29.1230 C   0  0  0  0  0  0  0  0  0  0  0  0
   -0.6230   18.9850  -29.1400 F   0  0  0  0  0  0  0  0  0  0  0  0
   -0.5020   21.1880  -30.0490 C   0  0  0  0  0  0  0  0  0  0  0  0
   -0.9180   22.5220  -30.0340 C   0  0  0  0  0  0  0  0  0  0  0  0
   -3.1069   22.6487  -31.8317 H   0  0  0  0  0  0  0  0  0  0  0  0
   -4.8866   21.0803  -32.6000 H   0  0  0  0  0  0  0  0  0  0  0  0
   -7.2789   21.5354  -32.0546 H   0  0  0  0  0  0  0  0  0  0  0  0
   -7.8963   23.5675  -30.7451 H   0  0  0  0  0  0  0  0  0  0  0  0
   -3.1171   22.3780  -27.4154 H   0  0  0  0  0  0  0  0  0  0  0  0
   -2.3746   19.9942  -27.4496 H   0  0  0  0  0  0  0  0  0  0  0  0
    0.2383   20.8516  -30.7898 H   0  0  0  0  0  0  0  0  0  0  0  0
   -0.5039   23.2342  -30.7629 H   0  0  0  0  0  0  0  0  0  0  0  0
  1  2  2  0
  2  3  2  0
  2  4  1  0
  4  5  1  0
  5  6  2  0
  6  7  1  0
  7  8  2  0
  8  9  1  0
  9 10  2  0
 10 11  1  0
  2 12  1  0
 12 13  2  0
 13 14  1  0
 14 15  2  0
 15 16  1  0
 15 17  1  0
 17 18  2  0
 10  5  1  0
 18 12  1  0
  6 19  1  0
  7 20  1  0
  8 21  1  0
  9 22  1  0
 13 23  1  0
 14 24  1  0
 17 25  1  0
 18 26  1  0
M  CHG  1   4  -1
M  END
>  <UniqueID>  (5) 
5

>  <SMILES>  (5) 
O=S(=O)([N-]c1ccccc1Cl)c1ccc(F)cc1

>  <Energy>  (5) 
30.366591846030857

>  <Genealogy>  (5) 
O=S(=O)([N-]c1ccccc1Cl)c1ccc(F)cc1 (protonated)
O=S(=O)([N-]c1ccccc1Cl)c1ccc(F)cc1 (3D coordinates assigned)
O=S(=O)([N-]c1ccccc1Cl)c1ccc(F)cc1 (optimized conformer: 30.366591846030857 kcal/mol)

>  <smiles>  (5) 
O=S(=O)(Nc1ccccc1Cl)c1ccc(F)cc1

>  <score_type>  (5) 
oracle

>  <origin>  (5) 
adgpu

>  <m_score__min__energy>  (5) 
-7.9800000000000004

>  <m_primary>  (5) 
energy

$$$$
5:0
     RDKit          3D

 34 36  0  0  0  0  0  0  0  0999 V2000
   -3.5210   24.9570  -29.3300 N   0  0  0  0  0  0  0  0  0  0  0  0
   -4.3480   24.2030  -29.9680 C   0  0  0  0  0  0  0  0  0  0  0  0
   -4.0260   23.7630  -31.2000 N   0  0  0  0  0  0  0  0  0  0  0  0
   -4.8910   22.9700  -31.8750 C   0  0  0  0  0  0  0  0  0  0  0  0
   -4.5540   22.5690  -33.0470 N   0  0  0  0  0  0  0  0  0  0  0  0
   -6.0990   22.6080  -31.3140 C   0  0  0  0  0  0  0  0  0  0  0  0
   -6.9210   21.8240  -32.0170 N   0  0  0  0  0  0  0  0  0  0  0  0
   -8.1300   21.4350  -31.5080 C   0  0  0  0  0  0  0  0  0  0  0  0
   -8.9610   20.5960  -32.3810 C   0  0  0  0  0  0  0  0  0  0  0  0
   -8.2960   19.8900  -33.4200 N   0  0  0  0  0  0  0  0  0  0  0  0
   -7.2120   19.0080  -33.3480 C   0  0  0  0  0  0  0  0  0  0  0  0
   -7.2760   17.6700  -33.0450 C   0  0  0  0  0  0  0  0  0  0  0  0
   -6.1760   16.8430  -32.9700 C   0  0  0  0  0  0  0  0  0  0  0  0
   -4.9310   17.3650  -33.2100 C   0  0  0  0  0  0  0  0  0  0  0  0
   -4.8070   18.7010  -33.5190 C   0  0  0  0  0  0  0  0  0  0  0  0
   -3.2090   19.3480  -33.8210 Cl  0  0  0  0  0  0  0  0  0  0  0  0
   -5.9130   19.4930  -33.5850 C   0  0  0  0  0  0  0  0  0  0  0  0
   -8.4380   21.8900  -30.2640 C   0  0  0  0  0  0  0  0  0  0  0  0
   -7.5960   22.7090  -29.5090 C   0  0  0  0  0  0  0  0  0  0  0  0
   -6.3830   23.0840  -30.0490 C   0  0  0  0  0  0  0  0  0  0  0  0
   -5.5240   23.8710  -29.3780 N   0  0  0  0  0  0  0  0  0  0  0  0
   -3.7240   25.3210  -28.3790 H   0  0  0  0  0  0  0  0  0  0  0  0
   -3.1120   24.0560  -31.5860 H   0  0  0  0  0  0  0  0  0  0  0  0
   -5.1680   21.9570  -33.6230 H   0  0  0  0  0  0  0  0  0  0  0  0
   -9.4657   19.8535  -31.7454 H   0  0  0  0  0  0  0  0  0  0  0  0
   -9.6330   21.2977  -32.8968 H   0  0  0  0  0  0  0  0  0  0  0  0
   -8.6870   20.0610  -34.4100 H   0  0  0  0  0  0  0  0  0  0  0  0
   -8.2658   17.2315  -32.8502 H   0  0  0  0  0  0  0  0  0  0  0  0
   -6.2953   15.7782  -32.7209 H   0  0  0  0  0  0  0  0  0  0  0  0
   -4.0398   16.7225  -33.1562 H   0  0  0  0  0  0  0  0  0  0  0  0
   -5.7851   20.5568  -33.8341 H   0  0  0  0  0  0  0  0  0  0  0  0
   -9.4044   21.5965  -29.8282 H   0  0  0  0  0  0  0  0  0  0  0  0
   -7.8933   23.0478  -28.5056 H   0  0  0  0  0  0  0  0  0  0  0  0
   -5.7920   24.2020  -28.4260 H   0  0  0  0  0  0  0  0  0  0  0  0
  1  2  2  3
  2  3  1  0
  3  4  1  0
  4  5  2  3
  4  6  1  0
  6  7  2  0
  7  8  1  0
  8  9  1  0
  9 10  1  0
 10 11  1  0
 11 12  2  0
 12 13  1  0
 13 14  2  0
 14 15  1  0
 15 16  1  0
 15 17  2  0
  8 18  2  0
 18 19  1  0
 19 20  2  0
 20 21  1  0
 21  2  1  0
 20  6  1  0
 17 11  1  0
  1 22  1  0
  3 23  1  0
  5 24  1  0
  9 25  1  0
  9 26  1  0
 10 27  1  0
 12 28  1  0
 13 29  1  0
 14 30  1  0
 17 31  1  0
 18 32  1  0
 19 33  1  0
 21 34  1  0
M  END
>  <smiles>  (6) 
N=c1[nH]c(=N)c2nc(CNc3cccc(Cl)c3)ccc2[nH]1

>  <score_type>  (6) 
oracle

>  <origin>  (6) 
adgpu

>  <m_score__min__energy>  (6) 
-8.3100000000000005

>  <m_primary>  (6) 
energy

$$$$
6:0
     RDKit          3D

 35 38  0  0  0  0  0  0  0  0999 V2000
   -2.0990   23.2270  -29.7480 O   0  0  0  0  0  0  0  0  0  0  0  0
   -2.4930   24.4090  -29.5760 C   0  0  0  0  0  0  0  0  0  0  0  0
   -3.4900   24.9420  -30.4590 N   0  0  0  0  0  0  0  0  0  0  0  0
   -4.8550   24.5070  -30.5540 C   0  0  0  0  0  0  0  0  0  0  0  0
   -5.8610   25.3160  -30.0160 C   0  0  0  0  0  0  0  0  0  0  0  0
   -7.2000   24.9280  -30.1030 C   0  0  0  0  0  0  0  0  0  0  0  0
   -7.5450   23.7340  -30.7420 C   0  0  0  0  0  0  0  0  0  0  0  0
   -6.5500   22.9220  -31.3090 C   0  0  0  0  0  0  0  0  0  0  0  0
   -6.9180   21.6610  -31.9870 C   0  0  0  0  0  0  0  0  0  0  0  0
   -6.0170   20.7820  -32.4770 N   0  0  0  0  0  0  0  0  0  0  0  0
   -6.7890   19.8060  -32.9890 C   0  0  0  0  0  0  0  0  0  0  0  0
   -6.2560   18.6050  -33.6450 C   0  0  0  0  0  0  0  0  0  0  0  0
   -6.5760   17.2960  -33.3430 C   0  0  0  0  0  0  0  0  0  0  0  0
   -5.8350   16.5230  -34.2110 C   0  0  0  0  0  0  0  0  0  0  0  0
   -5.1100   17.4060  -34.9870 C   0  0  0  0  0  0  0  0  0  0  0  0
   -5.3820   18.6390  -34.6250 O   0  0  0  0  0  0  0  0  0  0  0  0
   -8.1180   20.1190  -32.7980 C   0  0  0  0  0  0  0  0  0  0  0  0
   -8.1610   21.2700  -32.1760 O   0  0  0  0  0  0  0  0  0  0  0  0
   -5.2050   23.3210  -31.2230 C   0  0  0  0  0  0  0  0  0  0  0  0
   -1.8740   25.2190  -28.5110 C   0  0  0  0  0  0  0  0  0  0  0  0
   -1.8860   24.9490  -27.1540 C   0  0  0  0  0  0  0  0  0  0  0  0
   -1.2000   25.9870  -26.5630 C   0  0  0  0  0  0  0  0  0  0  0  0
   -0.8180   26.8280  -27.5880 C   0  0  0  0  0  0  0  0  0  0  0  0
   -1.2380   26.3460  -28.7350 O   0  0  0  0  0  0  0  0  0  0  0  0
   -5.5965   26.2625  -29.5219 H   0  0  0  0  0  0  0  0  0  0  0  0
   -7.9849   25.5638  -29.6675 H   0  0  0  0  0  0  0  0  0  0  0  0
   -8.6003   23.4292  -30.8009 H   0  0  0  0  0  0  0  0  0  0  0  0
   -7.2760   16.9438  -32.5710 H   0  0  0  0  0  0  0  0  0  0  0  0
   -5.8234   15.4248  -34.2731 H   0  0  0  0  0  0  0  0  0  0  0  0
   -4.4109   17.1201  -35.7867 H   0  0  0  0  0  0  0  0  0  0  0  0
   -8.9819   19.5139  -33.1103 H   0  0  0  0  0  0  0  0  0  0  0  0
   -4.4209   22.7011  -31.6822 H   0  0  0  0  0  0  0  0  0  0  0  0
   -2.3471   24.0857  -26.6520 H   0  0  0  0  0  0  0  0  0  0  0  0
   -0.9975   26.1189  -25.4899 H   0  0  0  0  0  0  0  0  0  0  0  0
   -0.2482   27.7606  -27.4633 H   0  0  0  0  0  0  0  0  0  0  0  0
  1  2  2  0
  2  3  1  0
  3  4  1  0
  4  5  2  0
  5  6  1  0
  6  7  2  0
  7  8  1  0
  8  9  1  0
  9 10  2  0
 10 11  1  0
 11 12  1  0
 12 13  2  0
 13 14  1  0
 14 15  2  0
 15 16  1  0
 11 17  2  0
 17 18  1  0
  8 19  2  0
  2 20  1  0
 20 21  2  0
 21 22  1  0
 22 23  2  0
 23 24  1  0
 19  4  1  0
 24 20  1  0
 18  9  1  0
 16 12  1  0
  5 25  1  0
  6 26  1  0
  7 27  1  0
 13 28  1  0
 14 29  1  0
 15 30  1  0
 17 31  1  0
 19 32  1  0
 21 33  1  0
 22 34  1  0
 23 35  1  0
M  CHG  1   3  -1
M  END
>  <UniqueID>  (7) 
6

>  <SMILES>  (7) 
O=C([N-]c1cccc(-c2nc(-c3ccco3)co2)c1)c1ccco1

>  <Energy>  (7) 
125.08368493129306

>  <Genealogy>  (7) 
O=C([N-]c1cccc(-c2nc(-c3ccco3)co2)c1)c1ccco1 (protonated)
O=C([N-]c1cccc(-c2nc(-c3ccco3)co2)c1)c1ccco1 (3D coordinates assigned)
O=C([N-]c1cccc(-c2nc(-c3ccco3)co2)c1)c1ccco1 (optimized conformer: 125.08368493129306 kcal/mol)

>  <smiles>  (7) 
O=C(Nc1cccc(-c2nc(-c3ccco3)co2)c1)c1ccco1

>  <score_type>  (7) 
oracle

>  <origin>  (7) 
adgpu

>  <m_score__min__energy>  (7) 
-9.6500000000000004

>  <m_primary>  (7) 
energy

$$$$
7:0
     RDKit          3D

 36 38  0  0  0  0  0  0  0  0999 V2000
    1.1980   26.9680  -22.2470 H   0  0  0  0  0  0  0  0  0  0  0  0
    0.5340   27.3760  -22.9430 N   0  0  0  0  0  0  0  0  0  0  0  0
    0.0420   26.6770  -23.9150 C   0  0  0  0  0  0  0  0  0  0  0  0
   -0.8450   27.2680  -24.8200 C   0  0  0  0  0  0  0  0  0  0  0  0
   -1.1275   28.3253  -24.7093 H   0  0  0  0  0  0  0  0  0  0  0  0
   -1.3550   26.5260  -25.8370 N   0  0  0  0  0  0  0  0  0  0  0  0
   -1.0190   25.2190  -26.0090 C   0  0  0  0  0  0  0  0  0  0  0  0
   -1.6180   24.4530  -27.1270 C   0  0  0  0  0  0  0  0  0  0  0  0
   -2.9660   24.0660  -27.0530 C   0  0  0  0  0  0  0  0  0  0  0  0
   -3.5615   24.3336  -26.1676 H   0  0  0  0  0  0  0  0  0  0  0  0
   -3.5580   23.3450  -28.0920 C   0  0  0  0  0  0  0  0  0  0  0  0
   -4.6102   23.0340  -28.0130 H   0  0  0  0  0  0  0  0  0  0  0  0
   -2.8170   23.0160  -29.2350 C   0  0  0  0  0  0  0  0  0  0  0  0
   -3.4370   22.2510  -30.3350 C   0  0  0  0  0  0  0  0  0  0  0  0
   -2.9350   20.9720  -30.6240 C   0  0  0  0  0  0  0  0  0  0  0  0
   -2.0862   20.5760  -30.0472 H   0  0  0  0  0  0  0  0  0  0  0  0
   -3.5040   20.1990  -31.6370 C   0  0  0  0  0  0  0  0  0  0  0  0
   -3.1039   19.1977  -31.8545 H   0  0  0  0  0  0  0  0  0  0  0  0
   -4.5780   20.6940  -32.3730 C   0  0  0  0  0  0  0  0  0  0  0  0
   -5.0310   20.0789  -33.1645 H   0  0  0  0  0  0  0  0  0  0  0  0
   -5.0810   21.9700  -32.1080 C   0  0  0  0  0  0  0  0  0  0  0  0
   -5.9279   22.3543  -32.6954 H   0  0  0  0  0  0  0  0  0  0  0  0
   -4.5160   22.7670  -31.0990 C   0  0  0  0  0  0  0  0  0  0  0  0
   -5.1530   24.4000  -30.8460 S   0  0  0  0  0  0  0  0  0  0  0  0
   -6.1060   24.7560  -31.9520 O   0  0  0  0  0  0  0  0  0  0  0  0
   -5.8850   24.4600  -29.5360 O   0  0  0  0  0  0  0  0  0  0  0  0
   -3.8670   25.5560  -30.8450 N   0  0  0  0  0  0  0  0  0  0  0  0
   -3.9070   26.0570  -29.9290 H   0  0  0  0  0  0  0  0  0  0  0  0
   -1.4710   23.3980  -29.3170 C   0  0  0  0  0  0  0  0  0  0  0  0
   -0.8800   23.1288  -30.2048 H   0  0  0  0  0  0  0  0  0  0  0  0
   -0.8740   24.1190  -28.2780 C   0  0  0  0  0  0  0  0  0  0  0  0
    0.4110   24.5300  -28.4240 F   0  0  0  0  0  0  0  0  0  0  0  0
   -0.1390   24.6230  -25.0890 C   0  0  0  0  0  0  0  0  0  0  0  0
    0.1338   23.5625  -25.1937 H   0  0  0  0  0  0  0  0  0  0  0  0
    0.3740   25.3620  -24.0690 N   0  0  0  0  0  0  0  0  0  0  0  0
    1.0270   24.9010  -23.3960 H   0  0  0  0  0  0  0  0  0  0  0  0
  1  2  1  0
  2  3  2  0
  3  4  1  0
  4  5  1  0
  4  6  2  0
  6  7  1  0
  7  8  1  0
  8  9  2  0
  9 10  1  0
  9 11  1  0
 11 12  1  0
 11 13  2  0
 13 14  1  0
 14 15  2  0
 15 16  1  0
 15 17  1  0
 17 18  1  0
 17 19  2  0
 19 20  1  0
 19 21  1  0
 21 22  1  0
 21 23  2  0
 23 24  1  0
 24 25  2  0
 24 26  2  0
 24 27  1  0
 27 28  1  0
 13 29  1  0
 29 30  1  0
 29 31  2  0
 31 32  1  0
  7 33  2  0
 33 34  1  0
 33 35  1  0
 35 36  1  0
 35  3  1  0
 31  8  1  0
 23 14  1  0
M  CHG  1  27  -1
M  END
>  <UniqueID>  (8) 
7

>  <SMILES>  (8) 
[H]/N=c1/cnc(-c2ccc(-c3ccccc3S([NH-])(=O)=O)cc2F)c[nH]1

>  <Energy>  (8) 
53.79566077563129

>  <Genealogy>  (8) 
N=c1cnc(-c2ccc(-c3ccccc3S([NH-])(=O)=O)cc2F)c[nH]1 (protonated)
[H]/N=c1/cnc(-c2ccc(-c3ccccc3S([NH-])(=O)=O)cc2F)c[nH]1 (cis-trans isomerization)
[H]/N=c1/cnc(-c2ccc(-c3ccccc3S([NH-])(=O)=O)cc2F)c[nH]1 (3D coordinates assigned)
[H]/N=c1/cnc(-c2ccc(-c3ccccc3S([NH-])(=O)=O)cc2F)c[nH]1 (optimized conformer: 53.79566077563129 kcal/mol)

>  <smiles>  (8) 
N=c1cnc(-c2ccc(-c3ccccc3S(N)(=O)=O)cc2F)c[nH]1

>  <score_type>  (8) 
oracle

>  <origin>  (8) 
adgpu

>  <m_score__min__energy>  (8) 
-10.41

>  <m_primary>  (8) 
energy

$$$$
8:0
     RDKit          3D

 25 26  0  0  0  0  0  0  0  0999 V2000
   -3.8610   25.2910  -30.5620 O   0  0  0  0  0  0  0  0  0  0  0  0
   -4.3450   24.2560  -30.0270 C   0  0  0  0  0  0  0  0  0  0  0  0
   -3.6580   23.6300  -28.9260 N   0  0  0  0  0  0  0  0  0  0  0  0
   -2.4030   24.1000  -28.4070 C   0  0  0  0  0  0  0  0  0  0  0  0
   -2.3580   25.0060  -27.3340 C   0  0  0  0  0  0  0  0  0  0  0  0
   -1.1310   25.4770  -26.8640 C   0  0  0  0  0  0  0  0  0  0  0  0
    0.0450   25.0470  -27.4770 C   0  0  0  0  0  0  0  0  0  0  0  0
   -0.0090   24.1840  -28.5240 N   0  0  0  0  0  0  0  0  0  0  0  0
   -1.1900   23.7090  -29.0050 C   0  0  0  0  0  0  0  0  0  0  0  0
   -1.1590   22.5830  -30.3530 Cl  0  0  0  0  0  0  0  0  0  0  0  0
   -5.6210   23.7100  -30.5460 C   0  0  0  0  0  0  0  0  0  0  0  0
   -6.4340   22.9200  -29.7120 C   0  0  0  0  0  0  0  0  0  0  0  0
   -7.6390   22.3930  -30.1880 C   0  0  0  0  0  0  0  0  0  0  0  0
   -8.0420   22.6410  -31.5020 C   0  0  0  0  0  0  0  0  0  0  0  0
   -9.2100   22.1280  -31.9610 F   0  0  0  0  0  0  0  0  0  0  0  0
   -7.2370   23.4120  -32.3440 C   0  0  0  0  0  0  0  0  0  0  0  0
   -6.0320   23.9430  -31.8740 C   0  0  0  0  0  0  0  0  0  0  0  0
   -4.0920   22.8060  -28.4570 H   0  0  0  0  0  0  0  0  0  0  0  0
   -3.2924   25.3451  -26.8630 H   0  0  0  0  0  0  0  0  0  0  0  0
   -1.0923   26.1800  -26.0189 H   0  0  0  0  0  0  0  0  0  0  0  0
    1.0181   25.4074  -27.1120 H   0  0  0  0  0  0  0  0  0  0  0  0
   -6.1194   22.7154  -28.6780 H   0  0  0  0  0  0  0  0  0  0  0  0
   -8.2704   21.7821  -29.5262 H   0  0  0  0  0  0  0  0  0  0  0  0
   -7.5523   23.6020  -33.3806 H   0  0  0  0  0  0  0  0  0  0  0  0
   -5.4014   24.5458  -32.5441 H   0  0  0  0  0  0  0  0  0  0  0  0
  1  2  2  0
  2  3  1  0
  3  4  1  0
  4  5  2  0
  5  6  1  0
  6  7  2  0
  7  8  1  0
  8  9  2  0
  9 10  1  0
  2 11  1  0
 11 12  2  0
 12 13  1  0
 13 14  2  0
 14 15  1  0
 14 16  1  0
 16 17  2  0
  9  4  1  0
 17 11  1  0
  3 18  1  0
  5 19  1  0
  6 20  1  0
  7 21  1  0
 12 22  1  0
 13 23  1  0
 16 24  1  0
 17 25  1  0
M  END
>  <UniqueID>  (9) 
8

>  <SMILES>  (9) 
O=C(Nc1cccnc1Cl)c1ccc(F)cc1

>  <Energy>  (9) 
34.37092126533208

>  <Genealogy>  (9) 
O=C(Nc1cccnc1Cl)c1ccc(F)cc1 (3D coordinates assigned)
O=C(Nc1cccnc1Cl)c1ccc(F)cc1 (optimized conformer: 34.37092126533208 kcal/mol)

>  <smiles>  (9) 
O=C(Nc1cccnc1Cl)c1ccc(F)cc1

>  <score_type>  (9) 
oracle

>  <origin>  (9) 
adgpu

>  <m_score__min__energy>  (9) 
-6.5899999999999999

>  <m_primary>  (9) 
energy

$$$$
9:0
     RDKit          3D

 41 43  0  0  1  0  0  0  0  0999 V2000
   -2.2380   24.9240  -28.5930 C   0  0  0  0  0  0  0  0  0  0  0  0
   -3.1120   25.2870  -29.6170 O   0  0  0  0  0  0  0  0  0  0  0  0
   -4.1520   24.4910  -30.0720 C   0  0  0  0  0  0  0  0  0  0  0  0
   -5.4540   24.8360  -29.8830 C   0  0  0  0  0  0  0  0  0  0  0  0
   -6.4810   24.0270  -30.3470 C   0  0  0  0  0  0  0  0  0  0  0  0
   -6.2420   22.8380  -31.0200 C   0  0  0  0  0  0  0  0  0  0  0  0
   -7.3100   21.9780  -31.5120 C   0  0  0  0  0  0  0  0  0  0  0  0
   -7.0350   20.7190  -32.0170 C   0  0  0  0  0  0  0  0  0  0  0  0
   -8.0520   19.8820  -32.4930 C   0  0  0  0  0  0  0  0  0  0  0  0
   -7.7730   18.7120  -32.9590 N   0  0  0  0  0  0  0  0  0  0  0  0
   -6.4260   18.2260  -33.0070 C   0  0  0  0  0  0  0  0  0  0  0  0
   -6.2030   16.8810  -32.6990 C   0  0  0  0  0  0  0  0  0  0  0  0
   -4.9250   16.3370  -32.7240 C   0  0  0  0  0  0  0  0  0  0  0  0
   -4.6620   14.6310  -32.3300 Cl  0  0  0  0  0  0  0  0  0  0  0  0
   -3.8540   17.1500  -33.0640 C   0  0  0  0  0  0  0  0  0  0  0  0
   -2.5620   16.6110  -33.0920 O   0  0  0  0  0  0  0  0  0  0  0  0
   -4.0810   18.4960  -33.3720 C   0  0  0  0  0  0  0  0  0  0  0  0
   -2.6270   19.6380  -33.8420 Br  0  0  0  0  0  0  0  0  0  0  0  0
   -5.3580   19.0330  -33.3440 C   0  0  0  0  0  0  0  0  0  0  0  0
   -9.3280   20.3080  -32.4620 N   0  0  0  0  0  0  0  0  0  0  0  0
   -9.5970   21.5460  -31.9650 C   0  0  0  0  0  0  0  0  0  0  0  0
   -8.6100   22.3410  -31.5110 N   0  0  0  0  0  0  0  0  0  0  0  0
   -4.9150   22.5050  -31.2030 C   0  0  0  0  0  0  0  0  0  0  0  0
   -3.8770   23.3200  -30.7350 C   0  0  0  0  0  0  0  0  0  0  0  0
   -2.5430   22.9840  -30.9180 O   0  0  0  0  0  0  0  0  0  0  0  0
   -2.0910   21.6330  -30.7640 C   0  0  0  0  0  0  0  0  0  0  0  0
   -2.7115   25.1207  -27.6198 H   0  0  0  0  0  0  0  0  0  0  0  0
   -2.0010   23.8530  -28.6757 H   0  0  0  0  0  0  0  0  0  0  0  0
   -1.3120   25.5119  -28.6757 H   0  0  0  0  0  0  0  0  0  0  0  0
   -5.6961   25.7699  -29.3546 H   0  0  0  0  0  0  0  0  0  0  0  0
   -7.5216   24.3395  -30.1751 H   0  0  0  0  0  0  0  0  0  0  0  0
   -5.9930   20.3675  -32.0451 H   0  0  0  0  0  0  0  0  0  0  0  0
   -7.0564   16.2405  -32.4315 H   0  0  0  0  0  0  0  0  0  0  0  0
   -2.3630   15.7340  -32.6210 H   0  0  0  0  0  0  0  0  0  0  0  0
   -5.5193   20.0933  -33.5882 H   0  0  0  0  0  0  0  0  0  0  0  0
  -10.6371   21.9026  -31.9338 H   0  0  0  0  0  0  0  0  0  0  0  0
   -8.9030   23.2710  -31.1490 H   0  0  0  0  0  0  0  0  0  0  0  0
   -4.6659   21.5730  -31.7315 H   0  0  0  0  0  0  0  0  0  0  0  0
   -2.0107   21.3930  -29.6935 H   0  0  0  0  0  0  0  0  0  0  0  0
   -2.8094   20.9495  -31.2401 H   0  0  0  0  0  0  0  0  0  0  0  0
   -1.1059   21.5194  -31.2401 H   0  0  0  0  0  0  0  0  0  0  0  0
  1  2  1  0
  2  3  1  0
  3  4  2  0
  4  5  1  0
  5  6  2  0
  6  7  1  0
  7  8  2  0
  8  9  1  0
  9 10  2  0
 10 11  1  0
 11 12  2  0
 12 13  1  0
 13 14  1  0
 13 15  2  0
 15 16  1  0
 15 17  1  0
 17 18  1  0
 17 19  2  0
  9 20  1  0
 20 21  2  0
 21 22  1  0
  6 23  1  0
 23 24  2  0
 24 25  1  0
 25 26  1  0
 24  3  1  0
 22  7  1  0
 19 11  1  0
  1 27  1  0
  1 28  1  0
  1 29  1  0
  4 30  1  0
  5 31  1  0
  8 32  1  0
 12 33  1  0
 16 34  1  0
 19 35  1  0
 21 36  1  0
 22 37  1  0
 23 38  1  0
 26 39  1  0
 26 40  1  0
 26 41  1  0
M  END
>  <smiles>  (10) 
COc1ccc(-c2cc(=Nc3cc(Cl)c(O)c(Br)c3)nc[nH]2)cc1OC

>  <score_type>  (10) 
oracle

>  <origin>  (10) 
adgpu

>  <m_score__min__energy>  (10) 
-8.4199999999999999

>  <m_primary>  (10) 
energy

$$$$
10:0
     RDKit          3D

 55 58  0  0  0  0  0  0  0  0999 V2000
   -3.5550   20.8300  -30.4510 C   0  0  0  0  0  0  0  0  0  0  0  0
   -3.5820   22.1840  -30.8930 O   0  0  0  0  0  0  0  0  0  0  0  0
   -4.6370   23.0770  -30.6530 C   0  0  0  0  0  0  0  0  0  0  0  0
   -5.9890   22.7050  -30.8100 C   0  0  0  0  0  0  0  0  0  0  0  0
   -7.0100   23.6260  -30.5420 C   0  0  0  0  0  0  0  0  0  0  0  0
   -6.6950   24.9190  -30.1160 C   0  0  0  0  0  0  0  0  0  0  0  0
   -5.3580   25.2990  -29.9640 C   0  0  0  0  0  0  0  0  0  0  0  0
   -4.3310   24.3860  -30.2320 C   0  0  0  0  0  0  0  0  0  0  0  0
   -2.9720   24.7860  -30.0620 N   0  0  0  0  0  0  0  0  0  0  0  0
   -2.2840   24.9420  -28.4840 S   0  0  0  0  0  0  0  0  0  0  0  0
   -1.6010   26.2770  -28.3860 O   0  0  0  0  0  0  0  0  0  0  0  0
   -3.3710   24.8990  -27.4480 O   0  0  0  0  0  0  0  0  0  0  0  0
   -1.0930   23.6580  -28.2270 C   0  0  0  0  0  0  0  0  0  0  0  0
   -1.1010   22.5590  -29.0990 C   0  0  0  0  0  0  0  0  0  0  0  0
   -0.2170   21.4810  -28.9170 C   0  0  0  0  0  0  0  0  0  0  0  0
   -0.2580   20.3100  -29.8250 C   0  0  0  0  0  0  0  0  0  0  0  0
   -0.3200   19.1430  -29.3420 O   0  0  0  0  0  0  0  0  0  0  0  0
   -0.1890   20.4840  -31.2490 N   0  0  0  0  0  0  0  0  0  0  0  0
   -0.8440   19.6270  -32.2010 C   0  0  0  0  0  0  0  0  0  0  0  0
   -1.8000   20.1740  -33.0710 C   0  0  0  0  0  0  0  0  0  0  0  0
   -2.4970   19.3570  -33.9650 C   0  0  0  0  0  0  0  0  0  0  0  0
   -2.2510   17.9790  -34.0060 C   0  0  0  0  0  0  0  0  0  0  0  0
   -2.9920   17.1900  -34.8970 O   0  0  0  0  0  0  0  0  0  0  0  0
   -4.2700   16.6670  -34.6510 C   0  0  0  0  0  0  0  0  0  0  0  0
   -5.3930   17.4970  -34.4720 C   0  0  0  0  0  0  0  0  0  0  0  0
   -6.6460   16.9360  -34.2010 C   0  0  0  0  0  0  0  0  0  0  0  0
   -6.7840   15.5480  -34.0970 C   0  0  0  0  0  0  0  0  0  0  0  0
   -5.6680   14.7200  -34.2550 C   0  0  0  0  0  0  0  0  0  0  0  0
   -4.4150   15.2780  -34.5270 C   0  0  0  0  0  0  0  0  0  0  0  0
   -1.3160   17.4210  -33.1190 C   0  0  0  0  0  0  0  0  0  0  0  0
   -0.6170   18.2380  -32.2250 C   0  0  0  0  0  0  0  0  0  0  0  0
    0.6770   21.5130  -27.8340 C   0  0  0  0  0  0  0  0  0  0  0  0
    0.6820   22.5970  -26.9540 C   0  0  0  0  0  0  0  0  0  0  0  0
   -0.1990   23.6670  -27.1350 C   0  0  0  0  0  0  0  0  0  0  0  0
   -0.1690   24.9610  -25.9450 Cl  0  0  0  0  0  0  0  0  0  0  0  0
   -3.5545   20.8032  -29.3513 H   0  0  0  0  0  0  0  0  0  0  0  0
   -4.4428   20.3027  -30.8302 H   0  0  0  0  0  0  0  0  0  0  0  0
   -2.6469   20.3385  -30.8302 H   0  0  0  0  0  0  0  0  0  0  0  0
   -6.2422   21.6880  -31.1441 H   0  0  0  0  0  0  0  0  0  0  0  0
   -8.0622   23.3306  -30.6672 H   0  0  0  0  0  0  0  0  0  0  0  0
   -7.4990   25.6380  -29.9002 H   0  0  0  0  0  0  0  0  0  0  0  0
   -5.1122   26.3187  -29.6327 H   0  0  0  0  0  0  0  0  0  0  0  0
   -1.8108   22.5404  -29.9392 H   0  0  0  0  0  0  0  0  0  0  0  0
    0.4000   21.2680  -31.6150 H   0  0  0  0  0  0  0  0  0  0  0  0
   -2.0023   21.2550  -33.0489 H   0  0  0  0  0  0  0  0  0  0  0  0
   -3.2438   19.7991  -34.6409 H   0  0  0  0  0  0  0  0  0  0  0  0
   -5.2852   18.5892  -34.5454 H   0  0  0  0  0  0  0  0  0  0  0  0
   -7.5229   17.5870  -34.0697 H   0  0  0  0  0  0  0  0  0  0  0  0
   -7.7706   15.1075  -33.8909 H   0  0  0  0  0  0  0  0  0  0  0  0
   -5.7760   13.6290  -34.1652 H   0  0  0  0  0  0  0  0  0  0  0  0
   -3.5385   14.6238  -34.6443 H   0  0  0  0  0  0  0  0  0  0  0  0
   -1.1327   16.3364  -33.1276 H   0  0  0  0  0  0  0  0  0  0  0  0
    0.1153   17.7922  -31.5358 H   0  0  0  0  0  0  0  0  0  0  0  0
    1.3773   20.6791  -27.6783 H   0  0  0  0  0  0  0  0  0  0  0  0
    1.3866   22.6091  -26.1094 H   0  0  0  0  0  0  0  0  0  0  0  0
  1  2  1  0
  2  3  1  0
  3  4  2  0
  4  5  1  0
  5  6  2  0
  6  7  1  0
  7  8  2  0
  8  9  1  0
  9 10  1  0
 10 11  2  0
 10 12  2  0
 10 13  1  0
 13 14  2  0
 14 15  1  0
 15 16  1  0
 16 17  2  0
 16 18  1  0
 18 19  1  0
 19 20  2  0
 20 21  1  0
 21 22  2  0
 22 23  1  0
 23 24  1  0
 24 25  2  0
 25 26  1  0
 26 27  2  0
 27 28  1  0
 28 29  2  0
 22 30  1  0
 30 31  2  0
 15 32  2  0
 32 33  1  0
 33 34  2  0
 34 35  1  0
  8  3  1  0
 34 13  1  0
 31 19  1  0
 29 24  1  0
  1 36  1  0
  1 37  1  0
  1 38  1  0
  4 39  1  0
  5 40  1  0
  6 41  1  0
  7 42  1  0
 14 43  1  0
 18 44  1  0
 20 45  1  0
 21 46  1  0
 25 47  1  0
 26 48  1  0
 27 49  1  0
 28 50  1  0
 29 51  1  0
 30 52  1  0
 31 53  1  0
 32 54  1  0
 33 55  1  0
M  CHG  1   9  -1
M  END
>  <UniqueID>  (11) 
9

>  <SMILES>  (11) 
COc1ccccc1[N-]S(=O)(=O)c1cc(C(=O)Nc2ccc(Oc3ccccc3)cc2)ccc1Cl

>  <Energy>  (11) 
80.98179454777679

>  <Genealogy>  (11) 
COc1ccccc1[N-]S(=O)(=O)c1cc(C(=O)Nc2ccc(Oc3ccccc3)cc2)ccc1Cl (protonated)
COc1ccccc1[N-]S(=O)(=O)c1cc(C(=O)Nc2ccc(Oc3ccccc3)cc2)ccc1Cl (3D coordinates assigned)
COc1ccccc1[N-]S(=O)(=O)c1cc(C(=O)Nc2ccc(Oc3ccccc3)cc2)ccc1Cl (optimized conformer: 80.98179454777679 kcal/mol)

>  <smiles>  (11) 
COc1ccccc1NS(=O)(=O)c1cc(C(=O)Nc2ccc(Oc3ccccc3)cc2)ccc1Cl

>  <score_type>  (11) 
oracle

>  <origin>  (11) 
adgpu

>  <m_score__min__energy>  (11) 
-9.9100000000000001

>  <m_primary>  (11) 
energy

$$$$
11:0
     RDKit          3D

 32 34  0  0  0  0  0  0  0  0999 V2000
   -9.2320   18.5340  -32.0980 C   0  0  0  0  0  0  0  0  0  0  0  0
   -9.2300   19.9230  -32.4100 O   0  0  0  0  0  0  0  0  0  0  0  0
   -8.2580   20.8350  -31.9700 C   0  0  0  0  0  0  0  0  0  0  0  0
   -8.4520   21.6460  -30.8370 C   0  0  0  0  0  0  0  0  0  0  0  0
   -7.4620   22.5420  -30.4290 C   0  0  0  0  0  0  0  0  0  0  0  0
   -6.2580   22.6450  -31.1420 C   0  0  0  0  0  0  0  0  0  0  0  0
   -5.2100   23.5940  -30.7090 C   0  0  0  0  0  0  0  0  0  0  0  0
   -5.0050   24.7990  -31.2790 N   0  0  0  0  0  0  0  0  0  0  0  0
   -4.0140   25.3180  -30.6230 O   0  0  0  0  0  0  0  0  0  0  0  0
   -3.6180   24.4850  -29.6940 C   0  0  0  0  0  0  0  0  0  0  0  0
   -2.5150   24.7520  -28.7670 C   0  0  0  0  0  0  0  0  0  0  0  0
   -2.2650   24.0780  -27.5880 C   0  0  0  0  0  0  0  0  0  0  0  0
   -1.1380   24.6690  -27.0580 C   0  0  0  0  0  0  0  0  0  0  0  0
   -0.7730   25.6620  -27.9440 C   0  0  0  0  0  0  0  0  0  0  0  0
   -1.6130   25.6870  -28.9530 O   0  0  0  0  0  0  0  0  0  0  0  0
   -4.3490   23.3530  -29.6950 N   0  0  0  0  0  0  0  0  0  0  0  0
   -6.0620   21.8350  -32.2740 C   0  0  0  0  0  0  0  0  0  0  0  0
   -7.0580   20.9290  -32.6910 C   0  0  0  0  0  0  0  0  0  0  0  0
   -6.8920   20.1070  -33.8170 O   0  0  0  0  0  0  0  0  0  0  0  0
   -6.0990   18.9250  -33.8460 C   0  0  0  0  0  0  0  0  0  0  0  0
   -9.2322   18.4035  -31.0058 H   0  0  0  0  0  0  0  0  0  0  0  0
  -10.1308   18.0639  -32.5236 H   0  0  0  0  0  0  0  0  0  0  0  0
   -8.3345   18.0613  -32.5236 H   0  0  0  0  0  0  0  0  0  0  0  0
   -9.3908   21.5737  -30.2682 H   0  0  0  0  0  0  0  0  0  0  0  0
   -7.6271   23.1716  -29.5423 H   0  0  0  0  0  0  0  0  0  0  0  0
   -2.8433   23.2451  -27.1616 H   0  0  0  0  0  0  0  0  0  0  0  0
   -0.6318   24.4028  -26.1184 H   0  0  0  0  0  0  0  0  0  0  0  0
    0.0913   26.3316  -27.8232 H   0  0  0  0  0  0  0  0  0  0  0  0
   -5.1218   21.9089  -32.8401 H   0  0  0  0  0  0  0  0  0  0  0  0
   -5.8830   18.6030  -32.8166 H   0  0  0  0  0  0  0  0  0  0  0  0
   -6.6465   18.1290  -34.3719 H   0  0  0  0  0  0  0  0  0  0  0  0
   -5.1548   19.1297  -34.3719 H   0  0  0  0  0  0  0  0  0  0  0  0
  1  2  1  0
  2  3  1  0
  3  4  2  0
  4  5  1  0
  5  6  2  0
  6  7  1  0
  7  8  2  0
  8  9  1  0
  9 10  1  0
 10 11  1  0
 11 12  2  0
 12 13  1  0
 13 14  2  0
 14 15  1  0
 10 16  2  0
  6 17  1  0
 17 18  2  0
 18 19  1  0
 19 20  1  0
 18  3  1  0
 16  7  1  0
 15 11  1  0
  1 21  1  0
  1 22  1  0
  1 23  1  0
  4 24  1  0
  5 25  1  0
 12 26  1  0
 13 27  1  0
 14 28  1  0
 17 29  1  0
 20 30  1  0
 20 31  1  0
 20 32  1  0
M  END
>  <UniqueID>  (12) 
10

>  <SMILES>  (12) 
COc1ccc(-c2noc(-c3ccco3)n2)cc1OC

>  <Energy>  (12) 
91.76616034777582

>  <Genealogy>  (12) 
COc1ccc(-c2noc(-c3ccco3)n2)cc1OC (3D coordinates assigned)
COc1ccc(-c2noc(-c3ccco3)n2)cc1OC (optimized conformer: 91.76616034777582 kcal/mol)

>  <smiles>  (12) 
COc1ccc(-c2noc(-c3ccco3)n2)cc1OC

>  <score_type>  (12) 
oracle

>  <origin>  (12) 
adgpu

>  <m_score__min__energy>  (12) 
-8.0500000000000007

>  <m_primary>  (12) 
energy

$$$$
12:0
     RDKit          3D

 39 41  0  0  0  0  0  0  0  0999 V2000
   -3.5390   25.2850  -30.4510 N   0  0  0  0  0  0  0  0  0  0  0  0
   -3.3940   23.8980  -30.1010 C   0  0  0  0  0  0  0  0  0  0  0  0
   -4.2990   22.9370  -30.6220 C   0  0  0  0  0  0  0  0  0  0  0  0
   -5.4670   23.3310  -31.4450 C   0  0  0  0  0  0  0  0  0  0  0  0
   -5.5290   24.5130  -31.8800 O   0  0  0  0  0  0  0  0  0  0  0  0
   -6.5740   22.3850  -31.7390 C   0  0  0  0  0  0  0  0  0  0  0  0
   -6.3750   21.2730  -32.5810 C   0  0  0  0  0  0  0  0  0  0  0  0
   -7.4280   20.3950  -32.8550 C   0  0  0  0  0  0  0  0  0  0  0  0
   -8.6890   20.6180  -32.3000 C   0  0  0  0  0  0  0  0  0  0  0  0
   -8.9030   21.7230  -31.4730 C   0  0  0  0  0  0  0  0  0  0  0  0
  -10.1300   21.9400  -30.9380 F   0  0  0  0  0  0  0  0  0  0  0  0
   -7.8530   22.6040  -31.1950 C   0  0  0  0  0  0  0  0  0  0  0  0
   -4.1310   21.5800  -30.3090 C   0  0  0  0  0  0  0  0  0  0  0  0
   -3.0870   21.1680  -29.4870 C   0  0  0  0  0  0  0  0  0  0  0  0
   -2.1960   22.1020  -28.9650 C   0  0  0  0  0  0  0  0  0  0  0  0
   -2.3310   23.4670  -29.2640 C   0  0  0  0  0  0  0  0  0  0  0  0
   -1.1450   24.6100  -28.6090 S   0  0  0  0  0  0  0  0  0  0  0  0
    0.1950   24.3680  -29.2480 O   0  0  0  0  0  0  0  0  0  0  0  0
   -1.5840   26.0150  -28.9160 O   0  0  0  0  0  0  0  0  0  0  0  0
   -0.9620   24.4410  -26.8610 C   0  0  0  0  0  0  0  0  0  0  0  0
   -1.1210   25.5570  -26.0270 C   0  0  0  0  0  0  0  0  0  0  0  0
   -0.9550   25.4290  -24.6440 C   0  0  0  0  0  0  0  0  0  0  0  0
   -0.6280   24.1880  -24.0900 C   0  0  0  0  0  0  0  0  0  0  0  0
   -0.4620   23.0740  -24.9190 C   0  0  0  0  0  0  0  0  0  0  0  0
   -0.6260   23.2000  -26.3020 C   0  0  0  0  0  0  0  0  0  0  0  0
   -3.4880   26.0370  -29.7290 H   0  0  0  0  0  0  0  0  0  0  0  0
   -3.7170   25.5980  -31.4280 H   0  0  0  0  0  0  0  0  0  0  0  0
   -5.3848   21.0945  -33.0256 H   0  0  0  0  0  0  0  0  0  0  0  0
   -7.2622   19.5265  -33.5094 H   0  0  0  0  0  0  0  0  0  0  0  0
   -9.5146   19.9233  -32.5140 H   0  0  0  0  0  0  0  0  0  0  0  0
   -8.0284   23.4748  -30.5461 H   0  0  0  0  0  0  0  0  0  0  0  0
   -4.8305   20.8355  -30.7169 H   0  0  0  0  0  0  0  0  0  0  0  0
   -2.9650   20.1011  -29.2487 H   0  0  0  0  0  0  0  0  0  0  0  0
   -1.3774   21.7667  -28.3112 H   0  0  0  0  0  0  0  0  0  0  0  0
   -1.3767   26.5348  -26.4611 H   0  0  0  0  0  0  0  0  0  0  0  0
   -1.0819   26.3057  -23.9918 H   0  0  0  0  0  0  0  0  0  0  0  0
   -0.5012   24.0876  -23.0019 H   0  0  0  0  0  0  0  0  0  0  0  0
   -0.2023   22.0981  -24.4829 H   0  0  0  0  0  0  0  0  0  0  0  0
   -0.4911   22.3235  -26.9527 H   0  0  0  0  0  0  0  0  0  0  0  0
  1  2  1  0
  2  3  2  0
  3  4  1  0
  4  5  2  0
  4  6  1  0
  6  7  2  0
  7  8  1  0
  8  9  2  0
  9 10  1  0
 10 11  1  0
 10 12  2  0
  3 13  1  0
 13 14  2  0
 14 15  1  0
 15 16  2  0
 16 17  1  0
 17 18  2  0
 17 19  2  0
 17 20  1  0
 20 21  2  0
 21 22  1  0
 22 23  2  0
 23 24  1  0
 24 25  2  0
 16  2  1  0
 25 20  1  0
 12  6  1  0
  1 26  1  0
  1 27  1  0
  7 28  1  0
  8 29  1  0
  9 30  1  0
 12 31  1  0
 13 32  1  0
 14 33  1  0
 15 34  1  0
 21 35  1  0
 22 36  1  0
 23 37  1  0
 24 38  1  0
 25 39  1  0
M  END
>  <UniqueID>  (13) 
11

>  <SMILES>  (13) 
Nc1c(C(=O)c2cccc(F)c2)cccc1S(=O)(=O)c1ccccc1

>  <Energy>  (13) 
55.8235323217445

>  <Genealogy>  (13) 
Nc1c(C(=O)c2cccc(F)c2)cccc1S(=O)(=O)c1ccccc1 (3D coordinates assigned)
Nc1c(C(=O)c2cccc(F)c2)cccc1S(=O)(=O)c1ccccc1 (optimized conformer: 55.8235323217445 kcal/mol)

>  <smiles>  (13) 
Nc1c(C(=O)c2cccc(F)c2)cccc1S(=O)(=O)c1ccccc1

>  <score_type>  (13) 
oracle

>  <origin>  (13) 
adgpu

>  <m_score__min__energy>  (13) 
-9.5999999999999996

>  <m_primary>  (13) 
energy

$$$$
13:0
     RDKit          3D

 46 49  0  0  0  0  0  0  0  0999 V2000
   -4.3198   16.3773  -35.5759 H   0  0  0  0  0  0  0  0  0  0  0  0
   -4.3120   17.2960  -34.9710 C   0  0  0  0  0  0  0  0  0  0  0  0
   -5.4830   17.8840  -34.6330 N   0  0  0  0  0  0  0  0  0  0  0  0
   -5.5310   19.0120  -33.8840 C   0  0  0  0  0  0  0  0  0  0  0  0
   -6.7720   19.5660  -33.5540 C   0  0  0  0  0  0  0  0  0  0  0  0
   -7.6968   19.0844  -33.9043 H   0  0  0  0  0  0  0  0  0  0  0  0
   -6.8430   20.7260  -32.7830 C   0  0  0  0  0  0  0  0  0  0  0  0
   -7.8243   21.1539  -32.5302 H   0  0  0  0  0  0  0  0  0  0  0  0
   -5.6720   21.3520  -32.3270 C   0  0  0  0  0  0  0  0  0  0  0  0
   -5.7520   22.5880  -31.5050 C   0  0  0  0  0  0  0  0  0  0  0  0
   -6.9880   23.0270  -30.9970 C   0  0  0  0  0  0  0  0  0  0  0  0
   -7.9013   22.4511  -31.2071 H   0  0  0  0  0  0  0  0  0  0  0  0
   -7.0620   24.1890  -30.2280 C   0  0  0  0  0  0  0  0  0  0  0  0
   -8.0328   24.5262  -29.8357 H   0  0  0  0  0  0  0  0  0  0  0  0
   -5.9070   24.9250  -29.9550 C   0  0  0  0  0  0  0  0  0  0  0  0
   -5.9733   25.8400  -29.3480 H   0  0  0  0  0  0  0  0  0  0  0  0
   -4.6660   24.5070  -30.4480 C   0  0  0  0  0  0  0  0  0  0  0  0
   -3.5080   25.2940  -30.1370 N   0  0  0  0  0  0  0  0  0  0  0  0
   -2.2470   24.8540  -29.0300 S   0  0  0  0  0  0  0  0  0  0  0  0
   -1.5130   23.6460  -29.5400 O   0  0  0  0  0  0  0  0  0  0  0  0
   -1.2790   25.9970  -28.9230 O   0  0  0  0  0  0  0  0  0  0  0  0
   -2.9310   24.5320  -27.4180 C   0  0  0  0  0  0  0  0  0  0  0  0
   -2.2223   24.8656  -26.6457 H   0  0  0  0  0  0  0  0  0  0  0  0
   -3.8792   25.0783  -27.3062 H   0  0  0  0  0  0  0  0  0  0  0  0
   -3.1141   23.4531  -27.3062 H   0  0  0  0  0  0  0  0  0  0  0  0
   -4.5930   23.3370  -31.2260 C   0  0  0  0  0  0  0  0  0  0  0  0
   -3.6213   23.0044  -31.6200 H   0  0  0  0  0  0  0  0  0  0  0  0
   -4.4230   20.7970  -32.6600 C   0  0  0  0  0  0  0  0  0  0  0  0
   -3.5016   21.2847  -32.3090 H   0  0  0  0  0  0  0  0  0  0  0  0
   -4.3360   19.6220  -33.4390 C   0  0  0  0  0  0  0  0  0  0  0  0
   -3.0880   19.0530  -33.8030 C   0  0  0  0  0  0  0  0  0  0  0  0
   -1.9950   19.6620  -33.4090 N   0  0  0  0  0  0  0  0  0  0  0  0
   -0.6310   19.4050  -33.7630 C   0  0  0  0  0  0  0  0  0  0  0  0
    0.1400   18.5060  -33.0110 C   0  0  0  0  0  0  0  0  0  0  0  0
   -0.2885   18.0311  -32.1161 H   0  0  0  0  0  0  0  0  0  0  0  0
    1.4520   18.2120  -33.3960 C   0  0  0  0  0  0  0  0  0  0  0  0
    2.0604   17.5216  -32.7933 H   0  0  0  0  0  0  0  0  0  0  0  0
    1.9910   18.7960  -34.5480 C   0  0  0  0  0  0  0  0  0  0  0  0
    3.7820   18.3950  -35.0740 Br  0  0  0  0  0  0  0  0  0  0  0  0
    1.2130   19.6670  -35.3190 C   0  0  0  0  0  0  0  0  0  0  0  0
    1.6342   20.1205  -36.2284 H   0  0  0  0  0  0  0  0  0  0  0  0
   -0.1000   19.9620  -34.9350 C   0  0  0  0  0  0  0  0  0  0  0  0
   -0.8510   20.7970  -35.6950 F   0  0  0  0  0  0  0  0  0  0  0  0
   -3.0910   17.8430  -34.5600 C   0  0  0  0  0  0  0  0  0  0  0  0
   -1.9070   17.0670  -34.8470 C   0  0  0  0  0  0  0  0  0  0  0  0
   -0.9630   16.4370  -35.0770 N   0  0  0  0  0  0  0  0  0  0  0  0
  1  2  1  0
  2  3  1  0
  3  4  1  0
  4  5  2  0
  5  6  1  0
  5  7  1  0
  7  8  1  0
  7  9  2  0
  9 10  1  0
 10 11  2  0
 11 12  1  0
 11 13  1  0
 13 14  1  0
 13 15  2  0
 15 16  1  0
 15 17  1  0
 17 18  1  0
 18 19  1  0
 19 20  2  0
 19 21  2  0
 19 22  1  0
 22 23  1  0
 22 24  1  0
 22 25  1  0
 17 26  2  0
 26 27  1  0
  9 28  1  0
 28 29  1  0
 28 30  2  0
 30 31  1  0
 31 32  2  0
 32 33  1  0
 33 34  2  0
 34 35  1  0
 34 36  1  0
 36 37  1  0
 36 38  2  0
 38 39  1  0
 38 40  1  0
 40 41  1  0
 40 42  2  0
 42 43  1  0
 31 44  1  0
 44 45  1  0
 45 46  3  0
 44  2  2  0
 30  4  1  0
 42 33  1  0
 26 10  1  0
M  CHG  2   3  -1  18  -1
M  END
>  <UniqueID>  (14) 
12

>  <SMILES>  (14) 
CS(=O)(=O)[N-]c1cccc(-c2ccc3[n-]cc(C#N)/c(=N\c4ccc(Br)cc4F)c3c2)c1

>  <Energy>  (14) 
75.53020655854586

>  <Genealogy>  (14) 
CS(=O)(=O)[N-]c1cccc(-c2ccc3[n-]cc(C#N)c(=Nc4ccc(Br)cc4F)c3c2)c1 (protonated)
CS(=O)(=O)[N-]c1cccc(-c2ccc3[n-]cc(C#N)/c(=N\c4ccc(Br)cc4F)c3c2)c1 (cis-trans isomerization)
CS(=O)(=O)[N-]c1cccc(-c2ccc3[n-]cc(C#N)/c(=N\c4ccc(Br)cc4F)c3c2)c1 (3D coordinates assigned)
CS(=O)(=O)[N-]c1cccc(-c2ccc3[n-]cc(C#N)/c(=N\c4ccc(Br)cc4F)c3c2)c1 (optimized conformer: 75.53020655854586 kcal/mol)

>  <smiles>  (14) 
CS(=O)(=O)Nc1cccc(-c2ccc3[nH]cc(C#N)c(=Nc4ccc(Br)cc4F)c3c2)c1

>  <score_type>  (14) 
oracle

>  <origin>  (14) 
adgpu

>  <m_score__min__energy>  (14) 
-11.57

>  <m_primary>  (14) 
energy

$$$$
14:0
     RDKit          3D

 41 43  0  0  0  0  0  0  0  0999 V2000
   -8.8415   19.5382  -32.8297 H   0  0  0  0  0  0  0  0  0  0  0  0
   -8.3120   20.3310  -32.2810 C   0  0  0  0  0  0  0  0  0  0  0  0
   -6.9150   20.3820  -32.3020 C   0  0  0  0  0  0  0  0  0  0  0  0
   -6.3462   19.6302  -32.8688 H   0  0  0  0  0  0  0  0  0  0  0  0
   -6.2400   21.3880  -31.6030 C   0  0  0  0  0  0  0  0  0  0  0  0
   -5.1411   21.4302  -31.6279 H   0  0  0  0  0  0  0  0  0  0  0  0
   -6.9610   22.3450  -30.8690 C   0  0  0  0  0  0  0  0  0  0  0  0
   -6.2380   23.4480  -30.1450 C   0  0  0  0  0  0  0  0  0  0  0  0
   -5.6104   23.0136  -29.3529 H   0  0  0  0  0  0  0  0  0  0  0  0
   -6.9757   24.1336  -29.7026 H   0  0  0  0  0  0  0  0  0  0  0  0
   -5.3740   24.2070  -31.1010 C   0  0  0  0  0  0  0  0  0  0  0  0
   -5.6390   24.1720  -32.3320 O   0  0  0  0  0  0  0  0  0  0  0  0
   -4.2260   24.9100  -30.5950 N   0  0  0  0  0  0  0  0  0  0  0  0
   -3.3450   24.5010  -29.7290 C   0  0  0  0  0  0  0  0  0  0  0  0
   -2.3150   25.2750  -29.3380 N   0  0  0  0  0  0  0  0  0  0  0  0
   -1.6020   24.5780  -28.4670 N   0  0  0  0  0  0  0  0  0  0  0  0
   -0.3610   25.0730  -27.8740 C   0  0  0  0  0  0  0  0  0  0  0  0
    0.3496   24.2398  -27.7699 H   0  0  0  0  0  0  0  0  0  0  0  0
    0.0638   25.8497  -28.5269 H   0  0  0  0  0  0  0  0  0  0  0  0
   -0.6330   25.6660  -26.5190 C   0  0  0  0  0  0  0  0  0  0  0  0
   -0.5910   24.8650  -25.3660 C   0  0  0  0  0  0  0  0  0  0  0  0
   -0.3748   23.7900  -25.4531 H   0  0  0  0  0  0  0  0  0  0  0  0
   -0.8230   25.4290  -24.1080 C   0  0  0  0  0  0  0  0  0  0  0  0
   -0.7897   24.7968  -23.2085 H   0  0  0  0  0  0  0  0  0  0  0  0
   -1.0970   26.7940  -23.9910 C   0  0  0  0  0  0  0  0  0  0  0  0
   -1.2804   27.2355  -23.0003 H   0  0  0  0  0  0  0  0  0  0  0  0
   -1.1380   27.5980  -25.1330 C   0  0  0  0  0  0  0  0  0  0  0  0
   -1.3539   28.6726  -25.0403 H   0  0  0  0  0  0  0  0  0  0  0  0
   -0.9050   27.0390  -26.3940 C   0  0  0  0  0  0  0  0  0  0  0  0
   -0.9348   27.6760  -27.2903 H   0  0  0  0  0  0  0  0  0  0  0  0
   -2.1620   23.3600  -28.2980 C   0  0  0  0  0  0  0  0  0  0  0  0
   -1.6010   22.2530  -27.4590 C   0  0  0  0  0  0  0  0  0  0  0  0
   -1.7263   22.5002  -26.3945 H   0  0  0  0  0  0  0  0  0  0  0  0
   -2.1335   21.3170  -27.6832 H   0  0  0  0  0  0  0  0  0  0  0  0
   -0.5313   22.1290  -27.6832 H   0  0  0  0  0  0  0  0  0  0  0  0
   -3.2850   23.2650  -29.0970 C   0  0  0  0  0  0  0  0  0  0  0  0
   -3.9704   22.4117  -29.2070 H   0  0  0  0  0  0  0  0  0  0  0  0
   -8.3640   22.2930  -30.8620 C   0  0  0  0  0  0  0  0  0  0  0  0
   -8.9371   23.0470  -30.3025 H   0  0  0  0  0  0  0  0  0  0  0  0
   -9.0360   21.2870  -31.5630 C   0  0  0  0  0  0  0  0  0  0  0  0
  -10.1352   21.2479  -31.5494 H   0  0  0  0  0  0  0  0  0  0  0  0
  1  2  1  0
  2  3  2  0
  3  4  1  0
  3  5  1  0
  5  6  1  0
  5  7  2  0
  7  8  1  0
  8  9  1  0
  8 10  1  0
  8 11  1  0
 11 12  2  0
 11 13  1  0
 13 14  2  0
 14 15  1  0
 15 16  1  0
 16 17  1  0
 17 18  1  0
 17 19  1  0
 17 20  1  0
 20 21  2  0
 21 22  1  0
 21 23  1  0
 23 24  1  0
 23 25  2  0
 25 26  1  0
 25 27  1  0
 27 28  1  0
 27 29  2  0
 29 30  1  0
 16 31  1  0
 31 32  1  0
 32 33  1  0
 32 34  1  0
 32 35  1  0
 31 36  2  0
 36 37  1  0
  7 38  1  0
 38 39  1  0
 38 40  2  0
 40 41  1  0
 40  2  1  0
 36 14  1  0
 29 20  1  0
M  CHG  1  15  -1
M  END
>  <UniqueID>  (15) 
13

>  <SMILES>  (15) 
Cc1c/c(=N\C(=O)Cc2ccccc2)[n-]n1Cc1ccccc1

>  <Energy>  (15) 
73.41484214867795

>  <Genealogy>  (15) 
Cc1cc(=NC(=O)Cc2ccccc2)[n-]n1Cc1ccccc1 (protonated)
Cc1c/c(=N\C(=O)Cc2ccccc2)[n-]n1Cc1ccccc1 (cis-trans isomerization)
Cc1c/c(=N\C(=O)Cc2ccccc2)[n-]n1Cc1ccccc1 (3D coordinates assigned)
Cc1c/c(=N\C(=O)Cc2ccccc2)[n-]n1Cc1ccccc1 (optimized conformer: 73.41484214867795 kcal/mol)

>  <smiles>  (15) 
Cc1cc(=NC(=O)Cc2ccccc2)[nH]n1Cc1ccccc1

>  <score_type>  (15) 
oracle

>  <origin>  (15) 
adgpu

>  <m_score__min__energy>  (15) 
-9.9199999999999999

>  <m_primary>  (15) 
energy

$$$$
15:0
     RDKit          3D

 37 39  0  0  0  0  0  0  0  0999 V2000
   -2.5560   24.3350  -28.9530 Cl  0  0  0  0  0  0  0  0  0  0  0  0
   -3.9120   24.0580  -30.0290 C   0  0  0  0  0  0  0  0  0  0  0  0
   -5.0230   24.9040  -29.9880 C   0  0  0  0  0  0  0  0  0  0  0  0
   -6.1020   24.6870  -30.8510 C   0  0  0  0  0  0  0  0  0  0  0  0
   -6.0780   23.6260  -31.7690 C   0  0  0  0  0  0  0  0  0  0  0  0
   -7.1800   23.4620  -32.6850 N   0  0  0  0  0  0  0  0  0  0  0  0
   -8.5580   23.1880  -32.2680 C   0  0  0  0  0  0  0  0  0  0  0  0
   -8.7450   21.7300  -31.9700 C   0  0  0  0  0  0  0  0  0  0  0  0
   -9.2700   21.1750  -30.8190 C   0  0  0  0  0  0  0  0  0  0  0  0
   -9.0870   19.8410  -30.8500 N   0  0  0  0  0  0  0  0  0  0  0  0
   -8.4960   19.5430  -31.9970 N   0  0  0  0  0  0  0  0  0  0  0  0
   -7.9260   18.2340  -32.2970 C   0  0  0  0  0  0  0  0  0  0  0  0
   -6.5170   18.4090  -32.7950 C   0  0  0  0  0  0  0  0  0  0  0  0
   -6.1490   17.9210  -34.0600 C   0  0  0  0  0  0  0  0  0  0  0  0
   -4.8660   18.1610  -34.5620 C   0  0  0  0  0  0  0  0  0  0  0  0
   -3.9470   18.8960  -33.8100 C   0  0  0  0  0  0  0  0  0  0  0  0
   -4.3100   19.3960  -32.5570 C   0  0  0  0  0  0  0  0  0  0  0  0
   -5.5920   19.1600  -32.0510 C   0  0  0  0  0  0  0  0  0  0  0  0
   -8.2750   20.6640  -32.7070 C   0  0  0  0  0  0  0  0  0  0  0  0
   -4.9610   22.7690  -31.7940 C   0  0  0  0  0  0  0  0  0  0  0  0
   -3.8820   22.9900  -30.9320 C   0  0  0  0  0  0  0  0  0  0  0  0
   -5.0492   25.7420  -29.2759 H   0  0  0  0  0  0  0  0  0  0  0  0
   -6.9763   25.3533  -30.8098 H   0  0  0  0  0  0  0  0  0  0  0  0
   -6.9740   23.4170  -33.7090 H   0  0  0  0  0  0  0  0  0  0  0  0
   -8.7841   23.7726  -31.3641 H   0  0  0  0  0  0  0  0  0  0  0  0
   -9.2365   23.4702  -33.0865 H   0  0  0  0  0  0  0  0  0  0  0  0
   -9.7592   21.7332  -30.0072 H   0  0  0  0  0  0  0  0  0  0  0  0
   -7.9201   17.6179  -31.3857 H   0  0  0  0  0  0  0  0  0  0  0  0
   -8.5311   17.7361  -33.0690 H   0  0  0  0  0  0  0  0  0  0  0  0
   -6.8729   17.3479  -34.6579 H   0  0  0  0  0  0  0  0  0  0  0  0
   -4.5805   17.7705  -35.5499 H   0  0  0  0  0  0  0  0  0  0  0  0
   -2.9370   19.0813  -34.2044 H   0  0  0  0  0  0  0  0  0  0  0  0
   -3.5856   19.9767  -31.9671 H   0  0  0  0  0  0  0  0  0  0  0  0
   -5.8768   19.5634  -31.0681 H   0  0  0  0  0  0  0  0  0  0  0  0
   -7.8032   20.7201  -33.6991 H   0  0  0  0  0  0  0  0  0  0  0  0
   -4.9369   21.9216  -32.4949 H   0  0  0  0  0  0  0  0  0  0  0  0
   -3.0081   22.3227  -30.9642 H   0  0  0  0  0  0  0  0  0  0  0  0
  1  2  1  0
  2  3  2  0
  3  4  1  0
  4  5  2  0
  5  6  1  0
  6  7  1  0
  7  8  1  0
  8  9  1  0
  9 10  2  0
 10 11  1  0
 11 12  1  0
 12 13  1  0
 13 14  2  0
 14 15  1  0
 15 16  2  0
 16 17  1  0
 17 18  2  0
 11 19  1  0
  5 20  1  0
 20 21  2  0
 21  2  1  0
 19  8  2  0
 18 13  1  0
  3 22  1  0
  4 23  1  0
  6 24  1  0
  7 25  1  0
  7 26  1  0
  9 27  1  0
 12 28  1  0
 12 29  1  0
 14 30  1  0
 15 31  1  0
 16 32  1  0
 17 33  1  0
 18 34  1  0
 19 35  1  0
 20 36  1  0
 21 37  1  0
M  END
>  <UniqueID>  (16) 
14

>  <SMILES>  (16) 
Clc1ccc(NCc2cnn(Cc3ccccc3)c2)cc1

>  <Energy>  (16) 
64.23987737739564

>  <Genealogy>  (16) 
Clc1ccc(NCc2cnn(Cc3ccccc3)c2)cc1 (3D coordinates assigned)
Clc1ccc(NCc2cnn(Cc3ccccc3)c2)cc1 (optimized conformer: 64.23987737739564 kcal/mol)

>  <smiles>  (16) 
Clc1ccc(NCc2cnn(Cc3ccccc3)c2)cc1

>  <score_type>  (16) 
oracle

>  <origin>  (16) 
adgpu

>  <m_score__min__energy>  (16) 
-8.4100000000000001

>  <m_primary>  (16) 
energy

$$$$
16:0
     RDKit          3D

 31 32  0  0  0  0  0  0  0  0999 V2000
   -5.3703   18.7454  -34.9871 H   0  0  0  0  0  0  0  0  0  0  0  0
   -5.5600   19.2570  -34.0320 C   0  0  0  0  0  0  0  0  0  0  0  0
   -6.8420   19.2430  -33.4750 C   0  0  0  0  0  0  0  0  0  0  0  0
   -7.6620   18.7270  -33.9959 H   0  0  0  0  0  0  0  0  0  0  0  0
   -7.0830   19.8850  -32.2550 C   0  0  0  0  0  0  0  0  0  0  0  0
   -8.6860   19.8470  -31.5440 Cl  0  0  0  0  0  0  0  0  0  0  0  0
   -6.0410   20.5490  -31.5970 C   0  0  0  0  0  0  0  0  0  0  0  0
   -6.2252   21.0348  -30.6274 H   0  0  0  0  0  0  0  0  0  0  0  0
   -4.7600   20.5960  -32.1730 C   0  0  0  0  0  0  0  0  0  0  0  0
   -3.6670   21.2160  -31.4810 N   0  0  0  0  0  0  0  0  0  0  0  0
   -3.5970   22.4240  -30.9870 C   0  0  0  0  0  0  0  0  0  0  0  0
   -2.4660   22.7520  -30.2370 C   0  0  0  0  0  0  0  0  0  0  0  0
   -1.6655   22.0108  -30.0962 H   0  0  0  0  0  0  0  0  0  0  0  0
   -2.3510   24.0200  -29.6660 C   0  0  0  0  0  0  0  0  0  0  0  0
   -1.1370   24.4010  -28.8700 C   0  0  0  0  0  0  0  0  0  0  0  0
   -0.4453   24.9642  -29.5137 H   0  0  0  0  0  0  0  0  0  0  0  0
   -0.6540   23.4842  -28.5010 H   0  0  0  0  0  0  0  0  0  0  0  0
   -1.5250   25.2650  -27.6760 C   0  0  0  0  0  0  0  0  0  0  0  0
   -1.2855   24.7317  -26.7442 H   0  0  0  0  0  0  0  0  0  0  0  0
   -0.9655   26.2114  -27.7110 H   0  0  0  0  0  0  0  0  0  0  0  0
   -2.6041   25.4755  -27.7110 H   0  0  0  0  0  0  0  0  0  0  0  0
   -3.3300   24.9330  -29.8790 N   0  0  0  0  0  0  0  0  0  0  0  0
   -4.4140   24.6590  -30.6100 N   0  0  0  0  0  0  0  0  0  0  0  0
   -5.4090   25.7130  -30.8000 C   0  0  0  0  0  0  0  0  0  0  0  0
   -5.7511   26.0754  -29.8194 H   0  0  0  0  0  0  0  0  0  0  0  0
   -4.9592   26.5449  -31.3618 H   0  0  0  0  0  0  0  0  0  0  0  0
   -6.2654   25.3118  -31.3618 H   0  0  0  0  0  0  0  0  0  0  0  0
   -4.5760   23.4290  -31.1940 C   0  0  0  0  0  0  0  0  0  0  0  0
   -5.5730   23.2220  -31.9370 O   0  0  0  0  0  0  0  0  0  0  0  0
   -4.5180   19.9210  -33.3760 C   0  0  0  0  0  0  0  0  0  0  0  0
   -3.5057   19.9129  -33.8063 H   0  0  0  0  0  0  0  0  0  0  0  0
  1  2  1  0
  2  3  2  0
  3  4  1  0
  3  5  1  0
  5  6  1  0
  5  7  2  0
  7  8  1  0
  7  9  1  0
  9 10  1  0
 10 11  2  0
 11 12  1  0
 12 13  1  0
 12 14  2  0
 14 15  1  0
 15 16  1  0
 15 17  1  0
 15 18  1  0
 18 19  1  0
 18 20  1  0
 18 21  1  0
 14 22  1  0
 22 23  1  0
 23 24  1  0
 24 25  1  0
 24 26  1  0
 24 27  1  0
 23 28  1  0
 28 29  2  0
  9 30  2  0
 30 31  1  0
 30  2  1  0
 28 11  1  0
M  CHG  1  22  -1
M  END
>  <UniqueID>  (17) 
15

>  <SMILES>  (17) 
CCc1c/c(=N/c2cccc(Cl)c2)c(=O)n(C)[n-]1

>  <Energy>  (17) 
41.7696450452334

>  <Genealogy>  (17) 
CCc1cc(=Nc2cccc(Cl)c2)c(=O)n(C)[n-]1 (protonated)
CCc1c/c(=N/c2cccc(Cl)c2)c(=O)n(C)[n-]1 (cis-trans isomerization)
CCc1c/c(=N/c2cccc(Cl)c2)c(=O)n(C)[n-]1 (3D coordinates assigned)
CCc1c/c(=N/c2cccc(Cl)c2)c(=O)n(C)[n-]1 (optimized conformer: 41.7696450452334 kcal/mol)

>  <smiles>  (17) 
CCc1cc(=Nc2cccc(Cl)c2)c(=O)n(C)[nH]1

>  <score_type>  (17) 
oracle

>  <origin>  (17) 
adgpu

>  <m_score__min__energy>  (17) 
-8.1400000000000006

>  <m_primary>  (17) 
energy

$$$$
17:0
     RDKit          3D

 43 46  0  0  0  0  0  0  0  0999 V2000
   -0.4950   26.7400  -23.4810 C   0  0  0  0  0  0  0  0  0  0  0  0
   -0.6450   27.2130  -24.8160 O   0  0  0  0  0  0  0  0  0  0  0  0
   -1.1870   26.4580  -25.8670 C   0  0  0  0  0  0  0  0  0  0  0  0
   -2.3330   25.6960  -25.6160 C   0  0  0  0  0  0  0  0  0  0  0  0
   -2.9110   24.9280  -26.6290 C   0  0  0  0  0  0  0  0  0  0  0  0
   -2.3520   24.9060  -27.9190 C   0  0  0  0  0  0  0  0  0  0  0  0
   -2.9790   24.0840  -28.9830 C   0  0  0  0  0  0  0  0  0  0  0  0
   -2.3470   23.1160  -29.7700 C   0  0  0  0  0  0  0  0  0  0  0  0
   -3.3630   22.6660  -30.5770 C   0  0  0  0  0  0  0  0  0  0  0  0
   -3.3140   21.7080  -31.5270 N   0  0  0  0  0  0  0  0  0  0  0  0
   -4.4330   21.4060  -32.1940 N   0  0  0  0  0  0  0  0  0  0  0  0
   -5.6230   22.0410  -31.9480 C   0  0  0  0  0  0  0  0  0  0  0  0
   -6.8400   21.6050  -32.7220 C   0  0  0  0  0  0  0  0  0  0  0  0
   -6.8630   20.1100  -32.9050 C   0  0  0  0  0  0  0  0  0  0  0  0
   -6.0940   19.5000  -33.9110 C   0  0  0  0  0  0  0  0  0  0  0  0
   -6.1230   18.1120  -34.0770 C   0  0  0  0  0  0  0  0  0  0  0  0
   -6.9120   17.3220  -33.2380 C   0  0  0  0  0  0  0  0  0  0  0  0
   -7.6740   17.9190  -32.2290 C   0  0  0  0  0  0  0  0  0  0  0  0
   -7.6490   19.3070  -32.0600 C   0  0  0  0  0  0  0  0  0  0  0  0
   -5.6610   23.0500  -30.9510 C   0  0  0  0  0  0  0  0  0  0  0  0
   -6.9290   23.7700  -30.5740 C   0  0  0  0  0  0  0  0  0  0  0  0
   -4.4970   23.3070  -30.2970 N   0  0  0  0  0  0  0  0  0  0  0  0
   -4.2890   24.1790  -29.3250 N   0  0  0  0  0  0  0  0  0  0  0  0
   -1.1990   25.6720  -28.1700 C   0  0  0  0  0  0  0  0  0  0  0  0
   -0.6220   26.4420  -27.1550 C   0  0  0  0  0  0  0  0  0  0  0  0
   -0.7502   27.5449  -22.7760 H   0  0  0  0  0  0  0  0  0  0  0  0
   -1.1656   25.8834  -23.3180 H   0  0  0  0  0  0  0  0  0  0  0  0
    0.5467   26.4264  -23.3180 H   0  0  0  0  0  0  0  0  0  0  0  0
   -2.7827   25.7018  -24.6121 H   0  0  0  0  0  0  0  0  0  0  0  0
   -3.8123   24.3345  -26.4157 H   0  0  0  0  0  0  0  0  0  0  0  0
   -1.2953   22.7943  -29.7480 H   0  0  0  0  0  0  0  0  0  0  0  0
   -7.7428   21.9133  -32.1744 H   0  0  0  0  0  0  0  0  0  0  0  0
   -6.8084   22.0768  -33.7152 H   0  0  0  0  0  0  0  0  0  0  0  0
   -5.4665   20.1173  -34.5707 H   0  0  0  0  0  0  0  0  0  0  0  0
   -5.5232   17.6413  -34.8699 H   0  0  0  0  0  0  0  0  0  0  0  0
   -6.9340   16.2303  -33.3709 H   0  0  0  0  0  0  0  0  0  0  0  0
   -8.2939   17.2961  -31.5673 H   0  0  0  0  0  0  0  0  0  0  0  0
   -8.2468   19.7725  -31.2626 H   0  0  0  0  0  0  0  0  0  0  0  0
   -7.0120   23.8171  -29.4781 H   0  0  0  0  0  0  0  0  0  0  0  0
   -6.9071   24.7904  -30.9843 H   0  0  0  0  0  0  0  0  0  0  0  0
   -7.7941   23.2284  -30.9843 H   0  0  0  0  0  0  0  0  0  0  0  0
   -0.7475   25.6653  -29.1730 H   0  0  0  0  0  0  0  0  0  0  0  0
    0.2783   27.0381  -27.3650 H   0  0  0  0  0  0  0  0  0  0  0  0
  1  2  1  0
  2  3  1  0
  3  4  2  0
  4  5  1  0
  5  6  2  0
  6  7  1  0
  7  8  1  0
  8  9  2  0
  9 10  1  0
 10 11  2  0
 11 12  1  0
 12 13  1  0
 13 14  1  0
 14 15  2  0
 15 16  1  0
 16 17  2  0
 17 18  1  0
 18 19  2  0
 12 20  2  0
 20 21  1  0
 20 22  1  0
 22 23  1  0
  6 24  1  0
 24 25  2  0
 25  3  1  0
 23  7  2  0
 22  9  1  0
 19 14  1  0
  1 26  1  0
  1 27  1  0
  1 28  1  0
  4 29  1  0
  5 30  1  0
  8 31  1  0
 13 32  1  0
 13 33  1  0
 15 34  1  0
 16 35  1  0
 17 36  1  0
 18 37  1  0
 19 38  1  0
 21 39  1  0
 21 40  1  0
 21 41  1  0
 24 42  1  0
 25 43  1  0
M  END
>  <UniqueID>  (18) 
16

>  <SMILES>  (18) 
COc1ccc(-c2cc3nnc(Cc4ccccc4)c(C)n3n2)cc1

>  <Energy>  (18) 
86.20349055448229

>  <Genealogy>  (18) 
COc1ccc(-c2cc3nnc(Cc4ccccc4)c(C)n3n2)cc1 (3D coordinates assigned)
COc1ccc(-c2cc3nnc(Cc4ccccc4)c(C)n3n2)cc1 (optimized conformer: 86.20349055448229 kcal/mol)

>  <smiles>  (18) 
COc1ccc(-c2cc3nnc(Cc4ccccc4)c(C)n3n2)cc1

>  <score_type>  (18) 
oracle

>  <origin>  (18) 
adgpu

>  <m_score__min__energy>  (18) 
-8.3499999999999996

>  <m_primary>  (18) 
energy

$$$$
18:0
     RDKit          3D

 40 42  0  0  0  0  0  0  0  0999 V2000
   -0.8460   21.3590  -35.3080 H   0  0  0  0  0  0  0  0  0  0  0  0
   -1.2320   20.4520  -34.9610 N   0  0  0  0  0  0  0  0  0  0  0  0
   -2.0910   20.3850  -33.9950 C   0  0  0  0  0  0  0  0  0  0  0  0
   -2.5530   19.1700  -33.5950 N   0  0  0  0  0  0  0  0  0  0  0  0
   -3.4580   19.0420  -32.5890 C   0  0  0  0  0  0  0  0  0  0  0  0
   -3.8100   18.0432  -32.2917 H   0  0  0  0  0  0  0  0  0  0  0  0
   -3.9420   20.1750  -31.9320 C   0  0  0  0  0  0  0  0  0  0  0  0
   -4.6794   20.0723  -31.1222 H   0  0  0  0  0  0  0  0  0  0  0  0
   -3.4820   21.4460  -32.3110 C   0  0  0  0  0  0  0  0  0  0  0  0
   -3.9880   22.6610  -31.6280 C   0  0  0  0  0  0  0  0  0  0  0  0
   -3.1370   23.3760  -30.7670 C   0  0  0  0  0  0  0  0  0  0  0  0
   -2.1019   23.0347  -30.6181 H   0  0  0  0  0  0  0  0  0  0  0  0
   -3.5950   24.5230  -30.0940 C   0  0  0  0  0  0  0  0  0  0  0  0
   -2.7570   25.2730  -29.2050 N   0  0  0  0  0  0  0  0  0  0  0  0
   -1.2390   24.7290  -28.5660 S   0  0  0  0  0  0  0  0  0  0  0  0
   -0.5270   23.8870  -29.5870 O   0  0  0  0  0  0  0  0  0  0  0  0
   -0.3890   25.9110  -28.1920 O   0  0  0  0  0  0  0  0  0  0  0  0
   -1.5440   23.7490  -27.1140 C   0  0  0  0  0  0  0  0  0  0  0  0
   -1.3552   24.3555  -26.2160 H   0  0  0  0  0  0  0  0  0  0  0  0
   -2.5903   23.4095  -27.1139 H   0  0  0  0  0  0  0  0  0  0  0  0
   -0.8752   22.8757  -27.1139 H   0  0  0  0  0  0  0  0  0  0  0  0
   -4.9090   24.9540  -30.2950 C   0  0  0  0  0  0  0  0  0  0  0  0
   -5.2753   25.8500  -29.7725 H   0  0  0  0  0  0  0  0  0  0  0  0
   -5.7600   24.2570  -31.1530 C   0  0  0  0  0  0  0  0  0  0  0  0
   -6.7887   24.6138  -31.3094 H   0  0  0  0  0  0  0  0  0  0  0  0
   -5.3140   23.1030  -31.8190 C   0  0  0  0  0  0  0  0  0  0  0  0
   -6.1460   22.4250  -32.7220 O   0  0  0  0  0  0  0  0  0  0  0  0
   -6.9560   21.3220  -32.4110 C   0  0  0  0  0  0  0  0  0  0  0  0
   -6.7900   20.0750  -33.0430 C   0  0  0  0  0  0  0  0  0  0  0  0
   -5.9978   19.9429  -33.7947 H   0  0  0  0  0  0  0  0  0  0  0  0
   -7.6280   19.0040  -32.7190 C   0  0  0  0  0  0  0  0  0  0  0  0
   -7.4880   18.0290  -33.2087 H   0  0  0  0  0  0  0  0  0  0  0  0
   -8.6440   19.1710  -31.7730 C   0  0  0  0  0  0  0  0  0  0  0  0
   -9.4580   18.1320  -31.4620 F   0  0  0  0  0  0  0  0  0  0  0  0
   -8.8270   20.4130  -31.1570 C   0  0  0  0  0  0  0  0  0  0  0  0
   -9.6312   20.5461  -30.4183 H   0  0  0  0  0  0  0  0  0  0  0  0
   -7.9900   21.4860  -31.4780 C   0  0  0  0  0  0  0  0  0  0  0  0
   -8.1780   22.6870  -30.8760 F   0  0  0  0  0  0  0  0  0  0  0  0
   -2.5530   21.5490  -33.3590 C   0  0  0  0  0  0  0  0  0  0  0  0
   -2.1890   22.5361  -33.6802 H   0  0  0  0  0  0  0  0  0  0  0  0
  1  2  1  0
  2  3  2  0
  3  4  1  0
  4  5  1  0
  5  6  1  0
  5  7  2  0
  7  8  1  0
  7  9  1  0
  9 10  1  0
 10 11  2  0
 11 12  1  0
 11 13  1  0
 13 14  1  0
 14 15  1  0
 15 16  2  0
 15 17  2  0
 15 18  1  0
 18 19  1  0
 18 20  1  0
 18 21  1  0
 13 22  2  0
 22 23  1  0
 22 24  1  0
 24 25  1  0
 24 26  2  0
 26 27  1  0
 27 28  1  0
 28 29  2  0
 29 30  1  0
 29 31  1  0
 31 32  1  0
 31 33  2  0
 33 34  1  0
 33 35  1  0
 35 36  1  0
 35 37  2  0
 37 38  1  0
  9 39  2  0
 39 40  1  0
 39  3  1  0
 26 10  1  0
 37 28  1  0
M  CHG  2   4  -1  14  -1
M  END
>  <UniqueID>  (19) 
17

>  <SMILES>  (19) 
[H]/N=c1\cc(-c2cc([N-]S(C)(=O)=O)ccc2Oc2ccc(F)cc2F)cc[n-]1

>  <Energy>  (19) 
55.03383335571523

>  <Genealogy>  (19) 
CS(=O)(=O)[N-]c1ccc(Oc2ccc(F)cc2F)c(-c2cc[n-]c(=N)c2)c1 (protonated)
[H]/N=c1\cc(-c2cc([N-]S(C)(=O)=O)ccc2Oc2ccc(F)cc2F)cc[n-]1 (cis-trans isomerization)
[H]/N=c1\cc(-c2cc([N-]S(C)(=O)=O)ccc2Oc2ccc(F)cc2F)cc[n-]1 (3D coordinates assigned)
[H]/N=c1\cc(-c2cc([N-]S(C)(=O)=O)ccc2Oc2ccc(F)cc2F)cc[n-]1 (optimized conformer: 55.03383335571523 kcal/mol)

>  <smiles>  (19) 
CS(=O)(=O)Nc1ccc(Oc2ccc(F)cc2F)c(-c2cc[nH]c(=N)c2)c1

>  <score_type>  (19) 
oracle

>  <origin>  (19) 
adgpu

>  <m_score__min__energy>  (19) 
-10.08

>  <m_primary>  (19) 
energy

$$$$
19:0
     RDKit          3D

 34 35  0  0  0  0  0  0  0  0999 V2000
   -1.0190   25.2090  -28.3320 C   0  0  0  0  0  0  0  0  0  0  0  0
   -2.0160   25.3090  -29.3440 O   0  0  0  0  0  0  0  0  0  0  0  0
   -3.1940   24.5470  -29.3730 C   0  0  0  0  0  0  0  0  0  0  0  0
   -3.4040   23.4500  -28.5170 C   0  0  0  0  0  0  0  0  0  0  0  0
   -4.5970   22.7260  -28.5830 C   0  0  0  0  0  0  0  0  0  0  0  0
   -5.5870   23.0820  -29.5010 C   0  0  0  0  0  0  0  0  0  0  0  0
   -5.3860   24.1650  -30.3710 C   0  0  0  0  0  0  0  0  0  0  0  0
   -6.4510   24.5590  -31.3620 C   0  0  0  0  0  0  0  0  0  0  0  0
   -6.4750   23.6280  -32.4910 N   0  0  0  0  0  0  0  0  0  0  0  0
   -6.8120   22.2310  -32.3880 C   0  0  0  0  0  0  0  0  0  0  0  0
   -5.8510   21.2690  -32.7300 C   0  0  0  0  0  0  0  0  0  0  0  0
   -6.1420   19.9050  -32.6360 C   0  0  0  0  0  0  0  0  0  0  0  0
   -7.4010   19.4750  -32.1840 C   0  0  0  0  0  0  0  0  0  0  0  0
   -7.7330   18.0060  -32.1280 C   0  0  0  0  0  0  0  0  0  0  0  0
   -7.5320   17.4130  -33.3630 F   0  0  0  0  0  0  0  0  0  0  0  0
   -6.9210   17.3900  -31.1940 F   0  0  0  0  0  0  0  0  0  0  0  0
   -9.0560   17.8160  -31.7690 F   0  0  0  0  0  0  0  0  0  0  0  0
   -8.3770   20.4370  -31.8740 C   0  0  0  0  0  0  0  0  0  0  0  0
   -8.0840   21.8010  -31.9680 C   0  0  0  0  0  0  0  0  0  0  0  0
   -4.1910   24.8990  -30.2910 C   0  0  0  0  0  0  0  0  0  0  0  0
   -1.4956   25.2568  -27.3418 H   0  0  0  0  0  0  0  0  0  0  0  0
   -0.4853   24.2528  -28.4363 H   0  0  0  0  0  0  0  0  0  0  0  0
   -0.3060   26.0401  -28.4363 H   0  0  0  0  0  0  0  0  0  0  0  0
   -2.6267   23.1618  -27.7940 H   0  0  0  0  0  0  0  0  0  0  0  0
   -4.7571   21.8717  -27.9088 H   0  0  0  0  0  0  0  0  0  0  0  0
   -6.5270   22.5122  -29.5425 H   0  0  0  0  0  0  0  0  0  0  0  0
   -7.4312   24.5471  -30.8629 H   0  0  0  0  0  0  0  0  0  0  0  0
   -6.2279   25.5679  -31.7394 H   0  0  0  0  0  0  0  0  0  0  0  0
   -6.1840   24.0030  -33.4230 H   0  0  0  0  0  0  0  0  0  0  0  0
   -4.8577   21.5910  -33.0759 H   0  0  0  0  0  0  0  0  0  0  0  0
   -5.3802   19.1632  -32.9178 H   0  0  0  0  0  0  0  0  0  0  0  0
   -9.3792   20.1147  -31.5550 H   0  0  0  0  0  0  0  0  0  0  0  0
   -8.8540   22.5435  -31.7116 H   0  0  0  0  0  0  0  0  0  0  0  0
   -4.0366   25.7605  -30.9574 H   0  0  0  0  0  0  0  0  0  0  0  0
  1  2  1  0
  2  3  1  0
  3  4  2  0
  4  5  1  0
  5  6  2  0
  6  7  1  0
  7  8  1  0
  8  9  1  0
  9 10  1  0
 10 11  2  0
 11 12  1  0
 12 13  2  0
 13 14  1  0
 14 15  1  0
 14 16  1  0
 14 17  1  0
 13 18  1  0
 18 19  2  0
  7 20  2  0
 20  3  1  0
 19 10  1  0
  1 21  1  0
  1 22  1  0
  1 23  1  0
  4 24  1  0
  5 25  1  0
  6 26  1  0
  8 27  1  0
  8 28  1  0
  9 29  1  0
 11 30  1  0
 12 31  1  0
 18 32  1  0
 19 33  1  0
 20 34  1  0
M  END
>  <UniqueID>  (20) 
18

>  <SMILES>  (20) 
COc1cccc(CNc2ccc(C(F)(F)F)cc2)c1

>  <Energy>  (20) 
33.36202816722371

>  <Genealogy>  (20) 
COc1cccc(CNc2ccc(C(F)(F)F)cc2)c1 (3D coordinates assigned)
COc1cccc(CNc2ccc(C(F)(F)F)cc2)c1 (optimized conformer: 33.36202816722371 kcal/mol)

>  <smiles>  (20) 
COc1cccc(CNc2ccc(C(F)(F)F)cc2)c1

>  <score_type>  (20) 
oracle

>  <origin>  (20) 
adgpu

>  <m_score__min__energy>  (20) 
-7.1200000000000001

>  <m_primary>  (20) 
energy

$$$$
20:0
     RDKit          3D

 52 56  0  0  0  0  0  0  0  0999 V2000
   -0.8530   26.0480  -24.0750 F   0  0  0  0  0  0  0  0  0  0  0  0
   -1.1000   25.8810  -25.3980 C   0  0  0  0  0  0  0  0  0  0  0  0
   -0.2040   26.4120  -26.3530 C   0  0  0  0  0  0  0  0  0  0  0  0
   -0.4480   26.2460  -27.7300 C   0  0  0  0  0  0  0  0  0  0  0  0
   -1.5940   25.5470  -28.1020 C   0  0  0  0  0  0  0  0  0  0  0  0
   -2.0220   25.2710  -29.3420 N   0  0  0  0  0  0  0  0  0  0  0  0
   -3.1710   24.5780  -29.1150 C   0  0  0  0  0  0  0  0  0  0  0  0
   -4.0200   24.0480  -30.2070 C   0  0  0  0  0  0  0  0  0  0  0  0
   -5.2290   24.6810  -30.5380 C   0  0  0  0  0  0  0  0  0  0  0  0
   -6.0300   24.1780  -31.5650 C   0  0  0  0  0  0  0  0  0  0  0  0
   -5.6350   23.0410  -32.2730 C   0  0  0  0  0  0  0  0  0  0  0  0
   -4.4290   22.3920  -31.9600 C   0  0  0  0  0  0  0  0  0  0  0  0
   -4.0090   21.1820  -32.7130 C   0  0  0  0  0  0  0  0  0  0  0  0
   -2.7740   21.1550  -33.3880 C   0  0  0  0  0  0  0  0  0  0  0  0
   -2.3860   20.0220  -34.1060 C   0  0  0  0  0  0  0  0  0  0  0  0
   -3.2170   18.9020  -34.1560 C   0  0  0  0  0  0  0  0  0  0  0  0
   -4.4430   18.9020  -33.4740 C   0  0  0  0  0  0  0  0  0  0  0  0
   -5.3550   17.7090  -33.5560 C   0  0  0  0  0  0  0  0  0  0  0  0
   -6.7180   18.1530  -33.8690 N   0  0  0  0  0  0  0  0  0  0  0  0
   -7.6170   18.0190  -32.7130 C   0  0  0  0  0  0  0  0  0  0  0  0
   -8.1570   19.3530  -32.2530 C   0  0  0  0  0  0  0  0  0  0  0  0
   -7.4450   20.1180  -31.3150 C   0  0  0  0  0  0  0  0  0  0  0  0
   -7.9550   21.3400  -30.8700 C   0  0  0  0  0  0  0  0  0  0  0  0
   -9.1810   21.8070  -31.3540 C   0  0  0  0  0  0  0  0  0  0  0  0
   -9.8980   21.0480  -32.2830 C   0  0  0  0  0  0  0  0  0  0  0  0
   -9.3910   19.8250  -32.7320 C   0  0  0  0  0  0  0  0  0  0  0  0
   -4.8400   20.0480  -32.7670 C   0  0  0  0  0  0  0  0  0  0  0  0
   -3.6270   22.9040  -30.9230 C   0  0  0  0  0  0  0  0  0  0  0  0
   -3.4710   24.4120  -27.7970 N   0  0  0  0  0  0  0  0  0  0  0  0
   -2.4570   25.0350  -27.1830 C   0  0  0  0  0  0  0  0  0  0  0  0
   -2.2480   25.1790  -25.8130 C   0  0  0  0  0  0  0  0  0  0  0  0
    0.6901   26.9587  -26.0186 H   0  0  0  0  0  0  0  0  0  0  0  0
    0.2412   26.6535  -28.4843 H   0  0  0  0  0  0  0  0  0  0  0  0
   -5.5465   25.5776  -29.9854 H   0  0  0  0  0  0  0  0  0  0  0  0
   -6.9760   24.6793  -31.8174 H   0  0  0  0  0  0  0  0  0  0  0  0
   -6.2720   22.6512  -33.0806 H   0  0  0  0  0  0  0  0  0  0  0  0
   -2.1107   22.0316  -33.3496 H   0  0  0  0  0  0  0  0  0  0  0  0
   -1.4213   20.0122  -34.6344 H   0  0  0  0  0  0  0  0  0  0  0  0
   -2.9098   18.0165  -34.7319 H   0  0  0  0  0  0  0  0  0  0  0  0
   -5.0004   17.0305  -34.3459 H   0  0  0  0  0  0  0  0  0  0  0  0
   -5.3549   17.1816  -32.5907 H   0  0  0  0  0  0  0  0  0  0  0  0
   -6.6900   19.1560  -34.1680 H   0  0  0  0  0  0  0  0  0  0  0  0
   -8.4616   17.3727  -32.9940 H   0  0  0  0  0  0  0  0  0  0  0  0
   -7.0391   17.5844  -31.8841 H   0  0  0  0  0  0  0  0  0  0  0  0
   -6.4816   19.7534  -30.9290 H   0  0  0  0  0  0  0  0  0  0  0  0
   -7.3911   21.9361  -30.1374 H   0  0  0  0  0  0  0  0  0  0  0  0
   -9.5805   22.7703  -31.0041 H   0  0  0  0  0  0  0  0  0  0  0  0
  -10.8637   21.4138  -32.6619 H   0  0  0  0  0  0  0  0  0  0  0  0
   -9.9596   19.2305  -33.4623 H   0  0  0  0  0  0  0  0  0  0  0  0
   -5.8108   20.0595  -32.2499 H   0  0  0  0  0  0  0  0  0  0  0  0
   -2.6811   22.4028  -30.6697 H   0  0  0  0  0  0  0  0  0  0  0  0
   -2.9545   24.7593  -25.0817 H   0  0  0  0  0  0  0  0  0  0  0  0
  1  2  1  0
  2  3  2  0
  3  4  1  0
  4  5  2  0
  5  6  1  0
  6  7  1  0
  7  8  1  0
  8  9  2  0
  9 10  1  0
 10 11  2  0
 11 12  1  0
 12 13  1  0
 13 14  2  0
 14 15  1  0
 15 16  2  0
 16 17  1  0
 17 18  1  0
 18 19  1  0
 19 20  1  0
 20 21  1  0
 21 22  2  0
 22 23  1  0
 23 24  2  0
 24 25  1  0
 25 26  2  0
 17 27  2  0
 12 28  2  0
  7 29  2  0
 29 30  1  0
 30 31  2  0
 31  2  1  0
 30  5  1  0
 28  8  1  0
 27 13  1  0
 26 21  1  0
  3 32  1  0
  4 33  1  0
  9 34  1  0
 10 35  1  0
 11 36  1  0
 14 37  1  0
 15 38  1  0
 16 39  1  0
 18 40  1  0
 18 41  1  0
 19 42  1  0
 20 43  1  0
 20 44  1  0
 22 45  1  0
 23 46  1  0
 24 47  1  0
 25 48  1  0
 26 49  1  0
 27 50  1  0
 28 51  1  0
 31 52  1  0
M  CHG  1   6  -1
M  END
>  <UniqueID>  (21) 
19

>  <SMILES>  (21) 
Fc1ccc2[n-]c(-c3cccc(-c4cccc(CNCc5ccccc5)c4)c3)nc2c1

>  <Energy>  (21) 
98.37681814555116

>  <Genealogy>  (21) 
Fc1ccc2[n-]c(-c3cccc(-c4cccc(CNCc5ccccc5)c4)c3)nc2c1 (protonated)
Fc1ccc2[n-]c(-c3cccc(-c4cccc(CNCc5ccccc5)c4)c3)nc2c1 (3D coordinates assigned)
Fc1ccc2[n-]c(-c3cccc(-c4cccc(CNCc5ccccc5)c4)c3)nc2c1 (optimized conformer: 98.37681814555116 kcal/mol)

>  <smiles>  (21) 
Fc1ccc2[nH]c(-c3cccc(-c4cccc(CNCc5ccccc5)c4)c3)nc2c1

>  <score_type>  (21) 
oracle

>  <origin>  (21) 
adgpu

>  <m_score__min__energy>  (21) 
-11.4

>  <m_primary>  (21) 
energy

$$$$
21:0
     RDKit          3D

 53 56  0  0  0  0  0  0  0  0999 V2000
   -3.4810   25.2970  -30.4380 F   0  0  0  0  0  0  0  0  0  0  0  0
   -4.7210   24.7480  -30.5020 C   0  0  0  0  0  0  0  0  0  0  0  0
   -5.8140   25.4880  -30.0430 C   0  0  0  0  0  0  0  0  0  0  0  0
   -7.0950   24.9330  -30.0640 C   0  0  0  0  0  0  0  0  0  0  0  0
   -7.2880   23.6360  -30.5410 C   0  0  0  0  0  0  0  0  0  0  0  0
   -6.2010   22.8840  -31.0030 C   0  0  0  0  0  0  0  0  0  0  0  0
   -6.5100   21.2670  -31.6310 Cl  0  0  0  0  0  0  0  0  0  0  0  0
   -4.9040   23.4410  -30.9960 C   0  0  0  0  0  0  0  0  0  0  0  0
   -3.7430   22.6640  -31.4750 C   0  0  0  0  0  0  0  0  0  0  0  0
   -3.7310   22.0170  -32.6580 N   0  0  0  0  0  0  0  0  0  0  0  0
   -2.5870   21.3590  -32.7420 N   0  0  0  0  0  0  0  0  0  0  0  0
   -2.2290   20.4910  -33.8590 C   0  0  0  0  0  0  0  0  0  0  0  0
   -2.4840   19.0280  -33.4870 C   0  0  0  0  0  0  0  0  0  0  0  0
   -3.9390   18.8090  -33.0560 C   0  0  0  0  0  0  0  0  0  0  0  0
   -4.7760   18.5000  -34.2390 N   0  0  0  0  0  0  0  0  0  0  0  0
   -4.8540   17.0520  -34.5720 C   0  0  0  0  0  0  0  0  0  0  0  0
   -6.1550   16.3660  -34.1050 C   0  0  0  0  0  0  0  0  0  0  0  0
   -6.7280   17.0400  -32.8630 C   0  0  0  0  0  0  0  0  0  0  0  0
   -7.0400   18.5200  -33.1350 C   0  0  0  0  0  0  0  0  0  0  0  0
   -6.1070   19.1470  -34.1920 C   0  0  0  0  0  0  0  0  0  0  0  0
   -1.8610   21.5440  -31.6240 C   0  0  0  0  0  0  0  0  0  0  0  0
   -2.5640   22.3890  -30.7860 C   0  0  0  0  0  0  0  0  0  0  0  0
   -2.1080   22.9020  -29.4740 C   0  0  0  0  0  0  0  0  0  0  0  0
   -0.8340   23.4830  -29.3500 C   0  0  0  0  0  0  0  0  0  0  0  0
   -0.3980   23.9720  -28.1140 C   0  0  0  0  0  0  0  0  0  0  0  0
   -1.2320   23.8950  -26.9940 C   0  0  0  0  0  0  0  0  0  0  0  0
   -0.6820   24.5090  -25.4470 Cl  0  0  0  0  0  0  0  0  0  0  0  0
   -2.5060   23.3320  -27.1120 C   0  0  0  0  0  0  0  0  0  0  0  0
   -2.9460   22.8430  -28.3470 C   0  0  0  0  0  0  0  0  0  0  0  0
   -5.6648   26.5099  -29.6643 H   0  0  0  0  0  0  0  0  0  0  0  0
   -7.9534   25.5191  -29.7040 H   0  0  0  0  0  0  0  0  0  0  0  0
   -8.2988   23.2023  -30.5541 H   0  0  0  0  0  0  0  0  0  0  0  0
   -2.8382   20.7555  -34.7359 H   0  0  0  0  0  0  0  0  0  0  0  0
   -1.1623   20.6239  -34.0924 H   0  0  0  0  0  0  0  0  0  0  0  0
   -2.2693   18.3936  -34.3596 H   0  0  0  0  0  0  0  0  0  0  0  0
   -1.8284   18.7645  -32.6439 H   0  0  0  0  0  0  0  0  0  0  0  0
   -3.9866   17.9696  -32.3466 H   0  0  0  0  0  0  0  0  0  0  0  0
   -4.3155   19.7243  -32.5760 H   0  0  0  0  0  0  0  0  0  0  0  0
   -4.7799   16.9445  -35.6642 H   0  0  0  0  0  0  0  0  0  0  0  0
   -4.0274   16.5595  -34.0389 H   0  0  0  0  0  0  0  0  0  0  0  0
   -6.8974   16.4188  -34.9149 H   0  0  0  0  0  0  0  0  0  0  0  0
   -5.9227   15.3205  -33.8540 H   0  0  0  0  0  0  0  0  0  0  0  0
   -7.6545   16.5250  -32.5691 H   0  0  0  0  0  0  0  0  0  0  0  0
   -5.9824   16.9811  -32.0564 H   0  0  0  0  0  0  0  0  0  0  0  0
   -8.0776   18.6000  -33.4913 H   0  0  0  0  0  0  0  0  0  0  0  0
   -6.8865   19.0677  -32.1935 H   0  0  0  0  0  0  0  0  0  0  0  0
   -6.5801   19.0497  -35.1803 H   0  0  0  0  0  0  0  0  0  0  0  0
   -5.9534   20.2004  -33.9149 H   0  0  0  0  0  0  0  0  0  0  0  0
   -0.8772   21.0992  -31.4133 H   0  0  0  0  0  0  0  0  0  0  0  0
   -0.1767   23.5535  -30.2292 H   0  0  0  0  0  0  0  0  0  0  0  0
    0.6033   24.4182  -28.0228 H   0  0  0  0  0  0  0  0  0  0  0  0
   -3.1639   23.2733  -26.2324 H   0  0  0  0  0  0  0  0  0  0  0  0
   -3.9532   22.4100  -28.4364 H   0  0  0  0  0  0  0  0  0  0  0  0
  1  2  1  0
  2  3  2  0
  3  4  1  0
  4  5  2  0
  5  6  1  0
  6  7  1  0
  6  8  2  0
  8  9  1  0
  9 10  2  0
 10 11  1  0
 11 12  1  0
 12 13  1  0
 13 14  1  0
 14 15  1  0
 15 16  1  0
 16 17  1  0
 17 18  1  0
 18 19  1  0
 19 20  1  0
 11 21  1  0
 21 22  2  0
 22 23  1  0
 23 24  2  0
 24 25  1  0
 25 26  2  0
 26 27  1  0
 26 28  1  0
 28 29  2  0
  8  2  1  0
 22  9  1  0
 29 23  1  0
 20 15  1  0
  3 30  1  0
  4 31  1  0
  5 32  1  0
 12 33  1  0
 12 34  1  0
 13 35  1  0
 13 36  1  0
 14 37  1  0
 14 38  1  0
 16 39  1  0
 16 40  1  0
 17 41  1  0
 17 42  1  0
 18 43  1  0
 18 44  1  0
 19 45  1  0
 19 46  1  0
 20 47  1  0
 20 48  1  0
 21 49  1  0
 24 50  1  0
 25 51  1  0
 28 52  1  0
 29 53  1  0
M  END
>  <UniqueID>  (22) 
20

>  <SMILES>  (22) 
Fc1cccc(Cl)c1-c1nn(CCCN2CCCCC2)cc1-c1ccc(Cl)cc1

>  <Energy>  (22) 
100.93065843803434

>  <Genealogy>  (22) 
Fc1cccc(Cl)c1-c1nn(CCCN2CCCCC2)cc1-c1ccc(Cl)cc1 (3D coordinates assigned)
Fc1cccc(Cl)c1-c1nn(CCCN2CCCCC2)cc1-c1ccc(Cl)cc1 (nonaromatic ring conformer: 100.93065843803434 kcal/mol)

>  <smiles>  (22) 
Fc1cccc(Cl)c1-c1nn(CCCN2CCCCC2)cc1-c1ccc(Cl)cc1

>  <score_type>  (22) 
oracle

>  <origin>  (22) 
adgpu

>  <m_score__min__energy>  (22) 
-9.3000000000000007

>  <m_primary>  (22) 
energy

$$$$
22:0
     RDKit          3D

 37 39  0  0  0  0  0  0  0  0999 V2000
   -5.8230   25.1180  -30.2950 C   0  0  0  0  0  0  0  0  0  0  0  0
   -5.8570   23.6390  -29.9260 C   0  0  0  0  0  0  0  0  0  0  0  0
   -4.9530   22.8370  -30.8330 C   0  0  0  0  0  0  0  0  0  0  0  0
   -5.4330   22.4370  -32.0920 C   0  0  0  0  0  0  0  0  0  0  0  0
   -4.6030   21.7520  -32.9830 C   0  0  0  0  0  0  0  0  0  0  0  0
   -3.2820   21.4710  -32.6340 C   0  0  0  0  0  0  0  0  0  0  0  0
   -2.7870   21.8730  -31.3930 C   0  0  0  0  0  0  0  0  0  0  0  0
   -3.6110   22.5530  -30.4850 C   0  0  0  0  0  0  0  0  0  0  0  0
   -3.0670   22.9570  -29.2220 N   0  0  0  0  0  0  0  0  0  0  0  0
   -2.7960   22.1730  -28.1600 C   0  0  0  0  0  0  0  0  0  0  0  0
   -3.0300   20.8000  -28.1110 O   0  0  0  0  0  0  0  0  0  0  0  0
   -2.2440   22.9090  -27.1310 C   0  0  0  0  0  0  0  0  0  0  0  0
   -2.1520   24.2150  -27.5970 C   0  0  0  0  0  0  0  0  0  0  0  0
   -1.6150   25.3750  -26.8460 C   0  0  0  0  0  0  0  0  0  0  0  0
   -0.8250   26.3360  -27.5030 C   0  0  0  0  0  0  0  0  0  0  0  0
   -0.3170   27.4340  -26.8020 C   0  0  0  0  0  0  0  0  0  0  0  0
   -0.5970   27.5890  -25.4420 C   0  0  0  0  0  0  0  0  0  0  0  0
   -1.3880   26.6460  -24.7810 C   0  0  0  0  0  0  0  0  0  0  0  0
   -1.8970   25.5460  -25.4780 C   0  0  0  0  0  0  0  0  0  0  0  0
   -2.6670   24.1980  -28.8870 C   0  0  0  0  0  0  0  0  0  0  0  0
   -2.7990   25.2990  -29.7250 O   0  0  0  0  0  0  0  0  0  0  0  0
   -5.8091   25.7246  -29.3775 H   0  0  0  0  0  0  0  0  0  0  0  0
   -4.9198   25.3276  -30.8869 H   0  0  0  0  0  0  0  0  0  0  0  0
   -6.7156   25.3689  -30.8869 H   0  0  0  0  0  0  0  0  0  0  0  0
   -5.5212   23.5195  -28.8854 H   0  0  0  0  0  0  0  0  0  0  0  0
   -6.8872   23.2712  -30.0415 H   0  0  0  0  0  0  0  0  0  0  0  0
   -6.4704   22.6651  -32.3781 H   0  0  0  0  0  0  0  0  0  0  0  0
   -4.9919   21.4337  -33.9615 H   0  0  0  0  0  0  0  0  0  0  0  0
   -2.6302   20.9322  -33.3375 H   0  0  0  0  0  0  0  0  0  0  0  0
   -1.7427   21.6549  -31.1250 H   0  0  0  0  0  0  0  0  0  0  0  0
   -3.4570   20.3670  -27.3020 H   0  0  0  0  0  0  0  0  0  0  0  0
   -1.9386   22.5369  -26.1419 H   0  0  0  0  0  0  0  0  0  0  0  0
   -0.6056   26.2229  -28.5749 H   0  0  0  0  0  0  0  0  0  0  0  0
    0.3045   28.1775  -27.3225 H   0  0  0  0  0  0  0  0  0  0  0  0
   -0.1950   28.4528  -24.8922 H   0  0  0  0  0  0  0  0  0  0  0  0
   -1.6106   26.7691  -23.7108 H   0  0  0  0  0  0  0  0  0  0  0  0
   -2.5225   24.8089  -24.9532 H   0  0  0  0  0  0  0  0  0  0  0  0
  1  2  1  0
  2  3  1  0
  3  4  2  0
  4  5  1  0
  5  6  2  0
  6  7  1  0
  7  8  2  0
  8  9  1  0
  9 10  1  0
 10 11  1  0
 10 12  2  0
 12 13  1  0
 13 14  1  0
 14 15  2  0
 15 16  1  0
 16 17  2  0
 17 18  1  0
 18 19  2  0
 13 20  2  0
 20 21  1  0
  8  3  1  0
 20  9  1  0
 19 14  1  0
  1 22  1  0
  1 23  1  0
  1 24  1  0
  2 25  1  0
  2 26  1  0
  4 27  1  0
  5 28  1  0
  6 29  1  0
  7 30  1  0
 11 31  1  0
 12 32  1  0
 15 33  1  0
 16 34  1  0
 17 35  1  0
 18 36  1  0
 19 37  1  0
M  CHG  1  21  -1
M  END
>  <UniqueID>  (23) 
21

>  <SMILES>  (23) 
CCc1ccccc1-n1c(O)cc(-c2ccccc2)c1[O-]

>  <Energy>  (23) 
75.2255773101298

>  <Genealogy>  (23) 
CCc1ccccc1-n1c(O)cc(-c2ccccc2)c1[O-] (protonated)
CCc1ccccc1-n1c(O)cc(-c2ccccc2)c1[O-] (3D coordinates assigned)
CCc1ccccc1-n1c(O)cc(-c2ccccc2)c1[O-] (optimized conformer: 75.2255773101298 kcal/mol)

>  <smiles>  (23) 
CCc1ccccc1-n1c(O)cc(-c2ccccc2)c1O

>  <score_type>  (23) 
oracle

>  <origin>  (23) 
adgpu

>  <m_score__min__energy>  (23) 
-9.3499999999999996

>  <m_primary>  (23) 
energy

$$$$
23:0
     RDKit          3D

 40 42  0  0  0  0  0  0  0  0999 V2000
   -3.8750   25.3010  -30.8420 O   0  0  0  0  0  0  0  0  0  0  0  0
   -4.8350   24.4640  -30.0430 S   0  0  0  0  0  0  0  0  0  0  0  0
   -5.9350   25.3570  -29.5410 O   0  0  0  0  0  0  0  0  0  0  0  0
   -5.5460   23.2120  -31.0590 C   0  0  0  0  0  0  0  0  0  0  0  0
   -4.7420   22.4460  -31.9180 C   0  0  0  0  0  0  0  0  0  0  0  0
   -5.3080   21.4210  -32.6820 C   0  0  0  0  0  0  0  0  0  0  0  0
   -6.6770   21.1540  -32.5910 C   0  0  0  0  0  0  0  0  0  0  0  0
   -7.4840   21.9170  -31.7420 C   0  0  0  0  0  0  0  0  0  0  0  0
   -9.3500   21.5390  -31.6000 Br  0  0  0  0  0  0  0  0  0  0  0  0
   -6.9200   22.9460  -30.9810 C   0  0  0  0  0  0  0  0  0  0  0  0
   -3.9770   23.7480  -28.7070 N   0  0  0  0  0  0  0  0  0  0  0  0
   -4.1840   22.3300  -28.3910 C   0  0  0  0  0  0  0  0  0  0  0  0
   -2.8730   21.5920  -28.3990 C   0  0  0  0  0  0  0  0  0  0  0  0
   -2.4580   20.8780  -27.2620 C   0  0  0  0  0  0  0  0  0  0  0  0
   -1.2640   20.1520  -27.2820 C   0  0  0  0  0  0  0  0  0  0  0  0
   -0.4700   20.1410  -28.4330 C   0  0  0  0  0  0  0  0  0  0  0  0
    1.0170   19.2110  -28.4660 Cl  0  0  0  0  0  0  0  0  0  0  0  0
   -0.8660   20.8650  -29.5620 C   0  0  0  0  0  0  0  0  0  0  0  0
   -2.0600   21.5920  -29.5450 C   0  0  0  0  0  0  0  0  0  0  0  0
   -3.0090   24.5220  -27.9790 C   0  0  0  0  0  0  0  0  0  0  0  0
   -1.7930   24.8860  -28.5840 C   0  0  0  0  0  0  0  0  0  0  0  0
   -0.8490   25.6340  -27.8740 C   0  0  0  0  0  0  0  0  0  0  0  0
   -1.1100   26.0230  -26.5570 C   0  0  0  0  0  0  0  0  0  0  0  0
   -2.3150   25.6650  -25.9490 C   0  0  0  0  0  0  0  0  0  0  0  0
   -3.2630   24.9180  -26.6570 C   0  0  0  0  0  0  0  0  0  0  0  0
   -3.6640   22.6528  -31.9901 H   0  0  0  0  0  0  0  0  0  0  0  0
   -4.6753   20.8241  -33.3554 H   0  0  0  0  0  0  0  0  0  0  0  0
   -7.1197   20.3429  -33.1878 H   0  0  0  0  0  0  0  0  0  0  0  0
   -7.5577   23.5494  -30.3182 H   0  0  0  0  0  0  0  0  0  0  0  0
   -4.6417   22.2442  -27.3944 H   0  0  0  0  0  0  0  0  0  0  0  0
   -4.8455   21.8888  -29.1511 H   0  0  0  0  0  0  0  0  0  0  0  0
   -3.0758   20.8906  -26.3520 H   0  0  0  0  0  0  0  0  0  0  0  0
   -0.9485   19.5887  -26.3914 H   0  0  0  0  0  0  0  0  0  0  0  0
   -0.2372   20.8625  -30.4646 H   0  0  0  0  0  0  0  0  0  0  0  0
   -2.3642   22.1664  -30.4324 H   0  0  0  0  0  0  0  0  0  0  0  0
   -1.5836   24.5811  -29.6199 H   0  0  0  0  0  0  0  0  0  0  0  0
    0.1003   25.9167  -28.3524 H   0  0  0  0  0  0  0  0  0  0  0  0
   -0.3661   26.6111  -25.9996 H   0  0  0  0  0  0  0  0  0  0  0  0
   -2.5193   25.9706  -24.9122 H   0  0  0  0  0  0  0  0  0  0  0  0
   -4.2118   24.6399  -26.1750 H   0  0  0  0  0  0  0  0  0  0  0  0
  1  2  2  0
  2  3  2  0
  2  4  1  0
  4  5  2  0
  5  6  1  0
  6  7  2  0
  7  8  1  0
  8  9  1  0
  8 10  2  0
  2 11  1  0
 11 12  1  0
 12 13  1  0
 13 14  2  0
 14 15  1  0
 15 16  2  0
 16 17  1  0
 16 18  1  0
 18 19  2  0
 11 20  1  0
 20 21  2  0
 21 22  1  0
 22 23  2  0
 23 24  1  0
 24 25  2  0
 10  4  1  0
 19 13  1  0
 25 20  1  0
  5 26  1  0
  6 27  1  0
  7 28  1  0
 10 29  1  0
 12 30  1  0
 12 31  1  0
 14 32  1  0
 15 33  1  0
 18 34  1  0
 19 35  1  0
 21 36  1  0
 22 37  1  0
 23 38  1  0
 24 39  1  0
 25 40  1  0
M  END
>  <UniqueID>  (24) 
22

>  <SMILES>  (24) 
O=S(=O)(c1cccc(Br)c1)N(Cc1ccc(Cl)cc1)c1ccccc1

>  <Energy>  (24) 
43.45487387814317

>  <Genealogy>  (24) 
O=S(=O)(c1cccc(Br)c1)N(Cc1ccc(Cl)cc1)c1ccccc1 (3D coordinates assigned)
O=S(=O)(c1cccc(Br)c1)N(Cc1ccc(Cl)cc1)c1ccccc1 (optimized conformer: 43.45487387814317 kcal/mol)

>  <smiles>  (24) 
O=S(=O)(c1cccc(Br)c1)N(Cc1ccc(Cl)cc1)c1ccccc1

>  <score_type>  (24) 
oracle

>  <origin>  (24) 
adgpu

>  <m_score__min__energy>  (24) 
-9.4800000000000004

>  <m_primary>  (24) 
energy

$$$$
24:0
     RDKit          3D

 32 34  0  0  0  0  0  0  0  0999 V2000
   -7.8040   24.2040  -31.2738 H   0  0  0  0  0  0  0  0  0  0  0  0
   -7.5210   23.2050  -31.6370 C   0  0  0  0  0  0  0  0  0  0  0  0
   -8.5090   22.2410  -31.8590 C   0  0  0  0  0  0  0  0  0  0  0  0
   -9.5671   22.4933  -31.6954 H   0  0  0  0  0  0  0  0  0  0  0  0
   -8.1560   20.9520  -32.2900 C   0  0  0  0  0  0  0  0  0  0  0  0
   -9.2220   19.9230  -32.5610 C   0  0  0  0  0  0  0  0  0  0  0  0
   -9.3281   19.7904  -33.6478 H   0  0  0  0  0  0  0  0  0  0  0  0
  -10.1698   20.2719  -32.1252 H   0  0  0  0  0  0  0  0  0  0  0  0
   -8.8530   18.5860  -31.9270 C   0  0  0  0  0  0  0  0  0  0  0  0
   -8.8790   18.6802  -30.8313 H   0  0  0  0  0  0  0  0  0  0  0  0
   -9.5727   17.8178  -32.2462 H   0  0  0  0  0  0  0  0  0  0  0  0
   -7.8411   18.2957  -32.2462 H   0  0  0  0  0  0  0  0  0  0  0  0
   -6.8050   20.6460  -32.5070 C   0  0  0  0  0  0  0  0  0  0  0  0
   -6.5200   19.6414  -32.8527 H   0  0  0  0  0  0  0  0  0  0  0  0
   -5.8180   21.6120  -32.2860 C   0  0  0  0  0  0  0  0  0  0  0  0
   -4.7585   21.3567  -32.4354 H   0  0  0  0  0  0  0  0  0  0  0  0
   -6.1740   22.9070  -31.8740 C   0  0  0  0  0  0  0  0  0  0  0  0
   -5.1800   23.9030  -31.5930 N   0  0  0  0  0  0  0  0  0  0  0  0
   -4.3390   23.8940  -30.6000 C   0  0  0  0  0  0  0  0  0  0  0  0
   -3.4840   24.9260  -30.3800 N   0  0  0  0  0  0  0  0  0  0  0  0
   -2.7860   24.5060  -29.3090 C   0  0  0  0  0  0  0  0  0  0  0  0
   -1.7570   25.1720  -28.6490 C   0  0  0  0  0  0  0  0  0  0  0  0
   -1.4256   26.1698  -28.9723 H   0  0  0  0  0  0  0  0  0  0  0  0
   -1.1550   24.5240  -27.5530 C   0  0  0  0  0  0  0  0  0  0  0  0
   -0.3419   25.0207  -27.0033 H   0  0  0  0  0  0  0  0  0  0  0  0
   -1.5900   23.2380  -27.1550 C   0  0  0  0  0  0  0  0  0  0  0  0
   -1.1118   22.7399  -26.2987 H   0  0  0  0  0  0  0  0  0  0  0  0
   -2.6310   22.5920  -27.8480 C   0  0  0  0  0  0  0  0  0  0  0  0
   -2.9776   21.5907  -27.5526 H   0  0  0  0  0  0  0  0  0  0  0  0
   -3.2060   23.2680  -28.9220 C   0  0  0  0  0  0  0  0  0  0  0  0
   -4.1900   22.8580  -29.7310 N   0  0  0  0  0  0  0  0  0  0  0  0
   -4.6770   21.9340  -29.7100 H   0  0  0  0  0  0  0  0  0  0  0  0
  1  2  1  0
  2  3  2  0
  3  4  1  0
  3  5  1  0
  5  6  1  0
  6  7  1  0
  6  8  1  0
  6  9  1  0
  9 10  1  0
  9 11  1  0
  9 12  1  0
  5 13  2  0
 13 14  1  0
 13 15  1  0
 15 16  1  0
 15 17  2  0
 17 18  1  0
 18 19  2  0
 19 20  1  0
 20 21  1  0
 21 22  2  0
 22 23  1  0
 22 24  1  0
 24 25  1  0
 24 26  2  0
 26 27  1  0
 26 28  1  0
 28 29  1  0
 28 30  2  0
 30 31  1  0
 31 32  1  0
 17  2  1  0
 31 19  1  0
 30 21  1  0
M  CHG  1  20  -1
M  END
>  <UniqueID>  (25) 
23

>  <SMILES>  (25) 
CCc1ccc(/N=c2/[n-]c3ccccc3[nH]2)cc1

>  <Energy>  (25) 
74.96806120233431

>  <Genealogy>  (25) 
CCc1ccc(N=c2[n-]c3ccccc3[nH]2)cc1 (protonated)
CCc1ccc(/N=c2/[n-]c3ccccc3[nH]2)cc1 (cis-trans isomerization)
CCc1ccc(/N=c2/[n-]c3ccccc3[nH]2)cc1 (3D coordinates assigned)
CCc1ccc(/N=c2/[n-]c3ccccc3[nH]2)cc1 (optimized conformer: 74.96806120233431 kcal/mol)

>  <smiles>  (25) 
CCc1ccc(N=c2[nH]c3ccccc3[nH]2)cc1

>  <score_type>  (25) 
oracle

>  <origin>  (25) 
adgpu

>  <m_score__min__energy>  (25) 
-8.6899999999999995

>  <m_primary>  (25) 
energy

$$$$
25:0
     RDKit          3D

 36 37  0  0  0  0  0  0  0  0999 V2000
   -9.0840   19.4340  -31.8790 C   0  0  0  0  0  0  0  0  0  0  0  0
   -8.3600   19.0140  -33.0730 N   0  0  0  0  0  0  0  0  0  0  0  0
   -6.6470   19.1260  -32.8000 S   0  0  0  0  0  0  0  0  0  0  0  0
   -5.9250   18.1010  -33.6300 O   0  0  0  0  0  0  0  0  0  0  0  0
   -6.3660   18.8480  -31.3500 O   0  0  0  0  0  0  0  0  0  0  0  0
   -6.0910   20.7280  -33.1740 N   0  0  0  0  0  0  0  0  0  0  0  0
   -6.1990   21.8600  -32.3030 C   0  0  0  0  0  0  0  0  0  0  0  0
   -7.4740   22.3160  -31.9650 C   0  0  0  0  0  0  0  0  0  0  0  0
   -7.6290   23.4170  -31.1250 C   0  0  0  0  0  0  0  0  0  0  0  0
   -6.5120   24.0890  -30.6280 C   0  0  0  0  0  0  0  0  0  0  0  0
   -6.7150   25.1550  -29.8140 F   0  0  0  0  0  0  0  0  0  0  0  0
   -5.2080   23.6760  -30.9870 C   0  0  0  0  0  0  0  0  0  0  0  0
   -4.0150   24.4160  -30.4810 C   0  0  0  0  0  0  0  0  0  0  0  0
   -3.8810   25.6430  -30.7360 O   0  0  0  0  0  0  0  0  0  0  0  0
   -2.9920   23.7300  -29.7470 N   0  0  0  0  0  0  0  0  0  0  0  0
   -2.0660   24.3140  -28.8200 C   0  0  0  0  0  0  0  0  0  0  0  0
   -0.6960   24.2240  -29.0860 C   0  0  0  0  0  0  0  0  0  0  0  0
    0.2090   24.7430  -28.2130 N   0  0  0  0  0  0  0  0  0  0  0  0
   -0.1750   25.3500  -27.0610 C   0  0  0  0  0  0  0  0  0  0  0  0
   -1.5340   25.4490  -26.7360 C   0  0  0  0  0  0  0  0  0  0  0  0
   -1.9520   26.0720  -25.4370 C   0  0  0  0  0  0  0  0  0  0  0  0
   -2.4820   24.9090  -27.6170 C   0  0  0  0  0  0  0  0  0  0  0  0
   -5.0640   22.5550  -31.8410 C   0  0  0  0  0  0  0  0  0  0  0  0
   -3.8360   22.1750  -32.2700 F   0  0  0  0  0  0  0  0  0  0  0  0
   -8.5315   19.1135  -30.9835 H   0  0  0  0  0  0  0  0  0  0  0  0
   -9.1827   20.5296  -31.8764 H   0  0  0  0  0  0  0  0  0  0  0  0
  -10.0840   18.9758  -31.8764 H   0  0  0  0  0  0  0  0  0  0  0  0
   -8.5950   19.6840  -33.8410 H   0  0  0  0  0  0  0  0  0  0  0  0
   -8.3617   21.8033  -32.3640 H   0  0  0  0  0  0  0  0  0  0  0  0
   -8.6384   23.7584  -30.8521 H   0  0  0  0  0  0  0  0  0  0  0  0
   -0.3484   23.7310  -30.0059 H   0  0  0  0  0  0  0  0  0  0  0  0
    0.5832   25.7653  -26.3808 H   0  0  0  0  0  0  0  0  0  0  0  0
   -1.5538   25.4785  -24.6008 H   0  0  0  0  0  0  0  0  0  0  0  0
   -1.5585   27.0976  -25.3788 H   0  0  0  0  0  0  0  0  0  0  0  0
   -3.0502   26.0968  -25.3788 H   0  0  0  0  0  0  0  0  0  0  0  0
   -3.5522   24.9513  -27.3661 H   0  0  0  0  0  0  0  0  0  0  0  0
  1  2  1  0
  2  3  1  0
  3  4  2  0
  3  5  2  0
  3  6  1  0
  6  7  1  0
  7  8  2  0
  8  9  1  0
  9 10  2  0
 10 11  1  0
 10 12  1  0
 12 13  1  0
 13 14  2  0
 13 15  1  0
 15 16  1  0
 16 17  2  0
 17 18  1  0
 18 19  2  0
 19 20  1  0
 20 21  1  0
 20 22  2  0
 12 23  2  0
 23 24  1  0
 23  7  1  0
 22 16  1  0
  1 25  1  0
  1 26  1  0
  1 27  1  0
  2 28  1  0
  8 29  1  0
  9 30  1  0
 17 31  1  0
 19 32  1  0
 21 33  1  0
 21 34  1  0
 21 35  1  0
 22 36  1  0
M  CHG  2   6  -1  15  -1
M  END
>  <UniqueID>  (26) 
24

>  <SMILES>  (26) 
CNS(=O)(=O)[N-]c1ccc(F)c(C(=O)[N-]c2cncc(C)c2)c1F

>  <Energy>  (26) 
47.81387546813485

>  <Genealogy>  (26) 
CNS(=O)(=O)[N-]c1ccc(F)c(C(=O)[N-]c2cncc(C)c2)c1F (protonated)
CNS(=O)(=O)[N-]c1ccc(F)c(C(=O)[N-]c2cncc(C)c2)c1F (3D coordinates assigned)
CNS(=O)(=O)[N-]c1ccc(F)c(C(=O)[N-]c2cncc(C)c2)c1F (optimized conformer: 47.81387546813485 kcal/mol)

>  <smiles>  (26) 
CNS(=O)(=O)Nc1ccc(F)c(C(=O)Nc2cncc(C)c2)c1F

>  <score_type>  (26) 
oracle

>  <origin>  (26) 
adgpu

>  <m_score__min__energy>  (26) 
-9.3300000000000001

>  <m_primary>  (26) 
energy

$$$$
26:0
     RDKit          3D

 44 46  0  0  1  0  0  0  0  0999 V2000
   -6.1250   17.8420  -34.1080 C   0  0  0  0  0  0  0  0  0  0  0  0
   -6.5950   18.7620  -33.0220 C   0  0  0  0  0  0  0  0  0  0  0  0
   -6.4150   20.0910  -33.4320 O   0  0  0  0  0  0  0  0  0  0  0  0
   -6.7540   21.1350  -32.6100 C   0  0  0  0  0  0  0  0  0  0  0  0
   -7.9800   21.3330  -32.0250 C   0  0  0  0  0  0  0  0  0  0  0  0
   -8.2370   22.4150  -31.2070 C   0  0  0  0  0  0  0  0  0  0  0  0
   -7.2530   23.3620  -30.9370 C   0  0  0  0  0  0  0  0  0  0  0  0
   -6.0210   23.1640  -31.5270 C   0  0  0  0  0  0  0  0  0  0  0  0
   -4.9690   24.0940  -31.2950 N   0  0  0  0  0  0  0  0  0  0  0  0
   -4.1960   24.0190  -30.2680 C   0  0  0  0  0  0  0  0  0  0  0  0
   -4.4210   22.9830  -29.3730 C   0  0  0  0  0  0  0  0  0  0  0  0
   -3.5910   22.9040  -28.2730 C   0  0  0  0  0  0  0  0  0  0  0  0
   -2.6020   23.8130  -28.0920 N   0  0  0  0  0  0  0  0  0  0  0  0
   -2.4340   24.7940  -28.9930 C   0  0  0  0  0  0  0  0  0  0  0  0
   -1.4790   25.6440  -28.7860 N   0  0  0  0  0  0  0  0  0  0  0  0
   -0.6380   25.5230  -27.6250 C   0  0  0  0  0  0  0  0  0  0  0  0
    0.3570   24.5440  -27.6060 C   0  0  0  0  0  0  0  0  0  0  0  0
    1.1680   24.4350  -26.4750 C   0  0  0  0  0  0  0  0  0  0  0  0
    0.9590   25.3060  -25.4020 C   0  0  0  0  0  0  0  0  0  0  0  0
    1.8240   25.1870  -24.1970 C   0  0  0  0  0  0  0  0  0  0  0  0
   -0.0340   26.2660  -25.4490 C   0  0  0  0  0  0  0  0  0  0  0  0
   -0.8400   26.3810  -26.5620 C   0  0  0  0  0  0  0  0  0  0  0  0
   -3.2010   24.9190  -30.0690 N   0  0  0  0  0  0  0  0  0  0  0  0
   -5.7780   22.0780  -32.3420 C   0  0  0  0  0  0  0  0  0  0  0  0
   -5.6682   16.9478  -33.6589 H   0  0  0  0  0  0  0  0  0  0  0  0
   -6.9808   17.5429  -34.7311 H   0  0  0  0  0  0  0  0  0  0  0  0
   -5.3811   18.3601  -34.7311 H   0  0  0  0  0  0  0  0  0  0  0  0
   -7.6612   18.5801  -32.8219 H   0  0  0  0  0  0  0  0  0  0  0  0
   -6.0159   18.5769  -32.1052 H   0  0  0  0  0  0  0  0  0  0  0  0
   -8.7836   20.6060  -32.2141 H   0  0  0  0  0  0  0  0  0  0  0  0
   -9.2359   22.5308  -30.7612 H   0  0  0  0  0  0  0  0  0  0  0  0
   -7.4479   24.2263  -30.2850 H   0  0  0  0  0  0  0  0  0  0  0  0
   -5.2286   22.2537  -29.5336 H   0  0  0  0  0  0  0  0  0  0  0  0
   -3.7331   22.0978  -27.5382 H   0  0  0  0  0  0  0  0  0  0  0  0
   -2.0130   23.6970  -27.2420 H   0  0  0  0  0  0  0  0  0  0  0  0
    0.4991   23.8719  -28.4651 H   0  0  0  0  0  0  0  0  0  0  0  0
    1.9608   23.6739  -26.4289 H   0  0  0  0  0  0  0  0  0  0  0  0
    1.2052   25.2721  -23.2916 H   0  0  0  0  0  0  0  0  0  0  0  0
    2.3307   24.2107  -24.2043 H   0  0  0  0  0  0  0  0  0  0  0  0
    2.5755   25.9902  -24.2043 H   0  0  0  0  0  0  0  0  0  0  0  0
   -0.1823   26.9420  -24.5940 H   0  0  0  0  0  0  0  0  0  0  0  0
   -1.6313   27.1441  -26.6024 H   0  0  0  0  0  0  0  0  0  0  0  0
   -3.0900   25.6740  -30.7850 H   0  0  0  0  0  0  0  0  0  0  0  0
   -4.7810   21.9585  -32.7911 H   0  0  0  0  0  0  0  0  0  0  0  0
  1  2  1  0
  2  3  1  0
  3  4  1  0
  4  5  2  0
  5  6  1  0
  6  7  2  0
  7  8  1  0
  8  9  1  0
  9 10  2  0
 10 11  1  0
 11 12  2  0
 12 13  1  0
 13 14  1  0
 14 15  2  0
 15 16  1  0
 16 17  2  0
 17 18  1  0
 18 19  2  0
 19 20  1  0
 19 21  1  0
 21 22  2  0
 14 23  1  0
  8 24  2  0
 24  4  1  0
 23 10  1  0
 22 16  1  0
  1 25  1  0
  1 26  1  0
  1 27  1  0
  2 28  1  0
  2 29  1  0
  5 30  1  0
  6 31  1  0
  7 32  1  0
 11 33  1  0
 12 34  1  0
 13 35  1  0
 17 36  1  0
 18 37  1  0
 20 38  1  0
 20 39  1  0
 20 40  1  0
 21 41  1  0
 22 42  1  0
 23 43  1  0
 24 44  1  0
M  END
>  <smiles>  (27) 
CCOc1cccc(N=c2cc[nH]c(=Nc3ccc(C)cc3)[nH]2)c1

>  <score_type>  (27) 
oracle

>  <origin>  (27) 
adgpu

>  <m_score__min__energy>  (27) 
-8.5899999999999999

>  <m_primary>  (27) 
energy

$$$$
27:0
     RDKit          3D

 33 35  0  0  0  0  0  0  0  0999 V2000
   -0.5780   26.8150  -23.5870 C   0  0  0  0  0  0  0  0  0  0  0  0
   -0.8420   26.5670  -25.0420 C   0  0  0  0  0  0  0  0  0  0  0  0
   -0.1800   27.3430  -26.0280 C   0  0  0  0  0  0  0  0  0  0  0  0
   -0.3910   27.0940  -27.3960 C   0  0  0  0  0  0  0  0  0  0  0  0
   -1.2560   26.0590  -27.7390 C   0  0  0  0  0  0  0  0  0  0  0  0
   -1.5970   25.6470  -28.9680 N   0  0  0  0  0  0  0  0  0  0  0  0
   -2.4480   24.6160  -28.7130 C   0  0  0  0  0  0  0  0  0  0  0  0
   -3.0990   23.8270  -29.7840 C   0  0  0  0  0  0  0  0  0  0  0  0
   -2.4310   22.7420  -30.3730 C   0  0  0  0  0  0  0  0  0  0  0  0
   -3.0430   21.9960  -31.3790 C   0  0  0  0  0  0  0  0  0  0  0  0
   -4.3380   22.3130  -31.8200 C   0  0  0  0  0  0  0  0  0  0  0  0
   -4.9690   21.4890  -32.9120 C   0  0  0  0  0  0  0  0  0  0  0  0
   -5.0170   23.4110  -31.2420 C   0  0  0  0  0  0  0  0  0  0  0  0
   -6.4070   23.7900  -31.6850 C   0  0  0  0  0  0  0  0  0  0  0  0
   -4.3920   24.1530  -30.2250 C   0  0  0  0  0  0  0  0  0  0  0  0
   -2.6480   24.3740  -27.3900 N   0  0  0  0  0  0  0  0  0  0  0  0
   -1.8820   25.3020  -26.7990 C   0  0  0  0  0  0  0  0  0  0  0  0
   -1.7000   25.5160  -25.4360 C   0  0  0  0  0  0  0  0  0  0  0  0
   -1.2469   26.1866  -22.9807 H   0  0  0  0  0  0  0  0  0  0  0  0
    0.4682   26.5656  -23.3565 H   0  0  0  0  0  0  0  0  0  0  0  0
   -0.7616   27.8748  -23.3565 H   0  0  0  0  0  0  0  0  0  0  0  0
    0.5047   28.1469  -25.7197 H   0  0  0  0  0  0  0  0  0  0  0  0
    0.1102   27.6963  -28.1680 H   0  0  0  0  0  0  0  0  0  0  0  0
   -1.4169   22.4784  -30.0382 H   0  0  0  0  0  0  0  0  0  0  0  0
   -2.5058   21.1499  -31.8323 H   0  0  0  0  0  0  0  0  0  0  0  0
   -5.5796   20.6916  -32.4633 H   0  0  0  0  0  0  0  0  0  0  0  0
   -5.6071   22.1329  -33.5350 H   0  0  0  0  0  0  0  0  0  0  0  0
   -4.1810   21.0408  -33.5350 H   0  0  0  0  0  0  0  0  0  0  0  0
   -7.0392   23.9624  -30.8015 H   0  0  0  0  0  0  0  0  0  0  0  0
   -6.3618   24.7086  -32.2884 H   0  0  0  0  0  0  0  0  0  0  0  0
   -6.8344   22.9756  -32.2884 H   0  0  0  0  0  0  0  0  0  0  0  0
   -4.9230   25.0010  -29.7680 H   0  0  0  0  0  0  0  0  0  0  0  0
   -2.2077   24.8873  -24.6897 H   0  0  0  0  0  0  0  0  0  0  0  0
  1  2  1  0
  2  3  2  0
  3  4  1  0
  4  5  2  0
  5  6  1  0
  6  7  1  0
  7  8  1  0
  8  9  2  0
  9 10  1  0
 10 11  2  0
 11 12  1  0
 11 13  1  0
 13 14  1  0
 13 15  2  0
  7 16  2  0
 16 17  1  0
 17 18  2  0
 18  2  1  0
 17  5  1  0
 15  8  1  0
  1 19  1  0
  1 20  1  0
  1 21  1  0
  3 22  1  0
  4 23  1  0
  9 24  1  0
 10 25  1  0
 12 26  1  0
 12 27  1  0
 12 28  1  0
 14 29  1  0
 14 30  1  0
 14 31  1  0
 15 32  1  0
 18 33  1  0
M  CHG  1   6  -1
M  END
>  <UniqueID>  (28) 
25

>  <SMILES>  (28) 
Cc1ccc2[n-]c(-c3ccc(C)c(C)c3)nc2c1

>  <Energy>  (28) 
69.97832364255

>  <Genealogy>  (28) 
Cc1ccc2[n-]c(-c3ccc(C)c(C)c3)nc2c1 (protonated)
Cc1ccc2[n-]c(-c3ccc(C)c(C)c3)nc2c1 (3D coordinates assigned)
Cc1ccc2[n-]c(-c3ccc(C)c(C)c3)nc2c1 (optimized conformer: 69.97832364255 kcal/mol)

>  <smiles>  (28) 
Cc1ccc2[nH]c(-c3ccc(C)c(C)c3)nc2c1

>  <score_type>  (28) 
oracle

>  <origin>  (28) 
adgpu

>  <m_score__min__energy>  (28) 
-7.7000000000000002

>  <m_primary>  (28) 
energy

$$$$
28:0
     RDKit          3D

 39 41  0  0  0  0  0  0  0  0999 V2000
   -4.8450   18.1520  -34.2360 C   0  0  0  0  0  0  0  0  0  0  0  0
   -5.8470   18.9980  -33.4970 C   0  0  0  0  0  0  0  0  0  0  0  0
   -6.9830   18.4230  -32.9160 C   0  0  0  0  0  0  0  0  0  0  0  0
   -7.8950   19.2330  -32.2290 C   0  0  0  0  0  0  0  0  0  0  0  0
   -9.1060   18.6270  -31.6150 C   0  0  0  0  0  0  0  0  0  0  0  0
   -7.6610   20.6150  -32.1290 C   0  0  0  0  0  0  0  0  0  0  0  0
   -6.5190   21.1730  -32.7190 C   0  0  0  0  0  0  0  0  0  0  0  0
   -6.3410   22.5690  -32.5690 N   0  0  0  0  0  0  0  0  0  0  0  0
   -5.8840   23.2070  -31.3980 C   0  0  0  0  0  0  0  0  0  0  0  0
   -6.3330   24.4160  -30.9300 C   0  0  0  0  0  0  0  0  0  0  0  0
   -5.7550   24.8990  -29.7740 C   0  0  0  0  0  0  0  0  0  0  0  0
   -6.1870   26.0480  -29.3390 N   0  0  0  0  0  0  0  0  0  0  0  0
   -4.7780   24.2150  -29.1130 N   0  0  0  0  0  0  0  0  0  0  0  0
   -4.3540   23.0340  -29.5880 C   0  0  0  0  0  0  0  0  0  0  0  0
   -3.2940   22.2580  -28.9250 C   0  0  0  0  0  0  0  0  0  0  0  0
   -2.7780   22.5680  -27.7040 C   0  0  0  0  0  0  0  0  0  0  0  0
   -1.7680   21.7790  -27.1440 C   0  0  0  0  0  0  0  0  0  0  0  0
   -1.3020   20.6740  -27.8600 C   0  0  0  0  0  0  0  0  0  0  0  0
   -1.8430   20.3800  -29.0990 C   0  0  0  0  0  0  0  0  0  0  0  0
   -2.8060   21.1840  -29.5650 N   0  0  0  0  0  0  0  0  0  0  0  0
   -4.9070   22.5590  -30.7030 N   0  0  0  0  0  0  0  0  0  0  0  0
   -5.6120   20.3630  -33.4030 C   0  0  0  0  0  0  0  0  0  0  0  0
   -4.2119   17.6175  -33.5125 H   0  0  0  0  0  0  0  0  0  0  0  0
   -5.3749   17.4239  -34.8678 H   0  0  0  0  0  0  0  0  0  0  0  0
   -4.2160   18.7964  -34.8678 H   0  0  0  0  0  0  0  0  0  0  0  0
   -7.1584   17.3402  -32.9987 H   0  0  0  0  0  0  0  0  0  0  0  0
   -9.0216   18.6692  -30.5191 H   0  0  0  0  0  0  0  0  0  0  0  0
   -9.9981   19.1849  -31.9359 H   0  0  0  0  0  0  0  0  0  0  0  0
   -9.1942   17.5785  -31.9359 H   0  0  0  0  0  0  0  0  0  0  0  0
   -8.3724   21.2571  -31.5890 H   0  0  0  0  0  0  0  0  0  0  0  0
   -6.5580   23.2160  -33.3830 H   0  0  0  0  0  0  0  0  0  0  0  0
   -7.1208   24.9767  -31.4544 H   0  0  0  0  0  0  0  0  0  0  0  0
   -5.7620   26.4210  -28.4750 H   0  0  0  0  0  0  0  0  0  0  0  0
   -3.1570   23.4429  -27.1554 H   0  0  0  0  0  0  0  0  0  0  0  0
   -1.3482   22.0243  -26.1573 H   0  0  0  0  0  0  0  0  0  0  0  0
   -0.5075   20.0396  -27.4402 H   0  0  0  0  0  0  0  0  0  0  0  0
   -1.4934   19.5147  -29.6813 H   0  0  0  0  0  0  0  0  0  0  0  0
   -4.5640   21.6290  -31.0640 H   0  0  0  0  0  0  0  0  0  0  0  0
   -4.7161   20.8033  -33.8650 H   0  0  0  0  0  0  0  0  0  0  0  0
  1  2  1  0
  2  3  2  0
  3  4  1  0
  4  5  1  0
  4  6  2  0
  6  7  1  0
  7  8  1  0
  8  9  1  0
  9 10  2  0
 10 11  1  0
 11 12  2  3
 11 13  1  0
 13 14  2  0
 14 15  1  0
 15 16  2  0
 16 17  1  0
 17 18  2  0
 18 19  1  0
 19 20  2  0
 14 21  1  0
  7 22  2  0
 22  2  1  0
 21  9  1  0
 20 15  1  0
  1 23  1  0
  1 24  1  0
  1 25  1  0
  3 26  1  0
  5 27  1  0
  5 28  1  0
  5 29  1  0
  6 30  1  0
  8 31  1  0
 10 32  1  0
 12 33  1  0
 16 34  1  0
 17 35  1  0
 18 36  1  0
 19 37  1  0
 21 38  1  0
 22 39  1  0
M  END
>  <smiles>  (29) 
Cc1cc(C)cc(Nc2cc(=N)nc(-c3ccccn3)[nH]2)c1

>  <score_type>  (29) 
oracle

>  <origin>  (29) 
adgpu

>  <m_score__min__energy>  (29) 
-7.8899999999999997

>  <m_primary>  (29) 
energy

$$$$
29:0
     RDKit          3D

 39 41  0  0  0  0  0  0  0  0999 V2000
   -4.9940   20.3130  -33.4600 C   0  0  0  0  0  0  0  0  0  0  0  0
   -6.2800   19.8860  -32.8020 C   0  0  0  0  0  0  0  0  0  0  0  0
   -6.7940   18.6060  -33.0760 C   0  0  0  0  0  0  0  0  0  0  0  0
   -7.9950   18.1850  -32.5040 C   0  0  0  0  0  0  0  0  0  0  0  0
   -8.6960   19.0320  -31.6450 C   0  0  0  0  0  0  0  0  0  0  0  0
   -8.1930   20.2990  -31.3480 C   0  0  0  0  0  0  0  0  0  0  0  0
   -6.9790   20.7340  -31.9040 C   0  0  0  0  0  0  0  0  0  0  0  0
   -6.4690   22.0730  -31.5390 C   0  0  0  0  0  0  0  0  0  0  0  0
   -7.3480   23.1610  -31.4550 C   0  0  0  0  0  0  0  0  0  0  0  0
   -6.8690   24.4280  -31.1170 C   0  0  0  0  0  0  0  0  0  0  0  0
   -5.5050   24.6310  -30.8610 C   0  0  0  0  0  0  0  0  0  0  0  0
   -5.0610   25.9280  -30.4430 N   0  0  0  0  0  0  0  0  0  0  0  0
   -4.6110   23.5410  -30.9710 C   0  0  0  0  0  0  0  0  0  0  0  0
   -3.1940   23.6950  -30.7980 N   0  0  0  0  0  0  0  0  0  0  0  0
   -2.5460   24.0650  -29.5730 C   0  0  0  0  0  0  0  0  0  0  0  0
   -2.3680   25.2880  -29.3310 O   0  0  0  0  0  0  0  0  0  0  0  0
   -2.0930   23.0570  -28.5870 C   0  0  0  0  0  0  0  0  0  0  0  0
   -0.9620   23.3070  -27.7950 C   0  0  0  0  0  0  0  0  0  0  0  0
   -0.5410   22.3490  -26.8690 C   0  0  0  0  0  0  0  0  0  0  0  0
   -1.2320   21.1880  -26.7270 N   0  0  0  0  0  0  0  0  0  0  0  0
   -2.3400   20.9240  -27.4680 C   0  0  0  0  0  0  0  0  0  0  0  0
   -2.7950   21.8540  -28.4060 C   0  0  0  0  0  0  0  0  0  0  0  0
   -5.1060   22.2670  -31.2720 C   0  0  0  0  0  0  0  0  0  0  0  0
   -4.2510   20.5597  -32.6872 H   0  0  0  0  0  0  0  0  0  0  0  0
   -4.6129   19.4932  -34.0866 H   0  0  0  0  0  0  0  0  0  0  0  0
   -5.1790   21.1979  -34.0866 H   0  0  0  0  0  0  0  0  0  0  0  0
   -6.2440   17.9303  -33.7476 H   0  0  0  0  0  0  0  0  0  0  0  0
   -8.3898   17.1836  -32.7307 H   0  0  0  0  0  0  0  0  0  0  0  0
   -9.6464   18.7004  -31.2014 H   0  0  0  0  0  0  0  0  0  0  0  0
   -8.7522   20.9630  -30.6724 H   0  0  0  0  0  0  0  0  0  0  0  0
   -8.4197   23.0162  -31.6562 H   0  0  0  0  0  0  0  0  0  0  0  0
   -7.5678   25.2749  -31.0508 H   0  0  0  0  0  0  0  0  0  0  0  0
   -5.3070   26.7910  -30.9740 H   0  0  0  0  0  0  0  0  0  0  0  0
   -4.3980   26.0280  -29.6420 H   0  0  0  0  0  0  0  0  0  0  0  0
   -0.4097   24.2522  -27.9025 H   0  0  0  0  0  0  0  0  0  0  0  0
    0.3517   22.5353  -26.2538 H   0  0  0  0  0  0  0  0  0  0  0  0
   -2.8800   19.9758  -27.3290 H   0  0  0  0  0  0  0  0  0  0  0  0
   -3.6976   21.6454  -28.9992 H   0  0  0  0  0  0  0  0  0  0  0  0
   -4.4186   21.4087  -31.2994 H   0  0  0  0  0  0  0  0  0  0  0  0
  1  2  1  0
  2  3  2  0
  3  4  1  0
  4  5  2  0
  5  6  1  0
  6  7  2  0
  7  8  1  0
  8  9  2  0
  9 10  1  0
 10 11  2  0
 11 12  1  0
 11 13  1  0
 13 14  1  0
 14 15  1  0
 15 16  2  0
 15 17  1  0
 17 18  2  0
 18 19  1  0
 19 20  2  0
 20 21  1  0
 21 22  2  0
 13 23  2  0
  7  2  1  0
 23  8  1  0
 22 17  1  0
  1 24  1  0
  1 25  1  0
  1 26  1  0
  3 27  1  0
  4 28  1  0
  5 29  1  0
  6 30  1  0
  9 31  1  0
 10 32  1  0
 12 33  1  0
 12 34  1  0
 18 35  1  0
 19 36  1  0
 21 37  1  0
 22 38  1  0
 23 39  1  0
M  CHG  1  14  -1
M  END
>  <UniqueID>  (30) 
26

>  <SMILES>  (30) 
Cc1ccccc1-c1ccc(N)c([N-]C(=O)c2ccncc2)c1

>  <Energy>  (30) 
58.8484325253942

>  <Genealogy>  (30) 
Cc1ccccc1-c1ccc(N)c([N-]C(=O)c2ccncc2)c1 (protonated)
Cc1ccccc1-c1ccc(N)c([N-]C(=O)c2ccncc2)c1 (3D coordinates assigned)
Cc1ccccc1-c1ccc(N)c([N-]C(=O)c2ccncc2)c1 (optimized conformer: 58.8484325253942 kcal/mol)

>  <smiles>  (30) 
Cc1ccccc1-c1ccc(N)c(NC(=O)c2ccncc2)c1

>  <score_type>  (30) 
oracle

>  <origin>  (30) 
adgpu

>  <m_score__min__energy>  (30) 
-10.56

>  <m_primary>  (30) 
energy

$$$$
30:0
     RDKit          3D

 38 40  0  0  0  0  0  0  0  0999 V2000
   -2.4760   21.2730  -33.0790 C   0  0  0  0  0  0  0  0  0  0  0  0
   -3.2690   20.0080  -33.2300 C   0  0  0  0  0  0  0  0  0  0  0  0
   -2.6200   18.7680  -33.2590 C   0  0  0  0  0  0  0  0  0  0  0  0
   -3.3540   17.5940  -33.4420 C   0  0  0  0  0  0  0  0  0  0  0  0
   -4.7410   17.6460  -33.6220 C   0  0  0  0  0  0  0  0  0  0  0  0
   -5.6050   16.1380  -33.8930 Cl  0  0  0  0  0  0  0  0  0  0  0  0
   -5.4040   18.8890  -33.6260 C   0  0  0  0  0  0  0  0  0  0  0  0
   -6.8250   18.9590  -33.8420 N   0  0  0  0  0  0  0  0  0  0  0  0
   -7.9460   19.2410  -32.5490 S   0  0  0  0  0  0  0  0  0  0  0  0
   -9.3400   18.9350  -33.0220 O   0  0  0  0  0  0  0  0  0  0  0  0
   -7.6210   18.3370  -31.3930 O   0  0  0  0  0  0  0  0  0  0  0  0
   -7.8690   20.9330  -32.0640 C   0  0  0  0  0  0  0  0  0  0  0  0
   -8.9730   21.7650  -32.2830 C   0  0  0  0  0  0  0  0  0  0  0  0
   -8.9080   23.1180  -31.9450 C   0  0  0  0  0  0  0  0  0  0  0  0
   -7.7360   23.6520  -31.4060 C   0  0  0  0  0  0  0  0  0  0  0  0
   -6.6080   22.8370  -31.2000 C   0  0  0  0  0  0  0  0  0  0  0  0
   -5.3590   23.4250  -30.6550 C   0  0  0  0  0  0  0  0  0  0  0  0
   -4.5310   22.7150  -29.7690 C   0  0  0  0  0  0  0  0  0  0  0  0
   -3.3640   23.3110  -29.2970 C   0  0  0  0  0  0  0  0  0  0  0  0
   -3.0400   24.5990  -29.7220 C   0  0  0  0  0  0  0  0  0  0  0  0
   -1.9900   25.1600  -29.3110 O   0  0  0  0  0  0  0  0  0  0  0  0
   -3.8620   25.2440  -30.5870 N   0  0  0  0  0  0  0  0  0  0  0  0
   -4.9810   24.6750  -31.0390 N   0  0  0  0  0  0  0  0  0  0  0  0
   -6.6950   21.4660  -31.5150 C   0  0  0  0  0  0  0  0  0  0  0  0
   -4.6590   20.0640  -33.4160 C   0  0  0  0  0  0  0  0  0  0  0  0
   -2.3377   21.4937  -32.0103 H   0  0  0  0  0  0  0  0  0  0  0  0
   -1.4935   21.1493  -33.5580 H   0  0  0  0  0  0  0  0  0  0  0  0
   -3.0155   22.1033  -33.5580 H   0  0  0  0  0  0  0  0  0  0  0  0
   -1.5279   18.7181  -33.1372 H   0  0  0  0  0  0  0  0  0  0  0  0
   -2.8387   16.6222  -33.4447 H   0  0  0  0  0  0  0  0  0  0  0  0
   -7.2020   19.0070  -34.8150 H   0  0  0  0  0  0  0  0  0  0  0  0
   -9.8932   21.3522  -32.7221 H   0  0  0  0  0  0  0  0  0  0  0  0
   -9.7830   23.7654  -32.1039 H   0  0  0  0  0  0  0  0  0  0  0  0
   -7.6943   24.7186  -31.1403 H   0  0  0  0  0  0  0  0  0  0  0  0
   -4.8021   21.6975  -29.4510 H   0  0  0  0  0  0  0  0  0  0  0  0
   -2.7066   22.7728  -28.5982 H   0  0  0  0  0  0  0  0  0  0  0  0
   -5.8333   20.8082  -31.3282 H   0  0  0  0  0  0  0  0  0  0  0  0
   -5.1716   21.0371  -33.3974 H   0  0  0  0  0  0  0  0  0  0  0  0
  1  2  1  0
  2  3  2  0
  3  4  1  0
  4  5  2  0
  5  6  1  0
  5  7  1  0
  7  8  1  0
  8  9  1  0
  9 10  2  0
  9 11  2  0
  9 12  1  0
 12 13  2  0
 13 14  1  0
 14 15  2  0
 15 16  1  0
 16 17  1  0
 17 18  1  0
 18 19  2  0
 19 20  1  0
 20 21  2  0
 20 22  1  0
 22 23  1  0
 16 24  2  0
  7 25  2  0
 25  2  1  0
 24 12  1  0
 23 17  2  0
  1 26  1  0
  1 27  1  0
  1 28  1  0
  3 29  1  0
  4 30  1  0
  8 31  1  0
 13 32  1  0
 14 33  1  0
 15 34  1  0
 18 35  1  0
 19 36  1  0
 24 37  1  0
 25 38  1  0
M  CHG  1  22  -1
M  END
>  <UniqueID>  (31) 
27

>  <SMILES>  (31) 
Cc1ccc(Cl)c(NS(=O)(=O)c2cccc(-c3ccc(=O)[n-]n3)c2)c1

>  <Energy>  (31) 
48.51897267337311

>  <Genealogy>  (31) 
Cc1ccc(Cl)c(NS(=O)(=O)c2cccc(-c3ccc(=O)[n-]n3)c2)c1 (protonated)
Cc1ccc(Cl)c(NS(=O)(=O)c2cccc(-c3ccc(=O)[n-]n3)c2)c1 (3D coordinates assigned)
Cc1ccc(Cl)c(NS(=O)(=O)c2cccc(-c3ccc(=O)[n-]n3)c2)c1 (optimized conformer: 48.51897267337311 kcal/mol)

>  <smiles>  (31) 
Cc1ccc(Cl)c(NS(=O)(=O)c2cccc(-c3ccc(=O)[nH]n3)c2)c1

>  <score_type>  (31) 
oracle

>  <origin>  (31) 
adgpu

>  <m_score__min__energy>  (31) 
-12.26

>  <m_primary>  (31) 
energy

$$$$
31:0
     RDKit          3D

 34 36  0  0  0  0  0  0  0  0999 V2000
   -2.2004   18.4865  -26.5226 H   0  0  0  0  0  0  0  0  0  0  0  0
   -1.5610   19.3410  -26.7890 C   0  0  0  0  0  0  0  0  0  0  0  0
   -0.6760   19.2420  -27.8660 C   0  0  0  0  0  0  0  0  0  0  0  0
   -0.6124   18.3065  -28.4411 H   0  0  0  0  0  0  0  0  0  0  0  0
    0.1290   20.3320  -28.2130 C   0  0  0  0  0  0  0  0  0  0  0  0
    0.8376   20.2447  -29.0498 H   0  0  0  0  0  0  0  0  0  0  0  0
    0.0370   21.5340  -27.5000 C   0  0  0  0  0  0  0  0  0  0  0  0
    0.8970   22.6280  -27.8580 N   0  0  0  0  0  0  0  0  0  0  0  0
    0.5160   23.7550  -28.3280 N   0  0  0  0  0  0  0  0  0  0  0  0
   -0.8210   24.0810  -28.7370 C   0  0  0  0  0  0  0  0  0  0  0  0
   -1.4290   25.3160  -28.6340 C   0  0  0  0  0  0  0  0  0  0  0  0
   -0.8550   26.5320  -27.9880 C   0  0  0  0  0  0  0  0  0  0  0  0
   -0.9056   26.4248  -26.8944 H   0  0  0  0  0  0  0  0  0  0  0  0
    0.1941   26.6506  -28.2966 H   0  0  0  0  0  0  0  0  0  0  0  0
   -1.4303   27.4173  -28.2966 H   0  0  0  0  0  0  0  0  0  0  0  0
   -2.6020   25.2970  -29.3020 N   0  0  0  0  0  0  0  0  0  0  0  0
   -2.7580   24.0890  -29.8280 N   0  0  0  0  0  0  0  0  0  0  0  0
   -3.8940   23.7140  -30.6310 C   0  0  0  0  0  0  0  0  0  0  0  0
   -3.8000   22.6830  -31.5860 C   0  0  0  0  0  0  0  0  0  0  0  0
   -2.8444   22.1583  -31.7326 H   0  0  0  0  0  0  0  0  0  0  0  0
   -4.9160   22.3230  -32.3490 C   0  0  0  0  0  0  0  0  0  0  0  0
   -4.8335   21.5219  -33.0983 H   0  0  0  0  0  0  0  0  0  0  0  0
   -6.1350   22.9790  -32.1610 C   0  0  0  0  0  0  0  0  0  0  0  0
   -7.0102   22.6976  -32.7651 H   0  0  0  0  0  0  0  0  0  0  0  0
   -6.2420   23.9920  -31.2060 C   0  0  0  0  0  0  0  0  0  0  0  0
   -7.2032   24.5056  -31.0562 H   0  0  0  0  0  0  0  0  0  0  0  0
   -5.1310   24.3550  -30.4400 C   0  0  0  0  0  0  0  0  0  0  0  0
   -5.2247   25.1473  -29.6827 H   0  0  0  0  0  0  0  0  0  0  0  0
   -1.6730   23.3420  -29.5290 C   0  0  0  0  0  0  0  0  0  0  0  0
   -1.4430   22.1930  -29.9910 O   0  0  0  0  0  0  0  0  0  0  0  0
   -0.8300   21.6160  -26.3940 C   0  0  0  0  0  0  0  0  0  0  0  0
   -0.8753   22.5399  -25.7988 H   0  0  0  0  0  0  0  0  0  0  0  0
   -1.6340   20.5240  -26.0510 C   0  0  0  0  0  0  0  0  0  0  0  0
   -2.3250   20.5974  -25.1983 H   0  0  0  0  0  0  0  0  0  0  0  0
  1  2  1  0
  2  3  2  0
  3  4  1  0
  3  5  1  0
  5  6  1  0
  5  7  2  0
  7  8  1  0
  8  9  2  0
  9 10  1  0
 10 11  2  0
 11 12  1  0
 12 13  1  0
 12 14  1  0
 12 15  1  0
 11 16  1  0
 16 17  1  0
 17 18  1  0
 18 19  2  0
 19 20  1  0
 19 21  1  0
 21 22  1  0
 21 23  2  0
 23 24  1  0
 23 25  1  0
 25 26  1  0
 25 27  2  0
 27 28  1  0
 17 29  1  0
 29 30  2  0
  7 31  1  0
 31 32  1  0
 31 33  2  0
 33 34  1  0
 33  2  1  0
 29 10  1  0
 27 18  1  0
M  CHG  1  16  -1
M  END
>  <UniqueID>  (32) 
28

>  <SMILES>  (32) 
Cc1[n-]n(-c2ccccc2)c(=O)c1/N=N\c1ccccc1

>  <Energy>  (32) 
85.89127660247115

>  <Genealogy>  (32) 
Cc1[n-]n(-c2ccccc2)c(=O)c1N=Nc1ccccc1 (protonated)
Cc1[n-]n(-c2ccccc2)c(=O)c1/N=N\c1ccccc1 (cis-trans isomerization)
Cc1[n-]n(-c2ccccc2)c(=O)c1/N=N\c1ccccc1 (3D coordinates assigned)
Cc1[n-]n(-c2ccccc2)c(=O)c1/N=N\c1ccccc1 (optimized conformer: 85.89127660247115 kcal/mol)

>  <smiles>  (32) 
Cc1[nH]n(-c2ccccc2)c(=O)c1N=Nc1ccccc1

>  <score_type>  (32) 
oracle

>  <origin>  (32) 
adgpu

>  <m_score__min__energy>  (32) 
-8.4499999999999993

>  <m_primary>  (32) 
energy

$$$$
32:0
     RDKit          3D

 47 50  0  0  1  0  0  0  0  0999 V2000
    2.0160   24.2950  -26.1890 C   0  0  0  0  0  0  0  0  0  0  0  0
    0.6310   24.7820  -26.3710 C   0  0  0  0  0  0  0  0  0  0  0  0
   -0.0610   25.2030  -25.2550 C   0  0  0  0  0  0  0  0  0  0  0  0
   -1.3580   25.6690  -25.3530 C   0  0  0  0  0  0  0  0  0  0  0  0
   -1.9170   25.6930  -26.6090 C   0  0  0  0  0  0  0  0  0  0  0  0
   -1.2270   25.2710  -27.7450 C   0  0  0  0  0  0  0  0  0  0  0  0
   -1.9420   25.3560  -28.9750 N   0  0  0  0  0  0  0  0  0  0  0  0
   -3.1110   24.5750  -29.2400 C   0  0  0  0  0  0  0  0  0  0  0  0
   -3.5720   23.7660  -28.3940 O   0  0  0  0  0  0  0  0  0  0  0  0
   -3.7590   24.7210  -30.4850 N   0  0  0  0  0  0  0  0  0  0  0  0
   -4.9280   23.9960  -30.8590 C   0  0  0  0  0  0  0  0  0  0  0  0
   -6.1420   24.6780  -30.8300 C   0  0  0  0  0  0  0  0  0  0  0  0
   -7.3170   24.0310  -31.1830 C   0  0  0  0  0  0  0  0  0  0  0  0
   -7.2540   22.7160  -31.5580 C   0  0  0  0  0  0  0  0  0  0  0  0
   -8.3820   22.0620  -31.9070 N   0  0  0  0  0  0  0  0  0  0  0  0
   -8.4050   20.7840  -32.2830 C   0  0  0  0  0  0  0  0  0  0  0  0
   -7.2180   20.1220  -32.3110 N   0  0  0  0  0  0  0  0  0  0  0  0
   -6.0620   20.6990  -31.9810 C   0  0  0  0  0  0  0  0  0  0  0  0
   -4.9440   20.0200  -32.0230 N   0  0  0  0  0  0  0  0  0  0  0  0
   -5.0550   18.6630  -32.4350 C   0  0  0  0  0  0  0  0  0  0  0  0
   -5.7340   17.7050  -31.7140 C   0  0  0  0  0  0  0  0  0  0  0  0
   -5.7640   16.4110  -32.2330 C   0  0  0  0  0  0  0  0  0  0  0  0
   -5.1440   16.0910  -33.4210 C   0  0  0  0  0  0  0  0  0  0  0  0
   -4.4560   17.0590  -34.1520 C   0  0  0  0  0  0  0  0  0  0  0  0
   -3.6630   16.6670  -35.6630 Cl  0  0  0  0  0  0  0  0  0  0  0  0
   -4.4260   18.3360  -33.6400 C   0  0  0  0  0  0  0  0  0  0  0  0
   -6.0500   22.0350  -31.5890 C   0  0  0  0  0  0  0  0  0  0  0  0
   -4.8590   22.6690  -31.2370 C   0  0  0  0  0  0  0  0  0  0  0  0
    0.0600   24.8080  -27.6430 C   0  0  0  0  0  0  0  0  0  0  0  0
    2.2389   24.2166  -25.1147 H   0  0  0  0  0  0  0  0  0  0  0  0
    2.1215   23.3058  -26.6585 H   0  0  0  0  0  0  0  0  0  0  0  0
    2.7174   25.0004  -26.6585 H   0  0  0  0  0  0  0  0  0  0  0  0
    0.4278   25.1672  -24.2702 H   0  0  0  0  0  0  0  0  0  0  0  0
   -1.9173   26.0051  -24.4675 H   0  0  0  0  0  0  0  0  0  0  0  0
   -2.9481   26.0591  -26.7221 H   0  0  0  0  0  0  0  0  0  0  0  0
   -1.6130   26.0080  -29.7220 H   0  0  0  0  0  0  0  0  0  0  0  0
   -3.3990   25.3930  -31.2250 H   0  0  0  0  0  0  0  0  0  0  0  0
   -6.1691   25.7347  -30.5257 H   0  0  0  0  0  0  0  0  0  0  0  0
   -8.2793   24.5634  -31.1620 H   0  0  0  0  0  0  0  0  0  0  0  0
   -9.3456   20.2852  -32.5594 H   0  0  0  0  0  0  0  0  0  0  0  0
   -7.2720   19.1230  -32.6100 H   0  0  0  0  0  0  0  0  0  0  0  0
   -6.2333   17.9515  -30.7653 H   0  0  0  0  0  0  0  0  0  0  0  0
   -6.2971   15.6244  -31.6788 H   0  0  0  0  0  0  0  0  0  0  0  0
   -5.1923   15.0587  -33.7978 H   0  0  0  0  0  0  0  0  0  0  0  0
   -3.8920   19.1217  -34.1945 H   0  0  0  0  0  0  0  0  0  0  0  0
   -3.8993   22.1320  -31.2595 H   0  0  0  0  0  0  0  0  0  0  0  0
    0.6190   24.4709  -28.5284 H   0  0  0  0  0  0  0  0  0  0  0  0
  1  2  1  0
  2  3  2  0
  3  4  1  0
  4  5  2  0
  5  6  1  0
  6  7  1  0
  7  8  1  0
  8  9  2  0
  8 10  1  0
 10 11  1  0
 11 12  2  0
 12 13  1  0
 13 14  2  0
 14 15  1  0
 15 16  2  0
 16 17  1  0
 17 18  1  0
 18 19  2  0
 19 20  1  0
 20 21  2  0
 21 22  1  0
 22 23  2  0
 23 24  1  0
 24 25  1  0
 24 26  2  0
 18 27  1  0
 27 28  2  0
  6 29  2  0
 29  2  1  0
 28 11  1  0
 27 14  1  0
 26 20  1  0
  1 30  1  0
  1 31  1  0
  1 32  1  0
  3 33  1  0
  4 34  1  0
  5 35  1  0
  7 36  1  0
 10 37  1  0
 12 38  1  0
 13 39  1  0
 16 40  1  0
 17 41  1  0
 21 42  1  0
 22 43  1  0
 23 44  1  0
 26 45  1  0
 28 46  1  0
 29 47  1  0
M  END
>  <smiles>  (33) 
Cc1cccc(NC(=O)Nc2ccc3nc[nH]c(=Nc4cccc(Cl)c4)c3c2)c1

>  <score_type>  (33) 
oracle

>  <origin>  (33) 
adgpu

>  <m_score__min__energy>  (33) 
-9.8200000000000003

>  <m_primary>  (33) 
energy

$$$$
33:0
     RDKit          3D

 27 28  0  0  0  0  0  0  0  0999 V2000
   -3.6360   24.5500  -28.7130 N   0  0  0  0  0  0  0  0  0  0  0  0
   -4.5540   24.2110  -29.5830 C   0  0  0  0  0  0  0  0  0  0  0  0
   -5.8690   24.4380  -29.3450 N   0  0  0  0  0  0  0  0  0  0  0  0
   -6.7960   24.0740  -30.2410 C   0  0  0  0  0  0  0  0  0  0  0  0
   -6.4190   23.4550  -31.4330 C   0  0  0  0  0  0  0  0  0  0  0  0
   -7.4810   23.0020  -32.3820 C   0  0  0  0  0  0  0  0  0  0  0  0
   -7.6840   21.5220  -32.1970 C   0  0  0  0  0  0  0  0  0  0  0  0
   -6.8720   20.6460  -32.9150 C   0  0  0  0  0  0  0  0  0  0  0  0
   -6.9870   19.2810  -32.8000 C   0  0  0  0  0  0  0  0  0  0  0  0
   -7.9300   18.7310  -31.9510 C   0  0  0  0  0  0  0  0  0  0  0  0
   -8.7410   19.5930  -31.2320 C   0  0  0  0  0  0  0  0  0  0  0  0
   -8.6160   20.9830  -31.3570 C   0  0  0  0  0  0  0  0  0  0  0  0
   -9.4250   21.7910  -30.6390 F   0  0  0  0  0  0  0  0  0  0  0  0
   -5.0830   23.2370  -31.6530 C   0  0  0  0  0  0  0  0  0  0  0  0
   -4.6130   22.6970  -32.7380 N   0  0  0  0  0  0  0  0  0  0  0  0
   -4.1810   23.6210  -30.7200 N   0  0  0  0  0  0  0  0  0  0  0  0
   -3.8930   25.0090  -27.8040 H   0  0  0  0  0  0  0  0  0  0  0  0
   -6.1400   24.9040  -28.4350 H   0  0  0  0  0  0  0  0  0  0  0  0
   -7.8598   24.2642  -30.0358 H   0  0  0  0  0  0  0  0  0  0  0  0
   -8.4198   23.5350  -32.1708 H   0  0  0  0  0  0  0  0  0  0  0  0
   -7.1782   23.2153  -33.4178 H   0  0  0  0  0  0  0  0  0  0  0  0
   -6.1142   21.0605  -33.5961 H   0  0  0  0  0  0  0  0  0  0  0  0
   -6.3268   18.6240  -33.3852 H   0  0  0  0  0  0  0  0  0  0  0  0
   -8.0329   17.6405  -31.8498 H   0  0  0  0  0  0  0  0  0  0  0  0
   -9.4978   19.1786  -30.5497 H   0  0  0  0  0  0  0  0  0  0  0  0
   -5.3000   22.4190  -33.4680 H   0  0  0  0  0  0  0  0  0  0  0  0
   -3.1400   23.4550  -30.8880 H   0  0  0  0  0  0  0  0  0  0  0  0
  1  2  2  3
  2  3  1  0
  3  4  1  0
  4  5  2  0
  5  6  1  0
  6  7  1  0
  7  8  2  0
  8  9  1  0
  9 10  2  0
 10 11  1  0
 11 12  2  0
 12 13  1  0
  5 14  1  0
 14 15  2  3
 14 16  1  0
 16  2  1  0
 12  7  1  0
  1 17  1  0
  3 18  1  0
  4 19  1  0
  6 20  1  0
  6 21  1  0
  8 22  1  0
  9 23  1  0
 10 24  1  0
 11 25  1  0
 15 26  1  0
 16 27  1  0
M  END
>  <smiles>  (34) 
N=c1[nH]cc(Cc2ccccc2F)c(=N)[nH]1

>  <score_type>  (34) 
oracle

>  <origin>  (34) 
adgpu

>  <m_score__min__energy>  (34) 
-6.8099999999999996

>  <m_primary>  (34) 
energy

$$$$
34:0
     RDKit          3D

 32 33  0  0  0  0  0  0  0  0999 V2000
   -3.4700   21.5770  -33.5450 O   0  0  0  0  0  0  0  0  0  0  0  0
   -3.7740   20.5930  -32.8190 C   0  0  0  0  0  0  0  0  0  0  0  0
   -3.8670   20.7580  -31.3380 C   0  0  0  0  0  0  0  0  0  0  0  0
   -4.2980   22.1680  -31.0350 C   0  0  0  0  0  0  0  0  0  0  0  0
   -5.5670   22.6220  -31.4300 C   0  0  0  0  0  0  0  0  0  0  0  0
   -5.9270   23.9600  -31.2410 C   0  0  0  0  0  0  0  0  0  0  0  0
   -5.0220   24.8610  -30.6700 C   0  0  0  0  0  0  0  0  0  0  0  0
   -5.4010   26.1920  -30.5050 O   0  0  0  0  0  0  0  0  0  0  0  0
   -3.7480   24.4140  -30.2810 C   0  0  0  0  0  0  0  0  0  0  0  0
   -2.8310   25.2970  -29.7210 O   0  0  0  0  0  0  0  0  0  0  0  0
   -3.3890   23.0750  -30.4640 C   0  0  0  0  0  0  0  0  0  0  0  0
   -4.1550   19.3480  -33.4100 N   0  0  0  0  0  0  0  0  0  0  0  0
   -5.3970   19.1830  -34.1520 C   0  0  0  0  0  0  0  0  0  0  0  0
   -6.5570   19.2740  -33.1970 C   0  0  0  0  0  0  0  0  0  0  0  0
   -7.3170   20.4530  -33.1280 C   0  0  0  0  0  0  0  0  0  0  0  0
   -8.4570   20.5120  -32.3190 C   0  0  0  0  0  0  0  0  0  0  0  0
   -8.8490   19.3920  -31.5820 C   0  0  0  0  0  0  0  0  0  0  0  0
   -8.1030   18.2120  -31.6510 C   0  0  0  0  0  0  0  0  0  0  0  0
   -6.9640   18.1500  -32.4590 C   0  0  0  0  0  0  0  0  0  0  0  0
   -4.6050   20.0502  -30.9324 H   0  0  0  0  0  0  0  0  0  0  0  0
   -2.8886   20.5581  -30.8767 H   0  0  0  0  0  0  0  0  0  0  0  0
   -6.2805   21.9224  -31.8898 H   0  0  0  0  0  0  0  0  0  0  0  0
   -6.9267   24.3057  -31.5428 H   0  0  0  0  0  0  0  0  0  0  0  0
   -5.0000   26.7800  -29.7850 H   0  0  0  0  0  0  0  0  0  0  0  0
   -2.3899   22.7298  -30.1595 H   0  0  0  0  0  0  0  0  0  0  0  0
   -5.4811   19.9754  -34.9103 H   0  0  0  0  0  0  0  0  0  0  0  0
   -5.4034   18.2025  -34.6506 H   0  0  0  0  0  0  0  0  0  0  0  0
   -7.0146   21.3342  -33.7128 H   0  0  0  0  0  0  0  0  0  0  0  0
   -9.0445   21.4403  -32.2633 H   0  0  0  0  0  0  0  0  0  0  0  0
   -9.7457   19.4387  -30.9466 H   0  0  0  0  0  0  0  0  0  0  0  0
   -8.4125   17.3314  -31.0690 H   0  0  0  0  0  0  0  0  0  0  0  0
   -6.3839   17.2172  -32.5172 H   0  0  0  0  0  0  0  0  0  0  0  0
  1  2  2  0
  2  3  1  0
  3  4  1  0
  4  5  2  0
  5  6  1  0
  6  7  2  0
  7  8  1  0
  7  9  1  0
  9 10  1  0
  9 11  2  0
  2 12  1  0
 12 13  1  0
 13 14  1  0
 14 15  2  0
 15 16  1  0
 16 17  2  0
 17 18  1  0
 18 19  2  0
 11  4  1  0
 19 14  1  0
  3 20  1  0
  3 21  1  0
  5 22  1  0
  6 23  1  0
  8 24  1  0
 11 25  1  0
 13 26  1  0
 13 27  1  0
 15 28  1  0
 16 29  1  0
 17 30  1  0
 18 31  1  0
 19 32  1  0
M  CHG  2  10  -1  12  -1
M  END
>  <UniqueID>  (35) 
29

>  <SMILES>  (35) 
O=C(Cc1ccc(O)c([O-])c1)[N-]Cc1ccccc1

>  <Energy>  (35) 
26.87730065796275

>  <Genealogy>  (35) 
O=C(Cc1ccc(O)c([O-])c1)[N-]Cc1ccccc1 (protonated)
O=C(Cc1ccc(O)c([O-])c1)[N-]Cc1ccccc1 (3D coordinates assigned)
O=C(Cc1ccc(O)c([O-])c1)[N-]Cc1ccccc1 (optimized conformer: 26.87730065796275 kcal/mol)

>  <smiles>  (35) 
O=C(Cc1ccc(O)c(O)c1)NCc1ccccc1

>  <score_type>  (35) 
oracle

>  <origin>  (35) 
adgpu

>  <m_score__min__energy>  (35) 
-10.17

>  <m_primary>  (35) 
energy

$$$$
35:0
     RDKit          3D

 33 33  0  0  0  0  0  0  0  0999 V2000
   -4.7079   22.5953  -30.3086 H   0  0  0  0  0  0  0  0  0  0  0  0
   -5.1990   23.4160  -30.8520 C   0  0  0  0  0  0  0  0  0  0  0  0
   -4.9890   24.7990  -30.3750 C   0  0  0  0  0  0  0  0  0  0  0  0
   -3.8500   25.3200  -30.5170 O   0  0  0  0  0  0  0  0  0  0  0  0
   -6.0790   25.6040  -29.7320 C   0  0  0  0  0  0  0  0  0  0  0  0
   -5.9878   25.5367  -28.6379 H   0  0  0  0  0  0  0  0  0  0  0  0
   -5.9907   26.6553  -30.0433 H   0  0  0  0  0  0  0  0  0  0  0  0
   -7.0579   25.2104  -30.0433 H   0  0  0  0  0  0  0  0  0  0  0  0
   -5.9590   23.1120  -31.9150 C   0  0  0  0  0  0  0  0  0  0  0  0
   -6.4573   23.9332  -32.4511 H   0  0  0  0  0  0  0  0  0  0  0  0
   -6.1630   21.7260  -32.4060 C   0  0  0  0  0  0  0  0  0  0  0  0
   -7.3960   21.0630  -32.2920 C   0  0  0  0  0  0  0  0  0  0  0  0
   -8.2448   21.5758  -31.8161 H   0  0  0  0  0  0  0  0  0  0  0  0
   -7.5620   19.7510  -32.7780 C   0  0  0  0  0  0  0  0  0  0  0  0
   -8.7960   19.0900  -32.6560 O   0  0  0  0  0  0  0  0  0  0  0  0
   -9.1410   18.1820  -31.6140 C   0  0  0  0  0  0  0  0  0  0  0  0
   -8.9604   18.6574  -30.6386 H   0  0  0  0  0  0  0  0  0  0  0  0
  -10.2041   17.9127  -31.6994 H   0  0  0  0  0  0  0  0  0  0  0  0
   -8.5249   17.2747  -31.6994 H   0  0  0  0  0  0  0  0  0  0  0  0
   -6.4680   19.0980  -33.4000 C   0  0  0  0  0  0  0  0  0  0  0  0
   -6.5280   17.7870  -33.9130 O   0  0  0  0  0  0  0  0  0  0  0  0
   -6.0190   16.6090  -33.2960 C   0  0  0  0  0  0  0  0  0  0  0  0
   -6.0662   16.7182  -32.2025 H   0  0  0  0  0  0  0  0  0  0  0  0
   -6.6233   15.7431  -33.6045 H   0  0  0  0  0  0  0  0  0  0  0  0
   -4.9743   16.4556  -33.6045 H   0  0  0  0  0  0  0  0  0  0  0  0
   -5.2420   19.7690  -33.5330 C   0  0  0  0  0  0  0  0  0  0  0  0
   -4.1830   19.0950  -34.1640 O   0  0  0  0  0  0  0  0  0  0  0  0
   -2.8240   19.1450  -33.7410 C   0  0  0  0  0  0  0  0  0  0  0  0
   -2.7819   19.1465  -32.6418 H   0  0  0  0  0  0  0  0  0  0  0  0
   -2.2872   18.2660  -34.1272 H   0  0  0  0  0  0  0  0  0  0  0  0
   -2.3532   20.0611  -34.1272 H   0  0  0  0  0  0  0  0  0  0  0  0
   -5.0990   21.0790  -33.0420 C   0  0  0  0  0  0  0  0  0  0  0  0
   -4.1381   21.6013  -33.1597 H   0  0  0  0  0  0  0  0  0  0  0  0
  1  2  1  0
  2  3  1  0
  3  4  2  0
  3  5  1  0
  5  6  1  0
  5  7  1  0
  5  8  1  0
  2  9  2  0
  9 10  1  0
  9 11  1  0
 11 12  2  0
 12 13  1  0
 12 14  1  0
 14 15  1  0
 15 16  1  0
 16 17  1  0
 16 18  1  0
 16 19  1  0
 14 20  2  0
 20 21  1  0
 21 22  1  0
 22 23  1  0
 22 24  1  0
 22 25  1  0
 20 26  1  0
 26 27  1  0
 27 28  1  0
 28 29  1  0
 28 30  1  0
 28 31  1  0
 26 32  2  0
 32 33  1  0
 32 11  1  0
M  END
>  <UniqueID>  (36) 
30

>  <SMILES>  (36) 
COc1cc(/C=C/C(C)=O)cc(OC)c1OC

>  <Energy>  (36) 
33.333650467249115

>  <Genealogy>  (36) 
COc1cc(/C=C/C(C)=O)cc(OC)c1OC (cis-trans isomerization)
COc1cc(/C=C/C(C)=O)cc(OC)c1OC (3D coordinates assigned)
COc1cc(/C=C/C(C)=O)cc(OC)c1OC (optimized conformer: 33.333650467249115 kcal/mol)

>  <smiles>  (36) 
COc1cc(C=CC(C)=O)cc(OC)c1OC

>  <score_type>  (36) 
oracle

>  <origin>  (36) 
adgpu

>  <m_score__min__energy>  (36) 
-6.1799999999999997

>  <m_primary>  (36) 
energy

$$$$
36:0
     RDKit          3D

 32 33  0  0  0  0  0  0  0  0999 V2000
   -5.7880   18.5410  -35.0440 N   0  0  0  0  0  0  0  0  0  0  0  0
   -5.3430   17.4870  -34.1380 C   0  0  0  0  0  0  0  0  0  0  0  0
   -6.4350   17.1250  -33.1290 C   0  0  0  0  0  0  0  0  0  0  0  0
   -7.6360   17.8610  -33.3720 O   0  0  0  0  0  0  0  0  0  0  0  0
   -8.0100   19.0690  -32.7590 C   0  0  0  0  0  0  0  0  0  0  0  0
   -9.3690   19.3050  -32.5410 C   0  0  0  0  0  0  0  0  0  0  0  0
   -9.7830   20.4570  -31.9530 N   0  0  0  0  0  0  0  0  0  0  0  0
   -8.9060   21.4150  -31.5540 C   0  0  0  0  0  0  0  0  0  0  0  0
   -7.5270   21.2360  -31.7450 C   0  0  0  0  0  0  0  0  0  0  0  0
   -6.5590   22.2810  -31.3230 C   0  0  0  0  0  0  0  0  0  0  0  0
   -7.0080   23.4700  -30.7190 C   0  0  0  0  0  0  0  0  0  0  0  0
   -6.0950   24.4510  -30.3230 C   0  0  0  0  0  0  0  0  0  0  0  0
   -4.7220   24.2630  -30.5240 C   0  0  0  0  0  0  0  0  0  0  0  0
   -3.7900   25.2690  -30.1180 N   0  0  0  0  0  0  0  0  0  0  0  0
   -4.2680   23.0820  -31.1260 C   0  0  0  0  0  0  0  0  0  0  0  0
   -5.1780   22.0980  -31.5220 C   0  0  0  0  0  0  0  0  0  0  0  0
   -7.0850   20.0460  -32.3480 C   0  0  0  0  0  0  0  0  0  0  0  0
   -6.7710   18.3230  -35.3290 H   0  0  0  0  0  0  0  0  0  0  0  0
   -5.8370   19.4360  -34.5070 H   0  0  0  0  0  0  0  0  0  0  0  0
   -5.0875   16.5931  -34.7259 H   0  0  0  0  0  0  0  0  0  0  0  0
   -4.4653   17.8520  -33.5844 H   0  0  0  0  0  0  0  0  0  0  0  0
   -6.6524   16.0496  -33.2077 H   0  0  0  0  0  0  0  0  0  0  0  0
   -6.0725   17.3779  -32.1217 H   0  0  0  0  0  0  0  0  0  0  0  0
  -10.1098   18.5520  -32.8479 H   0  0  0  0  0  0  0  0  0  0  0  0
   -9.2783   22.3348  -31.0793 H   0  0  0  0  0  0  0  0  0  0  0  0
   -8.0845   23.6282  -30.5575 H   0  0  0  0  0  0  0  0  0  0  0  0
   -6.4569   25.3762  -29.8507 H   0  0  0  0  0  0  0  0  0  0  0  0
   -3.1060   25.6700  -30.7990 H   0  0  0  0  0  0  0  0  0  0  0  0
   -3.7760   25.6190  -29.1330 H   0  0  0  0  0  0  0  0  0  0  0  0
   -3.1908   22.9287  -31.2876 H   0  0  0  0  0  0  0  0  0  0  0  0
   -4.8120   21.1736  -31.9927 H   0  0  0  0  0  0  0  0  0  0  0  0
   -6.0086   19.8774  -32.4996 H   0  0  0  0  0  0  0  0  0  0  0  0
  1  2  1  0
  2  3  1  0
  3  4  1  0
  4  5  1  0
  5  6  2  0
  6  7  1  0
  7  8  2  0
  8  9  1  0
  9 10  1  0
 10 11  2  0
 11 12  1  0
 12 13  2  0
 13 14  1  0
 13 15  1  0
 15 16  2  0
  9 17  2  0
 17  5  1  0
 16 10  1  0
  1 18  1  0
  1 19  1  0
  2 20  1  0
  2 21  1  0
  3 22  1  0
  3 23  1  0
  6 24  1  0
  8 25  1  0
 11 26  1  0
 12 27  1  0
 14 28  1  0
 14 29  1  0
 15 30  1  0
 16 31  1  0
 17 32  1  0
M  END
>  <UniqueID>  (37) 
31

>  <SMILES>  (37) 
NCCOc1cncc(-c2ccc(N)cc2)c1

>  <Energy>  (37) 
35.76262421713278

>  <Genealogy>  (37) 
NCCOc1cncc(-c2ccc(N)cc2)c1 (3D coordinates assigned)
NCCOc1cncc(-c2ccc(N)cc2)c1 (optimized conformer: 35.76262421713278 kcal/mol)

>  <smiles>  (37) 
NCCOc1cncc(-c2ccc(N)cc2)c1

>  <score_type>  (37) 
oracle

>  <origin>  (37) 
adgpu

>  <m_score__min__energy>  (37) 
-7.1600000000000001

>  <m_primary>  (37) 
energy

$$$$
37:0
     RDKit          3D

 25 26  0  0  0  0  0  0  0  0999 V2000
   -6.2230   26.0730  -31.2300 H   0  0  0  0  0  0  0  0  0  0  0  0
   -5.3410   26.0350  -30.6700 N   0  0  0  0  0  0  0  0  0  0  0  0
   -4.6320   24.9550  -30.5950 C   0  0  0  0  0  0  0  0  0  0  0  0
   -5.0270   23.8360  -31.2540 N   0  0  0  0  0  0  0  0  0  0  0  0
   -4.3010   22.6890  -31.2110 C   0  0  0  0  0  0  0  0  0  0  0  0
   -4.7860   21.5280  -31.9820 C   0  0  0  0  0  0  0  0  0  0  0  0
   -6.0210   20.9300  -31.6830 C   0  0  0  0  0  0  0  0  0  0  0  0
   -6.6504   21.3442  -30.8816 H   0  0  0  0  0  0  0  0  0  0  0  0
   -6.4540   19.8100  -32.4000 C   0  0  0  0  0  0  0  0  0  0  0  0
   -7.4277   19.3528  -32.1700 H   0  0  0  0  0  0  0  0  0  0  0  0
   -5.6500   19.2710  -33.4090 C   0  0  0  0  0  0  0  0  0  0  0  0
   -5.9939   18.3939  -33.9768 H   0  0  0  0  0  0  0  0  0  0  0  0
   -4.4090   19.8470  -33.6960 C   0  0  0  0  0  0  0  0  0  0  0  0
   -3.7736   19.4178  -34.4847 H   0  0  0  0  0  0  0  0  0  0  0  0
   -3.9740   20.9680  -32.9820 C   0  0  0  0  0  0  0  0  0  0  0  0
   -2.9927   21.4127  -33.2042 H   0  0  0  0  0  0  0  0  0  0  0  0
   -3.1240   22.6420  -30.4350 C   0  0  0  0  0  0  0  0  0  0  0  0
   -2.0560   21.0380  -30.3530 Br  0  0  0  0  0  0  0  0  0  0  0  0
   -2.7440   23.8070  -29.7360 C   0  0  0  0  0  0  0  0  0  0  0  0
   -1.5700   23.8490  -28.9170 N   0  0  0  0  0  0  0  0  0  0  0  0
   -1.0280   25.0560  -28.3790 C   0  0  0  0  0  0  0  0  0  0  0  0
   -0.4371   25.0307  -27.4515 H   0  0  0  0  0  0  0  0  0  0  0  0
   -1.2290   26.1480  -28.9700 O   0  0  0  0  0  0  0  0  0  0  0  0
   -3.4910   24.9390  -29.8580 N   0  0  0  0  0  0  0  0  0  0  0  0
   -3.1920   25.8040  -29.3520 H   0  0  0  0  0  0  0  0  0  0  0  0
  1  2  1  0
  2  3  2  0
  3  4  1  0
  4  5  2  0
  5  6  1  0
  6  7  2  0
  7  8  1  0
  7  9  1  0
  9 10  1  0
  9 11  2  0
 11 12  1  0
 11 13  1  0
 13 14  1  0
 13 15  2  0
 15 16  1  0
  5 17  1  0
 17 18  1  0
 17 19  2  0
 19 20  1  0
 20 21  1  0
 21 22  1  0
 21 23  2  0
 19 24  1  0
 24 25  1  0
 24  3  1  0
 15  6  1  0
M  CHG  1  20  -1
M  END
>  <UniqueID>  (38) 
32

>  <SMILES>  (38) 
[H]/N=c1\nc(-c2ccccc2)c(Br)c([N-]C=O)[nH]1

>  <Energy>  (38) 
40.19308804423864

>  <Genealogy>  (38) 
N=c1nc(-c2ccccc2)c(Br)c([N-]C=O)[nH]1 (protonated)
[H]/N=c1\nc(-c2ccccc2)c(Br)c([N-]C=O)[nH]1 (cis-trans isomerization)
[H]/N=c1\nc(-c2ccccc2)c(Br)c([N-]C=O)[nH]1 (3D coordinates assigned)
[H]/N=c1\nc(-c2ccccc2)c(Br)c([N-]C=O)[nH]1 (optimized conformer: 40.19308804423864 kcal/mol)

>  <smiles>  (38) 
N=c1nc(-c2ccccc2)c(Br)c(NC=O)[nH]1

>  <score_type>  (38) 
oracle

>  <origin>  (38) 
adgpu

>  <m_score__min__energy>  (38) 
-8.1300000000000008

>  <m_primary>  (38) 
energy

$$$$
38:0
     RDKit          3D

 53 57  0  0  0  0  0  0  0  0999 V2000
   -5.5060   18.1790  -35.2910 C   0  0  0  0  0  0  0  0  0  0  0  0
   -5.3020   17.2550  -34.1730 N   0  0  0  0  0  0  0  0  0  0  0  0
   -5.9470   17.2320  -32.9690 C   0  0  0  0  0  0  0  0  0  0  0  0
   -7.0460   18.1440  -32.5730 C   0  0  0  0  0  0  0  0  0  0  0  0
   -6.8840   19.5340  -32.6850 C   0  0  0  0  0  0  0  0  0  0  0  0
   -7.9000   20.3970  -32.2400 C   0  0  0  0  0  0  0  0  0  0  0  0
   -7.7800   21.7930  -32.3220 O   0  0  0  0  0  0  0  0  0  0  0  0
   -6.7040   22.5350  -31.8120 C   0  0  0  0  0  0  0  0  0  0  0  0
   -5.3930   22.0290  -31.8130 C   0  0  0  0  0  0  0  0  0  0  0  0
   -4.3340   22.8170  -31.3570 C   0  0  0  0  0  0  0  0  0  0  0  0
   -4.5730   24.1170  -30.8840 C   0  0  0  0  0  0  0  0  0  0  0  0
   -3.4980   24.9580  -30.4480 N   0  0  0  0  0  0  0  0  0  0  0  0
   -2.8670   24.8720  -29.1630 C   0  0  0  0  0  0  0  0  0  0  0  0
   -3.4470   24.2320  -28.2460 O   0  0  0  0  0  0  0  0  0  0  0  0
   -1.6080   25.5270  -28.9190 N   0  0  0  0  0  0  0  0  0  0  0  0
   -0.8750   25.4570  -27.6840 C   0  0  0  0  0  0  0  0  0  0  0  0
    0.3110   24.7090  -27.5690 C   0  0  0  0  0  0  0  0  0  0  0  0
    0.9820   24.6340  -26.3430 C   0  0  0  0  0  0  0  0  0  0  0  0
    2.1260   23.9120  -26.2390 F   0  0  0  0  0  0  0  0  0  0  0  0
    0.4670   25.2880  -25.2210 C   0  0  0  0  0  0  0  0  0  0  0  0
   -0.7230   26.0130  -25.3200 C   0  0  0  0  0  0  0  0  0  0  0  0
   -1.2320   26.6340  -24.2270 F   0  0  0  0  0  0  0  0  0  0  0  0
   -1.3950   26.0920  -26.5440 C   0  0  0  0  0  0  0  0  0  0  0  0
   -5.8900   24.5870  -30.7990 C   0  0  0  0  0  0  0  0  0  0  0  0
   -6.9500   23.8000  -31.2650 C   0  0  0  0  0  0  0  0  0  0  0  0
   -9.0810   19.8480  -31.7340 C   0  0  0  0  0  0  0  0  0  0  0  0
   -9.2160   18.4610  -31.6470 C   0  0  0  0  0  0  0  0  0  0  0  0
   -8.2030   17.6500  -32.0540 N   0  0  0  0  0  0  0  0  0  0  0  0
   -5.5040   16.2410  -32.1480 N   0  0  0  0  0  0  0  0  0  0  0  0
   -4.5620   15.6260  -32.8820 C   0  0  0  0  0  0  0  0  0  0  0  0
   -3.7960   14.5200  -32.5180 C   0  0  0  0  0  0  0  0  0  0  0  0
   -2.8720   14.0270  -33.4570 C   0  0  0  0  0  0  0  0  0  0  0  0
   -2.7420   14.6420  -34.7240 C   0  0  0  0  0  0  0  0  0  0  0  0
   -3.5330   15.7560  -35.0610 C   0  0  0  0  0  0  0  0  0  0  0  0
   -4.4390   16.2240  -34.1030 C   0  0  0  0  0  0  0  0  0  0  0  0
   -5.7277   19.1833  -34.9009 H   0  0  0  0  0  0  0  0  0  0  0  0
   -4.5947   18.2174  -35.9059 H   0  0  0  0  0  0  0  0  0  0  0  0
   -6.3488   17.8302  -35.9059 H   0  0  0  0  0  0  0  0  0  0  0  0
   -5.9625   19.9474  -33.1208 H   0  0  0  0  0  0  0  0  0  0  0  0
   -5.2001   21.0081  -32.1744 H   0  0  0  0  0  0  0  0  0  0  0  0
   -3.3091   22.4177  -31.3685 H   0  0  0  0  0  0  0  0  0  0  0  0
   -1.1490   26.0310  -29.7110 H   0  0  0  0  0  0  0  0  0  0  0  0
    0.7126   24.1809  -28.4464 H   0  0  0  0  0  0  0  0  0  0  0  0
    0.9986   25.2321  -24.2596 H   0  0  0  0  0  0  0  0  0  0  0  0
   -2.3372   26.6553  -26.6145 H   0  0  0  0  0  0  0  0  0  0  0  0
   -6.0919   25.5773  -30.3648 H   0  0  0  0  0  0  0  0  0  0  0  0
   -7.9812   24.1775  -31.2010 H   0  0  0  0  0  0  0  0  0  0  0  0
   -9.9000   20.5049  -31.4059 H   0  0  0  0  0  0  0  0  0  0  0  0
  -10.1433   18.0235  -31.2486 H   0  0  0  0  0  0  0  0  0  0  0  0
   -3.9101   14.0489  -31.5305 H   0  0  0  0  0  0  0  0  0  0  0  0
   -2.2468   13.1579  -33.2044 H   0  0  0  0  0  0  0  0  0  0  0  0
   -2.0174   14.2467  -35.4511 H   0  0  0  0  0  0  0  0  0  0  0  0
   -3.4422   16.2420  -36.0436 H   0  0  0  0  0  0  0  0  0  0  0  0
  1  2  1  0
  2  3  1  0
  3  4  1  0
  4  5  2  0
  5  6  1  0
  6  7  1  0
  7  8  1  0
  8  9  2  0
  9 10  1  0
 10 11  2  0
 11 12  1  0
 12 13  1  0
 13 14  2  0
 13 15  1  0
 15 16  1  0
 16 17  2  0
 17 18  1  0
 18 19  1  0
 18 20  2  0
 20 21  1  0
 21 22  1  0
 21 23  2  0
 11 24  1  0
 24 25  2  0
  6 26  2  0
 26 27  1  0
 27 28  2  0
  3 29  2  0
 29 30  1  0
 30 31  2  0
 31 32  1  0
 32 33  2  0
 33 34  1  0
 34 35  2  0
 35  2  1  0
 28  4  1  0
 35 30  1  0
 25  8  1  0
 23 16  1  0
  1 36  1  0
  1 37  1  0
  1 38  1  0
  5 39  1  0
  9 40  1  0
 10 41  1  0
 15 42  1  0
 17 43  1  0
 20 44  1  0
 23 45  1  0
 24 46  1  0
 25 47  1  0
 26 48  1  0
 27 49  1  0
 31 50  1  0
 32 51  1  0
 33 52  1  0
 34 53  1  0
M  CHG  1  12  -1
M  END
>  <UniqueID>  (39) 
33

>  <SMILES>  (39) 
Cn1c(-c2cc(Oc3ccc([N-]C(=O)Nc4cc(F)cc(F)c4)cc3)ccn2)nc2ccccc21

>  <Energy>  (39) 
114.80117632020384

>  <Genealogy>  (39) 
Cn1c(-c2cc(Oc3ccc([N-]C(=O)Nc4cc(F)cc(F)c4)cc3)ccn2)nc2ccccc21 (protonated)
Cn1c(-c2cc(Oc3ccc([N-]C(=O)Nc4cc(F)cc(F)c4)cc3)ccn2)nc2ccccc21 (3D coordinates assigned)
Cn1c(-c2cc(Oc3ccc([N-]C(=O)Nc4cc(F)cc(F)c4)cc3)ccn2)nc2ccccc21 (optimized conformer: 114.80117632020384 kcal/mol)

>  <smiles>  (39) 
Cn1c(-c2cc(Oc3ccc(NC(=O)Nc4cc(F)cc(F)c4)cc3)ccn2)nc2ccccc21

>  <score_type>  (39) 
oracle

>  <origin>  (39) 
adgpu

>  <m_score__min__energy>  (39) 
-11.619999999999999

>  <m_primary>  (39) 
energy

$$$$
39:0
     RDKit          3D

 29 30  0  0  0  0  0  0  0  0999 V2000
   -5.9680   25.9280  -29.7320 C   0  0  0  0  0  0  0  0  0  0  0  0
   -6.1460   24.7040  -30.5710 C   0  0  0  0  0  0  0  0  0  0  0  0
   -5.3640   24.5000  -31.5380 O   0  0  0  0  0  0  0  0  0  0  0  0
   -7.1490   23.7380  -30.2200 N   0  0  0  0  0  0  0  0  0  0  0  0
   -7.5130   22.6110  -31.0290 C   0  0  0  0  0  0  0  0  0  0  0  0
   -8.7580   22.3820  -31.5760 C   0  0  0  0  0  0  0  0  0  0  0  0
   -8.7090   21.2570  -32.3140 N   0  0  0  0  0  0  0  0  0  0  0  0
   -7.4700   20.7840  -32.2590 N   0  0  0  0  0  0  0  0  0  0  0  0
   -7.0360   19.5730  -32.9060 C   0  0  0  0  0  0  0  0  0  0  0  0
   -6.0150   19.6380  -33.8720 C   0  0  0  0  0  0  0  0  0  0  0  0
   -5.5480   18.4800  -34.4970 C   0  0  0  0  0  0  0  0  0  0  0  0
   -6.0930   17.2400  -34.1660 C   0  0  0  0  0  0  0  0  0  0  0  0
   -7.1140   17.1550  -33.2180 C   0  0  0  0  0  0  0  0  0  0  0  0
   -7.6070   18.3130  -32.5910 C   0  0  0  0  0  0  0  0  0  0  0  0
   -8.7320   18.1800  -31.6000 C   0  0  0  0  0  0  0  0  0  0  0  0
   -6.7100   21.5830  -31.4820 C   0  0  0  0  0  0  0  0  0  0  0  0
   -6.0081   25.6522  -28.6679 H   0  0  0  0  0  0  0  0  0  0  0  0
   -4.9936   26.3871  -29.9553 H   0  0  0  0  0  0  0  0  0  0  0  0
   -6.7712   26.6456  -29.9553 H   0  0  0  0  0  0  0  0  0  0  0  0
   -7.6320   23.8480  -29.3000 H   0  0  0  0  0  0  0  0  0  0  0  0
   -9.6461   23.0151  -31.4328 H   0  0  0  0  0  0  0  0  0  0  0  0
   -5.5796   20.6125  -34.1379 H   0  0  0  0  0  0  0  0  0  0  0  0
   -4.7497   18.5460  -35.2509 H   0  0  0  0  0  0  0  0  0  0  0  0
   -5.7179   16.3276  -34.6526 H   0  0  0  0  0  0  0  0  0  0  0  0
   -7.5368   16.1731  -32.9590 H   0  0  0  0  0  0  0  0  0  0  0  0
   -8.3279   18.2278  -30.5780 H   0  0  0  0  0  0  0  0  0  0  0  0
   -9.4506   18.9994  -31.7489 H   0  0  0  0  0  0  0  0  0  0  0  0
   -9.2397   17.2156  -31.7489 H   0  0  0  0  0  0  0  0  0  0  0  0
   -5.6439   21.4413  -31.2511 H   0  0  0  0  0  0  0  0  0  0  0  0
  1  2  1  0
  2  3  2  0
  2  4  1  0
  4  5  1  0
  5  6  1  0
  6  7  2  0
  7  8  1  0
  8  9  1  0
  9 10  2  0
 10 11  1  0
 11 12  2  0
 12 13  1  0
 13 14  2  0
 14 15  1  0
  8 16  1  0
 16  5  2  0
 14  9  1  0
  1 17  1  0
  1 18  1  0
  1 19  1  0
  4 20  1  0
  6 21  1  0
 10 22  1  0
 11 23  1  0
 12 24  1  0
 13 25  1  0
 15 26  1  0
 15 27  1  0
 15 28  1  0
 16 29  1  0
M  END
>  <UniqueID>  (40) 
34

>  <SMILES>  (40) 
CC(=O)Nc1cnn(-c2ccccc2C)c1

>  <Energy>  (40) 
64.85125901930643

>  <Genealogy>  (40) 
CC(=O)Nc1cnn(-c2ccccc2C)c1 (3D coordinates assigned)
CC(=O)Nc1cnn(-c2ccccc2C)c1 (optimized conformer: 64.85125901930643 kcal/mol)

>  <smiles>  (40) 
CC(=O)Nc1cnn(-c2ccccc2C)c1

>  <score_type>  (40) 
oracle

>  <origin>  (40) 
adgpu

>  <m_score__min__energy>  (40) 
-6.8899999999999997

>  <m_primary>  (40) 
energy

$$$$
40:0
     RDKit          3D

 27 28  0  0  0  0  0  0  0  0999 V2000
   -7.6320   23.3330  -30.7700 N   0  0  0  0  0  0  0  0  0  0  0  0
   -7.6500   22.0340  -31.3750 C   0  0  0  0  0  0  0  0  0  0  0  0
   -8.8540   21.5360  -31.8960 C   0  0  0  0  0  0  0  0  0  0  0  0
   -8.8860   20.3040  -32.5550 C   0  0  0  0  0  0  0  0  0  0  0  0
   -7.7120   19.5620  -32.7060 C   0  0  0  0  0  0  0  0  0  0  0  0
   -6.5090   20.0430  -32.1860 C   0  0  0  0  0  0  0  0  0  0  0  0
   -6.4700   21.2640  -31.5000 C   0  0  0  0  0  0  0  0  0  0  0  0
   -5.2210   21.7120  -30.9560 N   0  0  0  0  0  0  0  0  0  0  0  0
   -4.7150   23.0370  -31.1870 C   0  0  0  0  0  0  0  0  0  0  0  0
   -5.2890   23.7990  -32.0120 O   0  0  0  0  0  0  0  0  0  0  0  0
   -3.5010   23.5090  -30.4940 C   0  0  0  0  0  0  0  0  0  0  0  0
   -3.4860   24.8000  -29.9450 C   0  0  0  0  0  0  0  0  0  0  0  0
   -2.3770   25.2660  -29.3130 N   0  0  0  0  0  0  0  0  0  0  0  0
   -1.2590   24.5080  -29.1780 C   0  0  0  0  0  0  0  0  0  0  0  0
   -0.2520   24.9760  -28.5860 O   0  0  0  0  0  0  0  0  0  0  0  0
   -1.2310   23.2080  -29.6890 C   0  0  0  0  0  0  0  0  0  0  0  0
   -2.3550   22.6980  -30.3450 C   0  0  0  0  0  0  0  0  0  0  0  0
   -2.3180   21.0220  -30.8830 Cl  0  0  0  0  0  0  0  0  0  0  0  0
   -7.8870   23.4750  -29.7680 H   0  0  0  0  0  0  0  0  0  0  0  0
   -7.2990   24.1640  -31.3080 H   0  0  0  0  0  0  0  0  0  0  0  0
   -9.7797   22.1198  -31.7849 H   0  0  0  0  0  0  0  0  0  0  0  0
   -9.8355   19.9186  -32.9548 H   0  0  0  0  0  0  0  0  0  0  0  0
   -7.7355   18.5979  -33.2351 H   0  0  0  0  0  0  0  0  0  0  0  0
   -5.5856   19.4595  -32.3157 H   0  0  0  0  0  0  0  0  0  0  0  0
   -4.7470   21.1000  -30.2550 H   0  0  0  0  0  0  0  0  0  0  0  0
   -4.3776   25.4390  -30.0267 H   0  0  0  0  0  0  0  0  0  0  0  0
   -0.3289   22.5889  -29.5756 H   0  0  0  0  0  0  0  0  0  0  0  0
  1  2  1  0
  2  3  2  0
  3  4  1  0
  4  5  2  0
  5  6  1  0
  6  7  2  0
  7  8  1  0
  8  9  1  0
  9 10  2  0
  9 11  1  0
 11 12  2  0
 12 13  1  0
 13 14  1  0
 14 15  2  0
 14 16  1  0
 16 17  2  0
 17 18  1  0
  7  2  1  0
 17 11  1  0
  1 19  1  0
  1 20  1  0
  3 21  1  0
  4 22  1  0
  5 23  1  0
  6 24  1  0
  8 25  1  0
 12 26  1  0
 16 27  1  0
M  CHG  1  13  -1
M  END
>  <UniqueID>  (41) 
35

>  <SMILES>  (41) 
Nc1ccccc1NC(=O)c1c[n-]c(=O)cc1Cl

>  <Energy>  (41) 
40.516782255049485

>  <Genealogy>  (41) 
Nc1ccccc1NC(=O)c1c[n-]c(=O)cc1Cl (protonated)
Nc1ccccc1NC(=O)c1c[n-]c(=O)cc1Cl (3D coordinates assigned)
Nc1ccccc1NC(=O)c1c[n-]c(=O)cc1Cl (optimized conformer: 40.516782255049485 kcal/mol)

>  <smiles>  (41) 
Nc1ccccc1NC(=O)c1c[nH]c(=O)cc1Cl

>  <score_type>  (41) 
oracle

>  <origin>  (41) 
adgpu

>  <m_score__min__energy>  (41) 
-7.9000000000000004

>  <m_primary>  (41) 
energy

$$$$
41:0
     RDKit          3D

 50 52  0  0  0  0  0  0  0  0999 V2000
   -2.7400   19.5390  -26.8010 C   0  0  0  0  0  0  0  0  0  0  0  0
   -1.6420   20.4340  -26.6620 O   0  0  0  0  0  0  0  0  0  0  0  0
   -1.6050   21.7410  -27.1750 C   0  0  0  0  0  0  0  0  0  0  0  0
   -0.4020   22.4450  -27.0940 C   0  0  0  0  0  0  0  0  0  0  0  0
   -0.3050   23.7490  -27.5870 C   0  0  0  0  0  0  0  0  0  0  0  0
   -1.4290   24.3770  -28.1520 C   0  0  0  0  0  0  0  0  0  0  0  0
   -1.3710   25.6880  -28.6550 O   0  0  0  0  0  0  0  0  0  0  0  0
   -0.8570   26.8090  -27.9370 C   0  0  0  0  0  0  0  0  0  0  0  0
   -2.6510   23.6880  -28.2170 C   0  0  0  0  0  0  0  0  0  0  0  0
   -3.7820   24.3550  -28.7980 N   0  0  0  0  0  0  0  0  0  0  0  0
   -4.1290   24.4090  -30.1880 C   0  0  0  0  0  0  0  0  0  0  0  0
   -3.8850   25.4390  -30.8750 O   0  0  0  0  0  0  0  0  0  0  0  0
   -4.6770   23.1730  -30.8470 C   0  0  1  0  0  0  0  0  0  0  0  0
   -5.7070   23.5230  -31.8330 N   0  0  0  0  0  0  0  0  0  0  0  0
   -7.2720   22.9390  -31.3430 S   0  0  0  0  0  0  0  0  0  0  0  0
   -8.3440   23.7950  -31.9620 O   0  0  0  0  0  0  0  0  0  0  0  0
   -7.3850   23.0440  -29.8470 O   0  0  0  0  0  0  0  0  0  0  0  0
   -7.4900   21.2580  -31.8260 C   0  0  0  0  0  0  0  0  0  0  0  0
   -6.6160   20.6780  -32.7580 C   0  0  0  0  0  0  0  0  0  0  0  0
   -6.7940   19.3490  -33.1540 C   0  0  0  0  0  0  0  0  0  0  0  0
   -7.8560   18.5980  -32.6330 C   0  0  0  0  0  0  0  0  0  0  0  0
   -8.7360   19.1770  -31.7170 C   0  0  0  0  0  0  0  0  0  0  0  0
   -8.5530   20.5020  -31.3100 C   0  0  0  0  0  0  0  0  0  0  0  0
   -3.5570   22.4230  -31.5340 C   0  0  0  0  0  0  0  0  0  0  0  0
   -2.3190   22.2320  -30.8920 C   0  0  0  0  0  0  0  0  0  0  0  0
   -1.2890   21.5370  -31.5390 C   0  0  0  0  0  0  0  0  0  0  0  0
   -1.4860   21.0260  -32.8250 C   0  0  0  0  0  0  0  0  0  0  0  0
   -2.7120   21.2050  -33.4670 C   0  0  0  0  0  0  0  0  0  0  0  0
   -3.7440   21.8980  -32.8260 C   0  0  0  0  0  0  0  0  0  0  0  0
   -2.7300   22.3610  -27.7530 C   0  0  0  0  0  0  0  0  0  0  0  0
   -3.1014   19.2445  -25.8047 H   0  0  0  0  0  0  0  0  0  0  0  0
   -3.5511   20.0366  -27.3529 H   0  0  0  0  0  0  0  0  0  0  0  0
   -2.4161   18.6443  -27.3529 H   0  0  0  0  0  0  0  0  0  0  0  0
    0.4781   21.9685  -26.6376 H   0  0  0  0  0  0  0  0  0  0  0  0
    0.6536   24.2858  -27.5329 H   0  0  0  0  0  0  0  0  0  0  0  0
   -0.9424   26.6227  -26.8563 H   0  0  0  0  0  0  0  0  0  0  0  0
    0.2002   26.9599  -28.2006 H   0  0  0  0  0  0  0  0  0  0  0  0
   -1.4326   27.7085  -28.2006 H   0  0  0  0  0  0  0  0  0  0  0  0
   -5.1310   22.5373  -30.0726 H   0  0  0  0  0  0  0  0  0  0  0  0
   -5.7894   21.2700  -33.1778 H   0  0  0  0  0  0  0  0  0  0  0  0
   -6.0999   18.8927  -33.8751 H   0  0  0  0  0  0  0  0  0  0  0  0
   -7.9962   17.5527  -32.9456 H   0  0  0  0  0  0  0  0  0  0  0  0
   -9.5747   18.5899  -31.3148 H   0  0  0  0  0  0  0  0  0  0  0  0
   -9.2446   20.9529  -30.5831 H   0  0  0  0  0  0  0  0  0  0  0  0
   -2.1598   22.6298  -29.8789 H   0  0  0  0  0  0  0  0  0  0  0  0
   -0.3226   21.3930  -31.0336 H   0  0  0  0  0  0  0  0  0  0  0  0
   -0.6744   20.4826  -33.3311 H   0  0  0  0  0  0  0  0  0  0  0  0
   -2.8669   20.8007  -34.4782 H   0  0  0  0  0  0  0  0  0  0  0  0
   -4.7092   22.0337  -33.3358 H   0  0  0  0  0  0  0  0  0  0  0  0
   -3.6752   21.8055  -27.8423 H   0  0  0  0  0  0  0  0  0  0  0  0
  1  2  1  0
  2  3  1  0
  3  4  2  0
  4  5  1  0
  5  6  2  0
  6  7  1  0
  7  8  1  0
  6  9  1  0
  9 10  1  0
 10 11  1  0
 11 12  2  0
 11 13  1  0
 13 14  1  0
 14 15  1  0
 15 16  2  0
 15 17  2  0
 15 18  1  0
 18 19  2  0
 19 20  1  0
 20 21  2  0
 21 22  1  0
 22 23  2  0
 13 24  1  0
 24 25  2  0
 25 26  1  0
 26 27  2  0
 27 28  1  0
 28 29  2  0
  9 30  2  0
 30  3  1  0
 23 18  1  0
 29 24  1  0
  1 31  1  0
  1 32  1  0
  1 33  1  0
  4 34  1  0
  5 35  1  0
  8 36  1  0
  8 37  1  0
  8 38  1  0
 13 39  1  1
 19 40  1  0
 20 41  1  0
 21 42  1  0
 22 43  1  0
 23 44  1  0
 25 45  1  0
 26 46  1  0
 27 47  1  0
 28 48  1  0
 29 49  1  0
 30 50  1  0
M  CHG  2  10  -1  14  -1
M  END
>  <UniqueID>  (42) 
36

>  <SMILES>  (42) 
COc1ccc(OC)c([N-]C(=O)[C@@H]([N-]S(=O)(=O)c2ccccc2)c2ccccc2)c1

>  <Energy>  (42) 
50.727021996560005

>  <Genealogy>  (42) 
COc1ccc(OC)c([N-]C(=O)C([N-]S(=O)(=O)c2ccccc2)c2ccccc2)c1 (protonated)
COc1ccc(OC)c([N-]C(=O)[C@@H]([N-]S(=O)(=O)c2ccccc2)c2ccccc2)c1 (chirality)
COc1ccc(OC)c([N-]C(=O)[C@@H]([N-]S(=O)(=O)c2ccccc2)c2ccccc2)c1 (3D coordinates assigned)
COc1ccc(OC)c([N-]C(=O)[C@@H]([N-]S(=O)(=O)c2ccccc2)c2ccccc2)c1 (optimized conformer: 50.727021996560005 kcal/mol)

>  <smiles>  (42) 
COc1ccc(OC)c(NC(=O)C(NS(=O)(=O)c2ccccc2)c2ccccc2)c1

>  <score_type>  (42) 
oracle

>  <origin>  (42) 
adgpu

>  <m_score__min__energy>  (42) 
-10.869999999999999

>  <m_primary>  (42) 
energy

$$$$
42:0
     RDKit          3D

 36 38  0  0  0  0  0  0  0  0999 V2000
   -7.9232   19.7863  -32.6429 H   0  0  0  0  0  0  0  0  0  0  0  0
   -7.5460   20.7730  -32.3360 C   0  0  0  0  0  0  0  0  0  0  0  0
   -8.4360   21.7540  -31.8910 C   0  0  0  0  0  0  0  0  0  0  0  0
   -9.5134   21.5374  -31.8442 H   0  0  0  0  0  0  0  0  0  0  0  0
   -7.9590   23.0110  -31.5050 C   0  0  0  0  0  0  0  0  0  0  0  0
   -8.6619   23.7776  -31.1469 H   0  0  0  0  0  0  0  0  0  0  0  0
   -6.5850   23.2980  -31.5730 C   0  0  0  0  0  0  0  0  0  0  0  0
   -6.0670   24.6330  -31.1230 C   0  0  0  0  0  0  0  0  0  0  0  0
   -6.6007   24.9468  -30.2137 H   0  0  0  0  0  0  0  0  0  0  0  0
   -6.2292   25.3778  -31.9161 H   0  0  0  0  0  0  0  0  0  0  0  0
   -4.6400   24.5250  -30.8380 N   0  0  0  0  0  0  0  0  0  0  0  0
   -4.1310   24.4630  -29.6440 C   0  0  0  0  0  0  0  0  0  0  0  0
   -2.4820   24.3340  -29.3460 S   0  0  0  0  0  0  0  0  0  0  0  0
   -2.6970   24.3230  -27.6730 C   0  0  0  0  0  0  0  0  0  0  0  0
   -1.6060   24.1480  -26.6650 C   0  0  0  0  0  0  0  0  0  0  0  0
   -0.7360   23.6797  -27.1486 H   0  0  0  0  0  0  0  0  0  0  0  0
   -1.9710   23.5080  -25.8482 H   0  0  0  0  0  0  0  0  0  0  0  0
   -1.2020   25.4830  -26.1000 C   0  0  0  0  0  0  0  0  0  0  0  0
   -1.2110   25.6880  -24.7090 C   0  0  0  0  0  0  0  0  0  0  0  0
   -1.4863   24.8626  -24.0361 H   0  0  0  0  0  0  0  0  0  0  0  0
   -0.8720   26.9350  -24.1770 C   0  0  0  0  0  0  0  0  0  0  0  0
   -0.8730   27.0857  -23.0874 H   0  0  0  0  0  0  0  0  0  0  0  0
   -0.5320   27.9900  -25.0260 C   0  0  0  0  0  0  0  0  0  0  0  0
   -0.2633   28.9700  -24.6049 H   0  0  0  0  0  0  0  0  0  0  0  0
   -0.5330   27.8010  -26.4110 C   0  0  0  0  0  0  0  0  0  0  0  0
   -0.2674   28.6339  -27.0787 H   0  0  0  0  0  0  0  0  0  0  0  0
   -0.8710   26.5550  -26.9500 C   0  0  0  0  0  0  0  0  0  0  0  0
   -0.8770   26.3970  -28.2990 F   0  0  0  0  0  0  0  0  0  0  0  0
   -4.0590   24.4020  -27.3960 C   0  0  0  0  0  0  0  0  0  0  0  0
   -4.4608   24.3953  -26.3720 H   0  0  0  0  0  0  0  0  0  0  0  0
   -4.8500   24.4880  -28.4970 N   0  0  0  0  0  0  0  0  0  0  0  0
   -5.8910   24.5550  -28.4410 H   0  0  0  0  0  0  0  0  0  0  0  0
   -5.6950   22.3010  -32.0060 C   0  0  0  0  0  0  0  0  0  0  0  0
   -4.6154   22.5086  -32.0423 H   0  0  0  0  0  0  0  0  0  0  0  0
   -6.1760   21.0460  -32.3910 C   0  0  0  0  0  0  0  0  0  0  0  0
   -5.4754   20.2721  -32.7377 H   0  0  0  0  0  0  0  0  0  0  0  0
  1  2  1  0
  2  3  2  0
  3  4  1  0
  3  5  1  0
  5  6  1  0
  5  7  2  0
  7  8  1  0
  8  9  1  0
  8 10  1  0
  8 11  1  0
 11 12  2  0
 12 13  1  0
 13 14  1  0
 14 15  1  0
 15 16  1  0
 15 17  1  0
 15 18  1  0
 18 19  2  0
 19 20  1  0
 19 21  1  0
 21 22  1  0
 21 23  2  0
 23 24  1  0
 23 25  1  0
 25 26  1  0
 25 27  2  0
 27 28  1  0
 14 29  2  0
 29 30  1  0
 29 31  1  0
 31 32  1  0
  7 33  1  0
 33 34  1  0
 33 35  2  0
 35 36  1  0
 35  2  1  0
 31 12  1  0
 27 18  1  0
M  END
>  <UniqueID>  (43) 
37

>  <SMILES>  (43) 
Fc1ccccc1Cc1c[nH]/c(=N\Cc2ccccc2)s1

>  <Energy>  (43) 
65.79149654750995

>  <Genealogy>  (43) 
Fc1ccccc1Cc1c[nH]/c(=N\Cc2ccccc2)s1 (cis-trans isomerization)
Fc1ccccc1Cc1c[nH]/c(=N\Cc2ccccc2)s1 (3D coordinates assigned)
Fc1ccccc1Cc1c[nH]/c(=N\Cc2ccccc2)s1 (optimized conformer: 65.79149654750995 kcal/mol)

>  <smiles>  (43) 
Fc1ccccc1Cc1c[nH]c(=NCc2ccccc2)s1

>  <score_type>  (43) 
oracle

>  <origin>  (43) 
adgpu

>  <m_score__min__energy>  (43) 
-8.3499999999999996

>  <m_primary>  (43) 
energy

$$$$
43:0
     RDKit          3D

 18 18  0  0  0  0  0  0  0  0999 V2000
   -5.9300   25.3110  -29.9600 C   0  0  0  0  0  0  0  0  0  0  0  0
   -6.7990   24.1720  -30.4780 C   0  0  0  0  0  0  0  0  0  0  0  0
   -6.0670   23.4110  -31.9700 S   0  0  0  0  0  0  0  0  0  0  0  0
   -7.2450   22.0630  -32.0610 C   0  0  0  0  0  0  0  0  0  0  0  0
   -6.8080   20.7590  -32.3170 C   0  0  0  0  0  0  0  0  0  0  0  0
   -7.7470   19.7260  -32.3910 C   0  0  0  0  0  0  0  0  0  0  0  0
   -7.2240   18.0810  -32.7040 Cl  0  0  0  0  0  0  0  0  0  0  0  0
   -9.1040   20.0090  -32.2150 C   0  0  0  0  0  0  0  0  0  0  0  0
   -9.5020   21.3260  -31.9700 C   0  0  0  0  0  0  0  0  0  0  0  0
   -8.5730   22.3160  -31.9010 N   0  0  0  0  0  0  0  0  0  0  0  0
   -5.9347   25.3048  -28.8600 H   0  0  0  0  0  0  0  0  0  0  0  0
   -4.8998   25.1805  -30.3230 H   0  0  0  0  0  0  0  0  0  0  0  0
   -6.3279   26.2701  -30.3230 H   0  0  0  0  0  0  0  0  0  0  0  0
   -6.8929   23.4065  -29.6936 H   0  0  0  0  0  0  0  0  0  0  0  0
   -7.7864   24.5785  -30.7421 H   0  0  0  0  0  0  0  0  0  0  0  0
   -5.7376   20.5488  -32.4585 H   0  0  0  0  0  0  0  0  0  0  0  0
   -9.8512   19.2035  -32.2687 H   0  0  0  0  0  0  0  0  0  0  0  0
  -10.5677   21.5617  -31.8329 H   0  0  0  0  0  0  0  0  0  0  0  0
  1  2  1  0
  2  3  1  0
  3  4  1  0
  4  5  2  0
  5  6  1  0
  6  7  1  0
  6  8  2  0
  8  9  1  0
  9 10  2  0
 10  4  1  0
  1 11  1  0
  1 12  1  0
  1 13  1  0
  2 14  1  0
  2 15  1  0
  5 16  1  0
  8 17  1  0
  9 18  1  0
M  END
>  <UniqueID>  (44) 
38

>  <SMILES>  (44) 
CCSc1cc(Cl)ccn1

>  <Energy>  (44) 
10.721659751838859

>  <Genealogy>  (44) 
CCSc1cc(Cl)ccn1 (3D coordinates assigned)
CCSc1cc(Cl)ccn1 (optimized conformer: 10.721659751838859 kcal/mol)

>  <smiles>  (44) 
CCSc1cc(Cl)ccn1

>  <score_type>  (44) 
oracle

>  <origin>  (44) 
adgpu

>  <m_score__min__energy>  (44) 
-4.9100000000000001

>  <m_primary>  (44) 
energy

$$$$
44:0
     RDKit          3D

 42 44  0  0  0  0  0  0  0  0999 V2000
   -0.9680   26.3720  -28.2060 C   0  0  0  0  0  0  0  0  0  0  0  0
   -1.7990   25.5090  -28.9750 O   0  0  0  0  0  0  0  0  0  0  0  0
   -1.9870   24.1410  -28.7160 C   0  0  0  0  0  0  0  0  0  0  0  0
   -0.9000   23.2460  -28.6470 C   0  0  0  0  0  0  0  0  0  0  0  0
   -1.1150   21.8900  -28.3980 C   0  0  0  0  0  0  0  0  0  0  0  0
   -2.4100   21.4110  -28.2070 C   0  0  0  0  0  0  0  0  0  0  0  0
   -2.6130   20.0940  -27.9570 F   0  0  0  0  0  0  0  0  0  0  0  0
   -3.4950   22.2860  -28.2670 C   0  0  0  0  0  0  0  0  0  0  0  0
   -3.2990   23.6550  -28.5300 C   0  0  0  0  0  0  0  0  0  0  0  0
   -4.4140   24.5660  -28.6000 N   0  0  0  0  0  0  0  0  0  0  0  0
   -5.2230   24.9730  -30.0810 S   0  0  0  0  0  0  0  0  0  0  0  0
   -6.3670   25.9000  -29.7780 O   0  0  0  0  0  0  0  0  0  0  0  0
   -4.2590   25.6680  -31.0000 O   0  0  0  0  0  0  0  0  0  0  0  0
   -5.7980   23.5080  -30.8710 C   0  0  0  0  0  0  0  0  0  0  0  0
   -4.8740   22.6420  -31.4930 C   0  0  0  0  0  0  0  0  0  0  0  0
   -5.3100   21.4570  -32.1040 C   0  0  0  0  0  0  0  0  0  0  0  0
   -6.6800   21.1630  -32.0950 C   0  0  0  0  0  0  0  0  0  0  0  0
   -7.5740   21.9990  -31.4800 C   0  0  0  0  0  0  0  0  0  0  0  0
   -7.1640   23.1810  -30.8630 C   0  0  0  0  0  0  0  0  0  0  0  0
   -8.9530   21.4480  -31.5540 C   0  0  0  0  0  0  0  0  0  0  0  0
   -8.7630   20.1090  -32.3050 C   0  0  0  0  0  0  0  0  0  0  0  0
   -7.3360   20.0160  -32.6260 N   0  0  0  0  0  0  0  0  0  0  0  0
   -6.7600   18.9700  -33.4330 C   0  0  0  0  0  0  0  0  0  0  0  0
   -6.9510   17.5310  -33.0640 C   0  0  0  0  0  0  0  0  0  0  0  0
   -6.1250   19.2490  -34.4850 O   0  0  0  0  0  0  0  0  0  0  0  0
   -1.1425   26.1907  -27.1352 H   0  0  0  0  0  0  0  0  0  0  0  0
    0.0873   26.1731  -28.4443 H   0  0  0  0  0  0  0  0  0  0  0  0
   -1.2066   27.4190  -28.4443 H   0  0  0  0  0  0  0  0  0  0  0  0
    0.1248   23.6192  -28.7904 H   0  0  0  0  0  0  0  0  0  0  0  0
   -0.2612   21.1979  -28.3524 H   0  0  0  0  0  0  0  0  0  0  0  0
   -4.5135   21.9024  -28.1072 H   0  0  0  0  0  0  0  0  0  0  0  0
   -4.6970   25.1030  -27.7510 H   0  0  0  0  0  0  0  0  0  0  0  0
   -3.8042   22.8979  -31.4988 H   0  0  0  0  0  0  0  0  0  0  0  0
   -4.5918   20.7732  -32.5800 H   0  0  0  0  0  0  0  0  0  0  0  0
   -7.8964   23.8442  -30.3795 H   0  0  0  0  0  0  0  0  0  0  0  0
   -9.3646   21.2802  -30.5478 H   0  0  0  0  0  0  0  0  0  0  0  0
   -9.6602   22.1253  -32.0551 H   0  0  0  0  0  0  0  0  0  0  0  0
   -9.0650   19.2671  -31.6647 H   0  0  0  0  0  0  0  0  0  0  0  0
   -9.3806   20.0696  -33.2144 H   0  0  0  0  0  0  0  0  0  0  0  0
   -6.9641   17.4320  -31.9685 H   0  0  0  0  0  0  0  0  0  0  0  0
   -7.9049   17.1703  -33.4762 H   0  0  0  0  0  0  0  0  0  0  0  0
   -6.1242   16.9339  -33.4762 H   0  0  0  0  0  0  0  0  0  0  0  0
  1  2  1  0
  2  3  1  0
  3  4  2  0
  4  5  1  0
  5  6  2  0
  6  7  1  0
  6  8  1  0
  8  9  2  0
  9 10  1  0
 10 11  1  0
 11 12  2  0
 11 13  2  0
 11 14  1  0
 14 15  2  0
 15 16  1  0
 16 17  2  0
 17 18  1  0
 18 19  2  0
 18 20  1  0
 20 21  1  0
 21 22  1  0
 22 23  1  0
 23 24  1  0
 23 25  2  0
  9  3  1  0
 19 14  1  0
 22 17  1  0
  1 26  1  0
  1 27  1  0
  1 28  1  0
  4 29  1  0
  5 30  1  0
  8 31  1  0
 10 32  1  0
 15 33  1  0
 16 34  1  0
 19 35  1  0
 20 36  1  0
 20 37  1  0
 21 38  1  0
 21 39  1  0
 24 40  1  0
 24 41  1  0
 24 42  1  0
M  END
>  <UniqueID>  (45) 
39

>  <SMILES>  (45) 
COc1ccc(F)cc1NS(=O)(=O)c1ccc2c(c1)CCN2C(C)=O

>  <Energy>  (45) 
61.22046579695516

>  <Genealogy>  (45) 
COc1ccc(F)cc1NS(=O)(=O)c1ccc2c(c1)CCN2C(C)=O (3D coordinates assigned)
COc1ccc(F)cc1NS(=O)(=O)c1ccc2c(c1)CCN2C(C)=O (nonaromatic ring conformer: 61.22046579695516 kcal/mol)

>  <smiles>  (45) 
COc1ccc(F)cc1NS(=O)(=O)c1ccc2c(c1)CCN2C(C)=O

>  <score_type>  (45) 
oracle

>  <origin>  (45) 
adgpu

>  <m_score__min__energy>  (45) 
-9.9499999999999993

>  <m_primary>  (45) 
energy

$$$$
45:0
     RDKit          3D

 34 34  0  0  0  0  0  0  0  0999 V2000
   -6.6080   25.6740  -29.3720 C   0  0  0  0  0  0  0  0  0  0  0  0
   -7.0140   24.5690  -30.3430 C   0  0  0  0  0  0  0  0  0  0  0  0
   -5.8350   23.8260  -30.8020 N   0  0  0  0  0  0  0  0  0  0  0  0
   -4.5610   24.3940  -30.6190 C   0  0  0  0  0  0  0  0  0  0  0  0
   -3.5130   24.8600  -30.4680 N   0  0  0  0  0  0  0  0  0  0  0  0
   -5.9610   22.5590  -31.4750 C   0  0  0  0  0  0  0  0  0  0  0  0
   -7.1550   21.9120  -31.5030 N   0  0  0  0  0  0  0  0  0  0  0  0
   -7.2820   20.7150  -32.1350 C   0  0  0  0  0  0  0  0  0  0  0  0
   -8.5500   20.0350  -32.1550 N   0  0  0  0  0  0  0  0  0  0  0  0
   -8.5940   18.5750  -32.0240 C   0  0  0  0  0  0  0  0  0  0  0  0
   -9.7870   20.8070  -32.3040 C   0  0  0  0  0  0  0  0  0  0  0  0
   -6.1980   20.1680  -32.7450 N   0  0  0  0  0  0  0  0  0  0  0  0
   -4.9970   20.8040  -32.7280 C   0  0  0  0  0  0  0  0  0  0  0  0
   -3.8530   20.2170  -33.3790 N   0  0  0  0  0  0  0  0  0  0  0  0
   -3.9580   18.8780  -33.9640 C   0  0  0  0  0  0  0  0  0  0  0  0
   -2.5940   20.9640  -33.4480 C   0  0  0  0  0  0  0  0  0  0  0  0
   -4.8860   21.9990  -32.0900 N   0  0  0  0  0  0  0  0  0  0  0  0
   -6.7380   25.3201  -28.3386 H   0  0  0  0  0  0  0  0  0  0  0  0
   -5.5536   25.9395  -29.5387 H   0  0  0  0  0  0  0  0  0  0  0  0
   -7.2397   26.5590  -29.5387 H   0  0  0  0  0  0  0  0  0  0  0  0
   -7.7025   23.8771  -29.8358 H   0  0  0  0  0  0  0  0  0  0  0  0
   -7.5066   25.0257  -31.2141 H   0  0  0  0  0  0  0  0  0  0  0  0
   -8.6022   18.3026  -30.9583 H   0  0  0  0  0  0  0  0  0  0  0  0
   -9.5041   18.1907  -32.5077 H   0  0  0  0  0  0  0  0  0  0  0  0
   -7.7087   18.1366  -32.5077 H   0  0  0  0  0  0  0  0  0  0  0  0
  -10.1859   21.0559  -31.3096 H   0  0  0  0  0  0  0  0  0  0  0  0
   -9.5762   21.7342  -32.8571 H   0  0  0  0  0  0  0  0  0  0  0  0
  -10.5272   20.2103  -32.8571 H   0  0  0  0  0  0  0  0  0  0  0  0
   -4.0167   18.1300  -33.1596 H   0  0  0  0  0  0  0  0  0  0  0  0
   -4.8635   18.8195  -34.5858 H   0  0  0  0  0  0  0  0  0  0  0  0
   -3.0727   18.6791  -34.5858 H   0  0  0  0  0  0  0  0  0  0  0  0
   -2.2370   21.1758  -32.4293 H   0  0  0  0  0  0  0  0  0  0  0  0
   -1.8417   20.3660  -33.9832 H   0  0  0  0  0  0  0  0  0  0  0  0
   -2.7583   21.9109  -33.9832 H   0  0  0  0  0  0  0  0  0  0  0  0
  1  2  1  0
  2  3  1  0
  3  4  1  0
  4  5  3  0
  3  6  1  0
  6  7  2  0
  7  8  1  0
  8  9  1  0
  9 10  1  0
  9 11  1  0
  8 12  2  0
 12 13  1  0
 13 14  1  0
 14 15  1  0
 14 16  1  0
 13 17  2  0
 17  6  1  0
  1 18  1  0
  1 19  1  0
  1 20  1  0
  2 21  1  0
  2 22  1  0
 10 23  1  0
 10 24  1  0
 10 25  1  0
 11 26  1  0
 11 27  1  0
 11 28  1  0
 15 29  1  0
 15 30  1  0
 15 31  1  0
 16 32  1  0
 16 33  1  0
 16 34  1  0
M  END
>  <UniqueID>  (46) 
40

>  <SMILES>  (46) 
CCN(C#N)c1nc(N(C)C)nc(N(C)C)n1

>  <Energy>  (46) 
21.299162317371003

>  <Genealogy>  (46) 
CCN(C#N)c1nc(N(C)C)nc(N(C)C)n1 (3D coordinates assigned)
CCN(C#N)c1nc(N(C)C)nc(N(C)C)n1 (optimized conformer: 21.299162317371003 kcal/mol)

>  <smiles>  (46) 
CCN(C#N)c1nc(N(C)C)nc(N(C)C)n1

>  <score_type>  (46) 
oracle

>  <origin>  (46) 
adgpu

>  <m_score__min__energy>  (46) 
-5.4000000000000004

>  <m_primary>  (46) 
energy

$$$$
46:0
     RDKit          3D

 32 34  0  0  0  0  0  0  0  0999 V2000
   -7.2330   25.3160  -29.7100 C   0  0  0  0  0  0  0  0  0  0  0  0
   -5.9660   24.8130  -30.3270 C   0  0  0  0  0  0  0  0  0  0  0  0
   -4.7810   25.4360  -30.2280 N   0  0  0  0  0  0  0  0  0  0  0  0
   -3.8750   24.6900  -30.8390 N   0  0  0  0  0  0  0  0  0  0  0  0
   -4.4310   23.5970  -31.3420 N   0  0  0  0  0  0  0  0  0  0  0  0
   -5.7470   23.6510  -31.0520 C   0  0  0  0  0  0  0  0  0  0  0  0
   -6.7000   22.5870  -31.4300 C   0  0  0  0  0  0  0  0  0  0  0  0
   -6.2890   21.4120  -32.0740 C   0  0  0  0  0  0  0  0  0  0  0  0
   -7.2500   20.4400  -32.3970 C   0  0  0  0  0  0  0  0  0  0  0  0
   -6.8870   19.2160  -33.0740 N   0  0  0  0  0  0  0  0  0  0  0  0
   -6.1190   19.2840  -34.3250 C   0  0  0  0  0  0  0  0  0  0  0  0
   -5.3010   18.0040  -34.5160 C   0  0  0  0  0  0  0  0  0  0  0  0
   -6.1210   16.8600  -34.3830 O   0  0  0  0  0  0  0  0  0  0  0  0
   -6.5950   16.7700  -33.0540 C   0  0  0  0  0  0  0  0  0  0  0  0
   -7.5270   17.9400  -32.7260 C   0  0  0  0  0  0  0  0  0  0  0  0
   -8.5480   20.6560  -32.0480 N   0  0  0  0  0  0  0  0  0  0  0  0
   -8.9290   21.7880  -31.4050 C   0  0  0  0  0  0  0  0  0  0  0  0
   -8.0100   22.7380  -31.0980 N   0  0  0  0  0  0  0  0  0  0  0  0
   -7.1460   25.2815  -28.6140 H   0  0  0  0  0  0  0  0  0  0  0  0
   -7.4108   26.3529  -30.0312 H   0  0  0  0  0  0  0  0  0  0  0  0
   -8.0736   24.6834  -30.0312 H   0  0  0  0  0  0  0  0  0  0  0  0
   -4.5790   26.3380  -29.7440 H   0  0  0  0  0  0  0  0  0  0  0  0
   -5.2293   21.2534  -32.3228 H   0  0  0  0  0  0  0  0  0  0  0  0
   -6.8125   19.4011  -35.1708 H   0  0  0  0  0  0  0  0  0  0  0  0
   -5.4337   20.1432  -34.2781 H   0  0  0  0  0  0  0  0  0  0  0  0
   -4.8505   18.0102  -35.5195 H   0  0  0  0  0  0  0  0  0  0  0  0
   -4.5173   17.9678  -33.7449 H   0  0  0  0  0  0  0  0  0  0  0  0
   -7.1455   15.8256  -32.9311 H   0  0  0  0  0  0  0  0  0  0  0  0
   -5.7338   16.8043  -32.3705 H   0  0  0  0  0  0  0  0  0  0  0  0
   -8.4591   17.8332  -33.3003 H   0  0  0  0  0  0  0  0  0  0  0  0
   -7.7451   17.9319  -31.6479 H   0  0  0  0  0  0  0  0  0  0  0  0
   -9.9843   21.9360  -31.1321 H   0  0  0  0  0  0  0  0  0  0  0  0
  1  2  1  0
  2  3  1  0
  3  4  1  0
  4  5  2  0
  5  6  1  0
  6  7  1  0
  7  8  2  0
  8  9  1  0
  9 10  1  0
 10 11  1  0
 11 12  1  0
 12 13  1  0
 13 14  1  0
 14 15  1  0
  9 16  2  0
 16 17  1  0
 17 18  2  0
  6  2  2  0
 18  7  1  0
 15 10  1  0
  1 19  1  0
  1 20  1  0
  1 21  1  0
  3 22  1  0
  8 23  1  0
 11 24  1  0
 11 25  1  0
 12 26  1  0
 12 27  1  0
 14 28  1  0
 14 29  1  0
 15 30  1  0
 15 31  1  0
 17 32  1  0
M  END
>  <UniqueID>  (47) 
41

>  <SMILES>  (47) 
Cc1[nH]nnc1-c1cc(N2CCOCC2)ncn1

>  <Energy>  (47) 
75.45360400361044

>  <Genealogy>  (47) 
Cc1[nH]nnc1-c1cc(N2CCOCC2)ncn1 (3D coordinates assigned)
Cc1[nH]nnc1-c1cc(N2CCOCC2)ncn1 (nonaromatic ring conformer: 75.45360400361044 kcal/mol)

>  <smiles>  (47) 
Cc1[nH]nnc1-c1cc(N2CCOCC2)ncn1

>  <score_type>  (47) 
oracle

>  <origin>  (47) 
adgpu

>  <m_score__min__energy>  (47) 
-7.8300000000000001

>  <m_primary>  (47) 
energy

$$$$
47:0
     RDKit          3D

 31 32  0  0  0  0  0  0  0  0999 V2000
   -8.4210   20.2800  -32.0250 C   0  0  0  0  0  0  0  0  0  0  0  0
   -8.8300   21.6690  -31.6670 C   0  0  0  0  0  0  0  0  0  0  0  0
   -9.7410   22.2370  -32.3260 O   0  0  0  0  0  0  0  0  0  0  0  0
   -8.2580   22.2950  -30.5120 N   0  0  0  0  0  0  0  0  0  0  0  0
   -7.0520   23.0710  -30.4690 C   0  0  0  0  0  0  0  0  0  0  0  0
   -7.0480   24.4240  -30.0870 C   0  0  0  0  0  0  0  0  0  0  0  0
   -5.8550   25.1490  -30.0810 C   0  0  0  0  0  0  0  0  0  0  0  0
   -4.6560   24.5410  -30.4650 C   0  0  0  0  0  0  0  0  0  0  0  0
   -3.4890   25.2980  -30.4780 O   0  0  0  0  0  0  0  0  0  0  0  0
   -4.6450   23.1890  -30.8600 C   0  0  0  0  0  0  0  0  0  0  0  0
   -3.3880   22.5180  -31.2700 C   0  0  0  0  0  0  0  0  0  0  0  0
   -3.3050   21.8610  -32.5100 C   0  0  0  0  0  0  0  0  0  0  0  0
   -2.1250   21.2200  -32.8960 C   0  0  0  0  0  0  0  0  0  0  0  0
   -1.0140   21.2080  -32.0400 C   0  0  0  0  0  0  0  0  0  0  0  0
    0.2650   20.5530  -32.4720 C   0  0  0  0  0  0  0  0  0  0  0  0
   -1.0880   21.8700  -30.8060 C   0  0  0  0  0  0  0  0  0  0  0  0
   -2.2680   22.5130  -30.4200 C   0  0  0  0  0  0  0  0  0  0  0  0
   -5.8530   22.4700  -30.8730 C   0  0  0  0  0  0  0  0  0  0  0  0
   -8.2501   19.6998  -31.1062 H   0  0  0  0  0  0  0  0  0  0  0  0
   -9.2172   19.8042  -32.6164 H   0  0  0  0  0  0  0  0  0  0  0  0
   -7.4940   20.3116  -32.6164 H   0  0  0  0  0  0  0  0  0  0  0  0
   -7.9881   24.9130  -29.7918 H   0  0  0  0  0  0  0  0  0  0  0  0
   -5.8583   26.2048  -29.7723 H   0  0  0  0  0  0  0  0  0  0  0  0
   -4.1760   21.8515  -33.1818 H   0  0  0  0  0  0  0  0  0  0  0  0
   -2.0671   20.7226  -33.8754 H   0  0  0  0  0  0  0  0  0  0  0  0
    0.8433   20.2568  -31.5844 H   0  0  0  0  0  0  0  0  0  0  0  0
    0.0353   19.6616  -33.0742 H   0  0  0  0  0  0  0  0  0  0  0  0
    0.8541   21.2604  -33.0742 H   0  0  0  0  0  0  0  0  0  0  0  0
   -0.2137   21.8835  -30.1386 H   0  0  0  0  0  0  0  0  0  0  0  0
   -2.3205   23.0185  -29.4445 H   0  0  0  0  0  0  0  0  0  0  0  0
   -5.8567   21.4213  -31.2049 H   0  0  0  0  0  0  0  0  0  0  0  0
  1  2  1  0
  2  3  2  0
  2  4  1  0
  4  5  1  0
  5  6  2  0
  6  7  1  0
  7  8  2  0
  8  9  1  0
  8 10  1  0
 10 11  1  0
 11 12  2  0
 12 13  1  0
 13 14  2  0
 14 15  1  0
 14 16  1  0
 16 17  2  0
 10 18  2  0
 18  5  1  0
 17 11  1  0
  1 19  1  0
  1 20  1  0
  1 21  1  0
  6 22  1  0
  7 23  1  0
 12 24  1  0
 13 25  1  0
 15 26  1  0
 15 27  1  0
 15 28  1  0
 16 29  1  0
 17 30  1  0
 18 31  1  0
M  CHG  2   4  -1   9  -1
M  END
>  <UniqueID>  (48) 
42

>  <SMILES>  (48) 
CC(=O)[N-]c1ccc([O-])c(-c2ccc(C)cc2)c1

>  <Energy>  (48) 
38.97068116337137

>  <Genealogy>  (48) 
CC(=O)[N-]c1ccc([O-])c(-c2ccc(C)cc2)c1 (protonated)
CC(=O)[N-]c1ccc([O-])c(-c2ccc(C)cc2)c1 (3D coordinates assigned)
CC(=O)[N-]c1ccc([O-])c(-c2ccc(C)cc2)c1 (optimized conformer: 38.97068116337137 kcal/mol)

>  <smiles>  (48) 
CC(=O)Nc1ccc(O)c(-c2ccc(C)cc2)c1

>  <score_type>  (48) 
oracle

>  <origin>  (48) 
adgpu

>  <m_score__min__energy>  (48) 
-9.5700000000000003

>  <m_primary>  (48) 
energy

$$$$
48:0
     RDKit          3D

 33 34  0  0  0  0  0  0  0  0999 V2000
   -6.7140   16.6520  -33.5180 C   0  0  0  0  0  0  0  0  0  0  0  0
   -7.1420   18.0220  -33.0850 C   0  0  0  0  0  0  0  0  0  0  0  0
   -8.1900   18.1830  -32.1650 C   0  0  0  0  0  0  0  0  0  0  0  0
   -8.5610   19.4600  -31.7350 C   0  0  0  0  0  0  0  0  0  0  0  0
   -7.8790   20.5890  -32.2090 C   0  0  0  0  0  0  0  0  0  0  0  0
   -8.3260   22.2000  -31.6570 S   0  0  0  0  0  0  0  0  0  0  0  0
   -9.5790   22.6270  -32.3660 O   0  0  0  0  0  0  0  0  0  0  0  0
   -8.5730   22.2080  -30.1740 O   0  0  0  0  0  0  0  0  0  0  0  0
   -7.0570   23.3240  -32.0260 N   0  0  0  0  0  0  0  0  0  0  0  0
   -5.8450   23.4760  -31.2750 C   0  0  0  0  0  0  0  0  0  0  0  0
   -5.5670   24.7200  -30.6960 C   0  0  0  0  0  0  0  0  0  0  0  0
   -4.3900   24.9170  -29.9690 C   0  0  0  0  0  0  0  0  0  0  0  0
   -3.4760   23.8670  -29.8080 C   0  0  0  0  0  0  0  0  0  0  0  0
   -1.9800   24.1260  -28.9160 S   0  0  0  0  0  0  0  0  0  0  0  0
   -1.3170   25.6650  -29.3370 N   0  0  0  0  0  0  0  0  0  0  0  0
   -0.9900   23.0460  -29.2510 O   0  0  0  0  0  0  0  0  0  0  0  0
   -2.2560   24.0850  -27.4390 O   0  0  0  0  0  0  0  0  0  0  0  0
   -3.7480   22.6200  -30.3870 C   0  0  0  0  0  0  0  0  0  0  0  0
   -4.9260   22.4210  -31.1130 C   0  0  0  0  0  0  0  0  0  0  0  0
   -6.8260   20.4310  -33.1190 C   0  0  0  0  0  0  0  0  0  0  0  0
   -6.4540   19.1540  -33.5500 C   0  0  0  0  0  0  0  0  0  0  0  0
   -6.5200   16.0310  -32.6310 H   0  0  0  0  0  0  0  0  0  0  0  0
   -7.5113   16.1921  -34.1204 H   0  0  0  0  0  0  0  0  0  0  0  0
   -5.7967   16.7277  -34.1204 H   0  0  0  0  0  0  0  0  0  0  0  0
   -8.7217   17.3000  -31.7808 H   0  0  0  0  0  0  0  0  0  0  0  0
   -9.3906   19.5793  -31.0226 H   0  0  0  0  0  0  0  0  0  0  0  0
   -6.2806   25.5487  -30.8143 H   0  0  0  0  0  0  0  0  0  0  0  0
   -4.1802   25.8997  -29.5215 H   0  0  0  0  0  0  0  0  0  0  0  0
   -1.9710   26.3910  -28.9670 H   0  0  0  0  0  0  0  0  0  0  0  0
   -3.0312   21.7939  -30.2696 H   0  0  0  0  0  0  0  0  0  0  0  0
   -5.1358   21.4376  -31.5590 H   0  0  0  0  0  0  0  0  0  0  0  0
   -6.2899   21.3145  -33.4958 H   0  0  0  0  0  0  0  0  0  0  0  0
   -5.6190   19.0358  -34.2562 H   0  0  0  0  0  0  0  0  0  0  0  0
  1  2  1  0
  2  3  2  0
  3  4  1  0
  4  5  2  0
  5  6  1  0
  6  7  2  0
  6  8  2  0
  6  9  1  0
  9 10  1  0
 10 11  2  0
 11 12  1  0
 12 13  2  0
 13 14  1  0
 14 15  1  0
 14 16  2  0
 14 17  2  0
 13 18  1  0
 18 19  2  0
  5 20  1  0
 20 21  2  0
 21  2  1  0
 19 10  1  0
  1 22  1  0
  1 23  1  0
  1 24  1  0
  3 25  1  0
  4 26  1  0
 11 27  1  0
 12 28  1  0
 15 29  1  0
 18 30  1  0
 19 31  1  0
 20 32  1  0
 21 33  1  0
M  CHG  2   9  -1  15  -1
M  END
>  <UniqueID>  (49) 
43

>  <SMILES>  (49) 
Cc1ccc(S(=O)(=O)[N-]c2ccc(S([NH-])(=O)=O)cc2)cc1

>  <Energy>  (49) 
35.37481703228091

>  <Genealogy>  (49) 
Cc1ccc(S(=O)(=O)[N-]c2ccc(S([NH-])(=O)=O)cc2)cc1 (protonated)
Cc1ccc(S(=O)(=O)[N-]c2ccc(S([NH-])(=O)=O)cc2)cc1 (3D coordinates assigned)
Cc1ccc(S(=O)(=O)[N-]c2ccc(S([NH-])(=O)=O)cc2)cc1 (optimized conformer: 35.37481703228091 kcal/mol)

>  <smiles>  (49) 
Cc1ccc(S(=O)(=O)Nc2ccc(S(N)(=O)=O)cc2)cc1

>  <score_type>  (49) 
oracle

>  <origin>  (49) 
adgpu

>  <m_score__min__energy>  (49) 
-10.619999999999999

>  <m_primary>  (49) 
energy

$$$$
49:0
     RDKit          3D

 31 32  0  0  0  0  0  0  0  0999 V2000
   -9.1690   21.5410  -31.1150 C   0  0  0  0  0  0  0  0  0  0  0  0
   -8.1620   21.9920  -32.0150 O   0  0  0  0  0  0  0  0  0  0  0  0
   -7.0240   22.7150  -31.6300 C   0  0  0  0  0  0  0  0  0  0  0  0
   -7.2000   23.8880  -30.8860 C   0  0  0  0  0  0  0  0  0  0  0  0
   -6.0970   24.6450  -30.4810 C   0  0  0  0  0  0  0  0  0  0  0  0
   -4.7960   24.2470  -30.8290 C   0  0  0  0  0  0  0  0  0  0  0  0
   -3.6420   24.9910  -30.4040 N   0  0  0  0  0  0  0  0  0  0  0  0
   -2.7400   24.5610  -29.3700 C   0  0  0  0  0  0  0  0  0  0  0  0
   -2.8970   23.4460  -28.8060 O   0  0  0  0  0  0  0  0  0  0  0  0
   -1.6270   25.3750  -28.9800 N   0  0  0  0  0  0  0  0  0  0  0  0
   -1.3680   25.8660  -27.6580 C   0  0  0  0  0  0  0  0  0  0  0  0
   -0.4620   26.9180  -27.4290 C   0  0  0  0  0  0  0  0  0  0  0  0
   -0.2570   27.3990  -26.1310 C   0  0  0  0  0  0  0  0  0  0  0  0
   -0.9640   26.8460  -25.0600 C   0  0  0  0  0  0  0  0  0  0  0  0
   -1.8850   25.8180  -25.2860 C   0  0  0  0  0  0  0  0  0  0  0  0
   -2.0930   25.3370  -26.5820 C   0  0  0  0  0  0  0  0  0  0  0  0
   -4.6160   23.0590  -31.5520 C   0  0  0  0  0  0  0  0  0  0  0  0
   -5.7190   22.3020  -31.9590 C   0  0  0  0  0  0  0  0  0  0  0  0
   -8.8301   21.6928  -30.0796 H   0  0  0  0  0  0  0  0  0  0  0  0
  -10.0946   22.1106  -31.2851 H   0  0  0  0  0  0  0  0  0  0  0  0
   -9.3603   20.4712  -31.2851 H   0  0  0  0  0  0  0  0  0  0  0  0
   -8.2150   24.2166  -30.6179 H   0  0  0  0  0  0  0  0  0  0  0  0
   -6.2489   25.5578  -29.8862 H   0  0  0  0  0  0  0  0  0  0  0  0
   -3.4980   25.9330  -30.8320 H   0  0  0  0  0  0  0  0  0  0  0  0
    0.0864   27.3633  -28.2722 H   0  0  0  0  0  0  0  0  0  0  0  0
    0.4612   28.2130  -25.9536 H   0  0  0  0  0  0  0  0  0  0  0  0
   -0.7961   27.2193  -24.0390 H   0  0  0  0  0  0  0  0  0  0  0  0
   -2.4461   25.3877  -24.4434 H   0  0  0  0  0  0  0  0  0  0  0  0
   -2.8296   24.5392  -26.7579 H   0  0  0  0  0  0  0  0  0  0  0  0
   -3.5995   22.7201  -31.8008 H   0  0  0  0  0  0  0  0  0  0  0  0
   -5.5663   21.3798  -32.5388 H   0  0  0  0  0  0  0  0  0  0  0  0
  1  2  1  0
  2  3  1  0
  3  4  2  0
  4  5  1  0
  5  6  2  0
  6  7  1  0
  7  8  1  0
  8  9  2  0
  8 10  1  0
 10 11  1  0
 11 12  2  0
 12 13  1  0
 13 14  2  0
 14 15  1  0
 15 16  2  0
  6 17  1  0
 17 18  2  0
 18  3  1  0
 16 11  1  0
  1 19  1  0
  1 20  1  0
  1 21  1  0
  4 22  1  0
  5 23  1  0
  7 24  1  0
 12 25  1  0
 13 26  1  0
 14 27  1  0
 15 28  1  0
 16 29  1  0
 17 30  1  0
 18 31  1  0
M  CHG  1  10  -1
M  END
>  <UniqueID>  (50) 
44

>  <SMILES>  (50) 
COc1ccc(NC(=O)[N-]c2ccccc2)cc1

>  <Energy>  (50) 
39.22176382205493

>  <Genealogy>  (50) 
COc1ccc(NC(=O)[N-]c2ccccc2)cc1 (protonated)
COc1ccc(NC(=O)[N-]c2ccccc2)cc1 (3D coordinates assigned)
COc1ccc(NC(=O)[N-]c2ccccc2)cc1 (optimized conformer: 39.22176382205493 kcal/mol)

>  <smiles>  (50) 
COc1ccc(NC(=O)Nc2ccccc2)cc1

>  <score_type>  (50) 
oracle

>  <origin>  (50) 
adgpu

>  <m_score__min__energy>  (50) 
-7.7199999999999998

>  <m_primary>  (50) 
energy

$$$$
