0:0
     RDKit          3D

 46 49  0  0  0  0  0  0  0  0999 V2000
    0.7820   19.5270  -32.1230 C   0  0  0  0  0  0  0  0  0  0  0  0
    0.2980   20.8460  -31.8970 O   0  0  0  0  0  0  0  0  0  0  0  0
   -1.0560   21.1740  -31.7290 C   0  0  0  0  0  0  0  0  0  0  0  0
   -1.8020   21.5190  -32.8640 C   0  0  0  0  0  0  0  0  0  0  0  0
   -3.1510   21.8610  -32.7490 C   0  0  0  0  0  0  0  0  0  0  0  0
   -3.7720   21.8670  -31.4910 C   0  0  0  0  0  0  0  0  0  0  0  0
   -5.1940   22.2590  -31.3700 C   0  0  0  0  0  0  0  0  0  0  0  0
   -5.5460   23.5940  -31.0570 C   0  0  0  0  0  0  0  0  0  0  0  0
   -4.5180   24.6730  -30.8150 C   0  0  0  0  0  0  0  0  0  0  0  0
   -3.8440   24.5110  -29.4760 C   0  0  0  0  0  0  0  0  0  0  0  0
   -4.6100   24.2960  -28.3170 C   0  0  0  0  0  0  0  0  0  0  0  0
   -3.9860   24.1630  -27.0740 C   0  0  0  0  0  0  0  0  0  0  0  0
   -2.5930   24.2340  -26.9780 C   0  0  0  0  0  0  0  0  0  0  0  0
   -1.8230   24.4340  -28.1270 C   0  0  0  0  0  0  0  0  0  0  0  0
   -2.4430   24.5640  -29.3730 C   0  0  0  0  0  0  0  0  0  0  0  0
   -6.8600   23.9360  -30.9920 N   0  0  0  0  0  0  0  0  0  0  0  0
   -7.8350   23.0550  -31.2090 N   0  0  0  0  0  0  0  0  0  0  0  0
   -7.5680   21.7590  -31.5080 C   0  0  0  0  0  0  0  0  0  0  0  0
   -8.6230   20.8660  -31.7250 C   0  0  0  0  0  0  0  0  0  0  0  0
   -8.3610   19.5190  -32.0180 C   0  0  0  0  0  0  0  0  0  0  0  0
   -9.4920   18.5720  -32.2900 C   0  0  0  0  0  0  0  0  0  0  0  0
   -7.0330   19.0820  -32.1190 C   0  0  0  0  0  0  0  0  0  0  0  0
   -5.9750   19.9700  -31.9020 C   0  0  0  0  0  0  0  0  0  0  0  0
   -6.2290   21.3230  -31.5970 C   0  0  0  0  0  0  0  0  0  0  0  0
   -3.0350   21.5120  -30.3540 C   0  0  0  0  0  0  0  0  0  0  0  0
   -1.6850   21.1700  -30.4690 C   0  0  0  0  0  0  0  0  0  0  0  0
    0.9634   19.0325  -31.1573 H   0  0  0  0  0  0  0  0  0  0  0  0
    0.0352   18.9551  -32.6932 H   0  0  0  0  0  0  0  0  0  0  0  0
    1.7215   19.5739  -32.6932 H   0  0  0  0  0  0  0  0  0  0  0  0
   -1.3211   21.5204  -33.8533 H   0  0  0  0  0  0  0  0  0  0  0  0
   -3.7282   22.1264  -33.6470 H   0  0  0  0  0  0  0  0  0  0  0  0
   -3.7555   24.6228  -31.6063 H   0  0  0  0  0  0  0  0  0  0  0  0
   -5.0326   25.6452  -30.8244 H   0  0  0  0  0  0  0  0  0  0  0  0
   -5.7058   24.2322  -28.3891 H   0  0  0  0  0  0  0  0  0  0  0  0
   -4.5915   24.0022  -26.1698 H   0  0  0  0  0  0  0  0  0  0  0  0
   -2.1032   24.1325  -25.9983 H   0  0  0  0  0  0  0  0  0  0  0  0
   -0.7270   24.4892  -28.0507 H   0  0  0  0  0  0  0  0  0  0  0  0
   -1.8323   24.7083  -30.2764 H   0  0  0  0  0  0  0  0  0  0  0  0
   -9.6623   21.2214  -31.6657 H   0  0  0  0  0  0  0  0  0  0  0  0
   -9.9127   18.2198  -31.3366 H   0  0  0  0  0  0  0  0  0  0  0  0
  -10.2730   19.0895  -32.8664 H   0  0  0  0  0  0  0  0  0  0  0  0
   -9.1198   17.7122  -32.8664 H   0  0  0  0  0  0  0  0  0  0  0  0
   -6.8215   18.0323  -32.3709 H   0  0  0  0  0  0  0  0  0  0  0  0
   -4.9375   19.6107  -31.9697 H   0  0  0  0  0  0  0  0  0  0  0  0
   -3.5206   21.5024  -29.3671 H   0  0  0  0  0  0  0  0  0  0  0  0
   -1.1111   20.8964  -29.5714 H   0  0  0  0  0  0  0  0  0  0  0  0
  1  2  1  0
  2  3  1  0
  3  4  2  0
  4  5  1  0
  5  6  2  0
  6  7  1  0
  7  8  1  0
  8  9  1  0
  9 10  1  0
 10 11  2  0
 11 12  1  0
 12 13  2  0
 13 14  1  0
 14 15  2  0
  8 16  2  0
 16 17  1  0
 17 18  2  0
 18 19  1  0
 19 20  2  0
 20 21  1  0
 20 22  1  0
 22 23  2  0
 23 24  1  0
  6 25  1  0
 25 26  2  0
 26  3  1  0
 24  7  2  0
 15 10  1  0
 24 18  1  0
  1 27  1  0
  1 28  1  0
  1 29  1  0
  4 30  1  0
  5 31  1  0
  9 32  1  0
  9 33  1  0
 11 34  1  0
 12 35  1  0
 13 36  1  0
 14 37  1  0
 15 38  1  0
 19 39  1  0
 21 40  1  0
 21 41  1  0
 21 42  1  0
 22 43  1  0
 23 44  1  0
 25 45  1  0
 26 46  1  0
M  END
>  <UniqueID>  (1) 
1

>  <SMILES>  (1) 
COc1ccc(-c2c(Cc3ccccc3)nnc3cc(C)ccc23)cc1

>  <Energy>  (1) 
59.734490327055994

>  <Genealogy>  (1) 
COc1ccc(-c2c(Cc3ccccc3)nnc3cc(C)ccc23)cc1 (3D coordinates assigned)
COc1ccc(-c2c(Cc3ccccc3)nnc3cc(C)ccc23)cc1 (optimized conformer: 59.734490327055994 kcal/mol)

>  <smiles>  (1) 
COc1ccc(-c2c(Cc3ccccc3)nnc3cc(C)ccc23)cc1

>  <score_type>  (1) 
oracle

>  <origin>  (1) 
adgpu

>  <m_score__min__energy>  (1) 
-8.6699999999999999

>  <m_primary>  (1) 
energy

$$$$
1:0
     RDKit          3D

 24 26  0  0  0  0  0  0  0  0999 V2000
   -6.5350   17.1910  -33.8570 C   0  0  0  0  0  0  0  0  0  0  0  0
   -7.2340   17.4610  -32.6790 C   0  0  0  0  0  0  0  0  0  0  0  0
   -7.1390   18.7200  -32.0780 C   0  0  0  0  0  0  0  0  0  0  0  0
   -6.3380   19.7250  -32.6540 C   0  0  0  0  0  0  0  0  0  0  0  0
   -6.2280   21.0630  -32.0280 C   0  0  0  0  0  0  0  0  0  0  0  0
   -5.0410   21.6280  -31.6850 N   0  0  0  0  0  0  0  0  0  0  0  0
   -5.2160   22.8550  -31.1310 C   0  0  0  0  0  0  0  0  0  0  0  0
   -4.1780   23.6720  -30.6820 C   0  0  0  0  0  0  0  0  0  0  0  0
   -4.4970   24.9240  -30.1250 C   0  0  0  0  0  0  0  0  0  0  0  0
   -5.8400   25.3400  -30.0270 C   0  0  0  0  0  0  0  0  0  0  0  0
   -6.8750   24.5090  -30.4830 C   0  0  0  0  0  0  0  0  0  0  0  0
   -6.5310   23.2740  -31.0290 C   0  0  0  0  0  0  0  0  0  0  0  0
   -7.5350   22.0830  -31.6480 S   0  0  0  0  0  0  0  0  0  0  0  0
   -5.6380   19.4410  -33.8410 C   0  0  0  0  0  0  0  0  0  0  0  0
   -5.7370   18.1790  -34.4370 C   0  0  0  0  0  0  0  0  0  0  0  0
   -6.6130   16.2000  -34.3281 H   0  0  0  0  0  0  0  0  0  0  0  0
   -7.8612   16.6812  -32.2224 H   0  0  0  0  0  0  0  0  0  0  0  0
   -7.6929   18.9265  -31.1503 H   0  0  0  0  0  0  0  0  0  0  0  0
   -3.1311   23.3439  -30.7619 H   0  0  0  0  0  0  0  0  0  0  0  0
   -3.6932   25.5823  -29.7637 H   0  0  0  0  0  0  0  0  0  0  0  0
   -6.0783   26.3213  -29.5908 H   0  0  0  0  0  0  0  0  0  0  0  0
   -7.9267   24.8233  -30.4115 H   0  0  0  0  0  0  0  0  0  0  0  0
   -5.0090   20.2160  -34.3033 H   0  0  0  0  0  0  0  0  0  0  0  0
   -5.1852   17.9649  -35.3642 H   0  0  0  0  0  0  0  0  0  0  0  0
  1  2  2  0
  2  3  1  0
  3  4  2  0
  4  5  1  0
  5  6  2  0
  6  7  1  0
  7  8  2  0
  8  9  1  0
  9 10  2  0
 10 11  1  0
 11 12  2  0
 12 13  1  0
  4 14  1  0
 14 15  2  0
 15  1  1  0
 13  5  1  0
 12  7  1  0
  1 16  1  0
  2 17  1  0
  3 18  1  0
  8 19  1  0
  9 20  1  0
 10 21  1  0
 11 22  1  0
 14 23  1  0
 15 24  1  0
M  END
>  <UniqueID>  (2) 
2

>  <SMILES>  (2) 
c1ccc(-c2nc3ccccc3s2)cc1

>  <Energy>  (2) 
62.325453446316565

>  <Genealogy>  (2) 
c1ccc(-c2nc3ccccc3s2)cc1 (3D coordinates assigned)
c1ccc(-c2nc3ccccc3s2)cc1 (optimized conformer: 62.325453446316565 kcal/mol)

>  <smiles>  (2) 
c1ccc(-c2nc3ccccc3s2)cc1

>  <score_type>  (2) 
oracle

>  <origin>  (2) 
adgpu

>  <m_score__min__energy>  (2) 
-6.6500000000000004

>  <m_primary>  (2) 
energy

$$$$
2:0
     RDKit          3D

 58 62  0  0  0  0  0  0  0  0999 V2000
   -2.0760   25.6610  -28.9590 O   0  0  0  0  0  0  0  0  0  0  0  0
   -2.2360   24.4720  -29.3510 C   0  0  0  0  0  0  0  0  0  0  0  0
   -1.0980   23.5980  -29.3360 N   0  0  0  0  0  0  0  0  0  0  0  0
   -1.0460   22.2300  -28.8910 C   0  0  0  0  0  0  0  0  0  0  0  0
   -1.3920   21.9650  -27.5570 C   0  0  0  0  0  0  0  0  0  0  0  0
   -1.4620   20.6500  -27.0890 C   0  0  0  0  0  0  0  0  0  0  0  0
   -1.1690   19.5860  -27.9440 C   0  0  0  0  0  0  0  0  0  0  0  0
   -0.7980   19.8350  -29.2680 C   0  0  0  0  0  0  0  0  0  0  0  0
   -0.7050   21.1510  -29.7470 C   0  0  0  0  0  0  0  0  0  0  0  0
   -0.2700   21.3620  -31.0960 N   0  0  0  0  0  0  0  0  0  0  0  0
   -1.1390   21.2010  -32.2210 C   0  0  0  0  0  0  0  0  0  0  0  0
   -2.3860   21.0970  -32.0560 O   0  0  0  0  0  0  0  0  0  0  0  0
   -0.5680   21.1310  -33.5760 C   0  0  0  0  0  0  0  0  0  0  0  0
   -0.9430   20.2520  -34.5750 C   0  0  0  0  0  0  0  0  0  0  0  0
   -0.1210   20.5370  -35.6460 C   0  0  0  0  0  0  0  0  0  0  0  0
    0.6990   21.5690  -35.2360 C   0  0  0  0  0  0  0  0  0  0  0  0
    0.4060   21.9030  -33.9990 O   0  0  0  0  0  0  0  0  0  0  0  0
   -3.5870   24.0340  -29.7900 C   0  0  0  0  0  0  0  0  0  0  0  0
   -4.0480   22.7260  -29.5550 C   0  0  0  0  0  0  0  0  0  0  0  0
   -5.2850   22.3080  -30.0550 C   0  0  0  0  0  0  0  0  0  0  0  0
   -6.1020   23.1990  -30.7610 C   0  0  0  0  0  0  0  0  0  0  0  0
   -7.6110   22.6340  -31.4830 S   0  0  0  0  0  0  0  0  0  0  0  0
   -8.5820   22.3120  -30.3830 O   0  0  0  0  0  0  0  0  0  0  0  0
   -8.1880   23.7460  -32.3130 O   0  0  0  0  0  0  0  0  0  0  0  0
   -7.3620   21.2080  -32.4620 N   0  0  0  0  0  0  0  0  0  0  0  0
   -7.9190   20.0350  -31.7720 C   0  0  0  0  0  0  0  0  0  0  0  0
   -7.8580   18.8180  -32.6960 C   0  0  0  0  0  0  0  0  0  0  0  0
   -6.4660   18.6100  -33.2220 C   0  0  0  0  0  0  0  0  0  0  0  0
   -6.0850   17.3540  -33.7160 C   0  0  0  0  0  0  0  0  0  0  0  0
   -4.7930   17.1520  -34.2040 C   0  0  0  0  0  0  0  0  0  0  0  0
   -3.8780   18.2070  -34.2190 C   0  0  0  0  0  0  0  0  0  0  0  0
   -4.2570   19.4720  -33.7570 C   0  0  0  0  0  0  0  0  0  0  0  0
   -5.5570   19.6910  -33.2730 C   0  0  0  0  0  0  0  0  0  0  0  0
   -5.9140   21.0480  -32.7110 C   0  0  0  0  0  0  0  0  0  0  0  0
   -5.6800   24.5230  -30.9370 C   0  0  0  0  0  0  0  0  0  0  0  0
   -4.4320   24.9360  -30.4600 C   0  0  0  0  0  0  0  0  0  0  0  0
   -1.6099   22.7993  -26.8740 H   0  0  0  0  0  0  0  0  0  0  0  0
   -1.7484   20.4530  -26.0454 H   0  0  0  0  0  0  0  0  0  0  0  0
   -1.2302   18.5514  -27.5754 H   0  0  0  0  0  0  0  0  0  0  0  0
   -0.5771   18.9928  -29.9403 H   0  0  0  0  0  0  0  0  0  0  0  0
    0.6710   21.7850  -31.2480 H   0  0  0  0  0  0  0  0  0  0  0  0
   -1.7312   19.4862  -34.5263 H   0  0  0  0  0  0  0  0  0  0  0  0
   -0.1194   20.0418  -36.6282 H   0  0  0  0  0  0  0  0  0  0  0  0
    1.4794   22.0404  -35.8513 H   0  0  0  0  0  0  0  0  0  0  0  0
   -3.4302   22.0262  -28.9731 H   0  0  0  0  0  0  0  0  0  0  0  0
   -5.6184   21.2724  -29.8926 H   0  0  0  0  0  0  0  0  0  0  0  0
   -7.3340   19.8335  -30.8625 H   0  0  0  0  0  0  0  0  0  0  0  0
   -8.9661   20.2347  -31.5003 H   0  0  0  0  0  0  0  0  0  0  0  0
   -8.1676   17.9242  -32.1345 H   0  0  0  0  0  0  0  0  0  0  0  0
   -8.5321   18.9908  -33.5479 H   0  0  0  0  0  0  0  0  0  0  0  0
   -6.8074   16.5245  -33.7189 H   0  0  0  0  0  0  0  0  0  0  0  0
   -4.4952   16.1610  -34.5771 H   0  0  0  0  0  0  0  0  0  0  0  0
   -2.8573   18.0430  -34.5948 H   0  0  0  0  0  0  0  0  0  0  0  0
   -3.5327   20.2997  -33.7729 H   0  0  0  0  0  0  0  0  0  0  0  0
   -5.3777   21.1857  -31.7605 H   0  0  0  0  0  0  0  0  0  0  0  0
   -5.6241   21.8003  -33.4593 H   0  0  0  0  0  0  0  0  0  0  0  0
   -6.3337   25.2416  -31.4531 H   0  0  0  0  0  0  0  0  0  0  0  0
   -4.1084   25.9765  -30.6104 H   0  0  0  0  0  0  0  0  0  0  0  0
  1  2  2  0
  2  3  1  0
  3  4  1  0
  4  5  2  0
  5  6  1  0
  6  7  2  0
  7  8  1  0
  8  9  2  0
  9 10  1  0
 10 11  1  0
 11 12  2  0
 11 13  1  0
 13 14  2  0
 14 15  1  0
 15 16  2  0
 16 17  1  0
  2 18  1  0
 18 19  2  0
 19 20  1  0
 20 21  2  0
 21 22  1  0
 22 23  2  0
 22 24  2  0
 22 25  1  0
 25 26  1  0
 26 27  1  0
 27 28  1  0
 28 29  2  0
 29 30  1  0
 30 31  2  0
 31 32  1  0
 32 33  2  0
 33 34  1  0
 21 35  1  0
 35 36  2  0
  9  4  1  0
 17 13  1  0
 36 18  1  0
 34 25  1  0
 33 28  1  0
  5 37  1  0
  6 38  1  0
  7 39  1  0
  8 40  1  0
 10 41  1  0
 14 42  1  0
 15 43  1  0
 16 44  1  0
 19 45  1  0
 20 46  1  0
 26 47  1  0
 26 48  1  0
 27 49  1  0
 27 50  1  0
 29 51  1  0
 30 52  1  0
 31 53  1  0
 32 54  1  0
 34 55  1  0
 34 56  1  0
 35 57  1  0
 36 58  1  0
M  CHG  1   3  -1
M  END
>  <UniqueID>  (3) 
3

>  <SMILES>  (3) 
O=C([N-]c1ccccc1NC(=O)c1ccco1)c1ccc(S(=O)(=O)N2CCc3ccccc3C2)cc1

>  <Energy>  (3) 
103.70451392828825

>  <Genealogy>  (3) 
O=C([N-]c1ccccc1NC(=O)c1ccco1)c1ccc(S(=O)(=O)N2CCc3ccccc3C2)cc1 (protonated)
O=C([N-]c1ccccc1NC(=O)c1ccco1)c1ccc(S(=O)(=O)N2CCc3ccccc3C2)cc1 (3D coordinates assigned)
O=C([N-]c1ccccc1NC(=O)c1ccco1)c1ccc(S(=O)(=O)N2CCc3ccccc3C2)cc1 (nonaromatic ring conformer: 103.70451392828825 kcal/mol)

>  <smiles>  (3) 
O=C(Nc1ccccc1NC(=O)c1ccco1)c1ccc(S(=O)(=O)N2CCc3ccccc3C2)cc1

>  <score_type>  (3) 
oracle

>  <origin>  (3) 
adgpu

>  <m_score__min__energy>  (3) 
-14.32

>  <m_primary>  (3) 
energy

$$$$
3:0
     RDKit          3D

 37 40  0  0  0  0  0  0  0  0999 V2000
   -1.9710   25.6700  -29.3310 O   0  0  0  0  0  0  0  0  0  0  0  0
   -1.5990   24.3570  -29.0640 C   0  0  0  0  0  0  0  0  0  0  0  0
   -0.4120   24.1240  -28.3640 C   0  0  0  0  0  0  0  0  0  0  0  0
    0.0080   22.8230  -28.0770 C   0  0  0  0  0  0  0  0  0  0  0  0
    1.2300   22.6540  -27.4210 O   0  0  0  0  0  0  0  0  0  0  0  0
   -0.7900   21.7270  -28.4740 C   0  0  0  0  0  0  0  0  0  0  0  0
   -0.4240   20.3330  -28.1420 C   0  0  0  0  0  0  0  0  0  0  0  0
    0.7680   19.7780  -28.6360 C   0  0  0  0  0  0  0  0  0  0  0  0
    1.1040   18.4530  -28.3430 C   0  0  0  0  0  0  0  0  0  0  0  0
    0.2480   17.6710  -27.5640 C   0  0  0  0  0  0  0  0  0  0  0  0
   -0.9460   18.2110  -27.0790 C   0  0  0  0  0  0  0  0  0  0  0  0
   -1.2850   19.5350  -27.3690 C   0  0  0  0  0  0  0  0  0  0  0  0
   -1.9770   21.9650  -29.1870 C   0  0  0  0  0  0  0  0  0  0  0  0
   -2.3930   23.2720  -29.4890 C   0  0  0  0  0  0  0  0  0  0  0  0
   -3.6550   23.4720  -30.2370 C   0  0  0  0  0  0  0  0  0  0  0  0
   -4.0230   24.6190  -30.8430 N   0  0  0  0  0  0  0  0  0  0  0  0
   -5.2040   24.3900  -31.3960 N   0  0  0  0  0  0  0  0  0  0  0  0
   -5.5160   23.1130  -31.1080 C   0  0  0  0  0  0  0  0  0  0  0  0
   -6.7580   22.4390  -31.5350 C   0  0  0  0  0  0  0  0  0  0  0  0
   -6.7260   21.0980  -31.9500 C   0  0  0  0  0  0  0  0  0  0  0  0
   -7.9090   20.4730  -32.3510 C   0  0  0  0  0  0  0  0  0  0  0  0
   -9.0820   21.1600  -32.3390 N   0  0  0  0  0  0  0  0  0  0  0  0
   -9.1430   22.4590  -31.9430 C   0  0  0  0  0  0  0  0  0  0  0  0
   -7.9840   23.1220  -31.5330 C   0  0  0  0  0  0  0  0  0  0  0  0
   -4.5700   22.5450  -30.3990 O   0  0  0  0  0  0  0  0  0  0  0  0
    0.1999   24.9767  -28.0346 H   0  0  0  0  0  0  0  0  0  0  0  0
    1.5320   23.2470  -26.6590 H   0  0  0  0  0  0  0  0  0  0  0  0
    1.4403   20.3888  -29.2564 H   0  0  0  0  0  0  0  0  0  0  0  0
    2.0427   18.0262  -28.7260 H   0  0  0  0  0  0  0  0  0  0  0  0
    0.5141   16.6292  -27.3321 H   0  0  0  0  0  0  0  0  0  0  0  0
   -1.6201   17.5927  -26.4679 H   0  0  0  0  0  0  0  0  0  0  0  0
   -2.2291   19.9544  -26.9910 H   0  0  0  0  0  0  0  0  0  0  0  0
   -2.5910   21.1131  -29.5143 H   0  0  0  0  0  0  0  0  0  0  0  0
   -5.7760   20.5436  -31.9592 H   0  0  0  0  0  0  0  0  0  0  0  0
   -7.8915   19.4226  -32.6772 H   0  0  0  0  0  0  0  0  0  0  0  0
  -10.1069   22.9890  -31.9455 H   0  0  0  0  0  0  0  0  0  0  0  0
   -8.0319   24.1726  -31.2106 H   0  0  0  0  0  0  0  0  0  0  0  0
  1  2  1  0
  2  3  2  0
  3  4  1  0
  4  5  1  0
  4  6  2  0
  6  7  1  0
  7  8  2  0
  8  9  1  0
  9 10  2  0
 10 11  1  0
 11 12  2  0
  6 13  1  0
 13 14  2  0
 14 15  1  0
 15 16  2  0
 16 17  1  0
 17 18  2  0
 18 19  1  0
 19 20  2  0
 20 21  1  0
 21 22  2  0
 22 23  1  0
 23 24  2  0
 18 25  1  0
 14  2  1  0
 25 15  1  0
 12  7  1  0
 24 19  1  0
  3 26  1  0
  5 27  1  0
  8 28  1  0
  9 29  1  0
 10 30  1  0
 11 31  1  0
 12 32  1  0
 13 33  1  0
 20 34  1  0
 21 35  1  0
 23 36  1  0
 24 37  1  0
M  CHG  1   1  -1
M  END
>  <UniqueID>  (4) 
4

>  <SMILES>  (4) 
[O-]c1cc(O)c(-c2ccccc2)cc1-c1nnc(-c2ccncc2)o1

>  <Energy>  (4) 
86.97177687080759

>  <Genealogy>  (4) 
[O-]c1cc(O)c(-c2ccccc2)cc1-c1nnc(-c2ccncc2)o1 (protonated)
[O-]c1cc(O)c(-c2ccccc2)cc1-c1nnc(-c2ccncc2)o1 (3D coordinates assigned)
[O-]c1cc(O)c(-c2ccccc2)cc1-c1nnc(-c2ccncc2)o1 (optimized conformer: 86.97177687080759 kcal/mol)

>  <smiles>  (4) 
Oc1cc(O)c(-c2nnc(-c3ccncc3)o2)cc1-c1ccccc1

>  <score_type>  (4) 
oracle

>  <origin>  (4) 
adgpu

>  <m_score__min__energy>  (4) 
-11.359999999999999

>  <m_primary>  (4) 
energy

$$$$
4:0
     RDKit          3D

 47 50  0  0  0  0  0  0  0  0999 V2000
   -4.6000   13.6680  -31.4310 C   0  0  0  0  0  0  0  0  0  0  0  0
   -4.8700   14.8370  -32.3250 C   0  0  0  0  0  0  0  0  0  0  0  0
   -4.6540   14.7350  -33.7060 C   0  0  0  0  0  0  0  0  0  0  0  0
   -4.9100   15.8350  -34.5260 C   0  0  0  0  0  0  0  0  0  0  0  0
   -5.3790   17.0290  -33.9640 C   0  0  0  0  0  0  0  0  0  0  0  0
   -5.6420   18.1540  -34.7580 C   0  0  0  0  0  0  0  0  0  0  0  0
   -6.1090   19.3320  -34.1690 C   0  0  0  0  0  0  0  0  0  0  0  0
   -6.3290   19.3970  -32.7830 C   0  0  0  0  0  0  0  0  0  0  0  0
   -6.8150   20.6530  -32.1680 C   0  0  0  0  0  0  0  0  0  0  0  0
   -5.8750   21.5460  -31.6270 C   0  0  0  0  0  0  0  0  0  0  0  0
   -6.2800   22.7430  -31.0130 C   0  0  0  0  0  0  0  0  0  0  0  0
   -5.2720   23.6660  -30.4380 C   0  0  0  0  0  0  0  0  0  0  0  0
   -4.6460   24.4540  -31.1980 O   0  0  0  0  0  0  0  0  0  0  0  0
   -5.0360   23.7080  -29.0200 N   0  0  0  0  0  0  0  0  0  0  0  0
   -3.8410   24.2430  -28.4240 C   0  0  0  0  0  0  0  0  0  0  0  0
   -2.6630   24.4200  -29.1740 C   0  0  0  0  0  0  0  0  0  0  0  0
   -1.5080   24.9210  -28.5650 C   0  0  0  0  0  0  0  0  0  0  0  0
   -1.5140   25.2370  -27.2040 C   0  0  0  0  0  0  0  0  0  0  0  0
   -2.6730   25.0450  -26.4470 C   0  0  0  0  0  0  0  0  0  0  0  0
   -3.8300   24.5430  -27.0530 C   0  0  0  0  0  0  0  0  0  0  0  0
   -7.6520   23.0320  -30.9310 C   0  0  0  0  0  0  0  0  0  0  0  0
   -8.5950   22.1590  -31.4750 C   0  0  0  0  0  0  0  0  0  0  0  0
   -8.1930   20.9770  -32.1150 C   0  0  0  0  0  0  0  0  0  0  0  0
   -9.2470   20.0770  -32.7080 C   0  0  0  0  0  0  0  0  0  0  0  0
   -6.0540   18.2750  -31.9850 C   0  0  0  0  0  0  0  0  0  0  0  0
   -5.5860   17.0920  -32.5690 C   0  0  0  0  0  0  0  0  0  0  0  0
   -5.3260   16.0050  -31.7950 N   0  0  0  0  0  0  0  0  0  0  0  0
   -4.6733   13.9853  -30.3803 H   0  0  0  0  0  0  0  0  0  0  0  0
   -5.3392   12.8775  -31.6277 H   0  0  0  0  0  0  0  0  0  0  0  0
   -3.5890   13.2818  -31.6277 H   0  0  0  0  0  0  0  0  0  0  0  0
   -4.2852   13.7943  -34.1407 H   0  0  0  0  0  0  0  0  0  0  0  0
   -4.7438   15.7643  -35.6111 H   0  0  0  0  0  0  0  0  0  0  0  0
   -5.4807   18.1094  -35.8452 H   0  0  0  0  0  0  0  0  0  0  0  0
   -6.3058   20.2148  -34.7951 H   0  0  0  0  0  0  0  0  0  0  0  0
   -4.8036   21.3039  -31.6851 H   0  0  0  0  0  0  0  0  0  0  0  0
   -5.8200   23.4390  -28.3840 H   0  0  0  0  0  0  0  0  0  0  0  0
   -2.6509   24.1632  -30.2435 H   0  0  0  0  0  0  0  0  0  0  0  0
   -0.5933   25.0665  -29.1585 H   0  0  0  0  0  0  0  0  0  0  0  0
   -0.6064   25.6369  -26.7283 H   0  0  0  0  0  0  0  0  0  0  0  0
   -2.6757   25.2886  -25.3743 H   0  0  0  0  0  0  0  0  0  0  0  0
   -4.7366   24.3825  -26.4511 H   0  0  0  0  0  0  0  0  0  0  0  0
   -7.9861   23.9545  -30.4336 H   0  0  0  0  0  0  0  0  0  0  0  0
   -9.6657   22.4003  -31.4012 H   0  0  0  0  0  0  0  0  0  0  0  0
   -9.8136   19.5932  -31.8987 H   0  0  0  0  0  0  0  0  0  0  0  0
   -9.9315   20.6736  -33.3290 H   0  0  0  0  0  0  0  0  0  0  0  0
   -8.7650   19.3075  -33.3290 H   0  0  0  0  0  0  0  0  0  0  0  0
   -6.2069   18.3258  -30.8969 H   0  0  0  0  0  0  0  0  0  0  0  0
  1  2  1  0
  2  3  2  0
  3  4  1  0
  4  5  2  0
  5  6  1  0
  6  7  2  0
  7  8  1  0
  8  9  1  0
  9 10  2  0
 10 11  1  0
 11 12  1  0
 12 13  2  0
 12 14  1  0
 14 15  1  0
 15 16  2  0
 16 17  1  0
 17 18  2  0
 18 19  1  0
 19 20  2  0
 11 21  2  0
 21 22  1  0
 22 23  2  0
 23 24  1  0
  8 25  2  0
 25 26  1  0
 26 27  2  0
 27  2  1  0
 26  5  1  0
 23  9  1  0
 20 15  1  0
  1 28  1  0
  1 29  1  0
  1 30  1  0
  3 31  1  0
  4 32  1  0
  6 33  1  0
  7 34  1  0
 10 35  1  0
 14 36  1  0
 16 37  1  0
 17 38  1  0
 18 39  1  0
 19 40  1  0
 20 41  1  0
 21 42  1  0
 22 43  1  0
 24 44  1  0
 24 45  1  0
 24 46  1  0
 25 47  1  0
M  END
>  <UniqueID>  (5) 
5

>  <SMILES>  (5) 
Cc1ccc2ccc(-c3cc(C(=O)Nc4ccccc4)ccc3C)cc2n1

>  <Energy>  (5) 
66.25831246796074

>  <Genealogy>  (5) 
Cc1ccc2ccc(-c3cc(C(=O)Nc4ccccc4)ccc3C)cc2n1 (3D coordinates assigned)
Cc1ccc2ccc(-c3cc(C(=O)Nc4ccccc4)ccc3C)cc2n1 (optimized conformer: 66.25831246796074 kcal/mol)

>  <smiles>  (5) 
Cc1ccc2ccc(-c3cc(C(=O)Nc4ccccc4)ccc3C)cc2n1

>  <score_type>  (5) 
oracle

>  <origin>  (5) 
adgpu

>  <m_score__min__energy>  (5) 
-10.9

>  <m_primary>  (5) 
energy

$$$$
5:0
     RDKit          3D

 38 40  0  0  0  0  0  0  0  0999 V2000
   -0.1920   22.7650  -25.6680 C   0  0  0  0  0  0  0  0  0  0  0  0
   -0.9980   23.2970  -26.8230 C   0  0  0  0  0  0  0  0  0  0  0  0
   -0.8700   24.6460  -27.1900 C   0  0  0  0  0  0  0  0  0  0  0  0
   -1.5970   25.1630  -28.2620 C   0  0  0  0  0  0  0  0  0  0  0  0
   -2.4670   24.3470  -28.9890 C   0  0  0  0  0  0  0  0  0  0  0  0
   -3.1840   24.9210  -30.0920 N   0  0  0  0  0  0  0  0  0  0  0  0
   -4.9000   24.8360  -30.3220 S   0  0  0  0  0  0  0  0  0  0  0  0
   -5.5840   24.9240  -28.9860 O   0  0  0  0  0  0  0  0  0  0  0  0
   -5.3420   25.9940  -31.1710 O   0  0  0  0  0  0  0  0  0  0  0  0
   -5.3150   23.3370  -31.1480 C   0  0  0  0  0  0  0  0  0  0  0  0
   -4.3060   22.5920  -31.7750 C   0  0  0  0  0  0  0  0  0  0  0  0
   -4.6110   21.3890  -32.4160 C   0  0  0  0  0  0  0  0  0  0  0  0
   -5.9320   20.9160  -32.4310 C   0  0  0  0  0  0  0  0  0  0  0  0
   -6.2590   19.7100  -33.0600 C   0  0  0  0  0  0  0  0  0  0  0  0
   -7.5800   19.2610  -33.0550 C   0  0  0  0  0  0  0  0  0  0  0  0
   -8.5670   20.0230  -32.4210 C   0  0  0  0  0  0  0  0  0  0  0  0
   -9.7620   19.6210  -32.4140 O   0  0  0  0  0  0  0  0  0  0  0  0
   -8.2400   21.1980  -31.8120 N   0  0  0  0  0  0  0  0  0  0  0  0
   -6.9560   21.6610  -31.8010 C   0  0  0  0  0  0  0  0  0  0  0  0
   -6.6380   22.8710  -31.1650 C   0  0  0  0  0  0  0  0  0  0  0  0
   -2.6130   22.9980  -28.6230 C   0  0  0  0  0  0  0  0  0  0  0  0
   -1.8860   22.4640  -27.5450 C   0  0  0  0  0  0  0  0  0  0  0  0
   -2.0520   21.0080  -27.1920 C   0  0  0  0  0  0  0  0  0  0  0  0
   -0.6597   23.0737  -24.7215 H   0  0  0  0  0  0  0  0  0  0  0  0
   -0.1585   21.6667  -25.7193 H   0  0  0  0  0  0  0  0  0  0  0  0
    0.8311   23.1659  -25.7193 H   0  0  0  0  0  0  0  0  0  0  0  0
   -0.1897   25.3016  -26.6266 H   0  0  0  0  0  0  0  0  0  0  0  0
   -1.4844   26.2220  -28.5373 H   0  0  0  0  0  0  0  0  0  0  0  0
   -3.2684   22.9570  -31.7620 H   0  0  0  0  0  0  0  0  0  0  0  0
   -3.8150   20.8120  -32.9094 H   0  0  0  0  0  0  0  0  0  0  0  0
   -5.4769   19.1174  -33.5571 H   0  0  0  0  0  0  0  0  0  0  0  0
   -7.8439   18.3131  -33.5468 H   0  0  0  0  0  0  0  0  0  0  0  0
   -8.9970   21.7500  -31.3450 H   0  0  0  0  0  0  0  0  0  0  0  0
   -7.4307   23.4572  -30.6771 H   0  0  0  0  0  0  0  0  0  0  0  0
   -3.3036   22.3531  -29.1862 H   0  0  0  0  0  0  0  0  0  0  0  0
   -2.0649   20.8951  -26.0979 H   0  0  0  0  0  0  0  0  0  0  0  0
   -2.9985   20.6349  -27.6103 H   0  0  0  0  0  0  0  0  0  0  0  0
   -1.2138   20.4314  -27.6103 H   0  0  0  0  0  0  0  0  0  0  0  0
  1  2  1  0
  2  3  2  0
  3  4  1  0
  4  5  2  0
  5  6  1  0
  6  7  1  0
  7  8  2  0
  7  9  2  0
  7 10  1  0
 10 11  2  0
 11 12  1  0
 12 13  2  0
 13 14  1  0
 14 15  2  0
 15 16  1  0
 16 17  2  0
 16 18  1  0
 18 19  1  0
 19 20  2  0
  5 21  1  0
 21 22  2  0
 22 23  1  0
 22  2  1  0
 20 10  1  0
 19 13  1  0
  1 24  1  0
  1 25  1  0
  1 26  1  0
  3 27  1  0
  4 28  1  0
 11 29  1  0
 12 30  1  0
 14 31  1  0
 15 32  1  0
 18 33  1  0
 20 34  1  0
 21 35  1  0
 23 36  1  0
 23 37  1  0
 23 38  1  0
M  CHG  1   6  -1
M  END
>  <UniqueID>  (6) 
6

>  <SMILES>  (6) 
Cc1ccc([N-]S(=O)(=O)c2ccc3ccc(=O)[nH]c3c2)cc1C

>  <Energy>  (6) 
46.86664745236628

>  <Genealogy>  (6) 
Cc1ccc([N-]S(=O)(=O)c2ccc3ccc(=O)[nH]c3c2)cc1C (protonated)
Cc1ccc([N-]S(=O)(=O)c2ccc3ccc(=O)[nH]c3c2)cc1C (3D coordinates assigned)
Cc1ccc([N-]S(=O)(=O)c2ccc3ccc(=O)[nH]c3c2)cc1C (optimized conformer: 46.86664745236628 kcal/mol)

>  <smiles>  (6) 
Cc1ccc(NS(=O)(=O)c2ccc3ccc(=O)[nH]c3c2)cc1C

>  <score_type>  (6) 
oracle

>  <origin>  (6) 
adgpu

>  <m_score__min__energy>  (6) 
-9.9800000000000004

>  <m_primary>  (6) 
energy

$$$$
6:0
     RDKit          3D

 34 35  0  0  0  0  0  0  0  0999 V2000
   -3.2740   21.1190  -31.6580 F   0  0  0  0  0  0  0  0  0  0  0  0
   -3.8420   21.1960  -32.9170 C   0  0  0  0  0  0  0  0  0  0  0  0
   -4.1480   22.5220  -33.1740 F   0  0  0  0  0  0  0  0  0  0  0  0
   -2.9240   20.7550  -33.8520 F   0  0  0  0  0  0  0  0  0  0  0  0
   -5.0850   20.3440  -33.0020 C   0  0  0  0  0  0  0  0  0  0  0  0
   -6.3450   20.8890  -32.7070 C   0  0  0  0  0  0  0  0  0  0  0  0
   -7.4850   20.0810  -32.7100 C   0  0  0  0  0  0  0  0  0  0  0  0
   -9.0860   20.7820  -32.2950 S   0  0  0  0  0  0  0  0  0  0  0  0
   -8.4630   21.8550  -30.9460 C   0  0  0  0  0  0  0  0  0  0  0  0
   -7.9230   23.1820  -31.4870 C   0  0  0  0  0  0  0  0  0  0  0  0
   -6.6000   23.5520  -30.8650 C   0  0  0  0  0  0  0  0  0  0  0  0
   -6.1450   22.9020  -29.7080 C   0  0  0  0  0  0  0  0  0  0  0  0
   -4.9240   23.2680  -29.1370 C   0  0  0  0  0  0  0  0  0  0  0  0
   -4.1700   24.2840  -29.7270 C   0  0  0  0  0  0  0  0  0  0  0  0
   -4.6220   24.9040  -30.8490 N   0  0  0  0  0  0  0  0  0  0  0  0
   -5.8060   24.5640  -31.4250 C   0  0  0  0  0  0  0  0  0  0  0  0
   -7.3800   18.7240  -33.0310 C   0  0  0  0  0  0  0  0  0  0  0  0
   -6.1290   18.1590  -33.3360 C   0  0  0  0  0  0  0  0  0  0  0  0
   -6.0060   16.6820  -33.6060 C   0  0  0  0  0  0  0  0  0  0  0  0
   -5.6280   16.0050  -32.4580 F   0  0  0  0  0  0  0  0  0  0  0  0
   -7.2260   16.1940  -34.0350 F   0  0  0  0  0  0  0  0  0  0  0  0
   -5.0550   16.4390  -34.5820 F   0  0  0  0  0  0  0  0  0  0  0  0
   -4.9820   18.9720  -33.2830 C   0  0  0  0  0  0  0  0  0  0  0  0
   -6.4353   21.9598  -32.4718 H   0  0  0  0  0  0  0  0  0  0  0  0
   -9.2857   22.0629  -30.2460 H   0  0  0  0  0  0  0  0  0  0  0  0
   -7.6404   21.3291  -30.4392 H   0  0  0  0  0  0  0  0  0  0  0  0
   -7.7909   23.0938  -32.5755 H   0  0  0  0  0  0  0  0  0  0  0  0
   -8.6478   23.9703  -31.2355 H   0  0  0  0  0  0  0  0  0  0  0  0
   -6.7494   22.1047  -29.2509 H   0  0  0  0  0  0  0  0  0  0  0  0
   -4.5601   22.7607  -28.2313 H   0  0  0  0  0  0  0  0  0  0  0  0
   -3.2089   24.5832  -29.2834 H   0  0  0  0  0  0  0  0  0  0  0  0
   -6.1425   25.0846  -32.3337 H   0  0  0  0  0  0  0  0  0  0  0  0
   -8.2819   18.0944  -33.0450 H   0  0  0  0  0  0  0  0  0  0  0  0
   -3.9923   18.5274  -33.4639 H   0  0  0  0  0  0  0  0  0  0  0  0
  1  2  1  0
  2  3  1  0
  2  4  1  0
  2  5  1  0
  5  6  2  0
  6  7  1  0
  7  8  1  0
  8  9  1  0
  9 10  1  0
 10 11  1  0
 11 12  2  0
 12 13  1  0
 13 14  2  0
 14 15  1  0
 15 16  2  0
  7 17  2  0
 17 18  1  0
 18 19  1  0
 19 20  1  0
 19 21  1  0
 19 22  1  0
 18 23  2  0
 23  5  1  0
 16 11  1  0
  6 24  1  0
  9 25  1  0
  9 26  1  0
 10 27  1  0
 10 28  1  0
 12 29  1  0
 13 30  1  0
 14 31  1  0
 16 32  1  0
 17 33  1  0
 23 34  1  0
M  END
>  <UniqueID>  (7) 
7

>  <SMILES>  (7) 
FC(F)(F)c1cc(SCCc2cccnc2)cc(C(F)(F)F)c1

>  <Energy>  (7) 
28.97984314200144

>  <Genealogy>  (7) 
FC(F)(F)c1cc(SCCc2cccnc2)cc(C(F)(F)F)c1 (3D coordinates assigned)
FC(F)(F)c1cc(SCCc2cccnc2)cc(C(F)(F)F)c1 (optimized conformer: 28.97984314200144 kcal/mol)

>  <smiles>  (7) 
FC(F)(F)c1cc(SCCc2cccnc2)cc(C(F)(F)F)c1

>  <score_type>  (7) 
oracle

>  <origin>  (7) 
adgpu

>  <m_score__min__energy>  (7) 
-7.1600000000000001

>  <m_primary>  (7) 
energy

$$$$
7:0
     RDKit          3D

 67 71  0  0  0  0  0  0  0  0999 V2000
    0.6320   18.4380  -28.2330 C   0  0  0  0  0  0  0  0  0  0  0  0
    0.2240   19.5020  -29.2080 C   0  0  0  0  0  0  0  0  0  0  0  0
    0.0020   19.3500  -30.5770 C   0  0  0  0  0  0  0  0  0  0  0  0
    0.2720   18.0800  -31.3370 C   0  0  0  0  0  0  0  0  0  0  0  0
   -0.4240   20.5290  -31.1190 N   0  0  0  0  0  0  0  0  0  0  0  0
   -0.9150   20.7700  -32.4850 C   0  0  0  0  0  0  0  0  0  0  0  0
   -2.3950   20.5190  -32.5930 C   0  0  0  0  0  0  0  0  0  0  0  0
   -2.8790   19.2300  -32.8690 C   0  0  0  0  0  0  0  0  0  0  0  0
   -4.2520   18.9720  -32.8490 C   0  0  0  0  0  0  0  0  0  0  0  0
   -5.1700   19.9930  -32.5390 C   0  0  0  0  0  0  0  0  0  0  0  0
   -6.6250   19.7030  -32.4390 C   0  0  0  0  0  0  0  0  0  0  0  0
   -7.0800   18.4350  -32.0280 C   0  0  0  0  0  0  0  0  0  0  0  0
   -8.4490   18.1560  -31.9670 C   0  0  0  0  0  0  0  0  0  0  0  0
   -9.3830   19.1340  -32.3200 C   0  0  0  0  0  0  0  0  0  0  0  0
   -8.9460   20.3990  -32.7220 C   0  0  0  0  0  0  0  0  0  0  0  0
   -7.5780   20.6840  -32.7850 C   0  0  0  0  0  0  0  0  0  0  0  0
   -4.6810   21.2870  -32.2780 C   0  0  0  0  0  0  0  0  0  0  0  0
   -3.3080   21.5440  -32.2990 C   0  0  0  0  0  0  0  0  0  0  0  0
   -0.4820   21.4070  -30.0920 C   0  0  0  0  0  0  0  0  0  0  0  0
   -0.8870   22.7440  -30.1240 C   0  0  0  0  0  0  0  0  0  0  0  0
   -0.9400   23.4650  -28.9100 C   0  0  0  0  0  0  0  0  0  0  0  0
   -1.3960   24.8700  -28.9060 C   0  0  0  0  0  0  0  0  0  0  0  0
   -0.5910   25.7740  -28.5590 O   0  0  0  0  0  0  0  0  0  0  0  0
   -2.7090   25.2510  -29.3380 N   0  0  0  0  0  0  0  0  0  0  0  0
   -3.4960   24.5650  -30.3630 C   0  0  0  0  0  0  0  0  0  0  0  0
   -4.9780   24.4830  -29.9490 C   0  0  0  0  0  0  0  0  0  0  0  0
   -5.3870   23.0180  -29.6430 C   0  0  0  0  0  0  0  0  0  0  0  0
   -6.9090   22.8320  -29.6950 C   0  0  0  0  0  0  0  0  0  0  0  0
   -7.4900   23.1820  -31.0800 C   0  0  0  0  0  0  0  0  0  0  0  0
   -6.6150   24.1560  -31.8920 C   0  0  0  0  0  0  0  0  0  0  0  0
   -5.9140   25.1700  -30.9820 C   0  0  0  0  0  0  0  0  0  0  0  0
   -0.6360   22.8060  -27.6970 C   0  0  0  0  0  0  0  0  0  0  0  0
   -0.2040   21.4710  -27.6950 C   0  0  0  0  0  0  0  0  0  0  0  0
   -0.1250   20.8040  -28.9140 C   0  0  0  0  0  0  0  0  0  0  0  0
    0.4904   18.8074  -27.2066 H   0  0  0  0  0  0  0  0  0  0  0  0
    0.0138   17.5415  -28.3886 H   0  0  0  0  0  0  0  0  0  0  0  0
    1.6911   18.1847  -28.3886 H   0  0  0  0  0  0  0  0  0  0  0  0
    0.4467   17.2580  -30.6272 H   0  0  0  0  0  0  0  0  0  0  0  0
   -0.5952   17.8399  -31.9697 H   0  0  0  0  0  0  0  0  0  0  0  0
    1.1618   18.2135  -31.9697 H   0  0  0  0  0  0  0  0  0  0  0  0
   -0.7090   21.8151  -32.7594 H   0  0  0  0  0  0  0  0  0  0  0  0
   -0.3975   20.0767  -33.1644 H   0  0  0  0  0  0  0  0  0  0  0  0
   -2.1733   18.4190  -33.1022 H   0  0  0  0  0  0  0  0  0  0  0  0
   -4.6193   17.9607  -33.0778 H   0  0  0  0  0  0  0  0  0  0  0  0
   -6.3523   17.6575  -31.7526 H   0  0  0  0  0  0  0  0  0  0  0  0
   -8.7920   17.1633  -31.6400 H   0  0  0  0  0  0  0  0  0  0  0  0
  -10.4590   18.9086  -32.2815 H   0  0  0  0  0  0  0  0  0  0  0  0
   -9.6802   21.1731  -32.9898 H   0  0  0  0  0  0  0  0  0  0  0  0
   -7.2426   21.6809  -33.1069 H   0  0  0  0  0  0  0  0  0  0  0  0
   -5.3855   22.1021  -32.0558 H   0  0  0  0  0  0  0  0  0  0  0  0
   -2.9393   22.5577  -32.0834 H   0  0  0  0  0  0  0  0  0  0  0  0
   -1.1590   23.2254  -31.0749 H   0  0  0  0  0  0  0  0  0  0  0  0
   -3.4160   25.1186  -31.3102 H   0  0  0  0  0  0  0  0  0  0  0  0
   -3.1058   23.5436  -30.4833 H   0  0  0  0  0  0  0  0  0  0  0  0
   -5.0995   25.0523  -29.0156 H   0  0  0  0  0  0  0  0  0  0  0  0
   -4.9211   22.3549  -30.3867 H   0  0  0  0  0  0  0  0  0  0  0  0
   -5.0456   22.7714  -28.6268 H   0  0  0  0  0  0  0  0  0  0  0  0
   -7.1460   21.7825  -29.4660 H   0  0  0  0  0  0  0  0  0  0  0  0
   -7.3586   23.5132  -28.9575 H   0  0  0  0  0  0  0  0  0  0  0  0
   -7.5992   22.2511  -31.6558 H   0  0  0  0  0  0  0  0  0  0  0  0
   -8.4531   23.6844  -30.9063 H   0  0  0  0  0  0  0  0  0  0  0  0
   -5.8540   23.5813  -32.4402 H   0  0  0  0  0  0  0  0  0  0  0  0
   -7.2648   24.7069  -32.5878 H   0  0  0  0  0  0  0  0  0  0  0  0
   -5.3150   25.8504  -31.6051 H   0  0  0  0  0  0  0  0  0  0  0  0
   -6.6893   25.7159  -30.4244 H   0  0  0  0  0  0  0  0  0  0  0  0
   -0.7392   23.3457  -26.7441 H   0  0  0  0  0  0  0  0  0  0  0  0
    0.0649   20.9655  -26.7558 H   0  0  0  0  0  0  0  0  0  0  0  0
  1  2  1  0
  2  3  2  0
  3  4  1  0
  3  5  1  0
  5  6  1  0
  6  7  1  0
  7  8  2  0
  8  9  1  0
  9 10  2  0
 10 11  1  0
 11 12  2  0
 12 13  1  0
 13 14  2  0
 14 15  1  0
 15 16  2  0
 10 17  1  0
 17 18  2  0
  5 19  1  0
 19 20  2  0
 20 21  1  0
 21 22  1  0
 22 23  2  0
 22 24  1  0
 24 25  1  0
 25 26  1  0
 26 27  1  0
 27 28  1  0
 28 29  1  0
 29 30  1  0
 30 31  1  0
 21 32  2  0
 32 33  1  0
 33 34  2  0
 34  2  1  0
 18  7  1  0
 34 19  1  0
 16 11  1  0
 31 26  1  0
  1 35  1  0
  1 36  1  0
  1 37  1  0
  4 38  1  0
  4 39  1  0
  4 40  1  0
  6 41  1  0
  6 42  1  0
  8 43  1  0
  9 44  1  0
 12 45  1  0
 13 46  1  0
 14 47  1  0
 15 48  1  0
 16 49  1  0
 17 50  1  0
 18 51  1  0
 20 52  1  0
 25 53  1  0
 25 54  1  0
 26 55  1  0
 27 56  1  0
 27 57  1  0
 28 58  1  0
 28 59  1  0
 29 60  1  0
 29 61  1  0
 30 62  1  0
 30 63  1  0
 31 64  1  0
 31 65  1  0
 32 66  1  0
 33 67  1  0
M  CHG  1  24  -1
M  END
>  <UniqueID>  (8) 
8

>  <SMILES>  (8) 
Cc1c(C)n(Cc2ccc(-c3ccccc3)cc2)c2cc(C(=O)[N-]CC3CCCCC3)ccc12

>  <Energy>  (8) 
117.2269460341192

>  <Genealogy>  (8) 
Cc1c(C)n(Cc2ccc(-c3ccccc3)cc2)c2cc(C(=O)[N-]CC3CCCCC3)ccc12 (protonated)
Cc1c(C)n(Cc2ccc(-c3ccccc3)cc2)c2cc(C(=O)[N-]CC3CCCCC3)ccc12 (3D coordinates assigned)
Cc1c(C)n(Cc2ccc(-c3ccccc3)cc2)c2cc(C(=O)[N-]CC3CCCCC3)ccc12 (nonaromatic ring conformer: 117.2269460341192 kcal/mol)

>  <smiles>  (8) 
Cc1c(C)n(Cc2ccc(-c3ccccc3)cc2)c2cc(C(=O)NCC3CCCCC3)ccc12

>  <score_type>  (8) 
oracle

>  <origin>  (8) 
adgpu

>  <m_score__min__energy>  (8) 
-12.91

>  <m_primary>  (8) 
energy

$$$$
8:0
     RDKit          3D

 35 36  0  0  0  0  0  0  0  0999 V2000
   -1.6180   25.3830  -27.4290 C   0  0  0  0  0  0  0  0  0  0  0  0
   -1.9640   25.3360  -28.8100 O   0  0  0  0  0  0  0  0  0  0  0  0
   -2.4820   24.2050  -29.4590 C   0  0  0  0  0  0  0  0  0  0  0  0
   -2.0670   22.8980  -29.1410 C   0  0  0  0  0  0  0  0  0  0  0  0
   -2.6100   21.8000  -29.8130 C   0  0  0  0  0  0  0  0  0  0  0  0
   -3.5740   21.9890  -30.8150 C   0  0  0  0  0  0  0  0  0  0  0  0
   -4.1830   20.8020  -31.5250 C   0  0  0  0  0  0  0  0  0  0  0  0
   -4.5840   21.1310  -32.9030 N   0  0  0  0  0  0  0  0  0  0  0  0
   -5.6420   20.2350  -33.3980 C   0  0  0  0  0  0  0  0  0  0  0  0
   -6.9700   20.6020  -32.7860 C   0  0  0  0  0  0  0  0  0  0  0  0
   -7.1920   21.9010  -32.3000 C   0  0  0  0  0  0  0  0  0  0  0  0
   -8.4120   22.2290  -31.7010 C   0  0  0  0  0  0  0  0  0  0  0  0
   -9.4130   21.2620  -31.5730 C   0  0  0  0  0  0  0  0  0  0  0  0
   -9.1930   19.9630  -32.0400 C   0  0  0  0  0  0  0  0  0  0  0  0
   -7.9740   19.6300  -32.6390 C   0  0  0  0  0  0  0  0  0  0  0  0
   -3.9930   23.2900  -31.1300 C   0  0  0  0  0  0  0  0  0  0  0  0
   -3.4490   24.3900  -30.4580 C   0  0  0  0  0  0  0  0  0  0  0  0
   -3.8740   25.6720  -30.7860 O   0  0  0  0  0  0  0  0  0  0  0  0
   -2.5252   25.2598  -26.8193 H   0  0  0  0  0  0  0  0  0  0  0  0
   -0.9099   24.5728  -27.2006 H   0  0  0  0  0  0  0  0  0  0  0  0
   -1.1517   26.3527  -27.2006 H   0  0  0  0  0  0  0  0  0  0  0  0
   -1.3103   22.7401  -28.3584 H   0  0  0  0  0  0  0  0  0  0  0  0
   -2.2803   20.7827  -29.5554 H   0  0  0  0  0  0  0  0  0  0  0  0
   -3.4436   19.9881  -31.5548 H   0  0  0  0  0  0  0  0  0  0  0  0
   -5.0842   20.5000  -30.9713 H   0  0  0  0  0  0  0  0  0  0  0  0
   -4.9080   22.1260  -32.9510 H   0  0  0  0  0  0  0  0  0  0  0  0
   -3.7420   21.0300  -33.5170 H   0  0  0  0  0  0  0  0  0  0  0  0
   -5.7101   20.3243  -34.4923 H   0  0  0  0  0  0  0  0  0  0  0  0
   -5.3936   19.2006  -33.1180 H   0  0  0  0  0  0  0  0  0  0  0  0
   -6.4035   22.6626  -32.3909 H   0  0  0  0  0  0  0  0  0  0  0  0
   -8.5844   23.2500  -31.3298 H   0  0  0  0  0  0  0  0  0  0  0  0
  -10.3736   21.5231  -31.1049 H   0  0  0  0  0  0  0  0  0  0  0  0
   -9.9800   19.2015  -31.9362 H   0  0  0  0  0  0  0  0  0  0  0  0
   -7.8006   18.6041  -32.9961 H   0  0  0  0  0  0  0  0  0  0  0  0
   -4.7533   23.4463  -31.9095 H   0  0  0  0  0  0  0  0  0  0  0  0
  1  2  1  0
  2  3  1  0
  3  4  2  0
  4  5  1  0
  5  6  2  0
  6  7  1  0
  7  8  1  0
  8  9  1  0
  9 10  1  0
 10 11  2  0
 11 12  1  0
 12 13  2  0
 13 14  1  0
 14 15  2  0
  6 16  1  0
 16 17  2  0
 17 18  1  0
 17  3  1  0
 15 10  1  0
  1 19  1  0
  1 20  1  0
  1 21  1  0
  4 22  1  0
  5 23  1  0
  7 24  1  0
  7 25  1  0
  8 26  1  0
  8 27  1  0
  9 28  1  0
  9 29  1  0
 11 30  1  0
 12 31  1  0
 13 32  1  0
 14 33  1  0
 15 34  1  0
 16 35  1  0
M  CHG  2   8   1  18  -1
M  END
>  <UniqueID>  (9) 
9

>  <SMILES>  (9) 
COc1ccc(C[NH2+]Cc2ccccc2)cc1[O-]

>  <Energy>  (9) 
33.82836425735143

>  <Genealogy>  (9) 
COc1ccc(C[NH2+]Cc2ccccc2)cc1[O-] (protonated)
COc1ccc(C[NH2+]Cc2ccccc2)cc1[O-] (3D coordinates assigned)
COc1ccc(C[NH2+]Cc2ccccc2)cc1[O-] (optimized conformer: 33.82836425735143 kcal/mol)

>  <smiles>  (9) 
COc1ccc(CNCc2ccccc2)cc1O

>  <score_type>  (9) 
oracle

>  <origin>  (9) 
adgpu

>  <m_score__min__energy>  (9) 
-9.4700000000000006

>  <m_primary>  (9) 
energy

$$$$
9:0
     RDKit          3D

 39 40  0  0  0  0  0  0  0  0999 V2000
   -7.1920   18.4060  -32.8430 C   0  0  0  0  0  0  0  0  0  0  0  0
   -6.9800   19.8710  -32.5630 C   0  0  0  0  0  0  0  0  0  0  0  0
   -5.6770   20.3920  -32.5790 C   0  0  0  0  0  0  0  0  0  0  0  0
   -5.4420   21.7530  -32.3290 C   0  0  0  0  0  0  0  0  0  0  0  0
   -4.0380   22.2910  -32.3570 C   0  0  0  0  0  0  0  0  0  0  0  0
   -6.5220   22.6140  -32.0670 C   0  0  0  0  0  0  0  0  0  0  0  0
   -6.2550   23.9750  -31.8280 O   0  0  0  0  0  0  0  0  0  0  0  0
   -6.3010   24.6180  -30.5540 C   0  0  0  0  0  0  0  0  0  0  0  0
   -4.9170   24.8040  -30.0050 C   0  0  0  0  0  0  0  0  0  0  0  0
   -4.0260   25.3030  -30.7450 O   0  0  0  0  0  0  0  0  0  0  0  0
   -4.6220   24.4390  -28.6470 N   0  0  0  0  0  0  0  0  0  0  0  0
   -3.3100   24.5020  -28.0650 C   0  0  0  0  0  0  0  0  0  0  0  0
   -3.1670   24.9190  -26.7320 C   0  0  0  0  0  0  0  0  0  0  0  0
   -1.9030   24.9690  -26.1370 C   0  0  0  0  0  0  0  0  0  0  0  0
   -0.7710   24.5890  -26.8640 C   0  0  0  0  0  0  0  0  0  0  0  0
   -0.9040   24.1500  -28.1830 C   0  0  0  0  0  0  0  0  0  0  0  0
   -2.1670   24.1000  -28.7830 C   0  0  0  0  0  0  0  0  0  0  0  0
   -7.8290   22.0930  -32.0510 C   0  0  0  0  0  0  0  0  0  0  0  0
   -8.0700   20.7350  -32.3090 C   0  0  0  0  0  0  0  0  0  0  0  0
   -9.4860   20.2190  -32.2840 C   0  0  0  0  0  0  0  0  0  0  0  0
   -7.2712   17.8587  -31.8921 H   0  0  0  0  0  0  0  0  0  0  0  0
   -8.1187   18.2734  -33.4207 H   0  0  0  0  0  0  0  0  0  0  0  0
   -6.3409   18.0162  -33.4207 H   0  0  0  0  0  0  0  0  0  0  0  0
   -4.8284   19.7247  -32.7903 H   0  0  0  0  0  0  0  0  0  0  0  0
   -3.6776   22.4291  -31.3269 H   0  0  0  0  0  0  0  0  0  0  0  0
   -3.3833   21.5800  -32.8823 H   0  0  0  0  0  0  0  0  0  0  0  0
   -4.0261   23.2574  -32.8823 H   0  0  0  0  0  0  0  0  0  0  0  0
   -6.7818   25.6014  -30.6627 H   0  0  0  0  0  0  0  0  0  0  0  0
   -6.8758   23.9876  -29.8596 H   0  0  0  0  0  0  0  0  0  0  0  0
   -5.4240   24.2220  -28.0120 H   0  0  0  0  0  0  0  0  0  0  0  0
   -4.0557   25.2083  -26.1519 H   0  0  0  0  0  0  0  0  0  0  0  0
   -1.7990   25.3077  -25.0956 H   0  0  0  0  0  0  0  0  0  0  0  0
    0.2240   24.6358  -26.3973 H   0  0  0  0  0  0  0  0  0  0  0  0
   -0.0138   23.8428  -28.7515 H   0  0  0  0  0  0  0  0  0  0  0  0
   -2.2676   23.7454  -29.8194 H   0  0  0  0  0  0  0  0  0  0  0  0
   -8.6753   22.7610  -31.8328 H   0  0  0  0  0  0  0  0  0  0  0  0
   -9.8143   20.0994  -31.2410 H   0  0  0  0  0  0  0  0  0  0  0  0
  -10.1460   20.9344  -32.7964 H   0  0  0  0  0  0  0  0  0  0  0  0
   -9.5310   19.2467  -32.7964 H   0  0  0  0  0  0  0  0  0  0  0  0
  1  2  1  0
  2  3  2  0
  3  4  1  0
  4  5  1  0
  4  6  2  0
  6  7  1  0
  7  8  1  0
  8  9  1  0
  9 10  2  0
  9 11  1  0
 11 12  1  0
 12 13  2  0
 13 14  1  0
 14 15  2  0
 15 16  1  0
 16 17  2  0
  6 18  1  0
 18 19  2  0
 19 20  1  0
 19  2  1  0
 17 12  1  0
  1 21  1  0
  1 22  1  0
  1 23  1  0
  3 24  1  0
  5 25  1  0
  5 26  1  0
  5 27  1  0
  8 28  1  0
  8 29  1  0
 11 30  1  0
 13 31  1  0
 14 32  1  0
 15 33  1  0
 16 34  1  0
 17 35  1  0
 18 36  1  0
 20 37  1  0
 20 38  1  0
 20 39  1  0
M  END
>  <UniqueID>  (10) 
10

>  <SMILES>  (10) 
Cc1cc(C)c(OCC(=O)Nc2ccccc2)cc1C

>  <Energy>  (10) 
41.47936986636975

>  <Genealogy>  (10) 
Cc1cc(C)c(OCC(=O)Nc2ccccc2)cc1C (3D coordinates assigned)
Cc1cc(C)c(OCC(=O)Nc2ccccc2)cc1C (optimized conformer: 41.47936986636975 kcal/mol)

>  <smiles>  (10) 
Cc1cc(C)c(OCC(=O)Nc2ccccc2)cc1C

>  <score_type>  (10) 
oracle

>  <origin>  (10) 
adgpu

>  <m_score__min__energy>  (10) 
-8.3000000000000007

>  <m_primary>  (10) 
energy

$$$$
10:0
     RDKit          3D

 35 37  0  0  0  0  0  0  0  0999 V2000
   -4.9960   25.6730  -29.8500 O   0  0  0  0  0  0  0  0  0  0  0  0
   -4.4760   24.5910  -30.2320 C   0  0  0  0  0  0  0  0  0  0  0  0
   -4.7210   24.1490  -31.5730 N   0  0  0  0  0  0  0  0  0  0  0  0
   -5.0190   22.8060  -31.9820 C   0  0  0  0  0  0  0  0  0  0  0  0
   -3.9800   21.9960  -32.4520 C   0  0  0  0  0  0  0  0  0  0  0  0
   -4.2350   20.6870  -32.8690 C   0  0  0  0  0  0  0  0  0  0  0  0
   -5.5420   20.1680  -32.8360 C   0  0  0  0  0  0  0  0  0  0  0  0
   -5.8150   18.7760  -33.2730 C   0  0  0  0  0  0  0  0  0  0  0  0
   -4.9900   18.1510  -34.2290 C   0  0  0  0  0  0  0  0  0  0  0  0
   -5.2510   16.8400  -34.6400 C   0  0  0  0  0  0  0  0  0  0  0  0
   -6.3320   16.1390  -34.1040 C   0  0  0  0  0  0  0  0  0  0  0  0
   -7.1580   16.7470  -33.1560 C   0  0  0  0  0  0  0  0  0  0  0  0
   -6.9040   18.0580  -32.7410 C   0  0  0  0  0  0  0  0  0  0  0  0
   -6.5880   20.9940  -32.3860 C   0  0  0  0  0  0  0  0  0  0  0  0
   -6.3300   22.3040  -31.9710 C   0  0  0  0  0  0  0  0  0  0  0  0
   -3.5770   23.8490  -29.3130 C   0  0  0  0  0  0  0  0  0  0  0  0
   -3.9350   22.5650  -28.8650 C   0  0  0  0  0  0  0  0  0  0  0  0
   -3.0940   21.8540  -28.0040 C   0  0  0  0  0  0  0  0  0  0  0  0
   -1.8840   22.4130  -27.5890 C   0  0  0  0  0  0  0  0  0  0  0  0
   -1.5110   23.6820  -28.0350 C   0  0  0  0  0  0  0  0  0  0  0  0
   -2.3480   24.4030  -28.8940 C   0  0  0  0  0  0  0  0  0  0  0  0
   -1.9580   25.6710  -29.3100 O   0  0  0  0  0  0  0  0  0  0  0  0
   -2.9547   22.3924  -32.4936 H   0  0  0  0  0  0  0  0  0  0  0  0
   -3.4069   20.0572  -33.2260 H   0  0  0  0  0  0  0  0  0  0  0  0
   -4.1355   18.6975  -34.6546 H   0  0  0  0  0  0  0  0  0  0  0  0
   -4.6025   16.3601  -35.3878 H   0  0  0  0  0  0  0  0  0  0  0  0
   -6.5336   15.1074  -34.4282 H   0  0  0  0  0  0  0  0  0  0  0  0
   -8.0102   16.1934  -32.7349 H   0  0  0  0  0  0  0  0  0  0  0  0
   -7.5586   18.5315  -31.9945 H   0  0  0  0  0  0  0  0  0  0  0  0
   -7.6171   20.6062  -32.3604 H   0  0  0  0  0  0  0  0  0  0  0  0
   -7.1584   22.9445  -31.6342 H   0  0  0  0  0  0  0  0  0  0  0  0
   -4.8839   22.1167  -29.1945 H   0  0  0  0  0  0  0  0  0  0  0  0
   -3.3859   20.8531  -27.6532 H   0  0  0  0  0  0  0  0  0  0  0  0
   -1.2241   21.8531  -26.9101 H   0  0  0  0  0  0  0  0  0  0  0  0
   -0.5546   24.1173  -27.7097 H   0  0  0  0  0  0  0  0  0  0  0  0
  1  2  2  0
  2  3  1  0
  3  4  1  0
  4  5  2  0
  5  6  1  0
  6  7  2  0
  7  8  1  0
  8  9  2  0
  9 10  1  0
 10 11  2  0
 11 12  1  0
 12 13  2  0
  7 14  1  0
 14 15  2  0
  2 16  1  0
 16 17  2  0
 17 18  1  0
 18 19  2  0
 19 20  1  0
 20 21  2  0
 21 22  1  0
 15  4  1  0
 21 16  1  0
 13  8  1  0
  5 23  1  0
  6 24  1  0
  9 25  1  0
 10 26  1  0
 11 27  1  0
 12 28  1  0
 13 29  1  0
 14 30  1  0
 15 31  1  0
 17 32  1  0
 18 33  1  0
 19 34  1  0
 20 35  1  0
M  CHG  2   3  -1  22  -1
M  END
>  <UniqueID>  (11) 
11

>  <SMILES>  (11) 
O=C([N-]c1ccc(-c2ccccc2)cc1)c1ccccc1[O-]

>  <Energy>  (11) 
51.36448138334368

>  <Genealogy>  (11) 
O=C([N-]c1ccc(-c2ccccc2)cc1)c1ccccc1[O-] (protonated)
O=C([N-]c1ccc(-c2ccccc2)cc1)c1ccccc1[O-] (3D coordinates assigned)
O=C([N-]c1ccc(-c2ccccc2)cc1)c1ccccc1[O-] (optimized conformer: 51.36448138334368 kcal/mol)

>  <smiles>  (11) 
O=C(Nc1ccc(-c2ccccc2)cc1)c1ccccc1O

>  <score_type>  (11) 
oracle

>  <origin>  (11) 
adgpu

>  <m_score__min__energy>  (11) 
-12.300000000000001

>  <m_primary>  (11) 
energy

$$$$
11:0
     RDKit          3D

 41 43  0  0  0  0  0  0  0  0999 V2000
    0.5990   17.6600  -33.8520 C   0  0  0  0  0  0  0  0  0  0  0  0
   -0.8610   17.7460  -33.7670 N   0  0  0  0  0  0  0  0  0  0  0  0
   -1.5590   18.9100  -34.2220 C   0  0  0  0  0  0  0  0  0  0  0  0
   -0.9380   19.9490  -34.5720 O   0  0  0  0  0  0  0  0  0  0  0  0
   -2.9480   18.8960  -34.2370 O   0  0  0  0  0  0  0  0  0  0  0  0
   -3.6850   17.6780  -34.0720 C   0  0  2  0  0  0  0  0  0  0  0  0
   -3.8500   17.0410  -35.4620 C   0  0  0  0  0  0  0  0  0  0  0  0
   -5.0580   17.9780  -33.4650 C   0  0  0  0  0  0  0  0  0  0  0  0
   -5.9930   16.9400  -33.2780 C   0  0  0  0  0  0  0  0  0  0  0  0
   -7.2460   17.1990  -32.7220 C   0  0  0  0  0  0  0  0  0  0  0  0
   -7.5910   18.4950  -32.3380 C   0  0  0  0  0  0  0  0  0  0  0  0
   -6.6800   19.5500  -32.5020 C   0  0  0  0  0  0  0  0  0  0  0  0
   -7.0450   20.9280  -32.0850 C   0  0  0  0  0  0  0  0  0  0  0  0
   -8.3960   21.3090  -31.9810 C   0  0  0  0  0  0  0  0  0  0  0  0
   -8.7380   22.6060  -31.5890 C   0  0  0  0  0  0  0  0  0  0  0  0
   -7.7390   23.5380  -31.2970 C   0  0  0  0  0  0  0  0  0  0  0  0
   -6.3920   23.1740  -31.3950 C   0  0  0  0  0  0  0  0  0  0  0  0
   -5.3630   24.1330  -31.0890 C   0  0  0  0  0  0  0  0  0  0  0  0
   -4.5360   24.9040  -30.8440 N   0  0  0  0  0  0  0  0  0  0  0  0
   -6.0450   21.8740  -31.7880 C   0  0  0  0  0  0  0  0  0  0  0  0
   -5.4180   19.2840  -33.0650 C   0  0  0  0  0  0  0  0  0  0  0  0
   -2.9470   16.7450  -33.1960 N   0  0  0  0  0  0  0  0  0  0  0  0
   -1.6430   16.7360  -33.0990 C   0  0  0  0  0  0  0  0  0  0  0  0
   -1.0070   15.7400  -32.2860 N   0  0  0  0  0  0  0  0  0  0  0  0
    1.0245   17.6349  -32.8379 H   0  0  0  0  0  0  0  0  0  0  0  0
    0.8816   16.7437  -34.3909 H   0  0  0  0  0  0  0  0  0  0  0  0
    0.9872   18.5368  -34.3909 H   0  0  0  0  0  0  0  0  0  0  0  0
   -4.1244   15.9817  -35.3497 H   0  0  0  0  0  0  0  0  0  0  0  0
   -4.6413   17.5680  -36.0153 H   0  0  0  0  0  0  0  0  0  0  0  0
   -2.9024   17.1176  -36.0153 H   0  0  0  0  0  0  0  0  0  0  0  0
   -5.7316   15.9133  -33.5740 H   0  0  0  0  0  0  0  0  0  0  0  0
   -7.9650   16.3778  -32.5858 H   0  0  0  0  0  0  0  0  0  0  0  0
   -8.5826   18.6912  -31.9042 H   0  0  0  0  0  0  0  0  0  0  0  0
   -9.1881   20.5808  -32.2099 H   0  0  0  0  0  0  0  0  0  0  0  0
   -9.7967   22.8939  -31.5101 H   0  0  0  0  0  0  0  0  0  0  0  0
   -8.0118   24.5584  -30.9899 H   0  0  0  0  0  0  0  0  0  0  0  0
   -4.9848   21.5910  -31.8649 H   0  0  0  0  0  0  0  0  0  0  0  0
   -4.6999   20.1069  -33.1958 H   0  0  0  0  0  0  0  0  0  0  0  0
   -3.4850   15.9960  -32.7030 H   0  0  0  0  0  0  0  0  0  0  0  0
   -1.5700   14.9920  -31.8240 H   0  0  0  0  0  0  0  0  0  0  0  0
    0.0180   15.7600  -32.0940 H   0  0  0  0  0  0  0  0  0  0  0  0
  1  2  1  0
  2  3  1  0
  3  4  2  0
  3  5  1  0
  5  6  1  0
  6  7  1  6
  6  8  1  0
  8  9  2  0
  9 10  1  0
 10 11  2  0
 11 12  1  0
 12 13  1  0
 13 14  2  0
 14 15  1  0
 15 16  2  0
 16 17  1  0
 17 18  1  0
 18 19  3  0
 17 20  2  0
 12 21  2  0
  6 22  1  0
 22 23  2  0
 23 24  1  0
 23  2  1  0
 21  8  1  0
 20 13  1  0
  1 25  1  0
  1 26  1  0
  1 27  1  0
  7 28  1  0
  7 29  1  0
  7 30  1  0
  9 31  1  0
 10 32  1  0
 11 33  1  0
 14 34  1  0
 15 35  1  0
 16 36  1  0
 20 37  1  0
 21 38  1  0
 22 39  1  0
 24 40  1  0
 24 41  1  0
M  CHG  1  22   1
M  END
>  <UniqueID>  (12) 
12

>  <SMILES>  (12) 
CN1C(=O)O[C@](C)(c2cccc(-c3cccc(C#N)c3)c2)[NH+]=C1N

>  <Energy>  (12) 
49.90539158738704

>  <Genealogy>  (12) 
CN1C(=O)OC(C)(c2cccc(-c3cccc(C#N)c3)c2)[NH+]=C1N (protonated)
CN1C(=O)O[C@](C)(c2cccc(-c3cccc(C#N)c3)c2)[NH+]=C1N (chirality)
CN1C(=O)O[C@](C)(c2cccc(-c3cccc(C#N)c3)c2)[NH+]=C1N (3D coordinates assigned)
CN1C(=O)O[C@](C)(c2cccc(-c3cccc(C#N)c3)c2)[NH+]=C1N (nonaromatic ring conformer: 49.90539158738704 kcal/mol)

>  <smiles>  (12) 
CN1C(=O)OC(C)(c2cccc(-c3cccc(C#N)c3)c2)N=C1N

>  <score_type>  (12) 
oracle

>  <origin>  (12) 
adgpu

>  <m_score__min__energy>  (12) 
-9.1999999999999993

>  <m_primary>  (12) 
energy

$$$$
12:0
     RDKit          3D

 42 44  0  0  0  0  0  0  0  0999 V2000
   -9.4550   21.9200  -31.1190 C   0  0  0  0  0  0  0  0  0  0  0  0
   -8.3700   22.1810  -32.0030 O   0  0  0  0  0  0  0  0  0  0  0  0
   -7.1840   22.8300  -31.6290 C   0  0  0  0  0  0  0  0  0  0  0  0
   -5.9340   22.5060  -32.1910 C   0  0  0  0  0  0  0  0  0  0  0  0
   -4.7830   23.1950  -31.7960 C   0  0  0  0  0  0  0  0  0  0  0  0
   -4.8630   24.2190  -30.8360 C   0  0  0  0  0  0  0  0  0  0  0  0
   -3.7180   24.9850  -30.4380 N   0  0  0  0  0  0  0  0  0  0  0  0
   -2.6070   24.5460  -29.1790 S   0  0  0  0  0  0  0  0  0  0  0  0
   -3.2660   24.7610  -27.8440 O   0  0  0  0  0  0  0  0  0  0  0  0
   -1.3920   25.4250  -29.2780 O   0  0  0  0  0  0  0  0  0  0  0  0
   -2.1030   22.8650  -29.3480 C   0  0  0  0  0  0  0  0  0  0  0  0
   -1.7580   22.1210  -28.2120 C   0  0  0  0  0  0  0  0  0  0  0  0
   -1.3620   20.7870  -28.3400 C   0  0  0  0  0  0  0  0  0  0  0  0
   -1.3300   20.1830  -29.6020 C   0  0  0  0  0  0  0  0  0  0  0  0
   -1.6980   20.9080  -30.7410 C   0  0  0  0  0  0  0  0  0  0  0  0
   -1.6680   20.2540  -32.0170 N   0  0  0  0  0  0  0  0  0  0  0  0
   -2.5830   20.4820  -33.1010 C   0  0  0  0  0  0  0  0  0  0  0  0
   -2.5060   21.5430  -33.7800 O   0  0  0  0  0  0  0  0  0  0  0  0
   -3.6510   19.4990  -33.3920 C   0  0  0  0  0  0  0  0  0  0  0  0
   -3.4110   18.3960  -34.2310 C   0  0  0  0  0  0  0  0  0  0  0  0
   -4.4030   17.5020  -34.4890 N   0  0  0  0  0  0  0  0  0  0  0  0
   -5.6460   17.6340  -33.9560 C   0  0  0  0  0  0  0  0  0  0  0  0
   -5.9340   18.7130  -33.1180 C   0  0  0  0  0  0  0  0  0  0  0  0
   -7.6780   18.9070  -32.3620 Br  0  0  0  0  0  0  0  0  0  0  0  0
   -4.9350   19.6470  -32.8370 C   0  0  0  0  0  0  0  0  0  0  0  0
   -2.0440   22.2640  -30.6130 C   0  0  0  0  0  0  0  0  0  0  0  0
   -6.1040   24.5260  -30.2650 C   0  0  0  0  0  0  0  0  0  0  0  0
   -7.2550   23.8400  -30.6610 C   0  0  0  0  0  0  0  0  0  0  0  0
   -9.1083   22.0034  -30.0784 H   0  0  0  0  0  0  0  0  0  0  0  0
  -10.2576   22.6507  -31.2978 H   0  0  0  0  0  0  0  0  0  0  0  0
   -9.8374   20.9042  -31.2978 H   0  0  0  0  0  0  0  0  0  0  0  0
   -5.8627   21.7074  -32.9441 H   0  0  0  0  0  0  0  0  0  0  0  0
   -3.8102   22.9345  -32.2386 H   0  0  0  0  0  0  0  0  0  0  0  0
   -1.7990   22.5881  -27.2169 H   0  0  0  0  0  0  0  0  0  0  0  0
   -1.0751   20.2110  -27.4478 H   0  0  0  0  0  0  0  0  0  0  0  0
   -1.0142   19.1338  -29.6991 H   0  0  0  0  0  0  0  0  0  0  0  0
   -2.4168   18.2558  -34.6804 H   0  0  0  0  0  0  0  0  0  0  0  0
   -6.4246   16.8914  -34.1846 H   0  0  0  0  0  0  0  0  0  0  0  0
   -5.1528   20.5015  -32.1794 H   0  0  0  0  0  0  0  0  0  0  0  0
   -2.2700   22.8575  -31.5111 H   0  0  0  0  0  0  0  0  0  0  0  0
   -6.1733   25.3127  -29.4993 H   0  0  0  0  0  0  0  0  0  0  0  0
   -8.2248   24.0951  -30.2089 H   0  0  0  0  0  0  0  0  0  0  0  0
  1  2  1  0
  2  3  1  0
  3  4  2  0
  4  5  1  0
  5  6  2  0
  6  7  1  0
  7  8  1  0
  8  9  2  0
  8 10  2  0
  8 11  1  0
 11 12  2  0
 12 13  1  0
 13 14  2  0
 14 15  1  0
 15 16  1  0
 16 17  1  0
 17 18  2  0
 17 19  1  0
 19 20  2  0
 20 21  1  0
 21 22  2  0
 22 23  1  0
 23 24  1  0
 23 25  2  0
 15 26  2  0
  6 27  1  0
 27 28  2  0
 28  3  1  0
 26 11  1  0
 25 19  1  0
  1 29  1  0
  1 30  1  0
  1 31  1  0
  4 32  1  0
  5 33  1  0
 12 34  1  0
 13 35  1  0
 14 36  1  0
 20 37  1  0
 22 38  1  0
 25 39  1  0
 26 40  1  0
 27 41  1  0
 28 42  1  0
M  CHG  2   7  -1  16  -1
M  END
>  <UniqueID>  (13) 
13

>  <SMILES>  (13) 
COc1ccc([N-]S(=O)(=O)c2cccc([N-]C(=O)c3cncc(Br)c3)c2)cc1

>  <Energy>  (13) 
51.247820672573056

>  <Genealogy>  (13) 
COc1ccc([N-]S(=O)(=O)c2cccc([N-]C(=O)c3cncc(Br)c3)c2)cc1 (protonated)
COc1ccc([N-]S(=O)(=O)c2cccc([N-]C(=O)c3cncc(Br)c3)c2)cc1 (3D coordinates assigned)
COc1ccc([N-]S(=O)(=O)c2cccc([N-]C(=O)c3cncc(Br)c3)c2)cc1 (optimized conformer: 51.247820672573056 kcal/mol)

>  <smiles>  (13) 
COc1ccc(NS(=O)(=O)c2cccc(NC(=O)c3cncc(Br)c3)c2)cc1

>  <score_type>  (13) 
oracle

>  <origin>  (13) 
adgpu

>  <m_score__min__energy>  (13) 
-10.800000000000001

>  <m_primary>  (13) 
energy

$$$$
13:0
     RDKit          3D

 54 56  0  0  0  0  0  0  0  0999 V2000
   -0.4890   22.8490  -23.7680 C   0  0  0  0  0  0  0  0  0  0  0  0
   -0.3810   23.7450  -24.8690 O   0  0  0  0  0  0  0  0  0  0  0  0
   -0.5160   25.1390  -24.7770 C   0  0  0  0  0  0  0  0  0  0  0  0
    0.1590   25.8920  -23.7950 C   0  0  0  0  0  0  0  0  0  0  0  0
   -0.0190   27.2760  -23.7210 C   0  0  0  0  0  0  0  0  0  0  0  0
   -0.8670   27.9220  -24.6220 C   0  0  0  0  0  0  0  0  0  0  0  0
   -1.5330   27.1890  -25.6050 C   0  0  0  0  0  0  0  0  0  0  0  0
   -1.3620   25.7990  -25.6890 C   0  0  0  0  0  0  0  0  0  0  0  0
   -2.0530   25.0590  -26.7050 N   0  0  0  0  0  0  0  0  0  0  0  0
   -3.5100   24.9180  -26.6280 C   0  0  0  0  0  0  0  0  0  0  0  0
   -3.9910   23.9010  -27.6170 C   0  0  0  0  0  0  0  0  0  0  0  0
   -4.1180   22.7020  -27.2520 O   0  0  0  0  0  0  0  0  0  0  0  0
   -4.3250   24.3070  -28.9530 N   0  0  0  0  0  0  0  0  0  0  0  0
   -5.0930   23.5110  -29.8720 C   0  0  0  0  0  0  0  0  0  0  0  0
   -6.4300   23.8540  -30.1210 C   0  0  0  0  0  0  0  0  0  0  0  0
   -7.2030   23.0990  -31.0080 C   0  0  0  0  0  0  0  0  0  0  0  0
   -6.6480   21.9890  -31.6600 C   0  0  0  0  0  0  0  0  0  0  0  0
   -7.4610   21.1980  -32.6410 C   0  0  0  0  0  0  0  0  0  0  0  0
   -5.3000   21.6680  -31.4440 C   0  0  0  0  0  0  0  0  0  0  0  0
   -4.5260   22.4260  -30.5600 C   0  0  0  0  0  0  0  0  0  0  0  0
   -1.2190   24.6900  -28.1900 S   0  0  0  0  0  0  0  0  0  0  0  0
   -1.9940   25.2500  -29.3500 O   0  0  0  0  0  0  0  0  0  0  0  0
    0.1390   25.3400  -28.1830 O   0  0  0  0  0  0  0  0  0  0  0  0
   -1.0190   22.9490  -28.3870 C   0  0  0  0  0  0  0  0  0  0  0  0
   -1.0030   22.1060  -27.2680 C   0  0  0  0  0  0  0  0  0  0  0  0
   -0.8180   20.7290  -27.4230 C   0  0  0  0  0  0  0  0  0  0  0  0
   -0.6630   20.1760  -28.7020 C   0  0  0  0  0  0  0  0  0  0  0  0
   -0.4890   18.6940  -28.8570 C   0  0  0  0  0  0  0  0  0  0  0  0
   -0.7060   21.0170  -29.8250 C   0  0  0  0  0  0  0  0  0  0  0  0
   -0.8820   22.3950  -29.6680 C   0  0  0  0  0  0  0  0  0  0  0  0
   -0.4208   23.4145  -22.8270 H   0  0  0  0  0  0  0  0  0  0  0  0
   -1.4565   22.3276  -23.8132 H   0  0  0  0  0  0  0  0  0  0  0  0
    0.3269   22.1126  -23.8132 H   0  0  0  0  0  0  0  0  0  0  0  0
    0.8292   25.3876  -23.0834 H   0  0  0  0  0  0  0  0  0  0  0  0
    0.5100   27.8573  -22.9514 H   0  0  0  0  0  0  0  0  0  0  0  0
   -1.0105   29.0107  -24.5571 H   0  0  0  0  0  0  0  0  0  0  0  0
   -2.1950   27.7033  -26.3172 H   0  0  0  0  0  0  0  0  0  0  0  0
   -3.7897   24.5972  -25.6137 H   0  0  0  0  0  0  0  0  0  0  0  0
   -3.9743   25.8878  -26.8602 H   0  0  0  0  0  0  0  0  0  0  0  0
   -4.1860   25.3150  -29.1930 H   0  0  0  0  0  0  0  0  0  0  0  0
   -6.8737   24.7238  -29.6144 H   0  0  0  0  0  0  0  0  0  0  0  0
   -8.2507   23.3770  -31.1951 H   0  0  0  0  0  0  0  0  0  0  0  0
   -8.1460   20.5315  -32.0964 H   0  0  0  0  0  0  0  0  0  0  0  0
   -8.0430   21.8849  -33.2731 H   0  0  0  0  0  0  0  0  0  0  0  0
   -6.7903   20.5974  -33.2731 H   0  0  0  0  0  0  0  0  0  0  0  0
   -4.8492   20.8153  -31.9729 H   0  0  0  0  0  0  0  0  0  0  0  0
   -3.4676   22.1711  -30.4027 H   0  0  0  0  0  0  0  0  0  0  0  0
   -1.1368   22.5300  -26.2619 H   0  0  0  0  0  0  0  0  0  0  0  0
   -0.7939   20.0766  -26.5377 H   0  0  0  0  0  0  0  0  0  0  0  0
   -0.4340   18.2254  -27.8633 H   0  0  0  0  0  0  0  0  0  0  0  0
   -1.3447   18.2803  -29.4107 H   0  0  0  0  0  0  0  0  0  0  0  0
    0.4393   18.4897  -29.4107 H   0  0  0  0  0  0  0  0  0  0  0  0
   -0.6007   20.5899  -30.8332 H   0  0  0  0  0  0  0  0  0  0  0  0
   -0.9132   23.0475  -30.5530 H   0  0  0  0  0  0  0  0  0  0  0  0
  1  2  1  0
  2  3  1  0
  3  4  2  0
  4  5  1  0
  5  6  2  0
  6  7  1  0
  7  8  2  0
  8  9  1  0
  9 10  1  0
 10 11  1  0
 11 12  2  0
 11 13  1  0
 13 14  1  0
 14 15  2  0
 15 16  1  0
 16 17  2  0
 17 18  1  0
 17 19  1  0
 19 20  2  0
  9 21  1  0
 21 22  2  0
 21 23  2  0
 21 24  1  0
 24 25  2  0
 25 26  1  0
 26 27  2  0
 27 28  1  0
 27 29  1  0
 29 30  2  0
  8  3  1  0
 20 14  1  0
 30 24  1  0
  1 31  1  0
  1 32  1  0
  1 33  1  0
  4 34  1  0
  5 35  1  0
  6 36  1  0
  7 37  1  0
 10 38  1  0
 10 39  1  0
 13 40  1  0
 15 41  1  0
 16 42  1  0
 18 43  1  0
 18 44  1  0
 18 45  1  0
 19 46  1  0
 20 47  1  0
 25 48  1  0
 26 49  1  0
 28 50  1  0
 28 51  1  0
 28 52  1  0
 29 53  1  0
 30 54  1  0
M  END
>  <UniqueID>  (14) 
14

>  <SMILES>  (14) 
COc1ccccc1N(CC(=O)Nc1ccc(C)cc1)S(=O)(=O)c1ccc(C)cc1

>  <Energy>  (14) 
56.448957340108436

>  <Genealogy>  (14) 
COc1ccccc1N(CC(=O)Nc1ccc(C)cc1)S(=O)(=O)c1ccc(C)cc1 (3D coordinates assigned)
COc1ccccc1N(CC(=O)Nc1ccc(C)cc1)S(=O)(=O)c1ccc(C)cc1 (optimized conformer: 56.448957340108436 kcal/mol)

>  <smiles>  (14) 
COc1ccccc1N(CC(=O)Nc1ccc(C)cc1)S(=O)(=O)c1ccc(C)cc1

>  <score_type>  (14) 
oracle

>  <origin>  (14) 
adgpu

>  <m_score__min__energy>  (14) 
-9.0399999999999991

>  <m_primary>  (14) 
energy

$$$$
14:0
     RDKit          3D

 63 65  0  0  0  0  0  0  0  0999 V2000
   -2.1926   21.3440  -33.3751 H   0  0  0  0  0  0  0  0  0  0  0  0
   -2.7960   20.5840  -32.8570 C   0  0  0  0  0  0  0  0  0  0  0  0
   -3.2730   20.8820  -31.6380 C   0  0  0  0  0  0  0  0  0  0  0  0
   -3.9192   20.1404  -31.1457 H   0  0  0  0  0  0  0  0  0  0  0  0
   -2.9880   22.1460  -30.9070 C   0  0  0  0  0  0  0  0  0  0  0  0
   -1.8190   22.2160  -30.1290 C   0  0  0  0  0  0  0  0  0  0  0  0
   -1.1631   21.3359  -30.0561 H   0  0  0  0  0  0  0  0  0  0  0  0
   -1.4760   23.3940  -29.4430 C   0  0  0  0  0  0  0  0  0  0  0  0
   -0.3150   23.4920  -28.6550 O   0  0  0  0  0  0  0  0  0  0  0  0
    0.0910   22.5360  -27.6830 C   0  0  0  0  0  0  0  0  0  0  0  0
   -0.0814   22.9418  -26.6752 H   0  0  0  0  0  0  0  0  0  0  0  0
   -0.4925   21.6124  -27.8111 H   0  0  0  0  0  0  0  0  0  0  0  0
    1.1608   22.3145  -27.8111 H   0  0  0  0  0  0  0  0  0  0  0  0
   -2.3130   24.5150  -29.5280 C   0  0  0  0  0  0  0  0  0  0  0  0
   -1.9500   25.6750  -28.8330 O   0  0  0  0  0  0  0  0  0  0  0  0
   -1.6480   25.6820  -27.4410 C   0  0  0  0  0  0  0  0  0  0  0  0
   -2.5835   25.6603  -26.8627 H   0  0  0  0  0  0  0  0  0  0  0  0
   -1.0428   24.7976  -27.1926 H   0  0  0  0  0  0  0  0  0  0  0  0
   -1.0845   26.5934  -27.1926 H   0  0  0  0  0  0  0  0  0  0  0  0
   -3.4760   24.4760  -30.3200 C   0  0  0  0  0  0  0  0  0  0  0  0
   -4.2610   25.6370  -30.4310 O   0  0  0  0  0  0  0  0  0  0  0  0
   -5.6730   25.6860  -30.2510 C   0  0  0  0  0  0  0  0  0  0  0  0
   -5.9055   25.6941  -29.1759 H   0  0  0  0  0  0  0  0  0  0  0  0
   -6.0709   26.5985  -30.7190 H   0  0  0  0  0  0  0  0  0  0  0  0
   -6.1332   24.8033  -30.7190 H   0  0  0  0  0  0  0  0  0  0  0  0
   -3.8080   23.2900  -31.0020 C   0  0  0  0  0  0  0  0  0  0  0  0
   -4.7191   23.2549  -31.6173 H   0  0  0  0  0  0  0  0  0  0  0  0
   -3.0330   19.2900  -33.5500 C   0  0  0  0  0  0  0  0  0  0  0  0
   -1.9860   18.4560  -33.9910 C   0  0  0  0  0  0  0  0  0  0  0  0
   -0.9425   18.7312  -33.7779 H   0  0  0  0  0  0  0  0  0  0  0  0
   -2.2630   17.2820  -34.6970 C   0  0  0  0  0  0  0  0  0  0  0  0
   -1.4360   16.6338  -35.0223 H   0  0  0  0  0  0  0  0  0  0  0  0
   -3.5920   16.9210  -34.9960 C   0  0  0  0  0  0  0  0  0  0  0  0
   -3.9050   15.7420  -35.6960 O   0  0  0  0  0  0  0  0  0  0  0  0
   -3.0830   14.5800  -35.7420 C   0  0  0  0  0  0  0  0  0  0  0  0
   -2.8520   14.2535  -34.7173 H   0  0  0  0  0  0  0  0  0  0  0  0
   -3.6143   13.7758  -36.2721 H   0  0  0  0  0  0  0  0  0  0  0  0
   -2.1478   14.8132  -36.2721 H   0  0  0  0  0  0  0  0  0  0  0  0
   -4.6400   17.7600  -34.5700 C   0  0  0  0  0  0  0  0  0  0  0  0
   -5.9790   17.4740  -34.8530 O   0  0  0  0  0  0  0  0  0  0  0  0
   -6.7410   16.5040  -34.1370 C   0  0  0  0  0  0  0  0  0  0  0  0
   -7.6337   16.2376  -34.7219 H   0  0  0  0  0  0  0  0  0  0  0  0
   -6.1232   15.6090  -33.9717 H   0  0  0  0  0  0  0  0  0  0  0  0
   -7.1750   17.0770  -32.7770 C   0  0  0  0  0  0  0  0  0  0  0  0
   -8.0826   16.5497  -32.4481 H   0  0  0  0  0  0  0  0  0  0  0  0
   -6.3389   16.9317  -32.0771 H   0  0  0  0  0  0  0  0  0  0  0  0
   -7.4650   18.5320  -32.8260 N   0  0  0  0  0  0  0  0  0  0  0  0
   -7.2540   18.8790  -33.7920 H   0  0  0  0  0  0  0  0  0  0  0  0
   -6.5740   19.2560  -31.8900 C   0  0  0  0  0  0  0  0  0  0  0  0
   -6.6640   18.8054  -30.8906 H   0  0  0  0  0  0  0  0  0  0  0  0
   -5.5429   19.1765  -32.2648 H   0  0  0  0  0  0  0  0  0  0  0  0
   -6.9420   20.7540  -31.8000 C   0  0  0  0  0  0  0  0  0  0  0  0
   -7.2821   20.9759  -30.7777 H   0  0  0  0  0  0  0  0  0  0  0  0
   -6.0476   21.3408  -32.0565 H   0  0  0  0  0  0  0  0  0  0  0  0
   -7.9680   21.1000  -32.7080 O   0  0  0  0  0  0  0  0  0  0  0  0
   -9.1340   20.3520  -32.4090 C   0  0  0  0  0  0  0  0  0  0  0  0
   -9.4555   20.5875  -31.3837 H   0  0  0  0  0  0  0  0  0  0  0  0
   -9.9119   20.6232  -33.1379 H   0  0  0  0  0  0  0  0  0  0  0  0
   -8.8800   18.8280  -32.5180 C   0  0  0  0  0  0  0  0  0  0  0  0
   -9.1439   18.3530  -31.5616 H   0  0  0  0  0  0  0  0  0  0  0  0
   -9.4997   18.4340  -33.3370 H   0  0  0  0  0  0  0  0  0  0  0  0
   -4.3550   18.9180  -33.8380 C   0  0  0  0  0  0  0  0  0  0  0  0
   -5.1829   19.5486  -33.4816 H   0  0  0  0  0  0  0  0  0  0  0  0
  1  2  1  0
  2  3  2  0
  3  4  1  0
  3  5  1  0
  5  6  2  0
  6  7  1  0
  6  8  1  0
  8  9  1  0
  9 10  1  0
 10 11  1  0
 10 12  1  0
 10 13  1  0
  8 14  2  0
 14 15  1  0
 15 16  1  0
 16 17  1  0
 16 18  1  0
 16 19  1  0
 14 20  1  0
 20 21  1  0
 21 22  1  0
 22 23  1  0
 22 24  1  0
 22 25  1  0
 20 26  2  0
 26 27  1  0
  2 28  1  0
 28 29  2  0
 29 30  1  0
 29 31  1  0
 31 32  1  0
 31 33  2  0
 33 34  1  0
 34 35  1  0
 35 36  1  0
 35 37  1  0
 35 38  1  0
 33 39  1  0
 39 40  1  0
 40 41  1  0
 41 42  1  0
 41 43  1  0
 41 44  1  0
 44 45  1  0
 44 46  1  0
 44 47  1  0
 47 48  1  0
 47 49  1  0
 49 50  1  0
 49 51  1  0
 49 52  1  0
 52 53  1  0
 52 54  1  0
 52 55  1  0
 55 56  1  0
 56 57  1  0
 56 58  1  0
 56 59  1  0
 59 60  1  0
 59 61  1  0
 39 62  2  0
 62 63  1  0
 26  5  1  0
 62 28  1  0
 59 47  1  0
M  CHG  1  47   1
M  END
>  <UniqueID>  (15) 
15

>  <SMILES>  (15) 
COc1ccc(/C=C/c2cc(OC)c(OC)c(OC)c2)cc1OCC[NH+]1CCOCC1

>  <Energy>  (15) 
86.80259238976295

>  <Genealogy>  (15) 
COc1ccc(C=Cc2cc(OC)c(OC)c(OC)c2)cc1OCC[NH+]1CCOCC1 (protonated)
COc1ccc(/C=C/c2cc(OC)c(OC)c(OC)c2)cc1OCC[NH+]1CCOCC1 (cis-trans isomerization)
COc1ccc(/C=C/c2cc(OC)c(OC)c(OC)c2)cc1OCC[NH+]1CCOCC1 (3D coordinates assigned)
COc1ccc(/C=C/c2cc(OC)c(OC)c(OC)c2)cc1OCC[NH+]1CCOCC1 (nonaromatic ring conformer: 86.80259238976295 kcal/mol)

>  <smiles>  (15) 
COc1ccc(C=Cc2cc(OC)c(OC)c(OC)c2)cc1OCCN1CCOCC1

>  <score_type>  (15) 
oracle

>  <origin>  (15) 
adgpu

>  <m_score__min__energy>  (15) 
-7.2599999999999998

>  <m_primary>  (15) 
energy

$$$$
15:0
     RDKit          3D

 52 54  0  0  0  0  0  0  0  0999 V2000
   -1.1750   24.9770  -27.1700 C   0  0  0  0  0  0  0  0  0  0  0  0
   -1.8360   25.3000  -28.4750 C   0  0  0  0  0  0  0  0  0  0  0  0
   -1.2320   26.0370  -29.2980 O   0  0  0  0  0  0  0  0  0  0  0  0
   -3.1170   24.7660  -28.8340 N   0  0  0  0  0  0  0  0  0  0  0  0
   -3.4190   23.9660  -29.9860 C   0  0  0  0  0  0  0  0  0  0  0  0
   -2.5030   23.0330  -30.4960 C   0  0  0  0  0  0  0  0  0  0  0  0
   -2.8360   22.2500  -31.6020 C   0  0  0  0  0  0  0  0  0  0  0  0
   -4.1060   22.3620  -32.1990 C   0  0  0  0  0  0  0  0  0  0  0  0
   -4.4620   21.6020  -33.3240 O   0  0  0  0  0  0  0  0  0  0  0  0
   -4.7730   20.2330  -33.3330 C   0  0  0  0  0  0  0  0  0  0  0  0
   -6.1050   19.8000  -33.4220 C   0  0  0  0  0  0  0  0  0  0  0  0
   -6.4050   18.4390  -33.4910 C   0  0  0  0  0  0  0  0  0  0  0  0
   -5.3790   17.4830  -33.4680 C   0  0  0  0  0  0  0  0  0  0  0  0
   -5.7000   16.0140  -33.5980 C   0  0  0  0  0  0  0  0  0  0  0  0
   -4.9810   15.4830  -34.6530 F   0  0  0  0  0  0  0  0  0  0  0  0
   -5.3630   15.3380  -32.4370 F   0  0  0  0  0  0  0  0  0  0  0  0
   -7.0510   15.8250  -33.8310 F   0  0  0  0  0  0  0  0  0  0  0  0
   -4.0430   17.9160  -33.4230 C   0  0  0  0  0  0  0  0  0  0  0  0
   -3.7290   19.2840  -33.3360 C   0  0  0  0  0  0  0  0  0  0  0  0
   -2.3110   19.7070  -33.2660 C   0  0  0  0  0  0  0  0  0  0  0  0
   -1.5270   19.1310  -32.4620 O   0  0  0  0  0  0  0  0  0  0  0  0
   -1.8370   20.8020  -34.0640 N   0  0  0  0  0  0  0  0  0  0  0  0
   -0.4880   20.9240  -34.5450 C   0  0  0  0  0  0  0  0  0  0  0  0
   -0.0850   22.0160  -35.3330 C   0  0  0  0  0  0  0  0  0  0  0  0
    1.2370   22.1200  -35.7690 C   0  0  0  0  0  0  0  0  0  0  0  0
    2.1750   21.1510  -35.4100 C   0  0  0  0  0  0  0  0  0  0  0  0
    1.8040   20.0760  -34.5830 C   0  0  0  0  0  0  0  0  0  0  0  0
    2.8030   19.0040  -34.2250 C   0  0  0  0  0  0  0  0  0  0  0  0
    3.6220   19.4200  -33.1890 F   0  0  0  0  0  0  0  0  0  0  0  0
    2.1540   17.8490  -33.8250 F   0  0  0  0  0  0  0  0  0  0  0  0
    3.5840   18.7230  -35.3310 F   0  0  0  0  0  0  0  0  0  0  0  0
    0.4650   19.9630  -34.1690 C   0  0  0  0  0  0  0  0  0  0  0  0
   -5.0280   23.2950  -31.6890 C   0  0  0  0  0  0  0  0  0  0  0  0
   -6.3760   23.4490  -32.3340 C   0  0  0  0  0  0  0  0  0  0  0  0
   -4.6840   24.0770  -30.5740 C   0  0  0  0  0  0  0  0  0  0  0  0
   -1.8249   25.2946  -26.3413 H   0  0  0  0  0  0  0  0  0  0  0  0
   -1.0017   23.8927  -27.1052 H   0  0  0  0  0  0  0  0  0  0  0  0
   -0.2130   25.5066  -27.1052 H   0  0  0  0  0  0  0  0  0  0  0  0
   -1.5173   22.9183  -30.0214 H   0  0  0  0  0  0  0  0  0  0  0  0
   -2.1012   21.5404  -32.0101 H   0  0  0  0  0  0  0  0  0  0  0  0
   -6.9191   20.5395  -33.4375 H   0  0  0  0  0  0  0  0  0  0  0  0
   -7.4533   18.1137  -33.5639 H   0  0  0  0  0  0  0  0  0  0  0  0
   -3.2313   17.1744  -33.4563 H   0  0  0  0  0  0  0  0  0  0  0  0
   -2.5110   21.5720  -34.2810 H   0  0  0  0  0  0  0  0  0  0  0  0
   -0.8147   22.7921  -35.6073 H   0  0  0  0  0  0  0  0  0  0  0  0
    1.5408   22.9695  -36.3983 H   0  0  0  0  0  0  0  0  0  0  0  0
    3.2095   21.2286  -35.7757 H   0  0  0  0  0  0  0  0  0  0  0  0
    0.1600   19.1115  -33.5429 H   0  0  0  0  0  0  0  0  0  0  0  0
   -7.1474   23.5371  -31.5548 H   0  0  0  0  0  0  0  0  0  0  0  0
   -6.3819   24.3537  -32.9597 H   0  0  0  0  0  0  0  0  0  0  0  0
   -6.5858   22.5690  -32.9597 H   0  0  0  0  0  0  0  0  0  0  0  0
   -5.4169   24.7843  -30.1585 H   0  0  0  0  0  0  0  0  0  0  0  0
  1  2  1  0
  2  3  2  0
  2  4  1  0
  4  5  1  0
  5  6  2  0
  6  7  1  0
  7  8  2  0
  8  9  1  0
  9 10  1  0
 10 11  2  0
 11 12  1  0
 12 13  2  0
 13 14  1  0
 14 15  1  0
 14 16  1  0
 14 17  1  0
 13 18  1  0
 18 19  2  0
 19 20  1  0
 20 21  2  0
 20 22  1  0
 22 23  1  0
 23 24  2  0
 24 25  1  0
 25 26  2  0
 26 27  1  0
 27 28  1  0
 28 29  1  0
 28 30  1  0
 28 31  1  0
 27 32  2  0
  8 33  1  0
 33 34  1  0
 33 35  2  0
 35  5  1  0
 19 10  1  0
 32 23  1  0
  1 36  1  0
  1 37  1  0
  1 38  1  0
  6 39  1  0
  7 40  1  0
 11 41  1  0
 12 42  1  0
 18 43  1  0
 22 44  1  0
 24 45  1  0
 25 46  1  0
 26 47  1  0
 32 48  1  0
 34 49  1  0
 34 50  1  0
 34 51  1  0
 35 52  1  0
M  CHG  1   4  -1
M  END
>  <UniqueID>  (16) 
16

>  <SMILES>  (16) 
CC(=O)[N-]c1ccc(Oc2ccc(C(F)(F)F)cc2C(=O)Nc2cccc(C(F)(F)F)c2)c(C)c1

>  <Energy>  (16) 
70.85125495337152

>  <Genealogy>  (16) 
CC(=O)[N-]c1ccc(Oc2ccc(C(F)(F)F)cc2C(=O)Nc2cccc(C(F)(F)F)c2)c(C)c1 (protonated)
CC(=O)[N-]c1ccc(Oc2ccc(C(F)(F)F)cc2C(=O)Nc2cccc(C(F)(F)F)c2)c(C)c1 (3D coordinates assigned)
CC(=O)[N-]c1ccc(Oc2ccc(C(F)(F)F)cc2C(=O)Nc2cccc(C(F)(F)F)c2)c(C)c1 (optimized conformer: 70.85125495337152 kcal/mol)

>  <smiles>  (16) 
CC(=O)Nc1ccc(Oc2ccc(C(F)(F)F)cc2C(=O)Nc2cccc(C(F)(F)F)c2)c(C)c1

>  <score_type>  (16) 
oracle

>  <origin>  (16) 
adgpu

>  <m_score__min__energy>  (16) 
-9.4499999999999993

>  <m_primary>  (16) 
energy

$$$$
16:0
     RDKit          3D

 43 45  0  0  0  0  0  0  0  0999 V2000
   -9.3000   20.3430  -32.4470 C   0  0  0  0  0  0  0  0  0  0  0  0
   -8.2290   21.2190  -31.8680 C   0  0  0  0  0  0  0  0  0  0  0  0
   -6.9840   21.3230  -32.5010 C   0  0  0  0  0  0  0  0  0  0  0  0
   -5.9710   22.1100  -31.9440 C   0  0  0  0  0  0  0  0  0  0  0  0
   -6.1860   22.8010  -30.7370 C   0  0  0  0  0  0  0  0  0  0  0  0
   -5.1040   23.6290  -30.1490 C   0  0  0  0  0  0  0  0  0  0  0  0
   -4.4410   24.4040  -30.8910 O   0  0  0  0  0  0  0  0  0  0  0  0
   -4.8390   23.5980  -28.7380 N   0  0  0  0  0  0  0  0  0  0  0  0
   -3.5910   24.0160  -28.1630 C   0  0  0  0  0  0  0  0  0  0  0  0
   -2.3230   23.8070  -28.6850 C   0  0  0  0  0  0  0  0  0  0  0  0
   -1.9970   23.0490  -29.9370 C   0  0  0  0  0  0  0  0  0  0  0  0
   -1.4240   24.4680  -27.9120 N   0  0  0  0  0  0  0  0  0  0  0  0
    0.0200   24.5410  -28.1490 C   0  0  0  0  0  0  0  0  0  0  0  0
   -2.0730   25.0620  -26.9110 N   0  0  0  0  0  0  0  0  0  0  0  0
   -1.4710   25.8380  -25.8600 C   0  0  0  0  0  0  0  0  0  0  0  0
   -1.0760   25.2230  -24.6610 C   0  0  0  0  0  0  0  0  0  0  0  0
   -0.4820   25.9760  -23.6440 C   0  0  0  0  0  0  0  0  0  0  0  0
   -0.2720   27.3470  -23.8190 C   0  0  0  0  0  0  0  0  0  0  0  0
   -0.6540   27.9650  -25.0130 C   0  0  0  0  0  0  0  0  0  0  0  0
   -1.2490   27.2140  -26.0320 C   0  0  0  0  0  0  0  0  0  0  0  0
   -3.3910   24.8170  -27.0560 C   0  0  0  0  0  0  0  0  0  0  0  0
   -4.2870   25.2820  -26.3010 O   0  0  0  0  0  0  0  0  0  0  0  0
   -7.4280   22.6700  -30.0910 C   0  0  0  0  0  0  0  0  0  0  0  0
   -8.4390   21.8820  -30.6510 C   0  0  0  0  0  0  0  0  0  0  0  0
   -9.8717   19.8754  -31.6318 H   0  0  0  0  0  0  0  0  0  0  0  0
   -9.9755   20.9508  -33.0669 H   0  0  0  0  0  0  0  0  0  0  0  0
   -8.8382   19.5604  -33.0669 H   0  0  0  0  0  0  0  0  0  0  0  0
   -6.8019   20.7826  -33.4416 H   0  0  0  0  0  0  0  0  0  0  0  0
   -4.9991   22.1895  -32.4530 H   0  0  0  0  0  0  0  0  0  0  0  0
   -5.6170   23.3450  -28.0900 H   0  0  0  0  0  0  0  0  0  0  0  0
   -1.5752   22.0682  -29.6725 H   0  0  0  0  0  0  0  0  0  0  0  0
   -2.9134   22.9065  -30.5285 H   0  0  0  0  0  0  0  0  0  0  0  0
   -1.2633   23.6162  -30.5285 H   0  0  0  0  0  0  0  0  0  0  0  0
    0.5489   24.5677  -27.1849 H   0  0  0  0  0  0  0  0  0  0  0  0
    0.3430   23.6580  -28.7200 H   0  0  0  0  0  0  0  0  0  0  0  0
    0.2523   25.4520  -28.7200 H   0  0  0  0  0  0  0  0  0  0  0  0
   -1.2348   24.1435  -24.5214 H   0  0  0  0  0  0  0  0  0  0  0  0
   -0.1795   25.4893  -22.7051 H   0  0  0  0  0  0  0  0  0  0  0  0
    0.1937   27.9391  -23.0174 H   0  0  0  0  0  0  0  0  0  0  0  0
   -0.4865   29.0433  -25.1515 H   0  0  0  0  0  0  0  0  0  0  0  0
   -1.5443   27.7032  -26.9720 H   0  0  0  0  0  0  0  0  0  0  0  0
   -7.6059   23.1908  -29.1386 H   0  0  0  0  0  0  0  0  0  0  0  0
   -9.4044   21.7820  -30.1333 H   0  0  0  0  0  0  0  0  0  0  0  0
  1  2  1  0
  2  3  2  0
  3  4  1  0
  4  5  2  0
  5  6  1  0
  6  7  2  0
  6  8  1  0
  8  9  1  0
  9 10  2  0
 10 11  1  0
 10 12  1  0
 12 13  1  0
 12 14  1  0
 14 15  1  0
 15 16  2  0
 16 17  1  0
 17 18  2  0
 18 19  1  0
 19 20  2  0
 14 21  1  0
 21 22  2  0
  5 23  1  0
 23 24  2  0
 24  2  1  0
 21  9  1  0
 20 15  1  0
  1 25  1  0
  1 26  1  0
  1 27  1  0
  3 28  1  0
  4 29  1  0
  8 30  1  0
 11 31  1  0
 11 32  1  0
 11 33  1  0
 13 34  1  0
 13 35  1  0
 13 36  1  0
 16 37  1  0
 17 38  1  0
 18 39  1  0
 19 40  1  0
 20 41  1  0
 23 42  1  0
 24 43  1  0
M  END
>  <UniqueID>  (17) 
17

>  <SMILES>  (17) 
Cc1ccc(C(=O)Nc2c(C)n(C)n(-c3ccccc3)c2=O)cc1

>  <Energy>  (17) 
90.4261551915854

>  <Genealogy>  (17) 
Cc1ccc(C(=O)Nc2c(C)n(C)n(-c3ccccc3)c2=O)cc1 (3D coordinates assigned)
Cc1ccc(C(=O)Nc2c(C)n(C)n(-c3ccccc3)c2=O)cc1 (optimized conformer: 90.4261551915854 kcal/mol)

>  <smiles>  (17) 
Cc1ccc(C(=O)Nc2c(C)n(C)n(-c3ccccc3)c2=O)cc1

>  <score_type>  (17) 
oracle

>  <origin>  (17) 
adgpu

>  <m_score__min__energy>  (17) 
-8.5399999999999991

>  <m_primary>  (17) 
energy

$$$$
17:0
     RDKit          3D

 55 58  0  0  0  0  0  0  0  0999 V2000
    1.9240   24.8260  -26.4860 C   0  0  0  0  0  0  0  0  0  0  0  0
    0.5880   24.6780  -27.1510 C   0  0  0  0  0  0  0  0  0  0  0  0
    0.4430   23.8030  -28.2380 C   0  0  0  0  0  0  0  0  0  0  0  0
   -0.7940   23.6680  -28.8740 C   0  0  0  0  0  0  0  0  0  0  0  0
   -1.9070   24.3960  -28.4250 C   0  0  0  0  0  0  0  0  0  0  0  0
   -3.1690   24.2610  -29.0980 N   0  0  0  0  0  0  0  0  0  0  0  0
   -3.6610   25.2040  -29.8880 N   0  0  0  0  0  0  0  0  0  0  0  0
   -4.8560   24.7800  -30.3400 C   0  0  0  0  0  0  0  0  0  0  0  0
   -5.7510   25.6000  -31.2130 C   0  0  0  0  0  0  0  0  0  0  0  0
   -5.1410   23.5310  -29.8120 C   0  0  0  0  0  0  0  0  0  0  0  0
   -6.3960   22.7280  -30.0180 C   0  0  0  0  0  0  0  0  0  0  0  0
   -6.4330   22.1840  -31.3890 N   0  0  0  0  0  0  0  0  0  0  0  0
   -5.1000   21.6680  -31.7820 C   0  0  0  0  0  0  0  0  0  0  0  0
   -5.1840   20.6850  -32.9530 C   0  0  0  0  0  0  0  0  0  0  0  0
   -6.0460   19.5520  -32.5920 N   0  0  0  0  0  0  0  0  0  0  0  0
   -5.8400   18.2500  -33.1870 C   0  0  0  0  0  0  0  0  0  0  0  0
   -6.8680   17.2880  -33.1840 C   0  0  0  0  0  0  0  0  0  0  0  0
   -6.6660   16.0300  -33.7590 C   0  0  0  0  0  0  0  0  0  0  0  0
   -5.4380   15.7160  -34.3440 C   0  0  0  0  0  0  0  0  0  0  0  0
   -5.2420   14.4930  -34.9000 F   0  0  0  0  0  0  0  0  0  0  0  0
   -4.4060   16.6590  -34.3520 C   0  0  0  0  0  0  0  0  0  0  0  0
   -4.6040   17.9200  -33.7780 C   0  0  0  0  0  0  0  0  0  0  0  0
   -7.0950   19.7550  -31.5840 C   0  0  0  0  0  0  0  0  0  0  0  0
   -7.5510   21.2200  -31.5780 C   0  0  0  0  0  0  0  0  0  0  0  0
   -4.0310   23.2180  -29.0420 C   0  0  0  0  0  0  0  0  0  0  0  0
   -3.8120   21.9410  -28.2820 C   0  0  0  0  0  0  0  0  0  0  0  0
   -1.7540   25.2920  -27.3550 C   0  0  0  0  0  0  0  0  0  0  0  0
   -0.5170   25.4310  -26.7200 C   0  0  0  0  0  0  0  0  0  0  0  0
    1.7936   24.8116  -25.3939 H   0  0  0  0  0  0  0  0  0  0  0  0
    2.5781   23.9948  -26.7882 H   0  0  0  0  0  0  0  0  0  0  0  0
    2.3803   25.7802  -26.7882 H   0  0  0  0  0  0  0  0  0  0  0  0
    1.3068   23.2207  -28.5912 H   0  0  0  0  0  0  0  0  0  0  0  0
   -0.8961   22.9870  -29.7318 H   0  0  0  0  0  0  0  0  0  0  0  0
   -6.4170   26.2102  -30.5851 H   0  0  0  0  0  0  0  0  0  0  0  0
   -5.1405   26.2588  -31.8481 H   0  0  0  0  0  0  0  0  0  0  0  0
   -6.3540   24.9343  -31.8481 H   0  0  0  0  0  0  0  0  0  0  0  0
   -6.4187   21.8977  -29.2968 H   0  0  0  0  0  0  0  0  0  0  0  0
   -7.2687   23.3804  -29.8668 H   0  0  0  0  0  0  0  0  0  0  0  0
   -4.4642   22.5161  -32.0760 H   0  0  0  0  0  0  0  0  0  0  0  0
   -4.6772   21.1316  -30.9197 H   0  0  0  0  0  0  0  0  0  0  0  0
   -5.6040   21.1980  -33.8307 H   0  0  0  0  0  0  0  0  0  0  0  0
   -4.1756   20.3133  -33.1876 H   0  0  0  0  0  0  0  0  0  0  0  0
   -7.8384   17.5284  -32.7252 H   0  0  0  0  0  0  0  0  0  0  0  0
   -7.4762   15.2860  -33.7505 H   0  0  0  0  0  0  0  0  0  0  0  0
   -3.4374   16.4097  -34.8099 H   0  0  0  0  0  0  0  0  0  0  0  0
   -3.7890   18.6587  -33.7883 H   0  0  0  0  0  0  0  0  0  0  0  0
   -7.9536   19.1086  -31.8185 H   0  0  0  0  0  0  0  0  0  0  0  0
   -6.6923   19.5014  -30.5923 H   0  0  0  0  0  0  0  0  0  0  0  0
   -8.0405   21.4372  -32.5388 H   0  0  0  0  0  0  0  0  0  0  0  0
   -8.2359   21.3445  -30.7262 H   0  0  0  0  0  0  0  0  0  0  0  0
   -3.8472   22.1465  -27.2019 H   0  0  0  0  0  0  0  0  0  0  0  0
   -4.5994   21.2189  -28.5438 H   0  0  0  0  0  0  0  0  0  0  0  0
   -2.8290   21.5225  -28.5438 H   0  0  0  0  0  0  0  0  0  0  0  0
   -2.6133   25.8883  -27.0144 H   0  0  0  0  0  0  0  0  0  0  0  0
   -0.4081   26.1325  -25.8797 H   0  0  0  0  0  0  0  0  0  0  0  0
  1  2  1  0
  2  3  2  0
  3  4  1  0
  4  5  2  0
  5  6  1  0
  6  7  1  0
  7  8  2  0
  8  9  1  0
  8 10  1  0
 10 11  1  0
 11 12  1  0
 12 13  1  0
 13 14  1  0
 14 15  1  0
 15 16  1  0
 16 17  2  0
 17 18  1  0
 18 19  2  0
 19 20  1  0
 19 21  1  0
 21 22  2  0
 15 23  1  0
 23 24  1  0
 10 25  2  0
 25 26  1  0
  5 27  1  0
 27 28  2  0
 28  2  1  0
 25  6  1  0
 24 12  1  0
 22 16  1  0
  1 29  1  0
  1 30  1  0
  1 31  1  0
  3 32  1  0
  4 33  1  0
  9 34  1  0
  9 35  1  0
  9 36  1  0
 11 37  1  0
 11 38  1  0
 13 39  1  0
 13 40  1  0
 14 41  1  0
 14 42  1  0
 17 43  1  0
 18 44  1  0
 21 45  1  0
 22 46  1  0
 23 47  1  0
 23 48  1  0
 24 49  1  0
 24 50  1  0
 26 51  1  0
 26 52  1  0
 26 53  1  0
 27 54  1  0
 28 55  1  0
M  END
>  <UniqueID>  (18) 
18

>  <SMILES>  (18) 
Cc1ccc(-n2nc(C)c(CN3CCN(c4ccc(F)cc4)CC3)c2C)cc1

>  <Energy>  (18) 
100.67802626445102

>  <Genealogy>  (18) 
Cc1ccc(-n2nc(C)c(CN3CCN(c4ccc(F)cc4)CC3)c2C)cc1 (3D coordinates assigned)
Cc1ccc(-n2nc(C)c(CN3CCN(c4ccc(F)cc4)CC3)c2C)cc1 (nonaromatic ring conformer: 100.67802626445102 kcal/mol)

>  <smiles>  (18) 
Cc1ccc(-n2nc(C)c(CN3CCN(c4ccc(F)cc4)CC3)c2C)cc1

>  <score_type>  (18) 
oracle

>  <origin>  (18) 
adgpu

>  <m_score__min__energy>  (18) 
-8.9399999999999995

>  <m_primary>  (18) 
energy

$$$$
18:0
     RDKit          3D

 38 40  0  0  0  0  0  0  0  0999 V2000
   -4.3080   21.7470  -34.3660 H   0  0  0  0  0  0  0  0  0  0  0  0
   -3.9570   22.0450  -33.4300 N   0  0  0  0  0  0  0  0  0  0  0  0
   -3.2180   21.2850  -32.6820 C   0  0  0  0  0  0  0  0  0  0  0  0
   -2.8200   20.0350  -33.0170 N   0  0  0  0  0  0  0  0  0  0  0  0
   -3.1570   19.2510  -34.2070 C   0  0  0  0  0  0  0  0  0  0  0  0
   -3.2589   19.9259  -35.0697 H   0  0  0  0  0  0  0  0  0  0  0  0
   -2.3561   18.5204  -34.3936 H   0  0  0  0  0  0  0  0  0  0  0  0
   -4.4530   18.5150  -33.9960 C   0  0  0  0  0  0  0  0  0  0  0  0
   -4.5280   17.1260  -34.1850 C   0  0  0  0  0  0  0  0  0  0  0  0
   -3.6289   16.5639  -34.4777 H   0  0  0  0  0  0  0  0  0  0  0  0
   -5.7400   16.4540  -34.0030 C   0  0  0  0  0  0  0  0  0  0  0  0
   -5.7919   15.3653  -34.1512 H   0  0  0  0  0  0  0  0  0  0  0  0
   -6.8860   17.1630  -33.6330 C   0  0  0  0  0  0  0  0  0  0  0  0
   -7.8387   16.6315  -33.4918 H   0  0  0  0  0  0  0  0  0  0  0  0
   -6.8240   18.5460  -33.4420 C   0  0  0  0  0  0  0  0  0  0  0  0
   -7.9740   19.2420  -33.0720 O   0  0  0  0  0  0  0  0  0  0  0  0
   -8.8160   19.2080  -33.6350 H   0  0  0  0  0  0  0  0  0  0  0  0
   -5.6090   19.2220  -33.6220 C   0  0  0  0  0  0  0  0  0  0  0  0
   -5.5601   20.3103  -33.4699 H   0  0  0  0  0  0  0  0  0  0  0  0
   -2.0810   19.6090  -31.9710 C   0  0  0  0  0  0  0  0  0  0  0  0
   -1.5969   18.6248  -31.8868 H   0  0  0  0  0  0  0  0  0  0  0  0
   -2.0330   20.6140  -31.0230 C   0  0  0  0  0  0  0  0  0  0  0  0
   -1.4955   20.5677  -30.0644 H   0  0  0  0  0  0  0  0  0  0  0  0
   -2.7560   21.6610  -31.4710 N   0  0  0  0  0  0  0  0  0  0  0  0
   -2.9240   22.9520  -30.8060 C   0  0  0  0  0  0  0  0  0  0  0  0
   -2.5089   22.8941  -29.7890 H   0  0  0  0  0  0  0  0  0  0  0  0
   -2.3954   23.7254  -31.3826 H   0  0  0  0  0  0  0  0  0  0  0  0
   -4.3860   23.3080  -30.7280 C   0  0  0  0  0  0  0  0  0  0  0  0
   -5.3570   22.2960  -30.8220 C   0  0  0  0  0  0  0  0  0  0  0  0
   -5.0445   21.2460  -30.9213 H   0  0  0  0  0  0  0  0  0  0  0  0
   -6.7180   22.6160  -30.7900 C   0  0  0  0  0  0  0  0  0  0  0  0
   -7.9210   21.3430  -30.9050 Cl  0  0  0  0  0  0  0  0  0  0  0  0
   -7.1200   23.9490  -30.6720 C   0  0  0  0  0  0  0  0  0  0  0  0
   -8.1908   24.1994  -30.6444 H   0  0  0  0  0  0  0  0  0  0  0  0
   -6.1640   24.9640  -30.5890 C   0  0  0  0  0  0  0  0  0  0  0  0
   -6.4840   26.0126  -30.4990 H   0  0  0  0  0  0  0  0  0  0  0  0
   -4.8000   24.6510  -30.6200 C   0  0  0  0  0  0  0  0  0  0  0  0
   -3.8660   25.6780  -30.5450 O   0  0  0  0  0  0  0  0  0  0  0  0
  1  2  1  0
  2  3  2  0
  3  4  1  0
  4  5  1  0
  5  6  1  0
  5  7  1  0
  5  8  1  0
  8  9  2  0
  9 10  1  0
  9 11  1  0
 11 12  1  0
 11 13  2  0
 13 14  1  0
 13 15  1  0
 15 16  1  0
 16 17  1  0
 15 18  2  0
 18 19  1  0
  4 20  1  0
 20 21  1  0
 20 22  2  0
 22 23  1  0
 22 24  1  0
 24 25  1  0
 25 26  1  0
 25 27  1  0
 25 28  1  0
 28 29  2  0
 29 30  1  0
 29 31  1  0
 31 32  1  0
 31 33  2  0
 33 34  1  0
 33 35  1  0
 35 36  1  0
 35 37  2  0
 37 38  1  0
 24  3  1  0
 37 28  1  0
 18  8  1  0
M  CHG  1  38  -1
M  END
>  <UniqueID>  (19) 
19

>  <SMILES>  (19) 
[H]/N=c1\n(Cc2cccc(O)c2)ccn1Cc1cc(Cl)ccc1[O-]

>  <Energy>  (19) 
70.88974458309293

>  <Genealogy>  (19) 
N=c1n(Cc2cccc(O)c2)ccn1Cc1cc(Cl)ccc1[O-] (protonated)
[H]/N=c1\n(Cc2cccc(O)c2)ccn1Cc1cc(Cl)ccc1[O-] (cis-trans isomerization)
[H]/N=c1\n(Cc2cccc(O)c2)ccn1Cc1cc(Cl)ccc1[O-] (3D coordinates assigned)
[H]/N=c1\n(Cc2cccc(O)c2)ccn1Cc1cc(Cl)ccc1[O-] (optimized conformer: 70.88974458309293 kcal/mol)

>  <smiles>  (19) 
N=c1n(Cc2cccc(O)c2)ccn1Cc1cc(Cl)ccc1O

>  <score_type>  (19) 
oracle

>  <origin>  (19) 
adgpu

>  <m_score__min__energy>  (19) 
-10.699999999999999

>  <m_primary>  (19) 
energy

$$$$
19:0
     RDKit          3D

 24 24  0  0  0  0  0  0  0  0999 V2000
   -6.6990   22.7010  -29.7270 C   0  0  0  0  0  0  0  0  0  0  0  0
   -6.2020   23.5190  -30.9330 C   0  0  0  0  0  0  0  0  0  0  0  0
   -4.8070   23.0330  -31.3690 C   0  0  0  0  0  0  0  0  0  0  0  0
   -6.1100   24.9980  -30.5270 C   0  0  0  0  0  0  0  0  0  0  0  0
   -7.3990   23.4150  -32.3360 S   0  0  0  0  0  0  0  0  0  0  0  0
   -7.6810   21.6410  -32.3370 C   0  0  0  0  0  0  0  0  0  0  0  0
   -8.9120   21.1210  -31.9230 C   0  0  0  0  0  0  0  0  0  0  0  0
   -9.1180   19.7410  -31.9640 C   0  0  0  0  0  0  0  0  0  0  0  0
   -8.1060   18.9000  -32.4290 C   0  0  0  0  0  0  0  0  0  0  0  0
   -6.8980   19.4580  -32.8550 C   0  0  0  0  0  0  0  0  0  0  0  0
   -6.7150   20.8050  -32.8070 N   0  0  0  0  0  0  0  0  0  0  0  0
   -6.3955   23.2004  -28.7951 H   0  0  0  0  0  0  0  0  0  0  0  0
   -7.7958   22.6254  -29.7622 H   0  0  0  0  0  0  0  0  0  0  0  0
   -6.2607   21.6927  -29.7622 H   0  0  0  0  0  0  0  0  0  0  0  0
   -4.1977   22.8207  -30.4781 H   0  0  0  0  0  0  0  0  0  0  0  0
   -4.9090   22.1174  -31.9701 H   0  0  0  0  0  0  0  0  0  0  0  0
   -4.3180   23.8137  -31.9701 H   0  0  0  0  0  0  0  0  0  0  0  0
   -6.1051   25.0774  -29.4299 H   0  0  0  0  0  0  0  0  0  0  0  0
   -5.1831   25.4319  -30.9302 H   0  0  0  0  0  0  0  0  0  0  0  0
   -6.9760   25.5435  -30.9302 H   0  0  0  0  0  0  0  0  0  0  0  0
   -9.7086   21.7920  -31.5692 H   0  0  0  0  0  0  0  0  0  0  0  0
  -10.0766   19.3170  -31.6303 H   0  0  0  0  0  0  0  0  0  0  0  0
   -8.2576   17.8109  -32.4598 H   0  0  0  0  0  0  0  0  0  0  0  0
   -6.0941   18.8073  -33.2296 H   0  0  0  0  0  0  0  0  0  0  0  0
  1  2  1  0
  2  3  1  0
  2  4  1  0
  2  5  1  0
  5  6  1  0
  6  7  2  0
  7  8  1  0
  8  9  2  0
  9 10  1  0
 10 11  2  0
 11  6  1  0
  1 12  1  0
  1 13  1  0
  1 14  1  0
  3 15  1  0
  3 16  1  0
  3 17  1  0
  4 18  1  0
  4 19  1  0
  4 20  1  0
  7 21  1  0
  8 22  1  0
  9 23  1  0
 10 24  1  0
M  END
>  <UniqueID>  (20) 
20

>  <SMILES>  (20) 
CC(C)(C)Sc1ccccn1

>  <Energy>  (20) 
15.915471445669159

>  <Genealogy>  (20) 
CC(C)(C)Sc1ccccn1 (3D coordinates assigned)
CC(C)(C)Sc1ccccn1 (optimized conformer: 15.915471445669159 kcal/mol)

>  <smiles>  (20) 
CC(C)(C)Sc1ccccn1

>  <score_type>  (20) 
oracle

>  <origin>  (20) 
adgpu

>  <m_score__min__energy>  (20) 
-5.0599999999999996

>  <m_primary>  (20) 
energy

$$$$
20:0
     RDKit          3D

 32 34  0  0  0  0  0  0  0  0999 V2000
   -1.2450   25.8110  -28.9120 N   0  0  0  0  0  0  0  0  0  0  0  0
   -1.3870   24.4790  -28.4010 C   0  0  0  0  0  0  0  0  0  0  0  0
   -0.3610   23.9570  -27.5970 C   0  0  0  0  0  0  0  0  0  0  0  0
   -0.4940   22.7020  -26.9970 C   0  0  0  0  0  0  0  0  0  0  0  0
   -1.6540   21.9560  -27.1940 C   0  0  0  0  0  0  0  0  0  0  0  0
   -2.6770   22.4500  -28.0040 C   0  0  0  0  0  0  0  0  0  0  0  0
   -2.5530   23.7010  -28.6350 C   0  0  0  0  0  0  0  0  0  0  0  0
   -3.6330   24.1270  -29.5540 C   0  0  0  0  0  0  0  0  0  0  0  0
   -4.8750   23.6030  -29.5790 N   0  0  0  0  0  0  0  0  0  0  0  0
   -5.4580   24.3440  -30.5430 C   0  0  0  0  0  0  0  0  0  0  0  0
   -6.8930   24.2050  -30.9360 C   0  0  0  0  0  0  0  0  0  0  0  0
   -7.1460   22.8240  -31.4770 C   0  0  0  0  0  0  0  0  0  0  0  0
   -8.4120   22.2310  -31.3400 C   0  0  0  0  0  0  0  0  0  0  0  0
   -8.6560   20.9620  -31.8730 C   0  0  0  0  0  0  0  0  0  0  0  0
   -7.6430   20.2820  -32.5550 C   0  0  0  0  0  0  0  0  0  0  0  0
   -6.3850   20.8720  -32.7070 C   0  0  0  0  0  0  0  0  0  0  0  0
   -6.1370   22.1410  -32.1750 C   0  0  0  0  0  0  0  0  0  0  0  0
   -4.6320   25.2770  -31.0510 N   0  0  0  0  0  0  0  0  0  0  0  0
   -3.5130   25.1090  -30.4160 O   0  0  0  0  0  0  0  0  0  0  0  0
   -1.6050   26.0520  -29.8630 H   0  0  0  0  0  0  0  0  0  0  0  0
   -0.6520   26.5250  -28.4370 H   0  0  0  0  0  0  0  0  0  0  0  0
    0.5569   24.5420  -27.4378 H   0  0  0  0  0  0  0  0  0  0  0  0
    0.3167   22.3033  -26.3695 H   0  0  0  0  0  0  0  0  0  0  0  0
   -1.7637   20.9746  -26.7095 H   0  0  0  0  0  0  0  0  0  0  0  0
   -3.5903   21.8548  -28.1507 H   0  0  0  0  0  0  0  0  0  0  0  0
   -7.5301   24.3737  -30.0553 H   0  0  0  0  0  0  0  0  0  0  0  0
   -7.1283   24.9466  -31.7137 H   0  0  0  0  0  0  0  0  0  0  0  0
   -9.2141   22.7670  -30.8115 H   0  0  0  0  0  0  0  0  0  0  0  0
   -9.6464   20.4980  -31.7556 H   0  0  0  0  0  0  0  0  0  0  0  0
   -7.8358   19.2826  -32.9721 H   0  0  0  0  0  0  0  0  0  0  0  0
   -5.5890   20.3372  -33.2459 H   0  0  0  0  0  0  0  0  0  0  0  0
   -5.1484   22.6058  -32.3036 H   0  0  0  0  0  0  0  0  0  0  0  0
  1  2  1  0
  2  3  2  0
  3  4  1  0
  4  5  2  0
  5  6  1  0
  6  7  2  0
  7  8  1  0
  8  9  2  0
  9 10  1  0
 10 11  1  0
 11 12  1  0
 12 13  2  0
 13 14  1  0
 14 15  2  0
 15 16  1  0
 16 17  2  0
 10 18  2  0
 18 19  1  0
  7  2  1  0
 19  8  1  0
 17 12  1  0
  1 20  1  0
  1 21  1  0
  3 22  1  0
  4 23  1  0
  5 24  1  0
  6 25  1  0
 11 26  1  0
 11 27  1  0
 13 28  1  0
 14 29  1  0
 15 30  1  0
 16 31  1  0
 17 32  1  0
M  END
>  <UniqueID>  (21) 
21

>  <SMILES>  (21) 
Nc1ccccc1-c1nc(Cc2ccccc2)no1

>  <Energy>  (21) 
70.29555997944794

>  <Genealogy>  (21) 
Nc1ccccc1-c1nc(Cc2ccccc2)no1 (3D coordinates assigned)
Nc1ccccc1-c1nc(Cc2ccccc2)no1 (optimized conformer: 70.29555997944794 kcal/mol)

>  <smiles>  (21) 
Nc1ccccc1-c1nc(Cc2ccccc2)no1

>  <score_type>  (21) 
oracle

>  <origin>  (21) 
adgpu

>  <m_score__min__energy>  (21) 
-9.0299999999999994

>  <m_primary>  (21) 
energy

$$$$
21:0
     RDKit          3D

 35 37  0  0  0  0  0  0  0  0999 V2000
   -7.1040   22.2720  -32.3640 O   0  0  0  0  0  0  0  0  0  0  0  0
   -6.0700   21.5930  -32.1110 C   0  0  0  0  0  0  0  0  0  0  0  0
   -6.0440   20.1610  -32.4920 C   0  0  0  0  0  0  0  0  0  0  0  0
   -5.1440   19.6860  -33.4620 C   0  0  0  0  0  0  0  0  0  0  0  0
   -5.1410   18.3370  -33.8260 C   0  0  0  0  0  0  0  0  0  0  0  0
   -6.0430   17.4350  -33.2360 C   0  0  0  0  0  0  0  0  0  0  0  0
   -6.0380   16.0000  -33.6220 C   0  0  0  0  0  0  0  0  0  0  0  0
   -4.9060   15.1980  -33.3820 C   0  0  0  0  0  0  0  0  0  0  0  0
   -4.9030   13.8490  -33.7470 C   0  0  0  0  0  0  0  0  0  0  0  0
   -6.0280   13.2840  -34.3540 C   0  0  0  0  0  0  0  0  0  0  0  0
   -7.1580   14.0690  -34.5960 C   0  0  0  0  0  0  0  0  0  0  0  0
   -7.1650   15.4190  -34.2340 C   0  0  0  0  0  0  0  0  0  0  0  0
   -6.9530   17.9140  -32.2790 C   0  0  0  0  0  0  0  0  0  0  0  0
   -6.9580   19.2640  -31.9160 C   0  0  0  0  0  0  0  0  0  0  0  0
   -4.9250   22.2580  -31.4420 C   0  0  0  0  0  0  0  0  0  0  0  0
   -3.8540   21.5080  -30.9240 C   0  0  0  0  0  0  0  0  0  0  0  0
   -2.7890   22.1450  -30.2810 C   0  0  0  0  0  0  0  0  0  0  0  0
   -2.7820   23.5350  -30.1340 C   0  0  0  0  0  0  0  0  0  0  0  0
   -1.7080   24.1450  -29.4880 O   0  0  0  0  0  0  0  0  0  0  0  0
   -3.8550   24.2920  -30.6330 C   0  0  0  0  0  0  0  0  0  0  0  0
   -3.8680   25.6750  -30.4920 O   0  0  0  0  0  0  0  0  0  0  0  0
   -4.9210   23.6540  -31.2780 C   0  0  0  0  0  0  0  0  0  0  0  0
   -4.4370   20.3815  -33.9379 H   0  0  0  0  0  0  0  0  0  0  0  0
   -4.4263   17.9777  -34.5811 H   0  0  0  0  0  0  0  0  0  0  0  0
   -4.0176   15.6363  -32.9038 H   0  0  0  0  0  0  0  0  0  0  0  0
   -4.0135   13.2307  -33.5562 H   0  0  0  0  0  0  0  0  0  0  0  0
   -6.0237   12.2221  -34.6410 H   0  0  0  0  0  0  0  0  0  0  0  0
   -8.0439   13.6238  -35.0724 H   0  0  0  0  0  0  0  0  0  0  0  0
   -8.0574   16.0319  -34.4287 H   0  0  0  0  0  0  0  0  0  0  0  0
   -7.6677   17.2209  -31.8113 H   0  0  0  0  0  0  0  0  0  0  0  0
   -7.6838   19.6265  -31.1732 H   0  0  0  0  0  0  0  0  0  0  0  0
   -3.8545   20.4127  -31.0256 H   0  0  0  0  0  0  0  0  0  0  0  0
   -1.9518   21.5492  -29.8885 H   0  0  0  0  0  0  0  0  0  0  0  0
   -1.1650   24.8800  -29.9250 H   0  0  0  0  0  0  0  0  0  0  0  0
   -5.7628   24.2503  -31.6598 H   0  0  0  0  0  0  0  0  0  0  0  0
  1  2  2  0
  2  3  1  0
  3  4  2  0
  4  5  1  0
  5  6  2  0
  6  7  1  0
  7  8  2  0
  8  9  1  0
  9 10  2  0
 10 11  1  0
 11 12  2  0
  6 13  1  0
 13 14  2  0
  2 15  1  0
 15 16  2  0
 16 17  1  0
 17 18  2  0
 18 19  1  0
 18 20  1  0
 20 21  1  0
 20 22  2  0
 14  3  1  0
 22 15  1  0
 12  7  1  0
  4 23  1  0
  5 24  1  0
  8 25  1  0
  9 26  1  0
 10 27  1  0
 11 28  1  0
 12 29  1  0
 13 30  1  0
 14 31  1  0
 16 32  1  0
 17 33  1  0
 19 34  1  0
 22 35  1  0
M  CHG  1  21  -1
M  END
>  <UniqueID>  (22) 
22

>  <SMILES>  (22) 
O=C(c1ccc(-c2ccccc2)cc1)c1ccc(O)c([O-])c1

>  <Energy>  (22) 
49.89162006211746

>  <Genealogy>  (22) 
O=C(c1ccc(-c2ccccc2)cc1)c1ccc(O)c([O-])c1 (protonated)
O=C(c1ccc(-c2ccccc2)cc1)c1ccc(O)c([O-])c1 (3D coordinates assigned)
O=C(c1ccc(-c2ccccc2)cc1)c1ccc(O)c([O-])c1 (optimized conformer: 49.89162006211746 kcal/mol)

>  <smiles>  (22) 
O=C(c1ccc(-c2ccccc2)cc1)c1ccc(O)c(O)c1

>  <score_type>  (22) 
oracle

>  <origin>  (22) 
adgpu

>  <m_score__min__energy>  (22) 
-10.27

>  <m_primary>  (22) 
energy

$$$$
22:0
     RDKit          3D

 33 35  0  0  0  0  0  0  0  0999 V2000
   -7.3802   24.6232  -31.9327 H   0  0  0  0  0  0  0  0  0  0  0  0
   -6.4040   24.4650  -31.4510 C   0  0  0  0  0  0  0  0  0  0  0  0
   -5.3920   25.6680  -30.8510 S   0  0  0  0  0  0  0  0  0  0  0  0
   -4.2330   24.5740  -30.3310 C   0  0  0  0  0  0  0  0  0  0  0  0
   -3.1100   24.9250  -29.7760 N   0  0  0  0  0  0  0  0  0  0  0  0
   -2.0880   24.0450  -29.2800 C   0  0  0  0  0  0  0  0  0  0  0  0
   -1.6500   24.2030  -27.9580 C   0  0  0  0  0  0  0  0  0  0  0  0
   -2.0762   25.0024  -27.3340 H   0  0  0  0  0  0  0  0  0  0  0  0
   -0.6760   23.3530  -27.4260 C   0  0  0  0  0  0  0  0  0  0  0  0
   -0.3283   23.4950  -26.3921 H   0  0  0  0  0  0  0  0  0  0  0  0
   -0.1430   22.3220  -28.2070 C   0  0  0  0  0  0  0  0  0  0  0  0
    1.0780   21.2550  -27.5390 Cl  0  0  0  0  0  0  0  0  0  0  0  0
   -0.5960   22.1360  -29.5170 C   0  0  0  0  0  0  0  0  0  0  0  0
   -0.1849   21.3195  -30.1288 H   0  0  0  0  0  0  0  0  0  0  0  0
   -1.5700   22.9850  -30.0510 C   0  0  0  0  0  0  0  0  0  0  0  0
   -1.9334   22.8251  -31.0768 H   0  0  0  0  0  0  0  0  0  0  0  0
   -4.5790   23.2980  -30.6120 N   0  0  0  0  0  0  0  0  0  0  0  0
   -5.7890   23.2310  -31.2310 C   0  0  0  0  0  0  0  0  0  0  0  0
   -6.3890   21.9440  -31.6270 C   0  0  0  0  0  0  0  0  0  0  0  0
   -7.3590   21.4830  -30.9670 O   0  0  0  0  0  0  0  0  0  0  0  0
   -5.8960   21.2400  -32.7790 N   0  0  0  0  0  0  0  0  0  0  0  0
   -5.3290   21.7730  -33.4770 H   0  0  0  0  0  0  0  0  0  0  0  0
   -6.2290   19.8760  -33.0920 C   0  0  0  0  0  0  0  0  0  0  0  0
   -5.4740   19.1860  -34.0530 C   0  0  0  0  0  0  0  0  0  0  0  0
   -4.6485   19.6976  -34.5697 H   0  0  0  0  0  0  0  0  0  0  0  0
   -5.7640   17.8530  -34.3580 C   0  0  0  0  0  0  0  0  0  0  0  0
   -5.1745   17.3234  -35.1209 H   0  0  0  0  0  0  0  0  0  0  0  0
   -6.8020   17.1920  -33.6950 C   0  0  0  0  0  0  0  0  0  0  0  0
   -7.0340   16.1452  -33.9408 H   0  0  0  0  0  0  0  0  0  0  0  0
   -7.5450   17.8630  -32.7190 C   0  0  0  0  0  0  0  0  0  0  0  0
   -8.3567   17.3409  -32.1912 H   0  0  0  0  0  0  0  0  0  0  0  0
   -7.2580   19.1960  -32.4130 C   0  0  0  0  0  0  0  0  0  0  0  0
   -7.8391   19.7167  -31.6376 H   0  0  0  0  0  0  0  0  0  0  0  0
  1  2  1  0
  2  3  1  0
  3  4  1  0
  4  5  2  0
  5  6  1  0
  6  7  2  0
  7  8  1  0
  7  9  1  0
  9 10  1  0
  9 11  2  0
 11 12  1  0
 11 13  1  0
 13 14  1  0
 13 15  2  0
 15 16  1  0
  4 17  1  0
 17 18  1  0
 18 19  1  0
 19 20  2  0
 19 21  1  0
 21 22  1  0
 21 23  1  0
 23 24  2  0
 24 25  1  0
 24 26  1  0
 26 27  1  0
 26 28  2  0
 28 29  1  0
 28 30  1  0
 30 31  1  0
 30 32  2  0
 32 33  1  0
 18  2  2  0
 32 23  1  0
 15  6  1  0
M  CHG  1  17  -1
M  END
>  <UniqueID>  (23) 
23

>  <SMILES>  (23) 
O=C(Nc1ccccc1)c1cs/c(=N/c2ccc(Cl)cc2)[n-]1

>  <Energy>  (23) 
73.95535728199741

>  <Genealogy>  (23) 
O=C(Nc1ccccc1)c1csc(=Nc2ccc(Cl)cc2)[n-]1 (protonated)
O=C(Nc1ccccc1)c1cs/c(=N/c2ccc(Cl)cc2)[n-]1 (cis-trans isomerization)
O=C(Nc1ccccc1)c1cs/c(=N/c2ccc(Cl)cc2)[n-]1 (3D coordinates assigned)
O=C(Nc1ccccc1)c1cs/c(=N/c2ccc(Cl)cc2)[n-]1 (optimized conformer: 73.95535728199741 kcal/mol)

>  <smiles>  (23) 
O=C(Nc1ccccc1)c1csc(=Nc2ccc(Cl)cc2)[nH]1

>  <score_type>  (23) 
oracle

>  <origin>  (23) 
adgpu

>  <m_score__min__energy>  (23) 
-8.8800000000000008

>  <m_primary>  (23) 
energy

$$$$
23:0
     RDKit          3D

 47 50  0  0  0  0  0  0  0  0999 V2000
   -1.3380   22.8060  -30.3960 O   0  0  0  0  0  0  0  0  0  0  0  0
   -2.4670   22.6900  -30.9420 C   0  0  0  0  0  0  0  0  0  0  0  0
   -3.3350   23.8330  -30.9650 N   0  0  0  0  0  0  0  0  0  0  0  0
   -4.7700   23.8100  -30.9590 C   0  0  0  0  0  0  0  0  0  0  0  0
   -5.5000   23.6080  -32.1450 C   0  0  0  0  0  0  0  0  0  0  0  0
   -6.8970   23.5710  -32.1150 C   0  0  0  0  0  0  0  0  0  0  0  0
   -7.5760   23.7240  -30.9040 C   0  0  0  0  0  0  0  0  0  0  0  0
   -6.8580   23.9040  -29.7190 C   0  0  0  0  0  0  0  0  0  0  0  0
   -5.4590   23.9400  -29.7420 C   0  0  0  0  0  0  0  0  0  0  0  0
   -4.5850   24.1700  -28.2330 Cl  0  0  0  0  0  0  0  0  0  0  0  0
   -2.8300   21.4090  -31.5980 C   0  0  0  0  0  0  0  0  0  0  0  0
   -3.9120   20.6400  -31.1360 C   0  0  0  0  0  0  0  0  0  0  0  0
   -4.2600   19.4490  -31.7800 C   0  0  0  0  0  0  0  0  0  0  0  0
   -3.5460   19.0160  -32.9050 C   0  0  0  0  0  0  0  0  0  0  0  0
   -4.0040   17.5130  -33.7190 S   0  0  0  0  0  0  0  0  0  0  0  0
   -4.2370   16.4490  -32.6820 O   0  0  0  0  0  0  0  0  0  0  0  0
   -2.8500   17.0710  -34.5740 O   0  0  0  0  0  0  0  0  0  0  0  0
   -5.4130   17.6890  -34.7530 N   0  0  0  0  0  0  0  0  0  0  0  0
   -6.4090   16.6170  -34.5820 C   0  0  0  0  0  0  0  0  0  0  0  0
   -7.1140   16.6740  -33.2210 C   0  0  0  0  0  0  0  0  0  0  0  0
   -7.4650   18.0790  -32.8070 C   0  0  0  0  0  0  0  0  0  0  0  0
   -8.2970   18.2730  -31.6930 C   0  0  0  0  0  0  0  0  0  0  0  0
   -8.5990   19.5630  -31.2540 C   0  0  0  0  0  0  0  0  0  0  0  0
   -8.0690   20.6700  -31.9170 C   0  0  0  0  0  0  0  0  0  0  0  0
   -7.2240   20.4890  -33.0150 C   0  0  0  0  0  0  0  0  0  0  0  0
   -6.9030   19.1970  -33.4580 C   0  0  0  0  0  0  0  0  0  0  0  0
   -6.0260   19.0260  -34.6750 C   0  0  0  0  0  0  0  0  0  0  0  0
   -2.4840   19.7910  -33.3840 C   0  0  0  0  0  0  0  0  0  0  0  0
   -2.1230   20.9750  -32.7330 C   0  0  0  0  0  0  0  0  0  0  0  0
   -4.9690   23.4787  -33.0997 H   0  0  0  0  0  0  0  0  0  0  0  0
   -7.4625   23.4212  -33.0465 H   0  0  0  0  0  0  0  0  0  0  0  0
   -8.6756   23.7028  -30.8832 H   0  0  0  0  0  0  0  0  0  0  0  0
   -7.3938   24.0178  -28.7651 H   0  0  0  0  0  0  0  0  0  0  0  0
   -4.4886   20.9775  -30.2621 H   0  0  0  0  0  0  0  0  0  0  0  0
   -5.0998   18.8480  -31.4011 H   0  0  0  0  0  0  0  0  0  0  0  0
   -7.1661   16.7107  -35.3745 H   0  0  0  0  0  0  0  0  0  0  0  0
   -5.8758   15.6566  -34.6394 H   0  0  0  0  0  0  0  0  0  0  0  0
   -8.0396   16.0825  -33.2790 H   0  0  0  0  0  0  0  0  0  0  0  0
   -6.4196   16.2698  -32.4697 H   0  0  0  0  0  0  0  0  0  0  0  0
   -8.7132   17.4035  -31.1632 H   0  0  0  0  0  0  0  0  0  0  0  0
   -9.2561   19.7070  -30.3837 H   0  0  0  0  0  0  0  0  0  0  0  0
   -8.3164   21.6859  -31.5753 H   0  0  0  0  0  0  0  0  0  0  0  0
   -6.8080   21.3645  -33.5351 H   0  0  0  0  0  0  0  0  0  0  0  0
   -6.6385   19.1849  -35.5748 H   0  0  0  0  0  0  0  0  0  0  0  0
   -5.2106   19.7606  -34.6017 H   0  0  0  0  0  0  0  0  0  0  0  0
   -1.9300   19.4672  -34.2775 H   0  0  0  0  0  0  0  0  0  0  0  0
   -1.2797   21.5711  -33.1118 H   0  0  0  0  0  0  0  0  0  0  0  0
  1  2  2  0
  2  3  1  0
  3  4  1  0
  4  5  2  0
  5  6  1  0
  6  7  2  0
  7  8  1  0
  8  9  2  0
  9 10  1  0
  2 11  1  0
 11 12  2  0
 12 13  1  0
 13 14  2  0
 14 15  1  0
 15 16  2  0
 15 17  2  0
 15 18  1  0
 18 19  1  0
 19 20  1  0
 20 21  1  0
 21 22  2  0
 22 23  1  0
 23 24  2  0
 24 25  1  0
 25 26  2  0
 26 27  1  0
 14 28  1  0
 28 29  2  0
  9  4  1  0
 29 11  1  0
 27 18  1  0
 26 21  1  0
  5 30  1  0
  6 31  1  0
  7 32  1  0
  8 33  1  0
 12 34  1  0
 13 35  1  0
 19 36  1  0
 19 37  1  0
 20 38  1  0
 20 39  1  0
 22 40  1  0
 23 41  1  0
 24 42  1  0
 25 43  1  0
 27 44  1  0
 27 45  1  0
 28 46  1  0
 29 47  1  0
M  CHG  1   3  -1
M  END
>  <UniqueID>  (24) 
24

>  <SMILES>  (24) 
O=C([N-]c1ccccc1Cl)c1ccc(S(=O)(=O)N2CCc3ccccc3C2)cc1

>  <Energy>  (24) 
60.60029307154318

>  <Genealogy>  (24) 
O=C([N-]c1ccccc1Cl)c1ccc(S(=O)(=O)N2CCc3ccccc3C2)cc1 (protonated)
O=C([N-]c1ccccc1Cl)c1ccc(S(=O)(=O)N2CCc3ccccc3C2)cc1 (3D coordinates assigned)
O=C([N-]c1ccccc1Cl)c1ccc(S(=O)(=O)N2CCc3ccccc3C2)cc1 (nonaromatic ring conformer: 60.60029307154318 kcal/mol)

>  <smiles>  (24) 
O=C(Nc1ccccc1Cl)c1ccc(S(=O)(=O)N2CCc3ccccc3C2)cc1

>  <score_type>  (24) 
oracle

>  <origin>  (24) 
adgpu

>  <m_score__min__energy>  (24) 
-11.5

>  <m_primary>  (24) 
energy

$$$$
24:0
     RDKit          3D

 56 58  0  0  0  0  0  0  0  0999 V2000
   -3.7150   24.1200  -27.1660 C   0  0  0  0  0  0  0  0  0  0  0  0
   -2.4060   23.6380  -26.8540 O   0  0  0  0  0  0  0  0  0  0  0  0
   -1.8970   22.4010  -27.2780 C   0  0  0  0  0  0  0  0  0  0  0  0
   -2.8000   21.3460  -27.4880 C   0  0  0  0  0  0  0  0  0  0  0  0
   -2.3440   20.0950  -27.9170 C   0  0  0  0  0  0  0  0  0  0  0  0
   -0.9730   19.8830  -28.1320 C   0  0  0  0  0  0  0  0  0  0  0  0
   -0.4890   18.6210  -28.5970 N   0  0  0  0  0  0  0  0  0  0  0  0
    0.7970   18.4740  -29.7520 S   0  0  0  0  0  0  0  0  0  0  0  0
    1.0030   17.0200  -30.0800 O   0  0  0  0  0  0  0  0  0  0  0  0
    2.0650   19.0040  -29.1430 O   0  0  0  0  0  0  0  0  0  0  0  0
    0.4500   19.3860  -31.2190 C   0  0  0  0  0  0  0  0  0  0  0  0
    1.4800   19.7260  -32.1030 C   0  0  0  0  0  0  0  0  0  0  0  0
    1.2000   20.4680  -33.2520 C   0  0  0  0  0  0  0  0  0  0  0  0
   -0.1140   20.8710  -33.5320 C   0  0  0  0  0  0  0  0  0  0  0  0
   -0.3670   21.6790  -34.6370 O   0  0  0  0  0  0  0  0  0  0  0  0
   -1.1610   20.4880  -32.6700 C   0  0  0  0  0  0  0  0  0  0  0  0
   -2.5210   20.8800  -32.8990 N   0  0  0  0  0  0  0  0  0  0  0  0
   -3.5790   20.8530  -31.9310 C   0  0  0  0  0  0  0  0  0  0  0  0
   -3.9550   19.7610  -31.4250 O   0  0  0  0  0  0  0  0  0  0  0  0
   -4.1760   22.1260  -31.4640 C   0  0  0  0  0  0  0  0  0  0  0  0
   -5.5590   22.3880  -31.6700 C   0  0  0  0  0  0  0  0  0  0  0  0
   -6.4230   21.3950  -32.4300 C   0  0  0  0  0  0  0  0  0  0  0  0
   -6.1310   23.5820  -31.1580 C   0  0  0  0  0  0  0  0  0  0  0  0
   -7.6310   23.8090  -31.2490 C   0  0  0  0  0  0  0  0  0  0  0  0
   -5.2860   24.5850  -30.6160 C   0  0  0  0  0  0  0  0  0  0  0  0
   -5.8430   25.9280  -30.1970 C   0  0  0  0  0  0  0  0  0  0  0  0
   -3.9170   24.3200  -30.4330 C   0  0  0  0  0  0  0  0  0  0  0  0
   -3.0960   25.2930  -29.8640 O   0  0  0  0  0  0  0  0  0  0  0  0
   -3.3640   23.0860  -30.8120 C   0  0  0  0  0  0  0  0  0  0  0  0
   -1.8900   22.8330  -30.5580 C   0  0  0  0  0  0  0  0  0  0  0  0
   -0.8660   19.7690  -31.5070 C   0  0  0  0  0  0  0  0  0  0  0  0
   -0.0710   20.9350  -27.9360 C   0  0  0  0  0  0  0  0  0  0  0  0
   -0.5220   22.1860  -27.5010 C   0  0  0  0  0  0  0  0  0  0  0  0
   -4.2632   24.3219  -26.2339 H   0  0  0  0  0  0  0  0  0  0  0  0
   -3.6342   25.0474  -27.7521 H   0  0  0  0  0  0  0  0  0  0  0  0
   -4.2549   23.3617  -27.7521 H   0  0  0  0  0  0  0  0  0  0  0  0
   -3.8745   21.5047  -27.3137 H   0  0  0  0  0  0  0  0  0  0  0  0
   -3.0599   19.2771  -28.0859 H   0  0  0  0  0  0  0  0  0  0  0  0
    2.5118   19.4082  -31.8923 H   0  0  0  0  0  0  0  0  0  0  0  0
    2.0138   20.7379  -33.9411 H   0  0  0  0  0  0  0  0  0  0  0  0
   -1.3060   21.9550  -34.8900 H   0  0  0  0  0  0  0  0  0  0  0  0
   -6.9718   20.7642  -31.7152 H   0  0  0  0  0  0  0  0  0  0  0  0
   -7.1388   21.9406  -33.0624 H   0  0  0  0  0  0  0  0  0  0  0  0
   -5.7837   20.7615  -33.0624 H   0  0  0  0  0  0  0  0  0  0  0  0
   -8.0543   23.8731  -30.2357 H   0  0  0  0  0  0  0  0  0  0  0  0
   -7.8278   24.7472  -31.7886 H   0  0  0  0  0  0  0  0  0  0  0  0
   -8.0966   22.9711  -31.7886 H   0  0  0  0  0  0  0  0  0  0  0  0
   -5.8680   25.9882  -29.0989 H   0  0  0  0  0  0  0  0  0  0  0  0
   -5.2034   26.7302  -30.5937 H   0  0  0  0  0  0  0  0  0  0  0  0
   -6.8626   26.0420  -30.5937 H   0  0  0  0  0  0  0  0  0  0  0  0
   -1.7049   22.8012  -29.4742 H   0  0  0  0  0  0  0  0  0  0  0  0
   -1.6001   21.8720  -31.0078 H   0  0  0  0  0  0  0  0  0  0  0  0
   -1.2962   23.6424  -31.0078 H   0  0  0  0  0  0  0  0  0  0  0  0
   -1.6755   19.5018  -30.8118 H   0  0  0  0  0  0  0  0  0  0  0  0
    1.0010   20.7771  -28.1254 H   0  0  0  0  0  0  0  0  0  0  0  0
    0.1966   23.0018  -27.3330 H   0  0  0  0  0  0  0  0  0  0  0  0
  1  2  1  0
  2  3  1  0
  3  4  2  0
  4  5  1  0
  5  6  2  0
  6  7  1  0
  7  8  1  0
  8  9  2  0
  8 10  2  0
  8 11  1  0
 11 12  2  0
 12 13  1  0
 13 14  2  0
 14 15  1  0
 14 16  1  0
 16 17  1  0
 17 18  1  0
 18 19  2  0
 18 20  1  0
 20 21  2  0
 21 22  1  0
 21 23  1  0
 23 24  1  0
 23 25  2  0
 25 26  1  0
 25 27  1  0
 27 28  1  0
 27 29  2  0
 29 30  1  0
 16 31  2  0
  6 32  1  0
 32 33  2  0
 33  3  1  0
 31 11  1  0
 29 20  1  0
  1 34  1  0
  1 35  1  0
  1 36  1  0
  4 37  1  0
  5 38  1  0
 12 39  1  0
 13 40  1  0
 15 41  1  0
 22 42  1  0
 22 43  1  0
 22 44  1  0
 24 45  1  0
 24 46  1  0
 24 47  1  0
 26 48  1  0
 26 49  1  0
 26 50  1  0
 30 51  1  0
 30 52  1  0
 30 53  1  0
 31 54  1  0
 32 55  1  0
 33 56  1  0
M  CHG  3   7  -1  17  -1  28  -1
M  END
>  <UniqueID>  (25) 
25

>  <SMILES>  (25) 
COc1ccc([N-]S(=O)(=O)c2ccc(O)c([N-]C(=O)c3c(C)c(C)c(C)c([O-])c3C)c2)cc1

>  <Energy>  (25) 
86.09418973330541

>  <Genealogy>  (25) 
COc1ccc([N-]S(=O)(=O)c2ccc(O)c([N-]C(=O)c3c(C)c(C)c(C)c([O-])c3C)c2)cc1 (protonated)
COc1ccc([N-]S(=O)(=O)c2ccc(O)c([N-]C(=O)c3c(C)c(C)c(C)c([O-])c3C)c2)cc1 (3D coordinates assigned)
COc1ccc([N-]S(=O)(=O)c2ccc(O)c([N-]C(=O)c3c(C)c(C)c(C)c([O-])c3C)c2)cc1 (optimized conformer: 86.09418973330541 kcal/mol)

>  <smiles>  (25) 
COc1ccc(NS(=O)(=O)c2ccc(O)c(NC(=O)c3c(C)c(C)c(C)c(O)c3C)c2)cc1

>  <score_type>  (25) 
oracle

>  <origin>  (25) 
adgpu

>  <m_score__min__energy>  (25) 
-11.74

>  <m_primary>  (25) 
energy

$$$$
25:0
     RDKit          3D

 40 42  0  0  0  0  0  0  0  0999 V2000
   -9.2870   21.7790  -31.2720 C   0  0  0  0  0  0  0  0  0  0  0  0
   -8.6170   20.5240  -31.7430 C   0  0  0  0  0  0  0  0  0  0  0  0
   -9.1120   19.3280  -31.3180 N   0  0  0  0  0  0  0  0  0  0  0  0
   -8.5950   18.1410  -31.7320 C   0  0  0  0  0  0  0  0  0  0  0  0
   -7.5330   18.1190  -32.6340 C   0  0  0  0  0  0  0  0  0  0  0  0
   -6.9970   19.3250  -33.0860 C   0  0  0  0  0  0  0  0  0  0  0  0
   -7.5090   20.5420  -32.6270 C   0  0  0  0  0  0  0  0  0  0  0  0
   -6.9210   21.7280  -33.0900 O   0  0  0  0  0  0  0  0  0  0  0  0
   -6.1050   22.5780  -32.3310 C   0  0  0  0  0  0  0  0  0  0  0  0
   -6.6370   23.8050  -31.9180 C   0  0  0  0  0  0  0  0  0  0  0  0
   -5.8760   24.6890  -31.1500 C   0  0  0  0  0  0  0  0  0  0  0  0
   -4.5570   24.3740  -30.8100 C   0  0  0  0  0  0  0  0  0  0  0  0
   -3.8110   25.2900  -29.9970 N   0  0  0  0  0  0  0  0  0  0  0  0
   -2.8810   24.9210  -28.9730 C   0  0  0  0  0  0  0  0  0  0  0  0
   -3.2980   24.2800  -27.9710 O   0  0  0  0  0  0  0  0  0  0  0  0
   -1.5050   25.3190  -29.0490 N   0  0  0  0  0  0  0  0  0  0  0  0
   -0.4720   24.7250  -28.2060 C   0  0  0  0  0  0  0  0  0  0  0  0
   -0.4790   23.2370  -28.3660 C   0  0  0  0  0  0  0  0  0  0  0  0
   -0.4100   22.3180  -27.3390 C   0  0  0  0  0  0  0  0  0  0  0  0
   -0.4120   21.0820  -27.9490 C   0  0  0  0  0  0  0  0  0  0  0  0
   -0.4810   21.3250  -29.3070 C   0  0  0  0  0  0  0  0  0  0  0  0
   -0.5170   22.6210  -29.5240 O   0  0  0  0  0  0  0  0  0  0  0  0
   -4.0140   23.1460  -31.2230 C   0  0  0  0  0  0  0  0  0  0  0  0
   -4.7700   22.2570  -31.9950 C   0  0  0  0  0  0  0  0  0  0  0  0
   -3.9850   20.7890  -32.5670 Cl  0  0  0  0  0  0  0  0  0  0  0  0
   -9.2974   21.7985  -30.1722 H   0  0  0  0  0  0  0  0  0  0  0  0
   -8.7354   22.6528  -31.6490 H   0  0  0  0  0  0  0  0  0  0  0  0
  -10.3200   21.8069  -31.6490 H   0  0  0  0  0  0  0  0  0  0  0  0
   -9.0153   17.1970  -31.3547 H   0  0  0  0  0  0  0  0  0  0  0  0
   -7.1219   17.1612  -32.9857 H   0  0  0  0  0  0  0  0  0  0  0  0
   -6.1668   19.3182  -33.8076 H   0  0  0  0  0  0  0  0  0  0  0  0
   -7.6649   24.0757  -32.2012 H   0  0  0  0  0  0  0  0  0  0  0  0
   -6.3167   25.6381  -30.8108 H   0  0  0  0  0  0  0  0  0  0  0  0
   -1.2220   26.0530  -29.7380 H   0  0  0  0  0  0  0  0  0  0  0  0
    0.5115   25.1192  -28.5015 H   0  0  0  0  0  0  0  0  0  0  0  0
   -0.6725   24.9776  -27.1543 H   0  0  0  0  0  0  0  0  0  0  0  0
   -0.3632   22.5277  -26.2602 H   0  0  0  0  0  0  0  0  0  0  0  0
   -0.3676   20.1005  -27.4544 H   0  0  0  0  0  0  0  0  0  0  0  0
   -0.5026   20.5512  -30.0885 H   0  0  0  0  0  0  0  0  0  0  0  0
   -2.9854   22.8810  -30.9370 H   0  0  0  0  0  0  0  0  0  0  0  0
  1  2  1  0
  2  3  2  0
  3  4  1  0
  4  5  2  0
  5  6  1  0
  6  7  2  0
  7  8  1  0
  8  9  1  0
  9 10  2  0
 10 11  1  0
 11 12  2  0
 12 13  1  0
 13 14  1  0
 14 15  2  0
 14 16  1  0
 16 17  1  0
 17 18  1  0
 18 19  2  0
 19 20  1  0
 20 21  2  0
 21 22  1  0
 12 23  1  0
 23 24  2  0
 24 25  1  0
  7  2  1  0
 24  9  1  0
 22 18  1  0
  1 26  1  0
  1 27  1  0
  1 28  1  0
  4 29  1  0
  5 30  1  0
  6 31  1  0
 10 32  1  0
 11 33  1  0
 16 34  1  0
 17 35  1  0
 17 36  1  0
 19 37  1  0
 20 38  1  0
 21 39  1  0
 23 40  1  0
M  CHG  1  13  -1
M  END
>  <UniqueID>  (26) 
26

>  <SMILES>  (26) 
Cc1ncccc1Oc1ccc([N-]C(=O)NCc2ccco2)cc1Cl

>  <Energy>  (26) 
79.31040760618974

>  <Genealogy>  (26) 
Cc1ncccc1Oc1ccc([N-]C(=O)NCc2ccco2)cc1Cl (protonated)
Cc1ncccc1Oc1ccc([N-]C(=O)NCc2ccco2)cc1Cl (3D coordinates assigned)
Cc1ncccc1Oc1ccc([N-]C(=O)NCc2ccco2)cc1Cl (optimized conformer: 79.31040760618974 kcal/mol)

>  <smiles>  (26) 
Cc1ncccc1Oc1ccc(NC(=O)NCc2ccco2)cc1Cl

>  <score_type>  (26) 
oracle

>  <origin>  (26) 
adgpu

>  <m_score__min__energy>  (26) 
-10.470000000000001

>  <m_primary>  (26) 
energy

$$$$
26:0
     RDKit          3D

 28 30  0  0  0  0  0  0  0  0999 V2000
   -3.4620   20.4350  -30.9770 O   0  0  0  0  0  0  0  0  0  0  0  0
   -2.4780   20.8170  -30.2860 C   0  0  0  0  0  0  0  0  0  0  0  0
   -1.5610   19.8780  -29.8160 C   0  0  0  0  0  0  0  0  0  0  0  0
   -0.4650   20.3080  -29.0460 C   0  0  0  0  0  0  0  0  0  0  0  0
    0.5420   19.3540  -28.5160 C   0  0  0  0  0  0  0  0  0  0  0  0
    0.1320   18.0740  -28.1020 C   0  0  0  0  0  0  0  0  0  0  0  0
    1.0590   17.1610  -27.5930 C   0  0  0  0  0  0  0  0  0  0  0  0
    2.4050   17.5150  -27.4810 C   0  0  0  0  0  0  0  0  0  0  0  0
    3.3200   16.5990  -26.9740 O   0  0  0  0  0  0  0  0  0  0  0  0
    2.8290   18.7890  -27.8740 C   0  0  0  0  0  0  0  0  0  0  0  0
    4.1720   19.1380  -27.7490 O   0  0  0  0  0  0  0  0  0  0  0  0
    1.9000   19.7060  -28.3870 C   0  0  0  0  0  0  0  0  0  0  0  0
   -0.3300   21.6040  -28.7650 O   0  0  0  0  0  0  0  0  0  0  0  0
   -1.1780   22.5330  -29.1920 C   0  0  0  0  0  0  0  0  0  0  0  0
   -0.9620   23.8750  -28.8570 C   0  0  0  0  0  0  0  0  0  0  0  0
   -1.8480   24.8630  -29.3020 C   0  0  0  0  0  0  0  0  0  0  0  0
   -1.6240   26.1920  -28.9630 O   0  0  0  0  0  0  0  0  0  0  0  0
   -2.9570   24.5120  -30.0820 C   0  0  0  0  0  0  0  0  0  0  0  0
   -3.8370   25.4930  -30.5230 O   0  0  0  0  0  0  0  0  0  0  0  0
   -3.1810   23.1730  -30.4210 C   0  0  0  0  0  0  0  0  0  0  0  0
   -2.2950   22.1740  -29.9790 C   0  0  0  0  0  0  0  0  0  0  0  0
   -1.6933   18.8103  -30.0452 H   0  0  0  0  0  0  0  0  0  0  0  0
   -0.9277   17.7892  -28.1796 H   0  0  0  0  0  0  0  0  0  0  0  0
    0.7274   16.1601  -27.2795 H   0  0  0  0  0  0  0  0  0  0  0  0
    4.8650   18.4710  -27.4290 H   0  0  0  0  0  0  0  0  0  0  0  0
    2.2346   20.7087  -28.6913 H   0  0  0  0  0  0  0  0  0  0  0  0
   -0.0935   24.1538  -28.2423 H   0  0  0  0  0  0  0  0  0  0  0  0
   -4.0523   22.9009  -31.0348 H   0  0  0  0  0  0  0  0  0  0  0  0
  1  2  2  0
  2  3  1  0
  3  4  2  0
  4  5  1  0
  5  6  2  0
  6  7  1  0
  7  8  2  0
  8  9  1  0
  8 10  1  0
 10 11  1  0
 10 12  2  0
  4 13  1  0
 13 14  1  0
 14 15  2  0
 15 16  1  0
 16 17  1  0
 16 18  2  0
 18 19  1  0
 18 20  1  0
 20 21  2  0
 21  2  1  0
 12  5  1  0
 21 14  1  0
  3 22  1  0
  6 23  1  0
  7 24  1  0
 11 25  1  0
 12 26  1  0
 15 27  1  0
 20 28  1  0
M  CHG  3   9  -1  17  -1  19  -1
M  END
>  <UniqueID>  (27) 
27

>  <SMILES>  (27) 
O=c1cc(-c2ccc([O-])c(O)c2)oc2cc([O-])c([O-])cc12

>  <Energy>  (27) 
40.15963719889987

>  <Genealogy>  (27) 
O=c1cc(-c2ccc([O-])c(O)c2)oc2cc([O-])c([O-])cc12 (protonated)
O=c1cc(-c2ccc([O-])c(O)c2)oc2cc([O-])c([O-])cc12 (3D coordinates assigned)
O=c1cc(-c2ccc([O-])c(O)c2)oc2cc([O-])c([O-])cc12 (optimized conformer: 40.15963719889987 kcal/mol)

>  <smiles>  (27) 
O=c1cc(-c2ccc(O)c(O)c2)oc2cc(O)c(O)cc12

>  <score_type>  (27) 
oracle

>  <origin>  (27) 
adgpu

>  <m_score__min__energy>  (27) 
-11.06

>  <m_primary>  (27) 
energy

$$$$
27:0
     RDKit          3D

 45 46  0  0  0  0  0  0  0  0999 V2000
   -3.2920   21.0730  -33.4470 C   0  0  0  0  0  0  0  0  0  0  0  0
   -2.6620   20.4700  -32.1950 C   0  0  0  0  0  0  0  0  0  0  0  0
   -3.1210   21.1960  -30.9900 N   0  0  0  0  0  0  0  0  0  0  0  0
   -2.3950   20.7780  -29.7640 C   0  0  0  0  0  0  0  0  0  0  0  0
   -2.4940   21.7760  -28.6010 C   0  0  0  0  0  0  0  0  0  0  0  0
   -3.1320   22.6620  -31.1980 C   0  0  0  0  0  0  0  0  0  0  0  0
   -4.5040   23.2330  -30.9360 C   0  0  0  0  0  0  0  0  0  0  0  0
   -5.6480   22.4800  -31.2410 C   0  0  0  0  0  0  0  0  0  0  0  0
   -6.9270   23.0100  -31.0260 C   0  0  0  0  0  0  0  0  0  0  0  0
   -8.3500   22.0430  -31.3940 S   0  0  0  0  0  0  0  0  0  0  0  0
   -9.2260   22.7830  -32.3660 O   0  0  0  0  0  0  0  0  0  0  0  0
   -9.1460   21.7940  -30.1430 O   0  0  0  0  0  0  0  0  0  0  0  0
   -7.8360   20.5110  -32.0870 C   0  0  0  0  0  0  0  0  0  0  0  0
   -6.8970   20.4860  -33.1280 C   0  0  0  0  0  0  0  0  0  0  0  0
   -6.4750   19.2660  -33.6650 C   0  0  0  0  0  0  0  0  0  0  0  0
   -6.9810   18.0600  -33.1620 C   0  0  0  0  0  0  0  0  0  0  0  0
   -6.5470   16.8130  -33.7090 N   0  0  0  0  0  0  0  0  0  0  0  0
   -7.9130   18.0850  -32.1140 C   0  0  0  0  0  0  0  0  0  0  0  0
   -8.3360   19.3050  -31.5770 C   0  0  0  0  0  0  0  0  0  0  0  0
   -7.0620   24.2960  -30.4880 C   0  0  0  0  0  0  0  0  0  0  0  0
   -5.9290   25.0540  -30.1860 C   0  0  0  0  0  0  0  0  0  0  0  0
   -4.6480   24.5320  -30.4110 C   0  0  0  0  0  0  0  0  0  0  0  0
   -3.5200   25.2970  -30.1140 O   0  0  0  0  0  0  0  0  0  0  0  0
   -4.0582   21.8063  -33.1551 H   0  0  0  0  0  0  0  0  0  0  0  0
   -2.5150   21.5725  -34.0443 H   0  0  0  0  0  0  0  0  0  0  0  0
   -3.7570   20.2749  -34.0443 H   0  0  0  0  0  0  0  0  0  0  0  0
   -2.9539   19.4125  -32.1149 H   0  0  0  0  0  0  0  0  0  0  0  0
   -1.5677   20.5537  -32.2686 H   0  0  0  0  0  0  0  0  0  0  0  0
   -2.8098   19.8159  -29.4289 H   0  0  0  0  0  0  0  0  0  0  0  0
   -1.3307   20.7131  -30.0343 H   0  0  0  0  0  0  0  0  0  0  0  0
   -2.4401   21.2327  -27.6460 H   0  0  0  0  0  0  0  0  0  0  0  0
   -1.6626   22.4937  -28.6620 H   0  0  0  0  0  0  0  0  0  0  0  0
   -3.4502   22.3164  -28.6620 H   0  0  0  0  0  0  0  0  0  0  0  0
   -2.4106   23.1286  -30.5111 H   0  0  0  0  0  0  0  0  0  0  0  0
   -2.8582   22.8707  -32.2427 H   0  0  0  0  0  0  0  0  0  0  0  0
   -5.5398   21.4655  -31.6522 H   0  0  0  0  0  0  0  0  0  0  0  0
   -6.4912   21.4289  -33.5233 H   0  0  0  0  0  0  0  0  0  0  0  0
   -5.7427   19.2528  -34.4857 H   0  0  0  0  0  0  0  0  0  0  0  0
   -6.7620   16.5610  -34.7010 H   0  0  0  0  0  0  0  0  0  0  0  0
   -6.0070   16.1330  -33.1300 H   0  0  0  0  0  0  0  0  0  0  0  0
   -8.3125   17.1418  -31.7132 H   0  0  0  0  0  0  0  0  0  0  0  0
   -9.0633   19.3182  -30.7519 H   0  0  0  0  0  0  0  0  0  0  0  0
   -8.0640   24.7103  -30.3027 H   0  0  0  0  0  0  0  0  0  0  0  0
   -6.0424   26.0658  -29.7695 H   0  0  0  0  0  0  0  0  0  0  0  0
   -2.9310   25.6800  -30.8430 H   0  0  0  0  0  0  0  0  0  0  0  0
  1  2  1  0
  2  3  1  0
  3  4  1  0
  4  5  1  0
  3  6  1  0
  6  7  1  0
  7  8  2  0
  8  9  1  0
  9 10  1  0
 10 11  2  0
 10 12  2  0
 10 13  1  0
 13 14  2  0
 14 15  1  0
 15 16  2  0
 16 17  1  0
 16 18  1  0
 18 19  2  0
  9 20  2  0
 20 21  1  0
 21 22  2  0
 22 23  1  0
 22  7  1  0
 19 13  1  0
  1 24  1  0
  1 25  1  0
  1 26  1  0
  2 27  1  0
  2 28  1  0
  4 29  1  0
  4 30  1  0
  5 31  1  0
  5 32  1  0
  5 33  1  0
  6 34  1  0
  6 35  1  0
  8 36  1  0
 14 37  1  0
 15 38  1  0
 17 39  1  0
 17 40  1  0
 18 41  1  0
 19 42  1  0
 20 43  1  0
 21 44  1  0
 23 45  1  0
M  END
>  <UniqueID>  (28) 
28

>  <SMILES>  (28) 
CCN(CC)Cc1cc(S(=O)(=O)c2ccc(N)cc2)ccc1O

>  <Energy>  (28) 
45.79556305358482

>  <Genealogy>  (28) 
CCN(CC)Cc1cc(S(=O)(=O)c2ccc(N)cc2)ccc1O (3D coordinates assigned)
CCN(CC)Cc1cc(S(=O)(=O)c2ccc(N)cc2)ccc1O (optimized conformer: 45.79556305358482 kcal/mol)

>  <smiles>  (28) 
CCN(CC)Cc1cc(S(=O)(=O)c2ccc(N)cc2)ccc1O

>  <score_type>  (28) 
oracle

>  <origin>  (28) 
adgpu

>  <m_score__min__energy>  (28) 
-9.0299999999999994

>  <m_primary>  (28) 
energy

$$$$
28:0
     RDKit          3D

 57 60  0  0  0  0  0  0  0  0999 V2000
   -2.8930   24.5520  -29.3980 C   0  0  0  0  0  0  0  0  0  0  0  0
   -3.5760   25.2500  -30.4770 N   0  0  0  0  0  0  0  0  0  0  0  0
   -5.0000   25.2600  -30.6120 C   0  0  0  0  0  0  0  0  0  0  0  0
   -5.6600   26.2790  -30.2690 O   0  0  0  0  0  0  0  0  0  0  0  0
   -5.6890   24.0720  -31.1500 C   0  0  0  0  0  0  0  0  0  0  0  0
   -4.9780   22.9180  -31.5100 C   0  0  0  0  0  0  0  0  0  0  0  0
   -5.6840   21.8220  -32.0270 C   0  0  0  0  0  0  0  0  0  0  0  0
   -5.0000   20.6090  -32.4120 N   0  0  0  0  0  0  0  0  0  0  0  0
   -5.7560   19.3960  -32.6180 C   0  0  0  0  0  0  0  0  0  0  0  0
   -6.7220   18.9890  -31.6790 C   0  0  0  0  0  0  0  0  0  0  0  0
   -7.4560   17.8170  -31.8830 C   0  0  0  0  0  0  0  0  0  0  0  0
   -7.2350   17.0420  -33.0240 C   0  0  0  0  0  0  0  0  0  0  0  0
   -6.2800   17.4370  -33.9640 C   0  0  0  0  0  0  0  0  0  0  0  0
   -5.5440   18.6090  -33.7640 C   0  0  0  0  0  0  0  0  0  0  0  0
   -3.5730   20.6110  -32.6350 C   0  0  0  0  0  0  0  0  0  0  0  0
   -2.9870   21.5440  -33.5030 C   0  0  0  0  0  0  0  0  0  0  0  0
   -1.6070   21.5420  -33.7210 C   0  0  0  0  0  0  0  0  0  0  0  0
   -0.7850   20.5970  -33.0800 C   0  0  0  0  0  0  0  0  0  0  0  0
    0.6810   20.5910  -33.2930 C   0  0  0  0  0  0  0  0  0  0  0  0
    1.4490   20.3930  -32.3120 O   0  0  0  0  0  0  0  0  0  0  0  0
    1.2410   20.7900  -34.6010 N   0  0  0  0  0  0  0  0  0  0  0  0
    2.6630   21.0560  -34.8070 C   0  0  0  0  0  0  0  0  0  0  0  0
    2.8480   22.3890  -35.4780 C   0  0  0  0  0  0  0  0  0  0  0  0
    4.0940   23.0340  -35.4370 C   0  0  0  0  0  0  0  0  0  0  0  0
    4.2670   24.2570  -36.0880 C   0  0  0  0  0  0  0  0  0  0  0  0
    3.1930   24.8240  -36.7780 C   0  0  0  0  0  0  0  0  0  0  0  0
    1.9950   24.1830  -36.8150 N   0  0  0  0  0  0  0  0  0  0  0  0
    1.8000   22.9910  -36.1900 C   0  0  0  0  0  0  0  0  0  0  0  0
   -1.3740   19.6690  -32.2030 C   0  0  0  0  0  0  0  0  0  0  0  0
   -2.7540   19.6730  -31.9870 C   0  0  0  0  0  0  0  0  0  0  0  0
   -7.0360   21.9030  -32.1520 N   0  0  0  0  0  0  0  0  0  0  0  0
   -7.7150   23.0210  -31.7850 C   0  0  0  0  0  0  0  0  0  0  0  0
   -9.1940   23.0890  -31.9720 C   0  0  0  0  0  0  0  0  0  0  0  0
   -7.0400   24.0960  -31.3030 N   0  0  0  0  0  0  0  0  0  0  0  0
   -3.2587   24.9257  -28.4302 H   0  0  0  0  0  0  0  0  0  0  0  0
   -3.0940   23.4732  -29.4741 H   0  0  0  0  0  0  0  0  0  0  0  0
   -1.8101   24.7295  -29.4741 H   0  0  0  0  0  0  0  0  0  0  0  0
   -3.8856   22.8733  -31.3890 H   0  0  0  0  0  0  0  0  0  0  0  0
   -6.9004   19.5965  -30.7795 H   0  0  0  0  0  0  0  0  0  0  0  0
   -8.2086   17.5046  -31.1441 H   0  0  0  0  0  0  0  0  0  0  0  0
   -7.8134   16.1199  -33.1825 H   0  0  0  0  0  0  0  0  0  0  0  0
   -6.1069   16.8257  -34.8620 H   0  0  0  0  0  0  0  0  0  0  0  0
   -4.7945   18.9173  -34.5077 H   0  0  0  0  0  0  0  0  0  0  0  0
   -3.6192   22.2834  -34.0164 H   0  0  0  0  0  0  0  0  0  0  0  0
   -1.1600   22.2844  -34.3985 H   0  0  0  0  0  0  0  0  0  0  0  0
    0.6310   20.7090  -35.4440 H   0  0  0  0  0  0  0  0  0  0  0  0
    3.1762   21.0642  -33.8341 H   0  0  0  0  0  0  0  0  0  0  0  0
    3.0872   20.2688  -35.4476 H   0  0  0  0  0  0  0  0  0  0  0  0
    4.9332   22.5765  -34.8926 H   0  0  0  0  0  0  0  0  0  0  0  0
    5.2400   24.7692  -36.0578 H   0  0  0  0  0  0  0  0  0  0  0  0
    3.3167   25.7890  -37.2913 H   0  0  0  0  0  0  0  0  0  0  0  0
    0.8182   22.4978  -36.2429 H   0  0  0  0  0  0  0  0  0  0  0  0
   -0.7427   18.9337  -31.6827 H   0  0  0  0  0  0  0  0  0  0  0  0
   -3.2021   18.9360  -31.3044 H   0  0  0  0  0  0  0  0  0  0  0  0
   -9.6872   23.1117  -30.9890 H   0  0  0  0  0  0  0  0  0  0  0  0
   -9.4512   23.9999  -32.5324 H   0  0  0  0  0  0  0  0  0  0  0  0
   -9.5337   22.2055  -32.5324 H   0  0  0  0  0  0  0  0  0  0  0  0
  1  2  1  0
  2  3  1  0
  3  4  2  0
  3  5  1  0
  5  6  2  0
  6  7  1  0
  7  8  1  0
  8  9  1  0
  9 10  2  0
 10 11  1  0
 11 12  2  0
 12 13  1  0
 13 14  2  0
  8 15  1  0
 15 16  2  0
 16 17  1  0
 17 18  2  0
 18 19  1  0
 19 20  2  0
 19 21  1  0
 21 22  1  0
 22 23  1  0
 23 24  2  0
 24 25  1  0
 25 26  2  0
 26 27  1  0
 27 28  2  0
 18 29  1  0
 29 30  2  0
  7 31  2  0
 31 32  1  0
 32 33  1  0
 32 34  2  0
 34  5  1  0
 14  9  1  0
 30 15  1  0
 28 23  1  0
  1 35  1  0
  1 36  1  0
  1 37  1  0
  6 38  1  0
 10 39  1  0
 11 40  1  0
 12 41  1  0
 13 42  1  0
 14 43  1  0
 16 44  1  0
 17 45  1  0
 21 46  1  0
 22 47  1  0
 22 48  1  0
 24 49  1  0
 25 50  1  0
 26 51  1  0
 28 52  1  0
 29 53  1  0
 30 54  1  0
 33 55  1  0
 33 56  1  0
 33 57  1  0
M  CHG  1   2  -1
M  END
>  <UniqueID>  (29) 
29

>  <SMILES>  (29) 
C[N-]C(=O)c1cc(N(c2ccccc2)c2ccc(C(=O)NCc3cccnc3)cc2)nc(C)n1

>  <Energy>  (29) 
70.16923239135424

>  <Genealogy>  (29) 
C[N-]C(=O)c1cc(N(c2ccccc2)c2ccc(C(=O)NCc3cccnc3)cc2)nc(C)n1 (protonated)
C[N-]C(=O)c1cc(N(c2ccccc2)c2ccc(C(=O)NCc3cccnc3)cc2)nc(C)n1 (3D coordinates assigned)
C[N-]C(=O)c1cc(N(c2ccccc2)c2ccc(C(=O)NCc3cccnc3)cc2)nc(C)n1 (optimized conformer: 70.16923239135424 kcal/mol)

>  <smiles>  (29) 
CNC(=O)c1cc(N(c2ccccc2)c2ccc(C(=O)NCc3cccnc3)cc2)nc(C)n1

>  <score_type>  (29) 
oracle

>  <origin>  (29) 
adgpu

>  <m_score__min__energy>  (29) 
-11.199999999999999

>  <m_primary>  (29) 
energy

$$$$
29:0
     RDKit          3D

 25 26  0  0  0  0  0  0  0  0999 V2000
   -1.6110   26.0440  -29.7110 H   0  0  0  0  0  0  0  0  0  0  0  0
   -1.9210   25.1210  -29.3330 N   0  0  0  0  0  0  0  0  0  0  0  0
   -3.0500   24.5930  -29.6760 C   0  0  0  0  0  0  0  0  0  0  0  0
   -3.8710   25.2400  -30.5500 N   0  0  0  0  0  0  0  0  0  0  0  0
   -5.0660   24.7150  -30.9340 C   0  0  0  0  0  0  0  0  0  0  0  0
   -5.7069   25.2656  -31.6383 H   0  0  0  0  0  0  0  0  0  0  0  0
   -5.4810   23.4750  -30.4340 C   0  0  0  0  0  0  0  0  0  0  0  0
   -7.0340   22.7970  -30.9050 S   0  0  0  0  0  0  0  0  0  0  0  0
   -7.8370   22.4550  -29.6820 O   0  0  0  0  0  0  0  0  0  0  0  0
   -7.8100   23.8050  -31.7060 O   0  0  0  0  0  0  0  0  0  0  0  0
   -6.7610   21.3490  -31.8670 C   0  0  0  0  0  0  0  0  0  0  0  0
   -5.5730   21.1990  -32.5950 C   0  0  0  0  0  0  0  0  0  0  0  0
   -4.8015   21.9820  -32.5537 H   0  0  0  0  0  0  0  0  0  0  0  0
   -5.3660   20.0560  -33.3740 C   0  0  0  0  0  0  0  0  0  0  0  0
   -4.4304   19.9388  -33.9405 H   0  0  0  0  0  0  0  0  0  0  0  0
   -6.3470   19.0630  -33.4330 C   0  0  0  0  0  0  0  0  0  0  0  0
   -6.1829   18.1636  -34.0447 H   0  0  0  0  0  0  0  0  0  0  0  0
   -7.5370   19.2120  -32.7150 C   0  0  0  0  0  0  0  0  0  0  0  0
   -8.3091   18.4300  -32.7629 H   0  0  0  0  0  0  0  0  0  0  0  0
   -7.7470   20.3540  -31.9360 C   0  0  0  0  0  0  0  0  0  0  0  0
   -8.6867   20.4722  -31.3766 H   0  0  0  0  0  0  0  0  0  0  0  0
   -4.6560   22.7980  -29.5290 C   0  0  0  0  0  0  0  0  0  0  0  0
   -4.9703   21.8276  -29.1174 H   0  0  0  0  0  0  0  0  0  0  0  0
   -3.4340   23.3550  -29.1490 C   0  0  0  0  0  0  0  0  0  0  0  0
   -2.7787   22.8256  -28.4417 H   0  0  0  0  0  0  0  0  0  0  0  0
  1  2  1  0
  2  3  2  0
  3  4  1  0
  4  5  1  0
  5  6  1  0
  5  7  2  0
  7  8  1  0
  8  9  2  0
  8 10  2  0
  8 11  1  0
 11 12  2  0
 12 13  1  0
 12 14  1  0
 14 15  1  0
 14 16  2  0
 16 17  1  0
 16 18  1  0
 18 19  1  0
 18 20  2  0
 20 21  1  0
  7 22  1  0
 22 23  1  0
 22 24  2  0
 24 25  1  0
 24  3  1  0
 20 11  1  0
M  CHG  1   4  -1
M  END
>  <UniqueID>  (30) 
30

>  <SMILES>  (30) 
[H]/N=c1/ccc(S(=O)(=O)c2ccccc2)c[n-]1

>  <Energy>  (30) 
28.34460558020295

>  <Genealogy>  (30) 
N=c1ccc(S(=O)(=O)c2ccccc2)c[n-]1 (protonated)
[H]/N=c1/ccc(S(=O)(=O)c2ccccc2)c[n-]1 (cis-trans isomerization)
[H]/N=c1/ccc(S(=O)(=O)c2ccccc2)c[n-]1 (3D coordinates assigned)
[H]/N=c1/ccc(S(=O)(=O)c2ccccc2)c[n-]1 (optimized conformer: 28.34460558020295 kcal/mol)

>  <smiles>  (30) 
N=c1ccc(S(=O)(=O)c2ccccc2)c[nH]1

>  <score_type>  (30) 
oracle

>  <origin>  (30) 
adgpu

>  <m_score__min__energy>  (30) 
-9.7400000000000002

>  <m_primary>  (30) 
energy

$$$$
30:0
     RDKit          3D

 75 79  0  0  0  0  0  0  0  0999 V2000
    0.2900   27.4030  -22.9190 C   0  0  0  0  0  0  0  0  0  0  0  0
   -0.9350   27.0630  -23.5610 O   0  0  0  0  0  0  0  0  0  0  0  0
   -1.0400   26.6470  -24.8970 C   0  0  0  0  0  0  0  0  0  0  0  0
   -1.7230   25.4750  -25.2720 C   0  0  0  0  0  0  0  0  0  0  0  0
   -1.8080   25.1090  -26.6190 C   0  0  0  0  0  0  0  0  0  0  0  0
   -1.2380   25.9140  -27.6110 C   0  0  0  0  0  0  0  0  0  0  0  0
   -1.3510   25.5090  -28.9830 N   0  0  0  0  0  0  0  0  0  0  0  0
   -2.2810   24.5480  -29.4990 C   0  0  0  0  0  0  0  0  0  0  0  0
   -1.8750   23.4250  -29.9110 O   0  0  0  0  0  0  0  0  0  0  0  0
   -3.6740   24.8810  -29.5570 N   0  0  0  0  0  0  0  0  0  0  0  0
   -4.6440   24.1140  -30.2920 C   0  0  0  0  0  0  0  0  0  0  0  0
   -5.4740   24.7560  -31.2230 C   0  0  0  0  0  0  0  0  0  0  0  0
   -6.4340   24.0300  -31.9340 C   0  0  0  0  0  0  0  0  0  0  0  0
   -6.5630   22.6490  -31.7470 C   0  0  0  0  0  0  0  0  0  0  0  0
   -7.5520   21.9590  -32.4660 O   0  0  0  0  0  0  0  0  0  0  0  0
   -7.7130   20.5690  -32.4250 C   0  0  0  0  0  0  0  0  0  0  0  0
   -8.9530   20.0460  -32.0470 C   0  0  0  0  0  0  0  0  0  0  0  0
   -9.1410   18.6660  -31.9490 C   0  0  0  0  0  0  0  0  0  0  0  0
   -8.0920   17.7920  -32.2390 C   0  0  0  0  0  0  0  0  0  0  0  0
   -6.8470   18.2940  -32.6490 C   0  0  0  0  0  0  0  0  0  0  0  0
   -5.8010   17.4170  -32.9740 C   0  0  0  0  0  0  0  0  0  0  0  0
   -4.5750   17.9200  -33.4130 C   0  0  0  0  0  0  0  0  0  0  0  0
   -4.3680   19.2980  -33.5240 C   0  0  0  0  0  0  0  0  0  0  0  0
   -3.1160   19.7670  -34.0460 N   0  0  0  0  0  0  0  0  0  0  0  0
   -2.3590   20.8740  -33.5430 C   0  0  0  0  0  0  0  0  0  0  0  0
   -2.9510   21.9300  -33.1930 O   0  0  0  0  0  0  0  0  0  0  0  0
   -0.9030   20.7750  -33.3190 C   0  0  0  0  0  0  0  0  0  0  0  0
   -0.2770   20.3030  -32.2280 C   0  0  0  0  0  0  0  0  0  0  0  0
   -0.9100   19.6760  -31.0010 C   0  0  0  0  0  0  0  0  0  0  0  0
   -1.2840   20.6600  -29.9630 N   0  0  0  0  0  0  0  0  0  0  0  0
   -0.2300   20.8590  -28.9430 C   0  0  0  0  0  0  0  0  0  0  0  0
   -0.7600   21.6970  -27.7710 C   0  0  0  0  0  0  0  0  0  0  0  0
   -1.9350   21.0730  -27.1070 N   0  0  0  0  0  0  0  0  0  0  0  0
   -1.5750   20.5040  -25.8000 C   0  0  0  0  0  0  0  0  0  0  0  0
   -2.6250   20.0600  -27.9370 C   0  0  0  0  0  0  0  0  0  0  0  0
   -2.6480   20.4810  -29.4110 C   0  0  0  0  0  0  0  0  0  0  0  0
   -5.4140   20.1820  -33.2090 C   0  0  0  0  0  0  0  0  0  0  0  0
   -6.6530   19.6940  -32.7530 C   0  0  0  0  0  0  0  0  0  0  0  0
   -5.7100   21.9980  -30.8380 C   0  0  0  0  0  0  0  0  0  0  0  0
   -4.7560   22.7240  -30.1210 C   0  0  0  0  0  0  0  0  0  0  0  0
   -0.5310   27.0700  -27.2360 C   0  0  0  0  0  0  0  0  0  0  0  0
   -0.4390   27.4320  -25.8880 C   0  0  0  0  0  0  0  0  0  0  0  0
    0.1549   27.3655  -21.8280 H   0  0  0  0  0  0  0  0  0  0  0  0
    1.0708   26.6876  -23.2166 H   0  0  0  0  0  0  0  0  0  0  0  0
    0.5904   28.4185  -23.2166 H   0  0  0  0  0  0  0  0  0  0  0  0
   -2.1919   24.8443  -24.5024 H   0  0  0  0  0  0  0  0  0  0  0  0
   -2.3271   24.1810  -26.9007 H   0  0  0  0  0  0  0  0  0  0  0  0
   -4.0110   25.6670  -28.9570 H   0  0  0  0  0  0  0  0  0  0  0  0
   -5.3688   25.8374  -31.3946 H   0  0  0  0  0  0  0  0  0  0  0  0
   -7.0932   24.5482  -32.6460 H   0  0  0  0  0  0  0  0  0  0  0  0
   -9.7876   20.7273  -31.8249 H   0  0  0  0  0  0  0  0  0  0  0  0
  -10.1188   18.2663  -31.6423 H   0  0  0  0  0  0  0  0  0  0  0  0
   -8.2415   16.7062  -32.1459 H   0  0  0  0  0  0  0  0  0  0  0  0
   -5.9474   16.3306  -32.8827 H   0  0  0  0  0  0  0  0  0  0  0  0
   -3.7635   17.2249  -33.6743 H   0  0  0  0  0  0  0  0  0  0  0  0
   -0.2582   21.1274  -34.1376 H   0  0  0  0  0  0  0  0  0  0  0  0
    0.8203   20.3802  -32.2244 H   0  0  0  0  0  0  0  0  0  0  0  0
   -1.8170   19.1377  -31.3135 H   0  0  0  0  0  0  0  0  0  0  0  0
   -0.1597   19.0056  -30.5563 H   0  0  0  0  0  0  0  0  0  0  0  0
    0.0980   19.8788  -28.5667 H   0  0  0  0  0  0  0  0  0  0  0  0
    0.6136   21.3921  -29.4057 H   0  0  0  0  0  0  0  0  0  0  0  0
    0.0437   21.8128  -27.0289 H   0  0  0  0  0  0  0  0  0  0  0  0
   -1.0824   22.6681  -28.1748 H   0  0  0  0  0  0  0  0  0  0  0  0
   -1.9781   21.1412  -24.9991 H   0  0  0  0  0  0  0  0  0  0  0  0
   -1.9977   19.4923  -25.7115 H   0  0  0  0  0  0  0  0  0  0  0  0
   -0.4798   20.4527  -25.7115 H   0  0  0  0  0  0  0  0  0  0  0  0
   -2.0968   19.0995  -27.8454 H   0  0  0  0  0  0  0  0  0  0  0  0
   -3.6622   19.9645  -27.5834 H   0  0  0  0  0  0  0  0  0  0  0  0
   -3.1668   19.7051  -29.9931 H   0  0  0  0  0  0  0  0  0  0  0  0
   -3.1693   21.4473  -29.4784 H   0  0  0  0  0  0  0  0  0  0  0  0
   -5.2630   21.2659  -33.3199 H   0  0  0  0  0  0  0  0  0  0  0  0
   -5.7945   20.9112  -30.6908 H   0  0  0  0  0  0  0  0  0  0  0  0
   -4.0883   22.2042  -29.4182 H   0  0  0  0  0  0  0  0  0  0  0  0
   -0.0488   27.6915  -28.0049 H   0  0  0  0  0  0  0  0  0  0  0  0
    0.1105   28.3416  -25.6042 H   0  0  0  0  0  0  0  0  0  0  0  0
  1  2  1  0
  2  3  1  0
  3  4  2  0
  4  5  1  0
  5  6  2  0
  6  7  1  0
  7  8  1  0
  8  9  2  0
  8 10  1  0
 10 11  1  0
 11 12  2  0
 12 13  1  0
 13 14  2  0
 14 15  1  0
 15 16  1  0
 16 17  2  0
 17 18  1  0
 18 19  2  0
 19 20  1  0
 20 21  2  0
 21 22  1  0
 22 23  2  0
 23 24  1  0
 24 25  1  0
 25 26  2  0
 25 27  1  0
 27 28  2  3
 28 29  1  0
 29 30  1  0
 30 31  1  0
 31 32  1  0
 32 33  1  0
 33 34  1  0
 33 35  1  0
 35 36  1  0
 23 37  1  0
 37 38  2  0
 14 39  1  0
 39 40  2  0
  6 41  1  0
 41 42  2  0
 42  3  1  0
 40 11  1  0
 38 16  1  0
 38 20  1  0
 36 30  1  0
  1 43  1  0
  1 44  1  0
  1 45  1  0
  4 46  1  0
  5 47  1  0
 10 48  1  0
 12 49  1  0
 13 50  1  0
 17 51  1  0
 18 52  1  0
 19 53  1  0
 21 54  1  0
 22 55  1  0
 27 56  1  0
 28 57  1  0
 29 58  1  0
 29 59  1  0
 31 60  1  0
 31 61  1  0
 32 62  1  0
 32 63  1  0
 34 64  1  0
 34 65  1  0
 34 66  1  0
 35 67  1  0
 35 68  1  0
 36 69  1  0
 36 70  1  0
 37 71  1  0
 39 72  1  0
 40 73  1  0
 41 74  1  0
 42 75  1  0
M  CHG  2   7  -1  24  -1
M  END
>  <UniqueID>  (31) 
31

>  <SMILES>  (31) 
COc1ccc([N-]C(=O)Nc2ccc(Oc3cccc4ccc([N-]C(=O)C=CCN5CCN(C)CC5)cc34)cc2)cc1

>  <Energy>  (31) 
119.26875170644648

>  <Genealogy>  (31) 
COc1ccc([N-]C(=O)Nc2ccc(Oc3cccc4ccc([N-]C(=O)C=CCN5CCN(C)CC5)cc34)cc2)cc1 (protonated)
COc1ccc([N-]C(=O)Nc2ccc(Oc3cccc4ccc([N-]C(=O)C=CCN5CCN(C)CC5)cc34)cc2)cc1 (3D coordinates assigned)
COc1ccc([N-]C(=O)Nc2ccc(Oc3cccc4ccc([N-]C(=O)C=CCN5CCN(C)CC5)cc34)cc2)cc1 (nonaromatic ring conformer: 119.26875170644648 kcal/mol)

>  <smiles>  (31) 
COc1ccc(NC(=O)Nc2ccc(Oc3cccc4ccc(NC(=O)C=CCN5CCN(C)CC5)cc34)cc2)cc1

>  <score_type>  (31) 
oracle

>  <origin>  (31) 
adgpu

>  <m_score__min__energy>  (31) 
-13.140000000000001

>  <m_primary>  (31) 
energy

$$$$
31:0
     RDKit          3D

 49 52  0  0  0  0  0  0  0  0999 V2000
    1.7460   18.6810  -31.0830 C   0  0  0  0  0  0  0  0  0  0  0  0
    1.3520   19.5110  -32.1730 O   0  0  0  0  0  0  0  0  0  0  0  0
    0.0210   19.8270  -32.4840 C   0  0  0  0  0  0  0  0  0  0  0  0
   -0.2730   21.1290  -32.9030 C   0  0  0  0  0  0  0  0  0  0  0  0
   -1.5860   21.4940  -33.2200 C   0  0  0  0  0  0  0  0  0  0  0  0
   -2.6250   20.5590  -33.1290 C   0  0  0  0  0  0  0  0  0  0  0  0
   -3.9540   20.9750  -33.4730 N   0  0  0  0  0  0  0  0  0  0  0  0
   -5.3340   20.8850  -32.4270 S   0  0  0  0  0  0  0  0  0  0  0  0
   -6.5410   20.5030  -33.2370 O   0  0  0  0  0  0  0  0  0  0  0  0
   -5.1050   19.8270  -31.3840 O   0  0  0  0  0  0  0  0  0  0  0  0
   -5.6240   22.4550  -31.6820 C   0  0  0  0  0  0  0  0  0  0  0  0
   -6.9300   22.9290  -31.4920 C   0  0  0  0  0  0  0  0  0  0  0  0
   -7.1440   24.1710  -30.8910 C   0  0  0  0  0  0  0  0  0  0  0  0
   -6.0580   24.9480  -30.4760 C   0  0  0  0  0  0  0  0  0  0  0  0
   -4.7440   24.4780  -30.6520 C   0  0  0  0  0  0  0  0  0  0  0  0
   -3.6010   25.2660  -30.2890 N   0  0  0  0  0  0  0  0  0  0  0  0
   -2.6160   24.9290  -29.3030 C   0  0  0  0  0  0  0  0  0  0  0  0
   -1.6220   25.6790  -29.1130 O   0  0  0  0  0  0  0  0  0  0  0  0
   -2.8060   23.8000  -28.4460 N   0  0  0  0  0  0  0  0  0  0  0  0
   -2.0640   22.5730  -28.4960 C   0  0  0  0  0  0  0  0  0  0  0  0
   -0.9850   22.3960  -29.3820 C   0  0  0  0  0  0  0  0  0  0  0  0
   -0.2610   21.2000  -29.3870 C   0  0  0  0  0  0  0  0  0  0  0  0
   -0.5960   20.1750  -28.4980 C   0  0  0  0  0  0  0  0  0  0  0  0
    0.1080   19.0100  -28.5000 N   0  0  0  0  0  0  0  0  0  0  0  0
   -0.1860   17.9950  -27.6460 C   0  0  0  0  0  0  0  0  0  0  0  0
    0.4860   16.9310  -27.6830 O   0  0  0  0  0  0  0  0  0  0  0  0
   -1.2370   18.1290  -26.7300 C   0  0  0  0  0  0  0  0  0  0  0  0
   -1.9770   19.3130  -26.7040 C   0  0  0  0  0  0  0  0  0  0  0  0
   -1.6630   20.3500  -27.5910 C   0  0  0  0  0  0  0  0  0  0  0  0
   -2.3860   21.5540  -27.5910 C   0  0  0  0  0  0  0  0  0  0  0  0
   -4.5370   23.2360  -31.2660 C   0  0  0  0  0  0  0  0  0  0  0  0
   -2.3330   19.2470  -32.7180 C   0  0  0  0  0  0  0  0  0  0  0  0
   -1.0210   18.8840  -32.3940 C   0  0  0  0  0  0  0  0  0  0  0  0
    1.5073   19.1839  -30.1342 H   0  0  0  0  0  0  0  0  0  0  0  0
    1.2060   17.7242  -31.1368 H   0  0  0  0  0  0  0  0  0  0  0  0
    2.8287   18.4945  -31.1368 H   0  0  0  0  0  0  0  0  0  0  0  0
    0.5344   21.8716  -32.9839 H   0  0  0  0  0  0  0  0  0  0  0  0
   -1.8039   22.5227  -33.5430 H   0  0  0  0  0  0  0  0  0  0  0  0
   -7.7874   22.3213  -31.8170 H   0  0  0  0  0  0  0  0  0  0  0  0
   -8.1700   24.5393  -30.7435 H   0  0  0  0  0  0  0  0  0  0  0  0
   -6.2318   25.9294  -30.0106 H   0  0  0  0  0  0  0  0  0  0  0  0
   -0.7094   23.2042  -30.0754 H   0  0  0  0  0  0  0  0  0  0  0  0
    0.5732   21.0656  -30.0914 H   0  0  0  0  0  0  0  0  0  0  0  0
   -1.4774   17.3090  -26.0373 H   0  0  0  0  0  0  0  0  0  0  0  0
   -2.8043   19.4307  -25.9887 H   0  0  0  0  0  0  0  0  0  0  0  0
   -3.2097   21.6974  -26.8762 H   0  0  0  0  0  0  0  0  0  0  0  0
   -3.5116   22.8702  -31.4232 H   0  0  0  0  0  0  0  0  0  0  0  0
   -3.1396   18.5021  -32.6507 H   0  0  0  0  0  0  0  0  0  0  0  0
   -0.8024   17.8566  -32.0673 H   0  0  0  0  0  0  0  0  0  0  0  0
  1  2  1  0
  2  3  1  0
  3  4  2  0
  4  5  1  0
  5  6  2  0
  6  7  1  0
  7  8  1  0
  8  9  2  0
  8 10  2  0
  8 11  1  0
 11 12  2  0
 12 13  1  0
 13 14  2  0
 14 15  1  0
 15 16  1  0
 16 17  1  0
 17 18  2  0
 17 19  1  0
 19 20  1  0
 20 21  2  0
 21 22  1  0
 22 23  2  0
 23 24  1  0
 24 25  1  0
 25 26  2  0
 25 27  1  0
 27 28  2  0
 28 29  1  0
 29 30  2  0
 15 31  2  0
  6 32  1  0
 32 33  2  0
 33  3  1  0
 31 11  1  0
 30 20  1  0
 29 23  1  0
  1 34  1  0
  1 35  1  0
  1 36  1  0
  4 37  1  0
  5 38  1  0
 12 39  1  0
 13 40  1  0
 14 41  1  0
 21 42  1  0
 22 43  1  0
 27 44  1  0
 28 45  1  0
 30 46  1  0
 31 47  1  0
 32 48  1  0
 33 49  1  0
M  CHG  4   7  -1  16  -1  19  -1  24  -1
M  END
>  <UniqueID>  (32) 
32

>  <SMILES>  (32) 
COc1ccc([N-]S(=O)(=O)c2cccc([N-]C(=O)[N-]c3ccc4[n-]c(=O)ccc4c3)c2)cc1

>  <Energy>  (32) 
66.63000136281445

>  <Genealogy>  (32) 
COc1ccc([N-]S(=O)(=O)c2cccc([N-]C(=O)[N-]c3ccc4[n-]c(=O)ccc4c3)c2)cc1 (protonated)
COc1ccc([N-]S(=O)(=O)c2cccc([N-]C(=O)[N-]c3ccc4[n-]c(=O)ccc4c3)c2)cc1 (3D coordinates assigned)
COc1ccc([N-]S(=O)(=O)c2cccc([N-]C(=O)[N-]c3ccc4[n-]c(=O)ccc4c3)c2)cc1 (optimized conformer: 66.63000136281445 kcal/mol)

>  <smiles>  (32) 
COc1ccc(NS(=O)(=O)c2cccc(NC(=O)Nc3ccc4[nH]c(=O)ccc4c3)c2)cc1

>  <score_type>  (32) 
oracle

>  <origin>  (32) 
adgpu

>  <m_score__min__energy>  (32) 
-11.66

>  <m_primary>  (32) 
energy

$$$$
32:0
     RDKit          3D

 58 61  0  0  0  0  0  0  0  0999 V2000
   -5.0340   20.3000  -33.3060 C   0  0  0  0  0  0  0  0  0  0  0  0
   -5.9380   21.2470  -32.5700 C   0  0  0  0  0  0  0  0  0  0  0  0
   -7.3050   20.9540  -32.4380 C   0  0  0  0  0  0  0  0  0  0  0  0
   -8.1520   21.8140  -31.7210 C   0  0  0  0  0  0  0  0  0  0  0  0
   -9.6060   21.4800  -31.5520 C   0  0  0  0  0  0  0  0  0  0  0  0
   -7.6130   22.9490  -31.0970 C   0  0  0  0  0  0  0  0  0  0  0  0
   -6.2480   23.2410  -31.2110 C   0  0  0  0  0  0  0  0  0  0  0  0
   -5.5870   24.6420  -30.3710 S   0  0  0  0  0  0  0  0  0  0  0  0
   -6.7000   25.6190  -30.1190 O   0  0  0  0  0  0  0  0  0  0  0  0
   -4.5270   25.3150  -31.1970 O   0  0  0  0  0  0  0  0  0  0  0  0
   -4.9000   24.1460  -28.8550 N   0  0  0  0  0  0  0  0  0  0  0  0
   -3.8650   23.1540  -28.7400 C   0  0  0  0  0  0  0  0  0  0  0  0
   -3.5310   22.6580  -27.4720 C   0  0  0  0  0  0  0  0  0  0  0  0
   -2.5510   21.6750  -27.3290 C   0  0  0  0  0  0  0  0  0  0  0  0
   -1.8910   21.1700  -28.4520 C   0  0  0  0  0  0  0  0  0  0  0  0
   -0.9490   20.2030  -28.2980 N   0  0  0  0  0  0  0  0  0  0  0  0
   -0.2700   19.6740  -29.3500 C   0  0  0  0  0  0  0  0  0  0  0  0
    0.6990   18.6350  -29.1190 N   0  0  0  0  0  0  0  0  0  0  0  0
    0.3970   17.5660  -28.1620 C   0  0  0  0  0  0  0  0  0  0  0  0
    1.4130   16.4190  -28.2840 C   0  0  0  0  0  0  0  0  0  0  0  0
    1.7690   16.1490  -29.6950 N   0  0  0  0  0  0  0  0  0  0  0  0
    0.6390   15.5680  -30.4410 C   0  0  0  0  0  0  0  0  0  0  0  0
    2.3510   17.3240  -30.3980 C   0  0  0  0  0  0  0  0  0  0  0  0
    2.0330   18.6730  -29.7270 C   0  0  0  0  0  0  0  0  0  0  0  0
   -0.5670   20.1090  -30.6500 C   0  0  0  0  0  0  0  0  0  0  0  0
   -1.5320   21.1060  -30.8590 C   0  0  0  0  0  0  0  0  0  0  0  0
   -1.8440   21.5370  -32.2700 C   0  0  0  0  0  0  0  0  0  0  0  0
   -2.2040   21.6590  -29.7420 C   0  0  0  0  0  0  0  0  0  0  0  0
   -3.1780   22.6680  -29.8690 C   0  0  0  0  0  0  0  0  0  0  0  0
   -5.4130   22.3880  -31.9470 C   0  0  0  0  0  0  0  0  0  0  0  0
   -4.4624   19.7012  -32.5817 H   0  0  0  0  0  0  0  0  0  0  0  0
   -5.6384   19.6324  -33.9377 H   0  0  0  0  0  0  0  0  0  0  0  0
   -4.3391   20.8728  -33.9377 H   0  0  0  0  0  0  0  0  0  0  0  0
   -7.7153   20.0438  -32.8998 H   0  0  0  0  0  0  0  0  0  0  0  0
   -9.8473   21.4246  -30.4802 H   0  0  0  0  0  0  0  0  0  0  0  0
  -10.2191   22.2607  -32.0260 H   0  0  0  0  0  0  0  0  0  0  0  0
   -9.8169   20.5100  -32.0260 H   0  0  0  0  0  0  0  0  0  0  0  0
   -8.2670   23.6142  -30.5141 H   0  0  0  0  0  0  0  0  0  0  0  0
   -5.3630   24.5000  -27.9880 H   0  0  0  0  0  0  0  0  0  0  0  0
   -4.0463   23.0473  -26.5815 H   0  0  0  0  0  0  0  0  0  0  0  0
   -2.2971   21.2962  -26.3280 H   0  0  0  0  0  0  0  0  0  0  0  0
    0.4356   17.9745  -27.1414 H   0  0  0  0  0  0  0  0  0  0  0  0
   -0.6066   17.1718  -28.3798 H   0  0  0  0  0  0  0  0  0  0  0  0
    2.3250   16.6908  -27.7323 H   0  0  0  0  0  0  0  0  0  0  0  0
    0.9550   15.5102  -27.8666 H   0  0  0  0  0  0  0  0  0  0  0  0
   -0.1092   15.1833  -29.7323 H   0  0  0  0  0  0  0  0  0  0  0  0
    0.1806   16.3422  -31.0738 H   0  0  0  0  0  0  0  0  0  0  0  0
    1.0020   14.7447  -31.0738 H   0  0  0  0  0  0  0  0  0  0  0  0
    3.4438   17.2022  -30.4300 H   0  0  0  0  0  0  0  0  0  0  0  0
    1.8997   17.3519  -31.4008 H   0  0  0  0  0  0  0  0  0  0  0  0
    2.7819   18.8763  -28.9473 H   0  0  0  0  0  0  0  0  0  0  0  0
    2.0577   19.4668  -30.4881 H   0  0  0  0  0  0  0  0  0  0  0  0
   -0.0413   19.6668  -31.5091 H   0  0  0  0  0  0  0  0  0  0  0  0
   -2.4889   22.4278  -32.2472 H   0  0  0  0  0  0  0  0  0  0  0  0
   -0.9078   21.7754  -32.7960 H   0  0  0  0  0  0  0  0  0  0  0  0
   -2.3629   20.7221  -32.7960 H   0  0  0  0  0  0  0  0  0  0  0  0
   -3.4050   23.0817  -30.8626 H   0  0  0  0  0  0  0  0  0  0  0  0
   -4.3404   22.6153  -32.0360 H   0  0  0  0  0  0  0  0  0  0  0  0
  1  2  1  0
  2  3  2  0
  3  4  1  0
  4  5  1  0
  4  6  2  0
  6  7  1  0
  7  8  1  0
  8  9  2  0
  8 10  2  0
  8 11  1  0
 11 12  1  0
 12 13  2  0
 13 14  1  0
 14 15  2  0
 15 16  1  0
 16 17  2  0
 17 18  1  0
 18 19  1  0
 19 20  1  0
 20 21  1  0
 21 22  1  0
 21 23  1  0
 23 24  1  0
 17 25  1  0
 25 26  2  0
 26 27  1  0
 26 28  1  0
 28 29  2  0
  7 30  2  0
 30  2  1  0
 29 12  1  0
 28 15  1  0
 24 18  1  0
  1 31  1  0
  1 32  1  0
  1 33  1  0
  3 34  1  0
  5 35  1  0
  5 36  1  0
  5 37  1  0
  6 38  1  0
 11 39  1  0
 13 40  1  0
 14 41  1  0
 19 42  1  0
 19 43  1  0
 20 44  1  0
 20 45  1  0
 22 46  1  0
 22 47  1  0
 22 48  1  0
 23 49  1  0
 23 50  1  0
 24 51  1  0
 24 52  1  0
 25 53  1  0
 27 54  1  0
 27 55  1  0
 27 56  1  0
 29 57  1  0
 30 58  1  0
M  END
>  <UniqueID>  (33) 
33

>  <SMILES>  (33) 
Cc1cc(C)cc(S(=O)(=O)Nc2ccc3nc(N4CCN(C)CC4)cc(C)c3c2)c1

>  <Energy>  (33) 
75.27226832567494

>  <Genealogy>  (33) 
Cc1cc(C)cc(S(=O)(=O)Nc2ccc3nc(N4CCN(C)CC4)cc(C)c3c2)c1 (3D coordinates assigned)
Cc1cc(C)cc(S(=O)(=O)Nc2ccc3nc(N4CCN(C)CC4)cc(C)c3c2)c1 (nonaromatic ring conformer: 75.27226832567494 kcal/mol)

>  <smiles>  (33) 
Cc1cc(C)cc(S(=O)(=O)Nc2ccc3nc(N4CCN(C)CC4)cc(C)c3c2)c1

>  <score_type>  (33) 
oracle

>  <origin>  (33) 
adgpu

>  <m_score__min__energy>  (33) 
-10.19

>  <m_primary>  (33) 
energy

$$$$
33:0
     RDKit          3D

 43 45  0  0  0  0  0  0  0  0999 V2000
   -9.1530   20.4370  -30.8270 N   0  0  0  0  0  0  0  0  0  0  0  0
   -8.3940   19.9500  -31.5520 C   0  0  0  0  0  0  0  0  0  0  0  0
   -7.4490   19.3430  -32.4530 C   0  0  0  0  0  0  0  0  0  0  0  0
   -7.2710   17.9550  -32.4530 C   0  0  0  0  0  0  0  0  0  0  0  0
   -6.3550   17.3650  -33.3300 C   0  0  0  0  0  0  0  0  0  0  0  0
   -5.5990   18.1570  -34.2070 C   0  0  0  0  0  0  0  0  0  0  0  0
   -4.6780   17.5260  -35.1140 N   0  0  0  0  0  0  0  0  0  0  0  0
   -3.5210   16.7810  -34.6950 C   0  0  0  0  0  0  0  0  0  0  0  0
   -3.4230   15.4150  -35.0170 C   0  0  0  0  0  0  0  0  0  0  0  0
   -2.2770   14.6890  -34.6920 C   0  0  0  0  0  0  0  0  0  0  0  0
   -1.2090   15.3200  -34.0540 C   0  0  0  0  0  0  0  0  0  0  0  0
   -1.2850   16.6780  -33.7360 C   0  0  0  0  0  0  0  0  0  0  0  0
   -2.4350   17.4250  -34.0520 C   0  0  0  0  0  0  0  0  0  0  0  0
   -2.4970   18.8530  -33.6530 C   0  0  0  0  0  0  0  0  0  0  0  0
   -2.8150   19.7280  -34.5040 O   0  0  0  0  0  0  0  0  0  0  0  0
   -2.1770   19.2440  -32.3070 N   0  0  0  0  0  0  0  0  0  0  0  0
   -2.5150   20.5210  -31.7410 C   0  0  0  0  0  0  0  0  0  0  0  0
   -3.6720   21.2180  -32.1370 C   0  0  0  0  0  0  0  0  0  0  0  0
   -3.9910   22.4480  -31.5550 C   0  0  0  0  0  0  0  0  0  0  0  0
   -3.1700   22.9900  -30.5570 C   0  0  0  0  0  0  0  0  0  0  0  0
   -3.5630   24.5460  -29.8330 S   0  0  0  0  0  0  0  0  0  0  0  0
   -2.1190   25.2890  -29.2430 N   0  0  0  0  0  0  0  0  0  0  0  0
   -4.5290   24.3510  -28.6980 O   0  0  0  0  0  0  0  0  0  0  0  0
   -4.2010   25.4410  -30.8590 O   0  0  0  0  0  0  0  0  0  0  0  0
   -2.0250   22.2940  -30.1500 C   0  0  0  0  0  0  0  0  0  0  0  0
   -1.7060   21.0630  -30.7300 C   0  0  0  0  0  0  0  0  0  0  0  0
   -5.7970   19.5510  -34.2150 C   0  0  0  0  0  0  0  0  0  0  0  0
   -6.7130   20.1390  -33.3390 C   0  0  0  0  0  0  0  0  0  0  0  0
   -7.8525   17.3269  -31.7621 H   0  0  0  0  0  0  0  0  0  0  0  0
   -6.2265   16.2725  -33.3321 H   0  0  0  0  0  0  0  0  0  0  0  0
   -4.8790   17.5780  -36.1390 H   0  0  0  0  0  0  0  0  0  0  0  0
   -4.2578   14.9148  -35.5298 H   0  0  0  0  0  0  0  0  0  0  0  0
   -2.2155   13.6188  -34.9389 H   0  0  0  0  0  0  0  0  0  0  0  0
   -0.3049   14.7469  -33.8008 H   0  0  0  0  0  0  0  0  0  0  0  0
   -0.4379   17.1682  -33.2338 H   0  0  0  0  0  0  0  0  0  0  0  0
   -1.5770   18.6020  -31.7420 H   0  0  0  0  0  0  0  0  0  0  0  0
   -4.3292   20.7920  -32.9094 H   0  0  0  0  0  0  0  0  0  0  0  0
   -4.8894   22.9924  -31.8814 H   0  0  0  0  0  0  0  0  0  0  0  0
   -1.6100   25.6680  -30.0730 H   0  0  0  0  0  0  0  0  0  0  0  0
   -1.3742   22.7177  -29.3709 H   0  0  0  0  0  0  0  0  0  0  0  0
   -0.8143   20.5148  -30.3917 H   0  0  0  0  0  0  0  0  0  0  0  0
   -5.2275   20.1805  -34.9146 H   0  0  0  0  0  0  0  0  0  0  0  0
   -6.8562   21.2296  -33.3454 H   0  0  0  0  0  0  0  0  0  0  0  0
  1  2  3  0
  2  3  1  0
  3  4  2  0
  4  5  1  0
  5  6  2  0
  6  7  1  0
  7  8  1  0
  8  9  2  0
  9 10  1  0
 10 11  2  0
 11 12  1  0
 12 13  2  0
 13 14  1  0
 14 15  2  0
 14 16  1  0
 16 17  1  0
 17 18  2  0
 18 19  1  0
 19 20  2  0
 20 21  1  0
 21 22  1  0
 21 23  2  0
 21 24  2  0
 20 25  1  0
 25 26  2  0
  6 27  1  0
 27 28  2  0
 28  3  1  0
 13  8  1  0
 26 17  1  0
  4 29  1  0
  5 30  1  0
  7 31  1  0
  9 32  1  0
 10 33  1  0
 11 34  1  0
 12 35  1  0
 16 36  1  0
 18 37  1  0
 19 38  1  0
 22 39  1  0
 25 40  1  0
 26 41  1  0
 27 42  1  0
 28 43  1  0
M  CHG  1  22  -1
M  END
>  <UniqueID>  (34) 
34

>  <SMILES>  (34) 
N#Cc1ccc(Nc2ccccc2C(=O)Nc2ccc(S([NH-])(=O)=O)cc2)cc1

>  <Energy>  (34) 
58.23047220533427

>  <Genealogy>  (34) 
N#Cc1ccc(Nc2ccccc2C(=O)Nc2ccc(S([NH-])(=O)=O)cc2)cc1 (protonated)
N#Cc1ccc(Nc2ccccc2C(=O)Nc2ccc(S([NH-])(=O)=O)cc2)cc1 (3D coordinates assigned)
N#Cc1ccc(Nc2ccccc2C(=O)Nc2ccc(S([NH-])(=O)=O)cc2)cc1 (optimized conformer: 58.23047220533427 kcal/mol)

>  <smiles>  (34) 
N#Cc1ccc(Nc2ccccc2C(=O)Nc2ccc(S(N)(=O)=O)cc2)cc1

>  <score_type>  (34) 
oracle

>  <origin>  (34) 
adgpu

>  <m_score__min__energy>  (34) 
-11.16

>  <m_primary>  (34) 
energy

$$$$
34:0
     RDKit          3D

 44 46  0  0  0  0  0  0  0  0999 V2000
   -9.7525   18.8465  -31.3420 H   0  0  0  0  0  0  0  0  0  0  0  0
   -8.7660   19.1740  -31.7020 C   0  0  0  0  0  0  0  0  0  0  0  0
   -8.2170   20.3230  -31.2280 N   0  0  0  0  0  0  0  0  0  0  0  0
   -6.9980   20.7720  -31.6400 C   0  0  0  0  0  0  0  0  0  0  0  0
   -6.4620   21.9980  -31.1000 N   0  0  0  0  0  0  0  0  0  0  0  0
   -5.1570   22.2850  -30.8790 C   0  0  0  0  0  0  0  0  0  0  0  0
   -4.2040   21.4230  -31.1090 N   0  0  0  0  0  0  0  0  0  0  0  0
   -2.4950   21.5560  -30.8290 S   0  0  0  0  0  0  0  0  0  0  0  0
   -1.7970   20.5530  -31.7000 O   0  0  0  0  0  0  0  0  0  0  0  0
   -2.0110   22.9280  -31.2010 O   0  0  0  0  0  0  0  0  0  0  0  0
   -2.1080   21.1870  -29.1520 C   0  0  0  0  0  0  0  0  0  0  0  0
   -0.9590   21.7140  -28.5490 C   0  0  0  0  0  0  0  0  0  0  0  0
   -0.2875   22.3678  -29.1249 H   0  0  0  0  0  0  0  0  0  0  0  0
   -0.6720   21.4190  -27.2530 N   0  0  0  0  0  0  0  0  0  0  0  0
   -1.4800   20.6180  -26.5070 C   0  0  0  0  0  0  0  0  0  0  0  0
   -1.2194   20.3954  -25.4617 H   0  0  0  0  0  0  0  0  0  0  0  0
   -2.6400   20.0780  -27.0670 C   0  0  0  0  0  0  0  0  0  0  0  0
   -3.2977   19.4314  -26.4676 H   0  0  0  0  0  0  0  0  0  0  0  0
   -2.9560   20.3680  -28.3970 C   0  0  0  0  0  0  0  0  0  0  0  0
   -3.8690   19.9537  -28.8496 H   0  0  0  0  0  0  0  0  0  0  0  0
   -5.0640   23.5820  -30.3620 C   0  0  0  0  0  0  0  0  0  0  0  0
   -3.8900   24.3860  -29.9910 C   0  0  0  0  0  0  0  0  0  0  0  0
   -3.4960   25.2930  -30.7670 O   0  0  0  0  0  0  0  0  0  0  0  0
   -3.1310   24.1030  -28.8070 N   0  0  0  0  0  0  0  0  0  0  0  0
   -3.6920   23.8720  -27.4770 C   0  0  0  0  0  0  0  0  0  0  0  0
   -3.3676   22.8846  -27.1168 H   0  0  0  0  0  0  0  0  0  0  0  0
   -4.7888   23.9165  -27.5479 H   0  0  0  0  0  0  0  0  0  0  0  0
   -3.2270   24.9380  -26.4930 C   0  0  0  0  0  0  0  0  0  0  0  0
   -3.3829   24.5806  -25.4644 H   0  0  0  0  0  0  0  0  0  0  0  0
   -2.1579   25.1425  -26.6520 H   0  0  0  0  0  0  0  0  0  0  0  0
   -3.8044   25.8607  -26.6520 H   0  0  0  0  0  0  0  0  0  0  0  0
   -6.3810   24.0180  -30.2980 C   0  0  0  0  0  0  0  0  0  0  0  0
   -6.8750   25.3080  -29.7210 C   0  0  0  0  0  0  0  0  0  0  0  0
   -6.8530   25.2507  -28.6227 H   0  0  0  0  0  0  0  0  0  0  0  0
   -6.2287   26.1318  -30.0582 H   0  0  0  0  0  0  0  0  0  0  0  0
   -7.9062   25.4894  -30.0582 H   0  0  0  0  0  0  0  0  0  0  0  0
   -7.1950   23.0410  -30.7390 N   0  0  0  0  0  0  0  0  0  0  0  0
   -8.2350   23.1040  -30.8040 H   0  0  0  0  0  0  0  0  0  0  0  0
   -6.2830   20.0270  -32.5940 C   0  0  0  0  0  0  0  0  0  0  0  0
   -5.2999   20.3742  -32.9448 H   0  0  0  0  0  0  0  0  0  0  0  0
   -6.8300   18.8430  -33.0930 C   0  0  0  0  0  0  0  0  0  0  0  0
   -6.2768   18.2527  -33.8384 H   0  0  0  0  0  0  0  0  0  0  0  0
   -8.0780   18.4090  -32.6460 C   0  0  0  0  0  0  0  0  0  0  0  0
   -8.5146   17.4761  -33.0322 H   0  0  0  0  0  0  0  0  0  0  0  0
  1  2  1  0
  2  3  2  0
  3  4  1  0
  4  5  1  0
  5  6  1  0
  6  7  2  0
  7  8  1  0
  8  9  2  0
  8 10  2  0
  8 11  1  0
 11 12  2  0
 12 13  1  0
 12 14  1  0
 14 15  2  0
 15 16  1  0
 15 17  1  0
 17 18  1  0
 17 19  2  0
 19 20  1  0
  6 21  1  0
 21 22  1  0
 22 23  2  0
 22 24  1  0
 24 25  1  0
 25 26  1  0
 25 27  1  0
 25 28  1  0
 28 29  1  0
 28 30  1  0
 28 31  1  0
 21 32  2  0
 32 33  1  0
 33 34  1  0
 33 35  1  0
 33 36  1  0
 32 37  1  0
 37 38  1  0
  4 39  2  0
 39 40  1  0
 39 41  1  0
 41 42  1  0
 41 43  2  0
 43 44  1  0
 43  2  1  0
 37  5  1  0
 19 11  1  0
M  CHG  1  24  -1
M  END
>  <UniqueID>  (35) 
35

>  <SMILES>  (35) 
CC[N-]C(=O)c1c(C)[nH]n(-c2ccccn2)/c1=N/S(=O)(=O)c1cccnc1

>  <Energy>  (35) 
93.11125934313489

>  <Genealogy>  (35) 
CC[N-]C(=O)c1c(C)[nH]n(-c2ccccn2)c1=NS(=O)(=O)c1cccnc1 (protonated)
CC[N-]C(=O)c1c(C)[nH]n(-c2ccccn2)/c1=N/S(=O)(=O)c1cccnc1 (cis-trans isomerization)
CC[N-]C(=O)c1c(C)[nH]n(-c2ccccn2)/c1=N/S(=O)(=O)c1cccnc1 (3D coordinates assigned)
CC[N-]C(=O)c1c(C)[nH]n(-c2ccccn2)/c1=N/S(=O)(=O)c1cccnc1 (optimized conformer: 93.11125934313489 kcal/mol)

>  <smiles>  (35) 
CCNC(=O)c1c(C)[nH]n(-c2ccccn2)c1=NS(=O)(=O)c1cccnc1

>  <score_type>  (35) 
oracle

>  <origin>  (35) 
adgpu

>  <m_score__min__energy>  (35) 
-9.2400000000000002

>  <m_primary>  (35) 
energy

$$$$
35:0
     RDKit          3D

 55 58  0  0  0  0  0  0  0  0999 V2000
   -7.8480   13.9750  -35.2060 H   0  0  0  0  0  0  0  0  0  0  0  0
   -6.9280   13.6000  -35.2030 O   0  0  0  0  0  0  0  0  0  0  0  0
   -6.2180   14.2650  -34.1800 C   0  0  2  0  0  0  0  0  0  0  0  0
   -6.2471   13.6840  -33.2464 H   0  0  0  0  0  0  0  0  0  0  0  0
   -6.8880   15.6280  -33.8570 C   0  0  0  0  0  0  0  0  0  0  0  0
   -6.7283   15.8506  -32.7917 H   0  0  0  0  0  0  0  0  0  0  0  0
   -7.9546   15.5315  -34.1080 H   0  0  0  0  0  0  0  0  0  0  0  0
   -6.3310   16.8000  -34.6890 C   0  0  0  0  0  0  0  0  0  0  0  0
   -6.7561   17.7370  -34.3000 H   0  0  0  0  0  0  0  0  0  0  0  0
   -6.6142   16.6187  -35.7363 H   0  0  0  0  0  0  0  0  0  0  0  0
   -4.7800   16.9060  -34.6440 C   0  0  1  0  0  0  0  0  0  0  0  0
   -4.4719   16.9514  -35.6990 H   0  0  0  0  0  0  0  0  0  0  0  0
   -4.3150   18.1390  -33.9940 N   0  0  0  0  0  0  0  0  0  0  0  0
   -4.9820   18.9030  -33.1740 C   0  0  0  0  0  0  0  0  0  0  0  0
   -6.2720   18.6230  -32.8450 N   0  0  0  0  0  0  0  0  0  0  0  0
   -6.9750   19.4070  -31.9900 C   0  0  0  0  0  0  0  0  0  0  0  0
   -8.6350   19.0030  -31.6060 Cl  0  0  0  0  0  0  0  0  0  0  0  0
   -6.3650   20.5240  -31.4240 C   0  0  0  0  0  0  0  0  0  0  0  0
   -6.9262   21.1659  -30.7290 H   0  0  0  0  0  0  0  0  0  0  0  0
   -5.0690   20.8200  -31.7340 N   0  0  0  0  0  0  0  0  0  0  0  0
   -4.4510   21.9660  -31.1170 C   0  0  0  0  0  0  0  0  0  0  0  0
   -3.3030   21.8030  -30.3110 C   0  0  0  0  0  0  0  0  0  0  0  0
   -2.7240   20.4350  -30.0640 C   0  0  0  0  0  0  0  0  0  0  0  0
   -2.6493   20.2586  -28.9808 H   0  0  0  0  0  0  0  0  0  0  0  0
   -3.3770   19.6735  -30.5154 H   0  0  0  0  0  0  0  0  0  0  0  0
   -1.7228   20.3736  -30.5154 H   0  0  0  0  0  0  0  0  0  0  0  0
   -2.7150   22.9250  -29.7110 C   0  0  0  0  0  0  0  0  0  0  0  0
   -1.8365   22.7958  -29.0617 H   0  0  0  0  0  0  0  0  0  0  0  0
   -3.2300   24.2040  -29.9270 C   0  0  0  0  0  0  0  0  0  0  0  0
   -2.5960   25.2950  -29.3170 O   0  0  0  0  0  0  0  0  0  0  0  0
   -1.8250   25.2350  -28.1470 C   0  0  0  0  0  0  0  0  0  0  0  0
   -0.4780   25.4150  -28.2430 N   0  0  0  0  0  0  0  0  0  0  0  0
    0.3330   25.3890  -27.1500 C   0  0  0  0  0  0  0  0  0  0  0  0
    1.4171   25.5349  -27.2663 H   0  0  0  0  0  0  0  0  0  0  0  0
   -0.2110   25.1770  -25.8800 C   0  0  0  0  0  0  0  0  0  0  0  0
    0.4409   25.1428  -24.9947 H   0  0  0  0  0  0  0  0  0  0  0  0
   -1.5920   25.0090  -25.7470 C   0  0  0  0  0  0  0  0  0  0  0  0
   -2.0341   24.8502  -24.7523 H   0  0  0  0  0  0  0  0  0  0  0  0
   -2.4100   25.0430  -26.8780 C   0  0  0  0  0  0  0  0  0  0  0  0
   -3.7570   24.9490  -26.7290 F   0  0  0  0  0  0  0  0  0  0  0  0
   -4.3810   24.3630  -30.7140 C   0  0  0  0  0  0  0  0  0  0  0  0
   -4.8096   25.3661  -30.8561 H   0  0  0  0  0  0  0  0  0  0  0  0
   -4.9900   23.2550  -31.3210 C   0  0  0  0  0  0  0  0  0  0  0  0
   -6.2280   23.4510  -32.1540 C   0  0  0  0  0  0  0  0  0  0  0  0
   -7.0966   23.5885  -31.4932 H   0  0  0  0  0  0  0  0  0  0  0  0
   -6.1057   24.3410  -32.7888 H   0  0  0  0  0  0  0  0  0  0  0  0
   -6.3866   22.5668  -32.7888 H   0  0  0  0  0  0  0  0  0  0  0  0
   -4.3660   20.0320  -32.6080 C   0  0  0  0  0  0  0  0  0  0  0  0
   -3.1690   20.3120  -32.8990 O   0  0  0  0  0  0  0  0  0  0  0  0
   -4.0920   15.6640  -34.0430 C   0  0  0  0  0  0  0  0  0  0  0  0
   -4.2021   15.6797  -32.9486 H   0  0  0  0  0  0  0  0  0  0  0  0
   -3.0248   15.6764  -34.3092 H   0  0  0  0  0  0  0  0  0  0  0  0
   -4.7350   14.3940  -34.5990 C   0  0  0  0  0  0  0  0  0  0  0  0
   -4.1820   13.5213  -34.2215 H   0  0  0  0  0  0  0  0  0  0  0  0
   -4.6952   14.4454  -35.6971 H   0  0  0  0  0  0  0  0  0  0  0  0
  1  2  1  0
  2  3  1  0
  3  4  1  1
  3  5  1  0
  5  6  1  0
  5  7  1  0
  5  8  1  0
  8  9  1  0
  8 10  1  0
  8 11  1  0
 11 12  1  6
 11 13  1  0
 13 14  2  0
 14 15  1  0
 15 16  1  0
 16 17  1  0
 16 18  2  0
 18 19  1  0
 18 20  1  0
 20 21  1  0
 21 22  2  0
 22 23  1  0
 23 24  1  0
 23 25  1  0
 23 26  1  0
 22 27  1  0
 27 28  1  0
 27 29  2  0
 29 30  1  0
 30 31  1  0
 31 32  2  0
 32 33  1  0
 33 34  1  0
 33 35  2  0
 35 36  1  0
 35 37  1  0
 37 38  1  0
 37 39  2  0
 39 40  1  0
 29 41  1  0
 41 42  1  0
 41 43  2  0
 43 44  1  0
 44 45  1  0
 44 46  1  0
 44 47  1  0
 20 48  1  0
 48 49  2  0
 11 50  1  0
 50 51  1  0
 50 52  1  0
 50 53  1  0
 53 54  1  0
 53 55  1  0
 53  3  1  0
 48 14  1  0
 43 21  1  0
 39 31  1  0
M  CHG  1  15  -1
M  END
>  <UniqueID>  (36) 
36

>  <SMILES>  (36) 
Cc1cc(Oc2ncccc2F)cc(C)c1-n1cc(Cl)[n-]/c(=N\C2CCC(O)CC2)c1=O

>  <Energy>  (36) 
82.0318451011675

>  <Genealogy>  (36) 
Cc1cc(Oc2ncccc2F)cc(C)c1-n1cc(Cl)[n-]c(=NC2CCC(O)CC2)c1=O (protonated)
Cc1cc(Oc2ncccc2F)cc(C)c1-n1cc(Cl)[n-]/c(=N\C2CCC(O)CC2)c1=O (cis-trans isomerization)
Cc1cc(Oc2ncccc2F)cc(C)c1-n1cc(Cl)[n-]/c(=N\C2CCC(O)CC2)c1=O (3D coordinates assigned)
Cc1cc(Oc2ncccc2F)cc(C)c1-n1cc(Cl)[n-]/c(=N\C2CCC(O)CC2)c1=O (nonaromatic ring conformer: 82.0318451011675 kcal/mol)

>  <smiles>  (36) 
Cc1cc(Oc2ncccc2F)cc(C)c1-n1cc(Cl)[nH]c(=NC2CCC(O)CC2)c1=O

>  <score_type>  (36) 
oracle

>  <origin>  (36) 
adgpu

>  <m_score__min__energy>  (36) 
-9.9499999999999993

>  <m_primary>  (36) 
energy

$$$$
36:0
     RDKit          3D

 40 42  0  0  0  0  0  0  0  0999 V2000
   -0.4090   20.4250  -31.8910 C   0  0  0  0  0  0  0  0  0  0  0  0
   -0.9750   19.1890  -32.4190 N   0  0  0  0  0  0  0  0  0  0  0  0
   -1.9840   19.5430  -33.7880 S   0  0  0  0  0  0  0  0  0  0  0  0
   -2.2630   18.2800  -34.5540 O   0  0  0  0  0  0  0  0  0  0  0  0
   -1.2630   20.5010  -34.6950 O   0  0  0  0  0  0  0  0  0  0  0  0
   -3.4950   20.2810  -33.2590 C   0  0  0  0  0  0  0  0  0  0  0  0
   -4.6940   19.5580  -33.3010 C   0  0  0  0  0  0  0  0  0  0  0  0
   -5.8800   20.1410  -32.8520 C   0  0  0  0  0  0  0  0  0  0  0  0
   -5.8790   21.4520  -32.3670 C   0  0  0  0  0  0  0  0  0  0  0  0
   -4.6850   22.1970  -32.3430 C   0  0  0  0  0  0  0  0  0  0  0  0
   -4.6280   23.5350  -31.8200 N   0  0  0  0  0  0  0  0  0  0  0  0
   -3.8970   23.9490  -30.8260 C   0  0  0  0  0  0  0  0  0  0  0  0
   -3.1280   23.1520  -30.0550 N   0  0  0  0  0  0  0  0  0  0  0  0
   -2.6300   24.0430  -29.1710 C   0  0  0  0  0  0  0  0  0  0  0  0
   -1.8400   23.6920  -28.1990 N   0  0  0  0  0  0  0  0  0  0  0  0
   -1.2320   24.5610  -27.2300 C   0  0  0  0  0  0  0  0  0  0  0  0
    0.0200   25.1170  -27.5200 C   0  0  0  0  0  0  0  0  0  0  0  0
    0.6370   25.9900  -26.6200 C   0  0  0  0  0  0  0  0  0  0  0  0
    0.0030   26.3270  -25.4150 C   0  0  0  0  0  0  0  0  0  0  0  0
    0.6450   27.2960  -24.4680 C   0  0  0  0  0  0  0  0  0  0  0  0
   -1.2730   25.8110  -25.1430 C   0  0  0  0  0  0  0  0  0  0  0  0
   -1.8890   24.9370  -26.0430 C   0  0  0  0  0  0  0  0  0  0  0  0
   -3.0810   25.3000  -29.3690 N   0  0  0  0  0  0  0  0  0  0  0  0
   -3.8800   25.2280  -30.4180 N   0  0  0  0  0  0  0  0  0  0  0  0
   -3.4940   21.5930  -32.7670 C   0  0  0  0  0  0  0  0  0  0  0  0
   -0.4230   20.3944  -30.7915 H   0  0  0  0  0  0  0  0  0  0  0  0
    0.6281   20.5325  -32.2416 H   0  0  0  0  0  0  0  0  0  0  0  0
   -1.0051   21.2804  -32.2416 H   0  0  0  0  0  0  0  0  0  0  0  0
   -4.7009   18.5286  -33.6887 H   0  0  0  0  0  0  0  0  0  0  0  0
   -6.8181   19.5672  -32.8799 H   0  0  0  0  0  0  0  0  0  0  0  0
   -6.8141   21.9028  -32.0030 H   0  0  0  0  0  0  0  0  0  0  0  0
    0.5226   24.8642  -28.4652 H   0  0  0  0  0  0  0  0  0  0  0  0
    1.6236   26.4145  -26.8574 H   0  0  0  0  0  0  0  0  0  0  0  0
    0.4402   26.9869  -23.4324 H   0  0  0  0  0  0  0  0  0  0  0  0
    1.7316   27.3100  -24.6384 H   0  0  0  0  0  0  0  0  0  0  0  0
    0.2342   28.3021  -24.6384 H   0  0  0  0  0  0  0  0  0  0  0  0
   -1.7917   26.0960  -24.2158 H   0  0  0  0  0  0  0  0  0  0  0  0
   -2.8915   24.5412  -25.8230 H   0  0  0  0  0  0  0  0  0  0  0  0
   -4.3990   26.0340  -30.8300 H   0  0  0  0  0  0  0  0  0  0  0  0
   -2.5493   22.1540  -32.7131 H   0  0  0  0  0  0  0  0  0  0  0  0
  1  2  1  0
  2  3  1  0
  3  4  2  0
  3  5  2  0
  3  6  1  0
  6  7  2  0
  7  8  1  0
  8  9  2  0
  9 10  1  0
 10 11  1  0
 11 12  2  3
 12 13  1  0
 13 14  1  0
 14 15  2  3
 15 16  1  0
 16 17  2  0
 17 18  1  0
 18 19  2  0
 19 20  1  0
 19 21  1  0
 21 22  2  0
 14 23  1  0
 23 24  1  0
 10 25  2  0
 25  6  1  0
 24 12  1  0
 22 16  1  0
  1 26  1  0
  1 27  1  0
  1 28  1  0
  7 29  1  0
  8 30  1  0
  9 31  1  0
 17 32  1  0
 18 33  1  0
 20 34  1  0
 20 35  1  0
 20 36  1  0
 21 37  1  0
 22 38  1  0
 24 39  1  0
 25 40  1  0
M  CHG  3   2  -1  13  -1  23  -1
M  END
>  <UniqueID>  (37) 
37

>  <SMILES>  (37) 
C[N-]S(=O)(=O)c1cccc(N=c2[n-]c(=Nc3ccc(C)cc3)[n-][nH]2)c1

>  <Energy>  (37) 
84.72026589888422

>  <Genealogy>  (37) 
C[N-]S(=O)(=O)c1cccc(N=c2[n-]c(=Nc3ccc(C)cc3)[n-][nH]2)c1 (protonated)
C[N-]S(=O)(=O)c1cccc(N=c2[n-]c(=Nc3ccc(C)cc3)[n-][nH]2)c1 (3D coordinates assigned)
C[N-]S(=O)(=O)c1cccc(N=c2[n-]c(=Nc3ccc(C)cc3)[n-][nH]2)c1 (optimized conformer: 84.72026589888422 kcal/mol)

>  <smiles>  (37) 
CNS(=O)(=O)c1cccc(N=c2[nH][nH]c(=Nc3ccc(C)cc3)[nH]2)c1

>  <score_type>  (37) 
oracle

>  <origin>  (37) 
adgpu

>  <m_score__min__energy>  (37) 
-10.890000000000001

>  <m_primary>  (37) 
energy

$$$$
37:0
     RDKit          3D

 33 36  0  0  0  0  0  0  0  0999 V2000
   -2.3680   16.4250  -32.8420 O   0  0  0  0  0  0  0  0  0  0  0  0
   -3.5670   16.5330  -33.2130 C   0  0  0  0  0  0  0  0  0  0  0  0
   -4.4620   15.4220  -33.5210 C   0  0  0  0  0  0  0  0  0  0  0  0
   -4.2470   14.0470  -33.4910 C   0  0  0  0  0  0  0  0  0  0  0  0
   -5.3140   13.2030  -33.8460 C   0  0  0  0  0  0  0  0  0  0  0  0
   -6.5630   13.7470  -34.2210 C   0  0  0  0  0  0  0  0  0  0  0  0
   -8.0020   12.5860  -34.6990 Br  0  0  0  0  0  0  0  0  0  0  0  0
   -6.7540   15.1410  -34.2430 C   0  0  0  0  0  0  0  0  0  0  0  0
   -5.6800   15.9550  -33.8870 C   0  0  0  0  0  0  0  0  0  0  0  0
   -5.5700   17.4070  -33.8130 C   0  0  0  0  0  0  0  0  0  0  0  0
   -6.4920   18.2230  -34.0780 O   0  0  0  0  0  0  0  0  0  0  0  0
   -4.2520   17.7760  -33.3920 N   0  0  0  0  0  0  0  0  0  0  0  0
   -3.7190   19.0930  -33.1910 C   0  0  0  0  0  0  0  0  0  0  0  0
   -4.3910   20.0720  -32.5500 N   0  0  0  0  0  0  0  0  0  0  0  0
   -3.6790   21.2330  -32.4830 C   0  0  0  0  0  0  0  0  0  0  0  0
   -4.2300   22.4390  -31.8130 C   0  0  0  0  0  0  0  0  0  0  0  0
   -5.6040   22.7290  -31.9140 C   0  0  0  0  0  0  0  0  0  0  0  0
   -6.1400   23.8590  -31.2910 C   0  0  0  0  0  0  0  0  0  0  0  0
   -5.3190   24.7210  -30.5620 C   0  0  0  0  0  0  0  0  0  0  0  0
   -5.8810   25.8420  -29.9510 O   0  0  0  0  0  0  0  0  0  0  0  0
   -3.9460   24.4490  -30.4580 C   0  0  0  0  0  0  0  0  0  0  0  0
   -3.1110   25.3000  -29.7410 O   0  0  0  0  0  0  0  0  0  0  0  0
   -3.4070   23.3170  -31.0800 C   0  0  0  0  0  0  0  0  0  0  0  0
   -2.4150   21.1670  -33.0810 C   0  0  0  0  0  0  0  0  0  0  0  0
   -2.2070   19.6170  -33.7020 S   0  0  0  0  0  0  0  0  0  0  0  0
   -3.2709   13.6329  -33.1981 H   0  0  0  0  0  0  0  0  0  0  0  0
   -5.1755   12.1118  -33.8317 H   0  0  0  0  0  0  0  0  0  0  0  0
   -7.7222   15.5754  -34.5326 H   0  0  0  0  0  0  0  0  0  0  0  0
   -6.2615   22.0600  -32.4885 H   0  0  0  0  0  0  0  0  0  0  0  0
   -7.2161   24.0707  -31.3756 H   0  0  0  0  0  0  0  0  0  0  0  0
   -5.3790   26.3860  -29.2600 H   0  0  0  0  0  0  0  0  0  0  0  0
   -2.3298   23.1106  -30.9958 H   0  0  0  0  0  0  0  0  0  0  0  0
   -1.6838   21.9870  -33.1355 H   0  0  0  0  0  0  0  0  0  0  0  0
  1  2  2  0
  2  3  1  0
  3  4  2  0
  4  5  1  0
  5  6  2  0
  6  7  1  0
  6  8  1  0
  8  9  2  0
  9 10  1  0
 10 11  2  0
 10 12  1  0
 12 13  1  0
 13 14  2  0
 14 15  1  0
 15 16  1  0
 16 17  2  0
 17 18  1  0
 18 19  2  0
 19 20  1  0
 19 21  1  0
 21 22  1  0
 21 23  2  0
 15 24  2  0
 24 25  1  0
 12  2  1  0
 25 13  1  0
  9  3  1  0
 23 16  1  0
  4 26  1  0
  5 27  1  0
  8 28  1  0
 17 29  1  0
 18 30  1  0
 20 31  1  0
 23 32  1  0
 24 33  1  0
M  CHG  1  22  -1
M  END
>  <UniqueID>  (38) 
38

>  <SMILES>  (38) 
O=C1c2ccc(Br)cc2C(=O)N1c1nc(-c2ccc(O)c([O-])c2)cs1

>  <Energy>  (38) 
103.55149282515772

>  <Genealogy>  (38) 
O=C1c2ccc(Br)cc2C(=O)N1c1nc(-c2ccc(O)c([O-])c2)cs1 (protonated)
O=C1c2ccc(Br)cc2C(=O)N1c1nc(-c2ccc(O)c([O-])c2)cs1 (3D coordinates assigned)
O=C1c2ccc(Br)cc2C(=O)N1c1nc(-c2ccc(O)c([O-])c2)cs1 (nonaromatic ring conformer: 103.55149282515772 kcal/mol)

>  <smiles>  (38) 
O=C1c2ccc(Br)cc2C(=O)N1c1nc(-c2ccc(O)c(O)c2)cs1

>  <score_type>  (38) 
oracle

>  <origin>  (38) 
adgpu

>  <m_score__min__energy>  (38) 
-10.82

>  <m_primary>  (38) 
energy

$$$$
38:0
     RDKit          3D

 49 51  0  0  0  0  0  0  0  0999 V2000
   -3.2770   17.1840  -34.3900 C   0  0  0  0  0  0  0  0  0  0  0  0
   -3.1640   18.6510  -34.3790 N   0  0  0  0  0  0  0  0  0  0  0  0
   -1.7510   19.0560  -34.1830 C   0  0  0  0  0  0  0  0  0  0  0  0
   -1.6390   20.5140  -33.7220 C   0  0  0  0  0  0  0  0  0  0  0  0
   -2.3480   20.7350  -32.3640 C   0  0  0  0  0  0  0  0  0  0  0  0
   -1.1690   20.7570  -31.0080 S   0  0  0  0  0  0  0  0  0  0  0  0
    0.2240   20.9170  -31.5490 O   0  0  0  0  0  0  0  0  0  0  0  0
   -1.2290   19.4450  -30.2750 O   0  0  0  0  0  0  0  0  0  0  0  0
   -1.5440   22.1120  -29.9180 C   0  0  0  0  0  0  0  0  0  0  0  0
   -0.9480   22.1850  -28.6390 C   0  0  0  0  0  0  0  0  0  0  0  0
    0.1910   20.9750  -28.0550 Cl  0  0  0  0  0  0  0  0  0  0  0  0
   -1.2280   23.2630  -27.7970 C   0  0  0  0  0  0  0  0  0  0  0  0
   -2.0920   24.2760  -28.2070 C   0  0  0  0  0  0  0  0  0  0  0  0
   -2.6970   24.2250  -29.4710 C   0  0  0  0  0  0  0  0  0  0  0  0
   -3.5560   25.2820  -29.9280 N   0  0  0  0  0  0  0  0  0  0  0  0
   -4.9090   25.1540  -30.3870 C   0  0  0  0  0  0  0  0  0  0  0  0
   -5.8650   25.5640  -29.6780 O   0  0  0  0  0  0  0  0  0  0  0  0
   -5.1970   24.4580  -31.6050 N   0  0  0  0  0  0  0  0  0  0  0  0
   -6.1250   23.3740  -31.7590 C   0  0  0  0  0  0  0  0  0  0  0  0
   -5.6690   22.1730  -32.3150 C   0  0  0  0  0  0  0  0  0  0  0  0
   -6.5380   21.0870  -32.4660 C   0  0  0  0  0  0  0  0  0  0  0  0
   -7.8690   21.1900  -32.0450 C   0  0  0  0  0  0  0  0  0  0  0  0
   -8.7630   20.0730  -32.1990 C   0  0  0  0  0  0  0  0  0  0  0  0
   -9.4830   19.1750  -32.3210 N   0  0  0  0  0  0  0  0  0  0  0  0
   -8.3240   22.3800  -31.4620 C   0  0  0  0  0  0  0  0  0  0  0  0
   -7.4560   23.4650  -31.3120 C   0  0  0  0  0  0  0  0  0  0  0  0
   -2.4000   23.1550  -30.3390 C   0  0  0  0  0  0  0  0  0  0  0  0
   -2.9490   23.1250  -31.6230 O   0  0  0  0  0  0  0  0  0  0  0  0
   -3.4450   19.6820  -32.1020 C   0  0  0  0  0  0  0  0  0  0  0  0
   -4.1180   19.2580  -33.4140 C   0  0  0  0  0  0  0  0  0  0  0  0
   -3.3058   16.8107  -33.3557 H   0  0  0  0  0  0  0  0  0  0  0  0
   -4.2004   16.8913  -34.9113 H   0  0  0  0  0  0  0  0  0  0  0  0
   -2.4094   16.7533  -34.9113 H   0  0  0  0  0  0  0  0  0  0  0  0
   -1.2957   18.4053  -33.4219 H   0  0  0  0  0  0  0  0  0  0  0  0
   -1.2292   18.9594  -35.1466 H   0  0  0  0  0  0  0  0  0  0  0  0
   -0.5756   20.7750  -33.6168 H   0  0  0  0  0  0  0  0  0  0  0  0
   -2.1261   21.1523  -34.4738 H   0  0  0  0  0  0  0  0  0  0  0  0
   -2.8361   21.7191  -32.4209 H   0  0  0  0  0  0  0  0  0  0  0  0
   -0.7625   23.3128  -26.8016 H   0  0  0  0  0  0  0  0  0  0  0  0
   -2.3010   25.1213  -27.5349 H   0  0  0  0  0  0  0  0  0  0  0  0
   -4.6206   22.0825  -32.6353 H   0  0  0  0  0  0  0  0  0  0  0  0
   -6.1749   20.1512  -32.9160 H   0  0  0  0  0  0  0  0  0  0  0  0
   -9.3669   22.4605  -31.1215 H   0  0  0  0  0  0  0  0  0  0  0  0
   -7.8145   24.3931  -30.8430 H   0  0  0  0  0  0  0  0  0  0  0  0
   -3.6370   23.7950  -31.9430 H   0  0  0  0  0  0  0  0  0  0  0  0
   -2.9915   18.7992  -31.6276 H   0  0  0  0  0  0  0  0  0  0  0  0
   -4.2063   20.1229  -31.4417 H   0  0  0  0  0  0  0  0  0  0  0  0
   -4.9027   18.5220  -33.1850 H   0  0  0  0  0  0  0  0  0  0  0  0
   -4.5326   20.1631  -33.8819 H   0  0  0  0  0  0  0  0  0  0  0  0
  1  2  1  0
  2  3  1  0
  3  4  1  0
  4  5  1  0
  5  6  1  0
  6  7  2  0
  6  8  2  0
  6  9  1  0
  9 10  2  0
 10 11  1  0
 10 12  1  0
 12 13  2  0
 13 14  1  0
 14 15  1  0
 15 16  1  0
 16 17  2  0
 16 18  1  0
 18 19  1  0
 19 20  2  0
 20 21  1  0
 21 22  2  0
 22 23  1  0
 23 24  3  0
 22 25  1  0
 25 26  2  0
 14 27  2  0
 27 28  1  0
  5 29  1  0
 29 30  1  0
 30  2  1  0
 27  9  1  0
 26 19  1  0
  1 31  1  0
  1 32  1  0
  1 33  1  0
  3 34  1  0
  3 35  1  0
  4 36  1  0
  4 37  1  0
  5 38  1  0
 12 39  1  0
 13 40  1  0
 20 41  1  0
 21 42  1  0
 25 43  1  0
 26 44  1  0
 28 45  1  0
 29 46  1  0
 29 47  1  0
 30 48  1  0
 30 49  1  0
M  CHG  2  15  -1  18  -1
M  END
>  <UniqueID>  (39) 
39

>  <SMILES>  (39) 
CN1CCC(S(=O)(=O)c2c(Cl)ccc([N-]C(=O)[N-]c3ccc(C#N)cc3)c2O)CC1

>  <Energy>  (39) 
64.31912078319748

>  <Genealogy>  (39) 
CN1CCC(S(=O)(=O)c2c(Cl)ccc([N-]C(=O)[N-]c3ccc(C#N)cc3)c2O)CC1 (protonated)
CN1CCC(S(=O)(=O)c2c(Cl)ccc([N-]C(=O)[N-]c3ccc(C#N)cc3)c2O)CC1 (3D coordinates assigned)
CN1CCC(S(=O)(=O)c2c(Cl)ccc([N-]C(=O)[N-]c3ccc(C#N)cc3)c2O)CC1 (nonaromatic ring conformer: 64.31912078319748 kcal/mol)

>  <smiles>  (39) 
CN1CCC(S(=O)(=O)c2c(Cl)ccc(NC(=O)Nc3ccc(C#N)cc3)c2O)CC1

>  <score_type>  (39) 
oracle

>  <origin>  (39) 
adgpu

>  <m_score__min__energy>  (39) 
-13.210000000000001

>  <m_primary>  (39) 
energy

$$$$
39:0
     RDKit          3D

 69 72  0  0  0  0  0  0  0  0999 V2000
   -1.0090   16.5710  -34.1270 C   0  0  0  0  0  0  0  0  0  0  0  0
   -0.9500   17.0050  -32.6640 C   0  0  0  0  0  0  0  0  0  0  0  0
    0.4870   17.0290  -32.1170 C   0  0  0  0  0  0  0  0  0  0  0  0
    0.6520   18.0710  -31.0320 C   0  0  0  0  0  0  0  0  0  0  0  0
   -0.4880   18.6240  -30.4230 C   0  0  0  0  0  0  0  0  0  0  0  0
   -0.3590   19.5440  -29.3690 C   0  0  0  0  0  0  0  0  0  0  0  0
   -1.4670   20.1570  -28.7630 O   0  0  0  0  0  0  0  0  0  0  0  0
   -1.9420   21.4330  -29.0920 C   0  0  0  0  0  0  0  0  0  0  0  0
   -3.1400   21.5950  -29.8010 C   0  0  0  0  0  0  0  0  0  0  0  0
   -3.5980   22.8770  -30.1170 C   0  0  0  0  0  0  0  0  0  0  0  0
   -2.8580   24.0050  -29.7370 C   0  0  0  0  0  0  0  0  0  0  0  0
   -3.3250   25.2670  -30.0910 O   0  0  0  0  0  0  0  0  0  0  0  0
   -1.6450   23.8520  -29.0250 C   0  0  0  0  0  0  0  0  0  0  0  0
   -0.8250   25.0270  -28.6410 C   0  0  0  0  0  0  0  0  0  0  0  0
   -1.3510   26.3520  -28.7270 N   0  0  0  0  0  0  0  0  0  0  0  0
    0.3480   24.8640  -28.2080 O   0  0  0  0  0  0  0  0  0  0  0  0
   -1.2110   22.5570  -28.6910 C   0  0  0  0  0  0  0  0  0  0  0  0
    0.9180   19.8970  -28.9250 C   0  0  0  0  0  0  0  0  0  0  0  0
    2.0570   19.3670  -29.5350 C   0  0  0  0  0  0  0  0  0  0  0  0
    1.9340   18.4660  -30.6050 C   0  0  0  0  0  0  0  0  0  0  0  0
    3.0610   17.9330  -31.2500 O   0  0  0  0  0  0  0  0  0  0  0  0
    3.7210   18.5270  -32.3710 C   0  0  0  0  0  0  0  0  0  0  0  0
    2.7860   18.5960  -33.5820 C   0  0  0  0  0  0  0  0  0  0  0  0
    2.9340   19.9040  -34.3690 C   0  0  0  0  0  0  0  0  0  0  0  0
    2.0430   20.8950  -33.8570 O   0  0  0  0  0  0  0  0  0  0  0  0
    0.6550   20.7410  -33.7000 C   0  0  0  0  0  0  0  0  0  0  0  0
   -0.0520   20.0620  -34.6990 C   0  0  0  0  0  0  0  0  0  0  0  0
   -1.4340   19.8830  -34.6000 C   0  0  0  0  0  0  0  0  0  0  0  0
   -2.1420   20.3890  -33.4970 C   0  0  0  0  0  0  0  0  0  0  0  0
   -3.6130   20.2040  -33.3920 C   0  0  0  0  0  0  0  0  0  0  0  0
   -4.4070   21.1450  -32.7110 C   0  0  0  0  0  0  0  0  0  0  0  0
   -5.7900   20.9690  -32.6170 C   0  0  0  0  0  0  0  0  0  0  0  0
   -6.3990   19.8540  -33.1990 C   0  0  0  0  0  0  0  0  0  0  0  0
   -5.6250   18.9070  -33.8800 C   0  0  0  0  0  0  0  0  0  0  0  0
   -6.2450   17.7560  -34.4640 N   0  0  0  0  0  0  0  0  0  0  0  0
   -4.2360   19.0850  -33.9780 C   0  0  0  0  0  0  0  0  0  0  0  0
   -1.4350   21.0790  -32.4940 C   0  0  0  0  0  0  0  0  0  0  0  0
   -0.0500   21.2530  -32.5930 C   0  0  0  0  0  0  0  0  0  0  0  0
   -1.1570   15.4823  -34.1808 H   0  0  0  0  0  0  0  0  0  0  0  0
   -1.8462   17.0800  -34.6270 H   0  0  0  0  0  0  0  0  0  0  0  0
   -0.0663   16.8380  -34.6270 H   0  0  0  0  0  0  0  0  0  0  0  0
   -1.3778   18.0147  -32.5776 H   0  0  0  0  0  0  0  0  0  0  0  0
   -1.5213   16.2733  -32.0739 H   0  0  0  0  0  0  0  0  0  0  0  0
    0.7274   16.0394  -31.7012 H   0  0  0  0  0  0  0  0  0  0  0  0
    1.1662   17.2827  -32.9443 H   0  0  0  0  0  0  0  0  0  0  0  0
   -1.4892   18.3340  -30.7746 H   0  0  0  0  0  0  0  0  0  0  0  0
   -3.7201   20.7126  -30.1089 H   0  0  0  0  0  0  0  0  0  0  0  0
   -4.5430   23.0012  -30.6661 H   0  0  0  0  0  0  0  0  0  0  0  0
   -2.3550   26.5230  -28.9650 H   0  0  0  0  0  0  0  0  0  0  0  0
   -0.7520   27.1790  -28.4960 H   0  0  0  0  0  0  0  0  0  0  0  0
   -0.2872   22.4260  -28.1084 H   0  0  0  0  0  0  0  0  0  0  0  0
    1.0273   20.5999  -28.0860 H   0  0  0  0  0  0  0  0  0  0  0  0
    3.0554   19.6568  -29.1755 H   0  0  0  0  0  0  0  0  0  0  0  0
    4.0395   19.5453  -32.1034 H   0  0  0  0  0  0  0  0  0  0  0  0
    4.5920   17.9088  -32.6342 H   0  0  0  0  0  0  0  0  0  0  0  0
    3.0149   17.7541  -34.2520 H   0  0  0  0  0  0  0  0  0  0  0  0
    1.7528   18.5480  -33.2077 H   0  0  0  0  0  0  0  0  0  0  0  0
    3.9689   20.2659  -34.2797 H   0  0  0  0  0  0  0  0  0  0  0  0
    2.6900   19.7153  -35.4249 H   0  0  0  0  0  0  0  0  0  0  0  0
    0.4866   19.6648  -35.5720 H   0  0  0  0  0  0  0  0  0  0  0  0
   -1.9721   19.3415  -35.3920 H   0  0  0  0  0  0  0  0  0  0  0  0
   -3.9358   22.0253  -32.2494 H   0  0  0  0  0  0  0  0  0  0  0  0
   -6.4017   21.7110  -32.0828 H   0  0  0  0  0  0  0  0  0  0  0  0
   -7.4881   19.7203  -33.1219 H   0  0  0  0  0  0  0  0  0  0  0  0
   -6.1050   16.8070  -34.0520 H   0  0  0  0  0  0  0  0  0  0  0  0
   -6.8640   17.8440  -35.2990 H   0  0  0  0  0  0  0  0  0  0  0  0
   -3.6284   18.3435  -34.5175 H   0  0  0  0  0  0  0  0  0  0  0  0
   -1.9754   21.4844  -31.6259 H   0  0  0  0  0  0  0  0  0  0  0  0
    0.4913   21.7926  -31.8019 H   0  0  0  0  0  0  0  0  0  0  0  0
  1  2  1  0
  2  3  1  0
  3  4  1  0
  4  5  2  0
  5  6  1  0
  6  7  1  0
  7  8  1  0
  8  9  2  0
  9 10  1  0
 10 11  2  0
 11 12  1  0
 11 13  1  0
 13 14  1  0
 14 15  1  0
 14 16  2  0
 13 17  2  0
  6 18  2  0
 18 19  1  0
 19 20  2  0
 20 21  1  0
 21 22  1  0
 22 23  1  0
 23 24  1  0
 24 25  1  0
 25 26  1  0
 26 27  2  0
 27 28  1  0
 28 29  2  0
 29 30  1  0
 30 31  2  0
 31 32  1  0
 32 33  2  0
 33 34  1  0
 34 35  1  0
 34 36  2  0
 29 37  1  0
 37 38  2  0
 20  4  1  0
 38 26  1  0
 17  8  1  0
 36 30  1  0
  1 39  1  0
  1 40  1  0
  1 41  1  0
  2 42  1  0
  2 43  1  0
  3 44  1  0
  3 45  1  0
  5 46  1  0
  9 47  1  0
 10 48  1  0
 15 49  1  0
 15 50  1  0
 17 51  1  0
 18 52  1  0
 19 53  1  0
 22 54  1  0
 22 55  1  0
 23 56  1  0
 23 57  1  0
 24 58  1  0
 24 59  1  0
 27 60  1  0
 28 61  1  0
 31 62  1  0
 32 63  1  0
 33 64  1  0
 35 65  1  0
 35 66  1  0
 36 67  1  0
 37 68  1  0
 38 69  1  0
M  CHG  1  12  -1
M  END
>  <UniqueID>  (40) 
40

>  <SMILES>  (40) 
CCCc1cc(Oc2ccc([O-])c(C(N)=O)c2)ccc1OCCCOc1ccc(-c2cccc(N)c2)cc1

>  <Energy>  (40) 
82.62938528984387

>  <Genealogy>  (40) 
CCCc1cc(Oc2ccc([O-])c(C(N)=O)c2)ccc1OCCCOc1ccc(-c2cccc(N)c2)cc1 (protonated)
CCCc1cc(Oc2ccc([O-])c(C(N)=O)c2)ccc1OCCCOc1ccc(-c2cccc(N)c2)cc1 (3D coordinates assigned)
CCCc1cc(Oc2ccc([O-])c(C(N)=O)c2)ccc1OCCCOc1ccc(-c2cccc(N)c2)cc1 (optimized conformer: 82.62938528984387 kcal/mol)

>  <smiles>  (40) 
CCCc1cc(Oc2ccc(O)c(C(N)=O)c2)ccc1OCCCOc1ccc(-c2cccc(N)c2)cc1

>  <score_type>  (40) 
oracle

>  <origin>  (40) 
adgpu

>  <m_score__min__energy>  (40) 
-11.94

>  <m_primary>  (40) 
energy

$$$$
40:0
     RDKit          3D

 51 54  0  0  0  0  0  0  0  0999 V2000
   -3.0290   22.0710  -31.1950 C   0  0  0  0  0  0  0  0  0  0  0  0
   -2.3160   22.7720  -30.0710 C   0  0  0  0  0  0  0  0  0  0  0  0
   -1.4030   22.0310  -29.3010 C   0  0  0  0  0  0  0  0  0  0  0  0
   -0.7980   22.5970  -28.1770 C   0  0  0  0  0  0  0  0  0  0  0  0
   -1.1000   23.9070  -27.8050 C   0  0  0  0  0  0  0  0  0  0  0  0
   -1.9780   24.6680  -28.5810 C   0  0  0  0  0  0  0  0  0  0  0  0
   -2.5670   24.1250  -29.7310 C   0  0  0  0  0  0  0  0  0  0  0  0
   -3.4890   24.9400  -30.4630 N   0  0  0  0  0  0  0  0  0  0  0  0
   -4.8960   25.0750  -30.2100 C   0  0  0  0  0  0  0  0  0  0  0  0
   -5.4830   26.1080  -30.6250 O   0  0  0  0  0  0  0  0  0  0  0  0
   -5.6960   24.0340  -29.4710 C   0  0  0  0  0  0  0  0  0  0  0  0
   -6.2000   22.9780  -30.3720 N   0  0  0  0  0  0  0  0  0  0  0  0
   -7.5980   22.6410  -30.0200 C   0  0  0  0  0  0  0  0  0  0  0  0
   -8.3390   21.9110  -31.1620 C   0  0  0  0  0  0  0  0  0  0  0  0
   -7.4120   21.2390  -32.0970 N   0  0  0  0  0  0  0  0  0  0  0  0
   -6.7240   20.0820  -31.4800 C   0  0  0  0  0  0  0  0  0  0  0  0
   -6.0200   19.2500  -32.5180 C   0  0  0  0  0  0  0  0  0  0  0  0
   -6.7730   18.4540  -33.4180 C   0  0  0  0  0  0  0  0  0  0  0  0
   -6.1260   17.6670  -34.3870 C   0  0  0  0  0  0  0  0  0  0  0  0
   -4.7350   17.7000  -34.4280 C   0  0  0  0  0  0  0  0  0  0  0  0
   -4.0100   18.4590  -33.5690 C   0  0  0  0  0  0  0  0  0  0  0  0
   -4.6090   19.2510  -32.5960 C   0  0  0  0  0  0  0  0  0  0  0  0
   -2.6640   18.2960  -33.8370 O   0  0  0  0  0  0  0  0  0  0  0  0
   -2.5370   17.3780  -34.9320 C   0  0  0  0  0  0  0  0  0  0  0  0
   -3.8830   17.0220  -35.2780 O   0  0  0  0  0  0  0  0  0  0  0  0
   -6.4610   22.2030  -32.7060 C   0  0  0  0  0  0  0  0  0  0  0  0
   -6.1110   23.3890  -31.7840 C   0  0  0  0  0  0  0  0  0  0  0  0
   -3.7553   21.3569  -30.7796 H   0  0  0  0  0  0  0  0  0  0  0  0
   -3.5562   22.8122  -31.8136 H   0  0  0  0  0  0  0  0  0  0  0  0
   -2.2968   21.5313  -31.8136 H   0  0  0  0  0  0  0  0  0  0  0  0
   -1.1630   20.9961  -29.5863 H   0  0  0  0  0  0  0  0  0  0  0  0
   -0.0821   22.0089  -27.5840 H   0  0  0  0  0  0  0  0  0  0  0  0
   -0.6472   24.3407  -26.9012 H   0  0  0  0  0  0  0  0  0  0  0  0
   -2.2090   25.7024  -28.2867 H   0  0  0  0  0  0  0  0  0  0  0  0
   -5.0553   23.5714  -28.7058 H   0  0  0  0  0  0  0  0  0  0  0  0
   -6.5638   24.5337  -29.0158 H   0  0  0  0  0  0  0  0  0  0  0  0
   -7.5909   21.9910  -29.1326 H   0  0  0  0  0  0  0  0  0  0  0  0
   -8.1297   23.5846  -29.8277 H   0  0  0  0  0  0  0  0  0  0  0  0
   -9.0072   21.1554  -30.7231 H   0  0  0  0  0  0  0  0  0  0  0  0
   -8.9018   22.6649  -31.7320 H   0  0  0  0  0  0  0  0  0  0  0  0
   -5.9847   20.4500  -30.7534 H   0  0  0  0  0  0  0  0  0  0  0  0
   -7.4775   19.4536  -30.9826 H   0  0  0  0  0  0  0  0  0  0  0  0
   -7.8713   18.4522  -33.3577 H   0  0  0  0  0  0  0  0  0  0  0  0
   -6.7003   17.0455  -35.0898 H   0  0  0  0  0  0  0  0  0  0  0  0
   -4.0034   19.8595  -31.9082 H   0  0  0  0  0  0  0  0  0  0  0  0
   -2.0337   17.8594  -35.7834 H   0  0  0  0  0  0  0  0  0  0  0  0
   -1.9332   16.4982  -34.6648 H   0  0  0  0  0  0  0  0  0  0  0  0
   -5.5322   21.6674  -32.9519 H   0  0  0  0  0  0  0  0  0  0  0  0
   -6.9509   22.6206  -33.5980 H   0  0  0  0  0  0  0  0  0  0  0  0
   -5.0870   23.7277  -32.0002 H   0  0  0  0  0  0  0  0  0  0  0  0
   -6.8230   24.2076  -31.9656 H   0  0  0  0  0  0  0  0  0  0  0  0
  1  2  1  0
  2  3  2  0
  3  4  1  0
  4  5  2  0
  5  6  1  0
  6  7  2  0
  7  8  1  0
  8  9  1  0
  9 10  2  0
  9 11  1  0
 11 12  1  0
 12 13  1  0
 13 14  1  0
 14 15  1  0
 15 16  1  0
 16 17  1  0
 17 18  2  0
 18 19  1  0
 19 20  2  0
 20 21  1  0
 21 22  2  0
 21 23  1  0
 23 24  1  0
 24 25  1  0
 15 26  1  0
 26 27  1  0
  7  2  1  0
 27 12  1  0
 22 17  1  0
 25 20  1  0
  1 28  1  0
  1 29  1  0
  1 30  1  0
  3 31  1  0
  4 32  1  0
  5 33  1  0
  6 34  1  0
 11 35  1  0
 11 36  1  0
 13 37  1  0
 13 38  1  0
 14 39  1  0
 14 40  1  0
 16 41  1  0
 16 42  1  0
 18 43  1  0
 19 44  1  0
 22 45  1  0
 24 46  1  0
 24 47  1  0
 26 48  1  0
 26 49  1  0
 27 50  1  0
 27 51  1  0
M  CHG  1   8  -1
M  END
>  <UniqueID>  (41) 
41

>  <SMILES>  (41) 
Cc1ccccc1[N-]C(=O)CN1CCN(Cc2ccc3c(c2)OCO3)CC1

>  <Energy>  (41) 
96.55468104297606

>  <Genealogy>  (41) 
Cc1ccccc1[N-]C(=O)CN1CCN(Cc2ccc3c(c2)OCO3)CC1 (protonated)
Cc1ccccc1[N-]C(=O)CN1CCN(Cc2ccc3c(c2)OCO3)CC1 (3D coordinates assigned)
Cc1ccccc1[N-]C(=O)CN1CCN(Cc2ccc3c(c2)OCO3)CC1 (nonaromatic ring conformer: 96.55468104297606 kcal/mol)

>  <smiles>  (41) 
Cc1ccccc1NC(=O)CN1CCN(Cc2ccc3c(c2)OCO3)CC1

>  <score_type>  (41) 
oracle

>  <origin>  (41) 
adgpu

>  <m_score__min__energy>  (41) 
-10.1

>  <m_primary>  (41) 
energy

$$$$
41:0
     RDKit          3D

 42 44  0  0  0  0  0  0  0  0999 V2000
   -9.1400   21.2460  -31.5240 C   0  0  0  0  0  0  0  0  0  0  0  0
   -8.2350   20.2770  -32.2230 C   0  0  0  0  0  0  0  0  0  0  0  0
   -7.1150   20.7500  -32.9540 C   0  0  0  0  0  0  0  0  0  0  0  0
   -6.2370   19.8500  -33.5850 C   0  0  0  0  0  0  0  0  0  0  0  0
   -6.4990   18.4880  -33.4520 C   0  0  0  0  0  0  0  0  0  0  0  0
   -5.8430   17.3770  -33.9360 C   0  0  0  0  0  0  0  0  0  0  0  0
   -4.6470   17.3380  -34.8360 C   0  0  0  0  0  0  0  0  0  0  0  0
   -3.4390   17.8300  -34.1020 C   0  0  0  0  0  0  0  0  0  0  0  0
   -2.6940   17.0040  -33.5090 O   0  0  0  0  0  0  0  0  0  0  0  0
   -3.1600   19.2350  -34.0380 N   0  0  0  0  0  0  0  0  0  0  0  0
   -1.9950   19.7730  -33.3410 C   0  0  0  0  0  0  0  0  0  0  0  0
   -2.3850   20.9730  -32.5220 C   0  0  0  0  0  0  0  0  0  0  0  0
   -3.6560   21.5520  -32.6610 C   0  0  0  0  0  0  0  0  0  0  0  0
   -4.0190   22.6520  -31.8790 C   0  0  0  0  0  0  0  0  0  0  0  0
   -3.1160   23.1870  -30.9520 C   0  0  0  0  0  0  0  0  0  0  0  0
   -3.5790   24.5630  -29.9540 S   0  0  0  0  0  0  0  0  0  0  0  0
   -2.1640   25.2880  -29.2790 N   0  0  0  0  0  0  0  0  0  0  0  0
   -4.3130   25.5740  -30.7910 O   0  0  0  0  0  0  0  0  0  0  0  0
   -4.4850   24.1070  -28.8460 O   0  0  0  0  0  0  0  0  0  0  0  0
   -1.8510   22.6040  -30.8010 C   0  0  0  0  0  0  0  0  0  0  0  0
   -1.4860   21.5030  -31.5820 C   0  0  0  0  0  0  0  0  0  0  0  0
   -6.5880   16.2910  -33.4880 C   0  0  0  0  0  0  0  0  0  0  0  0
   -7.6120   16.7120  -32.7680 O   0  0  0  0  0  0  0  0  0  0  0  0
   -7.5710   18.0230  -32.7390 C   0  0  0  0  0  0  0  0  0  0  0  0
   -8.4590   18.8870  -32.1030 C   0  0  0  0  0  0  0  0  0  0  0  0
   -9.0313   21.1296  -30.4356 H   0  0  0  0  0  0  0  0  0  0  0  0
   -8.8701   22.2728  -31.8117 H   0  0  0  0  0  0  0  0  0  0  0  0
  -10.1828   21.0467  -31.8117 H   0  0  0  0  0  0  0  0  0  0  0  0
   -6.9311   21.8320  -33.0282 H   0  0  0  0  0  0  0  0  0  0  0  0
   -5.3732   20.2092  -34.1636 H   0  0  0  0  0  0  0  0  0  0  0  0
   -4.4750   16.3038  -35.1690 H   0  0  0  0  0  0  0  0  0  0  0  0
   -4.8289   17.9845  -35.7072 H   0  0  0  0  0  0  0  0  0  0  0  0
   -3.8200   19.9040  -34.4950 H   0  0  0  0  0  0  0  0  0  0  0  0
   -1.5801   19.0000  -32.6774 H   0  0  0  0  0  0  0  0  0  0  0  0
   -1.2420   20.0758  -34.0835 H   0  0  0  0  0  0  0  0  0  0  0  0
   -4.3696   21.1382  -33.3887 H   0  0  0  0  0  0  0  0  0  0  0  0
   -5.0176   23.0991  -31.9921 H   0  0  0  0  0  0  0  0  0  0  0  0
   -1.6160   25.6850  -30.0740 H   0  0  0  0  0  0  0  0  0  0  0  0
   -1.1427   23.0136  -30.0658 H   0  0  0  0  0  0  0  0  0  0  0  0
   -0.4910   21.0503  -31.4597 H   0  0  0  0  0  0  0  0  0  0  0  0
   -6.3581   15.2368  -33.7019 H   0  0  0  0  0  0  0  0  0  0  0  0
   -9.3099   18.4987  -31.5241 H   0  0  0  0  0  0  0  0  0  0  0  0
  1  2  1  0
  2  3  2  0
  3  4  1  0
  4  5  2  0
  5  6  1  0
  6  7  1  0
  7  8  1  0
  8  9  2  0
  8 10  1  0
 10 11  1  0
 11 12  1  0
 12 13  2  0
 13 14  1  0
 14 15  2  0
 15 16  1  0
 16 17  1  0
 16 18  2  0
 16 19  2  0
 15 20  1  0
 20 21  2  0
  6 22  2  0
 22 23  1  0
 23 24  1  0
 24 25  2  0
 25  2  1  0
 24  5  1  0
 21 12  1  0
  1 26  1  0
  1 27  1  0
  1 28  1  0
  3 29  1  0
  4 30  1  0
  7 31  1  0
  7 32  1  0
 10 33  1  0
 11 34  1  0
 11 35  1  0
 13 36  1  0
 14 37  1  0
 17 38  1  0
 20 39  1  0
 21 40  1  0
 22 41  1  0
 25 42  1  0
M  CHG  1  17  -1
M  END
>  <UniqueID>  (42) 
42

>  <SMILES>  (42) 
Cc1ccc2c(CC(=O)NCc3ccc(S([NH-])(=O)=O)cc3)coc2c1

>  <Energy>  (42) 
71.71609039299315

>  <Genealogy>  (42) 
Cc1ccc2c(CC(=O)NCc3ccc(S([NH-])(=O)=O)cc3)coc2c1 (protonated)
Cc1ccc2c(CC(=O)NCc3ccc(S([NH-])(=O)=O)cc3)coc2c1 (3D coordinates assigned)
Cc1ccc2c(CC(=O)NCc3ccc(S([NH-])(=O)=O)cc3)coc2c1 (optimized conformer: 71.71609039299315 kcal/mol)

>  <smiles>  (42) 
Cc1ccc2c(CC(=O)NCc3ccc(S(N)(=O)=O)cc3)coc2c1

>  <score_type>  (42) 
oracle

>  <origin>  (42) 
adgpu

>  <m_score__min__energy>  (42) 
-11.6

>  <m_primary>  (42) 
energy

$$$$
42:0
     RDKit          3D

 51 53  0  0  0  0  0  0  0  0999 V2000
   -2.4770   16.6500  -33.8390 C   0  0  0  0  0  0  0  0  0  0  0  0
   -2.0030   17.9490  -34.1800 O   0  0  0  0  0  0  0  0  0  0  0  0
   -2.2400   19.1020  -33.4180 C   0  0  0  0  0  0  0  0  0  0  0  0
   -2.9910   20.1880  -33.9040 C   0  0  0  0  0  0  0  0  0  0  0  0
   -3.1940   21.3160  -33.1060 C   0  0  0  0  0  0  0  0  0  0  0  0
   -2.6640   21.3870  -31.8060 C   0  0  0  0  0  0  0  0  0  0  0  0
   -2.8800   22.6120  -30.9890 C   0  0  0  0  0  0  0  0  0  0  0  0
   -1.9610   23.0310  -30.0120 C   0  0  0  0  0  0  0  0  0  0  0  0
   -2.2220   24.2080  -29.3000 C   0  0  0  0  0  0  0  0  0  0  0  0
   -1.2680   24.6860  -28.2530 C   0  0  0  0  0  0  0  0  0  0  0  0
   -3.3590   24.9090  -29.5500 N   0  0  0  0  0  0  0  0  0  0  0  0
   -4.2520   24.4820  -30.4780 C   0  0  0  0  0  0  0  0  0  0  0  0
   -5.7370   25.4270  -30.7990 S   0  0  0  0  0  0  0  0  0  0  0  0
   -6.9080   24.0840  -30.3650 C   0  0  0  0  0  0  0  0  0  0  0  0
   -7.6120   23.4680  -31.5810 C   0  0  0  0  0  0  0  0  0  0  0  0
   -7.5700   21.9660  -31.5830 C   0  0  0  0  0  0  0  0  0  0  0  0
   -8.5760   21.3070  -31.2010 O   0  0  0  0  0  0  0  0  0  0  0  0
   -6.3510   21.2930  -31.9280 N   0  0  0  0  0  0  0  0  0  0  0  0
   -6.2850   19.9630  -32.4720 C   0  0  0  0  0  0  0  0  0  0  0  0
   -6.1980   18.8700  -31.5960 C   0  0  0  0  0  0  0  0  0  0  0  0
   -6.0700   17.5710  -32.0940 C   0  0  0  0  0  0  0  0  0  0  0  0
   -6.0000   17.3460  -33.4770 C   0  0  0  0  0  0  0  0  0  0  0  0
   -5.8960   15.9480  -34.0090 C   0  0  0  0  0  0  0  0  0  0  0  0
   -6.0870   18.4350  -34.3560 C   0  0  0  0  0  0  0  0  0  0  0  0
   -6.2130   19.7360  -33.8580 C   0  0  0  0  0  0  0  0  0  0  0  0
   -4.0070   23.3490  -31.1860 N   0  0  0  0  0  0  0  0  0  0  0  0
   -1.9060   20.2990  -31.3290 C   0  0  0  0  0  0  0  0  0  0  0  0
   -1.7030   19.1710  -32.1280 C   0  0  0  0  0  0  0  0  0  0  0  0
   -2.5139   16.5488  -32.7443 H   0  0  0  0  0  0  0  0  0  0  0  0
   -3.4853   16.5068  -34.2547 H   0  0  0  0  0  0  0  0  0  0  0  0
   -1.7979   15.8911  -34.2547 H   0  0  0  0  0  0  0  0  0  0  0  0
   -3.4198   20.1484  -34.9162 H   0  0  0  0  0  0  0  0  0  0  0  0
   -3.7771   22.1612  -33.5005 H   0  0  0  0  0  0  0  0  0  0  0  0
   -1.0525   22.4446  -29.8101 H   0  0  0  0  0  0  0  0  0  0  0  0
   -1.6834   24.4779  -27.2559 H   0  0  0  0  0  0  0  0  0  0  0  0
   -0.3070   24.1629  -28.3663 H   0  0  0  0  0  0  0  0  0  0  0  0
   -1.1116   25.7689  -28.3663 H   0  0  0  0  0  0  0  0  0  0  0  0
   -6.3504   23.2901  -29.8466 H   0  0  0  0  0  0  0  0  0  0  0  0
   -7.6888   24.5286  -29.7304 H   0  0  0  0  0  0  0  0  0  0  0  0
   -8.6639   23.7896  -31.5775 H   0  0  0  0  0  0  0  0  0  0  0  0
   -7.0807   23.8140  -32.4799 H   0  0  0  0  0  0  0  0  0  0  0  0
   -5.4560   21.8140  -31.7880 H   0  0  0  0  0  0  0  0  0  0  0  0
   -6.2308   19.0373  -30.5093 H   0  0  0  0  0  0  0  0  0  0  0  0
   -6.0239   16.7203  -31.3982 H   0  0  0  0  0  0  0  0  0  0  0  0
   -5.8433   15.2392  -33.1695 H   0  0  0  0  0  0  0  0  0  0  0  0
   -6.7799   15.7230  -34.6239 H   0  0  0  0  0  0  0  0  0  0  0  0
   -4.9885   15.8562  -34.6239 H   0  0  0  0  0  0  0  0  0  0  0  0
   -6.0560   18.2654  -35.4424 H   0  0  0  0  0  0  0  0  0  0  0  0
   -6.2560   20.5864  -34.5544 H   0  0  0  0  0  0  0  0  0  0  0  0
   -1.4707   20.3381  -30.3196 H   0  0  0  0  0  0  0  0  0  0  0  0
   -1.1142   18.3275  -31.7383 H   0  0  0  0  0  0  0  0  0  0  0  0
  1  2  1  0
  2  3  1  0
  3  4  2  0
  4  5  1  0
  5  6  2  0
  6  7  1  0
  7  8  2  0
  8  9  1  0
  9 10  1  0
  9 11  2  0
 11 12  1  0
 12 13  1  0
 13 14  1  0
 14 15  1  0
 15 16  1  0
 16 17  2  0
 16 18  1  0
 18 19  1  0
 19 20  2  0
 20 21  1  0
 21 22  2  0
 22 23  1  0
 22 24  1  0
 24 25  2  0
 12 26  2  0
  6 27  1  0
 27 28  2  0
 28  3  1  0
 26  7  1  0
 25 19  1  0
  1 29  1  0
  1 30  1  0
  1 31  1  0
  4 32  1  0
  5 33  1  0
  8 34  1  0
 10 35  1  0
 10 36  1  0
 10 37  1  0
 14 38  1  0
 14 39  1  0
 15 40  1  0
 15 41  1  0
 18 42  1  0
 20 43  1  0
 21 44  1  0
 23 45  1  0
 23 46  1  0
 23 47  1  0
 24 48  1  0
 25 49  1  0
 27 50  1  0
 28 51  1  0
M  END
>  <UniqueID>  (43) 
43

>  <SMILES>  (43) 
COc1ccc(-c2cc(C)nc(SCCC(=O)Nc3ccc(C)cc3)n2)cc1

>  <Energy>  (43) 
50.17312655146635

>  <Genealogy>  (43) 
COc1ccc(-c2cc(C)nc(SCCC(=O)Nc3ccc(C)cc3)n2)cc1 (3D coordinates assigned)
COc1ccc(-c2cc(C)nc(SCCC(=O)Nc3ccc(C)cc3)n2)cc1 (optimized conformer: 50.17312655146635 kcal/mol)

>  <smiles>  (43) 
COc1ccc(-c2cc(C)nc(SCCC(=O)Nc3ccc(C)cc3)n2)cc1

>  <score_type>  (43) 
oracle

>  <origin>  (43) 
adgpu

>  <m_score__min__energy>  (43) 
-8.5999999999999996

>  <m_primary>  (43) 
energy

$$$$
43:0
     RDKit          3D

 46 48  0  0  0  0  0  0  0  0999 V2000
   -4.3540   21.1430  -33.1830 C   0  0  0  0  0  0  0  0  0  0  0  0
   -5.4100   21.8850  -32.3920 C   0  0  0  0  0  0  0  0  0  0  0  0
   -4.9860   23.0660  -31.7540 C   0  0  0  0  0  0  0  0  0  0  0  0
   -5.8410   23.7920  -30.9280 C   0  0  0  0  0  0  0  0  0  0  0  0
   -5.2480   25.2300  -30.1020 S   0  0  0  0  0  0  0  0  0  0  0  0
   -5.7380   26.4480  -30.8320 O   0  0  0  0  0  0  0  0  0  0  0  0
   -5.7430   25.2760  -28.6820 O   0  0  0  0  0  0  0  0  0  0  0  0
   -3.5140   25.2250  -30.1000 N   0  0  0  0  0  0  0  0  0  0  0  0
   -2.6930   24.4240  -29.2410 C   0  0  0  0  0  0  0  0  0  0  0  0
   -3.0200   23.0920  -28.9180 C   0  0  0  0  0  0  0  0  0  0  0  0
   -2.1850   22.3480  -28.0780 C   0  0  0  0  0  0  0  0  0  0  0  0
   -1.0240   22.9230  -27.5540 C   0  0  0  0  0  0  0  0  0  0  0  0
   -0.6970   24.2450  -27.8640 C   0  0  0  0  0  0  0  0  0  0  0  0
   -1.5280   24.9930  -28.7040 C   0  0  0  0  0  0  0  0  0  0  0  0
   -7.1410   23.3470  -30.7290 C   0  0  0  0  0  0  0  0  0  0  0  0
   -7.5860   22.1740  -31.3330 C   0  0  0  0  0  0  0  0  0  0  0  0
   -6.7480   21.4050  -32.1800 C   0  0  0  0  0  0  0  0  0  0  0  0
   -7.2680   20.0640  -32.7750 C   0  0  1  0  0  0  0  0  0  0  0  0
   -8.7970   19.8570  -32.5840 C   0  0  0  0  0  0  0  0  0  0  0  0
   -7.0090   20.0490  -34.2210 N   0  0  0  0  0  0  0  0  0  0  0  0
   -6.5320   18.8580  -32.1200 C   0  0  0  0  0  0  0  0  0  0  0  0
   -6.0190   17.9110  -33.1130 N   0  0  0  0  0  0  0  0  0  0  0  0
   -6.2510   16.5890  -33.1660 C   0  0  0  0  0  0  0  0  0  0  0  0
   -5.6230   16.0270  -34.2160 N   0  0  0  0  0  0  0  0  0  0  0  0
   -5.0030   17.0850  -34.7840 C   0  0  0  0  0  0  0  0  0  0  0  0
   -5.2350   18.2360  -34.1240 N   0  0  0  0  0  0  0  0  0  0  0  0
   -3.6548   20.6517  -32.4904 H   0  0  0  0  0  0  0  0  0  0  0  0
   -4.8363   20.3842  -33.8167 H   0  0  0  0  0  0  0  0  0  0  0  0
   -3.8036   21.8539  -33.8167 H   0  0  0  0  0  0  0  0  0  0  0  0
   -3.9575   23.4232  -31.9111 H   0  0  0  0  0  0  0  0  0  0  0  0
   -3.9337   22.6364  -29.3273 H   0  0  0  0  0  0  0  0  0  0  0  0
   -2.4427   21.3079  -27.8293 H   0  0  0  0  0  0  0  0  0  0  0  0
   -0.3672   22.3340  -26.8969 H   0  0  0  0  0  0  0  0  0  0  0  0
    0.2146   24.6980  -27.4472 H   0  0  0  0  0  0  0  0  0  0  0  0
   -1.2668   26.0339  -28.9453 H   0  0  0  0  0  0  0  0  0  0  0  0
   -7.8243   23.9252  -30.0896 H   0  0  0  0  0  0  0  0  0  0  0  0
   -8.6158   21.8345  -31.1481 H   0  0  0  0  0  0  0  0  0  0  0  0
   -9.0313   19.8253  -31.5097 H   0  0  0  0  0  0  0  0  0  0  0  0
   -9.3412   20.6897  -33.0536 H   0  0  0  0  0  0  0  0  0  0  0  0
   -9.1002   18.9096  -33.0536 H   0  0  0  0  0  0  0  0  0  0  0  0
   -6.0030   20.2660  -34.4130 H   0  0  0  0  0  0  0  0  0  0  0  0
   -7.2050   19.0920  -34.6030 H   0  0  0  0  0  0  0  0  0  0  0  0
   -5.6881   19.2392  -31.5264 H   0  0  0  0  0  0  0  0  0  0  0  0
   -7.2585   18.3233  -31.4904 H   0  0  0  0  0  0  0  0  0  0  0  0
   -6.8729   16.0375  -32.4455 H   0  0  0  0  0  0  0  0  0  0  0  0
   -4.3776   17.0140  -35.6861 H   0  0  0  0  0  0  0  0  0  0  0  0
  1  2  1  0
  2  3  2  0
  3  4  1  0
  4  5  1  0
  5  6  2  0
  5  7  2  0
  5  8  1  0
  8  9  1  0
  9 10  2  0
 10 11  1  0
 11 12  2  0
 12 13  1  0
 13 14  2  0
  4 15  2  0
 15 16  1  0
 16 17  2  0
 17 18  1  0
 18 19  1  0
 18 20  1  6
 18 21  1  0
 21 22  1  0
 22 23  1  0
 23 24  2  0
 24 25  1  0
 25 26  2  0
 17  2  1  0
 26 22  1  0
 14  9  1  0
  1 27  1  0
  1 28  1  0
  1 29  1  0
  3 30  1  0
 10 31  1  0
 11 32  1  0
 12 33  1  0
 13 34  1  0
 14 35  1  0
 15 36  1  0
 16 37  1  0
 19 38  1  0
 19 39  1  0
 19 40  1  0
 20 41  1  0
 20 42  1  0
 21 43  1  0
 21 44  1  0
 23 45  1  0
 25 46  1  0
M  CHG  1   8  -1
M  END
>  <UniqueID>  (44) 
44

>  <SMILES>  (44) 
Cc1cc(S(=O)(=O)[N-]c2ccccc2)ccc1[C@@](C)(N)Cn1cncn1

>  <Energy>  (44) 
90.7652859301782

>  <Genealogy>  (44) 
Cc1cc(S(=O)(=O)[N-]c2ccccc2)ccc1C(C)(N)Cn1cncn1 (protonated)
Cc1cc(S(=O)(=O)[N-]c2ccccc2)ccc1[C@@](C)(N)Cn1cncn1 (chirality)
Cc1cc(S(=O)(=O)[N-]c2ccccc2)ccc1[C@@](C)(N)Cn1cncn1 (3D coordinates assigned)
Cc1cc(S(=O)(=O)[N-]c2ccccc2)ccc1[C@@](C)(N)Cn1cncn1 (optimized conformer: 90.7652859301782 kcal/mol)

>  <smiles>  (44) 
Cc1cc(S(=O)(=O)Nc2ccccc2)ccc1C(C)(N)Cn1cncn1

>  <score_type>  (44) 
oracle

>  <origin>  (44) 
adgpu

>  <m_score__min__energy>  (44) 
-10.57

>  <m_primary>  (44) 
energy

$$$$
44:0
     RDKit          3D

 66 69  0  0  1  0  0  0  0  0999 V2000
   -9.0770   23.2800  -32.0840 C   0  0  0  0  0  0  0  0  0  0  0  0
   -9.0660   21.9610  -32.1150 C   0  0  0  0  0  0  0  0  0  0  0  0
   -7.8470   21.1580  -32.1050 C   0  0  0  0  0  0  0  0  0  0  0  0
   -7.0290   21.3840  -31.1830 O   0  0  0  0  0  0  0  0  0  0  0  0
   -7.5930   20.1700  -33.0860 N   0  0  0  0  0  0  0  0  0  0  0  0
   -6.4510   19.3470  -33.1610 C   0  0  0  0  0  0  0  0  0  0  0  0
   -5.1770   19.7460  -33.4090 C   0  0  0  0  0  0  0  0  0  0  0  0
   -4.1050   18.8440  -33.4650 C   0  0  0  0  0  0  0  0  0  0  0  0
   -2.7860   19.3270  -33.7310 N   0  0  0  0  0  0  0  0  0  0  0  0
   -2.3020   20.1760  -32.8880 C   0  0  0  0  0  0  0  0  0  0  0  0
   -2.9730   20.6100  -31.8030 N   0  0  0  0  0  0  0  0  0  0  0  0
   -2.4030   21.5030  -30.9640 C   0  0  0  0  0  0  0  0  0  0  0  0
   -3.0620   21.9160  -29.9160 N   0  0  0  0  0  0  0  0  0  0  0  0
   -2.4790   22.8580  -29.0190 C   0  0  0  0  0  0  0  0  0  0  0  0
   -1.7670   22.4870  -27.8960 C   0  0  0  0  0  0  0  0  0  0  0  0
   -1.2300   23.4520  -27.0710 C   0  0  0  0  0  0  0  0  0  0  0  0
   -1.3600   24.8050  -27.2960 C   0  0  0  0  0  0  0  0  0  0  0  0
   -0.8010   25.7970  -26.4410 N   0  0  0  0  0  0  0  0  0  0  0  0
    0.4260   26.4250  -26.7860 C   0  0  0  0  0  0  0  0  0  0  0  0
    0.8090   27.6390  -26.0380 C   0  0  0  0  0  0  0  0  0  0  0  0
   -0.0180   28.0520  -24.9660 N   0  0  0  0  0  0  0  0  0  0  0  0
   -0.8420   29.2040  -25.2530 C   0  0  0  0  0  0  0  0  0  0  0  0
   -0.7330   27.0010  -24.3020 C   0  0  0  0  0  0  0  0  0  0  0  0
   -1.5170   26.1340  -25.2300 C   0  0  0  0  0  0  0  0  0  0  0  0
   -2.0840   25.1630  -28.4370 C   0  0  0  0  0  0  0  0  0  0  0  0
   -2.6330   24.2240  -29.2830 C   0  0  0  0  0  0  0  0  0  0  0  0
   -3.3520   24.5760  -30.4160 O   0  0  0  0  0  0  0  0  0  0  0  0
   -4.7580   24.4370  -30.3730 C   0  0  0  0  0  0  0  0  0  0  0  0
   -1.1510   21.9570  -31.2240 N   0  0  0  0  0  0  0  0  0  0  0  0
   -0.4430   21.5540  -32.2930 C   0  0  0  0  0  0  0  0  0  0  0  0
   -1.0170   20.6400  -33.1580 C   0  0  0  0  0  0  0  0  0  0  0  0
   -0.1430   20.0800  -34.5660 Cl  0  0  0  0  0  0  0  0  0  0  0  0
   -4.3010   17.4940  -33.2670 C   0  0  0  0  0  0  0  0  0  0  0  0
   -5.5890   17.0800  -33.0150 C   0  0  0  0  0  0  0  0  0  0  0  0
   -6.6360   17.9720  -32.9620 C   0  0  0  0  0  0  0  0  0  0  0  0
   -7.9920   17.4240  -32.6820 C   0  0  0  0  0  0  0  0  0  0  0  0
  -10.0339   23.8224  -32.0939 H   0  0  0  0  0  0  0  0  0  0  0  0
   -8.1293   23.8372  -32.0482 H   0  0  0  0  0  0  0  0  0  0  0  0
  -10.0318   21.4358  -32.1505 H   0  0  0  0  0  0  0  0  0  0  0  0
   -8.3350   20.0530  -33.8170 H   0  0  0  0  0  0  0  0  0  0  0  0
   -4.9788   20.8157  -33.5719 H   0  0  0  0  0  0  0  0  0  0  0  0
   -3.9290   20.2220  -31.6620 H   0  0  0  0  0  0  0  0  0  0  0  0
   -1.6282   21.4217  -27.6596 H   0  0  0  0  0  0  0  0  0  0  0  0
   -0.6670   23.1239  -26.1848 H   0  0  0  0  0  0  0  0  0  0  0  0
    1.2262   25.6841  -26.6421 H   0  0  0  0  0  0  0  0  0  0  0  0
    0.2810   26.7696  -27.8205 H   0  0  0  0  0  0  0  0  0  0  0  0
    1.8142   27.4652  -25.6264 H   0  0  0  0  0  0  0  0  0  0  0  0
    0.7262   28.4512  -26.7752 H   0  0  0  0  0  0  0  0  0  0  0  0
   -1.1709   29.6638  -24.3094 H   0  0  0  0  0  0  0  0  0  0  0  0
   -0.2606   29.9350  -25.8340 H   0  0  0  0  0  0  0  0  0  0  0  0
   -1.7217   28.8900  -25.8340 H   0  0  0  0  0  0  0  0  0  0  0  0
   -0.0075   26.3709  -23.7667 H   0  0  0  0  0  0  0  0  0  0  0  0
   -1.4528   27.4797  -23.6217 H   0  0  0  0  0  0  0  0  0  0  0  0
   -1.7725   25.2019  -24.7047 H   0  0  0  0  0  0  0  0  0  0  0  0
   -2.4115   26.7009  -25.5276 H   0  0  0  0  0  0  0  0  0  0  0  0
   -2.2200   26.2300  -28.6672 H   0  0  0  0  0  0  0  0  0  0  0  0
   -5.0913   24.4040  -29.3252 H   0  0  0  0  0  0  0  0  0  0  0  0
   -5.2268   25.2932  -30.8802 H   0  0  0  0  0  0  0  0  0  0  0  0
   -5.0501   23.5056  -30.8802 H   0  0  0  0  0  0  0  0  0  0  0  0
   -0.6930   22.6440  -30.5940 H   0  0  0  0  0  0  0  0  0  0  0  0
    0.5699   21.9422  -32.4758 H   0  0  0  0  0  0  0  0  0  0  0  0
   -3.4655   16.7797  -33.3086 H   0  0  0  0  0  0  0  0  0  0  0  0
   -5.7866   16.0103  -32.8520 H   0  0  0  0  0  0  0  0  0  0  0  0
   -8.1451   17.3621  -31.5945 H   0  0  0  0  0  0  0  0  0  0  0  0
   -8.7528   18.0852  -33.1223 H   0  0  0  0  0  0  0  0  0  0  0  0
   -8.0798   16.4198  -33.1223 H   0  0  0  0  0  0  0  0  0  0  0  0
  1  2  2  0
  2  3  1  0
  3  4  2  0
  3  5  1  0
  5  6  1  0
  6  7  2  0
  7  8  1  0
  8  9  1  0
  9 10  2  0
 10 11  1  0
 11 12  1  0
 12 13  2  0
 13 14  1  0
 14 15  2  0
 15 16  1  0
 16 17  2  0
 17 18  1  0
 18 19  1  0
 19 20  1  0
 20 21  1  0
 21 22  1  0
 21 23  1  0
 23 24  1  0
 17 25  1  0
 25 26  2  0
 26 27  1  0
 27 28  1  0
 12 29  1  0
 29 30  1  0
 30 31  2  0
 31 32  1  0
  8 33  2  0
 33 34  1  0
 34 35  2  0
 35 36  1  0
 35  6  1  0
 31 10  1  0
 26 14  1  0
 24 18  1  0
  1 37  1  0
  1 38  1  0
  2 39  1  0
  5 40  1  0
  7 41  1  0
 11 42  1  0
 15 43  1  0
 16 44  1  0
 19 45  1  0
 19 46  1  0
 20 47  1  0
 20 48  1  0
 22 49  1  0
 22 50  1  0
 22 51  1  0
 23 52  1  0
 23 53  1  0
 24 54  1  0
 24 55  1  0
 25 56  1  0
 28 57  1  0
 28 58  1  0
 28 59  1  0
 29 60  1  0
 30 61  1  0
 33 62  1  0
 34 63  1  0
 36 64  1  0
 36 65  1  0
 36 66  1  0
M  END
>  <smiles>  (45) 
C=CC(=O)Nc1cc(N=c2[nH]c(=Nc3ccc(N4CCN(C)CC4)cc3OC)[nH]cc2Cl)ccc1C

>  <score_type>  (45) 
oracle

>  <origin>  (45) 
adgpu

>  <m_score__min__energy>  (45) 
-9.6300000000000008

>  <m_primary>  (45) 
energy

$$$$
45:0
     RDKit          3D

 37 39  0  0  0  0  0  0  0  0999 V2000
   -2.3400   25.6740  -28.9690 O   0  0  0  0  0  0  0  0  0  0  0  0
   -3.0990   24.6360  -29.4960 C   0  0  0  0  0  0  0  0  0  0  0  0
   -2.8350   23.3150  -29.1200 C   0  0  0  0  0  0  0  0  0  0  0  0
   -3.5970   22.2700  -29.6520 C   0  0  0  0  0  0  0  0  0  0  0  0
   -4.6210   22.5440  -30.5690 C   0  0  0  0  0  0  0  0  0  0  0  0
   -5.5930   21.2060  -31.2600 S   0  0  0  0  0  0  0  0  0  0  0  0
   -4.2910   20.7050  -32.3960 C   0  0  0  0  0  0  0  0  0  0  0  0
   -3.1410   21.5020  -32.4790 C   0  0  0  0  0  0  0  0  0  0  0  0
   -2.1180   21.1760  -33.3730 C   0  0  0  0  0  0  0  0  0  0  0  0
   -2.2360   20.0490  -34.1870 C   0  0  0  0  0  0  0  0  0  0  0  0
   -3.3720   19.2430  -34.1060 C   0  0  0  0  0  0  0  0  0  0  0  0
   -4.4090   19.5570  -33.2110 C   0  0  0  0  0  0  0  0  0  0  0  0
   -5.5580   18.6920  -33.1300 N   0  0  0  0  0  0  0  0  0  0  0  0
   -5.4630   17.4020  -32.4390 C   0  0  0  0  0  0  0  0  0  0  0  0
   -6.3370   17.4030  -31.1680 C   0  0  0  0  0  0  0  0  0  0  0  0
   -7.4790   18.3370  -31.2330 N   0  0  0  0  0  0  0  0  0  0  0  0
   -7.9660   18.5350  -32.6050 C   0  0  0  0  0  0  0  0  0  0  0  0
   -6.8890   19.2140  -33.4650 C   0  0  0  0  0  0  0  0  0  0  0  0
   -4.8920   23.8670  -30.9340 C   0  0  0  0  0  0  0  0  0  0  0  0
   -4.1290   24.9120  -30.4030 C   0  0  0  0  0  0  0  0  0  0  0  0
   -2.0275   23.0979  -28.4053 H   0  0  0  0  0  0  0  0  0  0  0  0
   -3.3925   21.2321  -29.3505 H   0  0  0  0  0  0  0  0  0  0  0  0
   -3.0433   22.3895  -31.8364 H   0  0  0  0  0  0  0  0  0  0  0  0
   -1.2197   21.8078  -33.4351 H   0  0  0  0  0  0  0  0  0  0  0  0
   -1.4321   19.7955  -34.8938 H   0  0  0  0  0  0  0  0  0  0  0  0
   -3.4567   18.3540  -34.7483 H   0  0  0  0  0  0  0  0  0  0  0  0
   -5.8066   16.6040  -33.1137 H   0  0  0  0  0  0  0  0  0  0  0  0
   -4.4157   17.2301  -32.1498 H   0  0  0  0  0  0  0  0  0  0  0  0
   -6.7282   16.3864  -31.0149 H   0  0  0  0  0  0  0  0  0  0  0  0
   -5.6965   17.7360  -30.3380 H   0  0  0  0  0  0  0  0  0  0  0  0
   -7.1790   19.2650  -30.8510 H   0  0  0  0  0  0  0  0  0  0  0  0
   -8.2177   17.5585  -33.0443 H   0  0  0  0  0  0  0  0  0  0  0  0
   -8.8574   19.1790  -32.5769 H   0  0  0  0  0  0  0  0  0  0  0  0
   -7.0976   19.0184  -34.5272 H   0  0  0  0  0  0  0  0  0  0  0  0
   -6.9065   20.2960  -33.2678 H   0  0  0  0  0  0  0  0  0  0  0  0
   -5.7067   24.0858  -31.6400 H   0  0  0  0  0  0  0  0  0  0  0  0
   -4.3383   25.9508  -30.6981 H   0  0  0  0  0  0  0  0  0  0  0  0
  1  2  1  0
  2  3  2  0
  3  4  1  0
  4  5  2  0
  5  6  1  0
  6  7  1  0
  7  8  2  0
  8  9  1  0
  9 10  2  0
 10 11  1  0
 11 12  2  0
 12 13  1  0
 13 14  1  0
 14 15  1  0
 15 16  1  0
 16 17  1  0
 17 18  1  0
  5 19  1  0
 19 20  2  0
 20  2  1  0
 12  7  1  0
 18 13  1  0
  3 21  1  0
  4 22  1  0
  8 23  1  0
  9 24  1  0
 10 25  1  0
 11 26  1  0
 14 27  1  0
 14 28  1  0
 15 29  1  0
 15 30  1  0
 16 31  1  0
 17 32  1  0
 17 33  1  0
 18 34  1  0
 18 35  1  0
 19 36  1  0
 20 37  1  0
M  CHG  1   1  -1
M  END
>  <UniqueID>  (46) 
45

>  <SMILES>  (46) 
[O-]c1ccc(Sc2ccccc2N2CCNCC2)cc1

>  <Energy>  (46) 
43.69961043666047

>  <Genealogy>  (46) 
[O-]c1ccc(Sc2ccccc2N2CCNCC2)cc1 (protonated)
[O-]c1ccc(Sc2ccccc2N2CCNCC2)cc1 (3D coordinates assigned)
[O-]c1ccc(Sc2ccccc2N2CCNCC2)cc1 (nonaromatic ring conformer: 43.69961043666047 kcal/mol)

>  <smiles>  (46) 
Oc1ccc(Sc2ccccc2N2CCNCC2)cc1

>  <score_type>  (46) 
oracle

>  <origin>  (46) 
adgpu

>  <m_score__min__energy>  (46) 
-10.07

>  <m_primary>  (46) 
energy

$$$$
46:0
     RDKit          3D

 43 45  0  0  0  0  0  0  0  0999 V2000
   -8.6630   23.2750  -32.3130 O   0  0  0  0  0  0  0  0  0  0  0  0
   -7.6870   22.5640  -31.9470 C   0  0  0  0  0  0  0  0  0  0  0  0
   -7.7660   21.0940  -32.1280 C   0  0  0  0  0  0  0  0  0  0  0  0
   -6.8550   20.4150  -32.9590 C   0  0  0  0  0  0  0  0  0  0  0  0
   -6.9320   19.0260  -33.1060 C   0  0  0  0  0  0  0  0  0  0  0  0
   -7.9080   18.3010  -32.4190 C   0  0  0  0  0  0  0  0  0  0  0  0
   -8.8060   18.9620  -31.5780 C   0  0  0  0  0  0  0  0  0  0  0  0
   -8.7350   20.3500  -31.4280 C   0  0  0  0  0  0  0  0  0  0  0  0
   -6.5040   23.2280  -31.3500 C   0  0  0  0  0  0  0  0  0  0  0  0
   -5.2030   22.7640  -31.6160 C   0  0  0  0  0  0  0  0  0  0  0  0
   -4.0940   23.4120  -31.0620 C   0  0  0  0  0  0  0  0  0  0  0  0
   -4.2600   24.5330  -30.2450 C   0  0  0  0  0  0  0  0  0  0  0  0
   -3.1140   25.1460  -29.7140 O   0  0  0  0  0  0  0  0  0  0  0  0
   -2.4120   24.6840  -28.5620 C   0  0  0  0  0  0  0  0  0  0  0  0
   -3.0970   23.4230  -27.9930 C   0  0  0  0  0  0  0  0  0  0  0  0
   -2.2690   22.1950  -28.0320 N   0  0  0  0  0  0  0  0  0  0  0  0
   -1.4900   21.9390  -26.8110 C   0  0  0  0  0  0  0  0  0  0  0  0
   -1.5130   20.4400  -26.5740 C   0  0  0  0  0  0  0  0  0  0  0  0
   -2.7840   19.9710  -27.2450 C   0  0  0  0  0  0  0  0  0  0  0  0
   -3.0170   20.9720  -28.3650 C   0  0  0  0  0  0  0  0  0  0  0  0
   -5.5580   25.0100  -29.9880 C   0  0  0  0  0  0  0  0  0  0  0  0
   -6.6680   24.3650  -30.5420 C   0  0  0  0  0  0  0  0  0  0  0  0
   -6.0784   20.9797  -33.4957 H   0  0  0  0  0  0  0  0  0  0  0  0
   -6.2221   18.5037  -33.7642 H   0  0  0  0  0  0  0  0  0  0  0  0
   -7.9695   17.2094  -32.5402 H   0  0  0  0  0  0  0  0  0  0  0  0
   -9.5706   18.3893  -31.0326 H   0  0  0  0  0  0  0  0  0  0  0  0
   -9.4406   20.8642  -30.7589 H   0  0  0  0  0  0  0  0  0  0  0  0
   -5.0569   21.8867  -32.2633 H   0  0  0  0  0  0  0  0  0  0  0  0
   -3.0819   23.0355  -31.2716 H   0  0  0  0  0  0  0  0  0  0  0  0
   -1.3760   24.4408  -28.8406 H   0  0  0  0  0  0  0  0  0  0  0  0
   -2.4184   25.4735  -27.7961 H   0  0  0  0  0  0  0  0  0  0  0  0
   -3.3643   23.6223  -26.9448 H   0  0  0  0  0  0  0  0  0  0  0  0
   -3.9695   23.2286  -28.6340 H   0  0  0  0  0  0  0  0  0  0  0  0
   -0.4542   22.2841  -26.9448 H   0  0  0  0  0  0  0  0  0  0  0  0
   -1.9180   22.4780  -25.9529 H   0  0  0  0  0  0  0  0  0  0  0  0
   -0.6335   19.9608  -27.0287 H   0  0  0  0  0  0  0  0  0  0  0  0
   -1.4856   20.1848  -25.5044 H   0  0  0  0  0  0  0  0  0  0  0  0
   -2.6575   18.9564  -27.6508 H   0  0  0  0  0  0  0  0  0  0  0  0
   -3.6317   19.9220  -26.5458 H   0  0  0  0  0  0  0  0  0  0  0  0
   -2.6554   20.5591  -29.3183 H   0  0  0  0  0  0  0  0  0  0  0  0
   -4.0897   21.1918  -28.4695 H   0  0  0  0  0  0  0  0  0  0  0  0
   -5.7004   25.8938  -29.3488 H   0  0  0  0  0  0  0  0  0  0  0  0
   -7.6785   24.7515  -30.3433 H   0  0  0  0  0  0  0  0  0  0  0  0
  1  2  2  0
  2  3  1  0
  3  4  2  0
  4  5  1  0
  5  6  2  0
  6  7  1  0
  7  8  2  0
  2  9  1  0
  9 10  2  0
 10 11  1  0
 11 12  2  0
 12 13  1  0
 13 14  1  0
 14 15  1  0
 15 16  1  0
 16 17  1  0
 17 18  1  0
 18 19  1  0
 19 20  1  0
 12 21  1  0
 21 22  2  0
  8  3  1  0
 22  9  1  0
 20 16  1  0
  4 23  1  0
  5 24  1  0
  6 25  1  0
  7 26  1  0
  8 27  1  0
 10 28  1  0
 11 29  1  0
 14 30  1  0
 14 31  1  0
 15 32  1  0
 15 33  1  0
 17 34  1  0
 17 35  1  0
 18 36  1  0
 18 37  1  0
 19 38  1  0
 19 39  1  0
 20 40  1  0
 20 41  1  0
 21 42  1  0
 22 43  1  0
M  END
>  <UniqueID>  (47) 
46

>  <SMILES>  (47) 
O=C(c1ccccc1)c1ccc(OCCN2CCCC2)cc1

>  <Energy>  (47) 
55.999413501016114

>  <Genealogy>  (47) 
O=C(c1ccccc1)c1ccc(OCCN2CCCC2)cc1 (3D coordinates assigned)
O=C(c1ccccc1)c1ccc(OCCN2CCCC2)cc1 (nonaromatic ring conformer: 55.999413501016114 kcal/mol)

>  <smiles>  (47) 
O=C(c1ccccc1)c1ccc(OCCN2CCCC2)cc1

>  <score_type>  (47) 
oracle

>  <origin>  (47) 
adgpu

>  <m_score__min__energy>  (47) 
-8.9000000000000004

>  <m_primary>  (47) 
energy

$$$$
47:0
     RDKit          3D

 34 35  0  0  0  0  0  0  0  0999 V2000
   -9.1100   18.8960  -32.0090 C   0  0  0  0  0  0  0  0  0  0  0  0
   -7.7220   19.3140  -32.4180 C   0  0  0  0  0  0  0  0  0  0  0  0
   -7.3460   20.6620  -32.3040 C   0  0  0  0  0  0  0  0  0  0  0  0
   -6.0690   21.0800  -32.6800 C   0  0  0  0  0  0  0  0  0  0  0  0
   -5.1360   20.1530  -33.1680 C   0  0  0  0  0  0  0  0  0  0  0  0
   -3.8200   20.5450  -33.5860 N   0  0  0  0  0  0  0  0  0  0  0  0
   -2.6260   20.5150  -32.7910 C   0  0  0  0  0  0  0  0  0  0  0  0
   -1.4940   20.4910  -33.3420 O   0  0  0  0  0  0  0  0  0  0  0  0
   -2.7010   20.6220  -31.3660 N   0  0  0  0  0  0  0  0  0  0  0  0
   -2.4030   21.7910  -30.5890 C   0  0  0  0  0  0  0  0  0  0  0  0
   -1.3980   21.7950  -29.6100 C   0  0  0  0  0  0  0  0  0  0  0  0
   -1.1210   22.9600  -28.8880 C   0  0  0  0  0  0  0  0  0  0  0  0
   -1.8300   24.1480  -29.1400 C   0  0  0  0  0  0  0  0  0  0  0  0
   -1.5120   25.3660  -28.3520 C   0  0  0  0  0  0  0  0  0  0  0  0
   -1.2330   26.4530  -28.9230 O   0  0  0  0  0  0  0  0  0  0  0  0
   -1.5180   25.3240  -26.9630 O   0  0  0  0  0  0  0  0  0  0  0  0
   -2.8230   24.1460  -30.1470 C   0  0  0  0  0  0  0  0  0  0  0  0
   -3.5460   25.2950  -30.4470 O   0  0  0  0  0  0  0  0  0  0  0  0
   -3.0930   22.9760  -30.8650 C   0  0  0  0  0  0  0  0  0  0  0  0
   -5.5140   18.8150  -33.3160 C   0  0  0  0  0  0  0  0  0  0  0  0
   -6.7980   18.3800  -32.9460 C   0  0  0  0  0  0  0  0  0  0  0  0
   -7.1600   16.9260  -33.1030 C   0  0  0  0  0  0  0  0  0  0  0  0
   -9.1782   18.8755  -30.9113 H   0  0  0  0  0  0  0  0  0  0  0  0
   -9.8417   19.6136  -32.4085 H   0  0  0  0  0  0  0  0  0  0  0  0
   -9.3237   17.8936  -32.4085 H   0  0  0  0  0  0  0  0  0  0  0  0
   -8.0660   21.3965  -31.9140 H   0  0  0  0  0  0  0  0  0  0  0  0
   -5.7926   22.1412  -32.5934 H   0  0  0  0  0  0  0  0  0  0  0  0
   -0.8253   20.8775  -29.4095 H   0  0  0  0  0  0  0  0  0  0  0  0
   -0.3395   22.9470  -28.1140 H   0  0  0  0  0  0  0  0  0  0  0  0
   -3.8572   22.9881  -31.6561 H   0  0  0  0  0  0  0  0  0  0  0  0
   -4.7952   18.0917  -33.7284 H   0  0  0  0  0  0  0  0  0  0  0  0
   -7.2742   16.4673  -32.1098 H   0  0  0  0  0  0  0  0  0  0  0  0
   -8.1066   16.8416  -33.6569 H   0  0  0  0  0  0  0  0  0  0  0  0
   -6.3635   16.4076  -33.6569 H   0  0  0  0  0  0  0  0  0  0  0  0
  1  2  1  0
  2  3  2  0
  3  4  1  0
  4  5  2  0
  5  6  1  0
  6  7  1  0
  7  8  2  0
  7  9  1  0
  9 10  1  0
 10 11  2  0
 11 12  1  0
 12 13  2  0
 13 14  1  0
 14 15  2  0
 14 16  1  0
 13 17  1  0
 17 18  1  0
 17 19  2  0
  5 20  1  0
 20 21  2  0
 21 22  1  0
 21  2  1  0
 19 10  1  0
  1 23  1  0
  1 24  1  0
  1 25  1  0
  3 26  1  0
  4 27  1  0
 11 28  1  0
 12 29  1  0
 19 30  1  0
 20 31  1  0
 22 32  1  0
 22 33  1  0
 22 34  1  0
M  CHG  4   6  -1   9  -1  16  -1  18  -1
M  END
>  <UniqueID>  (48) 
47

>  <SMILES>  (48) 
Cc1ccc([N-]C(=O)[N-]c2ccc(C(=O)[O-])c([O-])c2)cc1C

>  <Energy>  (48) 
43.68268806549046

>  <Genealogy>  (48) 
Cc1ccc([N-]C(=O)[N-]c2ccc(C(=O)[O-])c([O-])c2)cc1C (protonated)
Cc1ccc([N-]C(=O)[N-]c2ccc(C(=O)[O-])c([O-])c2)cc1C (3D coordinates assigned)
Cc1ccc([N-]C(=O)[N-]c2ccc(C(=O)[O-])c([O-])c2)cc1C (optimized conformer: 43.68268806549046 kcal/mol)

>  <smiles>  (48) 
Cc1ccc(NC(=O)Nc2ccc(C(=O)O)c(O)c2)cc1C

>  <score_type>  (48) 
oracle

>  <origin>  (48) 
adgpu

>  <m_score__min__energy>  (48) 
-12.050000000000001

>  <m_primary>  (48) 
energy

$$$$
48:0
     RDKit          3D

 38 39  0  0  0  0  0  0  0  0999 V2000
   -3.2760   16.6700  -33.3570 C   0  0  0  0  0  0  0  0  0  0  0  0
   -4.5430   16.4640  -34.0710 N   0  0  0  0  0  0  0  0  0  0  0  0
   -4.6020   17.3020  -35.2760 C   0  0  0  0  0  0  0  0  0  0  0  0
   -5.8950   16.8150  -33.0220 S   0  0  0  0  0  0  0  0  0  0  0  0
   -7.1310   16.1460  -33.5550 O   0  0  0  0  0  0  0  0  0  0  0  0
   -5.6210   16.2620  -31.6500 O   0  0  0  0  0  0  0  0  0  0  0  0
   -6.1800   18.5520  -32.9020 C   0  0  0  0  0  0  0  0  0  0  0  0
   -5.1130   19.4520  -33.0130 C   0  0  0  0  0  0  0  0  0  0  0  0
   -5.3380   20.8280  -32.9270 C   0  0  0  0  0  0  0  0  0  0  0  0
   -6.6410   21.3270  -32.7230 C   0  0  0  0  0  0  0  0  0  0  0  0
   -6.9110   22.7390  -32.6240 N   0  0  0  0  0  0  0  0  0  0  0  0
   -7.0990   23.4640  -31.3610 C   0  0  1  0  0  0  0  0  0  0  0  0
   -7.7070   22.6240  -30.4150 O   0  0  0  0  0  0  0  0  0  0  0  0
   -5.7670   23.9250  -30.8130 C   0  0  0  0  0  0  0  0  0  0  0  0
   -5.4090   25.2800  -30.8630 C   0  0  0  0  0  0  0  0  0  0  0  0
   -4.2150   25.6910  -30.3640 N   0  0  0  0  0  0  0  0  0  0  0  0
   -3.3510   24.8090  -29.8020 C   0  0  0  0  0  0  0  0  0  0  0  0
   -2.2500   25.2110  -29.3480 O   0  0  0  0  0  0  0  0  0  0  0  0
   -3.6760   23.4940  -29.7270 N   0  0  0  0  0  0  0  0  0  0  0  0
   -4.8580   23.0320  -30.2120 C   0  0  0  0  0  0  0  0  0  0  0  0
   -5.1290   21.8050  -30.1150 O   0  0  0  0  0  0  0  0  0  0  0  0
   -7.7050   20.4170  -32.6180 C   0  0  0  0  0  0  0  0  0  0  0  0
   -7.4780   19.0410  -32.7060 C   0  0  0  0  0  0  0  0  0  0  0  0
   -3.4573   16.6405  -32.2724 H   0  0  0  0  0  0  0  0  0  0  0  0
   -2.5668   15.8754  -33.6319 H   0  0  0  0  0  0  0  0  0  0  0  0
   -2.8551   17.6484  -33.6319 H   0  0  0  0  0  0  0  0  0  0  0  0
   -4.6080   15.4590  -34.3580 H   0  0  0  0  0  0  0  0  0  0  0  0
   -4.6765   18.3598  -34.9837 H   0  0  0  0  0  0  0  0  0  0  0  0
   -3.6909   17.1499  -35.8733 H   0  0  0  0  0  0  0  0  0  0  0  0
   -5.4828   17.0238  -35.8733 H   0  0  0  0  0  0  0  0  0  0  0  0
   -4.0920   19.0734  -33.1688 H   0  0  0  0  0  0  0  0  0  0  0  0
   -4.4934   21.5267  -33.0190 H   0  0  0  0  0  0  0  0  0  0  0  0
   -7.0210   23.2800  -33.5130 H   0  0  0  0  0  0  0  0  0  0  0  0
   -7.7379   24.3378  -31.5565 H   0  0  0  0  0  0  0  0  0  0  0  0
   -6.9730   22.1870  -29.9090 H   0  0  0  0  0  0  0  0  0  0  0  0
   -6.0982   26.0127  -31.3082 H   0  0  0  0  0  0  0  0  0  0  0  0
   -8.7280   20.7911  -32.4649 H   0  0  0  0  0  0  0  0  0  0  0  0
   -8.3212   18.3397  -32.6211 H   0  0  0  0  0  0  0  0  0  0  0  0
  1  2  1  0
  2  3  1  0
  2  4  1  0
  4  5  2  0
  4  6  2  0
  4  7  1  0
  7  8  2  0
  8  9  1  0
  9 10  2  0
 10 11  1  0
 11 12  1  0
 12 13  1  0
 12 14  1  0
 14 15  2  0
 15 16  1  0
 16 17  1  0
 17 18  2  0
 17 19  1  0
 19 20  1  0
 20 21  2  0
 10 22  1  0
 22 23  2  0
 23  7  1  0
 20 14  1  0
  1 24  1  0
  1 25  1  0
  1 26  1  0
  2 27  1  0
  3 28  1  0
  3 29  1  0
  3 30  1  0
  8 31  1  0
  9 32  1  0
 11 33  1  0
 12 34  1  6
 13 35  1  0
 15 36  1  0
 22 37  1  0
 23 38  1  0
M  CHG  3   2   1  16  -1  19  -1
M  END
>  <UniqueID>  (49) 
48

>  <SMILES>  (49) 
C[NH+](C)S(=O)(=O)c1ccc(N[C@@H](O)c2c[n-]c(=O)[n-]c2=O)cc1

>  <Energy>  (49) 
37.62623168357994

>  <Genealogy>  (49) 
C[NH+](C)S(=O)(=O)c1ccc(NC(O)c2c[n-]c(=O)[n-]c2=O)cc1 (protonated)
C[NH+](C)S(=O)(=O)c1ccc(N[C@@H](O)c2c[n-]c(=O)[n-]c2=O)cc1 (chirality)
C[NH+](C)S(=O)(=O)c1ccc(N[C@@H](O)c2c[n-]c(=O)[n-]c2=O)cc1 (3D coordinates assigned)
C[NH+](C)S(=O)(=O)c1ccc(N[C@@H](O)c2c[n-]c(=O)[n-]c2=O)cc1 (optimized conformer: 37.62623168357994 kcal/mol)

>  <smiles>  (49) 
CN(C)S(=O)(=O)c1ccc(NC(O)c2c[nH]c(=O)[nH]c2=O)cc1

>  <score_type>  (49) 
oracle

>  <origin>  (49) 
adgpu

>  <m_score__min__energy>  (49) 
-9.0199999999999996

>  <m_primary>  (49) 
energy

$$$$
49:0
     RDKit          3D

 51 53  0  0  0  0  0  0  0  0999 V2000
   -0.8560   21.6160  -30.1890 C   0  0  0  0  0  0  0  0  0  0  0  0
   -1.5020   22.6150  -29.4070 O   0  0  0  0  0  0  0  0  0  0  0  0
   -2.8160   23.0620  -29.6170 C   0  0  0  0  0  0  0  0  0  0  0  0
   -3.8790   22.1720  -29.8620 C   0  0  0  0  0  0  0  0  0  0  0  0
   -5.1650   22.6560  -30.1000 C   0  0  0  0  0  0  0  0  0  0  0  0
   -5.4160   24.0340  -30.0940 C   0  0  0  0  0  0  0  0  0  0  0  0
   -6.7900   24.5480  -30.4360 C   0  0  0  0  0  0  0  0  0  0  0  0
   -7.6240   23.4580  -30.9750 N   0  0  0  0  0  0  0  0  0  0  0  0
   -7.2210   23.0480  -32.3300 C   0  0  0  0  0  0  0  0  0  0  0  0
   -7.2870   21.5540  -32.4930 C   0  0  0  0  0  0  0  0  0  0  0  0
   -8.3970   20.7370  -32.3510 C   0  0  0  0  0  0  0  0  0  0  0  0
   -9.7740   21.1630  -31.9570 C   0  0  0  0  0  0  0  0  0  0  0  0
   -8.0620   19.4640  -32.6360 N   0  0  0  0  0  0  0  0  0  0  0  0
   -6.7770   19.4420  -32.9540 N   0  0  0  0  0  0  0  0  0  0  0  0
   -6.1020   18.2380  -33.3580 C   0  0  0  0  0  0  0  0  0  0  0  0
   -5.4340   18.1940  -34.5930 C   0  0  0  0  0  0  0  0  0  0  0  0
   -4.7400   17.0430  -34.9810 C   0  0  0  0  0  0  0  0  0  0  0  0
   -4.6950   15.9330  -34.1340 C   0  0  0  0  0  0  0  0  0  0  0  0
   -5.3400   15.9750  -32.8960 C   0  0  0  0  0  0  0  0  0  0  0  0
   -6.0360   17.1220  -32.5040 C   0  0  0  0  0  0  0  0  0  0  0  0
   -6.2640   20.6920  -32.8500 C   0  0  0  0  0  0  0  0  0  0  0  0
   -4.8260   21.0720  -33.0570 C   0  0  0  0  0  0  0  0  0  0  0  0
   -4.3680   24.9220  -29.8120 C   0  0  0  0  0  0  0  0  0  0  0  0
   -3.0620   24.4430  -29.5900 C   0  0  0  0  0  0  0  0  0  0  0  0
   -1.9830   25.3080  -29.3480 O   0  0  0  0  0  0  0  0  0  0  0  0
   -1.2380   25.3490  -28.1360 C   0  0  0  0  0  0  0  0  0  0  0  0
   -0.3803   20.8804  -29.5238 H   0  0  0  0  0  0  0  0  0  0  0  0
   -1.5985   21.1102  -30.8237 H   0  0  0  0  0  0  0  0  0  0  0  0
   -0.0901   22.0856  -30.8237 H   0  0  0  0  0  0  0  0  0  0  0  0
   -3.6939   21.0877  -29.8657 H   0  0  0  0  0  0  0  0  0  0  0  0
   -5.9872   21.9514  -30.2936 H   0  0  0  0  0  0  0  0  0  0  0  0
   -7.2627   24.9520  -29.5286 H   0  0  0  0  0  0  0  0  0  0  0  0
   -6.6979   25.3378  -31.1961 H   0  0  0  0  0  0  0  0  0  0  0  0
   -8.6050   23.8140  -31.0440 H   0  0  0  0  0  0  0  0  0  0  0  0
   -7.8947   23.5181  -33.0615 H   0  0  0  0  0  0  0  0  0  0  0  0
   -6.1818   23.3689  -32.4944 H   0  0  0  0  0  0  0  0  0  0  0  0
   -9.8506   21.1867  -30.8599 H   0  0  0  0  0  0  0  0  0  0  0  0
   -9.9771   22.1660  -32.3605 H   0  0  0  0  0  0  0  0  0  0  0  0
  -10.5080   20.4499  -32.3605 H   0  0  0  0  0  0  0  0  0  0  0  0
   -5.4568   19.0694  -35.2586 H   0  0  0  0  0  0  0  0  0  0  0  0
   -4.2289   17.0119  -35.9546 H   0  0  0  0  0  0  0  0  0  0  0  0
   -4.1522   15.0271  -34.4418 H   0  0  0  0  0  0  0  0  0  0  0  0
   -5.3002   15.1026  -32.2272 H   0  0  0  0  0  0  0  0  0  0  0  0
   -6.5342   17.1522  -31.5237 H   0  0  0  0  0  0  0  0  0  0  0  0
   -4.3367   21.2013  -32.0804 H   0  0  0  0  0  0  0  0  0  0  0  0
   -4.3145   20.2782  -33.6211 H   0  0  0  0  0  0  0  0  0  0  0  0
   -4.7735   22.0149  -33.6211 H   0  0  0  0  0  0  0  0  0  0  0  0
   -4.5676   26.0027  -29.7637 H   0  0  0  0  0  0  0  0  0  0  0  0
   -1.9279   25.3110  -27.2801 H   0  0  0  0  0  0  0  0  0  0  0  0
   -0.5558   24.4870  -28.0956 H   0  0  0  0  0  0  0  0  0  0  0  0
   -0.6545   26.2806  -28.0956 H   0  0  0  0  0  0  0  0  0  0  0  0
  1  2  1  0
  2  3  1  0
  3  4  2  0
  4  5  1  0
  5  6  2  0
  6  7  1  0
  7  8  1  0
  8  9  1  0
  9 10  1  0
 10 11  1  0
 11 12  1  0
 11 13  2  0
 13 14  1  0
 14 15  1  0
 15 16  2  0
 16 17  1  0
 17 18  2  0
 18 19  1  0
 19 20  2  0
 14 21  1  0
 21 22  1  0
  6 23  1  0
 23 24  2  0
 24 25  1  0
 25 26  1  0
 24  3  1  0
 21 10  2  0
 20 15  1  0
  1 27  1  0
  1 28  1  0
  1 29  1  0
  4 30  1  0
  5 31  1  0
  7 32  1  0
  7 33  1  0
  8 34  1  0
  9 35  1  0
  9 36  1  0
 12 37  1  0
 12 38  1  0
 12 39  1  0
 16 40  1  0
 17 41  1  0
 18 42  1  0
 19 43  1  0
 20 44  1  0
 22 45  1  0
 22 46  1  0
 22 47  1  0
 23 48  1  0
 26 49  1  0
 26 50  1  0
 26 51  1  0
M  END
>  <UniqueID>  (50) 
49

>  <SMILES>  (50) 
COc1ccc(CNCc2c(C)nn(-c3ccccc3)c2C)cc1OC

>  <Energy>  (50) 
78.10383001378453

>  <Genealogy>  (50) 
COc1ccc(CNCc2c(C)nn(-c3ccccc3)c2C)cc1OC (3D coordinates assigned)
COc1ccc(CNCc2c(C)nn(-c3ccccc3)c2C)cc1OC (optimized conformer: 78.10383001378453 kcal/mol)

>  <smiles>  (50) 
COc1ccc(CNCc2c(C)nn(-c3ccccc3)c2C)cc1OC

>  <score_type>  (50) 
oracle

>  <origin>  (50) 
adgpu

>  <m_score__min__energy>  (50) 
-8.9499999999999993

>  <m_primary>  (50) 
energy

$$$$
