0:0
     RDKit          3D

 57 60  0  0  0  0  0  0  0  0999 V2000
   -3.7120   24.2940  -26.8270 O   0  0  0  0  0  0  0  0  0  0  0  0
   -2.6230   24.6480  -27.3600 C   0  0  0  0  0  0  0  0  0  0  0  0
   -2.2620   24.1280  -28.6500 N   0  0  0  0  0  0  0  0  0  0  0  0
   -3.2100   23.5190  -29.5410 C   0  0  0  0  0  0  0  0  0  0  0  0
   -3.3220   22.1200  -29.5690 C   0  0  0  0  0  0  0  0  0  0  0  0
   -4.2330   21.4990  -30.4280 C   0  0  0  0  0  0  0  0  0  0  0  0
   -5.0290   22.2670  -31.2860 C   0  0  0  0  0  0  0  0  0  0  0  0
   -6.1960   21.4820  -32.3460 S   0  0  0  0  0  0  0  0  0  0  0  0
   -5.4840   20.9660  -33.5670 O   0  0  0  0  0  0  0  0  0  0  0  0
   -7.2350   22.4770  -32.7830 O   0  0  0  0  0  0  0  0  0  0  0  0
   -6.9370   20.1480  -31.4990 N   0  0  0  0  0  0  0  0  0  0  0  0
   -8.3780   20.0960  -31.7480 C   0  0  0  0  0  0  0  0  0  0  0  0
   -8.7940   18.6420  -31.5840 C   0  0  0  0  0  0  0  0  0  0  0  0
   -7.5110   17.8380  -31.7280 C   0  0  0  0  0  0  0  0  0  0  0  0
   -6.4150   18.8650  -31.9670 C   0  0  0  0  0  0  0  0  0  0  0  0
   -4.9080   23.6630  -31.2770 C   0  0  0  0  0  0  0  0  0  0  0  0
   -3.9950   24.2890  -30.4220 C   0  0  0  0  0  0  0  0  0  0  0  0
   -3.8580   25.6720  -30.4740 O   0  0  0  0  0  0  0  0  0  0  0  0
   -1.7170   25.5640  -26.6260 C   0  0  0  0  0  0  0  0  0  0  0  0
   -2.0700   26.0740  -25.3630 C   0  0  0  0  0  0  0  0  0  0  0  0
   -1.2030   26.9280  -24.6760 C   0  0  0  0  0  0  0  0  0  0  0  0
    0.0330   27.2780  -25.2310 C   0  0  0  0  0  0  0  0  0  0  0  0
    1.1340   28.3380  -24.3500 S   0  0  0  0  0  0  0  0  0  0  0  0
    2.5440   28.0260  -24.7700 O   0  0  0  0  0  0  0  0  0  0  0  0
    1.0220   28.0520  -22.8780 O   0  0  0  0  0  0  0  0  0  0  0  0
    0.8120   30.0360  -24.6380 N   0  0  0  0  0  0  0  0  0  0  0  0
   -0.5720   30.2820  -25.0830 C   0  0  0  0  0  0  0  0  0  0  0  0
   -0.7720   30.0480  -26.5990 C   0  0  0  0  0  0  0  0  0  0  0  0
    0.4400   29.8550  -27.3010 O   0  0  0  0  0  0  0  0  0  0  0  0
    1.3590   30.8630  -26.9490 C   0  0  0  0  0  0  0  0  0  0  0  0
    1.8310   30.6760  -25.4980 C   0  0  0  0  0  0  0  0  0  0  0  0
    0.3900   26.7770  -26.4890 C   0  0  0  0  0  0  0  0  0  0  0  0
   -0.4740   25.9220  -27.1790 C   0  0  0  0  0  0  0  0  0  0  0  0
   -1.2470   24.0220  -28.8730 H   0  0  0  0  0  0  0  0  0  0  0  0
   -2.6883   21.5081  -28.9102 H   0  0  0  0  0  0  0  0  0  0  0  0
   -4.3248   20.4028  -30.4299 H   0  0  0  0  0  0  0  0  0  0  0  0
   -8.9117   20.7278  -31.0228 H   0  0  0  0  0  0  0  0  0  0  0  0
   -8.6208   20.4675  -32.7545 H   0  0  0  0  0  0  0  0  0  0  0  0
   -9.2415   18.4789  -30.5925 H   0  0  0  0  0  0  0  0  0  0  0  0
   -9.5490   18.3455  -32.3270 H   0  0  0  0  0  0  0  0  0  0  0  0
   -7.3096   17.2670  -30.8096 H   0  0  0  0  0  0  0  0  0  0  0  0
   -7.5750   17.1095  -32.5497 H   0  0  0  0  0  0  0  0  0  0  0  0
   -5.5109   18.5940  -31.4020 H   0  0  0  0  0  0  0  0  0  0  0  0
   -6.1403   18.9123  -33.0311 H   0  0  0  0  0  0  0  0  0  0  0  0
   -5.5349   24.2703  -31.9465 H   0  0  0  0  0  0  0  0  0  0  0  0
   -3.0353   25.7985  -24.9132 H   0  0  0  0  0  0  0  0  0  0  0  0
   -1.4938   27.3274  -23.6932 H   0  0  0  0  0  0  0  0  0  0  0  0
   -1.2423   29.6053  -24.5328 H   0  0  0  0  0  0  0  0  0  0  0  0
   -0.7986   31.3394  -24.8814 H   0  0  0  0  0  0  0  0  0  0  0  0
   -1.3996   29.1548  -26.7343 H   0  0  0  0  0  0  0  0  0  0  0  0
   -1.2443   30.9532  -27.0083 H   0  0  0  0  0  0  0  0  0  0  0  0
    2.2277   30.8124  -27.6219 H   0  0  0  0  0  0  0  0  0  0  0  0
    0.8663   31.8423  -27.0402 H   0  0  0  0  0  0  0  0  0  0  0  0
    2.7330   30.0464  -25.5009 H   0  0  0  0  0  0  0  0  0  0  0  0
    2.0302   31.6758  -25.0848 H   0  0  0  0  0  0  0  0  0  0  0  0
    1.3550   27.0577  -26.9363 H   0  0  0  0  0  0  0  0  0  0  0  0
   -0.1797   25.5260  -28.1621 H   0  0  0  0  0  0  0  0  0  0  0  0
  1  2  2  0
  2  3  1  0
  3  4  1  0
  4  5  2  0
  5  6  1  0
  6  7  2  0
  7  8  1  0
  8  9  2  0
  8 10  2  0
  8 11  1  0
 11 12  1  0
 12 13  1  0
 13 14  1  0
 14 15  1  0
  7 16  1  0
 16 17  2  0
 17 18  1  0
  2 19  1  0
 19 20  2  0
 20 21  1  0
 21 22  2  0
 22 23  1  0
 23 24  2  0
 23 25  2  0
 23 26  1  0
 26 27  1  0
 27 28  1  0
 28 29  1  0
 29 30  1  0
 30 31  1  0
 22 32  1  0
 32 33  2  0
 17  4  1  0
 33 19  1  0
 15 11  1  0
 31 26  1  0
  3 34  1  0
  5 35  1  0
  6 36  1  0
 12 37  1  0
 12 38  1  0
 13 39  1  0
 13 40  1  0
 14 41  1  0
 14 42  1  0
 15 43  1  0
 15 44  1  0
 16 45  1  0
 20 46  1  0
 21 47  1  0
 27 48  1  0
 27 49  1  0
 28 50  1  0
 28 51  1  0
 30 52  1  0
 30 53  1  0
 31 54  1  0
 31 55  1  0
 32 56  1  0
 33 57  1  0
M  CHG  1  18  -1
M  END
>  <UniqueID>  (1) 
1

>  <SMILES>  (1) 
O=C(Nc1ccc(S(=O)(=O)N2CCCC2)cc1[O-])c1ccc(S(=O)(=O)N2CCOCC2)cc1

>  <Energy>  (1) 
77.44821224922326

>  <Genealogy>  (1) 
O=C(Nc1ccc(S(=O)(=O)N2CCCC2)cc1[O-])c1ccc(S(=O)(=O)N2CCOCC2)cc1 (protonated)
O=C(Nc1ccc(S(=O)(=O)N2CCCC2)cc1[O-])c1ccc(S(=O)(=O)N2CCOCC2)cc1 (3D coordinates assigned)
O=C(Nc1ccc(S(=O)(=O)N2CCCC2)cc1[O-])c1ccc(S(=O)(=O)N2CCOCC2)cc1 (nonaromatic ring conformer: 77.44821224922326 kcal/mol)

>  <smiles>  (1) 
O=C(Nc1ccc(S(=O)(=O)N2CCCC2)cc1O)c1ccc(S(=O)(=O)N2CCOCC2)cc1

>  <score_type>  (1) 
oracle

>  <origin>  (1) 
adgpu

>  <m_score__min__energy>  (1) 
-12.630000000000001

>  <m_primary>  (1) 
energy

$$$$
1:0
     RDKit          3D

 46 48  0  0  0  0  0  0  0  0999 V2000
   -1.4250   19.4050  -27.4630 N   0  0  0  0  0  0  0  0  0  0  0  0
   -2.4990   20.3470  -27.3770 C   0  0  0  0  0  0  0  0  0  0  0  0
   -3.5760   19.9920  -26.8260 O   0  0  0  0  0  0  0  0  0  0  0  0
   -2.3670   21.7270  -27.9070 C   0  0  0  0  0  0  0  0  0  0  0  0
   -1.3870   22.5850  -27.3850 C   0  0  0  0  0  0  0  0  0  0  0  0
   -1.2600   23.8890  -27.8650 C   0  0  0  0  0  0  0  0  0  0  0  0
   -2.1220   24.3660  -28.8550 C   0  0  0  0  0  0  0  0  0  0  0  0
   -1.9500   25.6630  -29.3250 O   0  0  0  0  0  0  0  0  0  0  0  0
   -3.1390   23.5340  -29.3650 C   0  0  0  0  0  0  0  0  0  0  0  0
   -4.2470   24.0980  -30.6340 S   0  0  0  0  0  0  0  0  0  0  0  0
   -3.8980   25.5160  -30.9900 O   0  0  0  0  0  0  0  0  0  0  0  0
   -4.0290   23.2620  -31.8640 O   0  0  0  0  0  0  0  0  0  0  0  0
   -5.9420   24.0470  -30.1750 N   0  0  0  0  0  0  0  0  0  0  0  0
   -6.8660   24.3810  -31.2780 C   0  0  0  0  0  0  0  0  0  0  0  0
   -7.0900   23.2030  -32.2410 C   0  0  0  0  0  0  0  0  0  0  0  0
   -7.0600   21.9190  -31.5290 N   0  0  0  0  0  0  0  0  0  0  0  0
   -6.7180   20.7020  -32.2290 C   0  0  0  0  0  0  0  0  0  0  0  0
   -5.5840   20.6380  -33.0590 C   0  0  0  0  0  0  0  0  0  0  0  0
   -5.2890   19.4750  -33.7740 C   0  0  0  0  0  0  0  0  0  0  0  0
   -6.1350   18.3570  -33.6970 C   0  0  0  0  0  0  0  0  0  0  0  0
   -5.7990   17.1000  -34.4570 C   0  0  0  0  0  0  0  0  0  0  0  0
   -6.9210   16.2980  -34.5840 F   0  0  0  0  0  0  0  0  0  0  0  0
   -5.3410   17.4370  -35.7180 F   0  0  0  0  0  0  0  0  0  0  0  0
   -4.8200   16.3730  -33.8020 F   0  0  0  0  0  0  0  0  0  0  0  0
   -7.2500   18.4060  -32.8470 C   0  0  0  0  0  0  0  0  0  0  0  0
   -7.5430   19.5680  -32.1270 C   0  0  0  0  0  0  0  0  0  0  0  0
   -7.3350   21.9430  -30.0910 C   0  0  0  0  0  0  0  0  0  0  0  0
   -6.3090   22.8440  -29.3890 C   0  0  0  0  0  0  0  0  0  0  0  0
   -3.2290   22.2090  -28.9090 C   0  0  0  0  0  0  0  0  0  0  0  0
   -1.5700   18.4220  -27.1440 H   0  0  0  0  0  0  0  0  0  0  0  0
   -0.4640   19.6910  -27.7520 H   0  0  0  0  0  0  0  0  0  0  0  0
   -0.7141   22.2271  -26.5918 H   0  0  0  0  0  0  0  0  0  0  0  0
   -0.4756   24.5458  -27.4609 H   0  0  0  0  0  0  0  0  0  0  0  0
   -7.8354   24.6739  -30.8486 H   0  0  0  0  0  0  0  0  0  0  0  0
   -6.4127   25.2006  -31.8549 H   0  0  0  0  0  0  0  0  0  0  0  0
   -8.0692   23.3197  -32.7284 H   0  0  0  0  0  0  0  0  0  0  0  0
   -6.2815   23.2055  -32.9868 H   0  0  0  0  0  0  0  0  0  0  0  0
   -4.9228   21.5128  -33.1458 H   0  0  0  0  0  0  0  0  0  0  0  0
   -4.3870   19.4346  -34.4023 H   0  0  0  0  0  0  0  0  0  0  0  0
   -7.8987   17.5234  -32.7463 H   0  0  0  0  0  0  0  0  0  0  0  0
   -8.4279   19.5954  -31.4741 H   0  0  0  0  0  0  0  0  0  0  0  0
   -8.3476   22.3362  -29.9178 H   0  0  0  0  0  0  0  0  0  0  0  0
   -7.2641   20.9224  -29.6869 H   0  0  0  0  0  0  0  0  0  0  0  0
   -6.7331   23.1718  -28.4284 H   0  0  0  0  0  0  0  0  0  0  0  0
   -5.3922   22.2502  -29.2594 H   0  0  0  0  0  0  0  0  0  0  0  0
   -3.9851   21.5375  -29.3419 H   0  0  0  0  0  0  0  0  0  0  0  0
  1  2  1  0
  2  3  2  0
  2  4  1  0
  4  5  2  0
  5  6  1  0
  6  7  2  0
  7  8  1  0
  7  9  1  0
  9 10  1  0
 10 11  2  0
 10 12  2  0
 10 13  1  0
 13 14  1  0
 14 15  1  0
 15 16  1  0
 16 17  1  0
 17 18  2  0
 18 19  1  0
 19 20  2  0
 20 21  1  0
 21 22  1  0
 21 23  1  0
 21 24  1  0
 20 25  1  0
 25 26  2  0
 16 27  1  0
 27 28  1  0
  9 29  2  0
 29  4  1  0
 28 13  1  0
 26 17  1  0
  1 30  1  0
  1 31  1  0
  5 32  1  0
  6 33  1  0
 14 34  1  0
 14 35  1  0
 15 36  1  0
 15 37  1  0
 18 38  1  0
 19 39  1  0
 25 40  1  0
 26 41  1  0
 27 42  1  0
 27 43  1  0
 28 44  1  0
 28 45  1  0
 29 46  1  0
M  CHG  1   8  -1
M  END
>  <UniqueID>  (2) 
2

>  <SMILES>  (2) 
NC(=O)c1ccc([O-])c(S(=O)(=O)N2CCN(c3ccc(C(F)(F)F)cc3)CC2)c1

>  <Energy>  (2) 
58.66476975862928

>  <Genealogy>  (2) 
NC(=O)c1ccc([O-])c(S(=O)(=O)N2CCN(c3ccc(C(F)(F)F)cc3)CC2)c1 (protonated)
NC(=O)c1ccc([O-])c(S(=O)(=O)N2CCN(c3ccc(C(F)(F)F)cc3)CC2)c1 (3D coordinates assigned)
NC(=O)c1ccc([O-])c(S(=O)(=O)N2CCN(c3ccc(C(F)(F)F)cc3)CC2)c1 (nonaromatic ring conformer: 58.66476975862928 kcal/mol)

>  <smiles>  (2) 
NC(=O)c1ccc(O)c(S(=O)(=O)N2CCN(c3ccc(C(F)(F)F)cc3)CC2)c1

>  <score_type>  (2) 
oracle

>  <origin>  (2) 
adgpu

>  <m_score__min__energy>  (2) 
-12.029999999999999

>  <m_primary>  (2) 
energy

$$$$
2:0
     RDKit          3D

 34 36  0  0  0  0  0  0  0  0999 V2000
   -0.2770   26.0740  -28.3000 O   0  0  0  0  0  0  0  0  0  0  0  0
   -0.9580   25.1160  -28.7500 C   0  0  0  0  0  0  0  0  0  0  0  0
   -0.3210   23.7720  -28.9650 C   0  0  0  0  0  0  0  0  0  0  0  0
   -1.0720   22.9670  -29.8820 O   0  0  0  0  0  0  0  0  0  0  0  0
   -2.4570   23.0930  -30.0500 C   0  0  0  0  0  0  0  0  0  0  0  0
   -3.1800   22.0870  -30.6970 C   0  0  0  0  0  0  0  0  0  0  0  0
   -4.5610   22.2180  -30.8680 C   0  0  0  0  0  0  0  0  0  0  0  0
   -5.2250   23.3640  -30.4070 C   0  0  0  0  0  0  0  0  0  0  0  0
   -6.9700   23.5080  -30.6080 S   0  0  0  0  0  0  0  0  0  0  0  0
   -7.3640   24.9510  -30.4550 O   0  0  0  0  0  0  0  0  0  0  0  0
   -7.6800   22.7080  -29.5510 O   0  0  0  0  0  0  0  0  0  0  0  0
   -7.4460   22.9500  -32.1830 N   0  0  0  0  0  0  0  0  0  0  0  0
   -8.5670   22.0160  -32.0600 C   0  0  0  0  0  0  0  0  0  0  0  0
   -8.0790   20.6120  -32.2820 C   0  0  0  0  0  0  0  0  0  0  0  0
   -6.9590   20.3640  -33.0880 C   0  0  0  0  0  0  0  0  0  0  0  0
   -6.4960   19.0580  -33.2560 C   0  0  0  0  0  0  0  0  0  0  0  0
   -7.1510   18.0100  -32.6060 C   0  0  0  0  0  0  0  0  0  0  0  0
   -8.2260   18.2670  -31.8150 N   0  0  0  0  0  0  0  0  0  0  0  0
   -8.6970   19.5300  -31.6340 C   0  0  0  0  0  0  0  0  0  0  0  0
   -4.4970   24.3780  -29.7650 C   0  0  0  0  0  0  0  0  0  0  0  0
   -3.1160   24.2420  -29.5890 C   0  0  0  0  0  0  0  0  0  0  0  0
   -2.3570   25.2860  -28.9800 N   0  0  0  0  0  0  0  0  0  0  0  0
    0.6922   23.9186  -29.3674 H   0  0  0  0  0  0  0  0  0  0  0  0
   -0.2908   23.2496  -27.9974 H   0  0  0  0  0  0  0  0  0  0  0  0
   -2.6620   21.1919  -31.0718 H   0  0  0  0  0  0  0  0  0  0  0  0
   -5.1294   21.4189  -31.3663 H   0  0  0  0  0  0  0  0  0  0  0  0
   -6.6290   22.4290  -32.5780 H   0  0  0  0  0  0  0  0  0  0  0  0
   -9.0027   22.0974  -31.0533 H   0  0  0  0  0  0  0  0  0  0  0  0
   -9.3312   22.2608  -32.8124 H   0  0  0  0  0  0  0  0  0  0  0  0
   -6.4453   21.1984  -33.5878 H   0  0  0  0  0  0  0  0  0  0  0  0
   -5.6233   18.8562  -33.8945 H   0  0  0  0  0  0  0  0  0  0  0  0
   -6.7970   16.9764  -32.7341 H   0  0  0  0  0  0  0  0  0  0  0  0
   -9.5634   19.7043  -30.9790 H   0  0  0  0  0  0  0  0  0  0  0  0
   -5.0122   25.2790  -29.4005 H   0  0  0  0  0  0  0  0  0  0  0  0
  1  2  2  0
  2  3  1  0
  3  4  1  0
  4  5  1  0
  5  6  2  0
  6  7  1  0
  7  8  2  0
  8  9  1  0
  9 10  2  0
  9 11  2  0
  9 12  1  0
 12 13  1  0
 13 14  1  0
 14 15  2  0
 15 16  1  0
 16 17  2  0
 17 18  1  0
 18 19  2  0
  8 20  1  0
 20 21  2  0
 21 22  1  0
 22  2  1  0
 21  5  1  0
 19 14  1  0
  3 23  1  0
  3 24  1  0
  6 25  1  0
  7 26  1  0
 12 27  1  0
 13 28  1  0
 13 29  1  0
 15 30  1  0
 16 31  1  0
 17 32  1  0
 19 33  1  0
 20 34  1  0
M  CHG  1  22  -1
M  END
>  <UniqueID>  (3) 
3

>  <SMILES>  (3) 
O=C1COc2ccc(S(=O)(=O)NCc3cccnc3)cc2[N-]1

>  <Energy>  (3) 
35.813962094991965

>  <Genealogy>  (3) 
O=C1COc2ccc(S(=O)(=O)NCc3cccnc3)cc2[N-]1 (protonated)
O=C1COc2ccc(S(=O)(=O)NCc3cccnc3)cc2[N-]1 (3D coordinates assigned)
O=C1COc2ccc(S(=O)(=O)NCc3cccnc3)cc2[N-]1 (nonaromatic ring conformer: 35.813962094991965 kcal/mol)

>  <smiles>  (3) 
O=C1COc2ccc(S(=O)(=O)NCc3cccnc3)cc2N1

>  <score_type>  (3) 
oracle

>  <origin>  (3) 
adgpu

>  <m_score__min__energy>  (3) 
-9.4000000000000004

>  <m_primary>  (3) 
energy

$$$$
3:0
     RDKit          3D

 47 50  0  0  0  0  0  0  0  0999 V2000
   -2.6640   18.8160  -26.1360 C   0  0  0  0  0  0  0  0  0  0  0  0
   -2.0300   19.4030  -27.3630 C   0  0  0  0  0  0  0  0  0  0  0  0
   -2.6510   20.4510  -28.0560 C   0  0  0  0  0  0  0  0  0  0  0  0
   -2.0430   21.0070  -29.1870 C   0  0  0  0  0  0  0  0  0  0  0  0
   -0.8070   20.5200  -29.6400 C   0  0  0  0  0  0  0  0  0  0  0  0
   -0.1420   21.1320  -30.8420 C   0  0  0  0  0  0  0  0  0  0  0  0
    0.0630   20.1050  -31.8650 N   0  0  0  0  0  0  0  0  0  0  0  0
   -0.8220   20.5210  -33.3020 S   0  0  0  0  0  0  0  0  0  0  0  0
   -0.2830   21.8090  -33.8630 O   0  0  0  0  0  0  0  0  0  0  0  0
   -0.6520   19.4310  -34.3230 O   0  0  0  0  0  0  0  0  0  0  0  0
   -2.5360   20.6930  -32.9270 C   0  0  0  0  0  0  0  0  0  0  0  0
   -3.4510   19.7410  -33.3710 C   0  0  0  0  0  0  0  0  0  0  0  0
   -4.8110   19.8930  -33.1070 C   0  0  0  0  0  0  0  0  0  0  0  0
   -5.2820   21.0000  -32.3770 C   0  0  0  0  0  0  0  0  0  0  0  0
   -4.3500   21.9560  -31.8810 C   0  0  0  0  0  0  0  0  0  0  0  0
   -2.9820   21.7930  -32.1890 C   0  0  0  0  0  0  0  0  0  0  0  0
   -4.8210   23.0660  -31.1280 C   0  0  0  0  0  0  0  0  0  0  0  0
   -3.9150   24.0580  -30.5040 C   0  0  0  0  0  0  0  0  0  0  0  0
   -4.1530   25.4540  -30.6630 N   0  0  0  0  0  0  0  0  0  0  0  0
   -2.8840   23.6690  -29.8870 O   0  0  0  0  0  0  0  0  0  0  0  0
   -6.2000   23.2320  -30.9280 C   0  0  0  0  0  0  0  0  0  0  0  0
   -7.1160   22.3020  -31.4260 C   0  0  0  0  0  0  0  0  0  0  0  0
   -8.4920   22.4650  -31.2100 C   0  0  0  0  0  0  0  0  0  0  0  0
   -9.3920   21.5250  -31.7100 C   0  0  0  0  0  0  0  0  0  0  0  0
   -8.9080   20.4260  -32.4220 C   0  0  0  0  0  0  0  0  0  0  0  0
   -7.5720   20.2790  -32.6210 N   0  0  0  0  0  0  0  0  0  0  0  0
   -6.6620   21.1770  -32.1460 C   0  0  0  0  0  0  0  0  0  0  0  0
   -0.1690   19.4960  -28.9270 C   0  0  0  0  0  0  0  0  0  0  0  0
   -0.7780   18.9390  -27.7960 C   0  0  0  0  0  0  0  0  0  0  0  0
   -2.1967   19.2487  -25.2391 H   0  0  0  0  0  0  0  0  0  0  0  0
   -3.7402   19.0436  -26.1348 H   0  0  0  0  0  0  0  0  0  0  0  0
   -2.5198   17.7255  -26.1348 H   0  0  0  0  0  0  0  0  0  0  0  0
   -3.6205   20.8381  -27.7093 H   0  0  0  0  0  0  0  0  0  0  0  0
   -2.5365   21.8304  -29.7241 H   0  0  0  0  0  0  0  0  0  0  0  0
   -0.7811   21.9302  -31.2474 H   0  0  0  0  0  0  0  0  0  0  0  0
    0.8303   21.5534  -30.5470 H   0  0  0  0  0  0  0  0  0  0  0  0
    1.0760   20.1010  -32.1210 H   0  0  0  0  0  0  0  0  0  0  0  0
   -3.0980   18.8640  -33.9334 H   0  0  0  0  0  0  0  0  0  0  0  0
   -5.5239   19.1395  -33.4732 H   0  0  0  0  0  0  0  0  0  0  0  0
   -2.2559   22.5433  -31.8428 H   0  0  0  0  0  0  0  0  0  0  0  0
   -3.4940   26.0500  -31.2160 H   0  0  0  0  0  0  0  0  0  0  0  0
   -6.5652   24.1073  -30.3709 H   0  0  0  0  0  0  0  0  0  0  0  0
   -8.8611   23.3344  -30.6462 H   0  0  0  0  0  0  0  0  0  0  0  0
  -10.4726   21.6480  -31.5452 H   0  0  0  0  0  0  0  0  0  0  0  0
   -9.6088   19.6785  -32.8222 H   0  0  0  0  0  0  0  0  0  0  0  0
    0.8138   19.1285  -29.2571 H   0  0  0  0  0  0  0  0  0  0  0  0
   -0.2725   18.1332  -27.2436 H   0  0  0  0  0  0  0  0  0  0  0  0
  1  2  1  0
  2  3  2  0
  3  4  1  0
  4  5  2  0
  5  6  1  0
  6  7  1  0
  7  8  1  0
  8  9  2  0
  8 10  2  0
  8 11  1  0
 11 12  2  0
 12 13  1  0
 13 14  2  0
 14 15  1  0
 15 16  2  0
 15 17  1  0
 17 18  1  0
 18 19  1  0
 18 20  2  0
 17 21  2  0
 21 22  1  0
 22 23  2  0
 23 24  1  0
 24 25  2  0
 25 26  1  0
 26 27  2  0
  5 28  1  0
 28 29  2  0
 29  2  1  0
 16 11  1  0
 27 22  1  0
 27 14  1  0
  1 30  1  0
  1 31  1  0
  1 32  1  0
  3 33  1  0
  4 34  1  0
  6 35  1  0
  6 36  1  0
  7 37  1  0
 12 38  1  0
 13 39  1  0
 16 40  1  0
 19 41  1  0
 21 42  1  0
 23 43  1  0
 24 44  1  0
 25 45  1  0
 28 46  1  0
 29 47  1  0
M  CHG  1  19  -1
M  END
>  <UniqueID>  (4) 
4

>  <SMILES>  (4) 
Cc1ccc(CNS(=O)(=O)c2ccc3c(c2)c(C([NH-])=O)cc2cccnc23)cc1

>  <Energy>  (4) 
62.174625070222184

>  <Genealogy>  (4) 
Cc1ccc(CNS(=O)(=O)c2ccc3c(c2)c(C([NH-])=O)cc2cccnc23)cc1 (protonated)
Cc1ccc(CNS(=O)(=O)c2ccc3c(c2)c(C([NH-])=O)cc2cccnc23)cc1 (3D coordinates assigned)
Cc1ccc(CNS(=O)(=O)c2ccc3c(c2)c(C([NH-])=O)cc2cccnc23)cc1 (optimized conformer: 62.174625070222184 kcal/mol)

>  <smiles>  (4) 
Cc1ccc(CNS(=O)(=O)c2ccc3c(c2)c(C(N)=O)cc2cccnc23)cc1

>  <score_type>  (4) 
oracle

>  <origin>  (4) 
adgpu

>  <m_score__min__energy>  (4) 
-12.470000000000001

>  <m_primary>  (4) 
energy

$$$$
4:0
     RDKit          3D

 50 53  0  0  0  0  0  0  0  0999 V2000
   -2.0290   18.2490  -26.3260 O   0  0  0  0  0  0  0  0  0  0  0  0
   -1.9650   19.1920  -27.1540 C   0  0  0  0  0  0  0  0  0  0  0  0
   -2.9680   20.2110  -27.1660 N   0  0  0  0  0  0  0  0  0  0  0  0
   -2.7100   21.5040  -27.7360 C   0  0  0  0  0  0  0  0  0  0  0  0
   -3.7740   22.3970  -27.9200 C   0  0  0  0  0  0  0  0  0  0  0  0
   -3.5530   23.6760  -28.4570 C   0  0  0  0  0  0  0  0  0  0  0  0
   -4.6220   24.6160  -28.6430 N   0  0  0  0  0  0  0  0  0  0  0  0
   -5.3750   24.9820  -30.1610 S   0  0  0  0  0  0  0  0  0  0  0  0
   -6.4160   26.0440  -29.9520 O   0  0  0  0  0  0  0  0  0  0  0  0
   -4.3380   25.4960  -31.1210 O   0  0  0  0  0  0  0  0  0  0  0  0
   -6.1550   23.5340  -30.7870 C   0  0  0  0  0  0  0  0  0  0  0  0
   -7.2670   23.0090  -30.1190 C   0  0  0  0  0  0  0  0  0  0  0  0
   -7.8770   21.8390  -30.5780 C   0  0  0  0  0  0  0  0  0  0  0  0
   -7.3800   21.1830  -31.7120 C   0  0  0  0  0  0  0  0  0  0  0  0
   -8.1500   19.7030  -32.2890 S   0  0  0  0  0  0  0  0  0  0  0  0
   -9.1350   20.0450  -33.3730 O   0  0  0  0  0  0  0  0  0  0  0  0
   -8.9080   19.0650  -31.1570 O   0  0  0  0  0  0  0  0  0  0  0  0
   -6.9730   18.5710  -32.9140 N   0  0  0  0  0  0  0  0  0  0  0  0
   -6.4710   19.0270  -34.2270 C   0  0  0  0  0  0  0  0  0  0  0  0
   -5.1980   18.2750  -34.6250 C   0  0  0  0  0  0  0  0  0  0  0  0
   -4.0620   18.5290  -33.6190 C   0  0  0  0  0  0  0  0  0  0  0  0
   -4.5770   18.9460  -32.2330 C   0  0  0  0  0  0  0  0  0  0  0  0
   -5.9170   18.2690  -31.9150 C   0  0  0  0  0  0  0  0  0  0  0  0
   -6.2660   21.7080  -32.3810 C   0  0  0  0  0  0  0  0  0  0  0  0
   -5.6580   22.8810  -31.9230 C   0  0  0  0  0  0  0  0  0  0  0  0
   -2.2520   24.0550  -28.8130 C   0  0  0  0  0  0  0  0  0  0  0  0
   -2.0110   25.3160  -29.3440 O   0  0  0  0  0  0  0  0  0  0  0  0
   -1.1830   23.1750  -28.6250 C   0  0  0  0  0  0  0  0  0  0  0  0
   -1.3990   21.8970  -28.0930 C   0  0  0  0  0  0  0  0  0  0  0  0
   -0.2210   20.9970  -27.8180 C   0  0  0  0  0  0  0  0  0  0  0  0
   -0.5980   19.2850  -28.3020 S   0  0  0  0  0  0  0  0  0  0  0  0
   -3.8820   20.0260  -26.6920 H   0  0  0  0  0  0  0  0  0  0  0  0
   -4.7936   22.0931  -27.6408 H   0  0  0  0  0  0  0  0  0  0  0  0
   -7.6625   23.5198  -29.2287 H   0  0  0  0  0  0  0  0  0  0  0  0
   -8.7502   21.4315  -30.0475 H   0  0  0  0  0  0  0  0  0  0  0  0
   -7.2451   18.8500  -34.9882 H   0  0  0  0  0  0  0  0  0  0  0  0
   -6.2344   20.0989  -34.1562 H   0  0  0  0  0  0  0  0  0  0  0  0
   -5.4138   17.1969  -34.6573 H   0  0  0  0  0  0  0  0  0  0  0  0
   -4.8751   18.6366  -35.6124 H   0  0  0  0  0  0  0  0  0  0  0  0
   -3.4739   17.6055  -33.5123 H   0  0  0  0  0  0  0  0  0  0  0  0
   -3.4528   19.3576  -34.0093 H   0  0  0  0  0  0  0  0  0  0  0  0
   -3.8378   18.6545  -31.4724 H   0  0  0  0  0  0  0  0  0  0  0  0
   -4.7265   20.0358  -32.2291 H   0  0  0  0  0  0  0  0  0  0  0  0
   -5.7616   17.1804  -31.8879 H   0  0  0  0  0  0  0  0  0  0  0  0
   -6.2605   18.6600  -30.9459 H   0  0  0  0  0  0  0  0  0  0  0  0
   -5.8685   21.1955  -33.2695 H   0  0  0  0  0  0  0  0  0  0  0  0
   -4.7877   23.2921  -32.4556 H   0  0  0  0  0  0  0  0  0  0  0  0
   -0.1641   23.4880  -28.8968 H   0  0  0  0  0  0  0  0  0  0  0  0
    0.6474   21.3523  -28.3922 H   0  0  0  0  0  0  0  0  0  0  0  0
    0.0001   21.0208  -26.7407 H   0  0  0  0  0  0  0  0  0  0  0  0
  1  2  2  0
  2  3  1  0
  3  4  1  0
  4  5  2  0
  5  6  1  0
  6  7  1  0
  7  8  1  0
  8  9  2  0
  8 10  2  0
  8 11  1  0
 11 12  2  0
 12 13  1  0
 13 14  2  0
 14 15  1  0
 15 16  2  0
 15 17  2  0
 15 18  1  0
 18 19  1  0
 19 20  1  0
 20 21  1  0
 21 22  1  0
 22 23  1  0
 14 24  1  0
 24 25  2  0
  6 26  2  0
 26 27  1  0
 26 28  1  0
 28 29  2  0
 29 30  1  0
 30 31  1  0
 31  2  1  0
 29  4  1  0
 25 11  1  0
 23 18  1  0
  3 32  1  0
  5 33  1  0
 12 34  1  0
 13 35  1  0
 19 36  1  0
 19 37  1  0
 20 38  1  0
 20 39  1  0
 21 40  1  0
 21 41  1  0
 22 42  1  0
 22 43  1  0
 23 44  1  0
 23 45  1  0
 24 46  1  0
 25 47  1  0
 28 48  1  0
 30 49  1  0
 30 50  1  0
M  CHG  2   7  -1  27  -1
M  END
>  <UniqueID>  (5) 
5

>  <SMILES>  (5) 
O=C1Nc2cc([N-]S(=O)(=O)c3ccc(S(=O)(=O)N4CCCCC4)cc3)c([O-])cc2CS1

>  <Energy>  (5) 
63.90307002123286

>  <Genealogy>  (5) 
O=C1Nc2cc([N-]S(=O)(=O)c3ccc(S(=O)(=O)N4CCCCC4)cc3)c([O-])cc2CS1 (protonated)
O=C1Nc2cc([N-]S(=O)(=O)c3ccc(S(=O)(=O)N4CCCCC4)cc3)c([O-])cc2CS1 (3D coordinates assigned)
O=C1Nc2cc([N-]S(=O)(=O)c3ccc(S(=O)(=O)N4CCCCC4)cc3)c([O-])cc2CS1 (nonaromatic ring conformer: 63.90307002123286 kcal/mol)

>  <smiles>  (5) 
O=C1Nc2cc(NS(=O)(=O)c3ccc(S(=O)(=O)N4CCCCC4)cc3)c(O)cc2CS1

>  <score_type>  (5) 
oracle

>  <origin>  (5) 
adgpu

>  <m_score__min__energy>  (5) 
-15.699999999999999

>  <m_primary>  (5) 
energy

$$$$
5:0
     RDKit          3D

 52 54  0  0  0  0  0  0  0  0999 V2000
   -0.3380   18.2120  -27.5980 C   0  0  0  0  0  0  0  0  0  0  0  0
   -1.0250   19.2900  -26.9690 O   0  0  0  0  0  0  0  0  0  0  0  0
   -1.5300   20.4120  -27.6430 C   0  0  0  0  0  0  0  0  0  0  0  0
   -1.9550   20.3500  -28.9840 C   0  0  0  0  0  0  0  0  0  0  0  0
   -2.4490   21.4880  -29.6220 C   0  0  0  0  0  0  0  0  0  0  0  0
   -2.5180   22.7090  -28.9390 C   0  0  0  0  0  0  0  0  0  0  0  0
   -3.0870   23.9220  -29.6200 C   0  0  0  0  0  0  0  0  0  0  0  0
   -4.2810   24.3730  -28.9030 N   0  0  0  0  0  0  0  0  0  0  0  0
   -5.5240   24.7990  -30.0390 S   0  0  0  0  0  0  0  0  0  0  0  0
   -4.9380   25.6210  -31.1550 O   0  0  0  0  0  0  0  0  0  0  0  0
   -6.5740   25.6200  -29.3420 O   0  0  0  0  0  0  0  0  0  0  0  0
   -6.2710   23.3400  -30.6830 C   0  0  0  0  0  0  0  0  0  0  0  0
   -7.5340   22.9340  -30.2020 C   0  0  0  0  0  0  0  0  0  0  0  0
   -8.1330   21.7580  -30.6780 C   0  0  0  0  0  0  0  0  0  0  0  0
   -7.4540   20.9990  -31.6350 C   0  0  0  0  0  0  0  0  0  0  0  0
   -6.2180   21.3960  -32.1080 C   0  0  0  0  0  0  0  0  0  0  0  0
   -5.6010   22.5600  -31.6430 C   0  0  0  0  0  0  0  0  0  0  0  0
   -5.7000   20.4810  -33.0650 N   0  0  0  0  0  0  0  0  0  0  0  0
   -4.3070   20.3730  -33.4870 C   0  0  0  0  0  0  0  0  0  0  0  0
   -6.6680   19.4360  -33.1310 C   0  0  0  0  0  0  0  0  0  0  0  0
   -6.5150   18.4020  -33.8370 O   0  0  0  0  0  0  0  0  0  0  0  0
   -7.8720   19.6940  -32.2600 C   0  0  0  0  0  0  0  0  0  0  0  0
   -9.1400   19.8620  -33.1070 C   0  0  0  0  0  0  0  0  0  0  0  0
   -8.0320   18.5930  -31.2020 C   0  0  0  0  0  0  0  0  0  0  0  0
   -2.1120   22.7730  -27.5990 C   0  0  0  0  0  0  0  0  0  0  0  0
   -1.6110   21.6280  -26.9460 C   0  0  0  0  0  0  0  0  0  0  0  0
   -1.1880   21.6590  -25.6080 O   0  0  0  0  0  0  0  0  0  0  0  0
   -0.4100   22.7040  -25.0320 C   0  0  0  0  0  0  0  0  0  0  0  0
    0.0849   17.5484  -26.8293 H   0  0  0  0  0  0  0  0  0  0  0  0
   -1.0416   17.6449  -28.2252 H   0  0  0  0  0  0  0  0  0  0  0  0
    0.4732   18.6103  -28.2252 H   0  0  0  0  0  0  0  0  0  0  0  0
   -1.8971   19.3980  -29.5321 H   0  0  0  0  0  0  0  0  0  0  0  0
   -2.7862   21.4261  -30.6672 H   0  0  0  0  0  0  0  0  0  0  0  0
   -2.3363   24.7260  -29.6230 H   0  0  0  0  0  0  0  0  0  0  0  0
   -3.3573   23.6666  -30.6552 H   0  0  0  0  0  0  0  0  0  0  0  0
   -4.0360   25.2470  -28.3810 H   0  0  0  0  0  0  0  0  0  0  0  0
   -8.0528   23.5442  -29.4481 H   0  0  0  0  0  0  0  0  0  0  0  0
   -9.1177   21.4396  -30.3053 H   0  0  0  0  0  0  0  0  0  0  0  0
   -4.6121   22.8603  -32.0196 H   0  0  0  0  0  0  0  0  0  0  0  0
   -3.6581   20.3227  -32.6002 H   0  0  0  0  0  0  0  0  0  0  0  0
   -4.1760   19.4620  -34.0894 H   0  0  0  0  0  0  0  0  0  0  0  0
   -4.0371   21.2529  -34.0894 H   0  0  0  0  0  0  0  0  0  0  0  0
  -10.0107   19.9774  -32.4447 H   0  0  0  0  0  0  0  0  0  0  0  0
   -9.0413   20.7549  -33.7418 H   0  0  0  0  0  0  0  0  0  0  0  0
   -9.2772   18.9742  -33.7418 H   0  0  0  0  0  0  0  0  0  0  0  0
   -7.9674   19.0373  -30.1978 H   0  0  0  0  0  0  0  0  0  0  0  0
   -9.0104   18.1056  -31.3251 H   0  0  0  0  0  0  0  0  0  0  0  0
   -7.2328   17.8473  -31.3251 H   0  0  0  0  0  0  0  0  0  0  0  0
   -2.1848   23.7246  -27.0520 H   0  0  0  0  0  0  0  0  0  0  0  0
   -0.4602   22.6366  -23.9352 H   0  0  0  0  0  0  0  0  0  0  0  0
    0.6359   22.6048  -25.3580 H   0  0  0  0  0  0  0  0  0  0  0  0
   -0.8049   23.6775  -25.3580 H   0  0  0  0  0  0  0  0  0  0  0  0
  1  2  1  0
  2  3  1  0
  3  4  2  0
  4  5  1  0
  5  6  2  0
  6  7  1  0
  7  8  1  0
  8  9  1  0
  9 10  2  0
  9 11  2  0
  9 12  1  0
 12 13  2  0
 13 14  1  0
 14 15  2  0
 15 16  1  0
 16 17  2  0
 16 18  1  0
 18 19  1  0
 18 20  1  0
 20 21  2  0
 20 22  1  0
 22 23  1  0
 22 24  1  0
  6 25  1  0
 25 26  2  0
 26 27  1  0
 27 28  1  0
 26  3  1  0
 17 12  1  0
 22 15  1  0
  1 29  1  0
  1 30  1  0
  1 31  1  0
  4 32  1  0
  5 33  1  0
  7 34  1  0
  7 35  1  0
  8 36  1  0
 13 37  1  0
 14 38  1  0
 17 39  1  0
 19 40  1  0
 19 41  1  0
 19 42  1  0
 23 43  1  0
 23 44  1  0
 23 45  1  0
 24 46  1  0
 24 47  1  0
 24 48  1  0
 25 49  1  0
 28 50  1  0
 28 51  1  0
 28 52  1  0
M  END
>  <UniqueID>  (6) 
6

>  <SMILES>  (6) 
COc1ccc(CNS(=O)(=O)c2ccc3c(c2)N(C)C(=O)C3(C)C)cc1OC

>  <Energy>  (6) 
64.75888194026503

>  <Genealogy>  (6) 
COc1ccc(CNS(=O)(=O)c2ccc3c(c2)N(C)C(=O)C3(C)C)cc1OC (3D coordinates assigned)
COc1ccc(CNS(=O)(=O)c2ccc3c(c2)N(C)C(=O)C3(C)C)cc1OC (nonaromatic ring conformer: 64.75888194026503 kcal/mol)

>  <smiles>  (6) 
COc1ccc(CNS(=O)(=O)c2ccc3c(c2)N(C)C(=O)C3(C)C)cc1OC

>  <score_type>  (6) 
oracle

>  <origin>  (6) 
adgpu

>  <m_score__min__energy>  (6) 
-10.630000000000001

>  <m_primary>  (6) 
energy

$$$$
6:0
     RDKit          3D

 56 59  0  0  0  0  0  0  0  0999 V2000
   -5.4860   26.1690  -30.8210 O   0  0  0  0  0  0  0  0  0  0  0  0
   -4.9640   25.1530  -30.2890 C   0  0  0  0  0  0  0  0  0  0  0  0
   -5.8120   24.2510  -29.4330 C   0  0  0  0  0  0  0  0  0  0  0  0
   -6.8230   23.5280  -30.2780 C   0  0  0  0  0  0  0  0  0  0  0  0
   -7.6420   22.5330  -29.7180 C   0  0  0  0  0  0  0  0  0  0  0  0
   -8.5570   21.8420  -30.5180 C   0  0  0  0  0  0  0  0  0  0  0  0
   -8.6560   22.1320  -31.8820 C   0  0  0  0  0  0  0  0  0  0  0  0
   -9.5420   21.4580  -32.6560 F   0  0  0  0  0  0  0  0  0  0  0  0
   -7.8390   23.1140  -32.4480 C   0  0  0  0  0  0  0  0  0  0  0  0
   -6.9230   23.8080  -31.6520 C   0  0  0  0  0  0  0  0  0  0  0  0
   -3.5600   24.9250  -30.4650 N   0  0  0  0  0  0  0  0  0  0  0  0
   -2.9080   23.6490  -30.4570 C   0  0  0  0  0  0  0  0  0  0  0  0
   -3.1260   22.7280  -31.4960 C   0  0  0  0  0  0  0  0  0  0  0  0
   -2.4300   21.5130  -31.5280 C   0  0  0  0  0  0  0  0  0  0  0  0
   -2.7030   20.3760  -32.8450 S   0  0  0  0  0  0  0  0  0  0  0  0
   -2.2450   19.0050  -32.4280 O   0  0  0  0  0  0  0  0  0  0  0  0
   -1.9010   20.8020  -34.0440 O   0  0  0  0  0  0  0  0  0  0  0  0
   -4.3970   20.3570  -33.2560 N   0  0  0  0  0  0  0  0  0  0  0  0
   -4.7720   19.1330  -33.9710 C   0  0  0  0  0  0  0  0  0  0  0  0
   -6.2450   18.8830  -33.6700 C   0  0  0  0  0  0  0  0  0  0  0  0
   -6.5640   19.7380  -32.4510 C   0  0  0  0  0  0  0  0  0  0  0  0
   -5.2490   20.3960  -32.0650 C   0  0  0  0  0  0  0  0  0  0  0  0
   -1.4870   21.2300  -30.5350 C   0  0  0  0  0  0  0  0  0  0  0  0
   -1.2520   22.1460  -29.5080 C   0  0  0  0  0  0  0  0  0  0  0  0
   -1.9570   23.3570  -29.4600 C   0  0  0  0  0  0  0  0  0  0  0  0
   -1.7230   24.2770  -28.3820 N   0  0  0  0  0  0  0  0  0  0  0  0
   -0.9460   25.4950  -28.5320 C   0  0  0  0  0  0  0  0  0  0  0  0
   -0.9460   26.1440  -27.1540 C   0  0  0  0  0  0  0  0  0  0  0  0
   -2.1010   25.5000  -26.3910 C   0  0  0  0  0  0  0  0  0  0  0  0
   -2.3730   24.1730  -27.0870 C   0  0  0  0  0  0  0  0  0  0  0  0
   -5.1665   23.5154  -28.9308 H   0  0  0  0  0  0  0  0  0  0  0  0
   -6.3411   24.8608  -28.6859 H   0  0  0  0  0  0  0  0  0  0  0  0
   -7.5630   22.2969  -28.6465 H   0  0  0  0  0  0  0  0  0  0  0  0
   -9.2004   21.0685  -30.0732 H   0  0  0  0  0  0  0  0  0  0  0  0
   -7.9167   23.3414  -33.5214 H   0  0  0  0  0  0  0  0  0  0  0  0
   -6.2777   24.5764  -32.1027 H   0  0  0  0  0  0  0  0  0  0  0  0
   -3.8493   22.9634  -32.2907 H   0  0  0  0  0  0  0  0  0  0  0  0
   -4.6070   21.1890  -33.8590 H   0  0  0  0  0  0  0  0  0  0  0  0
   -4.6234   19.2654  -35.0528 H   0  0  0  0  0  0  0  0  0  0  0  0
   -4.1529   18.2822  -33.6501 H   0  0  0  0  0  0  0  0  0  0  0  0
   -6.8683   19.1849  -34.5246 H   0  0  0  0  0  0  0  0  0  0  0  0
   -6.4478   17.8178  -33.4847 H   0  0  0  0  0  0  0  0  0  0  0  0
   -7.3168   20.4999  -32.7015 H   0  0  0  0  0  0  0  0  0  0  0  0
   -6.9789   19.1382  -31.6275 H   0  0  0  0  0  0  0  0  0  0  0  0
   -5.4219   21.4374  -31.7558 H   0  0  0  0  0  0  0  0  0  0  0  0
   -4.7759   19.8727  -31.2210 H   0  0  0  0  0  0  0  0  0  0  0  0
   -0.9286   20.2827  -30.5632 H   0  0  0  0  0  0  0  0  0  0  0  0
   -0.5083   21.9160  -28.7308 H   0  0  0  0  0  0  0  0  0  0  0  0
    0.0814   25.2603  -28.8473 H   0  0  0  0  0  0  0  0  0  0  0  0
   -1.3701   26.1602  -29.2986 H   0  0  0  0  0  0  0  0  0  0  0  0
    0.0073   25.9515  -26.6399 H   0  0  0  0  0  0  0  0  0  0  0  0
   -1.0635   27.2357  -27.2206 H   0  0  0  0  0  0  0  0  0  0  0  0
   -1.8189   25.3307  -25.3414 H   0  0  0  0  0  0  0  0  0  0  0  0
   -2.9923   26.1446  -26.3883 H   0  0  0  0  0  0  0  0  0  0  0  0
   -1.9470   23.3403  -26.5082 H   0  0  0  0  0  0  0  0  0  0  0  0
   -3.4507   23.9753  -27.1846 H   0  0  0  0  0  0  0  0  0  0  0  0
  1  2  2  0
  2  3  1  0
  3  4  1  0
  4  5  2  0
  5  6  1  0
  6  7  2  0
  7  8  1  0
  7  9  1  0
  9 10  2  0
  2 11  1  0
 11 12  1  0
 12 13  2  0
 13 14  1  0
 14 15  1  0
 15 16  2  0
 15 17  2  0
 15 18  1  0
 18 19  1  0
 19 20  1  0
 20 21  1  0
 21 22  1  0
 14 23  2  0
 23 24  1  0
 24 25  2  0
 25 26  1  0
 26 27  1  0
 27 28  1  0
 28 29  1  0
 29 30  1  0
 10  4  1  0
 25 12  1  0
 30 26  1  0
 22 18  1  0
  3 31  1  0
  3 32  1  0
  5 33  1  0
  6 34  1  0
  9 35  1  0
 10 36  1  0
 13 37  1  0
 18 38  1  0
 19 39  1  0
 19 40  1  0
 20 41  1  0
 20 42  1  0
 21 43  1  0
 21 44  1  0
 22 45  1  0
 22 46  1  0
 23 47  1  0
 24 48  1  0
 27 49  1  0
 27 50  1  0
 28 51  1  0
 28 52  1  0
 29 53  1  0
 29 54  1  0
 30 55  1  0
 30 56  1  0
M  CHG  2  11  -1  18   1
M  END
>  <UniqueID>  (7) 
7

>  <SMILES>  (7) 
O=C(Cc1ccc(F)cc1)[N-]c1cc(S(=O)(=O)[NH+]2CCCC2)ccc1N1CCCC1

>  <Energy>  (7) 
66.4533142467269

>  <Genealogy>  (7) 
O=C(Cc1ccc(F)cc1)[N-]c1cc(S(=O)(=O)[NH+]2CCCC2)ccc1N1CCCC1 (protonated)
O=C(Cc1ccc(F)cc1)[N-]c1cc(S(=O)(=O)[NH+]2CCCC2)ccc1N1CCCC1 (3D coordinates assigned)
O=C(Cc1ccc(F)cc1)[N-]c1cc(S(=O)(=O)[NH+]2CCCC2)ccc1N1CCCC1 (nonaromatic ring conformer: 66.4533142467269 kcal/mol)

>  <smiles>  (7) 
O=C(Cc1ccc(F)cc1)Nc1cc(S(=O)(=O)N2CCCC2)ccc1N1CCCC1

>  <score_type>  (7) 
oracle

>  <origin>  (7) 
adgpu

>  <m_score__min__energy>  (7) 
-10.9

>  <m_primary>  (7) 
energy

$$$$
7:0
     RDKit          3D

 59 62  0  0  0  0  0  0  0  0999 V2000
   -1.8620   21.8170  -32.4840 O   0  0  0  0  0  0  0  0  0  0  0  0
   -2.0010   20.6680  -31.9790 C   0  0  0  0  0  0  0  0  0  0  0  0
   -1.7130   20.4620  -30.5860 N   0  0  0  0  0  0  0  0  0  0  0  0
   -1.2390   21.5560  -29.7380 C   0  0  0  0  0  0  0  0  0  0  0  0
   -2.3710   22.4760  -29.3700 C   0  0  0  0  0  0  0  0  0  0  0  0
   -3.1810   22.1930  -28.2570 C   0  0  0  0  0  0  0  0  0  0  0  0
   -4.2210   23.0570  -27.9030 C   0  0  0  0  0  0  0  0  0  0  0  0
   -4.4510   24.2150  -28.6460 C   0  0  0  0  0  0  0  0  0  0  0  0
   -3.6350   24.5150  -29.7420 C   0  0  0  0  0  0  0  0  0  0  0  0
   -3.8630   25.6720  -30.4770 O   0  0  0  0  0  0  0  0  0  0  0  0
   -2.5910   23.6520  -30.0990 C   0  0  0  0  0  0  0  0  0  0  0  0
   -2.4550   19.5450  -32.8310 C   0  0  0  0  0  0  0  0  0  0  0  0
   -3.7150   18.9650  -32.6050 C   0  0  0  0  0  0  0  0  0  0  0  0
   -4.1770   17.9100  -33.4080 C   0  0  0  0  0  0  0  0  0  0  0  0
   -5.7500   17.1600  -33.0880 S   0  0  0  0  0  0  0  0  0  0  0  0
   -6.0500   16.1900  -34.1990 O   0  0  0  0  0  0  0  0  0  0  0  0
   -5.6740   16.3860  -31.8000 O   0  0  0  0  0  0  0  0  0  0  0  0
   -7.0450   18.3310  -32.9320 N   0  0  0  0  0  0  0  0  0  0  0  0
   -6.5750   19.6980  -33.2570 C   0  0  0  0  0  0  0  0  0  0  0  0
   -7.5490   20.7920  -32.7670 C   0  0  0  0  0  0  0  0  0  0  0  0
   -8.9650   20.2400  -32.5820 C   0  0  0  0  0  0  0  0  0  0  0  0
   -8.9850   19.0620  -31.5920 C   0  0  0  0  0  0  0  0  0  0  0  0
   -7.6680   18.2650  -31.5990 C   0  0  0  0  0  0  0  0  0  0  0  0
   -3.3680   17.4300  -34.4440 C   0  0  0  0  0  0  0  0  0  0  0  0
   -2.1260   18.0100  -34.6940 C   0  0  0  0  0  0  0  0  0  0  0  0
   -1.6590   19.0630  -33.8960 C   0  0  0  0  0  0  0  0  0  0  0  0
   -0.3460   19.5890  -34.1330 N   0  0  0  0  0  0  0  0  0  0  0  0
    0.8170   19.2010  -33.3590 C   0  0  0  0  0  0  0  0  0  0  0  0
    1.9640   20.0320  -33.9160 C   0  0  0  0  0  0  0  0  0  0  0  0
    1.3080   21.1920  -34.6640 C   0  0  0  0  0  0  0  0  0  0  0  0
   -0.1000   20.7240  -35.0040 C   0  0  0  0  0  0  0  0  0  0  0  0
   -1.7780   19.4950  -30.1920 H   0  0  0  0  0  0  0  0  0  0  0  0
   -0.8018   21.1370  -28.8197 H   0  0  0  0  0  0  0  0  0  0  0  0
   -0.4839   22.1311  -30.2939 H   0  0  0  0  0  0  0  0  0  0  0  0
   -2.9956   21.2869  -27.6614 H   0  0  0  0  0  0  0  0  0  0  0  0
   -4.8588   22.8236  -27.0377 H   0  0  0  0  0  0  0  0  0  0  0  0
   -5.2733   24.8917  -28.3703 H   0  0  0  0  0  0  0  0  0  0  0  0
   -1.9429   23.8980  -30.9531 H   0  0  0  0  0  0  0  0  0  0  0  0
   -4.3476   19.3426  -31.7882 H   0  0  0  0  0  0  0  0  0  0  0  0
   -5.5969   19.8573  -32.7795 H   0  0  0  0  0  0  0  0  0  0  0  0
   -6.5088   19.7765  -34.3522 H   0  0  0  0  0  0  0  0  0  0  0  0
   -7.1900   21.1853  -31.8045 H   0  0  0  0  0  0  0  0  0  0  0  0
   -7.5849   21.5875  -33.5259 H   0  0  0  0  0  0  0  0  0  0  0  0
   -9.6138   21.0410  -32.1979 H   0  0  0  0  0  0  0  0  0  0  0  0
   -9.3251   19.8786  -33.5565 H   0  0  0  0  0  0  0  0  0  0  0  0
   -9.1541   19.4553  -30.5787 H   0  0  0  0  0  0  0  0  0  0  0  0
   -9.7908   18.3796  -31.9001 H   0  0  0  0  0  0  0  0  0  0  0  0
   -6.9802   18.6918  -30.8542 H   0  0  0  0  0  0  0  0  0  0  0  0
   -7.8810   17.2144  -31.3521 H   0  0  0  0  0  0  0  0  0  0  0  0
   -3.7144   16.5903  -35.0644 H   0  0  0  0  0  0  0  0  0  0  0  0
   -1.5073   17.6384  -35.5242 H   0  0  0  0  0  0  0  0  0  0  0  0
    0.6622   19.4232  -32.2929 H   0  0  0  0  0  0  0  0  0  0  0  0
    1.0180   18.1220  -33.4328 H   0  0  0  0  0  0  0  0  0  0  0  0
    2.5956   20.4106  -33.0989 H   0  0  0  0  0  0  0  0  0  0  0  0
    2.6129   19.4379  -34.5763 H   0  0  0  0  0  0  0  0  0  0  0  0
    1.2703   22.0869  -34.0254 H   0  0  0  0  0  0  0  0  0  0  0  0
    1.8738   21.4621  -35.5678 H   0  0  0  0  0  0  0  0  0  0  0  0
   -0.8295   21.5241  -34.8100 H   0  0  0  0  0  0  0  0  0  0  0  0
   -0.1981   20.4553  -36.0662 H   0  0  0  0  0  0  0  0  0  0  0  0
  1  2  2  0
  2  3  1  0
  3  4  1  0
  4  5  1  0
  5  6  2  0
  6  7  1  0
  7  8  2  0
  8  9  1  0
  9 10  1  0
  9 11  2  0
  2 12  1  0
 12 13  2  0
 13 14  1  0
 14 15  1  0
 15 16  2  0
 15 17  2  0
 15 18  1  0
 18 19  1  0
 19 20  1  0
 20 21  1  0
 21 22  1  0
 22 23  1  0
 14 24  2  0
 24 25  1  0
 25 26  2  0
 26 27  1  0
 27 28  1  0
 28 29  1  0
 29 30  1  0
 30 31  1  0
 11  5  1  0
 26 12  1  0
 31 27  1  0
 23 18  1  0
  3 32  1  0
  4 33  1  0
  4 34  1  0
  6 35  1  0
  7 36  1  0
  8 37  1  0
 11 38  1  0
 13 39  1  0
 19 40  1  0
 19 41  1  0
 20 42  1  0
 20 43  1  0
 21 44  1  0
 21 45  1  0
 22 46  1  0
 22 47  1  0
 23 48  1  0
 23 49  1  0
 24 50  1  0
 25 51  1  0
 28 52  1  0
 28 53  1  0
 29 54  1  0
 29 55  1  0
 30 56  1  0
 30 57  1  0
 31 58  1  0
 31 59  1  0
M  CHG  1  10  -1
M  END
>  <UniqueID>  (8) 
8

>  <SMILES>  (8) 
O=C(NCc1cccc([O-])c1)c1cc(S(=O)(=O)N2CCCCC2)ccc1N1CCCC1

>  <Energy>  (8) 
72.68772187369431

>  <Genealogy>  (8) 
O=C(NCc1cccc([O-])c1)c1cc(S(=O)(=O)N2CCCCC2)ccc1N1CCCC1 (protonated)
O=C(NCc1cccc([O-])c1)c1cc(S(=O)(=O)N2CCCCC2)ccc1N1CCCC1 (3D coordinates assigned)
O=C(NCc1cccc([O-])c1)c1cc(S(=O)(=O)N2CCCCC2)ccc1N1CCCC1 (nonaromatic ring conformer: 72.68772187369431 kcal/mol)

>  <smiles>  (8) 
O=C(NCc1cccc(O)c1)c1cc(S(=O)(=O)N2CCCCC2)ccc1N1CCCC1

>  <score_type>  (8) 
oracle

>  <origin>  (8) 
adgpu

>  <m_score__min__energy>  (8) 
-12.16

>  <m_primary>  (8) 
energy

$$$$
8:0
     RDKit          3D

 64 67  0  0  0  0  0  0  0  0999 V2000
   -0.0410   29.1870  -37.5960 C   0  0  0  0  0  0  0  0  0  0  0  0
   -0.9880   28.0410  -37.1760 C   0  0  0  0  0  0  0  0  0  0  0  0
   -1.8000   27.5710  -38.4010 C   0  0  0  0  0  0  0  0  0  0  0  0
   -1.9850   28.6140  -36.1390 C   0  0  0  0  0  0  0  0  0  0  0  0
   -0.1590   26.8600  -36.6270 C   0  0  0  0  0  0  0  0  0  0  0  0
   -0.5280   25.5080  -36.8280 C   0  0  0  0  0  0  0  0  0  0  0  0
    0.2540   24.4680  -36.3190 C   0  0  0  0  0  0  0  0  0  0  0  0
    1.4170   24.7400  -35.5980 C   0  0  0  0  0  0  0  0  0  0  0  0
    2.2170   23.6450  -35.1300 N   0  0  0  0  0  0  0  0  0  0  0  0
    2.3030   22.3560  -35.7430 C   0  0  0  0  0  0  0  0  0  0  0  0
    3.2250   22.1430  -36.5770 O   0  0  0  0  0  0  0  0  0  0  0  0
    1.3470   21.3210  -35.4580 N   0  0  0  0  0  0  0  0  0  0  0  0
    1.6840   20.0140  -34.8840 C   0  0  0  0  0  0  0  0  0  0  0  0
    0.3590   19.4490  -34.5350 C   0  0  0  0  0  0  0  0  0  0  0  0
    0.0790   18.2120  -33.9540 C   0  0  0  0  0  0  0  0  0  0  0  0
   -1.2590   17.8790  -33.6910 C   0  0  0  0  0  0  0  0  0  0  0  0
   -2.2960   18.7870  -34.0040 C   0  0  0  0  0  0  0  0  0  0  0  0
   -3.9710   18.3960  -33.6180 S   0  0  0  0  0  0  0  0  0  0  0  0
   -4.2290   16.9240  -33.7890 O   0  0  0  0  0  0  0  0  0  0  0  0
   -4.8790   19.1400  -34.5560 O   0  0  0  0  0  0  0  0  0  0  0  0
   -4.3180   18.9030  -31.9940 N   0  0  0  0  0  0  0  0  0  0  0  0
   -4.3780   20.2600  -31.5330 C   0  0  0  0  0  0  0  0  0  0  0  0
   -3.1970   20.8790  -31.1260 C   0  0  0  0  0  0  0  0  0  0  0  0
   -3.2070   22.1990  -30.6830 C   0  0  0  0  0  0  0  0  0  0  0  0
   -4.3980   22.9430  -30.6480 C   0  0  0  0  0  0  0  0  0  0  0  0
   -4.3060   24.6240  -30.0820 S   0  0  0  0  0  0  0  0  0  0  0  0
   -2.6930   24.9890  -29.5760 N   0  0  0  0  0  0  0  0  0  0  0  0
   -4.6790   25.5680  -31.1940 O   0  0  0  0  0  0  0  0  0  0  0  0
   -5.2580   24.8440  -28.9400 O   0  0  0  0  0  0  0  0  0  0  0  0
   -5.6150   22.3270  -31.0580 C   0  0  0  0  0  0  0  0  0  0  0  0
   -6.9350   23.0800  -31.1140 C   0  0  0  0  0  0  0  0  0  0  0  0
   -6.8470   24.1680  -31.9600 F   0  0  0  0  0  0  0  0  0  0  0  0
   -7.3000   23.5610  -29.8670 F   0  0  0  0  0  0  0  0  0  0  0  0
   -7.9310   22.2280  -31.5550 F   0  0  0  0  0  0  0  0  0  0  0  0
   -5.5770   20.9900  -31.5110 C   0  0  0  0  0  0  0  0  0  0  0  0
   -1.9840   20.0260  -34.5960 C   0  0  0  0  0  0  0  0  0  0  0  0
   -0.6480   20.3260  -34.8600 C   0  0  0  0  0  0  0  0  0  0  0  0
   -0.0980   21.5600  -35.4650 C   0  0  0  0  0  0  0  0  0  0  0  0
    1.8170   26.0710  -35.4160 C   0  0  0  0  0  0  0  0  0  0  0  0
    1.0340   27.1160  -35.9150 C   0  0  0  0  0  0  0  0  0  0  0  0
    0.3634   29.6764  -36.6977 H   0  0  0  0  0  0  0  0  0  0  0  0
    0.7863   28.7782  -38.1947 H   0  0  0  0  0  0  0  0  0  0  0  0
   -0.5984   29.9225  -38.1947 H   0  0  0  0  0  0  0  0  0  0  0  0
   -2.7055   27.0469  -38.0615 H   0  0  0  0  0  0  0  0  0  0  0  0
   -2.0866   28.4429  -39.0074 H   0  0  0  0  0  0  0  0  0  0  0  0
   -1.1867   26.8882  -39.0074 H   0  0  0  0  0  0  0  0  0  0  0  0
   -1.6189   28.4036  -35.1233 H   0  0  0  0  0  0  0  0  0  0  0  0
   -2.0746   29.7014  -36.2785 H   0  0  0  0  0  0  0  0  0  0  0  0
   -2.9697   28.1440  -36.2785 H   0  0  0  0  0  0  0  0  0  0  0  0
   -1.4425   25.2732  -37.3924 H   0  0  0  0  0  0  0  0  0  0  0  0
   -0.0503   23.4246  -36.4884 H   0  0  0  0  0  0  0  0  0  0  0  0
    2.2019   19.3812  -35.6198 H   0  0  0  0  0  0  0  0  0  0  0  0
    2.3655   20.0823  -34.0232 H   0  0  0  0  0  0  0  0  0  0  0  0
    0.8905   17.5116  -33.7069 H   0  0  0  0  0  0  0  0  0  0  0  0
   -1.5018   16.9061  -33.2388 H   0  0  0  0  0  0  0  0  0  0  0  0
   -2.2499   20.3203  -31.1551 H   0  0  0  0  0  0  0  0  0  0  0  0
   -2.2670   22.6668  -30.3551 H   0  0  0  0  0  0  0  0  0  0  0  0
   -2.7450   25.8430  -28.9750 H   0  0  0  0  0  0  0  0  0  0  0  0
   -6.5059   20.5107  -31.8537 H   0  0  0  0  0  0  0  0  0  0  0  0
   -2.7793   20.7438  -34.8455 H   0  0  0  0  0  0  0  0  0  0  0  0
   -0.4703   21.6960  -36.4911 H   0  0  0  0  0  0  0  0  0  0  0  0
   -0.3869   22.4722  -34.9224 H   0  0  0  0  0  0  0  0  0  0  0  0
    2.7505   26.2940  -34.8785 H   0  0  0  0  0  0  0  0  0  0  0  0
    1.3524   28.1560  -35.7504 H   0  0  0  0  0  0  0  0  0  0  0  0
  1  2  1  0
  2  3  1  0
  2  4  1  0
  2  5  1  0
  5  6  2  0
  6  7  1  0
  7  8  2  0
  8  9  1  0
  9 10  1  0
 10 11  2  0
 10 12  1  0
 12 13  1  0
 13 14  1  0
 14 15  2  0
 15 16  1  0
 16 17  2  0
 17 18  1  0
 18 19  2  0
 18 20  2  0
 18 21  1  0
 21 22  1  0
 22 23  2  0
 23 24  1  0
 24 25  2  0
 25 26  1  0
 26 27  1  0
 26 28  2  0
 26 29  2  0
 25 30  1  0
 30 31  1  0
 31 32  1  0
 31 33  1  0
 31 34  1  0
 30 35  2  0
 17 36  1  0
 36 37  2  0
 37 38  1  0
  8 39  1  0
 39 40  2  0
 40  5  1  0
 38 12  1  0
 37 14  1  0
 35 22  1  0
  1 41  1  0
  1 42  1  0
  1 43  1  0
  3 44  1  0
  3 45  1  0
  3 46  1  0
  4 47  1  0
  4 48  1  0
  4 49  1  0
  6 50  1  0
  7 51  1  0
 13 52  1  0
 13 53  1  0
 15 54  1  0
 16 55  1  0
 23 56  1  0
 24 57  1  0
 27 58  1  0
 35 59  1  0
 36 60  1  0
 38 61  1  0
 38 62  1  0
 39 63  1  0
 40 64  1  0
M  CHG  3   9  -1  21  -1  27  -1
M  END
>  <UniqueID>  (9) 
9

>  <SMILES>  (9) 
CC(C)(C)c1ccc([N-]C(=O)N2Cc3ccc(S(=O)(=O)[N-]c4ccc(S([NH-])(=O)=O)c(C(F)(F)F)c4)cc3C2)cc1

>  <Energy>  (9) 
94.25924970502808

>  <Genealogy>  (9) 
CC(C)(C)c1ccc([N-]C(=O)N2Cc3ccc(S(=O)(=O)[N-]c4ccc(S([NH-])(=O)=O)c(C(F)(F)F)c4)cc3C2)cc1 (protonated)
CC(C)(C)c1ccc([N-]C(=O)N2Cc3ccc(S(=O)(=O)[N-]c4ccc(S([NH-])(=O)=O)c(C(F)(F)F)c4)cc3C2)cc1 (3D coordinates assigned)
CC(C)(C)c1ccc([N-]C(=O)N2Cc3ccc(S(=O)(=O)[N-]c4ccc(S([NH-])(=O)=O)c(C(F)(F)F)c4)cc3C2)cc1 (nonaromatic ring conformer: 94.25924970502808 kcal/mol)

>  <smiles>  (9) 
CC(C)(C)c1ccc(NC(=O)N2Cc3ccc(S(=O)(=O)Nc4ccc(S(N)(=O)=O)c(C(F)(F)F)c4)cc3C2)cc1

>  <score_type>  (9) 
oracle

>  <origin>  (9) 
adgpu

>  <m_score__min__energy>  (9) 
-13.08

>  <m_primary>  (9) 
energy

$$$$
9:0
     RDKit          3D

 52 55  0  0  0  0  0  0  0  0999 V2000
   -0.7260   19.7310  -27.7520 C   0  0  0  0  0  0  0  0  0  0  0  0
   -1.6440   20.3660  -26.7910 N   0  0  0  0  0  0  0  0  0  0  0  0
   -0.9420   21.2120  -25.8070 C   0  0  0  0  0  0  0  0  0  0  0  0
   -0.2620   22.4270  -26.4550 C   0  0  0  0  0  0  0  0  0  0  0  0
   -1.1490   23.1070  -27.4630 C   0  0  0  0  0  0  0  0  0  0  0  0
   -0.7970   24.3770  -27.9380 C   0  0  0  0  0  0  0  0  0  0  0  0
   -1.5830   25.0200  -28.8980 C   0  0  0  0  0  0  0  0  0  0  0  0
   -1.2270   26.2920  -29.3360 O   0  0  0  0  0  0  0  0  0  0  0  0
   -2.7280   24.3950  -29.4090 C   0  0  0  0  0  0  0  0  0  0  0  0
   -3.5450   25.1060  -30.3500 N   0  0  0  0  0  0  0  0  0  0  0  0
   -5.2620   24.9290  -30.5170 S   0  0  0  0  0  0  0  0  0  0  0  0
   -5.8990   24.9960  -29.1570 O   0  0  0  0  0  0  0  0  0  0  0  0
   -5.7890   26.0520  -31.3660 O   0  0  0  0  0  0  0  0  0  0  0  0
   -5.6470   23.3750  -31.2500 C   0  0  0  0  0  0  0  0  0  0  0  0
   -4.6110   22.4970  -31.6360 C   0  0  0  0  0  0  0  0  0  0  0  0
   -4.9080   21.2280  -32.1550 C   0  0  0  0  0  0  0  0  0  0  0  0
   -6.2490   20.8530  -32.2830 C   0  0  0  0  0  0  0  0  0  0  0  0
   -7.2650   21.7170  -31.9230 C   0  0  0  0  0  0  0  0  0  0  0  0
   -6.9910   22.9850  -31.4080 C   0  0  0  0  0  0  0  0  0  0  0  0
   -8.5470   21.1340  -32.1070 N   0  0  0  0  0  0  0  0  0  0  0  0
   -9.7850   21.5710  -31.4700 C   0  0  0  0  0  0  0  0  0  0  0  0
   -8.2810   19.8090  -32.5650 C   0  0  0  0  0  0  0  0  0  0  0  0
   -9.1900   18.9600  -32.7750 O   0  0  0  0  0  0  0  0  0  0  0  0
   -6.8090   19.5330  -32.7450 C   0  0  0  0  0  0  0  0  0  0  0  0
   -6.4720   19.2690  -34.2180 C   0  0  0  0  0  0  0  0  0  0  0  0
   -6.3490   18.3840  -31.8370 C   0  0  0  0  0  0  0  0  0  0  0  0
   -3.0610   23.1030  -28.9650 C   0  0  0  0  0  0  0  0  0  0  0  0
   -2.2760   22.4540  -28.0010 C   0  0  0  0  0  0  0  0  0  0  0  0
   -2.7240   21.1110  -27.4690 C   0  0  0  0  0  0  0  0  0  0  0  0
    0.0590   19.1880  -27.2053 H   0  0  0  0  0  0  0  0  0  0  0  0
   -1.2867   19.0267  -28.3842 H   0  0  0  0  0  0  0  0  0  0  0  0
   -0.2648   20.5040  -28.3842 H   0  0  0  0  0  0  0  0  0  0  0  0
   -1.6714   21.5698  -25.0654 H   0  0  0  0  0  0  0  0  0  0  0  0
   -0.1570   20.5996  -25.3393 H   0  0  0  0  0  0  0  0  0  0  0  0
   -0.0030   23.1496  -25.6671 H   0  0  0  0  0  0  0  0  0  0  0  0
    0.6347   22.0696  -26.9823 H   0  0  0  0  0  0  0  0  0  0  0  0
    0.1060   24.8725  -27.5519 H   0  0  0  0  0  0  0  0  0  0  0  0
   -3.5621   22.8106  -31.5289 H   0  0  0  0  0  0  0  0  0  0  0  0
   -4.1023   20.5419  -32.4552 H   0  0  0  0  0  0  0  0  0  0  0  0
   -7.8089   23.6664  -31.1309 H   0  0  0  0  0  0  0  0  0  0  0  0
   -9.6692   21.5301  -30.3769 H   0  0  0  0  0  0  0  0  0  0  0  0
  -10.0106   22.6031  -31.7765 H   0  0  0  0  0  0  0  0  0  0  0  0
  -10.6085   20.9092  -31.7765 H   0  0  0  0  0  0  0  0  0  0  0  0
   -5.6075   18.5917  -34.2807 H   0  0  0  0  0  0  0  0  0  0  0  0
   -7.3373   18.8059  -34.7148 H   0  0  0  0  0  0  0  0  0  0  0  0
   -6.2296   20.2200  -34.7148 H   0  0  0  0  0  0  0  0  0  0  0  0
   -6.4671   18.6791  -30.7839 H   0  0  0  0  0  0  0  0  0  0  0  0
   -6.9589   17.4910  -32.0382 H   0  0  0  0  0  0  0  0  0  0  0  0
   -5.2913   18.1586  -32.0382 H   0  0  0  0  0  0  0  0  0  0  0  0
   -3.9458   22.5964  -29.3778 H   0  0  0  0  0  0  0  0  0  0  0  0
   -3.5410   21.2740  -26.7507 H   0  0  0  0  0  0  0  0  0  0  0  0
   -3.0468   20.5083  -28.3308 H   0  0  0  0  0  0  0  0  0  0  0  0
  1  2  1  0
  2  3  1  0
  3  4  1  0
  4  5  1  0
  5  6  2  0
  6  7  1  0
  7  8  1  0
  7  9  2  0
  9 10  1  0
 10 11  1  0
 11 12  2  0
 11 13  2  0
 11 14  1  0
 14 15  2  0
 15 16  1  0
 16 17  2  0
 17 18  1  0
 18 19  2  0
 18 20  1  0
 20 21  1  0
 20 22  1  0
 22 23  2  0
 22 24  1  0
 24 25  1  0
 24 26  1  0
  9 27  1  0
 27 28  2  0
 28 29  1  0
 29  2  1  0
 28  5  1  0
 19 14  1  0
 24 17  1  0
  1 30  1  0
  1 31  1  0
  1 32  1  0
  3 33  1  0
  3 34  1  0
  4 35  1  0
  4 36  1  0
  6 37  1  0
 15 38  1  0
 16 39  1  0
 19 40  1  0
 21 41  1  0
 21 42  1  0
 21 43  1  0
 25 44  1  0
 25 45  1  0
 25 46  1  0
 26 47  1  0
 26 48  1  0
 26 49  1  0
 27 50  1  0
 29 51  1  0
 29 52  1  0
M  CHG  2   8  -1  10  -1
M  END
>  <UniqueID>  (10) 
10

>  <SMILES>  (10) 
CN1CCc2cc([O-])c([N-]S(=O)(=O)c3ccc4c(c3)N(C)C(=O)C4(C)C)cc2C1

>  <Energy>  (10) 
77.98056347805073

>  <Genealogy>  (10) 
CN1CCc2cc([O-])c([N-]S(=O)(=O)c3ccc4c(c3)N(C)C(=O)C4(C)C)cc2C1 (protonated)
CN1CCc2cc([O-])c([N-]S(=O)(=O)c3ccc4c(c3)N(C)C(=O)C4(C)C)cc2C1 (3D coordinates assigned)
CN1CCc2cc([O-])c([N-]S(=O)(=O)c3ccc4c(c3)N(C)C(=O)C4(C)C)cc2C1 (nonaromatic ring conformer: 77.98056347805073 kcal/mol)

>  <smiles>  (10) 
CN1CCc2cc(O)c(NS(=O)(=O)c3ccc4c(c3)N(C)C(=O)C4(C)C)cc2C1

>  <score_type>  (10) 
oracle

>  <origin>  (10) 
adgpu

>  <m_score__min__energy>  (10) 
-15.619999999999999

>  <m_primary>  (10) 
energy

$$$$
10:0
     RDKit          3D

 52 55  0  0  0  0  0  0  0  0999 V2000
    1.7470   27.5600  -24.1310 C   0  0  0  0  0  0  0  0  0  0  0  0
    0.3440   27.9970  -24.0180 N   0  0  0  0  0  0  0  0  0  0  0  0
   -0.4590   27.1090  -23.1540 C   0  0  0  0  0  0  0  0  0  0  0  0
   -0.6060   25.6950  -23.7380 C   0  0  0  0  0  0  0  0  0  0  0  0
   -0.9050   25.7150  -25.2140 C   0  0  0  0  0  0  0  0  0  0  0  0
   -1.3260   24.5320  -25.8380 C   0  0  0  0  0  0  0  0  0  0  0  0
   -1.5970   24.5020  -27.2170 C   0  0  0  0  0  0  0  0  0  0  0  0
   -2.0820   23.3040  -27.8480 N   0  0  0  0  0  0  0  0  0  0  0  0
   -1.1930   22.4750  -29.0870 S   0  0  0  0  0  0  0  0  0  0  0  0
   -0.0630   23.3430  -29.5630 O   0  0  0  0  0  0  0  0  0  0  0  0
   -0.6180   21.2080  -28.5170 O   0  0  0  0  0  0  0  0  0  0  0  0
   -2.2620   22.1260  -30.4510 C   0  0  0  0  0  0  0  0  0  0  0  0
   -3.5760   22.6200  -30.4440 C   0  0  0  0  0  0  0  0  0  0  0  0
   -4.4220   22.4150  -31.5410 C   0  0  0  0  0  0  0  0  0  0  0  0
   -6.0570   23.0630  -31.5100 S   0  0  0  0  0  0  0  0  0  0  0  0
   -6.2100   24.1470  -32.5410 O   0  0  0  0  0  0  0  0  0  0  0  0
   -6.3350   23.6580  -30.1590 O   0  0  0  0  0  0  0  0  0  0  0  0
   -7.1940   21.7640  -31.8490 C   0  0  0  0  0  0  0  0  0  0  0  0
   -6.7270   20.5190  -32.2960 C   0  0  0  0  0  0  0  0  0  0  0  0
   -7.6300   19.4800  -32.5440 C   0  0  0  0  0  0  0  0  0  0  0  0
   -8.9990   19.6770  -32.3410 C   0  0  0  0  0  0  0  0  0  0  0  0
   -9.8720   18.6680  -32.5820 F   0  0  0  0  0  0  0  0  0  0  0  0
   -9.4670   20.9140  -31.8870 C   0  0  0  0  0  0  0  0  0  0  0  0
   -8.5680   21.9550  -31.6380 C   0  0  0  0  0  0  0  0  0  0  0  0
   -3.9610   21.6880  -32.6450 C   0  0  0  0  0  0  0  0  0  0  0  0
   -2.6570   21.1880  -32.6600 C   0  0  0  0  0  0  0  0  0  0  0  0
   -1.8010   21.4070  -31.5740 C   0  0  0  0  0  0  0  0  0  0  0  0
   -0.1610   20.7780  -31.6670 Cl  0  0  0  0  0  0  0  0  0  0  0  0
   -1.3910   25.6640  -27.9780 C   0  0  0  0  0  0  0  0  0  0  0  0
   -1.6450   25.6660  -29.3460 O   0  0  0  0  0  0  0  0  0  0  0  0
   -0.9440   26.8380  -27.3660 C   0  0  0  0  0  0  0  0  0  0  0  0
   -0.6890   26.8710  -25.9880 C   0  0  0  0  0  0  0  0  0  0  0  0
   -0.2870   28.1770  -25.3400 C   0  0  0  0  0  0  0  0  0  0  0  0
    2.1720   27.4276  -23.1251 H   0  0  0  0  0  0  0  0  0  0  0  0
    1.7910   26.6056  -24.6761 H   0  0  0  0  0  0  0  0  0  0  0  0
    2.3252   28.3206  -24.6761 H   0  0  0  0  0  0  0  0  0  0  0  0
    0.0304   27.0358  -22.1716 H   0  0  0  0  0  0  0  0  0  0  0  0
   -1.4663   27.5434  -23.0727 H   0  0  0  0  0  0  0  0  0  0  0  0
    0.3327   25.1453  -23.5745 H   0  0  0  0  0  0  0  0  0  0  0  0
   -1.4507   25.2069  -23.2299 H   0  0  0  0  0  0  0  0  0  0  0  0
   -1.4457   23.6159  -25.2409 H   0  0  0  0  0  0  0  0  0  0  0  0
   -2.9070   22.8060  -27.4450 H   0  0  0  0  0  0  0  0  0  0  0  0
   -3.9448   23.1737  -29.5680 H   0  0  0  0  0  0  0  0  0  0  0  0
   -5.6498   20.3597  -32.4516 H   0  0  0  0  0  0  0  0  0  0  0  0
   -7.2622   18.5061  -32.8994 H   0  0  0  0  0  0  0  0  0  0  0  0
  -10.5441   21.0681  -31.7256 H   0  0  0  0  0  0  0  0  0  0  0  0
   -8.9383   22.9255  -31.2761 H   0  0  0  0  0  0  0  0  0  0  0  0
   -4.6270   21.5102  -33.5022 H   0  0  0  0  0  0  0  0  0  0  0  0
   -2.3002   20.6184  -33.5308 H   0  0  0  0  0  0  0  0  0  0  0  0
   -0.7909   27.7440  -27.9707 H   0  0  0  0  0  0  0  0  0  0  0  0
    0.4261   28.6910  -26.0013 H   0  0  0  0  0  0  0  0  0  0  0  0
   -1.2047   28.7642  -25.1883 H   0  0  0  0  0  0  0  0  0  0  0  0
  1  2  1  0
  2  3  1  0
  3  4  1  0
  4  5  1  0
  5  6  2  0
  6  7  1  0
  7  8  1  0
  8  9  1  0
  9 10  2  0
  9 11  2  0
  9 12  1  0
 12 13  2  0
 13 14  1  0
 14 15  1  0
 15 16  2  0
 15 17  2  0
 15 18  1  0
 18 19  2  0
 19 20  1  0
 20 21  2  0
 21 22  1  0
 21 23  1  0
 23 24  2  0
 14 25  2  0
 25 26  1  0
 26 27  2  0
 27 28  1  0
  7 29  2  0
 29 30  1  0
 29 31  1  0
 31 32  2  0
 32 33  1  0
 33  2  1  0
 32  5  1  0
 27 12  1  0
 24 18  1  0
  1 34  1  0
  1 35  1  0
  1 36  1  0
  3 37  1  0
  3 38  1  0
  4 39  1  0
  4 40  1  0
  6 41  1  0
  8 42  1  0
 13 43  1  0
 19 44  1  0
 20 45  1  0
 23 46  1  0
 24 47  1  0
 25 48  1  0
 26 49  1  0
 31 50  1  0
 33 51  1  0
 33 52  1  0
M  CHG  1  30  -1
M  END
>  <UniqueID>  (11) 
11

>  <SMILES>  (11) 
CN1CCc2cc(NS(=O)(=O)c3cc(S(=O)(=O)c4ccc(F)cc4)ccc3Cl)c([O-])cc2C1

>  <Energy>  (11) 
66.42033780753309

>  <Genealogy>  (11) 
CN1CCc2cc(NS(=O)(=O)c3cc(S(=O)(=O)c4ccc(F)cc4)ccc3Cl)c([O-])cc2C1 (protonated)
CN1CCc2cc(NS(=O)(=O)c3cc(S(=O)(=O)c4ccc(F)cc4)ccc3Cl)c([O-])cc2C1 (3D coordinates assigned)
CN1CCc2cc(NS(=O)(=O)c3cc(S(=O)(=O)c4ccc(F)cc4)ccc3Cl)c([O-])cc2C1 (nonaromatic ring conformer: 66.42033780753309 kcal/mol)

>  <smiles>  (11) 
CN1CCc2cc(NS(=O)(=O)c3cc(S(=O)(=O)c4ccc(F)cc4)ccc3Cl)c(O)cc2C1

>  <score_type>  (11) 
oracle

>  <origin>  (11) 
adgpu

>  <m_score__min__energy>  (11) 
-13.49

>  <m_primary>  (11) 
energy

$$$$
11:0
     RDKit          3D

 39 41  0  0  0  0  0  0  0  0999 V2000
   -2.3640   19.7880  -26.7480 C   0  0  0  0  0  0  0  0  0  0  0  0
   -1.5640   20.1020  -28.0170 C   0  0  0  0  0  0  0  0  0  0  0  0
   -0.1010   19.6640  -27.8730 C   0  0  0  0  0  0  0  0  0  0  0  0
   -1.6610   21.5740  -28.3740 C   0  0  0  0  0  0  0  0  0  0  0  0
   -0.5100   22.3270  -28.6670 C   0  0  0  0  0  0  0  0  0  0  0  0
   -0.6160   23.6810  -28.9910 C   0  0  0  0  0  0  0  0  0  0  0  0
   -1.8660   24.3030  -29.0190 C   0  0  0  0  0  0  0  0  0  0  0  0
   -1.9520   25.6540  -29.3390 O   0  0  0  0  0  0  0  0  0  0  0  0
   -3.0250   23.5740  -28.7220 C   0  0  0  0  0  0  0  0  0  0  0  0
   -4.2920   24.2490  -28.7400 N   0  0  0  0  0  0  0  0  0  0  0  0
   -5.1430   24.7340  -30.1710 S   0  0  0  0  0  0  0  0  0  0  0  0
   -4.2780   25.6680  -30.9690 O   0  0  0  0  0  0  0  0  0  0  0  0
   -6.4020   25.4540  -29.7770 O   0  0  0  0  0  0  0  0  0  0  0  0
   -5.5720   23.3100  -31.1130 C   0  0  0  0  0  0  0  0  0  0  0  0
   -4.5740   22.6490  -31.8660 C   0  0  0  0  0  0  0  0  0  0  0  0
   -4.8950   21.5340  -32.6590 C   0  0  0  0  0  0  0  0  0  0  0  0
   -6.2210   21.1060  -32.6780 C   0  0  0  0  0  0  0  0  0  0  0  0
   -7.1960   21.7460  -31.9450 C   0  0  0  0  0  0  0  0  0  0  0  0
   -6.9060   22.8510  -31.1490 C   0  0  0  0  0  0  0  0  0  0  0  0
   -8.4580   21.0580  -32.1990 C   0  0  0  0  0  0  0  0  0  0  0  0
   -9.5750   21.3640  -31.7060 O   0  0  0  0  0  0  0  0  0  0  0  0
   -8.2550   19.9740  -33.1040 N   0  0  0  0  0  0  0  0  0  0  0  0
   -6.8590   20.0100  -33.3980 C   0  0  0  0  0  0  0  0  0  0  0  0
   -6.2820   19.2030  -34.1720 O   0  0  0  0  0  0  0  0  0  0  0  0
   -2.9160   22.2050  -28.4100 C   0  0  0  0  0  0  0  0  0  0  0  0
   -1.7561   20.0266  -25.8629 H   0  0  0  0  0  0  0  0  0  0  0  0
   -3.2832   20.3921  -26.7352 H   0  0  0  0  0  0  0  0  0  0  0  0
   -2.6269   18.7200  -26.7352 H   0  0  0  0  0  0  0  0  0  0  0  0
   -2.0064   19.5255  -28.8428 H   0  0  0  0  0  0  0  0  0  0  0  0
    0.1554   19.5872  -26.8061 H   0  0  0  0  0  0  0  0  0  0  0  0
    0.0378   18.6849  -28.3548 H   0  0  0  0  0  0  0  0  0  0  0  0
    0.5529   20.4058  -28.3548 H   0  0  0  0  0  0  0  0  0  0  0  0
    0.4792   21.8467  -28.6408 H   0  0  0  0  0  0  0  0  0  0  0  0
    0.2892   24.2604  -29.2253 H   0  0  0  0  0  0  0  0  0  0  0  0
   -3.5360   23.0112  -31.8307 H   0  0  0  0  0  0  0  0  0  0  0  0
   -4.1233   21.0151  -33.2466 H   0  0  0  0  0  0  0  0  0  0  0  0
   -7.6931   23.3512  -30.5657 H   0  0  0  0  0  0  0  0  0  0  0  0
   -8.9700   19.3080  -33.4730 H   0  0  0  0  0  0  0  0  0  0  0  0
   -3.8236   21.6231  -28.1920 H   0  0  0  0  0  0  0  0  0  0  0  0
  1  2  1  0
  2  3  1  0
  2  4  1  0
  4  5  2  0
  5  6  1  0
  6  7  2  0
  7  8  1  0
  7  9  1  0
  9 10  1  0
 10 11  1  0
 11 12  2  0
 11 13  2  0
 11 14  1  0
 14 15  2  0
 15 16  1  0
 16 17  2  0
 17 18  1  0
 18 19  2  0
 18 20  1  0
 20 21  2  0
 20 22  1  0
 22 23  1  0
 23 24  2  0
  9 25  2  0
 25  4  1  0
 19 14  1  0
 23 17  1  0
  1 26  1  0
  1 27  1  0
  1 28  1  0
  2 29  1  0
  3 30  1  0
  3 31  1  0
  3 32  1  0
  5 33  1  0
  6 34  1  0
 15 35  1  0
 16 36  1  0
 19 37  1  0
 22 38  1  0
 25 39  1  0
M  CHG  2   8  -1  10  -1
M  END
>  <UniqueID>  (12) 
12

>  <SMILES>  (12) 
CC(C)c1ccc([O-])c([N-]S(=O)(=O)c2ccc3c(c2)C(=O)NC3=O)c1

>  <Energy>  (12) 
72.12218964742463

>  <Genealogy>  (12) 
CC(C)c1ccc([O-])c([N-]S(=O)(=O)c2ccc3c(c2)C(=O)NC3=O)c1 (protonated)
CC(C)c1ccc([O-])c([N-]S(=O)(=O)c2ccc3c(c2)C(=O)NC3=O)c1 (3D coordinates assigned)
CC(C)c1ccc([O-])c([N-]S(=O)(=O)c2ccc3c(c2)C(=O)NC3=O)c1 (nonaromatic ring conformer: 72.12218964742463 kcal/mol)

>  <smiles>  (12) 
CC(C)c1ccc(O)c(NS(=O)(=O)c2ccc3c(c2)C(=O)NC3=O)c1

>  <score_type>  (12) 
oracle

>  <origin>  (12) 
adgpu

>  <m_score__min__energy>  (12) 
-14.31

>  <m_primary>  (12) 
energy

$$$$
12:0
     RDKit          3D

 40 41  0  0  0  0  0  0  0  0999 V2000
   -2.9390   21.7470  -27.6800 C   0  0  0  0  0  0  0  0  0  0  0  0
   -2.3230   22.6230  -28.6870 N   0  0  0  0  0  0  0  0  0  0  0  0
   -0.8550   22.4490  -28.6800 C   0  0  0  0  0  0  0  0  0  0  0  0
   -0.1310   23.7940  -28.7720 C   0  0  0  0  0  0  0  0  0  0  0  0
   -0.9940   24.7700  -29.2850 O   0  0  0  0  0  0  0  0  0  0  0  0
   -3.0120   22.2660  -30.2600 S   0  0  0  0  0  0  0  0  0  0  0  0
   -3.2180   20.7840  -30.4070 O   0  0  0  0  0  0  0  0  0  0  0  0
   -2.0460   22.6890  -31.3320 O   0  0  0  0  0  0  0  0  0  0  0  0
   -4.5420   23.1200  -30.5150 C   0  0  0  0  0  0  0  0  0  0  0  0
   -5.7090   22.3740  -30.7330 C   0  0  0  0  0  0  0  0  0  0  0  0
   -6.9300   23.0140  -30.9760 C   0  0  0  0  0  0  0  0  0  0  0  0
   -8.3590   22.0480  -31.3210 S   0  0  0  0  0  0  0  0  0  0  0  0
   -9.2440   22.7560  -32.3100 O   0  0  0  0  0  0  0  0  0  0  0  0
   -9.1430   21.8330  -30.0570 O   0  0  0  0  0  0  0  0  0  0  0  0
   -7.8440   20.5020  -31.9840 C   0  0  0  0  0  0  0  0  0  0  0  0
   -6.8590   20.4580  -32.9820 C   0  0  0  0  0  0  0  0  0  0  0  0
   -6.4730   19.2330  -33.5350 C   0  0  0  0  0  0  0  0  0  0  0  0
   -7.0710   18.0470  -33.0970 C   0  0  0  0  0  0  0  0  0  0  0  0
   -8.0580   18.0870  -32.1070 C   0  0  0  0  0  0  0  0  0  0  0  0
   -8.4470   19.3100  -31.5540 C   0  0  0  0  0  0  0  0  0  0  0  0
   -6.9880   24.4130  -30.9920 C   0  0  0  0  0  0  0  0  0  0  0  0
   -5.8330   25.1640  -30.7640 C   0  0  0  0  0  0  0  0  0  0  0  0
   -4.6110   24.5270  -30.5300 C   0  0  0  0  0  0  0  0  0  0  0  0
   -3.4730   25.3000  -30.3260 O   0  0  0  0  0  0  0  0  0  0  0  0
   -2.6840   22.1096  -26.6733 H   0  0  0  0  0  0  0  0  0  0  0  0
   -4.0317   21.7545  -27.8066 H   0  0  0  0  0  0  0  0  0  0  0  0
   -2.5623   20.7213  -27.8066 H   0  0  0  0  0  0  0  0  0  0  0  0
   -0.5589   21.9466  -27.7473 H   0  0  0  0  0  0  0  0  0  0  0  0
   -0.5746   21.8452  -29.5557 H   0  0  0  0  0  0  0  0  0  0  0  0
    0.2048   24.0960  -27.7690 H   0  0  0  0  0  0  0  0  0  0  0  0
    0.7358   23.6916  -29.4414 H   0  0  0  0  0  0  0  0  0  0  0  0
   -1.6210   24.2930  -29.8880 H   0  0  0  0  0  0  0  0  0  0  0  0
   -5.6646   21.2751  -30.7129 H   0  0  0  0  0  0  0  0  0  0  0  0
   -6.3891   21.3896  -33.3304 H   0  0  0  0  0  0  0  0  0  0  0  0
   -5.6983   19.2021  -34.3153 H   0  0  0  0  0  0  0  0  0  0  0  0
   -6.7653   17.0835  -33.5308 H   0  0  0  0  0  0  0  0  0  0  0  0
   -8.5289   17.1543  -31.7631 H   0  0  0  0  0  0  0  0  0  0  0  0
   -9.2278   19.3384  -30.7797 H   0  0  0  0  0  0  0  0  0  0  0  0
   -7.9445   24.9210  -31.1844 H   0  0  0  0  0  0  0  0  0  0  0  0
   -5.8851   26.2628  -30.7686 H   0  0  0  0  0  0  0  0  0  0  0  0
  1  2  1  0
  2  3  1  0
  3  4  1  0
  4  5  1  0
  2  6  1  0
  6  7  2  0
  6  8  2  0
  6  9  1  0
  9 10  2  0
 10 11  1  0
 11 12  1  0
 12 13  2  0
 12 14  2  0
 12 15  1  0
 15 16  2  0
 16 17  1  0
 17 18  2  0
 18 19  1  0
 19 20  2  0
 11 21  2  0
 21 22  1  0
 22 23  2  0
 23 24  1  0
 23  9  1  0
 20 15  1  0
  1 25  1  0
  1 26  1  0
  1 27  1  0
  3 28  1  0
  3 29  1  0
  4 30  1  0
  4 31  1  0
  5 32  1  0
 10 33  1  0
 16 34  1  0
 17 35  1  0
 18 36  1  0
 19 37  1  0
 20 38  1  0
 21 39  1  0
 22 40  1  0
M  CHG  1  24  -1
M  END
>  <UniqueID>  (13) 
13

>  <SMILES>  (13) 
CN(CCO)S(=O)(=O)c1cc(S(=O)(=O)c2ccccc2)ccc1[O-]

>  <Energy>  (13) 
40.412486654210035

>  <Genealogy>  (13) 
CN(CCO)S(=O)(=O)c1cc(S(=O)(=O)c2ccccc2)ccc1[O-] (protonated)
CN(CCO)S(=O)(=O)c1cc(S(=O)(=O)c2ccccc2)ccc1[O-] (3D coordinates assigned)
CN(CCO)S(=O)(=O)c1cc(S(=O)(=O)c2ccccc2)ccc1[O-] (optimized conformer: 40.412486654210035 kcal/mol)

>  <smiles>  (13) 
CN(CCO)S(=O)(=O)c1cc(S(=O)(=O)c2ccccc2)ccc1O

>  <score_type>  (13) 
oracle

>  <origin>  (13) 
adgpu

>  <m_score__min__energy>  (13) 
-11.949999999999999

>  <m_primary>  (13) 
energy

$$$$
13:0
     RDKit          3D

 45 47  0  0  0  0  0  0  0  0999 V2000
   -3.6690   14.6710  -34.3490 C   0  0  0  0  0  0  0  0  0  0  0  0
   -4.3210   15.9290  -34.7450 N   0  0  0  0  0  0  0  0  0  0  0  0
   -3.4570   17.0860  -34.4130 C   0  0  0  0  0  0  0  0  0  0  0  0
   -4.2500   18.3910  -34.3080 C   0  0  0  0  0  0  0  0  0  0  0  0
   -5.2910   18.2600  -33.2810 N   0  0  0  0  0  0  0  0  0  0  0  0
   -5.7850   19.4390  -32.6110 C   0  0  0  0  0  0  0  0  0  0  0  0
   -7.1500   19.7660  -32.6150 C   0  0  0  0  0  0  0  0  0  0  0  0
   -7.5840   20.9190  -31.9560 C   0  0  0  0  0  0  0  0  0  0  0  0
   -8.9810   21.2720  -31.9640 C   0  0  0  0  0  0  0  0  0  0  0  0
  -10.1030   21.5550  -31.9700 N   0  0  0  0  0  0  0  0  0  0  0  0
   -6.6620   21.7320  -31.2920 C   0  0  0  0  0  0  0  0  0  0  0  0
   -5.3020   21.3730  -31.2840 C   0  0  0  0  0  0  0  0  0  0  0  0
   -4.2800   22.1970  -30.5910 C   0  0  0  0  0  0  0  0  0  0  0  0
   -4.6770   23.3290  -29.8540 C   0  0  0  0  0  0  0  0  0  0  0  0
   -3.7300   24.1210  -29.2010 C   0  0  0  0  0  0  0  0  0  0  0  0
   -2.3680   23.8060  -29.2830 C   0  0  0  0  0  0  0  0  0  0  0  0
   -1.1770   24.7950  -28.4460 S   0  0  0  0  0  0  0  0  0  0  0  0
   -1.5230   24.7860  -26.7020 C   0  0  0  0  0  0  0  0  0  0  0  0
    0.2020   24.2470  -28.6890 O   0  0  0  0  0  0  0  0  0  0  0  0
   -1.2330   26.2060  -28.9630 O   0  0  0  0  0  0  0  0  0  0  0  0
   -1.9630   22.6850  -30.0170 C   0  0  0  0  0  0  0  0  0  0  0  0
   -2.9080   21.8900  -30.6710 C   0  0  0  0  0  0  0  0  0  0  0  0
   -4.9130   20.2480  -31.9470 N   0  0  0  0  0  0  0  0  0  0  0  0
   -5.8320   16.9270  -32.9840 C   0  0  0  0  0  0  0  0  0  0  0  0
   -5.7050   16.0120  -34.2110 C   0  0  0  0  0  0  0  0  0  0  0  0
   -3.6350   14.6053  -33.2515 H   0  0  0  0  0  0  0  0  0  0  0  0
   -4.2397   13.8203  -34.7497 H   0  0  0  0  0  0  0  0  0  0  0  0
   -2.6449   14.6468  -34.7497 H   0  0  0  0  0  0  0  0  0  0  0  0
   -2.9629   16.8936  -33.4492 H   0  0  0  0  0  0  0  0  0  0  0  0
   -2.7231   17.2021  -35.2242 H   0  0  0  0  0  0  0  0  0  0  0  0
   -3.5693   19.2109  -34.0352 H   0  0  0  0  0  0  0  0  0  0  0  0
   -4.7221   18.6078  -35.2776 H   0  0  0  0  0  0  0  0  0  0  0  0
   -7.8730   19.1190  -33.1334 H   0  0  0  0  0  0  0  0  0  0  0  0
   -6.9970   22.6458  -30.7794 H   0  0  0  0  0  0  0  0  0  0  0  0
   -5.7433   23.5921  -29.7919 H   0  0  0  0  0  0  0  0  0  0  0  0
   -4.0555   24.9962  -28.6196 H   0  0  0  0  0  0  0  0  0  0  0  0
   -0.5774   24.8106  -26.1405 H   0  0  0  0  0  0  0  0  0  0  0  0
   -2.1262   25.6688  -26.4433 H   0  0  0  0  0  0  0  0  0  0  0  0
   -2.0795   23.8731  -26.4433 H   0  0  0  0  0  0  0  0  0  0  0  0
   -0.8951   22.4285  -30.0793 H   0  0  0  0  0  0  0  0  0  0  0  0
   -2.5774   21.0172  -31.2531 H   0  0  0  0  0  0  0  0  0  0  0  0
   -5.2728   16.4876  -32.1448 H   0  0  0  0  0  0  0  0  0  0  0  0
   -6.8954   17.0242  -32.7200 H   0  0  0  0  0  0  0  0  0  0  0  0
   -6.0302   15.0004  -33.9266 H   0  0  0  0  0  0  0  0  0  0  0  0
   -6.3335   16.4434  -35.0040 H   0  0  0  0  0  0  0  0  0  0  0  0
  1  2  1  0
  2  3  1  0
  3  4  1  0
  4  5  1  0
  5  6  1  0
  6  7  2  0
  7  8  1  0
  8  9  1  0
  9 10  3  0
  8 11  2  0
 11 12  1  0
 12 13  1  0
 13 14  2  0
 14 15  1  0
 15 16  2  0
 16 17  1  0
 17 18  1  0
 17 19  2  0
 17 20  2  0
 16 21  1  0
 21 22  2  0
 12 23  2  0
  5 24  1  0
 24 25  1  0
 25  2  1  0
 23  6  1  0
 22 13  1  0
  1 26  1  0
  1 27  1  0
  1 28  1  0
  3 29  1  0
  3 30  1  0
  4 31  1  0
  4 32  1  0
  7 33  1  0
 11 34  1  0
 14 35  1  0
 15 36  1  0
 18 37  1  0
 18 38  1  0
 18 39  1  0
 21 40  1  0
 22 41  1  0
 24 42  1  0
 24 43  1  0
 25 44  1  0
 25 45  1  0
M  END
>  <UniqueID>  (14) 
14

>  <SMILES>  (14) 
CN1CCN(c2cc(C#N)cc(-c3ccc(S(C)(=O)=O)cc3)n2)CC1

>  <Energy>  (14) 
55.23972240594339

>  <Genealogy>  (14) 
CN1CCN(c2cc(C#N)cc(-c3ccc(S(C)(=O)=O)cc3)n2)CC1 (3D coordinates assigned)
CN1CCN(c2cc(C#N)cc(-c3ccc(S(C)(=O)=O)cc3)n2)CC1 (nonaromatic ring conformer: 55.23972240594339 kcal/mol)

>  <smiles>  (14) 
CN1CCN(c2cc(C#N)cc(-c3ccc(S(C)(=O)=O)cc3)n2)CC1

>  <score_type>  (14) 
oracle

>  <origin>  (14) 
adgpu

>  <m_score__min__energy>  (14) 
-8.5099999999999998

>  <m_primary>  (14) 
energy

$$$$
14:0
     RDKit          3D

 65 68  0  0  0  0  0  0  0  0999 V2000
   -4.7730   15.2740  -34.1890 C   0  0  0  0  0  0  0  0  0  0  0  0
   -5.8550   15.9440  -33.4500 N   0  0  0  0  0  0  0  0  0  0  0  0
   -6.4740   17.0250  -34.2570 C   0  0  0  0  0  0  0  0  0  0  0  0
   -5.9470   18.4180  -33.8720 C   0  0  0  0  0  0  0  0  0  0  0  0
   -6.1470   18.7260  -32.4350 N   0  0  0  0  0  0  0  0  0  0  0  0
   -7.5350   19.7630  -32.1850 S   0  0  0  0  0  0  0  0  0  0  0  0
   -8.4100   19.1740  -31.1110 O   0  0  0  0  0  0  0  0  0  0  0  0
   -8.3500   19.8420  -33.4460 O   0  0  0  0  0  0  0  0  0  0  0  0
   -6.9840   21.3700  -31.6500 C   0  0  0  0  0  0  0  0  0  0  0  0
   -7.8500   22.4890  -31.5860 C   0  0  0  0  0  0  0  0  0  0  0  0
   -9.5680   22.4060  -31.9610 Cl  0  0  0  0  0  0  0  0  0  0  0  0
   -7.3460   23.7390  -31.2090 C   0  0  0  0  0  0  0  0  0  0  0  0
   -5.9970   23.8990  -30.9060 C   0  0  0  0  0  0  0  0  0  0  0  0
   -5.1240   22.8060  -30.9700 C   0  0  0  0  0  0  0  0  0  0  0  0
   -3.7370   22.9460  -30.6300 N   0  0  0  0  0  0  0  0  0  0  0  0
   -3.1070   24.1770  -30.2570 C   0  0  0  0  0  0  0  0  0  0  0  0
   -3.6990   25.2780  -30.4340 O   0  0  0  0  0  0  0  0  0  0  0  0
   -1.7950   24.1470  -29.6910 N   0  0  0  0  0  0  0  0  0  0  0  0
   -1.4880   24.4740  -28.3280 C   0  0  0  0  0  0  0  0  0  0  0  0
   -1.4960   23.4780  -27.3390 C   0  0  0  0  0  0  0  0  0  0  0  0
   -1.2500   23.8060  -26.0050 C   0  0  0  0  0  0  0  0  0  0  0  0
   -0.9850   25.1250  -25.6450 C   0  0  0  0  0  0  0  0  0  0  0  0
   -0.9750   26.1360  -26.6160 C   0  0  0  0  0  0  0  0  0  0  0  0
   -0.5170   27.7770  -26.1400 S   0  0  0  0  0  0  0  0  0  0  0  0
   -0.3830   28.6340  -27.3700 O   0  0  0  0  0  0  0  0  0  0  0  0
   -1.6070   28.3370  -25.2680 O   0  0  0  0  0  0  0  0  0  0  0  0
    0.9980   27.7820  -25.2680 N   0  0  0  0  0  0  0  0  0  0  0  0
    0.7390   27.7230  -23.8200 C   0  0  0  0  0  0  0  0  0  0  0  0
    2.0440   27.9160  -23.0240 C   0  0  0  0  0  0  0  0  0  0  0  0
    3.2950   27.5980  -23.8600 C   0  0  0  0  0  0  0  0  0  0  0  0
    3.0440   26.4030  -24.7860 C   0  0  0  0  0  0  0  0  0  0  0  0
    1.8220   26.6330  -25.7020 C   0  0  0  0  0  0  0  0  0  0  0  0
   -1.2330   25.8120  -27.9650 C   0  0  0  0  0  0  0  0  0  0  0  0
   -1.2270   26.8180  -28.9320 O   0  0  0  0  0  0  0  0  0  0  0  0
   -5.6190   21.5440  -31.3360 C   0  0  0  0  0  0  0  0  0  0  0  0
   -4.7390   20.4680  -31.4030 O   0  0  0  0  0  0  0  0  0  0  0  0
   -6.2490   17.5280  -31.5750 C   0  0  0  0  0  0  0  0  0  0  0  0
   -5.3810   16.3880  -32.1180 C   0  0  0  0  0  0  0  0  0  0  0  0
   -4.0606   14.8329  -33.4763 H   0  0  0  0  0  0  0  0  0  0  0  0
   -5.1976   14.4806  -34.8216 H   0  0  0  0  0  0  0  0  0  0  0  0
   -4.2520   16.0078  -34.8216 H   0  0  0  0  0  0  0  0  0  0  0  0
   -6.2522   16.8443  -35.3192 H   0  0  0  0  0  0  0  0  0  0  0  0
   -7.5568   17.0104  -34.0637 H   0  0  0  0  0  0  0  0  0  0  0  0
   -4.8708   18.4617  -34.0953 H   0  0  0  0  0  0  0  0  0  0  0  0
   -6.5124   19.1608  -34.4539 H   0  0  0  0  0  0  0  0  0  0  0  0
   -8.0231   24.6040  -31.1516 H   0  0  0  0  0  0  0  0  0  0  0  0
   -5.6149   24.8886  -30.6149 H   0  0  0  0  0  0  0  0  0  0  0  0
   -1.6973   22.4329  -27.6170 H   0  0  0  0  0  0  0  0  0  0  0  0
   -1.2655   23.0202  -25.2354 H   0  0  0  0  0  0  0  0  0  0  0  0
   -0.7825   25.3748  -24.5931 H   0  0  0  0  0  0  0  0  0  0  0  0
    0.0292   28.5180  -23.5476 H   0  0  0  0  0  0  0  0  0  0  0  0
    0.3192   26.7359  -23.5762 H   0  0  0  0  0  0  0  0  0  0  0  0
    2.1008   28.9617  -22.6875 H   0  0  0  0  0  0  0  0  0  0  0  0
    2.0236   27.2186  -22.1736 H   0  0  0  0  0  0  0  0  0  0  0  0
    3.5547   28.4769  -24.4684 H   0  0  0  0  0  0  0  0  0  0  0  0
    4.1198   27.3465  -23.1770 H   0  0  0  0  0  0  0  0  0  0  0  0
    3.9341   26.2454  -25.4129 H   0  0  0  0  0  0  0  0  0  0  0  0
    2.8402   25.5222  -24.1594 H   0  0  0  0  0  0  0  0  0  0  0  0
    2.1786   26.8210  -26.7255 H   0  0  0  0  0  0  0  0  0  0  0  0
    1.1925   25.7323  -25.6525 H   0  0  0  0  0  0  0  0  0  0  0  0
   -0.9300   27.7670  -28.7330 H   0  0  0  0  0  0  0  0  0  0  0  0
   -5.9126   17.7842  -30.5595 H   0  0  0  0  0  0  0  0  0  0  0  0
   -7.2972   17.1947  -31.5605 H   0  0  0  0  0  0  0  0  0  0  0  0
   -4.3417   16.7379  -32.2048 H   0  0  0  0  0  0  0  0  0  0  0  0
   -5.4462   15.5379  -31.4229 H   0  0  0  0  0  0  0  0  0  0  0  0
  1  2  1  0
  2  3  1  0
  3  4  1  0
  4  5  1  0
  5  6  1  0
  6  7  2  0
  6  8  2  0
  6  9  1  0
  9 10  2  0
 10 11  1  0
 10 12  1  0
 12 13  2  0
 13 14  1  0
 14 15  1  0
 15 16  1  0
 16 17  2  0
 16 18  1  0
 18 19  1  0
 19 20  2  0
 20 21  1  0
 21 22  2  0
 22 23  1  0
 23 24  1  0
 24 25  2  0
 24 26  2  0
 24 27  1  0
 27 28  1  0
 28 29  1  0
 29 30  1  0
 30 31  1  0
 31 32  1  0
 23 33  2  0
 33 34  1  0
 14 35  2  0
 35 36  1  0
  5 37  1  0
 37 38  1  0
 38  2  1  0
 35  9  1  0
 33 19  1  0
 32 27  1  0
  1 39  1  0
  1 40  1  0
  1 41  1  0
  3 42  1  0
  3 43  1  0
  4 44  1  0
  4 45  1  0
 12 46  1  0
 13 47  1  0
 20 48  1  0
 21 49  1  0
 22 50  1  0
 28 51  1  0
 28 52  1  0
 29 53  1  0
 29 54  1  0
 30 55  1  0
 30 56  1  0
 31 57  1  0
 31 58  1  0
 32 59  1  0
 32 60  1  0
 34 61  1  0
 37 62  1  0
 37 63  1  0
 38 64  1  0
 38 65  1  0
M  CHG  3  15  -1  18  -1  36  -1
M  END
>  <UniqueID>  (15) 
15

>  <SMILES>  (15) 
CN1CCN(S(=O)(=O)c2c(Cl)ccc([N-]C(=O)[N-]c3cccc(S(=O)(=O)N4CCCCC4)c3O)c2[O-])CC1

>  <Energy>  (15) 
94.5285349917864

>  <Genealogy>  (15) 
CN1CCN(S(=O)(=O)c2c(Cl)ccc([N-]C(=O)[N-]c3cccc(S(=O)(=O)N4CCCCC4)c3O)c2[O-])CC1 (protonated)
CN1CCN(S(=O)(=O)c2c(Cl)ccc([N-]C(=O)[N-]c3cccc(S(=O)(=O)N4CCCCC4)c3O)c2[O-])CC1 (3D coordinates assigned)
CN1CCN(S(=O)(=O)c2c(Cl)ccc([N-]C(=O)[N-]c3cccc(S(=O)(=O)N4CCCCC4)c3O)c2[O-])CC1 (nonaromatic ring conformer: 94.5285349917864 kcal/mol)

>  <smiles>  (15) 
CN1CCN(S(=O)(=O)c2c(Cl)ccc(NC(=O)Nc3cccc(S(=O)(=O)N4CCCCC4)c3O)c2O)CC1

>  <score_type>  (15) 
oracle

>  <origin>  (15) 
adgpu

>  <m_score__min__energy>  (15) 
-16.75

>  <m_primary>  (15) 
energy

$$$$
15:0
     RDKit          3D

 36 37  0  0  0  0  0  0  0  0999 V2000
   -6.4980   18.8460  -35.2140 H   0  0  0  0  0  0  0  0  0  0  0  0
   -6.4290   19.6180  -34.5620 O   0  0  0  0  0  0  0  0  0  0  0  0
   -5.2980   19.8210  -33.7730 C   0  0  0  0  0  0  0  0  0  0  0  0
   -5.2770   20.8920  -32.8750 C   0  0  0  0  0  0  0  0  0  0  0  0
   -6.1481   21.5593  -32.7986 H   0  0  0  0  0  0  0  0  0  0  0  0
   -4.1550   21.1190  -32.0740 C   0  0  0  0  0  0  0  0  0  0  0  0
   -4.1534   21.9604  -31.3655 H   0  0  0  0  0  0  0  0  0  0  0  0
   -3.0290   20.2840  -32.1640 C   0  0  0  0  0  0  0  0  0  0  0  0
   -1.8680   20.5690  -31.2860 C   0  0  0  0  0  0  0  0  0  0  0  0
   -1.1779   21.3707  -31.5878 H   0  0  0  0  0  0  0  0  0  0  0  0
   -1.6070   19.9110  -30.1480 C   0  0  0  0  0  0  0  0  0  0  0  0
   -2.2861   19.1057  -29.8314 H   0  0  0  0  0  0  0  0  0  0  0  0
   -0.4400   20.2310  -29.3070 C   0  0  0  0  0  0  0  0  0  0  0  0
    0.6390   20.5460  -29.8720 O   0  0  0  0  0  0  0  0  0  0  0  0
   -0.5000   20.2600  -27.8740 N   0  0  0  0  0  0  0  0  0  0  0  0
   -1.2290   21.2440  -27.0790 C   0  0  0  0  0  0  0  0  0  0  0  0
   -1.1390   20.9891  -26.0127 H   0  0  0  0  0  0  0  0  0  0  0  0
   -0.8036   22.2417  -27.2624 H   0  0  0  0  0  0  0  0  0  0  0  0
   -2.7060   21.2490  -27.4750 C   0  0  0  0  0  0  0  0  0  0  0  0
   -2.9324   20.3237  -28.0251 H   0  0  0  0  0  0  0  0  0  0  0  0
   -3.3105   21.3153  -26.5584 H   0  0  0  0  0  0  0  0  0  0  0  0
   -3.0360   22.4320  -28.3480 C   0  0  0  0  0  0  0  0  0  0  0  0
   -4.2060   22.4350  -29.1240 C   0  0  0  0  0  0  0  0  0  0  0  0
   -4.8978   21.5812  -29.0747 H   0  0  0  0  0  0  0  0  0  0  0  0
   -4.4960   23.5180  -29.9590 C   0  0  0  0  0  0  0  0  0  0  0  0
   -5.4173   23.5163  -30.5600 H   0  0  0  0  0  0  0  0  0  0  0  0
   -3.6170   24.6040  -30.0320 C   0  0  0  0  0  0  0  0  0  0  0  0
   -3.9110   25.6770  -30.8640 O   0  0  0  0  0  0  0  0  0  0  0  0
   -2.4420   24.6040  -29.2690 C   0  0  0  0  0  0  0  0  0  0  0  0
   -1.5620   25.6770  -29.3420 O   0  0  0  0  0  0  0  0  0  0  0  0
   -2.1510   23.5210  -28.4330 C   0  0  0  0  0  0  0  0  0  0  0  0
   -1.2251   23.5214  -27.8391 H   0  0  0  0  0  0  0  0  0  0  0  0
   -3.0600   19.1970  -33.0630 C   0  0  0  0  0  0  0  0  0  0  0  0
   -2.1934   18.5234  -33.1357 H   0  0  0  0  0  0  0  0  0  0  0  0
   -4.1860   18.9700  -33.8630 C   0  0  0  0  0  0  0  0  0  0  0  0
   -4.1920   17.8930  -34.7430 O   0  0  0  0  0  0  0  0  0  0  0  0
  1  2  1  0
  2  3  1  0
  3  4  2  0
  4  5  1  0
  4  6  1  0
  6  7  1  0
  6  8  2  0
  8  9  1  0
  9 10  1  0
  9 11  2  0
 11 12  1  0
 11 13  1  0
 13 14  2  0
 13 15  1  0
 15 16  1  0
 16 17  1  0
 16 18  1  0
 16 19  1  0
 19 20  1  0
 19 21  1  0
 19 22  1  0
 22 23  2  0
 23 24  1  0
 23 25  1  0
 25 26  1  0
 25 27  2  0
 27 28  1  0
 27 29  1  0
 29 30  1  0
 29 31  2  0
 31 32  1  0
  8 33  1  0
 33 34  1  0
 33 35  2  0
 35 36  1  0
 35  3  1  0
 31 22  1  0
M  CHG  4  15  -1  28  -1  30  -1  36  -1
M  END
>  <UniqueID>  (16) 
16

>  <SMILES>  (16) 
O=C(/C=C/c1ccc(O)c([O-])c1)[N-]CCc1ccc([O-])c([O-])c1

>  <Energy>  (16) 
39.70661031505334

>  <Genealogy>  (16) 
O=C(C=Cc1ccc(O)c([O-])c1)[N-]CCc1ccc([O-])c([O-])c1 (protonated)
O=C(/C=C/c1ccc(O)c([O-])c1)[N-]CCc1ccc([O-])c([O-])c1 (cis-trans isomerization)
O=C(/C=C/c1ccc(O)c([O-])c1)[N-]CCc1ccc([O-])c([O-])c1 (3D coordinates assigned)
O=C(/C=C/c1ccc(O)c([O-])c1)[N-]CCc1ccc([O-])c([O-])c1 (optimized conformer: 39.70661031505334 kcal/mol)

>  <smiles>  (16) 
O=C(C=Cc1ccc(O)c(O)c1)NCCc1ccc(O)c(O)c1

>  <score_type>  (16) 
oracle

>  <origin>  (16) 
adgpu

>  <m_score__min__energy>  (16) 
-13.279999999999999

>  <m_primary>  (16) 
energy

$$$$
16:0
     RDKit          3D

 63 66  0  0  0  0  0  0  0  0999 V2000
   -1.0190   21.4120  -33.8250 C   0  0  0  0  0  0  0  0  0  0  0  0
   -1.6240   20.6770  -32.7150 N   0  0  0  0  0  0  0  0  0  0  0  0
   -2.5640   21.3860  -31.8470 C   0  0  0  0  0  0  0  0  0  0  0  0
   -1.5760   19.2390  -32.6950 C   0  0  0  0  0  0  0  0  0  0  0  0
   -0.5740   18.5890  -31.9500 C   0  0  0  0  0  0  0  0  0  0  0  0
   -0.4560   17.1980  -31.9850 C   0  0  0  0  0  0  0  0  0  0  0  0
   -1.3300   16.4420  -32.7660 C   0  0  0  0  0  0  0  0  0  0  0  0
   -2.3340   17.0720  -33.5060 C   0  0  0  0  0  0  0  0  0  0  0  0
   -2.4840   18.4640  -33.4570 C   0  0  0  0  0  0  0  0  0  0  0  0
   -3.5490   19.0600  -34.2110 N   0  0  0  0  0  0  0  0  0  0  0  0
   -4.9230   18.6600  -34.1470 C   0  0  0  0  0  0  0  0  0  0  0  0
   -5.3160   17.6830  -34.8410 O   0  0  0  0  0  0  0  0  0  0  0  0
   -5.8820   19.4220  -33.3040 C   0  0  0  0  0  0  0  0  0  0  0  0
   -5.5890   20.7520  -32.9470 C   0  0  0  0  0  0  0  0  0  0  0  0
   -6.4800   21.5120  -32.1770 C   0  0  0  0  0  0  0  0  0  0  0  0
   -6.1190   22.8670  -31.8770 N   0  0  0  0  0  0  0  0  0  0  0  0
   -6.0640   23.5670  -30.2910 S   0  0  0  0  0  0  0  0  0  0  0  0
   -6.4370   25.0250  -30.3560 O   0  0  0  0  0  0  0  0  0  0  0  0
   -7.0260   22.8370  -29.3950 O   0  0  0  0  0  0  0  0  0  0  0  0
   -4.4210   23.4360  -29.6570 C   0  0  0  0  0  0  0  0  0  0  0  0
   -4.0370   22.2970  -28.9350 C   0  0  0  0  0  0  0  0  0  0  0  0
   -2.7390   22.1890  -28.4200 C   0  0  0  0  0  0  0  0  0  0  0  0
   -2.2510   20.7670  -27.5010 S   0  0  0  0  0  0  0  0  0  0  0  0
   -3.4830   20.0080  -27.0950 O   0  0  0  0  0  0  0  0  0  0  0  0
   -1.4980   21.1830  -26.2660 O   0  0  0  0  0  0  0  0  0  0  0  0
   -1.2440   19.7530  -28.5040 N   0  0  0  0  0  0  0  0  0  0  0  0
   -0.0430   20.4640  -28.9610 C   0  0  0  0  0  0  0  0  0  0  0  0
    1.0820   19.4380  -29.0530 C   0  0  0  0  0  0  0  0  0  0  0  0
    0.5270   18.1640  -28.4410 C   0  0  0  0  0  0  0  0  0  0  0  0
   -0.7650   18.5860  -27.7660 C   0  0  0  0  0  0  0  0  0  0  0  0
   -1.8180   23.2210  -28.6370 C   0  0  0  0  0  0  0  0  0  0  0  0
   -2.1960   24.3600  -29.3500 C   0  0  0  0  0  0  0  0  0  0  0  0
   -3.4950   24.4760  -29.8540 C   0  0  0  0  0  0  0  0  0  0  0  0
   -3.8560   25.6290  -30.5430 O   0  0  0  0  0  0  0  0  0  0  0  0
   -7.6660   20.9180  -31.7050 C   0  0  0  0  0  0  0  0  0  0  0  0
   -8.5360   21.6210  -30.8750 O   0  0  0  0  0  0  0  0  0  0  0  0
   -7.9610   19.5940  -32.0500 C   0  0  0  0  0  0  0  0  0  0  0  0
   -7.0890   18.8480  -32.8460 C   0  0  0  0  0  0  0  0  0  0  0  0
   -7.4340   17.5390  -33.1640 O   0  0  0  0  0  0  0  0  0  0  0  0
   -0.3670   22.2041  -33.4282 H   0  0  0  0  0  0  0  0  0  0  0  0
   -0.4240   20.7216  -34.4409 H   0  0  0  0  0  0  0  0  0  0  0  0
   -1.8109   21.8632  -34.4409 H   0  0  0  0  0  0  0  0  0  0  0  0
   -2.3083   21.1931  -30.7947 H   0  0  0  0  0  0  0  0  0  0  0  0
   -2.5044   22.4661  -32.0468 H   0  0  0  0  0  0  0  0  0  0  0  0
   -3.5861   21.0320  -32.0468 H   0  0  0  0  0  0  0  0  0  0  0  0
    0.1208   19.1809  -31.3360 H   0  0  0  0  0  0  0  0  0  0  0  0
    0.3270   16.6980  -31.3960 H   0  0  0  0  0  0  0  0  0  0  0  0
   -1.2287   15.3472  -32.7995 H   0  0  0  0  0  0  0  0  0  0  0  0
   -3.0109   16.4711  -34.1310 H   0  0  0  0  0  0  0  0  0  0  0  0
   -4.6424   21.2034  -33.2788 H   0  0  0  0  0  0  0  0  0  0  0  0
   -4.7594   21.4836  -28.7721 H   0  0  0  0  0  0  0  0  0  0  0  0
   -0.2243   20.9138  -29.9483 H   0  0  0  0  0  0  0  0  0  0  0  0
    0.2217   21.2716  -28.2626 H   0  0  0  0  0  0  0  0  0  0  0  0
    1.3618   19.2687  -30.1033 H   0  0  0  0  0  0  0  0  0  0  0  0
    1.9869   19.7795  -28.5290 H   0  0  0  0  0  0  0  0  0  0  0  0
    0.3291   17.4141  -29.2211 H   0  0  0  0  0  0  0  0  0  0  0  0
    1.2322   17.7028  -27.7340 H   0  0  0  0  0  0  0  0  0  0  0  0
   -1.5046   17.7732  -27.8147 H   0  0  0  0  0  0  0  0  0  0  0  0
   -0.6059   18.8196  -26.7029 H   0  0  0  0  0  0  0  0  0  0  0  0
   -0.7940   23.1340  -28.2447 H   0  0  0  0  0  0  0  0  0  0  0  0
   -1.4694   25.1690  -29.5159 H   0  0  0  0  0  0  0  0  0  0  0  0
   -8.2660   22.4950  -30.4400 H   0  0  0  0  0  0  0  0  0  0  0  0
   -8.8930   19.1345  -31.6890 H   0  0  0  0  0  0  0  0  0  0  0  0
  1  2  1  0
  2  3  1  0
  2  4  1  0
  4  5  2  0
  5  6  1  0
  6  7  2  0
  7  8  1  0
  8  9  2  0
  9 10  1  0
 10 11  1  0
 11 12  2  0
 11 13  1  0
 13 14  2  0
 14 15  1  0
 15 16  1  0
 16 17  1  0
 17 18  2  0
 17 19  2  0
 17 20  1  0
 20 21  2  0
 21 22  1  0
 22 23  1  0
 23 24  2  0
 23 25  2  0
 23 26  1  0
 26 27  1  0
 27 28  1  0
 28 29  1  0
 29 30  1  0
 22 31  2  0
 31 32  1  0
 32 33  2  0
 33 34  1  0
 15 35  2  0
 35 36  1  0
 35 37  1  0
 37 38  2  0
 38 39  1  0
  9  4  1  0
 38 13  1  0
 33 20  1  0
 30 26  1  0
  1 40  1  0
  1 41  1  0
  1 42  1  0
  3 43  1  0
  3 44  1  0
  3 45  1  0
  5 46  1  0
  6 47  1  0
  7 48  1  0
  8 49  1  0
 14 50  1  0
 21 51  1  0
 27 52  1  0
 27 53  1  0
 28 54  1  0
 28 55  1  0
 29 56  1  0
 29 57  1  0
 30 58  1  0
 30 59  1  0
 31 60  1  0
 32 61  1  0
 36 62  1  0
 37 63  1  0
M  CHG  4  10  -1  16  -1  34  -1  39  -1
M  END
>  <UniqueID>  (17) 
17

>  <SMILES>  (17) 
CN(C)c1ccccc1[N-]C(=O)c1cc([N-]S(=O)(=O)c2cc(S(=O)(=O)N3CCCC3)ccc2[O-])c(O)cc1[O-]

>  <Energy>  (17) 
86.1800140372618

>  <Genealogy>  (17) 
CN(C)c1ccccc1[N-]C(=O)c1cc([N-]S(=O)(=O)c2cc(S(=O)(=O)N3CCCC3)ccc2[O-])c(O)cc1[O-] (protonated)
CN(C)c1ccccc1[N-]C(=O)c1cc([N-]S(=O)(=O)c2cc(S(=O)(=O)N3CCCC3)ccc2[O-])c(O)cc1[O-] (3D coordinates assigned)
CN(C)c1ccccc1[N-]C(=O)c1cc([N-]S(=O)(=O)c2cc(S(=O)(=O)N3CCCC3)ccc2[O-])c(O)cc1[O-] (nonaromatic ring conformer: 86.1800140372618 kcal/mol)

>  <smiles>  (17) 
CN(C)c1ccccc1NC(=O)c1cc(NS(=O)(=O)c2cc(S(=O)(=O)N3CCCC3)ccc2O)c(O)cc1O

>  <score_type>  (17) 
oracle

>  <origin>  (17) 
adgpu

>  <m_score__min__energy>  (17) 
-13.390000000000001

>  <m_primary>  (17) 
energy

$$$$
17:0
     RDKit          3D

 61 65  0  0  0  0  0  0  0  0999 V2000
   -1.7670   19.7640  -26.9850 C   0  0  0  0  0  0  0  0  0  0  0  0
   -1.5320   19.8070  -28.4370 N   0  0  0  0  0  0  0  0  0  0  0  0
   -2.4750   20.5800  -29.2790 C   0  0  0  0  0  0  0  0  0  0  0  0
   -2.2770   22.0730  -29.1060 C   0  0  0  0  0  0  0  0  0  0  0  0
   -1.3210   22.5460  -28.1830 C   0  0  0  0  0  0  0  0  0  0  0  0
   -1.1230   23.9200  -28.0060 C   0  0  0  0  0  0  0  0  0  0  0  0
   -1.8600   24.8410  -28.7600 C   0  0  0  0  0  0  0  0  0  0  0  0
   -2.7840   24.3850  -29.7050 C   0  0  0  0  0  0  0  0  0  0  0  0
   -3.5060   25.3000  -30.4640 O   0  0  0  0  0  0  0  0  0  0  0  0
   -2.9830   23.0090  -29.8880 C   0  0  0  0  0  0  0  0  0  0  0  0
   -0.3190   19.2060  -28.9430 C   0  0  0  0  0  0  0  0  0  0  0  0
    0.5050   18.7070  -28.1320 O   0  0  0  0  0  0  0  0  0  0  0  0
    0.0340   19.1620  -30.3800 C   0  0  0  0  0  0  0  0  0  0  0  0
    0.9550   20.0550  -30.9420 C   0  0  0  0  0  0  0  0  0  0  0  0
    1.2460   20.0070  -32.3130 C   0  0  0  0  0  0  0  0  0  0  0  0
    0.5670   19.1150  -33.1480 C   0  0  0  0  0  0  0  0  0  0  0  0
    0.8690   19.1010  -34.5090 O   0  0  0  0  0  0  0  0  0  0  0  0
   -0.4130   18.2640  -32.6070 C   0  0  0  0  0  0  0  0  0  0  0  0
   -1.1550   17.3980  -33.4790 N   0  0  0  0  0  0  0  0  0  0  0  0
   -2.8380   17.5540  -33.8690 S   0  0  0  0  0  0  0  0  0  0  0  0
   -3.0220   17.2680  -35.3380 O   0  0  0  0  0  0  0  0  0  0  0  0
   -3.6580   16.5630  -33.0980 O   0  0  0  0  0  0  0  0  0  0  0  0
   -3.3570   19.2000  -33.5290 C   0  0  0  0  0  0  0  0  0  0  0  0
   -2.3960   20.2370  -33.3860 C   0  0  0  0  0  0  0  0  0  0  0  0
   -2.7740   21.5250  -32.9680 C   0  0  0  0  0  0  0  0  0  0  0  0
   -4.1190   21.7510  -32.7050 C   0  0  0  0  0  0  0  0  0  0  0  0
   -4.6760   22.8770  -32.2000 N   0  0  0  0  0  0  0  0  0  0  0  0
   -5.9880   22.5820  -32.0270 C   0  0  0  0  0  0  0  0  0  0  0  0
   -6.2740   21.2980  -32.4670 C   0  0  0  0  0  0  0  0  0  0  0  0
   -5.0610   20.7620  -32.8730 C   0  0  0  0  0  0  0  0  0  0  0  0
   -4.7160   19.4730  -33.2870 C   0  0  0  0  0  0  0  0  0  0  0  0
   -7.5760   20.6000  -32.2270 C   0  0  0  0  0  0  0  0  0  0  0  0
   -8.6820   21.6130  -31.8410 C   0  0  0  0  0  0  0  0  0  0  0  0
   -8.1760   22.6600  -30.8290 C   0  0  0  0  0  0  0  0  0  0  0  0
   -7.0120   23.4870  -31.4060 C   0  0  0  0  0  0  0  0  0  0  0  0
   -0.6510   18.2780  -31.2210 C   0  0  0  0  0  0  0  0  0  0  0  0
   -0.8189   19.9375  -26.4548 H   0  0  0  0  0  0  0  0  0  0  0  0
   -2.4905   20.5447  -26.7074 H   0  0  0  0  0  0  0  0  0  0  0  0
   -2.1672   18.7777  -26.7074 H   0  0  0  0  0  0  0  0  0  0  0  0
   -2.3100   20.3173  -30.3343 H   0  0  0  0  0  0  0  0  0  0  0  0
   -3.5002   20.3292  -28.9692 H   0  0  0  0  0  0  0  0  0  0  0  0
   -0.7264   21.8292  -27.5977 H   0  0  0  0  0  0  0  0  0  0  0  0
   -0.3858   24.2775  -27.2720 H   0  0  0  0  0  0  0  0  0  0  0  0
   -1.7125   25.9206  -28.6093 H   0  0  0  0  0  0  0  0  0  0  0  0
   -3.6960   22.6573  -30.6482 H   0  0  0  0  0  0  0  0  0  0  0  0
    1.4536   20.7992  -30.3036 H   0  0  0  0  0  0  0  0  0  0  0  0
    2.0125   20.6747  -32.7334 H   0  0  0  0  0  0  0  0  0  0  0  0
    0.3950   18.4930  -35.1640 H   0  0  0  0  0  0  0  0  0  0  0  0
   -1.3386   20.0285  -33.6061 H   0  0  0  0  0  0  0  0  0  0  0  0
   -2.0297   22.3267  -32.8531 H   0  0  0  0  0  0  0  0  0  0  0  0
   -4.1910   23.7660  -31.9430 H   0  0  0  0  0  0  0  0  0  0  0  0
   -5.4829   18.6957  -33.4197 H   0  0  0  0  0  0  0  0  0  0  0  0
   -7.8757   20.0712  -33.1438 H   0  0  0  0  0  0  0  0  0  0  0  0
   -7.4461   19.8881  -31.3985 H   0  0  0  0  0  0  0  0  0  0  0  0
   -9.0215   22.1319  -32.7495 H   0  0  0  0  0  0  0  0  0  0  0  0
   -9.5055   21.0554  -31.3710 H   0  0  0  0  0  0  0  0  0  0  0  0
   -9.0033   23.3380  -30.5725 H   0  0  0  0  0  0  0  0  0  0  0  0
   -7.8129   22.1295  -29.9364 H   0  0  0  0  0  0  0  0  0  0  0  0
   -7.4001   24.1751  -32.1715 H   0  0  0  0  0  0  0  0  0  0  0  0
   -6.5397   24.0567  -30.5921 H   0  0  0  0  0  0  0  0  0  0  0  0
   -1.3874   17.5830  -30.7912 H   0  0  0  0  0  0  0  0  0  0  0  0
  1  2  1  0
  2  3  1  0
  3  4  1  0
  4  5  2  0
  5  6  1  0
  6  7  2  0
  7  8  1  0
  8  9  1  0
  8 10  2  0
  2 11  1  0
 11 12  2  0
 11 13  1  0
 13 14  2  0
 14 15  1  0
 15 16  2  0
 16 17  1  0
 16 18  1  0
 18 19  1  0
 19 20  1  0
 20 21  2  0
 20 22  2  0
 20 23  1  0
 23 24  2  0
 24 25  1  0
 25 26  2  0
 26 27  1  0
 27 28  1  0
 28 29  2  0
 29 30  1  0
 30 31  2  0
 29 32  1  0
 32 33  1  0
 33 34  1  0
 34 35  1  0
 18 36  2  0
 10  4  1  0
 36 13  1  0
 31 23  1  0
 30 26  1  0
 35 28  1  0
  1 37  1  0
  1 38  1  0
  1 39  1  0
  3 40  1  0
  3 41  1  0
  5 42  1  0
  6 43  1  0
  7 44  1  0
 10 45  1  0
 14 46  1  0
 15 47  1  0
 17 48  1  0
 24 49  1  0
 25 50  1  0
 27 51  1  0
 31 52  1  0
 32 53  1  0
 32 54  1  0
 33 55  1  0
 33 56  1  0
 34 57  1  0
 34 58  1  0
 35 59  1  0
 35 60  1  0
 36 61  1  0
M  CHG  2   9  -1  19  -1
M  END
>  <UniqueID>  (18) 
18

>  <SMILES>  (18) 
CN(Cc1cccc([O-])c1)C(=O)c1ccc(O)c([N-]S(=O)(=O)c2ccc3[nH]c4c(c3c2)CCCC4)c1

>  <Energy>  (18) 
110.468220036863

>  <Genealogy>  (18) 
CN(Cc1cccc([O-])c1)C(=O)c1ccc(O)c([N-]S(=O)(=O)c2ccc3[nH]c4c(c3c2)CCCC4)c1 (protonated)
CN(Cc1cccc([O-])c1)C(=O)c1ccc(O)c([N-]S(=O)(=O)c2ccc3[nH]c4c(c3c2)CCCC4)c1 (3D coordinates assigned)
CN(Cc1cccc([O-])c1)C(=O)c1ccc(O)c([N-]S(=O)(=O)c2ccc3[nH]c4c(c3c2)CCCC4)c1 (nonaromatic ring conformer: 110.468220036863 kcal/mol)

>  <smiles>  (18) 
CN(Cc1cccc(O)c1)C(=O)c1ccc(O)c(NS(=O)(=O)c2ccc3[nH]c4c(c3c2)CCCC4)c1

>  <score_type>  (18) 
oracle

>  <origin>  (18) 
adgpu

>  <m_score__min__energy>  (18) 
-13.779999999999999

>  <m_primary>  (18) 
energy

$$$$
18:0
     RDKit          3D

 59 62  0  0  0  0  0  0  0  0999 V2000
   -6.7650   25.2960  -30.0770 C   0  0  0  0  0  0  0  0  0  0  0  0
   -6.7920   23.9330  -30.7160 C   0  0  0  0  0  0  0  0  0  0  0  0
   -7.9890   23.4790  -31.2970 C   0  0  0  0  0  0  0  0  0  0  0  0
   -8.0550   22.2260  -31.9050 C   0  0  0  0  0  0  0  0  0  0  0  0
   -6.9250   21.4030  -31.9480 C   0  0  0  0  0  0  0  0  0  0  0  0
   -7.0090   19.8230  -32.7310 S   0  0  0  0  0  0  0  0  0  0  0  0
   -6.8480   20.0160  -34.2140 O   0  0  0  0  0  0  0  0  0  0  0  0
   -8.3710   19.2310  -32.4940 O   0  0  0  0  0  0  0  0  0  0  0  0
   -5.7810   18.7070  -32.1610 N   0  0  0  0  0  0  0  0  0  0  0  0
   -6.2100   17.2920  -32.2780 C   0  0  0  0  0  0  0  0  0  0  0  0
   -5.6290   16.5880  -33.5170 C   0  0  0  0  0  0  0  0  0  0  0  0
   -5.3920   17.5150  -34.5490 O   0  0  0  0  0  0  0  0  0  0  0  0
   -4.3170   18.3600  -34.1910 C   0  0  0  0  0  0  0  0  0  0  0  0
   -4.4620   18.9670  -32.7750 C   0  0  0  0  0  0  0  0  0  0  0  0
   -5.7290   21.8410  -31.3680 C   0  0  0  0  0  0  0  0  0  0  0  0
   -5.6420   23.1050  -30.7660 C   0  0  0  0  0  0  0  0  0  0  0  0
   -4.0950   23.6050  -30.0580 S   0  0  0  0  0  0  0  0  0  0  0  0
   -3.5900   24.8530  -30.7270 O   0  0  0  0  0  0  0  0  0  0  0  0
   -4.2930   23.8980  -28.5970 O   0  0  0  0  0  0  0  0  0  0  0  0
   -2.9040   22.3290  -30.2800 C   0  0  0  0  0  0  0  0  0  0  0  0
   -2.5550   21.8910  -31.5760 C   0  0  0  0  0  0  0  0  0  0  0  0
   -1.5950   20.8830  -31.7520 C   0  0  0  0  0  0  0  0  0  0  0  0
   -0.9950   20.3290  -30.6190 C   0  0  0  0  0  0  0  0  0  0  0  0
   -1.3390   20.7460  -29.3470 C   0  0  0  0  0  0  0  0  0  0  0  0
   -2.2940   21.7470  -29.1540 C   0  0  0  0  0  0  0  0  0  0  0  0
   -0.5750   19.9730  -28.3050 C   0  0  0  0  0  0  0  0  0  0  0  0
   -1.5210   19.1700  -27.4010 C   0  0  0  0  0  0  0  0  0  0  0  0
    0.3470   20.8930  -27.4930 C   0  0  0  0  0  0  0  0  0  0  0  0
    0.2220   19.0610  -29.2040 C   0  0  0  0  0  0  0  0  0  0  0  0
    1.0000   18.1610  -28.7870 O   0  0  0  0  0  0  0  0  0  0  0  0
   -0.0060   19.3090  -30.5900 N   0  0  0  0  0  0  0  0  0  0  0  0
    0.3190   18.3940  -31.6800 C   0  0  0  0  0  0  0  0  0  0  0  0
   -6.7671   25.1879  -28.9823 H   0  0  0  0  0  0  0  0  0  0  0  0
   -5.8561   25.8302  -30.3909 H   0  0  0  0  0  0  0  0  0  0  0  0
   -7.6520   25.8658  -30.3909 H   0  0  0  0  0  0  0  0  0  0  0  0
   -8.8831   24.1192  -31.2716 H   0  0  0  0  0  0  0  0  0  0  0  0
   -8.9996   21.8834  -32.3526 H   0  0  0  0  0  0  0  0  0  0  0  0
   -5.6830   18.9180  -31.1390 H   0  0  0  0  0  0  0  0  0  0  0  0
   -5.8794   16.7501  -31.3797 H   0  0  0  0  0  0  0  0  0  0  0  0
   -7.3052   17.2876  -32.3804 H   0  0  0  0  0  0  0  0  0  0  0  0
   -4.6813   16.1006  -33.2444 H   0  0  0  0  0  0  0  0  0  0  0  0
   -6.3537   15.8404  -33.8719 H   0  0  0  0  0  0  0  0  0  0  0  0
   -3.3861   17.7751  -34.2267 H   0  0  0  0  0  0  0  0  0  0  0  0
   -4.3079   19.1966  -34.9051 H   0  0  0  0  0  0  0  0  0  0  0  0
   -3.6843   18.5347  -32.1283 H   0  0  0  0  0  0  0  0  0  0  0  0
   -4.3579   20.0575  -32.8752 H   0  0  0  0  0  0  0  0  0  0  0  0
   -4.8457   21.1856  -31.3844 H   0  0  0  0  0  0  0  0  0  0  0  0
   -3.0392   22.3433  -32.4541 H   0  0  0  0  0  0  0  0  0  0  0  0
   -1.3211   20.5369  -32.7596 H   0  0  0  0  0  0  0  0  0  0  0  0
   -2.5643   22.0744  -28.1392 H   0  0  0  0  0  0  0  0  0  0  0  0
   -1.2814   19.3734  -26.3469 H   0  0  0  0  0  0  0  0  0  0  0  0
   -2.5609   19.4653  -27.6042 H   0  0  0  0  0  0  0  0  0  0  0  0
   -1.3985   18.0959  -27.6042 H   0  0  0  0  0  0  0  0  0  0  0  0
    0.1789   20.7252  -26.4189 H   0  0  0  0  0  0  0  0  0  0  0  0
    1.3958   20.6708  -27.7391 H   0  0  0  0  0  0  0  0  0  0  0  0
    0.1271   21.9423  -27.7391 H   0  0  0  0  0  0  0  0  0  0  0  0
    0.6598   17.4345  -31.2639 H   0  0  0  0  0  0  0  0  0  0  0  0
   -0.5753   18.2284  -32.2987 H   0  0  0  0  0  0  0  0  0  0  0  0
    1.1174   18.8296  -32.2987 H   0  0  0  0  0  0  0  0  0  0  0  0
  1  2  1  0
  2  3  2  0
  3  4  1  0
  4  5  2  0
  5  6  1  0
  6  7  2  0
  6  8  2  0
  6  9  1  0
  9 10  1  0
 10 11  1  0
 11 12  1  0
 12 13  1  0
 13 14  1  0
  5 15  1  0
 15 16  2  0
 16 17  1  0
 17 18  2  0
 17 19  2  0
 17 20  1  0
 20 21  2  0
 21 22  1  0
 22 23  2  0
 23 24  1  0
 24 25  2  0
 24 26  1  0
 26 27  1  0
 26 28  1  0
 26 29  1  0
 29 30  2  0
 29 31  1  0
 31 32  1  0
 16  2  1  0
 25 20  1  0
 14  9  1  0
 31 23  1  0
  1 33  1  0
  1 34  1  0
  1 35  1  0
  3 36  1  0
  4 37  1  0
  9 38  1  0
 10 39  1  0
 10 40  1  0
 11 41  1  0
 11 42  1  0
 13 43  1  0
 13 44  1  0
 14 45  1  0
 14 46  1  0
 15 47  1  0
 21 48  1  0
 22 49  1  0
 25 50  1  0
 27 51  1  0
 27 52  1  0
 27 53  1  0
 28 54  1  0
 28 55  1  0
 28 56  1  0
 32 57  1  0
 32 58  1  0
 32 59  1  0
M  CHG  1   9   1
M  END
>  <UniqueID>  (19) 
19

>  <SMILES>  (19) 
Cc1ccc(S(=O)(=O)[NH+]2CCOCC2)cc1S(=O)(=O)c1ccc2c(c1)C(C)(C)C(=O)N2C

>  <Energy>  (19) 
89.74321377756885

>  <Genealogy>  (19) 
Cc1ccc(S(=O)(=O)[NH+]2CCOCC2)cc1S(=O)(=O)c1ccc2c(c1)C(C)(C)C(=O)N2C (protonated)
Cc1ccc(S(=O)(=O)[NH+]2CCOCC2)cc1S(=O)(=O)c1ccc2c(c1)C(C)(C)C(=O)N2C (3D coordinates assigned)
Cc1ccc(S(=O)(=O)[NH+]2CCOCC2)cc1S(=O)(=O)c1ccc2c(c1)C(C)(C)C(=O)N2C (nonaromatic ring conformer: 89.74321377756885 kcal/mol)

>  <smiles>  (19) 
Cc1ccc(S(=O)(=O)N2CCOCC2)cc1S(=O)(=O)c1ccc2c(c1)C(C)(C)C(=O)N2C

>  <score_type>  (19) 
oracle

>  <origin>  (19) 
adgpu

>  <m_score__min__energy>  (19) 
-10.539999999999999

>  <m_primary>  (19) 
energy

$$$$
19:0
     RDKit          3D

 59 62  0  0  0  0  0  0  0  0999 V2000
   -2.8550   20.0370  -31.6140 C   0  0  0  0  0  0  0  0  0  0  0  0
   -1.5190   19.9760  -32.2760 C   0  0  0  0  0  0  0  0  0  0  0  0
   -1.1170   20.8340  -33.2360 N   0  0  0  0  0  0  0  0  0  0  0  0
    0.1650   20.5970  -33.4780 N   0  0  0  0  0  0  0  0  0  0  0  0
    0.9620   21.3720  -34.4210 C   0  0  0  0  0  0  0  0  0  0  0  0
    0.6100   19.6080  -32.6740 C   0  0  0  0  0  0  0  0  0  0  0  0
    2.0330   19.1560  -32.5670 C   0  0  0  0  0  0  0  0  0  0  0  0
   -0.4490   19.1930  -31.8920 C   0  0  0  0  0  0  0  0  0  0  0  0
   -0.3930   18.3480  -30.7430 N   0  0  0  0  0  0  0  0  0  0  0  0
   -0.0570   19.0000  -29.1760 S   0  0  0  0  0  0  0  0  0  0  0  0
    1.4250   19.0600  -28.9430 O   0  0  0  0  0  0  0  0  0  0  0  0
   -0.6720   18.1070  -28.1330 O   0  0  0  0  0  0  0  0  0  0  0  0
   -0.7530   20.6140  -29.0580 C   0  0  0  0  0  0  0  0  0  0  0  0
   -1.9240   20.8330  -28.3230 C   0  0  0  0  0  0  0  0  0  0  0  0
   -2.4980   22.1070  -28.2800 C   0  0  0  0  0  0  0  0  0  0  0  0
   -1.9170   23.1680  -28.9870 C   0  0  0  0  0  0  0  0  0  0  0  0
   -2.6880   24.7520  -28.9780 S   0  0  0  0  0  0  0  0  0  0  0  0
   -1.6370   25.8260  -28.9370 O   0  0  0  0  0  0  0  0  0  0  0  0
   -3.5630   24.8920  -27.7640 O   0  0  0  0  0  0  0  0  0  0  0  0
   -3.6220   24.9440  -30.4220 N   0  0  0  0  0  0  0  0  0  0  0  0
   -4.7920   24.1630  -30.6640 C   0  0  0  0  0  0  0  0  0  0  0  0
   -4.7120   23.0600  -31.5200 C   0  0  0  0  0  0  0  0  0  0  0  0
   -5.8330   22.2440  -31.7400 C   0  0  0  0  0  0  0  0  0  0  0  0
   -7.0630   22.5710  -31.1330 C   0  0  0  0  0  0  0  0  0  0  0  0
   -7.1410   23.6840  -30.2830 C   0  0  0  0  0  0  0  0  0  0  0  0
   -6.0140   24.4860  -30.0550 C   0  0  0  0  0  0  0  0  0  0  0  0
   -6.1110   25.6080  -29.2350 O   0  0  0  0  0  0  0  0  0  0  0  0
   -8.2740   21.6890  -31.3070 C   0  0  0  0  0  0  0  0  0  0  0  0
   -8.1170   20.7270  -32.4880 C   0  0  0  0  0  0  0  0  0  0  0  0
   -6.7910   20.0860  -32.4360 N   0  0  0  0  0  0  0  0  0  0  0  0
   -6.7120   19.0020  -33.4270 C   0  0  0  0  0  0  0  0  0  0  0  0
   -5.7390   21.0860  -32.7010 C   0  0  0  0  0  0  0  0  0  0  0  0
   -0.7460   22.9460  -29.7260 C   0  0  0  0  0  0  0  0  0  0  0  0
   -0.1630   21.6770  -29.7540 C   0  0  0  0  0  0  0  0  0  0  0  0
   -2.7237   20.0310  -30.5219 H   0  0  0  0  0  0  0  0  0  0  0  0
   -3.3721   20.9597  -31.9161 H   0  0  0  0  0  0  0  0  0  0  0  0
   -3.4540   19.1653  -31.9161 H   0  0  0  0  0  0  0  0  0  0  0  0
    1.6434   22.0346  -33.8673 H   0  0  0  0  0  0  0  0  0  0  0  0
    1.5481   20.6892  -35.0536 H   0  0  0  0  0  0  0  0  0  0  0  0
    0.2958   21.9770  -35.0536 H   0  0  0  0  0  0  0  0  0  0  0  0
    2.3109   19.0677  -31.5064 H   0  0  0  0  0  0  0  0  0  0  0  0
    2.1450   18.1781  -33.0580 H   0  0  0  0  0  0  0  0  0  0  0  0
    2.6888   19.8901  -33.0580 H   0  0  0  0  0  0  0  0  0  0  0  0
   -2.3936   20.0008  -27.7780 H   0  0  0  0  0  0  0  0  0  0  0  0
   -3.4097   22.2772  -27.6886 H   0  0  0  0  0  0  0  0  0  0  0  0
   -3.7625   22.8298  -32.0253 H   0  0  0  0  0  0  0  0  0  0  0  0
   -8.0939   23.9295  -29.7914 H   0  0  0  0  0  0  0  0  0  0  0  0
   -5.3640   25.8680  -28.6020 H   0  0  0  0  0  0  0  0  0  0  0  0
   -8.4213   21.1025  -30.3881 H   0  0  0  0  0  0  0  0  0  0  0  0
   -9.1402   22.3364  -31.5085 H   0  0  0  0  0  0  0  0  0  0  0  0
   -8.8984   19.9545  -32.4363 H   0  0  0  0  0  0  0  0  0  0  0  0
   -8.2128   21.2882  -33.4292 H   0  0  0  0  0  0  0  0  0  0  0  0
   -6.6415   18.0349  -32.9077 H   0  0  0  0  0  0  0  0  0  0  0  0
   -7.6135   19.0149  -34.0572 H   0  0  0  0  0  0  0  0  0  0  0  0
   -5.8219   19.1455  -34.0572 H   0  0  0  0  0  0  0  0  0  0  0  0
   -4.7542   20.6083  -32.5919 H   0  0  0  0  0  0  0  0  0  0  0  0
   -5.8728   21.4699  -33.7231 H   0  0  0  0  0  0  0  0  0  0  0  0
   -0.2853   23.7736  -30.2852 H   0  0  0  0  0  0  0  0  0  0  0  0
    0.7628   21.5117  -30.3246 H   0  0  0  0  0  0  0  0  0  0  0  0
  1  2  1  0
  2  3  2  0
  3  4  1  0
  4  5  1  0
  4  6  1  0
  6  7  1  0
  6  8  2  0
  8  9  1  0
  9 10  1  0
 10 11  2  0
 10 12  2  0
 10 13  1  0
 13 14  2  0
 14 15  1  0
 15 16  2  0
 16 17  1  0
 17 18  2  0
 17 19  2  0
 17 20  1  0
 20 21  1  0
 21 22  2  0
 22 23  1  0
 23 24  2  0
 24 25  1  0
 25 26  2  0
 26 27  1  0
 24 28  1  0
 28 29  1  0
 29 30  1  0
 30 31  1  0
 30 32  1  0
 16 33  1  0
 33 34  2  0
  8  2  1  0
 34 13  1  0
 26 21  1  0
 32 23  1  0
  1 35  1  0
  1 36  1  0
  1 37  1  0
  5 38  1  0
  5 39  1  0
  5 40  1  0
  7 41  1  0
  7 42  1  0
  7 43  1  0
 14 44  1  0
 15 45  1  0
 22 46  1  0
 25 47  1  0
 27 48  1  0
 28 49  1  0
 28 50  1  0
 29 51  1  0
 29 52  1  0
 31 53  1  0
 31 54  1  0
 31 55  1  0
 32 56  1  0
 32 57  1  0
 33 58  1  0
 34 59  1  0
M  CHG  2   9  -1  20  -1
M  END
>  <UniqueID>  (20) 
20

>  <SMILES>  (20) 
Cc1nn(C)c(C)c1[N-]S(=O)(=O)c1ccc(S(=O)(=O)[N-]c2cc3c(cc2O)CCN(C)C3)cc1

>  <Energy>  (20) 
107.59677002565579

>  <Genealogy>  (20) 
Cc1nn(C)c(C)c1[N-]S(=O)(=O)c1ccc(S(=O)(=O)[N-]c2cc3c(cc2O)CCN(C)C3)cc1 (protonated)
Cc1nn(C)c(C)c1[N-]S(=O)(=O)c1ccc(S(=O)(=O)[N-]c2cc3c(cc2O)CCN(C)C3)cc1 (3D coordinates assigned)
Cc1nn(C)c(C)c1[N-]S(=O)(=O)c1ccc(S(=O)(=O)[N-]c2cc3c(cc2O)CCN(C)C3)cc1 (nonaromatic ring conformer: 107.59677002565579 kcal/mol)

>  <smiles>  (20) 
Cc1nn(C)c(C)c1NS(=O)(=O)c1ccc(S(=O)(=O)Nc2cc3c(cc2O)CCN(C)C3)cc1

>  <score_type>  (20) 
oracle

>  <origin>  (20) 
adgpu

>  <m_score__min__energy>  (20) 
-13.859999999999999

>  <m_primary>  (20) 
energy

$$$$
20:0
     RDKit          3D

 59 62  0  0  0  0  0  0  0  0999 V2000
   -0.7170   19.0110  -28.2590 C   0  0  0  0  0  0  0  0  0  0  0  0
    0.3380   19.8270  -29.0030 C   0  0  0  0  0  0  0  0  0  0  0  0
    0.3750   19.4780  -30.4670 C   0  0  0  0  0  0  0  0  0  0  0  0
    1.4650   19.1270  -30.9920 O   0  0  0  0  0  0  0  0  0  0  0  0
   -0.8030   19.5530  -31.2870 N   0  0  0  0  0  0  0  0  0  0  0  0
   -1.1570   18.5380  -32.2810 C   0  0  0  0  0  0  0  0  0  0  0  0
   -2.3900   19.0900  -33.0350 C   0  0  0  0  0  0  0  0  0  0  0  0
   -2.6880   20.3650  -32.3220 C   0  0  0  0  0  0  0  0  0  0  0  0
   -3.7500   21.2430  -32.5440 C   0  0  0  0  0  0  0  0  0  0  0  0
   -4.6720   20.9930  -33.5600 O   0  0  0  0  0  0  0  0  0  0  0  0
   -3.8650   22.3800  -31.7230 C   0  0  0  0  0  0  0  0  0  0  0  0
   -2.9360   22.6040  -30.6840 C   0  0  0  0  0  0  0  0  0  0  0  0
   -3.0270   24.0640  -29.7020 S   0  0  0  0  0  0  0  0  0  0  0  0
   -1.6360   24.5580  -29.4170 O   0  0  0  0  0  0  0  0  0  0  0  0
   -3.7070   23.7730  -28.3930 O   0  0  0  0  0  0  0  0  0  0  0  0
   -3.9070   25.2910  -30.5650 N   0  0  0  0  0  0  0  0  0  0  0  0
   -5.2900   25.3870  -30.0850 C   0  0  0  0  0  0  0  0  0  0  0  0
   -6.1390   24.2860  -30.6690 C   0  0  0  0  0  0  0  0  0  0  0  0
   -6.3580   24.1950  -32.0540 C   0  0  0  0  0  0  0  0  0  0  0  0
   -7.0660   23.1190  -32.5940 C   0  0  0  0  0  0  0  0  0  0  0  0
   -7.5530   22.0970  -31.7600 C   0  0  0  0  0  0  0  0  0  0  0  0
   -8.2910   20.9450  -32.3310 C   0  0  0  0  0  0  0  0  0  0  0  0
   -9.4720   20.7050  -31.9570 O   0  0  0  0  0  0  0  0  0  0  0  0
   -7.6600   20.0850  -33.2890 N   0  0  0  0  0  0  0  0  0  0  0  0
   -6.8790   18.9340  -32.9410 C   0  0  0  0  0  0  0  0  0  0  0  0
   -6.8320   18.5400  -31.5970 C   0  0  0  0  0  0  0  0  0  0  0  0
   -6.1170   17.4000  -31.2160 C   0  0  0  0  0  0  0  0  0  0  0  0
   -5.4310   16.6540  -32.1740 C   0  0  0  0  0  0  0  0  0  0  0  0
   -5.4410   17.0550  -33.5120 C   0  0  0  0  0  0  0  0  0  0  0  0
   -6.1470   18.2030  -33.9070 C   0  0  0  0  0  0  0  0  0  0  0  0
   -6.0610   18.6400  -35.2690 N   0  0  0  0  0  0  0  0  0  0  0  0
   -7.3200   22.1820  -30.3760 C   0  0  0  0  0  0  0  0  0  0  0  0
   -6.6130   23.2610  -29.8380 C   0  0  0  0  0  0  0  0  0  0  0  0
   -1.8900   21.6880  -30.4690 C   0  0  0  0  0  0  0  0  0  0  0  0
   -1.7690   20.5920  -31.3330 C   0  0  0  0  0  0  0  0  0  0  0  0
   -0.5707   19.1242  -27.1747 H   0  0  0  0  0  0  0  0  0  0  0  0
   -1.7196   19.3710  -28.5332 H   0  0  0  0  0  0  0  0  0  0  0  0
   -0.6206   17.9501  -28.5332 H   0  0  0  0  0  0  0  0  0  0  0  0
    0.1033   20.8964  -28.8964 H   0  0  0  0  0  0  0  0  0  0  0  0
    1.3219   19.5965  -28.5685 H   0  0  0  0  0  0  0  0  0  0  0  0
   -0.3218   18.3792  -32.9791 H   0  0  0  0  0  0  0  0  0  0  0  0
   -1.3752   17.5695  -31.8073 H   0  0  0  0  0  0  0  0  0  0  0  0
   -2.1535   19.2765  -34.0930 H   0  0  0  0  0  0  0  0  0  0  0  0
   -3.2395   18.3912  -33.0390 H   0  0  0  0  0  0  0  0  0  0  0  0
   -5.6660   20.9330  -33.3680 H   0  0  0  0  0  0  0  0  0  0  0  0
   -4.6820   23.0971  -31.8915 H   0  0  0  0  0  0  0  0  0  0  0  0
   -5.2973   25.3043  -28.9881 H   0  0  0  0  0  0  0  0  0  0  0  0
   -5.7051   26.3559  -30.3996 H   0  0  0  0  0  0  0  0  0  0  0  0
   -5.9679   24.9791  -32.7196 H   0  0  0  0  0  0  0  0  0  0  0  0
   -7.2437   23.0707  -33.6785 H   0  0  0  0  0  0  0  0  0  0  0  0
   -7.3615   19.1319  -30.8359 H   0  0  0  0  0  0  0  0  0  0  0  0
   -6.0957   17.0917  -30.1603 H   0  0  0  0  0  0  0  0  0  0  0  0
   -4.8815   15.7490  -31.8757 H   0  0  0  0  0  0  0  0  0  0  0  0
   -4.8917   16.4671  -34.2621 H   0  0  0  0  0  0  0  0  0  0  0  0
   -6.7460   19.3150  -35.6750 H   0  0  0  0  0  0  0  0  0  0  0  0
   -5.2580   18.3440  -35.8690 H   0  0  0  0  0  0  0  0  0  0  0  0
   -7.6977   21.3919  -29.7104 H   0  0  0  0  0  0  0  0  0  0  0  0
   -6.4271   23.3064  -28.7548 H   0  0  0  0  0  0  0  0  0  0  0  0
   -1.1817   21.8296  -29.6394 H   0  0  0  0  0  0  0  0  0  0  0  0
  1  2  1  0
  2  3  1  0
  3  4  2  0
  3  5  1  0
  5  6  1  0
  6  7  1  0
  7  8  1  0
  8  9  2  0
  9 10  1  0
  9 11  1  0
 11 12  2  0
 12 13  1  0
 13 14  2  0
 13 15  2  0
 13 16  1  0
 16 17  1  0
 17 18  1  0
 18 19  2  0
 19 20  1  0
 20 21  2  0
 21 22  1  0
 22 23  2  0
 22 24  1  0
 24 25  1  0
 25 26  2  0
 26 27  1  0
 27 28  2  0
 28 29  1  0
 29 30  2  0
 30 31  1  0
 21 32  1  0
 32 33  2  0
 12 34  1  0
 34 35  2  0
 35  5  1  0
 35  8  1  0
 33 18  1  0
 30 25  1  0
  1 36  1  0
  1 37  1  0
  1 38  1  0
  2 39  1  0
  2 40  1  0
  6 41  1  0
  6 42  1  0
  7 43  1  0
  7 44  1  0
 10 45  1  0
 11 46  1  0
 17 47  1  0
 17 48  1  0
 19 49  1  0
 20 50  1  0
 26 51  1  0
 27 52  1  0
 28 53  1  0
 29 54  1  0
 31 55  1  0
 31 56  1  0
 32 57  1  0
 33 58  1  0
 34 59  1  0
M  CHG  2  16  -1  24  -1
M  END
>  <UniqueID>  (21) 
21

>  <SMILES>  (21) 
CCC(=O)N1CCc2c(O)cc(S(=O)(=O)[N-]Cc3ccc(C(=O)[N-]c4ccccc4N)cc3)cc21

>  <Energy>  (21) 
83.67479069362435

>  <Genealogy>  (21) 
CCC(=O)N1CCc2c(O)cc(S(=O)(=O)[N-]Cc3ccc(C(=O)[N-]c4ccccc4N)cc3)cc21 (protonated)
CCC(=O)N1CCc2c(O)cc(S(=O)(=O)[N-]Cc3ccc(C(=O)[N-]c4ccccc4N)cc3)cc21 (3D coordinates assigned)
CCC(=O)N1CCc2c(O)cc(S(=O)(=O)[N-]Cc3ccc(C(=O)[N-]c4ccccc4N)cc3)cc21 (nonaromatic ring conformer: 83.67479069362435 kcal/mol)

>  <smiles>  (21) 
CCC(=O)N1CCc2c(O)cc(S(=O)(=O)NCc3ccc(C(=O)Nc4ccccc4N)cc3)cc21

>  <score_type>  (21) 
oracle

>  <origin>  (21) 
adgpu

>  <m_score__min__energy>  (21) 
-11.359999999999999

>  <m_primary>  (21) 
energy

$$$$
21:0
     RDKit          3D

 50 53  0  0  0  0  0  0  0  0999 V2000
   -0.4210   22.9120  -25.1020 C   0  0  0  0  0  0  0  0  0  0  0  0
   -0.8520   22.1540  -26.2280 O   0  0  0  0  0  0  0  0  0  0  0  0
   -1.7030   22.6410  -27.2330 C   0  0  0  0  0  0  0  0  0  0  0  0
   -2.8170   21.9140  -27.6970 C   0  0  0  0  0  0  0  0  0  0  0  0
   -3.6260   22.4390  -28.7110 C   0  0  0  0  0  0  0  0  0  0  0  0
   -3.3410   23.6920  -29.2780 C   0  0  0  0  0  0  0  0  0  0  0  0
   -4.2040   24.2400  -30.3490 C   0  0  0  0  0  0  0  0  0  0  0  0
   -3.8820   25.3410  -30.8800 O   0  0  0  0  0  0  0  0  0  0  0  0
   -5.4180   23.5260  -30.8290 C   0  0  0  0  0  0  0  0  0  0  0  0
   -6.6860   24.1090  -30.6750 C   0  0  0  0  0  0  0  0  0  0  0  0
   -7.8250   23.4390  -31.1010 C   0  0  0  0  0  0  0  0  0  0  0  0
   -7.7060   22.1700  -31.6740 C   0  0  0  0  0  0  0  0  0  0  0  0
   -8.7490   21.5760  -32.0650 O   0  0  0  0  0  0  0  0  0  0  0  0
   -6.4740   21.5830  -31.8120 N   0  0  0  0  0  0  0  0  0  0  0  0
   -6.3670   20.2640  -32.3860 C   0  0  0  0  0  0  0  0  0  0  0  0
   -6.5790   19.1280  -31.5890 C   0  0  0  0  0  0  0  0  0  0  0  0
   -6.4860   17.8470  -32.1460 C   0  0  0  0  0  0  0  0  0  0  0  0
   -6.1770   17.6930  -33.5040 C   0  0  0  0  0  0  0  0  0  0  0  0
   -6.0490   16.0530  -34.2140 S   0  0  0  0  0  0  0  0  0  0  0  0
   -4.3510   15.8560  -33.6770 C   0  0  0  0  0  0  0  0  0  0  0  0
   -3.4340   16.9000  -33.8500 C   0  0  0  0  0  0  0  0  0  0  0  0
   -2.1100   16.7480  -33.4210 C   0  0  0  0  0  0  0  0  0  0  0  0
   -1.6990   15.5510  -32.8160 C   0  0  0  0  0  0  0  0  0  0  0  0
   -0.3830   15.3930  -32.3810 O   0  0  0  0  0  0  0  0  0  0  0  0
   -2.6180   14.5050  -32.6470 C   0  0  0  0  0  0  0  0  0  0  0  0
   -2.2220   13.3170  -32.0460 O   0  0  0  0  0  0  0  0  0  0  0  0
   -3.9400   14.6570  -33.0800 C   0  0  0  0  0  0  0  0  0  0  0  0
   -5.9630   18.8240  -34.3040 C   0  0  0  0  0  0  0  0  0  0  0  0
   -6.0580   20.1050  -33.7480 C   0  0  0  0  0  0  0  0  0  0  0  0
   -5.3380   22.2370  -31.4050 C   0  0  0  0  0  0  0  0  0  0  0  0
   -4.0950   21.6230  -31.5570 O   0  0  0  0  0  0  0  0  0  0  0  0
   -2.2350   24.4250  -28.8010 C   0  0  0  0  0  0  0  0  0  0  0  0
   -1.9210   25.6690  -29.3380 O   0  0  0  0  0  0  0  0  0  0  0  0
   -1.4250   23.8970  -27.7890 C   0  0  0  0  0  0  0  0  0  0  0  0
   -0.7153   22.3944  -24.1771 H   0  0  0  0  0  0  0  0  0  0  0  0
    0.6734   23.0196  -25.1296 H   0  0  0  0  0  0  0  0  0  0  0  0
   -0.8881   23.9075  -25.1296 H   0  0  0  0  0  0  0  0  0  0  0  0
   -3.0514   20.9315  -27.2613 H   0  0  0  0  0  0  0  0  0  0  0  0
   -4.4938   21.8646  -29.0675 H   0  0  0  0  0  0  0  0  0  0  0  0
   -6.7776   25.1034  -30.2137 H   0  0  0  0  0  0  0  0  0  0  0  0
   -8.8153   23.9044  -30.9881 H   0  0  0  0  0  0  0  0  0  0  0  0
   -6.8193   19.2449  -30.5220 H   0  0  0  0  0  0  0  0  0  0  0  0
   -6.6556   16.9606  -31.5171 H   0  0  0  0  0  0  0  0  0  0  0  0
   -3.7541   17.8400  -34.3232 H   0  0  0  0  0  0  0  0  0  0  0  0
   -1.3907   17.5688  -33.5586 H   0  0  0  0  0  0  0  0  0  0  0  0
   -0.0630   14.5290  -31.9590 H   0  0  0  0  0  0  0  0  0  0  0  0
   -4.6579   13.8335  -32.9514 H   0  0  0  0  0  0  0  0  0  0  0  0
   -5.7201   18.7046  -35.3702 H   0  0  0  0  0  0  0  0  0  0  0  0
   -5.8903   20.9903  -34.3790 H   0  0  0  0  0  0  0  0  0  0  0  0
   -0.5614   24.4738  -27.4264 H   0  0  0  0  0  0  0  0  0  0  0  0
  1  2  1  0
  2  3  1  0
  3  4  2  0
  4  5  1  0
  5  6  2  0
  6  7  1  0
  7  8  2  0
  7  9  1  0
  9 10  1  0
 10 11  2  0
 11 12  1  0
 12 13  2  0
 12 14  1  0
 14 15  1  0
 15 16  2  0
 16 17  1  0
 17 18  2  0
 18 19  1  0
 19 20  1  0
 20 21  2  0
 21 22  1  0
 22 23  2  0
 23 24  1  0
 23 25  1  0
 25 26  1  0
 25 27  2  0
 18 28  1  0
 28 29  2  0
 14 30  1  0
 30 31  1  0
  6 32  1  0
 32 33  1  0
 32 34  2  0
 34  3  1  0
 30  9  2  0
 29 15  1  0
 27 20  1  0
  1 35  1  0
  1 36  1  0
  1 37  1  0
  4 38  1  0
  5 39  1  0
 10 40  1  0
 11 41  1  0
 16 42  1  0
 17 43  1  0
 21 44  1  0
 22 45  1  0
 24 46  1  0
 27 47  1  0
 28 48  1  0
 29 49  1  0
 34 50  1  0
M  CHG  3  26  -1  31  -1  33  -1
M  END
>  <UniqueID>  (22) 
22

>  <SMILES>  (22) 
COc1ccc(C(=O)c2ccc(=O)n(-c3ccc(Sc4ccc(O)c([O-])c4)cc3)c2[O-])c([O-])c1

>  <Energy>  (22) 
68.85990597513597

>  <Genealogy>  (22) 
COc1ccc(C(=O)c2ccc(=O)n(-c3ccc(Sc4ccc(O)c([O-])c4)cc3)c2[O-])c([O-])c1 (protonated)
COc1ccc(C(=O)c2ccc(=O)n(-c3ccc(Sc4ccc(O)c([O-])c4)cc3)c2[O-])c([O-])c1 (3D coordinates assigned)
COc1ccc(C(=O)c2ccc(=O)n(-c3ccc(Sc4ccc(O)c([O-])c4)cc3)c2[O-])c([O-])c1 (optimized conformer: 68.85990597513597 kcal/mol)

>  <smiles>  (22) 
COc1ccc(C(=O)c2ccc(=O)n(-c3ccc(Sc4ccc(O)c(O)c4)cc3)c2O)c(O)c1

>  <score_type>  (22) 
oracle

>  <origin>  (22) 
adgpu

>  <m_score__min__energy>  (22) 
-12.85

>  <m_primary>  (22) 
energy

$$$$
22:0
     RDKit          3D

 58 61  0  0  0  0  0  0  0  0999 V2000
    1.5890   21.7380  -36.0810 C   0  0  0  0  0  0  0  0  0  0  0  0
    0.8370   21.1520  -34.9210 C   0  0  0  0  0  0  0  0  0  0  0  0
    1.5330   20.5910  -33.8400 C   0  0  0  0  0  0  0  0  0  0  0  0
    0.8320   20.0340  -32.7660 C   0  0  0  0  0  0  0  0  0  0  0  0
   -0.5650   20.0150  -32.7750 C   0  0  0  0  0  0  0  0  0  0  0  0
   -1.2730   20.5320  -33.8690 C   0  0  0  0  0  0  0  0  0  0  0  0
   -2.7080   20.5070  -33.8520 N   0  0  0  0  0  0  0  0  0  0  0  0
   -3.4780   19.4810  -33.2040 C   0  0  0  0  0  0  0  0  0  0  0  0
   -2.9230   18.4250  -32.7970 O   0  0  0  0  0  0  0  0  0  0  0  0
   -4.9320   19.6500  -33.0050 C   0  0  0  0  0  0  0  0  0  0  0  0
   -5.3960   20.8470  -32.4360 C   0  0  0  0  0  0  0  0  0  0  0  0
   -6.7600   21.0360  -32.1800 C   0  0  0  0  0  0  0  0  0  0  0  0
   -7.3250   22.5460  -31.4590 S   0  0  0  0  0  0  0  0  0  0  0  0
   -8.3630   23.1640  -32.3540 O   0  0  0  0  0  0  0  0  0  0  0  0
   -7.9710   22.2470  -30.1350 O   0  0  0  0  0  0  0  0  0  0  0  0
   -6.0170   23.6760  -31.2130 N   0  0  0  0  0  0  0  0  0  0  0  0
   -4.9760   23.0850  -30.3550 C   0  0  0  0  0  0  0  0  0  0  0  0
   -3.9420   24.1520  -29.9410 C   0  0  0  0  0  0  0  0  0  0  0  0
   -4.0920   25.3310  -30.7070 O   0  0  0  0  0  0  0  0  0  0  0  0
   -5.3520   25.9220  -30.4370 C   0  0  0  0  0  0  0  0  0  0  0  0
   -6.5160   24.9240  -30.6190 C   0  0  0  0  0  0  0  0  0  0  0  0
   -7.6690   20.0220  -32.4990 C   0  0  0  0  0  0  0  0  0  0  0  0
   -7.2240   18.8380  -33.0870 C   0  0  0  0  0  0  0  0  0  0  0  0
   -5.8610   18.6390  -33.3540 C   0  0  0  0  0  0  0  0  0  0  0  0
   -5.4560   17.4460  -34.0520 N   0  0  0  0  0  0  0  0  0  0  0  0
   -5.6520   16.1330  -33.4270 C   0  0  0  0  0  0  0  0  0  0  0  0
   -4.7570   15.0920  -34.0960 C   0  0  0  0  0  0  0  0  0  0  0  0
   -3.4810   15.6550  -34.3180 O   0  0  0  0  0  0  0  0  0  0  0  0
   -3.5310   16.5870  -35.3870 C   0  0  0  0  0  0  0  0  0  0  0  0
   -4.7440   17.5480  -35.3350 C   0  0  0  0  0  0  0  0  0  0  0  0
   -0.5660   21.1100  -34.9380 C   0  0  0  0  0  0  0  0  0  0  0  0
    2.4046   22.3736  -35.7058 H   0  0  0  0  0  0  0  0  0  0  0  0
    2.0087   20.9264  -36.6935 H   0  0  0  0  0  0  0  0  0  0  0  0
    0.9046   22.3433  -36.6935 H   0  0  0  0  0  0  0  0  0  0  0  0
    2.6330   20.5893  -33.8372 H   0  0  0  0  0  0  0  0  0  0  0  0
    1.3814   19.6100  -31.9125 H   0  0  0  0  0  0  0  0  0  0  0  0
   -1.1121   19.5923  -31.9194 H   0  0  0  0  0  0  0  0  0  0  0  0
   -3.2090   21.3490  -34.2110 H   0  0  0  0  0  0  0  0  0  0  0  0
   -4.6804   21.6450  -32.1886 H   0  0  0  0  0  0  0  0  0  0  0  0
   -5.4458   22.6677  -29.4522 H   0  0  0  0  0  0  0  0  0  0  0  0
   -4.4611   22.2923  -30.9177 H   0  0  0  0  0  0  0  0  0  0  0  0
   -4.0823   24.3945  -28.8773 H   0  0  0  0  0  0  0  0  0  0  0  0
   -2.9340   23.7478  -30.1159 H   0  0  0  0  0  0  0  0  0  0  0  0
   -5.3571   26.2865  -29.3992 H   0  0  0  0  0  0  0  0  0  0  0  0
   -5.4986   26.7453  -31.1516 H   0  0  0  0  0  0  0  0  0  0  0  0
   -6.9667   24.7069  -29.6394 H   0  0  0  0  0  0  0  0  0  0  0  0
   -7.2708   25.3659  -31.2861 H   0  0  0  0  0  0  0  0  0  0  0  0
   -8.7393   20.1588  -32.2853 H   0  0  0  0  0  0  0  0  0  0  0  0
   -7.9493   18.0520  -33.3441 H   0  0  0  0  0  0  0  0  0  0  0  0
   -5.3984   16.1976  -32.3586 H   0  0  0  0  0  0  0  0  0  0  0  0
   -6.7034   15.8322  -33.5457 H   0  0  0  0  0  0  0  0  0  0  0  0
   -4.6630   14.2122  -33.4424 H   0  0  0  0  0  0  0  0  0  0  0  0
   -5.1988   14.7845  -35.0553 H   0  0  0  0  0  0  0  0  0  0  0  0
   -2.6116   17.1903  -35.3619 H   0  0  0  0  0  0  0  0  0  0  0  0
   -3.6313   16.0012  -36.3126 H   0  0  0  0  0  0  0  0  0  0  0  0
   -4.3881   18.5806  -35.4655 H   0  0  0  0  0  0  0  0  0  0  0  0
   -5.4402   17.2699  -36.1399 H   0  0  0  0  0  0  0  0  0  0  0  0
   -1.1154   21.5317  -35.7926 H   0  0  0  0  0  0  0  0  0  0  0  0
  1  2  1  0
  2  3  2  0
  3  4  1  0
  4  5  2  0
  5  6  1  0
  6  7  1  0
  7  8  1  0
  8  9  2  0
  8 10  1  0
 10 11  2  0
 11 12  1  0
 12 13  1  0
 13 14  2  0
 13 15  2  0
 13 16  1  0
 16 17  1  0
 17 18  1  0
 18 19  1  0
 19 20  1  0
 20 21  1  0
 12 22  2  0
 22 23  1  0
 23 24  2  0
 24 25  1  0
 25 26  1  0
 26 27  1  0
 27 28  1  0
 28 29  1  0
 29 30  1  0
  6 31  2  0
 31  2  1  0
 24 10  1  0
 30 25  1  0
 21 16  1  0
  1 32  1  0
  1 33  1  0
  1 34  1  0
  3 35  1  0
  4 36  1  0
  5 37  1  0
  7 38  1  0
 11 39  1  0
 17 40  1  0
 17 41  1  0
 18 42  1  0
 18 43  1  0
 20 44  1  0
 20 45  1  0
 21 46  1  0
 21 47  1  0
 22 48  1  0
 23 49  1  0
 26 50  1  0
 26 51  1  0
 27 52  1  0
 27 53  1  0
 29 54  1  0
 29 55  1  0
 30 56  1  0
 30 57  1  0
 31 58  1  0
M  END
>  <UniqueID>  (23) 
23

>  <SMILES>  (23) 
Cc1cccc(NC(=O)c2cc(S(=O)(=O)N3CCOCC3)ccc2N2CCOCC2)c1

>  <Energy>  (23) 
86.00873083597247

>  <Genealogy>  (23) 
Cc1cccc(NC(=O)c2cc(S(=O)(=O)N3CCOCC3)ccc2N2CCOCC2)c1 (3D coordinates assigned)
Cc1cccc(NC(=O)c2cc(S(=O)(=O)N3CCOCC3)ccc2N2CCOCC2)c1 (nonaromatic ring conformer: 86.00873083597247 kcal/mol)

>  <smiles>  (23) 
Cc1cccc(NC(=O)c2cc(S(=O)(=O)N3CCOCC3)ccc2N2CCOCC2)c1

>  <score_type>  (23) 
oracle

>  <origin>  (23) 
adgpu

>  <m_score__min__energy>  (23) 
-10.08

>  <m_primary>  (23) 
energy

$$$$
23:0
     RDKit          3D

 65 69  0  0  0  0  0  0  0  0999 V2000
   -2.7420   20.4830  -33.8940 C   0  0  0  0  0  0  0  0  0  0  0  0
   -3.0640   19.5470  -32.7080 C   0  0  0  0  0  0  0  0  0  0  0  0
   -1.7840   18.7640  -32.3420 C   0  0  0  0  0  0  0  0  0  0  0  0
   -4.1520   18.5280  -33.0780 C   0  0  0  0  0  0  0  0  0  0  0  0
   -5.3610   19.1850  -33.5470 N   0  0  0  0  0  0  0  0  0  0  0  0
   -6.2500   19.9280  -32.7030 C   0  0  0  0  0  0  0  0  0  0  0  0
   -7.6170   19.6320  -32.8130 C   0  0  0  0  0  0  0  0  0  0  0  0
   -8.5830   20.5000  -32.3190 C   0  0  0  0  0  0  0  0  0  0  0  0
   -9.8980   20.1900  -32.4410 F   0  0  0  0  0  0  0  0  0  0  0  0
   -8.2030   21.7200  -31.7740 C   0  0  0  0  0  0  0  0  0  0  0  0
   -6.8430   22.0570  -31.6560 C   0  0  0  0  0  0  0  0  0  0  0  0
   -6.4610   23.3250  -31.1860 C   0  0  0  0  0  0  0  0  0  0  0  0
   -7.3350   24.1690  -30.8430 O   0  0  0  0  0  0  0  0  0  0  0  0
   -5.1020   23.6540  -31.0980 C   0  0  0  0  0  0  0  0  0  0  0  0
   -4.6610   24.9820  -30.5970 C   0  0  0  0  0  0  0  0  0  0  0  0
   -5.2850   26.0170  -30.9480 O   0  0  0  0  0  0  0  0  0  0  0  0
   -3.5090   25.1280  -29.7500 N   0  0  0  0  0  0  0  0  0  0  0  0
   -2.7880   24.0540  -29.1270 C   0  0  0  0  0  0  0  0  0  0  0  0
   -1.5270   23.7040  -29.6230 C   0  0  0  0  0  0  0  0  0  0  0  0
   -0.8270   22.6250  -29.0730 C   0  0  0  0  0  0  0  0  0  0  0  0
   -1.3740   21.9010  -28.0050 C   0  0  0  0  0  0  0  0  0  0  0  0
   -0.5220   20.4940  -27.3710 S   0  0  0  0  0  0  0  0  0  0  0  0
    0.9000   20.8900  -27.0870 O   0  0  0  0  0  0  0  0  0  0  0  0
   -1.1550   20.0620  -26.0780 O   0  0  0  0  0  0  0  0  0  0  0  0
   -0.5330   19.1790  -28.5320 N   0  0  0  0  0  0  0  0  0  0  0  0
   -0.1930   17.8830  -27.9010 C   0  0  0  0  0  0  0  0  0  0  0  0
    1.2930   17.7780  -27.5080 C   0  0  0  0  0  0  0  0  0  0  0  0
    2.2380   18.3880  -28.5570 C   0  0  0  0  0  0  0  0  0  0  0  0
    1.5400   18.6080  -29.8970 C   0  0  0  0  0  0  0  0  0  0  0  0
    0.2950   19.5000  -29.7300 C   0  0  0  0  0  0  0  0  0  0  0  0
   -2.6190   22.2750  -27.4810 C   0  0  0  0  0  0  0  0  0  0  0  0
   -3.3180   23.3510  -28.0310 C   0  0  0  0  0  0  0  0  0  0  0  0
   -4.1530   22.6770  -31.4160 C   0  0  0  0  0  0  0  0  0  0  0  0
   -4.5190   21.4020  -31.7520 N   0  0  0  0  0  0  0  0  0  0  0  0
   -5.8410   21.1130  -32.0240 C   0  0  0  0  0  0  0  0  0  0  0  0
   -3.5250   20.3450  -31.4710 C   0  0  0  0  0  0  0  0  0  0  0  0
   -2.4066   21.4581  -33.5110 H   0  0  0  0  0  0  0  0  0  0  0  0
   -1.9458   20.0365  -34.5078 H   0  0  0  0  0  0  0  0  0  0  0  0
   -3.6444   20.6209  -34.5078 H   0  0  0  0  0  0  0  0  0  0  0  0
   -1.6898   18.7064  -31.2476 H   0  0  0  0  0  0  0  0  0  0  0  0
   -1.8440   17.7478  -32.7589 H   0  0  0  0  0  0  0  0  0  0  0  0
   -0.9066   19.2802  -32.7589 H   0  0  0  0  0  0  0  0  0  0  0  0
   -3.7706   17.8712  -33.8737 H   0  0  0  0  0  0  0  0  0  0  0  0
   -4.4019   17.9481  -32.1773 H   0  0  0  0  0  0  0  0  0  0  0  0
   -5.7090   18.9090  -34.4940 H   0  0  0  0  0  0  0  0  0  0  0  0
   -7.9296   18.6960  -33.2990 H   0  0  0  0  0  0  0  0  0  0  0  0
   -8.9722   22.4281  -31.4320 H   0  0  0  0  0  0  0  0  0  0  0  0
   -1.0844   24.2800  -30.4490 H   0  0  0  0  0  0  0  0  0  0  0  0
    0.1556   22.3440  -29.4799 H   0  0  0  0  0  0  0  0  0  0  0  0
   -1.5270   19.0990  -28.8490 H   0  0  0  0  0  0  0  0  0  0  0  0
   -0.8049   17.7628  -26.9948 H   0  0  0  0  0  0  0  0  0  0  0  0
   -0.3952   17.0935  -28.6398 H   0  0  0  0  0  0  0  0  0  0  0  0
    1.4412   18.3055  -26.5542 H   0  0  0  0  0  0  0  0  0  0  0  0
    1.5370   16.7083  -27.4287 H   0  0  0  0  0  0  0  0  0  0  0  0
    2.6046   19.3559  -28.1845 H   0  0  0  0  0  0  0  0  0  0  0  0
    3.0672   17.6833  -28.7177 H   0  0  0  0  0  0  0  0  0  0  0  0
    2.2404   19.0941  -30.5921 H   0  0  0  0  0  0  0  0  0  0  0  0
    1.2218   17.6317  -30.2913 H   0  0  0  0  0  0  0  0  0  0  0  0
    0.6283   20.5451  -29.6486 H   0  0  0  0  0  0  0  0  0  0  0  0
   -0.3409   19.3217  -30.6097 H   0  0  0  0  0  0  0  0  0  0  0  0
   -3.0467   21.7189  -26.6337 H   0  0  0  0  0  0  0  0  0  0  0  0
   -4.2872   23.6499  -27.6052 H   0  0  0  0  0  0  0  0  0  0  0  0
   -3.0852   22.9403  -31.3955 H   0  0  0  0  0  0  0  0  0  0  0  0
   -2.6405   20.8180  -31.0195 H   0  0  0  0  0  0  0  0  0  0  0  0
   -4.0192   19.6240  -30.8032 H   0  0  0  0  0  0  0  0  0  0  0  0
  1  2  1  0
  2  3  1  0
  2  4  1  0
  4  5  1  0
  5  6  1  0
  6  7  2  0
  7  8  1  0
  8  9  1  0
  8 10  2  0
 10 11  1  0
 11 12  1  0
 12 13  2  0
 12 14  1  0
 14 15  1  0
 15 16  2  0
 15 17  1  0
 17 18  1  0
 18 19  2  0
 19 20  1  0
 20 21  2  0
 21 22  1  0
 22 23  2  0
 22 24  2  0
 22 25  1  0
 25 26  1  0
 26 27  1  0
 27 28  1  0
 28 29  1  0
 29 30  1  0
 21 31  1  0
 31 32  2  0
 14 33  2  0
 33 34  1  0
 34 35  1  0
 34 36  1  0
 36  2  1  0
 35  6  1  0
 35 11  2  0
 32 18  1  0
 30 25  1  0
  1 37  1  0
  1 38  1  0
  1 39  1  0
  3 40  1  0
  3 41  1  0
  3 42  1  0
  4 43  1  0
  4 44  1  0
  5 45  1  0
  7 46  1  0
 10 47  1  0
 19 48  1  0
 20 49  1  0
 25 50  1  0
 26 51  1  0
 26 52  1  0
 27 53  1  0
 27 54  1  0
 28 55  1  0
 28 56  1  0
 29 57  1  0
 29 58  1  0
 30 59  1  0
 30 60  1  0
 31 61  1  0
 32 62  1  0
 33 63  1  0
 36 64  1  0
 36 65  1  0
M  CHG  2  17  -1  25   1
M  END
>  <UniqueID>  (24) 
24

>  <SMILES>  (24) 
CC1(C)CNc2cc(F)cc3c(=O)c(C(=O)[N-]c4ccc(S(=O)(=O)[NH+]5CCCCC5)cc4)cn(c23)C1

>  <Energy>  (24) 
105.95539224918292

>  <Genealogy>  (24) 
CC1(C)CNc2cc(F)cc3c(=O)c(C(=O)[N-]c4ccc(S(=O)(=O)[NH+]5CCCCC5)cc4)cn(c23)C1 (protonated)
CC1(C)CNc2cc(F)cc3c(=O)c(C(=O)[N-]c4ccc(S(=O)(=O)[NH+]5CCCCC5)cc4)cn(c23)C1 (3D coordinates assigned)
CC1(C)CNc2cc(F)cc3c(=O)c(C(=O)[N-]c4ccc(S(=O)(=O)[NH+]5CCCCC5)cc4)cn(c23)C1 (nonaromatic ring conformer: 105.95539224918292 kcal/mol)

>  <smiles>  (24) 
CC1(C)CNc2cc(F)cc3c(=O)c(C(=O)Nc4ccc(S(=O)(=O)N5CCCCC5)cc4)cn(c23)C1

>  <score_type>  (24) 
oracle

>  <origin>  (24) 
adgpu

>  <m_score__min__energy>  (24) 
-11.31

>  <m_primary>  (24) 
energy

$$$$
24:0
     RDKit          3D

 44 46  0  0  0  0  0  0  0  0999 V2000
    0.1480   20.3500  -28.2880 O   0  0  0  0  0  0  0  0  0  0  0  0
   -0.9110   20.0350  -28.8960 C   0  0  0  0  0  0  0  0  0  0  0  0
   -2.2190   20.0840  -28.2140 C   0  0  0  0  0  0  0  0  0  0  0  0
   -2.8500   21.2020  -27.8200 C   0  0  0  0  0  0  0  0  0  0  0  0
   -2.4390   22.5800  -28.1630 C   0  0  0  0  0  0  0  0  0  0  0  0
   -1.2780   23.1520  -27.6120 C   0  0  0  0  0  0  0  0  0  0  0  0
   -0.8840   24.4410  -27.9840 C   0  0  0  0  0  0  0  0  0  0  0  0
   -1.6310   25.1600  -28.9230 C   0  0  0  0  0  0  0  0  0  0  0  0
   -1.2340   26.4410  -29.2880 O   0  0  0  0  0  0  0  0  0  0  0  0
   -2.7700   24.5840  -29.4980 C   0  0  0  0  0  0  0  0  0  0  0  0
   -3.5100   25.2900  -30.4410 O   0  0  0  0  0  0  0  0  0  0  0  0
   -3.1660   23.2950  -29.1260 C   0  0  0  0  0  0  0  0  0  0  0  0
   -0.8480   19.5190  -30.2300 N   0  0  0  0  0  0  0  0  0  0  0  0
   -1.4860   20.0980  -31.3760 C   0  0  0  0  0  0  0  0  0  0  0  0
   -2.8850   20.0500  -31.4590 C   0  0  0  0  0  0  0  0  0  0  0  0
   -3.5530   20.6030  -32.5580 C   0  0  0  0  0  0  0  0  0  0  0  0
   -5.3120   20.5350  -32.6440 S   0  0  0  0  0  0  0  0  0  0  0  0
   -5.8320   19.7270  -31.4890 O   0  0  0  0  0  0  0  0  0  0  0  0
   -5.7300   19.8640  -33.9240 O   0  0  0  0  0  0  0  0  0  0  0  0
   -5.9570   22.1540  -32.5610 N   0  0  0  0  0  0  0  0  0  0  0  0
   -7.3060   22.1610  -31.9980 C   0  0  0  0  0  0  0  0  0  0  0  0
   -7.5000   23.5250  -31.3550 C   0  0  0  0  0  0  0  0  0  0  0  0
   -6.0970   24.0680  -31.1320 C   0  0  0  0  0  0  0  0  0  0  0  0
   -5.1590   22.9990  -31.6740 C   0  0  0  0  0  0  0  0  0  0  0  0
   -2.8200   21.2380  -33.5680 C   0  0  0  0  0  0  0  0  0  0  0  0
   -1.4280   21.3210  -33.4760 C   0  0  0  0  0  0  0  0  0  0  0  0
   -0.7580   20.7680  -32.3810 C   0  0  0  0  0  0  0  0  0  0  0  0
    0.6200   20.9240  -32.2850 O   0  0  0  0  0  0  0  0  0  0  0  0
   -2.7185   19.1250  -28.0116 H   0  0  0  0  0  0  0  0  0  0  0  0
   -3.7448   21.0828  -27.1914 H   0  0  0  0  0  0  0  0  0  0  0  0
   -0.6781   22.5834  -26.8861 H   0  0  0  0  0  0  0  0  0  0  0  0
    0.0151   24.8905  -27.5374 H   0  0  0  0  0  0  0  0  0  0  0  0
   -4.0526   22.8396  -29.5914 H   0  0  0  0  0  0  0  0  0  0  0  0
   -3.4628   19.5735  -30.6533 H   0  0  0  0  0  0  0  0  0  0  0  0
   -8.0502   22.0068  -32.7932 H   0  0  0  0  0  0  0  0  0  0  0  0
   -7.4335   21.3533  -31.2622 H   0  0  0  0  0  0  0  0  0  0  0  0
   -8.0680   24.1886  -32.0235 H   0  0  0  0  0  0  0  0  0  0  0  0
   -8.0675   23.4578  -30.4151 H   0  0  0  0  0  0  0  0  0  0  0  0
   -5.9591   25.0134  -31.6772 H   0  0  0  0  0  0  0  0  0  0  0  0
   -5.9047   24.2807  -30.0700 H   0  0  0  0  0  0  0  0  0  0  0  0
   -4.3351   23.4655  -32.2340 H   0  0  0  0  0  0  0  0  0  0  0  0
   -4.7152   22.4098  -30.8580 H   0  0  0  0  0  0  0  0  0  0  0  0
   -3.3403   21.6719  -34.4346 H   0  0  0  0  0  0  0  0  0  0  0  0
   -0.8564   21.8243  -34.2697 H   0  0  0  0  0  0  0  0  0  0  0  0
  1  2  2  0
  2  3  1  0
  3  4  2  3
  4  5  1  0
  5  6  2  0
  6  7  1  0
  7  8  2  0
  8  9  1  0
  8 10  1  0
 10 11  1  0
 10 12  2  0
  2 13  1  0
 13 14  1  0
 14 15  2  0
 15 16  1  0
 16 17  1  0
 17 18  2  0
 17 19  2  0
 17 20  1  0
 20 21  1  0
 21 22  1  0
 22 23  1  0
 23 24  1  0
 16 25  2  0
 25 26  1  0
 26 27  2  0
 27 28  1  0
 12  5  1  0
 27 14  1  0
 24 20  1  0
  3 29  1  0
  4 30  1  0
  6 31  1  0
  7 32  1  0
 12 33  1  0
 15 34  1  0
 21 35  1  0
 21 36  1  0
 22 37  1  0
 22 38  1  0
 23 39  1  0
 23 40  1  0
 24 41  1  0
 24 42  1  0
 25 43  1  0
 26 44  1  0
M  CHG  4   9  -1  11  -1  13  -1  28  -1
M  END
>  <UniqueID>  (25) 
25

>  <SMILES>  (25) 
O=C(C=Cc1ccc([O-])c([O-])c1)[N-]c1cc(S(=O)(=O)N2CCCC2)ccc1[O-]

>  <Energy>  (25) 
58.94842317928663

>  <Genealogy>  (25) 
O=C(C=Cc1ccc([O-])c([O-])c1)[N-]c1cc(S(=O)(=O)N2CCCC2)ccc1[O-] (protonated)
O=C(C=Cc1ccc([O-])c([O-])c1)[N-]c1cc(S(=O)(=O)N2CCCC2)ccc1[O-] (3D coordinates assigned)
O=C(C=Cc1ccc([O-])c([O-])c1)[N-]c1cc(S(=O)(=O)N2CCCC2)ccc1[O-] (nonaromatic ring conformer: 58.94842317928663 kcal/mol)

>  <smiles>  (25) 
O=C(C=Cc1ccc(O)c(O)c1)Nc1cc(S(=O)(=O)N2CCCC2)ccc1O

>  <score_type>  (25) 
oracle

>  <origin>  (25) 
adgpu

>  <m_score__min__energy>  (25) 
-16.82

>  <m_primary>  (25) 
energy

$$$$
25:0
     RDKit          3D

 66 69  0  0  0  0  0  0  0  0999 V2000
   -4.6220   16.3930  -32.6650 C   0  0  0  0  0  0  0  0  0  0  0  0
   -3.6530   17.4210  -33.1750 C   0  0  0  0  0  0  0  0  0  0  0  0
   -2.6650   17.2880  -34.1490 C   0  0  0  0  0  0  0  0  0  0  0  0
   -2.3310   16.0820  -35.0250 C   0  0  0  0  0  0  0  0  0  0  0  0
   -2.1670   14.8250  -34.1380 C   0  0  0  0  0  0  0  0  0  0  0  0
   -3.4520   15.7970  -36.0460 C   0  0  0  0  0  0  0  0  0  0  0  0
   -1.0020   16.3370  -35.7590 C   0  0  0  0  0  0  0  0  0  0  0  0
   -2.0400   18.4770  -34.2810 N   0  0  0  0  0  0  0  0  0  0  0  0
   -2.5710   19.3610  -33.4520 N   0  0  0  0  0  0  0  0  0  0  0  0
   -1.6850   20.8330  -33.1410 S   0  0  0  0  0  0  0  0  0  0  0  0
   -0.4930   21.0100  -34.0350 O   0  0  0  0  0  0  0  0  0  0  0  0
   -2.6000   21.9980  -33.3960 O   0  0  0  0  0  0  0  0  0  0  0  0
   -1.1960   20.8630  -31.4440 C   0  0  0  0  0  0  0  0  0  0  0  0
   -1.1640   22.0750  -30.7380 C   0  0  0  0  0  0  0  0  0  0  0  0
   -0.7640   22.1090  -29.3930 C   0  0  0  0  0  0  0  0  0  0  0  0
   -0.6980   23.6420  -28.5160 S   0  0  0  0  0  0  0  0  0  0  0  0
    0.6970   24.1960  -28.5990 O   0  0  0  0  0  0  0  0  0  0  0  0
   -1.6270   24.6210  -29.1770 O   0  0  0  0  0  0  0  0  0  0  0  0
   -1.1430   23.4830  -26.8320 N   0  0  0  0  0  0  0  0  0  0  0  0
   -0.1710   22.6990  -26.0760 C   0  0  0  0  0  0  0  0  0  0  0  0
   -0.3100   23.1320  -24.6260 C   0  0  0  0  0  0  0  0  0  0  0  0
   -0.9070   24.5300  -24.6860 C   0  0  0  0  0  0  0  0  0  0  0  0
   -1.2190   24.7790  -26.1570 C   0  0  0  0  0  0  0  0  0  0  0  0
   -0.4340   20.9130  -28.7430 C   0  0  0  0  0  0  0  0  0  0  0  0
   -0.4570   19.7040  -29.4390 C   0  0  0  0  0  0  0  0  0  0  0  0
   -0.8270   19.6720  -30.7890 C   0  0  0  0  0  0  0  0  0  0  0  0
   -0.8300   18.4600  -31.4790 O   0  0  0  0  0  0  0  0  0  0  0  0
   -3.5750   18.7420  -32.7710 C   0  0  0  0  0  0  0  0  0  0  0  0
   -4.4090   19.2610  -31.9130 N   0  0  0  0  0  0  0  0  0  0  0  0
   -4.6970   20.6290  -31.6240 C   0  0  0  0  0  0  0  0  0  0  0  0
   -5.3410   21.4110  -32.5890 C   0  0  0  0  0  0  0  0  0  0  0  0
   -5.5570   22.7740  -32.3640 C   0  0  0  0  0  0  0  0  0  0  0  0
   -5.0980   23.3830  -31.1850 C   0  0  0  0  0  0  0  0  0  0  0  0
   -5.3230   24.7850  -30.9510 N   0  0  0  0  0  0  0  0  0  0  0  0
   -6.4850   25.2370  -30.8620 O   0  0  0  0  0  0  0  0  0  0  0  0
   -4.2630   25.6540  -30.8400 O   0  0  0  0  0  0  0  0  0  0  0  0
   -4.4060   22.6010  -30.2420 C   0  0  0  0  0  0  0  0  0  0  0  0
   -4.2000   21.2350  -30.4630 C   0  0  0  0  0  0  0  0  0  0  0  0
   -4.6170   16.3983  -31.5650 H   0  0  0  0  0  0  0  0  0  0  0  0
   -5.6329   16.6300  -33.0282 H   0  0  0  0  0  0  0  0  0  0  0  0
   -4.3258   15.3979  -33.0282 H   0  0  0  0  0  0  0  0  0  0  0  0
   -2.2051   15.1167  -33.0781 H   0  0  0  0  0  0  0  0  0  0  0  0
   -2.9803   14.1161  -34.3527 H   0  0  0  0  0  0  0  0  0  0  0  0
   -1.1991   14.3485  -34.3527 H   0  0  0  0  0  0  0  0  0  0  0  0
   -4.3836   15.5602  -35.5111 H   0  0  0  0  0  0  0  0  0  0  0  0
   -3.6071   16.6843  -36.6774 H   0  0  0  0  0  0  0  0  0  0  0  0
   -3.1645   14.9434  -36.6774 H   0  0  0  0  0  0  0  0  0  0  0  0
   -0.1999   16.4909  -35.0222 H   0  0  0  0  0  0  0  0  0  0  0  0
   -0.7590   15.4691  -36.3896 H   0  0  0  0  0  0  0  0  0  0  0  0
   -1.0975   17.2332  -36.3896 H   0  0  0  0  0  0  0  0  0  0  0  0
   -1.4552   23.0076  -31.2434 H   0  0  0  0  0  0  0  0  0  0  0  0
   -0.3877   21.6251  -26.1754 H   0  0  0  0  0  0  0  0  0  0  0  0
    0.8514   22.8642  -26.4466 H   0  0  0  0  0  0  0  0  0  0  0  0
   -0.9789   22.4494  -24.0814 H   0  0  0  0  0  0  0  0  0  0  0  0
    0.6544   23.1178  -24.0971 H   0  0  0  0  0  0  0  0  0  0  0  0
   -1.8265   24.5811  -24.0844 H   0  0  0  0  0  0  0  0  0  0  0  0
   -0.2166   25.2854  -24.2826 H   0  0  0  0  0  0  0  0  0  0  0  0
   -2.2287   25.2024  -26.2633 H   0  0  0  0  0  0  0  0  0  0  0  0
   -0.5072   25.4940  -26.5953 H   0  0  0  0  0  0  0  0  0  0  0  0
   -0.1554   20.9270  -27.6789 H   0  0  0  0  0  0  0  0  0  0  0  0
   -0.1830   18.7711  -28.9245 H   0  0  0  0  0  0  0  0  0  0  0  0
   -1.0420   18.4110  -32.4680 H   0  0  0  0  0  0  0  0  0  0  0  0
   -5.6791   20.9513  -33.5294 H   0  0  0  0  0  0  0  0  0  0  0  0
   -6.0905   23.3737  -33.1162 H   0  0  0  0  0  0  0  0  0  0  0  0
   -4.0234   23.0680  -29.3225 H   0  0  0  0  0  0  0  0  0  0  0  0
   -3.6471   20.6362  -29.7242 H   0  0  0  0  0  0  0  0  0  0  0  0
  1  2  1  0
  2  3  2  0
  3  4  1  0
  4  5  1  0
  4  6  1  0
  4  7  1  0
  3  8  1  0
  8  9  1  0
  9 10  1  0
 10 11  2  0
 10 12  2  0
 10 13  1  0
 13 14  2  0
 14 15  1  0
 15 16  1  0
 16 17  2  0
 16 18  2  0
 16 19  1  0
 19 20  1  0
 20 21  1  0
 21 22  1  0
 22 23  1  0
 15 24  2  0
 24 25  1  0
 25 26  2  0
 26 27  1  0
  9 28  1  0
 28 29  2  3
 29 30  1  0
 30 31  2  0
 31 32  1  0
 32 33  2  0
 33 34  1  0
 34 35  2  0
 34 36  1  0
 33 37  1  0
 37 38  2  0
 28  2  1  0
 38 30  1  0
 26 13  1  0
 23 19  1  0
  1 39  1  0
  1 40  1  0
  1 41  1  0
  5 42  1  0
  5 43  1  0
  5 44  1  0
  6 45  1  0
  6 46  1  0
  6 47  1  0
  7 48  1  0
  7 49  1  0
  7 50  1  0
 14 51  1  0
 20 52  1  0
 20 53  1  0
 21 54  1  0
 21 55  1  0
 22 56  1  0
 22 57  1  0
 23 58  1  0
 23 59  1  0
 24 60  1  0
 25 61  1  0
 27 62  1  0
 31 63  1  0
 32 64  1  0
 37 65  1  0
 38 66  1  0
M  CHG  3   8  -1  34   1  36  -1
M  END
>  <UniqueID>  (26) 
26

>  <SMILES>  (26) 
Cc1c(C(C)(C)C)[n-]n(S(=O)(=O)c2cc(S(=O)(=O)N3CCCC3)ccc2O)c1=Nc1ccc([N+](=O)[O-])cc1

>  <Energy>  (26) 
120.41807740808527

>  <Genealogy>  (26) 
Cc1c(C(C)(C)C)[n-]n(S(=O)(=O)c2cc(S(=O)(=O)N3CCCC3)ccc2O)c1=Nc1ccc([N+](=O)[O-])cc1 (protonated)
Cc1c(C(C)(C)C)[n-]n(S(=O)(=O)c2cc(S(=O)(=O)N3CCCC3)ccc2O)c1=Nc1ccc([N+](=O)[O-])cc1 (3D coordinates assigned)
Cc1c(C(C)(C)C)[n-]n(S(=O)(=O)c2cc(S(=O)(=O)N3CCCC3)ccc2O)c1=Nc1ccc([N+](=O)[O-])cc1 (nonaromatic ring conformer: 120.41807740808527 kcal/mol)

>  <smiles>  (26) 
Cc1c(C(C)(C)C)[nH]n(S(=O)(=O)c2cc(S(=O)(=O)N3CCCC3)ccc2O)c1=Nc1ccc([N+](=O)[O-])cc1

>  <score_type>  (26) 
oracle

>  <origin>  (26) 
adgpu

>  <m_score__min__energy>  (26) 
-11.07

>  <m_primary>  (26) 
energy

$$$$
26:0
     RDKit          3D

 52 55  0  0  0  0  0  0  0  0999 V2000
   -1.2080   27.5660  -25.1710 C   0  0  0  0  0  0  0  0  0  0  0  0
   -1.0600   26.1050  -25.4970 C   0  0  0  0  0  0  0  0  0  0  0  0
   -2.1150   25.4200  -26.1290 C   0  0  0  0  0  0  0  0  0  0  0  0
   -1.9880   24.0570  -26.4530 C   0  0  0  0  0  0  0  0  0  0  0  0
   -3.0230   23.3350  -27.0740 O   0  0  0  0  0  0  0  0  0  0  0  0
   -2.8600   22.5460  -28.2210 C   0  0  0  0  0  0  0  0  0  0  0  0
   -2.8320   21.1560  -28.0690 C   0  0  0  0  0  0  0  0  0  0  0  0
   -2.6070   20.3250  -29.1680 C   0  0  0  0  0  0  0  0  0  0  0  0
   -2.4520   20.8750  -30.4530 C   0  0  0  0  0  0  0  0  0  0  0  0
   -2.2340   20.0660  -31.6170 N   0  0  0  0  0  0  0  0  0  0  0  0
   -3.0460   20.2350  -33.1390 S   0  0  0  0  0  0  0  0  0  0  0  0
   -2.1280   19.7710  -34.2370 O   0  0  0  0  0  0  0  0  0  0  0  0
   -3.3670   21.6860  -33.3590 O   0  0  0  0  0  0  0  0  0  0  0  0
   -4.5540   19.3250  -33.1540 C   0  0  0  0  0  0  0  0  0  0  0  0
   -4.5580   17.9610  -33.4750 C   0  0  0  0  0  0  0  0  0  0  0  0
   -5.7550   17.2390  -33.4500 C   0  0  0  0  0  0  0  0  0  0  0  0
   -6.9520   17.8740  -33.1060 C   0  0  0  0  0  0  0  0  0  0  0  0
   -6.9540   19.2370  -32.7910 C   0  0  0  0  0  0  0  0  0  0  0  0
   -8.4550   20.0330  -32.3540 Cl  0  0  0  0  0  0  0  0  0  0  0  0
   -5.7560   19.9620  -32.8110 C   0  0  0  0  0  0  0  0  0  0  0  0
   -2.4990   22.2660  -30.6080 C   0  0  0  0  0  0  0  0  0  0  0  0
   -2.7090   23.1130  -29.5080 C   0  0  0  0  0  0  0  0  0  0  0  0
   -2.7610   24.5740  -29.7290 C   0  0  0  0  0  0  0  0  0  0  0  0
   -1.8640   25.3010  -29.2220 O   0  0  0  0  0  0  0  0  0  0  0  0
   -3.8480   25.1530  -30.4690 N   0  0  0  0  0  0  0  0  0  0  0  0
   -5.1340   24.5770  -30.7510 C   0  0  0  0  0  0  0  0  0  0  0  0
   -5.2160   23.5540  -31.7030 C   0  0  0  0  0  0  0  0  0  0  0  0
   -6.4500   22.9890  -32.0240 C   0  0  0  0  0  0  0  0  0  0  0  0
   -7.6030   23.4670  -31.3980 C   0  0  0  0  0  0  0  0  0  0  0  0
   -7.5160   24.4810  -30.4960 N   0  0  0  0  0  0  0  0  0  0  0  0
   -6.3260   25.0450  -30.1640 C   0  0  0  0  0  0  0  0  0  0  0  0
   -0.7930   23.3920  -26.1670 C   0  0  0  0  0  0  0  0  0  0  0  0
    0.2630   24.0650  -25.5450 C   0  0  0  0  0  0  0  0  0  0  0  0
    0.1390   25.4170  -25.2080 C   0  0  0  0  0  0  0  0  0  0  0  0
    1.5100   26.2230  -24.4390 Cl  0  0  0  0  0  0  0  0  0  0  0  0
   -1.2214   27.6985  -24.0791 H   0  0  0  0  0  0  0  0  0  0  0  0
   -0.3618   28.1245  -25.5978 H   0  0  0  0  0  0  0  0  0  0  0  0
   -2.1490   27.9434  -25.5978 H   0  0  0  0  0  0  0  0  0  0  0  0
   -3.0454   25.9544  -26.3713 H   0  0  0  0  0  0  0  0  0  0  0  0
   -2.9887   20.7134  -27.0742 H   0  0  0  0  0  0  0  0  0  0  0  0
   -2.5507   19.2354  -29.0282 H   0  0  0  0  0  0  0  0  0  0  0  0
   -3.6184   17.4578  -33.7469 H   0  0  0  0  0  0  0  0  0  0  0  0
   -5.7549   16.1682  -33.7017 H   0  0  0  0  0  0  0  0  0  0  0  0
   -7.8915   17.3024  -33.0830 H   0  0  0  0  0  0  0  0  0  0  0  0
   -5.7575   21.0324  -32.5574 H   0  0  0  0  0  0  0  0  0  0  0  0
   -2.3691   22.7028  -31.6092 H   0  0  0  0  0  0  0  0  0  0  0  0
   -4.3031   23.1942  -32.2001 H   0  0  0  0  0  0  0  0  0  0  0  0
   -6.5143   22.1759  -32.7621 H   0  0  0  0  0  0  0  0  0  0  0  0
   -8.5815   23.0235  -31.6344 H   0  0  0  0  0  0  0  0  0  0  0  0
   -6.2929   25.8686  -29.4356 H   0  0  0  0  0  0  0  0  0  0  0  0
   -0.6821   22.3305  -26.4333 H   0  0  0  0  0  0  0  0  0  0  0  0
    1.1964   23.5284  -25.3194 H   0  0  0  0  0  0  0  0  0  0  0  0
  1  2  1  0
  2  3  2  0
  3  4  1  0
  4  5  1  0
  5  6  1  0
  6  7  2  0
  7  8  1  0
  8  9  2  0
  9 10  1  0
 10 11  1  0
 11 12  2  0
 11 13  2  0
 11 14  1  0
 14 15  2  0
 15 16  1  0
 16 17  2  0
 17 18  1  0
 18 19  1  0
 18 20  2  0
  9 21  1  0
 21 22  2  0
 22 23  1  0
 23 24  2  0
 23 25  1  0
 25 26  1  0
 26 27  2  0
 27 28  1  0
 28 29  2  0
 29 30  1  0
 30 31  2  0
  4 32  2  0
 32 33  1  0
 33 34  2  0
 34 35  1  0
 34  2  1  0
 22  6  1  0
 31 26  1  0
 20 14  1  0
  1 36  1  0
  1 37  1  0
  1 38  1  0
  3 39  1  0
  7 40  1  0
  8 41  1  0
 15 42  1  0
 16 43  1  0
 17 44  1  0
 20 45  1  0
 21 46  1  0
 27 47  1  0
 28 48  1  0
 29 49  1  0
 31 50  1  0
 32 51  1  0
 33 52  1  0
M  CHG  2  10  -1  25  -1
M  END
>  <UniqueID>  (27) 
27

>  <SMILES>  (27) 
Cc1cc(Oc2ccc([N-]S(=O)(=O)c3cccc(Cl)c3)cc2C(=O)[N-]c2cccnc2)ccc1Cl

>  <Energy>  (27) 
75.47016427005441

>  <Genealogy>  (27) 
Cc1cc(Oc2ccc([N-]S(=O)(=O)c3cccc(Cl)c3)cc2C(=O)[N-]c2cccnc2)ccc1Cl (protonated)
Cc1cc(Oc2ccc([N-]S(=O)(=O)c3cccc(Cl)c3)cc2C(=O)[N-]c2cccnc2)ccc1Cl (3D coordinates assigned)
Cc1cc(Oc2ccc([N-]S(=O)(=O)c3cccc(Cl)c3)cc2C(=O)[N-]c2cccnc2)ccc1Cl (optimized conformer: 75.47016427005441 kcal/mol)

>  <smiles>  (27) 
Cc1cc(Oc2ccc(NS(=O)(=O)c3cccc(Cl)c3)cc2C(=O)Nc2cccnc2)ccc1Cl

>  <score_type>  (27) 
oracle

>  <origin>  (27) 
adgpu

>  <m_score__min__energy>  (27) 
-12.550000000000001

>  <m_primary>  (27) 
energy

$$$$
27:0
     RDKit          3D

 70 74  0  0  1  0  0  0  0  0999 V2000
   -1.5420   26.0740  -28.5370 O   0  0  0  0  0  0  0  0  0  0  0  0
   -1.1790   24.6430  -28.2660 S   0  0  0  0  0  0  0  0  0  0  0  0
    0.2760   24.4880  -28.5680 O   0  0  0  0  0  0  0  0  0  0  0  0
   -2.1390   23.6290  -29.3080 C   0  0  0  0  0  0  0  0  0  0  0  0
   -3.1400   24.1870  -30.0640 C   0  0  0  0  0  0  0  0  0  0  0  0
   -3.9250   23.4240  -30.9040 C   0  0  0  0  0  0  0  0  0  0  0  0
   -3.7480   22.0420  -31.0320 C   0  0  0  0  0  0  0  0  0  0  0  0
   -4.5880   21.2280  -31.9380 C   0  0  0  0  0  0  0  0  0  0  0  0
   -3.8750   20.3000  -32.7640 N   0  0  0  0  0  0  0  0  0  0  0  0
   -4.2650   19.0870  -33.2090 C   0  0  0  0  0  0  0  0  0  0  0  0
   -5.5320   18.3680  -32.9750 C   0  0  0  0  0  0  0  0  0  0  0  0
   -6.1690   18.7370  -31.6540 C   0  0  0  0  0  0  0  0  0  0  0  0
   -7.4110   19.5330  -31.8300 C   0  0  0  0  0  0  0  0  0  0  0  0
   -8.4540   18.9860  -32.5840 C   0  0  0  0  0  0  0  0  0  0  0  0
   -9.6290   19.7150  -32.7640 C   0  0  0  0  0  0  0  0  0  0  0  0
   -9.7060   20.9620  -32.1790 C   0  0  0  0  0  0  0  0  0  0  0  0
   -8.6880   21.5100  -31.4360 C   0  0  0  0  0  0  0  0  0  0  0  0
   -7.5060   20.7820  -31.2530 C   0  0  0  0  0  0  0  0  0  0  0  0
   -3.2640   18.5560  -33.9610 N   0  0  0  0  0  0  0  0  0  0  0  0
   -2.2350   19.4120  -34.0050 C   0  0  0  0  0  0  0  0  0  0  0  0
   -0.9790   19.3740  -34.6170 C   0  0  0  0  0  0  0  0  0  0  0  0
   -0.0610   20.3640  -34.5300 C   0  0  0  0  0  0  0  0  0  0  0  0
    1.2990   20.4110  -34.9620 C   0  0  0  0  0  0  0  0  0  0  0  0
    1.9560   21.3670  -35.5470 C   0  0  0  0  0  0  0  0  0  0  0  0
    1.4960   22.6600  -35.9490 C   0  0  0  0  0  0  0  0  0  0  0  0
    0.3010   23.2900  -35.7110 O   0  0  0  0  0  0  0  0  0  0  0  0
    2.3370   23.3750  -36.6590 N   0  0  0  0  0  0  0  0  0  0  0  0
    3.5790   22.9670  -37.0230 O   0  0  0  0  0  0  0  0  0  0  0  0
   -0.4670   21.4820  -33.7570 C   0  0  0  0  0  0  0  0  0  0  0  0
   -1.6960   21.5250  -33.1570 C   0  0  0  0  0  0  0  0  0  0  0  0
   -2.6260   20.5090  -33.2480 C   0  0  0  0  0  0  0  0  0  0  0  0
   -2.7320   21.5110  -30.2540 C   0  0  0  0  0  0  0  0  0  0  0  0
   -1.9450   22.2720  -29.4160 C   0  0  0  0  0  0  0  0  0  0  0  0
   -1.5280   24.2630  -26.6330 N   0  0  0  0  0  0  0  0  0  0  0  0
   -1.9740   25.3940  -25.8780 C   0  0  0  0  0  0  0  0  0  0  0  0
   -0.9330   25.9070  -24.9050 C   0  0  0  0  0  0  0  0  0  0  0  0
   -0.4780   24.8980  -23.9970 N   0  0  0  0  0  0  0  0  0  0  0  0
   -0.5580   23.5590  -24.4950 C   0  0  0  0  0  0  0  0  0  0  0  0
   -0.3770   23.6440  -26.0160 C   0  0  0  0  0  0  0  0  0  0  0  0
   -3.3209   25.2700  -29.9984 H   0  0  0  0  0  0  0  0  0  0  0  0
   -4.7139   23.9172  -31.4908 H   0  0  0  0  0  0  0  0  0  0  0  0
   -5.2990   20.6580  -31.3219 H   0  0  0  0  0  0  0  0  0  0  0  0
   -5.0713   21.9381  -32.6251 H   0  0  0  0  0  0  0  0  0  0  0  0
   -6.2329   18.6143  -33.7862 H   0  0  0  0  0  0  0  0  0  0  0  0
   -5.3069   17.2916  -32.9496 H   0  0  0  0  0  0  0  0  0  0  0  0
   -6.4149   17.8133  -31.1096 H   0  0  0  0  0  0  0  0  0  0  0  0
   -5.4504   19.3538  -31.0944 H   0  0  0  0  0  0  0  0  0  0  0  0
   -8.3482   17.9871  -33.0322 H   0  0  0  0  0  0  0  0  0  0  0  0
  -10.4656   19.3098  -33.3521 H   0  0  0  0  0  0  0  0  0  0  0  0
  -10.6279   21.5467  -32.3139 H   0  0  0  0  0  0  0  0  0  0  0  0
   -8.8005   22.5093  -30.9901 H   0  0  0  0  0  0  0  0  0  0  0  0
   -6.6743   21.1958  -30.6639 H   0  0  0  0  0  0  0  0  0  0  0  0
   -0.7204   18.4823  -35.2070 H   0  0  0  0  0  0  0  0  0  0  0  0
    1.8800   19.4969  -34.7699 H   0  0  0  0  0  0  0  0  0  0  0  0
    3.0129   21.1520  -35.7631 H   0  0  0  0  0  0  0  0  0  0  0  0
   -0.6100   22.9370  -35.9730 H   0  0  0  0  0  0  0  0  0  0  0  0
    4.3090   22.7520  -36.3520 H   0  0  0  0  0  0  0  0  0  0  0  0
    0.2206   22.3322  -33.6374 H   0  0  0  0  0  0  0  0  0  0  0  0
   -1.9572   22.4179  -32.5701 H   0  0  0  0  0  0  0  0  0  0  0  0
   -2.5439   20.4285  -30.3076 H   0  0  0  0  0  0  0  0  0  0  0  0
   -1.1524   21.7878  -28.8267 H   0  0  0  0  0  0  0  0  0  0  0  0
   -2.2283   26.2038  -26.5777 H   0  0  0  0  0  0  0  0  0  0  0  0
   -2.8441   25.0715  -25.2874 H   0  0  0  0  0  0  0  0  0  0  0  0
   -0.0706   26.2799  -25.4771 H   0  0  0  0  0  0  0  0  0  0  0  0
   -1.4014   26.7033  -24.3079 H   0  0  0  0  0  0  0  0  0  0  0  0
    0.5130   25.0970  -23.7430 H   0  0  0  0  0  0  0  0  0  0  0  0
    0.2374   22.9415  -24.0523 H   0  0  0  0  0  0  0  0  0  0  0  0
   -1.5221   23.0970  -24.2360 H   0  0  0  0  0  0  0  0  0  0  0  0
    0.5185   24.2422  -26.2403 H   0  0  0  0  0  0  0  0  0  0  0  0
   -0.2655   22.6256  -26.4166 H   0  0  0  0  0  0  0  0  0  0  0  0
  1  2  2  0
  2  3  2  0
  2  4  1  0
  4  5  2  0
  5  6  1  0
  6  7  2  0
  7  8  1  0
  8  9  1  0
  9 10  1  0
 10 11  1  0
 11 12  1  0
 12 13  1  0
 13 14  2  0
 14 15  1  0
 15 16  2  0
 16 17  1  0
 17 18  2  0
 10 19  2  0
 19 20  1  0
 20 21  2  0
 21 22  1  0
 22 23  1  0
 23 24  2  0
 24 25  1  0
 25 26  1  0
 25 27  2  0
 27 28  1  0
 22 29  2  0
 29 30  1  0
 30 31  2  0
  7 32  1  0
 32 33  2  0
  2 34  1  0
 34 35  1  0
 35 36  1  0
 36 37  1  0
 37 38  1  0
 38 39  1  0
 33  4  1  0
 39 34  1  0
 31  9  1  0
 18 13  1  0
 31 20  1  0
  5 40  1  0
  6 41  1  0
  8 42  1  0
  8 43  1  0
 11 44  1  0
 11 45  1  0
 12 46  1  0
 12 47  1  0
 14 48  1  0
 15 49  1  0
 16 50  1  0
 17 51  1  0
 18 52  1  0
 21 53  1  0
 23 54  1  0
 24 55  1  0
 26 56  1  0
 28 57  1  0
 29 58  1  0
 30 59  1  0
 32 60  1  0
 33 61  1  0
 35 62  1  0
 35 63  1  0
 36 64  1  0
 36 65  1  0
 37 66  1  0
 38 67  1  0
 38 68  1  0
 39 69  1  0
 39 70  1  0
M  END
>  <smiles>  (28) 
O=S(=O)(c1ccc(Cn2c(CCc3ccccc3)nc3cc(C=CC(O)=NO)ccc32)cc1)N1CCNCC1

>  <score_type>  (28) 
oracle

>  <origin>  (28) 
adgpu

>  <m_score__min__energy>  (28) 
-11.779999999999999

>  <m_primary>  (28) 
energy

$$$$
28:0
     RDKit          3D

 60 63  0  0  0  0  0  0  0  0999 V2000
   -4.5540   18.6510  -32.8220 C   0  0  0  0  0  0  0  0  0  0  0  0
   -5.4370   19.0230  -31.7700 O   0  0  0  0  0  0  0  0  0  0  0  0
   -6.7250   19.5530  -31.9600 C   0  0  0  0  0  0  0  0  0  0  0  0
   -7.7960   18.7590  -32.4170 C   0  0  0  0  0  0  0  0  0  0  0  0
   -9.0610   19.3190  -32.6010 C   0  0  0  0  0  0  0  0  0  0  0  0
   -9.2760   20.6700  -32.3290 C   0  0  0  0  0  0  0  0  0  0  0  0
   -8.2250   21.4680  -31.8740 C   0  0  0  0  0  0  0  0  0  0  0  0
   -6.9420   20.9200  -31.6950 C   0  0  0  0  0  0  0  0  0  0  0  0
   -5.8700   21.7420  -31.2010 N   0  0  0  0  0  0  0  0  0  0  0  0
   -4.6010   21.5420  -31.5250 N   0  0  0  0  0  0  0  0  0  0  0  0
   -3.8620   22.4700  -30.8890 C   0  0  0  0  0  0  0  0  0  0  0  0
   -2.3770   22.5750  -31.0060 C   0  0  0  0  0  0  0  0  0  0  0  0
   -4.6860   23.2770  -30.1220 C   0  0  0  0  0  0  0  0  0  0  0  0
   -4.2870   24.4710  -29.3100 C   0  0  0  0  0  0  0  0  0  0  0  0
   -2.9570   24.9080  -29.7160 N   0  0  0  0  0  0  0  0  0  0  0  0
   -1.8820   25.1810  -28.8110 C   0  0  0  0  0  0  0  0  0  0  0  0
   -1.2150   26.2390  -28.9610 O   0  0  0  0  0  0  0  0  0  0  0  0
   -1.5010   24.2400  -27.7410 C   0  0  0  0  0  0  0  0  0  0  0  0
   -0.9290   24.7050  -26.5470 C   0  0  0  0  0  0  0  0  0  0  0  0
   -0.5830   23.8050  -25.5350 C   0  0  0  0  0  0  0  0  0  0  0  0
   -0.8000   22.4360  -25.7100 C   0  0  0  0  0  0  0  0  0  0  0  0
   -1.3500   21.9580  -26.9070 C   0  0  0  0  0  0  0  0  0  0  0  0
   -1.6470   20.2320  -27.1030 S   0  0  0  0  0  0  0  0  0  0  0  0
   -2.6000   20.0400  -28.2510 O   0  0  0  0  0  0  0  0  0  0  0  0
   -2.2790   19.6750  -25.8570 O   0  0  0  0  0  0  0  0  0  0  0  0
   -0.1390   19.4090  -27.4430 N   0  0  0  0  0  0  0  0  0  0  0  0
   -0.3630   18.2730  -28.3440 C   0  0  0  0  0  0  0  0  0  0  0  0
   -0.1480   18.7530  -29.7720 C   0  0  0  0  0  0  0  0  0  0  0  0
    0.5910   20.0720  -29.6520 C   0  0  0  0  0  0  0  0  0  0  0  0
    0.7800   20.2990  -28.1590 C   0  0  0  0  0  0  0  0  0  0  0  0
   -1.6930   22.8610  -27.9230 C   0  0  0  0  0  0  0  0  0  0  0  0
   -5.9640   22.8050  -30.3680 C   0  0  0  0  0  0  0  0  0  0  0  0
   -7.2380   23.3820  -29.8230 C   0  0  0  0  0  0  0  0  0  0  0  0
   -3.6199   18.2575  -32.3947 H   0  0  0  0  0  0  0  0  0  0  0  0
   -5.0285   17.8763  -33.4423 H   0  0  0  0  0  0  0  0  0  0  0  0
   -4.3311   19.5317  -33.4423 H   0  0  0  0  0  0  0  0  0  0  0  0
   -7.6339   17.6920  -32.6298 H   0  0  0  0  0  0  0  0  0  0  0  0
   -9.8907   18.6932  -32.9615 H   0  0  0  0  0  0  0  0  0  0  0  0
  -10.2750   21.1072  -32.4732 H   0  0  0  0  0  0  0  0  0  0  0  0
   -8.4011   22.5313  -31.6542 H   0  0  0  0  0  0  0  0  0  0  0  0
   -1.9313   22.6065  -30.0008 H   0  0  0  0  0  0  0  0  0  0  0  0
   -1.9895   21.7020  -31.5517 H   0  0  0  0  0  0  0  0  0  0  0  0
   -2.1162   23.4938  -31.5517 H   0  0  0  0  0  0  0  0  0  0  0  0
   -5.0077   25.2853  -29.4757 H   0  0  0  0  0  0  0  0  0  0  0  0
   -4.2770   24.2039  -28.2430 H   0  0  0  0  0  0  0  0  0  0  0  0
   -0.7523   25.7816  -26.4069 H   0  0  0  0  0  0  0  0  0  0  0  0
   -0.1391   24.1753  -24.5992 H   0  0  0  0  0  0  0  0  0  0  0  0
   -0.5386   21.7318  -24.9064 H   0  0  0  0  0  0  0  0  0  0  0  0
    0.3476   17.4663  -28.1108 H   0  0  0  0  0  0  0  0  0  0  0  0
   -1.3852   17.8854  -28.2219 H   0  0  0  0  0  0  0  0  0  0  0  0
    0.4546   18.0251  -30.3351 H   0  0  0  0  0  0  0  0  0  0  0  0
   -1.1002   18.8675  -30.3106 H   0  0  0  0  0  0  0  0  0  0  0  0
    1.5658   20.0137  -30.1583 H   0  0  0  0  0  0  0  0  0  0  0  0
    0.0339   20.8957  -30.1223 H   0  0  0  0  0  0  0  0  0  0  0  0
    1.8178   20.0697  -27.8754 H   0  0  0  0  0  0  0  0  0  0  0  0
    0.5707   21.3483  -27.9036 H   0  0  0  0  0  0  0  0  0  0  0  0
   -2.1147   22.4873  -28.8677 H   0  0  0  0  0  0  0  0  0  0  0  0
   -7.2062   23.3676  -28.7236 H   0  0  0  0  0  0  0  0  0  0  0  0
   -7.3502   24.4188  -30.1730 H   0  0  0  0  0  0  0  0  0  0  0  0
   -8.0913   22.7825  -30.1730 H   0  0  0  0  0  0  0  0  0  0  0  0
  1  2  1  0
  2  3  1  0
  3  4  2  0
  4  5  1  0
  5  6  2  0
  6  7  1  0
  7  8  2  0
  8  9  1  0
  9 10  1  0
 10 11  2  0
 11 12  1  0
 11 13  1  0
 13 14  1  0
 14 15  1  0
 15 16  1  0
 16 17  2  0
 16 18  1  0
 18 19  2  0
 19 20  1  0
 20 21  2  0
 21 22  1  0
 22 23  1  0
 23 24  2  0
 23 25  2  0
 23 26  1  0
 26 27  1  0
 27 28  1  0
 28 29  1  0
 29 30  1  0
 22 31  2  0
 13 32  2  0
 32 33  1  0
  8  3  1  0
 32  9  1  0
 31 18  1  0
 30 26  1  0
  1 34  1  0
  1 35  1  0
  1 36  1  0
  4 37  1  0
  5 38  1  0
  6 39  1  0
  7 40  1  0
 12 41  1  0
 12 42  1  0
 12 43  1  0
 14 44  1  0
 14 45  1  0
 19 46  1  0
 20 47  1  0
 21 48  1  0
 27 49  1  0
 27 50  1  0
 28 51  1  0
 28 52  1  0
 29 53  1  0
 29 54  1  0
 30 55  1  0
 30 56  1  0
 31 57  1  0
 33 58  1  0
 33 59  1  0
 33 60  1  0
M  CHG  1  15  -1
M  END
>  <UniqueID>  (29) 
28

>  <SMILES>  (29) 
COc1ccccc1-n1nc(C)c(C[N-]C(=O)c2cccc(S(=O)(=O)N3CCCC3)c2)c1C

>  <Energy>  (29) 
99.88215091870478

>  <Genealogy>  (29) 
COc1ccccc1-n1nc(C)c(C[N-]C(=O)c2cccc(S(=O)(=O)N3CCCC3)c2)c1C (protonated)
COc1ccccc1-n1nc(C)c(C[N-]C(=O)c2cccc(S(=O)(=O)N3CCCC3)c2)c1C (3D coordinates assigned)
COc1ccccc1-n1nc(C)c(C[N-]C(=O)c2cccc(S(=O)(=O)N3CCCC3)c2)c1C (nonaromatic ring conformer: 99.88215091870478 kcal/mol)

>  <smiles>  (29) 
COc1ccccc1-n1nc(C)c(CNC(=O)c2cccc(S(=O)(=O)N3CCCC3)c2)c1C

>  <score_type>  (29) 
oracle

>  <origin>  (29) 
adgpu

>  <m_score__min__energy>  (29) 
-11.85

>  <m_primary>  (29) 
energy

$$$$
29:0
     RDKit          3D

 42 43  0  0  0  0  0  0  0  0999 V2000
   -5.7310   16.7290  -31.8920 C   0  0  0  0  0  0  0  0  0  0  0  0
   -6.6420   17.2110  -33.0160 C   0  0  0  0  0  0  0  0  0  0  0  0
   -7.1980   18.5310  -32.6900 N   0  0  0  0  0  0  0  0  0  0  0  0
   -8.4280   18.6250  -31.8930 C   0  0  0  0  0  0  0  0  0  0  0  0
   -9.5100   19.3630  -32.6710 C   0  0  0  0  0  0  0  0  0  0  0  0
   -6.6760   19.7010  -33.3450 C   0  0  0  0  0  0  0  0  0  0  0  0
   -6.4520   19.6660  -34.5870 O   0  0  0  0  0  0  0  0  0  0  0  0
   -6.3770   20.9360  -32.5860 C   0  0  0  0  0  0  0  0  0  0  0  0
   -5.0480   21.3320  -32.3580 C   0  0  0  0  0  0  0  0  0  0  0  0
   -4.7700   22.5000  -31.6440 C   0  0  0  0  0  0  0  0  0  0  0  0
   -5.8150   23.2910  -31.1520 C   0  0  0  0  0  0  0  0  0  0  0  0
   -5.4530   24.7430  -30.2230 S   0  0  0  0  0  0  0  0  0  0  0  0
   -4.4180   25.5430  -30.9630 O   0  0  0  0  0  0  0  0  0  0  0  0
   -6.6860   25.5830  -30.0440 O   0  0  0  0  0  0  0  0  0  0  0  0
   -4.8320   24.3080  -28.6610 N   0  0  0  0  0  0  0  0  0  0  0  0
   -3.6060   23.5760  -28.4630 C   0  0  0  0  0  0  0  0  0  0  0  0
   -3.5990   22.2880  -27.8940 C   0  0  0  0  0  0  0  0  0  0  0  0
   -2.3960   21.6020  -27.7230 C   0  0  0  0  0  0  0  0  0  0  0  0
   -1.2020   22.2060  -28.1130 C   0  0  0  0  0  0  0  0  0  0  0  0
   -1.2160   23.4520  -28.6540 N   0  0  0  0  0  0  0  0  0  0  0  0
   -2.3720   24.1460  -28.8350 C   0  0  0  0  0  0  0  0  0  0  0  0
   -2.3260   25.2970  -29.3450 O   0  0  0  0  0  0  0  0  0  0  0  0
   -7.1420   22.9150  -31.3950 C   0  0  0  0  0  0  0  0  0  0  0  0
   -7.4220   21.7480  -32.1110 C   0  0  0  0  0  0  0  0  0  0  0  0
   -6.1876   16.9706  -30.9208 H   0  0  0  0  0  0  0  0  0  0  0  0
   -5.5942   15.6405  -31.9722 H   0  0  0  0  0  0  0  0  0  0  0  0
   -4.7541   17.2282  -31.9722 H   0  0  0  0  0  0  0  0  0  0  0  0
   -6.0623   17.2814  -33.9482 H   0  0  0  0  0  0  0  0  0  0  0  0
   -7.4679   16.4951  -33.1395 H   0  0  0  0  0  0  0  0  0  0  0  0
   -8.7821   17.6118  -31.6521 H   0  0  0  0  0  0  0  0  0  0  0  0
   -8.2122   19.1800  -30.9681 H   0  0  0  0  0  0  0  0  0  0  0  0
  -10.2080   19.8391  -31.9666 H   0  0  0  0  0  0  0  0  0  0  0  0
   -9.0456   20.1334  -33.3041 H   0  0  0  0  0  0  0  0  0  0  0  0
  -10.0577   18.6494  -33.3041 H   0  0  0  0  0  0  0  0  0  0  0  0
   -4.2211   20.7181  -32.7444 H   0  0  0  0  0  0  0  0  0  0  0  0
   -3.7263   22.7993  -31.4677 H   0  0  0  0  0  0  0  0  0  0  0  0
   -5.3470   24.6830  -27.8340 H   0  0  0  0  0  0  0  0  0  0  0  0
   -4.5452   21.8210  -27.5832 H   0  0  0  0  0  0  0  0  0  0  0  0
   -2.3900   20.5933  -27.2842 H   0  0  0  0  0  0  0  0  0  0  0  0
   -0.2482   21.6737  -27.9827 H   0  0  0  0  0  0  0  0  0  0  0  0
   -7.9663   23.5401  -31.0212 H   0  0  0  0  0  0  0  0  0  0  0  0
   -8.4667   21.4628  -32.3042 H   0  0  0  0  0  0  0  0  0  0  0  0
  1  2  1  0
  2  3  1  0
  3  4  1  0
  4  5  1  0
  3  6  1  0
  6  7  2  0
  6  8  1  0
  8  9  2  0
  9 10  1  0
 10 11  2  0
 11 12  1  0
 12 13  2  0
 12 14  2  0
 12 15  1  0
 15 16  1  0
 16 17  2  0
 17 18  1  0
 18 19  2  0
 19 20  1  0
 20 21  1  0
 21 22  2  0
 11 23  1  0
 23 24  2  0
 24  8  1  0
 21 16  1  0
  1 25  1  0
  1 26  1  0
  1 27  1  0
  2 28  1  0
  2 29  1  0
  4 30  1  0
  4 31  1  0
  5 32  1  0
  5 33  1  0
  5 34  1  0
  9 35  1  0
 10 36  1  0
 15 37  1  0
 17 38  1  0
 18 39  1  0
 19 40  1  0
 23 41  1  0
 24 42  1  0
M  CHG  1  20  -1
M  END
>  <UniqueID>  (30) 
29

>  <SMILES>  (30) 
CCN(CC)C(=O)c1ccc(S(=O)(=O)Nc2ccc[n-]c2=O)cc1

>  <Energy>  (30) 
44.27068679116457

>  <Genealogy>  (30) 
CCN(CC)C(=O)c1ccc(S(=O)(=O)Nc2ccc[n-]c2=O)cc1 (protonated)
CCN(CC)C(=O)c1ccc(S(=O)(=O)Nc2ccc[n-]c2=O)cc1 (3D coordinates assigned)
CCN(CC)C(=O)c1ccc(S(=O)(=O)Nc2ccc[n-]c2=O)cc1 (optimized conformer: 44.27068679116457 kcal/mol)

>  <smiles>  (30) 
CCN(CC)C(=O)c1ccc(S(=O)(=O)Nc2ccc[nH]c2=O)cc1

>  <score_type>  (30) 
oracle

>  <origin>  (30) 
adgpu

>  <m_score__min__energy>  (30) 
-10.31

>  <m_primary>  (30) 
energy

$$$$
30:0
     RDKit          3D

 39 42  0  0  0  0  0  0  0  0999 V2000
   -2.2060   17.7030  -34.7140 O   0  0  0  0  0  0  0  0  0  0  0  0
   -3.3560   17.9370  -34.2480 C   0  0  0  0  0  0  0  0  0  0  0  0
   -4.3340   16.8350  -34.1110 C   0  0  0  0  0  0  0  0  0  0  0  0
   -3.9580   15.5010  -34.3490 C   0  0  0  0  0  0  0  0  0  0  0  0
   -4.8890   14.4680  -34.2090 C   0  0  0  0  0  0  0  0  0  0  0  0
   -6.2020   14.7560  -33.8330 C   0  0  0  0  0  0  0  0  0  0  0  0
   -6.5900   16.0770  -33.6000 C   0  0  0  0  0  0  0  0  0  0  0  0
   -5.6610   17.1240  -33.7350 C   0  0  0  0  0  0  0  0  0  0  0  0
   -6.0660   18.5270  -33.4980 C   0  0  0  0  0  0  0  0  0  0  0  0
   -7.2920   18.8230  -33.4710 O   0  0  0  0  0  0  0  0  0  0  0  0
   -5.0280   19.5850  -33.3550 C   0  0  0  0  0  0  0  0  0  0  0  0
   -5.3110   20.8650  -32.7980 C   0  0  0  0  0  0  0  0  0  0  0  0
   -6.5750   21.1870  -32.0940 C   0  0  0  0  0  0  0  0  0  0  0  0
   -6.6950   22.1180  -31.1330 C   0  0  0  0  0  0  0  0  0  0  0  0
   -5.5890   22.9720  -30.6440 C   0  0  0  0  0  0  0  0  0  0  0  0
   -5.5340   24.3460  -30.9370 C   0  0  0  0  0  0  0  0  0  0  0  0
   -4.4530   25.1160  -30.5020 C   0  0  0  0  0  0  0  0  0  0  0  0
   -3.4260   24.5290  -29.7580 C   0  0  0  0  0  0  0  0  0  0  0  0
   -2.3510   25.3070  -29.3410 O   0  0  0  0  0  0  0  0  0  0  0  0
   -3.4860   23.1640  -29.4330 C   0  0  0  0  0  0  0  0  0  0  0  0
   -2.4780   22.5540  -28.6900 O   0  0  0  0  0  0  0  0  0  0  0  0
   -4.5740   22.3960  -29.8670 C   0  0  0  0  0  0  0  0  0  0  0  0
   -4.3380   21.8720  -32.8540 C   0  0  0  0  0  0  0  0  0  0  0  0
   -3.0730   21.6080  -33.3740 C   0  0  0  0  0  0  0  0  0  0  0  0
   -2.7550   20.3300  -33.8280 C   0  0  0  0  0  0  0  0  0  0  0  0
   -3.7180   19.3080  -33.8130 C   0  0  0  0  0  0  0  0  0  0  0  0
   -2.9249   15.2691  -34.6472 H   0  0  0  0  0  0  0  0  0  0  0  0
   -4.5867   13.4269  -34.3953 H   0  0  0  0  0  0  0  0  0  0  0  0
   -6.9322   13.9411  -33.7201 H   0  0  0  0  0  0  0  0  0  0  0  0
   -7.6273   16.2997  -33.3095 H   0  0  0  0  0  0  0  0  0  0  0  0
   -7.4769   20.6249  -32.3780 H   0  0  0  0  0  0  0  0  0  0  0  0
   -7.6863   22.2557  -30.6766 H   0  0  0  0  0  0  0  0  0  0  0  0
   -6.3457   24.8165  -31.5112 H   0  0  0  0  0  0  0  0  0  0  0  0
   -4.4099   26.1878  -30.7458 H   0  0  0  0  0  0  0  0  0  0  0  0
   -1.6790   23.0700  -28.3410 H   0  0  0  0  0  0  0  0  0  0  0  0
   -4.6326   21.3316  -29.5958 H   0  0  0  0  0  0  0  0  0  0  0  0
   -4.5754   22.8803  -32.4839 H   0  0  0  0  0  0  0  0  0  0  0  0
   -2.3230   22.4110  -33.4263 H   0  0  0  0  0  0  0  0  0  0  0  0
   -1.7418   20.1198  -34.2011 H   0  0  0  0  0  0  0  0  0  0  0  0
  1  2  2  0
  2  3  1  0
  3  4  2  0
  4  5  1  0
  5  6  2  0
  6  7  1  0
  7  8  2  0
  8  9  1  0
  9 10  2  0
  9 11  1  0
 11 12  2  0
 12 13  1  0
 13 14  2  3
 14 15  1  0
 15 16  2  0
 16 17  1  0
 17 18  2  0
 18 19  1  0
 18 20  1  0
 20 21  1  0
 20 22  2  0
 12 23  1  0
 23 24  2  0
 24 25  1  0
 25 26  2  0
 26  2  1  0
  8  3  1  0
 26 11  1  0
 22 15  1  0
  4 27  1  0
  5 28  1  0
  6 29  1  0
  7 30  1  0
 13 31  1  0
 14 32  1  0
 16 33  1  0
 17 34  1  0
 21 35  1  0
 22 36  1  0
 23 37  1  0
 24 38  1  0
 25 39  1  0
M  CHG  1  19  -1
M  END
>  <UniqueID>  (31) 
30

>  <SMILES>  (31) 
O=C1c2ccccc2C(=O)c2c(C=Cc3ccc([O-])c(O)c3)cccc21

>  <Energy>  (31) 
62.20172597988751

>  <Genealogy>  (31) 
O=C1c2ccccc2C(=O)c2c(C=Cc3ccc([O-])c(O)c3)cccc21 (protonated)
O=C1c2ccccc2C(=O)c2c(C=Cc3ccc([O-])c(O)c3)cccc21 (3D coordinates assigned)
O=C1c2ccccc2C(=O)c2c(C=Cc3ccc([O-])c(O)c3)cccc21 (nonaromatic ring conformer: 62.20172597988751 kcal/mol)

>  <smiles>  (31) 
O=C1c2ccccc2C(=O)c2c(C=Cc3ccc(O)c(O)c3)cccc21

>  <score_type>  (31) 
oracle

>  <origin>  (31) 
adgpu

>  <m_score__min__energy>  (31) 
-11.76

>  <m_primary>  (31) 
energy

$$$$
31:0
     RDKit          3D

 53 57  0  0  0  0  0  0  0  0999 V2000
   -3.8410   13.2990  -36.6920 C   0  0  0  0  0  0  0  0  0  0  0  0
   -3.3720   14.0380  -35.5060 N   0  0  0  0  0  0  0  0  0  0  0  0
   -2.5040   15.1650  -35.9260 C   0  0  0  0  0  0  0  0  0  0  0  0
   -2.2310   16.1260  -34.7740 C   0  0  0  0  0  0  0  0  0  0  0  0
   -3.5370   16.6980  -34.3270 C   0  0  0  0  0  0  0  0  0  0  0  0
   -3.6670   18.0580  -34.0200 C   0  0  0  0  0  0  0  0  0  0  0  0
   -4.9220   18.5940  -33.6940 C   0  0  0  0  0  0  0  0  0  0  0  0
   -5.1150   20.0110  -33.5670 N   0  0  0  0  0  0  0  0  0  0  0  0
   -6.1660   20.7650  -32.4060 S   0  0  0  0  0  0  0  0  0  0  0  0
   -7.5260   20.9560  -33.0230 O   0  0  0  0  0  0  0  0  0  0  0  0
   -6.2810   19.8650  -31.2040 O   0  0  0  0  0  0  0  0  0  0  0  0
   -5.5380   22.3440  -31.9220 C   0  0  0  0  0  0  0  0  0  0  0  0
   -6.3350   23.4870  -32.0550 C   0  0  0  0  0  0  0  0  0  0  0  0
   -5.8870   24.7170  -31.5690 C   0  0  0  0  0  0  0  0  0  0  0  0
   -4.6500   24.8130  -30.9230 C   0  0  0  0  0  0  0  0  0  0  0  0
   -4.2610   26.0420  -30.3960 O   0  0  0  0  0  0  0  0  0  0  0  0
   -3.8280   23.6710  -30.7920 C   0  0  0  0  0  0  0  0  0  0  0  0
   -2.5380   23.7370  -30.0610 C   0  0  0  0  0  0  0  0  0  0  0  0
   -1.6640   22.6370  -30.0320 C   0  0  0  0  0  0  0  0  0  0  0  0
   -0.4740   22.7190  -29.3080 C   0  0  0  0  0  0  0  0  0  0  0  0
   -0.1670   23.8840  -28.6090 C   0  0  0  0  0  0  0  0  0  0  0  0
   -1.0460   24.9660  -28.6690 C   0  0  0  0  0  0  0  0  0  0  0  0
   -2.1970   24.8710  -29.3840 N   0  0  0  0  0  0  0  0  0  0  0  0
   -0.7050   26.1820  -28.0060 N   0  0  0  0  0  0  0  0  0  0  0  0
    0.4640   26.2480  -27.1870 C   0  0  0  0  0  0  0  0  0  0  0  0
    0.8060   27.3450  -26.6720 O   0  0  0  0  0  0  0  0  0  0  0  0
    1.2280   24.9930  -26.8750 C   0  0  0  0  0  0  0  0  0  0  0  0
    1.0150   23.9840  -27.8670 O   0  0  0  0  0  0  0  0  0  0  0  0
   -4.2700   22.4510  -31.3360 C   0  0  0  0  0  0  0  0  0  0  0  0
   -6.0280   17.7330  -33.5730 C   0  0  0  0  0  0  0  0  0  0  0  0
   -7.2880   18.2140  -33.2060 O   0  0  0  0  0  0  0  0  0  0  0  0
   -5.8860   16.3700  -33.8500 C   0  0  0  0  0  0  0  0  0  0  0  0
   -4.6520   15.8540  -34.2730 C   0  0  0  0  0  0  0  0  0  0  0  0
   -4.5060   14.3810  -34.5920 C   0  0  0  0  0  0  0  0  0  0  0  0
   -4.4048   12.4106  -36.3712 H   0  0  0  0  0  0  0  0  0  0  0  0
   -4.4924   13.9487  -37.2949 H   0  0  0  0  0  0  0  0  0  0  0  0
   -2.9758   12.9862  -37.2949 H   0  0  0  0  0  0  0  0  0  0  0  0
   -1.5469   14.7619  -36.2885 H   0  0  0  0  0  0  0  0  0  0  0  0
   -3.0238   15.7207  -36.7204 H   0  0  0  0  0  0  0  0  0  0  0  0
   -1.7565   15.5853  -33.9419 H   0  0  0  0  0  0  0  0  0  0  0  0
   -1.5548   16.9298  -35.1005 H   0  0  0  0  0  0  0  0  0  0  0  0
   -2.7807   18.7094  -34.0345 H   0  0  0  0  0  0  0  0  0  0  0  0
   -7.3177   23.4160  -32.5441 H   0  0  0  0  0  0  0  0  0  0  0  0
   -6.5099   25.6149  -31.6948 H   0  0  0  0  0  0  0  0  0  0  0  0
   -1.9167   21.7158  -30.5774 H   0  0  0  0  0  0  0  0  0  0  0  0
    0.2199   21.8657  -29.2893 H   0  0  0  0  0  0  0  0  0  0  0  0
    2.3013   25.2302  -26.8323 H   0  0  0  0  0  0  0  0  0  0  0  0
    0.8716   24.6054  -25.9092 H   0  0  0  0  0  0  0  0  0  0  0  0
   -3.6118   21.5703  -31.3007 H   0  0  0  0  0  0  0  0  0  0  0  0
   -7.4380   19.1710  -32.9130 H   0  0  0  0  0  0  0  0  0  0  0  0
   -6.7485   15.6970  -33.7354 H   0  0  0  0  0  0  0  0  0  0  0  0
   -4.3560   13.8408  -33.6456 H   0  0  0  0  0  0  0  0  0  0  0  0
   -5.4249   14.0902  -35.1221 H   0  0  0  0  0  0  0  0  0  0  0  0
  1  2  1  0
  2  3  1  0
  3  4  1  0
  4  5  1  0
  5  6  2  0
  6  7  1  0
  7  8  1  0
  8  9  1  0
  9 10  2  0
  9 11  2  0
  9 12  1  0
 12 13  2  0
 13 14  1  0
 14 15  2  0
 15 16  1  0
 15 17  1  0
 17 18  1  0
 18 19  2  0
 19 20  1  0
 20 21  2  0
 21 22  1  0
 22 23  2  0
 22 24  1  0
 24 25  1  0
 25 26  2  0
 25 27  1  0
 27 28  1  0
 17 29  2  0
  7 30  2  0
 30 31  1  0
 30 32  1  0
 32 33  2  0
 33 34  1  0
 34  2  1  0
 33  5  1  0
 29 12  1  0
 23 18  1  0
 28 21  1  0
  1 35  1  0
  1 36  1  0
  1 37  1  0
  3 38  1  0
  3 39  1  0
  4 40  1  0
  4 41  1  0
  6 42  1  0
 13 43  1  0
 14 44  1  0
 19 45  1  0
 20 46  1  0
 27 47  1  0
 27 48  1  0
 29 49  1  0
 31 50  1  0
 32 51  1  0
 34 52  1  0
 34 53  1  0
M  CHG  3   8  -1  16  -1  24  -1
M  END
>  <UniqueID>  (32) 
31

>  <SMILES>  (32) 
CN1CCc2cc([N-]S(=O)(=O)c3ccc([O-])c(-c4ccc5c(n4)[N-]C(=O)CO5)c3)c(O)cc2C1

>  <Energy>  (32) 
77.52792966593141

>  <Genealogy>  (32) 
CN1CCc2cc([N-]S(=O)(=O)c3ccc([O-])c(-c4ccc5c(n4)[N-]C(=O)CO5)c3)c(O)cc2C1 (protonated)
CN1CCc2cc([N-]S(=O)(=O)c3ccc([O-])c(-c4ccc5c(n4)[N-]C(=O)CO5)c3)c(O)cc2C1 (3D coordinates assigned)
CN1CCc2cc([N-]S(=O)(=O)c3ccc([O-])c(-c4ccc5c(n4)[N-]C(=O)CO5)c3)c(O)cc2C1 (nonaromatic ring conformer: 77.52792966593141 kcal/mol)

>  <smiles>  (32) 
CN1CCc2cc(NS(=O)(=O)c3ccc(O)c(-c4ccc5c(n4)NC(=O)CO5)c3)c(O)cc2C1

>  <score_type>  (32) 
oracle

>  <origin>  (32) 
adgpu

>  <m_score__min__energy>  (32) 
-13.41

>  <m_primary>  (32) 
energy

$$$$
32:0
     RDKit          3D

 61 65  0  0  0  0  0  0  0  0999 V2000
   -1.5290   26.3710  -25.4860 C   0  0  0  0  0  0  0  0  0  0  0  0
   -0.7190   26.4790  -26.6930 N   0  0  0  0  0  0  0  0  0  0  0  0
   -0.9690   25.7740  -27.9160 C   0  0  0  0  0  0  0  0  0  0  0  0
   -1.2360   26.4370  -28.9520 O   0  0  0  0  0  0  0  0  0  0  0  0
   -0.9730   24.3000  -27.9870 C   0  0  0  0  0  0  0  0  0  0  0  0
   -2.1920   23.6050  -27.9760 C   0  0  0  0  0  0  0  0  0  0  0  0
   -2.2110   22.2080  -28.0290 C   0  0  0  0  0  0  0  0  0  0  0  0
   -1.0090   21.4860  -28.1120 C   0  0  0  0  0  0  0  0  0  0  0  0
   -1.0160   19.9800  -28.0480 C   0  0  0  0  0  0  0  0  0  0  0  0
   -0.3640   19.4220  -29.2900 C   0  0  0  0  0  0  0  0  0  0  0  0
    0.4000   18.2580  -29.2090 C   0  0  0  0  0  0  0  0  0  0  0  0
    0.8860   17.6620  -30.3640 C   0  0  0  0  0  0  0  0  0  0  0  0
    0.5740   18.2000  -31.6200 C   0  0  0  0  0  0  0  0  0  0  0  0
    1.0980   17.4880  -32.8440 C   0  0  0  0  0  0  0  0  0  0  0  0
   -0.2040   19.3390  -31.7070 N   0  0  0  0  0  0  0  0  0  0  0  0
   -0.6820   19.8630  -33.0080 C   0  0  0  0  0  0  0  0  0  0  0  0
   -2.1320   20.2740  -32.9020 C   0  0  0  0  0  0  0  0  0  0  0  0
   -2.5590   21.5150  -33.4060 C   0  0  0  0  0  0  0  0  0  0  0  0
   -3.8780   21.9370  -33.2170 C   0  0  0  0  0  0  0  0  0  0  0  0
   -4.7890   21.1220  -32.5300 C   0  0  0  0  0  0  0  0  0  0  0  0
   -6.1610   21.6020  -32.2620 C   0  0  0  0  0  0  0  0  0  0  0  0
   -7.2290   20.7690  -32.6340 C   0  0  0  0  0  0  0  0  0  0  0  0
   -8.5450   21.1270  -32.3440 C   0  0  0  0  0  0  0  0  0  0  0  0
   -8.8110   22.3180  -31.6710 C   0  0  0  0  0  0  0  0  0  0  0  0
   -7.7630   23.1610  -31.2980 C   0  0  0  0  0  0  0  0  0  0  0  0
   -6.4270   22.8280  -31.5950 C   0  0  0  0  0  0  0  0  0  0  0  0
   -5.3590   23.7920  -31.2320 C   0  0  0  0  0  0  0  0  0  0  0  0
   -5.4800   25.1330  -31.2700 N   0  0  0  0  0  0  0  0  0  0  0  0
   -4.3210   25.5930  -30.8320 N   0  0  0  0  0  0  0  0  0  0  0  0
   -3.5240   24.5800  -30.5300 N   0  0  0  0  0  0  0  0  0  0  0  0
   -4.1470   23.4370  -30.7650 N   0  0  0  0  0  0  0  0  0  0  0  0
   -4.3710   19.8770  -32.0410 C   0  0  0  0  0  0  0  0  0  0  0  0
   -3.0550   19.4500  -32.2380 C   0  0  0  0  0  0  0  0  0  0  0  0
   -0.6280   19.9720  -30.5590 C   0  0  0  0  0  0  0  0  0  0  0  0
   -1.2870   21.0480  -30.6350 O   0  0  0  0  0  0  0  0  0  0  0  0
    0.2090   22.1830  -28.1520 C   0  0  0  0  0  0  0  0  0  0  0  0
    0.2260   23.5800  -28.1000 C   0  0  0  0  0  0  0  0  0  0  0  0
   -0.8815   26.4573  -24.6010 H   0  0  0  0  0  0  0  0  0  0  0  0
   -2.2771   27.1773  -25.4731 H   0  0  0  0  0  0  0  0  0  0  0  0
   -2.0397   25.3968  -25.4731 H   0  0  0  0  0  0  0  0  0  0  0  0
   -3.1387   24.1629  -27.9254 H   0  0  0  0  0  0  0  0  0  0  0  0
   -3.1713   21.6720  -28.0056 H   0  0  0  0  0  0  0  0  0  0  0  0
   -0.4582   19.6479  -27.1600 H   0  0  0  0  0  0  0  0  0  0  0  0
   -2.0534   19.6199  -27.9844 H   0  0  0  0  0  0  0  0  0  0  0  0
    0.6177   17.8115  -28.2275 H   0  0  0  0  0  0  0  0  0  0  0  0
    1.5181   16.7645  -30.2936 H   0  0  0  0  0  0  0  0  0  0  0  0
    1.7236   16.6380  -32.5340 H   0  0  0  0  0  0  0  0  0  0  0  0
    0.2527   17.1213  -33.4449 H   0  0  0  0  0  0  0  0  0  0  0  0
    1.6994   18.1860  -33.4449 H   0  0  0  0  0  0  0  0  0  0  0  0
   -0.0765   20.7360  -33.2931 H   0  0  0  0  0  0  0  0  0  0  0  0
   -0.5862   19.0755  -33.7700 H   0  0  0  0  0  0  0  0  0  0  0  0
   -1.8517   22.1569  -33.9516 H   0  0  0  0  0  0  0  0  0  0  0  0
   -4.2027   22.9123  -33.6087 H   0  0  0  0  0  0  0  0  0  0  0  0
   -7.0251   19.8244  -33.1595 H   0  0  0  0  0  0  0  0  0  0  0  0
   -9.3733   20.4694  -32.6464 H   0  0  0  0  0  0  0  0  0  0  0  0
   -9.8489   22.5942  -31.4333 H   0  0  0  0  0  0  0  0  0  0  0  0
   -7.9833   24.0977  -30.7651 H   0  0  0  0  0  0  0  0  0  0  0  0
   -5.0810   19.2338  -31.5004 H   0  0  0  0  0  0  0  0  0  0  0  0
   -2.7402   18.4621  -31.8706 H   0  0  0  0  0  0  0  0  0  0  0  0
    1.1553   21.6269  -28.2247 H   0  0  0  0  0  0  0  0  0  0  0  0
    1.1845   24.1176  -28.1479 H   0  0  0  0  0  0  0  0  0  0  0  0
  1  2  1  0
  2  3  1  0
  3  4  2  0
  3  5  1  0
  5  6  2  0
  6  7  1  0
  7  8  2  0
  8  9  1  0
  9 10  1  0
 10 11  2  0
 11 12  1  0
 12 13  2  0
 13 14  1  0
 13 15  1  0
 15 16  1  0
 16 17  1  0
 17 18  2  0
 18 19  1  0
 19 20  2  0
 20 21  1  0
 21 22  2  0
 22 23  1  0
 23 24  2  0
 24 25  1  0
 25 26  2  0
 26 27  1  0
 27 28  1  0
 28 29  2  0
 29 30  1  0
 30 31  1  0
 20 32  1  0
 32 33  2  0
 15 34  1  0
 34 35  2  0
  8 36  1  0
 36 37  2  0
 37  5  1  0
 34 10  1  0
 33 17  1  0
 26 21  1  0
 31 27  2  0
  1 38  1  0
  1 39  1  0
  1 40  1  0
  6 41  1  0
  7 42  1  0
  9 43  1  0
  9 44  1  0
 11 45  1  0
 12 46  1  0
 14 47  1  0
 14 48  1  0
 14 49  1  0
 16 50  1  0
 16 51  1  0
 18 52  1  0
 19 53  1  0
 22 54  1  0
 23 55  1  0
 24 56  1  0
 25 57  1  0
 32 58  1  0
 33 59  1  0
 36 60  1  0
 37 61  1  0
M  CHG  2   2  -1  30  -1
M  END
>  <UniqueID>  (33) 
32

>  <SMILES>  (33) 
C[N-]C(=O)c1ccc(Cc2ccc(C)n(Cc3ccc(-c4ccccc4-c4nn[n-]n4)cc3)c2=O)cc1

>  <Energy>  (33) 
121.60281583291145

>  <Genealogy>  (33) 
C[N-]C(=O)c1ccc(Cc2ccc(C)n(Cc3ccc(-c4ccccc4-c4nn[n-]n4)cc3)c2=O)cc1 (protonated)
C[N-]C(=O)c1ccc(Cc2ccc(C)n(Cc3ccc(-c4ccccc4-c4nn[n-]n4)cc3)c2=O)cc1 (3D coordinates assigned)
C[N-]C(=O)c1ccc(Cc2ccc(C)n(Cc3ccc(-c4ccccc4-c4nn[n-]n4)cc3)c2=O)cc1 (optimized conformer: 121.60281583291145 kcal/mol)

>  <smiles>  (33) 
CNC(=O)c1ccc(Cc2ccc(C)n(Cc3ccc(-c4ccccc4-c4nn[nH]n4)cc3)c2=O)cc1

>  <score_type>  (33) 
oracle

>  <origin>  (33) 
adgpu

>  <m_score__min__energy>  (33) 
-13.67

>  <m_primary>  (33) 
energy

$$$$
33:0
     RDKit          3D

 65 69  0  0  0  0  0  0  0  0999 V2000
   -6.2280   16.4330  -34.2770 C   0  0  0  0  0  0  0  0  0  0  0  0
   -4.8980   17.1040  -34.1760 C   0  0  0  0  0  0  0  0  0  0  0  0
   -3.6690   16.4780  -34.3180 C   0  0  0  0  0  0  0  0  0  0  0  0
   -2.7350   17.4070  -34.0780 N   0  0  0  0  0  0  0  0  0  0  0  0
   -1.3830   17.3020  -34.0760 C   0  0  0  0  0  0  0  0  0  0  0  0
   -0.6300   18.4460  -33.7720 C   0  0  0  0  0  0  0  0  0  0  0  0
   -1.2910   19.6620  -33.4810 C   0  0  0  0  0  0  0  0  0  0  0  0
   -0.4930   20.8800  -33.0980 C   0  0  0  0  0  0  0  0  0  0  0  0
    0.1800   20.6740  -31.8150 N   0  0  0  0  0  0  0  0  0  0  0  0
   -0.4710   20.8540  -30.5430 C   0  0  0  0  0  0  0  0  0  0  0  0
   -0.8470   19.7600  -29.7400 C   0  0  0  0  0  0  0  0  0  0  0  0
   -1.4750   19.9700  -28.5080 C   0  0  0  0  0  0  0  0  0  0  0  0
   -1.7350   21.2680  -28.0650 C   0  0  0  0  0  0  0  0  0  0  0  0
   -1.3670   22.3670  -28.8550 C   0  0  0  0  0  0  0  0  0  0  0  0
   -1.7080   24.0140  -28.3300 S   0  0  0  0  0  0  0  0  0  0  0  0
   -2.4970   24.0240  -27.0490 O   0  0  0  0  0  0  0  0  0  0  0  0
   -0.4030   24.7200  -28.0940 O   0  0  0  0  0  0  0  0  0  0  0  0
   -2.5950   24.8450  -29.5710 N   0  0  0  0  0  0  0  0  0  0  0  0
   -3.8210   24.3520  -30.1350 C   0  0  0  0  0  0  0  0  0  0  0  0
   -3.8300   23.3780  -31.1480 C   0  0  0  0  0  0  0  0  0  0  0  0
   -5.0390   22.9100  -31.6730 C   0  0  0  0  0  0  0  0  0  0  0  0
   -6.2610   23.4130  -31.2010 C   0  0  0  0  0  0  0  0  0  0  0  0
   -7.5440   22.9020  -31.7350 C   0  0  0  0  0  0  0  0  0  0  0  0
   -8.4740   23.7180  -31.9850 O   0  0  0  0  0  0  0  0  0  0  0  0
   -7.7540   21.4960  -31.9690 N   0  0  0  0  0  0  0  0  0  0  0  0
   -6.7040   20.7030  -32.6300 C   0  0  0  0  0  0  0  0  0  0  0  0
   -7.2760   19.4270  -33.2620 C   0  0  0  0  0  0  0  0  0  0  0  0
   -8.0950   18.6110  -32.2470 C   0  0  0  0  0  0  0  0  0  0  0  0
   -9.0040   19.4730  -31.3410 C   0  0  0  0  0  0  0  0  0  0  0  0
   -9.1010   20.9330  -31.8010 C   0  0  0  0  0  0  0  0  0  0  0  0
   -6.2540   24.3680  -30.1720 C   0  0  0  0  0  0  0  0  0  0  0  0
   -5.0460   24.8320  -29.6450 C   0  0  0  0  0  0  0  0  0  0  0  0
   -0.7380   22.1560  -30.0890 C   0  0  0  0  0  0  0  0  0  0  0  0
   -2.7010   19.7110  -33.4810 C   0  0  0  0  0  0  0  0  0  0  0  0
   -3.3930   18.5430  -33.7940 C   0  0  0  0  0  0  0  0  0  0  0  0
   -4.7350   18.4050  -33.8310 N   0  0  0  0  0  0  0  0  0  0  0  0
   -6.6172   16.2366  -33.2671 H   0  0  0  0  0  0  0  0  0  0  0  0
   -6.9279   17.0859  -34.8192 H   0  0  0  0  0  0  0  0  0  0  0  0
   -6.1187   15.4821  -34.8192 H   0  0  0  0  0  0  0  0  0  0  0  0
   -3.4951   15.4233  -34.5774 H   0  0  0  0  0  0  0  0  0  0  0  0
   -0.8902   16.3460  -34.3064 H   0  0  0  0  0  0  0  0  0  0  0  0
    0.4689   18.3975  -33.7600 H   0  0  0  0  0  0  0  0  0  0  0  0
    0.2613   21.0764  -33.8742 H   0  0  0  0  0  0  0  0  0  0  0  0
   -1.1769   21.7366  -33.0055 H   0  0  0  0  0  0  0  0  0  0  0  0
    1.1840   20.3800  -31.8160 H   0  0  0  0  0  0  0  0  0  0  0  0
   -0.6457   18.7346  -30.0836 H   0  0  0  0  0  0  0  0  0  0  0  0
   -1.7648   19.1100  -27.8864 H   0  0  0  0  0  0  0  0  0  0  0  0
   -2.2290   21.4291  -27.0954 H   0  0  0  0  0  0  0  0  0  0  0  0
   -2.1280   25.6710  -30.0110 H   0  0  0  0  0  0  0  0  0  0  0  0
   -2.8786   22.9805  -31.5311 H   0  0  0  0  0  0  0  0  0  0  0  0
   -5.0318   22.1426  -32.4611 H   0  0  0  0  0  0  0  0  0  0  0  0
   -6.2374   21.3134  -33.4172 H   0  0  0  0  0  0  0  0  0  0  0  0
   -5.9638   20.4099  -31.8709 H   0  0  0  0  0  0  0  0  0  0  0  0
   -7.9267   19.7062  -34.1038 H   0  0  0  0  0  0  0  0  0  0  0  0
   -6.4353   18.8059  -33.6048 H   0  0  0  0  0  0  0  0  0  0  0  0
   -8.7290   17.9036  -32.8017 H   0  0  0  0  0  0  0  0  0  0  0  0
   -7.3747   18.1039  -31.5882 H   0  0  0  0  0  0  0  0  0  0  0  0
  -10.0141   19.0375  -31.3427 H   0  0  0  0  0  0  0  0  0  0  0  0
   -8.5581   19.4748  -30.3354 H   0  0  0  0  0  0  0  0  0  0  0  0
   -9.6372   20.9781  -32.7604 H   0  0  0  0  0  0  0  0  0  0  0  0
   -9.6447   21.5158  -31.0429 H   0  0  0  0  0  0  0  0  0  0  0  0
   -7.2059   24.7536  -29.7780 H   0  0  0  0  0  0  0  0  0  0  0  0
   -5.0548   25.5803  -28.8388 H   0  0  0  0  0  0  0  0  0  0  0  0
   -0.4505   23.0184  -30.7083 H   0  0  0  0  0  0  0  0  0  0  0  0
   -3.2367   20.6414  -33.2416 H   0  0  0  0  0  0  0  0  0  0  0  0
  1  2  1  0
  2  3  2  0
  3  4  1  0
  4  5  1  0
  5  6  2  0
  6  7  1  0
  7  8  1  0
  8  9  1  0
  9 10  1  0
 10 11  2  0
 11 12  1  0
 12 13  2  0
 13 14  1  0
 14 15  1  0
 15 16  2  0
 15 17  2  0
 15 18  1  0
 18 19  1  0
 19 20  2  0
 20 21  1  0
 21 22  2  0
 22 23  1  0
 23 24  2  0
 23 25  1  0
 25 26  1  0
 26 27  1  0
 27 28  1  0
 28 29  1  0
 29 30  1  0
 22 31  1  0
 31 32  2  0
 14 33  2  0
  7 34  2  0
 34 35  1  0
 35 36  2  0
 36  2  1  0
 35  4  1  0
 33 10  1  0
 32 19  1  0
 30 25  1  0
  1 37  1  0
  1 38  1  0
  1 39  1  0
  3 40  1  0
  5 41  1  0
  6 42  1  0
  8 43  1  0
  8 44  1  0
  9 45  1  0
 11 46  1  0
 12 47  1  0
 13 48  1  0
 18 49  1  0
 20 50  1  0
 21 51  1  0
 26 52  1  0
 26 53  1  0
 27 54  1  0
 27 55  1  0
 28 56  1  0
 28 57  1  0
 29 58  1  0
 29 59  1  0
 30 60  1  0
 30 61  1  0
 31 62  1  0
 32 63  1  0
 33 64  1  0
 34 65  1  0
M  END
>  <UniqueID>  (34) 
33

>  <SMILES>  (34) 
Cc1cn2ccc(CNc3cccc(S(=O)(=O)Nc4ccc(C(=O)N5CCCCC5)cc4)c3)cc2n1

>  <Energy>  (34) 
110.60897014799197

>  <Genealogy>  (34) 
Cc1cn2ccc(CNc3cccc(S(=O)(=O)Nc4ccc(C(=O)N5CCCCC5)cc4)c3)cc2n1 (3D coordinates assigned)
Cc1cn2ccc(CNc3cccc(S(=O)(=O)Nc4ccc(C(=O)N5CCCCC5)cc4)c3)cc2n1 (nonaromatic ring conformer: 110.60897014799197 kcal/mol)

>  <smiles>  (34) 
Cc1cn2ccc(CNc3cccc(S(=O)(=O)Nc4ccc(C(=O)N5CCCCC5)cc4)c3)cc2n1

>  <score_type>  (34) 
oracle

>  <origin>  (34) 
adgpu

>  <m_score__min__energy>  (34) 
-11.119999999999999

>  <m_primary>  (34) 
energy

$$$$
34:0
     RDKit          3D

 72 76  0  0  0  0  0  0  0  0999 V2000
   -0.0490   16.2450  -31.4980 C   0  0  0  0  0  0  0  0  0  0  0  0
    0.7510   17.5220  -31.1500 C   0  0  0  0  0  0  0  0  0  0  0  0
    1.6700   17.8770  -32.3460 C   0  0  0  0  0  0  0  0  0  0  0  0
    1.6800   17.2550  -29.9400 C   0  0  0  0  0  0  0  0  0  0  0  0
    0.9200   17.2400  -28.6190 C   0  0  0  0  0  0  0  0  0  0  0  0
    0.2540   18.6050  -28.3120 C   0  0  0  0  0  0  0  0  0  0  0  0
    1.3220   19.6220  -27.8370 C   0  0  0  0  0  0  0  0  0  0  0  0
   -0.7500   18.3610  -27.1570 C   0  0  0  0  0  0  0  0  0  0  0  0
   -0.4620   19.1750  -29.5460 C   0  0  0  0  0  0  0  0  0  0  0  0
   -1.3140   20.2920  -29.3860 C   0  0  0  0  0  0  0  0  0  0  0  0
   -1.9920   20.8530  -30.4730 C   0  0  0  0  0  0  0  0  0  0  0  0
   -2.8050   21.9840  -30.3010 C   0  0  0  0  0  0  0  0  0  0  0  0
   -3.4300   22.5800  -31.4010 C   0  0  0  0  0  0  0  0  0  0  0  0
   -4.1120   23.8260  -31.2140 N   0  0  0  0  0  0  0  0  0  0  0  0
   -5.6270   23.9690  -30.3790 S   0  0  0  0  0  0  0  0  0  0  0  0
   -6.1160   25.3870  -30.4770 O   0  0  0  0  0  0  0  0  0  0  0  0
   -5.4200   23.6000  -28.9380 O   0  0  0  0  0  0  0  0  0  0  0  0
   -6.8310   22.8970  -31.1040 C   0  0  0  0  0  0  0  0  0  0  0  0
   -8.0640   23.4140  -31.5270 C   0  0  0  0  0  0  0  0  0  0  0  0
   -9.0470   22.5590  -32.0310 C   0  0  0  0  0  0  0  0  0  0  0  0
   -8.8140   21.1820  -32.1010 C   0  0  0  0  0  0  0  0  0  0  0  0
   -7.5850   20.6530  -31.6820 C   0  0  0  0  0  0  0  0  0  0  0  0
   -7.2970   18.9110  -31.7410 S   0  0  0  0  0  0  0  0  0  0  0  0
   -6.1380   18.5740  -30.8430 O   0  0  0  0  0  0  0  0  0  0  0  0
   -8.5150   18.1940  -31.2210 O   0  0  0  0  0  0  0  0  0  0  0  0
   -6.9650   18.3650  -33.3700 N   0  0  0  0  0  0  0  0  0  0  0  0
   -6.5210   16.9490  -33.3750 C   0  0  0  0  0  0  0  0  0  0  0  0
   -5.6700   16.6160  -34.6040 C   0  0  0  0  0  0  0  0  0  0  0  0
   -4.3840   17.4610  -34.6100 C   0  0  0  0  0  0  0  0  0  0  0  0
   -4.5970   18.8830  -34.0560 C   0  0  0  0  0  0  0  0  0  0  0  0
   -6.0780   19.3050  -34.0940 C   0  0  0  0  0  0  0  0  0  0  0  0
   -6.5870   21.5180  -31.2100 C   0  0  0  0  0  0  0  0  0  0  0  0
   -3.3050   21.9940  -32.6710 C   0  0  0  0  0  0  0  0  0  0  0  0
   -2.5170   20.8550  -32.8470 C   0  0  0  0  0  0  0  0  0  0  0  0
   -1.8370   20.2940  -31.7550 C   0  0  0  0  0  0  0  0  0  0  0  0
   -0.9800   19.2060  -31.9360 C   0  0  0  0  0  0  0  0  0  0  0  0
   -0.2340   18.6690  -30.8630 C   0  0  0  0  0  0  0  0  0  0  0  0
   -0.3626   15.7445  -30.5700 H   0  0  0  0  0  0  0  0  0  0  0  0
   -0.9378   16.5179  -32.0858 H   0  0  0  0  0  0  0  0  0  0  0  0
    0.5844   15.5643  -32.0858 H   0  0  0  0  0  0  0  0  0  0  0  0
    2.6342   18.2495  -31.9696 H   0  0  0  0  0  0  0  0  0  0  0  0
    1.8378   16.9790  -32.9587 H   0  0  0  0  0  0  0  0  0  0  0  0
    1.1905   18.6546  -32.9587 H   0  0  0  0  0  0  0  0  0  0  0  0
    2.1688   16.2793  -30.0779 H   0  0  0  0  0  0  0  0  0  0  0  0
    2.4166   18.0707  -29.8950 H   0  0  0  0  0  0  0  0  0  0  0  0
    0.1384   16.4676  -28.6686 H   0  0  0  0  0  0  0  0  0  0  0  0
    1.6417   17.0280  -27.8163 H   0  0  0  0  0  0  0  0  0  0  0  0
    1.3445   19.6434  -26.7374 H   0  0  0  0  0  0  0  0  0  0  0  0
    2.3092   19.3219  -28.2182 H   0  0  0  0  0  0  0  0  0  0  0  0
    1.0705   20.6227  -28.2182 H   0  0  0  0  0  0  0  0  0  0  0  0
   -0.2365   18.4858  -26.1923 H   0  0  0  0  0  0  0  0  0  0  0  0
   -1.5752   19.0847  -27.2294 H   0  0  0  0  0  0  0  0  0  0  0  0
   -1.1510   17.3393  -27.2294 H   0  0  0  0  0  0  0  0  0  0  0  0
   -1.4464   20.7291  -28.3853 H   0  0  0  0  0  0  0  0  0  0  0  0
   -2.9515   22.4042  -29.2950 H   0  0  0  0  0  0  0  0  0  0  0  0
   -8.2575   24.4949  -31.4618 H   0  0  0  0  0  0  0  0  0  0  0  0
  -10.0078   22.9704  -32.3740 H   0  0  0  0  0  0  0  0  0  0  0  0
   -9.5970   20.5120  -32.4858 H   0  0  0  0  0  0  0  0  0  0  0  0
   -5.9252   16.7610  -32.4696 H   0  0  0  0  0  0  0  0  0  0  0  0
   -7.4181   16.3130  -33.4019 H   0  0  0  0  0  0  0  0  0  0  0  0
   -5.4028   15.5492  -34.5817 H   0  0  0  0  0  0  0  0  0  0  0  0
   -6.2496   16.8413  -35.5114 H   0  0  0  0  0  0  0  0  0  0  0  0
   -3.6280   16.9536  -33.9927 H   0  0  0  0  0  0  0  0  0  0  0  0
   -4.0596   17.5601  -35.6564 H   0  0  0  0  0  0  0  0  0  0  0  0
   -4.2463   18.9137  -33.0139 H   0  0  0  0  0  0  0  0  0  0  0  0
   -4.0299   19.5812  -34.6892 H   0  0  0  0  0  0  0  0  0  0  0  0
   -6.1712   20.2999  -33.6342 H   0  0  0  0  0  0  0  0  0  0  0  0
   -6.3926   19.3095  -35.1481 H   0  0  0  0  0  0  0  0  0  0  0  0
   -5.6059   21.1134  -30.9207 H   0  0  0  0  0  0  0  0  0  0  0  0
   -3.8304   22.4344  -33.5312 H   0  0  0  0  0  0  0  0  0  0  0  0
   -2.4290   20.3966  -33.8431 H   0  0  0  0  0  0  0  0  0  0  0  0
   -0.8838   18.7574  -32.9358 H   0  0  0  0  0  0  0  0  0  0  0  0
  1  2  1  0
  2  3  1  0
  2  4  1  0
  4  5  1  0
  5  6  1  0
  6  7  1  0
  6  8  1  0
  6  9  1  0
  9 10  2  0
 10 11  1  0
 11 12  2  0
 12 13  1  0
 13 14  1  0
 14 15  1  0
 15 16  2  0
 15 17  2  0
 15 18  1  0
 18 19  2  0
 19 20  1  0
 20 21  2  0
 21 22  1  0
 22 23  1  0
 23 24  2  0
 23 25  2  0
 23 26  1  0
 26 27  1  0
 27 28  1  0
 28 29  1  0
 29 30  1  0
 30 31  1  0
 22 32  2  0
 13 33  2  0
 33 34  1  0
 34 35  2  0
 35 36  1  0
 36 37  2  0
 37  2  1  0
 37  9  1  0
 35 11  1  0
 32 18  1  0
 31 26  1  0
  1 38  1  0
  1 39  1  0
  1 40  1  0
  3 41  1  0
  3 42  1  0
  3 43  1  0
  4 44  1  0
  4 45  1  0
  5 46  1  0
  5 47  1  0
  7 48  1  0
  7 49  1  0
  7 50  1  0
  8 51  1  0
  8 52  1  0
  8 53  1  0
 10 54  1  0
 12 55  1  0
 19 56  1  0
 20 57  1  0
 21 58  1  0
 27 59  1  0
 27 60  1  0
 28 61  1  0
 28 62  1  0
 29 63  1  0
 29 64  1  0
 30 65  1  0
 30 66  1  0
 31 67  1  0
 31 68  1  0
 32 69  1  0
 33 70  1  0
 34 71  1  0
 36 72  1  0
M  CHG  1  14  -1
M  END
>  <UniqueID>  (35) 
34

>  <SMILES>  (35) 
CC1(C)CCC(C)(C)c2cc3cc([N-]S(=O)(=O)c4cccc(S(=O)(=O)N5CCCCC5)c4)ccc3cc21

>  <Energy>  (35) 
90.6497784387972

>  <Genealogy>  (35) 
CC1(C)CCC(C)(C)c2cc3cc([N-]S(=O)(=O)c4cccc(S(=O)(=O)N5CCCCC5)c4)ccc3cc21 (protonated)
CC1(C)CCC(C)(C)c2cc3cc([N-]S(=O)(=O)c4cccc(S(=O)(=O)N5CCCCC5)c4)ccc3cc21 (3D coordinates assigned)
CC1(C)CCC(C)(C)c2cc3cc([N-]S(=O)(=O)c4cccc(S(=O)(=O)N5CCCCC5)c4)ccc3cc21 (nonaromatic ring conformer: 90.6497784387972 kcal/mol)

>  <smiles>  (35) 
CC1(C)CCC(C)(C)c2cc3cc(NS(=O)(=O)c4cccc(S(=O)(=O)N5CCCCC5)c4)ccc3cc21

>  <score_type>  (35) 
oracle

>  <origin>  (35) 
adgpu

>  <m_score__min__energy>  (35) 
-12.76

>  <m_primary>  (35) 
energy

$$$$
35:0
     RDKit          3D

 55 57  0  0  0  0  0  0  0  0999 V2000
    0.1140   21.1590  -35.7470 C   0  0  0  0  0  0  0  0  0  0  0  0
   -0.1180   19.7700  -35.3740 N   0  0  0  0  0  0  0  0  0  0  0  0
   -1.1920   19.3180  -34.5400 C   0  0  0  0  0  0  0  0  0  0  0  0
   -1.6960   18.1850  -34.7620 O   0  0  0  0  0  0  0  0  0  0  0  0
   -1.7030   20.1240  -33.4120 C   0  0  0  0  0  0  0  0  0  0  0  0
   -0.8330   20.8720  -32.6110 C   0  0  0  0  0  0  0  0  0  0  0  0
   -1.3200   21.6260  -31.5930 N   0  0  0  0  0  0  0  0  0  0  0  0
   -2.6530   21.6670  -31.3230 C   0  0  0  0  0  0  0  0  0  0  0  0
   -3.1270   22.4030  -30.3610 N   0  0  0  0  0  0  0  0  0  0  0  0
   -2.3730   23.1740  -29.4110 C   0  0  0  0  0  0  0  0  0  0  0  0
   -1.4970   22.5600  -28.4990 C   0  0  0  0  0  0  0  0  0  0  0  0
   -0.8080   23.3260  -27.5550 C   0  0  0  0  0  0  0  0  0  0  0  0
   -0.9970   24.7150  -27.4960 C   0  0  0  0  0  0  0  0  0  0  0  0
   -0.3160   25.5410  -26.5410 N   0  0  0  0  0  0  0  0  0  0  0  0
   -1.0720   26.5240  -25.3270 S   0  0  0  0  0  0  0  0  0  0  0  0
   -0.2420   26.3160  -23.7660 C   0  0  0  0  0  0  0  0  0  0  0  0
   -2.5010   26.0860  -25.1750 O   0  0  0  0  0  0  0  0  0  0  0  0
   -1.0500   27.9670  -25.7470 O   0  0  0  0  0  0  0  0  0  0  0  0
   -1.8880   25.3230  -28.3880 C   0  0  0  0  0  0  0  0  0  0  0  0
   -2.5880   24.5600  -29.3420 C   0  0  0  0  0  0  0  0  0  0  0  0
   -3.4970   25.1410  -30.2410 O   0  0  0  0  0  0  0  0  0  0  0  0
   -4.9050   24.9220  -30.2220 C   0  0  0  0  0  0  0  0  0  0  0  0
   -3.5150   20.9680  -32.1050 N   0  0  0  0  0  0  0  0  0  0  0  0
   -3.0790   20.2100  -33.1480 C   0  0  0  0  0  0  0  0  0  0  0  0
   -3.9910   19.4840  -33.9300 O   0  0  0  0  0  0  0  0  0  0  0  0
   -5.2640   19.0740  -33.5090 C   0  0  0  0  0  0  0  0  0  0  0  0
   -5.4980   17.7090  -33.3110 C   0  0  0  0  0  0  0  0  0  0  0  0
   -6.7550   17.2600  -32.9020 C   0  0  0  0  0  0  0  0  0  0  0  0
   -7.7890   18.1750  -32.6830 C   0  0  0  0  0  0  0  0  0  0  0  0
   -7.5710   19.5450  -32.8670 C   0  0  0  0  0  0  0  0  0  0  0  0
   -8.6620   20.4550  -32.6660 N   0  0  0  0  0  0  0  0  0  0  0  0
   -8.7180   21.5280  -31.7150 C   0  0  0  0  0  0  0  0  0  0  0  0
   -7.5540   22.4400  -31.4700 C   0  0  0  0  0  0  0  0  0  0  0  0
   -9.7670   21.6870  -31.0380 O   0  0  0  0  0  0  0  0  0  0  0  0
   -6.3170   19.9880  -33.3180 C   0  0  0  0  0  0  0  0  0  0  0  0
    0.2161   21.7705  -34.8384 H   0  0  0  0  0  0  0  0  0  0  0  0
    1.0364   21.2297  -36.3421 H   0  0  0  0  0  0  0  0  0  0  0  0
   -0.7354   21.5256  -36.3421 H   0  0  0  0  0  0  0  0  0  0  0  0
    0.2491   20.8488  -32.8070 H   0  0  0  0  0  0  0  0  0  0  0  0
   -1.3530   21.4699  -28.5287 H   0  0  0  0  0  0  0  0  0  0  0  0
   -0.1142   22.8377  -26.8549 H   0  0  0  0  0  0  0  0  0  0  0  0
   -0.9532   26.4942  -22.9460 H   0  0  0  0  0  0  0  0  0  0  0  0
    0.1517   25.2914  -23.6937 H   0  0  0  0  0  0  0  0  0  0  0  0
    0.5884   27.0338  -23.6937 H   0  0  0  0  0  0  0  0  0  0  0  0
   -2.0433   26.4111  -28.3431 H   0  0  0  0  0  0  0  0  0  0  0  0
   -5.2536   24.8678  -29.1801 H   0  0  0  0  0  0  0  0  0  0  0  0
   -5.4121   25.7521  -30.7356 H   0  0  0  0  0  0  0  0  0  0  0  0
   -5.1361   23.9771  -30.7356 H   0  0  0  0  0  0  0  0  0  0  0  0
   -4.6868   16.9852  -33.4786 H   0  0  0  0  0  0  0  0  0  0  0  0
   -6.9321   16.1848  -32.7518 H   0  0  0  0  0  0  0  0  0  0  0  0
   -8.7789   17.8163  -32.3645 H   0  0  0  0  0  0  0  0  0  0  0  0
   -7.4027   22.5585  -30.3869 H   0  0  0  0  0  0  0  0  0  0  0  0
   -6.6486   22.0084  -31.9216 H   0  0  0  0  0  0  0  0  0  0  0  0
   -7.7565   23.4224  -31.9216 H   0  0  0  0  0  0  0  0  0  0  0  0
   -6.1567   21.0567  -33.5234 H   0  0  0  0  0  0  0  0  0  0  0  0
  1  2  1  0
  2  3  1  0
  3  4  2  0
  3  5  1  0
  5  6  1  0
  6  7  2  0
  7  8  1  0
  8  9  2  3
  9 10  1  0
 10 11  2  0
 11 12  1  0
 12 13  2  0
 13 14  1  0
 14 15  1  0
 15 16  1  0
 15 17  2  0
 15 18  2  0
 13 19  1  0
 19 20  2  0
 20 21  1  0
 21 22  1  0
  8 23  1  0
 23 24  1  0
 24 25  1  0
 25 26  1  0
 26 27  2  0
 27 28  1  0
 28 29  2  0
 29 30  1  0
 30 31  1  0
 31 32  1  0
 32 33  1  0
 32 34  2  0
 30 35  2  0
 24  5  2  0
 35 26  1  0
 20 10  1  0
  1 36  1  0
  1 37  1  0
  1 38  1  0
  6 39  1  0
 11 40  1  0
 12 41  1  0
 16 42  1  0
 16 43  1  0
 16 44  1  0
 19 45  1  0
 22 46  1  0
 22 47  1  0
 22 48  1  0
 27 49  1  0
 28 50  1  0
 29 51  1  0
 33 52  1  0
 33 53  1  0
 33 54  1  0
 35 55  1  0
M  CHG  4   2  -1  14  -1  23  -1  31  -1
M  END
>  <UniqueID>  (36) 
35

>  <SMILES>  (36) 
C[N-]C(=O)c1cnc(=Nc2ccc([N-]S(C)(=O)=O)cc2OC)[n-]c1Oc1cccc([N-]C(C)=O)c1

>  <Energy>  (36) 
72.85806042917437

>  <Genealogy>  (36) 
C[N-]C(=O)c1cnc(=Nc2ccc([N-]S(C)(=O)=O)cc2OC)[n-]c1Oc1cccc([N-]C(C)=O)c1 (protonated)
C[N-]C(=O)c1cnc(=Nc2ccc([N-]S(C)(=O)=O)cc2OC)[n-]c1Oc1cccc([N-]C(C)=O)c1 (3D coordinates assigned)
C[N-]C(=O)c1cnc(=Nc2ccc([N-]S(C)(=O)=O)cc2OC)[n-]c1Oc1cccc([N-]C(C)=O)c1 (optimized conformer: 72.85806042917437 kcal/mol)

>  <smiles>  (36) 
CNC(=O)c1cnc(=Nc2ccc(NS(C)(=O)=O)cc2OC)[nH]c1Oc1cccc(NC(C)=O)c1

>  <score_type>  (36) 
oracle

>  <origin>  (36) 
adgpu

>  <m_score__min__energy>  (36) 
-10.59

>  <m_primary>  (36) 
energy

$$$$
36:0
     RDKit          3D

 67 71  0  0  0  0  0  0  0  0999 V2000
    1.1370   23.0510  -27.0380 C   0  0  0  0  0  0  0  0  0  0  0  0
    0.0650   22.7110  -28.0370 C   0  0  0  0  0  0  0  0  0  0  0  0
    0.1450   21.5070  -28.7490 C   0  0  0  0  0  0  0  0  0  0  0  0
   -0.8380   21.1650  -29.6800 C   0  0  0  0  0  0  0  0  0  0  0  0
   -1.9260   22.0210  -29.9200 C   0  0  0  0  0  0  0  0  0  0  0  0
   -2.9510   21.6390  -30.9220 C   0  0  0  0  0  0  0  0  0  0  0  0
   -3.7080   22.5350  -31.3900 O   0  0  0  0  0  0  0  0  0  0  0  0
   -3.0990   20.2760  -31.3640 N   0  0  0  0  0  0  0  0  0  0  0  0
   -4.1770   19.8200  -32.2000 C   0  0  0  0  0  0  0  0  0  0  0  0
   -3.9330   19.1100  -33.3890 C   0  0  0  0  0  0  0  0  0  0  0  0
   -4.9970   18.7100  -34.2020 C   0  0  0  0  0  0  0  0  0  0  0  0
   -6.3100   19.0230  -33.8450 C   0  0  0  0  0  0  0  0  0  0  0  0
   -6.5670   19.7420  -32.6710 C   0  0  0  0  0  0  0  0  0  0  0  0
   -8.2220   20.1670  -32.2460 S   0  0  0  0  0  0  0  0  0  0  0  0
   -9.0910   20.0390  -33.4660 O   0  0  0  0  0  0  0  0  0  0  0  0
   -8.7340   19.2220  -31.1920 O   0  0  0  0  0  0  0  0  0  0  0  0
   -8.2660   21.8130  -31.6690 N   0  0  0  0  0  0  0  0  0  0  0  0
   -7.3790   22.6760  -32.4490 C   0  0  0  0  0  0  0  0  0  0  0  0
   -6.9340   23.7990  -31.5230 C   0  0  0  0  0  0  0  0  0  0  0  0
   -7.2480   23.3140  -30.1170 C   0  0  0  0  0  0  0  0  0  0  0  0
   -7.7860   21.9050  -30.2910 C   0  0  0  0  0  0  0  0  0  0  0  0
   -5.4980   20.1510  -31.8600 C   0  0  0  0  0  0  0  0  0  0  0  0
   -2.0270   23.2120  -29.1780 C   0  0  0  0  0  0  0  0  0  0  0  0
   -1.0460   23.5570  -28.2370 C   0  0  0  0  0  0  0  0  0  0  0  0
   -1.1860   24.7740  -27.4930 N   0  0  0  0  0  0  0  0  0  0  0  0
   -1.5620   24.7030  -26.0740 C   0  0  0  0  0  0  0  0  0  0  0  0
   -1.8450   26.0970  -25.5080 C   0  0  0  0  0  0  0  0  0  0  0  0
   -0.7910   27.0250  -25.9380 N   0  0  0  0  0  0  0  0  0  0  0  0
   -0.0450   27.7900  -24.9720 C   0  0  0  0  0  0  0  0  0  0  0  0
    0.1910   29.1590  -25.1730 C   0  0  0  0  0  0  0  0  0  0  0  0
    0.9240   29.8810  -24.2270 C   0  0  0  0  0  0  0  0  0  0  0  0
    1.4130   29.2570  -23.1230 N   0  0  0  0  0  0  0  0  0  0  0  0
    1.2070   27.9300  -22.9050 C   0  0  0  0  0  0  0  0  0  0  0  0
    0.4780   27.1730  -23.8240 C   0  0  0  0  0  0  0  0  0  0  0  0
   -0.4390   27.1170  -27.3650 C   0  0  0  0  0  0  0  0  0  0  0  0
   -1.1720   26.0590  -28.2020 C   0  0  0  0  0  0  0  0  0  0  0  0
    0.7418   22.9257  -26.0191 H   0  0  0  0  0  0  0  0  0  0  0  0
    1.9981   22.3819  -27.1822 H   0  0  0  0  0  0  0  0  0  0  0  0
    1.4550   24.0941  -27.1822 H   0  0  0  0  0  0  0  0  0  0  0  0
    0.9898   20.8249  -28.5730 H   0  0  0  0  0  0  0  0  0  0  0  0
   -0.7598   20.2161  -30.2309 H   0  0  0  0  0  0  0  0  0  0  0  0
   -2.3780   19.5690  -31.1010 H   0  0  0  0  0  0  0  0  0  0  0  0
   -2.9002   18.8684  -33.6804 H   0  0  0  0  0  0  0  0  0  0  0  0
   -4.7994   18.1468  -35.1260 H   0  0  0  0  0  0  0  0  0  0  0  0
   -7.1443   18.7042  -34.4872 H   0  0  0  0  0  0  0  0  0  0  0  0
   -6.5063   22.1051  -32.7988 H   0  0  0  0  0  0  0  0  0  0  0  0
   -7.8947   23.0752  -33.3349 H   0  0  0  0  0  0  0  0  0  0  0  0
   -5.8554   23.9842  -31.6339 H   0  0  0  0  0  0  0  0  0  0  0  0
   -7.4466   24.7448  -31.7526 H   0  0  0  0  0  0  0  0  0  0  0  0
   -6.3375   23.3054  -29.4999 H   0  0  0  0  0  0  0  0  0  0  0  0
   -7.9705   23.9693  -29.6085 H   0  0  0  0  0  0  0  0  0  0  0  0
   -6.9876   21.1688  -30.1164 H   0  0  0  0  0  0  0  0  0  0  0  0
   -8.5926   21.6949  -29.5732 H   0  0  0  0  0  0  0  0  0  0  0  0
   -5.6966   20.7361  -30.9499 H   0  0  0  0  0  0  0  0  0  0  0  0
   -2.8857   23.8806  -29.3378 H   0  0  0  0  0  0  0  0  0  0  0  0
   -2.4655   24.0839  -25.9724 H   0  0  0  0  0  0  0  0  0  0  0  0
   -0.7253   24.2615  -25.5127 H   0  0  0  0  0  0  0  0  0  0  0  0
   -2.8185   26.4517  -25.8774 H   0  0  0  0  0  0  0  0  0  0  0  0
   -1.8643   26.0489  -24.4092 H   0  0  0  0  0  0  0  0  0  0  0  0
   -0.1990   29.6611  -26.0706 H   0  0  0  0  0  0  0  0  0  0  0  0
    1.1054   30.9556  -24.3762 H   0  0  0  0  0  0  0  0  0  0  0  0
    1.6158   27.4523  -22.0024 H   0  0  0  0  0  0  0  0  0  0  0  0
    0.3142   26.0993  -23.6499 H   0  0  0  0  0  0  0  0  0  0  0  0
   -0.7121   28.1161  -27.7355 H   0  0  0  0  0  0  0  0  0  0  0  0
    0.6425   26.9414  -27.4626 H   0  0  0  0  0  0  0  0  0  0  0  0
   -2.2067   26.3880  -28.3787 H   0  0  0  0  0  0  0  0  0  0  0  0
   -0.6491   25.9343  -29.1617 H   0  0  0  0  0  0  0  0  0  0  0  0
  1  2  1  0
  2  3  2  0
  3  4  1  0
  4  5  2  0
  5  6  1  0
  6  7  2  0
  6  8  1  0
  8  9  1  0
  9 10  2  0
 10 11  1  0
 11 12  2  0
 12 13  1  0
 13 14  1  0
 14 15  2  0
 14 16  2  0
 14 17  1  0
 17 18  1  0
 18 19  1  0
 19 20  1  0
 20 21  1  0
 13 22  2  0
  5 23  1  0
 23 24  2  0
 24 25  1  0
 25 26  1  0
 26 27  1  0
 27 28  1  0
 28 29  1  0
 29 30  2  0
 30 31  1  0
 31 32  2  0
 32 33  1  0
 33 34  2  0
 28 35  1  0
 35 36  1  0
 24  2  1  0
 36 25  1  0
 22  9  1  0
 34 29  1  0
 21 17  1  0
  1 37  1  0
  1 38  1  0
  1 39  1  0
  3 40  1  0
  4 41  1  0
  8 42  1  0
 10 43  1  0
 11 44  1  0
 12 45  1  0
 18 46  1  0
 18 47  1  0
 19 48  1  0
 19 49  1  0
 20 50  1  0
 20 51  1  0
 21 52  1  0
 21 53  1  0
 22 54  1  0
 23 55  1  0
 26 56  1  0
 26 57  1  0
 27 58  1  0
 27 59  1  0
 30 60  1  0
 31 61  1  0
 33 62  1  0
 34 63  1  0
 35 64  1  0
 35 65  1  0
 36 66  1  0
 36 67  1  0
M  END
>  <UniqueID>  (37) 
36

>  <SMILES>  (37) 
Cc1ccc(C(=O)Nc2cccc(S(=O)(=O)N3CCCC3)c2)cc1N1CCN(c2ccncc2)CC1

>  <Energy>  (37) 
88.61982667840626

>  <Genealogy>  (37) 
Cc1ccc(C(=O)Nc2cccc(S(=O)(=O)N3CCCC3)c2)cc1N1CCN(c2ccncc2)CC1 (3D coordinates assigned)
Cc1ccc(C(=O)Nc2cccc(S(=O)(=O)N3CCCC3)c2)cc1N1CCN(c2ccncc2)CC1 (nonaromatic ring conformer: 88.61982667840626 kcal/mol)

>  <smiles>  (37) 
Cc1ccc(C(=O)Nc2cccc(S(=O)(=O)N3CCCC3)c2)cc1N1CCN(c2ccncc2)CC1

>  <score_type>  (37) 
oracle

>  <origin>  (37) 
adgpu

>  <m_score__min__energy>  (37) 
-10.58

>  <m_primary>  (37) 
energy

$$$$
37:0
     RDKit          3D

 39 41  0  0  0  0  0  0  0  0999 V2000
   -0.5810   24.5090  -29.2000 O   0  0  0  0  0  0  0  0  0  0  0  0
   -1.4600   23.7530  -29.6920 C   0  0  0  0  0  0  0  0  0  0  0  0
   -1.0450   22.5230  -30.3020 N   0  0  0  0  0  0  0  0  0  0  0  0
   -1.7600   21.7960  -31.3120 C   0  0  0  0  0  0  0  0  0  0  0  0
   -1.0930   21.1670  -32.3780 C   0  0  0  0  0  0  0  0  0  0  0  0
   -1.8210   20.4820  -33.3560 C   0  0  0  0  0  0  0  0  0  0  0  0
   -3.2150   20.4310  -33.2850 C   0  0  0  0  0  0  0  0  0  0  0  0
   -3.8900   21.0700  -32.2360 C   0  0  0  0  0  0  0  0  0  0  0  0
   -5.6490   21.0400  -32.1470 S   0  0  0  0  0  0  0  0  0  0  0  0
   -6.0630   19.8760  -31.2900 O   0  0  0  0  0  0  0  0  0  0  0  0
   -6.2310   20.8540  -33.5220 O   0  0  0  0  0  0  0  0  0  0  0  0
   -6.2330   22.5310  -31.4410 N   0  0  0  0  0  0  0  0  0  0  0  0
   -7.1710   23.2140  -32.3410 C   0  0  0  0  0  0  0  0  0  0  0  0
   -8.5780   22.7760  -31.9600 C   0  0  0  0  0  0  0  0  0  0  0  0
   -8.4570   22.1660  -30.5740 C   0  0  0  0  0  0  0  0  0  0  0  0
   -6.9830   22.2730  -30.2060 C   0  0  0  0  0  0  0  0  0  0  0  0
   -3.1590   21.7590  -31.2600 C   0  0  0  0  0  0  0  0  0  0  0  0
   -2.8740   24.1820  -29.6610 C   0  0  0  0  0  0  0  0  0  0  0  0
   -3.6230   24.1730  -28.4760 C   0  0  0  0  0  0  0  0  0  0  0  0
   -4.9560   24.5770  -28.5080 C   0  0  0  0  0  0  0  0  0  0  0  0
   -5.5170   24.9680  -29.7230 C   0  0  0  0  0  0  0  0  0  0  0  0
   -6.7190   25.3370  -29.7810 O   0  0  0  0  0  0  0  0  0  0  0  0
   -4.7600   24.9430  -30.8490 N   0  0  0  0  0  0  0  0  0  0  0  0
   -3.4810   24.5600  -30.8190 N   0  0  0  0  0  0  0  0  0  0  0  0
    0.0041   21.2138  -32.4429 H   0  0  0  0  0  0  0  0  0  0  0  0
   -1.2948   19.9824  -34.1828 H   0  0  0  0  0  0  0  0  0  0  0  0
   -3.7842   19.8882  -34.0540 H   0  0  0  0  0  0  0  0  0  0  0  0
   -5.4100   23.1470  -31.2420 H   0  0  0  0  0  0  0  0  0  0  0  0
   -7.0738   24.3037  -32.2269 H   0  0  0  0  0  0  0  0  0  0  0  0
   -6.9572   22.9563  -33.3888 H   0  0  0  0  0  0  0  0  0  0  0  0
   -9.2570   23.6412  -31.9404 H   0  0  0  0  0  0  0  0  0  0  0  0
   -8.9904   22.0587  -32.6849 H   0  0  0  0  0  0  0  0  0  0  0  0
   -9.0739   22.7237  -29.8540 H   0  0  0  0  0  0  0  0  0  0  0  0
   -8.8059   21.1229  -30.5568 H   0  0  0  0  0  0  0  0  0  0  0  0
   -6.8329   23.1002  -29.4967 H   0  0  0  0  0  0  0  0  0  0  0  0
   -6.6357   21.3436  -29.7311 H   0  0  0  0  0  0  0  0  0  0  0  0
   -3.6883   22.2755  -30.4457 H   0  0  0  0  0  0  0  0  0  0  0  0
   -3.1629   23.8502  -27.5304 H   0  0  0  0  0  0  0  0  0  0  0  0
   -5.5576   24.5873  -27.5872 H   0  0  0  0  0  0  0  0  0  0  0  0
  1  2  2  0
  2  3  1  0
  3  4  1  0
  4  5  2  0
  5  6  1  0
  6  7  2  0
  7  8  1  0
  8  9  1  0
  9 10  2  0
  9 11  2  0
  9 12  1  0
 12 13  1  0
 13 14  1  0
 14 15  1  0
 15 16  1  0
  8 17  2  0
  2 18  1  0
 18 19  1  0
 19 20  2  0
 20 21  1  0
 21 22  2  0
 21 23  1  0
 23 24  1  0
 17  4  1  0
 24 18  2  0
 16 12  1  0
  5 25  1  0
  6 26  1  0
  7 27  1  0
 12 28  1  0
 13 29  1  0
 13 30  1  0
 14 31  1  0
 14 32  1  0
 15 33  1  0
 15 34  1  0
 16 35  1  0
 16 36  1  0
 17 37  1  0
 19 38  1  0
 20 39  1  0
M  CHG  3   3  -1  12   1  23  -1
M  END
>  <UniqueID>  (38) 
37

>  <SMILES>  (38) 
O=C([N-]c1cccc(S(=O)(=O)[NH+]2CCCC2)c1)c1ccc(=O)[n-]n1

>  <Energy>  (38) 
49.277233636309006

>  <Genealogy>  (38) 
O=C([N-]c1cccc(S(=O)(=O)[NH+]2CCCC2)c1)c1ccc(=O)[n-]n1 (protonated)
O=C([N-]c1cccc(S(=O)(=O)[NH+]2CCCC2)c1)c1ccc(=O)[n-]n1 (3D coordinates assigned)
O=C([N-]c1cccc(S(=O)(=O)[NH+]2CCCC2)c1)c1ccc(=O)[n-]n1 (nonaromatic ring conformer: 49.277233636309006 kcal/mol)

>  <smiles>  (38) 
O=C(Nc1cccc(S(=O)(=O)N2CCCC2)c1)c1ccc(=O)[nH]n1

>  <score_type>  (38) 
oracle

>  <origin>  (38) 
adgpu

>  <m_score__min__energy>  (38) 
-10.779999999999999

>  <m_primary>  (38) 
energy

$$$$
38:0
     RDKit          3D

 59 62  0  0  0  0  0  0  0  0999 V2000
   -5.7890   26.0280  -31.2780 O   0  0  0  0  0  0  0  0  0  0  0  0
   -5.1230   25.0600  -30.8260 C   0  0  0  0  0  0  0  0  0  0  0  0
   -3.7870   25.2930  -30.3670 N   0  0  0  0  0  0  0  0  0  0  0  0
   -3.1780   24.6110  -29.2630 C   0  0  0  0  0  0  0  0  0  0  0  0
   -3.8890   23.5870  -28.6310 C   0  0  0  0  0  0  0  0  0  0  0  0
   -3.3130   22.8720  -27.5810 C   0  0  0  0  0  0  0  0  0  0  0  0
   -2.0290   23.1890  -27.1360 C   0  0  0  0  0  0  0  0  0  0  0  0
   -1.3190   24.2430  -27.7290 C   0  0  0  0  0  0  0  0  0  0  0  0
    0.3180   24.6290  -27.1920 S   0  0  0  0  0  0  0  0  0  0  0  0
    0.7170   23.6370  -26.1330 O   0  0  0  0  0  0  0  0  0  0  0  0
    1.2850   24.5240  -28.3400 O   0  0  0  0  0  0  0  0  0  0  0  0
    0.3370   26.2480  -26.5250 N   0  0  0  0  0  0  0  0  0  0  0  0
    1.0510   26.2940  -25.2360 C   0  0  0  0  0  0  0  0  0  0  0  0
    0.1980   25.7480  -24.0650 C   0  0  0  0  0  0  0  0  0  0  0  0
   -1.1870   25.6780  -24.3490 O   0  0  0  0  0  0  0  0  0  0  0  0
   -1.5970   26.8390  -25.0340 C   0  0  0  0  0  0  0  0  0  0  0  0
   -1.0170   26.8430  -26.4580 C   0  0  0  0  0  0  0  0  0  0  0  0
   -1.8990   24.9650  -28.7880 C   0  0  0  0  0  0  0  0  0  0  0  0
   -1.2150   26.0380  -29.3530 O   0  0  0  0  0  0  0  0  0  0  0  0
   -5.7090   23.7530  -30.6900 N   0  0  0  0  0  0  0  0  0  0  0  0
   -5.5010   22.5630  -31.4740 C   0  0  0  0  0  0  0  0  0  0  0  0
   -6.5670   21.7480  -31.9020 C   0  0  0  0  0  0  0  0  0  0  0  0
   -6.3180   20.6120  -32.6720 C   0  0  0  0  0  0  0  0  0  0  0  0
   -5.0130   20.2860  -33.0460 C   0  0  0  0  0  0  0  0  0  0  0  0
   -3.9400   21.1000  -32.6620 C   0  0  0  0  0  0  0  0  0  0  0  0
   -2.3080   20.6860  -33.2210 S   0  0  0  0  0  0  0  0  0  0  0  0
   -1.6860   21.9110  -33.8380 O   0  0  0  0  0  0  0  0  0  0  0  0
   -2.3760   19.6260  -34.2850 O   0  0  0  0  0  0  0  0  0  0  0  0
   -1.2950   20.1040  -31.9210 N   0  0  0  0  0  0  0  0  0  0  0  0
    0.0480   19.7540  -32.4180 C   0  0  0  0  0  0  0  0  0  0  0  0
    0.9870   19.4030  -31.2450 C   0  0  0  0  0  0  0  0  0  0  0  0
    0.2750   19.3190  -30.0220 O   0  0  0  0  0  0  0  0  0  0  0  0
   -0.2870   20.5810  -29.7090 C   0  0  0  0  0  0  0  0  0  0  0  0
   -1.1960   21.1020  -30.8440 C   0  0  0  0  0  0  0  0  0  0  0  0
   -4.1810   22.2390  -31.8650 C   0  0  0  0  0  0  0  0  0  0  0  0
   -3.1070   23.0410  -31.4630 O   0  0  0  0  0  0  0  0  0  0  0  0
   -4.9088   23.3435  -28.9636 H   0  0  0  0  0  0  0  0  0  0  0  0
   -3.8729   22.0553  -27.1020 H   0  0  0  0  0  0  0  0  0  0  0  0
   -1.5729   22.6111  -26.3186 H   0  0  0  0  0  0  0  0  0  0  0  0
    1.9659   25.6888  -25.3179 H   0  0  0  0  0  0  0  0  0  0  0  0
    1.2806   27.3476  -25.0189 H   0  0  0  0  0  0  0  0  0  0  0  0
    0.5530   24.7361  -23.8201 H   0  0  0  0  0  0  0  0  0  0  0  0
    0.3174   26.4512  -23.2276 H   0  0  0  0  0  0  0  0  0  0  0  0
   -2.6954   26.8610  -25.0882 H   0  0  0  0  0  0  0  0  0  0  0  0
   -1.2319   27.7247  -24.4933 H   0  0  0  0  0  0  0  0  0  0  0  0
   -1.6874   26.2668  -27.1127 H   0  0  0  0  0  0  0  0  0  0  0  0
   -0.9356   27.8914  -26.7807 H   0  0  0  0  0  0  0  0  0  0  0  0
   -7.6000   22.0084  -31.6279 H   0  0  0  0  0  0  0  0  0  0  0  0
   -7.1540   19.9698  -32.9862 H   0  0  0  0  0  0  0  0  0  0  0  0
   -4.8263   19.3835  -33.6465 H   0  0  0  0  0  0  0  0  0  0  0  0
   -0.0300   18.8870  -33.0904 H   0  0  0  0  0  0  0  0  0  0  0  0
    0.4626   20.6182  -32.9577 H   0  0  0  0  0  0  0  0  0  0  0  0
    1.4665   18.4340  -31.4476 H   0  0  0  0  0  0  0  0  0  0  0  0
    1.7407   20.1990  -31.1537 H   0  0  0  0  0  0  0  0  0  0  0  0
   -0.8838   20.4868  -28.7898 H   0  0  0  0  0  0  0  0  0  0  0  0
    0.5364   21.2978  -29.5743 H   0  0  0  0  0  0  0  0  0  0  0  0
   -2.2000   21.3017  -30.4415 H   0  0  0  0  0  0  0  0  0  0  0  0
   -0.7620   22.0264  -31.2529 H   0  0  0  0  0  0  0  0  0  0  0  0
   -3.1420   24.0530  -31.4870 H   0  0  0  0  0  0  0  0  0  0  0  0
  1  2  2  0
  2  3  1  0
  3  4  1  0
  4  5  2  0
  5  6  1  0
  6  7  2  0
  7  8  1  0
  8  9  1  0
  9 10  2  0
  9 11  2  0
  9 12  1  0
 12 13  1  0
 13 14  1  0
 14 15  1  0
 15 16  1  0
 16 17  1  0
  8 18  2  0
 18 19  1  0
  2 20  1  0
 20 21  1  0
 21 22  2  0
 22 23  1  0
 23 24  2  0
 24 25  1  0
 25 26  1  0
 26 27  2  0
 26 28  2  0
 26 29  1  0
 29 30  1  0
 30 31  1  0
 31 32  1  0
 32 33  1  0
 33 34  1  0
 25 35  2  0
 35 36  1  0
 18  4  1  0
 35 21  1  0
 17 12  1  0
 34 29  1  0
  5 37  1  0
  6 38  1  0
  7 39  1  0
 13 40  1  0
 13 41  1  0
 14 42  1  0
 14 43  1  0
 16 44  1  0
 16 45  1  0
 17 46  1  0
 17 47  1  0
 22 48  1  0
 23 49  1  0
 24 50  1  0
 30 51  1  0
 30 52  1  0
 31 53  1  0
 31 54  1  0
 33 55  1  0
 33 56  1  0
 34 57  1  0
 34 58  1  0
 36 59  1  0
M  CHG  3   3  -1  19  -1  20  -1
M  END
>  <UniqueID>  (39) 
38

>  <SMILES>  (39) 
O=C([N-]c1cccc(S(=O)(=O)N2CCOCC2)c1[O-])[N-]c1cccc(S(=O)(=O)N2CCOCC2)c1O

>  <Energy>  (39) 
88.14130458117263

>  <Genealogy>  (39) 
O=C([N-]c1cccc(S(=O)(=O)N2CCOCC2)c1[O-])[N-]c1cccc(S(=O)(=O)N2CCOCC2)c1O (protonated)
O=C([N-]c1cccc(S(=O)(=O)N2CCOCC2)c1[O-])[N-]c1cccc(S(=O)(=O)N2CCOCC2)c1O (3D coordinates assigned)
O=C([N-]c1cccc(S(=O)(=O)N2CCOCC2)c1[O-])[N-]c1cccc(S(=O)(=O)N2CCOCC2)c1O (nonaromatic ring conformer: 88.14130458117263 kcal/mol)

>  <smiles>  (39) 
O=C(Nc1cccc(S(=O)(=O)N2CCOCC2)c1O)Nc1cccc(S(=O)(=O)N2CCOCC2)c1O

>  <score_type>  (39) 
oracle

>  <origin>  (39) 
adgpu

>  <m_score__min__energy>  (39) 
-16.120000000000001

>  <m_primary>  (39) 
energy

$$$$
39:0
     RDKit          3D

 47 50  0  0  0  0  0  0  0  0999 V2000
   -5.2040   25.0630  -31.1960 O   0  0  0  0  0  0  0  0  0  0  0  0
   -5.2430   23.8040  -31.1180 C   0  0  0  0  0  0  0  0  0  0  0  0
   -4.0600   23.0660  -30.7630 N   0  0  0  0  0  0  0  0  0  0  0  0
   -3.0590   23.4600  -30.0290 C   0  0  0  0  0  0  0  0  0  0  0  0
   -1.9620   22.5940  -29.8950 C   0  0  0  0  0  0  0  0  0  0  0  0
   -0.8840   22.9710  -29.0990 C   0  0  0  0  0  0  0  0  0  0  0  0
   -0.8980   24.2110  -28.4490 C   0  0  0  0  0  0  0  0  0  0  0  0
    0.4800   24.6940  -27.4700 Cl  0  0  0  0  0  0  0  0  0  0  0  0
   -2.0090   25.0450  -28.5900 C   0  0  0  0  0  0  0  0  0  0  0  0
   -3.0680   24.6610  -29.3540 N   0  0  0  0  0  0  0  0  0  0  0  0
   -6.4780   23.0740  -31.4920 C   0  0  0  0  0  0  0  0  0  0  0  0
   -7.7040   23.7590  -31.6020 C   0  0  0  0  0  0  0  0  0  0  0  0
   -8.8680   23.0750  -31.9540 C   0  0  0  0  0  0  0  0  0  0  0  0
   -8.8310   21.7000  -32.1860 C   0  0  0  0  0  0  0  0  0  0  0  0
   -7.6240   20.9990  -32.0730 C   0  0  0  0  0  0  0  0  0  0  0  0
   -7.5880   19.2580  -32.3650 S   0  0  0  0  0  0  0  0  0  0  0  0
   -7.1790   18.5630  -31.0980 O   0  0  0  0  0  0  0  0  0  0  0  0
   -8.9740   18.7940  -32.7320 O   0  0  0  0  0  0  0  0  0  0  0  0
   -6.4680   18.8510  -33.6520 N   0  0  0  0  0  0  0  0  0  0  0  0
   -6.1320   17.4170  -33.5720 C   0  0  0  0  0  0  0  0  0  0  0  0
   -5.1190   17.0480  -34.6520 C   0  0  0  0  0  0  0  0  0  0  0  0
   -3.8600   17.8130  -34.4030 C   0  0  0  0  0  0  0  0  0  0  0  0
   -2.6040   17.2480  -34.6770 C   0  0  0  0  0  0  0  0  0  0  0  0
   -1.4360   17.9600  -34.3990 C   0  0  0  0  0  0  0  0  0  0  0  0
   -1.5160   19.2470  -33.8610 C   0  0  0  0  0  0  0  0  0  0  0  0
   -2.7670   19.8240  -33.6070 C   0  0  0  0  0  0  0  0  0  0  0  0
   -3.9450   19.1150  -33.8750 C   0  0  0  0  0  0  0  0  0  0  0  0
   -5.2920   19.7740  -33.6220 C   0  0  0  0  0  0  0  0  0  0  0  0
   -6.4460   21.6860  -31.7410 C   0  0  0  0  0  0  0  0  0  0  0  0
   -1.9544   21.6248  -30.4152 H   0  0  0  0  0  0  0  0  0  0  0  0
   -0.0233   22.2963  -28.9810 H   0  0  0  0  0  0  0  0  0  0  0  0
   -2.0285   26.0194  -28.0799 H   0  0  0  0  0  0  0  0  0  0  0  0
   -3.8950   25.2990  -29.3770 H   0  0  0  0  0  0  0  0  0  0  0  0
   -7.7439   24.8412  -31.4089 H   0  0  0  0  0  0  0  0  0  0  0  0
   -9.8178   23.6217  -32.0489 H   0  0  0  0  0  0  0  0  0  0  0  0
   -9.7526   21.1648  -32.4585 H   0  0  0  0  0  0  0  0  0  0  0  0
   -5.7028   17.1998  -32.5828 H   0  0  0  0  0  0  0  0  0  0  0  0
   -7.0475   16.8265  -33.7242 H   0  0  0  0  0  0  0  0  0  0  0  0
   -4.9112   15.9685  -34.6124 H   0  0  0  0  0  0  0  0  0  0  0  0
   -5.5204   17.2963  -35.6456 H   0  0  0  0  0  0  0  0  0  0  0  0
   -2.5403   16.2399  -35.1126 H   0  0  0  0  0  0  0  0  0  0  0  0
   -0.4539   17.5085  -34.6032 H   0  0  0  0  0  0  0  0  0  0  0  0
   -0.5964   19.8073  -33.6368 H   0  0  0  0  0  0  0  0  0  0  0  0
   -2.8247   20.8418  -33.1938 H   0  0  0  0  0  0  0  0  0  0  0  0
   -5.2575   20.2491  -32.6305 H   0  0  0  0  0  0  0  0  0  0  0  0
   -5.4425   20.4870  -34.4460 H   0  0  0  0  0  0  0  0  0  0  0  0
   -5.4936   21.1396  -31.6747 H   0  0  0  0  0  0  0  0  0  0  0  0
  1  2  2  0
  2  3  1  0
  3  4  2  3
  4  5  1  0
  5  6  2  0
  6  7  1  0
  7  8  1  0
  7  9  2  0
  9 10  1  0
  2 11  1  0
 11 12  2  0
 12 13  1  0
 13 14  2  0
 14 15  1  0
 15 16  1  0
 16 17  2  0
 16 18  2  0
 16 19  1  0
 19 20  1  0
 20 21  1  0
 21 22  1  0
 22 23  2  0
 23 24  1  0
 24 25  2  0
 25 26  1  0
 26 27  2  0
 27 28  1  0
 15 29  2  0
 10  4  1  0
 29 11  1  0
 28 19  1  0
 27 22  1  0
  5 30  1  0
  6 31  1  0
  9 32  1  0
 10 33  1  0
 12 34  1  0
 13 35  1  0
 14 36  1  0
 20 37  1  0
 20 38  1  0
 21 39  1  0
 21 40  1  0
 23 41  1  0
 24 42  1  0
 25 43  1  0
 26 44  1  0
 28 45  1  0
 28 46  1  0
 29 47  1  0
M  END
>  <UniqueID>  (40) 
39

>  <SMILES>  (40) 
O=C(N=c1ccc(Cl)c[nH]1)c1cccc(S(=O)(=O)N2CCc3ccccc3C2)c1

>  <Energy>  (40) 
67.38621737790946

>  <Genealogy>  (40) 
O=C(N=c1ccc(Cl)c[nH]1)c1cccc(S(=O)(=O)N2CCc3ccccc3C2)c1 (3D coordinates assigned)
O=C(N=c1ccc(Cl)c[nH]1)c1cccc(S(=O)(=O)N2CCc3ccccc3C2)c1 (nonaromatic ring conformer: 67.38621737790946 kcal/mol)

>  <smiles>  (40) 
O=C(N=c1ccc(Cl)c[nH]1)c1cccc(S(=O)(=O)N2CCc3ccccc3C2)c1

>  <score_type>  (40) 
oracle

>  <origin>  (40) 
adgpu

>  <m_score__min__energy>  (40) 
-10.529999999999999

>  <m_primary>  (40) 
energy

$$$$
40:0
     RDKit          3D

 20 21  0  0  0  0  0  0  0  0999 V2000
   -9.0660   21.6290  -31.6030 C   0  0  0  0  0  0  0  0  0  0  0  0
   -9.4900   20.5850  -32.3310 C   0  0  0  0  0  0  0  0  0  0  0  0
   -8.5750   19.7800  -33.0930 N   0  0  0  0  0  0  0  0  0  0  0  0
   -7.3060   20.0510  -33.0900 C   0  0  0  0  0  0  0  0  0  0  0  0
   -6.2700   19.3010  -33.8290 C   0  0  0  0  0  0  0  0  0  0  0  0
   -4.9720   20.0490  -33.4670 C   0  0  0  0  0  0  0  0  0  0  0  0
   -5.3480   21.2110  -32.5200 C   0  0  0  0  0  0  0  0  0  0  0  0
   -6.7840   21.1290  -32.3510 N   0  0  0  0  0  0  0  0  0  0  0  0
   -7.6090   22.0220  -31.5380 C   0  0  0  0  0  0  0  0  0  0  0  0
   -9.8024   22.2172  -31.0357 H   0  0  0  0  0  0  0  0  0  0  0  0
  -10.5622   20.3395  -32.3451 H   0  0  0  0  0  0  0  0  0  0  0  0
   -8.9410   18.9740  -33.6490 H   0  0  0  0  0  0  0  0  0  0  0  0
   -6.2280   18.2534  -33.4962 H   0  0  0  0  0  0  0  0  0  0  0  0
   -6.4569   19.2585  -34.9122 H   0  0  0  0  0  0  0  0  0  0  0  0
   -4.2738   19.3651  -32.9621 H   0  0  0  0  0  0  0  0  0  0  0  0
   -4.4833   20.4340  -34.3742 H   0  0  0  0  0  0  0  0  0  0  0  0
   -4.8405   21.0957  -31.5509 H   0  0  0  0  0  0  0  0  0  0  0  0
   -5.0422   22.1847  -32.9304 H   0  0  0  0  0  0  0  0  0  0  0  0
   -7.2699   21.9714  -30.4928 H   0  0  0  0  0  0  0  0  0  0  0  0
   -7.5061   23.0447  -31.9299 H   0  0  0  0  0  0  0  0  0  0  0  0
  1  2  2  0
  2  3  1  0
  3  4  2  0
  4  5  1  0
  5  6  1  0
  6  7  1  0
  7  8  1  0
  8  9  1  0
  9  1  1  0
  8  4  1  0
  1 10  1  0
  2 11  1  0
  3 12  1  0
  5 13  1  0
  5 14  1  0
  6 15  1  0
  6 16  1  0
  7 17  1  0
  7 18  1  0
  9 19  1  0
  9 20  1  0
M  CHG  1   3   1
M  END
>  <UniqueID>  (41) 
40

>  <SMILES>  (41) 
C1=C[NH+]=C2CCCN2C1

>  <Energy>  (41) 
25.278834113141404

>  <Genealogy>  (41) 
C1=C[NH+]=C2CCCN2C1 (protonated)
C1=C[NH+]=C2CCCN2C1 (3D coordinates assigned)
C1=C[NH+]=C2CCCN2C1 (nonaromatic ring conformer: 25.278834113141404 kcal/mol)

>  <smiles>  (41) 
C1=CN=C2CCCN2C1

>  <score_type>  (41) 
oracle

>  <origin>  (41) 
adgpu

>  <m_score__min__energy>  (41) 
-4.1100000000000003

>  <m_primary>  (41) 
energy

$$$$
41:0
     RDKit          3D

 62 65  0  0  0  0  0  0  0  0999 V2000
   -5.3040   25.3790  -30.4980 C   0  0  0  0  0  0  0  0  0  0  0  0
   -3.8840   25.2950  -30.4310 O   0  0  0  0  0  0  0  0  0  0  0  0
   -3.1800   24.2430  -29.8260 C   0  0  0  0  0  0  0  0  0  0  0  0
   -3.5870   22.8990  -29.9420 C   0  0  0  0  0  0  0  0  0  0  0  0
   -2.8520   21.8840  -29.3220 C   0  0  0  0  0  0  0  0  0  0  0  0
   -1.7080   22.1960  -28.5780 C   0  0  0  0  0  0  0  0  0  0  0  0
   -0.7670   20.9070  -27.8350 S   0  0  0  0  0  0  0  0  0  0  0  0
    0.1100   21.4650  -26.7490 O   0  0  0  0  0  0  0  0  0  0  0  0
   -1.6910   19.8940  -27.2180 O   0  0  0  0  0  0  0  0  0  0  0  0
    0.2190   20.1410  -29.0750 C   0  0  0  0  0  0  0  0  0  0  0  0
    1.3630   19.4200  -28.7230 C   0  0  0  0  0  0  0  0  0  0  0  0
    2.1570   18.8400  -29.7130 C   0  0  0  0  0  0  0  0  0  0  0  0
    1.8270   18.9790  -31.0650 C   0  0  0  0  0  0  0  0  0  0  0  0
    2.6580   18.3740  -32.0090 O   0  0  0  0  0  0  0  0  0  0  0  0
    0.6770   19.7180  -31.4310 C   0  0  0  0  0  0  0  0  0  0  0  0
    0.2010   19.9240  -33.1230 S   0  0  0  0  0  0  0  0  0  0  0  0
    0.8570   18.8460  -33.9400 O   0  0  0  0  0  0  0  0  0  0  0  0
    0.6570   21.2610  -33.6380 O   0  0  0  0  0  0  0  0  0  0  0  0
   -1.5510   19.8370  -33.2760 C   0  0  0  0  0  0  0  0  0  0  0  0
   -2.3200   21.0080  -33.2830 C   0  0  0  0  0  0  0  0  0  0  0  0
   -3.7110   20.9360  -33.4000 C   0  0  0  0  0  0  0  0  0  0  0  0
   -4.3520   19.6890  -33.4950 C   0  0  0  0  0  0  0  0  0  0  0  0
   -5.8240   19.6180  -33.6280 C   0  0  0  0  0  0  0  0  0  0  0  0
   -6.3250   19.2210  -34.7160 O   0  0  0  0  0  0  0  0  0  0  0  0
   -6.6930   20.0020  -32.5470 N   0  0  0  0  0  0  0  0  0  0  0  0
   -6.4740   21.2780  -31.8520 C   0  0  0  0  0  0  0  0  0  0  0  0
   -7.5740   21.5320  -30.8090 C   0  0  0  0  0  0  0  0  0  0  0  0
   -8.9380   21.3710  -31.3660 N   0  0  0  0  0  0  0  0  0  0  0  0
   -9.4210   22.6210  -31.9740 C   0  0  0  0  0  0  0  0  0  0  0  0
   -9.1110   20.2190  -32.2920 C   0  0  0  0  0  0  0  0  0  0  0  0
   -7.9230   19.2520  -32.2830 C   0  0  0  0  0  0  0  0  0  0  0  0
   -3.5760   18.5180  -33.5000 C   0  0  0  0  0  0  0  0  0  0  0  0
   -2.1860   18.5920  -33.3820 C   0  0  0  0  0  0  0  0  0  0  0  0
   -0.1180   20.2920  -30.4260 C   0  0  0  0  0  0  0  0  0  0  0  0
   -1.2970   23.5300  -28.4660 C   0  0  0  0  0  0  0  0  0  0  0  0
   -2.0310   24.5480  -29.0840 C   0  0  0  0  0  0  0  0  0  0  0  0
   -1.6190   25.8350  -28.9670 F   0  0  0  0  0  0  0  0  0  0  0  0
   -5.7183   25.4035  -29.4793 H   0  0  0  0  0  0  0  0  0  0  0  0
   -5.5922   26.2958  -31.0332 H   0  0  0  0  0  0  0  0  0  0  0  0
   -5.6983   24.5026  -31.0332 H   0  0  0  0  0  0  0  0  0  0  0  0
   -4.4867   22.6473  -30.5227 H   0  0  0  0  0  0  0  0  0  0  0  0
   -3.1738   20.8366  -29.4192 H   0  0  0  0  0  0  0  0  0  0  0  0
    1.6381   19.3095  -27.6637 H   0  0  0  0  0  0  0  0  0  0  0  0
    3.0517   18.2675  -29.4272 H   0  0  0  0  0  0  0  0  0  0  0  0
    2.3770   18.1870  -32.9620 H   0  0  0  0  0  0  0  0  0  0  0  0
   -1.8273   21.9877  -33.1961 H   0  0  0  0  0  0  0  0  0  0  0  0
   -4.3071   21.8603  -33.4178 H   0  0  0  0  0  0  0  0  0  0  0  0
   -5.4978   21.2492  -31.3458 H   0  0  0  0  0  0  0  0  0  0  0  0
   -6.4993   22.0902  -32.5934 H   0  0  0  0  0  0  0  0  0  0  0  0
   -7.4455   20.8192  -29.9811 H   0  0  0  0  0  0  0  0  0  0  0  0
   -7.4749   22.5732  -30.4682 H   0  0  0  0  0  0  0  0  0  0  0  0
   -9.6958   23.3322  -31.1811 H   0  0  0  0  0  0  0  0  0  0  0  0
   -8.6264   23.0563  -32.5977 H   0  0  0  0  0  0  0  0  0  0  0  0
  -10.3019   22.4089  -32.5977 H   0  0  0  0  0  0  0  0  0  0  0  0
  -10.0143   19.6654  -31.9960 H   0  0  0  0  0  0  0  0  0  0  0  0
   -9.1911   20.6279  -33.3100 H   0  0  0  0  0  0  0  0  0  0  0  0
   -7.8529   18.7637  -31.2998 H   0  0  0  0  0  0  0  0  0  0  0  0
   -8.0634   18.4851  -33.0590 H   0  0  0  0  0  0  0  0  0  0  0  0
   -4.0654   17.5377  -33.5973 H   0  0  0  0  0  0  0  0  0  0  0  0
   -1.5873   17.6693  -33.3722 H   0  0  0  0  0  0  0  0  0  0  0  0
   -1.0146   20.8661  -30.7026 H   0  0  0  0  0  0  0  0  0  0  0  0
   -0.3935   23.7784  -27.8898 H   0  0  0  0  0  0  0  0  0  0  0  0
  1  2  1  0
  2  3  1  0
  3  4  2  0
  4  5  1  0
  5  6  2  0
  6  7  1  0
  7  8  2  0
  7  9  2  0
  7 10  1  0
 10 11  2  0
 11 12  1  0
 12 13  2  0
 13 14  1  0
 13 15  1  0
 15 16  1  0
 16 17  2  0
 16 18  2  0
 16 19  1  0
 19 20  2  0
 20 21  1  0
 21 22  2  0
 22 23  1  0
 23 24  2  0
 23 25  1  0
 25 26  1  0
 26 27  1  0
 27 28  1  0
 28 29  1  0
 28 30  1  0
 30 31  1  0
 22 32  1  0
 32 33  2  0
 15 34  2  0
  6 35  1  0
 35 36  2  0
 36 37  1  0
 36  3  1  0
 34 10  1  0
 33 19  1  0
 31 25  1  0
  1 38  1  0
  1 39  1  0
  1 40  1  0
  4 41  1  0
  5 42  1  0
 11 43  1  0
 12 44  1  0
 14 45  1  0
 20 46  1  0
 21 47  1  0
 26 48  1  0
 26 49  1  0
 27 50  1  0
 27 51  1  0
 29 52  1  0
 29 53  1  0
 29 54  1  0
 30 55  1  0
 30 56  1  0
 31 57  1  0
 31 58  1  0
 32 59  1  0
 33 60  1  0
 34 61  1  0
 35 62  1  0
M  END
>  <UniqueID>  (42) 
41

>  <SMILES>  (42) 
COc1ccc(S(=O)(=O)c2ccc(O)c(S(=O)(=O)c3ccc(C(=O)N4CCN(C)CC4)cc3)c2)cc1F

>  <Energy>  (42) 
83.06376691634746

>  <Genealogy>  (42) 
COc1ccc(S(=O)(=O)c2ccc(O)c(S(=O)(=O)c3ccc(C(=O)N4CCN(C)CC4)cc3)c2)cc1F (3D coordinates assigned)
COc1ccc(S(=O)(=O)c2ccc(O)c(S(=O)(=O)c3ccc(C(=O)N4CCN(C)CC4)cc3)c2)cc1F (nonaromatic ring conformer: 83.06376691634746 kcal/mol)

>  <smiles>  (42) 
COc1ccc(S(=O)(=O)c2ccc(O)c(S(=O)(=O)c3ccc(C(=O)N4CCN(C)CC4)cc3)c2)cc1F

>  <score_type>  (42) 
oracle

>  <origin>  (42) 
adgpu

>  <m_score__min__energy>  (42) 
-10.91

>  <m_primary>  (42) 
energy

$$$$
42:0
     RDKit          3D

 49 51  0  0  0  0  0  0  0  0999 V2000
   -0.8250   25.4700  -25.8240 C   0  0  0  0  0  0  0  0  0  0  0  0
   -0.6040   24.7250  -27.0740 N   0  0  0  0  0  0  0  0  0  0  0  0
    0.7570   24.1670  -27.1100 C   0  0  0  0  0  0  0  0  0  0  0  0
   -1.5780   23.6620  -27.2060 C   0  0  0  0  0  0  0  0  0  0  0  0
   -1.4290   22.5900  -26.5550 O   0  0  0  0  0  0  0  0  0  0  0  0
   -2.7220   23.7720  -28.1430 C   0  0  0  0  0  0  0  0  0  0  0  0
   -3.8160   22.9040  -27.9850 C   0  0  0  0  0  0  0  0  0  0  0  0
   -4.9050   22.9690  -28.8570 C   0  0  0  0  0  0  0  0  0  0  0  0
   -4.9210   23.9040  -29.8980 C   0  0  0  0  0  0  0  0  0  0  0  0
   -6.2900   23.9740  -31.0040 S   0  0  0  0  0  0  0  0  0  0  0  0
   -5.8570   24.5090  -32.3390 O   0  0  0  0  0  0  0  0  0  0  0  0
   -7.3050   24.9230  -30.4320 O   0  0  0  0  0  0  0  0  0  0  0  0
   -7.0130   22.3640  -31.2060 C   0  0  0  0  0  0  0  0  0  0  0  0
   -8.3590   22.2060  -30.8320 C   0  0  0  0  0  0  0  0  0  0  0  0
   -8.9980   20.9730  -30.9510 C   0  0  0  0  0  0  0  0  0  0  0  0
   -8.3040   19.8730  -31.4480 C   0  0  0  0  0  0  0  0  0  0  0  0
   -9.1120   18.3240  -31.6070 Cl  0  0  0  0  0  0  0  0  0  0  0  0
   -6.9640   20.0030  -31.8180 C   0  0  0  0  0  0  0  0  0  0  0  0
   -6.2970   21.2350  -31.6960 C   0  0  0  0  0  0  0  0  0  0  0  0
   -4.5950   21.3010  -32.2050 S   0  0  0  0  0  0  0  0  0  0  0  0
   -3.7100   21.4600  -31.0000 O   0  0  0  0  0  0  0  0  0  0  0  0
   -4.3860   22.4910  -33.0960 O   0  0  0  0  0  0  0  0  0  0  0  0
   -4.1290   19.8140  -33.0330 C   0  0  0  0  0  0  0  0  0  0  0  0
   -2.8990   19.2030  -32.7390 C   0  0  0  0  0  0  0  0  0  0  0  0
   -2.5250   18.0240  -33.3880 C   0  0  0  0  0  0  0  0  0  0  0  0
   -3.3700   17.4500  -34.3400 C   0  0  0  0  0  0  0  0  0  0  0  0
   -4.5900   18.0580  -34.6490 C   0  0  0  0  0  0  0  0  0  0  0  0
   -4.9700   19.2390  -34.0030 C   0  0  0  0  0  0  0  0  0  0  0  0
   -6.1540   19.8180  -34.3270 F   0  0  0  0  0  0  0  0  0  0  0  0
   -3.8490   24.7930  -30.0440 C   0  0  0  0  0  0  0  0  0  0  0  0
   -2.7570   24.7380  -29.1710 C   0  0  0  0  0  0  0  0  0  0  0  0
   -1.7320   25.6640  -29.3220 O   0  0  0  0  0  0  0  0  0  0  0  0
   -0.6296   24.8112  -24.9651 H   0  0  0  0  0  0  0  0  0  0  0  0
   -0.1442   26.3332  -25.7864 H   0  0  0  0  0  0  0  0  0  0  0  0
   -1.8664   25.8224  -25.7864 H   0  0  0  0  0  0  0  0  0  0  0  0
   -0.6830   25.3930  -27.8760 H   0  0  0  0  0  0  0  0  0  0  0  0
    1.1196   24.0183  -26.0822 H   0  0  0  0  0  0  0  0  0  0  0  0
    0.7437   23.2017  -27.6374 H   0  0  0  0  0  0  0  0  0  0  0  0
    1.4251   24.8638  -27.6374 H   0  0  0  0  0  0  0  0  0  0  0  0
   -3.8145   22.1675  -27.1680 H   0  0  0  0  0  0  0  0  0  0  0  0
   -5.7540   22.2821  -28.7249 H   0  0  0  0  0  0  0  0  0  0  0  0
   -8.9166   23.0690  -30.4393 H   0  0  0  0  0  0  0  0  0  0  0  0
  -10.0515   20.8689  -30.6520 H   0  0  0  0  0  0  0  0  0  0  0  0
   -6.4225   19.1296  -32.2104 H   0  0  0  0  0  0  0  0  0  0  0  0
   -2.2272   19.6549  -31.9944 H   0  0  0  0  0  0  0  0  0  0  0  0
   -1.5632   17.5469  -33.1487 H   0  0  0  0  0  0  0  0  0  0  0  0
   -3.0755   16.5192  -34.8468 H   0  0  0  0  0  0  0  0  0  0  0  0
   -5.2529   17.6067  -35.4020 H   0  0  0  0  0  0  0  0  0  0  0  0
   -3.8655   25.5402  -30.8511 H   0  0  0  0  0  0  0  0  0  0  0  0
  1  2  1  0
  2  3  1  0
  2  4  1  0
  4  5  2  0
  4  6  1  0
  6  7  2  0
  7  8  1  0
  8  9  2  0
  9 10  1  0
 10 11  2  0
 10 12  2  0
 10 13  1  0
 13 14  2  0
 14 15  1  0
 15 16  2  0
 16 17  1  0
 16 18  1  0
 18 19  2  0
 19 20  1  0
 20 21  2  0
 20 22  2  0
 20 23  1  0
 23 24  2  0
 24 25  1  0
 25 26  2  0
 26 27  1  0
 27 28  2  0
 28 29  1  0
  9 30  1  0
 30 31  2  0
 31 32  1  0
 31  6  1  0
 19 13  1  0
 28 23  1  0
  1 33  1  0
  1 34  1  0
  1 35  1  0
  2 36  1  0
  3 37  1  0
  3 38  1  0
  3 39  1  0
  7 40  1  0
  8 41  1  0
 14 42  1  0
 15 43  1  0
 18 44  1  0
 24 45  1  0
 25 46  1  0
 26 47  1  0
 27 48  1  0
 30 49  1  0
M  CHG  2   2   1  32  -1
M  END
>  <UniqueID>  (43) 
42

>  <SMILES>  (43) 
C[NH+](C)C(=O)c1ccc(S(=O)(=O)c2ccc(Cl)cc2S(=O)(=O)c2ccccc2F)cc1[O-]

>  <Energy>  (43) 
65.38999569950263

>  <Genealogy>  (43) 
C[NH+](C)C(=O)c1ccc(S(=O)(=O)c2ccc(Cl)cc2S(=O)(=O)c2ccccc2F)cc1[O-] (protonated)
C[NH+](C)C(=O)c1ccc(S(=O)(=O)c2ccc(Cl)cc2S(=O)(=O)c2ccccc2F)cc1[O-] (3D coordinates assigned)
C[NH+](C)C(=O)c1ccc(S(=O)(=O)c2ccc(Cl)cc2S(=O)(=O)c2ccccc2F)cc1[O-] (optimized conformer: 65.38999569950263 kcal/mol)

>  <smiles>  (43) 
CN(C)C(=O)c1ccc(S(=O)(=O)c2ccc(Cl)cc2S(=O)(=O)c2ccccc2F)cc1O

>  <score_type>  (43) 
oracle

>  <origin>  (43) 
adgpu

>  <m_score__min__energy>  (43) 
-11.82

>  <m_primary>  (43) 
energy

$$$$
43:0
     RDKit          3D

 43 45  0  0  0  0  0  0  0  0999 V2000
   -5.2420   16.5710  -32.8010 C   0  0  0  0  0  0  0  0  0  0  0  0
   -6.2760   17.4550  -33.5260 C   0  0  1  0  0  0  0  0  0  0  0  0
   -6.4440   16.9720  -34.9030 N   0  0  0  0  0  0  0  0  0  0  0  0
   -7.6160   17.4560  -32.7560 C   0  0  0  0  0  0  0  0  0  0  0  0
   -7.5870   18.6950  -31.8710 C   0  0  0  0  0  0  0  0  0  0  0  0
   -6.5680   19.5590  -32.4440 N   0  0  0  0  0  0  0  0  0  0  0  0
   -6.2660   20.8680  -31.9340 C   0  0  0  0  0  0  0  0  0  0  0  0
   -7.1570   21.5020  -31.0530 C   0  0  0  0  0  0  0  0  0  0  0  0
   -6.8740   22.7800  -30.5610 C   0  0  0  0  0  0  0  0  0  0  0  0
   -5.6960   23.4360  -30.9400 C   0  0  0  0  0  0  0  0  0  0  0  0
   -5.3220   25.0400  -30.3180 S   0  0  0  0  0  0  0  0  0  0  0  0
   -5.9160   25.2370  -28.9500 O   0  0  0  0  0  0  0  0  0  0  0  0
   -5.8950   26.0690  -31.2500 O   0  0  0  0  0  0  0  0  0  0  0  0
   -3.6010   25.2490  -30.2260 N   0  0  0  0  0  0  0  0  0  0  0  0
   -2.7250   24.5200  -29.3560 C   0  0  0  0  0  0  0  0  0  0  0  0
   -3.0200   23.2110  -28.9260 C   0  0  0  0  0  0  0  0  0  0  0  0
   -2.1410   22.5340  -28.0760 C   0  0  0  0  0  0  0  0  0  0  0  0
   -0.9670   23.1530  -27.6430 C   0  0  0  0  0  0  0  0  0  0  0  0
   -0.6660   24.4500  -28.0620 C   0  0  0  0  0  0  0  0  0  0  0  0
   -1.5410   25.1340  -28.9160 C   0  0  0  0  0  0  0  0  0  0  0  0
   -1.2250   26.4230  -29.3290 O   0  0  0  0  0  0  0  0  0  0  0  0
   -4.8010   22.8030  -31.8130 C   0  0  0  0  0  0  0  0  0  0  0  0
   -5.0830   21.5270  -32.3080 C   0  0  0  0  0  0  0  0  0  0  0  0
   -4.1800   20.9220  -33.1230 F   0  0  0  0  0  0  0  0  0  0  0  0
   -5.8160   18.9260  -33.5150 C   0  0  0  0  0  0  0  0  0  0  0  0
   -5.3668   16.6777  -31.7133 H   0  0  0  0  0  0  0  0  0  0  0  0
   -5.3943   15.5196  -33.0862 H   0  0  0  0  0  0  0  0  0  0  0  0
   -4.2270   16.8849  -33.0862 H   0  0  0  0  0  0  0  0  0  0  0  0
   -5.5060   16.7670  -35.3220 H   0  0  0  0  0  0  0  0  0  0  0  0
   -6.8660   17.7360  -35.4800 H   0  0  0  0  0  0  0  0  0  0  0  0
   -8.4610   17.5070  -33.4584 H   0  0  0  0  0  0  0  0  0  0  0  0
   -7.7419   16.5383  -32.1627 H   0  0  0  0  0  0  0  0  0  0  0  0
   -8.5658   19.1968  -31.8802 H   0  0  0  0  0  0  0  0  0  0  0  0
   -7.3656   18.4427  -30.8235 H   0  0  0  0  0  0  0  0  0  0  0  0
   -8.0821   20.9908  -30.7484 H   0  0  0  0  0  0  0  0  0  0  0  0
   -7.5787   23.2716  -29.8742 H   0  0  0  0  0  0  0  0  0  0  0  0
   -3.9457   22.7200  -29.2606 H   0  0  0  0  0  0  0  0  0  0  0  0
   -2.3749   21.5106  -27.7473 H   0  0  0  0  0  0  0  0  0  0  0  0
   -0.2790   22.6185  -26.9715 H   0  0  0  0  0  0  0  0  0  0  0  0
    0.2600   24.9360  -27.7210 H   0  0  0  0  0  0  0  0  0  0  0  0
   -3.8725   23.3127  -32.1099 H   0  0  0  0  0  0  0  0  0  0  0  0
   -6.0406   19.4064  -34.4787 H   0  0  0  0  0  0  0  0  0  0  0  0
   -4.7306   19.0135  -33.3591 H   0  0  0  0  0  0  0  0  0  0  0  0
  1  2  1  0
  2  3  1  6
  2  4  1  0
  4  5  1  0
  5  6  1  0
  6  7  1  0
  7  8  2  0
  8  9  1  0
  9 10  2  0
 10 11  1  0
 11 12  2  0
 11 13  2  0
 11 14  1  0
 14 15  1  0
 15 16  2  0
 16 17  1  0
 17 18  2  0
 18 19  1  0
 19 20  2  0
 20 21  1  0
 10 22  1  0
 22 23  2  0
 23 24  1  0
  6 25  1  0
 25  2  1  0
 23  7  1  0
 20 15  1  0
  1 26  1  0
  1 27  1  0
  1 28  1  0
  3 29  1  0
  3 30  1  0
  4 31  1  0
  4 32  1  0
  5 33  1  0
  5 34  1  0
  8 35  1  0
  9 36  1  0
 16 37  1  0
 17 38  1  0
 18 39  1  0
 19 40  1  0
 22 41  1  0
 25 42  1  0
 25 43  1  0
M  CHG  2  14  -1  21  -1
M  END
>  <UniqueID>  (44) 
43

>  <SMILES>  (44) 
C[C@@]1(N)CCN(c2ccc(S(=O)(=O)[N-]c3ccccc3[O-])cc2F)C1

>  <Energy>  (44) 
53.57730503733373

>  <Genealogy>  (44) 
CC1(N)CCN(c2ccc(S(=O)(=O)[N-]c3ccccc3[O-])cc2F)C1 (protonated)
C[C@@]1(N)CCN(c2ccc(S(=O)(=O)[N-]c3ccccc3[O-])cc2F)C1 (chirality)
C[C@@]1(N)CCN(c2ccc(S(=O)(=O)[N-]c3ccccc3[O-])cc2F)C1 (3D coordinates assigned)
C[C@@]1(N)CCN(c2ccc(S(=O)(=O)[N-]c3ccccc3[O-])cc2F)C1 (nonaromatic ring conformer: 53.57730503733373 kcal/mol)

>  <smiles>  (44) 
CC1(N)CCN(c2ccc(S(=O)(=O)Nc3ccccc3O)cc2F)C1

>  <score_type>  (44) 
oracle

>  <origin>  (44) 
adgpu

>  <m_score__min__energy>  (44) 
-13.199999999999999

>  <m_primary>  (44) 
energy

$$$$
44:0
     RDKit          3D

 62 65  0  0  0  0  0  0  0  0999 V2000
   -5.8820   17.6940  -31.8930 C   0  0  0  0  0  0  0  0  0  0  0  0
   -6.9010   17.9970  -32.9070 N   0  0  0  0  0  0  0  0  0  0  0  0
   -8.2450   18.1750  -32.3140 C   0  0  0  0  0  0  0  0  0  0  0  0
   -8.6010   19.6500  -32.0360 C   0  0  0  0  0  0  0  0  0  0  0  0
   -7.3750   20.4190  -31.7930 N   0  0  0  0  0  0  0  0  0  0  0  0
   -7.7550   22.0250  -31.2200 S   0  0  0  0  0  0  0  0  0  0  0  0
   -8.7510   21.9310  -30.0970 O   0  0  0  0  0  0  0  0  0  0  0  0
   -8.3870   22.8110  -32.3340 O   0  0  0  0  0  0  0  0  0  0  0  0
   -6.3160   22.8790  -30.6580 C   0  0  0  0  0  0  0  0  0  0  0  0
   -6.4180   24.1770  -30.1390 C   0  0  0  0  0  0  0  0  0  0  0  0
   -5.2760   24.8560  -29.7050 C   0  0  0  0  0  0  0  0  0  0  0  0
   -4.0120   24.2500  -29.8000 C   0  0  0  0  0  0  0  0  0  0  0  0
   -2.8180   24.9270  -29.3730 N   0  0  0  0  0  0  0  0  0  0  0  0
   -2.4140   25.0500  -27.9990 C   0  0  0  0  0  0  0  0  0  0  0  0
   -3.2400   24.8360  -27.0730 O   0  0  0  0  0  0  0  0  0  0  0  0
   -1.1100   25.5330  -27.6610 N   0  0  0  0  0  0  0  0  0  0  0  0
   -0.6220   25.7600  -26.3300 C   0  0  0  0  0  0  0  0  0  0  0  0
   -1.2460   26.6970  -25.4850 C   0  0  0  0  0  0  0  0  0  0  0  0
   -0.7330   26.9440  -24.2090 C   0  0  0  0  0  0  0  0  0  0  0  0
    0.4100   26.2740  -23.7700 C   0  0  0  0  0  0  0  0  0  0  0  0
    1.0430   25.3500  -24.6040 C   0  0  0  0  0  0  0  0  0  0  0  0
    0.5330   25.0860  -25.8850 C   0  0  0  0  0  0  0  0  0  0  0  0
    1.3300   23.8940  -26.9200 S   0  0  0  0  0  0  0  0  0  0  0  0
    2.8120   23.9910  -26.6940 O   0  0  0  0  0  0  0  0  0  0  0  0
    1.0460   24.1890  -28.3670 O   0  0  0  0  0  0  0  0  0  0  0  0
    0.7720   22.2870  -26.5100 N   0  0  0  0  0  0  0  0  0  0  0  0
   -0.4760   22.3580  -25.7430 C   0  0  0  0  0  0  0  0  0  0  0  0
   -1.6410   22.2280  -26.7150 C   0  0  0  0  0  0  0  0  0  0  0  0
   -1.0390   21.7260  -28.0120 C   0  0  0  0  0  0  0  0  0  0  0  0
    0.4430   21.5320  -27.7240 C   0  0  0  0  0  0  0  0  0  0  0  0
   -3.9170   22.9380  -30.2930 C   0  0  0  0  0  0  0  0  0  0  0  0
   -5.0590   22.2610  -30.7250 C   0  0  0  0  0  0  0  0  0  0  0  0
   -6.5470   20.4840  -33.0110 C   0  0  0  0  0  0  0  0  0  0  0  0
   -6.5110   19.1350  -33.7620 C   0  0  0  0  0  0  0  0  0  0  0  0
   -6.3138   17.8224  -30.8895 H   0  0  0  0  0  0  0  0  0  0  0  0
   -5.5406   16.6555  -32.0152 H   0  0  0  0  0  0  0  0  0  0  0  0
   -5.0286   18.3773  -32.0152 H   0  0  0  0  0  0  0  0  0  0  0  0
   -8.9905   17.7613  -33.0091 H   0  0  0  0  0  0  0  0  0  0  0  0
   -8.2448   17.6528  -31.3459 H   0  0  0  0  0  0  0  0  0  0  0  0
   -9.1286   20.0687  -32.9057 H   0  0  0  0  0  0  0  0  0  0  0  0
   -9.2478   19.7068  -31.1481 H   0  0  0  0  0  0  0  0  0  0  0  0
   -7.4021   24.6639  -30.0729 H   0  0  0  0  0  0  0  0  0  0  0  0
   -5.3673   25.8694  -29.2872 H   0  0  0  0  0  0  0  0  0  0  0  0
   -2.2910   25.4840  -30.0820 H   0  0  0  0  0  0  0  0  0  0  0  0
   -2.1403   27.2365  -25.8303 H   0  0  0  0  0  0  0  0  0  0  0  0
   -1.2315   27.6687  -23.5484 H   0  0  0  0  0  0  0  0  0  0  0  0
    0.8126   26.4740  -22.7661 H   0  0  0  0  0  0  0  0  0  0  0  0
    1.9455   24.8265  -24.2556 H   0  0  0  0  0  0  0  0  0  0  0  0
   -0.5096   21.5384  -25.0101 H   0  0  0  0  0  0  0  0  0  0  0  0
   -0.5363   23.3150  -25.2040 H   0  0  0  0  0  0  0  0  0  0  0  0
   -2.3813   21.5099  -26.3325 H   0  0  0  0  0  0  0  0  0  0  0  0
   -2.1628   23.1864  -26.8538 H   0  0  0  0  0  0  0  0  0  0  0  0
   -1.5014   20.7724  -28.3068 H   0  0  0  0  0  0  0  0  0  0  0  0
   -1.2051   22.4318  -28.8392 H   0  0  0  0  0  0  0  0  0  0  0  0
    0.6563   20.4641  -27.5687 H   0  0  0  0  0  0  0  0  0  0  0  0
    1.0467   21.8893  -28.5713 H   0  0  0  0  0  0  0  0  0  0  0  0
   -2.9368   22.4410  -30.3389 H   0  0  0  0  0  0  0  0  0  0  0  0
   -4.9724   21.2380  -31.1198 H   0  0  0  0  0  0  0  0  0  0  0  0
   -6.9613   21.2519  -33.6809 H   0  0  0  0  0  0  0  0  0  0  0  0
   -5.5186   20.7307  -32.7086 H   0  0  0  0  0  0  0  0  0  0  0  0
   -7.2038   19.1883  -34.6147 H   0  0  0  0  0  0  0  0  0  0  0  0
   -5.4749   18.9647  -34.0900 H   0  0  0  0  0  0  0  0  0  0  0  0
  1  2  1  0
  2  3  1  0
  3  4  1  0
  4  5  1  0
  5  6  1  0
  6  7  2  0
  6  8  2  0
  6  9  1  0
  9 10  2  0
 10 11  1  0
 11 12  2  0
 12 13  1  0
 13 14  1  0
 14 15  2  0
 14 16  1  0
 16 17  1  0
 17 18  2  0
 18 19  1  0
 19 20  2  0
 20 21  1  0
 21 22  2  0
 22 23  1  0
 23 24  2  0
 23 25  2  0
 23 26  1  0
 26 27  1  0
 27 28  1  0
 28 29  1  0
 29 30  1  0
 12 31  1  0
 31 32  2  0
  5 33  1  0
 33 34  1  0
 34  2  1  0
 32  9  1  0
 22 17  1  0
 30 26  1  0
  1 35  1  0
  1 36  1  0
  1 37  1  0
  3 38  1  0
  3 39  1  0
  4 40  1  0
  4 41  1  0
 10 42  1  0
 11 43  1  0
 13 44  1  0
 18 45  1  0
 19 46  1  0
 20 47  1  0
 21 48  1  0
 27 49  1  0
 27 50  1  0
 28 51  1  0
 28 52  1  0
 29 53  1  0
 29 54  1  0
 30 55  1  0
 30 56  1  0
 31 57  1  0
 32 58  1  0
 33 59  1  0
 33 60  1  0
 34 61  1  0
 34 62  1  0
M  CHG  1  16  -1
M  END
>  <UniqueID>  (45) 
44

>  <SMILES>  (45) 
CN1CCN(S(=O)(=O)c2ccc(NC(=O)[N-]c3ccccc3S(=O)(=O)N3CCCC3)cc2)CC1

>  <Energy>  (45) 
81.0889302133699

>  <Genealogy>  (45) 
CN1CCN(S(=O)(=O)c2ccc(NC(=O)[N-]c3ccccc3S(=O)(=O)N3CCCC3)cc2)CC1 (protonated)
CN1CCN(S(=O)(=O)c2ccc(NC(=O)[N-]c3ccccc3S(=O)(=O)N3CCCC3)cc2)CC1 (3D coordinates assigned)
CN1CCN(S(=O)(=O)c2ccc(NC(=O)[N-]c3ccccc3S(=O)(=O)N3CCCC3)cc2)CC1 (nonaromatic ring conformer: 81.0889302133699 kcal/mol)

>  <smiles>  (45) 
CN1CCN(S(=O)(=O)c2ccc(NC(=O)Nc3ccccc3S(=O)(=O)N3CCCC3)cc2)CC1

>  <score_type>  (45) 
oracle

>  <origin>  (45) 
adgpu

>  <m_score__min__energy>  (45) 
-11.949999999999999

>  <m_primary>  (45) 
energy

$$$$
45:0
     RDKit          3D

 58 61  0  0  0  0  0  0  0  0999 V2000
   -1.3450   25.8050  -28.9640 O   0  0  0  0  0  0  0  0  0  0  0  0
   -2.2000   24.9200  -29.2240 C   0  0  0  0  0  0  0  0  0  0  0  0
   -3.4190   25.2970  -29.8810 N   0  0  0  0  0  0  0  0  0  0  0  0
   -4.5230   24.3950  -30.0090 C   0  0  0  0  0  0  0  0  0  0  0  0
   -5.7970   24.7700  -29.5590 C   0  0  0  0  0  0  0  0  0  0  0  0
   -6.9030   23.9720  -29.8470 C   0  0  0  0  0  0  0  0  0  0  0  0
   -6.7550   22.8160  -30.6230 C   0  0  0  0  0  0  0  0  0  0  0  0
   -8.1860   21.9490  -31.1850 S   0  0  0  0  0  0  0  0  0  0  0  0
   -9.2080   21.9080  -30.0840 O   0  0  0  0  0  0  0  0  0  0  0  0
   -8.7870   22.6860  -32.3490 O   0  0  0  0  0  0  0  0  0  0  0  0
   -7.7890   20.3150  -31.6670 N   0  0  0  0  0  0  0  0  0  0  0  0
   -7.3220   20.2960  -33.0650 C   0  0  0  0  0  0  0  0  0  0  0  0
   -6.7610   18.9060  -33.4280 C   0  0  0  0  0  0  0  0  0  0  0  0
   -7.2780   17.7990  -32.4920 C   0  0  0  0  0  0  0  0  0  0  0  0
   -8.7450   18.0330  -32.1160 C   0  0  0  0  0  0  0  0  0  0  0  0
   -8.9630   19.4310  -31.4960 C   0  0  0  0  0  0  0  0  0  0  0  0
   -5.4720   22.4070  -31.0170 C   0  0  0  0  0  0  0  0  0  0  0  0
   -4.3560   23.1840  -30.6900 C   0  0  0  0  0  0  0  0  0  0  0  0
   -1.9370   23.5120  -28.8430 C   0  0  0  0  0  0  0  0  0  0  0  0
   -2.7660   22.8600  -27.9080 C   0  0  0  0  0  0  0  0  0  0  0  0
   -2.5580   21.5180  -27.5870 C   0  0  0  0  0  0  0  0  0  0  0  0
   -1.5100   20.8070  -28.1770 C   0  0  0  0  0  0  0  0  0  0  0  0
   -1.3040   19.4800  -27.7920 O   0  0  0  0  0  0  0  0  0  0  0  0
   -0.6780   21.4460  -29.1210 C   0  0  0  0  0  0  0  0  0  0  0  0
    0.3450   20.7240  -29.8120 N   0  0  0  0  0  0  0  0  0  0  0  0
   -0.0620   19.4990  -30.9720 S   0  0  0  0  0  0  0  0  0  0  0  0
   -0.3630   18.2060  -30.2620 O   0  0  0  0  0  0  0  0  0  0  0  0
    1.1050   19.2820  -31.8990 O   0  0  0  0  0  0  0  0  0  0  0  0
   -1.4520   20.0180  -31.9220 C   0  0  0  0  0  0  0  0  0  0  0  0
   -1.6170   21.3790  -32.2210 C   0  0  0  0  0  0  0  0  0  0  0  0
   -2.7160   21.8020  -32.9750 C   0  0  0  0  0  0  0  0  0  0  0  0
   -3.6510   20.8700  -33.4390 C   0  0  0  0  0  0  0  0  0  0  0  0
   -3.4950   19.5130  -33.1350 C   0  0  0  0  0  0  0  0  0  0  0  0
   -2.4020   19.0870  -32.3720 C   0  0  0  0  0  0  0  0  0  0  0  0
   -0.8820   22.7990  -29.4310 C   0  0  0  0  0  0  0  0  0  0  0  0
   -5.9238   25.6953  -28.9778 H   0  0  0  0  0  0  0  0  0  0  0  0
   -7.8954   24.2514  -29.4634 H   0  0  0  0  0  0  0  0  0  0  0  0
   -8.1648   20.5316  -33.7315 H   0  0  0  0  0  0  0  0  0  0  0  0
   -6.5242   21.0439  -33.1839 H   0  0  0  0  0  0  0  0  0  0  0  0
   -7.0585   18.6637  -34.4589 H   0  0  0  0  0  0  0  0  0  0  0  0
   -5.6669   18.9491  -33.3223 H   0  0  0  0  0  0  0  0  0  0  0  0
   -7.1883   16.8278  -33.0007 H   0  0  0  0  0  0  0  0  0  0  0  0
   -6.6758   17.8112  -31.5715 H   0  0  0  0  0  0  0  0  0  0  0  0
   -9.3630   17.9450  -33.0217 H   0  0  0  0  0  0  0  0  0  0  0  0
   -9.0303   17.2791  -31.3675 H   0  0  0  0  0  0  0  0  0  0  0  0
   -9.8318   19.9004  -31.9806 H   0  0  0  0  0  0  0  0  0  0  0  0
   -9.1262   19.2966  -30.4165 H   0  0  0  0  0  0  0  0  0  0  0  0
   -5.3436   21.4733  -31.5842 H   0  0  0  0  0  0  0  0  0  0  0  0
   -3.3477   22.8434  -30.9680 H   0  0  0  0  0  0  0  0  0  0  0  0
   -3.5850   23.4145  -27.4266 H   0  0  0  0  0  0  0  0  0  0  0  0
   -3.2219   21.0179  -26.8665 H   0  0  0  0  0  0  0  0  0  0  0  0
   -0.6660   18.8690  -28.2810 H   0  0  0  0  0  0  0  0  0  0  0  0
   -0.8813   22.1137  -31.8620 H   0  0  0  0  0  0  0  0  0  0  0  0
   -2.8459   22.8700  -33.2040 H   0  0  0  0  0  0  0  0  0  0  0  0
   -4.5081   21.2039  -34.0423 H   0  0  0  0  0  0  0  0  0  0  0  0
   -4.2321   18.7806  -33.4961 H   0  0  0  0  0  0  0  0  0  0  0  0
   -2.2869   18.0214  -32.1244 H   0  0  0  0  0  0  0  0  0  0  0  0
   -0.2098   23.3042  -30.1402 H   0  0  0  0  0  0  0  0  0  0  0  0
  1  2  2  0
  2  3  1  0
  3  4  1  0
  4  5  2  0
  5  6  1  0
  6  7  2  0
  7  8  1  0
  8  9  2  0
  8 10  2  0
  8 11  1  0
 11 12  1  0
 12 13  1  0
 13 14  1  0
 14 15  1  0
 15 16  1  0
  7 17  1  0
 17 18  2  0
  2 19  1  0
 19 20  2  0
 20 21  1  0
 21 22  2  0
 22 23  1  0
 22 24  1  0
 24 25  1  0
 25 26  1  0
 26 27  2  0
 26 28  2  0
 26 29  1  0
 29 30  2  0
 30 31  1  0
 31 32  2  0
 32 33  1  0
 33 34  2  0
 24 35  2  0
 18  4  1  0
 35 19  1  0
 16 11  1  0
 34 29  1  0
  5 36  1  0
  6 37  1  0
 12 38  1  0
 12 39  1  0
 13 40  1  0
 13 41  1  0
 14 42  1  0
 14 43  1  0
 15 44  1  0
 15 45  1  0
 16 46  1  0
 16 47  1  0
 17 48  1  0
 18 49  1  0
 20 50  1  0
 21 51  1  0
 23 52  1  0
 30 53  1  0
 31 54  1  0
 32 55  1  0
 33 56  1  0
 34 57  1  0
 35 58  1  0
M  CHG  2   3  -1  25  -1
M  END
>  <UniqueID>  (46) 
45

>  <SMILES>  (46) 
O=C([N-]c1ccc(S(=O)(=O)N2CCCCC2)cc1)c1ccc(O)c([N-]S(=O)(=O)c2ccccc2)c1

>  <Energy>  (46) 
77.89237187110254

>  <Genealogy>  (46) 
O=C([N-]c1ccc(S(=O)(=O)N2CCCCC2)cc1)c1ccc(O)c([N-]S(=O)(=O)c2ccccc2)c1 (protonated)
O=C([N-]c1ccc(S(=O)(=O)N2CCCCC2)cc1)c1ccc(O)c([N-]S(=O)(=O)c2ccccc2)c1 (3D coordinates assigned)
O=C([N-]c1ccc(S(=O)(=O)N2CCCCC2)cc1)c1ccc(O)c([N-]S(=O)(=O)c2ccccc2)c1 (nonaromatic ring conformer: 77.89237187110254 kcal/mol)

>  <smiles>  (46) 
O=C(Nc1ccc(S(=O)(=O)N2CCCCC2)cc1)c1ccc(O)c(NS(=O)(=O)c2ccccc2)c1

>  <score_type>  (46) 
oracle

>  <origin>  (46) 
adgpu

>  <m_score__min__energy>  (46) 
-12.210000000000001

>  <m_primary>  (46) 
energy

$$$$
47:0
     RDKit          3D

 60 63  0  0  0  0  0  0  0  0999 V2000
    3.1710   19.6050  -28.9590 C   0  0  0  0  0  0  0  0  0  0  0  0
    1.9050   19.0110  -28.4260 C   0  0  0  0  0  0  0  0  0  0  0  0
    1.6610   17.6320  -28.5280 C   0  0  0  0  0  0  0  0  0  0  0  0
    0.4620   17.0930  -28.0640 C   0  0  0  0  0  0  0  0  0  0  0  0
   -0.5040   17.9260  -27.5070 C   0  0  0  0  0  0  0  0  0  0  0  0
   -0.2820   19.3060  -27.4160 C   0  0  0  0  0  0  0  0  0  0  0  0
   -1.5150   20.3460  -26.7110 S   0  0  0  0  0  0  0  0  0  0  0  0
   -2.8100   20.0410  -27.4090 O   0  0  0  0  0  0  0  0  0  0  0  0
   -1.6940   20.0630  -25.2440 O   0  0  0  0  0  0  0  0  0  0  0  0
   -1.0960   22.0570  -26.9280 C   0  0  0  0  0  0  0  0  0  0  0  0
   -0.8750   22.8220  -25.7680 C   0  0  0  0  0  0  0  0  0  0  0  0
   -0.6100   24.1870  -25.8480 C   0  0  0  0  0  0  0  0  0  0  0  0
   -0.5750   24.8230  -27.0870 C   0  0  0  0  0  0  0  0  0  0  0  0
   -0.3200   26.5620  -27.1900 S   0  0  0  0  0  0  0  0  0  0  0  0
   -1.1460   27.3530  -25.8270 C   0  0  0  0  0  0  0  0  0  0  0  0
    1.1490   26.8670  -27.1330 O   0  0  0  0  0  0  0  0  0  0  0  0
   -0.8740   27.0840  -28.4870 O   0  0  0  0  0  0  0  0  0  0  0  0
   -0.7880   24.0790  -28.2490 C   0  0  0  0  0  0  0  0  0  0  0  0
   -1.0170   22.6940  -28.1970 C   0  0  0  0  0  0  0  0  0  0  0  0
   -1.2260   21.8640  -29.7520 S   0  0  0  0  0  0  0  0  0  0  0  0
   -2.1070   20.6620  -29.5570 O   0  0  0  0  0  0  0  0  0  0  0  0
    0.0800   21.4230  -30.3470 O   0  0  0  0  0  0  0  0  0  0  0  0
   -1.9910   22.9470  -30.8700 N   0  0  0  0  0  0  0  0  0  0  0  0
   -3.4120   22.9580  -31.0200 C   0  0  0  0  0  0  0  0  0  0  0  0
   -4.0750   21.7920  -31.4230 C   0  0  0  0  0  0  0  0  0  0  0  0
   -5.4760   21.7610  -31.4980 C   0  0  0  0  0  0  0  0  0  0  0  0
   -6.2150   22.9310  -31.2230 C   0  0  0  0  0  0  0  0  0  0  0  0
   -5.5410   24.1050  -30.8500 C   0  0  0  0  0  0  0  0  0  0  0  0
   -4.1470   24.1220  -30.7550 C   0  0  0  0  0  0  0  0  0  0  0  0
   -3.4990   25.2980  -30.4030 O   0  0  0  0  0  0  0  0  0  0  0  0
   -7.7220   22.9040  -31.1940 C   0  0  0  0  0  0  0  0  0  0  0  0
   -8.2650   21.7760  -31.9740 N   0  0  0  0  0  0  0  0  0  0  0  0
   -9.7260   21.7150  -31.8100 C   0  0  0  0  0  0  0  0  0  0  0  0
   -7.6520   20.5090  -31.5360 C   0  0  0  0  0  0  0  0  0  0  0  0
   -6.1690   20.4910  -31.9160 C   0  0  0  0  0  0  0  0  0  0  0  0
    0.9270   19.8450  -27.8720 C   0  0  0  0  0  0  0  0  0  0  0  0
    3.8156   19.9074  -28.1205 H   0  0  0  0  0  0  0  0  0  0  0  0
    3.6955   18.8590  -29.5741 H   0  0  0  0  0  0  0  0  0  0  0  0
    2.9325   20.4852  -29.5741 H   0  0  0  0  0  0  0  0  0  0  0  0
    2.4197   16.9737  -28.9763 H   0  0  0  0  0  0  0  0  0  0  0  0
    0.2796   16.0108  -28.1380 H   0  0  0  0  0  0  0  0  0  0  0  0
   -1.4471   17.4982  -27.1362 H   0  0  0  0  0  0  0  0  0  0  0  0
   -0.9121   22.3345  -24.7826 H   0  0  0  0  0  0  0  0  0  0  0  0
   -0.4277   24.7648  -24.9299 H   0  0  0  0  0  0  0  0  0  0  0  0
   -0.7424   26.9665  -24.8795 H   0  0  0  0  0  0  0  0  0  0  0  0
   -0.9819   28.4394  -25.8794 H   0  0  0  0  0  0  0  0  0  0  0  0
   -2.2243   27.1421  -25.8794 H   0  0  0  0  0  0  0  0  0  0  0  0
   -0.7763   24.5873  -29.2244 H   0  0  0  0  0  0  0  0  0  0  0  0
   -3.4939   20.8948  -31.6824 H   0  0  0  0  0  0  0  0  0  0  0  0
   -6.1145   25.0178  -30.6310 H   0  0  0  0  0  0  0  0  0  0  0  0
   -8.0563   22.8088  -30.1504 H   0  0  0  0  0  0  0  0  0  0  0  0
   -8.0893   23.8385  -31.6433 H   0  0  0  0  0  0  0  0  0  0  0  0
   -9.9746   21.7046  -30.7385 H   0  0  0  0  0  0  0  0  0  0  0  0
  -10.1853   22.5948  -32.2844 H   0  0  0  0  0  0  0  0  0  0  0  0
  -10.1103   20.8000  -32.2844 H   0  0  0  0  0  0  0  0  0  0  0  0
   -7.7504   20.4140  -30.4445 H   0  0  0  0  0  0  0  0  0  0  0  0
   -8.1632   19.6690  -32.0290 H   0  0  0  0  0  0  0  0  0  0  0  0
   -5.6831   19.6385  -31.4188 H   0  0  0  0  0  0  0  0  0  0  0  0
   -6.0944   20.4014  -33.0098 H   0  0  0  0  0  0  0  0  0  0  0  0
    1.1088   20.9271  -27.7946 H   0  0  0  0  0  0  0  0  0  0  0  0
  1  2  1  0
  2  3  2  0
  3  4  1  0
  4  5  2  0
  5  6  1  0
  6  7  1  0
  7  8  2  0
  7  9  2  0
  7 10  1  0
 10 11  2  0
 11 12  1  0
 12 13  2  0
 13 14  1  0
 14 15  1  0
 14 16  2  0
 14 17  2  0
 13 18  1  0
 18 19  2  0
 19 20  1  0
 20 21  2  0
 20 22  2  0
 20 23  1  0
 23 24  1  0
 24 25  2  0
 25 26  1  0
 26 27  2  0
 27 28  1  0
 28 29  2  0
 29 30  1  0
 27 31  1  0
 31 32  1  0
 32 33  1  0
 32 34  1  0
 34 35  1  0
  6 36  2  0
 36  2  1  0
 19 10  1  0
 29 24  1  0
 35 26  1  0
  1 37  1  0
  1 38  1  0
  1 39  1  0
  3 40  1  0
  4 41  1  0
  5 42  1  0
 11 43  1  0
 12 44  1  0
 15 45  1  0
 15 46  1  0
 15 47  1  0
 18 48  1  0
 25 49  1  0
 28 50  1  0
 31 51  1  0
 31 52  1  0
 33 53  1  0
 33 54  1  0
 33 55  1  0
 34 56  1  0
 34 57  1  0
 35 58  1  0
 35 59  1  0
 36 60  1  0
M  CHG  2  23  -1  30  -1
M  END
>  <UniqueID>  (47) 
46

>  <SMILES>  (47) 
Cc1cccc(S(=O)(=O)c2ccc(S(C)(=O)=O)cc2S(=O)(=O)[N-]c2cc3c(cc2[O-])CN(C)CC3)c1

>  <Energy>  (47) 
77.53231394098945

>  <Genealogy>  (47) 
Cc1cccc(S(=O)(=O)c2ccc(S(C)(=O)=O)cc2S(=O)(=O)[N-]c2cc3c(cc2[O-])CN(C)CC3)c1 (protonated)
Cc1cccc(S(=O)(=O)c2ccc(S(C)(=O)=O)cc2S(=O)(=O)[N-]c2cc3c(cc2[O-])CN(C)CC3)c1 (3D coordinates assigned)
Cc1cccc(S(=O)(=O)c2ccc(S(C)(=O)=O)cc2S(=O)(=O)[N-]c2cc3c(cc2[O-])CN(C)CC3)c1 (nonaromatic ring conformer: 77.53231394098945 kcal/mol)

>  <smiles>  (47) 
Cc1cccc(S(=O)(=O)c2ccc(S(C)(=O)=O)cc2S(=O)(=O)Nc2cc3c(cc2O)CN(C)CC3)c1

>  <score_type>  (47) 
oracle

>  <origin>  (47) 
adgpu

>  <m_score__min__energy>  (47) 
-13.640000000000001

>  <m_primary>  (47) 
energy

$$$$
48:0
     RDKit          3D

 41 44  0  0  0  0  0  0  0  0999 V2000
   -6.5040   17.6360  -33.8340 C   0  0  0  0  0  0  0  0  0  0  0  0
   -6.4240   18.9280  -33.0970 C   0  0  0  0  0  0  0  0  0  0  0  0
   -7.4640   19.4520  -32.4010 N   0  0  0  0  0  0  0  0  0  0  0  0
   -7.1390   20.6620  -31.8810 C   0  0  0  0  0  0  0  0  0  0  0  0
   -7.9960   21.4430  -31.1060 C   0  0  0  0  0  0  0  0  0  0  0  0
   -7.5340   22.6800  -30.6240 C   0  0  0  0  0  0  0  0  0  0  0  0
   -6.2260   23.1240  -30.9230 C   0  0  0  0  0  0  0  0  0  0  0  0
   -5.6580   24.6520  -30.2560 S   0  0  0  0  0  0  0  0  0  0  0  0
   -6.8340   25.5710  -30.0870 O   0  0  0  0  0  0  0  0  0  0  0  0
   -4.6600   25.3000  -31.1770 O   0  0  0  0  0  0  0  0  0  0  0  0
   -4.9130   24.3750  -28.7140 N   0  0  0  0  0  0  0  0  0  0  0  0
   -3.7630   23.5270  -28.5350 C   0  0  0  0  0  0  0  0  0  0  0  0
   -3.8950   22.2160  -28.0430 C   0  0  0  0  0  0  0  0  0  0  0  0
   -2.7680   21.4090  -27.8350 C   0  0  0  0  0  0  0  0  0  0  0  0
   -1.4910   21.8950  -28.1780 C   0  0  0  0  0  0  0  0  0  0  0  0
   -1.3570   23.1970  -28.6760 C   0  0  0  0  0  0  0  0  0  0  0  0
   -2.4810   24.0080  -28.8580 C   0  0  0  0  0  0  0  0  0  0  0  0
   -2.3140   25.2980  -29.3500 O   0  0  0  0  0  0  0  0  0  0  0  0
   -0.2530   21.0660  -27.9170 C   0  0  0  0  0  0  0  0  0  0  0  0
   -0.5540   19.6300  -27.8110 N   0  0  0  0  0  0  0  0  0  0  0  0
   -1.6320   19.3950  -26.8420 C   0  0  0  0  0  0  0  0  0  0  0  0
   -2.9520   20.0000  -27.3340 C   0  0  0  0  0  0  0  0  0  0  0  0
   -5.3760   22.3270  -31.7120 C   0  0  0  0  0  0  0  0  0  0  0  0
   -5.8600   21.1070  -32.1720 C   0  0  0  0  0  0  0  0  0  0  0  0
   -5.0790   19.9580  -33.1150 S   0  0  0  0  0  0  0  0  0  0  0  0
   -6.5554   16.8058  -33.1142 H   0  0  0  0  0  0  0  0  0  0  0  0
   -7.4043   17.6295  -34.4660 H   0  0  0  0  0  0  0  0  0  0  0  0
   -5.6114   17.5185  -34.4660 H   0  0  0  0  0  0  0  0  0  0  0  0
   -9.0147   21.0974  -30.8762 H   0  0  0  0  0  0  0  0  0  0  0  0
   -8.1959   23.3075  -30.0091 H   0  0  0  0  0  0  0  0  0  0  0  0
   -5.4190   24.7410  -27.8760 H   0  0  0  0  0  0  0  0  0  0  0  0
   -4.8959   21.8188  -27.8185 H   0  0  0  0  0  0  0  0  0  0  0  0
   -0.3585   23.5849  -28.9262 H   0  0  0  0  0  0  0  0  0  0  0  0
    0.4557   21.2186  -28.7443 H   0  0  0  0  0  0  0  0  0  0  0  0
    0.1736   21.3919  -26.9569 H   0  0  0  0  0  0  0  0  0  0  0  0
   -0.8530   19.2760  -28.7500 H   0  0  0  0  0  0  0  0  0  0  0  0
   -1.7620   18.3115  -26.7037 H   0  0  0  0  0  0  0  0  0  0  0  0
   -1.3593   19.8741  -25.8901 H   0  0  0  0  0  0  0  0  0  0  0  0
   -3.3452   19.3793  -28.1526 H   0  0  0  0  0  0  0  0  0  0  0  0
   -3.6532   20.0266  -26.4869 H   0  0  0  0  0  0  0  0  0  0  0  0
   -4.3568   22.6598  -31.9581 H   0  0  0  0  0  0  0  0  0  0  0  0
  1  2  1  0
  2  3  2  0
  3  4  1  0
  4  5  2  0
  5  6  1  0
  6  7  2  0
  7  8  1  0
  8  9  2  0
  8 10  2  0
  8 11  1  0
 11 12  1  0
 12 13  2  0
 13 14  1  0
 14 15  2  0
 15 16  1  0
 16 17  2  0
 17 18  1  0
 15 19  1  0
 19 20  1  0
 20 21  1  0
 21 22  1  0
  7 23  1  0
 23 24  2  0
 24 25  1  0
 25  2  1  0
 24  4  1  0
 17 12  1  0
 22 14  1  0
  1 26  1  0
  1 27  1  0
  1 28  1  0
  5 29  1  0
  6 30  1  0
 11 31  1  0
 13 32  1  0
 16 33  1  0
 19 34  1  0
 19 35  1  0
 20 36  1  0
 21 37  1  0
 21 38  1  0
 22 39  1  0
 22 40  1  0
 23 41  1  0
M  CHG  1  18  -1
M  END
>  <UniqueID>  (48) 
47

>  <SMILES>  (48) 
Cc1nc2ccc(S(=O)(=O)Nc3cc4c(cc3[O-])CNCC4)cc2s1

>  <Energy>  (48) 
82.00800609892049

>  <Genealogy>  (48) 
Cc1nc2ccc(S(=O)(=O)Nc3cc4c(cc3[O-])CNCC4)cc2s1 (protonated)
Cc1nc2ccc(S(=O)(=O)Nc3cc4c(cc3[O-])CNCC4)cc2s1 (3D coordinates assigned)
Cc1nc2ccc(S(=O)(=O)Nc3cc4c(cc3[O-])CNCC4)cc2s1 (nonaromatic ring conformer: 82.00800609892049 kcal/mol)

>  <smiles>  (48) 
Cc1nc2ccc(S(=O)(=O)Nc3cc4c(cc3O)CNCC4)cc2s1

>  <score_type>  (48) 
oracle

>  <origin>  (48) 
adgpu

>  <m_score__min__energy>  (48) 
-13.52

>  <m_primary>  (48) 
energy

$$$$
