0:0
     RDKit          3D

 58 61  0  0  0  0  0  0  0  0999 V2000
   -8.7080   21.3580  -31.7820 C   0  0  0  0  0  0  0  0  0  0  0  0
   -8.4070   19.6130  -32.2090 S   0  0  0  0  0  0  0  0  0  0  0  0
   -6.6270   19.8200  -32.2930 C   0  0  0  0  0  0  0  0  0  0  0  0
   -5.8170   18.7430  -32.6600 C   0  0  0  0  0  0  0  0  0  0  0  0
   -4.4330   18.9020  -32.7260 C   0  0  0  0  0  0  0  0  0  0  0  0
   -3.8430   20.1390  -32.4340 C   0  0  0  0  0  0  0  0  0  0  0  0
   -2.4220   20.2760  -32.5790 N   0  0  0  0  0  0  0  0  0  0  0  0
   -1.7980   20.8590  -33.7490 C   0  0  0  0  0  0  0  0  0  0  0  0
   -0.3120   20.9450  -33.4170 C   0  0  0  0  0  0  0  0  0  0  0  0
   -0.1060   20.0610  -32.1860 C   0  0  0  0  0  0  0  0  0  0  0  0
   -1.4750   19.9210  -31.5380 C   0  0  0  0  0  0  0  0  0  0  0  0
   -4.6560   21.2360  -32.0500 C   0  0  0  0  0  0  0  0  0  0  0  0
   -4.0790   22.5510  -31.6740 C   0  0  0  0  0  0  0  0  0  0  0  0
   -4.7830   23.5970  -31.7400 O   0  0  0  0  0  0  0  0  0  0  0  0
   -2.7320   22.6300  -31.1810 N   0  0  0  0  0  0  0  0  0  0  0  0
   -2.3500   23.1670  -29.9070 C   0  0  0  0  0  0  0  0  0  0  0  0
   -1.6080   22.4010  -28.9900 C   0  0  0  0  0  0  0  0  0  0  0  0
   -1.1570   22.9660  -27.7920 C   0  0  0  0  0  0  0  0  0  0  0  0
   -0.1310   22.0260  -26.7010 S   0  0  0  0  0  0  0  0  0  0  0  0
    1.3050   22.1770  -27.1220 O   0  0  0  0  0  0  0  0  0  0  0  0
   -0.2660   22.5740  -25.3080 O   0  0  0  0  0  0  0  0  0  0  0  0
   -0.5380   20.3270  -26.7130 N   0  0  0  0  0  0  0  0  0  0  0  0
    0.0900   19.6500  -27.8610 C   0  0  0  0  0  0  0  0  0  0  0  0
   -0.5070   18.2450  -28.0680 C   0  0  0  0  0  0  0  0  0  0  0  0
   -1.1760   17.8080  -26.9020 O   0  0  0  0  0  0  0  0  0  0  0  0
   -2.3140   18.6210  -26.6600 C   0  0  0  0  0  0  0  0  0  0  0  0
   -1.9940   20.1300  -26.7350 C   0  0  0  0  0  0  0  0  0  0  0  0
   -1.5030   24.2870  -27.4780 C   0  0  0  0  0  0  0  0  0  0  0  0
   -2.2990   25.0290  -28.3500 C   0  0  0  0  0  0  0  0  0  0  0  0
   -2.7250   24.4790  -29.5620 C   0  0  0  0  0  0  0  0  0  0  0  0
   -3.5000   25.2600  -30.4180 O   0  0  0  0  0  0  0  0  0  0  0  0
   -6.0520   21.0600  -31.9950 C   0  0  0  0  0  0  0  0  0  0  0  0
   -8.7273   21.4697  -30.6879 H   0  0  0  0  0  0  0  0  0  0  0  0
   -7.9042   21.9817  -32.2001 H   0  0  0  0  0  0  0  0  0  0  0  0
   -9.6743   21.6764  -32.2001 H   0  0  0  0  0  0  0  0  0  0  0  0
   -6.2707   17.7693  -32.8970 H   0  0  0  0  0  0  0  0  0  0  0  0
   -3.7991   18.0490  -33.0097 H   0  0  0  0  0  0  0  0  0  0  0  0
   -1.9590   20.2197  -34.6295 H   0  0  0  0  0  0  0  0  0  0  0  0
   -2.2208   21.8459  -33.9884 H   0  0  0  0  0  0  0  0  0  0  0  0
    0.2904   20.5743  -34.2594 H   0  0  0  0  0  0  0  0  0  0  0  0
   -0.0001   21.9824  -33.2261 H   0  0  0  0  0  0  0  0  0  0  0  0
    0.2789   19.0745  -32.4837 H   0  0  0  0  0  0  0  0  0  0  0  0
    0.6258   20.5001  -31.4920 H   0  0  0  0  0  0  0  0  0  0  0  0
   -1.6397   18.8866  -31.2021 H   0  0  0  0  0  0  0  0  0  0  0  0
   -1.5788   20.5612  -30.6495 H   0  0  0  0  0  0  0  0  0  0  0  0
   -1.3803   21.3489  -29.2165 H   0  0  0  0  0  0  0  0  0  0  0  0
   -0.0780   20.2494  -28.7679 H   0  0  0  0  0  0  0  0  0  0  0  0
    1.1667   19.5471  -27.6609 H   0  0  0  0  0  0  0  0  0  0  0  0
   -1.2216   18.2762  -28.9037 H   0  0  0  0  0  0  0  0  0  0  0  0
    0.3106   17.5433  -28.2898 H   0  0  0  0  0  0  0  0  0  0  0  0
   -3.0811   18.3859  -27.4125 H   0  0  0  0  0  0  0  0  0  0  0  0
   -2.6658   18.4058  -25.6402 H   0  0  0  0  0  0  0  0  0  0  0  0
   -2.4056   20.5456  -27.6666 H   0  0  0  0  0  0  0  0  0  0  0  0
   -2.4449   20.6423  -25.8723 H   0  0  0  0  0  0  0  0  0  0  0  0
   -1.1458   24.7399  -26.5413 H   0  0  0  0  0  0  0  0  0  0  0  0
   -2.5936   26.0544  -28.0820 H   0  0  0  0  0  0  0  0  0  0  0  0
   -3.8020   24.9310  -31.3280 H   0  0  0  0  0  0  0  0  0  0  0  0
   -6.6969   21.9060  -31.7149 H   0  0  0  0  0  0  0  0  0  0  0  0
  1  2  1  0
  2  3  1  0
  3  4  2  0
  4  5  1  0
  5  6  2  0
  6  7  1  0
  7  8  1  0
  8  9  1  0
  9 10  1  0
 10 11  1  0
  6 12  1  0
 12 13  1  0
 13 14  2  0
 13 15  1  0
 15 16  1  0
 16 17  2  0
 17 18  1  0
 18 19  1  0
 19 20  2  0
 19 21  2  0
 19 22  1  0
 22 23  1  0
 23 24  1  0
 24 25  1  0
 25 26  1  0
 26 27  1  0
 18 28  2  0
 28 29  1  0
 29 30  2  0
 30 31  1  0
 12 32  2  0
 32  3  1  0
 11  7  1  0
 30 16  1  0
 27 22  1  0
  1 33  1  0
  1 34  1  0
  1 35  1  0
  4 36  1  0
  5 37  1  0
  8 38  1  0
  8 39  1  0
  9 40  1  0
  9 41  1  0
 10 42  1  0
 10 43  1  0
 11 44  1  0
 11 45  1  0
 17 46  1  0
 23 47  1  0
 23 48  1  0
 24 49  1  0
 24 50  1  0
 26 51  1  0
 26 52  1  0
 27 53  1  0
 27 54  1  0
 28 55  1  0
 29 56  1  0
 31 57  1  0
 32 58  1  0
M  CHG  1  15  -1
M  END
>  <UniqueID>  (1) 
1

>  <SMILES>  (1) 
CSc1ccc(N2CCCC2)c(C(=O)[N-]c2cc(S(=O)(=O)N3CCOCC3)ccc2O)c1

>  <Energy>  (1) 
75.23558065492045

>  <Genealogy>  (1) 
CSc1ccc(N2CCCC2)c(C(=O)[N-]c2cc(S(=O)(=O)N3CCOCC3)ccc2O)c1 (protonated)
CSc1ccc(N2CCCC2)c(C(=O)[N-]c2cc(S(=O)(=O)N3CCOCC3)ccc2O)c1 (3D coordinates assigned)
CSc1ccc(N2CCCC2)c(C(=O)[N-]c2cc(S(=O)(=O)N3CCOCC3)ccc2O)c1 (nonaromatic ring conformer: 75.23558065492045 kcal/mol)

>  <smiles>  (1) 
CSc1ccc(N2CCCC2)c(C(=O)Nc2cc(S(=O)(=O)N3CCOCC3)ccc2O)c1

>  <score_type>  (1) 
oracle

>  <origin>  (1) 
adgpu

>  <m_score__min__energy>  (1) 
-11.43

>  <m_primary>  (1) 
energy

$$$$
1:0
     RDKit          3D

 25 27  0  0  0  0  0  0  0  0999 V2000
   -4.9240   25.6590  -30.8320 N   0  0  0  0  0  0  0  0  0  0  0  0
   -5.3610   24.6180  -31.0830 C   0  0  0  0  0  0  0  0  0  0  0  0
   -5.9040   23.3210  -31.3970 C   0  0  0  0  0  0  0  0  0  0  0  0
   -7.2050   22.9950  -31.0020 C   0  0  0  0  0  0  0  0  0  0  0  0
   -7.7350   21.7390  -31.3050 C   0  0  0  0  0  0  0  0  0  0  0  0
   -6.9690   20.7930  -32.0080 C   0  0  0  0  0  0  0  0  0  0  0  0
   -5.6550   21.1190  -32.4070 C   0  0  0  0  0  0  0  0  0  0  0  0
   -5.1320   22.3880  -32.0960 C   0  0  0  0  0  0  0  0  0  0  0  0
   -4.8400   20.1270  -33.1480 C   0  0  0  0  0  0  0  0  0  0  0  0
   -3.6650   20.4200  -33.5060 O   0  0  0  0  0  0  0  0  0  0  0  0
   -5.4010   18.7940  -33.4710 C   0  0  0  0  0  0  0  0  0  0  0  0
   -4.6350   17.8460  -34.1730 C   0  0  0  0  0  0  0  0  0  0  0  0
   -5.1680   16.5900  -34.4740 C   0  0  0  0  0  0  0  0  0  0  0  0
   -6.4670   16.2680  -34.0790 C   0  0  0  0  0  0  0  0  0  0  0  0
   -7.2380   17.1980  -33.3810 C   0  0  0  0  0  0  0  0  0  0  0  0
   -6.7150   18.4670  -33.0700 C   0  0  0  0  0  0  0  0  0  0  0  0
   -7.5310   19.4580  -32.3290 C   0  0  0  0  0  0  0  0  0  0  0  0
   -8.7050   19.1660  -31.9720 O   0  0  0  0  0  0  0  0  0  0  0  0
   -7.8120   23.7290  -30.4517 H   0  0  0  0  0  0  0  0  0  0  0  0
   -8.7591   21.4882  -30.9913 H   0  0  0  0  0  0  0  0  0  0  0  0
   -4.1087   22.6477  -32.4050 H   0  0  0  0  0  0  0  0  0  0  0  0
   -3.6105   18.0948  -34.4868 H   0  0  0  0  0  0  0  0  0  0  0  0
   -4.5626   15.8539  -35.0232 H   0  0  0  0  0  0  0  0  0  0  0  0
   -6.8841   15.2787  -34.3185 H   0  0  0  0  0  0  0  0  0  0  0  0
   -8.2611   16.9377  -33.0718 H   0  0  0  0  0  0  0  0  0  0  0  0
  1  2  3  0
  2  3  1  0
  3  4  2  0
  4  5  1  0
  5  6  2  0
  6  7  1  0
  7  8  2  0
  7  9  1  0
  9 10  2  0
  9 11  1  0
 11 12  2  0
 12 13  1  0
 13 14  2  0
 14 15  1  0
 15 16  2  0
 16 17  1  0
 17 18  2  0
  8  3  1  0
 16 11  1  0
 17  6  1  0
  4 19  1  0
  5 20  1  0
  8 21  1  0
 12 22  1  0
 13 23  1  0
 14 24  1  0
 15 25  1  0
M  END
>  <UniqueID>  (2) 
2

>  <SMILES>  (2) 
N#Cc1ccc2c(c1)C(=O)c1ccccc1C2=O

>  <Energy>  (2) 
31.940864618087517

>  <Genealogy>  (2) 
N#Cc1ccc2c(c1)C(=O)c1ccccc1C2=O (3D coordinates assigned)
N#Cc1ccc2c(c1)C(=O)c1ccccc1C2=O (nonaromatic ring conformer: 31.940864618087517 kcal/mol)

>  <smiles>  (2) 
N#Cc1ccc2c(c1)C(=O)c1ccccc1C2=O

>  <score_type>  (2) 
oracle

>  <origin>  (2) 
adgpu

>  <m_score__min__energy>  (2) 
-8.1799999999999997

>  <m_primary>  (2) 
energy

$$$$
2:0
     RDKit          3D

 41 43  0  0  0  0  0  0  0  0999 V2000
   -9.7650   22.3170  -32.2820 O   0  0  0  0  0  0  0  0  0  0  0  0
   -8.4710   22.0340  -31.5700 S   0  0  0  0  0  0  0  0  0  0  0  0
   -8.7370   21.9900  -30.0920 O   0  0  0  0  0  0  0  0  0  0  0  0
   -7.3410   23.3020  -31.9170 N   0  0  0  0  0  0  0  0  0  0  0  0
   -6.0690   23.4730  -31.2770 C   0  0  0  0  0  0  0  0  0  0  0  0
   -4.9780   22.7300  -31.7440 C   0  0  0  0  0  0  0  0  0  0  0  0
   -3.7230   22.8580  -31.1420 C   0  0  0  0  0  0  0  0  0  0  0  0
   -3.5440   23.7380  -30.0680 C   0  0  0  0  0  0  0  0  0  0  0  0
   -1.9670   23.8760  -29.3000 S   0  0  0  0  0  0  0  0  0  0  0  0
   -0.8840   23.3650  -30.2070 O   0  0  0  0  0  0  0  0  0  0  0  0
   -1.9700   23.0650  -28.0350 O   0  0  0  0  0  0  0  0  0  0  0  0
   -1.6440   25.5360  -28.9110 N   0  0  0  0  0  0  0  0  0  0  0  0
   -0.8450   25.9880  -27.8080 C   0  0  0  0  0  0  0  0  0  0  0  0
   -1.2190   27.1020  -27.0310 C   0  0  0  0  0  0  0  0  0  0  0  0
   -0.4270   27.5140  -25.9570 C   0  0  0  0  0  0  0  0  0  0  0  0
    0.7470   26.8260  -25.6470 C   0  0  0  0  0  0  0  0  0  0  0  0
    1.1280   25.7200  -26.4100 C   0  0  0  0  0  0  0  0  0  0  0  0
    0.3400   25.2960  -27.4860 C   0  0  0  0  0  0  0  0  0  0  0  0
    0.7540   24.1840  -28.2210 O   0  0  0  0  0  0  0  0  0  0  0  0
   -4.6270   24.4970  -29.6080 C   0  0  0  0  0  0  0  0  0  0  0  0
   -5.8840   24.3670  -30.2070 C   0  0  0  0  0  0  0  0  0  0  0  0
   -7.8330   20.4970  -32.1460 C   0  0  0  0  0  0  0  0  0  0  0  0
   -8.3560   19.2970  -31.6410 C   0  0  0  0  0  0  0  0  0  0  0  0
   -7.8680   18.0690  -32.1000 C   0  0  0  0  0  0  0  0  0  0  0  0
   -6.8580   18.0340  -33.0660 C   0  0  0  0  0  0  0  0  0  0  0  0
   -6.3340   19.2280  -33.5740 C   0  0  0  0  0  0  0  0  0  0  0  0
   -6.8190   20.4570  -33.1160 C   0  0  0  0  0  0  0  0  0  0  0  0
   -5.1095   22.0404  -32.5909 H   0  0  0  0  0  0  0  0  0  0  0  0
   -2.8737   22.2656  -31.5132 H   0  0  0  0  0  0  0  0  0  0  0  0
   -2.1412   27.6511  -27.2719 H   0  0  0  0  0  0  0  0  0  0  0  0
   -0.7293   28.3829  -25.3540 H   0  0  0  0  0  0  0  0  0  0  0  0
    1.3713   27.1543  -24.8030 H   0  0  0  0  0  0  0  0  0  0  0  0
    2.0534   25.1787  -26.1636 H   0  0  0  0  0  0  0  0  0  0  0  0
    0.0970   23.5300  -28.6300 H   0  0  0  0  0  0  0  0  0  0  0  0
   -4.4885   25.1984  -28.7720 H   0  0  0  0  0  0  0  0  0  0  0  0
   -6.7307   24.9658  -29.8402 H   0  0  0  0  0  0  0  0  0  0  0  0
   -9.1519   19.3219  -30.8821 H   0  0  0  0  0  0  0  0  0  0  0  0
   -8.2792   17.1302  -31.7006 H   0  0  0  0  0  0  0  0  0  0  0  0
   -6.4752   17.0679  -33.4268 H   0  0  0  0  0  0  0  0  0  0  0  0
   -5.5397   19.1998  -34.3345 H   0  0  0  0  0  0  0  0  0  0  0  0
   -6.4052   21.3942  -33.5165 H   0  0  0  0  0  0  0  0  0  0  0  0
  1  2  2  0
  2  3  2  0
  2  4  1  0
  4  5  1  0
  5  6  2  0
  6  7  1  0
  7  8  2  0
  8  9  1  0
  9 10  2  0
  9 11  2  0
  9 12  1  0
 12 13  1  0
 13 14  2  0
 14 15  1  0
 15 16  2  0
 16 17  1  0
 17 18  2  0
 18 19  1  0
  8 20  1  0
 20 21  2  0
  2 22  1  0
 22 23  2  0
 23 24  1  0
 24 25  2  0
 25 26  1  0
 26 27  2  0
 21  5  1  0
 27 22  1  0
 18 13  1  0
  6 28  1  0
  7 29  1  0
 14 30  1  0
 15 31  1  0
 16 32  1  0
 17 33  1  0
 19 34  1  0
 20 35  1  0
 21 36  1  0
 23 37  1  0
 24 38  1  0
 25 39  1  0
 26 40  1  0
 27 41  1  0
M  CHG  2   4  -1  12  -1
M  END
>  <UniqueID>  (3) 
3

>  <SMILES>  (3) 
O=S(=O)([N-]c1ccc(S(=O)(=O)[N-]c2ccccc2O)cc1)c1ccccc1

>  <Energy>  (3) 
50.384587162190485

>  <Genealogy>  (3) 
O=S(=O)([N-]c1ccc(S(=O)(=O)[N-]c2ccccc2O)cc1)c1ccccc1 (protonated)
O=S(=O)([N-]c1ccc(S(=O)(=O)[N-]c2ccccc2O)cc1)c1ccccc1 (3D coordinates assigned)
O=S(=O)([N-]c1ccc(S(=O)(=O)[N-]c2ccccc2O)cc1)c1ccccc1 (optimized conformer: 50.384587162190485 kcal/mol)

>  <smiles>  (3) 
O=S(=O)(Nc1ccc(S(=O)(=O)Nc2ccccc2O)cc1)c1ccccc1

>  <score_type>  (3) 
oracle

>  <origin>  (3) 
adgpu

>  <m_score__min__energy>  (3) 
-11.44

>  <m_primary>  (3) 
energy

$$$$
3:0
     RDKit          3D

 35 36  0  0  0  0  0  0  0  0999 V2000
   -2.0920   25.3720  -26.0440 C   0  0  0  0  0  0  0  0  0  0  0  0
   -2.0410   24.3660  -27.1890 C   0  0  0  0  0  0  0  0  0  0  0  0
   -3.1680   24.5500  -28.1020 N   0  0  0  0  0  0  0  0  0  0  0  0
   -3.9100   23.4290  -28.6060 C   0  0  0  0  0  0  0  0  0  0  0  0
   -3.6750   22.2740  -28.1560 O   0  0  0  0  0  0  0  0  0  0  0  0
   -4.9500   23.6110  -29.6490 C   0  0  0  0  0  0  0  0  0  0  0  0
   -6.0170   22.6990  -29.7480 C   0  0  0  0  0  0  0  0  0  0  0  0
   -7.0160   22.8720  -30.7120 C   0  0  0  0  0  0  0  0  0  0  0  0
   -8.3790   21.7100  -30.8190 S   0  0  0  0  0  0  0  0  0  0  0  0
   -7.4550   20.5700  -31.8600 C   0  0  0  0  0  0  0  0  0  0  0  0
   -6.3620   21.0640  -32.5860 C   0  0  0  0  0  0  0  0  0  0  0  0
   -5.6310   20.2200  -33.4250 C   0  0  0  0  0  0  0  0  0  0  0  0
   -5.9820   18.8760  -33.5420 C   0  0  0  0  0  0  0  0  0  0  0  0
   -7.0630   18.3680  -32.8150 C   0  0  0  0  0  0  0  0  0  0  0  0
   -7.8030   19.2040  -31.9640 C   0  0  0  0  0  0  0  0  0  0  0  0
   -8.8890   18.6480  -31.2110 N   0  0  0  0  0  0  0  0  0  0  0  0
   -6.9530   23.9540  -31.5950 C   0  0  0  0  0  0  0  0  0  0  0  0
   -5.9040   24.8690  -31.5050 C   0  0  0  0  0  0  0  0  0  0  0  0
   -4.9050   24.7060  -30.5390 C   0  0  0  0  0  0  0  0  0  0  0  0
   -3.8650   25.6290  -30.4850 O   0  0  0  0  0  0  0  0  0  0  0  0
   -2.0648   24.8362  -25.0837 H   0  0  0  0  0  0  0  0  0  0  0  0
   -1.2270   26.0482  -26.1112 H   0  0  0  0  0  0  0  0  0  0  0  0
   -3.0210   25.9572  -26.1112 H   0  0  0  0  0  0  0  0  0  0  0  0
   -1.1019   24.5023  -27.7454 H   0  0  0  0  0  0  0  0  0  0  0  0
   -2.0961   23.3521  -26.7659 H   0  0  0  0  0  0  0  0  0  0  0  0
   -3.4650   25.5180  -28.3630 H   0  0  0  0  0  0  0  0  0  0  0  0
   -6.0661   21.8416  -29.0607 H   0  0  0  0  0  0  0  0  0  0  0  0
   -6.0785   22.1229  -32.4942 H   0  0  0  0  0  0  0  0  0  0  0  0
   -4.7772   20.6163  -33.9942 H   0  0  0  0  0  0  0  0  0  0  0  0
   -5.4078   18.2142  -34.2071 H   0  0  0  0  0  0  0  0  0  0  0  0
   -7.3353   17.3065  -32.9105 H   0  0  0  0  0  0  0  0  0  0  0  0
   -9.4930   19.2620  -30.6200 H   0  0  0  0  0  0  0  0  0  0  0  0
   -9.1320   17.6350  -31.2540 H   0  0  0  0  0  0  0  0  0  0  0  0
   -7.7313   24.0839  -32.3614 H   0  0  0  0  0  0  0  0  0  0  0  0
   -5.8619   25.7230  -32.1970 H   0  0  0  0  0  0  0  0  0  0  0  0
  1  2  1  0
  2  3  1  0
  3  4  1  0
  4  5  2  0
  4  6  1  0
  6  7  2  0
  7  8  1  0
  8  9  1  0
  9 10  1  0
 10 11  2  0
 11 12  1  0
 12 13  2  0
 13 14  1  0
 14 15  2  0
 15 16  1  0
  8 17  2  0
 17 18  1  0
 18 19  2  0
 19 20  1  0
 19  6  1  0
 15 10  1  0
  1 21  1  0
  1 22  1  0
  1 23  1  0
  2 24  1  0
  2 25  1  0
  3 26  1  0
  7 27  1  0
 11 28  1  0
 12 29  1  0
 13 30  1  0
 14 31  1  0
 16 32  1  0
 16 33  1  0
 17 34  1  0
 18 35  1  0
M  CHG  1  20  -1
M  END
>  <UniqueID>  (4) 
4

>  <SMILES>  (4) 
CCNC(=O)c1cc(Sc2ccccc2N)ccc1[O-]

>  <Energy>  (4) 
30.09198075410244

>  <Genealogy>  (4) 
CCNC(=O)c1cc(Sc2ccccc2N)ccc1[O-] (protonated)
CCNC(=O)c1cc(Sc2ccccc2N)ccc1[O-] (3D coordinates assigned)
CCNC(=O)c1cc(Sc2ccccc2N)ccc1[O-] (optimized conformer: 30.09198075410244 kcal/mol)

>  <smiles>  (4) 
CCNC(=O)c1cc(Sc2ccccc2N)ccc1O

>  <score_type>  (4) 
oracle

>  <origin>  (4) 
adgpu

>  <m_score__min__energy>  (4) 
-10.470000000000001

>  <m_primary>  (4) 
energy

$$$$
4:0
     RDKit          3D

 51 54  0  0  0  0  0  0  0  0999 V2000
   -2.8530   25.3350  -26.0020 C   0  0  0  0  0  0  0  0  0  0  0  0
   -2.5020   24.7020  -27.3160 C   0  0  0  0  0  0  0  0  0  0  0  0
   -1.1750   24.7040  -27.7690 C   0  0  0  0  0  0  0  0  0  0  0  0
   -0.8400   24.0680  -28.9670 C   0  0  0  0  0  0  0  0  0  0  0  0
   -1.8260   23.4220  -29.7180 C   0  0  0  0  0  0  0  0  0  0  0  0
   -3.1590   23.4120  -29.2820 C   0  0  0  0  0  0  0  0  0  0  0  0
   -4.1490   22.7130  -30.0560 N   0  0  0  0  0  0  0  0  0  0  0  0
   -5.1830   23.3710  -30.8080 C   0  0  0  0  0  0  0  0  0  0  0  0
   -5.0180   24.5630  -31.1860 O   0  0  0  0  0  0  0  0  0  0  0  0
   -6.4230   22.6480  -31.1870 C   0  0  0  0  0  0  0  0  0  0  0  0
   -7.6470   23.3360  -31.2600 C   0  0  0  0  0  0  0  0  0  0  0  0
   -8.8210   22.6580  -31.6010 C   0  0  0  0  0  0  0  0  0  0  0  0
   -8.7880   21.2880  -31.8640 C   0  0  0  0  0  0  0  0  0  0  0  0
   -7.5800   20.5860  -31.7890 C   0  0  0  0  0  0  0  0  0  0  0  0
   -7.5630   18.8480  -32.0830 S   0  0  0  0  0  0  0  0  0  0  0  0
   -8.9660   18.3070  -32.0360 O   0  0  0  0  0  0  0  0  0  0  0  0
   -6.7690   18.1920  -30.9890 O   0  0  0  0  0  0  0  0  0  0  0  0
   -6.8150   18.4940  -33.6270 N   0  0  0  0  0  0  0  0  0  0  0  0
   -5.9920   17.2710  -33.6060 C   0  0  0  0  0  0  0  0  0  0  0  0
   -4.7500   17.4060  -32.7150 C   0  0  0  0  0  0  0  0  0  0  0  0
   -4.0560   18.7300  -32.8940 C   0  0  0  0  0  0  0  0  0  0  0  0
   -2.7740   18.9090  -32.3510 C   0  0  0  0  0  0  0  0  0  0  0  0
   -2.1310   20.1460  -32.4500 C   0  0  0  0  0  0  0  0  0  0  0  0
   -2.7660   21.2140  -33.0860 C   0  0  0  0  0  0  0  0  0  0  0  0
   -4.0460   21.0510  -33.6200 C   0  0  0  0  0  0  0  0  0  0  0  0
   -4.7090   19.8180  -33.5130 C   0  0  0  0  0  0  0  0  0  0  0  0
   -6.0670   19.6510  -34.1510 C   0  0  0  0  0  0  0  0  0  0  0  0
   -6.4020   21.2650  -31.4480 C   0  0  0  0  0  0  0  0  0  0  0  0
   -3.4870   24.0360  -28.0630 C   0  0  0  0  0  0  0  0  0  0  0  0
   -2.4983   24.6953  -25.1805 H   0  0  0  0  0  0  0  0  0  0  0  0
   -2.3736   26.3225  -25.9310 H   0  0  0  0  0  0  0  0  0  0  0  0
   -3.9445   25.4514  -25.9310 H   0  0  0  0  0  0  0  0  0  0  0  0
   -0.3952   25.2080  -27.1792 H   0  0  0  0  0  0  0  0  0  0  0  0
    0.2018   24.0757  -29.3199 H   0  0  0  0  0  0  0  0  0  0  0  0
   -1.5547   22.9180  -30.6574 H   0  0  0  0  0  0  0  0  0  0  0  0
   -4.0470   21.6780  -30.1620 H   0  0  0  0  0  0  0  0  0  0  0  0
   -7.6810   24.4147  -31.0474 H   0  0  0  0  0  0  0  0  0  0  0  0
   -9.7730   23.2057  -31.6621 H   0  0  0  0  0  0  0  0  0  0  0  0
   -9.7144   20.7584  -32.1311 H   0  0  0  0  0  0  0  0  0  0  0  0
   -6.6065   16.4402  -33.2290 H   0  0  0  0  0  0  0  0  0  0  0  0
   -5.6445   17.0877  -34.6334 H   0  0  0  0  0  0  0  0  0  0  0  0
   -5.0573   17.3077  -31.6634 H   0  0  0  0  0  0  0  0  0  0  0  0
   -4.0425   16.6149  -33.0040 H   0  0  0  0  0  0  0  0  0  0  0  0
   -2.2726   18.0710  -31.8447 H   0  0  0  0  0  0  0  0  0  0  0  0
   -1.1243   20.2779  -32.0266 H   0  0  0  0  0  0  0  0  0  0  0  0
   -2.2572   22.1859  -33.1667 H   0  0  0  0  0  0  0  0  0  0  0  0
   -4.5379   21.8938  -34.1276 H   0  0  0  0  0  0  0  0  0  0  0  0
   -6.6554   20.5615  -33.9647 H   0  0  0  0  0  0  0  0  0  0  0  0
   -5.9051   19.4771  -35.2250 H   0  0  0  0  0  0  0  0  0  0  0  0
   -5.4531   20.7123  -31.3838 H   0  0  0  0  0  0  0  0  0  0  0  0
   -4.5224   24.0015  -27.6932 H   0  0  0  0  0  0  0  0  0  0  0  0
  1  2  1  0
  2  3  2  0
  3  4  1  0
  4  5  2  0
  5  6  1  0
  6  7  1  0
  7  8  1  0
  8  9  2  0
  8 10  1  0
 10 11  2  0
 11 12  1  0
 12 13  2  0
 13 14  1  0
 14 15  1  0
 15 16  2  0
 15 17  2  0
 15 18  1  0
 18 19  1  0
 19 20  1  0
 20 21  1  0
 21 22  2  0
 22 23  1  0
 23 24  2  0
 24 25  1  0
 25 26  2  0
 26 27  1  0
 14 28  2  0
  6 29  2  0
 29  2  1  0
 28 10  1  0
 27 18  1  0
 26 21  1  0
  1 30  1  0
  1 31  1  0
  1 32  1  0
  3 33  1  0
  4 34  1  0
  5 35  1  0
  7 36  1  0
 11 37  1  0
 12 38  1  0
 13 39  1  0
 19 40  1  0
 19 41  1  0
 20 42  1  0
 20 43  1  0
 22 44  1  0
 23 45  1  0
 24 46  1  0
 25 47  1  0
 27 48  1  0
 27 49  1  0
 28 50  1  0
 29 51  1  0
M  END
>  <UniqueID>  (5) 
5

>  <SMILES>  (5) 
Cc1cccc(NC(=O)c2cccc(S(=O)(=O)N3CCc4ccccc4C3)c2)c1

>  <Energy>  (5) 
63.739997952720145

>  <Genealogy>  (5) 
Cc1cccc(NC(=O)c2cccc(S(=O)(=O)N3CCc4ccccc4C3)c2)c1 (3D coordinates assigned)
Cc1cccc(NC(=O)c2cccc(S(=O)(=O)N3CCc4ccccc4C3)c2)c1 (nonaromatic ring conformer: 63.739997952720145 kcal/mol)

>  <smiles>  (5) 
Cc1cccc(NC(=O)c2cccc(S(=O)(=O)N3CCc4ccccc4C3)c2)c1

>  <score_type>  (5) 
oracle

>  <origin>  (5) 
adgpu

>  <m_score__min__energy>  (5) 
-10.199999999999999

>  <m_primary>  (5) 
energy

$$$$
5:0
     RDKit          3D

 53 56  0  0  0  0  0  0  0  0999 V2000
   -5.3890   26.5330  -30.4350 O   0  0  0  0  0  0  0  0  0  0  0  0
   -5.0740   25.3260  -30.6080 C   0  0  0  0  0  0  0  0  0  0  0  0
   -3.6980   24.9460  -30.4830 N   0  0  0  0  0  0  0  0  0  0  0  0
   -3.1930   23.6030  -30.4120 C   0  0  0  0  0  0  0  0  0  0  0  0
   -3.2680   22.7430  -31.5210 C   0  0  0  0  0  0  0  0  0  0  0  0
   -2.7580   21.4390  -31.4470 C   0  0  0  0  0  0  0  0  0  0  0  0
   -2.8460   20.3720  -32.8510 S   0  0  0  0  0  0  0  0  0  0  0  0
   -1.9660   20.9190  -33.9410 O   0  0  0  0  0  0  0  0  0  0  0  0
   -2.3230   19.0140  -32.4710 O   0  0  0  0  0  0  0  0  0  0  0  0
   -4.4850   20.2180  -33.4470 N   0  0  0  0  0  0  0  0  0  0  0  0
   -5.4800   20.4610  -32.3660 C   0  0  0  0  0  0  0  0  0  0  0  0
   -6.0960   19.1660  -31.8140 C   0  0  0  0  0  0  0  0  0  0  0  0
   -6.7960   18.3690  -32.9280 C   0  0  0  0  0  0  0  0  0  0  0  0
   -6.1270   18.5490  -34.3020 C   0  0  0  0  0  0  0  0  0  0  0  0
   -4.6480   18.9210  -34.1480 C   0  0  0  0  0  0  0  0  0  0  0  0
   -2.1750   20.9930  -30.2560 C   0  0  0  0  0  0  0  0  0  0  0  0
   -2.1150   21.8340  -29.1440 C   0  0  0  0  0  0  0  0  0  0  0  0
   -2.6340   23.1360  -29.2090 C   0  0  0  0  0  0  0  0  0  0  0  0
   -2.5570   23.9870  -28.0570 N   0  0  0  0  0  0  0  0  0  0  0  0
   -1.4330   24.8640  -27.7860 C   0  0  0  0  0  0  0  0  0  0  0  0
   -1.7500   25.5250  -26.4500 C   0  0  0  0  0  0  0  0  0  0  0  0
   -3.2430   25.3040  -26.2130 C   0  0  0  0  0  0  0  0  0  0  0  0
   -3.6490   24.1440  -27.1140 C   0  0  0  0  0  0  0  0  0  0  0  0
   -6.1220   24.3630  -30.9910 C   0  0  0  0  0  0  0  0  0  0  0  0
   -6.8920   23.5960  -30.1350 C   0  0  0  0  0  0  0  0  0  0  0  0
   -7.7140   22.8460  -30.9460 C   0  0  0  0  0  0  0  0  0  0  0  0
   -7.3930   23.1920  -32.2420 C   0  0  0  0  0  0  0  0  0  0  0  0
   -6.4410   24.0960  -32.2360 O   0  0  0  0  0  0  0  0  0  0  0  0
   -3.7305   23.0957  -32.4546 H   0  0  0  0  0  0  0  0  0  0  0  0
   -4.6020   20.9770  -34.1580 H   0  0  0  0  0  0  0  0  0  0  0  0
   -4.9796   20.9902  -31.5416 H   0  0  0  0  0  0  0  0  0  0  0  0
   -6.2978   21.0554  -32.7994 H   0  0  0  0  0  0  0  0  0  0  0  0
   -5.2992   18.5473  -31.3755 H   0  0  0  0  0  0  0  0  0  0  0  0
   -6.8427   19.4310  -31.0510 H   0  0  0  0  0  0  0  0  0  0  0  0
   -6.7734   17.3015  -32.6635 H   0  0  0  0  0  0  0  0  0  0  0  0
   -7.8254   18.7482  -33.0091 H   0  0  0  0  0  0  0  0  0  0  0  0
   -6.2044   17.6077  -34.8659 H   0  0  0  0  0  0  0  0  0  0  0  0
   -6.6391   19.3621  -34.8374 H   0  0  0  0  0  0  0  0  0  0  0  0
   -4.1400   18.1354  -33.5694 H   0  0  0  0  0  0  0  0  0  0  0  0
   -4.2084   19.0132  -35.1521 H   0  0  0  0  0  0  0  0  0  0  0  0
   -1.7622   19.9752  -30.1958 H   0  0  0  0  0  0  0  0  0  0  0  0
   -1.6579   21.4739  -28.2105 H   0  0  0  0  0  0  0  0  0  0  0  0
   -0.5004   24.2847  -27.7173 H   0  0  0  0  0  0  0  0  0  0  0  0
   -1.2897   25.6053  -28.5860 H   0  0  0  0  0  0  0  0  0  0  0  0
   -1.1625   25.0598  -25.6448 H   0  0  0  0  0  0  0  0  0  0  0  0
   -1.4986   26.5958  -26.4612 H   0  0  0  0  0  0  0  0  0  0  0  0
   -3.4284   25.0510  -25.1587 H   0  0  0  0  0  0  0  0  0  0  0  0
   -3.8235   26.2103  -26.4401 H   0  0  0  0  0  0  0  0  0  0  0  0
   -3.7818   23.2259  -26.5228 H   0  0  0  0  0  0  0  0  0  0  0  0
   -4.6045   24.3372  -27.6235 H   0  0  0  0  0  0  0  0  0  0  0  0
   -6.8552   23.5872  -29.0357 H   0  0  0  0  0  0  0  0  0  0  0  0
   -8.4734   22.1178  -30.6251 H   0  0  0  0  0  0  0  0  0  0  0  0
   -7.8635   22.7738  -33.1441 H   0  0  0  0  0  0  0  0  0  0  0  0
  1  2  2  0
  2  3  1  0
  3  4  1  0
  4  5  2  0
  5  6  1  0
  6  7  1  0
  7  8  2  0
  7  9  2  0
  7 10  1  0
 10 11  1  0
 11 12  1  0
 12 13  1  0
 13 14  1  0
 14 15  1  0
  6 16  2  0
 16 17  1  0
 17 18  2  0
 18 19  1  0
 19 20  1  0
 20 21  1  0
 21 22  1  0
 22 23  1  0
  2 24  1  0
 24 25  2  0
 25 26  1  0
 26 27  2  0
 27 28  1  0
 18  4  1  0
 23 19  1  0
 28 24  1  0
 15 10  1  0
  5 29  1  0
 10 30  1  0
 11 31  1  0
 11 32  1  0
 12 33  1  0
 12 34  1  0
 13 35  1  0
 13 36  1  0
 14 37  1  0
 14 38  1  0
 15 39  1  0
 15 40  1  0
 16 41  1  0
 17 42  1  0
 20 43  1  0
 20 44  1  0
 21 45  1  0
 21 46  1  0
 22 47  1  0
 22 48  1  0
 23 49  1  0
 23 50  1  0
 25 51  1  0
 26 52  1  0
 27 53  1  0
M  CHG  2   3  -1  10   1
M  END
>  <UniqueID>  (6) 
6

>  <SMILES>  (6) 
O=C([N-]c1cc(S(=O)(=O)[NH+]2CCCCC2)ccc1N1CCCC1)c1ccco1

>  <Energy>  (6) 
94.6245136930969

>  <Genealogy>  (6) 
O=C([N-]c1cc(S(=O)(=O)[NH+]2CCCCC2)ccc1N1CCCC1)c1ccco1 (protonated)
O=C([N-]c1cc(S(=O)(=O)[NH+]2CCCCC2)ccc1N1CCCC1)c1ccco1 (3D coordinates assigned)
O=C([N-]c1cc(S(=O)(=O)[NH+]2CCCCC2)ccc1N1CCCC1)c1ccco1 (nonaromatic ring conformer: 94.6245136930969 kcal/mol)

>  <smiles>  (6) 
O=C(Nc1cc(S(=O)(=O)N2CCCCC2)ccc1N1CCCC1)c1ccco1

>  <score_type>  (6) 
oracle

>  <origin>  (6) 
adgpu

>  <m_score__min__energy>  (6) 
-9.9700000000000006

>  <m_primary>  (6) 
energy

$$$$
6:0
     RDKit          3D

 47 50  0  0  0  0  0  0  0  0999 V2000
    1.2980   21.6270  -35.4360 C   0  0  0  0  0  0  0  0  0  0  0  0
    0.1220   20.8560  -34.9020 C   0  0  0  0  0  0  0  0  0  0  0  0
    0.0260   19.4710  -35.1180 C   0  0  0  0  0  0  0  0  0  0  0  0
   -1.0490   18.7430  -34.5910 C   0  0  0  0  0  0  0  0  0  0  0  0
   -2.0270   19.3880  -33.8340 C   0  0  0  0  0  0  0  0  0  0  0  0
   -1.9390   20.7710  -33.5930 C   0  0  0  0  0  0  0  0  0  0  0  0
   -2.9670   21.4470  -32.7780 C   0  0  0  0  0  0  0  0  0  0  0  0
   -2.6850   22.3000  -31.7670 N   0  0  0  0  0  0  0  0  0  0  0  0
   -3.8920   22.6630  -31.3070 C   0  0  0  0  0  0  0  0  0  0  0  0
   -4.1280   23.8650  -30.0460 S   0  0  0  0  0  0  0  0  0  0  0  0
   -3.8730   25.2300  -30.6150 O   0  0  0  0  0  0  0  0  0  0  0  0
   -5.5470   23.8070  -29.5560 O   0  0  0  0  0  0  0  0  0  0  0  0
   -3.0510   23.5520  -28.6880 C   0  0  0  0  0  0  0  0  0  0  0  0
   -2.8700   22.2420  -28.2260 C   0  0  0  0  0  0  0  0  0  0  0  0
   -1.9770   21.9860  -27.1790 C   0  0  0  0  0  0  0  0  0  0  0  0
   -1.2690   23.0290  -26.5880 C   0  0  0  0  0  0  0  0  0  0  0  0
   -1.4560   24.3360  -27.0370 C   0  0  0  0  0  0  0  0  0  0  0  0
   -2.3460   24.6020  -28.0830 C   0  0  0  0  0  0  0  0  0  0  0  0
   -4.8520   22.0220  -32.0560 C   0  0  0  0  0  0  0  0  0  0  0  0
   -6.2750   22.1300  -31.9210 N   0  0  0  0  0  0  0  0  0  0  0  0
   -6.9090   23.4470  -32.1170 C   0  0  0  0  0  0  0  0  0  0  0  0
   -8.4430   23.3970  -31.9990 C   0  0  0  0  0  0  0  0  0  0  0  0
   -8.9550   22.1220  -32.3360 O   0  0  0  0  0  0  0  0  0  0  0  0
   -8.5130   21.1890  -31.3800 C   0  0  0  0  0  0  0  0  0  0  0  0
   -7.0210   20.9110  -31.5740 C   0  0  0  0  0  0  0  0  0  0  0  0
   -4.2560   21.2870  -32.9580 O   0  0  0  0  0  0  0  0  0  0  0  0
   -0.8540   21.5000  -34.1280 C   0  0  0  0  0  0  0  0  0  0  0  0
    1.8926   22.0168  -34.5966 H   0  0  0  0  0  0  0  0  0  0  0  0
    1.9232   20.9629  -36.0509 H   0  0  0  0  0  0  0  0  0  0  0  0
    0.9383   22.4651  -36.0509 H   0  0  0  0  0  0  0  0  0  0  0  0
    0.8000   18.9547  -35.7048 H   0  0  0  0  0  0  0  0  0  0  0  0
   -1.1218   17.6609  -34.7746 H   0  0  0  0  0  0  0  0  0  0  0  0
   -2.8703   18.8129  -33.4239 H   0  0  0  0  0  0  0  0  0  0  0  0
   -3.4298   21.4144  -28.6861 H   0  0  0  0  0  0  0  0  0  0  0  0
   -1.8339   20.9557  -26.8214 H   0  0  0  0  0  0  0  0  0  0  0  0
   -0.5641   22.8227  -25.7692 H   0  0  0  0  0  0  0  0  0  0  0  0
   -0.9013   25.1613  -26.5667 H   0  0  0  0  0  0  0  0  0  0  0  0
   -2.4927   25.6352  -28.4309 H   0  0  0  0  0  0  0  0  0  0  0  0
   -6.5209   24.1401  -31.3561 H   0  0  0  0  0  0  0  0  0  0  0  0
   -6.6671   23.7813  -33.1367 H   0  0  0  0  0  0  0  0  0  0  0  0
   -8.7282   23.6327  -30.9631 H   0  0  0  0  0  0  0  0  0  0  0  0
   -8.8639   24.1310  -32.7020 H   0  0  0  0  0  0  0  0  0  0  0  0
   -8.6803   21.5937  -30.3709 H   0  0  0  0  0  0  0  0  0  0  0  0
   -9.0748   20.2513  -31.5026 H   0  0  0  0  0  0  0  0  0  0  0  0
   -6.6121   20.4980  -30.6401 H   0  0  0  0  0  0  0  0  0  0  0  0
   -6.9130   20.1980  -32.4046 H   0  0  0  0  0  0  0  0  0  0  0  0
   -0.7741   22.5802  -33.9362 H   0  0  0  0  0  0  0  0  0  0  0  0
  1  2  1  0
  2  3  2  0
  3  4  1  0
  4  5  2  0
  5  6  1  0
  6  7  1  0
  7  8  2  0
  8  9  1  0
  9 10  1  0
 10 11  2  0
 10 12  2  0
 10 13  1  0
 13 14  2  0
 14 15  1  0
 15 16  2  0
 16 17  1  0
 17 18  2  0
  9 19  2  0
 19 20  1  0
 20 21  1  0
 21 22  1  0
 22 23  1  0
 23 24  1  0
 24 25  1  0
 19 26  1  0
  6 27  2  0
 27  2  1  0
 26  7  1  0
 18 13  1  0
 25 20  1  0
  1 28  1  0
  1 29  1  0
  1 30  1  0
  3 31  1  0
  4 32  1  0
  5 33  1  0
 14 34  1  0
 15 35  1  0
 16 36  1  0
 17 37  1  0
 18 38  1  0
 21 39  1  0
 21 40  1  0
 22 41  1  0
 22 42  1  0
 24 43  1  0
 24 44  1  0
 25 45  1  0
 25 46  1  0
 27 47  1  0
M  END
>  <UniqueID>  (7) 
7

>  <SMILES>  (7) 
Cc1cccc(-c2nc(S(=O)(=O)c3ccccc3)c(N3CCOCC3)o2)c1

>  <Energy>  (7) 
88.36122976316042

>  <Genealogy>  (7) 
Cc1cccc(-c2nc(S(=O)(=O)c3ccccc3)c(N3CCOCC3)o2)c1 (3D coordinates assigned)
Cc1cccc(-c2nc(S(=O)(=O)c3ccccc3)c(N3CCOCC3)o2)c1 (nonaromatic ring conformer: 88.36122976316042 kcal/mol)

>  <smiles>  (7) 
Cc1cccc(-c2nc(S(=O)(=O)c3ccccc3)c(N3CCOCC3)o2)c1

>  <score_type>  (7) 
oracle

>  <origin>  (7) 
adgpu

>  <m_score__min__energy>  (7) 
-8.3900000000000006

>  <m_primary>  (7) 
energy

$$$$
7:0
     RDKit          3D

 60 63  0  0  0  0  0  0  0  0999 V2000
   -4.0710   22.4440  -27.9820 O   0  0  0  0  0  0  0  0  0  0  0  0
   -3.8350   23.2330  -28.9370 C   0  0  0  0  0  0  0  0  0  0  0  0
   -2.5200   23.7930  -29.1080 N   0  0  0  0  0  0  0  0  0  0  0  0
   -1.3860   23.4340  -28.2990 C   0  0  0  0  0  0  0  0  0  0  0  0
   -1.1930   22.0910  -27.9450 C   0  0  0  0  0  0  0  0  0  0  0  0
   -0.1120   21.7210  -27.1400 C   0  0  0  0  0  0  0  0  0  0  0  0
    0.7740   22.6910  -26.6680 C   0  0  0  0  0  0  0  0  0  0  0  0
    0.5770   24.0410  -26.9880 C   0  0  0  0  0  0  0  0  0  0  0  0
    1.6740   25.2720  -26.3580 S   0  0  0  0  0  0  0  0  0  0  0  0
    2.3800   25.9380  -27.5070 O   0  0  0  0  0  0  0  0  0  0  0  0
    2.7140   24.6100  -25.4960 O   0  0  0  0  0  0  0  0  0  0  0  0
    0.8310   26.4810  -25.4230 N   0  0  0  0  0  0  0  0  0  0  0  0
   -0.0540   25.8460  -24.4370 C   0  0  0  0  0  0  0  0  0  0  0  0
   -0.7810   26.9280  -23.6080 C   0  0  0  0  0  0  0  0  0  0  0  0
   -0.5400   28.2340  -24.1030 O   0  0  0  0  0  0  0  0  0  0  0  0
   -0.8640   28.2910  -25.4790 C   0  0  0  0  0  0  0  0  0  0  0  0
    0.0540   27.3680  -26.3060 C   0  0  0  0  0  0  0  0  0  0  0  0
   -0.5060   24.4090  -27.7990 C   0  0  0  0  0  0  0  0  0  0  0  0
   -4.9260   23.5600  -29.8800 C   0  0  0  0  0  0  0  0  0  0  0  0
   -6.0290   22.6950  -29.9750 C   0  0  0  0  0  0  0  0  0  0  0  0
   -7.0720   22.9620  -30.8710 C   0  0  0  0  0  0  0  0  0  0  0  0
   -8.4290   21.8480  -31.0140 S   0  0  0  0  0  0  0  0  0  0  0  0
   -9.2890   22.2740  -32.1730 O   0  0  0  0  0  0  0  0  0  0  0  0
   -9.2610   21.8990  -29.7620 O   0  0  0  0  0  0  0  0  0  0  0  0
   -7.8430   20.2250  -31.2850 N   0  0  0  0  0  0  0  0  0  0  0  0
   -8.8980   19.4120  -31.9300 C   0  0  0  0  0  0  0  0  0  0  0  0
   -8.3530   18.0920  -32.5210 C   0  0  0  0  0  0  0  0  0  0  0  0
   -6.9840   17.7370  -31.9380 C   0  0  0  0  0  0  0  0  0  0  0  0
   -5.9730   18.8720  -32.1750 C   0  0  0  0  0  0  0  0  0  0  0  0
   -6.6270   20.2650  -32.1130 C   0  0  0  0  0  0  0  0  0  0  0  0
   -7.0140   24.1040  -31.6780 C   0  0  0  0  0  0  0  0  0  0  0  0
   -5.9370   24.9860  -31.5720 C   0  0  0  0  0  0  0  0  0  0  0  0
   -4.8990   24.7280  -30.6700 C   0  0  0  0  0  0  0  0  0  0  0  0
   -3.8670   25.6520  -30.5500 O   0  0  0  0  0  0  0  0  0  0  0  0
   -2.3750   24.5280  -29.8340 H   0  0  0  0  0  0  0  0  0  0  0  0
   -1.8962   21.3245  -28.3028 H   0  0  0  0  0  0  0  0  0  0  0  0
    0.0409   20.6637  -26.8779 H   0  0  0  0  0  0  0  0  0  0  0  0
    1.6294   22.3948  -26.0430 H   0  0  0  0  0  0  0  0  0  0  0  0
   -0.7975   25.2266  -24.9600 H   0  0  0  0  0  0  0  0  0  0  0  0
    0.5469   25.2172  -23.7635 H   0  0  0  0  0  0  0  0  0  0  0  0
   -1.8628   26.7312  -23.6398 H   0  0  0  0  0  0  0  0  0  0  0  0
   -0.3954   26.8806  -22.5789 H   0  0  0  0  0  0  0  0  0  0  0  0
   -1.9085   27.9740  -25.6153 H   0  0  0  0  0  0  0  0  0  0  0  0
   -0.7242   29.3249  -25.8276 H   0  0  0  0  0  0  0  0  0  0  0  0
   -0.5624   26.7561  -26.9810 H   0  0  0  0  0  0  0  0  0  0  0  0
    0.7518   27.9900  -26.8859 H   0  0  0  0  0  0  0  0  0  0  0  0
   -0.6680   25.4687  -28.0457 H   0  0  0  0  0  0  0  0  0  0  0  0
   -6.0740   21.7986  -29.3390 H   0  0  0  0  0  0  0  0  0  0  0  0
   -9.6657   19.1717  -31.1797 H   0  0  0  0  0  0  0  0  0  0  0  0
   -9.3129   20.0025  -32.7601 H   0  0  0  0  0  0  0  0  0  0  0  0
   -9.0595   17.2803  -32.2930 H   0  0  0  0  0  0  0  0  0  0  0  0
   -8.2411   18.2218  -33.6076 H   0  0  0  0  0  0  0  0  0  0  0  0
   -7.0868   17.5669  -30.8561 H   0  0  0  0  0  0  0  0  0  0  0  0
   -6.6151   16.8290  -32.4374 H   0  0  0  0  0  0  0  0  0  0  0  0
   -5.1907   18.8147  -31.4038 H   0  0  0  0  0  0  0  0  0  0  0  0
   -5.5552   18.7429  -33.1843 H   0  0  0  0  0  0  0  0  0  0  0  0
   -5.9147   20.9806  -31.6764 H   0  0  0  0  0  0  0  0  0  0  0  0
   -6.8996   20.5766  -33.1321 H   0  0  0  0  0  0  0  0  0  0  0  0
   -7.8200   24.3074  -32.3984 H   0  0  0  0  0  0  0  0  0  0  0  0
   -5.9043   25.8881  -32.2006 H   0  0  0  0  0  0  0  0  0  0  0  0
  1  2  2  0
  2  3  1  0
  3  4  1  0
  4  5  2  0
  5  6  1  0
  6  7  2  0
  7  8  1  0
  8  9  1  0
  9 10  2  0
  9 11  2  0
  9 12  1  0
 12 13  1  0
 13 14  1  0
 14 15  1  0
 15 16  1  0
 16 17  1  0
  8 18  2  0
  2 19  1  0
 19 20  2  0
 20 21  1  0
 21 22  1  0
 22 23  2  0
 22 24  2  0
 22 25  1  0
 25 26  1  0
 26 27  1  0
 27 28  1  0
 28 29  1  0
 29 30  1  0
 21 31  2  0
 31 32  1  0
 32 33  2  0
 33 34  1  0
 18  4  1  0
 33 19  1  0
 17 12  1  0
 30 25  1  0
  3 35  1  0
  5 36  1  0
  6 37  1  0
  7 38  1  0
 13 39  1  0
 13 40  1  0
 14 41  1  0
 14 42  1  0
 16 43  1  0
 16 44  1  0
 17 45  1  0
 17 46  1  0
 18 47  1  0
 20 48  1  0
 26 49  1  0
 26 50  1  0
 27 51  1  0
 27 52  1  0
 28 53  1  0
 28 54  1  0
 29 55  1  0
 29 56  1  0
 30 57  1  0
 30 58  1  0
 31 59  1  0
 32 60  1  0
M  CHG  1  34  -1
M  END
>  <UniqueID>  (8) 
8

>  <SMILES>  (8) 
O=C(Nc1cccc(S(=O)(=O)N2CCOCC2)c1)c1cc(S(=O)(=O)N2CCCCC2)ccc1[O-]

>  <Energy>  (8) 
80.41072641841308

>  <Genealogy>  (8) 
O=C(Nc1cccc(S(=O)(=O)N2CCOCC2)c1)c1cc(S(=O)(=O)N2CCCCC2)ccc1[O-] (protonated)
O=C(Nc1cccc(S(=O)(=O)N2CCOCC2)c1)c1cc(S(=O)(=O)N2CCCCC2)ccc1[O-] (3D coordinates assigned)
O=C(Nc1cccc(S(=O)(=O)N2CCOCC2)c1)c1cc(S(=O)(=O)N2CCCCC2)ccc1[O-] (nonaromatic ring conformer: 80.41072641841308 kcal/mol)

>  <smiles>  (8) 
O=C(Nc1cccc(S(=O)(=O)N2CCOCC2)c1)c1cc(S(=O)(=O)N2CCCCC2)ccc1O

>  <score_type>  (8) 
oracle

>  <origin>  (8) 
adgpu

>  <m_score__min__energy>  (8) 
-14.26

>  <m_primary>  (8) 
energy

$$$$
8:0
     RDKit          3D

 49 51  0  0  0  0  0  0  0  0999 V2000
   -8.5937   17.7038  -31.3202 H   0  0  0  0  0  0  0  0  0  0  0  0
   -7.8900   18.4730  -31.6710 C   0  0  0  0  0  0  0  0  0  0  0  0
   -6.5130   18.2500  -31.5890 C   0  0  0  0  0  0  0  0  0  0  0  0
   -6.1335   17.3060  -31.1709 H   0  0  0  0  0  0  0  0  0  0  0  0
   -5.6160   19.2260  -32.0380 C   0  0  0  0  0  0  0  0  0  0  0  0
   -4.5327   19.0493  -31.9656 H   0  0  0  0  0  0  0  0  0  0  0  0
   -6.0940   20.4310  -32.5810 C   0  0  0  0  0  0  0  0  0  0  0  0
   -5.1330   21.4870  -33.0620 C   0  0  0  0  0  0  0  0  0  0  0  0
   -5.5406   21.9563  -33.9696 H   0  0  0  0  0  0  0  0  0  0  0  0
   -4.1661   21.0072  -33.2739 H   0  0  0  0  0  0  0  0  0  0  0  0
   -4.9180   22.5540  -32.0080 C   0  0  0  0  0  0  0  0  0  0  0  0
   -5.8570   23.5920  -31.7870 C   0  0  0  0  0  0  0  0  0  0  0  0
   -7.1250   23.7030  -32.6020 C   0  0  0  0  0  0  0  0  0  0  0  0
   -7.9897   23.7787  -31.9263 H   0  0  0  0  0  0  0  0  0  0  0  0
   -7.0757   24.6003  -33.2364 H   0  0  0  0  0  0  0  0  0  0  0  0
   -7.2324   22.8108  -33.2364 H   0  0  0  0  0  0  0  0  0  0  0  0
   -5.5910   24.5030  -30.7480 C   0  0  0  0  0  0  0  0  0  0  0  0
   -6.3910   25.4410  -30.4870 O   0  0  0  0  0  0  0  0  0  0  0  0
   -4.4620   24.3800  -30.0090 N   0  0  0  0  0  0  0  0  0  0  0  0
   -3.5630   23.3900  -30.2400 C   0  0  0  0  0  0  0  0  0  0  0  0
   -2.4950   23.2660  -29.5040 N   0  0  0  0  0  0  0  0  0  0  0  0
   -2.0590   24.1520  -28.4580 C   0  0  0  0  0  0  0  0  0  0  0  0
   -0.8920   24.9010  -28.6550 C   0  0  0  0  0  0  0  0  0  0  0  0
   -0.3184   24.7837  -29.5862 H   0  0  0  0  0  0  0  0  0  0  0  0
   -0.4510   25.7970  -27.6760 C   0  0  0  0  0  0  0  0  0  0  0  0
    0.4739   26.3709  -27.8348 H   0  0  0  0  0  0  0  0  0  0  0  0
   -1.1830   25.9660  -26.4940 C   0  0  0  0  0  0  0  0  0  0  0  0
   -0.6330   27.1110  -25.2740 S   0  0  0  0  0  0  0  0  0  0  0  0
   -1.6080   27.1110  -24.1290 O   0  0  0  0  0  0  0  0  0  0  0  0
   -0.5650   28.4880  -25.8740 O   0  0  0  0  0  0  0  0  0  0  0  0
    0.9400   26.6290  -24.7190 N   0  0  0  0  0  0  0  0  0  0  0  0
    1.5410   26.1240  -25.4080 H   0  0  0  0  0  0  0  0  0  0  0  0
    1.4030   26.8530  -23.5180 C   0  0  0  0  0  0  0  0  0  0  0  0
    0.6310   27.5440  -22.5260 N   0  0  0  0  0  0  0  0  0  0  0  0
   -0.3200   27.9270  -22.7090 H   0  0  0  0  0  0  0  0  0  0  0  0
    1.0310   27.6940  -21.5730 H   0  0  0  0  0  0  0  0  0  0  0  0
    2.7140   26.3980  -23.1750 N   0  0  0  0  0  0  0  0  0  0  0  0
    3.0980   26.5620  -22.2180 H   0  0  0  0  0  0  0  0  0  0  0  0
    3.3100   25.8950  -23.8700 H   0  0  0  0  0  0  0  0  0  0  0  0
   -2.3740   25.2500  -26.3100 C   0  0  0  0  0  0  0  0  0  0  0  0
   -2.9637   25.3934  -25.3925 H   0  0  0  0  0  0  0  0  0  0  0  0
   -2.8150   24.3540  -27.2890 C   0  0  0  0  0  0  0  0  0  0  0  0
   -3.7571   23.8048  -27.1443 H   0  0  0  0  0  0  0  0  0  0  0  0
   -3.8030   22.4820  -31.2230 N   0  0  0  0  0  0  0  0  0  0  0  0
   -3.1140   21.7090  -31.3760 H   0  0  0  0  0  0  0  0  0  0  0  0
   -7.4810   20.6510  -32.6490 C   0  0  0  0  0  0  0  0  0  0  0  0
   -7.8658   21.5967  -33.0584 H   0  0  0  0  0  0  0  0  0  0  0  0
   -8.3730   19.6740  -32.1990 C   0  0  0  0  0  0  0  0  0  0  0  0
   -9.4571   19.8502  -32.2603 H   0  0  0  0  0  0  0  0  0  0  0  0
  1  2  1  0
  2  3  2  0
  3  4  1  0
  3  5  1  0
  5  6  1  0
  5  7  2  0
  7  8  1  0
  8  9  1  0
  8 10  1  0
  8 11  1  0
 11 12  2  0
 12 13  1  0
 13 14  1  0
 13 15  1  0
 13 16  1  0
 12 17  1  0
 17 18  2  0
 17 19  1  0
 19 20  1  0
 20 21  2  0
 21 22  1  0
 22 23  2  0
 23 24  1  0
 23 25  1  0
 25 26  1  0
 25 27  2  0
 27 28  1  0
 28 29  2  0
 28 30  2  0
 28 31  1  0
 31 32  1  0
 31 33  2  3
 33 34  1  0
 34 35  1  0
 34 36  1  0
 33 37  1  0
 37 38  1  0
 37 39  1  0
 27 40  1  0
 40 41  1  0
 40 42  2  0
 42 43  1  0
 20 44  1  0
 44 45  1  0
  7 46  1  0
 46 47  1  0
 46 48  2  0
 48 49  1  0
 48  2  1  0
 44 11  1  0
 42 22  1  0
M  CHG  2  19  -1  31   1
M  END
>  <UniqueID>  (9) 
9

>  <SMILES>  (9) 
Cc1c(Cc2ccccc2)[nH]/c(=N/c2ccc(S(=O)(=O)[NH+]=C(N)N)cc2)[n-]c1=O

>  <Energy>  (9) 
61.61413009712394

>  <Genealogy>  (9) 
Cc1c(Cc2ccccc2)[nH]c(=Nc2ccc(S(=O)(=O)[NH+]=C(N)N)cc2)[n-]c1=O (protonated)
Cc1c(Cc2ccccc2)[nH]/c(=N/c2ccc(S(=O)(=O)[NH+]=C(N)N)cc2)[n-]c1=O (cis-trans isomerization)
Cc1c(Cc2ccccc2)[nH]/c(=N/c2ccc(S(=O)(=O)[NH+]=C(N)N)cc2)[n-]c1=O (3D coordinates assigned)
Cc1c(Cc2ccccc2)[nH]/c(=N/c2ccc(S(=O)(=O)[NH+]=C(N)N)cc2)[n-]c1=O (optimized conformer: 61.61413009712394 kcal/mol)

>  <smiles>  (9) 
Cc1c(Cc2ccccc2)[nH]c(=Nc2ccc(S(=O)(=O)N=C(N)N)cc2)[nH]c1=O

>  <score_type>  (9) 
oracle

>  <origin>  (9) 
adgpu

>  <m_score__min__energy>  (9) 
-10.69

>  <m_primary>  (9) 
energy

$$$$
9:0
     RDKit          3D

 50 52  0  0  0  0  0  0  0  0999 V2000
    2.1040   26.3310  -24.2510 C   0  0  0  0  0  0  0  0  0  0  0  0
    1.0470   26.9040  -23.4040 N   0  0  0  0  0  0  0  0  0  0  0  0
    1.4240   28.2490  -22.9470 C   0  0  0  0  0  0  0  0  0  0  0  0
   -0.4560   26.9780  -24.2890 S   0  0  0  0  0  0  0  0  0  0  0  0
   -0.4780   28.1990  -25.1700 O   0  0  0  0  0  0  0  0  0  0  0  0
   -1.6090   27.0640  -23.3270 O   0  0  0  0  0  0  0  0  0  0  0  0
   -0.6490   25.5290  -25.2730 C   0  0  0  0  0  0  0  0  0  0  0  0
   -0.4950   24.2670  -24.6900 C   0  0  0  0  0  0  0  0  0  0  0  0
   -0.6290   23.1140  -25.4650 C   0  0  0  0  0  0  0  0  0  0  0  0
   -0.9120   23.2140  -26.8300 C   0  0  0  0  0  0  0  0  0  0  0  0
   -1.0630   24.4760  -27.4360 C   0  0  0  0  0  0  0  0  0  0  0  0
   -1.3520   24.5860  -28.8860 C   0  0  0  0  0  0  0  0  0  0  0  0
   -0.5060   24.1750  -29.7270 O   0  0  0  0  0  0  0  0  0  0  0  0
   -2.5680   25.2030  -29.3310 N   0  0  0  0  0  0  0  0  0  0  0  0
   -3.7370   24.5310  -29.8250 C   0  0  0  0  0  0  0  0  0  0  0  0
   -4.8070   25.3040  -30.2910 C   0  0  0  0  0  0  0  0  0  0  0  0
   -5.9740   24.6920  -30.7590 C   0  0  0  0  0  0  0  0  0  0  0  0
   -6.0890   23.2970  -30.7480 C   0  0  0  0  0  0  0  0  0  0  0  0
   -7.5520   22.5350  -31.3600 S   0  0  0  0  0  0  0  0  0  0  0  0
   -8.5200   22.2810  -30.2370 O   0  0  0  0  0  0  0  0  0  0  0  0
   -8.2160   23.4470  -32.3530 O   0  0  0  0  0  0  0  0  0  0  0  0
   -7.1250   21.0090  -32.1240 C   0  0  0  0  0  0  0  0  0  0  0  0
   -5.9750   20.9210  -32.9210 C   0  0  0  0  0  0  0  0  0  0  0  0
   -5.6440   19.7140  -33.5470 C   0  0  0  0  0  0  0  0  0  0  0  0
   -6.4630   18.5930  -33.3830 C   0  0  0  0  0  0  0  0  0  0  0  0
   -7.6150   18.6770  -32.5950 C   0  0  0  0  0  0  0  0  0  0  0  0
   -7.9480   19.8830  -31.9680 C   0  0  0  0  0  0  0  0  0  0  0  0
   -5.0280   22.5180  -30.2660 C   0  0  0  0  0  0  0  0  0  0  0  0
   -3.8610   23.1310  -29.7960 C   0  0  0  0  0  0  0  0  0  0  0  0
   -0.9270   25.6310  -26.6440 C   0  0  0  0  0  0  0  0  0  0  0  0
    2.8926   25.9035  -23.6143 H   0  0  0  0  0  0  0  0  0  0  0  0
    1.6769   25.5409  -24.8861 H   0  0  0  0  0  0  0  0  0  0  0  0
    2.5330   27.1201  -24.8861 H   0  0  0  0  0  0  0  0  0  0  0  0
    0.9090   26.2880  -22.5690 H   0  0  0  0  0  0  0  0  0  0  0  0
    1.4310   28.2740  -21.8473 H   0  0  0  0  0  0  0  0  0  0  0  0
    2.4264   28.4974  -23.3258 H   0  0  0  0  0  0  0  0  0  0  0  0
    0.6968   28.9822  -23.3258 H   0  0  0  0  0  0  0  0  0  0  0  0
   -0.2675   24.1829  -23.6171 H   0  0  0  0  0  0  0  0  0  0  0  0
   -0.5116   22.1239  -25.0002 H   0  0  0  0  0  0  0  0  0  0  0  0
   -1.0174   22.3012  -27.4347 H   0  0  0  0  0  0  0  0  0  0  0  0
   -4.7292   26.4012  -30.2890 H   0  0  0  0  0  0  0  0  0  0  0  0
   -6.8034   25.3081  -31.1366 H   0  0  0  0  0  0  0  0  0  0  0  0
   -5.3313   21.8029  -33.0546 H   0  0  0  0  0  0  0  0  0  0  0  0
   -4.7388   19.6473  -34.1685 H   0  0  0  0  0  0  0  0  0  0  0  0
   -6.2010   17.6443  -33.8742 H   0  0  0  0  0  0  0  0  0  0  0  0
   -8.2597   17.7949  -32.4679 H   0  0  0  0  0  0  0  0  0  0  0  0
   -8.8567   19.9485  -31.3516 H   0  0  0  0  0  0  0  0  0  0  0  0
   -5.1129   21.4213  -30.2572 H   0  0  0  0  0  0  0  0  0  0  0  0
   -3.0384   22.5156  -29.4028 H   0  0  0  0  0  0  0  0  0  0  0  0
   -1.0398   26.6236  -27.1045 H   0  0  0  0  0  0  0  0  0  0  0  0
  1  2  1  0
  2  3  1  0
  2  4  1  0
  4  5  2  0
  4  6  2  0
  4  7  1  0
  7  8  2  0
  8  9  1  0
  9 10  2  0
 10 11  1  0
 11 12  1  0
 12 13  2  0
 12 14  1  0
 14 15  1  0
 15 16  2  0
 16 17  1  0
 17 18  2  0
 18 19  1  0
 19 20  2  0
 19 21  2  0
 19 22  1  0
 22 23  2  0
 23 24  1  0
 24 25  2  0
 25 26  1  0
 26 27  2  0
 18 28  1  0
 28 29  2  0
 11 30  2  0
 30  7  1  0
 29 15  1  0
 27 22  1  0
  1 31  1  0
  1 32  1  0
  1 33  1  0
  2 34  1  0
  3 35  1  0
  3 36  1  0
  3 37  1  0
  8 38  1  0
  9 39  1  0
 10 40  1  0
 16 41  1  0
 17 42  1  0
 23 43  1  0
 24 44  1  0
 25 45  1  0
 26 46  1  0
 27 47  1  0
 28 48  1  0
 29 49  1  0
 30 50  1  0
M  CHG  2   2   1  14  -1
M  END
>  <UniqueID>  (10) 
10

>  <SMILES>  (10) 
C[NH+](C)S(=O)(=O)c1cccc(C(=O)[N-]c2ccc(S(=O)(=O)c3ccccc3)cc2)c1

>  <Energy>  (10) 
56.0372788424721

>  <Genealogy>  (10) 
C[NH+](C)S(=O)(=O)c1cccc(C(=O)[N-]c2ccc(S(=O)(=O)c3ccccc3)cc2)c1 (protonated)
C[NH+](C)S(=O)(=O)c1cccc(C(=O)[N-]c2ccc(S(=O)(=O)c3ccccc3)cc2)c1 (3D coordinates assigned)
C[NH+](C)S(=O)(=O)c1cccc(C(=O)[N-]c2ccc(S(=O)(=O)c3ccccc3)cc2)c1 (optimized conformer: 56.0372788424721 kcal/mol)

>  <smiles>  (10) 
CN(C)S(=O)(=O)c1cccc(C(=O)Nc2ccc(S(=O)(=O)c3ccccc3)cc2)c1

>  <score_type>  (10) 
oracle

>  <origin>  (10) 
adgpu

>  <m_score__min__energy>  (10) 
-12.6

>  <m_primary>  (10) 
energy

$$$$
10:0
     RDKit          3D

 62 65  0  0  1  0  0  0  0  0999 V2000
   -5.8210   25.5730  -30.1510 C   0  0  0  0  0  0  0  0  0  0  0  0
   -5.2500   24.8150  -31.1760 O   0  0  0  0  0  0  0  0  0  0  0  0
   -5.0730   23.4480  -31.1720 C   0  0  0  0  0  0  0  0  0  0  0  0
   -6.1410   22.6270  -31.4650 C   0  0  0  0  0  0  0  0  0  0  0  0
   -6.0250   21.2350  -31.4760 C   0  0  0  0  0  0  0  0  0  0  0  0
   -7.1300   20.4000  -31.7800 N   0  0  0  0  0  0  0  0  0  0  0  0
   -7.1180   18.9600  -31.6110 C   0  0  0  0  0  0  0  0  0  0  0  0
   -8.0000   18.4280  -32.7440 C   0  0  0  0  0  0  0  0  0  0  0  0
   -9.3060   18.8080  -32.5790 O   0  0  0  0  0  0  0  0  0  0  0  0
   -9.5200   20.0880  -32.1450 C   0  0  0  0  0  0  0  0  0  0  0  0
   -8.3400   21.0190  -32.2880 C   0  0  0  0  0  0  0  0  0  0  0  0
   -4.7770   20.7300  -31.1750 C   0  0  0  0  0  0  0  0  0  0  0  0
   -3.6920   21.5470  -30.8770 C   0  0  0  0  0  0  0  0  0  0  0  0
   -3.8340   22.9190  -30.8730 C   0  0  0  0  0  0  0  0  0  0  0  0
   -2.7520   23.7940  -30.5740 N   0  0  0  0  0  0  0  0  0  0  0  0
   -2.6580   24.2210  -29.3590 C   0  0  0  0  0  0  0  0  0  0  0  0
   -3.5210   23.8820  -28.3850 N   0  0  0  0  0  0  0  0  0  0  0  0
   -3.2870   24.4160  -27.1560 C   0  0  0  0  0  0  0  0  0  0  0  0
   -2.2510   25.2480  -26.8830 C   0  0  0  0  0  0  0  0  0  0  0  0
   -2.0150   25.8930  -25.2830 Cl  0  0  0  0  0  0  0  0  0  0  0  0
   -1.3840   25.5780  -27.8980 C   0  0  0  0  0  0  0  0  0  0  0  0
   -0.4020   26.3480  -27.7090 N   0  0  0  0  0  0  0  0  0  0  0  0
   -0.0340   26.9750  -26.4970 C   0  0  0  0  0  0  0  0  0  0  0  0
   -0.5200   28.2660  -26.2440 C   0  0  0  0  0  0  0  0  0  0  0  0
   -0.1830   28.9270  -25.0900 C   0  0  0  0  0  0  0  0  0  0  0  0
    0.6370   28.2880  -24.2010 C   0  0  0  0  0  0  0  0  0  0  0  0
    1.1150   27.0220  -24.4500 C   0  0  0  0  0  0  0  0  0  0  0  0
    0.7910   26.3190  -25.6170 C   0  0  0  0  0  0  0  0  0  0  0  0
    1.4530   24.7420  -25.8460 S   0  0  0  0  0  0  0  0  0  0  0  0
    2.1560   24.6670  -27.1930 O   0  0  0  0  0  0  0  0  0  0  0  0
    2.5330   24.4740  -24.8230 O   0  0  0  0  0  0  0  0  0  0  0  0
    0.3330   23.4640  -25.8050 N   0  0  0  0  0  0  0  0  0  0  0  0
    0.1120   23.0080  -24.4680 C   0  0  0  0  0  0  0  0  0  0  0  0
    0.4930   22.4100  -26.7310 C   0  0  0  0  0  0  0  0  0  0  0  0
   -1.6070   25.0560  -29.1170 N   0  0  0  0  0  0  0  0  0  0  0  0
   -5.5130   25.1641  -29.1774 H   0  0  0  0  0  0  0  0  0  0  0  0
   -5.4824   26.6163  -30.2342 H   0  0  0  0  0  0  0  0  0  0  0  0
   -6.9172   25.5355  -30.2342 H   0  0  0  0  0  0  0  0  0  0  0  0
   -7.1150   23.0823  -31.6974 H   0  0  0  0  0  0  0  0  0  0  0  0
   -6.0942   18.5676  -31.6996 H   0  0  0  0  0  0  0  0  0  0  0  0
   -7.4844   18.6543  -30.6199 H   0  0  0  0  0  0  0  0  0  0  0  0
   -7.6302   18.8232  -33.7016 H   0  0  0  0  0  0  0  0  0  0  0  0
   -7.9543   17.3290  -32.7326 H   0  0  0  0  0  0  0  0  0  0  0  0
  -10.3571   20.5079  -32.7220 H   0  0  0  0  0  0  0  0  0  0  0  0
   -9.7238   20.0155  -31.0665 H   0  0  0  0  0  0  0  0  0  0  0  0
   -8.2007   21.2637  -33.3513 H   0  0  0  0  0  0  0  0  0  0  0  0
   -8.5391   21.9319  -31.7075 H   0  0  0  0  0  0  0  0  0  0  0  0
   -4.6348   19.6392  -31.1706 H   0  0  0  0  0  0  0  0  0  0  0  0
   -2.7158   21.0970  -30.6433 H   0  0  0  0  0  0  0  0  0  0  0  0
   -4.3100   23.2490  -28.5890 H   0  0  0  0  0  0  0  0  0  0  0  0
   -3.9762   24.1589  -26.3381 H   0  0  0  0  0  0  0  0  0  0  0  0
   -1.1781   28.7536  -26.9783 H   0  0  0  0  0  0  0  0  0  0  0  0
   -0.5606   29.9398  -24.8859 H   0  0  0  0  0  0  0  0  0  0  0  0
    0.9201   28.7968  -23.2677 H   0  0  0  0  0  0  0  0  0  0  0  0
    1.7733   26.5465  -23.7080 H   0  0  0  0  0  0  0  0  0  0  0  0
    0.4783   23.7637  -23.7576 H   0  0  0  0  0  0  0  0  0  0  0  0
   -0.9644   22.8464  -24.3089 H   0  0  0  0  0  0  0  0  0  0  0  0
    0.6521   22.0630  -24.3089 H   0  0  0  0  0  0  0  0  0  0  0  0
    0.6366   21.4639  -26.1885 H   0  0  0  0  0  0  0  0  0  0  0  0
   -0.4045   22.3377  -27.3629 H   0  0  0  0  0  0  0  0  0  0  0  0
    1.3715   22.6073  -27.3629 H   0  0  0  0  0  0  0  0  0  0  0  0
   -0.9310   25.3190  -29.8900 H   0  0  0  0  0  0  0  0  0  0  0  0
  1  2  1  0
  2  3  1  0
  3  4  2  0
  4  5  1  0
  5  6  1  0
  6  7  1  0
  7  8  1  0
  8  9  1  0
  9 10  1  0
 10 11  1  0
  5 12  2  0
 12 13  1  0
 13 14  2  0
 14 15  1  0
 15 16  2  0
 16 17  1  0
 17 18  1  0
 18 19  2  0
 19 20  1  0
 19 21  1  0
 21 22  2  0
 22 23  1  0
 23 24  2  0
 24 25  1  0
 25 26  2  0
 26 27  1  0
 27 28  2  0
 28 29  1  0
 29 30  2  0
 29 31  2  0
 29 32  1  0
 32 33  1  0
 32 34  1  0
 21 35  1  0
 14  3  1  0
 35 16  1  0
 11  6  1  0
 28 23  1  0
  1 36  1  0
  1 37  1  0
  1 38  1  0
  4 39  1  0
  7 40  1  0
  7 41  1  0
  8 42  1  0
  8 43  1  0
 10 44  1  0
 10 45  1  0
 11 46  1  0
 11 47  1  0
 12 48  1  0
 13 49  1  0
 17 50  1  0
 18 51  1  0
 24 52  1  0
 25 53  1  0
 26 54  1  0
 27 55  1  0
 33 56  1  0
 33 57  1  0
 33 58  1  0
 34 59  1  0
 34 60  1  0
 34 61  1  0
 35 62  1  0
M  END
>  <smiles>  (11) 
COc1cc(N2CCOCC2)ccc1N=c1[nH]cc(Cl)c(=Nc2ccccc2S(=O)(=O)N(C)C)[nH]1

>  <score_type>  (11) 
oracle

>  <origin>  (11) 
adgpu

>  <m_score__min__energy>  (11) 
-10.23

>  <m_primary>  (11) 
energy

$$$$
11:0
     RDKit          3D

 53 57  0  0  0  0  0  0  0  0999 V2000
   -7.7085   23.4221  -31.3737 H   0  0  0  0  0  0  0  0  0  0  0  0
   -6.6480   23.3050  -31.1060 C   0  0  0  0  0  0  0  0  0  0  0  0
   -6.1660   24.0900  -30.1290 C   0  0  0  0  0  0  0  0  0  0  0  0
   -6.8169   24.8953  -29.7576 H   0  0  0  0  0  0  0  0  0  0  0  0
   -4.8290   23.9560  -29.5140 C   0  0  0  0  0  0  0  0  0  0  0  0
   -4.5220   22.7990  -28.7820 C   0  0  0  0  0  0  0  0  0  0  0  0
   -5.2815   22.0138  -28.6536 H   0  0  0  0  0  0  0  0  0  0  0  0
   -3.2530   22.6410  -28.2150 C   0  0  0  0  0  0  0  0  0  0  0  0
   -3.0232   21.7407  -27.6262 H   0  0  0  0  0  0  0  0  0  0  0  0
   -2.2760   23.6250  -28.3950 C   0  0  0  0  0  0  0  0  0  0  0  0
   -1.0190   23.4640  -27.8240 O   0  0  0  0  0  0  0  0  0  0  0  0
   -2.5650   24.7660  -29.1520 C   0  0  0  0  0  0  0  0  0  0  0  0
   -1.5940   25.7420  -29.3440 O   0  0  0  0  0  0  0  0  0  0  0  0
   -3.8330   24.9270  -29.7200 C   0  0  0  0  0  0  0  0  0  0  0  0
   -4.0518   25.8160  -30.3298 H   0  0  0  0  0  0  0  0  0  0  0  0
   -5.8660   22.2970  -31.8490 C   0  0  0  0  0  0  0  0  0  0  0  0
   -6.2040   21.0000  -31.9800 N   0  0  0  0  0  0  0  0  0  0  0  0
   -5.2500   20.4010  -32.6760 N   0  0  0  0  0  0  0  0  0  0  0  0
   -5.2940   19.0020  -33.0020 C   0  0  0  0  0  0  0  0  0  0  0  0
   -5.6620   18.0470  -32.0380 C   0  0  0  0  0  0  0  0  0  0  0  0
   -5.8998   18.3671  -31.0128 H   0  0  0  0  0  0  0  0  0  0  0  0
   -5.7270   16.6920  -32.3770 C   0  0  0  0  0  0  0  0  0  0  0  0
   -6.0043   15.9479  -31.6158 H   0  0  0  0  0  0  0  0  0  0  0  0
   -5.4400   16.2820  -33.6820 C   0  0  0  0  0  0  0  0  0  0  0  0
   -5.4841   15.2150  -33.9456 H   0  0  0  0  0  0  0  0  0  0  0  0
   -5.0970   17.2280  -34.6520 C   0  0  0  0  0  0  0  0  0  0  0  0
   -4.8795   16.9056  -35.6810 H   0  0  0  0  0  0  0  0  0  0  0  0
   -5.0300   18.5840  -34.3160 C   0  0  0  0  0  0  0  0  0  0  0  0
   -4.7693   19.3263  -35.0848 H   0  0  0  0  0  0  0  0  0  0  0  0
   -4.2900   21.3020  -32.9930 C   0  0  0  0  0  0  0  0  0  0  0  0
   -3.1260   21.0310  -33.8660 C   0  0  0  0  0  0  0  0  0  0  0  0
   -3.3000   20.8619  -34.9389 H   0  0  0  0  0  0  0  0  0  0  0  0
   -1.8690   20.9830  -33.4040 C   0  0  0  0  0  0  0  0  0  0  0  0
   -1.6961   21.1301  -32.3277 H   0  0  0  0  0  0  0  0  0  0  0  0
   -0.7040   20.7400  -34.2840 C   0  0  0  0  0  0  0  0  0  0  0  0
   -0.1640   21.8280  -34.9790 C   0  0  0  0  0  0  0  0  0  0  0  0
   -0.6100   22.8255  -34.8525 H   0  0  0  0  0  0  0  0  0  0  0  0
    0.9310   21.6690  -35.8300 C   0  0  0  0  0  0  0  0  0  0  0  0
    1.4110   22.7880  -36.5020 O   0  0  0  0  0  0  0  0  0  0  0  0
    1.5260   20.3980  -35.9950 C   0  0  0  0  0  0  0  0  0  0  0  0
    2.6330   20.1940  -36.8540 C   0  0  0  0  0  0  0  0  0  0  0  0
    3.1860   21.2380  -37.5890 O   0  0  0  0  0  0  0  0  0  0  0  0
    3.1990   18.9220  -36.9800 C   0  0  0  0  0  0  0  0  0  0  0  0
    4.0585   18.7712  -37.6498 H   0  0  0  0  0  0  0  0  0  0  0  0
    2.6840   17.8450  -36.2650 C   0  0  0  0  0  0  0  0  0  0  0  0
    3.1384   16.8489  -36.3715 H   0  0  0  0  0  0  0  0  0  0  0  0
    1.5940   18.0240  -35.4140 C   0  0  0  0  0  0  0  0  0  0  0  0
    1.1942   17.1676  -34.8512 H   0  0  0  0  0  0  0  0  0  0  0  0
    1.0020   19.2920  -35.2700 C   0  0  0  0  0  0  0  0  0  0  0  0
   -0.1000   19.4720  -34.4080 C   0  0  0  0  0  0  0  0  0  0  0  0
   -0.5710   18.3990  -33.6530 O   0  0  0  0  0  0  0  0  0  0  0  0
   -4.6510   22.5290  -32.4610 C   0  0  0  0  0  0  0  0  0  0  0  0
   -4.0940   23.4761  -32.5144 H   0  0  0  0  0  0  0  0  0  0  0  0
  1  2  1  0
  2  3  2  0
  3  4  1  0
  3  5  1  0
  5  6  2  0
  6  7  1  0
  6  8  1  0
  8  9  1  0
  8 10  2  0
 10 11  1  0
 10 12  1  0
 12 13  1  0
 12 14  2  0
 14 15  1  0
  2 16  1  0
 16 17  2  0
 17 18  1  0
 18 19  1  0
 19 20  2  0
 20 21  1  0
 20 22  1  0
 22 23  1  0
 22 24  2  0
 24 25  1  0
 24 26  1  0
 26 27  1  0
 26 28  2  0
 28 29  1  0
 18 30  1  0
 30 31  1  0
 31 32  1  0
 31 33  2  0
 33 34  1  0
 33 35  1  0
 35 36  2  0
 36 37  1  0
 36 38  1  0
 38 39  1  0
 38 40  2  0
 40 41  1  0
 41 42  1  0
 41 43  2  0
 43 44  1  0
 43 45  1  0
 45 46  1  0
 45 47  2  0
 47 48  1  0
 47 49  1  0
 49 50  2  0
 50 51  1  0
 30 52  2  0
 52 53  1  0
 14  5  1  0
 52 16  1  0
 28 19  1  0
 50 35  1  0
 49 40  1  0
M  CHG  5  11  -1  13  -1  39  -1  42  -1  51  -1
M  END
>  <UniqueID>  (12) 
11

>  <SMILES>  (12) 
[O-]c1ccc(/C=C\c2cc(/C=C/c3cc([O-])c4c([O-])cccc4c3[O-])n(-c3ccccc3)n2)cc1[O-]

>  <Energy>  (12) 
113.91388341718499

>  <Genealogy>  (12) 
[O-]c1ccc(C=Cc2cc(C=Cc3cc([O-])c4c([O-])cccc4c3[O-])n(-c3ccccc3)n2)cc1[O-] (protonated)
[O-]c1ccc(/C=C\c2cc(/C=C/c3cc([O-])c4c([O-])cccc4c3[O-])n(-c3ccccc3)n2)cc1[O-] (cis-trans isomerization)
[O-]c1ccc(/C=C\c2cc(/C=C/c3cc([O-])c4c([O-])cccc4c3[O-])n(-c3ccccc3)n2)cc1[O-] (3D coordinates assigned)
[O-]c1ccc(/C=C\c2cc(/C=C/c3cc([O-])c4c([O-])cccc4c3[O-])n(-c3ccccc3)n2)cc1[O-] (optimized conformer: 113.91388341718499 kcal/mol)

>  <smiles>  (12) 
Oc1ccc(C=Cc2cc(C=Cc3cc(O)c4c(O)cccc4c3O)n(-c3ccccc3)n2)cc1O

>  <score_type>  (12) 
oracle

>  <origin>  (12) 
adgpu

>  <m_score__min__energy>  (12) 
-16.34

>  <m_primary>  (12) 
energy

$$$$
12:0
     RDKit          3D

 48 51  0  0  0  0  0  0  0  0999 V2000
   -5.8368   25.1773  -32.1521 H   0  0  0  0  0  0  0  0  0  0  0  0
   -5.4580   24.2910  -31.6220 C   0  0  0  0  0  0  0  0  0  0  0  0
   -6.0150   23.0340  -31.8770 C   0  0  0  0  0  0  0  0  0  0  0  0
   -6.8188   22.9306  -32.6207 H   0  0  0  0  0  0  0  0  0  0  0  0
   -5.5520   21.9070  -31.1880 C   0  0  0  0  0  0  0  0  0  0  0  0
   -6.1080   20.6180  -31.4840 N   0  0  0  0  0  0  0  0  0  0  0  0
   -5.5790   19.6370  -32.1680 C   0  0  0  0  0  0  0  0  0  0  0  0
   -6.3640   18.5540  -32.4210 N   0  0  0  0  0  0  0  0  0  0  0  0
   -5.9200   17.4840  -33.1280 C   0  0  0  0  0  0  0  0  0  0  0  0
   -6.7660   16.3990  -33.3750 C   0  0  0  0  0  0  0  0  0  0  0  0
   -7.7989   16.4107  -32.9968 H   0  0  0  0  0  0  0  0  0  0  0  0
   -6.3000   15.2960  -34.1040 C   0  0  0  0  0  0  0  0  0  0  0  0
   -7.2190   14.1500  -34.4080 C   0  0  0  0  0  0  0  0  0  0  0  0
   -7.5751   13.7059  -33.4667 H   0  0  0  0  0  0  0  0  0  0  0  0
   -8.0786   14.5138  -34.9901 H   0  0  0  0  0  0  0  0  0  0  0  0
   -6.6772   13.3900  -34.9901 H   0  0  0  0  0  0  0  0  0  0  0  0
   -4.9880   15.2990  -34.6070 C   0  0  0  0  0  0  0  0  0  0  0  0
   -4.6307   14.4456  -35.2020 H   0  0  0  0  0  0  0  0  0  0  0  0
   -4.1280   16.3820  -34.3570 C   0  0  0  0  0  0  0  0  0  0  0  0
   -2.7240   16.3760  -34.8980 C   0  0  0  0  0  0  0  0  0  0  0  0
   -2.0090   16.3729  -34.0621 H   0  0  0  0  0  0  0  0  0  0  0  0
   -2.5721   15.4772  -35.5137 H   0  0  0  0  0  0  0  0  0  0  0  0
   -2.5645   17.2735  -35.5137 H   0  0  0  0  0  0  0  0  0  0  0  0
   -4.6030   17.4790  -33.6140 C   0  0  0  0  0  0  0  0  0  0  0  0
   -3.8020   18.5420  -33.3450 N   0  0  0  0  0  0  0  0  0  0  0  0
   -4.2360   19.6230  -32.6410 C   0  0  0  0  0  0  0  0  0  0  0  0
   -3.4050   20.5800  -32.3390 N   0  0  0  0  0  0  0  0  0  0  0  0
   -2.0390   20.7230  -32.7640 C   0  0  0  0  0  0  0  0  0  0  0  0
   -1.7680   20.7660  -34.1360 C   0  0  0  0  0  0  0  0  0  0  0  0
   -2.5972   20.7175  -34.8572 H   0  0  0  0  0  0  0  0  0  0  0  0
   -0.4540   20.8700  -34.5980 C   0  0  0  0  0  0  0  0  0  0  0  0
   -0.2558   20.9209  -35.6788 H   0  0  0  0  0  0  0  0  0  0  0  0
    0.6180   20.9100  -33.6860 C   0  0  0  0  0  0  0  0  0  0  0  0
    1.9550   21.0160  -34.0980 O   0  0  0  0  0  0  0  0  0  0  0  0
    2.8880   19.9410  -34.0830 C   0  0  0  0  0  0  0  0  0  0  0  0
    3.1212   19.6724  -33.0421 H   0  0  0  0  0  0  0  0  0  0  0  0
    2.4536   19.0713  -34.5977 H   0  0  0  0  0  0  0  0  0  0  0  0
    3.8102   20.2487  -34.5977 H   0  0  0  0  0  0  0  0  0  0  0  0
    0.3480   20.8320  -32.3140 C   0  0  0  0  0  0  0  0  0  0  0  0
    1.1784   20.8528  -31.5929 H   0  0  0  0  0  0  0  0  0  0  0  0
   -0.9670   20.7280  -31.8530 C   0  0  0  0  0  0  0  0  0  0  0  0
   -1.1647   20.6497  -30.7737 H   0  0  0  0  0  0  0  0  0  0  0  0
   -4.4870   22.0360  -30.2810 C   0  0  0  0  0  0  0  0  0  0  0  0
   -4.0892   21.1467  -29.7702 H   0  0  0  0  0  0  0  0  0  0  0  0
   -3.9320   23.2950  -30.0270 C   0  0  0  0  0  0  0  0  0  0  0  0
   -3.1111   23.3976  -29.3020 H   0  0  0  0  0  0  0  0  0  0  0  0
   -4.4200   24.4230  -30.6940 C   0  0  0  0  0  0  0  0  0  0  0  0
   -3.8700   25.6730  -30.4390 O   0  0  0  0  0  0  0  0  0  0  0  0
  1  2  1  0
  2  3  2  0
  3  4  1  0
  3  5  1  0
  5  6  1  0
  6  7  2  0
  7  8  1  0
  8  9  1  0
  9 10  2  0
 10 11  1  0
 10 12  1  0
 12 13  1  0
 13 14  1  0
 13 15  1  0
 13 16  1  0
 12 17  2  0
 17 18  1  0
 17 19  1  0
 19 20  1  0
 20 21  1  0
 20 22  1  0
 20 23  1  0
 19 24  2  0
 24 25  1  0
 25 26  1  0
 26 27  2  0
 27 28  1  0
 28 29  2  0
 29 30  1  0
 29 31  1  0
 31 32  1  0
 31 33  2  0
 33 34  1  0
 34 35  1  0
 35 36  1  0
 35 37  1  0
 35 38  1  0
 33 39  1  0
 39 40  1  0
 39 41  2  0
 41 42  1  0
  5 43  2  0
 43 44  1  0
 43 45  1  0
 45 46  1  0
 45 47  2  0
 47 48  1  0
 47  2  1  0
 26  7  1  0
 41 28  1  0
 24  9  1  0
M  CHG  3   8  -1  25  -1  48  -1
M  END
>  <UniqueID>  (13) 
12

>  <SMILES>  (13) 
COc1ccc(/N=c2\[n-]c3c(C)cc(C)cc3[n-]\c2=N\c2ccc([O-])cc2)cc1

>  <Energy>  (13) 
73.82497287337465

>  <Genealogy>  (13) 
COc1ccc(N=c2[n-]c3c(C)cc(C)cc3[n-]c2=Nc2ccc([O-])cc2)cc1 (protonated)
COc1ccc(/N=c2\[n-]c3c(C)cc(C)cc3[n-]\c2=N\c2ccc([O-])cc2)cc1 (cis-trans isomerization)
COc1ccc(/N=c2\[n-]c3c(C)cc(C)cc3[n-]\c2=N\c2ccc([O-])cc2)cc1 (3D coordinates assigned)
COc1ccc(/N=c2\[n-]c3c(C)cc(C)cc3[n-]\c2=N\c2ccc([O-])cc2)cc1 (optimized conformer: 73.82497287337465 kcal/mol)

>  <smiles>  (13) 
COc1ccc(N=c2[nH]c3c(C)cc(C)cc3[nH]c2=Nc2ccc(O)cc2)cc1

>  <score_type>  (13) 
oracle

>  <origin>  (13) 
adgpu

>  <m_score__min__energy>  (13) 
-10.56

>  <m_primary>  (13) 
energy

$$$$
13:0
     RDKit          3D

 46 48  0  0  0  0  0  0  0  0999 V2000
   -5.6390   25.4100  -30.4400 C   0  0  0  0  0  0  0  0  0  0  0  0
   -4.2250   25.5590  -30.7660 N   0  0  0  0  0  0  0  0  0  0  0  0
   -3.2820   24.4630  -29.8020 S   0  0  0  0  0  0  0  0  0  0  0  0
   -2.0440   25.1650  -29.3150 O   0  0  0  0  0  0  0  0  0  0  0  0
   -4.0920   24.0270  -28.6150 O   0  0  0  0  0  0  0  0  0  0  0  0
   -2.8470   23.0410  -30.7490 C   0  0  0  0  0  0  0  0  0  0  0  0
   -1.6700   22.3300  -30.4750 C   0  0  0  0  0  0  0  0  0  0  0  0
   -1.3370   21.2060  -31.2380 C   0  0  0  0  0  0  0  0  0  0  0  0
   -2.1770   20.7730  -32.2690 C   0  0  0  0  0  0  0  0  0  0  0  0
   -1.7980   19.6500  -33.0200 O   0  0  0  0  0  0  0  0  0  0  0  0
   -0.8980   19.6570  -34.0970 C   0  0  0  0  0  0  0  0  0  0  0  0
   -0.3510   20.8760  -34.5040 C   0  0  0  0  0  0  0  0  0  0  0  0
    0.5510   20.9350  -35.5750 C   0  0  0  0  0  0  0  0  0  0  0  0
    1.1030   22.2060  -35.9610 N   0  0  0  0  0  0  0  0  0  0  0  0
    2.4970   22.5370  -35.8530 C   0  0  0  0  0  0  0  0  0  0  0  0
    3.3590   21.6160  -35.8110 O   0  0  0  0  0  0  0  0  0  0  0  0
    2.9450   23.9510  -35.8660 C   0  0  0  0  0  0  0  0  0  0  0  0
    3.9510   24.3660  -34.9750 C   0  0  0  0  0  0  0  0  0  0  0  0
    4.3960   25.6910  -34.9730 C   0  0  0  0  0  0  0  0  0  0  0  0
    3.8360   26.6180  -35.8540 C   0  0  0  0  0  0  0  0  0  0  0  0
    2.8260   26.2240  -36.7330 C   0  0  0  0  0  0  0  0  0  0  0  0
    2.3700   24.9010  -36.7390 C   0  0  0  0  0  0  0  0  0  0  0  0
    1.3310   24.5520  -37.5960 O   0  0  0  0  0  0  0  0  0  0  0  0
    0.9410   19.7440  -36.2120 C   0  0  0  0  0  0  0  0  0  0  0  0
    0.4190   18.5060  -35.8020 C   0  0  0  0  0  0  0  0  0  0  0  0
    0.8320   17.2900  -36.4530 N   0  0  0  0  0  0  0  0  0  0  0  0
    1.3660   16.3680  -35.8030 O   0  0  0  0  0  0  0  0  0  0  0  0
    0.6370   17.1210  -37.8050 O   0  0  0  0  0  0  0  0  0  0  0  0
   -0.5010   18.4720  -34.7390 C   0  0  0  0  0  0  0  0  0  0  0  0
   -3.3470   21.4990  -32.5540 C   0  0  0  0  0  0  0  0  0  0  0  0
   -3.6820   22.6220  -31.7920 C   0  0  0  0  0  0  0  0  0  0  0  0
   -5.7639   25.3968  -29.3472 H   0  0  0  0  0  0  0  0  0  0  0  0
   -6.2038   26.2536  -30.8635 H   0  0  0  0  0  0  0  0  0  0  0  0
   -6.0156   24.4672  -30.8635 H   0  0  0  0  0  0  0  0  0  0  0  0
   -1.0080   22.6564  -29.6594 H   0  0  0  0  0  0  0  0  0  0  0  0
   -0.4071   20.6583  -31.0255 H   0  0  0  0  0  0  0  0  0  0  0  0
   -0.6314   21.8004  -33.9778 H   0  0  0  0  0  0  0  0  0  0  0  0
    0.4780   22.8870  -36.4490 H   0  0  0  0  0  0  0  0  0  0  0  0
    4.3913   23.6417  -34.2738 H   0  0  0  0  0  0  0  0  0  0  0  0
    5.1881   26.0036  -34.2767 H   0  0  0  0  0  0  0  0  0  0  0  0
    4.1909   27.6592  -35.8554 H   0  0  0  0  0  0  0  0  0  0  0  0
    2.3860   26.9574  -37.4248 H   0  0  0  0  0  0  0  0  0  0  0  0
    1.6631   19.7820  -37.0409 H   0  0  0  0  0  0  0  0  0  0  0  0
   -0.9139   17.5081  -34.4068 H   0  0  0  0  0  0  0  0  0  0  0  0
   -4.0011   21.1821  -33.3797 H   0  0  0  0  0  0  0  0  0  0  0  0
   -4.6049   23.1785  -32.0125 H   0  0  0  0  0  0  0  0  0  0  0  0
  1  2  1  0
  2  3  1  0
  3  4  2  0
  3  5  2  0
  3  6  1  0
  6  7  2  0
  7  8  1  0
  8  9  2  0
  9 10  1  0
 10 11  1  0
 11 12  2  0
 12 13  1  0
 13 14  1  0
 14 15  1  0
 15 16  2  0
 15 17  1  0
 17 18  2  0
 18 19  1  0
 19 20  2  0
 20 21  1  0
 21 22  2  0
 22 23  1  0
 13 24  2  0
 24 25  1  0
 25 26  1  0
 26 27  2  0
 26 28  1  0
 25 29  2  0
  9 30  1  0
 30 31  2  0
 31  6  1  0
 29 11  1  0
 22 17  1  0
  1 32  1  0
  1 33  1  0
  1 34  1  0
  7 35  1  0
  8 36  1  0
 12 37  1  0
 14 38  1  0
 18 39  1  0
 19 40  1  0
 20 41  1  0
 21 42  1  0
 24 43  1  0
 29 44  1  0
 30 45  1  0
 31 46  1  0
M  CHG  4   2  -1  23  -1  26   1  28  -1
M  END
>  <UniqueID>  (14) 
13

>  <SMILES>  (14) 
C[N-]S(=O)(=O)c1ccc(Oc2cc(NC(=O)c3ccccc3[O-])cc([N+](=O)[O-])c2)cc1

>  <Energy>  (14) 
62.02931162111968

>  <Genealogy>  (14) 
C[N-]S(=O)(=O)c1ccc(Oc2cc(NC(=O)c3ccccc3[O-])cc([N+](=O)[O-])c2)cc1 (protonated)
C[N-]S(=O)(=O)c1ccc(Oc2cc(NC(=O)c3ccccc3[O-])cc([N+](=O)[O-])c2)cc1 (3D coordinates assigned)
C[N-]S(=O)(=O)c1ccc(Oc2cc(NC(=O)c3ccccc3[O-])cc([N+](=O)[O-])c2)cc1 (optimized conformer: 62.02931162111968 kcal/mol)

>  <smiles>  (14) 
CNS(=O)(=O)c1ccc(Oc2cc(NC(=O)c3ccccc3O)cc([N+](=O)[O-])c2)cc1

>  <score_type>  (14) 
oracle

>  <origin>  (14) 
adgpu

>  <m_score__min__energy>  (14) 
-11.890000000000001

>  <m_primary>  (14) 
energy

$$$$
14:0
     RDKit          3D

 48 50  0  0  0  0  0  0  0  0999 V2000
   -9.6140   20.4590  -32.3120 C   0  0  0  0  0  0  0  0  0  0  0  0
   -9.3430   21.8450  -32.1290 O   0  0  0  0  0  0  0  0  0  0  0  0
   -8.1750   22.3510  -31.5390 C   0  0  0  0  0  0  0  0  0  0  0  0
   -7.8930   22.2000  -30.1670 C   0  0  0  0  0  0  0  0  0  0  0  0
   -6.7150   22.7230  -29.6280 C   0  0  0  0  0  0  0  0  0  0  0  0
   -5.8070   23.4060  -30.4480 C   0  0  0  0  0  0  0  0  0  0  0  0
   -4.3040   24.0440  -29.7910 S   0  0  0  0  0  0  0  0  0  0  0  0
   -3.9320   25.2930  -30.5420 O   0  0  0  0  0  0  0  0  0  0  0  0
   -4.4650   24.3920  -28.3370 O   0  0  0  0  0  0  0  0  0  0  0  0
   -3.0610   22.8430  -29.9600 N   0  0  0  0  0  0  0  0  0  0  0  0
   -3.0510   21.9890  -31.1540 C   0  0  0  0  0  0  0  0  0  0  0  0
   -3.6150   20.5930  -30.8510 C   0  0  0  0  0  0  0  0  0  0  0  0
   -4.3820   20.0220  -32.0140 C   0  0  0  0  0  0  0  0  0  0  0  0
   -5.7850   20.0260  -32.0210 C   0  0  0  0  0  0  0  0  0  0  0  0
   -6.4660   19.4580  -33.0990 C   0  0  0  0  0  0  0  0  0  0  0  0
   -5.7490   18.9060  -34.1620 C   0  0  0  0  0  0  0  0  0  0  0  0
   -4.3530   18.9370  -34.1320 C   0  0  0  0  0  0  0  0  0  0  0  0
   -3.7080   19.4910  -33.0730 N   0  0  0  0  0  0  0  0  0  0  0  0
   -1.9180   22.9030  -29.0920 C   0  0  0  0  0  0  0  0  0  0  0  0
   -1.2930   21.7130  -28.6860 C   0  0  0  0  0  0  0  0  0  0  0  0
   -0.1910   21.7490  -27.8300 C   0  0  0  0  0  0  0  0  0  0  0  0
    0.3010   22.9730  -27.3750 C   0  0  0  0  0  0  0  0  0  0  0  0
   -0.3070   24.1650  -27.7770 C   0  0  0  0  0  0  0  0  0  0  0  0
   -1.4170   24.1430  -28.6350 C   0  0  0  0  0  0  0  0  0  0  0  0
   -2.0490   25.3770  -28.9990 N   0  0  0  0  0  0  0  0  0  0  0  0
   -6.0820   23.5530  -31.8120 C   0  0  0  0  0  0  0  0  0  0  0  0
   -7.2610   23.0310  -32.3520 C   0  0  0  0  0  0  0  0  0  0  0  0
   -9.7094   19.9713  -31.3306 H   0  0  0  0  0  0  0  0  0  0  0  0
  -10.5524   20.3399  -32.8734 H   0  0  0  0  0  0  0  0  0  0  0  0
   -8.7895   19.9952  -32.8734 H   0  0  0  0  0  0  0  0  0  0  0  0
   -8.6035   21.6680  -29.5173 H   0  0  0  0  0  0  0  0  0  0  0  0
   -6.4996   22.5982  -28.5565 H   0  0  0  0  0  0  0  0  0  0  0  0
   -3.6643   22.4605  -31.9360 H   0  0  0  0  0  0  0  0  0  0  0  0
   -2.0094   21.8756  -31.4891 H   0  0  0  0  0  0  0  0  0  0  0  0
   -2.7797   19.9181  -30.6125 H   0  0  0  0  0  0  0  0  0  0  0  0
   -4.3097   20.6874  -30.0034 H   0  0  0  0  0  0  0  0  0  0  0  0
   -6.3431   20.4725  -31.1848 H   0  0  0  0  0  0  0  0  0  0  0  0
   -7.5659   19.4454  -33.1109 H   0  0  0  0  0  0  0  0  0  0  0  0
   -6.2773   18.4519  -35.0133 H   0  0  0  0  0  0  0  0  0  0  0  0
   -3.7757   18.5125  -34.9665 H   0  0  0  0  0  0  0  0  0  0  0  0
   -1.6744   20.7457  -29.0450 H   0  0  0  0  0  0  0  0  0  0  0  0
    0.2900   20.8116  -27.5138 H   0  0  0  0  0  0  0  0  0  0  0  0
    1.1685   22.9994  -26.6991 H   0  0  0  0  0  0  0  0  0  0  0  0
    0.0872   25.1273  -27.4184 H   0  0  0  0  0  0  0  0  0  0  0  0
   -1.6350   26.0130  -29.7160 H   0  0  0  0  0  0  0  0  0  0  0  0
   -2.9680   25.6450  -28.5840 H   0  0  0  0  0  0  0  0  0  0  0  0
   -5.3682   24.0810  -32.4614 H   0  0  0  0  0  0  0  0  0  0  0  0
   -7.4720   23.1557  -33.4243 H   0  0  0  0  0  0  0  0  0  0  0  0
  1  2  1  0
  2  3  1  0
  3  4  2  0
  4  5  1  0
  5  6  2  0
  6  7  1  0
  7  8  2  0
  7  9  2  0
  7 10  1  0
 10 11  1  0
 11 12  1  0
 12 13  1  0
 13 14  2  0
 14 15  1  0
 15 16  2  0
 16 17  1  0
 17 18  2  0
 10 19  1  0
 19 20  2  0
 20 21  1  0
 21 22  2  0
 22 23  1  0
 23 24  2  0
 24 25  1  0
  6 26  1  0
 26 27  2  0
 27  3  1  0
 18 13  1  0
 24 19  1  0
  1 28  1  0
  1 29  1  0
  1 30  1  0
  4 31  1  0
  5 32  1  0
 11 33  1  0
 11 34  1  0
 12 35  1  0
 12 36  1  0
 14 37  1  0
 15 38  1  0
 16 39  1  0
 17 40  1  0
 20 41  1  0
 21 42  1  0
 22 43  1  0
 23 44  1  0
 25 45  1  0
 25 46  1  0
 26 47  1  0
 27 48  1  0
M  END
>  <UniqueID>  (15) 
14

>  <SMILES>  (15) 
COc1ccc(S(=O)(=O)N(CCc2ccccn2)c2ccccc2N)cc1

>  <Energy>  (15) 
50.678067378178575

>  <Genealogy>  (15) 
COc1ccc(S(=O)(=O)N(CCc2ccccn2)c2ccccc2N)cc1 (3D coordinates assigned)
COc1ccc(S(=O)(=O)N(CCc2ccccn2)c2ccccc2N)cc1 (optimized conformer: 50.678067378178575 kcal/mol)

>  <smiles>  (15) 
COc1ccc(S(=O)(=O)N(CCc2ccccn2)c2ccccc2N)cc1

>  <score_type>  (15) 
oracle

>  <origin>  (15) 
adgpu

>  <m_score__min__energy>  (15) 
-8.7300000000000004

>  <m_primary>  (15) 
energy

$$$$
15:0
     RDKit          3D

 41 43  0  0  0  0  0  0  0  0999 V2000
    0.0680   24.8880  -27.3960 C   0  0  0  0  0  0  0  0  0  0  0  0
   -1.2180   24.8020  -28.1500 C   0  0  0  0  0  0  0  0  0  0  0  0
   -1.5840   25.6700  -29.1170 N   0  0  0  0  0  0  0  0  0  0  0  0
   -2.7450   25.2780  -29.5620 O   0  0  0  0  0  0  0  0  0  0  0  0
   -3.1440   24.2000  -28.9290 C   0  0  0  0  0  0  0  0  0  0  0  0
   -4.2460   23.5630  -29.1750 N   0  0  0  0  0  0  0  0  0  0  0  0
   -5.3520   24.0600  -30.4130 S   0  0  0  0  0  0  0  0  0  0  0  0
   -6.6640   24.4400  -29.7870 O   0  0  0  0  0  0  0  0  0  0  0  0
   -4.7970   25.2570  -31.1330 O   0  0  0  0  0  0  0  0  0  0  0  0
   -5.6100   22.7260  -31.5330 C   0  0  0  0  0  0  0  0  0  0  0  0
   -6.8010   21.9910  -31.4780 C   0  0  0  0  0  0  0  0  0  0  0  0
   -6.9670   20.8630  -32.2880 C   0  0  0  0  0  0  0  0  0  0  0  0
   -5.9360   20.4440  -33.1360 C   0  0  0  0  0  0  0  0  0  0  0  0
   -6.1030   19.2390  -33.8970 N   0  0  0  0  0  0  0  0  0  0  0  0
   -6.5200   17.9740  -33.3640 C   0  0  0  0  0  0  0  0  0  0  0  0
   -7.6420   17.8970  -32.7960 O   0  0  0  0  0  0  0  0  0  0  0  0
   -5.6620   16.7690  -33.4380 C   0  0  0  0  0  0  0  0  0  0  0  0
   -4.3070   16.8570  -33.0740 C   0  0  0  0  0  0  0  0  0  0  0  0
   -3.4890   15.7240  -33.1090 C   0  0  0  0  0  0  0  0  0  0  0  0
   -4.0120   14.4950  -33.5180 C   0  0  0  0  0  0  0  0  0  0  0  0
   -5.3510   14.4000  -33.9050 C   0  0  0  0  0  0  0  0  0  0  0  0
   -6.1740   15.5300  -33.8750 C   0  0  0  0  0  0  0  0  0  0  0  0
   -7.4560   15.4170  -34.3050 F   0  0  0  0  0  0  0  0  0  0  0  0
   -4.7610   21.2100  -33.2250 C   0  0  0  0  0  0  0  0  0  0  0  0
   -4.5980   22.3410  -32.4220 C   0  0  0  0  0  0  0  0  0  0  0  0
   -2.2090   23.8510  -27.9830 C   0  0  0  0  0  0  0  0  0  0  0  0
   -2.1950   22.6450  -27.0960 C   0  0  0  0  0  0  0  0  0  0  0  0
   -0.1387   24.8742  -26.3157 H   0  0  0  0  0  0  0  0  0  0  0  0
    0.7050   24.0304  -27.6584 H   0  0  0  0  0  0  0  0  0  0  0  0
    0.5851   25.8227  -27.6584 H   0  0  0  0  0  0  0  0  0  0  0  0
   -7.6070   22.3014  -30.7968 H   0  0  0  0  0  0  0  0  0  0  0  0
   -7.9129   20.3024  -32.2582 H   0  0  0  0  0  0  0  0  0  0  0  0
   -3.8876   17.8240  -32.7595 H   0  0  0  0  0  0  0  0  0  0  0  0
   -2.4320   15.8003  -32.8141 H   0  0  0  0  0  0  0  0  0  0  0  0
   -3.3697   13.6022  -33.5354 H   0  0  0  0  0  0  0  0  0  0  0  0
   -5.7592   13.4331  -34.2344 H   0  0  0  0  0  0  0  0  0  0  0  0
   -3.9677   20.9180  -33.9289 H   0  0  0  0  0  0  0  0  0  0  0  0
   -3.6722   22.9313  -32.4878 H   0  0  0  0  0  0  0  0  0  0  0  0
   -2.1987   22.9640  -26.0433 H   0  0  0  0  0  0  0  0  0  0  0  0
   -3.0861   22.0320  -27.2965 H   0  0  0  0  0  0  0  0  0  0  0  0
   -1.2899   22.0529  -27.2965 H   0  0  0  0  0  0  0  0  0  0  0  0
  1  2  1  0
  2  3  1  0
  3  4  1  0
  4  5  1  0
  5  6  2  3
  6  7  1  0
  7  8  2  0
  7  9  2  0
  7 10  1  0
 10 11  2  0
 11 12  1  0
 12 13  2  0
 13 14  1  0
 14 15  1  0
 15 16  2  0
 15 17  1  0
 17 18  2  0
 18 19  1  0
 19 20  2  0
 20 21  1  0
 21 22  2  0
 22 23  1  0
 13 24  1  0
 24 25  2  0
  5 26  1  0
 26 27  1  0
 26  2  2  0
 25 10  1  0
 22 17  1  0
  1 28  1  0
  1 29  1  0
  1 30  1  0
 11 31  1  0
 12 32  1  0
 18 33  1  0
 19 34  1  0
 20 35  1  0
 21 36  1  0
 24 37  1  0
 25 38  1  0
 27 39  1  0
 27 40  1  0
 27 41  1  0
M  CHG  2   3  -1  14  -1
M  END
>  <UniqueID>  (16) 
15

>  <SMILES>  (16) 
Cc1[n-]oc(=NS(=O)(=O)c2ccc([N-]C(=O)c3ccccc3F)cc2)c1C

>  <Energy>  (16) 
83.15040904029146

>  <Genealogy>  (16) 
Cc1[n-]oc(=NS(=O)(=O)c2ccc([N-]C(=O)c3ccccc3F)cc2)c1C (protonated)
Cc1[n-]oc(=NS(=O)(=O)c2ccc([N-]C(=O)c3ccccc3F)cc2)c1C (3D coordinates assigned)
Cc1[n-]oc(=NS(=O)(=O)c2ccc([N-]C(=O)c3ccccc3F)cc2)c1C (optimized conformer: 83.15040904029146 kcal/mol)

>  <smiles>  (16) 
Cc1[nH]oc(=NS(=O)(=O)c2ccc(NC(=O)c3ccccc3F)cc2)c1C

>  <score_type>  (16) 
oracle

>  <origin>  (16) 
adgpu

>  <m_score__min__energy>  (16) 
-12.6

>  <m_primary>  (16) 
energy

$$$$
16:0
     RDKit          3D

 34 35  0  0  0  0  0  0  0  0999 V2000
   -3.0690   25.6720  -30.4970 H   0  0  0  0  0  0  0  0  0  0  0  0
   -3.4960   24.7540  -30.4690 O   0  0  0  0  0  0  0  0  0  0  0  0
   -2.7310   23.5870  -30.4780 C   0  0  0  0  0  0  0  0  0  0  0  0
   -3.1820   22.4750  -31.2060 C   0  0  0  0  0  0  0  0  0  0  0  0
   -4.1303   22.5369  -31.7601 H   0  0  0  0  0  0  0  0  0  0  0  0
   -2.4370   21.2830  -31.2360 C   0  0  0  0  0  0  0  0  0  0  0  0
   -2.8790   20.1280  -31.9750 N   0  0  0  0  0  0  0  0  0  0  0  0
   -2.8060   19.1920  -31.5130 H   0  0  0  0  0  0  0  0  0  0  0  0
   -3.4160   20.2030  -33.3360 C   0  0  0  0  0  0  0  0  0  0  0  0
   -2.8722   20.9790  -33.8947 H   0  0  0  0  0  0  0  0  0  0  0  0
   -3.2900   19.2215  -33.8164 H   0  0  0  0  0  0  0  0  0  0  0  0
   -4.8780   20.5430  -33.3210 C   0  0  0  0  0  0  0  0  0  0  0  0
   -5.3420   20.9780  -34.2185 H   0  0  0  0  0  0  0  0  0  0  0  0
   -5.6260   20.3250  -32.2320 C   0  0  0  0  0  0  0  0  0  0  0  0
   -5.1400   19.8770  -31.3528 H   0  0  0  0  0  0  0  0  0  0  0  0
   -7.0710   20.6510  -32.1390 C   0  0  0  0  0  0  0  0  0  0  0  0
   -7.5400   21.9350  -31.7930 C   0  0  0  0  0  0  0  0  0  0  0  0
   -6.8216   22.7379  -31.5713 H   0  0  0  0  0  0  0  0  0  0  0  0
   -8.9130   22.1940  -31.7300 C   0  0  0  0  0  0  0  0  0  0  0  0
   -9.2703   23.1961  -31.4506 H   0  0  0  0  0  0  0  0  0  0  0  0
   -9.8310   21.1830  -32.0210 C   0  0  0  0  0  0  0  0  0  0  0  0
  -10.9104   21.3882  -31.9675 H   0  0  0  0  0  0  0  0  0  0  0  0
   -9.3790   19.9110  -32.3800 C   0  0  0  0  0  0  0  0  0  0  0  0
  -10.1029   19.1161  -32.6126 H   0  0  0  0  0  0  0  0  0  0  0  0
   -8.0070   19.6470  -32.4440 C   0  0  0  0  0  0  0  0  0  0  0  0
   -7.6573   18.6456  -32.7354 H   0  0  0  0  0  0  0  0  0  0  0  0
   -1.2300   21.2210  -30.5270 C   0  0  0  0  0  0  0  0  0  0  0  0
   -0.6358   20.2954  -30.5434 H   0  0  0  0  0  0  0  0  0  0  0  0
   -0.7740   22.3220  -29.8000 C   0  0  0  0  0  0  0  0  0  0  0  0
    0.1756   22.2532  -29.2490 H   0  0  0  0  0  0  0  0  0  0  0  0
   -1.5130   23.5180  -29.7630 C   0  0  0  0  0  0  0  0  0  0  0  0
   -0.9940   24.6670  -28.9790 C   0  0  0  0  0  0  0  0  0  0  0  0
    0.0670   24.5680  -28.3070 O   0  0  0  0  0  0  0  0  0  0  0  0
   -1.6750   25.8790  -28.9750 O   0  0  0  0  0  0  0  0  0  0  0  0
  1  2  1  0
  2  3  1  0
  3  4  2  0
  4  5  1  0
  4  6  1  0
  6  7  1  0
  7  8  1  0
  7  9  1  0
  9 10  1  0
  9 11  1  0
  9 12  1  0
 12 13  1  0
 12 14  2  0
 14 15  1  0
 14 16  1  0
 16 17  2  0
 17 18  1  0
 17 19  1  0
 19 20  1  0
 19 21  2  0
 21 22  1  0
 21 23  1  0
 23 24  1  0
 23 25  2  0
 25 26  1  0
  6 27  2  0
 27 28  1  0
 27 29  1  0
 29 30  1  0
 29 31  2  0
 31 32  1  0
 32 33  2  0
 32 34  1  0
 31  3  1  0
 25 16  1  0
M  CHG  1  34  -1
M  END
>  <UniqueID>  (17) 
16

>  <SMILES>  (17) 
O=C([O-])c1ccc(NC/C=C/c2ccccc2)cc1O

>  <Energy>  (17) 
36.80335384953505

>  <Genealogy>  (17) 
O=C([O-])c1ccc(NCC=Cc2ccccc2)cc1O (protonated)
O=C([O-])c1ccc(NC/C=C/c2ccccc2)cc1O (cis-trans isomerization)
O=C([O-])c1ccc(NC/C=C/c2ccccc2)cc1O (3D coordinates assigned)
O=C([O-])c1ccc(NC/C=C/c2ccccc2)cc1O (optimized conformer: 36.80335384953505 kcal/mol)

>  <smiles>  (17) 
O=C(O)c1ccc(NCC=Cc2ccccc2)cc1O

>  <score_type>  (17) 
oracle

>  <origin>  (17) 
adgpu

>  <m_score__min__energy>  (17) 
-9.8300000000000001

>  <m_primary>  (17) 
energy

$$$$
17:0
     RDKit          3D

 44 46  0  0  0  0  0  0  0  0999 V2000
   -8.7360   19.3280  -31.7300 C   0  0  0  0  0  0  0  0  0  0  0  0
   -7.5200   19.6370  -33.0490 S   0  0  0  0  0  0  0  0  0  0  0  0
   -6.8370   21.0940  -32.2590 C   0  0  0  0  0  0  0  0  0  0  0  0
   -7.5470   21.7290  -31.2340 C   0  0  0  0  0  0  0  0  0  0  0  0
   -7.0400   22.8890  -30.6460 C   0  0  0  0  0  0  0  0  0  0  0  0
   -5.8150   23.4180  -31.0720 C   0  0  0  0  0  0  0  0  0  0  0  0
   -5.2200   24.9120  -30.3570 S   0  0  0  0  0  0  0  0  0  0  0  0
   -5.6900   26.0670  -31.1960 O   0  0  0  0  0  0  0  0  0  0  0  0
   -5.7420   25.0860  -28.9580 O   0  0  0  0  0  0  0  0  0  0  0  0
   -3.4880   24.8900  -30.3330 N   0  0  0  0  0  0  0  0  0  0  0  0
   -2.7040   24.0600  -29.4670 C   0  0  0  0  0  0  0  0  0  0  0  0
   -1.7270   24.4850  -28.5900 C   0  0  0  0  0  0  0  0  0  0  0  0
   -1.2690   25.8980  -28.4010 C   0  0  0  0  0  0  0  0  0  0  0  0
   -1.1820   23.4000  -27.9860 N   0  0  0  0  0  0  0  0  0  0  0  0
   -0.0460   23.4150  -27.0640 C   0  0  0  0  0  0  0  0  0  0  0  0
   -1.8230   22.3100  -28.4060 N   0  0  0  0  0  0  0  0  0  0  0  0
   -1.6150   20.9650  -27.9340 C   0  0  0  0  0  0  0  0  0  0  0  0
   -0.4570   20.2550  -28.3020 C   0  0  0  0  0  0  0  0  0  0  0  0
   -0.2720   18.9350  -27.8770 C   0  0  0  0  0  0  0  0  0  0  0  0
   -1.2380   18.3150  -27.0790 C   0  0  0  0  0  0  0  0  0  0  0  0
   -2.3920   19.0140  -26.7080 C   0  0  0  0  0  0  0  0  0  0  0  0
   -2.5840   20.3300  -27.1370 C   0  0  0  0  0  0  0  0  0  0  0  0
   -2.7460   22.6890  -29.3120 C   0  0  0  0  0  0  0  0  0  0  0  0
   -3.5420   21.9020  -29.8820 O   0  0  0  0  0  0  0  0  0  0  0  0
   -5.0970   22.7710  -32.0880 C   0  0  0  0  0  0  0  0  0  0  0  0
   -5.6110   21.6180  -32.6860 C   0  0  0  0  0  0  0  0  0  0  0  0
   -8.2526   19.4508  -30.7496 H   0  0  0  0  0  0  0  0  0  0  0  0
   -9.5663   20.0437  -31.8217 H   0  0  0  0  0  0  0  0  0  0  0  0
   -9.1239   18.3027  -31.8217 H   0  0  0  0  0  0  0  0  0  0  0  0
   -8.5060   21.3135  -30.8911 H   0  0  0  0  0  0  0  0  0  0  0  0
   -7.6044   23.3894  -29.8453 H   0  0  0  0  0  0  0  0  0  0  0  0
   -1.1972   26.1195  -27.3259 H   0  0  0  0  0  0  0  0  0  0  0  0
   -0.2823   26.0293  -28.8691 H   0  0  0  0  0  0  0  0  0  0  0  0
   -1.9910   26.5832  -28.8691 H   0  0  0  0  0  0  0  0  0  0  0  0
   -0.4148   23.4101  -26.0277 H   0  0  0  0  0  0  0  0  0  0  0  0
    0.5773   22.5250  -27.2356 H   0  0  0  0  0  0  0  0  0  0  0  0
    0.5536   24.3211  -27.2356 H   0  0  0  0  0  0  0  0  0  0  0  0
    0.3068   20.7405  -28.9272 H   0  0  0  0  0  0  0  0  0  0  0  0
    0.6340   18.3847  -28.1709 H   0  0  0  0  0  0  0  0  0  0  0  0
   -1.0910   17.2780  -26.7429 H   0  0  0  0  0  0  0  0  0  0  0  0
   -3.1498   18.5264  -26.0772 H   0  0  0  0  0  0  0  0  0  0  0  0
   -3.4973   20.8717  -26.8499 H   0  0  0  0  0  0  0  0  0  0  0  0
   -4.1265   23.1725  -32.4149 H   0  0  0  0  0  0  0  0  0  0  0  0
   -5.0521   21.1214  -33.4929 H   0  0  0  0  0  0  0  0  0  0  0  0
  1  2  1  0
  2  3  1  0
  3  4  2  0
  4  5  1  0
  5  6  2  0
  6  7  1  0
  7  8  2  0
  7  9  2  0
  7 10  1  0
 10 11  1  0
 11 12  2  0
 12 13  1  0
 12 14  1  0
 14 15  1  0
 14 16  1  0
 16 17  1  0
 17 18  2  0
 18 19  1  0
 19 20  2  0
 20 21  1  0
 21 22  2  0
 16 23  1  0
 23 24  2  0
  6 25  1  0
 25 26  2  0
 26  3  1  0
 23 11  1  0
 22 17  1  0
  1 27  1  0
  1 28  1  0
  1 29  1  0
  4 30  1  0
  5 31  1  0
 13 32  1  0
 13 33  1  0
 13 34  1  0
 15 35  1  0
 15 36  1  0
 15 37  1  0
 18 38  1  0
 19 39  1  0
 20 40  1  0
 21 41  1  0
 22 42  1  0
 25 43  1  0
 26 44  1  0
M  CHG  1  10  -1
M  END
>  <UniqueID>  (18) 
17

>  <SMILES>  (18) 
CSc1ccc(S(=O)(=O)[N-]c2c(C)n(C)n(-c3ccccc3)c2=O)cc1

>  <Energy>  (18) 
86.08664928912427

>  <Genealogy>  (18) 
CSc1ccc(S(=O)(=O)[N-]c2c(C)n(C)n(-c3ccccc3)c2=O)cc1 (protonated)
CSc1ccc(S(=O)(=O)[N-]c2c(C)n(C)n(-c3ccccc3)c2=O)cc1 (3D coordinates assigned)
CSc1ccc(S(=O)(=O)[N-]c2c(C)n(C)n(-c3ccccc3)c2=O)cc1 (optimized conformer: 86.08664928912427 kcal/mol)

>  <smiles>  (18) 
CSc1ccc(S(=O)(=O)Nc2c(C)n(C)n(-c3ccccc3)c2=O)cc1

>  <score_type>  (18) 
oracle

>  <origin>  (18) 
adgpu

>  <m_score__min__energy>  (18) 
-10.19

>  <m_primary>  (18) 
energy

$$$$
18:0
     RDKit          3D

 44 46  0  0  0  0  0  0  0  0999 V2000
   -3.8970   23.5490  -27.4530 O   0  0  0  0  0  0  0  0  0  0  0  0
   -3.2620   24.4760  -28.0240 C   0  0  0  0  0  0  0  0  0  0  0  0
   -3.6010   24.8690  -29.3670 N   0  0  0  0  0  0  0  0  0  0  0  0
   -4.6160   24.2310  -30.1600 C   0  0  0  0  0  0  0  0  0  0  0  0
   -5.8110   24.9150  -30.4260 C   0  0  0  0  0  0  0  0  0  0  0  0
   -6.8020   24.3270  -31.2170 C   0  0  0  0  0  0  0  0  0  0  0  0
   -6.6000   23.0600  -31.7670 C   0  0  0  0  0  0  0  0  0  0  0  0
   -5.3990   22.3770  -31.5360 C   0  0  0  0  0  0  0  0  0  0  0  0
   -5.1210   20.7910  -32.2500 S   0  0  0  0  0  0  0  0  0  0  0  0
   -3.9420   20.1310  -31.5870 O   0  0  0  0  0  0  0  0  0  0  0  0
   -4.8280   20.9680  -33.7130 O   0  0  0  0  0  0  0  0  0  0  0  0
   -6.5410   19.7960  -32.0430 N   0  0  0  0  0  0  0  0  0  0  0  0
   -6.3480   18.4980  -32.7090 C   0  0  0  0  0  0  0  0  0  0  0  0
   -7.4870   17.5300  -32.3370 C   0  0  0  0  0  0  0  0  0  0  0  0
   -8.7760   18.2690  -31.9350 C   0  0  0  0  0  0  0  0  0  0  0  0
   -8.9460   19.5590  -32.7410 C   0  0  0  0  0  0  0  0  0  0  0  0
   -7.7260   20.4960  -32.5820 C   0  0  0  0  0  0  0  0  0  0  0  0
   -4.4090   22.9630  -30.7350 C   0  0  0  0  0  0  0  0  0  0  0  0
   -2.1610   25.1430  -27.2950 C   0  0  0  0  0  0  0  0  0  0  0  0
   -2.1070   25.0420  -25.8940 C   0  0  0  0  0  0  0  0  0  0  0  0
   -1.0740   25.6530  -25.1790 C   0  0  0  0  0  0  0  0  0  0  0  0
   -0.0900   26.3790  -25.8530 C   0  0  0  0  0  0  0  0  0  0  0  0
   -0.1440   26.5050  -27.2420 C   0  0  0  0  0  0  0  0  0  0  0  0
   -1.1800   25.9020  -27.9660 C   0  0  0  0  0  0  0  0  0  0  0  0
   -1.2370   26.0930  -29.3420 O   0  0  0  0  0  0  0  0  0  0  0  0
   -3.1160   25.6930  -29.7860 H   0  0  0  0  0  0  0  0  0  0  0  0
   -5.9694   25.9207  -30.0095 H   0  0  0  0  0  0  0  0  0  0  0  0
   -7.7432   24.8638  -31.4065 H   0  0  0  0  0  0  0  0  0  0  0  0
   -7.3852   22.5972  -32.3828 H   0  0  0  0  0  0  0  0  0  0  0  0
   -6.3404   18.6472  -33.7988 H   0  0  0  0  0  0  0  0  0  0  0  0
   -5.3910   18.0667  -32.3803 H   0  0  0  0  0  0  0  0  0  0  0  0
   -7.7031   16.8886  -33.2041 H   0  0  0  0  0  0  0  0  0  0  0  0
   -7.1553   16.9381  -31.4712 H   0  0  0  0  0  0  0  0  0  0  0  0
   -9.6391   17.6129  -32.1209 H   0  0  0  0  0  0  0  0  0  0  0  0
   -8.7110   18.5296  -30.8683 H   0  0  0  0  0  0  0  0  0  0  0  0
   -9.0627   19.3025  -33.8043 H   0  0  0  0  0  0  0  0  0  0  0  0
   -9.8350   20.0854  -32.3634 H   0  0  0  0  0  0  0  0  0  0  0  0
   -7.4712   20.9136  -33.5672 H   0  0  0  0  0  0  0  0  0  0  0  0
   -8.0017   21.2853  -31.8672 H   0  0  0  0  0  0  0  0  0  0  0  0
   -3.4646   22.4286  -30.5547 H   0  0  0  0  0  0  0  0  0  0  0  0
   -2.8836   24.4779  -25.3568 H   0  0  0  0  0  0  0  0  0  0  0  0
   -1.0358   25.5620  -24.0834 H   0  0  0  0  0  0  0  0  0  0  0  0
    0.7278   26.8517  -25.2893 H   0  0  0  0  0  0  0  0  0  0  0  0
    0.6305   27.0804  -27.7702 H   0  0  0  0  0  0  0  0  0  0  0  0
  1  2  2  0
  2  3  1  0
  3  4  1  0
  4  5  2  0
  5  6  1  0
  6  7  2  0
  7  8  1  0
  8  9  1  0
  9 10  2  0
  9 11  2  0
  9 12  1  0
 12 13  1  0
 13 14  1  0
 14 15  1  0
 15 16  1  0
 16 17  1  0
  8 18  2  0
  2 19  1  0
 19 20  2  0
 20 21  1  0
 21 22  2  0
 22 23  1  0
 23 24  2  0
 24 25  1  0
 18  4  1  0
 24 19  1  0
 17 12  1  0
  3 26  1  0
  5 27  1  0
  6 28  1  0
  7 29  1  0
 13 30  1  0
 13 31  1  0
 14 32  1  0
 14 33  1  0
 15 34  1  0
 15 35  1  0
 16 36  1  0
 16 37  1  0
 17 38  1  0
 17 39  1  0
 18 40  1  0
 20 41  1  0
 21 42  1  0
 22 43  1  0
 23 44  1  0
M  CHG  1  25  -1
M  END
>  <UniqueID>  (19) 
18

>  <SMILES>  (19) 
O=C(Nc1cccc(S(=O)(=O)N2CCCCC2)c1)c1ccccc1[O-]

>  <Energy>  (19) 
56.66103661135553

>  <Genealogy>  (19) 
O=C(Nc1cccc(S(=O)(=O)N2CCCCC2)c1)c1ccccc1[O-] (protonated)
O=C(Nc1cccc(S(=O)(=O)N2CCCCC2)c1)c1ccccc1[O-] (3D coordinates assigned)
O=C(Nc1cccc(S(=O)(=O)N2CCCCC2)c1)c1ccccc1[O-] (nonaromatic ring conformer: 56.66103661135553 kcal/mol)

>  <smiles>  (19) 
O=C(Nc1cccc(S(=O)(=O)N2CCCCC2)c1)c1ccccc1O

>  <score_type>  (19) 
oracle

>  <origin>  (19) 
adgpu

>  <m_score__min__energy>  (19) 
-12.52

>  <m_primary>  (19) 
energy

$$$$
19:0
     RDKit          3D

 44 45  0  0  0  0  0  0  0  0999 V2000
   -1.0900   23.9530  -28.1460 C   0  0  0  0  0  0  0  0  0  0  0  0
   -2.1460   23.6900  -29.1790 C   0  0  0  0  0  0  0  0  0  0  0  0
   -2.0190   22.6060  -30.0550 C   0  0  0  0  0  0  0  0  0  0  0  0
   -2.9760   22.3760  -31.0550 C   0  0  0  0  0  0  0  0  0  0  0  0
   -2.7960   21.2030  -31.9800 C   0  0  0  0  0  0  0  0  0  0  0  0
   -4.0490   23.2810  -31.2120 C   0  0  0  0  0  0  0  0  0  0  0  0
   -4.9830   23.1020  -32.2810 N   0  0  0  0  0  0  0  0  0  0  0  0
   -6.6410   22.6960  -31.9730 S   0  0  0  0  0  0  0  0  0  0  0  0
   -7.5020   23.6050  -32.8050 O   0  0  0  0  0  0  0  0  0  0  0  0
   -6.9860   22.9660  -30.5360 O   0  0  0  0  0  0  0  0  0  0  0  0
   -6.9500   20.9870  -32.4040 C   0  0  0  0  0  0  0  0  0  0  0  0
   -8.0200   20.2510  -31.8430 C   0  0  0  0  0  0  0  0  0  0  0  0
   -8.9190   20.8680  -30.9020 N   0  0  0  0  0  0  0  0  0  0  0  0
   -8.1760   18.9210  -32.1590 N   0  0  0  0  0  0  0  0  0  0  0  0
   -9.3070   18.1590  -31.5960 C   0  0  0  0  0  0  0  0  0  0  0  0
   -7.2700   18.2890  -32.9710 C   0  0  0  0  0  0  0  0  0  0  0  0
   -7.3810   17.0490  -33.1940 O   0  0  0  0  0  0  0  0  0  0  0  0
   -6.2350   18.9830  -33.5380 N   0  0  0  0  0  0  0  0  0  0  0  0
   -5.2630   18.2810  -34.3960 C   0  0  0  0  0  0  0  0  0  0  0  0
   -6.0490   20.3040  -33.2410 C   0  0  0  0  0  0  0  0  0  0  0  0
   -5.0450   20.9120  -33.7070 O   0  0  0  0  0  0  0  0  0  0  0  0
   -4.1970   24.3600  -30.3090 C   0  0  0  0  0  0  0  0  0  0  0  0
   -5.3260   25.3490  -30.4270 C   0  0  0  0  0  0  0  0  0  0  0  0
   -3.2280   24.5660  -29.3170 C   0  0  0  0  0  0  0  0  0  0  0  0
   -1.5248   23.8447  -27.1414 H   0  0  0  0  0  0  0  0  0  0  0  0
   -0.2685   23.2320  -28.2697 H   0  0  0  0  0  0  0  0  0  0  0  0
   -0.7026   24.9751  -28.2697 H   0  0  0  0  0  0  0  0  0  0  0  0
   -1.1593   21.9266  -29.9585 H   0  0  0  0  0  0  0  0  0  0  0  0
   -2.6554   20.2870  -31.3874 H   0  0  0  0  0  0  0  0  0  0  0  0
   -3.6882   21.0960  -32.6144 H   0  0  0  0  0  0  0  0  0  0  0  0
   -1.9127   21.3685  -32.6144 H   0  0  0  0  0  0  0  0  0  0  0  0
   -4.6200   23.0110  -33.2550 H   0  0  0  0  0  0  0  0  0  0  0  0
   -9.6890   20.3510  -30.4360 H   0  0  0  0  0  0  0  0  0  0  0  0
   -8.8430   21.8790  -30.6590 H   0  0  0  0  0  0  0  0  0  0  0  0
   -9.2599   18.1908  -30.4975 H   0  0  0  0  0  0  0  0  0  0  0  0
  -10.2540   18.6039  -31.9354 H   0  0  0  0  0  0  0  0  0  0  0  0
   -9.2503   17.1142  -31.9354 H   0  0  0  0  0  0  0  0  0  0  0  0
   -4.5320   17.7531  -33.7660 H   0  0  0  0  0  0  0  0  0  0  0  0
   -5.7918   17.5550  -35.0311 H   0  0  0  0  0  0  0  0  0  0  0  0
   -4.7400   19.0112  -35.0311 H   0  0  0  0  0  0  0  0  0  0  0  0
   -5.6621   25.6434  -29.4218 H   0  0  0  0  0  0  0  0  0  0  0  0
   -4.9786   26.2387  -30.9727 H   0  0  0  0  0  0  0  0  0  0  0  0
   -6.1622   24.8875  -30.9727 H   0  0  0  0  0  0  0  0  0  0  0  0
   -3.3196   25.4271  -28.6387 H   0  0  0  0  0  0  0  0  0  0  0  0
  1  2  1  0
  2  3  2  0
  3  4  1  0
  4  5  1  0
  4  6  2  0
  6  7  1  0
  7  8  1  0
  8  9  2  0
  8 10  2  0
  8 11  1  0
 11 12  2  0
 12 13  1  0
 12 14  1  0
 14 15  1  0
 14 16  1  0
 16 17  2  0
 16 18  1  0
 18 19  1  0
 18 20  1  0
 20 21  2  0
  6 22  1  0
 22 23  1  0
 22 24  2  0
 24  2  1  0
 20 11  1  0
  1 25  1  0
  1 26  1  0
  1 27  1  0
  3 28  1  0
  5 29  1  0
  5 30  1  0
  5 31  1  0
  7 32  1  0
 13 33  1  0
 13 34  1  0
 15 35  1  0
 15 36  1  0
 15 37  1  0
 19 38  1  0
 19 39  1  0
 19 40  1  0
 23 41  1  0
 23 42  1  0
 23 43  1  0
 24 44  1  0
M  END
>  <UniqueID>  (20) 
19

>  <SMILES>  (20) 
Cc1cc(C)c(NS(=O)(=O)c2c(N)n(C)c(=O)n(C)c2=O)c(C)c1

>  <Energy>  (20) 
64.46269894348279

>  <Genealogy>  (20) 
Cc1cc(C)c(NS(=O)(=O)c2c(N)n(C)c(=O)n(C)c2=O)c(C)c1 (3D coordinates assigned)
Cc1cc(C)c(NS(=O)(=O)c2c(N)n(C)c(=O)n(C)c2=O)c(C)c1 (optimized conformer: 64.46269894348279 kcal/mol)

>  <smiles>  (20) 
Cc1cc(C)c(NS(=O)(=O)c2c(N)n(C)c(=O)n(C)c2=O)c(C)c1

>  <score_type>  (20) 
oracle

>  <origin>  (20) 
adgpu

>  <m_score__min__energy>  (20) 
-8.4700000000000006

>  <m_primary>  (20) 
energy

$$$$
20:0
     RDKit          3D

 48 51  0  0  0  0  0  0  0  0999 V2000
   -5.5681   26.5566  -29.5949 H   0  0  0  0  0  0  0  0  0  0  0  0
   -5.2850   25.6820  -30.1990 C   0  0  0  0  0  0  0  0  0  0  0  0
   -4.0220   25.2920  -30.4580 N   0  0  0  0  0  0  0  0  0  0  0  0
   -4.0630   24.2040  -31.2120 N   0  0  0  0  0  0  0  0  0  0  0  0
   -5.3550   23.8950  -31.4310 C   0  0  0  0  0  0  0  0  0  0  0  0
   -5.8150   22.7440  -32.2790 C   0  0  0  0  0  0  0  0  0  0  0  0
   -5.7658   23.0398  -33.3373 H   0  0  0  0  0  0  0  0  0  0  0  0
   -6.8451   22.4938  -31.9852 H   0  0  0  0  0  0  0  0  0  0  0  0
   -4.9740   21.5400  -32.0780 N   0  0  1  0  0  0  0  0  0  0  0  0
   -4.4050   21.6820  -31.2080 H   0  0  0  0  0  0  0  0  0  0  0  0
   -5.7960   20.3320  -31.8650 C   0  0  0  0  0  0  0  0  0  0  0  0
   -5.9160   20.1557  -30.7859 H   0  0  0  0  0  0  0  0  0  0  0  0
   -6.7847   20.4755  -32.3252 H   0  0  0  0  0  0  0  0  0  0  0  0
   -5.2997   19.4649  -32.3252 H   0  0  0  0  0  0  0  0  0  0  0  0
   -3.9970   21.3540  -33.1820 C   0  0  0  0  0  0  0  0  0  0  0  0
   -4.4645   20.7256  -33.9544 H   0  0  0  0  0  0  0  0  0  0  0  0
   -3.7391   22.3584  -33.5489 H   0  0  0  0  0  0  0  0  0  0  0  0
   -2.6940   20.6960  -32.7560 C   0  0  0  0  0  0  0  0  0  0  0  0
   -2.1510   19.6600  -33.5350 C   0  0  0  0  0  0  0  0  0  0  0  0
   -2.6656   19.3407  -34.4532 H   0  0  0  0  0  0  0  0  0  0  0  0
   -0.9640   19.0330  -33.1530 C   0  0  0  0  0  0  0  0  0  0  0  0
   -0.5502   18.2205  -33.7683 H   0  0  0  0  0  0  0  0  0  0  0  0
   -0.3010   19.4340  -31.9930 C   0  0  0  0  0  0  0  0  0  0  0  0
    0.6236   18.9226  -31.6869 H   0  0  0  0  0  0  0  0  0  0  0  0
   -0.8060   20.4840  -31.2160 C   0  0  0  0  0  0  0  0  0  0  0  0
   -2.0070   21.1190  -31.5990 C   0  0  0  0  0  0  0  0  0  0  0  0
   -2.5130   22.1760  -30.8350 O   0  0  0  0  0  0  0  0  0  0  0  0
   -1.8060   22.7140  -29.7600 C   0  0  0  0  0  0  0  0  0  0  0  0
   -2.3230   23.7080  -29.0940 N   0  0  0  0  0  0  0  0  0  0  0  0
   -3.2180   24.1210  -29.4420 H   0  0  0  0  0  0  0  0  0  0  0  0
   -1.7450   24.3000  -27.9180 C   0  0  0  0  0  0  0  0  0  0  0  0
   -1.6020   23.5620  -26.7320 C   0  0  0  0  0  0  0  0  0  0  0  0
   -1.9005   22.5036  -26.7059 H   0  0  0  0  0  0  0  0  0  0  0  0
   -1.0820   24.1670  -25.5850 C   0  0  0  0  0  0  0  0  0  0  0  0
   -0.9581   23.5784  -24.6640 H   0  0  0  0  0  0  0  0  0  0  0  0
   -0.7180   25.5180  -25.6020 C   0  0  0  0  0  0  0  0  0  0  0  0
   -0.0690   26.2440  -24.1390 Cl  0  0  0  0  0  0  0  0  0  0  0  0
   -0.8870   26.2700  -26.7770 C   0  0  0  0  0  0  0  0  0  0  0  0
   -0.4600   27.9740  -26.8370 Cl  0  0  0  0  0  0  0  0  0  0  0  0
   -1.4090   25.6600  -27.9250 C   0  0  0  0  0  0  0  0  0  0  0  0
   -1.5562   26.2537  -28.8393 H   0  0  0  0  0  0  0  0  0  0  0  0
   -0.5090   22.1790  -29.4530 N   0  0  0  0  0  0  0  0  0  0  0  0
    0.1640   22.7070  -28.8560 H   0  0  0  0  0  0  0  0  0  0  0  0
   -0.1150   20.8540  -29.9270 C   0  0  0  0  0  0  0  0  0  0  0  0
    0.9725   20.8453  -30.0923 H   0  0  0  0  0  0  0  0  0  0  0  0
   -0.4083   20.1196  -29.1624 H   0  0  0  0  0  0  0  0  0  0  0  0
   -6.1670   24.8170  -30.8070 C   0  0  0  0  0  0  0  0  0  0  0  0
   -7.2663   24.8535  -30.7969 H   0  0  0  0  0  0  0  0  0  0  0  0
  1  2  1  0
  2  3  1  0
  3  4  1  0
  4  5  2  0
  5  6  1  0
  6  7  1  0
  6  8  1  0
  6  9  1  0
  9 10  1  1
  9 11  1  0
 11 12  1  0
 11 13  1  0
 11 14  1  0
  9 15  1  0
 15 16  1  0
 15 17  1  0
 15 18  1  0
 18 19  2  0
 19 20  1  0
 19 21  1  0
 21 22  1  0
 21 23  2  0
 23 24  1  0
 23 25  1  0
 25 26  2  0
 26 27  1  0
 27 28  1  0
 28 29  2  0
 29 30  1  0
 29 31  1  0
 31 32  2  0
 32 33  1  0
 32 34  1  0
 34 35  1  0
 34 36  2  0
 36 37  1  0
 36 38  1  0
 38 39  1  0
 38 40  2  0
 40 41  1  0
 28 42  1  0
 42 43  1  0
 42 44  1  0
 44 45  1  0
 44 46  1  0
  5 47  1  0
 47 48  1  0
 47  2  2  0
 26 18  1  0
 40 31  1  0
 44 25  1  0
M  CHG  3   3  -1   9   1  29   1
M  END
>  <UniqueID>  (21) 
20

>  <SMILES>  (21) 
C[N@H+](Cc1cc[n-]n1)Cc1cccc2c1O/C(=[NH+]/c1ccc(Cl)c(Cl)c1)NC2

>  <Energy>  (21) 
92.51377740277546

>  <Genealogy>  (21) 
C[NH+](Cc1cc[n-]n1)Cc1cccc2c1OC(=[NH+]c1ccc(Cl)c(Cl)c1)NC2 (protonated)
C[N@H+](Cc1cc[n-]n1)Cc1cccc2c1OC(=[NH+]c1ccc(Cl)c(Cl)c1)NC2 (chirality)
C[N@H+](Cc1cc[n-]n1)Cc1cccc2c1O/C(=[NH+]/c1ccc(Cl)c(Cl)c1)NC2 (cis-trans isomerization)
C[N@H+](Cc1cc[n-]n1)Cc1cccc2c1O/C(=[NH+]/c1ccc(Cl)c(Cl)c1)NC2 (3D coordinates assigned)
C[N@H+](Cc1cc[n-]n1)Cc1cccc2c1O/C(=[NH+]/c1ccc(Cl)c(Cl)c1)NC2 (nonaromatic ring conformer: 92.51377740277546 kcal/mol)

>  <smiles>  (21) 
CN(Cc1cc[nH]n1)Cc1cccc2c1OC(=Nc1ccc(Cl)c(Cl)c1)NC2

>  <score_type>  (21) 
oracle

>  <origin>  (21) 
adgpu

>  <m_score__min__energy>  (21) 
-8.7400000000000002

>  <m_primary>  (21) 
energy

$$$$
21:0
     RDKit          3D

 39 41  0  0  0  0  0  0  0  0999 V2000
    0.1050   19.3900  -27.4860 C   0  0  0  0  0  0  0  0  0  0  0  0
   -0.9250   20.4040  -27.8900 C   0  0  0  0  0  0  0  0  0  0  0  0
   -2.1620   19.9780  -28.3850 C   0  0  0  0  0  0  0  0  0  0  0  0
   -3.1210   20.9090  -28.7850 C   0  0  0  0  0  0  0  0  0  0  0  0
   -2.8540   22.2890  -28.7050 C   0  0  0  0  0  0  0  0  0  0  0  0
   -3.8300   23.2660  -29.1010 N   0  0  0  0  0  0  0  0  0  0  0  0
   -4.2290   23.6950  -30.7340 S   0  0  0  0  0  0  0  0  0  0  0  0
   -3.1080   23.2550  -31.6340 O   0  0  0  0  0  0  0  0  0  0  0  0
   -4.3610   25.1890  -30.8100 O   0  0  0  0  0  0  0  0  0  0  0  0
   -5.7600   22.9560  -31.2430 C   0  0  0  0  0  0  0  0  0  0  0  0
   -6.9620   23.6060  -30.9140 C   0  0  0  0  0  0  0  0  0  0  0  0
   -8.1930   23.0550  -31.2630 C   0  0  0  0  0  0  0  0  0  0  0  0
   -8.2530   21.8500  -31.9570 C   0  0  0  0  0  0  0  0  0  0  0  0
   -7.0740   21.1860  -32.3200 C   0  0  0  0  0  0  0  0  0  0  0  0
   -7.1450   19.9790  -33.0330 C   0  0  0  0  0  0  0  0  0  0  0  0
   -5.9790   19.3140  -33.4090 C   0  0  0  0  0  0  0  0  0  0  0  0
   -4.7330   19.8490  -33.0840 C   0  0  0  0  0  0  0  0  0  0  0  0
   -4.6430   21.0490  -32.3740 C   0  0  0  0  0  0  0  0  0  0  0  0
   -5.8090   21.7360  -31.9730 C   0  0  0  0  0  0  0  0  0  0  0  0
   -1.6070   22.7210  -28.2110 C   0  0  0  0  0  0  0  0  0  0  0  0
   -1.2380   24.4450  -28.0960 S   0  0  0  0  0  0  0  0  0  0  0  0
   -2.0750   25.2960  -29.3460 N   0  0  0  0  0  0  0  0  0  0  0  0
   -1.6740   24.9620  -26.7520 O   0  0  0  0  0  0  0  0  0  0  0  0
    0.2390   24.6810  -28.2520 O   0  0  0  0  0  0  0  0  0  0  0  0
   -0.6490   21.7760  -27.8120 C   0  0  0  0  0  0  0  0  0  0  0  0
    0.1577   19.3381  -26.3885 H   0  0  0  0  0  0  0  0  0  0  0  0
   -0.1740   18.4043  -27.8867 H   0  0  0  0  0  0  0  0  0  0  0  0
    1.0862   19.6844  -27.8867 H   0  0  0  0  0  0  0  0  0  0  0  0
   -2.3800   18.9024  -28.4593 H   0  0  0  0  0  0  0  0  0  0  0  0
   -4.0930   20.5622  -29.1657 H   0  0  0  0  0  0  0  0  0  0  0  0
   -6.9303   24.5634  -30.3733 H   0  0  0  0  0  0  0  0  0  0  0  0
   -9.1226   23.5751  -30.9886 H   0  0  0  0  0  0  0  0  0  0  0  0
   -9.2293   21.4176  -32.2213 H   0  0  0  0  0  0  0  0  0  0  0  0
   -8.1256   19.5558  -33.2963 H   0  0  0  0  0  0  0  0  0  0  0  0
   -6.0419   18.3657  -33.9629 H   0  0  0  0  0  0  0  0  0  0  0  0
   -3.8159   19.3234  -33.3883 H   0  0  0  0  0  0  0  0  0  0  0  0
   -3.6544   21.4622  -32.1252 H   0  0  0  0  0  0  0  0  0  0  0  0
   -2.3720   24.5860  -30.0530 H   0  0  0  0  0  0  0  0  0  0  0  0
    0.3271   22.1151  -27.4347 H   0  0  0  0  0  0  0  0  0  0  0  0
  1  2  1  0
  2  3  2  0
  3  4  1  0
  4  5  2  0
  5  6  1  0
  6  7  1  0
  7  8  2  0
  7  9  2  0
  7 10  1  0
 10 11  2  0
 11 12  1  0
 12 13  2  0
 13 14  1  0
 14 15  2  0
 15 16  1  0
 16 17  2  0
 17 18  1  0
 18 19  2  0
  5 20  1  0
 20 21  1  0
 21 22  1  0
 21 23  2  0
 21 24  2  0
 20 25  2  0
 25  2  1  0
 19 10  1  0
 19 14  1  0
  1 26  1  0
  1 27  1  0
  1 28  1  0
  3 29  1  0
  4 30  1  0
 11 31  1  0
 12 32  1  0
 13 33  1  0
 15 34  1  0
 16 35  1  0
 17 36  1  0
 18 37  1  0
 22 38  1  0
 25 39  1  0
M  CHG  2   6  -1  22  -1
M  END
>  <UniqueID>  (22) 
21

>  <SMILES>  (22) 
Cc1ccc([N-]S(=O)(=O)c2cccc3ccccc23)c(S([NH-])(=O)=O)c1

>  <Energy>  (22) 
51.14217454917431

>  <Genealogy>  (22) 
Cc1ccc([N-]S(=O)(=O)c2cccc3ccccc23)c(S([NH-])(=O)=O)c1 (protonated)
Cc1ccc([N-]S(=O)(=O)c2cccc3ccccc23)c(S([NH-])(=O)=O)c1 (3D coordinates assigned)
Cc1ccc([N-]S(=O)(=O)c2cccc3ccccc23)c(S([NH-])(=O)=O)c1 (optimized conformer: 51.14217454917431 kcal/mol)

>  <smiles>  (22) 
Cc1ccc(NS(=O)(=O)c2cccc3ccccc23)c(S(N)(=O)=O)c1

>  <score_type>  (22) 
oracle

>  <origin>  (22) 
adgpu

>  <m_score__min__energy>  (22) 
-12.9

>  <m_primary>  (22) 
energy

$$$$
22:0
     RDKit          3D

 45 47  0  0  0  0  0  0  0  0999 V2000
   -3.1060   20.7240  -28.7290 C   0  0  0  0  0  0  0  0  0  0  0  0
   -2.5510   22.1170  -28.8750 C   0  0  0  0  0  0  0  0  0  0  0  0
   -3.3150   23.0800  -29.5570 C   0  0  0  0  0  0  0  0  0  0  0  0
   -2.8410   24.3840  -29.7180 C   0  0  0  0  0  0  0  0  0  0  0  0
   -3.6210   25.3170  -30.3920 O   0  0  0  0  0  0  0  0  0  0  0  0
   -1.5900   24.7440  -29.1990 C   0  0  0  0  0  0  0  0  0  0  0  0
   -1.0980   26.0410  -29.3380 O   0  0  0  0  0  0  0  0  0  0  0  0
   -0.8180   23.7910  -28.5310 C   0  0  0  0  0  0  0  0  0  0  0  0
   -1.2730   22.4700  -28.3790 C   0  0  0  0  0  0  0  0  0  0  0  0
   -0.2330   21.3020  -27.5440 S   0  0  0  0  0  0  0  0  0  0  0  0
   -1.0560   20.3000  -26.7830 O   0  0  0  0  0  0  0  0  0  0  0  0
    0.6530   22.0410  -26.5820 O   0  0  0  0  0  0  0  0  0  0  0  0
    0.7680   20.4480  -28.6740 N   0  0  0  0  0  0  0  0  0  0  0  0
    0.2930   19.7180  -29.8140 C   0  0  0  0  0  0  0  0  0  0  0  0
    0.6440   18.3750  -30.0430 C   0  0  0  0  0  0  0  0  0  0  0  0
    0.1450   17.7000  -31.1600 C   0  0  0  0  0  0  0  0  0  0  0  0
   -0.7030   18.3540  -32.0560 C   0  0  0  0  0  0  0  0  0  0  0  0
   -1.0560   19.6920  -31.8390 C   0  0  0  0  0  0  0  0  0  0  0  0
   -2.1290   20.5290  -32.9570 S   0  0  0  0  0  0  0  0  0  0  0  0
   -2.4880   19.5940  -34.0780 O   0  0  0  0  0  0  0  0  0  0  0  0
   -1.4350   21.7370  -33.5260 O   0  0  0  0  0  0  0  0  0  0  0  0
   -3.5800   21.0160  -32.1160 N   0  0  0  0  0  0  0  0  0  0  0  0
   -4.0790   22.2990  -32.6110 C   0  0  0  0  0  0  0  0  0  0  0  0
   -5.5800   22.3030  -32.3690 C   0  0  0  0  0  0  0  0  0  0  0  0
   -5.9650   20.8420  -32.1930 C   0  0  0  0  0  0  0  0  0  0  0  0
   -4.6670   20.0610  -32.3350 C   0  0  0  0  0  0  0  0  0  0  0  0
   -0.5600   20.3660  -30.7160 C   0  0  0  0  0  0  0  0  0  0  0  0
   -3.2039   20.4783  -27.6613 H   0  0  0  0  0  0  0  0  0  0  0  0
   -4.0940   20.6707  -29.2096 H   0  0  0  0  0  0  0  0  0  0  0  0
   -2.4253   20.0059  -29.2096 H   0  0  0  0  0  0  0  0  0  0  0  0
   -4.2970   22.8035  -29.9684 H   0  0  0  0  0  0  0  0  0  0  0  0
   -1.2380   26.5820  -30.1820 H   0  0  0  0  0  0  0  0  0  0  0  0
    0.1601   24.0784  -28.1179 H   0  0  0  0  0  0  0  0  0  0  0  0
    1.3127   17.8552  -29.3411 H   0  0  0  0  0  0  0  0  0  0  0  0
    0.4212   16.6496  -31.3341 H   0  0  0  0  0  0  0  0  0  0  0  0
   -1.0942   17.8179  -32.9332 H   0  0  0  0  0  0  0  0  0  0  0  0
   -3.6041   23.1273  -32.0648 H   0  0  0  0  0  0  0  0  0  0  0  0
   -3.8487   22.4293  -33.6787 H   0  0  0  0  0  0  0  0  0  0  0  0
   -5.8220   22.8766  -31.4622 H   0  0  0  0  0  0  0  0  0  0  0  0
   -6.1269   22.7728  -33.1998 H   0  0  0  0  0  0  0  0  0  0  0  0
   -6.4061   20.6775  -31.1988 H   0  0  0  0  0  0  0  0  0  0  0  0
   -6.7154   20.5253  -32.9323 H   0  0  0  0  0  0  0  0  0  0  0  0
   -4.6233   19.2574  -31.5852 H   0  0  0  0  0  0  0  0  0  0  0  0
   -4.5912   19.5936  -33.3279 H   0  0  0  0  0  0  0  0  0  0  0  0
   -0.8432   21.4144  -30.5408 H   0  0  0  0  0  0  0  0  0  0  0  0
  1  2  1  0
  2  3  2  0
  3  4  1  0
  4  5  1  0
  4  6  2  0
  6  7  1  0
  6  8  1  0
  8  9  2  0
  9 10  1  0
 10 11  2  0
 10 12  2  0
 10 13  1  0
 13 14  1  0
 14 15  2  0
 15 16  1  0
 16 17  2  0
 17 18  1  0
 18 19  1  0
 19 20  2  0
 19 21  2  0
 19 22  1  0
 22 23  1  0
 23 24  1  0
 24 25  1  0
 25 26  1  0
 18 27  2  0
  9  2  1  0
 27 14  1  0
 26 22  1  0
  1 28  1  0
  1 29  1  0
  1 30  1  0
  3 31  1  0
  7 32  1  0
  8 33  1  0
 15 34  1  0
 16 35  1  0
 17 36  1  0
 23 37  1  0
 23 38  1  0
 24 39  1  0
 24 40  1  0
 25 41  1  0
 25 42  1  0
 26 43  1  0
 26 44  1  0
 27 45  1  0
M  CHG  2   5  -1  13  -1
M  END
>  <UniqueID>  (23) 
22

>  <SMILES>  (23) 
Cc1cc([O-])c(O)cc1S(=O)(=O)[N-]c1cccc(S(=O)(=O)N2CCCC2)c1

>  <Energy>  (23) 
51.59157077757197

>  <Genealogy>  (23) 
Cc1cc([O-])c(O)cc1S(=O)(=O)[N-]c1cccc(S(=O)(=O)N2CCCC2)c1 (protonated)
Cc1cc([O-])c(O)cc1S(=O)(=O)[N-]c1cccc(S(=O)(=O)N2CCCC2)c1 (3D coordinates assigned)
Cc1cc([O-])c(O)cc1S(=O)(=O)[N-]c1cccc(S(=O)(=O)N2CCCC2)c1 (nonaromatic ring conformer: 51.59157077757197 kcal/mol)

>  <smiles>  (23) 
Cc1cc(O)c(O)cc1S(=O)(=O)Nc1cccc(S(=O)(=O)N2CCCC2)c1

>  <score_type>  (23) 
oracle

>  <origin>  (23) 
adgpu

>  <m_score__min__energy>  (23) 
-11.73

>  <m_primary>  (23) 
energy

$$$$
23:0
     RDKit          3D

 43 45  0  0  0  0  0  0  0  0999 V2000
   -6.1050   19.2870  -34.5930 C   0  0  0  0  0  0  0  0  0  0  0  0
   -6.3130   18.3360  -33.5020 N   0  0  0  0  0  0  0  0  0  0  0  0
   -5.9250   16.9620  -33.6580 C   0  0  0  0  0  0  0  0  0  0  0  0
   -4.6100   16.5610  -33.3690 C   0  0  0  0  0  0  0  0  0  0  0  0
   -4.2300   15.2240  -33.5230 C   0  0  0  0  0  0  0  0  0  0  0  0
   -5.1610   14.2770  -33.9590 C   0  0  0  0  0  0  0  0  0  0  0  0
   -6.4740   14.6650  -34.2380 C   0  0  0  0  0  0  0  0  0  0  0  0
   -6.8560   16.0020  -34.0900 C   0  0  0  0  0  0  0  0  0  0  0  0
   -6.9270   18.9140  -31.9800 S   0  0  0  0  0  0  0  0  0  0  0  0
   -6.1100   18.3730  -30.8390 O   0  0  0  0  0  0  0  0  0  0  0  0
   -8.3510   18.4580  -31.8210 O   0  0  0  0  0  0  0  0  0  0  0  0
   -6.8310   20.6690  -31.9540 C   0  0  0  0  0  0  0  0  0  0  0  0
   -7.9910   21.4520  -32.0200 C   0  0  0  0  0  0  0  0  0  0  0  0
   -7.8970   22.8460  -31.9800 C   0  0  0  0  0  0  0  0  0  0  0  0
   -6.6480   23.4620  -31.8510 C   0  0  0  0  0  0  0  0  0  0  0  0
   -5.4850   22.6890  -31.7540 C   0  0  0  0  0  0  0  0  0  0  0  0
   -4.2200   23.3520  -31.6050 N   0  0  0  0  0  0  0  0  0  0  0  0
   -3.8300   24.2160  -30.5270 C   0  0  0  0  0  0  0  0  0  0  0  0
   -4.1630   25.4290  -30.5760 O   0  0  0  0  0  0  0  0  0  0  0  0
   -3.0750   23.7220  -29.3500 C   0  0  0  0  0  0  0  0  0  0  0  0
   -3.4140   22.4790  -28.7870 C   0  0  0  0  0  0  0  0  0  0  0  0
   -2.7400   22.0080  -27.6560 C   0  0  0  0  0  0  0  0  0  0  0  0
   -1.7220   22.7690  -27.0790 C   0  0  0  0  0  0  0  0  0  0  0  0
   -1.3620   23.9950  -27.6420 C   0  0  0  0  0  0  0  0  0  0  0  0
   -2.0230   24.4690  -28.7810 C   0  0  0  0  0  0  0  0  0  0  0  0
   -1.6120   25.6710  -29.3480 O   0  0  0  0  0  0  0  0  0  0  0  0
   -5.5810   21.2890  -31.8360 C   0  0  0  0  0  0  0  0  0  0  0  0
   -5.8875   20.2814  -34.1761 H   0  0  0  0  0  0  0  0  0  0  0  0
   -5.2581   18.9556  -35.2118 H   0  0  0  0  0  0  0  0  0  0  0  0
   -7.0129   19.3394  -35.2118 H   0  0  0  0  0  0  0  0  0  0  0  0
   -3.8759   17.3021  -33.0200 H   0  0  0  0  0  0  0  0  0  0  0  0
   -3.1973   14.9173  -33.3008 H   0  0  0  0  0  0  0  0  0  0  0  0
   -4.8600   13.2262  -34.0825 H   0  0  0  0  0  0  0  0  0  0  0  0
   -7.2080   13.9179  -34.5744 H   0  0  0  0  0  0  0  0  0  0  0  0
   -7.8901   16.3037  -34.3128 H   0  0  0  0  0  0  0  0  0  0  0  0
   -8.9760   20.9695  -32.1033 H   0  0  0  0  0  0  0  0  0  0  0  0
   -8.8071   23.4598  -32.0501 H   0  0  0  0  0  0  0  0  0  0  0  0
   -6.5792   24.5596  -31.8256 H   0  0  0  0  0  0  0  0  0  0  0  0
   -4.2138   21.8738  -29.2387 H   0  0  0  0  0  0  0  0  0  0  0  0
   -3.0126   21.0356  -27.2200 H   0  0  0  0  0  0  0  0  0  0  0  0
   -1.2033   22.4028  -26.1807 H   0  0  0  0  0  0  0  0  0  0  0  0
   -0.5559   24.5905  -27.1887 H   0  0  0  0  0  0  0  0  0  0  0  0
   -4.6679   20.6763  -31.8073 H   0  0  0  0  0  0  0  0  0  0  0  0
  1  2  1  0
  2  3  1  0
  3  4  2  0
  4  5  1  0
  5  6  2  0
  6  7  1  0
  7  8  2  0
  2  9  1  0
  9 10  2  0
  9 11  2  0
  9 12  1  0
 12 13  2  0
 13 14  1  0
 14 15  2  0
 15 16  1  0
 16 17  1  0
 17 18  1  0
 18 19  2  0
 18 20  1  0
 20 21  2  0
 21 22  1  0
 22 23  2  0
 23 24  1  0
 24 25  2  0
 25 26  1  0
 16 27  2  0
  8  3  1  0
 27 12  1  0
 25 20  1  0
  1 28  1  0
  1 29  1  0
  1 30  1  0
  4 31  1  0
  5 32  1  0
  6 33  1  0
  7 34  1  0
  8 35  1  0
 13 36  1  0
 14 37  1  0
 15 38  1  0
 21 39  1  0
 22 40  1  0
 23 41  1  0
 24 42  1  0
 27 43  1  0
M  CHG  2  17  -1  26  -1
M  END
>  <UniqueID>  (24) 
23

>  <SMILES>  (24) 
CN(c1ccccc1)S(=O)(=O)c1cccc([N-]C(=O)c2ccccc2[O-])c1

>  <Energy>  (24) 
55.837576949677526

>  <Genealogy>  (24) 
CN(c1ccccc1)S(=O)(=O)c1cccc([N-]C(=O)c2ccccc2[O-])c1 (protonated)
CN(c1ccccc1)S(=O)(=O)c1cccc([N-]C(=O)c2ccccc2[O-])c1 (3D coordinates assigned)
CN(c1ccccc1)S(=O)(=O)c1cccc([N-]C(=O)c2ccccc2[O-])c1 (optimized conformer: 55.837576949677526 kcal/mol)

>  <smiles>  (24) 
CN(c1ccccc1)S(=O)(=O)c1cccc(NC(=O)c2ccccc2O)c1

>  <score_type>  (24) 
oracle

>  <origin>  (24) 
adgpu

>  <m_score__min__energy>  (24) 
-13.32

>  <m_primary>  (24) 
energy

$$$$
24:0
     RDKit          3D

 57 60  0  0  0  0  0  0  0  0999 V2000
    2.7020   18.8100  -32.4570 C   0  0  0  0  0  0  0  0  0  0  0  0
    1.3850   18.4820  -32.0240 O   0  0  0  0  0  0  0  0  0  0  0  0
    0.4660   19.4030  -31.4950 C   0  0  0  0  0  0  0  0  0  0  0  0
   -0.1040   19.2280  -30.2170 C   0  0  0  0  0  0  0  0  0  0  0  0
   -0.9630   20.1940  -29.6870 C   0  0  0  0  0  0  0  0  0  0  0  0
   -1.2540   21.3480  -30.4160 C   0  0  0  0  0  0  0  0  0  0  0  0
   -0.7050   21.5260  -31.6870 C   0  0  0  0  0  0  0  0  0  0  0  0
    0.1260   20.5480  -32.2480 C   0  0  0  0  0  0  0  0  0  0  0  0
    0.6270   20.7660  -33.5730 N   0  0  0  0  0  0  0  0  0  0  0  0
    0.1220   19.8850  -34.9780 S   0  0  0  0  0  0  0  0  0  0  0  0
   -0.4290   20.8470  -35.9950 O   0  0  0  0  0  0  0  0  0  0  0  0
    1.2800   19.1380  -35.5790 O   0  0  0  0  0  0  0  0  0  0  0  0
   -1.0950   18.7110  -34.4960 C   0  0  0  0  0  0  0  0  0  0  0  0
   -0.7090   17.3810  -34.2720 C   0  0  0  0  0  0  0  0  0  0  0  0
   -1.6610   16.4220  -33.9170 C   0  0  0  0  0  0  0  0  0  0  0  0
   -3.0020   16.7870  -33.7780 C   0  0  0  0  0  0  0  0  0  0  0  0
   -3.3980   18.1180  -33.9860 C   0  0  0  0  0  0  0  0  0  0  0  0
   -5.0930   18.5650  -33.8040 S   0  0  0  0  0  0  0  0  0  0  0  0
   -5.7650   18.6380  -35.1470 O   0  0  0  0  0  0  0  0  0  0  0  0
   -5.7920   17.5280  -32.9690 O   0  0  0  0  0  0  0  0  0  0  0  0
   -5.1970   20.1480  -33.0370 C   0  0  0  0  0  0  0  0  0  0  0  0
   -6.4390   20.6800  -32.6650 C   0  0  0  0  0  0  0  0  0  0  0  0
   -6.5070   21.9090  -32.0020 C   0  0  0  0  0  0  0  0  0  0  0  0
   -5.3290   22.6140  -31.6960 C   0  0  0  0  0  0  0  0  0  0  0  0
   -5.3550   23.8700  -31.0060 N   0  0  0  0  0  0  0  0  0  0  0  0
   -4.2450   24.5020  -30.3570 C   0  0  0  0  0  0  0  0  0  0  0  0
   -3.8580   25.6450  -30.7200 O   0  0  0  0  0  0  0  0  0  0  0  0
   -3.5590   23.8040  -29.2500 C   0  0  0  0  0  0  0  0  0  0  0  0
   -4.0270   22.5360  -28.8640 C   0  0  0  0  0  0  0  0  0  0  0  0
   -3.3760   21.8110  -27.8630 C   0  0  0  0  0  0  0  0  0  0  0  0
   -2.2510   22.3440  -27.2360 C   0  0  0  0  0  0  0  0  0  0  0  0
   -1.7820   23.6070  -27.5970 C   0  0  0  0  0  0  0  0  0  0  0  0
   -2.4340   24.3530  -28.5840 C   0  0  0  0  0  0  0  0  0  0  0  0
   -1.9570   25.6400  -28.8520 O   0  0  0  0  0  0  0  0  0  0  0  0
   -4.0940   22.0950  -32.1020 C   0  0  0  0  0  0  0  0  0  0  0  0
   -4.0250   20.8620  -32.7560 C   0  0  0  0  0  0  0  0  0  0  0  0
   -2.4410   19.0780  -34.3510 C   0  0  0  0  0  0  0  0  0  0  0  0
    3.3468   18.9706  -31.5804 H   0  0  0  0  0  0  0  0  0  0  0  0
    3.1051   17.9848  -33.0625 H   0  0  0  0  0  0  0  0  0  0  0  0
    2.6710   19.7279  -33.0625 H   0  0  0  0  0  0  0  0  0  0  0  0
    0.1292   18.3251  -29.6336 H   0  0  0  0  0  0  0  0  0  0  0  0
   -1.4108   20.0448  -28.6934 H   0  0  0  0  0  0  0  0  0  0  0  0
   -1.9153   22.1165  -29.9894 H   0  0  0  0  0  0  0  0  0  0  0  0
   -0.9270   22.4426  -32.2531 H   0  0  0  0  0  0  0  0  0  0  0  0
    0.3472   17.0921  -34.3763 H   0  0  0  0  0  0  0  0  0  0  0  0
   -1.3544   15.3794  -33.7470 H   0  0  0  0  0  0  0  0  0  0  0  0
   -3.7507   16.0289  -33.5046 H   0  0  0  0  0  0  0  0  0  0  0  0
   -7.3629   20.1291  -32.8953 H   0  0  0  0  0  0  0  0  0  0  0  0
   -7.4848   22.3259  -31.7188 H   0  0  0  0  0  0  0  0  0  0  0  0
   -4.9146   22.1104  -29.3550 H   0  0  0  0  0  0  0  0  0  0  0  0
   -3.7512   20.8195  -27.5696 H   0  0  0  0  0  0  0  0  0  0  0  0
   -1.7324   21.7679  -26.4555 H   0  0  0  0  0  0  0  0  0  0  0  0
   -0.8913   24.0200  -27.1009 H   0  0  0  0  0  0  0  0  0  0  0  0
   -2.5600   26.4460  -28.9730 H   0  0  0  0  0  0  0  0  0  0  0  0
   -3.1718   22.6614  -31.9050 H   0  0  0  0  0  0  0  0  0  0  0  0
   -3.0481   20.4511  -33.0508 H   0  0  0  0  0  0  0  0  0  0  0  0
   -2.7473   20.1203  -34.5237 H   0  0  0  0  0  0  0  0  0  0  0  0
  1  2  1  0
  2  3  1  0
  3  4  2  0
  4  5  1  0
  5  6  2  0
  6  7  1  0
  7  8  2  0
  8  9  1  0
  9 10  1  0
 10 11  2  0
 10 12  2  0
 10 13  1  0
 13 14  2  0
 14 15  1  0
 15 16  2  0
 16 17  1  0
 17 18  1  0
 18 19  2  0
 18 20  2  0
 18 21  1  0
 21 22  2  0
 22 23  1  0
 23 24  2  0
 24 25  1  0
 25 26  1  0
 26 27  2  0
 26 28  1  0
 28 29  2  0
 29 30  1  0
 30 31  2  0
 31 32  1  0
 32 33  2  0
 33 34  1  0
 24 35  1  0
 35 36  2  0
 17 37  2  0
  8  3  1  0
 37 13  1  0
 36 21  1  0
 33 28  1  0
  1 38  1  0
  1 39  1  0
  1 40  1  0
  4 41  1  0
  5 42  1  0
  6 43  1  0
  7 44  1  0
 14 45  1  0
 15 46  1  0
 16 47  1  0
 22 48  1  0
 23 49  1  0
 29 50  1  0
 30 51  1  0
 31 52  1  0
 32 53  1  0
 34 54  1  0
 35 55  1  0
 36 56  1  0
 37 57  1  0
M  CHG  2   9  -1  25  -1
M  END
>  <UniqueID>  (25) 
24

>  <SMILES>  (25) 
COc1ccccc1[N-]S(=O)(=O)c1cccc(S(=O)(=O)c2ccc([N-]C(=O)c3ccccc3O)cc2)c1

>  <Energy>  (25) 
81.2567050507241

>  <Genealogy>  (25) 
COc1ccccc1[N-]S(=O)(=O)c1cccc(S(=O)(=O)c2ccc([N-]C(=O)c3ccccc3O)cc2)c1 (protonated)
COc1ccccc1[N-]S(=O)(=O)c1cccc(S(=O)(=O)c2ccc([N-]C(=O)c3ccccc3O)cc2)c1 (3D coordinates assigned)
COc1ccccc1[N-]S(=O)(=O)c1cccc(S(=O)(=O)c2ccc([N-]C(=O)c3ccccc3O)cc2)c1 (optimized conformer: 81.2567050507241 kcal/mol)

>  <smiles>  (25) 
COc1ccccc1NS(=O)(=O)c1cccc(S(=O)(=O)c2ccc(NC(=O)c3ccccc3O)cc2)c1

>  <score_type>  (25) 
oracle

>  <origin>  (25) 
adgpu

>  <m_score__min__energy>  (25) 
-12.73

>  <m_primary>  (25) 
energy

$$$$
25:0
     RDKit          3D

 38 40  0  0  0  0  0  0  0  0999 V2000
    3.0760   23.2660  -36.8300 O   0  0  0  0  0  0  0  0  0  0  0  0
    1.8680   23.1510  -36.4950 C   0  0  0  0  0  0  0  0  0  0  0  0
    0.9650   24.1480  -36.8400 O   0  0  0  0  0  0  0  0  0  0  0  0
    1.4120   21.9720  -35.7510 C   0  0  0  0  0  0  0  0  0  0  0  0
    0.8770   20.8290  -36.3080 C   0  0  0  0  0  0  0  0  0  0  0  0
    0.5940   19.9870  -35.2570 C   0  0  0  0  0  0  0  0  0  0  0  0
    0.9700   20.6590  -34.1040 C   0  0  0  0  0  0  0  0  0  0  0  0
    0.8690   20.1500  -32.7130 C   0  0  0  0  0  0  0  0  0  0  0  0
    1.9630   19.5260  -32.0800 C   0  0  0  0  0  0  0  0  0  0  0  0
    1.8530   19.0650  -30.7650 C   0  0  0  0  0  0  0  0  0  0  0  0
    0.6520   19.2110  -30.0640 C   0  0  0  0  0  0  0  0  0  0  0  0
    0.5400   18.6430  -28.4020 S   0  0  0  0  0  0  0  0  0  0  0  0
    1.9270   18.5250  -27.8370 O   0  0  0  0  0  0  0  0  0  0  0  0
   -0.1270   17.2960  -28.3350 O   0  0  0  0  0  0  0  0  0  0  0  0
   -0.3660   19.7790  -27.4550 N   0  0  0  0  0  0  0  0  0  0  0  0
   -0.7900   21.0750  -27.8980 C   0  0  0  0  0  0  0  0  0  0  0  0
   -2.1360   21.2680  -28.2080 C   0  0  0  0  0  0  0  0  0  0  0  0
   -2.5970   22.5160  -28.6300 C   0  0  0  0  0  0  0  0  0  0  0  0
   -1.7150   23.6030  -28.7550 C   0  0  0  0  0  0  0  0  0  0  0  0
   -2.2410   24.9150  -29.2080 C   0  0  0  0  0  0  0  0  0  0  0  0
   -1.6300   25.9840  -28.9480 O   0  0  0  0  0  0  0  0  0  0  0  0
   -3.4230   24.9840  -29.9390 O   0  0  0  0  0  0  0  0  0  0  0  0
   -0.3470   23.4090  -28.4530 C   0  0  0  0  0  0  0  0  0  0  0  0
    0.5660   24.4570  -28.5710 O   0  0  0  0  0  0  0  0  0  0  0  0
    0.1040   22.1510  -28.0270 C   0  0  0  0  0  0  0  0  0  0  0  0
   -0.4450   19.8190  -30.6880 C   0  0  0  0  0  0  0  0  0  0  0  0
   -0.3370   20.2870  -32.0010 C   0  0  0  0  0  0  0  0  0  0  0  0
    1.4710   21.8760  -34.4090 N   0  0  0  0  0  0  0  0  0  0  0  0
    0.7102   20.6306  -37.3770 H   0  0  0  0  0  0  0  0  0  0  0  0
    0.1560   18.9799  -35.3193 H   0  0  0  0  0  0  0  0  0  0  0  0
    2.9103   19.4009  -32.6249 H   0  0  0  0  0  0  0  0  0  0  0  0
    2.7154   18.5851  -30.2793 H   0  0  0  0  0  0  0  0  0  0  0  0
   -2.8412   20.4285  -28.1191 H   0  0  0  0  0  0  0  0  0  0  0  0
   -3.6626   22.6503  -28.8674 H   0  0  0  0  0  0  0  0  0  0  0  0
    0.2650   25.4240  -28.6010 H   0  0  0  0  0  0  0  0  0  0  0  0
    1.1686   22.0054  -27.7915 H   0  0  0  0  0  0  0  0  0  0  0  0
   -1.3943   19.9285  -30.1432 H   0  0  0  0  0  0  0  0  0  0  0  0
   -1.2024   20.7665  -32.4817 H   0  0  0  0  0  0  0  0  0  0  0  0
  1  2  2  0
  2  3  1  0
  2  4  1  0
  4  5  2  0
  5  6  1  0
  6  7  2  0
  7  8  1  0
  8  9  2  0
  9 10  1  0
 10 11  2  0
 11 12  1  0
 12 13  2  0
 12 14  2  0
 12 15  1  0
 15 16  1  0
 16 17  2  0
 17 18  1  0
 18 19  2  0
 19 20  1  0
 20 21  2  0
 20 22  1  0
 19 23  1  0
 23 24  1  0
 23 25  2  0
 11 26  1  0
 26 27  2  0
  7 28  1  0
 28  4  1  0
 27  8  1  0
 25 16  1  0
  5 29  1  0
  6 30  1  0
  9 31  1  0
 10 32  1  0
 17 33  1  0
 18 34  1  0
 24 35  1  0
 25 36  1  0
 26 37  1  0
 27 38  1  0
M  CHG  4   3  -1  15  -1  22  -1  28  -1
M  END
>  <UniqueID>  (26) 
25

>  <SMILES>  (26) 
O=C([O-])c1ccc(-c2ccc(S(=O)(=O)[N-]c3ccc(C(=O)[O-])c(O)c3)cc2)[n-]1

>  <Energy>  (26) 
70.98341879662392

>  <Genealogy>  (26) 
O=C([O-])c1ccc(-c2ccc(S(=O)(=O)[N-]c3ccc(C(=O)[O-])c(O)c3)cc2)[n-]1 (protonated)
O=C([O-])c1ccc(-c2ccc(S(=O)(=O)[N-]c3ccc(C(=O)[O-])c(O)c3)cc2)[n-]1 (3D coordinates assigned)
O=C([O-])c1ccc(-c2ccc(S(=O)(=O)[N-]c3ccc(C(=O)[O-])c(O)c3)cc2)[n-]1 (optimized conformer: 70.98341879662392 kcal/mol)

>  <smiles>  (26) 
O=C(O)c1ccc(-c2ccc(S(=O)(=O)Nc3ccc(C(=O)O)c(O)c3)cc2)[nH]1

>  <score_type>  (26) 
oracle

>  <origin>  (26) 
adgpu

>  <m_score__min__energy>  (26) 
-11.539999999999999

>  <m_primary>  (26) 
energy

$$$$
26:0
     RDKit          3D

 44 47  0  0  0  0  0  0  0  0999 V2000
   -5.9480   24.3450  -30.0370 O   0  0  0  0  0  0  0  0  0  0  0  0
   -4.4620   24.1940  -30.1990 S   0  0  0  0  0  0  0  0  0  0  0  0
   -3.9100   25.4560  -30.8020 O   0  0  0  0  0  0  0  0  0  0  0  0
   -3.7410   23.9440  -28.6430 N   0  0  0  0  0  0  0  0  0  0  0  0
   -2.6790   24.7420  -28.1130 C   0  0  0  0  0  0  0  0  0  0  0  0
   -2.4470   24.9250  -26.7500 C   0  0  0  0  0  0  0  0  0  0  0  0
   -1.1000   25.9200  -26.5990 S   0  0  0  0  0  0  0  0  0  0  0  0
   -0.8670   26.0680  -28.2560 C   0  0  0  0  0  0  0  0  0  0  0  0
   -1.8030   25.3730  -28.9390 N   0  0  0  0  0  0  0  0  0  0  0  0
   -4.1390   22.8090  -31.2380 C   0  0  0  0  0  0  0  0  0  0  0  0
   -3.0540   21.9690  -30.9580 C   0  0  0  0  0  0  0  0  0  0  0  0
   -2.7690   20.8850  -31.7920 C   0  0  0  0  0  0  0  0  0  0  0  0
   -3.5590   20.6400  -32.9300 C   0  0  0  0  0  0  0  0  0  0  0  0
   -3.3110   19.5660  -33.7960 O   0  0  0  0  0  0  0  0  0  0  0  0
   -3.1840   18.2270  -33.4090 C   0  0  0  0  0  0  0  0  0  0  0  0
   -2.0840   17.5770  -32.8610 C   0  0  0  0  0  0  0  0  0  0  0  0
   -2.3980   16.3080  -32.7120 O   0  0  0  0  0  0  0  0  0  0  0  0
   -3.6130   16.0930  -33.1280 N   0  0  0  0  0  0  0  0  0  0  0  0
   -4.2250   14.8610  -33.1450 O   0  0  0  0  0  0  0  0  0  0  0  0
   -4.1360   17.2470  -33.5700 C   0  0  0  0  0  0  0  0  0  0  0  0
   -5.7190   17.4370  -34.3090 S   0  0  0  0  0  0  0  0  0  0  0  0
   -6.3230   16.0860  -34.5650 O   0  0  0  0  0  0  0  0  0  0  0  0
   -5.5850   18.1510  -35.6250 O   0  0  0  0  0  0  0  0  0  0  0  0
   -6.7480   18.3600  -33.2200 C   0  0  0  0  0  0  0  0  0  0  0  0
   -7.3090   17.7530  -32.0870 C   0  0  0  0  0  0  0  0  0  0  0  0
   -8.1460   18.4870  -31.2390 C   0  0  0  0  0  0  0  0  0  0  0  0
   -8.4280   19.8270  -31.5230 C   0  0  0  0  0  0  0  0  0  0  0  0
   -7.8780   20.4330  -32.6550 C   0  0  0  0  0  0  0  0  0  0  0  0
   -7.0390   19.7020  -33.5030 C   0  0  0  0  0  0  0  0  0  0  0  0
   -4.6590   21.4640  -33.1900 C   0  0  0  0  0  0  0  0  0  0  0  0
   -4.9470   22.5460  -32.3530 C   0  0  0  0  0  0  0  0  0  0  0  0
   -3.0366   24.4973  -25.9257 H   0  0  0  0  0  0  0  0  0  0  0  0
   -0.0604   26.6525  -28.7226 H   0  0  0  0  0  0  0  0  0  0  0  0
   -2.4236   22.1635  -30.0778 H   0  0  0  0  0  0  0  0  0  0  0  0
   -1.9240   20.2208  -31.5580 H   0  0  0  0  0  0  0  0  0  0  0  0
   -1.1219   18.0412  -32.5986 H   0  0  0  0  0  0  0  0  0  0  0  0
   -4.8940   14.6330  -33.8690 H   0  0  0  0  0  0  0  0  0  0  0  0
   -7.0907   16.6981  -31.8645 H   0  0  0  0  0  0  0  0  0  0  0  0
   -8.5821   18.0099  -30.3490 H   0  0  0  0  0  0  0  0  0  0  0  0
   -9.0835   20.4043  -30.8544 H   0  0  0  0  0  0  0  0  0  0  0  0
   -8.1047   21.4856  -32.8799 H   0  0  0  0  0  0  0  0  0  0  0  0
   -6.6067   20.1812  -34.3938 H   0  0  0  0  0  0  0  0  0  0  0  0
   -5.3017   21.2592  -34.0589 H   0  0  0  0  0  0  0  0  0  0  0  0
   -5.8099   23.1928  -32.5699 H   0  0  0  0  0  0  0  0  0  0  0  0
  1  2  2  0
  2  3  2  0
  2  4  1  0
  4  5  1  0
  5  6  2  0
  6  7  1  0
  7  8  1  0
  8  9  2  0
  2 10  1  0
 10 11  2  0
 11 12  1  0
 12 13  2  0
 13 14  1  0
 14 15  1  0
 15 16  2  0
 16 17  1  0
 17 18  1  0
 18 19  1  0
 18 20  2  0
 20 21  1  0
 21 22  2  0
 21 23  2  0
 21 24  1  0
 24 25  2  0
 25 26  1  0
 26 27  2  0
 27 28  1  0
 28 29  2  0
 13 30  1  0
 30 31  2  0
  9  5  1  0
 31 10  1  0
 20 15  1  0
 29 24  1  0
  6 32  1  0
  8 33  1  0
 11 34  1  0
 12 35  1  0
 16 36  1  0
 19 37  1  0
 25 38  1  0
 26 39  1  0
 27 40  1  0
 28 41  1  0
 29 42  1  0
 30 43  1  0
 31 44  1  0
M  CHG  2   4  -1  18   1
M  END
>  <UniqueID>  (27) 
26

>  <SMILES>  (27) 
O=S(=O)([N-]c1cscn1)c1ccc(Oc2co[n+](O)c2S(=O)(=O)c2ccccc2)cc1

>  <Energy>  (27) 
120.45935672601576

>  <Genealogy>  (27) 
O=S(=O)([N-]c1cscn1)c1ccc(Oc2co[n+](O)c2S(=O)(=O)c2ccccc2)cc1 (protonated)
O=S(=O)([N-]c1cscn1)c1ccc(Oc2co[n+](O)c2S(=O)(=O)c2ccccc2)cc1 (3D coordinates assigned)
O=S(=O)([N-]c1cscn1)c1ccc(Oc2co[n+](O)c2S(=O)(=O)c2ccccc2)cc1 (optimized conformer: 120.45935672601576 kcal/mol)

>  <smiles>  (27) 
O=S(=O)(Nc1cscn1)c1ccc(Oc2co[n+]([O-])c2S(=O)(=O)c2ccccc2)cc1

>  <score_type>  (27) 
oracle

>  <origin>  (27) 
adgpu

>  <m_score__min__energy>  (27) 
-10.08

>  <m_primary>  (27) 
energy

$$$$
27:0
     RDKit          3D

 38 39  0  0  0  0  0  0  0  0999 V2000
   -9.1090   18.4660  -31.6960 C   0  0  0  0  0  0  0  0  0  0  0  0
   -8.6850   19.3890  -32.6930 O   0  0  0  0  0  0  0  0  0  0  0  0
   -7.5050   20.1440  -32.6220 C   0  0  0  0  0  0  0  0  0  0  0  0
   -7.4750   21.4480  -32.0950 C   0  0  0  0  0  0  0  0  0  0  0  0
   -6.2700   22.1550  -32.0300 C   0  0  0  0  0  0  0  0  0  0  0  0
   -5.0800   21.5720  -32.4910 C   0  0  0  0  0  0  0  0  0  0  0  0
   -3.7750   22.3270  -32.3800 C   0  0  0  0  0  0  0  0  0  0  0  0
   -3.6740   23.0530  -31.1010 N   0  0  0  0  0  0  0  0  0  0  0  0
   -3.7900   22.1550  -29.9280 C   0  0  0  0  0  0  0  0  0  0  0  0
   -3.9700   22.9340  -28.6130 C   0  0  0  0  0  0  0  0  0  0  0  0
   -2.7420   23.7450  -28.2680 C   0  0  0  0  0  0  0  0  0  0  0  0
   -1.9500   23.3640  -27.1710 C   0  0  0  0  0  0  0  0  0  0  0  0
   -0.8170   24.1060  -26.8220 C   0  0  0  0  0  0  0  0  0  0  0  0
   -0.4660   25.2360  -27.5640 C   0  0  0  0  0  0  0  0  0  0  0  0
   -1.2450   25.6260  -28.6550 C   0  0  0  0  0  0  0  0  0  0  0  0
   -2.3790   24.8870  -29.0120 C   0  0  0  0  0  0  0  0  0  0  0  0
   -3.1340   25.2970  -30.1070 O   0  0  0  0  0  0  0  0  0  0  0  0
   -5.1130   20.2740  -33.0240 C   0  0  0  0  0  0  0  0  0  0  0  0
   -6.3180   19.5690  -33.0880 C   0  0  0  0  0  0  0  0  0  0  0  0
   -8.9150   18.8884  -30.6990 H   0  0  0  0  0  0  0  0  0  0  0  0
  -10.1860   18.2731  -31.8092 H   0  0  0  0  0  0  0  0  0  0  0  0
   -8.5537   17.5232  -31.8092 H   0  0  0  0  0  0  0  0  0  0  0  0
   -8.4033   21.9136  -31.7325 H   0  0  0  0  0  0  0  0  0  0  0  0
   -6.2552   23.1737  -31.6152 H   0  0  0  0  0  0  0  0  0  0  0  0
   -2.9420   21.6121  -32.4512 H   0  0  0  0  0  0  0  0  0  0  0  0
   -3.7330   23.0625  -33.1968 H   0  0  0  0  0  0  0  0  0  0  0  0
   -2.7370   23.5190  -31.0700 H   0  0  0  0  0  0  0  0  0  0  0  0
   -4.3860   23.8180  -31.0840 H   0  0  0  0  0  0  0  0  0  0  0  0
   -4.6593   21.4964  -30.0711 H   0  0  0  0  0  0  0  0  0  0  0  0
   -2.8570   21.5772  -29.8524 H   0  0  0  0  0  0  0  0  0  0  0  0
   -4.8282   23.6142  -28.7168 H   0  0  0  0  0  0  0  0  0  0  0  0
   -4.1373   22.2066  -27.8050 H   0  0  0  0  0  0  0  0  0  0  0  0
   -2.2234   22.4757  -26.5827 H   0  0  0  0  0  0  0  0  0  0  0  0
   -0.2022   23.7995  -25.9629 H   0  0  0  0  0  0  0  0  0  0  0  0
    0.4250   25.8193  -27.2886 H   0  0  0  0  0  0  0  0  0  0  0  0
   -0.9666   26.5174  -29.2363 H   0  0  0  0  0  0  0  0  0  0  0  0
   -4.1865   19.8097  -33.3929 H   0  0  0  0  0  0  0  0  0  0  0  0
   -6.3332   18.5527  -33.5086 H   0  0  0  0  0  0  0  0  0  0  0  0
  1  2  1  0
  2  3  1  0
  3  4  2  0
  4  5  1  0
  5  6  2  0
  6  7  1  0
  7  8  1  0
  8  9  1  0
  9 10  1  0
 10 11  1  0
 11 12  2  0
 12 13  1  0
 13 14  2  0
 14 15  1  0
 15 16  2  0
 16 17  1  0
  6 18  1  0
 18 19  2  0
 19  3  1  0
 16 11  1  0
  1 20  1  0
  1 21  1  0
  1 22  1  0
  4 23  1  0
  5 24  1  0
  7 25  1  0
  7 26  1  0
  8 27  1  0
  8 28  1  0
  9 29  1  0
  9 30  1  0
 10 31  1  0
 10 32  1  0
 12 33  1  0
 13 34  1  0
 14 35  1  0
 15 36  1  0
 18 37  1  0
 19 38  1  0
M  CHG  2   8   1  17  -1
M  END
>  <UniqueID>  (28) 
27

>  <SMILES>  (28) 
COc1ccc(C[NH2+]CCc2ccccc2[O-])cc1

>  <Energy>  (28) 
34.13458261721818

>  <Genealogy>  (28) 
COc1ccc(C[NH2+]CCc2ccccc2[O-])cc1 (protonated)
COc1ccc(C[NH2+]CCc2ccccc2[O-])cc1 (3D coordinates assigned)
COc1ccc(C[NH2+]CCc2ccccc2[O-])cc1 (optimized conformer: 34.13458261721818 kcal/mol)

>  <smiles>  (28) 
COc1ccc(CNCCc2ccccc2O)cc1

>  <score_type>  (28) 
oracle

>  <origin>  (28) 
adgpu

>  <m_score__min__energy>  (28) 
-8.7899999999999991

>  <m_primary>  (28) 
energy

$$$$
28:0
     RDKit          3D

 41 43  0  0  0  0  0  0  0  0999 V2000
  -10.4330   21.9854  -31.6338 H   0  0  0  0  0  0  0  0  0  0  0  0
   -9.3470   21.9460  -31.8040 C   0  0  0  0  0  0  0  0  0  0  0  0
   -8.6970   20.7110  -31.8830 C   0  0  0  0  0  0  0  0  0  0  0  0
   -9.2710   19.7795  -31.7697 H   0  0  0  0  0  0  0  0  0  0  0  0
   -7.3170   20.6590  -32.1060 C   0  0  0  0  0  0  0  0  0  0  0  0
   -6.8070   19.6859  -32.1602 H   0  0  0  0  0  0  0  0  0  0  0  0
   -6.5800   21.8450  -32.2610 C   0  0  0  0  0  0  0  0  0  0  0  0
   -5.0940   21.7920  -32.4610 C   0  0  0  0  0  0  0  0  0  0  0  0
   -4.8701   21.7193  -33.5355 H   0  0  0  0  0  0  0  0  0  0  0  0
   -4.6833   20.9128  -31.9430 H   0  0  0  0  0  0  0  0  0  0  0  0
   -4.4910   23.0060  -31.9180 N   0  0  0  0  0  0  0  0  0  0  0  0
   -3.7690   23.0850  -30.8370 C   0  0  0  0  0  0  0  0  0  0  0  0
   -3.2830   24.2960  -30.4690 N   0  0  0  0  0  0  0  0  0  0  0  0
   -2.5250   24.4250  -29.3500 C   0  0  0  0  0  0  0  0  0  0  0  0
   -2.0200   25.6700  -28.9640 O   0  0  0  0  0  0  0  0  0  0  0  0
   -1.2190   25.8480  -27.8010 C   0  0  0  0  0  0  0  0  0  0  0  0
   -1.8399   25.7100  -26.9035 H   0  0  0  0  0  0  0  0  0  0  0  0
   -0.4042   25.1090  -27.8003 H   0  0  0  0  0  0  0  0  0  0  0  0
   -0.7939   26.8625  -27.8003 H   0  0  0  0  0  0  0  0  0  0  0  0
   -2.2530   23.3350  -28.5960 N   0  0  0  0  0  0  0  0  0  0  0  0
   -2.7290   22.1110  -28.9440 C   0  0  0  0  0  0  0  0  0  0  0  0
   -2.4340   20.9550  -28.1330 N   0  0  0  0  0  0  0  0  0  0  0  0
   -3.2790   20.4760  -27.2300 N   0  0  0  0  0  0  0  0  0  0  0  0
   -2.7030   19.4050  -26.6520 C   0  0  0  0  0  0  0  0  0  0  0  0
   -3.3720   18.5510  -25.6280 C   0  0  0  0  0  0  0  0  0  0  0  0
   -3.0974   18.9015  -24.6221 H   0  0  0  0  0  0  0  0  0  0  0  0
   -4.4630   18.6148  -25.7534 H   0  0  0  0  0  0  0  0  0  0  0  0
   -3.0489   17.5070  -25.7534 H   0  0  0  0  0  0  0  0  0  0  0  0
   -1.4630   19.1740  -27.2120 C   0  0  0  0  0  0  0  0  0  0  0  0
   -0.7514   18.3707  -26.9704 H   0  0  0  0  0  0  0  0  0  0  0  0
   -1.3200   20.1820  -28.1450 C   0  0  0  0  0  0  0  0  0  0  0  0
   -0.1220   20.3600  -29.0280 C   0  0  0  0  0  0  0  0  0  0  0  0
    0.7754   20.4933  -28.4060 H   0  0  0  0  0  0  0  0  0  0  0  0
    0.0009   19.4703  -29.6630 H   0  0  0  0  0  0  0  0  0  0  0  0
   -0.2631   21.2470  -29.6630 H   0  0  0  0  0  0  0  0  0  0  0  0
   -3.4910   21.9880  -30.0700 N   0  0  0  0  0  0  0  0  0  0  0  0
   -3.8550   21.0460  -30.3330 H   0  0  0  0  0  0  0  0  0  0  0  0
   -7.2390   23.0830  -32.1640 C   0  0  0  0  0  0  0  0  0  0  0  0
   -6.6676   24.0176  -32.2638 H   0  0  0  0  0  0  0  0  0  0  0  0
   -8.6190   23.1300  -31.9410 C   0  0  0  0  0  0  0  0  0  0  0  0
   -9.1317   24.1009  -31.8734 H   0  0  0  0  0  0  0  0  0  0  0  0
  1  2  1  0
  2  3  2  0
  3  4  1  0
  3  5  1  0
  5  6  1  0
  5  7  2  0
  7  8  1  0
  8  9  1  0
  8 10  1  0
  8 11  1  0
 11 12  2  0
 12 13  1  0
 13 14  2  0
 14 15  1  0
 15 16  1  0
 16 17  1  0
 16 18  1  0
 16 19  1  0
 14 20  1  0
 20 21  2  0
 21 22  1  0
 22 23  1  0
 23 24  2  0
 24 25  1  0
 25 26  1  0
 25 27  1  0
 25 28  1  0
 24 29  1  0
 29 30  1  0
 29 31  2  0
 31 32  1  0
 32 33  1  0
 32 34  1  0
 32 35  1  0
 21 36  1  0
 36 37  1  0
  7 38  1  0
 38 39  1  0
 38 40  2  0
 40 41  1  0
 40  2  1  0
 36 12  1  0
 31 22  1  0
M  END
>  <UniqueID>  (29) 
28

>  <SMILES>  (29) 
COc1nc(-n2nc(C)cc2C)[nH]/c(=N\Cc2ccccc2)n1

>  <Energy>  (29) 
71.09671508292696

>  <Genealogy>  (29) 
COc1nc(-n2nc(C)cc2C)[nH]/c(=N\Cc2ccccc2)n1 (cis-trans isomerization)
COc1nc(-n2nc(C)cc2C)[nH]/c(=N\Cc2ccccc2)n1 (3D coordinates assigned)
COc1nc(-n2nc(C)cc2C)[nH]/c(=N\Cc2ccccc2)n1 (optimized conformer: 71.09671508292696 kcal/mol)

>  <smiles>  (29) 
COc1nc(-n2nc(C)cc2C)[nH]c(=NCc2ccccc2)n1

>  <score_type>  (29) 
oracle

>  <origin>  (29) 
adgpu

>  <m_score__min__energy>  (29) 
-8.2699999999999996

>  <m_primary>  (29) 
energy

$$$$
29:0
     RDKit          3D

 52 55  0  0  0  0  0  0  0  0999 V2000
   -3.5170   21.5930  -32.8150 C   0  0  0  0  0  0  0  0  0  0  0  0
   -3.3470   20.1840  -32.7190 O   0  0  0  0  0  0  0  0  0  0  0  0
   -3.7400   19.3040  -33.7340 C   0  0  0  0  0  0  0  0  0  0  0  0
   -2.9130   18.4990  -34.2390 O   0  0  0  0  0  0  0  0  0  0  0  0
   -5.0980   19.2810  -34.1790 N   0  0  0  0  0  0  0  0  0  0  0  0
   -6.2200   19.1580  -33.2980 C   0  0  0  0  0  0  0  0  0  0  0  0
   -6.7620   20.3210  -32.7400 C   0  0  0  0  0  0  0  0  0  0  0  0
   -7.9190   20.2590  -31.9480 C   0  0  0  0  0  0  0  0  0  0  0  0
   -8.5700   21.4480  -31.4810 N   0  0  0  0  0  0  0  0  0  0  0  0
   -8.1300   22.7920  -31.7320 C   0  0  0  0  0  0  0  0  0  0  0  0
   -8.8980   23.5770  -32.3480 O   0  0  0  0  0  0  0  0  0  0  0  0
   -6.8320   23.2500  -31.3240 N   0  0  0  0  0  0  0  0  0  0  0  0
   -6.3280   23.2760  -30.0770 C   0  0  0  0  0  0  0  0  0  0  0  0
   -5.0780   23.8540  -30.1770 C   0  0  0  0  0  0  0  0  0  0  0  0
   -4.1510   24.1940  -29.0720 C   0  0  0  0  0  0  0  0  0  0  0  0
   -4.6040   24.2720  -27.7420 C   0  0  0  0  0  0  0  0  0  0  0  0
   -3.7270   24.6260  -26.7140 C   0  0  0  0  0  0  0  0  0  0  0  0
   -2.3800   24.9150  -26.9900 C   0  0  0  0  0  0  0  0  0  0  0  0
   -1.4520   25.3030  -25.8960 C   0  0  0  0  0  0  0  0  0  0  0  0
   -1.7310   26.4210  -25.0860 C   0  0  0  0  0  0  0  0  0  0  0  0
   -0.8550   26.7850  -24.0590 C   0  0  0  0  0  0  0  0  0  0  0  0
    0.3040   26.0410  -23.8270 C   0  0  0  0  0  0  0  0  0  0  0  0
    0.5910   24.9310  -24.6240 C   0  0  0  0  0  0  0  0  0  0  0  0
   -0.2810   24.5620  -25.6550 C   0  0  0  0  0  0  0  0  0  0  0  0
   -1.9270   24.8340  -28.3180 C   0  0  0  0  0  0  0  0  0  0  0  0
   -2.8040   24.4790  -29.3470 C   0  0  0  0  0  0  0  0  0  0  0  0
   -4.8500   24.1290  -31.4790 N   0  0  0  0  0  0  0  0  0  0  0  0
   -5.9270   23.7480  -32.1500 N   0  0  0  0  0  0  0  0  0  0  0  0
   -8.4600   19.0130  -31.6200 C   0  0  0  0  0  0  0  0  0  0  0  0
   -7.8920   17.8410  -32.1270 C   0  0  0  0  0  0  0  0  0  0  0  0
   -6.7700   17.9010  -32.9780 C   0  0  0  0  0  0  0  0  0  0  0  0
   -6.1720   16.7430  -33.5000 O   0  0  0  0  0  0  0  0  0  0  0  0
   -6.8640   15.7370  -34.2330 C   0  0  0  0  0  0  0  0  0  0  0  0
   -3.5692   22.0257  -31.8050 H   0  0  0  0  0  0  0  0  0  0  0  0
   -2.6650   22.0290  -33.3571 H   0  0  0  0  0  0  0  0  0  0  0  0
   -4.4483   21.8139  -33.3571 H   0  0  0  0  0  0  0  0  0  0  0  0
   -6.2776   21.2914  -32.9235 H   0  0  0  0  0  0  0  0  0  0  0  0
   -6.8144   22.9100  -29.1608 H   0  0  0  0  0  0  0  0  0  0  0  0
   -5.6567   24.0526  -27.5101 H   0  0  0  0  0  0  0  0  0  0  0  0
   -4.0944   24.6790  -25.6785 H   0  0  0  0  0  0  0  0  0  0  0  0
   -2.6427   27.0107  -25.2623 H   0  0  0  0  0  0  0  0  0  0  0  0
   -1.0793   27.6603  -23.4316 H   0  0  0  0  0  0  0  0  0  0  0  0
    0.9902   26.3293  -23.0170 H   0  0  0  0  0  0  0  0  0  0  0  0
    1.5041   24.3454  -24.4413 H   0  0  0  0  0  0  0  0  0  0  0  0
   -0.0491   23.6873  -26.2804 H   0  0  0  0  0  0  0  0  0  0  0  0
   -0.8739   25.0517  -28.5495 H   0  0  0  0  0  0  0  0  0  0  0  0
   -2.4354   24.4224  -30.3818 H   0  0  0  0  0  0  0  0  0  0  0  0
   -9.3375   18.9543  -30.9593 H   0  0  0  0  0  0  0  0  0  0  0  0
   -8.3235   16.8650  -31.8601 H   0  0  0  0  0  0  0  0  0  0  0  0
   -7.3447   15.0382  -33.5325 H   0  0  0  0  0  0  0  0  0  0  0  0
   -7.6309   16.2069  -34.8663 H   0  0  0  0  0  0  0  0  0  0  0  0
   -6.1509   15.1889  -34.8663 H   0  0  0  0  0  0  0  0  0  0  0  0
  1  2  1  0
  2  3  1  0
  3  4  2  0
  3  5  1  0
  5  6  1  0
  6  7  2  0
  7  8  1  0
  8  9  1  0
  9 10  1  0
 10 11  2  0
 10 12  1  0
 12 13  1  0
 13 14  2  0
 14 15  1  0
 15 16  2  0
 16 17  1  0
 17 18  2  0
 18 19  1  0
 19 20  2  0
 20 21  1  0
 21 22  2  0
 22 23  1  0
 23 24  2  0
 18 25  1  0
 25 26  2  0
 14 27  1  0
 27 28  2  0
  8 29  2  0
 29 30  1  0
 30 31  2  0
 31 32  1  0
 32 33  1  0
 31  6  1  0
 28 12  1  0
 26 15  1  0
 24 19  1  0
  1 34  1  0
  1 35  1  0
  1 36  1  0
  7 37  1  0
 13 38  1  0
 16 39  1  0
 17 40  1  0
 20 41  1  0
 21 42  1  0
 22 43  1  0
 23 44  1  0
 24 45  1  0
 25 46  1  0
 26 47  1  0
 29 48  1  0
 30 49  1  0
 33 50  1  0
 33 51  1  0
 33 52  1  0
M  CHG  2   5  -1   9  -1
M  END
>  <UniqueID>  (30) 
29

>  <SMILES>  (30) 
COC(=O)[N-]c1cc([N-]C(=O)n2cc(-c3ccc(-c4ccccc4)cc3)nn2)ccc1OC

>  <Energy>  (30) 
103.13964559463416

>  <Genealogy>  (30) 
COC(=O)[N-]c1cc([N-]C(=O)n2cc(-c3ccc(-c4ccccc4)cc3)nn2)ccc1OC (protonated)
COC(=O)[N-]c1cc([N-]C(=O)n2cc(-c3ccc(-c4ccccc4)cc3)nn2)ccc1OC (3D coordinates assigned)
COC(=O)[N-]c1cc([N-]C(=O)n2cc(-c3ccc(-c4ccccc4)cc3)nn2)ccc1OC (optimized conformer: 103.13964559463416 kcal/mol)

>  <smiles>  (30) 
COC(=O)Nc1cc(NC(=O)n2cc(-c3ccc(-c4ccccc4)cc3)nn2)ccc1OC

>  <score_type>  (30) 
oracle

>  <origin>  (30) 
adgpu

>  <m_score__min__energy>  (30) 
-10.449999999999999

>  <m_primary>  (30) 
energy

$$$$
30:0
     RDKit          3D

 44 46  0  0  0  0  0  0  0  0999 V2000
   -8.2560   20.7940  -32.3200 C   0  0  0  0  0  0  0  0  0  0  0  0
   -7.3270   21.8880  -31.8600 C   0  0  0  0  0  0  0  0  0  0  0  0
   -7.8910   23.0330  -31.2720 C   0  0  0  0  0  0  0  0  0  0  0  0
   -7.0870   24.0900  -30.8480 C   0  0  0  0  0  0  0  0  0  0  0  0
   -5.6970   24.0310  -31.0070 C   0  0  0  0  0  0  0  0  0  0  0  0
   -4.8300   25.1420  -30.5470 C   0  0  0  0  0  0  0  0  0  0  0  0
   -5.3110   26.3030  -30.4570 O   0  0  0  0  0  0  0  0  0  0  0  0
   -3.4590   24.9370  -30.1770 N   0  0  0  0  0  0  0  0  0  0  0  0
   -2.9890   23.9910  -29.2070 C   0  0  0  0  0  0  0  0  0  0  0  0
   -3.6140   22.7390  -29.1400 C   0  0  0  0  0  0  0  0  0  0  0  0
   -3.1740   21.7750  -28.2290 C   0  0  0  0  0  0  0  0  0  0  0  0
   -2.1170   22.0630  -27.3640 C   0  0  0  0  0  0  0  0  0  0  0  0
   -1.5110   23.3220  -27.3950 C   0  0  0  0  0  0  0  0  0  0  0  0
   -1.9460   24.2950  -28.3040 C   0  0  0  0  0  0  0  0  0  0  0  0
   -1.1610   26.0400  -28.1890 Br  0  0  0  0  0  0  0  0  0  0  0  0
   -5.1290   22.9110  -31.6280 C   0  0  0  0  0  0  0  0  0  0  0  0
   -5.9210   21.8270  -32.0450 C   0  0  0  0  0  0  0  0  0  0  0  0
   -5.0820   20.4330  -32.7690 S   0  0  0  0  0  0  0  0  0  0  0  0
   -5.1390   19.2360  -31.8630 O   0  0  0  0  0  0  0  0  0  0  0  0
   -5.7930   20.0620  -34.0420 O   0  0  0  0  0  0  0  0  0  0  0  0
   -3.4110   20.7910  -33.1370 N   0  0  0  0  0  0  0  0  0  0  0  0
   -2.7910   19.6840  -33.8830 C   0  0  0  0  0  0  0  0  0  0  0  0
   -1.2710   19.9090  -34.0280 C   0  0  0  0  0  0  0  0  0  0  0  0
   -0.9080   21.2170  -33.6320 O   0  0  0  0  0  0  0  0  0  0  0  0
   -1.1870   21.3970  -32.2540 C   0  0  0  0  0  0  0  0  0  0  0  0
   -2.6520   21.0570  -31.9070 C   0  0  0  0  0  0  0  0  0  0  0  0
   -8.6869   20.2866  -31.4443 H   0  0  0  0  0  0  0  0  0  0  0  0
   -9.0642   21.2298  -32.9257 H   0  0  0  0  0  0  0  0  0  0  0  0
   -7.6950   20.0671  -32.9257 H   0  0  0  0  0  0  0  0  0  0  0  0
   -8.9818   23.0961  -31.1446 H   0  0  0  0  0  0  0  0  0  0  0  0
   -7.5473   24.9757  -30.3858 H   0  0  0  0  0  0  0  0  0  0  0  0
   -4.4572   22.5131  -29.8093 H   0  0  0  0  0  0  0  0  0  0  0  0
   -3.6607   20.7891  -28.1936 H   0  0  0  0  0  0  0  0  0  0  0  0
   -1.7608   21.2987  -26.6576 H   0  0  0  0  0  0  0  0  0  0  0  0
   -0.6879   23.5501  -26.7018 H   0  0  0  0  0  0  0  0  0  0  0  0
   -4.0418   22.8792  -31.7925 H   0  0  0  0  0  0  0  0  0  0  0  0
   -2.9669   18.7416  -33.3435 H   0  0  0  0  0  0  0  0  0  0  0  0
   -3.2395   19.6382  -34.8864 H   0  0  0  0  0  0  0  0  0  0  0  0
   -0.7388   19.1822  -33.3967 H   0  0  0  0  0  0  0  0  0  0  0  0
   -0.9985   19.7768  -35.0855 H   0  0  0  0  0  0  0  0  0  0  0  0
   -0.5234   20.7426  -31.6697 H   0  0  0  0  0  0  0  0  0  0  0  0
   -1.0193   22.4566  -32.0109 H   0  0  0  0  0  0  0  0  0  0  0  0
   -2.6764   20.1650  -31.2638 H   0  0  0  0  0  0  0  0  0  0  0  0
   -3.1055   21.9094  -31.3800 H   0  0  0  0  0  0  0  0  0  0  0  0
  1  2  1  0
  2  3  2  0
  3  4  1  0
  4  5  2  0
  5  6  1  0
  6  7  2  0
  6  8  1  0
  8  9  1  0
  9 10  2  0
 10 11  1  0
 11 12  2  0
 12 13  1  0
 13 14  2  0
 14 15  1  0
  5 16  1  0
 16 17  2  0
 17 18  1  0
 18 19  2  0
 18 20  2  0
 18 21  1  0
 21 22  1  0
 22 23  1  0
 23 24  1  0
 24 25  1  0
 25 26  1  0
 17  2  1  0
 26 21  1  0
 14  9  1  0
  1 27  1  0
  1 28  1  0
  1 29  1  0
  3 30  1  0
  4 31  1  0
 10 32  1  0
 11 33  1  0
 12 34  1  0
 13 35  1  0
 16 36  1  0
 22 37  1  0
 22 38  1  0
 23 39  1  0
 23 40  1  0
 25 41  1  0
 25 42  1  0
 26 43  1  0
 26 44  1  0
M  CHG  1   8  -1
M  END
>  <UniqueID>  (31) 
30

>  <SMILES>  (31) 
Cc1ccc(C(=O)[N-]c2ccccc2Br)cc1S(=O)(=O)N1CCOCC1

>  <Energy>  (31) 
64.71005633262249

>  <Genealogy>  (31) 
Cc1ccc(C(=O)[N-]c2ccccc2Br)cc1S(=O)(=O)N1CCOCC1 (protonated)
Cc1ccc(C(=O)[N-]c2ccccc2Br)cc1S(=O)(=O)N1CCOCC1 (3D coordinates assigned)
Cc1ccc(C(=O)[N-]c2ccccc2Br)cc1S(=O)(=O)N1CCOCC1 (nonaromatic ring conformer: 64.71005633262249 kcal/mol)

>  <smiles>  (31) 
Cc1ccc(C(=O)Nc2ccccc2Br)cc1S(=O)(=O)N1CCOCC1

>  <score_type>  (31) 
oracle

>  <origin>  (31) 
adgpu

>  <m_score__min__energy>  (31) 
-10.390000000000001

>  <m_primary>  (31) 
energy

$$$$
31:0
     RDKit          3D

 78 81  0  0  0  0  0  0  0  0999 V2000
   -6.3670   25.3320  -30.2030 C   0  0  0  0  0  0  0  0  0  0  0  0
   -6.8280   23.9800  -30.6650 C   0  0  0  0  0  0  0  0  0  0  0  0
   -6.8020   23.6400  -32.0280 C   0  0  0  0  0  0  0  0  0  0  0  0
   -7.2210   22.3720  -32.4450 C   0  0  0  0  0  0  0  0  0  0  0  0
   -7.6570   21.4300  -31.5050 C   0  0  0  0  0  0  0  0  0  0  0  0
   -8.1860   19.8340  -32.0360 S   0  0  0  0  0  0  0  0  0  0  0  0
   -8.9880   19.2240  -30.9200 O   0  0  0  0  0  0  0  0  0  0  0  0
   -9.0800   19.9810  -33.2380 O   0  0  0  0  0  0  0  0  0  0  0  0
   -6.8200   18.7980  -32.4180 N   0  0  2  0  0  0  0  0  0  0  0  0
   -5.7390   19.6170  -33.0140 C   0  0  0  0  0  0  0  0  0  0  0  0
   -4.6410   19.9720  -32.0310 C   0  0  0  0  0  0  0  0  0  0  0  0
   -4.7160   19.5480  -30.8440 O   0  0  0  0  0  0  0  0  0  0  0  0
   -3.5580   20.8520  -32.4100 N   0  0  0  0  0  0  0  0  0  0  0  0
   -2.8310   20.6450  -33.6700 C   0  0  0  0  0  0  0  0  0  0  0  0
   -2.3530   19.2200  -33.7550 C   0  0  0  0  0  0  0  0  0  0  0  0
   -1.1880   18.8250  -33.0840 C   0  0  0  0  0  0  0  0  0  0  0  0
   -0.7890   17.4860  -33.0810 C   0  0  0  0  0  0  0  0  0  0  0  0
   -1.5500   16.4980  -33.7510 C   0  0  0  0  0  0  0  0  0  0  0  0
   -1.1630   15.0040  -33.7550 C   0  0  0  0  0  0  0  0  0  0  0  0
    0.3240   14.7660  -34.1190 C   0  0  0  0  0  0  0  0  0  0  0  0
   -2.0240   14.2470  -34.7900 C   0  0  0  0  0  0  0  0  0  0  0  0
   -1.4060   14.4090  -32.3510 C   0  0  0  0  0  0  0  0  0  0  0  0
   -2.7210   16.9160  -34.4230 C   0  0  0  0  0  0  0  0  0  0  0  0
   -3.1160   18.2560  -34.4240 C   0  0  0  0  0  0  0  0  0  0  0  0
   -3.0420   21.8160  -31.4790 C   0  0  0  0  0  0  0  0  0  0  0  0
   -1.9920   21.4770  -30.6190 C   0  0  0  0  0  0  0  0  0  0  0  0
   -1.5020   22.4100  -29.7020 C   0  0  0  0  0  0  0  0  0  0  0  0
   -2.0590   23.7000  -29.6260 C   0  0  0  0  0  0  0  0  0  0  0  0
   -1.5310   24.6620  -28.6260 C   0  0  0  0  0  0  0  0  0  0  0  0
   -1.4490   25.8900  -28.8890 O   0  0  0  0  0  0  0  0  0  0  0  0
   -1.1330   24.2190  -27.3670 O   0  0  0  0  0  0  0  0  0  0  0  0
   -3.1080   24.0420  -30.5090 C   0  0  0  0  0  0  0  0  0  0  0  0
   -3.6970   25.3010  -30.4760 O   0  0  0  0  0  0  0  0  0  0  0  0
   -3.5860   23.1030  -31.4300 C   0  0  0  0  0  0  0  0  0  0  0  0
   -7.2310   17.7180  -33.3500 C   0  0  0  0  0  0  0  0  0  0  0  0
   -6.3750   16.4820  -33.2100 C   0  0  0  0  0  0  0  0  0  0  0  0
   -6.4480   15.4580  -34.1710 C   0  0  0  0  0  0  0  0  0  0  0  0
   -5.6330   14.3260  -34.0590 C   0  0  0  0  0  0  0  0  0  0  0  0
   -4.7420   14.2070  -32.9890 C   0  0  0  0  0  0  0  0  0  0  0  0
   -4.6670   15.2180  -32.0260 C   0  0  0  0  0  0  0  0  0  0  0  0
   -5.4810   16.3500  -32.1320 C   0  0  0  0  0  0  0  0  0  0  0  0
   -7.6870   21.7700  -30.1450 C   0  0  0  0  0  0  0  0  0  0  0  0
   -7.2740   23.0390  -29.7270 C   0  0  0  0  0  0  0  0  0  0  0  0
   -6.3574   25.3601  -29.1034 H   0  0  0  0  0  0  0  0  0  0  0  0
   -5.3528   25.5234  -30.5835 H   0  0  0  0  0  0  0  0  0  0  0  0
   -7.0530   26.1031  -30.5835 H   0  0  0  0  0  0  0  0  0  0  0  0
   -6.4512   24.3729  -32.7694 H   0  0  0  0  0  0  0  0  0  0  0  0
   -7.2079   22.1142  -33.5143 H   0  0  0  0  0  0  0  0  0  0  0  0
   -6.4800   18.3880  -31.5160 H   0  0  0  0  0  0  0  0  0  0  0  0
   -5.2928   19.0530  -33.8464 H   0  0  0  0  0  0  0  0  0  0  0  0
   -6.1936   20.5613  -33.3480 H   0  0  0  0  0  0  0  0  0  0  0  0
   -3.5004   20.8567  -34.5168 H   0  0  0  0  0  0  0  0  0  0  0  0
   -1.9642   21.3214  -33.7044 H   0  0  0  0  0  0  0  0  0  0  0  0
   -0.5824   19.5756  -32.5550 H   0  0  0  0  0  0  0  0  0  0  0  0
    0.1297   17.1953  -32.5504 H   0  0  0  0  0  0  0  0  0  0  0  0
    0.9165   14.6712  -33.1971 H   0  0  0  0  0  0  0  0  0  0  0  0
    0.4137   13.8421  -34.7092 H   0  0  0  0  0  0  0  0  0  0  0  0
    0.6976   15.6158  -34.7092 H   0  0  0  0  0  0  0  0  0  0  0  0
   -2.7503   13.6084  -34.2659 H   0  0  0  0  0  0  0  0  0  0  0  0
   -2.5605   14.9712  -35.4206 H   0  0  0  0  0  0  0  0  0  0  0  0
   -1.3744   13.6222  -35.4206 H   0  0  0  0  0  0  0  0  0  0  0  0
   -1.1072   15.1407  -31.5859 H   0  0  0  0  0  0  0  0  0  0  0  0
   -2.4734   14.1708  -32.2334 H   0  0  0  0  0  0  0  0  0  0  0  0
   -0.8105   13.4916  -32.2334 H   0  0  0  0  0  0  0  0  0  0  0  0
   -3.3327   16.1725  -34.9550 H   0  0  0  0  0  0  0  0  0  0  0  0
   -4.0323   18.5553  -34.9538 H   0  0  0  0  0  0  0  0  0  0  0  0
   -1.5500   20.4708  -30.6651 H   0  0  0  0  0  0  0  0  0  0  0  0
   -0.6734   22.1338  -29.0334 H   0  0  0  0  0  0  0  0  0  0  0  0
   -4.3961   23.3797  -32.1208 H   0  0  0  0  0  0  0  0  0  0  0  0
   -8.2769   17.4493  -33.1405 H   0  0  0  0  0  0  0  0  0  0  0  0
   -7.1104   18.0957  -34.3760 H   0  0  0  0  0  0  0  0  0  0  0  0
   -7.1487   15.5472  -35.0143 H   0  0  0  0  0  0  0  0  0  0  0  0
   -5.6938   13.5286  -34.8143 H   0  0  0  0  0  0  0  0  0  0  0  0
   -4.0997   13.3180  -32.9044 H   0  0  0  0  0  0  0  0  0  0  0  0
   -3.9663   15.1227  -31.1834 H   0  0  0  0  0  0  0  0  0  0  0  0
   -5.4220   17.1405  -31.3693 H   0  0  0  0  0  0  0  0  0  0  0  0
   -8.0367   21.0359  -29.4042 H   0  0  0  0  0  0  0  0  0  0  0  0
   -7.2993   23.2995  -28.6586 H   0  0  0  0  0  0  0  0  0  0  0  0
  1  2  1  0
  2  3  2  0
  3  4  1  0
  4  5  2  0
  5  6  1  0
  6  7  2  0
  6  8  2  0
  6  9  1  0
  9 10  1  0
 10 11  1  0
 11 12  2  0
 11 13  1  0
 13 14  1  0
 14 15  1  0
 15 16  2  0
 16 17  1  0
 17 18  2  0
 18 19  1  0
 19 20  1  0
 19 21  1  0
 19 22  1  0
 18 23  1  0
 23 24  2  0
 13 25  1  0
 25 26  2  0
 26 27  1  0
 27 28  2  0
 28 29  1  0
 29 30  2  0
 29 31  1  0
 28 32  1  0
 32 33  1  0
 32 34  2  0
  9 35  1  0
 35 36  1  0
 36 37  2  0
 37 38  1  0
 38 39  2  0
 39 40  1  0
 40 41  2  0
  5 42  1  0
 42 43  2  0
 43  2  1  0
 24 15  1  0
 34 25  1  0
 41 36  1  0
  1 44  1  0
  1 45  1  0
  1 46  1  0
  3 47  1  0
  4 48  1  0
  9 49  1  1
 10 50  1  0
 10 51  1  0
 14 52  1  0
 14 53  1  0
 16 54  1  0
 17 55  1  0
 20 56  1  0
 20 57  1  0
 20 58  1  0
 21 59  1  0
 21 60  1  0
 21 61  1  0
 22 62  1  0
 22 63  1  0
 22 64  1  0
 23 65  1  0
 24 66  1  0
 26 67  1  0
 27 68  1  0
 34 69  1  0
 35 70  1  0
 35 71  1  0
 37 72  1  0
 38 73  1  0
 39 74  1  0
 40 75  1  0
 41 76  1  0
 42 77  1  0
 43 78  1  0
M  CHG  3   9   1  31  -1  33  -1
M  END
>  <UniqueID>  (32) 
31

>  <SMILES>  (32) 
Cc1ccc(S(=O)(=O)[N@H+](CC(=O)N(Cc2ccc(C(C)(C)C)cc2)c2ccc(C(=O)[O-])c([O-])c2)Cc2ccccc2)cc1

>  <Energy>  (32) 
90.29168520015266

>  <Genealogy>  (32) 
Cc1ccc(S(=O)(=O)[NH+](CC(=O)N(Cc2ccc(C(C)(C)C)cc2)c2ccc(C(=O)[O-])c([O-])c2)Cc2ccccc2)cc1 (protonated)
Cc1ccc(S(=O)(=O)[N@H+](CC(=O)N(Cc2ccc(C(C)(C)C)cc2)c2ccc(C(=O)[O-])c([O-])c2)Cc2ccccc2)cc1 (chirality)
Cc1ccc(S(=O)(=O)[N@H+](CC(=O)N(Cc2ccc(C(C)(C)C)cc2)c2ccc(C(=O)[O-])c([O-])c2)Cc2ccccc2)cc1 (3D coordinates assigned)
Cc1ccc(S(=O)(=O)[N@H+](CC(=O)N(Cc2ccc(C(C)(C)C)cc2)c2ccc(C(=O)[O-])c([O-])c2)Cc2ccccc2)cc1 (optimized conformer: 90.29168520015266 kcal/mol)

>  <smiles>  (32) 
Cc1ccc(S(=O)(=O)N(CC(=O)N(Cc2ccc(C(C)(C)C)cc2)c2ccc(C(=O)O)c(O)c2)Cc2ccccc2)cc1

>  <score_type>  (32) 
oracle

>  <origin>  (32) 
adgpu

>  <m_score__min__energy>  (32) 
-14.630000000000001

>  <m_primary>  (32) 
energy

$$$$
32:0
     RDKit          3D

 45 47  0  0  0  0  0  0  0  0999 V2000
   -2.8490   14.7920  -37.1180 C   0  0  0  0  0  0  0  0  0  0  0  0
   -2.8970   14.9080  -35.6990 O   0  0  0  0  0  0  0  0  0  0  0  0
   -3.7980   15.7250  -35.0020 C   0  0  0  0  0  0  0  0  0  0  0  0
   -4.0260   17.0710  -35.3530 C   0  0  0  0  0  0  0  0  0  0  0  0
   -4.9380   17.8430  -34.6270 C   0  0  0  0  0  0  0  0  0  0  0  0
   -5.6320   17.2840  -33.5460 C   0  0  0  0  0  0  0  0  0  0  0  0
   -6.7970   18.2410  -32.6360 S   0  0  0  0  0  0  0  0  0  0  0  0
   -8.1370   17.5650  -32.7100 O   0  0  0  0  0  0  0  0  0  0  0  0
   -6.3880   18.3570  -31.1950 O   0  0  0  0  0  0  0  0  0  0  0  0
   -6.9210   19.8310  -33.3230 N   0  0  0  0  0  0  0  0  0  0  0  0
   -6.5020   21.0310  -32.6490 C   0  0  0  0  0  0  0  0  0  0  0  0
   -7.4550   21.8020  -31.9680 C   0  0  0  0  0  0  0  0  0  0  0  0
   -7.0820   22.9760  -31.3070 C   0  0  0  0  0  0  0  0  0  0  0  0
   -5.7450   23.3920  -31.3130 C   0  0  0  0  0  0  0  0  0  0  0  0
   -5.2640   24.8640  -30.4720 S   0  0  0  0  0  0  0  0  0  0  0  0
   -5.7850   26.0490  -31.2320 O   0  0  0  0  0  0  0  0  0  0  0  0
   -5.8270   24.8870  -29.0780 O   0  0  0  0  0  0  0  0  0  0  0  0
   -3.5340   24.9580  -30.3870 N   0  0  0  0  0  0  0  0  0  0  0  0
   -2.7110   24.2480  -29.4510 C   0  0  0  0  0  0  0  0  0  0  0  0
   -3.0230   22.9430  -29.0230 C   0  0  0  0  0  0  0  0  0  0  0  0
   -2.1990   22.2840  -28.1060 C   0  0  0  0  0  0  0  0  0  0  0  0
   -1.0570   22.9180  -27.6110 C   0  0  0  0  0  0  0  0  0  0  0  0
   -0.7380   24.2120  -28.0300 C   0  0  0  0  0  0  0  0  0  0  0  0
   -1.5630   24.8780  -28.9430 C   0  0  0  0  0  0  0  0  0  0  0  0
   -1.2390   26.1700  -29.3430 O   0  0  0  0  0  0  0  0  0  0  0  0
   -4.7870   22.6280  -31.9900 C   0  0  0  0  0  0  0  0  0  0  0  0
   -5.1580   21.4530  -32.6480 C   0  0  0  0  0  0  0  0  0  0  0  0
   -5.4020   15.9490  -33.1910 C   0  0  0  0  0  0  0  0  0  0  0  0
   -4.4910   15.1760  -33.9160 C   0  0  0  0  0  0  0  0  0  0  0  0
   -2.4417   13.8076  -37.3918 H   0  0  0  0  0  0  0  0  0  0  0  0
   -3.8640   14.8960  -37.5289 H   0  0  0  0  0  0  0  0  0  0  0  0
   -2.2042   15.5828  -37.5289 H   0  0  0  0  0  0  0  0  0  0  0  0
   -3.4845   17.5156  -36.2010 H   0  0  0  0  0  0  0  0  0  0  0  0
   -5.1112   18.8930  -34.9056 H   0  0  0  0  0  0  0  0  0  0  0  0
   -7.2470   19.8920  -34.3140 H   0  0  0  0  0  0  0  0  0  0  0  0
   -8.5067   21.4798  -31.9538 H   0  0  0  0  0  0  0  0  0  0  0  0
   -7.8405   23.5743  -30.7810 H   0  0  0  0  0  0  0  0  0  0  0  0
   -3.9201   22.4395  -29.4125 H   0  0  0  0  0  0  0  0  0  0  0  0
   -2.4500   21.2658  -27.7741 H   0  0  0  0  0  0  0  0  0  0  0  0
   -0.4083   22.3980  -26.8907 H   0  0  0  0  0  0  0  0  0  0  0  0
    0.1635   24.7082  -27.6414 H   0  0  0  0  0  0  0  0  0  0  0  0
   -3.7367   22.9546  -32.0039 H   0  0  0  0  0  0  0  0  0  0  0  0
   -4.3963   20.8538  -33.1684 H   0  0  0  0  0  0  0  0  0  0  0  0
   -5.9399   15.5076  -32.3391 H   0  0  0  0  0  0  0  0  0  0  0  0
   -4.3169   14.1278  -33.6313 H   0  0  0  0  0  0  0  0  0  0  0  0
  1  2  1  0
  2  3  1  0
  3  4  2  0
  4  5  1  0
  5  6  2  0
  6  7  1  0
  7  8  2  0
  7  9  2  0
  7 10  1  0
 10 11  1  0
 11 12  2  0
 12 13  1  0
 13 14  2  0
 14 15  1  0
 15 16  2  0
 15 17  2  0
 15 18  1  0
 18 19  1  0
 19 20  2  0
 20 21  1  0
 21 22  2  0
 22 23  1  0
 23 24  2  0
 24 25  1  0
 14 26  1  0
 26 27  2  0
  6 28  1  0
 28 29  2  0
 29  3  1  0
 27 11  1  0
 24 19  1  0
  1 30  1  0
  1 31  1  0
  1 32  1  0
  4 33  1  0
  5 34  1  0
 10 35  1  0
 12 36  1  0
 13 37  1  0
 20 38  1  0
 21 39  1  0
 22 40  1  0
 23 41  1  0
 26 42  1  0
 27 43  1  0
 28 44  1  0
 29 45  1  0
M  CHG  2  18  -1  25  -1
M  END
>  <UniqueID>  (33) 
32

>  <SMILES>  (33) 
COc1ccc(S(=O)(=O)Nc2ccc(S(=O)(=O)[N-]c3ccccc3[O-])cc2)cc1

>  <Energy>  (33) 
52.95092222387262

>  <Genealogy>  (33) 
COc1ccc(S(=O)(=O)Nc2ccc(S(=O)(=O)[N-]c3ccccc3[O-])cc2)cc1 (protonated)
COc1ccc(S(=O)(=O)Nc2ccc(S(=O)(=O)[N-]c3ccccc3[O-])cc2)cc1 (3D coordinates assigned)
COc1ccc(S(=O)(=O)Nc2ccc(S(=O)(=O)[N-]c3ccccc3[O-])cc2)cc1 (optimized conformer: 52.95092222387262 kcal/mol)

>  <smiles>  (33) 
COc1ccc(S(=O)(=O)Nc2ccc(S(=O)(=O)Nc3ccccc3O)cc2)cc1

>  <score_type>  (33) 
oracle

>  <origin>  (33) 
adgpu

>  <m_score__min__energy>  (33) 
-14.25

>  <m_primary>  (33) 
energy

$$$$
33:0
     RDKit          3D

 56 59  0  0  0  0  0  0  0  0999 V2000
   -1.2320   26.7950  -24.6700 C   0  0  0  0  0  0  0  0  0  0  0  0
   -0.8300   25.9710  -25.8580 C   0  0  0  0  0  0  0  0  0  0  0  0
    0.3610   25.2320  -25.8290 C   0  0  0  0  0  0  0  0  0  0  0  0
    0.7600   24.5000  -26.9500 C   0  0  0  0  0  0  0  0  0  0  0  0
   -0.0240   24.5010  -28.1070 C   0  0  0  0  0  0  0  0  0  0  0  0
   -1.2210   25.2360  -28.1470 C   0  0  0  0  0  0  0  0  0  0  0  0
   -2.0320   25.2940  -29.3300 N   0  0  0  0  0  0  0  0  0  0  0  0
   -3.1340   24.4310  -29.6340 C   0  0  0  0  0  0  0  0  0  0  0  0
   -3.0670   23.1990  -29.3740 O   0  0  0  0  0  0  0  0  0  0  0  0
   -4.3470   25.0010  -30.1470 N   0  0  0  0  0  0  0  0  0  0  0  0
   -5.4770   24.2310  -30.5920 C   0  0  0  0  0  0  0  0  0  0  0  0
   -5.8670   24.2130  -31.9440 C   0  0  0  0  0  0  0  0  0  0  0  0
   -6.9650   23.4490  -32.3520 C   0  0  0  0  0  0  0  0  0  0  0  0
   -7.6920   22.7080  -31.4140 C   0  0  0  0  0  0  0  0  0  0  0  0
   -9.0590   21.6810  -31.9510 S   0  0  0  0  0  0  0  0  0  0  0  0
   -7.9670   20.3250  -32.3630 C   0  0  0  0  0  0  0  0  0  0  0  0
   -8.4360   19.0110  -32.3500 C   0  0  0  0  0  0  0  0  0  0  0  0
   -7.5380   17.9840  -32.6340 C   0  0  0  0  0  0  0  0  0  0  0  0
   -6.2380   18.2750  -32.9060 N   0  0  0  0  0  0  0  0  0  0  0  0
   -5.7910   19.5630  -32.9170 C   0  0  0  0  0  0  0  0  0  0  0  0
   -4.4030   19.8460  -33.1940 N   0  0  0  0  0  0  0  0  0  0  0  0
   -3.9410   21.2190  -33.4390 C   0  0  0  0  0  0  0  0  0  0  0  0
   -2.5750   21.4210  -32.7690 C   0  0  0  0  0  0  0  0  0  0  0  0
   -1.5590   20.4150  -33.1830 N   0  0  0  0  0  0  0  0  0  0  0  0
   -0.6970   20.0370  -32.0490 C   0  0  0  0  0  0  0  0  0  0  0  0
   -2.1030   19.2200  -33.8720 C   0  0  0  0  0  0  0  0  0  0  0  0
   -3.4350   18.7440  -33.2730 C   0  0  0  0  0  0  0  0  0  0  0  0
   -6.6620   20.5740  -32.6480 N   0  0  0  0  0  0  0  0  0  0  0  0
   -7.3340   22.7530  -30.0620 C   0  0  0  0  0  0  0  0  0  0  0  0
   -6.2360   23.5170  -29.6520 C   0  0  0  0  0  0  0  0  0  0  0  0
   -1.6050   25.9870  -27.0290 C   0  0  0  0  0  0  0  0  0  0  0  0
   -0.9702   26.2584  -23.7461 H   0  0  0  0  0  0  0  0  0  0  0  0
   -0.7030   27.7591  -24.6965 H   0  0  0  0  0  0  0  0  0  0  0  0
   -2.3174   26.9715  -24.6965 H   0  0  0  0  0  0  0  0  0  0  0  0
    0.9827   25.2285  -24.9216 H   0  0  0  0  0  0  0  0  0  0  0  0
    1.6947   23.9207  -26.9219 H   0  0  0  0  0  0  0  0  0  0  0  0
    0.2965   23.9254  -28.9879 H   0  0  0  0  0  0  0  0  0  0  0  0
   -4.4490   26.0400  -30.0890 H   0  0  0  0  0  0  0  0  0  0  0  0
   -5.3055   24.8027  -32.6835 H   0  0  0  0  0  0  0  0  0  0  0  0
   -7.2576   23.4306  -33.4122 H   0  0  0  0  0  0  0  0  0  0  0  0
   -9.4892   18.7911  -32.1211 H   0  0  0  0  0  0  0  0  0  0  0  0
   -7.8806   16.9387  -32.6381 H   0  0  0  0  0  0  0  0  0  0  0  0
   -3.8478   21.3877  -34.5220 H   0  0  0  0  0  0  0  0  0  0  0  0
   -4.6662   21.9323  -33.0203 H   0  0  0  0  0  0  0  0  0  0  0  0
   -2.2021   22.4218  -33.0322 H   0  0  0  0  0  0  0  0  0  0  0  0
   -2.7244   21.3047  -31.6854 H   0  0  0  0  0  0  0  0  0  0  0  0
   -1.2134   20.2634  -31.1045 H   0  0  0  0  0  0  0  0  0  0  0  0
   -0.4778   18.9602  -32.0980 H   0  0  0  0  0  0  0  0  0  0  0  0
    0.2436   20.6052  -32.0980 H   0  0  0  0  0  0  0  0  0  0  0  0
   -2.2624   19.4673  -34.9319 H   0  0  0  0  0  0  0  0  0  0  0  0
   -1.3740   18.4055  -33.7489 H   0  0  0  0  0  0  0  0  0  0  0  0
   -3.8495   17.9465  -33.9071 H   0  0  0  0  0  0  0  0  0  0  0  0
   -3.2470   18.3705  -32.2556 H   0  0  0  0  0  0  0  0  0  0  0  0
   -7.9167   22.1868  -29.3205 H   0  0  0  0  0  0  0  0  0  0  0  0
   -5.9660   23.5583  -28.5864 H   0  0  0  0  0  0  0  0  0  0  0  0
   -2.5212   26.5944  -27.0684 H   0  0  0  0  0  0  0  0  0  0  0  0
  1  2  1  0
  2  3  2  0
  3  4  1  0
  4  5  2  0
  5  6  1  0
  6  7  1  0
  7  8  1  0
  8  9  2  0
  8 10  1  0
 10 11  1  0
 11 12  2  0
 12 13  1  0
 13 14  2  0
 14 15  1  0
 15 16  1  0
 16 17  2  0
 17 18  1  0
 18 19  2  0
 19 20  1  0
 20 21  1  0
 21 22  1  0
 22 23  1  0
 23 24  1  0
 24 25  1  0
 24 26  1  0
 26 27  1  0
 20 28  2  0
 14 29  1  0
 29 30  2  0
  6 31  2  0
 31  2  1  0
 30 11  1  0
 28 16  1  0
 27 21  1  0
  1 32  1  0
  1 33  1  0
  1 34  1  0
  3 35  1  0
  4 36  1  0
  5 37  1  0
 10 38  1  0
 12 39  1  0
 13 40  1  0
 17 41  1  0
 18 42  1  0
 22 43  1  0
 22 44  1  0
 23 45  1  0
 23 46  1  0
 25 47  1  0
 25 48  1  0
 25 49  1  0
 26 50  1  0
 26 51  1  0
 27 52  1  0
 27 53  1  0
 29 54  1  0
 30 55  1  0
 31 56  1  0
M  CHG  1   7  -1
M  END
>  <UniqueID>  (34) 
33

>  <SMILES>  (34) 
Cc1cccc([N-]C(=O)Nc2ccc(Sc3ccnc(N4CCN(C)CC4)n3)cc2)c1

>  <Energy>  (34) 
68.26061219199266

>  <Genealogy>  (34) 
Cc1cccc([N-]C(=O)Nc2ccc(Sc3ccnc(N4CCN(C)CC4)n3)cc2)c1 (protonated)
Cc1cccc([N-]C(=O)Nc2ccc(Sc3ccnc(N4CCN(C)CC4)n3)cc2)c1 (3D coordinates assigned)
Cc1cccc([N-]C(=O)Nc2ccc(Sc3ccnc(N4CCN(C)CC4)n3)cc2)c1 (nonaromatic ring conformer: 68.26061219199266 kcal/mol)

>  <smiles>  (34) 
Cc1cccc(NC(=O)Nc2ccc(Sc3ccnc(N4CCN(C)CC4)n3)cc2)c1

>  <score_type>  (34) 
oracle

>  <origin>  (34) 
adgpu

>  <m_score__min__energy>  (34) 
-11.43

>  <m_primary>  (34) 
energy

$$$$
34:0
     RDKit          3D

 68 71  0  0  0  0  0  0  0  0999 V2000
   -6.5810   25.5750  -29.8600 C   0  0  0  0  0  0  0  0  0  0  0  0
   -6.3850   24.3150  -30.6570 C   0  0  0  0  0  0  0  0  0  0  0  0
   -7.4960   23.5360  -31.0130 C   0  0  0  0  0  0  0  0  0  0  0  0
   -7.3360   22.3810  -31.7790 C   0  0  0  0  0  0  0  0  0  0  0  0
   -6.0580   21.9630  -32.1800 C   0  0  0  0  0  0  0  0  0  0  0  0
   -5.8710   20.7210  -32.9720 C   0  0  0  0  0  0  0  0  0  0  0  0
   -6.7300   20.4120  -33.8410 O   0  0  0  0  0  0  0  0  0  0  0  0
   -4.7750   19.8230  -32.7430 N   0  0  0  0  0  0  0  0  0  0  0  0
   -3.3830   20.1160  -32.9270 C   0  0  0  0  0  0  0  0  0  0  0  0
   -2.7130   19.7980  -34.1220 C   0  0  0  0  0  0  0  0  0  0  0  0
   -1.3670   20.1330  -34.2850 C   0  0  0  0  0  0  0  0  0  0  0  0
   -0.6640   20.7630  -33.2470 C   0  0  0  0  0  0  0  0  0  0  0  0
    0.7730   21.1810  -33.4360 C   0  0  0  0  0  0  0  0  0  0  0  0
    1.0980   21.3220  -34.8710 N   0  0  0  0  0  0  0  0  0  0  0  0
    2.5510   21.5470  -35.0790 C   0  0  0  0  0  0  0  0  0  0  0  0
    2.8320   22.1320  -36.4700 C   0  0  0  0  0  0  0  0  0  0  0  0
    2.1610   23.4410  -36.6760 N   0  0  0  0  0  0  0  0  0  0  0  0
    3.1150   24.5540  -36.5570 C   0  0  0  0  0  0  0  0  0  0  0  0
    1.0000   23.6590  -35.7840 C   0  0  0  0  0  0  0  0  0  0  0  0
    0.2450   22.3480  -35.5250 C   0  0  0  0  0  0  0  0  0  0  0  0
   -1.3220   21.0420  -32.0400 C   0  0  0  0  0  0  0  0  0  0  0  0
   -2.6710   20.7130  -31.8810 C   0  0  0  0  0  0  0  0  0  0  0  0
   -4.9490   22.7570  -31.8510 C   0  0  0  0  0  0  0  0  0  0  0  0
   -5.1040   23.9440  -31.1120 C   0  0  0  0  0  0  0  0  0  0  0  0
   -3.9680   24.7550  -30.7740 N   0  0  0  0  0  0  0  0  0  0  0  0
   -3.3650   24.8450  -29.4780 C   0  0  0  0  0  0  0  0  0  0  0  0
   -4.0490   24.5460  -28.4650 O   0  0  0  0  0  0  0  0  0  0  0  0
   -2.0050   25.2800  -29.3400 N   0  0  0  0  0  0  0  0  0  0  0  0
   -0.9510   24.6170  -28.6310 C   0  0  0  0  0  0  0  0  0  0  0  0
   -0.1550   25.3710  -27.7610 C   0  0  0  0  0  0  0  0  0  0  0  0
    0.8690   24.7660  -27.0140 C   0  0  0  0  0  0  0  0  0  0  0  0
    1.6780   25.5910  -26.0450 C   0  0  0  0  0  0  0  0  0  0  0  0
    2.2980   26.6490  -26.6880 F   0  0  0  0  0  0  0  0  0  0  0  0
    2.6420   24.7920  -25.4600 F   0  0  0  0  0  0  0  0  0  0  0  0
    0.8590   26.1080  -25.0560 F   0  0  0  0  0  0  0  0  0  0  0  0
    1.0580   23.3760  -27.1130 C   0  0  0  0  0  0  0  0  0  0  0  0
    0.2710   22.6040  -27.9860 C   0  0  0  0  0  0  0  0  0  0  0  0
    0.4360   21.1060  -28.0520 C   0  0  0  0  0  0  0  0  0  0  0  0
    0.1960   20.6340  -29.3300 F   0  0  0  0  0  0  0  0  0  0  0  0
   -0.4510   20.4860  -27.1880 F   0  0  0  0  0  0  0  0  0  0  0  0
    1.7260   20.7750  -27.6850 F   0  0  0  0  0  0  0  0  0  0  0  0
   -0.7480   23.2290  -28.7210 C   0  0  0  0  0  0  0  0  0  0  0  0
   -6.5443   25.3391  -28.7862 H   0  0  0  0  0  0  0  0  0  0  0  0
   -5.7836   26.2919  -30.1054 H   0  0  0  0  0  0  0  0  0  0  0  0
   -7.5585   26.0158  -30.1054 H   0  0  0  0  0  0  0  0  0  0  0  0
   -8.5016   23.8383  -30.6855 H   0  0  0  0  0  0  0  0  0  0  0  0
   -8.2188   21.7933  -32.0709 H   0  0  0  0  0  0  0  0  0  0  0  0
   -3.2513   19.2833  -34.9315 H   0  0  0  0  0  0  0  0  0  0  0  0
   -0.8558   19.9019  -35.2312 H   0  0  0  0  0  0  0  0  0  0  0  0
    0.9363   22.1458  -32.9335 H   0  0  0  0  0  0  0  0  0  0  0  0
    1.4236   20.4068  -33.0032 H   0  0  0  0  0  0  0  0  0  0  0  0
    2.9179   22.2480  -34.3148 H   0  0  0  0  0  0  0  0  0  0  0  0
    3.0669   20.5787  -34.9992 H   0  0  0  0  0  0  0  0  0  0  0  0
    3.9175   22.2689  -36.5837 H   0  0  0  0  0  0  0  0  0  0  0  0
    2.4358   21.4290  -37.2175 H   0  0  0  0  0  0  0  0  0  0  0  0
    3.2982   24.7678  -35.4936 H   0  0  0  0  0  0  0  0  0  0  0  0
    4.0621   24.2788  -37.0442 H   0  0  0  0  0  0  0  0  0  0  0  0
    2.6982   25.4478  -37.0442 H   0  0  0  0  0  0  0  0  0  0  0  0
    1.3554   24.0638  -34.8249 H   0  0  0  0  0  0  0  0  0  0  0  0
    0.3132   24.3657  -36.2727 H   0  0  0  0  0  0  0  0  0  0  0  0
   -0.6158   22.5590  -34.8735 H   0  0  0  0  0  0  0  0  0  0  0  0
   -0.0744   21.9473  -36.4984 H   0  0  0  0  0  0  0  0  0  0  0  0
   -0.7741   21.5216  -31.2155 H   0  0  0  0  0  0  0  0  0  0  0  0
   -3.1763   20.9248  -30.9272 H   0  0  0  0  0  0  0  0  0  0  0  0
   -3.9446   22.4471  -32.1753 H   0  0  0  0  0  0  0  0  0  0  0  0
   -0.3338   26.4518  -27.6610 H   0  0  0  0  0  0  0  0  0  0  0  0
    1.8301   22.8872  -26.5007 H   0  0  0  0  0  0  0  0  0  0  0  0
   -1.3951   22.6260  -29.3749 H   0  0  0  0  0  0  0  0  0  0  0  0
  1  2  1  0
  2  3  2  0
  3  4  1  0
  4  5  2  0
  5  6  1  0
  6  7  2  0
  6  8  1  0
  8  9  1  0
  9 10  2  0
 10 11  1  0
 11 12  2  0
 12 13  1  0
 13 14  1  0
 14 15  1  0
 15 16  1  0
 16 17  1  0
 17 18  1  0
 17 19  1  0
 19 20  1  0
 12 21  1  0
 21 22  2  0
  5 23  1  0
 23 24  2  0
 24 25  1  0
 25 26  1  0
 26 27  2  0
 26 28  1  0
 28 29  1  0
 29 30  2  0
 30 31  1  0
 31 32  1  0
 32 33  1  0
 32 34  1  0
 32 35  1  0
 31 36  2  0
 36 37  1  0
 37 38  1  0
 38 39  1  0
 38 40  1  0
 38 41  1  0
 37 42  2  0
 24  2  1  0
 42 29  1  0
 22  9  1  0
 20 14  1  0
  1 43  1  0
  1 44  1  0
  1 45  1  0
  3 46  1  0
  4 47  1  0
 10 48  1  0
 11 49  1  0
 13 50  1  0
 13 51  1  0
 15 52  1  0
 15 53  1  0
 16 54  1  0
 16 55  1  0
 18 56  1  0
 18 57  1  0
 18 58  1  0
 19 59  1  0
 19 60  1  0
 20 61  1  0
 20 62  1  0
 21 63  1  0
 22 64  1  0
 23 65  1  0
 30 66  1  0
 36 67  1  0
 42 68  1  0
M  CHG  3   8  -1  25  -1  28  -1
M  END
>  <UniqueID>  (35) 
34

>  <SMILES>  (35) 
Cc1ccc(C(=O)[N-]c2ccc(CN3CCN(C)CC3)cc2)cc1[N-]C(=O)[N-]c1cc(C(F)(F)F)cc(C(F)(F)F)c1

>  <Energy>  (35) 
97.85582225409497

>  <Genealogy>  (35) 
Cc1ccc(C(=O)[N-]c2ccc(CN3CCN(C)CC3)cc2)cc1[N-]C(=O)[N-]c1cc(C(F)(F)F)cc(C(F)(F)F)c1 (protonated)
Cc1ccc(C(=O)[N-]c2ccc(CN3CCN(C)CC3)cc2)cc1[N-]C(=O)[N-]c1cc(C(F)(F)F)cc(C(F)(F)F)c1 (3D coordinates assigned)
Cc1ccc(C(=O)[N-]c2ccc(CN3CCN(C)CC3)cc2)cc1[N-]C(=O)[N-]c1cc(C(F)(F)F)cc(C(F)(F)F)c1 (nonaromatic ring conformer: 97.85582225409497 kcal/mol)

>  <smiles>  (35) 
Cc1ccc(C(=O)Nc2ccc(CN3CCN(C)CC3)cc2)cc1NC(=O)Nc1cc(C(F)(F)F)cc(C(F)(F)F)c1

>  <score_type>  (35) 
oracle

>  <origin>  (35) 
adgpu

>  <m_score__min__energy>  (35) 
-12.17

>  <m_primary>  (35) 
energy

$$$$
35:0
     RDKit          3D

 40 42  0  0  0  0  0  0  0  0999 V2000
   -2.1390   22.7000  -28.5610 O   0  0  0  0  0  0  0  0  0  0  0  0
   -1.7170   24.1160  -28.8380 S   0  0  0  0  0  0  0  0  0  0  0  0
   -0.4890   24.1030  -29.7020 O   0  0  0  0  0  0  0  0  0  0  0  0
   -2.9940   24.9410  -29.6750 N   0  0  0  0  0  0  0  0  0  0  0  0
   -4.1070   24.3050  -30.3220 C   0  0  0  0  0  0  0  0  0  0  0  0
   -5.3520   24.9360  -30.2510 C   0  0  0  0  0  0  0  0  0  0  0  0
   -6.4820   24.3380  -30.8050 C   0  0  0  0  0  0  0  0  0  0  0  0
   -6.3790   23.1010  -31.4390 C   0  0  0  0  0  0  0  0  0  0  0  0
   -5.1370   22.4580  -31.5490 C   0  0  0  0  0  0  0  0  0  0  0  0
   -5.0610   20.8870  -32.3610 S   0  0  0  0  0  0  0  0  0  0  0  0
   -4.0170   20.0140  -31.7240 O   0  0  0  0  0  0  0  0  0  0  0  0
   -4.6820   21.1000  -33.8010 O   0  0  0  0  0  0  0  0  0  0  0  0
   -6.6210   20.0790  -32.2350 C   0  0  0  0  0  0  0  0  0  0  0  0
   -7.7760   20.7260  -32.6970 C   0  0  0  0  0  0  0  0  0  0  0  0
   -9.0200   20.0980  -32.6000 C   0  0  0  0  0  0  0  0  0  0  0  0
   -9.1170   18.8200  -32.0420 C   0  0  0  0  0  0  0  0  0  0  0  0
   -7.9690   18.1700  -31.5780 C   0  0  0  0  0  0  0  0  0  0  0  0
   -6.7230   18.7980  -31.6720 C   0  0  0  0  0  0  0  0  0  0  0  0
   -3.9810   23.0820  -31.0210 C   0  0  0  0  0  0  0  0  0  0  0  0
   -2.7110   22.5320  -31.2010 O   0  0  0  0  0  0  0  0  0  0  0  0
   -1.3340   24.9570  -27.3370 C   0  0  0  0  0  0  0  0  0  0  0  0
   -1.2310   24.2320  -26.1420 C   0  0  0  0  0  0  0  0  0  0  0  0
   -0.8870   24.8810  -24.9520 C   0  0  0  0  0  0  0  0  0  0  0  0
   -0.6470   26.2600  -24.9510 C   0  0  0  0  0  0  0  0  0  0  0  0
   -0.1670   27.1430  -23.3270 Br  0  0  0  0  0  0  0  0  0  0  0  0
   -0.7590   26.9880  -26.1380 C   0  0  0  0  0  0  0  0  0  0  0  0
   -1.1030   26.3410  -27.3290 C   0  0  0  0  0  0  0  0  0  0  0  0
   -5.4406   25.9131  -29.7535 H   0  0  0  0  0  0  0  0  0  0  0  0
   -7.4572   24.8431  -30.7419 H   0  0  0  0  0  0  0  0  0  0  0  0
   -7.2787   22.6252  -31.8564 H   0  0  0  0  0  0  0  0  0  0  0  0
   -7.7023   21.7314  -33.1372 H   0  0  0  0  0  0  0  0  0  0  0  0
   -9.9237   20.6094  -32.9629 H   0  0  0  0  0  0  0  0  0  0  0  0
  -10.0967   18.3254  -31.9678 H   0  0  0  0  0  0  0  0  0  0  0  0
   -8.0461   17.1644  -31.1389 H   0  0  0  0  0  0  0  0  0  0  0  0
   -5.8213   18.2867  -31.3039 H   0  0  0  0  0  0  0  0  0  0  0  0
   -1.8880   22.8370  -30.7040 H   0  0  0  0  0  0  0  0  0  0  0  0
   -1.4214   23.1486  -26.1401 H   0  0  0  0  0  0  0  0  0  0  0  0
   -0.8050   24.3078  -24.0167 H   0  0  0  0  0  0  0  0  0  0  0  0
   -0.5762   28.0727  -26.1358 H   0  0  0  0  0  0  0  0  0  0  0  0
   -1.1927   26.9180  -28.2612 H   0  0  0  0  0  0  0  0  0  0  0  0
  1  2  2  0
  2  3  2  0
  2  4  1  0
  4  5  1  0
  5  6  2  0
  6  7  1  0
  7  8  2  0
  8  9  1  0
  9 10  1  0
 10 11  2  0
 10 12  2  0
 10 13  1  0
 13 14  2  0
 14 15  1  0
 15 16  2  0
 16 17  1  0
 17 18  2  0
  9 19  2  0
 19 20  1  0
  2 21  1  0
 21 22  2  0
 22 23  1  0
 23 24  2  0
 24 25  1  0
 24 26  1  0
 26 27  2  0
 19  5  1  0
 27 21  1  0
 18 13  1  0
  6 28  1  0
  7 29  1  0
  8 30  1  0
 14 31  1  0
 15 32  1  0
 16 33  1  0
 17 34  1  0
 18 35  1  0
 20 36  1  0
 22 37  1  0
 23 38  1  0
 26 39  1  0
 27 40  1  0
M  CHG  1   4  -1
M  END
>  <UniqueID>  (36) 
35

>  <SMILES>  (36) 
O=S(=O)([N-]c1cccc(S(=O)(=O)c2ccccc2)c1O)c1ccc(Br)cc1

>  <Energy>  (36) 
52.55507420523097

>  <Genealogy>  (36) 
O=S(=O)([N-]c1cccc(S(=O)(=O)c2ccccc2)c1O)c1ccc(Br)cc1 (protonated)
O=S(=O)([N-]c1cccc(S(=O)(=O)c2ccccc2)c1O)c1ccc(Br)cc1 (3D coordinates assigned)
O=S(=O)([N-]c1cccc(S(=O)(=O)c2ccccc2)c1O)c1ccc(Br)cc1 (optimized conformer: 52.55507420523097 kcal/mol)

>  <smiles>  (36) 
O=S(=O)(Nc1cccc(S(=O)(=O)c2ccccc2)c1O)c1ccc(Br)cc1

>  <score_type>  (36) 
oracle

>  <origin>  (36) 
adgpu

>  <m_score__min__energy>  (36) 
-12.390000000000001

>  <m_primary>  (36) 
energy

$$$$
36:0
     RDKit          3D

 43 45  0  0  0  0  0  0  0  0999 V2000
   -5.2420   25.5850  -31.2250 O   0  0  0  0  0  0  0  0  0  0  0  0
   -4.3940   24.7990  -30.7300 C   0  0  0  0  0  0  0  0  0  0  0  0
   -3.4730   25.2950  -29.7480 N   0  0  0  0  0  0  0  0  0  0  0  0
   -2.5350   24.4980  -29.0140 C   0  0  0  0  0  0  0  0  0  0  0  0
   -2.9330   23.3300  -28.3400 C   0  0  0  0  0  0  0  0  0  0  0  0
   -2.0020   22.5860  -27.6100 C   0  0  0  0  0  0  0  0  0  0  0  0
   -0.6640   22.9890  -27.5660 C   0  0  0  0  0  0  0  0  0  0  0  0
   -0.2550   24.1320  -28.2620 C   0  0  0  0  0  0  0  0  0  0  0  0
    1.0770   24.5270  -28.2260 O   0  0  0  0  0  0  0  0  0  0  0  0
   -1.1870   24.8790  -28.9910 C   0  0  0  0  0  0  0  0  0  0  0  0
   -4.3990   23.4230  -31.1380 N   0  0  0  0  0  0  0  0  0  0  0  0
   -5.5720   22.6120  -31.2870 C   0  0  0  0  0  0  0  0  0  0  0  0
   -5.5130   21.5100  -32.1490 C   0  0  0  0  0  0  0  0  0  0  0  0
   -6.5880   20.6160  -32.2370 C   0  0  0  0  0  0  0  0  0  0  0  0
   -6.4910   19.2050  -33.2870 S   0  0  0  0  0  0  0  0  0  0  0  0
   -7.6730   18.3060  -33.0420 O   0  0  0  0  0  0  0  0  0  0  0  0
   -6.5300   19.6610  -34.7190 O   0  0  0  0  0  0  0  0  0  0  0  0
   -5.0040   18.3440  -32.9850 N   0  0  0  0  0  0  0  0  0  0  0  0
   -5.1700   16.9160  -33.3100 C   0  0  0  0  0  0  0  0  0  0  0  0
   -3.8080   16.1960  -33.3470 C   0  0  0  0  0  0  0  0  0  0  0  0
   -2.7990   16.9900  -32.7580 O   0  0  0  0  0  0  0  0  0  0  0  0
   -2.6000   18.1630  -33.5290 C   0  0  0  0  0  0  0  0  0  0  0  0
   -3.9180   18.9270  -33.7870 C   0  0  0  0  0  0  0  0  0  0  0  0
   -7.7470   20.8510  -31.4880 C   0  0  0  0  0  0  0  0  0  0  0  0
   -7.8330   21.9720  -30.6620 C   0  0  0  0  0  0  0  0  0  0  0  0
   -6.7610   22.8670  -30.5660 C   0  0  0  0  0  0  0  0  0  0  0  0
   -6.9190   24.0060  -29.7740 O   0  0  0  0  0  0  0  0  0  0  0  0
   -3.9814   23.0005  -28.3875 H   0  0  0  0  0  0  0  0  0  0  0  0
   -2.3221   21.6829  -27.0698 H   0  0  0  0  0  0  0  0  0  0  0  0
    0.0669   22.4079  -26.9845 H   0  0  0  0  0  0  0  0  0  0  0  0
   -0.8599   25.7691  -29.5484 H   0  0  0  0  0  0  0  0  0  0  0  0
   -4.6149   21.3449  -32.7623 H   0  0  0  0  0  0  0  0  0  0  0  0
   -5.8054   16.4447  -32.5457 H   0  0  0  0  0  0  0  0  0  0  0  0
   -5.6365   16.8345  -34.3028 H   0  0  0  0  0  0  0  0  0  0  0  0
   -3.8874   15.2477  -32.7952 H   0  0  0  0  0  0  0  0  0  0  0  0
   -3.5387   16.0097  -34.3971 H   0  0  0  0  0  0  0  0  0  0  0  0
   -1.9064   18.8261  -32.9912 H   0  0  0  0  0  0  0  0  0  0  0  0
   -2.1914   17.8590  -34.5040 H   0  0  0  0  0  0  0  0  0  0  0  0
   -3.7869   19.9832  -33.5092 H   0  0  0  0  0  0  0  0  0  0  0  0
   -4.1763   18.8504  -34.8535 H   0  0  0  0  0  0  0  0  0  0  0  0
   -8.5923   20.1499  -31.5509 H   0  0  0  0  0  0  0  0  0  0  0  0
   -8.7498   22.1539  -30.0820 H   0  0  0  0  0  0  0  0  0  0  0  0
   -6.1470   24.6070  -29.5180 H   0  0  0  0  0  0  0  0  0  0  0  0
  1  2  2  0
  2  3  1  0
  3  4  1  0
  4  5  2  0
  5  6  1  0
  6  7  2  0
  7  8  1  0
  8  9  1  0
  8 10  2  0
  2 11  1  0
 11 12  1  0
 12 13  2  0
 13 14  1  0
 14 15  1  0
 15 16  2  0
 15 17  2  0
 15 18  1  0
 18 19  1  0
 19 20  1  0
 20 21  1  0
 21 22  1  0
 22 23  1  0
 14 24  2  0
 24 25  1  0
 25 26  2  0
 26 27  1  0
 10  4  1  0
 26 12  1  0
 23 18  1  0
  5 28  1  0
  6 29  1  0
  7 30  1  0
 10 31  1  0
 13 32  1  0
 19 33  1  0
 19 34  1  0
 20 35  1  0
 20 36  1  0
 22 37  1  0
 22 38  1  0
 23 39  1  0
 23 40  1  0
 24 41  1  0
 25 42  1  0
 27 43  1  0
M  CHG  3   3  -1   9  -1  11  -1
M  END
>  <UniqueID>  (37) 
36

>  <SMILES>  (37) 
O=C([N-]c1cccc([O-])c1)[N-]c1cc(S(=O)(=O)N2CCOCC2)ccc1O

>  <Energy>  (37) 
61.39591900183359

>  <Genealogy>  (37) 
O=C([N-]c1cccc([O-])c1)[N-]c1cc(S(=O)(=O)N2CCOCC2)ccc1O (protonated)
O=C([N-]c1cccc([O-])c1)[N-]c1cc(S(=O)(=O)N2CCOCC2)ccc1O (3D coordinates assigned)
O=C([N-]c1cccc([O-])c1)[N-]c1cc(S(=O)(=O)N2CCOCC2)ccc1O (nonaromatic ring conformer: 61.39591900183359 kcal/mol)

>  <smiles>  (37) 
O=C(Nc1cccc(O)c1)Nc1cc(S(=O)(=O)N2CCOCC2)ccc1O

>  <score_type>  (37) 
oracle

>  <origin>  (37) 
adgpu

>  <m_score__min__energy>  (37) 
-13.140000000000001

>  <m_primary>  (37) 
energy

$$$$
37:0
     RDKit          3D

 66 69  0  0  0  0  0  0  0  0999 V2000
   -5.5582   18.9500  -32.6674 H   0  0  0  0  0  0  0  0  0  0  0  0
   -6.1630   19.7730  -32.2590 C   0  0  0  0  0  0  0  0  0  0  0  0
   -5.5710   20.9510  -31.9270 N   0  0  0  0  0  0  0  0  0  0  0  0
   -6.2770   22.0020  -31.4180 C   0  0  0  0  0  0  0  0  0  0  0  0
   -5.5810   23.2650  -31.0740 C   0  0  0  0  0  0  0  0  0  0  0  0
   -4.3400   23.2250  -30.5160 N   0  0  0  0  0  0  0  0  0  0  0  0
   -3.6690   24.3590  -30.1760 C   0  0  0  0  0  0  0  0  0  0  0  0
   -2.4750   24.3080  -29.6610 N   0  0  0  0  0  0  0  0  0  0  0  0
   -1.7440   23.1230  -29.2990 C   0  0  0  0  0  0  0  0  0  0  0  0
   -1.4650   22.7990  -27.9590 C   0  0  0  0  0  0  0  0  0  0  0  0
   -1.8264   23.4527  -27.1515 H   0  0  0  0  0  0  0  0  0  0  0  0
   -0.7310   21.6510  -27.6480 C   0  0  0  0  0  0  0  0  0  0  0  0
   -0.5354   21.3971  -26.5957 H   0  0  0  0  0  0  0  0  0  0  0  0
   -0.2400   20.8170  -28.6700 C   0  0  0  0  0  0  0  0  0  0  0  0
    0.5240   19.5870  -28.3510 C   0  0  0  0  0  0  0  0  0  0  0  0
    1.7640   19.6660  -28.1280 O   0  0  0  0  0  0  0  0  0  0  0  0
   -0.1350   18.3130  -28.2540 N   0  0  0  0  0  0  0  0  0  0  0  0
   -1.1290   18.2960  -27.9360 H   0  0  0  0  0  0  0  0  0  0  0  0
    0.5370   17.0540  -28.4410 C   0  0  0  0  0  0  0  0  0  0  0  0
    1.1680   16.4020  -27.3700 C   0  0  0  0  0  0  0  0  0  0  0  0
    1.1478   16.8600  -26.3701 H   0  0  0  0  0  0  0  0  0  0  0  0
    1.8270   15.1700  -27.5550 C   0  0  0  0  0  0  0  0  0  0  0  0
    2.4520   14.4840  -26.4370 N   0  0  0  0  0  0  0  0  0  0  0  0
    3.7770   14.9000  -25.9590 C   0  0  0  0  0  0  0  0  0  0  0  0
    3.7858   14.9027  -24.8590 H   0  0  0  0  0  0  0  0  0  0  0  0
    4.5378   14.1975  -26.3300 H   0  0  0  0  0  0  0  0  0  0  0  0
    3.9998   15.9113  -26.3300 H   0  0  0  0  0  0  0  0  0  0  0  0
    1.7660   13.3940  -25.7280 C   0  0  0  0  0  0  0  0  0  0  0  0
    1.8238   13.5760  -24.6447 H   0  0  0  0  0  0  0  0  0  0  0  0
    2.2570   12.4434  -25.9834 H   0  0  0  0  0  0  0  0  0  0  0  0
    0.2910   13.3140  -26.1470 C   0  0  0  0  0  0  0  0  0  0  0  0
    0.2320   13.1414  -27.2318 H   0  0  0  0  0  0  0  0  0  0  0  0
   -0.2043   14.2607  -25.8854 H   0  0  0  0  0  0  0  0  0  0  0  0
   -0.3900   12.2080  -25.4410 N   0  0  0  0  0  0  0  0  0  0  0  0
   -1.7190   12.6300  -24.9620 C   0  0  0  0  0  0  0  0  0  0  0  0
   -1.7284   12.6330  -23.8620 H   0  0  0  0  0  0  0  0  0  0  0  0
   -1.9383   13.6420  -25.3333 H   0  0  0  0  0  0  0  0  0  0  0  0
   -2.4819   11.9299  -25.3333 H   0  0  0  0  0  0  0  0  0  0  0  0
    0.4180   11.7520  -24.3000 C   0  0  0  0  0  0  0  0  0  0  0  0
   -0.0813   12.0338  -23.3612 H   0  0  0  0  0  0  0  0  0  0  0  0
    0.5284   10.6584  -24.3427 H   0  0  0  0  0  0  0  0  0  0  0  0
    1.4113   12.2227  -24.3427 H   0  0  0  0  0  0  0  0  0  0  0  0
    1.8680   14.6210  -28.8510 C   0  0  0  0  0  0  0  0  0  0  0  0
    2.3628   13.6517  -29.0114 H   0  0  0  0  0  0  0  0  0  0  0  0
    1.2890   15.2880  -29.9420 C   0  0  0  0  0  0  0  0  0  0  0  0
    1.3090   14.6640  -31.3160 C   0  0  0  0  0  0  0  0  0  0  0  0
    0.1050   14.0400  -31.5910 F   0  0  0  0  0  0  0  0  0  0  0  0
    1.5260   15.6280  -32.2860 F   0  0  0  0  0  0  0  0  0  0  0  0
    2.3250   13.7280  -31.3760 F   0  0  0  0  0  0  0  0  0  0  0  0
    0.6100   16.4960  -29.7230 C   0  0  0  0  0  0  0  0  0  0  0  0
    0.1295   17.0106  -30.5682 H   0  0  0  0  0  0  0  0  0  0  0  0
   -0.5020   21.1600  -30.0080 C   0  0  0  0  0  0  0  0  0  0  0  0
   -0.1271   20.5181  -30.8188 H   0  0  0  0  0  0  0  0  0  0  0  0
   -1.2350   22.3100  -30.3170 C   0  0  0  0  0  0  0  0  0  0  0  0
   -1.4127   22.5774  -31.3691 H   0  0  0  0  0  0  0  0  0  0  0  0
   -4.2370   25.5700  -30.4140 N   0  0  0  0  0  0  0  0  0  0  0  0
   -5.4720   25.6660  -30.9700 C   0  0  0  0  0  0  0  0  0  0  0  0
   -5.9177   26.6553  -31.1508 H   0  0  0  0  0  0  0  0  0  0  0  0
   -6.1760   24.5120  -31.3120 C   0  0  0  0  0  0  0  0  0  0  0  0
   -7.1785   24.5787  -31.7597 H   0  0  0  0  0  0  0  0  0  0  0  0
   -7.6650   21.8660  -31.2300 C   0  0  0  0  0  0  0  0  0  0  0  0
   -8.2538   22.7014  -30.8232 H   0  0  0  0  0  0  0  0  0  0  0  0
   -8.2890   20.6620  -31.5640 C   0  0  0  0  0  0  0  0  0  0  0  0
   -9.3731   20.5457  -31.4185 H   0  0  0  0  0  0  0  0  0  0  0  0
   -7.5380   19.6070  -32.0820 C   0  0  0  0  0  0  0  0  0  0  0  0
   -8.0229   18.6561  -32.3478 H   0  0  0  0  0  0  0  0  0  0  0  0
  1  2  1  0
  2  3  2  0
  3  4  1  0
  4  5  1  0
  5  6  2  0
  6  7  1  0
  7  8  2  0
  8  9  1  0
  9 10  2  0
 10 11  1  0
 10 12  1  0
 12 13  1  0
 12 14  2  0
 14 15  1  0
 15 16  2  0
 15 17  1  0
 17 18  1  0
 17 19  1  0
 19 20  2  0
 20 21  1  0
 20 22  1  0
 22 23  1  0
 23 24  1  0
 24 25  1  0
 24 26  1  0
 24 27  1  0
 23 28  1  0
 28 29  1  0
 28 30  1  0
 28 31  1  0
 31 32  1  0
 31 33  1  0
 31 34  1  0
 34 35  1  0
 35 36  1  0
 35 37  1  0
 35 38  1  0
 34 39  1  0
 39 40  1  0
 39 41  1  0
 39 42  1  0
 22 43  2  0
 43 44  1  0
 43 45  1  0
 45 46  1  0
 46 47  1  0
 46 48  1  0
 46 49  1  0
 45 50  2  0
 50 51  1  0
 14 52  1  0
 52 53  1  0
 52 54  2  0
 54 55  1  0
  7 56  1  0
 56 57  1  0
 57 58  1  0
 57 59  2  0
 59 60  1  0
  4 61  2  0
 61 62  1  0
 61 63  1  0
 63 64  1  0
 63 65  2  0
 65 66  1  0
 65  2  1  0
 59  5  1  0
 54  9  1  0
 50 19  1  0
M  CHG  1  56  -1
M  END
>  <UniqueID>  (38) 
37

>  <SMILES>  (38) 
CN(C)CCN(C)c1cc(NC(=O)c2ccc(/N=c3/nc(-c4ccccn4)cc[n-]3)cc2)cc(C(F)(F)F)c1

>  <Energy>  (38) 
85.20250800294139

>  <Genealogy>  (38) 
CN(C)CCN(C)c1cc(NC(=O)c2ccc(N=c3nc(-c4ccccn4)cc[n-]3)cc2)cc(C(F)(F)F)c1 (protonated)
CN(C)CCN(C)c1cc(NC(=O)c2ccc(/N=c3/nc(-c4ccccn4)cc[n-]3)cc2)cc(C(F)(F)F)c1 (cis-trans isomerization)
CN(C)CCN(C)c1cc(NC(=O)c2ccc(/N=c3/nc(-c4ccccn4)cc[n-]3)cc2)cc(C(F)(F)F)c1 (3D coordinates assigned)
CN(C)CCN(C)c1cc(NC(=O)c2ccc(/N=c3/nc(-c4ccccn4)cc[n-]3)cc2)cc(C(F)(F)F)c1 (optimized conformer: 85.20250800294139 kcal/mol)

>  <smiles>  (38) 
CN(C)CCN(C)c1cc(NC(=O)c2ccc(N=c3nc(-c4ccccn4)cc[nH]3)cc2)cc(C(F)(F)F)c1

>  <score_type>  (38) 
oracle

>  <origin>  (38) 
adgpu

>  <m_score__min__energy>  (38) 
-10.529999999999999

>  <m_primary>  (38) 
energy

$$$$
38:0
     RDKit          3D

 72 77  0  0  0  0  0  0  0  0999 V2000
    0.6100   27.2490  -26.5520 C   0  0  0  0  0  0  0  0  0  0  0  0
    0.8890   26.1360  -27.4010 O   0  0  0  0  0  0  0  0  0  0  0  0
   -0.0730   25.2160  -27.8450 C   0  0  0  0  0  0  0  0  0  0  0  0
    0.0110   23.8420  -27.5450 C   0  0  0  0  0  0  0  0  0  0  0  0
   -0.9690   22.9490  -28.0120 C   0  0  0  0  0  0  0  0  0  0  0  0
   -0.8720   21.4760  -27.7010 C   0  0  0  0  0  0  0  0  0  0  0  0
   -0.6020   20.6860  -28.9140 N   0  0  0  0  0  0  0  0  0  0  0  0
    0.5290   19.9840  -29.1890 C   0  0  0  0  0  0  0  0  0  0  0  0
    1.7610   19.9670  -28.3230 C   0  0  0  0  0  0  0  0  0  0  0  0
    0.4010   19.3400  -30.4150 C   0  0  0  0  0  0  0  0  0  0  0  0
    1.4060   18.5060  -31.1020 C   0  0  0  0  0  0  0  0  0  0  0  0
    1.3470   17.1050  -31.0010 C   0  0  0  0  0  0  0  0  0  0  0  0
    2.3020   16.3080  -31.6470 C   0  0  0  0  0  0  0  0  0  0  0  0
    3.3250   16.9070  -32.3880 C   0  0  0  0  0  0  0  0  0  0  0  0
    4.2630   16.1190  -33.0460 O   0  0  0  0  0  0  0  0  0  0  0  0
    3.4020   18.3020  -32.4720 C   0  0  0  0  0  0  0  0  0  0  0  0
    2.4480   19.1010  -31.8290 C   0  0  0  0  0  0  0  0  0  0  0  0
   -0.8500   19.6690  -30.9050 C   0  0  0  0  0  0  0  0  0  0  0  0
   -1.4570   19.1470  -32.1460 C   0  0  0  0  0  0  0  0  0  0  0  0
   -0.6530   18.6920  -33.2020 C   0  0  0  0  0  0  0  0  0  0  0  0
   -1.2440   18.1610  -34.3550 C   0  0  0  0  0  0  0  0  0  0  0  0
   -2.6390   18.0950  -34.4620 C   0  0  0  0  0  0  0  0  0  0  0  0
   -3.4480   18.5610  -33.4150 C   0  0  0  0  0  0  0  0  0  0  0  0
   -4.8740   18.4960  -33.5130 N   0  0  0  0  0  0  0  0  0  0  0  0
   -5.5410   17.2130  -33.2270 C   0  0  0  0  0  0  0  0  0  0  0  0
   -7.0500   17.2600  -33.5080 C   0  0  0  0  0  0  0  0  0  0  0  0
   -7.6490   18.5340  -32.9800 C   0  0  0  0  0  0  0  0  0  0  0  0
   -8.9110   18.5440  -32.3690 C   0  0  0  0  0  0  0  0  0  0  0  0
   -9.4630   19.7490  -31.9290 C   0  0  0  0  0  0  0  0  0  0  0  0
   -8.7720   20.9490  -32.1150 C   0  0  0  0  0  0  0  0  0  0  0  0
   -7.5200   20.9490  -32.7350 C   0  0  0  0  0  0  0  0  0  0  0  0
   -6.9500   19.7390  -33.1620 C   0  0  0  0  0  0  0  0  0  0  0  0
   -5.6220   19.7120  -33.8680 C   0  0  0  0  0  0  0  0  0  0  0  0
   -2.8550   19.0850  -32.2610 C   0  0  0  0  0  0  0  0  0  0  0  0
   -1.4530   20.4820  -29.9550 C   0  0  0  0  0  0  0  0  0  0  0  0
   -2.8500   21.0280  -30.0550 C   0  0  0  0  0  0  0  0  0  0  0  0
   -2.0270   23.4400  -28.7950 C   0  0  0  0  0  0  0  0  0  0  0  0
   -2.1150   24.8030  -29.0940 C   0  0  0  0  0  0  0  0  0  0  0  0
   -3.1710   25.2750  -29.8680 O   0  0  0  0  0  0  0  0  0  0  0  0
   -1.1430   25.6880  -28.6160 C   0  0  0  0  0  0  0  0  0  0  0  0
   -1.2390   27.0440  -28.9130 O   0  0  0  0  0  0  0  0  0  0  0  0
    0.6883   26.9366  -25.5002 H   0  0  0  0  0  0  0  0  0  0  0  0
    1.3345   28.0525  -26.7508 H   0  0  0  0  0  0  0  0  0  0  0  0
   -0.4079   27.6157  -26.7508 H   0  0  0  0  0  0  0  0  0  0  0  0
    0.8496   23.4653  -26.9409 H   0  0  0  0  0  0  0  0  0  0  0  0
   -0.0562   21.3155  -26.9808 H   0  0  0  0  0  0  0  0  0  0  0  0
   -1.8343   21.1473  -27.2816 H   0  0  0  0  0  0  0  0  0  0  0  0
    1.4646   19.9711  -27.2637 H   0  0  0  0  0  0  0  0  0  0  0  0
    2.3467   19.0607  -28.5364 H   0  0  0  0  0  0  0  0  0  0  0  0
    2.3715   20.8568  -28.5364 H   0  0  0  0  0  0  0  0  0  0  0  0
    0.5474   16.6320  -30.4121 H   0  0  0  0  0  0  0  0  0  0  0  0
    2.2466   15.2120  -31.5710 H   0  0  0  0  0  0  0  0  0  0  0  0
    4.2146   18.7725  -33.0450 H   0  0  0  0  0  0  0  0  0  0  0  0
    2.5159   20.1970  -31.8942 H   0  0  0  0  0  0  0  0  0  0  0  0
    0.4426   18.7525  -33.1241 H   0  0  0  0  0  0  0  0  0  0  0  0
   -0.6120   17.7953  -35.1777 H   0  0  0  0  0  0  0  0  0  0  0  0
   -3.1010   17.6770  -35.3686 H   0  0  0  0  0  0  0  0  0  0  0  0
   -5.0890   16.4323  -33.8564 H   0  0  0  0  0  0  0  0  0  0  0  0
   -5.4066   16.9974  -32.1568 H   0  0  0  0  0  0  0  0  0  0  0  0
   -7.2171   17.2052  -34.5939 H   0  0  0  0  0  0  0  0  0  0  0  0
   -7.5304   16.4080  -33.0047 H   0  0  0  0  0  0  0  0  0  0  0  0
   -9.4658   17.6035  -32.2363 H   0  0  0  0  0  0  0  0  0  0  0  0
  -10.4454   19.7534  -31.4342 H   0  0  0  0  0  0  0  0  0  0  0  0
   -9.2147   21.8959  -31.7725 H   0  0  0  0  0  0  0  0  0  0  0  0
   -6.9815   21.8958  -32.8884 H   0  0  0  0  0  0  0  0  0  0  0  0
   -5.7896   19.7294  -34.9550 H   0  0  0  0  0  0  0  0  0  0  0  0
   -5.0376   20.5916  -33.5601 H   0  0  0  0  0  0  0  0  0  0  0  0
   -3.4879   19.4506  -31.4389 H   0  0  0  0  0  0  0  0  0  0  0  0
   -3.2550   21.1863  -29.0446 H   0  0  0  0  0  0  0  0  0  0  0  0
   -2.8317   21.9851  -30.5968 H   0  0  0  0  0  0  0  0  0  0  0  0
   -3.4856   20.3121  -30.5968 H   0  0  0  0  0  0  0  0  0  0  0  0
   -2.7918   22.7471  -29.1757 H   0  0  0  0  0  0  0  0  0  0  0  0
  1  2  1  0
  2  3  1  0
  3  4  2  0
  4  5  1  0
  5  6  1  0
  6  7  1  0
  7  8  1  0
  8  9  1  0
  8 10  2  0
 10 11  1  0
 11 12  2  0
 12 13  1  0
 13 14  2  0
 14 15  1  0
 14 16  1  0
 16 17  2  0
 10 18  1  0
 18 19  1  0
 19 20  2  0
 20 21  1  0
 21 22  2  0
 22 23  1  0
 23 24  1  0
 24 25  1  0
 25 26  1  0
 26 27  1  0
 27 28  2  0
 28 29  1  0
 29 30  2  0
 30 31  1  0
 31 32  2  0
 32 33  1  0
 23 34  2  0
 18 35  2  0
 35 36  1  0
  5 37  2  0
 37 38  1  0
 38 39  1  0
 38 40  2  0
 40 41  1  0
 40  3  1  0
 35  7  1  0
 17 11  1  0
 34 19  1  0
 33 24  1  0
 32 27  1  0
  1 42  1  0
  1 43  1  0
  1 44  1  0
  4 45  1  0
  6 46  1  0
  6 47  1  0
  9 48  1  0
  9 49  1  0
  9 50  1  0
 12 51  1  0
 13 52  1  0
 16 53  1  0
 17 54  1  0
 20 55  1  0
 21 56  1  0
 22 57  1  0
 25 58  1  0
 25 59  1  0
 26 60  1  0
 26 61  1  0
 28 62  1  0
 29 63  1  0
 30 64  1  0
 31 65  1  0
 33 66  1  0
 33 67  1  0
 34 68  1  0
 36 69  1  0
 36 70  1  0
 36 71  1  0
 37 72  1  0
M  CHG  3  15  -1  39  -1  41  -1
M  END
>  <UniqueID>  (39) 
38

>  <SMILES>  (39) 
COc1cc(Cn2c(C)c(-c3ccc([O-])cc3)c(-c3cccc(N4CCc5ccccc5C4)c3)c2C)cc([O-])c1[O-]

>  <Energy>  (39) 
123.086911415134

>  <Genealogy>  (39) 
COc1cc(Cn2c(C)c(-c3ccc([O-])cc3)c(-c3cccc(N4CCc5ccccc5C4)c3)c2C)cc([O-])c1[O-] (protonated)
COc1cc(Cn2c(C)c(-c3ccc([O-])cc3)c(-c3cccc(N4CCc5ccccc5C4)c3)c2C)cc([O-])c1[O-] (3D coordinates assigned)
COc1cc(Cn2c(C)c(-c3ccc([O-])cc3)c(-c3cccc(N4CCc5ccccc5C4)c3)c2C)cc([O-])c1[O-] (nonaromatic ring conformer: 123.086911415134 kcal/mol)

>  <smiles>  (39) 
COc1cc(Cn2c(C)c(-c3ccc(O)cc3)c(-c3cccc(N4CCc5ccccc5C4)c3)c2C)cc(O)c1O

>  <score_type>  (39) 
oracle

>  <origin>  (39) 
adgpu

>  <m_score__min__energy>  (39) 
-14.67

>  <m_primary>  (39) 
energy

$$$$
39:0
     RDKit          3D

 34 36  0  0  0  0  0  0  0  0999 V2000
   -3.7030   26.0090  -31.2430 H   0  0  0  0  0  0  0  0  0  0  0  0
   -3.5290   25.2960  -30.4990 N   0  0  0  0  0  0  0  0  0  0  0  0
   -5.0730   24.8120  -29.8920 S   0  0  0  0  0  0  0  0  0  0  0  0
   -4.9290   24.3370  -28.4740 O   0  0  0  0  0  0  0  0  0  0  0  0
   -6.0130   25.9840  -29.9160 O   0  0  0  0  0  0  0  0  0  0  0  0
   -5.7120   23.5140  -30.8940 C   0  0  0  0  0  0  0  0  0  0  0  0
   -7.0180   23.0450  -30.6940 C   0  0  0  0  0  0  0  0  0  0  0  0
   -7.6429   23.4848  -29.9027 H   0  0  0  0  0  0  0  0  0  0  0  0
   -7.5290   22.0210  -31.4960 C   0  0  0  0  0  0  0  0  0  0  0  0
   -8.5465   21.6427  -31.3183 H   0  0  0  0  0  0  0  0  0  0  0  0
   -6.7520   21.4740  -32.5250 C   0  0  0  0  0  0  0  0  0  0  0  0
   -7.2830   20.3920  -33.3020 N   0  0  0  0  0  0  0  0  0  0  0  0
   -6.8420   19.1670  -33.3450 C   0  0  0  0  0  0  0  0  0  0  0  0
   -7.4322   18.4259  -33.9039 H   0  0  0  0  0  0  0  0  0  0  0  0
   -5.5720   18.7010  -32.6760 C   0  0  0  0  0  0  0  0  0  0  0  0
   -5.2263   19.5512  -32.0696 H   0  0  0  0  0  0  0  0  0  0  0  0
   -5.8140   17.4370  -31.8970 C   0  0  0  0  0  0  0  0  0  0  0  0
   -6.5740   17.3420  -30.8970 O   0  0  0  0  0  0  0  0  0  0  0  0
   -5.0350   16.3380  -32.4500 C   0  0  0  0  0  0  0  0  0  0  0  0
   -4.9620   15.0060  -32.0410 C   0  0  0  0  0  0  0  0  0  0  0  0
   -5.5484   14.6460  -31.1828 H   0  0  0  0  0  0  0  0  0  0  0  0
   -4.1190   14.1360  -32.7550 C   0  0  0  0  0  0  0  0  0  0  0  0
   -4.0413   13.0804  -32.4556 H   0  0  0  0  0  0  0  0  0  0  0  0
   -3.3730   14.6110  -33.8530 C   0  0  0  0  0  0  0  0  0  0  0  0
   -2.7163   13.9238  -34.4066 H   0  0  0  0  0  0  0  0  0  0  0  0
   -3.4640   15.9580  -34.2440 C   0  0  0  0  0  0  0  0  0  0  0  0
   -2.8848   16.3384  -35.0983 H   0  0  0  0  0  0  0  0  0  0  0  0
   -4.3080   16.7990  -33.5200 C   0  0  0  0  0  0  0  0  0  0  0  0
   -4.5870   18.2170  -33.7030 C   0  0  0  0  0  0  0  0  0  0  0  0
   -4.0600   18.9410  -34.5890 O   0  0  0  0  0  0  0  0  0  0  0  0
   -5.4340   21.9240  -32.7070 C   0  0  0  0  0  0  0  0  0  0  0  0
   -4.8016   21.4684  -33.4832 H   0  0  0  0  0  0  0  0  0  0  0  0
   -4.9230   22.9490  -31.9050 C   0  0  0  0  0  0  0  0  0  0  0  0
   -3.8980   23.3132  -32.0682 H   0  0  0  0  0  0  0  0  0  0  0  0
  1  2  1  0
  2  3  1  0
  3  4  2  0
  3  5  2  0
  3  6  1  0
  6  7  2  0
  7  8  1  0
  7  9  1  0
  9 10  1  0
  9 11  2  0
 11 12  1  0
 12 13  2  0
 13 14  1  0
 13 15  1  0
 15 16  1  0
 15 17  1  0
 17 18  2  0
 17 19  1  0
 19 20  2  0
 20 21  1  0
 20 22  1  0
 22 23  1  0
 22 24  2  0
 24 25  1  0
 24 26  1  0
 26 27  1  0
 26 28  2  0
 28 29  1  0
 29 30  2  0
 11 31  1  0
 31 32  1  0
 31 33  2  0
 33 34  1  0
 33  6  1  0
 29 15  1  0
 28 19  1  0
M  CHG  1   2  -1
M  END
>  <UniqueID>  (40) 
39

>  <SMILES>  (40) 
[NH-]S(=O)(=O)c1ccc(/N=C\C2C(=O)c3ccccc3C2=O)cc1

>  <Energy>  (40) 
63.802359896813684

>  <Genealogy>  (40) 
[NH-]S(=O)(=O)c1ccc(N=CC2C(=O)c3ccccc3C2=O)cc1 (protonated)
[NH-]S(=O)(=O)c1ccc(/N=C\C2C(=O)c3ccccc3C2=O)cc1 (cis-trans isomerization)
[NH-]S(=O)(=O)c1ccc(/N=C\C2C(=O)c3ccccc3C2=O)cc1 (3D coordinates assigned)
[NH-]S(=O)(=O)c1ccc(/N=C\C2C(=O)c3ccccc3C2=O)cc1 (nonaromatic ring conformer: 63.802359896813684 kcal/mol)

>  <smiles>  (40) 
NS(=O)(=O)c1ccc(N=CC2C(=O)c3ccccc3C2=O)cc1

>  <score_type>  (40) 
oracle

>  <origin>  (40) 
adgpu

>  <m_score__min__energy>  (40) 
-10.960000000000001

>  <m_primary>  (40) 
energy

$$$$
40:0
     RDKit          3D

 54 56  0  0  0  0  0  0  0  0999 V2000
   -3.9880   21.9720  -32.8260 C   0  0  0  0  0  0  0  0  0  0  0  0
   -5.3940   21.7190  -32.3890 C   0  0  0  0  0  0  0  0  0  0  0  0
   -6.1850   20.7690  -32.9250 N   0  0  0  0  0  0  0  0  0  0  0  0
   -7.3810   20.8850  -32.3650 N   0  0  0  0  0  0  0  0  0  0  0  0
   -8.5350   20.0530  -32.7130 C   0  0  0  0  0  0  0  0  0  0  0  0
   -8.4310   18.6940  -32.0160 C   0  0  0  0  0  0  0  0  0  0  0  0
   -9.8360   20.7680  -32.3380 C   0  0  0  0  0  0  0  0  0  0  0  0
   -7.3840   21.9080  -31.4880 C   0  0  0  0  0  0  0  0  0  0  0  0
   -6.1250   22.4640  -31.4830 C   0  0  0  0  0  0  0  0  0  0  0  0
   -5.6060   23.8860  -30.5900 S   0  0  0  0  0  0  0  0  0  0  0  0
   -4.3570   24.4580  -31.2020 O   0  0  0  0  0  0  0  0  0  0  0  0
   -6.6960   24.9190  -30.6510 O   0  0  0  0  0  0  0  0  0  0  0  0
   -5.2970   23.4680  -28.9360 N   0  0  0  0  0  0  0  0  0  0  0  0
   -3.9790   23.2700  -28.3930 C   0  0  0  0  0  0  0  0  0  0  0  0
   -3.5460   22.0120  -27.9330 C   0  0  0  0  0  0  0  0  0  0  0  0
   -2.2630   21.8590  -27.4020 C   0  0  0  0  0  0  0  0  0  0  0  0
   -1.3940   22.9490  -27.3370 C   0  0  0  0  0  0  0  0  0  0  0  0
   -1.8020   24.2040  -27.8100 C   0  0  0  0  0  0  0  0  0  0  0  0
   -0.6910   25.5750  -27.7640 S   0  0  0  0  0  0  0  0  0  0  0  0
    0.7240   25.0690  -27.8140 O   0  0  0  0  0  0  0  0  0  0  0  0
   -0.9180   26.4390  -28.9750 O   0  0  0  0  0  0  0  0  0  0  0  0
   -0.9130   26.5300  -26.3160 N   0  0  0  0  0  0  0  0  0  0  0  0
   -1.0950   25.6470  -25.1420 C   0  0  0  0  0  0  0  0  0  0  0  0
   -0.8770   26.4080  -23.8310 C   0  0  0  0  0  0  0  0  0  0  0  0
    0.5600   26.9560  -23.7380 C   0  0  0  0  0  0  0  0  0  0  0  0
    1.2070   27.1680  -25.1170 C   0  0  0  0  0  0  0  0  0  0  0  0
    0.1540   27.5510  -26.1670 C   0  0  0  0  0  0  0  0  0  0  0  0
   -3.0950   24.3600  -28.3300 C   0  0  0  0  0  0  0  0  0  0  0  0
   -3.3443   22.0878  -31.9415 H   0  0  0  0  0  0  0  0  0  0  0  0
   -3.6331   21.1233  -33.4291 H   0  0  0  0  0  0  0  0  0  0  0  0
   -3.9513   22.8912  -33.4291 H   0  0  0  0  0  0  0  0  0  0  0  0
   -8.5422   19.8823  -33.7997 H   0  0  0  0  0  0  0  0  0  0  0  0
   -8.4421   18.8393  -30.9257 H   0  0  0  0  0  0  0  0  0  0  0  0
   -9.2836   18.0646  -32.3107 H   0  0  0  0  0  0  0  0  0  0  0  0
   -7.4925   18.2016  -32.3107 H   0  0  0  0  0  0  0  0  0  0  0  0
   -9.9250   20.8169  -31.2427 H   0  0  0  0  0  0  0  0  0  0  0  0
   -9.8263   21.7875  -32.7510 H   0  0  0  0  0  0  0  0  0  0  0  0
  -10.6914   20.2133  -32.7510 H   0  0  0  0  0  0  0  0  0  0  0  0
   -8.2408   22.2399  -30.8833 H   0  0  0  0  0  0  0  0  0  0  0  0
   -6.1280   23.2510  -28.3410 H   0  0  0  0  0  0  0  0  0  0  0  0
   -4.2210   21.1455  -27.9920 H   0  0  0  0  0  0  0  0  0  0  0  0
   -1.9364   20.8753  -27.0336 H   0  0  0  0  0  0  0  0  0  0  0  0
   -0.3866   22.8231  -26.9136 H   0  0  0  0  0  0  0  0  0  0  0  0
   -2.1174   25.2412  -25.1545 H   0  0  0  0  0  0  0  0  0  0  0  0
   -0.3528   24.8372  -25.1996 H   0  0  0  0  0  0  0  0  0  0  0  0
   -1.5854   27.2481  -23.7816 H   0  0  0  0  0  0  0  0  0  0  0  0
   -1.0402   25.7137  -22.9936 H   0  0  0  0  0  0  0  0  0  0  0  0
    0.5349   27.9204  -23.2095 H   0  0  0  0  0  0  0  0  0  0  0  0
    1.1644   26.2113  -23.1994 H   0  0  0  0  0  0  0  0  0  0  0  0
    1.9521   27.9739  -25.0445 H   0  0  0  0  0  0  0  0  0  0  0  0
    1.6851   26.2273  -25.4277 H   0  0  0  0  0  0  0  0  0  0  0  0
   -0.3102   28.5022  -25.8675 H   0  0  0  0  0  0  0  0  0  0  0  0
    0.6691   27.6331  -27.1355 H   0  0  0  0  0  0  0  0  0  0  0  0
   -3.4205   25.3463  -28.6924 H   0  0  0  0  0  0  0  0  0  0  0  0
  1  2  1  0
  2  3  2  0
  3  4  1  0
  4  5  1  0
  5  6  1  0
  5  7  1  0
  4  8  1  0
  8  9  2  0
  9 10  1  0
 10 11  2  0
 10 12  2  0
 10 13  1  0
 13 14  1  0
 14 15  2  0
 15 16  1  0
 16 17  2  0
 17 18  1  0
 18 19  1  0
 19 20  2  0
 19 21  2  0
 19 22  1  0
 22 23  1  0
 23 24  1  0
 24 25  1  0
 25 26  1  0
 26 27  1  0
 18 28  2  0
  9  2  1  0
 28 14  1  0
 27 22  1  0
  1 29  1  0
  1 30  1  0
  1 31  1  0
  5 32  1  0
  6 33  1  0
  6 34  1  0
  6 35  1  0
  7 36  1  0
  7 37  1  0
  7 38  1  0
  8 39  1  0
 13 40  1  0
 15 41  1  0
 16 42  1  0
 17 43  1  0
 23 44  1  0
 23 45  1  0
 24 46  1  0
 24 47  1  0
 25 48  1  0
 25 49  1  0
 26 50  1  0
 26 51  1  0
 27 52  1  0
 27 53  1  0
 28 54  1  0
M  END
>  <UniqueID>  (41) 
40

>  <SMILES>  (41) 
Cc1nn(C(C)C)cc1S(=O)(=O)Nc1cccc(S(=O)(=O)N2CCCCC2)c1

>  <Energy>  (41) 
84.3330043351115

>  <Genealogy>  (41) 
Cc1nn(C(C)C)cc1S(=O)(=O)Nc1cccc(S(=O)(=O)N2CCCCC2)c1 (3D coordinates assigned)
Cc1nn(C(C)C)cc1S(=O)(=O)Nc1cccc(S(=O)(=O)N2CCCCC2)c1 (nonaromatic ring conformer: 84.3330043351115 kcal/mol)

>  <smiles>  (41) 
Cc1nn(C(C)C)cc1S(=O)(=O)Nc1cccc(S(=O)(=O)N2CCCCC2)c1

>  <score_type>  (41) 
oracle

>  <origin>  (41) 
adgpu

>  <m_score__min__energy>  (41) 
-10.59

>  <m_primary>  (41) 
energy

$$$$
41:0
     RDKit          3D

 55 57  0  0  0  0  0  0  0  0999 V2000
   -1.6420   17.6110  -33.1330 C   0  0  0  0  0  0  0  0  0  0  0  0
   -2.1810   19.1180  -33.9100 S   0  0  0  0  0  0  0  0  0  0  0  0
   -3.5180   18.8960  -34.5570 O   0  0  0  0  0  0  0  0  0  0  0  0
   -1.1920   19.5310  -34.9620 O   0  0  0  0  0  0  0  0  0  0  0  0
   -2.3170   20.3830  -32.7030 C   0  0  0  0  0  0  0  0  0  0  0  0
   -1.4950   20.5610  -31.6120 C   0  0  0  0  0  0  0  0  0  0  0  0
   -1.9880   21.6640  -30.9400 C   0  0  0  0  0  0  0  0  0  0  0  0
   -1.4330   22.1690  -29.6680 C   0  0  0  0  0  0  0  0  0  0  0  0
   -1.2830   21.3700  -28.7050 O   0  0  0  0  0  0  0  0  0  0  0  0
   -0.9890   23.5280  -29.5490 N   0  0  0  0  0  0  0  0  0  0  0  0
   -0.9190   24.2480  -28.3050 C   0  0  0  0  0  0  0  0  0  0  0  0
    0.3110   24.5230  -27.6820 C   0  0  0  0  0  0  0  0  0  0  0  0
    0.3490   25.1580  -26.4370 C   0  0  0  0  0  0  0  0  0  0  0  0
   -0.8420   25.5310  -25.7890 C   0  0  0  0  0  0  0  0  0  0  0  0
   -0.8100   26.1870  -24.4560 C   0  0  0  0  0  0  0  0  0  0  0  0
    0.1110   25.7320  -23.4570 N   0  0  0  0  0  0  0  0  0  0  0  0
   -1.6100   27.1750  -24.1840 N   0  0  0  0  0  0  0  0  0  0  0  0
   -2.0700   25.2490  -26.4090 C   0  0  0  0  0  0  0  0  0  0  0  0
   -2.1070   24.6080  -27.6510 C   0  0  0  0  0  0  0  0  0  0  0  0
   -3.0860   22.1450  -31.5790 N   0  0  0  0  0  0  0  0  0  0  0  0
   -4.0140   23.1950  -31.1340 C   0  0  0  0  0  0  0  0  0  0  0  0
   -5.4290   22.6770  -31.0660 C   0  0  0  0  0  0  0  0  0  0  0  0
   -6.3010   23.1200  -30.0580 C   0  0  0  0  0  0  0  0  0  0  0  0
   -7.6030   22.6190  -29.9820 C   0  0  0  0  0  0  0  0  0  0  0  0
   -8.0520   21.6840  -30.9180 C   0  0  0  0  0  0  0  0  0  0  0  0
   -7.2050   21.2550  -31.9560 C   0  0  0  0  0  0  0  0  0  0  0  0
   -7.6810   20.2820  -32.9740 C   0  0  0  0  0  0  0  0  0  0  0  0
   -6.7380   19.6570  -33.8560 N   0  0  0  0  0  0  0  0  0  0  0  0
   -8.9430   19.9840  -33.0700 N   0  0  0  0  0  0  0  0  0  0  0  0
   -5.8980   21.7650  -32.0280 C   0  0  0  0  0  0  0  0  0  0  0  0
   -3.2820   21.3630  -32.6610 C   0  0  0  0  0  0  0  0  0  0  0  0
   -1.6835   17.7269  -32.0399 H   0  0  0  0  0  0  0  0  0  0  0  0
   -2.3003   16.7847  -33.4393 H   0  0  0  0  0  0  0  0  0  0  0  0
   -0.6090   17.3896  -33.4393 H   0  0  0  0  0  0  0  0  0  0  0  0
   -0.6240   19.9501  -31.3325 H   0  0  0  0  0  0  0  0  0  0  0  0
   -0.6250   23.9930  -30.4130 H   0  0  0  0  0  0  0  0  0  0  0  0
    1.2503   24.2365  -28.1777 H   0  0  0  0  0  0  0  0  0  0  0  0
    1.3181   25.3675  -25.9606 H   0  0  0  0  0  0  0  0  0  0  0  0
    0.8130   24.9880  -23.6660 H   0  0  0  0  0  0  0  0  0  0  0  0
    0.1420   26.1840  -22.5150 H   0  0  0  0  0  0  0  0  0  0  0  0
   -2.3140   27.5200  -24.8750 H   0  0  0  0  0  0  0  0  0  0  0  0
   -1.5810   27.6420  -23.2500 H   0  0  0  0  0  0  0  0  0  0  0  0
   -3.0098   25.5345  -25.9138 H   0  0  0  0  0  0  0  0  0  0  0  0
   -3.0765   24.3838  -28.1198 H   0  0  0  0  0  0  0  0  0  0  0  0
   -3.7106   23.5429  -30.1356 H   0  0  0  0  0  0  0  0  0  0  0  0
   -3.9794   24.0216  -31.8589 H   0  0  0  0  0  0  0  0  0  0  0  0
   -5.9573   23.8648  -29.3251 H   0  0  0  0  0  0  0  0  0  0  0  0
   -8.2766   22.9618  -29.1828 H   0  0  0  0  0  0  0  0  0  0  0  0
   -9.0729   21.2813  -30.8429 H   0  0  0  0  0  0  0  0  0  0  0  0
   -5.7300   19.9360  -33.8570 H   0  0  0  0  0  0  0  0  0  0  0  0
   -7.0480   18.9400  -34.5510 H   0  0  0  0  0  0  0  0  0  0  0  0
   -9.6560   20.3870  -32.4220 H   0  0  0  0  0  0  0  0  0  0  0  0
   -9.2760   19.3020  -33.7890 H   0  0  0  0  0  0  0  0  0  0  0  0
   -5.2343   21.4475  -32.8458 H   0  0  0  0  0  0  0  0  0  0  0  0
   -4.0897   21.4896  -33.3969 H   0  0  0  0  0  0  0  0  0  0  0  0
  1  2  1  0
  2  3  2  0
  2  4  2  0
  2  5  1  0
  5  6  1  0
  6  7  2  0
  7  8  1  0
  8  9  2  0
  8 10  1  0
 10 11  1  0
 11 12  2  0
 12 13  1  0
 13 14  2  0
 14 15  1  0
 15 16  1  0
 15 17  2  0
 14 18  1  0
 18 19  2  0
  7 20  1  0
 20 21  1  0
 21 22  1  0
 22 23  2  0
 23 24  1  0
 24 25  2  0
 25 26  1  0
 26 27  1  0
 27 28  1  0
 27 29  2  0
 26 30  2  0
 20 31  1  0
 31  5  2  0
 19 11  1  0
 30 22  1  0
  1 32  1  0
  1 33  1  0
  1 34  1  0
  6 35  1  0
 10 36  1  0
 12 37  1  0
 13 38  1  0
 16 39  1  0
 16 40  1  0
 17 41  1  0
 17 42  1  0
 18 43  1  0
 19 44  1  0
 21 45  1  0
 21 46  1  0
 23 47  1  0
 24 48  1  0
 25 49  1  0
 28 50  1  0
 28 51  1  0
 29 52  1  0
 29 53  1  0
 30 54  1  0
 31 55  1  0
M  CHG  2  17   1  29   1
M  END
>  <UniqueID>  (42) 
41

>  <SMILES>  (42) 
CS(=O)(=O)c1cc(C(=O)Nc2ccc(C(N)=[NH2+])cc2)n(Cc2cccc(C(N)=[NH2+])c2)c1

>  <Energy>  (42) 
87.74605227036103

>  <Genealogy>  (42) 
CS(=O)(=O)c1cc(C(=O)Nc2ccc(C(N)=[NH2+])cc2)n(Cc2cccc(C(N)=[NH2+])c2)c1 (protonated)
CS(=O)(=O)c1cc(C(=O)Nc2ccc(C(N)=[NH2+])cc2)n(Cc2cccc(C(N)=[NH2+])c2)c1 (3D coordinates assigned)
CS(=O)(=O)c1cc(C(=O)Nc2ccc(C(N)=[NH2+])cc2)n(Cc2cccc(C(N)=[NH2+])c2)c1 (optimized conformer: 87.74605227036103 kcal/mol)

>  <smiles>  (42) 
CS(=O)(=O)c1cc(C(=O)Nc2ccc(C(=N)N)cc2)n(Cc2cccc(C(=N)N)c2)c1

>  <score_type>  (42) 
oracle

>  <origin>  (42) 
adgpu

>  <m_score__min__energy>  (42) 
-10.06

>  <m_primary>  (42) 
energy

$$$$
42:0
     RDKit          3D

 54 56  0  0  0  0  0  0  0  0999 V2000
    0.2370   21.8190  -35.2810 C   0  0  0  0  0  0  0  0  0  0  0  0
    0.1750   20.4030  -34.9390 N   0  0  0  0  0  0  0  0  0  0  0  0
   -1.0850   20.1330  -33.7750 S   0  0  0  0  0  0  0  0  0  0  0  0
   -0.6990   20.7410  -32.4560 O   0  0  0  0  0  0  0  0  0  0  0  0
   -2.3460   20.7960  -34.2540 O   0  0  0  0  0  0  0  0  0  0  0  0
   -1.3800   18.4060  -33.5840 C   0  0  0  0  0  0  0  0  0  0  0  0
   -0.8400   17.7090  -32.4940 C   0  0  0  0  0  0  0  0  0  0  0  0
   -1.0590   16.3350  -32.3580 C   0  0  0  0  0  0  0  0  0  0  0  0
   -1.8150   15.6370  -33.3160 C   0  0  0  0  0  0  0  0  0  0  0  0
   -2.0430   14.2220  -33.1770 N   0  0  0  0  0  0  0  0  0  0  0  0
   -0.9790   13.2690  -33.5000 C   0  0  0  0  0  0  0  0  0  0  0  0
   -3.5600   13.6230  -32.5760 S   0  0  0  0  0  0  0  0  0  0  0  0
   -3.5380   13.5560  -31.0730 O   0  0  0  0  0  0  0  0  0  0  0  0
   -3.8020   12.2430  -33.1210 O   0  0  0  0  0  0  0  0  0  0  0  0
   -4.8520   14.7190  -33.0570 C   0  0  0  0  0  0  0  0  0  0  0  0
   -5.8190   14.3220  -33.9900 C   0  0  0  0  0  0  0  0  0  0  0  0
   -6.8300   15.2070  -34.3680 C   0  0  0  0  0  0  0  0  0  0  0  0
   -6.8800   16.4940  -33.8260 C   0  0  0  0  0  0  0  0  0  0  0  0
   -5.9070   16.9130  -32.8990 C   0  0  0  0  0  0  0  0  0  0  0  0
   -5.9440   18.2690  -32.3020 C   0  0  0  0  0  0  0  0  0  0  0  0
   -6.4550   18.4160  -31.1580 O   0  0  0  0  0  0  0  0  0  0  0  0
   -5.4190   19.4090  -33.0090 N   0  0  0  0  0  0  0  0  0  0  0  0
   -5.3600   20.7370  -32.4620 C   0  0  0  0  0  0  0  0  0  0  0  0
   -4.1780   21.1740  -31.8480 C   0  0  0  0  0  0  0  0  0  0  0  0
   -4.0980   22.4530  -31.2890 C   0  0  0  0  0  0  0  0  0  0  0  0
   -5.2090   23.3160  -31.3180 C   0  0  0  0  0  0  0  0  0  0  0  0
   -5.1230   24.6720  -30.7280 C   0  0  0  0  0  0  0  0  0  0  0  0
   -3.8560   25.3000  -30.5350 N   0  0  0  0  0  0  0  0  0  0  0  0
   -6.1690   25.2850  -30.3870 O   0  0  0  0  0  0  0  0  0  0  0  0
   -6.4030   22.8640  -31.9090 C   0  0  0  0  0  0  0  0  0  0  0  0
   -6.4810   21.5860  -32.4670 C   0  0  0  0  0  0  0  0  0  0  0  0
   -4.8990   16.0100  -32.5140 C   0  0  0  0  0  0  0  0  0  0  0  0
   -2.3580   16.3430  -34.4030 C   0  0  0  0  0  0  0  0  0  0  0  0
   -2.1370   17.7160  -34.5380 C   0  0  0  0  0  0  0  0  0  0  0  0
    0.2632   22.4181  -34.3588 H   0  0  0  0  0  0  0  0  0  0  0  0
    1.1446   22.0143  -35.8711 H   0  0  0  0  0  0  0  0  0  0  0  0
   -0.6500   22.0929  -35.8711 H   0  0  0  0  0  0  0  0  0  0  0  0
   -0.2416   18.2454  -31.7428 H   0  0  0  0  0  0  0  0  0  0  0  0
   -0.6373   15.7968  -31.4963 H   0  0  0  0  0  0  0  0  0  0  0  0
   -0.5422   12.8778  -32.5693 H   0  0  0  0  0  0  0  0  0  0  0  0
   -1.3970   12.4377  -34.0866 H   0  0  0  0  0  0  0  0  0  0  0  0
   -0.1986   13.7757  -34.0866 H   0  0  0  0  0  0  0  0  0  0  0  0
   -5.7814   13.3123  -34.4248 H   0  0  0  0  0  0  0  0  0  0  0  0
   -7.5911   14.8898  -35.0961 H   0  0  0  0  0  0  0  0  0  0  0  0
   -7.6836   17.1830  -34.1252 H   0  0  0  0  0  0  0  0  0  0  0  0
   -5.1040   19.2920  -33.9970 H   0  0  0  0  0  0  0  0  0  0  0  0
   -3.3059   20.5049  -31.8056 H   0  0  0  0  0  0  0  0  0  0  0  0
   -3.1593   22.7872  -30.8229 H   0  0  0  0  0  0  0  0  0  0  0  0
   -3.4990   26.0110  -31.2120 H   0  0  0  0  0  0  0  0  0  0  0  0
   -7.2833   23.5232  -31.9318 H   0  0  0  0  0  0  0  0  0  0  0  0
   -7.4255   21.2413  -32.9133 H   0  0  0  0  0  0  0  0  0  0  0  0
   -4.1408   16.3203  -31.7799 H   0  0  0  0  0  0  0  0  0  0  0  0
   -2.9614   15.8108  -35.1531 H   0  0  0  0  0  0  0  0  0  0  0  0
   -2.5596   18.2569  -35.3975 H   0  0  0  0  0  0  0  0  0  0  0  0
  1  2  1  0
  2  3  1  0
  3  4  2  0
  3  5  2  0
  3  6  1  0
  6  7  2  0
  7  8  1  0
  8  9  2  0
  9 10  1  0
 10 11  1  0
 10 12  1  0
 12 13  2  0
 12 14  2  0
 12 15  1  0
 15 16  2  0
 16 17  1  0
 17 18  2  0
 18 19  1  0
 19 20  1  0
 20 21  2  0
 20 22  1  0
 22 23  1  0
 23 24  2  0
 24 25  1  0
 25 26  2  0
 26 27  1  0
 27 28  1  0
 27 29  2  0
 26 30  1  0
 30 31  2  0
 19 32  2  0
  9 33  1  0
 33 34  2  0
 34  6  1  0
 32 15  1  0
 31 23  1  0
  1 35  1  0
  1 36  1  0
  1 37  1  0
  7 38  1  0
  8 39  1  0
 11 40  1  0
 11 41  1  0
 11 42  1  0
 16 43  1  0
 17 44  1  0
 18 45  1  0
 22 46  1  0
 24 47  1  0
 25 48  1  0
 28 49  1  0
 30 50  1  0
 31 51  1  0
 32 52  1  0
 33 53  1  0
 34 54  1  0
M  CHG  2   2  -1  28  -1
M  END
>  <UniqueID>  (43) 
42

>  <SMILES>  (43) 
C[N-]S(=O)(=O)c1ccc(N(C)S(=O)(=O)c2cccc(C(=O)Nc3ccc(C([NH-])=O)cc3)c2)cc1

>  <Energy>  (43) 
66.16215193201757

>  <Genealogy>  (43) 
C[N-]S(=O)(=O)c1ccc(N(C)S(=O)(=O)c2cccc(C(=O)Nc3ccc(C([NH-])=O)cc3)c2)cc1 (protonated)
C[N-]S(=O)(=O)c1ccc(N(C)S(=O)(=O)c2cccc(C(=O)Nc3ccc(C([NH-])=O)cc3)c2)cc1 (3D coordinates assigned)
C[N-]S(=O)(=O)c1ccc(N(C)S(=O)(=O)c2cccc(C(=O)Nc3ccc(C([NH-])=O)cc3)c2)cc1 (optimized conformer: 66.16215193201757 kcal/mol)

>  <smiles>  (43) 
CNS(=O)(=O)c1ccc(N(C)S(=O)(=O)c2cccc(C(=O)Nc3ccc(C(N)=O)cc3)c2)cc1

>  <score_type>  (43) 
oracle

>  <origin>  (43) 
adgpu

>  <m_score__min__energy>  (43) 
-11.08

>  <m_primary>  (43) 
energy

$$$$
43:0
     RDKit          3D

 44 46  0  0  0  0  0  0  0  0999 V2000
   -1.4450   21.5370  -32.2530 C   0  0  0  0  0  0  0  0  0  0  0  0
   -2.1710   20.2790  -32.3690 N   0  0  0  0  0  0  0  0  0  0  0  0
   -2.0670   19.4500  -33.5360 C   0  0  0  0  0  0  0  0  0  0  0  0
   -1.2420   19.7400  -34.4430 O   0  0  0  0  0  0  0  0  0  0  0  0
   -2.8150   18.2300  -33.6400 N   0  0  0  0  0  0  0  0  0  0  0  0
   -4.1080   18.0850  -33.5620 C   0  0  0  0  0  0  0  0  0  0  0  0
   -4.9960   19.1800  -33.5270 C   0  0  0  0  0  0  0  0  0  0  0  0
   -6.3780   18.9540  -33.4160 C   0  0  0  0  0  0  0  0  0  0  0  0
   -7.3040   20.0070  -33.3760 O   0  0  0  0  0  0  0  0  0  0  0  0
   -7.2800   21.0620  -32.4550 C   0  0  0  0  0  0  0  0  0  0  0  0
   -8.2940   21.2290  -31.4960 C   0  0  0  0  0  0  0  0  0  0  0  0
   -8.2300   22.2850  -30.5850 C   0  0  0  0  0  0  0  0  0  0  0  0
   -7.1520   23.1730  -30.6140 C   0  0  0  0  0  0  0  0  0  0  0  0
   -6.1310   23.0100  -31.5570 C   0  0  0  0  0  0  0  0  0  0  0  0
   -5.0020   23.8940  -31.5250 N   0  0  0  0  0  0  0  0  0  0  0  0
   -4.8010   24.9550  -30.5790 C   0  0  0  0  0  0  0  0  0  0  0  0
   -5.7960   25.6100  -30.1760 O   0  0  0  0  0  0  0  0  0  0  0  0
   -3.4960   25.2920  -30.0820 N   0  0  0  0  0  0  0  0  0  0  0  0
   -2.5710   24.3720  -29.4860 C   0  0  0  0  0  0  0  0  0  0  0  0
   -2.9780   23.0540  -29.2440 C   0  0  0  0  0  0  0  0  0  0  0  0
   -2.1070   22.1490  -28.6280 C   0  0  0  0  0  0  0  0  0  0  0  0
   -0.8160   22.5490  -28.2740 C   0  0  0  0  0  0  0  0  0  0  0  0
   -0.3910   23.8550  -28.5410 C   0  0  0  0  0  0  0  0  0  0  0  0
    0.8980   24.2490  -28.2060 O   0  0  0  0  0  0  0  0  0  0  0  0
   -1.2640   24.7650  -29.1470 C   0  0  0  0  0  0  0  0  0  0  0  0
   -6.2280   21.9810  -32.5090 C   0  0  0  0  0  0  0  0  0  0  0  0
   -6.8540   17.6410  -33.3940 C   0  0  0  0  0  0  0  0  0  0  0  0
   -5.9520   16.5800  -33.4690 C   0  0  0  0  0  0  0  0  0  0  0  0
   -4.6180   16.8230  -33.5510 N   0  0  0  0  0  0  0  0  0  0  0  0
   -1.3036   21.7821  -31.1900 H   0  0  0  0  0  0  0  0  0  0  0  0
   -0.4638   21.4404  -32.7407 H   0  0  0  0  0  0  0  0  0  0  0  0
   -2.0196   22.3383  -32.7407 H   0  0  0  0  0  0  0  0  0  0  0  0
   -2.7450   19.9560  -31.5570 H   0  0  0  0  0  0  0  0  0  0  0  0
   -4.6078   20.2075  -33.5864 H   0  0  0  0  0  0  0  0  0  0  0  0
   -9.1396   20.5263  -31.4632 H   0  0  0  0  0  0  0  0  0  0  0  0
   -9.0305   22.4181  -29.8424 H   0  0  0  0  0  0  0  0  0  0  0  0
   -7.1056   24.0028  -29.8934 H   0  0  0  0  0  0  0  0  0  0  0  0
   -3.9865   22.7291  -29.5394 H   0  0  0  0  0  0  0  0  0  0  0  0
   -2.4391   21.1208  -28.4220 H   0  0  0  0  0  0  0  0  0  0  0  0
   -0.1340   21.8374  -27.7856 H   0  0  0  0  0  0  0  0  0  0  0  0
   -0.9272   25.7905  -29.3588 H   0  0  0  0  0  0  0  0  0  0  0  0
   -5.4707   21.8980  -33.3025 H   0  0  0  0  0  0  0  0  0  0  0  0
   -7.9337   17.4450  -33.3180 H   0  0  0  0  0  0  0  0  0  0  0  0
   -6.3216   15.5440  -33.4617 H   0  0  0  0  0  0  0  0  0  0  0  0
  1  2  1  0
  2  3  1  0
  3  4  2  0
  3  5  1  0
  5  6  2  3
  6  7  1  0
  7  8  2  0
  8  9  1  0
  9 10  1  0
 10 11  2  0
 11 12  1  0
 12 13  2  0
 13 14  1  0
 14 15  1  0
 15 16  1  0
 16 17  2  0
 16 18  1  0
 18 19  1  0
 19 20  2  0
 20 21  1  0
 21 22  2  0
 22 23  1  0
 23 24  1  0
 23 25  2  0
 14 26  2  0
  8 27  1  0
 27 28  2  0
 28 29  1  0
 29  6  1  0
 26 10  1  0
 25 19  1  0
  1 30  1  0
  1 31  1  0
  1 32  1  0
  2 33  1  0
  7 34  1  0
 11 35  1  0
 12 36  1  0
 13 37  1  0
 20 38  1  0
 21 39  1  0
 22 40  1  0
 25 41  1  0
 26 42  1  0
 27 43  1  0
 28 44  1  0
M  CHG  4  15  -1  18  -1  24  -1  29  -1
M  END
>  <UniqueID>  (44) 
43

>  <SMILES>  (44) 
CNC(=O)N=c1cc(Oc2cccc([N-]C(=O)[N-]c3cccc([O-])c3)c2)cc[n-]1

>  <Energy>  (44) 
62.17645089970664

>  <Genealogy>  (44) 
CNC(=O)N=c1cc(Oc2cccc([N-]C(=O)[N-]c3cccc([O-])c3)c2)cc[n-]1 (protonated)
CNC(=O)N=c1cc(Oc2cccc([N-]C(=O)[N-]c3cccc([O-])c3)c2)cc[n-]1 (3D coordinates assigned)
CNC(=O)N=c1cc(Oc2cccc([N-]C(=O)[N-]c3cccc([O-])c3)c2)cc[n-]1 (optimized conformer: 62.17645089970664 kcal/mol)

>  <smiles>  (44) 
CNC(=O)N=c1cc(Oc2cccc(NC(=O)Nc3cccc(O)c3)c2)cc[nH]1

>  <score_type>  (44) 
oracle

>  <origin>  (44) 
adgpu

>  <m_score__min__energy>  (44) 
-12.01

>  <m_primary>  (44) 
energy

$$$$
44:0
     RDKit          3D

 36 38  0  0  0  0  0  0  0  0999 V2000
   -4.7340   24.6390  -28.2310 N   0  0  0  0  0  0  0  0  0  0  0  0
   -5.1360   24.8900  -29.8920 S   0  0  0  0  0  0  0  0  0  0  0  0
   -3.8930   25.2510  -30.6570 O   0  0  0  0  0  0  0  0  0  0  0  0
   -6.1180   26.0230  -30.0070 O   0  0  0  0  0  0  0  0  0  0  0  0
   -5.8470   23.4220  -30.5560 C   0  0  0  0  0  0  0  0  0  0  0  0
   -7.2390   23.2730  -30.6180 C   0  0  0  0  0  0  0  0  0  0  0  0
   -7.7970   22.1030  -31.1360 C   0  0  0  0  0  0  0  0  0  0  0  0
   -6.9700   21.0820  -31.6120 C   0  0  0  0  0  0  0  0  0  0  0  0
   -5.5780   21.2330  -31.5950 C   0  0  0  0  0  0  0  0  0  0  0  0
   -4.7600   20.1500  -32.0710 N   0  0  0  0  0  0  0  0  0  0  0  0
   -3.6480   20.2470  -32.7420 C   0  0  0  0  0  0  0  0  0  0  0  0
   -2.9500   19.0890  -33.0860 C   0  0  0  0  0  0  0  0  0  0  0  0
   -1.7740   19.1940  -33.8250 C   0  0  0  0  0  0  0  0  0  0  0  0
   -1.3110   20.4610  -34.2110 C   0  0  0  0  0  0  0  0  0  0  0  0
   -0.0660   20.6380  -35.0030 C   0  0  0  0  0  0  0  0  0  0  0  0
    0.3790   21.9320  -35.3300 C   0  0  0  0  0  0  0  0  0  0  0  0
    1.5510   22.1160  -36.0680 C   0  0  0  0  0  0  0  0  0  0  0  0
    2.3000   21.0120  -36.4810 C   0  0  0  0  0  0  0  0  0  0  0  0
    3.4660   21.1970  -37.2150 O   0  0  0  0  0  0  0  0  0  0  0  0
    1.8780   19.7210  -36.1540 C   0  0  0  0  0  0  0  0  0  0  0  0
    0.7050   19.5310  -35.4160 C   0  0  0  0  0  0  0  0  0  0  0  0
   -2.0450   21.5530  -33.8640 N   0  0  0  0  0  0  0  0  0  0  0  0
   -3.1720   21.4520  -33.1580 N   0  0  0  0  0  0  0  0  0  0  0  0
   -5.0180   22.4000  -31.0400 C   0  0  0  0  0  0  0  0  0  0  0  0
   -4.6400   25.5840  -27.7920 H   0  0  0  0  0  0  0  0  0  0  0  0
   -5.5600   24.1820  -27.7830 H   0  0  0  0  0  0  0  0  0  0  0  0
   -7.8937   24.0801  -30.2575 H   0  0  0  0  0  0  0  0  0  0  0  0
   -8.8901   21.9844  -31.1696 H   0  0  0  0  0  0  0  0  0  0  0  0
   -7.4149   20.1547  -32.0021 H   0  0  0  0  0  0  0  0  0  0  0  0
   -3.3249   18.1023  -32.7765 H   0  0  0  0  0  0  0  0  0  0  0  0
   -1.2124   18.2902  -34.1039 H   0  0  0  0  0  0  0  0  0  0  0  0
   -0.2012   22.8070  -35.0016 H   0  0  0  0  0  0  0  0  0  0  0  0
    1.8844   23.1324  -36.3242 H   0  0  0  0  0  0  0  0  0  0  0  0
    2.4695   18.8519  -36.4776 H   0  0  0  0  0  0  0  0  0  0  0  0
    0.3817   18.5122  -35.1561 H   0  0  0  0  0  0  0  0  0  0  0  0
   -3.9249   22.5102  -30.9860 H   0  0  0  0  0  0  0  0  0  0  0  0
  1  2  1  0
  2  3  2  0
  2  4  2  0
  2  5  1  0
  5  6  2  0
  6  7  1  0
  7  8  2  0
  8  9  1  0
  9 10  1  0
 10 11  2  3
 11 12  1  0
 12 13  2  0
 13 14  1  0
 14 15  1  0
 15 16  2  0
 16 17  1  0
 17 18  2  0
 18 19  1  0
 18 20  1  0
 20 21  2  0
 14 22  2  0
 22 23  1  0
  9 24  2  0
 24  5  1  0
 23 11  1  0
 21 15  1  0
  1 25  1  0
  1 26  1  0
  6 27  1  0
  7 28  1  0
  8 29  1  0
 12 30  1  0
 13 31  1  0
 16 32  1  0
 17 33  1  0
 20 34  1  0
 21 35  1  0
 24 36  1  0
M  CHG  2  19  -1  23  -1
M  END
>  <UniqueID>  (45) 
44

>  <SMILES>  (45) 
NS(=O)(=O)c1cccc(N=c2ccc(-c3ccc([O-])cc3)n[n-]2)c1

>  <Energy>  (45) 
49.04738841670495

>  <Genealogy>  (45) 
NS(=O)(=O)c1cccc(N=c2ccc(-c3ccc([O-])cc3)n[n-]2)c1 (protonated)
NS(=O)(=O)c1cccc(N=c2ccc(-c3ccc([O-])cc3)n[n-]2)c1 (3D coordinates assigned)
NS(=O)(=O)c1cccc(N=c2ccc(-c3ccc([O-])cc3)n[n-]2)c1 (optimized conformer: 49.04738841670495 kcal/mol)

>  <smiles>  (45) 
NS(=O)(=O)c1cccc(N=c2ccc(-c3ccc(O)cc3)n[nH]2)c1

>  <score_type>  (45) 
oracle

>  <origin>  (45) 
adgpu

>  <m_score__min__energy>  (45) 
-9.7300000000000004

>  <m_primary>  (45) 
energy

$$$$
45:0
     RDKit          3D

 39 40  0  0  0  0  0  0  0  0999 V2000
   -2.9410   25.0860  -26.3340 C   0  0  0  0  0  0  0  0  0  0  0  0
   -1.6060   25.6930  -26.3970 N   0  0  0  0  0  0  0  0  0  0  0  0
   -1.2330   26.7550  -25.4580 C   0  0  0  0  0  0  0  0  0  0  0  0
   -0.6730   25.2960  -27.4250 C   0  0  0  0  0  0  0  0  0  0  0  0
    0.3950   25.9510  -27.6040 O   0  0  0  0  0  0  0  0  0  0  0  0
   -0.9480   24.1460  -28.3110 C   0  0  0  0  0  0  0  0  0  0  0  0
   -0.1050   23.0240  -28.2560 C   0  0  0  0  0  0  0  0  0  0  0  0
   -0.3280   21.9290  -29.0940 C   0  0  0  0  0  0  0  0  0  0  0  0
   -1.4100   21.9300  -29.9750 C   0  0  0  0  0  0  0  0  0  0  0  0
   -2.2900   23.0220  -30.0180 C   0  0  0  0  0  0  0  0  0  0  0  0
   -3.4100   22.9480  -30.9110 N   0  0  0  0  0  0  0  0  0  0  0  0
   -4.9770   23.6190  -30.5840 S   0  0  0  0  0  0  0  0  0  0  0  0
   -5.1770   23.7630  -29.1040 O   0  0  0  0  0  0  0  0  0  0  0  0
   -5.0700   24.9830  -31.2110 O   0  0  0  0  0  0  0  0  0  0  0  0
   -6.2190   22.5850  -31.2900 C   0  0  0  0  0  0  0  0  0  0  0  0
   -7.5730   22.7520  -30.9490 C   0  0  0  0  0  0  0  0  0  0  0  0
   -8.5410   21.8880  -31.4720 C   0  0  0  0  0  0  0  0  0  0  0  0
   -8.1680   20.8570  -32.3520 C   0  0  0  0  0  0  0  0  0  0  0  0
   -9.1560   19.9720  -32.8870 N   0  0  0  0  0  0  0  0  0  0  0  0
   -6.8200   20.7020  -32.7050 C   0  0  0  0  0  0  0  0  0  0  0  0
   -5.8490   21.5560  -32.1710 C   0  0  0  0  0  0  0  0  0  0  0  0
   -2.0330   24.1590  -29.2180 C   0  0  0  0  0  0  0  0  0  0  0  0
   -2.8450   25.2890  -29.3460 O   0  0  0  0  0  0  0  0  0  0  0  0
   -3.2340   24.9528  -25.2821 H   0  0  0  0  0  0  0  0  0  0  0  0
   -3.6665   25.7428  -26.8363 H   0  0  0  0  0  0  0  0  0  0  0  0
   -2.9230   24.1076  -26.8363 H   0  0  0  0  0  0  0  0  0  0  0  0
   -1.3598   26.3938  -24.4268 H   0  0  0  0  0  0  0  0  0  0  0  0
   -0.1822   27.0364  -25.6213 H   0  0  0  0  0  0  0  0  0  0  0  0
   -1.8770   27.6317  -25.6213 H   0  0  0  0  0  0  0  0  0  0  0  0
    0.7367   23.0075  -27.5480 H   0  0  0  0  0  0  0  0  0  0  0  0
    0.3508   21.0641  -29.0593 H   0  0  0  0  0  0  0  0  0  0  0  0
   -1.5741   21.0693  -30.6400 H   0  0  0  0  0  0  0  0  0  0  0  0
   -7.8717   23.5638  -30.2695 H   0  0  0  0  0  0  0  0  0  0  0  0
   -9.5975   22.0157  -31.1938 H   0  0  0  0  0  0  0  0  0  0  0  0
   -9.9000   19.5630  -32.2750 H   0  0  0  0  0  0  0  0  0  0  0  0
   -9.1450   19.7140  -33.9000 H   0  0  0  0  0  0  0  0  0  0  0  0
   -6.5248   19.9060  -33.4044 H   0  0  0  0  0  0  0  0  0  0  0  0
   -4.7916   21.4209  -32.4423 H   0  0  0  0  0  0  0  0  0  0  0  0
   -3.8570   25.2490  -29.3760 H   0  0  0  0  0  0  0  0  0  0  0  0
  1  2  1  0
  2  3  1  0
  2  4  1  0
  4  5  2  0
  4  6  1  0
  6  7  2  0
  7  8  1  0
  8  9  2  0
  9 10  1  0
 10 11  1  0
 11 12  1  0
 12 13  2  0
 12 14  2  0
 12 15  1  0
 15 16  2  0
 16 17  1  0
 17 18  2  0
 18 19  1  0
 18 20  1  0
 20 21  2  0
 10 22  2  0
 22 23  1  0
 22  6  1  0
 21 15  1  0
  1 24  1  0
  1 25  1  0
  1 26  1  0
  3 27  1  0
  3 28  1  0
  3 29  1  0
  7 30  1  0
  8 31  1  0
  9 32  1  0
 16 33  1  0
 17 34  1  0
 19 35  1  0
 19 36  1  0
 20 37  1  0
 21 38  1  0
 23 39  1  0
M  CHG  1  11  -1
M  END
>  <UniqueID>  (46) 
45

>  <SMILES>  (46) 
CN(C)C(=O)c1cccc([N-]S(=O)(=O)c2ccc(N)cc2)c1O

>  <Energy>  (46) 
49.62510696162534

>  <Genealogy>  (46) 
CN(C)C(=O)c1cccc([N-]S(=O)(=O)c2ccc(N)cc2)c1O (protonated)
CN(C)C(=O)c1cccc([N-]S(=O)(=O)c2ccc(N)cc2)c1O (3D coordinates assigned)
CN(C)C(=O)c1cccc([N-]S(=O)(=O)c2ccc(N)cc2)c1O (optimized conformer: 49.62510696162534 kcal/mol)

>  <smiles>  (46) 
CN(C)C(=O)c1cccc(NS(=O)(=O)c2ccc(N)cc2)c1O

>  <score_type>  (46) 
oracle

>  <origin>  (46) 
adgpu

>  <m_score__min__energy>  (46) 
-10.710000000000001

>  <m_primary>  (46) 
energy

$$$$
46:0
     RDKit          3D

 34 37  0  0  0  0  0  0  0  0999 V2000
   -0.7020   18.3590  -30.8390 F   0  0  0  0  0  0  0  0  0  0  0  0
   -0.7830   19.6340  -30.3850 C   0  0  0  0  0  0  0  0  0  0  0  0
   -0.8580   19.8830  -29.0110 C   0  0  0  0  0  0  0  0  0  0  0  0
   -0.9420   21.1970  -28.5410 C   0  0  0  0  0  0  0  0  0  0  0  0
   -0.9570   22.2710  -29.4450 C   0  0  0  0  0  0  0  0  0  0  0  0
   -1.0340   23.6220  -28.9630 N   0  0  0  0  0  0  0  0  0  0  0  0
   -1.9750   24.5600  -29.2070 C   0  0  0  0  0  0  0  0  0  0  0  0
   -3.2350   24.3490  -29.9450 C   0  0  0  0  0  0  0  0  0  0  0  0
   -3.9230   23.1570  -30.0300 C   0  0  0  0  0  0  0  0  0  0  0  0
   -5.0040   23.4490  -30.8430 C   0  0  0  0  0  0  0  0  0  0  0  0
   -6.0810   22.5220  -31.2680 C   0  0  0  0  0  0  0  0  0  0  0  0
   -7.4080   22.7520  -30.8560 C   0  0  0  0  0  0  0  0  0  0  0  0
   -8.4330   21.8860  -31.2480 C   0  0  0  0  0  0  0  0  0  0  0  0
   -8.1470   20.7810  -32.0540 C   0  0  0  0  0  0  0  0  0  0  0  0
   -6.8360   20.5420  -32.4690 C   0  0  0  0  0  0  0  0  0  0  0  0
   -5.8070   21.4040  -32.0800 C   0  0  0  0  0  0  0  0  0  0  0  0
   -4.9400   24.7440  -31.2170 N   0  0  0  0  0  0  0  0  0  0  0  0
   -3.8630   25.2890  -30.6740 N   0  0  0  0  0  0  0  0  0  0  0  0
   -1.6520   25.7360  -28.6310 N   0  0  0  0  0  0  0  0  0  0  0  0
   -0.4930   25.5660  -28.0130 N   0  0  0  0  0  0  0  0  0  0  0  0
   -0.1300   24.2860  -28.2140 C   0  0  0  0  0  0  0  0  0  0  0  0
    1.2840   23.6620  -27.6710 S   0  0  0  0  0  0  0  0  0  0  0  0
   -0.8740   22.0150  -30.8220 C   0  0  0  0  0  0  0  0  0  0  0  0
   -0.7900   20.7000  -31.2900 C   0  0  0  0  0  0  0  0  0  0  0  0
   -0.8509   19.0442  -28.2993 H   0  0  0  0  0  0  0  0  0  0  0  0
   -0.9965   21.3900  -27.4594 H   0  0  0  0  0  0  0  0  0  0  0  0
   -3.6706   22.1952  -29.5597 H   0  0  0  0  0  0  0  0  0  0  0  0
   -7.6397   23.6197  -30.2209 H   0  0  0  0  0  0  0  0  0  0  0  0
   -9.4663   22.0748  -30.9214 H   0  0  0  0  0  0  0  0  0  0  0  0
   -8.9544   20.1000  -32.3612 H   0  0  0  0  0  0  0  0  0  0  0  0
   -6.6120   19.6724  -33.1043 H   0  0  0  0  0  0  0  0  0  0  0  0
   -4.7762   21.2081  -32.4101 H   0  0  0  0  0  0  0  0  0  0  0  0
   -0.8750   22.8518  -31.5360 H   0  0  0  0  0  0  0  0  0  0  0  0
   -0.7294   20.5040  -32.3707 H   0  0  0  0  0  0  0  0  0  0  0  0
  1  2  1  0
  2  3  2  0
  3  4  1  0
  4  5  2  0
  5  6  1  0
  6  7  1  0
  7  8  1  0
  8  9  1  0
  9 10  2  0
 10 11  1  0
 11 12  2  0
 12 13  1  0
 13 14  2  0
 14 15  1  0
 15 16  2  0
 10 17  1  0
 17 18  1  0
  7 19  2  0
 19 20  1  0
 20 21  1  0
 21 22  2  0
  5 23  1  0
 23 24  2  0
 24  2  1  0
 21  6  1  0
 18  8  2  0
 16 11  1  0
  3 25  1  0
  4 26  1  0
  9 27  1  0
 12 28  1  0
 13 29  1  0
 14 30  1  0
 15 31  1  0
 16 32  1  0
 23 33  1  0
 24 34  1  0
M  CHG  2  17  -1  20  -1
M  END
>  <UniqueID>  (47) 
46

>  <SMILES>  (47) 
Fc1ccc(-n2c(-c3cc(-c4ccccc4)[n-]n3)n[n-]c2=S)cc1

>  <Energy>  (47) 
112.69282482139072

>  <Genealogy>  (47) 
Fc1ccc(-n2c(-c3cc(-c4ccccc4)[n-]n3)n[n-]c2=S)cc1 (protonated)
Fc1ccc(-n2c(-c3cc(-c4ccccc4)[n-]n3)n[n-]c2=S)cc1 (3D coordinates assigned)
Fc1ccc(-n2c(-c3cc(-c4ccccc4)[n-]n3)n[n-]c2=S)cc1 (optimized conformer: 112.69282482139072 kcal/mol)

>  <smiles>  (47) 
Fc1ccc(-n2c(-c3cc(-c4ccccc4)[nH]n3)n[nH]c2=S)cc1

>  <score_type>  (47) 
oracle

>  <origin>  (47) 
adgpu

>  <m_score__min__energy>  (47) 
-10.369999999999999

>  <m_primary>  (47) 
energy

$$$$
47:0
     RDKit          3D

 31 32  0  0  0  0  0  0  0  0999 V2000
   -9.4280   19.1450  -32.4920 C   0  0  0  0  0  0  0  0  0  0  0  0
   -8.8560   20.3710  -32.9340 O   0  0  0  0  0  0  0  0  0  0  0  0
   -7.7700   21.0110  -32.3160 C   0  0  0  0  0  0  0  0  0  0  0  0
   -7.9360   21.8400  -31.1900 C   0  0  0  0  0  0  0  0  0  0  0  0
   -6.8330   22.4600  -30.5980 C   0  0  0  0  0  0  0  0  0  0  0  0
   -5.5460   22.2610  -31.1170 C   0  0  0  0  0  0  0  0  0  0  0  0
   -4.3790   22.9210  -30.4880 C   0  0  0  0  0  0  0  0  0  0  0  0
   -3.3590   22.1810  -29.8500 C   0  0  0  0  0  0  0  0  0  0  0  0
   -3.4020   20.6840  -29.7550 C   0  0  0  0  0  0  0  0  0  0  0  0
   -2.3010   22.8360  -29.3030 N   0  0  0  0  0  0  0  0  0  0  0  0
   -2.2010   24.1890  -29.3480 C   0  0  0  0  0  0  0  0  0  0  0  0
   -1.0450   24.8750  -28.6990 C   0  0  0  0  0  0  0  0  0  0  0  0
   -3.1860   24.9210  -29.9290 N   0  0  0  0  0  0  0  0  0  0  0  0
   -4.2640   24.3240  -30.4980 C   0  0  0  0  0  0  0  0  0  0  0  0
   -5.1470   25.0380  -31.0440 O   0  0  0  0  0  0  0  0  0  0  0  0
   -5.3770   21.4420  -32.2420 C   0  0  0  0  0  0  0  0  0  0  0  0
   -6.4780   20.8170  -32.8390 C   0  0  0  0  0  0  0  0  0  0  0  0
   -6.2670   20.0080  -33.9560 O   0  0  0  0  0  0  0  0  0  0  0  0
   -9.4392   19.1210  -31.3923 H   0  0  0  0  0  0  0  0  0  0  0  0
  -10.4574   19.0630  -32.8710 H   0  0  0  0  0  0  0  0  0  0  0  0
   -8.8295   18.3035  -32.8710 H   0  0  0  0  0  0  0  0  0  0  0  0
   -8.9414   22.0006  -30.7735 H   0  0  0  0  0  0  0  0  0  0  0  0
   -6.9750   23.1076  -29.7202 H   0  0  0  0  0  0  0  0  0  0  0  0
   -3.4106   20.3839  -28.6968 H   0  0  0  0  0  0  0  0  0  0  0  0
   -4.3112   20.3112  -30.2493 H   0  0  0  0  0  0  0  0  0  0  0  0
   -2.5157   20.2596  -30.2493 H   0  0  0  0  0  0  0  0  0  0  0  0
   -1.1488   24.8134  -27.6056 H   0  0  0  0  0  0  0  0  0  0  0  0
   -0.1088   24.3862  -29.0065 H   0  0  0  0  0  0  0  0  0  0  0  0
   -1.0255   25.9310  -29.0065 H   0  0  0  0  0  0  0  0  0  0  0  0
   -4.3707   21.2892  -32.6592 H   0  0  0  0  0  0  0  0  0  0  0  0
   -7.0320   19.6500  -34.5150 H   0  0  0  0  0  0  0  0  0  0  0  0
  1  2  1  0
  2  3  1  0
  3  4  2  0
  4  5  1  0
  5  6  2  0
  6  7  1  0
  7  8  2  0
  8  9  1  0
  8 10  1  0
 10 11  1  0
 11 12  1  0
 11 13  2  0
 13 14  1  0
 14 15  2  0
  6 16  1  0
 16 17  2  0
 17 18  1  0
 17  3  1  0
 14  7  1  0
  1 19  1  0
  1 20  1  0
  1 21  1  0
  4 22  1  0
  5 23  1  0
  9 24  1  0
  9 25  1  0
  9 26  1  0
 12 27  1  0
 12 28  1  0
 12 29  1  0
 16 30  1  0
 18 31  1  0
M  CHG  1  10  -1
M  END
>  <UniqueID>  (48) 
47

>  <SMILES>  (48) 
COc1ccc(-c2c(C)[n-]c(C)nc2=O)cc1O

>  <Energy>  (48) 
38.02453107257731

>  <Genealogy>  (48) 
COc1ccc(-c2c(C)[n-]c(C)nc2=O)cc1O (protonated)
COc1ccc(-c2c(C)[n-]c(C)nc2=O)cc1O (3D coordinates assigned)
COc1ccc(-c2c(C)[n-]c(C)nc2=O)cc1O (optimized conformer: 38.02453107257731 kcal/mol)

>  <smiles>  (48) 
COc1ccc(-c2c(C)[nH]c(C)nc2=O)cc1O

>  <score_type>  (48) 
oracle

>  <origin>  (48) 
adgpu

>  <m_score__min__energy>  (48) 
-7.0800000000000001

>  <m_primary>  (48) 
energy

$$$$
