0:0
     RDKit          3D

 55 59  0  0  0  0  0  0  0  0999 V2000
    1.0570   16.1460  -35.5720 O   0  0  0  0  0  0  0  0  0  0  0  0
    1.0310   17.0070  -34.3400 S   0  0  0  0  0  0  0  0  0  0  0  0
    2.2140   16.6420  -33.4860 O   0  0  0  0  0  0  0  0  0  0  0  0
   -0.4390   16.7040  -33.4710 N   0  0  0  0  0  0  0  0  0  0  0  0
   -1.6000   17.5500  -33.4700 C   0  0  0  0  0  0  0  0  0  0  0  0
   -1.5020   18.9500  -33.3910 C   0  0  0  0  0  0  0  0  0  0  0  0
   -2.6550   19.7480  -33.3610 C   0  0  0  0  0  0  0  0  0  0  0  0
   -3.9250   19.1380  -33.3910 C   0  0  0  0  0  0  0  0  0  0  0  0
   -4.0210   17.7440  -33.5120 C   0  0  0  0  0  0  0  0  0  0  0  0
   -2.8680   16.9550  -33.5360 C   0  0  0  0  0  0  0  0  0  0  0  0
   -2.9880   15.5720  -33.6190 O   0  0  0  0  0  0  0  0  0  0  0  0
   -5.1830   19.9750  -33.3780 C   0  0  0  0  0  0  0  0  0  0  0  0
   -4.9750   21.3000  -32.7570 N   0  0  0  0  0  0  0  0  0  0  0  0
   -4.8760   21.2050  -31.2820 C   0  0  0  0  0  0  0  0  0  0  0  0
   -4.0880   22.3560  -30.7130 C   0  0  0  0  0  0  0  0  0  0  0  0
   -2.8670   22.1310  -30.0560 C   0  0  0  0  0  0  0  0  0  0  0  0
   -2.1220   23.2070  -29.5630 C   0  0  0  0  0  0  0  0  0  0  0  0
   -2.5900   24.5150  -29.7210 C   0  0  0  0  0  0  0  0  0  0  0  0
   -1.8390   25.5810  -29.2400 O   0  0  0  0  0  0  0  0  0  0  0  0
   -3.8090   24.7470  -30.3710 C   0  0  0  0  0  0  0  0  0  0  0  0
   -4.2760   26.0470  -30.5380 O   0  0  0  0  0  0  0  0  0  0  0  0
   -4.5580   23.6720  -30.8600 C   0  0  0  0  0  0  0  0  0  0  0  0
   -3.8330   21.9930  -33.3910 C   0  0  0  0  0  0  0  0  0  0  0  0
   -2.5060   21.2410  -33.2080 C   0  0  0  0  0  0  0  0  0  0  0  0
    1.0970   18.6980  -34.8260 C   0  0  0  0  0  0  0  0  0  0  0  0
    0.4600   19.1010  -36.0050 C   0  0  0  0  0  0  0  0  0  0  0  0
    0.5030   20.4380  -36.4080 C   0  0  0  0  0  0  0  0  0  0  0  0
    1.1740   21.3970  -35.6310 C   0  0  0  0  0  0  0  0  0  0  0  0
    1.2000   22.8090  -36.0760 C   0  0  0  0  0  0  0  0  0  0  0  0
    0.2570   23.7920  -35.8020 C   0  0  0  0  0  0  0  0  0  0  0  0
    0.7000   24.9350  -36.4370 C   0  0  0  0  0  0  0  0  0  0  0  0
    1.8810   24.5760  -37.0480 C   0  0  0  0  0  0  0  0  0  0  0  0
    2.6800   25.4210  -37.8060 O   0  0  0  0  0  0  0  0  0  0  0  0
    2.1590   23.3130  -36.8250 O   0  0  0  0  0  0  0  0  0  0  0  0
    1.8120   20.9860  -34.4450 C   0  0  0  0  0  0  0  0  0  0  0  0
    1.7760   19.6460  -34.0490 C   0  0  0  0  0  0  0  0  0  0  0  0
   -0.5105   19.4248  -33.3523 H   0  0  0  0  0  0  0  0  0  0  0  0
   -5.0101   17.2688  -33.5885 H   0  0  0  0  0  0  0  0  0  0  0  0
   -5.5206   20.1204  -34.4147 H   0  0  0  0  0  0  0  0  0  0  0  0
   -5.9345   19.4395  -32.7792 H   0  0  0  0  0  0  0  0  0  0  0  0
   -5.8888   21.2169  -30.8530 H   0  0  0  0  0  0  0  0  0  0  0  0
   -4.3576   20.2688  -31.0275 H   0  0  0  0  0  0  0  0  0  0  0  0
   -2.4951   21.1036  -29.9287 H   0  0  0  0  0  0  0  0  0  0  0  0
   -1.1663   23.0240  -29.0501 H   0  0  0  0  0  0  0  0  0  0  0  0
   -5.5191   23.8575  -31.3618 H   0  0  0  0  0  0  0  0  0  0  0  0
   -4.0355   22.0921  -34.4676 H   0  0  0  0  0  0  0  0  0  0  0  0
   -3.7284   22.9738  -32.9042 H   0  0  0  0  0  0  0  0  0  0  0  0
   -1.7906   21.6020  -33.9616 H   0  0  0  0  0  0  0  0  0  0  0  0
   -2.1531   21.4357  -32.1845 H   0  0  0  0  0  0  0  0  0  0  0  0
   -0.0771   18.3617  -36.6173 H   0  0  0  0  0  0  0  0  0  0  0  0
    0.0073   20.7424  -37.3416 H   0  0  0  0  0  0  0  0  0  0  0  0
   -0.6575   23.6818  -35.2007 H   0  0  0  0  0  0  0  0  0  0  0  0
    0.2137   25.9216  -36.4518 H   0  0  0  0  0  0  0  0  0  0  0  0
    2.3424   21.7245  -33.8259 H   0  0  0  0  0  0  0  0  0  0  0  0
    2.2827   19.3344  -33.1237 H   0  0  0  0  0  0  0  0  0  0  0  0
  1  2  2  0
  2  3  2  0
  2  4  1  0
  4  5  1  0
  5  6  2  0
  6  7  1  0
  7  8  2  0
  8  9  1  0
  9 10  2  0
 10 11  1  0
  8 12  1  0
 12 13  1  0
 13 14  1  0
 14 15  1  0
 15 16  2  0
 16 17  1  0
 17 18  2  0
 18 19  1  0
 18 20  1  0
 20 21  1  0
 20 22  2  0
 13 23  1  0
 23 24  1  0
  2 25  1  0
 25 26  2  0
 26 27  1  0
 27 28  2  0
 28 29  1  0
 29 30  2  0
 30 31  1  0
 31 32  2  0
 32 33  1  0
 32 34  1  0
 28 35  1  0
 35 36  2  0
 10  5  1  0
 22 15  1  0
 36 25  1  0
 24  7  1  0
 34 29  1  0
  6 37  1  0
  9 38  1  0
 12 39  1  0
 12 40  1  0
 14 41  1  0
 14 42  1  0
 16 43  1  0
 17 44  1  0
 22 45  1  0
 23 46  1  0
 23 47  1  0
 24 48  1  0
 24 49  1  0
 26 50  1  0
 27 51  1  0
 30 52  1  0
 31 53  1  0
 35 54  1  0
 36 55  1  0
M  CHG  5   4  -1  11  -1  19  -1  21  -1  33  -1
M  END
>  <UniqueID>  (1) 
1

>  <SMILES>  (1) 
O=S(=O)([N-]c1cc2c(cc1[O-])CN(Cc1ccc([O-])c([O-])c1)CC2)c1ccc(-c2ccc([O-])o2)cc1

>  <Energy>  (1) 
99.35177314683531

>  <Genealogy>  (1) 
O=S(=O)([N-]c1cc2c(cc1[O-])CN(Cc1ccc([O-])c([O-])c1)CC2)c1ccc(-c2ccc([O-])o2)cc1 (protonated)
O=S(=O)([N-]c1cc2c(cc1[O-])CN(Cc1ccc([O-])c([O-])c1)CC2)c1ccc(-c2ccc([O-])o2)cc1 (3D coordinates assigned)
O=S(=O)([N-]c1cc2c(cc1[O-])CN(Cc1ccc([O-])c([O-])c1)CC2)c1ccc(-c2ccc([O-])o2)cc1 (nonaromatic ring conformer: 99.35177314683531 kcal/mol)

>  <smiles>  (1) 
O=S(=O)(Nc1cc2c(cc1O)CN(Cc1ccc(O)c(O)c1)CC2)c1ccc(-c2ccc(O)o2)cc1

>  <score_type>  (1) 
oracle

>  <origin>  (1) 
adgpu

>  <m_score__min__energy>  (1) 
-15.619999999999999

>  <m_primary>  (1) 
energy

$$$$
1:0
     RDKit          3D

 52 56  0  0  0  0  0  0  0  0999 V2000
   -3.8050   24.4120  -27.6100 O   0  0  0  0  0  0  0  0  0  0  0  0
   -3.5090   23.9020  -28.9900 S   0  0  0  0  0  0  0  0  0  0  0  0
   -2.7280   24.9480  -29.7330 O   0  0  0  0  0  0  0  0  0  0  0  0
   -5.0320   23.5810  -29.8130 C   0  0  0  0  0  0  0  0  0  0  0  0
   -6.0170   24.5920  -29.9300 C   0  0  0  0  0  0  0  0  0  0  0  0
   -7.2310   24.3360  -30.5940 C   0  0  0  0  0  0  0  0  0  0  0  0
   -7.4270   23.0690  -31.1330 C   0  0  0  0  0  0  0  0  0  0  0  0
   -8.5290   22.6090  -31.7550 N   0  0  0  0  0  0  0  0  0  0  0  0
   -8.2640   21.3160  -32.0330 C   0  0  0  0  0  0  0  0  0  0  0  0
   -6.9870   20.9670  -31.6270 C   0  0  0  0  0  0  0  0  0  0  0  0
   -6.4680   22.0910  -31.0290 C   0  0  0  0  0  0  0  0  0  0  0  0
   -5.2580   22.3090  -30.3750 C   0  0  0  0  0  0  0  0  0  0  0  0
   -6.4400   19.5730  -31.6660 C   0  0  0  0  0  0  0  0  0  0  0  0
   -7.2710   18.6920  -32.6220 C   0  0  0  0  0  0  0  0  0  0  0  0
   -8.7870   18.9090  -32.4270 C   0  0  0  0  0  0  0  0  0  0  0  0
   -9.1960   20.3660  -32.7210 C   0  0  0  0  0  0  0  0  0  0  0  0
   -2.5850   22.4260  -28.8910 N   0  0  0  0  0  0  0  0  0  0  0  0
   -1.1730   22.6770  -29.2610 C   0  0  0  0  0  0  0  0  0  0  0  0
   -0.1600   21.7380  -28.5600 C   0  0  0  0  0  0  0  0  0  0  0  0
   -0.7690   20.4530  -28.1790 N   0  0  0  0  0  0  0  0  0  0  0  0
    0.0540   19.2590  -28.1460 C   0  0  0  0  0  0  0  0  0  0  0  0
    1.3240   19.2260  -28.7590 C   0  0  0  0  0  0  0  0  0  0  0  0
    2.0760   18.0530  -28.7220 C   0  0  0  0  0  0  0  0  0  0  0  0
    1.5700   16.9230  -28.0800 C   0  0  0  0  0  0  0  0  0  0  0  0
    0.3130   16.9860  -27.4780 C   0  0  0  0  0  0  0  0  0  0  0  0
   -0.4070   18.1370  -27.5260 N   0  0  0  0  0  0  0  0  0  0  0  0
   -2.1120   20.4400  -27.5770 C   0  0  0  0  0  0  0  0  0  0  0  0
   -2.7180   21.8390  -27.5530 C   0  0  0  0  0  0  0  0  0  0  0  0
   -5.8313   25.5864  -29.4979 H   0  0  0  0  0  0  0  0  0  0  0  0
   -8.0023   25.1151  -30.6841 H   0  0  0  0  0  0  0  0  0  0  0  0
   -9.4120   23.1290  -31.9510 H   0  0  0  0  0  0  0  0  0  0  0  0
   -4.5025   21.5131  -30.2996 H   0  0  0  0  0  0  0  0  0  0  0  0
   -5.3975   19.6030  -32.0158 H   0  0  0  0  0  0  0  0  0  0  0  0
   -6.4888   19.1437  -30.6544 H   0  0  0  0  0  0  0  0  0  0  0  0
   -7.0056   18.9434  -33.6595 H   0  0  0  0  0  0  0  0  0  0  0  0
   -7.0445   17.6385  -32.4010 H   0  0  0  0  0  0  0  0  0  0  0  0
   -9.3335   18.2407  -33.1086 H   0  0  0  0  0  0  0  0  0  0  0  0
   -9.0332   18.6884  -31.3779 H   0  0  0  0  0  0  0  0  0  0  0  0
   -9.1576   20.5418  -33.8062 H   0  0  0  0  0  0  0  0  0  0  0  0
  -10.2173   20.5334  -32.3483 H   0  0  0  0  0  0  0  0  0  0  0  0
   -1.0718   22.5445  -30.3483 H   0  0  0  0  0  0  0  0  0  0  0  0
   -0.9362   23.7003  -28.9343 H   0  0  0  0  0  0  0  0  0  0  0  0
    0.6776   21.5441  -29.2461 H   0  0  0  0  0  0  0  0  0  0  0  0
    0.1841   22.2357  -27.6414 H   0  0  0  0  0  0  0  0  0  0  0  0
    1.7185   20.1205  -29.2632 H   0  0  0  0  0  0  0  0  0  0  0  0
    3.0669   18.0186  -29.1984 H   0  0  0  0  0  0  0  0  0  0  0  0
    2.1555   15.9923  -28.0486 H   0  0  0  0  0  0  0  0  0  0  0  0
   -0.0953   16.1032  -26.9642 H   0  0  0  0  0  0  0  0  0  0  0  0
   -2.7629   19.7769  -28.1657 H   0  0  0  0  0  0  0  0  0  0  0  0
   -2.0265   20.0792  -26.5414 H   0  0  0  0  0  0  0  0  0  0  0  0
   -3.7814   21.7782  -27.2783 H   0  0  0  0  0  0  0  0  0  0  0  0
   -2.1958   22.4637  -26.8133 H   0  0  0  0  0  0  0  0  0  0  0  0
  1  2  2  0
  2  3  2  0
  2  4  1  0
  4  5  2  0
  5  6  1  0
  6  7  2  0
  7  8  1  0
  8  9  1  0
  9 10  2  0
 10 11  1  0
 11 12  2  0
 10 13  1  0
 13 14  1  0
 14 15  1  0
 15 16  1  0
  2 17  1  0
 17 18  1  0
 18 19  1  0
 19 20  1  0
 20 21  1  0
 21 22  2  0
 22 23  1  0
 23 24  2  0
 24 25  1  0
 25 26  2  0
 20 27  1  0
 27 28  1  0
 12  4  1  0
 28 17  1  0
 11  7  1  0
 26 21  1  0
 16  9  1  0
  5 29  1  0
  6 30  1  0
  8 31  1  0
 12 32  1  0
 13 33  1  0
 13 34  1  0
 14 35  1  0
 14 36  1  0
 15 37  1  0
 15 38  1  0
 16 39  1  0
 16 40  1  0
 18 41  1  0
 18 42  1  0
 19 43  1  0
 19 44  1  0
 22 45  1  0
 23 46  1  0
 24 47  1  0
 25 48  1  0
 27 49  1  0
 27 50  1  0
 28 51  1  0
 28 52  1  0
M  END
>  <UniqueID>  (2) 
2

>  <SMILES>  (2) 
O=S(=O)(c1ccc2[nH]c3c(c2c1)CCCC3)N1CCN(c2ccccn2)CC1

>  <Energy>  (2) 
95.697033580147

>  <Genealogy>  (2) 
O=S(=O)(c1ccc2[nH]c3c(c2c1)CCCC3)N1CCN(c2ccccn2)CC1 (3D coordinates assigned)
O=S(=O)(c1ccc2[nH]c3c(c2c1)CCCC3)N1CCN(c2ccccn2)CC1 (nonaromatic ring conformer: 95.697033580147 kcal/mol)

>  <smiles>  (2) 
O=S(=O)(c1ccc2[nH]c3c(c2c1)CCCC3)N1CCN(c2ccccn2)CC1

>  <score_type>  (2) 
oracle

>  <origin>  (2) 
adgpu

>  <m_score__min__energy>  (2) 
-10.039999999999999

>  <m_primary>  (2) 
energy

$$$$
2:0
     RDKit          3D

 45 48  0  0  0  0  0  0  0  0999 V2000
   -6.0120   18.7400  -34.3030 C   0  0  0  0  0  0  0  0  0  0  0  0
   -6.8070   18.6850  -33.0340 C   0  0  0  0  0  0  0  0  0  0  0  0
   -6.7100   17.6670  -32.2970 O   0  0  0  0  0  0  0  0  0  0  0  0
   -7.6230   19.7940  -32.6160 N   0  0  0  0  0  0  0  0  0  0  0  0
   -9.0770   19.5620  -32.5750 C   0  0  0  0  0  0  0  0  0  0  0  0
   -9.8630   20.8440  -32.2860 C   0  0  0  0  0  0  0  0  0  0  0  0
   -9.2930   21.5510  -31.0580 C   0  0  0  0  0  0  0  0  0  0  0  0
   -7.8390   21.8640  -31.2730 C   0  0  0  0  0  0  0  0  0  0  0  0
   -7.2720   23.0040  -30.6850 C   0  0  0  0  0  0  0  0  0  0  0  0
   -5.9270   23.3200  -30.9040 C   0  0  0  0  0  0  0  0  0  0  0  0
   -5.2120   24.7390  -30.1450 S   0  0  0  0  0  0  0  0  0  0  0  0
   -6.2930   25.5600  -29.4980 O   0  0  0  0  0  0  0  0  0  0  0  0
   -4.5230   25.5700  -31.1900 O   0  0  0  0  0  0  0  0  0  0  0  0
   -4.0630   24.2430  -28.9460 N   0  0  0  0  0  0  0  0  0  0  0  0
   -4.1660   24.5400  -27.5200 C   0  0  0  0  0  0  0  0  0  0  0  0
   -2.9180   23.8950  -26.8640 C   0  0  0  0  0  0  0  0  0  0  0  0
   -2.2040   23.2750  -28.0170 C   0  0  0  0  0  0  0  0  0  0  0  0
   -1.0080   22.5550  -28.0030 C   0  0  0  0  0  0  0  0  0  0  0  0
   -0.5130   22.0570  -29.2200 C   0  0  0  0  0  0  0  0  0  0  0  0
   -1.2160   22.2850  -30.4180 C   0  0  0  0  0  0  0  0  0  0  0  0
   -2.4180   23.0120  -30.4060 C   0  0  0  0  0  0  0  0  0  0  0  0
   -2.8860   23.4960  -29.1810 C   0  0  0  0  0  0  0  0  0  0  0  0
   -5.1420   22.4840  -31.7070 C   0  0  0  0  0  0  0  0  0  0  0  0
   -5.6940   21.3370  -32.2780 C   0  0  0  0  0  0  0  0  0  0  0  0
   -7.0390   20.9910  -32.0410 C   0  0  0  0  0  0  0  0  0  0  0  0
   -4.9413   18.8141  -34.0620 H   0  0  0  0  0  0  0  0  0  0  0  0
   -6.1936   17.8271  -34.8893 H   0  0  0  0  0  0  0  0  0  0  0  0
   -6.3175   19.6192  -34.8893 H   0  0  0  0  0  0  0  0  0  0  0  0
   -9.3987   19.1617  -33.5477 H   0  0  0  0  0  0  0  0  0  0  0  0
   -9.2812   18.8516  -31.7603 H   0  0  0  0  0  0  0  0  0  0  0  0
   -9.7948   21.5149  -33.1550 H   0  0  0  0  0  0  0  0  0  0  0  0
  -10.9139   20.5829  -32.0924 H   0  0  0  0  0  0  0  0  0  0  0  0
   -9.8456   22.4867  -30.8873 H   0  0  0  0  0  0  0  0  0  0  0  0
   -9.3947   20.8924  -30.1829 H   0  0  0  0  0  0  0  0  0  0  0  0
   -7.8891   23.6540  -30.0473 H   0  0  0  0  0  0  0  0  0  0  0  0
   -4.1672   25.6274  -27.3542 H   0  0  0  0  0  0  0  0  0  0  0  0
   -5.0989   24.1461  -27.0904 H   0  0  0  0  0  0  0  0  0  0  0  0
   -2.2916   24.6565  -26.3763 H   0  0  0  0  0  0  0  0  0  0  0  0
   -3.1725   23.1706  -26.0763 H   0  0  0  0  0  0  0  0  0  0  0  0
   -0.4661   22.3817  -27.0616 H   0  0  0  0  0  0  0  0  0  0  0  0
    0.4275   21.4868  -29.2367 H   0  0  0  0  0  0  0  0  0  0  0  0
   -0.8226   21.8924  -31.3673 H   0  0  0  0  0  0  0  0  0  0  0  0
   -2.9761   23.1955  -31.3360 H   0  0  0  0  0  0  0  0  0  0  0  0
   -4.0859   22.7325  -31.8884 H   0  0  0  0  0  0  0  0  0  0  0  0
   -5.0724   20.6958  -32.9202 H   0  0  0  0  0  0  0  0  0  0  0  0
  1  2  1  0
  2  3  2  0
  2  4  1  0
  4  5  1  0
  5  6  1  0
  6  7  1  0
  7  8  1  0
  8  9  2  0
  9 10  1  0
 10 11  1  0
 11 12  2  0
 11 13  2  0
 11 14  1  0
 14 15  1  0
 15 16  1  0
 16 17  1  0
 17 18  2  0
 18 19  1  0
 19 20  2  0
 20 21  1  0
 21 22  2  0
 10 23  2  0
 23 24  1  0
 24 25  2  0
 25  4  1  0
 25  8  1  0
 22 14  1  0
 22 17  1  0
  1 26  1  0
  1 27  1  0
  1 28  1  0
  5 29  1  0
  5 30  1  0
  6 31  1  0
  6 32  1  0
  7 33  1  0
  7 34  1  0
  9 35  1  0
 15 36  1  0
 15 37  1  0
 16 38  1  0
 16 39  1  0
 18 40  1  0
 19 41  1  0
 20 42  1  0
 21 43  1  0
 23 44  1  0
 24 45  1  0
M  END
>  <UniqueID>  (3) 
3

>  <SMILES>  (3) 
CC(=O)N1CCCc2cc(S(=O)(=O)N3CCc4ccccc43)ccc21

>  <Energy>  (3) 
69.47031763456738

>  <Genealogy>  (3) 
CC(=O)N1CCCc2cc(S(=O)(=O)N3CCc4ccccc43)ccc21 (3D coordinates assigned)
CC(=O)N1CCCc2cc(S(=O)(=O)N3CCc4ccccc43)ccc21 (nonaromatic ring conformer: 69.47031763456738 kcal/mol)

>  <smiles>  (3) 
CC(=O)N1CCCc2cc(S(=O)(=O)N3CCc4ccccc43)ccc21

>  <score_type>  (3) 
oracle

>  <origin>  (3) 
adgpu

>  <m_score__min__energy>  (3) 
-9.8900000000000006

>  <m_primary>  (3) 
energy

$$$$
3:0
     RDKit          3D

 60 65  0  0  0  0  0  0  0  0999 V2000
   -9.4900   18.7650  -31.7790 O   0  0  0  0  0  0  0  0  0  0  0  0
   -8.3500   19.1810  -32.1040 C   0  0  0  0  0  0  0  0  0  0  0  0
   -7.6720   18.4630  -33.0780 C   0  0  0  0  0  0  0  0  0  0  0  0
   -6.3360   18.5790  -33.4260 C   0  0  0  0  0  0  0  0  0  0  0  0
   -5.3980   19.5170  -33.0000 C   0  0  0  0  0  0  0  0  0  0  0  0
   -5.6410   20.7730  -32.4000 C   0  0  0  0  0  0  0  0  0  0  0  0
   -4.6820   21.8030  -32.5760 C   0  0  0  0  0  0  0  0  0  0  0  0
   -4.7680   23.0100  -31.8860 C   0  0  0  0  0  0  0  0  0  0  0  0
   -5.8210   23.2360  -31.0170 C   0  0  0  0  0  0  0  0  0  0  0  0
   -6.8280   22.2830  -30.8920 C   0  0  0  0  0  0  0  0  0  0  0  0
   -6.7920   21.0770  -31.6140 C   0  0  0  0  0  0  0  0  0  0  0  0
   -7.9000   20.3040  -31.4990 N   0  0  0  0  0  0  0  0  0  0  0  0
   -4.0850   19.0010  -33.4410 C   0  0  0  0  0  0  0  0  0  0  0  0
   -2.7960   19.3470  -33.0040 C   0  0  0  0  0  0  0  0  0  0  0  0
   -1.6900   18.6180  -33.4820 C   0  0  0  0  0  0  0  0  0  0  0  0
   -0.3590   18.9850  -33.1070 N   0  0  0  0  0  0  0  0  0  0  0  0
    0.1220   19.1060  -31.4460 S   0  0  0  0  0  0  0  0  0  0  0  0
    1.5740   19.4810  -31.3780 O   0  0  0  0  0  0  0  0  0  0  0  0
   -0.0640   17.7900  -30.7430 O   0  0  0  0  0  0  0  0  0  0  0  0
   -0.8490   20.3600  -30.6830 C   0  0  0  0  0  0  0  0  0  0  0  0
   -0.8670   21.6550  -31.2130 C   0  0  0  0  0  0  0  0  0  0  0  0
   -1.5510   22.6770  -30.5510 C   0  0  0  0  0  0  0  0  0  0  0  0
   -2.2200   22.4130  -29.3500 C   0  0  0  0  0  0  0  0  0  0  0  0
   -3.0620   23.7080  -28.5010 S   0  0  0  0  0  0  0  0  0  0  0  0
   -3.1690   24.9030  -29.4080 O   0  0  0  0  0  0  0  0  0  0  0  0
   -4.4590   23.2510  -28.1800 O   0  0  0  0  0  0  0  0  0  0  0  0
   -2.2490   24.1770  -27.0190 N   0  0  0  0  0  0  0  0  0  0  0  0
   -1.9550   25.6210  -26.9770 C   0  0  0  0  0  0  0  0  0  0  0  0
   -0.6310   26.0000  -27.6860 C   0  0  0  0  0  0  0  0  0  0  0  0
    0.1000   24.8790  -28.1340 O   0  0  0  0  0  0  0  0  0  0  0  0
    0.2620   23.9720  -27.0720 C   0  0  0  0  0  0  0  0  0  0  0  0
   -1.0800   23.3160  -26.7080 C   0  0  0  0  0  0  0  0  0  0  0  0
   -2.2060   21.1150  -28.8220 C   0  0  0  0  0  0  0  0  0  0  0  0
   -1.5240   20.0940  -29.4840 C   0  0  0  0  0  0  0  0  0  0  0  0
   -1.8950   17.5060  -34.3210 C   0  0  0  0  0  0  0  0  0  0  0  0
   -0.8080   16.7720  -34.7890 O   0  0  0  0  0  0  0  0  0  0  0  0
   -3.1960   17.1280  -34.6840 C   0  0  0  0  0  0  0  0  0  0  0  0
   -4.2710   17.8860  -34.2200 C   0  0  0  0  0  0  0  0  0  0  0  0
   -5.7100   17.5510  -34.3300 C   0  0  0  0  0  0  0  0  0  0  0  0
   -8.2600   17.7193  -33.6358 H   0  0  0  0  0  0  0  0  0  0  0  0
   -3.8483   21.6445  -33.2759 H   0  0  0  0  0  0  0  0  0  0  0  0
   -3.9993   23.7832  -32.0318 H   0  0  0  0  0  0  0  0  0  0  0  0
   -5.8621   24.1641  -30.4279 H   0  0  0  0  0  0  0  0  0  0  0  0
   -7.6711   22.4779  -30.2129 H   0  0  0  0  0  0  0  0  0  0  0  0
   -2.6520   20.1773  -32.2970 H   0  0  0  0  0  0  0  0  0  0  0  0
   -0.3403   21.8689  -32.1547 H   0  0  0  0  0  0  0  0  0  0  0  0
   -1.5641   23.6921  -30.9745 H   0  0  0  0  0  0  0  0  0  0  0  0
   -2.7796   26.1591  -27.4674 H   0  0  0  0  0  0  0  0  0  0  0  0
   -1.8479   25.9000  -25.9184 H   0  0  0  0  0  0  0  0  0  0  0  0
   -0.8679   26.6327  -28.5541 H   0  0  0  0  0  0  0  0  0  0  0  0
   -0.0049   26.5259  -26.9502 H   0  0  0  0  0  0  0  0  0  0  0  0
    0.9767   23.1908  -27.3702 H   0  0  0  0  0  0  0  0  0  0  0  0
    0.6380   24.5185  -26.1945 H   0  0  0  0  0  0  0  0  0  0  0  0
   -1.1759   22.3770  -27.2728 H   0  0  0  0  0  0  0  0  0  0  0  0
   -1.0781   23.1429  -25.6217 H   0  0  0  0  0  0  0  0  0  0  0  0
   -2.7350   20.9004  -27.8817 H   0  0  0  0  0  0  0  0  0  0  0  0
   -1.5160   19.0774  -29.0638 H   0  0  0  0  0  0  0  0  0  0  0  0
   -3.3656   16.2491  -35.3234 H   0  0  0  0  0  0  0  0  0  0  0  0
   -6.0678   17.6568  -35.3648 H   0  0  0  0  0  0  0  0  0  0  0  0
   -5.9477   16.5127  -34.0553 H   0  0  0  0  0  0  0  0  0  0  0  0
  1  2  2  0
  2  3  1  0
  3  4  2  0
  4  5  1  0
  5  6  2  0
  6  7  1  0
  7  8  2  0
  8  9  1  0
  9 10  2  0
 10 11  1  0
 11 12  2  0
  5 13  1  0
 13 14  2  0
 14 15  1  0
 15 16  1  0
 16 17  1  0
 17 18  2  0
 17 19  2  0
 17 20  1  0
 20 21  2  0
 21 22  1  0
 22 23  2  0
 23 24  1  0
 24 25  2  0
 24 26  2  0
 24 27  1  0
 27 28  1  0
 28 29  1  0
 29 30  1  0
 30 31  1  0
 31 32  1  0
 23 33  1  0
 33 34  2  0
 15 35  2  0
 35 36  1  0
 35 37  1  0
 37 38  2  0
 38 39  1  0
 12  2  1  0
 38 13  1  0
 39  4  1  0
 11  6  1  0
 34 20  1  0
 32 27  1  0
  3 40  1  0
  7 41  1  0
  8 42  1  0
  9 43  1  0
 10 44  1  0
 14 45  1  0
 21 46  1  0
 22 47  1  0
 28 48  1  0
 28 49  1  0
 29 50  1  0
 29 51  1  0
 31 52  1  0
 31 53  1  0
 32 54  1  0
 32 55  1  0
 33 56  1  0
 34 57  1  0
 37 58  1  0
 39 59  1  0
 39 60  1  0
M  CHG  2  16  -1  36  -1
M  END
>  <UniqueID>  (4) 
4

>  <SMILES>  (4) 
O=c1cc2c(c3ccccc3n1)-c1cc([N-]S(=O)(=O)c3ccc(S(=O)(=O)N4CCOCC4)cc3)c([O-])cc1C2

>  <Energy>  (4) 
135.5566261507382

>  <Genealogy>  (4) 
O=c1cc2c(c3ccccc3n1)-c1cc([N-]S(=O)(=O)c3ccc(S(=O)(=O)N4CCOCC4)cc3)c([O-])cc1C2 (protonated)
O=c1cc2c(c3ccccc3n1)-c1cc([N-]S(=O)(=O)c3ccc(S(=O)(=O)N4CCOCC4)cc3)c([O-])cc1C2 (3D coordinates assigned)
O=c1cc2c(c3ccccc3n1)-c1cc([N-]S(=O)(=O)c3ccc(S(=O)(=O)N4CCOCC4)cc3)c([O-])cc1C2 (nonaromatic ring conformer: 135.5566261507382 kcal/mol)

>  <smiles>  (4) 
O=c1cc2c(c3ccccc3n1)-c1cc(NS(=O)(=O)c3ccc(S(=O)(=O)N4CCOCC4)cc3)c(O)cc1C2

>  <score_type>  (4) 
oracle

>  <origin>  (4) 
adgpu

>  <m_score__min__energy>  (4) 
-14.57

>  <m_primary>  (4) 
energy

$$$$
4:0
     RDKit          3D

 42 44  0  0  0  0  0  0  0  0999 V2000
   -5.9600   25.6360  -30.1010 O   0  0  0  0  0  0  0  0  0  0  0  0
   -5.0550   25.1140  -30.8020 C   0  0  0  0  0  0  0  0  0  0  0  0
   -3.6870   25.2880  -30.4130 N   0  0  0  0  0  0  0  0  0  0  0  0
   -2.9980   24.5490  -29.3930 C   0  0  0  0  0  0  0  0  0  0  0  0
   -3.6330   23.4440  -28.8110 C   0  0  0  0  0  0  0  0  0  0  0  0
   -3.0030   22.7210  -27.7930 C   0  0  0  0  0  0  0  0  0  0  0  0
   -1.7360   23.1030  -27.3440 C   0  0  0  0  0  0  0  0  0  0  0  0
   -1.1260   22.4010  -26.3570 F   0  0  0  0  0  0  0  0  0  0  0  0
   -1.1000   24.2110  -27.9100 C   0  0  0  0  0  0  0  0  0  0  0  0
   -1.7310   24.9400  -28.9240 C   0  0  0  0  0  0  0  0  0  0  0  0
   -5.4230   24.3590  -31.9630 N   0  0  0  0  0  0  0  0  0  0  0  0
   -5.8700   22.9980  -31.9660 C   0  0  0  0  0  0  0  0  0  0  0  0
   -7.2450   22.7340  -31.9760 C   0  0  0  0  0  0  0  0  0  0  0  0
   -7.7120   21.4170  -31.9820 C   0  0  0  0  0  0  0  0  0  0  0  0
   -6.8080   20.3460  -31.9600 C   0  0  0  0  0  0  0  0  0  0  0  0
   -7.3970   18.6820  -31.9920 S   0  0  0  0  0  0  0  0  0  0  0  0
   -8.8920   18.6810  -31.8170 O   0  0  0  0  0  0  0  0  0  0  0  0
   -6.7940   17.9210  -30.8440 O   0  0  0  0  0  0  0  0  0  0  0  0
   -6.9930   17.8860  -33.4950 N   0  0  0  0  0  0  0  0  0  0  0  0
   -6.0840   18.7290  -34.2950 C   0  0  0  0  0  0  0  0  0  0  0  0
   -5.3330   17.8800  -35.3340 C   0  0  0  0  0  0  0  0  0  0  0  0
   -4.5370   16.8420  -34.7730 O   0  0  0  0  0  0  0  0  0  0  0  0
   -4.9480   16.4440  -33.4730 C   0  0  0  0  0  0  0  0  0  0  0  0
   -6.4710   16.5210  -33.2690 C   0  0  0  0  0  0  0  0  0  0  0  0
   -5.4310   20.6070  -31.9130 C   0  0  0  0  0  0  0  0  0  0  0  0
   -4.9630   21.9250  -31.9150 C   0  0  0  0  0  0  0  0  0  0  0  0
   -4.6330   23.1433  -29.1568 H   0  0  0  0  0  0  0  0  0  0  0  0
   -3.5053   21.8508  -27.3453 H   0  0  0  0  0  0  0  0  0  0  0  0
   -0.1019   24.5106  -27.5579 H   0  0  0  0  0  0  0  0  0  0  0  0
   -1.2346   25.8216  -29.3557 H   0  0  0  0  0  0  0  0  0  0  0  0
   -7.9619   23.5683  -31.9792 H   0  0  0  0  0  0  0  0  0  0  0  0
   -8.7940   21.2198  -32.0041 H   0  0  0  0  0  0  0  0  0  0  0  0
   -6.6705   19.5010  -34.8147 H   0  0  0  0  0  0  0  0  0  0  0  0
   -5.3503   19.1972  -33.6223 H   0  0  0  0  0  0  0  0  0  0  0  0
   -6.0738   17.4220  -36.0059 H   0  0  0  0  0  0  0  0  0  0  0  0
   -4.6442   18.5584  -35.8587 H   0  0  0  0  0  0  0  0  0  0  0  0
   -4.6250   15.4057  -33.3067 H   0  0  0  0  0  0  0  0  0  0  0  0
   -4.4866   17.1398  -32.7568 H   0  0  0  0  0  0  0  0  0  0  0  0
   -6.9589   15.8330  -33.9751 H   0  0  0  0  0  0  0  0  0  0  0  0
   -6.6882   16.2429  -32.2271 H   0  0  0  0  0  0  0  0  0  0  0  0
   -4.7161   19.7719  -31.8744 H   0  0  0  0  0  0  0  0  0  0  0  0
   -3.8816   22.1227  -31.8765 H   0  0  0  0  0  0  0  0  0  0  0  0
  1  2  2  0
  2  3  1  0
  3  4  1  0
  4  5  2  0
  5  6  1  0
  6  7  2  0
  7  8  1  0
  7  9  1  0
  9 10  2  0
  2 11  1  0
 11 12  1  0
 12 13  2  0
 13 14  1  0
 14 15  2  0
 15 16  1  0
 16 17  2  0
 16 18  2  0
 16 19  1  0
 19 20  1  0
 20 21  1  0
 21 22  1  0
 22 23  1  0
 23 24  1  0
 15 25  1  0
 25 26  2  0
 10  4  1  0
 26 12  1  0
 24 19  1  0
  5 27  1  0
  6 28  1  0
  9 29  1  0
 10 30  1  0
 13 31  1  0
 14 32  1  0
 20 33  1  0
 20 34  1  0
 21 35  1  0
 21 36  1  0
 23 37  1  0
 23 38  1  0
 24 39  1  0
 24 40  1  0
 25 41  1  0
 26 42  1  0
M  CHG  2   3  -1  11  -1
M  END
>  <UniqueID>  (5) 
5

>  <SMILES>  (5) 
O=C([N-]c1ccc(F)cc1)[N-]c1ccc(S(=O)(=O)N2CCOCC2)cc1

>  <Energy>  (5) 
60.050991902465654

>  <Genealogy>  (5) 
O=C([N-]c1ccc(F)cc1)[N-]c1ccc(S(=O)(=O)N2CCOCC2)cc1 (protonated)
O=C([N-]c1ccc(F)cc1)[N-]c1ccc(S(=O)(=O)N2CCOCC2)cc1 (3D coordinates assigned)
O=C([N-]c1ccc(F)cc1)[N-]c1ccc(S(=O)(=O)N2CCOCC2)cc1 (nonaromatic ring conformer: 60.050991902465654 kcal/mol)

>  <smiles>  (5) 
O=C(Nc1ccc(F)cc1)Nc1ccc(S(=O)(=O)N2CCOCC2)cc1

>  <score_type>  (5) 
oracle

>  <origin>  (5) 
adgpu

>  <m_score__min__energy>  (5) 
-12.32

>  <m_primary>  (5) 
energy

$$$$
5:0
     RDKit          3D

 42 44  0  0  0  0  0  0  0  0999 V2000
    0.2600   24.2760  -27.6270 C   0  0  0  0  0  0  0  0  0  0  0  0
   -0.0890   24.1260  -28.9960 O   0  0  0  0  0  0  0  0  0  0  0  0
   -0.8770   23.0830  -29.5120 C   0  0  0  0  0  0  0  0  0  0  0  0
   -0.3220   21.8260  -29.8270 C   0  0  0  0  0  0  0  0  0  0  0  0
   -1.1260   20.8050  -30.3370 C   0  0  0  0  0  0  0  0  0  0  0  0
   -2.4870   21.0230  -30.5430 C   0  0  0  0  0  0  0  0  0  0  0  0
   -3.0530   22.2580  -30.2320 C   0  0  0  0  0  0  0  0  0  0  0  0
   -2.2580   23.3010  -29.7220 C   0  0  0  0  0  0  0  0  0  0  0  0
   -2.9120   24.6090  -29.3420 C   0  0  0  0  0  0  0  0  0  0  0  0
   -3.6580   25.1710  -30.4650 N   0  0  0  0  0  0  0  0  0  0  0  0
   -5.0770   25.0990  -30.6570 C   0  0  0  0  0  0  0  0  0  0  0  0
   -5.7140   26.1710  -30.8370 O   0  0  0  0  0  0  0  0  0  0  0  0
   -5.8360   23.7950  -30.6720 C   0  0  0  0  0  0  0  0  0  0  0  0
   -7.0640   23.8180  -31.5950 C   0  0  0  0  0  0  0  0  0  0  0  0
   -8.0420   22.3190  -31.5100 S   0  0  0  0  0  0  0  0  0  0  0  0
   -8.3820   22.0310  -30.0740 O   0  0  0  0  0  0  0  0  0  0  0  0
   -9.3200   22.5180  -32.2780 O   0  0  0  0  0  0  0  0  0  0  0  0
   -7.1290   20.9550  -32.1580 C   0  0  0  0  0  0  0  0  0  0  0  0
   -5.8550   21.1570  -32.7360 C   0  0  0  0  0  0  0  0  0  0  0  0
   -5.1390   20.0700  -33.2920 C   0  0  0  0  0  0  0  0  0  0  0  0
   -5.6820   18.7690  -33.2720 C   0  0  0  0  0  0  0  0  0  0  0  0
   -6.9340   18.6100  -32.6860 C   0  0  0  0  0  0  0  0  0  0  0  0
   -7.6660   17.4950  -32.5540 N   0  0  0  0  0  0  0  0  0  0  0  0
   -8.7580   17.8940  -31.9530 O   0  0  0  0  0  0  0  0  0  0  0  0
   -8.7900   19.1770  -31.6860 N   0  0  0  0  0  0  0  0  0  0  0  0
   -7.6250   19.6480  -32.1540 C   0  0  0  0  0  0  0  0  0  0  0  0
   -0.5681   23.9201  -26.9964 H   0  0  0  0  0  0  0  0  0  0  0  0
    1.1638   23.6869  -27.4123 H   0  0  0  0  0  0  0  0  0  0  0  0
    0.4545   25.3372  -27.4123 H   0  0  0  0  0  0  0  0  0  0  0  0
    0.7521   21.6484  -29.6698 H   0  0  0  0  0  0  0  0  0  0  0  0
   -0.6844   19.8265  -30.5767 H   0  0  0  0  0  0  0  0  0  0  0  0
   -3.1159   20.2185  -30.9520 H   0  0  0  0  0  0  0  0  0  0  0  0
   -4.1302   22.4187  -30.3865 H   0  0  0  0  0  0  0  0  0  0  0  0
   -3.6024   24.4350  -28.5035 H   0  0  0  0  0  0  0  0  0  0  0  0
   -2.1252   25.3218  -29.0542 H   0  0  0  0  0  0  0  0  0  0  0  0
   -5.1572   22.9997  -31.0136 H   0  0  0  0  0  0  0  0  0  0  0  0
   -6.2001   23.6178  -29.6492 H   0  0  0  0  0  0  0  0  0  0  0  0
   -7.7011   24.6674  -31.3075 H   0  0  0  0  0  0  0  0  0  0  0  0
   -6.6944   23.9080  -32.6271 H   0  0  0  0  0  0  0  0  0  0  0  0
   -5.4170   22.1659  -32.7538 H   0  0  0  0  0  0  0  0  0  0  0  0
   -4.1507   20.2417  -33.7435 H   0  0  0  0  0  0  0  0  0  0  0  0
   -5.1383   17.9149  -33.7019 H   0  0  0  0  0  0  0  0  0  0  0  0
  1  2  1  0
  2  3  1  0
  3  4  2  0
  4  5  1  0
  5  6  2  0
  6  7  1  0
  7  8  2  0
  8  9  1  0
  9 10  1  0
 10 11  1  0
 11 12  2  0
 11 13  1  0
 13 14  1  0
 14 15  1  0
 15 16  2  0
 15 17  2  0
 15 18  1  0
 18 19  2  0
 19 20  1  0
 20 21  2  0
 21 22  1  0
 22 23  2  0
 23 24  1  0
 24 25  1  0
 25 26  2  0
  8  3  1  0
 26 18  1  0
 26 22  1  0
  1 27  1  0
  1 28  1  0
  1 29  1  0
  4 30  1  0
  5 31  1  0
  6 32  1  0
  7 33  1  0
  9 34  1  0
  9 35  1  0
 13 36  1  0
 13 37  1  0
 14 38  1  0
 14 39  1  0
 19 40  1  0
 20 41  1  0
 21 42  1  0
M  CHG  1  10  -1
M  END
>  <UniqueID>  (6) 
6

>  <SMILES>  (6) 
COc1ccccc1C[N-]C(=O)CCS(=O)(=O)c1cccc2nonc12

>  <Energy>  (6) 
80.85282146630524

>  <Genealogy>  (6) 
COc1ccccc1C[N-]C(=O)CCS(=O)(=O)c1cccc2nonc12 (protonated)
COc1ccccc1C[N-]C(=O)CCS(=O)(=O)c1cccc2nonc12 (3D coordinates assigned)
COc1ccccc1C[N-]C(=O)CCS(=O)(=O)c1cccc2nonc12 (optimized conformer: 80.85282146630524 kcal/mol)

>  <smiles>  (6) 
COc1ccccc1CNC(=O)CCS(=O)(=O)c1cccc2nonc12

>  <score_type>  (6) 
oracle

>  <origin>  (6) 
adgpu

>  <m_score__min__energy>  (6) 
-11.69

>  <m_primary>  (6) 
energy

$$$$
6:0
     RDKit          3D

 50 53  0  0  0  0  0  0  0  0999 V2000
   -1.3430   25.5570  -29.7490 H   0  0  0  0  0  0  0  0  0  0  0  0
   -1.2440   26.2510  -28.9740 N   0  0  0  0  0  0  0  0  0  0  0  0
   -0.4620   25.4350  -27.6660 S   0  0  0  0  0  0  0  0  0  0  0  0
    1.0290   25.5480  -27.8210 O   0  0  0  0  0  0  0  0  0  0  0  0
   -0.8620   26.0780  -26.3680 O   0  0  0  0  0  0  0  0  0  0  0  0
   -0.9310   23.7380  -27.6670 C   0  0  0  0  0  0  0  0  0  0  0  0
   -0.3190   22.8320  -26.7890 C   0  0  0  0  0  0  0  0  0  0  0  0
    0.4729   23.1760  -26.1074 H   0  0  0  0  0  0  0  0  0  0  0  0
   -0.7150   21.4930  -26.7800 C   0  0  0  0  0  0  0  0  0  0  0  0
   -0.2406   20.7863  -26.0832 H   0  0  0  0  0  0  0  0  0  0  0  0
   -1.7110   21.0470  -27.6520 C   0  0  0  0  0  0  0  0  0  0  0  0
   -2.0244   19.9928  -27.6311 H   0  0  0  0  0  0  0  0  0  0  0  0
   -2.3130   21.9350  -28.5530 C   0  0  0  0  0  0  0  0  0  0  0  0
   -3.3460   21.4400  -29.4230 N   0  0  0  0  0  0  0  0  0  0  0  0
   -3.2150   21.0910  -30.6700 C   0  0  0  0  0  0  0  0  0  0  0  0
   -2.0000   21.0860  -31.2770 N   0  0  0  0  0  0  0  0  0  0  0  0
   -1.8700   20.6990  -32.5710 C   0  0  0  0  0  0  0  0  0  0  0  0
   -0.5780   20.7140  -33.2140 N   0  0  0  0  0  0  0  0  0  0  0  0
   -0.4590   21.2790  -34.5650 C   0  0  0  0  0  0  0  0  0  0  0  0
   -1.1230   20.7257  -35.2454 H   0  0  0  0  0  0  0  0  0  0  0  0
   -0.7432   22.3409  -34.5254 H   0  0  0  0  0  0  0  0  0  0  0  0
    0.9790   21.1800  -35.0800 C   0  0  0  0  0  0  0  0  0  0  0  0
    0.9887   21.3397  -36.1683 H   0  0  0  0  0  0  0  0  0  0  0  0
    1.5944   21.9468  -34.5867 H   0  0  0  0  0  0  0  0  0  0  0  0
    1.5260   19.8530  -34.7780 N   0  0  0  0  0  0  0  0  0  0  0  0
    2.4670   19.7660  -35.2290 H   0  0  0  0  0  0  0  0  0  0  0  0
    0.9040   19.1200  -35.1940 H   0  0  0  0  0  0  0  0  0  0  0  0
    1.6670   19.6160  -33.3260 C   0  0  0  0  0  0  0  0  0  0  0  0
    1.5449   18.5390  -33.1384 H   0  0  0  0  0  0  0  0  0  0  0  0
    2.6619   19.9873  -33.0393 H   0  0  0  0  0  0  0  0  0  0  0  0
    0.6400   20.3790  -32.4590 C   0  0  0  0  0  0  0  0  0  0  0  0
    0.3636   19.7501  -31.5999 H   0  0  0  0  0  0  0  0  0  0  0  0
    1.1054   21.3198  -32.1300 H   0  0  0  0  0  0  0  0  0  0  0  0
   -2.9740   20.3000  -33.2570 N   0  0  0  0  0  0  0  0  0  0  0  0
   -4.1950   20.2960  -32.6630 C   0  0  0  0  0  0  0  0  0  0  0  0
   -5.2280   19.8830  -33.3380 N   0  0  0  0  0  0  0  0  0  0  0  0
   -6.5940   19.8550  -32.8940 C   0  0  0  0  0  0  0  0  0  0  0  0
   -7.3430   21.0330  -32.6990 C   0  0  0  0  0  0  0  0  0  0  0  0
   -6.8732   22.0144  -32.8605 H   0  0  0  0  0  0  0  0  0  0  0  0
   -8.6810   20.9580  -32.3010 C   0  0  0  0  0  0  0  0  0  0  0  0
   -9.2571   21.8805  -32.1363 H   0  0  0  0  0  0  0  0  0  0  0  0
   -9.2880   19.7140  -32.1120 C   0  0  0  0  0  0  0  0  0  0  0  0
  -10.3378   19.6577  -31.7883 H   0  0  0  0  0  0  0  0  0  0  0  0
   -8.5620   18.5420  -32.3340 C   0  0  0  0  0  0  0  0  0  0  0  0
   -9.0434   17.5628  -32.1950 H   0  0  0  0  0  0  0  0  0  0  0  0
   -7.2230   18.6120  -32.7330 C   0  0  0  0  0  0  0  0  0  0  0  0
   -6.6599   17.6861  -32.9217 H   0  0  0  0  0  0  0  0  0  0  0  0
   -4.3060   20.6820  -31.3640 N   0  0  0  0  0  0  0  0  0  0  0  0
   -1.9400   23.2930  -28.5320 C   0  0  0  0  0  0  0  0  0  0  0  0
   -2.4436   24.0086  -29.1985 H   0  0  0  0  0  0  0  0  0  0  0  0
  1  2  1  0
  2  3  1  0
  3  4  2  0
  3  5  2  0
  3  6  1  0
  6  7  2  0
  7  8  1  0
  7  9  1  0
  9 10  1  0
  9 11  2  0
 11 12  1  0
 11 13  1  0
 13 14  1  0
 14 15  2  3
 15 16  1  0
 16 17  1  0
 17 18  1  0
 18 19  1  0
 19 20  1  0
 19 21  1  0
 19 22  1  0
 22 23  1  0
 22 24  1  0
 22 25  1  0
 25 26  1  0
 25 27  1  0
 25 28  1  0
 28 29  1  0
 28 30  1  0
 28 31  1  0
 31 32  1  0
 31 33  1  0
 17 34  2  0
 34 35  1  0
 35 36  2  0
 36 37  1  0
 37 38  2  0
 38 39  1  0
 38 40  1  0
 40 41  1  0
 40 42  2  0
 42 43  1  0
 42 44  1  0
 44 45  1  0
 44 46  2  0
 46 47  1  0
 35 48  1  0
 13 49  2  0
 49 50  1  0
 49  6  1  0
 48 15  1  0
 31 18  1  0
 46 37  1  0
M  CHG  4   2  -1  16  -1  25   1  48  -1
M  END
>  <UniqueID>  (7) 
7

>  <SMILES>  (7) 
[NH-]S(=O)(=O)c1cccc(N=c2[n-]c(N3CC[NH2+]CC3)n/c(=N/c3ccccc3)[n-]2)c1

>  <Energy>  (7) 
69.32004256945544

>  <Genealogy>  (7) 
[NH-]S(=O)(=O)c1cccc(N=c2[n-]c(N3CC[NH2+]CC3)nc(=Nc3ccccc3)[n-]2)c1 (protonated)
[NH-]S(=O)(=O)c1cccc(N=c2[n-]c(N3CC[NH2+]CC3)n/c(=N/c3ccccc3)[n-]2)c1 (cis-trans isomerization)
[NH-]S(=O)(=O)c1cccc(N=c2[n-]c(N3CC[NH2+]CC3)n/c(=N/c3ccccc3)[n-]2)c1 (3D coordinates assigned)
[NH-]S(=O)(=O)c1cccc(N=c2[n-]c(N3CC[NH2+]CC3)n/c(=N/c3ccccc3)[n-]2)c1 (nonaromatic ring conformer: 69.32004256945544 kcal/mol)

>  <smiles>  (7) 
NS(=O)(=O)c1cccc(N=c2[nH]c(N3CCNCC3)nc(=Nc3ccccc3)[nH]2)c1

>  <score_type>  (7) 
oracle

>  <origin>  (7) 
adgpu

>  <m_score__min__energy>  (7) 
-10.289999999999999

>  <m_primary>  (7) 
energy

$$$$
7:0
     RDKit          3D

 40 42  0  0  0  0  0  0  0  0999 V2000
   -4.2670   22.0170  -28.3400 O   0  0  0  0  0  0  0  0  0  0  0  0
   -3.5620   22.5820  -29.2190 C   0  0  0  0  0  0  0  0  0  0  0  0
   -3.8020   22.3080  -30.6070 N   0  0  0  0  0  0  0  0  0  0  0  0
   -5.0650   21.9880  -31.2110 C   0  0  0  0  0  0  0  0  0  0  0  0
   -5.5220   20.6610  -31.3060 C   0  0  0  0  0  0  0  0  0  0  0  0
   -6.7400   20.3730  -31.9380 C   0  0  0  0  0  0  0  0  0  0  0  0
   -7.2960   18.7040  -32.0750 S   0  0  0  0  0  0  0  0  0  0  0  0
   -8.7880   18.6750  -31.8910 O   0  0  0  0  0  0  0  0  0  0  0  0
   -6.6840   17.8880  -30.9710 O   0  0  0  0  0  0  0  0  0  0  0  0
   -6.8940   17.9850  -33.6210 N   0  0  0  0  0  0  0  0  0  0  0  0
   -6.4800   16.5750  -33.5000 C   0  0  0  0  0  0  0  0  0  0  0  0
   -4.9900   16.4100  -33.1130 C   0  0  0  0  0  0  0  0  0  0  0  0
   -4.2670   17.6250  -33.1470 O   0  0  0  0  0  0  0  0  0  0  0  0
   -4.5110   18.2880  -34.3640 C   0  0  0  0  0  0  0  0  0  0  0  0
   -5.9550   18.8130  -34.4100 C   0  0  0  0  0  0  0  0  0  0  0  0
   -7.5050   21.4160  -32.4730 C   0  0  0  0  0  0  0  0  0  0  0  0
   -7.0460   22.7320  -32.4010 C   0  0  0  0  0  0  0  0  0  0  0  0
   -5.8240   23.0220  -31.7790 C   0  0  0  0  0  0  0  0  0  0  0  0
   -5.3610   24.3350  -31.7190 O   0  0  0  0  0  0  0  0  0  0  0  0
   -2.5290   23.5770  -28.8200 C   0  0  0  0  0  0  0  0  0  0  0  0
   -2.5370   24.8910  -29.3360 C   0  0  0  0  0  0  0  0  0  0  0  0
   -3.4990   25.2990  -30.2530 O   0  0  0  0  0  0  0  0  0  0  0  0
   -1.5840   25.7790  -28.9530 N   0  0  0  0  0  0  0  0  0  0  0  0
   -0.6080   25.4310  -28.0790 C   0  0  0  0  0  0  0  0  0  0  0  0
    0.2630   26.2740  -27.7410 O   0  0  0  0  0  0  0  0  0  0  0  0
   -0.5690   24.1760  -27.5700 N   0  0  0  0  0  0  0  0  0  0  0  0
   -1.4970   23.2470  -27.9140 C   0  0  0  0  0  0  0  0  0  0  0  0
   -1.4250   22.0970  -27.4030 O   0  0  0  0  0  0  0  0  0  0  0  0
   -4.9199   19.8440  -30.8817 H   0  0  0  0  0  0  0  0  0  0  0  0
   -7.0976   16.0940  -32.7273 H   0  0  0  0  0  0  0  0  0  0  0  0
   -6.6161   16.1076  -34.4864 H   0  0  0  0  0  0  0  0  0  0  0  0
   -4.9370   16.0002  -32.0935 H   0  0  0  0  0  0  0  0  0  0  0  0
   -4.5329   15.7371  -33.8535 H   0  0  0  0  0  0  0  0  0  0  0  0
   -3.8148   19.1340  -34.4614 H   0  0  0  0  0  0  0  0  0  0  0  0
   -4.3634   17.5787  -35.1917 H   0  0  0  0  0  0  0  0  0  0  0  0
   -5.9689   19.8375  -34.0098 H   0  0  0  0  0  0  0  0  0  0  0  0
   -6.2855   18.7787  -35.4586 H   0  0  0  0  0  0  0  0  0  0  0  0
   -8.4710   21.1977  -32.9517 H   0  0  0  0  0  0  0  0  0  0  0  0
   -7.6462   23.5455  -32.8345 H   0  0  0  0  0  0  0  0  0  0  0  0
   -4.4210   24.5520  -31.4120 H   0  0  0  0  0  0  0  0  0  0  0  0
  1  2  2  0
  2  3  1  0
  3  4  1  0
  4  5  2  0
  5  6  1  0
  6  7  1  0
  7  8  2  0
  7  9  2  0
  7 10  1  0
 10 11  1  0
 11 12  1  0
 12 13  1  0
 13 14  1  0
 14 15  1  0
  6 16  2  0
 16 17  1  0
 17 18  2  0
 18 19  1  0
  2 20  1  0
 20 21  2  0
 21 22  1  0
 21 23  1  0
 23 24  1  0
 24 25  2  0
 24 26  1  0
 26 27  1  0
 27 28  2  0
 18  4  1  0
 27 20  1  0
 15 10  1  0
  5 29  1  0
 11 30  1  0
 11 31  1  0
 12 32  1  0
 12 33  1  0
 14 34  1  0
 14 35  1  0
 15 36  1  0
 15 37  1  0
 16 38  1  0
 17 39  1  0
 19 40  1  0
M  CHG  4   3  -1  22  -1  23  -1  26  -1
M  END
>  <UniqueID>  (8) 
8

>  <SMILES>  (8) 
O=C([N-]c1cc(S(=O)(=O)N2CCOCC2)ccc1O)c1c([O-])[n-]c(=O)[n-]c1=O

>  <Energy>  (8) 
61.415856025170385

>  <Genealogy>  (8) 
O=C([N-]c1cc(S(=O)(=O)N2CCOCC2)ccc1O)c1c([O-])[n-]c(=O)[n-]c1=O (protonated)
O=C([N-]c1cc(S(=O)(=O)N2CCOCC2)ccc1O)c1c([O-])[n-]c(=O)[n-]c1=O (3D coordinates assigned)
O=C([N-]c1cc(S(=O)(=O)N2CCOCC2)ccc1O)c1c([O-])[n-]c(=O)[n-]c1=O (nonaromatic ring conformer: 61.415856025170385 kcal/mol)

>  <smiles>  (8) 
O=C(Nc1cc(S(=O)(=O)N2CCOCC2)ccc1O)c1c(O)[nH]c(=O)[nH]c1=O

>  <score_type>  (8) 
oracle

>  <origin>  (8) 
adgpu

>  <m_score__min__energy>  (8) 
-14.09

>  <m_primary>  (8) 
energy

$$$$
8:0
     RDKit          3D

 53 55  0  0  0  0  0  0  0  0999 V2000
   -1.8450   23.9920  -28.9340 C   0  0  0  0  0  0  0  0  0  0  0  0
   -3.2070   24.4020  -28.3840 C   0  0  0  0  0  0  0  0  0  0  0  0
   -4.2600   23.5280  -28.9020 N   0  0  0  0  0  0  0  0  0  0  0  0
   -4.5630   23.8170  -30.5910 S   0  0  0  0  0  0  0  0  0  0  0  0
   -4.6490   25.2940  -30.8580 O   0  0  0  0  0  0  0  0  0  0  0  0
   -3.4230   23.2590  -31.3950 O   0  0  0  0  0  0  0  0  0  0  0  0
   -6.0570   23.0290  -31.0950 C   0  0  0  0  0  0  0  0  0  0  0  0
   -7.2420   23.7650  -31.1960 C   0  0  0  0  0  0  0  0  0  0  0  0
   -8.4250   23.1380  -31.5910 C   0  0  0  0  0  0  0  0  0  0  0  0
   -8.4380   21.7750  -31.9070 C   0  0  0  0  0  0  0  0  0  0  0  0
   -9.6590   21.1930  -32.2550 O   0  0  0  0  0  0  0  0  0  0  0  0
   -7.2350   21.0340  -31.8540 C   0  0  0  0  0  0  0  0  0  0  0  0
   -7.1530   19.3330  -32.3340 S   0  0  0  0  0  0  0  0  0  0  0  0
   -8.4930   18.8410  -32.8050 O   0  0  0  0  0  0  0  0  0  0  0  0
   -6.7130   18.5140  -31.1530 O   0  0  0  0  0  0  0  0  0  0  0  0
   -6.0040   19.1240  -33.6180 N   0  0  0  0  0  0  0  0  0  0  0  0
   -4.6230   19.5100  -33.5620 C   0  0  0  0  0  0  0  0  0  0  0  0
   -4.2230   20.8570  -33.4860 C   0  0  0  0  0  0  0  0  0  0  0  0
   -2.8650   21.1890  -33.4610 C   0  0  0  0  0  0  0  0  0  0  0  0
   -1.8910   20.1820  -33.4930 C   0  0  0  0  0  0  0  0  0  0  0  0
   -0.1730   20.5800  -33.5140 S   0  0  0  0  0  0  0  0  0  0  0  0
    0.0030   21.8600  -34.2840 O   0  0  0  0  0  0  0  0  0  0  0  0
    0.5830   19.4780  -34.2040 O   0  0  0  0  0  0  0  0  0  0  0  0
    0.4440   20.7840  -31.8910 N   0  0  0  0  0  0  0  0  0  0  0  0
   -0.4920   21.5690  -31.0550 C   0  0  0  0  0  0  0  0  0  0  0  0
   -1.2520   20.6890  -30.0460 C   0  0  0  0  0  0  0  0  0  0  0  0
   -0.3930   19.9760  -29.1680 O   0  0  0  0  0  0  0  0  0  0  0  0
    0.8230   19.5530  -29.7750 C   0  0  0  0  0  0  0  0  0  0  0  0
    0.7670   19.4680  -31.3090 C   0  0  0  0  0  0  0  0  0  0  0  0
   -2.2890   18.8410  -33.5530 C   0  0  0  0  0  0  0  0  0  0  0  0
   -3.6460   18.5080  -33.5890 C   0  0  0  0  0  0  0  0  0  0  0  0
   -6.0600   21.6680  -31.4180 C   0  0  0  0  0  0  0  0  0  0  0  0
   -1.1594   23.7856  -28.0989 H   0  0  0  0  0  0  0  0  0  0  0  0
   -1.9555   23.0873  -29.5499 H   0  0  0  0  0  0  0  0  0  0  0  0
   -1.4377   24.8074  -29.5499 H   0  0  0  0  0  0  0  0  0  0  0  0
   -3.1885   24.3331  -27.2863 H   0  0  0  0  0  0  0  0  0  0  0  0
   -3.4186   25.4345  -28.6989 H   0  0  0  0  0  0  0  0  0  0  0  0
   -7.2418   24.8402  -30.9637 H   0  0  0  0  0  0  0  0  0  0  0  0
   -9.3557   23.7209  -31.6544 H   0  0  0  0  0  0  0  0  0  0  0  0
   -9.7410   20.2690  -32.6560 H   0  0  0  0  0  0  0  0  0  0  0  0
   -4.9820   21.6522  -33.4461 H   0  0  0  0  0  0  0  0  0  0  0  0
   -2.5600   22.2449  -33.4160 H   0  0  0  0  0  0  0  0  0  0  0  0
    0.0797   22.3287  -30.5017 H   0  0  0  0  0  0  0  0  0  0  0  0
   -1.2331   22.0320  -31.7232 H   0  0  0  0  0  0  0  0  0  0  0  0
   -1.9092   21.3343  -29.4447 H   0  0  0  0  0  0  0  0  0  0  0  0
   -1.8200   19.9449  -30.6237 H   0  0  0  0  0  0  0  0  0  0  0  0
    1.6130   20.2665  -29.4979 H   0  0  0  0  0  0  0  0  0  0  0  0
    1.0203   18.5344  -29.4096 H   0  0  0  0  0  0  0  0  0  0  0  0
    1.7444   19.1351  -31.6884 H   0  0  0  0  0  0  0  0  0  0  0  0
   -0.0170   18.7517  -31.5958 H   0  0  0  0  0  0  0  0  0  0  0  0
   -1.5297   18.0453  -33.5719 H   0  0  0  0  0  0  0  0  0  0  0  0
   -3.9482   17.4515  -33.6389 H   0  0  0  0  0  0  0  0  0  0  0  0
   -5.1303   21.0869  -31.3294 H   0  0  0  0  0  0  0  0  0  0  0  0
  1  2  1  0
  2  3  1  0
  3  4  1  0
  4  5  2  0
  4  6  2  0
  4  7  1  0
  7  8  2  0
  8  9  1  0
  9 10  2  0
 10 11  1  0
 10 12  1  0
 12 13  1  0
 13 14  2  0
 13 15  2  0
 13 16  1  0
 16 17  1  0
 17 18  2  0
 18 19  1  0
 19 20  2  0
 20 21  1  0
 21 22  2  0
 21 23  2  0
 21 24  1  0
 24 25  1  0
 25 26  1  0
 26 27  1  0
 27 28  1  0
 28 29  1  0
 20 30  1  0
 30 31  2  0
 12 32  2  0
 32  7  1  0
 31 17  1  0
 29 24  1  0
  1 33  1  0
  1 34  1  0
  1 35  1  0
  2 36  1  0
  2 37  1  0
  8 38  1  0
  9 39  1  0
 11 40  1  0
 18 41  1  0
 19 42  1  0
 25 43  1  0
 25 44  1  0
 26 45  1  0
 26 46  1  0
 28 47  1  0
 28 48  1  0
 29 49  1  0
 29 50  1  0
 30 51  1  0
 31 52  1  0
 32 53  1  0
M  CHG  2   3  -1  16  -1
M  END
>  <UniqueID>  (9) 
9

>  <SMILES>  (9) 
CC[N-]S(=O)(=O)c1ccc(O)c(S(=O)(=O)[N-]c2ccc(S(=O)(=O)N3CCOCC3)cc2)c1

>  <Energy>  (9) 
65.53652813150465

>  <Genealogy>  (9) 
CC[N-]S(=O)(=O)c1ccc(O)c(S(=O)(=O)[N-]c2ccc(S(=O)(=O)N3CCOCC3)cc2)c1 (protonated)
CC[N-]S(=O)(=O)c1ccc(O)c(S(=O)(=O)[N-]c2ccc(S(=O)(=O)N3CCOCC3)cc2)c1 (3D coordinates assigned)
CC[N-]S(=O)(=O)c1ccc(O)c(S(=O)(=O)[N-]c2ccc(S(=O)(=O)N3CCOCC3)cc2)c1 (nonaromatic ring conformer: 65.53652813150465 kcal/mol)

>  <smiles>  (9) 
CCNS(=O)(=O)c1ccc(O)c(S(=O)(=O)Nc2ccc(S(=O)(=O)N3CCOCC3)cc2)c1

>  <score_type>  (9) 
oracle

>  <origin>  (9) 
adgpu

>  <m_score__min__energy>  (9) 
-11.06

>  <m_primary>  (9) 
energy

$$$$
9:0
     RDKit          3D

 62 66  0  0  0  0  0  0  0  0999 V2000
   -7.6080   24.9920  -30.1130 O   0  0  0  0  0  0  0  0  0  0  0  0
   -6.8960   24.2010  -30.7870 C   0  0  0  0  0  0  0  0  0  0  0  0
   -7.4950   23.4930  -31.8820 N   0  0  0  0  0  0  0  0  0  0  0  0
   -7.6750   22.0710  -31.9770 C   0  0  0  0  0  0  0  0  0  0  0  0
   -8.8830   21.5100  -31.5430 C   0  0  0  0  0  0  0  0  0  0  0  0
   -9.0950   20.1310  -31.6330 C   0  0  0  0  0  0  0  0  0  0  0  0
   -8.0990   19.3020  -32.1580 C   0  0  0  0  0  0  0  0  0  0  0  0
   -6.8770   19.8470  -32.5740 C   0  0  0  0  0  0  0  0  0  0  0  0
   -5.6420   18.8140  -33.2890 S   0  0  0  0  0  0  0  0  0  0  0  0
   -5.3810   17.6470  -32.3760 O   0  0  0  0  0  0  0  0  0  0  0  0
   -6.1290   18.2850  -34.6120 O   0  0  0  0  0  0  0  0  0  0  0  0
   -4.1720   19.7350  -33.4930 N   0  0  0  0  0  0  0  0  0  0  0  0
   -3.1140   18.9180  -34.1020 C   0  0  0  0  0  0  0  0  0  0  0  0
   -1.8030   19.5040  -33.6220 C   0  0  0  0  0  0  0  0  0  0  0  0
   -2.1220   20.0840  -32.2510 C   0  0  0  0  0  0  0  0  0  0  0  0
   -3.6420   20.2000  -32.2010 C   0  0  0  0  0  0  0  0  0  0  0  0
   -6.6580   21.2280  -32.4610 C   0  0  0  0  0  0  0  0  0  0  0  0
   -5.4640   24.0690  -30.4560 C   0  0  0  0  0  0  0  0  0  0  0  0
   -4.7640   22.9220  -30.0940 C   0  0  0  0  0  0  0  0  0  0  0  0
   -3.3930   23.1610  -29.8290 C   0  0  0  0  0  0  0  0  0  0  0  0
   -2.4410   22.1020  -29.4170 C   0  0  0  0  0  0  0  0  0  0  0  0
   -1.1260   22.0670  -29.9140 C   0  0  0  0  0  0  0  0  0  0  0  0
   -0.2510   21.0440  -29.5330 C   0  0  0  0  0  0  0  0  0  0  0  0
   -0.6730   20.0430  -28.6460 C   0  0  0  0  0  0  0  0  0  0  0  0
    0.4240   18.7390  -28.1790 S   0  0  0  0  0  0  0  0  0  0  0  0
   -0.2680   17.8300  -27.2000 O   0  0  0  0  0  0  0  0  0  0  0  0
    1.6240   19.3310  -27.4940 O   0  0  0  0  0  0  0  0  0  0  0  0
    0.9730   17.8210  -29.5640 N   0  0  0  0  0  0  0  0  0  0  0  0
   -0.1050   17.6750  -30.5630 C   0  0  0  0  0  0  0  0  0  0  0  0
    0.4820   17.3040  -31.9370 C   0  0  0  0  0  0  0  0  0  0  0  0
    1.3820   18.2730  -32.4650 O   0  0  0  0  0  0  0  0  0  0  0  0
    1.9820   19.0990  -31.4730 C   0  0  0  0  0  0  0  0  0  0  0  0
    2.2250   18.3740  -30.1320 C   0  0  0  0  0  0  0  0  0  0  0  0
   -1.9850   20.0690  -28.1560 C   0  0  0  0  0  0  0  0  0  0  0  0
   -2.8640   21.0850  -28.5400 C   0  0  0  0  0  0  0  0  0  0  0  0
   -2.9780   24.4470  -30.0010 N   0  0  0  0  0  0  0  0  0  0  0  0
   -4.3330   25.2890  -30.4600 S   0  0  0  0  0  0  0  0  0  0  0  0
   -9.6694   22.1582  -31.1290 H   0  0  0  0  0  0  0  0  0  0  0  0
  -10.0463   19.6978  -31.2904 H   0  0  0  0  0  0  0  0  0  0  0  0
   -8.2751   18.2196  -32.2446 H   0  0  0  0  0  0  0  0  0  0  0  0
   -3.2057   17.8709  -33.7777 H   0  0  0  0  0  0  0  0  0  0  0  0
   -3.1806   18.9273  -35.1999 H   0  0  0  0  0  0  0  0  0  0  0  0
   -1.0334   18.7219  -33.5435 H   0  0  0  0  0  0  0  0  0  0  0  0
   -1.4060   20.2615  -34.3138 H   0  0  0  0  0  0  0  0  0  0  0  0
   -1.7613   19.4139  -31.4567 H   0  0  0  0  0  0  0  0  0  0  0  0
   -1.6332   21.0572  -32.0959 H   0  0  0  0  0  0  0  0  0  0  0  0
   -4.0383   19.5749  -31.3873 H   0  0  0  0  0  0  0  0  0  0  0  0
   -3.9417   21.2420  -32.0156 H   0  0  0  0  0  0  0  0  0  0  0  0
   -5.6865   21.6538  -32.7522 H   0  0  0  0  0  0  0  0  0  0  0  0
   -5.2293   21.9279  -30.0208 H   0  0  0  0  0  0  0  0  0  0  0  0
   -0.7830   22.8493  -30.6071 H   0  0  0  0  0  0  0  0  0  0  0  0
    0.7741   21.0247  -29.9315 H   0  0  0  0  0  0  0  0  0  0  0  0
   -0.7952   16.8826  -30.2380 H   0  0  0  0  0  0  0  0  0  0  0  0
   -0.6413   18.6314  -30.6510 H   0  0  0  0  0  0  0  0  0  0  0  0
    1.0210   16.3504  -31.8364 H   0  0  0  0  0  0  0  0  0  0  0  0
   -0.3640   17.2417  -32.6373 H   0  0  0  0  0  0  0  0  0  0  0  0
    2.9494   19.4561  -31.8559 H   0  0  0  0  0  0  0  0  0  0  0  0
    1.2823   19.9237  -31.2725 H   0  0  0  0  0  0  0  0  0  0  0  0
    2.9341   17.5496  -30.2976 H   0  0  0  0  0  0  0  0  0  0  0  0
    2.6268   19.1076  -29.4176 H   0  0  0  0  0  0  0  0  0  0  0  0
   -2.3256   19.2844  -27.4643 H   0  0  0  0  0  0  0  0  0  0  0  0
   -3.8941   21.0903  -28.1543 H   0  0  0  0  0  0  0  0  0  0  0  0
  1  2  2  0
  2  3  1  0
  3  4  1  0
  4  5  2  0
  5  6  1  0
  6  7  2  0
  7  8  1  0
  8  9  1  0
  9 10  2  0
  9 11  2  0
  9 12  1  0
 12 13  1  0
 13 14  1  0
 14 15  1  0
 15 16  1  0
  8 17  2  0
  2 18  1  0
 18 19  2  0
 19 20  1  0
 20 21  1  0
 21 22  2  0
 22 23  1  0
 23 24  2  0
 24 25  1  0
 25 26  2  0
 25 27  2  0
 25 28  1  0
 28 29  1  0
 29 30  1  0
 30 31  1  0
 31 32  1  0
 32 33  1  0
 24 34  1  0
 34 35  2  0
 20 36  2  0
 36 37  1  0
 17  4  1  0
 37 18  1  0
 16 12  1  0
 35 21  1  0
 33 28  1  0
  5 38  1  0
  6 39  1  0
  7 40  1  0
 13 41  1  0
 13 42  1  0
 14 43  1  0
 14 44  1  0
 15 45  1  0
 15 46  1  0
 16 47  1  0
 16 48  1  0
 17 49  1  0
 19 50  1  0
 22 51  1  0
 23 52  1  0
 29 53  1  0
 29 54  1  0
 30 55  1  0
 30 56  1  0
 32 57  1  0
 32 58  1  0
 33 59  1  0
 33 60  1  0
 34 61  1  0
 35 62  1  0
M  CHG  1   3  -1
M  END
>  <UniqueID>  (10) 
10

>  <SMILES>  (10) 
O=C([N-]c1cccc(S(=O)(=O)N2CCCC2)c1)c1cc(-c2ccc(S(=O)(=O)N3CCOCC3)cc2)ns1

>  <Energy>  (10) 
114.91545979324387

>  <Genealogy>  (10) 
O=C([N-]c1cccc(S(=O)(=O)N2CCCC2)c1)c1cc(-c2ccc(S(=O)(=O)N3CCOCC3)cc2)ns1 (protonated)
O=C([N-]c1cccc(S(=O)(=O)N2CCCC2)c1)c1cc(-c2ccc(S(=O)(=O)N3CCOCC3)cc2)ns1 (3D coordinates assigned)
O=C([N-]c1cccc(S(=O)(=O)N2CCCC2)c1)c1cc(-c2ccc(S(=O)(=O)N3CCOCC3)cc2)ns1 (nonaromatic ring conformer: 114.91545979324387 kcal/mol)

>  <smiles>  (10) 
O=C(Nc1cccc(S(=O)(=O)N2CCCC2)c1)c1cc(-c2ccc(S(=O)(=O)N3CCOCC3)cc2)ns1

>  <score_type>  (10) 
oracle

>  <origin>  (10) 
adgpu

>  <m_score__min__energy>  (10) 
-12.94

>  <m_primary>  (10) 
energy

$$$$
10:0
     RDKit          3D

 53 56  0  0  0  0  0  0  0  0999 V2000
   -7.7970   20.3320  -33.1300 C   0  0  0  0  0  0  0  0  0  0  0  0
   -7.1270   21.4280  -32.3420 C   0  0  0  0  0  0  0  0  0  0  0  0
   -7.9200   22.4490  -31.7880 C   0  0  0  0  0  0  0  0  0  0  0  0
   -7.3330   23.5040  -31.0890 C   0  0  0  0  0  0  0  0  0  0  0  0
   -5.9450   23.5600  -30.9310 C   0  0  0  0  0  0  0  0  0  0  0  0
   -5.2140   24.9680  -30.1580 S   0  0  0  0  0  0  0  0  0  0  0  0
   -5.4730   24.9660  -28.6730 O   0  0  0  0  0  0  0  0  0  0  0  0
   -5.8070   26.2080  -30.7590 O   0  0  0  0  0  0  0  0  0  0  0  0
   -3.4980   24.9520  -30.4330 N   0  0  0  0  0  0  0  0  0  0  0  0
   -2.5670   24.1860  -29.6550 C   0  0  0  0  0  0  0  0  0  0  0  0
   -2.7560   22.8110  -29.4240 C   0  0  0  0  0  0  0  0  0  0  0  0
   -1.7670   22.0600  -28.7790 C   0  0  0  0  0  0  0  0  0  0  0  0
   -0.5890   22.6820  -28.3250 C   0  0  0  0  0  0  0  0  0  0  0  0
   -0.4440   24.0710  -28.4770 C   0  0  0  0  0  0  0  0  0  0  0  0
   -1.4220   24.8170  -29.1480 C   0  0  0  0  0  0  0  0  0  0  0  0
   -1.2370   26.1880  -29.3290 O   0  0  0  0  0  0  0  0  0  0  0  0
    0.4770   21.8880  -27.6010 C   0  0  0  0  0  0  0  0  0  0  0  0
    0.4230   20.4540  -27.9290 N   0  0  0  0  0  0  0  0  0  0  0  0
    1.6410   19.6390  -27.9210 C   0  0  0  0  0  0  0  0  0  0  0  0
   -0.8370   19.8370  -28.2370 C   0  0  0  0  0  0  0  0  0  0  0  0
   -0.9630   18.5860  -28.2100 O   0  0  0  0  0  0  0  0  0  0  0  0
   -1.9360   20.6490  -28.6380 N   0  0  0  0  0  0  0  0  0  0  0  0
   -5.1460   22.5440  -31.4680 C   0  0  0  0  0  0  0  0  0  0  0  0
   -5.7200   21.4830  -32.1860 C   0  0  0  0  0  0  0  0  0  0  0  0
   -4.6570   20.2420  -32.8700 S   0  0  0  0  0  0  0  0  0  0  0  0
   -5.2150   19.7360  -34.1720 O   0  0  0  0  0  0  0  0  0  0  0  0
   -4.5460   19.1040  -31.8940 O   0  0  0  0  0  0  0  0  0  0  0  0
   -3.0810   20.9010  -33.1630 N   0  0  0  0  0  0  0  0  0  0  0  0
   -1.8860   20.2580  -32.7060 C   0  0  0  0  0  0  0  0  0  0  0  0
   -0.8920   21.0410  -32.1010 C   0  0  0  0  0  0  0  0  0  0  0  0
    0.2540   20.4380  -31.5730 C   0  0  0  0  0  0  0  0  0  0  0  0
    0.4190   19.0560  -31.6530 C   0  0  0  0  0  0  0  0  0  0  0  0
   -0.5500   18.2740  -32.2830 C   0  0  0  0  0  0  0  0  0  0  0  0
   -1.6960   18.8650  -32.8290 C   0  0  0  0  0  0  0  0  0  0  0  0
   -2.6080   18.0540  -33.5050 O   0  0  0  0  0  0  0  0  0  0  0  0
   -8.2429   19.6027  -32.4377 H   0  0  0  0  0  0  0  0  0  0  0  0
   -8.5849   20.7651  -33.7637 H   0  0  0  0  0  0  0  0  0  0  0  0
   -7.0523   19.8282  -33.7637 H   0  0  0  0  0  0  0  0  0  0  0  0
   -9.0130   22.4153  -31.9070 H   0  0  0  0  0  0  0  0  0  0  0  0
   -7.9652   24.2955  -30.6602 H   0  0  0  0  0  0  0  0  0  0  0  0
   -3.6861   22.3238  -29.7521 H   0  0  0  0  0  0  0  0  0  0  0  0
    0.4428   24.5761  -28.0667 H   0  0  0  0  0  0  0  0  0  0  0  0
    1.4647   22.2794  -27.8860 H   0  0  0  0  0  0  0  0  0  0  0  0
    0.3004   21.9935  -26.5204 H   0  0  0  0  0  0  0  0  0  0  0  0
    1.9410   19.4382  -26.8819 H   0  0  0  0  0  0  0  0  0  0  0  0
    1.4486   18.6871  -28.4375 H   0  0  0  0  0  0  0  0  0  0  0  0
    2.4476   20.1800  -28.4375 H   0  0  0  0  0  0  0  0  0  0  0  0
   -4.0557   22.5773  -31.3258 H   0  0  0  0  0  0  0  0  0  0  0  0
   -1.0142   22.1326  -32.0417 H   0  0  0  0  0  0  0  0  0  0  0  0
    1.0274   21.0558  -31.0932 H   0  0  0  0  0  0  0  0  0  0  0  0
    1.3123   18.5823  -31.2199 H   0  0  0  0  0  0  0  0  0  0  0  0
   -0.4125   17.1848  -32.3512 H   0  0  0  0  0  0  0  0  0  0  0  0
   -3.5630   18.3290  -33.6650 H   0  0  0  0  0  0  0  0  0  0  0  0
  1  2  1  0
  2  3  2  0
  3  4  1  0
  4  5  2  0
  5  6  1  0
  6  7  2  0
  6  8  2  0
  6  9  1  0
  9 10  1  0
 10 11  2  0
 11 12  1  0
 12 13  2  0
 13 14  1  0
 14 15  2  0
 15 16  1  0
 13 17  1  0
 17 18  1  0
 18 19  1  0
 18 20  1  0
 20 21  2  0
 20 22  1  0
  5 23  1  0
 23 24  2  0
 24 25  1  0
 25 26  2  0
 25 27  2  0
 25 28  1  0
 28 29  1  0
 29 30  2  0
 30 31  1  0
 31 32  2  0
 32 33  1  0
 33 34  2  0
 34 35  1  0
 24  2  1  0
 34 29  1  0
 15 10  1  0
 22 12  1  0
  1 36  1  0
  1 37  1  0
  1 38  1  0
  3 39  1  0
  4 40  1  0
 11 41  1  0
 14 42  1  0
 17 43  1  0
 17 44  1  0
 19 45  1  0
 19 46  1  0
 19 47  1  0
 23 48  1  0
 30 49  1  0
 31 50  1  0
 32 51  1  0
 33 52  1  0
 35 53  1  0
M  CHG  4   9  -1  16  -1  22  -1  28  -1
M  END
>  <UniqueID>  (11) 
11

>  <SMILES>  (11) 
Cc1ccc(S(=O)(=O)[N-]c2cc3c(cc2[O-])CN(C)C(=O)[N-]3)cc1S(=O)(=O)[N-]c1ccccc1O

>  <Energy>  (11) 
73.41189144722624

>  <Genealogy>  (11) 
Cc1ccc(S(=O)(=O)[N-]c2cc3c(cc2[O-])CN(C)C(=O)[N-]3)cc1S(=O)(=O)[N-]c1ccccc1O (protonated)
Cc1ccc(S(=O)(=O)[N-]c2cc3c(cc2[O-])CN(C)C(=O)[N-]3)cc1S(=O)(=O)[N-]c1ccccc1O (3D coordinates assigned)
Cc1ccc(S(=O)(=O)[N-]c2cc3c(cc2[O-])CN(C)C(=O)[N-]3)cc1S(=O)(=O)[N-]c1ccccc1O (nonaromatic ring conformer: 73.41189144722624 kcal/mol)

>  <smiles>  (11) 
Cc1ccc(S(=O)(=O)Nc2cc3c(cc2O)CN(C)C(=O)N3)cc1S(=O)(=O)Nc1ccccc1O

>  <score_type>  (11) 
oracle

>  <origin>  (11) 
adgpu

>  <m_score__min__energy>  (11) 
-15.16

>  <m_primary>  (11) 
energy

$$$$
11:0
     RDKit          3D

 58 61  0  0  0  0  0  0  0  0999 V2000
   -3.9490   20.7010  -32.5600 O   0  0  0  0  0  0  0  0  0  0  0  0
   -2.9890   21.4280  -32.1710 C   0  0  0  0  0  0  0  0  0  0  0  0
   -3.2490   22.8020  -31.8540 N   0  0  0  0  0  0  0  0  0  0  0  0
   -4.5190   23.3490  -31.4630 C   0  0  0  0  0  0  0  0  0  0  0  0
   -5.6740   22.5780  -31.6650 C   0  0  0  0  0  0  0  0  0  0  0  0
   -6.9320   23.0760  -31.3100 C   0  0  0  0  0  0  0  0  0  0  0  0
   -8.3800   22.0880  -31.5320 S   0  0  0  0  0  0  0  0  0  0  0  0
   -8.8020   21.5340  -30.1990 O   0  0  0  0  0  0  0  0  0  0  0  0
   -9.4990   22.9450  -32.0520 O   0  0  0  0  0  0  0  0  0  0  0  0
   -8.0970   20.7640  -32.6410 N   0  0  0  0  0  0  0  0  0  0  0  0
   -9.2710   19.8930  -32.7500 C   0  0  0  0  0  0  0  0  0  0  0  0
   -9.0620   18.6750  -31.8590 C   0  0  0  0  0  0  0  0  0  0  0  0
   -7.5850   18.6670  -31.5200 C   0  0  0  0  0  0  0  0  0  0  0  0
   -6.9960   19.9080  -32.1810 C   0  0  0  0  0  0  0  0  0  0  0  0
   -7.0380   24.3610  -30.7690 C   0  0  0  0  0  0  0  0  0  0  0  0
   -5.8880   25.1120  -30.5080 C   0  0  0  0  0  0  0  0  0  0  0  0
   -4.6290   24.5950  -30.8060 C   0  0  0  0  0  0  0  0  0  0  0  0
   -3.5050   25.2980  -30.3840 O   0  0  0  0  0  0  0  0  0  0  0  0
   -1.6920   20.8580  -31.9520 N   0  0  0  0  0  0  0  0  0  0  0  0
   -1.0630   20.7440  -30.6650 C   0  0  0  0  0  0  0  0  0  0  0  0
   -0.7160   19.4820  -30.1470 C   0  0  0  0  0  0  0  0  0  0  0  0
   -0.1820   19.3720  -28.8630 C   0  0  0  0  0  0  0  0  0  0  0  0
   -0.0160   20.5120  -28.0700 C   0  0  0  0  0  0  0  0  0  0  0  0
   -0.3350   21.7810  -28.5820 C   0  0  0  0  0  0  0  0  0  0  0  0
   -0.2140   23.2020  -27.5500 S   0  0  0  0  0  0  0  0  0  0  0  0
    0.4320   24.3180  -28.3230 O   0  0  0  0  0  0  0  0  0  0  0  0
    0.6460   22.8970  -26.3570 O   0  0  0  0  0  0  0  0  0  0  0  0
   -1.8330   23.6470  -27.0660 N   0  0  0  0  0  0  0  0  0  0  0  0
   -2.7700   23.5940  -28.1970 C   0  0  0  0  0  0  0  0  0  0  0  0
   -4.1980   23.9290  -27.7080 C   0  0  0  0  0  0  0  0  0  0  0  0
   -4.2140   24.3140  -26.3450 O   0  0  0  0  0  0  0  0  0  0  0  0
   -3.3140   25.3890  -26.1440 C   0  0  0  0  0  0  0  0  0  0  0  0
   -1.8620   24.9860  -26.4710 C   0  0  0  0  0  0  0  0  0  0  0  0
   -0.8240   21.9020  -29.8960 C   0  0  0  0  0  0  0  0  0  0  0  0
   -1.0960   23.1730  -30.4110 O   0  0  0  0  0  0  0  0  0  0  0  0
   -5.5894   21.5739  -32.1061 H   0  0  0  0  0  0  0  0  0  0  0  0
  -10.1685   20.4395  -32.4248 H   0  0  0  0  0  0  0  0  0  0  0  0
   -9.4046   19.5741  -33.7943 H   0  0  0  0  0  0  0  0  0  0  0  0
   -9.6657   18.7608  -30.9435 H   0  0  0  0  0  0  0  0  0  0  0  0
   -9.3695   17.7458  -32.3610 H   0  0  0  0  0  0  0  0  0  0  0  0
   -7.4427   18.7103  -30.4301 H   0  0  0  0  0  0  0  0  0  0  0  0
   -7.0946   17.7492  -31.8765 H   0  0  0  0  0  0  0  0  0  0  0  0
   -6.3791   20.4570  -31.4543 H   0  0  0  0  0  0  0  0  0  0  0  0
   -6.3671   19.6152  -33.0347 H   0  0  0  0  0  0  0  0  0  0  0  0
   -8.0297   24.7825  -30.5480 H   0  0  0  0  0  0  0  0  0  0  0  0
   -5.9775   26.1151  -30.0656 H   0  0  0  0  0  0  0  0  0  0  0  0
   -0.8665   18.5791  -30.7570 H   0  0  0  0  0  0  0  0  0  0  0  0
    0.1094   18.3856  -28.4730 H   0  0  0  0  0  0  0  0  0  0  0  0
    0.3653   20.4149  -27.0428 H   0  0  0  0  0  0  0  0  0  0  0  0
   -2.4640   24.3251  -28.9597 H   0  0  0  0  0  0  0  0  0  0  0  0
   -2.7614   22.5827  -28.6296 H   0  0  0  0  0  0  0  0  0  0  0  0
   -4.5970   24.7548  -28.3153 H   0  0  0  0  0  0  0  0  0  0  0  0
   -4.8149   23.0244  -27.8134 H   0  0  0  0  0  0  0  0  0  0  0  0
   -3.6070   26.2257  -26.7952 H   0  0  0  0  0  0  0  0  0  0  0  0
   -3.3587   25.6800  -25.0841 H   0  0  0  0  0  0  0  0  0  0  0  0
   -1.4349   25.7091  -27.1814 H   0  0  0  0  0  0  0  0  0  0  0  0
   -1.2721   24.9804  -25.5426 H   0  0  0  0  0  0  0  0  0  0  0  0
   -2.0010   23.4020  -30.8100 H   0  0  0  0  0  0  0  0  0  0  0  0
  1  2  2  0
  2  3  1  0
  3  4  1  0
  4  5  2  0
  5  6  1  0
  6  7  1  0
  7  8  2  0
  7  9  2  0
  7 10  1  0
 10 11  1  0
 11 12  1  0
 12 13  1  0
 13 14  1  0
  6 15  2  0
 15 16  1  0
 16 17  2  0
 17 18  1  0
  2 19  1  0
 19 20  1  0
 20 21  2  0
 21 22  1  0
 22 23  2  0
 23 24  1  0
 24 25  1  0
 25 26  2  0
 25 27  2  0
 25 28  1  0
 28 29  1  0
 29 30  1  0
 30 31  1  0
 31 32  1  0
 32 33  1  0
 24 34  2  0
 34 35  1  0
 17  4  1  0
 34 20  1  0
 14 10  1  0
 33 28  1  0
  5 36  1  0
 11 37  1  0
 11 38  1  0
 12 39  1  0
 12 40  1  0
 13 41  1  0
 13 42  1  0
 14 43  1  0
 14 44  1  0
 15 45  1  0
 16 46  1  0
 21 47  1  0
 22 48  1  0
 23 49  1  0
 29 50  1  0
 29 51  1  0
 30 52  1  0
 30 53  1  0
 32 54  1  0
 32 55  1  0
 33 56  1  0
 33 57  1  0
 35 58  1  0
M  CHG  3   3  -1  18  -1  19  -1
M  END
>  <UniqueID>  (12) 
12

>  <SMILES>  (12) 
O=C([N-]c1cc(S(=O)(=O)N2CCCC2)ccc1[O-])[N-]c1cccc(S(=O)(=O)N2CCOCC2)c1O

>  <Energy>  (12) 
83.24204910184484

>  <Genealogy>  (12) 
O=C([N-]c1cc(S(=O)(=O)N2CCCC2)ccc1[O-])[N-]c1cccc(S(=O)(=O)N2CCOCC2)c1O (protonated)
O=C([N-]c1cc(S(=O)(=O)N2CCCC2)ccc1[O-])[N-]c1cccc(S(=O)(=O)N2CCOCC2)c1O (3D coordinates assigned)
O=C([N-]c1cc(S(=O)(=O)N2CCCC2)ccc1[O-])[N-]c1cccc(S(=O)(=O)N2CCOCC2)c1O (nonaromatic ring conformer: 83.24204910184484 kcal/mol)

>  <smiles>  (12) 
O=C(Nc1cc(S(=O)(=O)N2CCCC2)ccc1O)Nc1cccc(S(=O)(=O)N2CCOCC2)c1O

>  <score_type>  (12) 
oracle

>  <origin>  (12) 
adgpu

>  <m_score__min__energy>  (12) 
-15.09

>  <m_primary>  (12) 
energy

$$$$
12:0
     RDKit          3D

 56 59  0  0  0  0  0  0  0  0999 V2000
   -3.0090   16.5070  -35.5110 C   0  0  0  0  0  0  0  0  0  0  0  0
   -3.5720   17.2010  -34.2590 C   0  0  2  0  0  0  0  0  0  0  0  0
   -2.7840   18.4460  -33.8540 C   0  0  0  0  0  0  0  0  0  0  0  0
   -3.1540   19.1990  -32.7190 C   0  0  0  0  0  0  0  0  0  0  0  0
   -2.4030   20.3040  -32.3170 C   0  0  0  0  0  0  0  0  0  0  0  0
   -1.2570   20.6640  -33.0240 C   0  0  0  0  0  0  0  0  0  0  0  0
   -0.8490   19.9070  -34.1200 C   0  0  0  0  0  0  0  0  0  0  0  0
   -1.5980   18.8010  -34.5270 C   0  0  0  0  0  0  0  0  0  0  0  0
   -3.6090   16.2210  -33.1680 N   0  0  0  0  0  0  0  0  0  0  0  0
   -4.9700   16.0530  -32.7920 C   0  0  0  0  0  0  0  0  0  0  0  0
   -5.3310   15.3010  -31.8480 O   0  0  0  0  0  0  0  0  0  0  0  0
   -5.8720   16.8260  -33.5640 N   0  0  0  0  0  0  0  0  0  0  0  0
   -7.2340   17.1930  -33.1870 C   0  0  0  0  0  0  0  0  0  0  0  0
   -7.2280   18.4760  -32.4130 C   0  0  0  0  0  0  0  0  0  0  0  0
   -7.6960   18.4890  -31.2420 O   0  0  0  0  0  0  0  0  0  0  0  0
   -6.7830   19.6860  -33.0360 N   0  0  0  0  0  0  0  0  0  0  0  0
   -6.4840   20.9070  -32.3330 C   0  0  0  0  0  0  0  0  0  0  0  0
   -5.2830   21.5760  -32.6060 C   0  0  0  0  0  0  0  0  0  0  0  0
   -4.9410   22.7410  -31.9140 C   0  0  0  0  0  0  0  0  0  0  0  0
   -5.7980   23.2550  -30.9330 C   0  0  0  0  0  0  0  0  0  0  0  0
   -5.3530   24.7090  -30.0410 S   0  0  0  0  0  0  0  0  0  0  0  0
   -4.6040   25.6350  -30.9590 O   0  0  0  0  0  0  0  0  0  0  0  0
   -6.5980   25.4100  -29.5720 O   0  0  0  0  0  0  0  0  0  0  0  0
   -4.3420   24.3020  -28.6730 N   0  0  0  0  0  0  0  0  0  0  0  0
   -2.9300   24.5490  -29.0120 C   0  0  0  0  0  0  0  0  0  0  0  0
   -2.0010   23.9640  -27.9310 C   0  0  0  0  0  0  0  0  0  0  0  0
   -2.2720   22.6200  -27.5460 O   0  0  0  0  0  0  0  0  0  0  0  0
   -3.3400   22.0330  -28.2640 C   0  0  0  0  0  0  0  0  0  0  0  0
   -4.5980   22.9120  -28.2190 C   0  0  0  0  0  0  0  0  0  0  0  0
   -6.9930   22.5820  -30.6410 C   0  0  0  0  0  0  0  0  0  0  0  0
   -7.3300   21.4100  -31.3250 C   0  0  0  0  0  0  0  0  0  0  0  0
   -5.0240   17.5480  -34.4480 C   0  0  0  0  0  0  0  0  0  0  0  0
   -5.4550   18.3880  -35.2830 O   0  0  0  0  0  0  0  0  0  0  0  0
   -2.3430   15.6860  -35.2069 H   0  0  0  0  0  0  0  0  0  0  0  0
   -3.8382   16.1035  -36.1107 H   0  0  0  0  0  0  0  0  0  0  0  0
   -2.4432   17.2352  -36.1107 H   0  0  0  0  0  0  0  0  0  0  0  0
   -4.0462   18.9109  -32.1438 H   0  0  0  0  0  0  0  0  0  0  0  0
   -2.7156   20.8917  -31.4413 H   0  0  0  0  0  0  0  0  0  0  0  0
   -0.6750   21.5454  -32.7167 H   0  0  0  0  0  0  0  0  0  0  0  0
    0.0656   20.1812  -34.6662 H   0  0  0  0  0  0  0  0  0  0  0  0
   -1.2581   18.1997  -35.3831 H   0  0  0  0  0  0  0  0  0  0  0  0
   -7.8411   17.3194  -34.0956 H   0  0  0  0  0  0  0  0  0  0  0  0
   -7.6599   16.3966  -32.5590 H   0  0  0  0  0  0  0  0  0  0  0  0
   -6.6890   19.6840  -34.0710 H   0  0  0  0  0  0  0  0  0  0  0  0
   -4.6020   21.1796  -33.3735 H   0  0  0  0  0  0  0  0  0  0  0  0
   -3.9957   23.2558  -32.1406 H   0  0  0  0  0  0  0  0  0  0  0  0
   -2.7024   24.0758  -29.9786 H   0  0  0  0  0  0  0  0  0  0  0  0
   -2.7648   25.6349  -29.0709 H   0  0  0  0  0  0  0  0  0  0  0  0
   -0.9702   24.0050  -28.3128 H   0  0  0  0  0  0  0  0  0  0  0  0
   -2.1674   24.5735  -27.0305 H   0  0  0  0  0  0  0  0  0  0  0  0
   -3.0350   21.8988  -29.3123 H   0  0  0  0  0  0  0  0  0  0  0  0
   -3.5782   21.0651  -27.7987 H   0  0  0  0  0  0  0  0  0  0  0  0
   -5.3635   22.4645  -28.8700 H   0  0  0  0  0  0  0  0  0  0  0  0
   -4.9322   22.9606  -27.1721 H   0  0  0  0  0  0  0  0  0  0  0  0
   -7.6693   22.9784  -29.8693 H   0  0  0  0  0  0  0  0  0  0  0  0
   -8.2599   20.8783  -31.0749 H   0  0  0  0  0  0  0  0  0  0  0  0
  2  1  1  6
  2  3  1  0
  3  4  2  0
  4  5  1  0
  5  6  2  0
  6  7  1  0
  7  8  2  0
  2  9  1  0
  9 10  1  0
 10 11  2  0
 10 12  1  0
 12 13  1  0
 13 14  1  0
 14 15  2  0
 14 16  1  0
 16 17  1  0
 17 18  2  0
 18 19  1  0
 19 20  2  0
 20 21  1  0
 21 22  2  0
 21 23  2  0
 21 24  1  0
 24 25  1  0
 25 26  1  0
 26 27  1  0
 27 28  1  0
 28 29  1  0
 20 30  1  0
 30 31  2  0
 12 32  1  0
 32 33  2  0
 32  2  1  0
  8  3  1  0
 31 17  1  0
 29 24  1  0
  1 34  1  0
  1 35  1  0
  1 36  1  0
  4 37  1  0
  5 38  1  0
  6 39  1  0
  7 40  1  0
  8 41  1  0
 13 42  1  0
 13 43  1  0
 16 44  1  0
 18 45  1  0
 19 46  1  0
 25 47  1  0
 25 48  1  0
 26 49  1  0
 26 50  1  0
 28 51  1  0
 28 52  1  0
 29 53  1  0
 29 54  1  0
 30 55  1  0
 31 56  1  0
M  CHG  1   9  -1
M  END
>  <UniqueID>  (13) 
13

>  <SMILES>  (13) 
C[C@]1(c2ccccc2)[N-]C(=O)N(CC(=O)Nc2ccc(S(=O)(=O)N3CCOCC3)cc2)C1=O

>  <Energy>  (13) 
93.33675117610012

>  <Genealogy>  (13) 
CC1(c2ccccc2)[N-]C(=O)N(CC(=O)Nc2ccc(S(=O)(=O)N3CCOCC3)cc2)C1=O (protonated)
C[C@]1(c2ccccc2)[N-]C(=O)N(CC(=O)Nc2ccc(S(=O)(=O)N3CCOCC3)cc2)C1=O (chirality)
C[C@]1(c2ccccc2)[N-]C(=O)N(CC(=O)Nc2ccc(S(=O)(=O)N3CCOCC3)cc2)C1=O (3D coordinates assigned)
C[C@]1(c2ccccc2)[N-]C(=O)N(CC(=O)Nc2ccc(S(=O)(=O)N3CCOCC3)cc2)C1=O (nonaromatic ring conformer: 93.33675117610012 kcal/mol)

>  <smiles>  (13) 
CC1(c2ccccc2)NC(=O)N(CC(=O)Nc2ccc(S(=O)(=O)N3CCOCC3)cc2)C1=O

>  <score_type>  (13) 
oracle

>  <origin>  (13) 
adgpu

>  <m_score__min__energy>  (13) 
-9.6099999999999994

>  <m_primary>  (13) 
energy

$$$$
13:0
     RDKit          3D

 46 49  0  0  0  0  0  0  0  0999 V2000
    3.1446   25.9300  -27.2859 H   0  0  0  0  0  0  0  0  0  0  0  0
    2.0790   25.6870  -27.4100 C   0  0  0  0  0  0  0  0  0  0  0  0
    1.7130   24.5290  -28.0180 N   0  0  0  0  0  0  0  0  0  0  0  0
    0.4070   24.1860  -28.1830 C   0  0  0  0  0  0  0  0  0  0  0  0
    0.1481   23.2405  -28.6819 H   0  0  0  0  0  0  0  0  0  0  0  0
   -0.6150   25.0360  -27.7180 C   0  0  0  0  0  0  0  0  0  0  0  0
   -2.0520   24.6980  -27.8910 C   0  0  0  0  0  0  0  0  0  0  0  0
   -2.4810   24.2010  -29.0830 N   0  0  0  0  0  0  0  0  0  0  0  0
   -3.7830   23.8830  -29.3070 C   0  0  0  0  0  0  0  0  0  0  0  0
   -4.1150   23.4000  -30.4710 N   0  0  0  0  0  0  0  0  0  0  0  0
   -5.4380   23.0950  -30.9330 C   0  0  0  0  0  0  0  0  0  0  0  0
   -6.3730   24.1140  -31.1790 C   0  0  0  0  0  0  0  0  0  0  0  0
   -6.1056   25.1630  -30.9839 H   0  0  0  0  0  0  0  0  0  0  0  0
   -7.6420   23.7980  -31.6710 C   0  0  0  0  0  0  0  0  0  0  0  0
   -8.3765   24.5971  -31.8498 H   0  0  0  0  0  0  0  0  0  0  0  0
   -7.9790   22.4690  -31.9360 C   0  0  0  0  0  0  0  0  0  0  0  0
   -8.9809   22.2233  -32.3179 H   0  0  0  0  0  0  0  0  0  0  0  0
   -7.0450   21.4470  -31.7170 C   0  0  0  0  0  0  0  0  0  0  0  0
   -7.4770   19.7650  -32.0300 S   0  0  0  0  0  0  0  0  0  0  0  0
   -8.2690   19.2330  -30.8680 O   0  0  0  0  0  0  0  0  0  0  0  0
   -8.3500   19.6980  -33.2520 O   0  0  0  0  0  0  0  0  0  0  0  0
   -6.0620   18.7600  -32.2700 N   0  0  0  0  0  0  0  0  0  0  0  0
   -5.3060   19.1870  -33.4520 C   0  0  0  0  0  0  0  0  0  0  0  0
   -5.5469   20.2338  -33.6891 H   0  0  0  0  0  0  0  0  0  0  0  0
   -4.2259   19.1078  -33.2592 H   0  0  0  0  0  0  0  0  0  0  0  0
   -5.6960   18.2930  -34.6190 C   0  0  0  0  0  0  0  0  0  0  0  0
   -6.3694   18.8291  -35.3039 H   0  0  0  0  0  0  0  0  0  0  0  0
   -4.8171   17.9847  -35.2043 H   0  0  0  0  0  0  0  0  0  0  0  0
   -6.4050   17.1010  -34.0070 C   0  0  0  0  0  0  0  0  0  0  0  0
   -7.4278   17.0188  -34.4033 H   0  0  0  0  0  0  0  0  0  0  0  0
   -5.8893   16.1585  -34.2429 H   0  0  0  0  0  0  0  0  0  0  0  0
   -6.4370   17.3620  -32.5070 C   0  0  0  0  0  0  0  0  0  0  0  0
   -7.4503   17.1789  -32.1200 H   0  0  0  0  0  0  0  0  0  0  0  0
   -5.7338   16.6906  -31.9924 H   0  0  0  0  0  0  0  0  0  0  0  0
   -5.7680   21.7690  -31.2370 C   0  0  0  0  0  0  0  0  0  0  0  0
   -5.0201   20.9744  -31.0983 H   0  0  0  0  0  0  0  0  0  0  0  0
   -4.6940   24.0400  -28.2990 N   0  0  0  0  0  0  0  0  0  0  0  0
   -5.6920   23.7530  -28.4100 H   0  0  0  0  0  0  0  0  0  0  0  0
   -4.3160   24.5450  -27.0950 C   0  0  0  0  0  0  0  0  0  0  0  0
   -5.0630   24.6802  -26.2989 H   0  0  0  0  0  0  0  0  0  0  0  0
   -2.9870   24.8920  -26.8650 C   0  0  0  0  0  0  0  0  0  0  0  0
   -2.6769   25.3105  -25.8962 H   0  0  0  0  0  0  0  0  0  0  0  0
   -0.2440   26.2440  -27.1020 C   0  0  0  0  0  0  0  0  0  0  0  0
   -1.0197   26.9368  -26.7438 H   0  0  0  0  0  0  0  0  0  0  0  0
    1.1040   26.5680  -26.9430 C   0  0  0  0  0  0  0  0  0  0  0  0
    1.3948   27.5094  -26.4539 H   0  0  0  0  0  0  0  0  0  0  0  0
  1  2  1  0
  2  3  2  0
  3  4  1  0
  4  5  1  0
  4  6  2  0
  6  7  1  0
  7  8  2  0
  8  9  1  0
  9 10  2  0
 10 11  1  0
 11 12  2  0
 12 13  1  0
 12 14  1  0
 14 15  1  0
 14 16  2  0
 16 17  1  0
 16 18  1  0
 18 19  1  0
 19 20  2  0
 19 21  2  0
 19 22  1  0
 22 23  1  0
 23 24  1  0
 23 25  1  0
 23 26  1  0
 26 27  1  0
 26 28  1  0
 26 29  1  0
 29 30  1  0
 29 31  1  0
 29 32  1  0
 32 33  1  0
 32 34  1  0
 18 35  2  0
 35 36  1  0
  9 37  1  0
 37 38  1  0
 37 39  1  0
 39 40  1  0
 39 41  2  0
 41 42  1  0
  6 43  1  0
 43 44  1  0
 43 45  2  0
 45 46  1  0
 45  2  1  0
 41  7  1  0
 35 11  1  0
 32 22  1  0
M  END
>  <UniqueID>  (14) 
14

>  <SMILES>  (14) 
O=S(=O)(c1cccc(/N=c2/nc(-c3cccnc3)cc[nH]2)c1)N1CCCC1

>  <Energy>  (14) 
63.250099630696525

>  <Genealogy>  (14) 
O=S(=O)(c1cccc(/N=c2/nc(-c3cccnc3)cc[nH]2)c1)N1CCCC1 (cis-trans isomerization)
O=S(=O)(c1cccc(/N=c2/nc(-c3cccnc3)cc[nH]2)c1)N1CCCC1 (3D coordinates assigned)
O=S(=O)(c1cccc(/N=c2/nc(-c3cccnc3)cc[nH]2)c1)N1CCCC1 (nonaromatic ring conformer: 63.250099630696525 kcal/mol)

>  <smiles>  (14) 
O=S(=O)(c1cccc(N=c2nc(-c3cccnc3)cc[nH]2)c1)N1CCCC1

>  <score_type>  (14) 
oracle

>  <origin>  (14) 
adgpu

>  <m_score__min__energy>  (14) 
-9.1199999999999992

>  <m_primary>  (14) 
energy

$$$$
14:0
     RDKit          3D

 51 53  0  0  0  0  0  0  0  0999 V2000
   -8.9750   19.3080  -31.6410 C   0  0  0  0  0  0  0  0  0  0  0  0
   -8.3380   20.5810  -31.2880 N   0  0  0  0  0  0  0  0  0  0  0  0
   -9.1630   21.7050  -31.7480 C   0  0  0  0  0  0  0  0  0  0  0  0
   -6.7540   20.6690  -32.0160 S   0  0  0  0  0  0  0  0  0  0  0  0
   -5.9430   19.4760  -31.5930 O   0  0  0  0  0  0  0  0  0  0  0  0
   -6.8870   20.6320  -33.5120 O   0  0  0  0  0  0  0  0  0  0  0  0
   -5.9040   22.1430  -31.5450 C   0  0  0  0  0  0  0  0  0  0  0  0
   -6.5540   23.3840  -31.6070 C   0  0  0  0  0  0  0  0  0  0  0  0
   -5.8760   24.5520  -31.2490 C   0  0  0  0  0  0  0  0  0  0  0  0
   -4.5440   24.4900  -30.8280 C   0  0  0  0  0  0  0  0  0  0  0  0
   -3.8770   25.6580  -30.4740 O   0  0  0  0  0  0  0  0  0  0  0  0
   -3.8870   23.2540  -30.7670 C   0  0  0  0  0  0  0  0  0  0  0  0
   -2.5260   23.1810  -30.3440 N   0  0  0  0  0  0  0  0  0  0  0  0
   -1.7720   21.6520  -30.0560 S   0  0  0  0  0  0  0  0  0  0  0  0
   -0.4790   21.8690  -29.3230 O   0  0  0  0  0  0  0  0  0  0  0  0
   -2.6750   20.8050  -29.2060 O   0  0  0  0  0  0  0  0  0  0  0  0
   -1.4900   20.8290  -31.5870 C   0  0  0  0  0  0  0  0  0  0  0  0
   -0.4180   21.1930  -32.4110 C   0  0  0  0  0  0  0  0  0  0  0  0
   -0.2110   20.5350  -33.6250 C   0  0  0  0  0  0  0  0  0  0  0  0
   -1.0760   19.5140  -34.0310 C   0  0  0  0  0  0  0  0  0  0  0  0
   -0.8690   18.8960  -35.2580 O   0  0  0  0  0  0  0  0  0  0  0  0
   -2.1580   19.1410  -33.2120 C   0  0  0  0  0  0  0  0  0  0  0  0
   -3.0650   18.0980  -33.6120 N   0  0  0  0  0  0  0  0  0  0  0  0
   -3.0650   16.8100  -32.9090 C   0  0  0  0  0  0  0  0  0  0  0  0
   -4.4080   16.0920  -33.1010 C   0  0  0  0  0  0  0  0  0  0  0  0
   -5.5180   17.0510  -33.0210 N   0  0  0  0  0  0  0  0  0  0  0  0
   -5.4880   18.0450  -34.1130 C   0  0  0  0  0  0  0  0  0  0  0  0
   -4.0730   18.3440  -34.6490 C   0  0  0  0  0  0  0  0  0  0  0  0
   -2.3540   19.8020  -31.9880 C   0  0  0  0  0  0  0  0  0  0  0  0
   -4.5700   22.0820  -31.1180 C   0  0  0  0  0  0  0  0  0  0  0  0
   -9.2460   18.7665  -30.7227 H   0  0  0  0  0  0  0  0  0  0  0  0
   -9.8816   19.5033  -32.2326 H   0  0  0  0  0  0  0  0  0  0  0  0
   -8.2752   18.6994  -32.2326 H   0  0  0  0  0  0  0  0  0  0  0  0
   -9.5613   22.2476  -30.8780 H   0  0  0  0  0  0  0  0  0  0  0  0
   -8.5489   22.3862  -32.3553 H   0  0  0  0  0  0  0  0  0  0  0  0
   -9.9969   21.3233  -32.3553 H   0  0  0  0  0  0  0  0  0  0  0  0
   -7.6014   23.4381  -31.9387 H   0  0  0  0  0  0  0  0  0  0  0  0
   -6.3912   25.5226  -31.2984 H   0  0  0  0  0  0  0  0  0  0  0  0
    0.2629   21.9995  -32.1011 H   0  0  0  0  0  0  0  0  0  0  0  0
    0.6366   20.8211  -34.2651 H   0  0  0  0  0  0  0  0  0  0  0  0
   -2.2572   16.1795  -33.3088 H   0  0  0  0  0  0  0  0  0  0  0  0
   -2.9090   16.9911  -31.8353 H   0  0  0  0  0  0  0  0  0  0  0  0
   -4.4206   15.6046  -34.0870 H   0  0  0  0  0  0  0  0  0  0  0  0
   -4.5277   15.3409  -32.3063 H   0  0  0  0  0  0  0  0  0  0  0  0
   -5.4540   17.5550  -32.1030 H   0  0  0  0  0  0  0  0  0  0  0  0
   -6.0997   17.6645  -34.9443 H   0  0  0  0  0  0  0  0  0  0  0  0
   -5.8771   18.9864  -33.6978 H   0  0  0  0  0  0  0  0  0  0  0  0
   -3.8689   17.6942  -35.5128 H   0  0  0  0  0  0  0  0  0  0  0  0
   -4.0233   19.4014  -34.9479 H   0  0  0  0  0  0  0  0  0  0  0  0
   -3.1930   19.5106  -31.3390 H   0  0  0  0  0  0  0  0  0  0  0  0
   -4.0576   21.1104  -31.0583 H   0  0  0  0  0  0  0  0  0  0  0  0
  1  2  1  0
  2  3  1  0
  2  4  1  0
  4  5  2  0
  4  6  2  0
  4  7  1  0
  7  8  2  0
  8  9  1  0
  9 10  2  0
 10 11  1  0
 10 12  1  0
 12 13  1  0
 13 14  1  0
 14 15  2  0
 14 16  2  0
 14 17  1  0
 17 18  2  0
 18 19  1  0
 19 20  2  0
 20 21  1  0
 20 22  1  0
 22 23  1  0
 23 24  1  0
 24 25  1  0
 25 26  1  0
 26 27  1  0
 27 28  1  0
 22 29  2  0
 12 30  2  0
 30  7  1  0
 29 17  1  0
 28 23  1  0
  1 31  1  0
  1 32  1  0
  1 33  1  0
  3 34  1  0
  3 35  1  0
  3 36  1  0
  8 37  1  0
  9 38  1  0
 18 39  1  0
 19 40  1  0
 24 41  1  0
 24 42  1  0
 25 43  1  0
 25 44  1  0
 26 45  1  0
 27 46  1  0
 27 47  1  0
 28 48  1  0
 28 49  1  0
 29 50  1  0
 30 51  1  0
M  CHG  3  11  -1  13  -1  21  -1
M  END
>  <UniqueID>  (15) 
15

>  <SMILES>  (15) 
CN(C)S(=O)(=O)c1ccc([O-])c([N-]S(=O)(=O)c2ccc([O-])c(N3CCNCC3)c2)c1

>  <Energy>  (15) 
64.8884859708611

>  <Genealogy>  (15) 
CN(C)S(=O)(=O)c1ccc([O-])c([N-]S(=O)(=O)c2ccc([O-])c(N3CCNCC3)c2)c1 (protonated)
CN(C)S(=O)(=O)c1ccc([O-])c([N-]S(=O)(=O)c2ccc([O-])c(N3CCNCC3)c2)c1 (3D coordinates assigned)
CN(C)S(=O)(=O)c1ccc([O-])c([N-]S(=O)(=O)c2ccc([O-])c(N3CCNCC3)c2)c1 (nonaromatic ring conformer: 64.8884859708611 kcal/mol)

>  <smiles>  (15) 
CN(C)S(=O)(=O)c1ccc(O)c(NS(=O)(=O)c2ccc(O)c(N3CCNCC3)c2)c1

>  <score_type>  (15) 
oracle

>  <origin>  (15) 
adgpu

>  <m_score__min__energy>  (15) 
-13.859999999999999

>  <m_primary>  (15) 
energy

$$$$
15:0
     RDKit          3D

 52 55  0  0  0  0  0  0  0  0999 V2000
   -4.4710   25.6530  -30.9160 O   0  0  0  0  0  0  0  0  0  0  0  0
   -3.9950   24.8750  -30.0430 C   0  0  0  0  0  0  0  0  0  0  0  0
   -4.8920   23.9080  -29.3240 C   0  0  0  0  0  0  0  0  0  0  0  0
   -6.3140   23.8560  -29.8970 C   0  0  0  0  0  0  0  0  0  0  0  0
   -6.5080   22.6700  -30.7260 N   0  0  0  0  0  0  0  0  0  0  0  0
   -7.6960   21.8780  -30.7980 C   0  0  0  0  0  0  0  0  0  0  0  0
   -8.7620   22.1800  -30.2000 O   0  0  0  0  0  0  0  0  0  0  0  0
   -7.5340   20.6660  -31.6080 C   0  0  0  0  0  0  0  0  0  0  0  0
   -8.5050   19.7050  -31.8960 C   0  0  0  0  0  0  0  0  0  0  0  0
   -8.1500   18.6010  -32.6890 C   0  0  0  0  0  0  0  0  0  0  0  0
   -6.8380   18.4720  -33.1820 C   0  0  0  0  0  0  0  0  0  0  0  0
   -5.8720   19.4470  -32.8860 C   0  0  0  0  0  0  0  0  0  0  0  0
   -6.2440   20.5360  -32.0990 C   0  0  0  0  0  0  0  0  0  0  0  0
   -5.2430   21.8580  -31.5800 S   0  0  0  0  0  0  0  0  0  0  0  0
   -4.7250   22.6730  -32.7280 O   0  0  0  0  0  0  0  0  0  0  0  0
   -4.1480   21.4150  -30.6550 O   0  0  0  0  0  0  0  0  0  0  0  0
   -2.6000   24.9140  -29.7090 N   0  0  0  0  0  0  0  0  0  0  0  0
   -1.8300   23.8610  -29.1040 C   0  0  0  0  0  0  0  0  0  0  0  0
   -1.7110   22.6000  -29.7200 C   0  0  0  0  0  0  0  0  0  0  0  0
   -0.9820   21.5770  -29.1110 C   0  0  0  0  0  0  0  0  0  0  0  0
   -0.3460   21.8050  -27.8920 C   0  0  0  0  0  0  0  0  0  0  0  0
   -0.4200   23.0610  -27.2890 C   0  0  0  0  0  0  0  0  0  0  0  0
   -1.1510   24.1000  -27.8870 C   0  0  0  0  0  0  0  0  0  0  0  0
   -1.2120   25.6720  -27.0730 S   0  0  0  0  0  0  0  0  0  0  0  0
   -2.5040   25.7990  -26.3140 O   0  0  0  0  0  0  0  0  0  0  0  0
   -1.1970   26.7530  -28.1160 O   0  0  0  0  0  0  0  0  0  0  0  0
    0.1390   25.9270  -25.9860 N   0  0  0  0  0  0  0  0  0  0  0  0
    0.6450   27.3130  -26.0000 C   0  0  0  0  0  0  0  0  0  0  0  0
    0.0810   28.1740  -24.8590 C   0  0  0  0  0  0  0  0  0  0  0  0
   -1.1160   27.6320  -24.3570 O   0  0  0  0  0  0  0  0  0  0  0  0
   -0.8390   26.4090  -23.7120 C   0  0  0  0  0  0  0  0  0  0  0  0
   -0.1190   25.4000  -24.6340 C   0  0  0  0  0  0  0  0  0  0  0  0
   -4.4502   22.9032  -29.3954 H   0  0  0  0  0  0  0  0  0  0  0  0
   -4.9735   24.2528  -28.2826 H   0  0  0  0  0  0  0  0  0  0  0  0
   -7.0347   23.8345  -29.0662 H   0  0  0  0  0  0  0  0  0  0  0  0
   -6.4691   24.7469  -30.5232 H   0  0  0  0  0  0  0  0  0  0  0  0
   -9.5293   19.8104  -31.5091 H   0  0  0  0  0  0  0  0  0  0  0  0
   -8.9014   17.8333  -32.9259 H   0  0  0  0  0  0  0  0  0  0  0  0
   -6.5684   17.6040  -33.8016 H   0  0  0  0  0  0  0  0  0  0  0  0
   -4.8442   19.3537  -33.2667 H   0  0  0  0  0  0  0  0  0  0  0  0
   -2.1971   22.4195  -30.6901 H   0  0  0  0  0  0  0  0  0  0  0  0
   -0.9095   20.5910  -29.5932 H   0  0  0  0  0  0  0  0  0  0  0  0
    0.2149   20.9938  -27.4048 H   0  0  0  0  0  0  0  0  0  0  0  0
    0.0994   23.2390  -26.3358 H   0  0  0  0  0  0  0  0  0  0  0  0
    1.7409   27.2862  -25.9091 H   0  0  0  0  0  0  0  0  0  0  0  0
    0.3204   27.7703  -26.9463 H   0  0  0  0  0  0  0  0  0  0  0  0
    0.8212   28.2229  -24.0468 H   0  0  0  0  0  0  0  0  0  0  0  0
   -0.1298   29.1793  -25.2525 H   0  0  0  0  0  0  0  0  0  0  0  0
   -0.1989   26.6079  -22.8398 H   0  0  0  0  0  0  0  0  0  0  0  0
   -1.8003   25.9631  -23.4170 H   0  0  0  0  0  0  0  0  0  0  0  0
    0.8437   25.1321  -24.1741 H   0  0  0  0  0  0  0  0  0  0  0  0
   -0.7820   24.5293  -24.7448 H   0  0  0  0  0  0  0  0  0  0  0  0
  1  2  2  0
  2  3  1  0
  3  4  1  0
  4  5  1  0
  5  6  1  0
  6  7  2  0
  6  8  1  0
  8  9  2  0
  9 10  1  0
 10 11  2  0
 11 12  1  0
 12 13  2  0
 13 14  1  0
 14 15  2  0
 14 16  2  0
  2 17  1  0
 17 18  1  0
 18 19  2  0
 19 20  1  0
 20 21  2  0
 21 22  1  0
 22 23  2  0
 23 24  1  0
 24 25  2  0
 24 26  2  0
 24 27  1  0
 27 28  1  0
 28 29  1  0
 29 30  1  0
 30 31  1  0
 31 32  1  0
 14  5  1  0
 23 18  1  0
 32 27  1  0
 13  8  1  0
  3 33  1  0
  3 34  1  0
  4 35  1  0
  4 36  1  0
  9 37  1  0
 10 38  1  0
 11 39  1  0
 12 40  1  0
 19 41  1  0
 20 42  1  0
 21 43  1  0
 22 44  1  0
 28 45  1  0
 28 46  1  0
 29 47  1  0
 29 48  1  0
 31 49  1  0
 31 50  1  0
 32 51  1  0
 32 52  1  0
M  CHG  1  17  -1
M  END
>  <UniqueID>  (16) 
16

>  <SMILES>  (16) 
O=C(CCN1C(=O)c2ccccc2S1(=O)=O)[N-]c1ccccc1S(=O)(=O)N1CCOCC1

>  <Energy>  (16) 
86.53356504708053

>  <Genealogy>  (16) 
O=C(CCN1C(=O)c2ccccc2S1(=O)=O)[N-]c1ccccc1S(=O)(=O)N1CCOCC1 (protonated)
O=C(CCN1C(=O)c2ccccc2S1(=O)=O)[N-]c1ccccc1S(=O)(=O)N1CCOCC1 (3D coordinates assigned)
O=C(CCN1C(=O)c2ccccc2S1(=O)=O)[N-]c1ccccc1S(=O)(=O)N1CCOCC1 (nonaromatic ring conformer: 86.53356504708053 kcal/mol)

>  <smiles>  (16) 
O=C(CCN1C(=O)c2ccccc2S1(=O)=O)Nc1ccccc1S(=O)(=O)N1CCOCC1

>  <score_type>  (16) 
oracle

>  <origin>  (16) 
adgpu

>  <m_score__min__energy>  (16) 
-12.83

>  <m_primary>  (16) 
energy

$$$$
16:0
     RDKit          3D

 60 63  0  0  0  0  0  0  0  0999 V2000
   -1.4550   21.1890  -33.7560 C   0  0  0  0  0  0  0  0  0  0  0  0
   -0.8120   21.1400  -32.4870 O   0  0  0  0  0  0  0  0  0  0  0  0
   -0.2750   19.9780  -31.9080 C   0  0  0  0  0  0  0  0  0  0  0  0
    0.5590   19.1070  -32.6380 C   0  0  0  0  0  0  0  0  0  0  0  0
    1.0920   17.9670  -32.0340 C   0  0  0  0  0  0  0  0  0  0  0  0
    0.7990   17.6780  -30.7000 C   0  0  0  0  0  0  0  0  0  0  0  0
   -0.0290   18.5290  -29.9670 C   0  0  0  0  0  0  0  0  0  0  0  0
   -0.5640   19.6870  -30.5570 C   0  0  0  0  0  0  0  0  0  0  0  0
   -1.4720   20.5590  -29.7800 C   0  0  0  0  0  0  0  0  0  0  0  0
   -2.8100   20.5690  -29.9510 N   0  0  0  0  0  0  0  0  0  0  0  0
   -3.3090   21.4430  -29.0910 N   0  0  0  0  0  0  0  0  0  0  0  0
   -2.2700   21.9530  -28.4050 C   0  0  0  0  0  0  0  0  0  0  0  0
   -2.4530   23.2090  -27.1360 S   0  0  0  0  0  0  0  0  0  0  0  0
   -3.6810   24.2060  -28.0530 C   0  0  0  0  0  0  0  0  0  0  0  0
   -3.1200   24.7280  -29.3470 C   0  0  0  0  0  0  0  0  0  0  0  0
   -1.9920   25.2820  -29.3390 O   0  0  0  0  0  0  0  0  0  0  0  0
   -3.8640   24.7060  -30.5720 N   0  0  0  0  0  0  0  0  0  0  0  0
   -4.5930   23.5950  -31.1090 C   0  0  0  0  0  0  0  0  0  0  0  0
   -3.9840   22.6690  -31.9710 C   0  0  0  0  0  0  0  0  0  0  0  0
   -4.7170   21.5890  -32.4740 C   0  0  0  0  0  0  0  0  0  0  0  0
   -6.0680   21.4370  -32.1370 C   0  0  0  0  0  0  0  0  0  0  0  0
   -6.9910   20.0590  -32.7260 S   0  0  0  0  0  0  0  0  0  0  0  0
   -8.3350   19.9970  -32.0560 O   0  0  0  0  0  0  0  0  0  0  0  0
   -7.1840   20.2190  -34.2070 O   0  0  0  0  0  0  0  0  0  0  0  0
   -6.1210   18.5930  -32.3800 N   0  0  0  0  0  0  0  0  0  0  0  0
   -6.5140   17.7830  -31.2280 C   0  0  0  0  0  0  0  0  0  0  0  0
   -5.0500   18.1600  -33.2360 C   0  0  0  0  0  0  0  0  0  0  0  0
   -3.7150   18.4410  -32.8990 C   0  0  0  0  0  0  0  0  0  0  0  0
   -2.6730   18.0260  -33.7350 C   0  0  0  0  0  0  0  0  0  0  0  0
   -2.9560   17.3330  -34.9150 C   0  0  0  0  0  0  0  0  0  0  0  0
   -4.2820   17.0540  -35.2600 C   0  0  0  0  0  0  0  0  0  0  0  0
   -5.3250   17.4670  -34.4260 C   0  0  0  0  0  0  0  0  0  0  0  0
   -6.6860   22.3840  -31.3080 C   0  0  0  0  0  0  0  0  0  0  0  0
   -5.9530   23.4650  -30.8090 C   0  0  0  0  0  0  0  0  0  0  0  0
   -1.0980   21.4350  -28.8210 N   0  0  0  0  0  0  0  0  0  0  0  0
    0.2490   21.7970  -28.3830 C   0  0  0  0  0  0  0  0  0  0  0  0
   -2.5425   21.2719  -33.6130 H   0  0  0  0  0  0  0  0  0  0  0  0
   -1.0914   22.0620  -34.3178 H   0  0  0  0  0  0  0  0  0  0  0  0
   -1.2279   20.2709  -34.3178 H   0  0  0  0  0  0  0  0  0  0  0  0
    0.7913   19.3271  -33.6904 H   0  0  0  0  0  0  0  0  0  0  0  0
    1.7445   17.2947  -32.6105 H   0  0  0  0  0  0  0  0  0  0  0  0
    1.2210   16.7792  -30.2266 H   0  0  0  0  0  0  0  0  0  0  0  0
   -0.2649   18.2917  -28.9191 H   0  0  0  0  0  0  0  0  0  0  0  0
   -4.5575   23.5785  -28.2720 H   0  0  0  0  0  0  0  0  0  0  0  0
   -3.9587   25.0673  -27.4277 H   0  0  0  0  0  0  0  0  0  0  0  0
   -2.9276   22.7932  -32.2515 H   0  0  0  0  0  0  0  0  0  0  0  0
   -4.2311   20.8571  -33.1360 H   0  0  0  0  0  0  0  0  0  0  0  0
   -6.2559   18.3151  -30.3005 H   0  0  0  0  0  0  0  0  0  0  0  0
   -7.5990   17.6043  -31.2584 H   0  0  0  0  0  0  0  0  0  0  0  0
   -5.9829   16.8202  -31.2584 H   0  0  0  0  0  0  0  0  0  0  0  0
   -3.4882   18.9900  -31.9732 H   0  0  0  0  0  0  0  0  0  0  0  0
   -1.6299   18.2454  -33.4633 H   0  0  0  0  0  0  0  0  0  0  0  0
   -2.1362   17.0072  -35.5720 H   0  0  0  0  0  0  0  0  0  0  0  0
   -4.5047   16.5087  -36.1890 H   0  0  0  0  0  0  0  0  0  0  0  0
   -6.3667   17.2480  -34.7033 H   0  0  0  0  0  0  0  0  0  0  0  0
   -7.7498   22.2762  -31.0497 H   0  0  0  0  0  0  0  0  0  0  0  0
   -6.4483   24.2170  -30.1773 H   0  0  0  0  0  0  0  0  0  0  0  0
    0.2868   21.8072  -27.2837 H   0  0  0  0  0  0  0  0  0  0  0  0
    0.9700   21.0607  -28.7679 H   0  0  0  0  0  0  0  0  0  0  0  0
    0.5038   22.7955  -28.7679 H   0  0  0  0  0  0  0  0  0  0  0  0
  1  2  1  0
  2  3  1  0
  3  4  2  0
  4  5  1  0
  5  6  2  0
  6  7  1  0
  7  8  2  0
  8  9  1  0
  9 10  2  0
 10 11  1  0
 11 12  2  0
 12 13  1  0
 13 14  1  0
 14 15  1  0
 15 16  2  0
 15 17  1  0
 17 18  1  0
 18 19  2  0
 19 20  1  0
 20 21  2  0
 21 22  1  0
 22 23  2  0
 22 24  2  0
 22 25  1  0
 25 26  1  0
 25 27  1  0
 27 28  2  0
 28 29  1  0
 29 30  2  0
 30 31  1  0
 31 32  2  0
 21 33  1  0
 33 34  2  0
 12 35  1  0
 35 36  1  0
  8  3  1  0
 35  9  1  0
 34 18  1  0
 32 27  1  0
  1 37  1  0
  1 38  1  0
  1 39  1  0
  4 40  1  0
  5 41  1  0
  6 42  1  0
  7 43  1  0
 14 44  1  0
 14 45  1  0
 19 46  1  0
 20 47  1  0
 26 48  1  0
 26 49  1  0
 26 50  1  0
 28 51  1  0
 29 52  1  0
 30 53  1  0
 31 54  1  0
 32 55  1  0
 33 56  1  0
 34 57  1  0
 36 58  1  0
 36 59  1  0
 36 60  1  0
M  CHG  1  17  -1
M  END
>  <UniqueID>  (17) 
17

>  <SMILES>  (17) 
COc1ccccc1-c1nnc(SCC(=O)[N-]c2ccc(S(=O)(=O)N(C)c3ccccc3)cc2)n1C

>  <Energy>  (17) 
110.09417066693028

>  <Genealogy>  (17) 
COc1ccccc1-c1nnc(SCC(=O)[N-]c2ccc(S(=O)(=O)N(C)c3ccccc3)cc2)n1C (protonated)
COc1ccccc1-c1nnc(SCC(=O)[N-]c2ccc(S(=O)(=O)N(C)c3ccccc3)cc2)n1C (3D coordinates assigned)
COc1ccccc1-c1nnc(SCC(=O)[N-]c2ccc(S(=O)(=O)N(C)c3ccccc3)cc2)n1C (optimized conformer: 110.09417066693028 kcal/mol)

>  <smiles>  (17) 
COc1ccccc1-c1nnc(SCC(=O)Nc2ccc(S(=O)(=O)N(C)c3ccccc3)cc2)n1C

>  <score_type>  (17) 
oracle

>  <origin>  (17) 
adgpu

>  <m_score__min__energy>  (17) 
-11.619999999999999

>  <m_primary>  (17) 
energy

$$$$
17:0
     RDKit          3D

 61 64  0  0  0  0  0  0  0  0999 V2000
   -6.8320   25.2610  -30.0940 C   0  0  0  0  0  0  0  0  0  0  0  0
   -6.1050   24.0640  -30.6260 C   0  0  0  0  0  0  0  0  0  0  0  0
   -4.7340   23.8860  -30.6350 C   0  0  0  0  0  0  0  0  0  0  0  0
   -3.7560   24.8480  -30.2360 N   0  0  0  0  0  0  0  0  0  0  0  0
   -2.5570   24.5480  -29.0200 S   0  0  0  0  0  0  0  0  0  0  0  0
   -1.5100   25.6250  -29.0930 O   0  0  0  0  0  0  0  0  0  0  0  0
   -3.2040   24.6010  -27.6640 O   0  0  0  0  0  0  0  0  0  0  0  0
   -1.7890   22.9790  -29.2370 C   0  0  0  0  0  0  0  0  0  0  0  0
   -0.6770   22.8410  -30.0780 C   0  0  0  0  0  0  0  0  0  0  0  0
   -0.1120   21.5800  -30.2920 C   0  0  0  0  0  0  0  0  0  0  0  0
   -0.6520   20.4500  -29.6660 C   0  0  0  0  0  0  0  0  0  0  0  0
    0.0050   18.8550  -30.0260 S   0  0  0  0  0  0  0  0  0  0  0  0
    1.5050   18.9560  -30.0670 O   0  0  0  0  0  0  0  0  0  0  0  0
   -0.3750   17.8930  -28.9360 O   0  0  0  0  0  0  0  0  0  0  0  0
   -0.5740   18.2820  -31.5780 N   0  0  0  0  0  0  0  0  0  0  0  0
    0.4980   18.2290  -32.5900 C   0  0  0  0  0  0  0  0  0  0  0  0
    0.9310   19.6240  -33.0690 C   0  0  0  0  0  0  0  0  0  0  0  0
   -0.2590   20.5940  -33.2680 C   0  0  0  0  0  0  0  0  0  0  0  0
   -0.0790   21.4360  -34.5370 C   0  0  0  0  0  0  0  0  0  0  0  0
   -1.5980   19.8440  -33.3020 C   0  0  0  0  0  0  0  0  0  0  0  0
   -1.7910   19.0100  -32.0190 C   0  0  0  0  0  0  0  0  0  0  0  0
   -1.7570   20.5900  -28.8150 C   0  0  0  0  0  0  0  0  0  0  0  0
   -2.3210   21.8500  -28.5990 C   0  0  0  0  0  0  0  0  0  0  0  0
   -4.5310   22.7020  -31.3130 C   0  0  0  0  0  0  0  0  0  0  0  0
   -3.4160   22.2060  -31.6210 O   0  0  0  0  0  0  0  0  0  0  0  0
   -5.7260   22.1690  -31.6500 N   0  0  0  0  0  0  0  0  0  0  0  0
   -5.9310   20.9280  -32.3550 C   0  0  0  0  0  0  0  0  0  0  0  0
   -5.0560   20.5410  -33.3840 C   0  0  0  0  0  0  0  0  0  0  0  0
   -5.2420   19.3250  -34.0490 C   0  0  0  0  0  0  0  0  0  0  0  0
   -6.3160   18.4970  -33.7080 C   0  0  0  0  0  0  0  0  0  0  0  0
   -7.2040   18.8840  -32.7010 C   0  0  0  0  0  0  0  0  0  0  0  0
   -7.0140   20.0940  -32.0250 C   0  0  0  0  0  0  0  0  0  0  0  0
   -6.6810   23.0090  -31.2550 N   0  0  0  0  0  0  0  0  0  0  0  0
   -8.1170   22.8420  -31.5020 C   0  0  0  0  0  0  0  0  0  0  0  0
   -6.8188   25.2392  -28.9943 H   0  0  0  0  0  0  0  0  0  0  0  0
   -6.3379   26.1776  -30.4485 H   0  0  0  0  0  0  0  0  0  0  0  0
   -7.8732   25.2451  -30.4485 H   0  0  0  0  0  0  0  0  0  0  0  0
   -0.2478   23.7259  -30.5706 H   0  0  0  0  0  0  0  0  0  0  0  0
    0.7598   21.4754  -30.9545 H   0  0  0  0  0  0  0  0  0  0  0  0
    1.3700   17.7207  -32.1527 H   0  0  0  0  0  0  0  0  0  0  0  0
    0.1053   17.6854  -33.4619 H   0  0  0  0  0  0  0  0  0  0  0  0
    1.6127   20.0550  -32.3210 H   0  0  0  0  0  0  0  0  0  0  0  0
    1.4189   19.4983  -34.0468 H   0  0  0  0  0  0  0  0  0  0  0  0
   -0.2756   21.2732  -32.4029 H   0  0  0  0  0  0  0  0  0  0  0  0
    0.1434   22.4766  -34.2581 H   0  0  0  0  0  0  0  0  0  0  0  0
    0.7526   21.0299  -35.1316 H   0  0  0  0  0  0  0  0  0  0  0  0
   -1.0040   21.4055  -35.1316 H   0  0  0  0  0  0  0  0  0  0  0  0
   -2.4177   20.5729  -33.3851 H   0  0  0  0  0  0  0  0  0  0  0  0
   -1.6002   19.1652  -34.1676 H   0  0  0  0  0  0  0  0  0  0  0  0
   -2.0997   19.6881  -31.2098 H   0  0  0  0  0  0  0  0  0  0  0  0
   -2.5500   18.2476  -32.2485 H   0  0  0  0  0  0  0  0  0  0  0  0
   -2.1810   19.7061  -28.3162 H   0  0  0  0  0  0  0  0  0  0  0  0
   -3.1849   21.9562  -27.9264 H   0  0  0  0  0  0  0  0  0  0  0  0
   -4.2205   21.1978  -33.6679 H   0  0  0  0  0  0  0  0  0  0  0  0
   -4.5427   19.0195  -34.8412 H   0  0  0  0  0  0  0  0  0  0  0  0
   -6.4618   17.5411  -34.2324 H   0  0  0  0  0  0  0  0  0  0  0  0
   -8.0537   18.2363  -32.4394 H   0  0  0  0  0  0  0  0  0  0  0  0
   -7.7147   20.3943  -31.2320 H   0  0  0  0  0  0  0  0  0  0  0  0
   -8.6495   22.7801  -30.5415 H   0  0  0  0  0  0  0  0  0  0  0  0
   -8.4930   23.7025  -32.0749 H   0  0  0  0  0  0  0  0  0  0  0  0
   -8.2855   21.9182  -32.0749 H   0  0  0  0  0  0  0  0  0  0  0  0
  1  2  1  0
  2  3  2  0
  3  4  1  0
  4  5  1  0
  5  6  2  0
  5  7  2  0
  5  8  1  0
  8  9  2  0
  9 10  1  0
 10 11  2  0
 11 12  1  0
 12 13  2  0
 12 14  2  0
 12 15  1  0
 15 16  1  0
 16 17  1  0
 17 18  1  0
 18 19  1  0
 18 20  1  0
 20 21  1  0
 11 22  1  0
 22 23  2  0
  3 24  1  0
 24 25  2  0
 24 26  1  0
 26 27  1  0
 27 28  2  0
 28 29  1  0
 29 30  2  0
 30 31  1  0
 31 32  2  0
 26 33  1  0
 33 34  1  0
 33  2  1  0
 23  8  1  0
 32 27  1  0
 21 15  1  0
  1 35  1  0
  1 36  1  0
  1 37  1  0
  9 38  1  0
 10 39  1  0
 16 40  1  0
 16 41  1  0
 17 42  1  0
 17 43  1  0
 18 44  1  0
 19 45  1  0
 19 46  1  0
 19 47  1  0
 20 48  1  0
 20 49  1  0
 21 50  1  0
 21 51  1  0
 22 52  1  0
 23 53  1  0
 28 54  1  0
 29 55  1  0
 30 56  1  0
 31 57  1  0
 32 58  1  0
 34 59  1  0
 34 60  1  0
 34 61  1  0
M  CHG  1   4  -1
M  END
>  <UniqueID>  (18) 
18

>  <SMILES>  (18) 
Cc1c([N-]S(=O)(=O)c2ccc(S(=O)(=O)N3CCC(C)CC3)cc2)c(=O)n(-c2ccccc2)n1C

>  <Energy>  (18) 
115.25165398649469

>  <Genealogy>  (18) 
Cc1c([N-]S(=O)(=O)c2ccc(S(=O)(=O)N3CCC(C)CC3)cc2)c(=O)n(-c2ccccc2)n1C (protonated)
Cc1c([N-]S(=O)(=O)c2ccc(S(=O)(=O)N3CCC(C)CC3)cc2)c(=O)n(-c2ccccc2)n1C (3D coordinates assigned)
Cc1c([N-]S(=O)(=O)c2ccc(S(=O)(=O)N3CCC(C)CC3)cc2)c(=O)n(-c2ccccc2)n1C (nonaromatic ring conformer: 115.25165398649469 kcal/mol)

>  <smiles>  (18) 
Cc1c(NS(=O)(=O)c2ccc(S(=O)(=O)N3CCC(C)CC3)cc2)c(=O)n(-c2ccccc2)n1C

>  <score_type>  (18) 
oracle

>  <origin>  (18) 
adgpu

>  <m_score__min__energy>  (18) 
-12.41

>  <m_primary>  (18) 
energy

$$$$
18:0
     RDKit          3D

 85 91  0  0  0  0  0  0  0  0999 V2000
   -2.3930   25.2910  -29.3180 O   0  0  0  0  0  0  0  0  0  0  0  0
   -3.2270   24.5440  -28.7360 C   0  0  0  0  0  0  0  0  0  0  0  0
   -3.0470   24.2480  -27.3400 N   0  0  0  0  0  0  0  0  0  0  0  0
   -1.7920   24.4280  -26.6620 C   0  0  0  0  0  0  0  0  0  0  0  0
   -0.7260   23.5610  -26.9350 C   0  0  0  0  0  0  0  0  0  0  0  0
    0.5110   23.7430  -26.3100 C   0  0  0  0  0  0  0  0  0  0  0  0
    0.6990   24.8060  -25.4210 C   0  0  0  0  0  0  0  0  0  0  0  0
   -0.3540   25.6930  -25.1550 C   0  0  0  0  0  0  0  0  0  0  0  0
   -0.1150   27.0900  -24.1110 S   0  0  0  0  0  0  0  0  0  0  0  0
   -1.0940   27.0140  -22.9710 O   0  0  0  0  0  0  0  0  0  0  0  0
    1.2810   27.0820  -23.5470 O   0  0  0  0  0  0  0  0  0  0  0  0
   -0.3840   28.5430  -25.0390 N   0  0  0  0  0  0  0  0  0  0  0  0
   -0.0250   28.3120  -26.4480 C   0  0  0  0  0  0  0  0  0  0  0  0
   -0.4640   29.5060  -27.3190 C   0  0  0  0  0  0  0  0  0  0  0  0
   -0.6280   30.7990  -26.5040 C   0  0  0  0  0  0  0  0  0  0  0  0
    0.4340   30.8900  -25.4040 C   0  0  0  0  0  0  0  0  0  0  0  0
    0.4030   29.6570  -24.4720 C   0  0  0  0  0  0  0  0  0  0  0  0
   -1.5950   25.5040  -25.7790 C   0  0  0  0  0  0  0  0  0  0  0  0
   -4.3850   23.9950  -29.4960 C   0  0  0  0  0  0  0  0  0  0  0  0
   -5.2980   24.8820  -30.1020 C   0  0  0  0  0  0  0  0  0  0  0  0
   -6.4420   24.4050  -30.7440 C   0  0  0  0  0  0  0  0  0  0  0  0
   -6.7080   23.0360  -30.7850 C   0  0  0  0  0  0  0  0  0  0  0  0
   -8.1280   22.4190  -31.6230 S   0  0  0  0  0  0  0  0  0  0  0  0
   -9.1340   21.9540  -30.6070 O   0  0  0  0  0  0  0  0  0  0  0  0
   -8.7480   23.5140  -32.4510 O   0  0  0  0  0  0  0  0  0  0  0  0
   -7.6510   21.0790  -32.6340 N   0  0  0  0  0  0  0  0  0  0  0  0
   -7.7980   19.8040  -31.9290 C   0  0  0  0  0  0  0  0  0  0  0  0
   -6.7700   18.8530  -32.5220 C   0  0  0  0  0  0  0  0  0  0  0  0
   -5.7820   19.7380  -33.2680 C   0  0  0  0  0  0  0  0  0  0  0  0
   -6.2400   21.1610  -33.0020 C   0  0  0  0  0  0  0  0  0  0  0  0
   -5.8010   22.1410  -30.2140 C   0  0  0  0  0  0  0  0  0  0  0  0
   -4.6260   22.5990  -29.6010 C   0  0  0  0  0  0  0  0  0  0  0  0
   -3.4930   21.3560  -28.9480 S   0  0  0  0  0  0  0  0  0  0  0  0
   -2.5890   21.2060  -30.4960 C   0  0  0  0  0  0  0  0  0  0  0  0
   -3.2890   21.2760  -31.7260 C   0  0  0  0  0  0  0  0  0  0  0  0
   -2.6020   21.1620  -32.9500 C   0  0  0  0  0  0  0  0  0  0  0  0
   -1.2220   20.9820  -32.8980 C   0  0  0  0  0  0  0  0  0  0  0  0
   -0.2590   20.8310  -33.8690 C   0  0  0  0  0  0  0  0  0  0  0  0
   -0.4890   20.7490  -35.3260 C   0  0  0  0  0  0  0  0  0  0  0  0
    0.2400   21.3820  -36.2560 C   0  0  0  0  0  0  0  0  0  0  0  0
    1.2500   22.4230  -35.9790 C   0  0  0  0  0  0  0  0  0  0  0  0
    2.6140   22.1070  -35.8600 C   0  0  0  0  0  0  0  0  0  0  0  0
    3.5270   23.1160  -35.5510 C   0  0  0  0  0  0  0  0  0  0  0  0
    3.0770   24.4210  -35.3440 C   0  0  0  0  0  0  0  0  0  0  0  0
    1.7110   24.6950  -35.4400 C   0  0  0  0  0  0  0  0  0  0  0  0
    0.8360   23.6980  -35.7440 N   0  0  0  0  0  0  0  0  0  0  0  0
    0.9370   20.6540  -33.2570 N   0  0  0  0  0  0  0  0  0  0  0  0
    0.7650   20.7050  -31.9400 N   0  0  0  0  0  0  0  0  0  0  0  0
   -0.5450   20.9030  -31.7170 C   0  0  0  0  0  0  0  0  0  0  0  0
   -1.1920   21.0040  -30.4900 C   0  0  0  0  0  0  0  0  0  0  0  0
   -3.8650   23.9660  -26.7590 H   0  0  0  0  0  0  0  0  0  0  0  0
   -0.8632   22.7323  -27.6452 H   0  0  0  0  0  0  0  0  0  0  0  0
    1.3384   23.0486  -26.5179 H   0  0  0  0  0  0  0  0  0  0  0  0
    1.6734   24.9464  -24.9302 H   0  0  0  0  0  0  0  0  0  0  0  0
    1.0649   28.1867  -26.5281 H   0  0  0  0  0  0  0  0  0  0  0  0
   -0.5376   27.4054  -26.8021 H   0  0  0  0  0  0  0  0  0  0  0  0
    0.2952   29.6732  -28.0972 H   0  0  0  0  0  0  0  0  0  0  0  0
   -1.4429   29.2594  -27.7560 H   0  0  0  0  0  0  0  0  0  0  0  0
   -0.5255   31.6638  -27.1760 H   0  0  0  0  0  0  0  0  0  0  0  0
   -1.6222   30.7941  -26.0332 H   0  0  0  0  0  0  0  0  0  0  0  0
    1.4270   30.9572  -25.8725 H   0  0  0  0  0  0  0  0  0  0  0  0
    0.2217   31.7825  -24.7971 H   0  0  0  0  0  0  0  0  0  0  0  0
    1.4346   29.3128  -24.3070 H   0  0  0  0  0  0  0  0  0  0  0  0
   -0.0759   29.9607  -23.5294 H   0  0  0  0  0  0  0  0  0  0  0  0
   -2.4203   26.2024  -25.5763 H   0  0  0  0  0  0  0  0  0  0  0  0
   -5.1062   25.9646  -30.0684 H   0  0  0  0  0  0  0  0  0  0  0  0
   -7.1373   25.1120  -31.2200 H   0  0  0  0  0  0  0  0  0  0  0  0
   -7.6105   19.9419  -30.8539 H   0  0  0  0  0  0  0  0  0  0  0  0
   -8.8168   19.4051  -32.0430 H   0  0  0  0  0  0  0  0  0  0  0  0
   -6.2591   18.2931  -31.7248 H   0  0  0  0  0  0  0  0  0  0  0  0
   -7.2358   18.1104  -33.1864 H   0  0  0  0  0  0  0  0  0  0  0  0
   -4.7619   19.5837  -32.8864 H   0  0  0  0  0  0  0  0  0  0  0  0
   -5.7570   19.5092  -34.3436 H   0  0  0  0  0  0  0  0  0  0  0  0
   -5.6573   21.6005  -32.1790 H   0  0  0  0  0  0  0  0  0  0  0  0
   -6.0955   21.7981  -33.8870 H   0  0  0  0  0  0  0  0  0  0  0  0
   -6.0112   21.0617  -30.2455 H   0  0  0  0  0  0  0  0  0  0  0  0
   -4.3794   21.4208  -31.7248 H   0  0  0  0  0  0  0  0  0  0  0  0
   -3.1352   21.2132  -33.9108 H   0  0  0  0  0  0  0  0  0  0  0  0
   -1.3220   20.1206  -35.6743 H   0  0  0  0  0  0  0  0  0  0  0  0
    0.0728   21.1044  -37.3072 H   0  0  0  0  0  0  0  0  0  0  0  0
    2.9590   21.0732  -36.0091 H   0  0  0  0  0  0  0  0  0  0  0  0
    4.5991   22.8835  -35.4707 H   0  0  0  0  0  0  0  0  0  0  0  0
    3.7902   25.2245  -35.1079 H   0  0  0  0  0  0  0  0  0  0  0  0
    1.3421   25.7172  -35.2698 H   0  0  0  0  0  0  0  0  0  0  0  0
   -0.6332   20.9289  -29.5455 H   0  0  0  0  0  0  0  0  0  0  0  0
  1  2  2  0
  2  3  1  0
  3  4  1  0
  4  5  2  0
  5  6  1  0
  6  7  2  0
  7  8  1  0
  8  9  1  0
  9 10  2  0
  9 11  2  0
  9 12  1  0
 12 13  1  0
 13 14  1  0
 14 15  1  0
 15 16  1  0
 16 17  1  0
  8 18  2  0
  2 19  1  0
 19 20  2  0
 20 21  1  0
 21 22  2  0
 22 23  1  0
 23 24  2  0
 23 25  2  0
 23 26  1  0
 26 27  1  0
 27 28  1  0
 28 29  1  0
 29 30  1  0
 22 31  1  0
 31 32  2  0
 32 33  1  0
 33 34  1  0
 34 35  1  0
 35 36  2  0
 36 37  1  0
 37 38  2  0
 38 39  1  0
 39 40  2  3
 40 41  1  0
 41 42  2  0
 42 43  1  0
 43 44  2  0
 44 45  1  0
 45 46  2  0
 38 47  1  0
 47 48  1  0
 48 49  2  0
 49 50  1  0
 18  4  1  0
 32 19  1  0
 50 34  2  0
 17 12  1  0
 30 26  1  0
 49 37  1  0
 46 41  1  0
  3 51  1  0
  5 52  1  0
  6 53  1  0
  7 54  1  0
 13 55  1  0
 13 56  1  0
 14 57  1  0
 14 58  1  0
 15 59  1  0
 15 60  1  0
 16 61  1  0
 16 62  1  0
 17 63  1  0
 17 64  1  0
 18 65  1  0
 20 66  1  0
 21 67  1  0
 27 68  1  0
 27 69  1  0
 28 70  1  0
 28 71  1  0
 29 72  1  0
 29 73  1  0
 30 74  1  0
 30 75  1  0
 31 76  1  0
 35 77  1  0
 36 78  1  0
 39 79  1  0
 40 80  1  0
 42 81  1  0
 43 82  1  0
 44 83  1  0
 45 84  1  0
 50 85  1  0
M  CHG  1  47  -1
M  END
>  <UniqueID>  (19) 
19

>  <SMILES>  (19) 
O=C(Nc1cccc(S(=O)(=O)N2CCCCC2)c1)c1ccc(S(=O)(=O)N2CCCC2)cc1Sc1ccc2c(C=Cc3ccccn3)[n-]nc2c1

>  <Energy>  (19) 
148.01015131442588

>  <Genealogy>  (19) 
O=C(Nc1cccc(S(=O)(=O)N2CCCCC2)c1)c1ccc(S(=O)(=O)N2CCCC2)cc1Sc1ccc2c(C=Cc3ccccn3)[n-]nc2c1 (protonated)
O=C(Nc1cccc(S(=O)(=O)N2CCCCC2)c1)c1ccc(S(=O)(=O)N2CCCC2)cc1Sc1ccc2c(C=Cc3ccccn3)[n-]nc2c1 (3D coordinates assigned)
O=C(Nc1cccc(S(=O)(=O)N2CCCCC2)c1)c1ccc(S(=O)(=O)N2CCCC2)cc1Sc1ccc2c(C=Cc3ccccn3)[n-]nc2c1 (nonaromatic ring conformer: 148.01015131442588 kcal/mol)

>  <smiles>  (19) 
O=C(Nc1cccc(S(=O)(=O)N2CCCCC2)c1)c1ccc(S(=O)(=O)N2CCCC2)cc1Sc1ccc2c(C=Cc3ccccn3)[nH]nc2c1

>  <score_type>  (19) 
oracle

>  <origin>  (19) 
adgpu

>  <m_score__min__energy>  (19) 
-13.73

>  <m_primary>  (19) 
energy

$$$$
19:0
     RDKit          3D

 59 62  0  0  0  0  0  0  0  0999 V2000
    1.4130   23.9420  -27.4500 C   0  0  0  0  0  0  0  0  0  0  0  0
    0.1080   23.1560  -27.3230 C   0  0  0  0  0  0  0  0  0  0  0  0
   -1.0310   24.0610  -27.0810 N   0  0  0  0  0  0  0  0  0  0  0  0
   -0.9260   25.0830  -26.0250 C   0  0  0  0  0  0  0  0  0  0  0  0
   -2.2950   25.6690  -25.6920 C   0  0  0  0  0  0  0  0  0  0  0  0
   -2.2410   23.9460  -27.8720 C   0  0  0  0  0  0  0  0  0  0  0  0
   -3.2210   22.9900  -27.5520 C   0  0  0  0  0  0  0  0  0  0  0  0
   -4.3790   22.8690  -28.3250 C   0  0  0  0  0  0  0  0  0  0  0  0
   -4.5910   23.7010  -29.4270 C   0  0  0  0  0  0  0  0  0  0  0  0
   -5.8140   23.5500  -30.1630 N   0  0  0  0  0  0  0  0  0  0  0  0
   -5.9540   23.4700  -31.5880 C   0  0  0  0  0  0  0  0  0  0  0  0
   -5.6010   24.4330  -32.3220 O   0  0  0  0  0  0  0  0  0  0  0  0
   -6.5280   22.2140  -32.2000 C   0  0  2  0  0  0  0  0  0  0  0  0
   -7.3860   21.3930  -31.2250 C   0  0  0  0  0  0  0  0  0  0  0  0
   -8.2220   22.0780  -30.1820 C   0  0  0  0  0  0  0  0  0  0  0  0
   -7.5920   20.1220  -31.4360 N   0  0  0  0  0  0  0  0  0  0  0  0
   -6.9070   19.4430  -32.4830 C   0  0  0  0  0  0  0  0  0  0  0  0
   -7.0720   18.1420  -32.8890 C   0  0  0  0  0  0  0  0  0  0  0  0
   -6.1280   18.0010  -33.8980 C   0  0  0  0  0  0  0  0  0  0  0  0
   -5.4410   19.1570  -34.0590 N   0  0  0  0  0  0  0  0  0  0  0  0
   -5.9410   20.0250  -33.1960 N   0  0  0  0  0  0  0  0  0  0  0  0
   -5.4280   21.3650  -32.9240 C   0  0  2  0  0  0  0  0  0  0  0  0
   -4.1280   21.2610  -32.1430 C   0  0  0  0  0  0  0  0  0  0  0  0
   -2.9130   21.7190  -32.6880 C   0  0  0  0  0  0  0  0  0  0  0  0
   -1.7240   21.6100  -31.9620 C   0  0  0  0  0  0  0  0  0  0  0  0
   -1.7250   21.0310  -30.6840 C   0  0  0  0  0  0  0  0  0  0  0  0
   -0.4530   20.9490  -29.8930 C   0  0  0  0  0  0  0  0  0  0  0  0
   -2.9340   20.5840  -30.1320 C   0  0  0  0  0  0  0  0  0  0  0  0
   -4.1240   20.6940  -30.8560 C   0  0  0  0  0  0  0  0  0  0  0  0
   -3.6440   24.7020  -29.7210 C   0  0  0  0  0  0  0  0  0  0  0  0
   -3.8670   25.6290  -30.7330 O   0  0  0  0  0  0  0  0  0  0  0  0
   -2.4720   24.8000  -28.9650 C   0  0  0  0  0  0  0  0  0  0  0  0
    1.7998   24.1750  -26.4470 H   0  0  0  0  0  0  0  0  0  0  0  0
    2.1525   23.3389  -27.9972 H   0  0  0  0  0  0  0  0  0  0  0  0
    1.2257   24.8777  -27.9972 H   0  0  0  0  0  0  0  0  0  0  0  0
   -0.0677   22.5972  -28.2540 H   0  0  0  0  0  0  0  0  0  0  0  0
    0.1953   22.4659  -26.4708 H   0  0  0  0  0  0  0  0  0  0  0  0
   -0.5021   24.6229  -25.1202 H   0  0  0  0  0  0  0  0  0  0  0  0
   -0.2764   25.8940  -26.3860 H   0  0  0  0  0  0  0  0  0  0  0  0
   -2.4159   25.7207  -24.5999 H   0  0  0  0  0  0  0  0  0  0  0  0
   -2.3746   26.6800  -26.1180 H   0  0  0  0  0  0  0  0  0  0  0  0
   -3.0814   25.0287  -26.1180 H   0  0  0  0  0  0  0  0  0  0  0  0
   -3.0747   22.3303  -26.6840 H   0  0  0  0  0  0  0  0  0  0  0  0
   -5.1315   22.1106  -28.0629 H   0  0  0  0  0  0  0  0  0  0  0  0
   -7.2329   22.5434  -32.9776 H   0  0  0  0  0  0  0  0  0  0  0  0
   -7.8690   21.7888  -29.1811 H   0  0  0  0  0  0  0  0  0  0  0  0
   -8.1354   23.1682  -30.3005 H   0  0  0  0  0  0  0  0  0  0  0  0
   -9.2738   21.7787  -30.3005 H   0  0  0  0  0  0  0  0  0  0  0  0
   -7.7807   17.3923  -32.5074 H   0  0  0  0  0  0  0  0  0  0  0  0
   -5.9624   17.0835  -34.4817 H   0  0  0  0  0  0  0  0  0  0  0  0
   -5.1930   21.8918  -33.8606 H   0  0  0  0  0  0  0  0  0  0  0  0
   -2.8998   22.1660  -33.6930 H   0  0  0  0  0  0  0  0  0  0  0  0
   -0.7827   21.9799  -32.3946 H   0  0  0  0  0  0  0  0  0  0  0  0
   -0.6878   20.9641  -28.8185 H   0  0  0  0  0  0  0  0  0  0  0  0
    0.0730   20.0151  -30.1403 H   0  0  0  0  0  0  0  0  0  0  0  0
    0.1885   21.8077  -30.1403 H   0  0  0  0  0  0  0  0  0  0  0  0
   -2.9457   20.1444  -29.1237 H   0  0  0  0  0  0  0  0  0  0  0  0
   -5.0656   20.3341  -30.4156 H   0  0  0  0  0  0  0  0  0  0  0  0
   -1.7189   25.5569  -29.2293 H   0  0  0  0  0  0  0  0  0  0  0  0
  1  2  1  0
  2  3  1  0
  3  4  1  0
  4  5  1  0
  3  6  1  0
  6  7  2  0
  7  8  1  0
  8  9  2  0
  9 10  1  0
 10 11  1  0
 11 12  2  0
 11 13  1  0
 13 14  1  0
 14 15  1  0
 14 16  2  0
 16 17  1  0
 17 18  2  0
 18 19  1  0
 19 20  2  0
 20 21  1  0
 21 22  1  0
 22 23  1  0
 23 24  2  0
 24 25  1  0
 25 26  2  0
 26 27  1  0
 26 28  1  0
 28 29  2  0
  9 30  1  0
 30 31  1  0
 30 32  2  0
 32  6  1  0
 22 13  1  0
 29 23  1  0
 21 17  1  0
  1 33  1  0
  1 34  1  0
  1 35  1  0
  2 36  1  0
  2 37  1  0
  4 38  1  0
  4 39  1  0
  5 40  1  0
  5 41  1  0
  5 42  1  0
  7 43  1  0
  8 44  1  0
 13 45  1  6
 15 46  1  0
 15 47  1  0
 15 48  1  0
 18 49  1  0
 19 50  1  0
 22 51  1  6
 24 52  1  0
 25 53  1  0
 27 54  1  0
 27 55  1  0
 27 56  1  0
 28 57  1  0
 29 58  1  0
 32 59  1  0
M  CHG  2  10  -1  31  -1
M  END
>  <UniqueID>  (20) 
20

>  <SMILES>  (20) 
CCN(CC)c1ccc([N-]C(=O)[C@@H]2C(C)=Nc3ccnn3[C@@H]2c2ccc(C)cc2)c([O-])c1

>  <Energy>  (20) 
101.22673162093696

>  <Genealogy>  (20) 
CCN(CC)c1ccc([N-]C(=O)C2C(C)=Nc3ccnn3C2c2ccc(C)cc2)c([O-])c1 (protonated)
CCN(CC)c1ccc([N-]C(=O)[C@@H]2C(C)=Nc3ccnn3[C@@H]2c2ccc(C)cc2)c([O-])c1 (chirality)
CCN(CC)c1ccc([N-]C(=O)[C@@H]2C(C)=Nc3ccnn3[C@@H]2c2ccc(C)cc2)c([O-])c1 (3D coordinates assigned)
CCN(CC)c1ccc([N-]C(=O)[C@@H]2C(C)=Nc3ccnn3[C@@H]2c2ccc(C)cc2)c([O-])c1 (nonaromatic ring conformer: 101.22673162093696 kcal/mol)

>  <smiles>  (20) 
CCN(CC)c1ccc(NC(=O)C2C(C)=Nc3ccnn3C2c2ccc(C)cc2)c(O)c1

>  <score_type>  (20) 
oracle

>  <origin>  (20) 
adgpu

>  <m_score__min__energy>  (20) 
-12.57

>  <m_primary>  (20) 
energy

$$$$
20:0
     RDKit          3D

 58 61  0  0  0  0  0  0  0  0999 V2000
   -4.0440   22.1550  -27.5370 O   0  0  0  0  0  0  0  0  0  0  0  0
   -3.5400   22.7300  -28.5470 C   0  0  0  0  0  0  0  0  0  0  0  0
   -2.1050   22.7630  -28.6810 N   0  0  0  0  0  0  0  0  0  0  0  0
   -1.2560   21.7690  -29.2730 C   0  0  0  0  0  0  0  0  0  0  0  0
   -0.5280   20.9260  -28.4290 C   0  0  0  0  0  0  0  0  0  0  0  0
    0.2940   19.9320  -28.9620 C   0  0  0  0  0  0  0  0  0  0  0  0
    0.4010   19.7820  -30.3480 C   0  0  0  0  0  0  0  0  0  0  0  0
   -0.2980   20.6390  -31.2090 C   0  0  0  0  0  0  0  0  0  0  0  0
   -0.1740   20.3810  -32.9540 S   0  0  0  0  0  0  0  0  0  0  0  0
    0.5790   21.5440  -33.5430 O   0  0  0  0  0  0  0  0  0  0  0  0
    0.6020   19.1150  -33.2100 O   0  0  0  0  0  0  0  0  0  0  0  0
   -1.7500   20.2720  -33.7100 N   0  0  0  0  0  0  0  0  0  0  0  0
   -2.5490   21.5030  -33.4780 C   0  0  0  0  0  0  0  0  0  0  0  0
   -3.7420   21.2980  -32.5330 C   0  0  0  0  0  0  0  0  0  0  0  0
   -4.6720   20.1910  -33.0590 C   0  0  0  0  0  0  0  0  0  0  0  0
   -3.8990   19.0190  -33.6900 C   0  0  0  0  0  0  0  0  0  0  0  0
   -2.4220   19.0260  -33.2860 C   0  0  0  0  0  0  0  0  0  0  0  0
   -1.1030   21.6530  -30.6660 C   0  0  0  0  0  0  0  0  0  0  0  0
   -4.4440   23.2830  -29.5780 C   0  0  0  0  0  0  0  0  0  0  0  0
   -5.5990   22.5760  -29.9680 C   0  0  0  0  0  0  0  0  0  0  0  0
   -6.5110   23.1470  -30.8740 C   0  0  0  0  0  0  0  0  0  0  0  0
   -8.0620   22.3690  -31.2480 S   0  0  0  0  0  0  0  0  0  0  0  0
   -8.7580   22.0440  -29.9560 O   0  0  0  0  0  0  0  0  0  0  0  0
   -8.9180   23.3470  -32.0050 O   0  0  0  0  0  0  0  0  0  0  0  0
   -7.9440   20.9260  -32.2310 N   0  0  0  0  0  0  0  0  0  0  0  0
   -9.2560   20.4080  -32.6280 C   0  0  0  0  0  0  0  0  0  0  0  0
   -9.1990   18.9010  -32.5070 C   0  0  0  0  0  0  0  0  0  0  0  0
   -8.1310   18.6510  -31.4720 C   0  0  0  0  0  0  0  0  0  0  0  0
   -7.2090   19.8470  -31.5640 C   0  0  0  0  0  0  0  0  0  0  0  0
   -6.2440   24.4170  -31.4090 C   0  0  0  0  0  0  0  0  0  0  0  0
   -5.1020   25.1220  -31.0240 C   0  0  0  0  0  0  0  0  0  0  0  0
   -4.2100   24.5680  -30.1030 C   0  0  0  0  0  0  0  0  0  0  0  0
   -3.0840   25.3000  -29.7180 O   0  0  0  0  0  0  0  0  0  0  0  0
   -0.6033   21.0466  -27.3382 H   0  0  0  0  0  0  0  0  0  0  0  0
    0.8577   19.2665  -28.2917 H   0  0  0  0  0  0  0  0  0  0  0  0
    1.0371   18.9872  -30.7648 H   0  0  0  0  0  0  0  0  0  0  0  0
   -1.8892   22.2680  -33.0428 H   0  0  0  0  0  0  0  0  0  0  0  0
   -2.9601   21.8067  -34.4521 H   0  0  0  0  0  0  0  0  0  0  0  0
   -3.3691   21.0132  -31.5381 H   0  0  0  0  0  0  0  0  0  0  0  0
   -4.3107   22.2378  -32.4743 H   0  0  0  0  0  0  0  0  0  0  0  0
   -5.2717   19.8068  -32.2207 H   0  0  0  0  0  0  0  0  0  0  0  0
   -5.3057   20.6324  -33.8423 H   0  0  0  0  0  0  0  0  0  0  0  0
   -4.3538   18.0737  -33.3590 H   0  0  0  0  0  0  0  0  0  0  0  0
   -3.9539   19.1238  -34.7836 H   0  0  0  0  0  0  0  0  0  0  0  0
   -2.3503   18.9358  -32.1921 H   0  0  0  0  0  0  0  0  0  0  0  0
   -1.9246   18.1797  -33.7824 H   0  0  0  0  0  0  0  0  0  0  0  0
   -1.6167   22.3604  -31.3337 H   0  0  0  0  0  0  0  0  0  0  0  0
   -5.7885   21.5716  -29.5615 H   0  0  0  0  0  0  0  0  0  0  0  0
  -10.0360   20.8098  -31.9646 H   0  0  0  0  0  0  0  0  0  0  0  0
   -9.4979   20.7075  -33.6584 H   0  0  0  0  0  0  0  0  0  0  0  0
  -10.1672   18.4999  -32.1727 H   0  0  0  0  0  0  0  0  0  0  0  0
   -8.9780   18.4102  -33.4663 H   0  0  0  0  0  0  0  0  0  0  0  0
   -8.5746   18.5811  -30.4678 H   0  0  0  0  0  0  0  0  0  0  0  0
   -7.5988   17.7045  -31.6478 H   0  0  0  0  0  0  0  0  0  0  0  0
   -6.9080   20.1665  -30.5554 H   0  0  0  0  0  0  0  0  0  0  0  0
   -6.3016   19.5913  -32.1307 H   0  0  0  0  0  0  0  0  0  0  0  0
   -6.9396   24.8600  -32.1369 H   0  0  0  0  0  0  0  0  0  0  0  0
   -4.9040   26.1176  -31.4477 H   0  0  0  0  0  0  0  0  0  0  0  0
  1  2  2  0
  2  3  1  0
  3  4  1  0
  4  5  2  0
  5  6  1  0
  6  7  2  0
  7  8  1  0
  8  9  1  0
  9 10  2  0
  9 11  2  0
  9 12  1  0
 12 13  1  0
 13 14  1  0
 14 15  1  0
 15 16  1  0
 16 17  1  0
  8 18  2  0
  2 19  1  0
 19 20  2  0
 20 21  1  0
 21 22  1  0
 22 23  2  0
 22 24  2  0
 22 25  1  0
 25 26  1  0
 26 27  1  0
 27 28  1  0
 28 29  1  0
 21 30  2  0
 30 31  1  0
 31 32  2  0
 32 33  1  0
 18  4  1  0
 32 19  1  0
 17 12  1  0
 29 25  1  0
  5 34  1  0
  6 35  1  0
  7 36  1  0
 13 37  1  0
 13 38  1  0
 14 39  1  0
 14 40  1  0
 15 41  1  0
 15 42  1  0
 16 43  1  0
 16 44  1  0
 17 45  1  0
 17 46  1  0
 18 47  1  0
 20 48  1  0
 26 49  1  0
 26 50  1  0
 27 51  1  0
 27 52  1  0
 28 53  1  0
 28 54  1  0
 29 55  1  0
 29 56  1  0
 30 57  1  0
 31 58  1  0
M  CHG  2   3  -1  33  -1
M  END
>  <UniqueID>  (21) 
21

>  <SMILES>  (21) 
O=C([N-]c1cccc(S(=O)(=O)N2CCCCC2)c1)c1cc(S(=O)(=O)N2CCCC2)ccc1[O-]

>  <Energy>  (21) 
73.48492428491527

>  <Genealogy>  (21) 
O=C([N-]c1cccc(S(=O)(=O)N2CCCCC2)c1)c1cc(S(=O)(=O)N2CCCC2)ccc1[O-] (protonated)
O=C([N-]c1cccc(S(=O)(=O)N2CCCCC2)c1)c1cc(S(=O)(=O)N2CCCC2)ccc1[O-] (3D coordinates assigned)
O=C([N-]c1cccc(S(=O)(=O)N2CCCCC2)c1)c1cc(S(=O)(=O)N2CCCC2)ccc1[O-] (nonaromatic ring conformer: 73.48492428491527 kcal/mol)

>  <smiles>  (21) 
O=C(Nc1cccc(S(=O)(=O)N2CCCCC2)c1)c1cc(S(=O)(=O)N2CCCC2)ccc1O

>  <score_type>  (21) 
oracle

>  <origin>  (21) 
adgpu

>  <m_score__min__energy>  (21) 
-15.68

>  <m_primary>  (21) 
energy

$$$$
21:0
     RDKit          3D

 45 47  0  0  0  0  0  0  0  0999 V2000
    2.5400   23.6110  -35.8690 C   0  0  0  0  0  0  0  0  0  0  0  0
    1.4200   22.6870  -35.5160 C   0  0  0  0  0  0  0  0  0  0  0  0
    0.2300   23.0600  -35.6990 O   0  0  0  0  0  0  0  0  0  0  0  0
    1.7040   21.4270  -34.8890 N   0  0  0  0  0  0  0  0  0  0  0  0
    0.7280   20.3930  -34.6760 C   0  0  0  0  0  0  0  0  0  0  0  0
   -0.3630   20.5780  -33.8080 C   0  0  0  0  0  0  0  0  0  0  0  0
   -1.3090   19.5650  -33.6370 C   0  0  0  0  0  0  0  0  0  0  0  0
   -1.1860   18.3560  -34.3360 C   0  0  0  0  0  0  0  0  0  0  0  0
   -2.3860   17.0890  -34.1150 S   0  0  0  0  0  0  0  0  0  0  0  0
   -2.1700   16.0050  -35.1340 O   0  0  0  0  0  0  0  0  0  0  0  0
   -2.2660   16.4920  -32.7400 O   0  0  0  0  0  0  0  0  0  0  0  0
   -3.9730   17.7550  -34.2930 N   0  0  0  0  0  0  0  0  0  0  0  0
   -4.4660   18.7990  -33.6040 C   0  0  0  0  0  0  0  0  0  0  0  0
   -5.7660   18.9860  -34.0240 C   0  0  0  0  0  0  0  0  0  0  0  0
   -6.6800   20.0140  -33.6210 N   0  0  0  0  0  0  0  0  0  0  0  0
   -6.3320   21.1010  -32.7480 C   0  0  0  0  0  0  0  0  0  0  0  0
   -5.0220   21.6010  -32.7590 C   0  0  0  0  0  0  0  0  0  0  0  0
   -4.6660   22.6730  -31.9350 C   0  0  0  0  0  0  0  0  0  0  0  0
   -5.6210   23.2670  -31.0980 C   0  0  0  0  0  0  0  0  0  0  0  0
   -5.1780   24.6260  -30.0720 S   0  0  0  0  0  0  0  0  0  0  0  0
   -3.6680   25.2800  -30.5990 N   0  0  0  0  0  0  0  0  0  0  0  0
   -6.2400   25.6880  -30.1490 O   0  0  0  0  0  0  0  0  0  0  0  0
   -5.0550   24.1720  -28.6460 O   0  0  0  0  0  0  0  0  0  0  0  0
   -6.9380   22.7920  -31.1090 C   0  0  0  0  0  0  0  0  0  0  0  0
   -7.2940   21.7200  -31.9320 C   0  0  0  0  0  0  0  0  0  0  0  0
   -5.9930   18.0310  -34.9930 C   0  0  0  0  0  0  0  0  0  0  0  0
   -4.8810   17.2810  -35.1330 N   0  0  0  0  0  0  0  0  0  0  0  0
   -0.1160   18.1790  -35.2230 C   0  0  0  0  0  0  0  0  0  0  0  0
    0.8300   19.1930  -35.3970 C   0  0  0  0  0  0  0  0  0  0  0  0
    3.0038   23.9936  -34.9479 H   0  0  0  0  0  0  0  0  0  0  0  0
    3.2919   23.0670  -36.4595 H   0  0  0  0  0  0  0  0  0  0  0  0
    2.1488   24.4526  -36.4595 H   0  0  0  0  0  0  0  0  0  0  0  0
    2.6610   21.2900  -34.4890 H   0  0  0  0  0  0  0  0  0  0  0  0
   -0.4718   21.5260  -33.2607 H   0  0  0  0  0  0  0  0  0  0  0  0
   -2.1549   19.7165  -32.9504 H   0  0  0  0  0  0  0  0  0  0  0  0
   -3.9324   19.3926  -32.8472 H   0  0  0  0  0  0  0  0  0  0  0  0
   -7.6410   19.9970  -34.0330 H   0  0  0  0  0  0  0  0  0  0  0  0
   -4.2694   21.1468  -33.4203 H   0  0  0  0  0  0  0  0  0  0  0  0
   -3.6332   23.0516  -31.9435 H   0  0  0  0  0  0  0  0  0  0  0  0
   -3.8840   26.1490  -31.1380 H   0  0  0  0  0  0  0  0  0  0  0  0
   -7.6959   23.2647  -30.4670 H   0  0  0  0  0  0  0  0  0  0  0  0
   -8.3330   21.3588  -31.9410 H   0  0  0  0  0  0  0  0  0  0  0  0
   -6.9276   17.9023  -35.5587 H   0  0  0  0  0  0  0  0  0  0  0  0
   -0.0201   17.2381  -35.7847 H   0  0  0  0  0  0  0  0  0  0  0  0
    1.6604   19.0496  -36.1040 H   0  0  0  0  0  0  0  0  0  0  0  0
  1  2  1  0
  2  3  2  0
  2  4  1  0
  4  5  1  0
  5  6  2  0
  6  7  1  0
  7  8  2  0
  8  9  1  0
  9 10  2  0
  9 11  2  0
  9 12  1  0
 12 13  1  0
 13 14  2  0
 14 15  1  0
 15 16  1  0
 16 17  2  0
 17 18  1  0
 18 19  2  0
 19 20  1  0
 20 21  1  0
 20 22  2  0
 20 23  2  0
 19 24  1  0
 24 25  2  0
 14 26  1  0
 26 27  2  0
  8 28  1  0
 28 29  2  0
 29  5  1  0
 27 12  1  0
 25 16  1  0
  1 30  1  0
  1 31  1  0
  1 32  1  0
  4 33  1  0
  6 34  1  0
  7 35  1  0
 13 36  1  0
 15 37  1  0
 17 38  1  0
 18 39  1  0
 21 40  1  0
 24 41  1  0
 25 42  1  0
 26 43  1  0
 28 44  1  0
 29 45  1  0
M  CHG  1  21  -1
M  END
>  <UniqueID>  (22) 
22

>  <SMILES>  (22) 
CC(=O)Nc1ccc(S(=O)(=O)n2cc(Nc3ccc(S([NH-])(=O)=O)cc3)cn2)cc1

>  <Energy>  (22) 
85.2806975179391

>  <Genealogy>  (22) 
CC(=O)Nc1ccc(S(=O)(=O)n2cc(Nc3ccc(S([NH-])(=O)=O)cc3)cn2)cc1 (protonated)
CC(=O)Nc1ccc(S(=O)(=O)n2cc(Nc3ccc(S([NH-])(=O)=O)cc3)cn2)cc1 (3D coordinates assigned)
CC(=O)Nc1ccc(S(=O)(=O)n2cc(Nc3ccc(S([NH-])(=O)=O)cc3)cn2)cc1 (optimized conformer: 85.2806975179391 kcal/mol)

>  <smiles>  (22) 
CC(=O)Nc1ccc(S(=O)(=O)n2cc(Nc3ccc(S(N)(=O)=O)cc3)cn2)cc1

>  <score_type>  (22) 
oracle

>  <origin>  (22) 
adgpu

>  <m_score__min__energy>  (22) 
-11.140000000000001

>  <m_primary>  (22) 
energy

$$$$
22:0
     RDKit          3D

 50 52  0  0  0  0  0  0  0  0999 V2000
   -0.5580   20.0780  -27.5100 C   0  0  0  0  0  0  0  0  0  0  0  0
   -1.7480   20.9580  -27.1010 C   0  0  0  0  0  0  0  0  0  0  0  0
   -3.0740   20.3490  -27.5690 C   0  0  0  0  0  0  0  0  0  0  0  0
   -1.5950   22.3780  -27.6190 C   0  0  0  0  0  0  0  0  0  0  0  0
   -0.5350   23.1990  -27.1930 C   0  0  0  0  0  0  0  0  0  0  0  0
   -0.4060   24.4980  -27.6850 C   0  0  0  0  0  0  0  0  0  0  0  0
   -1.3170   24.9900  -28.6290 C   0  0  0  0  0  0  0  0  0  0  0  0
   -1.1830   26.2880  -29.1200 O   0  0  0  0  0  0  0  0  0  0  0  0
   -2.3590   24.1730  -29.0940 C   0  0  0  0  0  0  0  0  0  0  0  0
   -3.2550   24.7000  -30.0840 N   0  0  0  0  0  0  0  0  0  0  0  0
   -4.8280   24.0860  -30.4910 S   0  0  0  0  0  0  0  0  0  0  0  0
   -5.6300   23.7890  -29.2560 O   0  0  0  0  0  0  0  0  0  0  0  0
   -5.5530   25.1490  -31.2680 O   0  0  0  0  0  0  0  0  0  0  0  0
   -4.6680   22.6390  -31.4880 C   0  0  0  0  0  0  0  0  0  0  0  0
   -3.4330   22.3210  -32.0960 C   0  0  0  0  0  0  0  0  0  0  0  0
   -3.2950   21.1550  -32.8670 C   0  0  0  0  0  0  0  0  0  0  0  0
   -4.4020   20.3170  -33.0130 C   0  0  0  0  0  0  0  0  0  0  0  0
   -5.6100   20.6160  -32.4140 C   0  0  0  0  0  0  0  0  0  0  0  0
   -5.7680   21.7790  -31.6580 C   0  0  0  0  0  0  0  0  0  0  0  0
   -6.6180   19.5270  -32.6680 C   0  0  0  0  0  0  0  0  0  0  0  0
   -7.8210   20.0540  -33.4630 C   0  0  0  0  0  0  0  0  0  0  0  0
   -7.0490   18.8540  -31.3570 C   0  0  0  0  0  0  0  0  0  0  0  0
   -5.7770   18.5950  -33.5040 C   0  0  0  0  0  0  0  0  0  0  0  0
   -6.1740   17.4790  -33.9370 O   0  0  0  0  0  0  0  0  0  0  0  0
   -4.4600   19.0950  -33.7380 N   0  0  0  0  0  0  0  0  0  0  0  0
   -3.3210   18.3040  -34.1910 C   0  0  0  0  0  0  0  0  0  0  0  0
   -2.5050   22.8770  -28.5680 C   0  0  0  0  0  0  0  0  0  0  0  0
   -0.0517   19.7036  -26.6080 H   0  0  0  0  0  0  0  0  0  0  0  0
   -0.9189   19.2278  -28.1075 H   0  0  0  0  0  0  0  0  0  0  0  0
    0.1491   20.6721  -28.1075 H   0  0  0  0  0  0  0  0  0  0  0  0
   -1.7605   21.0012  -26.0019 H   0  0  0  0  0  0  0  0  0  0  0  0
   -3.6791   20.0711  -26.6934 H   0  0  0  0  0  0  0  0  0  0  0  0
   -3.6222   21.0856  -28.1748 H   0  0  0  0  0  0  0  0  0  0  0  0
   -2.8725   19.4532  -28.1748 H   0  0  0  0  0  0  0  0  0  0  0  0
    0.1967   22.8142  -26.4674 H   0  0  0  0  0  0  0  0  0  0  0  0
    0.4146   25.1389  -27.3302 H   0  0  0  0  0  0  0  0  0  0  0  0
   -1.2360   26.4870  -30.1110 H   0  0  0  0  0  0  0  0  0  0  0  0
   -2.5718   22.9925  -31.9644 H   0  0  0  0  0  0  0  0  0  0  0  0
   -2.3358   20.9076  -33.3452 H   0  0  0  0  0  0  0  0  0  0  0  0
   -6.7395   22.0195  -31.2015 H   0  0  0  0  0  0  0  0  0  0  0  0
   -8.6002   20.3954  -32.7657 H   0  0  0  0  0  0  0  0  0  0  0  0
   -7.5020   20.8948  -34.0965 H   0  0  0  0  0  0  0  0  0  0  0  0
   -8.2228   19.2495  -34.0965 H   0  0  0  0  0  0  0  0  0  0  0  0
   -6.6744   19.4390  -30.5041 H   0  0  0  0  0  0  0  0  0  0  0  0
   -8.1471   18.8048  -31.3138 H   0  0  0  0  0  0  0  0  0  0  0  0
   -6.6344   17.8361  -31.3138 H   0  0  0  0  0  0  0  0  0  0  0  0
   -2.7702   17.9215  -33.3190 H   0  0  0  0  0  0  0  0  0  0  0  0
   -3.6793   17.4593  -34.7978 H   0  0  0  0  0  0  0  0  0  0  0  0
   -2.6547   18.9347  -34.7978 H   0  0  0  0  0  0  0  0  0  0  0  0
   -3.3413   22.2458  -28.9030 H   0  0  0  0  0  0  0  0  0  0  0  0
  1  2  1  0
  2  3  1  0
  2  4  1  0
  4  5  2  0
  5  6  1  0
  6  7  2  0
  7  8  1  0
  7  9  1  0
  9 10  1  0
 10 11  1  0
 11 12  2  0
 11 13  2  0
 11 14  1  0
 14 15  2  0
 15 16  1  0
 16 17  2  0
 17 18  1  0
 18 19  2  0
 18 20  1  0
 20 21  1  0
 20 22  1  0
 20 23  1  0
 23 24  2  0
 23 25  1  0
 25 26  1  0
  9 27  2  0
 27  4  1  0
 19 14  1  0
 25 17  1  0
  1 28  1  0
  1 29  1  0
  1 30  1  0
  2 31  1  0
  3 32  1  0
  3 33  1  0
  3 34  1  0
  5 35  1  0
  6 36  1  0
  8 37  1  0
 15 38  1  0
 16 39  1  0
 19 40  1  0
 21 41  1  0
 21 42  1  0
 21 43  1  0
 22 44  1  0
 22 45  1  0
 22 46  1  0
 26 47  1  0
 26 48  1  0
 26 49  1  0
 27 50  1  0
M  CHG  1  10  -1
M  END
>  <UniqueID>  (23) 
23

>  <SMILES>  (23) 
CC(C)c1ccc(O)c([N-]S(=O)(=O)c2ccc3c(c2)C(C)(C)C(=O)N3C)c1

>  <Energy>  (23) 
67.60133034333974

>  <Genealogy>  (23) 
CC(C)c1ccc(O)c([N-]S(=O)(=O)c2ccc3c(c2)C(C)(C)C(=O)N3C)c1 (protonated)
CC(C)c1ccc(O)c([N-]S(=O)(=O)c2ccc3c(c2)C(C)(C)C(=O)N3C)c1 (3D coordinates assigned)
CC(C)c1ccc(O)c([N-]S(=O)(=O)c2ccc3c(c2)C(C)(C)C(=O)N3C)c1 (nonaromatic ring conformer: 67.60133034333974 kcal/mol)

>  <smiles>  (23) 
CC(C)c1ccc(O)c(NS(=O)(=O)c2ccc3c(c2)C(C)(C)C(=O)N3C)c1

>  <score_type>  (23) 
oracle

>  <origin>  (23) 
adgpu

>  <m_score__min__energy>  (23) 
-11.67

>  <m_primary>  (23) 
energy

$$$$
23:0
     RDKit          3D

 56 60  0  0  0  0  0  0  0  0999 V2000
   -1.9830   20.9420  -33.8000 C   0  0  0  0  0  0  0  0  0  0  0  0
   -3.0030   20.2140  -32.9820 C   0  0  0  0  0  0  0  0  0  0  0  0
   -2.6470   19.1930  -32.3350 O   0  0  0  0  0  0  0  0  0  0  0  0
   -4.3920   20.7120  -32.8690 C   0  0  0  0  0  0  0  0  0  0  0  0
   -4.7550   22.0000  -32.5260 C   0  0  0  0  0  0  0  0  0  0  0  0
   -3.8890   23.0530  -32.2580 O   0  0  0  0  0  0  0  0  0  0  0  0
   -6.1330   22.0540  -32.4560 C   0  0  0  0  0  0  0  0  0  0  0  0
   -6.9480   23.2700  -32.0860 C   0  0  0  0  0  0  0  0  0  0  0  0
   -6.7130   23.7630  -30.7100 N   0  0  0  0  0  0  0  0  0  0  0  0
   -6.1160   25.1030  -30.5660 C   0  0  0  0  0  0  0  0  0  0  0  0
   -4.5910   25.0570  -30.4530 C   0  0  0  0  0  0  0  0  0  0  0  0
   -4.1840   24.0770  -29.4440 N   0  0  0  0  0  0  0  0  0  0  0  0
   -3.0160   24.2940  -28.6260 C   0  0  0  0  0  0  0  0  0  0  0  0
   -2.7580   23.5030  -27.4930 C   0  0  0  0  0  0  0  0  0  0  0  0
   -1.6190   23.7520  -26.7240 C   0  0  0  0  0  0  0  0  0  0  0  0
   -0.7500   24.7830  -27.0820 C   0  0  0  0  0  0  0  0  0  0  0  0
   -1.0380   25.5560  -28.2070 C   0  0  0  0  0  0  0  0  0  0  0  0
   -2.1510   25.2990  -28.9440 N   0  0  0  0  0  0  0  0  0  0  0  0
   -4.7470   22.7270  -29.5390 C   0  0  0  0  0  0  0  0  0  0  0  0
   -6.2730   22.7770  -29.7030 C   0  0  0  0  0  0  0  0  0  0  0  0
   -6.5720   20.7560  -32.7120 C   0  0  0  0  0  0  0  0  0  0  0  0
   -7.9940   20.2710  -32.6730 C   0  0  0  0  0  0  0  0  0  0  0  0
   -5.5110   19.9530  -32.9800 N   0  0  0  0  0  0  0  0  0  0  0  0
   -5.5840   18.5800  -33.3960 C   0  0  0  0  0  0  0  0  0  0  0  0
   -4.5460   17.9280  -33.9780 N   0  0  0  0  0  0  0  0  0  0  0  0
   -4.8590   16.6270  -34.2000 C   0  0  0  0  0  0  0  0  0  0  0  0
   -4.0000   15.7000  -34.7920 C   0  0  0  0  0  0  0  0  0  0  0  0
   -4.4450   14.3770  -34.9600 C   0  0  0  0  0  0  0  0  0  0  0  0
   -5.7350   13.9990  -34.5370 C   0  0  0  0  0  0  0  0  0  0  0  0
   -6.5910   14.9400  -33.9410 C   0  0  0  0  0  0  0  0  0  0  0  0
   -6.1260   16.2430  -33.7880 C   0  0  0  0  0  0  0  0  0  0  0  0
   -6.9110   17.5630  -33.1090 S   0  0  0  0  0  0  0  0  0  0  0  0
   -1.2717   21.4497  -33.1320 H   0  0  0  0  0  0  0  0  0  0  0  0
   -1.4420   20.2247  -34.4346 H   0  0  0  0  0  0  0  0  0  0  0  0
   -2.4856   21.6868  -34.4346 H   0  0  0  0  0  0  0  0  0  0  0  0
   -6.6996   24.0786  -32.7892 H   0  0  0  0  0  0  0  0  0  0  0  0
   -8.0049   22.9695  -32.1377 H   0  0  0  0  0  0  0  0  0  0  0  0
   -6.3863   25.7058  -31.4455 H   0  0  0  0  0  0  0  0  0  0  0  0
   -6.5064   25.5443  -29.6371 H   0  0  0  0  0  0  0  0  0  0  0  0
   -4.1637   24.7741  -31.4263 H   0  0  0  0  0  0  0  0  0  0  0  0
   -4.2249   26.0503  -30.1542 H   0  0  0  0  0  0  0  0  0  0  0  0
   -3.4485   22.6934  -27.2139 H   0  0  0  0  0  0  0  0  0  0  0  0
   -1.4075   23.1361  -25.8374 H   0  0  0  0  0  0  0  0  0  0  0  0
    0.1514   24.9840  -26.4844 H   0  0  0  0  0  0  0  0  0  0  0  0
   -0.3635   26.3747  -28.4981 H   0  0  0  0  0  0  0  0  0  0  0  0
   -4.3085   22.2148  -30.4081 H   0  0  0  0  0  0  0  0  0  0  0  0
   -4.5119   22.1834  -28.6120 H   0  0  0  0  0  0  0  0  0  0  0  0
   -6.6254   21.7812  -30.0101 H   0  0  0  0  0  0  0  0  0  0  0  0
   -6.6980   23.0827  -28.7356 H   0  0  0  0  0  0  0  0  0  0  0  0
   -8.3154   20.1614  -31.6267 H   0  0  0  0  0  0  0  0  0  0  0  0
   -8.6436   20.9984  -33.1819 H   0  0  0  0  0  0  0  0  0  0  0  0
   -8.0637   19.2983  -33.1819 H   0  0  0  0  0  0  0  0  0  0  0  0
   -2.9938   15.9988  -35.1210 H   0  0  0  0  0  0  0  0  0  0  0  0
   -3.7821   13.6322  -35.4246 H   0  0  0  0  0  0  0  0  0  0  0  0
   -6.0735   12.9614  -34.6743 H   0  0  0  0  0  0  0  0  0  0  0  0
   -7.5991   14.6555  -33.6051 H   0  0  0  0  0  0  0  0  0  0  0  0
  1  2  1  0
  2  3  2  0
  2  4  1  0
  4  5  2  0
  5  6  1  0
  5  7  1  0
  7  8  1  0
  8  9  1  0
  9 10  1  0
 10 11  1  0
 11 12  1  0
 12 13  1  0
 13 14  2  0
 14 15  1  0
 15 16  2  0
 16 17  1  0
 17 18  2  0
 12 19  1  0
 19 20  1  0
  7 21  2  0
 21 22  1  0
 21 23  1  0
 23 24  1  0
 24 25  2  0
 25 26  1  0
 26 27  2  0
 27 28  1  0
 28 29  2  0
 29 30  1  0
 30 31  2  0
 31 32  1  0
 23  4  1  0
 32 24  1  0
 20  9  1  0
 31 26  1  0
 18 13  1  0
  1 33  1  0
  1 34  1  0
  1 35  1  0
  8 36  1  0
  8 37  1  0
 10 38  1  0
 10 39  1  0
 11 40  1  0
 11 41  1  0
 14 42  1  0
 15 43  1  0
 16 44  1  0
 17 45  1  0
 19 46  1  0
 19 47  1  0
 20 48  1  0
 20 49  1  0
 22 50  1  0
 22 51  1  0
 22 52  1  0
 27 53  1  0
 28 54  1  0
 29 55  1  0
 30 56  1  0
M  CHG  1   6  -1
M  END
>  <UniqueID>  (24) 
24

>  <SMILES>  (24) 
CC(=O)c1c([O-])c(CN2CCN(c3ccccn3)CC2)c(C)n1-c1nc2ccccc2s1

>  <Energy>  (24) 
142.26148594365995

>  <Genealogy>  (24) 
CC(=O)c1c([O-])c(CN2CCN(c3ccccn3)CC2)c(C)n1-c1nc2ccccc2s1 (protonated)
CC(=O)c1c([O-])c(CN2CCN(c3ccccn3)CC2)c(C)n1-c1nc2ccccc2s1 (3D coordinates assigned)
CC(=O)c1c([O-])c(CN2CCN(c3ccccn3)CC2)c(C)n1-c1nc2ccccc2s1 (nonaromatic ring conformer: 142.26148594365995 kcal/mol)

>  <smiles>  (24) 
CC(=O)c1c(O)c(CN2CCN(c3ccccn3)CC2)c(C)n1-c1nc2ccccc2s1

>  <score_type>  (24) 
oracle

>  <origin>  (24) 
adgpu

>  <m_score__min__energy>  (24) 
-12.41

>  <m_primary>  (24) 
energy

$$$$
24:0
     RDKit          3D

 40 43  0  0  0  0  0  0  0  0999 V2000
   -5.7400   18.4370  -34.6480 C   0  0  0  0  0  0  0  0  0  0  0  0
   -5.9210   19.6730  -33.8320 C   0  0  0  0  0  0  0  0  0  0  0  0
   -4.8790   20.3870  -33.3300 N   0  0  0  0  0  0  0  0  0  0  0  0
   -5.4960   21.3520  -32.6250 C   0  0  0  0  0  0  0  0  0  0  0  0
   -4.9050   22.3660  -31.8760 C   0  0  0  0  0  0  0  0  0  0  0  0
   -5.7550   23.2400  -31.1620 C   0  0  0  0  0  0  0  0  0  0  0  0
   -5.0730   24.4740  -30.0950 S   0  0  0  0  0  0  0  0  0  0  0  0
   -3.9630   25.1870  -30.8180 O   0  0  0  0  0  0  0  0  0  0  0  0
   -6.1480   25.4820  -29.7970 O   0  0  0  0  0  0  0  0  0  0  0  0
   -4.4860   23.8250  -28.5710 N   0  0  0  0  0  0  0  0  0  0  0  0
   -3.3210   24.5470  -28.0280 C   0  0  0  0  0  0  0  0  0  0  0  0
   -2.0500   24.3460  -28.8660 C   0  0  0  0  0  0  0  0  0  0  0  0
   -1.9020   22.9400  -29.3890 C   0  0  0  0  0  0  0  0  0  0  0  0
   -0.7200   22.5820  -30.0570 C   0  0  0  0  0  0  0  0  0  0  0  0
   -0.5830   21.3110  -30.6200 C   0  0  0  0  0  0  0  0  0  0  0  0
   -1.6230   20.3850  -30.5190 C   0  0  0  0  0  0  0  0  0  0  0  0
   -2.8050   20.7300  -29.8600 C   0  0  0  0  0  0  0  0  0  0  0  0
   -2.9630   22.0120  -29.3110 C   0  0  0  0  0  0  0  0  0  0  0  0
   -4.2540   22.3720  -28.6150 C   0  0  0  0  0  0  0  0  0  0  0  0
   -7.1630   23.0980  -31.2690 C   0  0  0  0  0  0  0  0  0  0  0  0
   -7.7230   22.0640  -32.0400 C   0  0  0  0  0  0  0  0  0  0  0  0
   -6.8470   21.2060  -32.6980 C   0  0  0  0  0  0  0  0  0  0  0  0
   -7.1370   20.1420  -33.4560 N   0  0  0  0  0  0  0  0  0  0  0  0
   -5.6133   17.5721  -33.9803 H   0  0  0  0  0  0  0  0  0  0  0  0
   -6.6253   18.2837  -35.2827 H   0  0  0  0  0  0  0  0  0  0  0  0
   -4.8479   18.5440  -35.2827 H   0  0  0  0  0  0  0  0  0  0  0  0
   -3.8118   22.4829  -31.8413 H   0  0  0  0  0  0  0  0  0  0  0  0
   -3.5561   25.6212  -27.9989 H   0  0  0  0  0  0  0  0  0  0  0  0
   -3.1216   24.1444  -27.0239 H   0  0  0  0  0  0  0  0  0  0  0  0
   -2.0824   25.0362  -29.7219 H   0  0  0  0  0  0  0  0  0  0  0  0
   -1.1899   24.5437  -28.2094 H   0  0  0  0  0  0  0  0  0  0  0  0
    0.1033   23.3070  -30.1375 H   0  0  0  0  0  0  0  0  0  0  0  0
    0.3455   21.0393  -31.1436 H   0  0  0  0  0  0  0  0  0  0  0  0
   -1.5113   19.3830  -30.9588 H   0  0  0  0  0  0  0  0  0  0  0  0
   -3.6166   19.9929  -29.7707 H   0  0  0  0  0  0  0  0  0  0  0  0
   -5.0884   21.8979  -29.1526 H   0  0  0  0  0  0  0  0  0  0  0  0
   -4.1848   22.0136  -27.5773 H   0  0  0  0  0  0  0  0  0  0  0  0
   -7.8229   23.8039  -30.7435 H   0  0  0  0  0  0  0  0  0  0  0  0
   -8.8128   21.9380  -32.1200 H   0  0  0  0  0  0  0  0  0  0  0  0
   -8.0790   19.7550  -33.6900 H   0  0  0  0  0  0  0  0  0  0  0  0
  1  2  1  0
  2  3  2  0
  3  4  1  0
  4  5  2  0
  5  6  1  0
  6  7  1  0
  7  8  2  0
  7  9  2  0
  7 10  1  0
 10 11  1  0
 11 12  1  0
 12 13  1  0
 13 14  2  0
 14 15  1  0
 15 16  2  0
 16 17  1  0
 17 18  2  0
 18 19  1  0
  6 20  2  0
 20 21  1  0
 21 22  2  0
 22 23  1  0
 23  2  1  0
 22  4  1  0
 19 10  1  0
 18 13  1  0
  1 24  1  0
  1 25  1  0
  1 26  1  0
  5 27  1  0
 11 28  1  0
 11 29  1  0
 12 30  1  0
 12 31  1  0
 14 32  1  0
 15 33  1  0
 16 34  1  0
 17 35  1  0
 19 36  1  0
 19 37  1  0
 20 38  1  0
 21 39  1  0
 23 40  1  0
M  END
>  <UniqueID>  (25) 
25

>  <SMILES>  (25) 
Cc1nc2cc(S(=O)(=O)N3CCc4ccccc4C3)ccc2[nH]1

>  <Energy>  (25) 
81.23667434716197

>  <Genealogy>  (25) 
Cc1nc2cc(S(=O)(=O)N3CCc4ccccc4C3)ccc2[nH]1 (3D coordinates assigned)
Cc1nc2cc(S(=O)(=O)N3CCc4ccccc4C3)ccc2[nH]1 (nonaromatic ring conformer: 81.23667434716197 kcal/mol)

>  <smiles>  (25) 
Cc1nc2cc(S(=O)(=O)N3CCc4ccccc4C3)ccc2[nH]1

>  <score_type>  (25) 
oracle

>  <origin>  (25) 
adgpu

>  <m_score__min__energy>  (25) 
-8.9199999999999999

>  <m_primary>  (25) 
energy

$$$$
25:0
     RDKit          3D

 48 50  0  0  0  0  0  0  0  0999 V2000
   -4.1690   25.6660  -30.8500 N   0  0  0  0  0  0  0  0  0  0  0  0
   -4.2700   24.3910  -29.6870 S   0  0  0  0  0  0  0  0  0  0  0  0
   -5.0240   23.2470  -30.3050 O   0  0  0  0  0  0  0  0  0  0  0  0
   -5.0070   24.8860  -28.4740 O   0  0  0  0  0  0  0  0  0  0  0  0
   -2.6430   23.8680  -29.2250 C   0  0  0  0  0  0  0  0  0  0  0  0
   -1.9270   24.6290  -28.2870 C   0  0  0  0  0  0  0  0  0  0  0  0
   -0.6130   24.2910  -27.9530 C   0  0  0  0  0  0  0  0  0  0  0  0
    0.0020   23.1940  -28.5570 C   0  0  0  0  0  0  0  0  0  0  0  0
   -0.7020   22.4210  -29.4830 C   0  0  0  0  0  0  0  0  0  0  0  0
   -2.0300   22.7330  -29.8070 C   0  0  0  0  0  0  0  0  0  0  0  0
   -2.7260   21.8970  -30.7400 N   0  0  0  0  0  0  0  0  0  0  0  0
   -2.0510   21.2600  -31.8350 C   0  0  0  0  0  0  0  0  0  0  0  0
   -0.8830   21.6230  -32.1450 O   0  0  0  0  0  0  0  0  0  0  0  0
   -2.7180   20.1940  -32.6210 C   0  0  0  0  0  0  0  0  0  0  0  0
   -1.9880   19.4470  -33.5620 C   0  0  0  0  0  0  0  0  0  0  0  0
   -2.6100   18.4360  -34.2990 C   0  0  0  0  0  0  0  0  0  0  0  0
   -3.9660   18.1570  -34.1080 C   0  0  0  0  0  0  0  0  0  0  0  0
   -4.5450   17.1630  -34.8260 F   0  0  0  0  0  0  0  0  0  0  0  0
   -4.7090   18.8930  -33.1720 C   0  0  0  0  0  0  0  0  0  0  0  0
   -6.4180   18.5410  -32.9060 S   0  0  0  0  0  0  0  0  0  0  0  0
   -6.8790   17.4930  -33.8810 O   0  0  0  0  0  0  0  0  0  0  0  0
   -6.5870   18.0260  -31.5040 O   0  0  0  0  0  0  0  0  0  0  0  0
   -7.3710   19.9900  -33.1240 N   0  0  0  0  0  0  0  0  0  0  0  0
   -8.7780   19.7750  -32.6960 C   0  0  0  0  0  0  0  0  0  0  0  0
   -9.0940   20.4020  -31.3310 C   0  0  0  0  0  0  0  0  0  0  0  0
   -8.8210   21.9150  -31.3360 C   0  0  0  0  0  0  0  0  0  0  0  0
   -7.6630   22.3070  -32.2690 C   0  0  0  0  0  0  0  0  0  0  0  0
   -6.6980   21.1360  -32.4740 C   0  0  0  0  0  0  0  0  0  0  0  0
   -4.0780   19.8980  -32.4240 C   0  0  0  0  0  0  0  0  0  0  0  0
   -3.1880   25.6730  -31.2110 H   0  0  0  0  0  0  0  0  0  0  0  0
   -2.4044   25.4983  -27.8112 H   0  0  0  0  0  0  0  0  0  0  0  0
   -0.0628   24.8906  -27.2129 H   0  0  0  0  0  0  0  0  0  0  0  0
    1.0414   22.9379  -28.3039 H   0  0  0  0  0  0  0  0  0  0  0  0
   -0.2109   21.5610  -29.9617 H   0  0  0  0  0  0  0  0  0  0  0  0
   -3.7680   21.9480  -30.7550 H   0  0  0  0  0  0  0  0  0  0  0  0
   -0.9203   19.6598  -33.7191 H   0  0  0  0  0  0  0  0  0  0  0  0
   -2.0299   17.8572  -35.0327 H   0  0  0  0  0  0  0  0  0  0  0  0
   -9.4450   20.2204  -33.4488 H   0  0  0  0  0  0  0  0  0  0  0  0
   -8.9303   18.6897  -32.6019 H   0  0  0  0  0  0  0  0  0  0  0  0
  -10.1543   20.2298  -31.0941 H   0  0  0  0  0  0  0  0  0  0  0  0
   -8.4461   19.9342  -30.5751 H   0  0  0  0  0  0  0  0  0  0  0  0
   -9.7315   22.4356  -31.6676 H   0  0  0  0  0  0  0  0  0  0  0  0
   -8.5359   22.2042  -30.3137 H   0  0  0  0  0  0  0  0  0  0  0  0
   -8.0737   22.6086  -33.2438 H   0  0  0  0  0  0  0  0  0  0  0  0
   -7.1097   23.1384  -31.8079 H   0  0  0  0  0  0  0  0  0  0  0  0
   -5.8626   21.4674  -33.1083 H   0  0  0  0  0  0  0  0  0  0  0  0
   -6.3341   20.8104  -31.4883 H   0  0  0  0  0  0  0  0  0  0  0  0
   -4.6540   20.4609  -31.6747 H   0  0  0  0  0  0  0  0  0  0  0  0
  1  2  1  0
  2  3  2  0
  2  4  2  0
  2  5  1  0
  5  6  2  0
  6  7  1  0
  7  8  2  0
  8  9  1  0
  9 10  2  0
 10 11  1  0
 11 12  1  0
 12 13  2  0
 12 14  1  0
 14 15  2  0
 15 16  1  0
 16 17  2  0
 17 18  1  0
 17 19  1  0
 19 20  1  0
 20 21  2  0
 20 22  2  0
 20 23  1  0
 23 24  1  0
 24 25  1  0
 25 26  1  0
 26 27  1  0
 27 28  1  0
 19 29  2  0
 10  5  1  0
 29 14  1  0
 28 23  1  0
  1 30  1  0
  6 31  1  0
  7 32  1  0
  8 33  1  0
  9 34  1  0
 11 35  1  0
 15 36  1  0
 16 37  1  0
 24 38  1  0
 24 39  1  0
 25 40  1  0
 25 41  1  0
 26 42  1  0
 26 43  1  0
 27 44  1  0
 27 45  1  0
 28 46  1  0
 28 47  1  0
 29 48  1  0
M  CHG  1   1  -1
M  END
>  <UniqueID>  (26) 
26

>  <SMILES>  (26) 
[NH-]S(=O)(=O)c1ccccc1NC(=O)c1ccc(F)c(S(=O)(=O)N2CCCCC2)c1

>  <Energy>  (26) 
63.46947859424397

>  <Genealogy>  (26) 
[NH-]S(=O)(=O)c1ccccc1NC(=O)c1ccc(F)c(S(=O)(=O)N2CCCCC2)c1 (protonated)
[NH-]S(=O)(=O)c1ccccc1NC(=O)c1ccc(F)c(S(=O)(=O)N2CCCCC2)c1 (3D coordinates assigned)
[NH-]S(=O)(=O)c1ccccc1NC(=O)c1ccc(F)c(S(=O)(=O)N2CCCCC2)c1 (nonaromatic ring conformer: 63.46947859424397 kcal/mol)

>  <smiles>  (26) 
NS(=O)(=O)c1ccccc1NC(=O)c1ccc(F)c(S(=O)(=O)N2CCCCC2)c1

>  <score_type>  (26) 
oracle

>  <origin>  (26) 
adgpu

>  <m_score__min__energy>  (26) 
-11.5

>  <m_primary>  (26) 
energy

$$$$
26:0
     RDKit          3D

 48 50  0  0  0  0  0  0  0  0999 V2000
   -5.6460   14.2560  -34.2900 C   0  0  0  0  0  0  0  0  0  0  0  0
   -5.5100   15.7410  -33.9550 C   0  0  2  0  0  0  0  0  0  0  0  0
   -6.8930   16.4200  -34.0100 C   0  0  0  0  0  0  0  0  0  0  0  0
   -6.8000   17.8700  -33.7890 N   0  0  0  0  0  0  0  0  0  0  0  0
   -6.7910   18.3130  -32.0920 S   0  0  0  0  0  0  0  0  0  0  0  0
   -8.1860   18.5390  -31.5760 O   0  0  0  0  0  0  0  0  0  0  0  0
   -6.1400   17.2490  -31.2520 O   0  0  0  0  0  0  0  0  0  0  0  0
   -5.8730   19.8060  -31.9280 C   0  0  0  0  0  0  0  0  0  0  0  0
   -4.6310   19.7970  -31.2820 C   0  0  0  0  0  0  0  0  0  0  0  0
   -3.8890   20.9760  -31.1690 C   0  0  0  0  0  0  0  0  0  0  0  0
   -4.3680   22.1730  -31.7160 C   0  0  0  0  0  0  0  0  0  0  0  0
   -3.5830   23.3630  -31.5610 N   0  0  0  0  0  0  0  0  0  0  0  0
   -3.5010   24.1850  -30.3870 C   0  0  0  0  0  0  0  0  0  0  0  0
   -3.9440   25.3630  -30.4060 O   0  0  0  0  0  0  0  0  0  0  0  0
   -2.7920   23.6790  -29.1910 C   0  0  0  0  0  0  0  0  0  0  0  0
   -3.2940   22.5370  -28.5410 C   0  0  0  0  0  0  0  0  0  0  0  0
   -2.6190   21.9830  -27.4510 C   0  0  0  0  0  0  0  0  0  0  0  0
   -1.4360   22.5630  -26.9940 C   0  0  0  0  0  0  0  0  0  0  0  0
   -0.9330   23.7060  -27.6150 C   0  0  0  0  0  0  0  0  0  0  0  0
   -1.6090   24.2860  -28.6970 C   0  0  0  0  0  0  0  0  0  0  0  0
   -1.0940   25.4710  -29.2270 O   0  0  0  0  0  0  0  0  0  0  0  0
   -5.6240   22.1830  -32.3510 C   0  0  0  0  0  0  0  0  0  0  0  0
   -6.3650   21.0040  -32.4640 C   0  0  0  0  0  0  0  0  0  0  0  0
   -5.7450   18.5060  -34.5960 C   0  0  0  0  0  0  0  0  0  0  0  0
   -4.4200   17.7100  -34.6290 C   0  0  1  0  0  0  0  0  0  0  0  0
   -3.5060   17.9640  -33.4200 C   0  0  0  0  0  0  0  0  0  0  0  0
   -4.6180   16.3280  -34.8830 O   0  0  0  0  0  0  0  0  0  0  0  0
   -5.6994   13.6734  -33.3585 H   0  0  0  0  0  0  0  0  0  0  0  0
   -6.5627   14.0948  -34.8763 H   0  0  0  0  0  0  0  0  0  0  0  0
   -4.7739   13.9310  -34.8763 H   0  0  0  0  0  0  0  0  0  0  0  0
   -5.1128   15.8709  -32.9375 H   0  0  0  0  0  0  0  0  0  0  0  0
   -7.3392   16.2388  -34.9989 H   0  0  0  0  0  0  0  0  0  0  0  0
   -7.5152   15.9921  -33.2102 H   0  0  0  0  0  0  0  0  0  0  0  0
   -4.2380   18.8593  -30.8622 H   0  0  0  0  0  0  0  0  0  0  0  0
   -2.9212   20.9637  -30.6463 H   0  0  0  0  0  0  0  0  0  0  0  0
   -4.2278   22.0756  -28.8948 H   0  0  0  0  0  0  0  0  0  0  0  0
   -3.0208   21.0885  -26.9526 H   0  0  0  0  0  0  0  0  0  0  0  0
   -0.8991   22.1186  -26.1430 H   0  0  0  0  0  0  0  0  0  0  0  0
    0.0028   24.1563  -27.2523 H   0  0  0  0  0  0  0  0  0  0  0  0
   -1.6110   26.0680  -29.8590 H   0  0  0  0  0  0  0  0  0  0  0  0
   -6.0238   23.1227  -32.7599 H   0  0  0  0  0  0  0  0  0  0  0  0
   -7.3386   21.0160  -32.9758 H   0  0  0  0  0  0  0  0  0  0  0  0
   -6.1127   18.6104  -35.6274 H   0  0  0  0  0  0  0  0  0  0  0  0
   -5.5243   19.4765  -34.1276 H   0  0  0  0  0  0  0  0  0  0  0  0
   -3.8690   18.1128  -35.4917 H   0  0  0  0  0  0  0  0  0  0  0  0
   -4.0740   17.8061  -32.4913 H   0  0  0  0  0  0  0  0  0  0  0  0
   -2.6544   17.2685  -33.4516 H   0  0  0  0  0  0  0  0  0  0  0  0
   -3.1353   18.9992  -33.4516 H   0  0  0  0  0  0  0  0  0  0  0  0
  1  2  1  0
  2  3  1  0
  3  4  1  0
  4  5  1  0
  5  6  2  0
  5  7  2  0
  5  8  1  0
  8  9  2  0
  9 10  1  0
 10 11  2  0
 11 12  1  0
 12 13  1  0
 13 14  2  0
 13 15  1  0
 15 16  2  0
 16 17  1  0
 17 18  2  0
 18 19  1  0
 19 20  2  0
 20 21  1  0
 11 22  1  0
 22 23  2  0
  4 24  1  0
 24 25  1  0
 25 26  1  0
 25 27  1  0
 27  2  1  0
 23  8  1  0
 20 15  1  0
  1 28  1  0
  1 29  1  0
  1 30  1  0
  2 31  1  1
  3 32  1  0
  3 33  1  0
  9 34  1  0
 10 35  1  0
 16 36  1  0
 17 37  1  0
 18 38  1  0
 19 39  1  0
 21 40  1  0
 22 41  1  0
 23 42  1  0
 24 43  1  0
 24 44  1  0
 25 45  1  6
 26 46  1  0
 26 47  1  0
 26 48  1  0
M  CHG  1  12  -1
M  END
>  <UniqueID>  (27) 
27

>  <SMILES>  (27) 
C[C@@H]1CN(S(=O)(=O)c2ccc([N-]C(=O)c3ccccc3O)cc2)C[C@@H](C)O1

>  <Energy>  (27) 
65.71726739936734

>  <Genealogy>  (27) 
CC1CN(S(=O)(=O)c2ccc([N-]C(=O)c3ccccc3O)cc2)CC(C)O1 (protonated)
C[C@@H]1CN(S(=O)(=O)c2ccc([N-]C(=O)c3ccccc3O)cc2)C[C@@H](C)O1 (chirality)
C[C@@H]1CN(S(=O)(=O)c2ccc([N-]C(=O)c3ccccc3O)cc2)C[C@@H](C)O1 (3D coordinates assigned)
C[C@@H]1CN(S(=O)(=O)c2ccc([N-]C(=O)c3ccccc3O)cc2)C[C@@H](C)O1 (nonaromatic ring conformer: 65.71726739936734 kcal/mol)

>  <smiles>  (27) 
CC1CN(S(=O)(=O)c2ccc(NC(=O)c3ccccc3O)cc2)CC(C)O1

>  <score_type>  (27) 
oracle

>  <origin>  (27) 
adgpu

>  <m_score__min__energy>  (27) 
-10.26

>  <m_primary>  (27) 
energy

$$$$
27:0
     RDKit          3D

 50 53  0  0  0  0  0  0  0  0999 V2000
   -5.7600   26.4170  -30.5960 O   0  0  0  0  0  0  0  0  0  0  0  0
   -5.1500   25.3180  -30.6810 C   0  0  0  0  0  0  0  0  0  0  0  0
   -3.7360   25.2940  -30.4310 N   0  0  0  0  0  0  0  0  0  0  0  0
   -3.0740   24.3800  -29.5460 C   0  0  0  0  0  0  0  0  0  0  0  0
   -3.1990   24.4960  -28.1510 C   0  0  0  0  0  0  0  0  0  0  0  0
   -2.4750   23.6510  -27.3070 C   0  0  0  0  0  0  0  0  0  0  0  0
   -1.6280   22.6750  -27.8480 C   0  0  0  0  0  0  0  0  0  0  0  0
   -0.5980   21.7090  -26.7960 S   0  0  0  0  0  0  0  0  0  0  0  0
   -1.4170   21.0170  -25.7420 O   0  0  0  0  0  0  0  0  0  0  0  0
    0.1060   20.6680  -27.6190 O   0  0  0  0  0  0  0  0  0  0  0  0
    0.5790   22.7330  -26.0380 N   0  0  0  0  0  0  0  0  0  0  0  0
    1.1830   23.7010  -26.6560 C   0  0  0  0  0  0  0  0  0  0  0  0
    2.1350   24.5180  -26.0940 C   0  0  0  0  0  0  0  0  0  0  0  0
    2.4860   25.3540  -27.1320 C   0  0  0  0  0  0  0  0  0  0  0  0
    1.7770   25.0290  -28.1920 O   0  0  0  0  0  0  0  0  0  0  0  0
    0.9770   24.0330  -27.9440 N   0  0  0  0  0  0  0  0  0  0  0  0
   -1.5420   22.5250  -29.2380 C   0  0  0  0  0  0  0  0  0  0  0  0
   -2.2730   23.3660  -30.0820 C   0  0  0  0  0  0  0  0  0  0  0  0
   -5.9080   24.0860  -31.0030 C   0  0  0  0  0  0  0  0  0  0  0  0
   -5.6740   23.4080  -32.2110 C   0  0  0  0  0  0  0  0  0  0  0  0
   -6.3580   22.2240  -32.5020 C   0  0  0  0  0  0  0  0  0  0  0  0
   -7.2870   21.7030  -31.5900 C   0  0  0  0  0  0  0  0  0  0  0  0
   -8.1500   20.2120  -31.9500 S   0  0  0  0  0  0  0  0  0  0  0  0
   -9.0850   20.4480  -33.1020 O   0  0  0  0  0  0  0  0  0  0  0  0
   -8.9610   19.7950  -30.7540 O   0  0  0  0  0  0  0  0  0  0  0  0
   -7.0020   18.9670  -32.3780 N   0  0  0  0  0  0  0  0  0  0  0  0
   -7.6520   17.6610  -32.4830 C   0  0  0  0  0  0  0  0  0  0  0  0
   -6.8280   16.8450  -33.4660 C   0  0  0  0  0  0  0  0  0  0  0  0
   -6.0290   17.8630  -34.2650 C   0  0  0  0  0  0  0  0  0  0  0  0
   -6.4130   19.2200  -33.6930 C   0  0  0  0  0  0  0  0  0  0  0  0
   -7.5490   22.3930  -30.4000 C   0  0  0  0  0  0  0  0  0  0  0  0
   -6.8690   23.5780  -30.1100 C   0  0  0  0  0  0  0  0  0  0  0  0
   -3.8696   25.2552  -27.7222 H   0  0  0  0  0  0  0  0  0  0  0  0
   -2.5700   23.7520  -26.2158 H   0  0  0  0  0  0  0  0  0  0  0  0
    2.5229   24.5072  -25.0647 H   0  0  0  0  0  0  0  0  0  0  0  0
    3.2342   26.1589  -27.0827 H   0  0  0  0  0  0  0  0  0  0  0  0
   -0.8975   21.7433  -29.6666 H   0  0  0  0  0  0  0  0  0  0  0  0
   -2.2182   23.2299  -31.1722 H   0  0  0  0  0  0  0  0  0  0  0  0
   -4.9481   23.8113  -32.9324 H   0  0  0  0  0  0  0  0  0  0  0  0
   -6.1668   21.6993  -33.4497 H   0  0  0  0  0  0  0  0  0  0  0  0
   -7.6709   17.1662  -31.5008 H   0  0  0  0  0  0  0  0  0  0  0  0
   -8.6928   17.7616  -32.8246 H   0  0  0  0  0  0  0  0  0  0  0  0
   -6.1534   16.1620  -32.9289 H   0  0  0  0  0  0  0  0  0  0  0  0
   -7.4624   16.2227  -34.1142 H   0  0  0  0  0  0  0  0  0  0  0  0
   -4.9501   17.6859  -34.1437 H   0  0  0  0  0  0  0  0  0  0  0  0
   -6.2452   17.7977  -35.3416 H   0  0  0  0  0  0  0  0  0  0  0  0
   -5.5212   19.8562  -33.5935 H   0  0  0  0  0  0  0  0  0  0  0  0
   -7.1223   19.7422  -34.3519 H   0  0  0  0  0  0  0  0  0  0  0  0
   -8.2929   22.0004  -29.6912 H   0  0  0  0  0  0  0  0  0  0  0  0
   -7.0864   24.1179  -29.1766 H   0  0  0  0  0  0  0  0  0  0  0  0
  1  2  2  0
  2  3  1  0
  3  4  1  0
  4  5  2  0
  5  6  1  0
  6  7  2  0
  7  8  1  0
  8  9  2  0
  8 10  2  0
  8 11  1  0
 11 12  2  3
 12 13  1  0
 13 14  2  0
 14 15  1  0
 15 16  1  0
  7 17  1  0
 17 18  2  0
  2 19  1  0
 19 20  2  0
 20 21  1  0
 21 22  2  0
 22 23  1  0
 23 24  2  0
 23 25  2  0
 23 26  1  0
 26 27  1  0
 27 28  1  0
 28 29  1  0
 29 30  1  0
 22 31  1  0
 31 32  2  0
 18  4  1  0
 32 19  1  0
 16 12  1  0
 30 26  1  0
  5 33  1  0
  6 34  1  0
 13 35  1  0
 14 36  1  0
 17 37  1  0
 18 38  1  0
 20 39  1  0
 21 40  1  0
 27 41  1  0
 27 42  1  0
 28 43  1  0
 28 44  1  0
 29 45  1  0
 29 46  1  0
 30 47  1  0
 30 48  1  0
 31 49  1  0
 32 50  1  0
M  CHG  2   3  -1  16  -1
M  END
>  <UniqueID>  (28) 
28

>  <SMILES>  (28) 
O=C([N-]c1ccc(S(=O)(=O)N=c2cco[n-]2)cc1)c1ccc(S(=O)(=O)N2CCCC2)cc1

>  <Energy>  (28) 
93.67974909012067

>  <Genealogy>  (28) 
O=C([N-]c1ccc(S(=O)(=O)N=c2cco[n-]2)cc1)c1ccc(S(=O)(=O)N2CCCC2)cc1 (protonated)
O=C([N-]c1ccc(S(=O)(=O)N=c2cco[n-]2)cc1)c1ccc(S(=O)(=O)N2CCCC2)cc1 (3D coordinates assigned)
O=C([N-]c1ccc(S(=O)(=O)N=c2cco[n-]2)cc1)c1ccc(S(=O)(=O)N2CCCC2)cc1 (nonaromatic ring conformer: 93.67974909012067 kcal/mol)

>  <smiles>  (28) 
O=C(Nc1ccc(S(=O)(=O)N=c2cco[nH]2)cc1)c1ccc(S(=O)(=O)N2CCCC2)cc1

>  <score_type>  (28) 
oracle

>  <origin>  (28) 
adgpu

>  <m_score__min__energy>  (28) 
-12.880000000000001

>  <m_primary>  (28) 
energy

$$$$
28:0
     RDKit          3D

 50 53  0  0  0  0  0  0  0  0999 V2000
   -0.4220   25.2680  -28.5210 O   0  0  0  0  0  0  0  0  0  0  0  0
   -1.4070   24.6120  -28.9540 C   0  0  0  0  0  0  0  0  0  0  0  0
   -1.3450   23.2180  -29.0350 C   0  0  0  0  0  0  0  0  0  0  0  0
   -2.4440   22.5060  -29.5190 C   0  0  0  0  0  0  0  0  0  0  0  0
   -3.5900   23.1890  -29.9270 C   0  0  0  0  0  0  0  0  0  0  0  0
   -4.6990   22.5050  -30.4450 C   0  0  0  0  0  0  0  0  0  0  0  0
   -5.8240   23.2250  -30.8870 C   0  0  0  0  0  0  0  0  0  0  0  0
   -7.1870   22.3600  -31.5890 S   0  0  0  0  0  0  0  0  0  0  0  0
   -8.4620   23.0340  -31.1640 O   0  0  0  0  0  0  0  0  0  0  0  0
   -7.1020   22.3660  -33.0890 O   0  0  0  0  0  0  0  0  0  0  0  0
   -7.1920   20.7280  -31.0040 N   0  0  0  0  0  0  0  0  0  0  0  0
   -6.7640   19.5970  -31.7760 C   0  0  0  0  0  0  0  0  0  0  0  0
   -5.4520   19.5010  -32.2740 C   0  0  0  0  0  0  0  0  0  0  0  0
   -5.0640   18.3920  -33.0420 C   0  0  0  0  0  0  0  0  0  0  0  0
   -3.4500   18.3250  -33.7550 S   0  0  0  0  0  0  0  0  0  0  0  0
   -2.6050   17.3610  -32.9690 O   0  0  0  0  0  0  0  0  0  0  0  0
   -3.5500   17.8080  -35.1650 O   0  0  0  0  0  0  0  0  0  0  0  0
   -2.6800   19.8920  -33.7770 N   0  0  0  0  0  0  0  0  0  0  0  0
   -1.3970   19.8370  -34.5090 C   0  0  0  0  0  0  0  0  0  0  0  0
   -0.5630   21.0900  -34.2420 C   0  0  0  0  0  0  0  0  0  0  0  0
   -0.1750   21.1750  -32.7560 C   0  0  0  0  0  0  0  0  0  0  0  0
   -1.1820   20.4750  -31.8320 C   0  0  0  0  0  0  0  0  0  0  0  0
   -2.5990   20.4880  -32.4200 C   0  0  0  0  0  0  0  0  0  0  0  0
   -5.9790   17.3540  -33.2740 C   0  0  0  0  0  0  0  0  0  0  0  0
   -7.2840   17.4430  -32.7820 C   0  0  0  0  0  0  0  0  0  0  0  0
   -7.6860   18.5710  -32.0510 C   0  0  0  0  0  0  0  0  0  0  0  0
   -8.9980   18.6760  -31.5920 O   0  0  0  0  0  0  0  0  0  0  0  0
   -5.8490   24.6230  -30.7760 C   0  0  0  0  0  0  0  0  0  0  0  0
   -4.7550   25.3110  -30.2340 C   0  0  0  0  0  0  0  0  0  0  0  0
   -3.6190   24.6020  -29.8210 C   0  0  0  0  0  0  0  0  0  0  0  0
   -2.5330   25.2680  -29.3430 N   0  0  0  0  0  0  0  0  0  0  0  0
   -0.4359   22.6852  -28.7193 H   0  0  0  0  0  0  0  0  0  0  0  0
   -2.4064   21.4083  -29.5786 H   0  0  0  0  0  0  0  0  0  0  0  0
   -4.6894   21.4067  -30.5057 H   0  0  0  0  0  0  0  0  0  0  0  0
   -4.7261   20.2994  -32.0604 H   0  0  0  0  0  0  0  0  0  0  0  0
   -0.8325   18.9518  -34.1806 H   0  0  0  0  0  0  0  0  0  0  0  0
   -1.6093   19.7789  -35.5868 H   0  0  0  0  0  0  0  0  0  0  0  0
    0.3511   21.0529  -34.8528 H   0  0  0  0  0  0  0  0  0  0  0  0
   -1.1599   21.9760  -34.5041 H   0  0  0  0  0  0  0  0  0  0  0  0
    0.8096   20.7028  -32.6232 H   0  0  0  0  0  0  0  0  0  0  0  0
   -0.1603   22.2397  -32.4802 H   0  0  0  0  0  0  0  0  0  0  0  0
   -0.8663   19.4313  -31.6868 H   0  0  0  0  0  0  0  0  0  0  0  0
   -1.2036   21.0181  -30.8757 H   0  0  0  0  0  0  0  0  0  0  0  0
   -3.2599   19.9192  -31.7494 H   0  0  0  0  0  0  0  0  0  0  0  0
   -2.9037   21.5412  -32.5094 H   0  0  0  0  0  0  0  0  0  0  0  0
   -5.6680   16.4669  -33.8452 H   0  0  0  0  0  0  0  0  0  0  0  0
   -7.9976   16.6269  -32.9683 H   0  0  0  0  0  0  0  0  0  0  0  0
   -9.2990   19.4680  -31.0350 H   0  0  0  0  0  0  0  0  0  0  0  0
   -6.7326   25.1827  -31.1164 H   0  0  0  0  0  0  0  0  0  0  0  0
   -4.7880   26.4059  -30.1329 H   0  0  0  0  0  0  0  0  0  0  0  0
  1  2  2  0
  2  3  1  0
  3  4  2  0
  4  5  1  0
  5  6  2  0
  6  7  1  0
  7  8  1  0
  8  9  2  0
  8 10  2  0
  8 11  1  0
 11 12  1  0
 12 13  2  0
 13 14  1  0
 14 15  1  0
 15 16  2  0
 15 17  2  0
 15 18  1  0
 18 19  1  0
 19 20  1  0
 20 21  1  0
 21 22  1  0
 22 23  1  0
 14 24  2  0
 24 25  1  0
 25 26  2  0
 26 27  1  0
  7 28  2  0
 28 29  1  0
 29 30  2  0
 30 31  1  0
 31  2  1  0
 30  5  1  0
 26 12  1  0
 23 18  1  0
  3 32  1  0
  4 33  1  0
  6 34  1  0
 13 35  1  0
 19 36  1  0
 19 37  1  0
 20 38  1  0
 20 39  1  0
 21 40  1  0
 21 41  1  0
 22 42  1  0
 22 43  1  0
 23 44  1  0
 23 45  1  0
 24 46  1  0
 25 47  1  0
 27 48  1  0
 28 49  1  0
 29 50  1  0
M  CHG  2  11  -1  31  -1
M  END
>  <UniqueID>  (29) 
29

>  <SMILES>  (29) 
O=c1ccc2cc(S(=O)(=O)[N-]c3cc(S(=O)(=O)N4CCCCC4)ccc3O)ccc2[n-]1

>  <Energy>  (29) 
62.49349291083537

>  <Genealogy>  (29) 
O=c1ccc2cc(S(=O)(=O)[N-]c3cc(S(=O)(=O)N4CCCCC4)ccc3O)ccc2[n-]1 (protonated)
O=c1ccc2cc(S(=O)(=O)[N-]c3cc(S(=O)(=O)N4CCCCC4)ccc3O)ccc2[n-]1 (3D coordinates assigned)
O=c1ccc2cc(S(=O)(=O)[N-]c3cc(S(=O)(=O)N4CCCCC4)ccc3O)ccc2[n-]1 (nonaromatic ring conformer: 62.49349291083537 kcal/mol)

>  <smiles>  (29) 
O=c1ccc2cc(S(=O)(=O)Nc3cc(S(=O)(=O)N4CCCCC4)ccc3O)ccc2[nH]1

>  <score_type>  (29) 
oracle

>  <origin>  (29) 
adgpu

>  <m_score__min__energy>  (29) 
-11.65

>  <m_primary>  (29) 
energy

$$$$
29:0
     RDKit          3D

 55 58  0  0  1  0  0  0  0  0999 V2000
   -6.7370   25.6630  -29.3410 C   0  0  0  0  0  0  0  0  0  0  0  0
   -5.7500   24.6060  -29.7030 C   0  0  0  0  0  0  0  0  0  0  0  0
   -4.4800   25.0110  -30.1080 C   0  0  0  0  0  0  0  0  0  0  0  0
   -3.5150   24.0830  -30.4590 C   0  0  0  0  0  0  0  0  0  0  0  0
   -3.8010   22.7170  -30.4110 C   0  0  0  0  0  0  0  0  0  0  0  0
   -2.7600   21.7660  -30.7870 C   0  0  0  0  0  0  0  0  0  0  0  0
   -1.8670   21.3080  -29.8270 C   0  0  0  0  0  0  0  0  0  0  0  0
   -0.8900   20.4060  -30.2120 C   0  0  0  0  0  0  0  0  0  0  0  0
   -0.7820   19.9630  -31.4920 N   0  0  0  0  0  0  0  0  0  0  0  0
   -1.6310   20.3970  -32.4100 C   0  0  0  0  0  0  0  0  0  0  0  0
   -1.5960   19.9740  -33.8220 C   0  0  0  0  0  0  0  0  0  0  0  0
   -1.2770   20.8120  -34.7040 O   0  0  0  0  0  0  0  0  0  0  0  0
   -1.9290   18.6210  -34.1010 N   0  0  0  0  0  0  0  0  0  0  0  0
   -3.1260   18.1940  -33.9100 C   0  0  0  0  0  0  0  0  0  0  0  0
   -4.1480   19.0200  -33.4260 C   0  0  0  0  0  0  0  0  0  0  0  0
   -5.4320   18.5390  -33.2280 C   0  0  0  0  0  0  0  0  0  0  0  0
   -6.4960   19.3850  -32.7290 C   0  0  0  0  0  0  0  0  0  0  0  0
   -7.6510   18.8600  -32.1540 C   0  0  0  0  0  0  0  0  0  0  0  0
   -8.6680   19.6700  -31.6760 C   0  0  0  0  0  0  0  0  0  0  0  0
   -8.5880   21.0420  -31.7460 C   0  0  0  0  0  0  0  0  0  0  0  0
   -9.6820   21.8950  -31.2320 C   0  0  0  0  0  0  0  0  0  0  0  0
   -7.4530   21.5770  -32.3120 C   0  0  0  0  0  0  0  0  0  0  0  0
   -7.3240   23.0690  -32.4070 C   0  0  0  0  0  0  0  0  0  0  0  0
   -6.4320   20.7610  -32.7920 C   0  0  0  0  0  0  0  0  0  0  0  0
   -5.6310   17.2420  -33.5270 N   0  0  0  0  0  0  0  0  0  0  0  0
   -4.6340   16.4410  -33.9980 C   0  0  0  0  0  0  0  0  0  0  0  0
   -4.8920   15.0240  -34.3140 C   0  0  0  0  0  0  0  0  0  0  0  0
   -3.3870   16.9050  -34.1900 N   0  0  0  0  0  0  0  0  0  0  0  0
   -2.6230   21.2950  -32.0780 C   0  0  0  0  0  0  0  0  0  0  0  0
   -5.0640   22.3260  -30.0080 C   0  0  0  0  0  0  0  0  0  0  0  0
   -6.0410   23.2620  -29.6530 C   0  0  0  0  0  0  0  0  0  0  0  0
   -6.8079   25.7389  -28.2459 H   0  0  0  0  0  0  0  0  0  0  0  0
   -6.4092   26.6280  -29.7550 H   0  0  0  0  0  0  0  0  0  0  0  0
   -7.7221   25.4020  -29.7550 H   0  0  0  0  0  0  0  0  0  0  0  0
   -4.2407   26.0839  -30.1494 H   0  0  0  0  0  0  0  0  0  0  0  0
   -2.5184   24.4230  -30.7772 H   0  0  0  0  0  0  0  0  0  0  0  0
   -1.9345   21.6539  -28.7850 H   0  0  0  0  0  0  0  0  0  0  0  0
   -0.1791   20.0364  -29.4584 H   0  0  0  0  0  0  0  0  0  0  0  0
   -3.9266   20.0731  -33.1982 H   0  0  0  0  0  0  0  0  0  0  0  0
   -7.7589   17.7680  -32.0771 H   0  0  0  0  0  0  0  0  0  0  0  0
   -9.5601   19.2058  -31.2302 H   0  0  0  0  0  0  0  0  0  0  0  0
   -9.6690   21.8849  -30.1321 H   0  0  0  0  0  0  0  0  0  0  0  0
   -9.5430   22.9255  -31.5908 H   0  0  0  0  0  0  0  0  0  0  0  0
  -10.6475   21.5089  -31.5908 H   0  0  0  0  0  0  0  0  0  0  0  0
   -7.2868   23.4990  -31.3952 H   0  0  0  0  0  0  0  0  0  0  0  0
   -6.4005   23.3235  -32.9477 H   0  0  0  0  0  0  0  0  0  0  0  0
   -8.1901   23.4782  -32.9477 H   0  0  0  0  0  0  0  0  0  0  0  0
   -5.5426   21.2308  -33.2373 H   0  0  0  0  0  0  0  0  0  0  0  0
   -6.5520   16.7790  -33.4170 H   0  0  0  0  0  0  0  0  0  0  0  0
   -4.9960   14.4530  -33.3796 H   0  0  0  0  0  0  0  0  0  0  0  0
   -5.8199   14.9419  -34.8991 H   0  0  0  0  0  0  0  0  0  0  0  0
   -4.0526   14.6201  -34.8991 H   0  0  0  0  0  0  0  0  0  0  0  0
   -3.3185   21.6429  -32.8560 H   0  0  0  0  0  0  0  0  0  0  0  0
   -5.3065   21.2539  -29.9655 H   0  0  0  0  0  0  0  0  0  0  0  0
   -7.0386   22.9248  -29.3349 H   0  0  0  0  0  0  0  0  0  0  0  0
  1  2  1  0
  2  3  2  0
  3  4  1  0
  4  5  2  0
  5  6  1  0
  6  7  2  0
  7  8  1  0
  8  9  2  0
  9 10  1  0
 10 11  1  0
 11 12  2  0
 11 13  1  0
 13 14  2  0
 14 15  1  0
 15 16  2  0
 16 17  1  0
 17 18  2  0
 18 19  1  0
 19 20  2  0
 20 21  1  0
 20 22  1  0
 22 23  1  0
 22 24  2  0
 16 25  1  0
 25 26  1  0
 26 27  1  0
 26 28  2  0
 10 29  2  0
  5 30  1  0
 30 31  2  0
 31  2  1  0
 29  6  1  0
 28 14  1  0
 24 17  1  0
  1 32  1  0
  1 33  1  0
  1 34  1  0
  3 35  1  0
  4 36  1  0
  7 37  1  0
  8 38  1  0
 15 39  1  0
 18 40  1  0
 19 41  1  0
 21 42  1  0
 21 43  1  0
 21 44  1  0
 23 45  1  0
 23 46  1  0
 23 47  1  0
 24 48  1  0
 25 49  1  0
 27 50  1  0
 27 51  1  0
 27 52  1  0
 29 53  1  0
 30 54  1  0
 31 55  1  0
M  END
>  <smiles>  (30) 
Cc1ccc(-c2ccnc(C(=O)N=c3cc(-c4ccc(C)c(C)c4)[nH]c(C)n3)c2)cc1

>  <score_type>  (30) 
oracle

>  <origin>  (30) 
adgpu

>  <m_score__min__energy>  (30) 
-10.359999999999999

>  <m_primary>  (30) 
energy

$$$$
30:0
     RDKit          3D

 32 34  0  0  0  0  0  0  0  0999 V2000
   -1.4980   26.0560  -28.9560 O   0  0  0  0  0  0  0  0  0  0  0  0
   -1.2240   24.8270  -28.9680 C   0  0  0  0  0  0  0  0  0  0  0  0
   -0.0200   24.3380  -28.6100 N   0  0  0  0  0  0  0  0  0  0  0  0
   -0.1630   23.0030  -28.7600 C   0  0  0  0  0  0  0  0  0  0  0  0
   -1.4400   22.7140  -29.2010 C   0  0  0  0  0  0  0  0  0  0  0  0
   -2.0990   23.8740  -29.3330 N   0  0  0  0  0  0  0  0  0  0  0  0
   -3.7460   24.0860  -29.8250 S   0  0  0  0  0  0  0  0  0  0  0  0
   -4.6070   24.3080  -28.6130 O   0  0  0  0  0  0  0  0  0  0  0  0
   -3.8600   25.2940  -30.7150 O   0  0  0  0  0  0  0  0  0  0  0  0
   -4.2780   22.6590  -30.7050 C   0  0  0  0  0  0  0  0  0  0  0  0
   -3.6700   21.4170  -30.4780 C   0  0  0  0  0  0  0  0  0  0  0  0
   -4.0830   20.2910  -31.1960 C   0  0  0  0  0  0  0  0  0  0  0  0
   -5.1110   20.3940  -32.1470 C   0  0  0  0  0  0  0  0  0  0  0  0
   -5.5370   19.2080  -32.9240 C   0  0  0  0  0  0  0  0  0  0  0  0
   -4.6630   18.6660  -33.8820 C   0  0  0  0  0  0  0  0  0  0  0  0
   -5.0310   17.5390  -34.6220 C   0  0  0  0  0  0  0  0  0  0  0  0
   -6.2760   16.9440  -34.4170 C   0  0  0  0  0  0  0  0  0  0  0  0
   -7.1610   17.4790  -33.4770 C   0  0  0  0  0  0  0  0  0  0  0  0
   -6.8030   18.6080  -32.7310 C   0  0  0  0  0  0  0  0  0  0  0  0
   -7.9890   19.2770  -31.6140 Cl  0  0  0  0  0  0  0  0  0  0  0  0
   -5.7020   21.6440  -32.3870 C   0  0  0  0  0  0  0  0  0  0  0  0
   -5.2890   22.7700  -31.6680 C   0  0  0  0  0  0  0  0  0  0  0  0
    0.6206   22.2572  -28.5607 H   0  0  0  0  0  0  0  0  0  0  0  0
   -1.8437   21.7117  -29.4069 H   0  0  0  0  0  0  0  0  0  0  0  0
   -2.8657   21.3279  -29.7329 H   0  0  0  0  0  0  0  0  0  0  0  0
   -3.6002   19.3193  -31.0151 H   0  0  0  0  0  0  0  0  0  0  0  0
   -3.6813   19.1327  -34.0507 H   0  0  0  0  0  0  0  0  0  0  0  0
   -4.3382   17.1206  -35.3669 H   0  0  0  0  0  0  0  0  0  0  0  0
   -6.5613   16.0531  -34.9957 H   0  0  0  0  0  0  0  0  0  0  0  0
   -8.1441   17.0104  -33.3225 H   0  0  0  0  0  0  0  0  0  0  0  0
   -6.4940   21.7385  -33.1445 H   0  0  0  0  0  0  0  0  0  0  0  0
   -5.7595   23.7457  -31.8593 H   0  0  0  0  0  0  0  0  0  0  0  0
  1  2  2  0
  2  3  1  0
  3  4  1  0
  4  5  2  0
  5  6  1  0
  6  7  1  0
  7  8  2  0
  7  9  2  0
  7 10  1  0
 10 11  2  0
 11 12  1  0
 12 13  2  0
 13 14  1  0
 14 15  2  0
 15 16  1  0
 16 17  2  0
 17 18  1  0
 18 19  2  0
 19 20  1  0
 13 21  1  0
 21 22  2  0
  6  2  1  0
 22 10  1  0
 19 14  1  0
  4 23  1  0
  5 24  1  0
 11 25  1  0
 12 26  1  0
 15 27  1  0
 16 28  1  0
 17 29  1  0
 18 30  1  0
 21 31  1  0
 22 32  1  0
M  CHG  1   3  -1
M  END
>  <UniqueID>  (31) 
30

>  <SMILES>  (31) 
O=c1[n-]ccn1S(=O)(=O)c1ccc(-c2ccccc2Cl)cc1

>  <Energy>  (31) 
74.91941727718827

>  <Genealogy>  (31) 
O=c1[n-]ccn1S(=O)(=O)c1ccc(-c2ccccc2Cl)cc1 (protonated)
O=c1[n-]ccn1S(=O)(=O)c1ccc(-c2ccccc2Cl)cc1 (3D coordinates assigned)
O=c1[n-]ccn1S(=O)(=O)c1ccc(-c2ccccc2Cl)cc1 (optimized conformer: 74.91941727718827 kcal/mol)

>  <smiles>  (31) 
O=c1[nH]ccn1S(=O)(=O)c1ccc(-c2ccccc2Cl)cc1

>  <score_type>  (31) 
oracle

>  <origin>  (31) 
adgpu

>  <m_score__min__energy>  (31) 
-10.1

>  <m_primary>  (31) 
energy

$$$$
31:0
     RDKit          3D

 45 48  0  0  0  0  0  0  0  0999 V2000
   -5.4820   26.4100  -30.1990 O   0  0  0  0  0  0  0  0  0  0  0  0
   -5.0190   25.2810  -30.5220 C   0  0  0  0  0  0  0  0  0  0  0  0
   -3.6010   25.0860  -30.5840 N   0  0  0  0  0  0  0  0  0  0  0  0
   -2.8710   24.1760  -29.7100 C   0  0  0  0  0  0  0  0  0  0  0  0
   -2.2550   24.9300  -28.5770 C   0  0  0  0  0  0  0  0  0  0  0  0
   -2.5170   24.6370  -27.2750 N   0  0  0  0  0  0  0  0  0  0  0  0
   -1.7390   25.5100  -26.6210 C   0  0  0  0  0  0  0  0  0  0  0  0
   -1.6020   25.6640  -25.2430 C   0  0  0  0  0  0  0  0  0  0  0  0
   -0.7090   26.6500  -24.7810 C   0  0  0  0  0  0  0  0  0  0  0  0
    0.0130   27.4460  -25.7000 C   0  0  0  0  0  0  0  0  0  0  0  0
   -0.1510   27.2600  -27.0850 C   0  0  0  0  0  0  0  0  0  0  0  0
   -1.0430   26.2760  -27.5050 C   0  0  0  0  0  0  0  0  0  0  0  0
   -1.3480   25.9260  -28.7620 N   0  0  0  0  0  0  0  0  0  0  0  0
   -5.9400   24.1620  -30.8310 C   0  0  0  0  0  0  0  0  0  0  0  0
   -6.2910   23.8740  -32.1630 C   0  0  0  0  0  0  0  0  0  0  0  0
   -7.1590   22.8170  -32.4540 C   0  0  0  0  0  0  0  0  0  0  0  0
   -7.6920   22.0360  -31.4220 C   0  0  0  0  0  0  0  0  0  0  0  0
   -8.7880   20.7040  -31.7780 S   0  0  0  0  0  0  0  0  0  0  0  0
  -10.0600   21.2730  -32.3410 O   0  0  0  0  0  0  0  0  0  0  0  0
   -9.1030   19.9500  -30.5140 O   0  0  0  0  0  0  0  0  0  0  0  0
   -8.0520   19.6260  -32.9450 N   0  0  0  0  0  0  0  0  0  0  0  0
   -6.6120   19.8880  -33.0520 C   0  0  0  0  0  0  0  0  0  0  0  0
   -5.8860   18.9360  -32.1140 C   0  0  0  0  0  0  0  0  0  0  0  0
   -6.9020   17.8730  -31.7410 C   0  0  0  0  0  0  0  0  0  0  0  0
   -8.1680   18.2340  -32.5040 C   0  0  0  0  0  0  0  0  0  0  0  0
   -7.3420   22.3130  -30.0950 C   0  0  0  0  0  0  0  0  0  0  0  0
   -6.4750   23.3690  -29.8000 C   0  0  0  0  0  0  0  0  0  0  0  0
   -3.5649   23.4221  -29.3098 H   0  0  0  0  0  0  0  0  0  0  0  0
   -2.0748   23.6849  -30.2886 H   0  0  0  0  0  0  0  0  0  0  0  0
   -2.1714   25.0374  -24.5407 H   0  0  0  0  0  0  0  0  0  0  0  0
   -0.5725   26.8017  -23.7001 H   0  0  0  0  0  0  0  0  0  0  0  0
    0.7069   28.2151  -25.3300 H   0  0  0  0  0  0  0  0  0  0  0  0
    0.4059   27.8705  -27.8110 H   0  0  0  0  0  0  0  0  0  0  0  0
   -5.8799   24.4843  -32.9806 H   0  0  0  0  0  0  0  0  0  0  0  0
   -7.4242   22.5983  -33.4989 H   0  0  0  0  0  0  0  0  0  0  0  0
   -6.2783   19.7185  -34.0864 H   0  0  0  0  0  0  0  0  0  0  0  0
   -6.3938   20.9310  -32.7792 H   0  0  0  0  0  0  0  0  0  0  0  0
   -5.0233   18.4805  -32.6221 H   0  0  0  0  0  0  0  0  0  0  0  0
   -5.4992   19.4573  -31.2260 H   0  0  0  0  0  0  0  0  0  0  0  0
   -6.5437   16.8770  -32.0404 H   0  0  0  0  0  0  0  0  0  0  0  0
   -7.0761   17.8384  -30.6554 H   0  0  0  0  0  0  0  0  0  0  0  0
   -8.2781   17.5742  -33.3772 H   0  0  0  0  0  0  0  0  0  0  0  0
   -9.0502   18.1109  -31.8586 H   0  0  0  0  0  0  0  0  0  0  0  0
   -7.7512   21.6968  -29.2808 H   0  0  0  0  0  0  0  0  0  0  0  0
   -6.2092   23.5813  -28.7539 H   0  0  0  0  0  0  0  0  0  0  0  0
  1  2  2  0
  2  3  1  0
  3  4  1  0
  4  5  1  0
  5  6  2  0
  6  7  1  0
  7  8  2  0
  8  9  1  0
  9 10  2  0
 10 11  1  0
 11 12  2  0
 12 13  1  0
  2 14  1  0
 14 15  2  0
 15 16  1  0
 16 17  2  0
 17 18  1  0
 18 19  2  0
 18 20  2  0
 18 21  1  0
 21 22  1  0
 22 23  1  0
 23 24  1  0
 24 25  1  0
 17 26  1  0
 26 27  2  0
 13  5  1  0
 27 14  1  0
 12  7  1  0
 25 21  1  0
  4 28  1  0
  4 29  1  0
  8 30  1  0
  9 31  1  0
 10 32  1  0
 11 33  1  0
 15 34  1  0
 16 35  1  0
 22 36  1  0
 22 37  1  0
 23 38  1  0
 23 39  1  0
 24 40  1  0
 24 41  1  0
 25 42  1  0
 25 43  1  0
 26 44  1  0
 27 45  1  0
M  CHG  2   3  -1  13  -1
M  END
>  <UniqueID>  (32) 
31

>  <SMILES>  (32) 
O=C([N-]Cc1nc2ccccc2[n-]1)c1ccc(S(=O)(=O)N2CCCC2)cc1

>  <Energy>  (32) 
81.74141166280093

>  <Genealogy>  (32) 
O=C([N-]Cc1nc2ccccc2[n-]1)c1ccc(S(=O)(=O)N2CCCC2)cc1 (protonated)
O=C([N-]Cc1nc2ccccc2[n-]1)c1ccc(S(=O)(=O)N2CCCC2)cc1 (3D coordinates assigned)
O=C([N-]Cc1nc2ccccc2[n-]1)c1ccc(S(=O)(=O)N2CCCC2)cc1 (nonaromatic ring conformer: 81.74141166280093 kcal/mol)

>  <smiles>  (32) 
O=C(NCc1nc2ccccc2[nH]1)c1ccc(S(=O)(=O)N2CCCC2)cc1

>  <score_type>  (32) 
oracle

>  <origin>  (32) 
adgpu

>  <m_score__min__energy>  (32) 
-13.1

>  <m_primary>  (32) 
energy

$$$$
32:0
     RDKit          3D

 48 50  0  0  0  0  0  0  0  0999 V2000
   -6.4970   16.7930  -34.2160 C   0  0  0  0  0  0  0  0  0  0  0  0
   -5.3030   17.6180  -33.8670 C   0  0  0  0  0  0  0  0  0  0  0  0
   -4.0380   17.1510  -33.8870 N   0  0  0  0  0  0  0  0  0  0  0  0
   -3.2260   18.1760  -33.6650 N   0  0  0  0  0  0  0  0  0  0  0  0
   -1.7740   18.0750  -33.7500 C   0  0  0  0  0  0  0  0  0  0  0  0
   -3.9450   19.3120  -33.5360 C   0  0  0  0  0  0  0  0  0  0  0  0
   -3.3680   20.6920  -33.4650 C   0  0  0  0  0  0  0  0  0  0  0  0
   -5.2800   18.9810  -33.6480 C   0  0  0  0  0  0  0  0  0  0  0  0
   -6.3660   19.8900  -33.8320 N   0  0  0  0  0  0  0  0  0  0  0  0
   -7.4580   20.2260  -32.5340 S   0  0  0  0  0  0  0  0  0  0  0  0
   -8.8460   20.4360  -33.0710 O   0  0  0  0  0  0  0  0  0  0  0  0
   -7.4760   19.0590  -31.5860 O   0  0  0  0  0  0  0  0  0  0  0  0
   -6.9070   21.6650  -31.6850 C   0  0  0  0  0  0  0  0  0  0  0  0
   -7.6050   22.1340  -30.5660 C   0  0  0  0  0  0  0  0  0  0  0  0
   -7.0920   23.1900  -29.8090 C   0  0  0  0  0  0  0  0  0  0  0  0
   -5.8640   23.7820  -30.1550 C   0  0  0  0  0  0  0  0  0  0  0  0
   -5.2730   24.8150  -29.3470 N   0  0  0  0  0  0  0  0  0  0  0  0
   -4.3900   24.5460  -28.2110 C   0  0  0  0  0  0  0  0  0  0  0  0
   -3.2220   23.6910  -28.6400 C   0  0  0  0  0  0  0  0  0  0  0  0
   -3.2870   22.2920  -28.5160 C   0  0  0  0  0  0  0  0  0  0  0  0
   -2.2270   21.4920  -28.9540 C   0  0  0  0  0  0  0  0  0  0  0  0
   -2.3170   20.1060  -28.8360 O   0  0  0  0  0  0  0  0  0  0  0  0
   -1.0890   22.0860  -29.5130 C   0  0  0  0  0  0  0  0  0  0  0  0
   -1.0120   23.4760  -29.6320 C   0  0  0  0  0  0  0  0  0  0  0  0
   -2.0730   24.2800  -29.2030 C   0  0  0  0  0  0  0  0  0  0  0  0
   -1.9800   25.6610  -29.3420 O   0  0  0  0  0  0  0  0  0  0  0  0
   -5.1890   23.3340  -31.3000 C   0  0  0  0  0  0  0  0  0  0  0  0
   -5.7030   22.2770  -32.0560 C   0  0  0  0  0  0  0  0  0  0  0  0
   -6.9898   16.4525  -33.2934 H   0  0  0  0  0  0  0  0  0  0  0  0
   -7.2011   17.3982  -34.8059 H   0  0  0  0  0  0  0  0  0  0  0  0
   -6.1800   15.9203  -34.8059 H   0  0  0  0  0  0  0  0  0  0  0  0
   -1.3485   18.0454  -32.7360 H   0  0  0  0  0  0  0  0  0  0  0  0
   -1.5013   17.1557  -34.2890 H   0  0  0  0  0  0  0  0  0  0  0  0
   -1.3767   18.9477  -34.2890 H   0  0  0  0  0  0  0  0  0  0  0  0
   -3.2457   20.9845  -32.4117 H   0  0  0  0  0  0  0  0  0  0  0  0
   -2.3886   20.7061  -33.9656 H   0  0  0  0  0  0  0  0  0  0  0  0
   -4.0459   21.3991  -33.9656 H   0  0  0  0  0  0  0  0  0  0  0  0
   -8.5607   21.6694  -30.2818 H   0  0  0  0  0  0  0  0  0  0  0  0
   -7.6515   23.5606  -28.9375 H   0  0  0  0  0  0  0  0  0  0  0  0
   -5.3450   25.8060  -29.6740 H   0  0  0  0  0  0  0  0  0  0  0  0
   -4.0134   25.4992  -27.8116 H   0  0  0  0  0  0  0  0  0  0  0  0
   -4.9588   24.0090  -27.4376 H   0  0  0  0  0  0  0  0  0  0  0  0
   -4.1776   21.8237  -28.0715 H   0  0  0  0  0  0  0  0  0  0  0  0
   -3.0160   19.6710  -28.2450 H   0  0  0  0  0  0  0  0  0  0  0  0
   -0.2548   21.4578  -29.8588 H   0  0  0  0  0  0  0  0  0  0  0  0
   -0.1134   23.9398  -30.0648 H   0  0  0  0  0  0  0  0  0  0  0  0
   -4.2492   23.8177  -31.6048 H   0  0  0  0  0  0  0  0  0  0  0  0
   -5.1602   21.9245  -32.9454 H   0  0  0  0  0  0  0  0  0  0  0  0
  1  2  1  0
  2  3  2  0
  3  4  1  0
  4  5  1  0
  4  6  1  0
  6  7  1  0
  6  8  2  0
  8  9  1  0
  9 10  1  0
 10 11  2  0
 10 12  2  0
 10 13  1  0
 13 14  2  0
 14 15  1  0
 15 16  2  0
 16 17  1  0
 17 18  1  0
 18 19  1  0
 19 20  2  0
 20 21  1  0
 21 22  1  0
 21 23  2  0
 23 24  1  0
 24 25  2  0
 25 26  1  0
 16 27  1  0
 27 28  2  0
  8  2  1  0
 28 13  1  0
 25 19  1  0
  1 29  1  0
  1 30  1  0
  1 31  1  0
  5 32  1  0
  5 33  1  0
  5 34  1  0
  7 35  1  0
  7 36  1  0
  7 37  1  0
 14 38  1  0
 15 39  1  0
 17 40  1  0
 18 41  1  0
 18 42  1  0
 20 43  1  0
 22 44  1  0
 23 45  1  0
 24 46  1  0
 27 47  1  0
 28 48  1  0
M  CHG  2   9  -1  26  -1
M  END
>  <UniqueID>  (33) 
32

>  <SMILES>  (33) 
Cc1nn(C)c(C)c1[N-]S(=O)(=O)c1ccc(NCc2cc(O)ccc2[O-])cc1

>  <Energy>  (33) 
82.90021220840379

>  <Genealogy>  (33) 
Cc1nn(C)c(C)c1[N-]S(=O)(=O)c1ccc(NCc2cc(O)ccc2[O-])cc1 (protonated)
Cc1nn(C)c(C)c1[N-]S(=O)(=O)c1ccc(NCc2cc(O)ccc2[O-])cc1 (3D coordinates assigned)
Cc1nn(C)c(C)c1[N-]S(=O)(=O)c1ccc(NCc2cc(O)ccc2[O-])cc1 (optimized conformer: 82.90021220840379 kcal/mol)

>  <smiles>  (33) 
Cc1nn(C)c(C)c1NS(=O)(=O)c1ccc(NCc2cc(O)ccc2O)cc1

>  <score_type>  (33) 
oracle

>  <origin>  (33) 
adgpu

>  <m_score__min__energy>  (33) 
-12.48

>  <m_primary>  (33) 
energy

$$$$
33:0
     RDKit          3D

 62 65  0  0  0  0  0  0  0  0999 V2000
    1.5700   25.4330  -24.9380 C   0  0  0  0  0  0  0  0  0  0  0  0
    0.3160   24.9750  -24.3200 N   0  0  0  0  0  0  0  0  0  0  0  0
   -0.5880   26.1030  -24.0370 C   0  0  0  0  0  0  0  0  0  0  0  0
   -0.3040   23.9280  -25.1120 C   0  0  0  0  0  0  0  0  0  0  0  0
   -0.2730   22.7430  -24.6780 O   0  0  0  0  0  0  0  0  0  0  0  0
   -1.0080   24.1750  -26.3980 C   0  0  0  0  0  0  0  0  0  0  0  0
   -0.2530   24.3160  -27.5740 C   0  0  0  0  0  0  0  0  0  0  0  0
   -0.8820   24.5590  -28.7980 C   0  0  0  0  0  0  0  0  0  0  0  0
   -2.2810   24.6730  -28.8660 C   0  0  0  0  0  0  0  0  0  0  0  0
   -2.9480   24.9300  -30.0710 O   0  0  0  0  0  0  0  0  0  0  0  0
   -4.2580   24.5280  -30.3660 C   0  0  0  0  0  0  0  0  0  0  0  0
   -5.3250   25.2490  -29.9160 N   0  0  0  0  0  0  0  0  0  0  0  0
   -6.6050   24.8920  -30.1970 C   0  0  0  0  0  0  0  0  0  0  0  0
   -6.8590   23.7540  -30.9620 C   0  0  0  0  0  0  0  0  0  0  0  0
   -5.7880   23.0000  -31.4420 C   0  0  0  0  0  0  0  0  0  0  0  0
   -4.4690   23.3960  -31.1670 C   0  0  0  0  0  0  0  0  0  0  0  0
   -3.3340   22.6380  -31.6150 N   0  0  0  0  0  0  0  0  0  0  0  0
   -2.4000   21.9220  -30.7950 C   0  0  0  0  0  0  0  0  0  0  0  0
   -2.5900   21.8320  -29.5520 O   0  0  0  0  0  0  0  0  0  0  0  0
   -1.2370   21.2450  -31.4160 C   0  0  0  0  0  0  0  0  0  0  0  0
   -0.4800   20.3100  -30.6850 C   0  0  0  0  0  0  0  0  0  0  0  0
    0.6170   19.6750  -31.2730 C   0  0  0  0  0  0  0  0  0  0  0  0
    0.9700   19.9600  -32.5930 C   0  0  0  0  0  0  0  0  0  0  0  0
    0.2220   20.8790  -33.3380 C   0  0  0  0  0  0  0  0  0  0  0  0
    0.6820   21.2420  -35.0000 S   0  0  0  0  0  0  0  0  0  0  0  0
    1.8230   20.3440  -35.3940 O   0  0  0  0  0  0  0  0  0  0  0  0
   -0.4770   20.9720  -35.9210 O   0  0  0  0  0  0  0  0  0  0  0  0
    1.1780   22.9100  -35.1240 N   0  0  0  0  0  0  0  0  0  0  0  0
    0.3060   23.6280  -36.0700 C   0  0  0  0  0  0  0  0  0  0  0  0
    0.8970   25.0060  -36.4300 C   0  0  0  0  0  0  0  0  0  0  0  0
    1.9360   25.3590  -35.5390 O   0  0  0  0  0  0  0  0  0  0  0  0
    3.0200   24.4570  -35.6870 C   0  0  0  0  0  0  0  0  0  0  0  0
    2.5780   22.9830  -35.5660 C   0  0  0  0  0  0  0  0  0  0  0  0
   -0.8730   21.5250  -32.7460 C   0  0  0  0  0  0  0  0  0  0  0  0
   -3.0310   24.5740  -27.6890 C   0  0  0  0  0  0  0  0  0  0  0  0
   -2.4040   24.3250  -26.4650 C   0  0  0  0  0  0  0  0  0  0  0  0
    2.2918   25.6966  -24.1509 H   0  0  0  0  0  0  0  0  0  0  0  0
    1.9861   24.6288  -25.5626 H   0  0  0  0  0  0  0  0  0  0  0  0
    1.3698   26.3161  -25.5626 H   0  0  0  0  0  0  0  0  0  0  0  0
    0.5670   24.5540  -23.3940 H   0  0  0  0  0  0  0  0  0  0  0  0
   -0.6884   26.2283  -22.9488 H   0  0  0  0  0  0  0  0  0  0  0  0
   -0.1745   27.0232  -24.4754 H   0  0  0  0  0  0  0  0  0  0  0  0
   -1.5762   25.8999  -24.4754 H   0  0  0  0  0  0  0  0  0  0  0  0
    0.8431   24.2344  -27.5311 H   0  0  0  0  0  0  0  0  0  0  0  0
   -0.2793   24.6615  -29.7124 H   0  0  0  0  0  0  0  0  0  0  0  0
   -7.4410   25.5003  -29.8213 H   0  0  0  0  0  0  0  0  0  0  0  0
   -7.8936   23.4539  -31.1847 H   0  0  0  0  0  0  0  0  0  0  0  0
   -5.9769   22.0941  -32.0367 H   0  0  0  0  0  0  0  0  0  0  0  0
   -0.7536   20.0780  -29.6451 H   0  0  0  0  0  0  0  0  0  0  0  0
    1.2046   18.9478  -30.6935 H   0  0  0  0  0  0  0  0  0  0  0  0
    1.8380   19.4612  -33.0488 H   0  0  0  0  0  0  0  0  0  0  0  0
    0.2018   23.0305  -36.9877 H   0  0  0  0  0  0  0  0  0  0  0  0
   -0.6748   23.7805  -35.5958 H   0  0  0  0  0  0  0  0  0  0  0  0
    1.2977   24.9694  -37.4538 H   0  0  0  0  0  0  0  0  0  0  0  0
    0.0996   25.7601  -36.3555 H   0  0  0  0  0  0  0  0  0  0  0  0
    3.4743   24.6097  -36.6771 H   0  0  0  0  0  0  0  0  0  0  0  0
    3.7384   24.6597  -34.8791 H   0  0  0  0  0  0  0  0  0  0  0  0
    2.6763   22.4921  -36.5455 H   0  0  0  0  0  0  0  0  0  0  0  0
    3.2157   22.4755  -34.8272 H   0  0  0  0  0  0  0  0  0  0  0  0
   -1.4527   22.2575  -33.3269 H   0  0  0  0  0  0  0  0  0  0  0  0
   -4.1238   24.6932  -27.7274 H   0  0  0  0  0  0  0  0  0  0  0  0
   -3.0068   24.2459  -25.5483 H   0  0  0  0  0  0  0  0  0  0  0  0
  1  2  1  0
  2  3  1  0
  2  4  1  0
  4  5  2  0
  4  6  1  0
  6  7  2  0
  7  8  1  0
  8  9  2  0
  9 10  1  0
 10 11  1  0
 11 12  2  0
 12 13  1  0
 13 14  2  0
 14 15  1  0
 15 16  2  0
 16 17  1  0
 17 18  1  0
 18 19  2  0
 18 20  1  0
 20 21  2  0
 21 22  1  0
 22 23  2  0
 23 24  1  0
 24 25  1  0
 25 26  2  0
 25 27  2  0
 25 28  1  0
 28 29  1  0
 29 30  1  0
 30 31  1  0
 31 32  1  0
 32 33  1  0
 24 34  2  0
  9 35  1  0
 35 36  2  0
 36  6  1  0
 16 11  1  0
 34 20  1  0
 33 28  1  0
  1 37  1  0
  1 38  1  0
  1 39  1  0
  2 40  1  0
  3 41  1  0
  3 42  1  0
  3 43  1  0
  7 44  1  0
  8 45  1  0
 13 46  1  0
 14 47  1  0
 15 48  1  0
 21 49  1  0
 22 50  1  0
 23 51  1  0
 29 52  1  0
 29 53  1  0
 30 54  1  0
 30 55  1  0
 32 56  1  0
 32 57  1  0
 33 58  1  0
 33 59  1  0
 34 60  1  0
 35 61  1  0
 36 62  1  0
M  CHG  2   2   1  17  -1
M  END
>  <UniqueID>  (34) 
33

>  <SMILES>  (34) 
C[NH+](C)C(=O)c1ccc(Oc2ncccc2[N-]C(=O)c2cccc(S(=O)(=O)N3CCOCC3)c2)cc1

>  <Energy>  (34) 
90.93675300166882

>  <Genealogy>  (34) 
C[NH+](C)C(=O)c1ccc(Oc2ncccc2[N-]C(=O)c2cccc(S(=O)(=O)N3CCOCC3)c2)cc1 (protonated)
C[NH+](C)C(=O)c1ccc(Oc2ncccc2[N-]C(=O)c2cccc(S(=O)(=O)N3CCOCC3)c2)cc1 (3D coordinates assigned)
C[NH+](C)C(=O)c1ccc(Oc2ncccc2[N-]C(=O)c2cccc(S(=O)(=O)N3CCOCC3)c2)cc1 (nonaromatic ring conformer: 90.93675300166882 kcal/mol)

>  <smiles>  (34) 
CN(C)C(=O)c1ccc(Oc2ncccc2NC(=O)c2cccc(S(=O)(=O)N3CCOCC3)c2)cc1

>  <score_type>  (34) 
oracle

>  <origin>  (34) 
adgpu

>  <m_score__min__energy>  (34) 
-10.66

>  <m_primary>  (34) 
energy

$$$$
34:0
     RDKit          3D

 53 55  0  0  0  0  0  0  0  0999 V2000
   -5.6390   18.3010  -34.8270 C   0  0  0  0  0  0  0  0  0  0  0  0
   -4.8890   19.0750  -33.8960 O   0  0  0  0  0  0  0  0  0  0  0  0
   -5.4040   20.1280  -33.1250 C   0  0  0  0  0  0  0  0  0  0  0  0
   -4.6110   21.2490  -32.8100 C   0  0  0  0  0  0  0  0  0  0  0  0
   -5.1160   22.2990  -32.0430 C   0  0  0  0  0  0  0  0  0  0  0  0
   -4.2570   23.4130  -31.7580 N   0  0  0  0  0  0  0  0  0  0  0  0
   -4.0500   24.1480  -30.2010 S   0  0  0  0  0  0  0  0  0  0  0  0
   -5.1260   23.6820  -29.2630 O   0  0  0  0  0  0  0  0  0  0  0  0
   -4.1200   25.6430  -30.3460 O   0  0  0  0  0  0  0  0  0  0  0  0
   -2.4790   23.6740  -29.5540 C   0  0  0  0  0  0  0  0  0  0  0  0
   -2.0780   22.3310  -29.5870 C   0  0  0  0  0  0  0  0  0  0  0  0
   -0.8230   21.9520  -29.0890 C   0  0  0  0  0  0  0  0  0  0  0  0
   -0.3100   20.2650  -29.1650 S   0  0  0  0  0  0  0  0  0  0  0  0
    0.8760   20.0680  -28.2620 O   0  0  0  0  0  0  0  0  0  0  0  0
   -1.4240   19.3880  -28.6640 O   0  0  0  0  0  0  0  0  0  0  0  0
    0.1200   19.7830  -30.7940 N   0  0  0  0  0  0  0  0  0  0  0  0
    0.1620   20.9400  -31.6940 C   0  0  0  0  0  0  0  0  0  0  0  0
   -1.1570   21.0070  -32.4490 C   0  0  0  0  0  0  0  0  0  0  0  0
   -1.8170   19.6570  -32.2470 C   0  0  0  0  0  0  0  0  0  0  0  0
   -0.8730   18.8630  -31.3550 C   0  0  0  0  0  0  0  0  0  0  0  0
    0.0250   22.9230  -28.5400 C   0  0  0  0  0  0  0  0  0  0  0  0
   -0.3720   24.2610  -28.5000 C   0  0  0  0  0  0  0  0  0  0  0  0
   -1.6180   24.6420  -29.0070 C   0  0  0  0  0  0  0  0  0  0  0  0
   -1.9920   25.9800  -28.9650 O   0  0  0  0  0  0  0  0  0  0  0  0
   -6.4360   22.2390  -31.5780 C   0  0  0  0  0  0  0  0  0  0  0  0
   -7.2490   21.1320  -31.8780 C   0  0  0  0  0  0  0  0  0  0  0  0
   -8.5760   21.0440  -31.4260 O   0  0  0  0  0  0  0  0  0  0  0  0
   -9.5620   22.0550  -31.6040 C   0  0  0  0  0  0  0  0  0  0  0  0
   -6.7410   20.0740  -32.6500 C   0  0  0  0  0  0  0  0  0  0  0  0
   -7.6180   19.0020  -32.9070 O   0  0  0  0  0  0  0  0  0  0  0  0
   -8.2800   18.1950  -31.9390 C   0  0  0  0  0  0  0  0  0  0  0  0
   -6.3039   17.6149  -34.2819 H   0  0  0  0  0  0  0  0  0  0  0  0
   -6.2412   18.9702  -35.4591 H   0  0  0  0  0  0  0  0  0  0  0  0
   -4.9512   17.7202  -35.4591 H   0  0  0  0  0  0  0  0  0  0  0  0
   -3.5746   21.2972  -33.1756 H   0  0  0  0  0  0  0  0  0  0  0  0
   -2.7522   21.5696  -30.0062 H   0  0  0  0  0  0  0  0  0  0  0  0
    0.3029   21.8610  -31.1093 H   0  0  0  0  0  0  0  0  0  0  0  0
    0.9985   20.8394  -32.4013 H   0  0  0  0  0  0  0  0  0  0  0  0
   -1.7912   21.8083  -32.0419 H   0  0  0  0  0  0  0  0  0  0  0  0
   -1.0025   21.2268  -33.5157 H   0  0  0  0  0  0  0  0  0  0  0  0
   -2.7949   19.7781  -31.7580 H   0  0  0  0  0  0  0  0  0  0  0  0
   -1.9947   19.1459  -33.2047 H   0  0  0  0  0  0  0  0  0  0  0  0
   -1.4418   18.3896  -30.5412 H   0  0  0  0  0  0  0  0  0  0  0  0
   -0.3716   18.0784  -31.9406 H   0  0  0  0  0  0  0  0  0  0  0  0
    1.0067   22.6302  -28.1392 H   0  0  0  0  0  0  0  0  0  0  0  0
    0.2983   25.0185  -28.0678 H   0  0  0  0  0  0  0  0  0  0  0  0
   -6.8396   23.0645  -30.9734 H   0  0  0  0  0  0  0  0  0  0  0  0
   -9.9065   22.4083  -30.6209 H   0  0  0  0  0  0  0  0  0  0  0  0
   -9.1277   22.8961  -32.1643 H   0  0  0  0  0  0  0  0  0  0  0  0
  -10.4137   21.6419  -32.1643 H   0  0  0  0  0  0  0  0  0  0  0  0
   -8.0032   18.5324  -30.9293 H   0  0  0  0  0  0  0  0  0  0  0  0
   -9.3685   18.2842  -32.0699 H   0  0  0  0  0  0  0  0  0  0  0  0
   -7.9797   17.1449  -32.0699 H   0  0  0  0  0  0  0  0  0  0  0  0
  1  2  1  0
  2  3  1  0
  3  4  2  0
  4  5  1  0
  5  6  1  0
  6  7  1  0
  7  8  2  0
  7  9  2  0
  7 10  1  0
 10 11  2  0
 11 12  1  0
 12 13  1  0
 13 14  2  0
 13 15  2  0
 13 16  1  0
 16 17  1  0
 17 18  1  0
 18 19  1  0
 19 20  1  0
 12 21  2  0
 21 22  1  0
 22 23  2  0
 23 24  1  0
  5 25  2  0
 25 26  1  0
 26 27  1  0
 27 28  1  0
 26 29  2  0
 29 30  1  0
 30 31  1  0
 29  3  1  0
 23 10  1  0
 20 16  1  0
  1 32  1  0
  1 33  1  0
  1 34  1  0
  4 35  1  0
 11 36  1  0
 17 37  1  0
 17 38  1  0
 18 39  1  0
 18 40  1  0
 19 41  1  0
 19 42  1  0
 20 43  1  0
 20 44  1  0
 21 45  1  0
 22 46  1  0
 25 47  1  0
 28 48  1  0
 28 49  1  0
 28 50  1  0
 31 51  1  0
 31 52  1  0
 31 53  1  0
M  CHG  2   6  -1  24  -1
M  END
>  <UniqueID>  (35) 
34

>  <SMILES>  (35) 
COc1cc([N-]S(=O)(=O)c2cc(S(=O)(=O)N3CCCC3)ccc2[O-])cc(OC)c1OC

>  <Energy>  (35) 
59.999271999778

>  <Genealogy>  (35) 
COc1cc([N-]S(=O)(=O)c2cc(S(=O)(=O)N3CCCC3)ccc2[O-])cc(OC)c1OC (protonated)
COc1cc([N-]S(=O)(=O)c2cc(S(=O)(=O)N3CCCC3)ccc2[O-])cc(OC)c1OC (3D coordinates assigned)
COc1cc([N-]S(=O)(=O)c2cc(S(=O)(=O)N3CCCC3)ccc2[O-])cc(OC)c1OC (nonaromatic ring conformer: 59.999271999778 kcal/mol)

>  <smiles>  (35) 
COc1cc(NS(=O)(=O)c2cc(S(=O)(=O)N3CCCC3)ccc2O)cc(OC)c1OC

>  <score_type>  (35) 
oracle

>  <origin>  (35) 
adgpu

>  <m_score__min__energy>  (35) 
-12.18

>  <m_primary>  (35) 
energy

$$$$
35:0
     RDKit          3D

 50 52  0  0  0  0  0  0  0  0999 V2000
   -3.0360   18.5250  -25.7710 C   0  0  0  0  0  0  0  0  0  0  0  0
   -2.4690   19.3750  -26.8700 C   0  0  0  0  0  0  0  0  0  0  0  0
   -1.2750   19.0060  -27.4980 C   0  0  0  0  0  0  0  0  0  0  0  0
   -0.7270   19.8120  -28.4950 C   0  0  0  0  0  0  0  0  0  0  0  0
   -1.3540   21.0120  -28.8790 C   0  0  0  0  0  0  0  0  0  0  0  0
   -0.7610   21.8230  -29.9130 N   0  0  0  0  0  0  0  0  0  0  0  0
   -0.8880   21.5080  -31.1150 O   0  0  0  0  0  0  0  0  0  0  0  0
   -0.1100   22.9960  -29.6100 O   0  0  0  0  0  0  0  0  0  0  0  0
   -2.5430   21.4080  -28.2240 C   0  0  0  0  0  0  0  0  0  0  0  0
   -3.1410   22.6330  -28.5670 O   0  0  0  0  0  0  0  0  0  0  0  0
   -2.8110   23.9080  -28.0090 C   0  0  0  0  0  0  0  0  0  0  0  0
   -2.5260   24.9240  -29.0850 C   0  0  0  0  0  0  0  0  0  0  0  0
   -1.3910   25.4660  -29.1240 O   0  0  0  0  0  0  0  0  0  0  0  0
   -3.4920   25.2710  -30.0870 N   0  0  0  0  0  0  0  0  0  0  0  0
   -4.5850   24.4450  -30.5100 C   0  0  0  0  0  0  0  0  0  0  0  0
   -5.8920   24.9300  -30.4000 C   0  0  0  0  0  0  0  0  0  0  0  0
   -6.9670   24.1580  -30.8450 C   0  0  0  0  0  0  0  0  0  0  0  0
   -6.7440   22.8890  -31.3830 C   0  0  0  0  0  0  0  0  0  0  0  0
   -5.4420   22.3750  -31.4590 C   0  0  0  0  0  0  0  0  0  0  0  0
   -5.1590   20.7680  -32.1240 S   0  0  0  0  0  0  0  0  0  0  0  0
   -4.7850   20.8820  -33.5770 O   0  0  0  0  0  0  0  0  0  0  0  0
   -4.0130   20.1310  -31.3890 O   0  0  0  0  0  0  0  0  0  0  0  0
   -6.5950   19.7930  -31.9390 N   0  0  0  0  0  0  0  0  0  0  0  0
   -7.6580   20.2770  -32.8330 C   0  0  0  0  0  0  0  0  0  0  0  0
   -8.9240   19.4090  -32.6680 C   0  0  0  0  0  0  0  0  0  0  0  0
   -8.6930   18.2670  -31.8600 O   0  0  0  0  0  0  0  0  0  0  0  0
   -7.5800   17.5500  -32.3550 C   0  0  0  0  0  0  0  0  0  0  0  0
   -6.2870   18.3830  -32.2380 C   0  0  0  0  0  0  0  0  0  0  0  0
   -4.3650   23.1530  -31.0140 C   0  0  0  0  0  0  0  0  0  0  0  0
   -3.0900   20.5790  -27.2240 C   0  0  0  0  0  0  0  0  0  0  0  0
   -2.7531   18.9492  -24.7963 H   0  0  0  0  0  0  0  0  0  0  0  0
   -4.1325   18.4998  -25.8555 H   0  0  0  0  0  0  0  0  0  0  0  0
   -2.6381   17.5030  -25.8555 H   0  0  0  0  0  0  0  0  0  0  0  0
   -0.7662   18.0761  -27.2041 H   0  0  0  0  0  0  0  0  0  0  0  0
    0.2076   19.5060  -28.9879 H   0  0  0  0  0  0  0  0  0  0  0  0
   -3.6556   24.2607  -27.3989 H   0  0  0  0  0  0  0  0  0  0  0  0
   -1.9059   23.7924  -27.3946 H   0  0  0  0  0  0  0  0  0  0  0  0
   -6.0737   25.9224  -29.9617 H   0  0  0  0  0  0  0  0  0  0  0  0
   -7.9920   24.5505  -30.7716 H   0  0  0  0  0  0  0  0  0  0  0  0
   -7.5921   22.2911  -31.7481 H   0  0  0  0  0  0  0  0  0  0  0  0
   -7.8972   21.3210  -32.5824 H   0  0  0  0  0  0  0  0  0  0  0  0
   -7.3101   20.2131  -33.8746 H   0  0  0  0  0  0  0  0  0  0  0  0
   -9.7122   20.0184  -32.2018 H   0  0  0  0  0  0  0  0  0  0  0  0
   -9.2240   19.0590  -33.6667 H   0  0  0  0  0  0  0  0  0  0  0  0
   -7.4635   16.6223  -31.7755 H   0  0  0  0  0  0  0  0  0  0  0  0
   -7.7546   17.3227  -33.4170 H   0  0  0  0  0  0  0  0  0  0  0  0
   -5.6651   17.9710  -31.4297 H   0  0  0  0  0  0  0  0  0  0  0  0
   -5.7508   18.3362  -33.1973 H   0  0  0  0  0  0  0  0  0  0  0  0
   -3.3426   22.7498  -31.0597 H   0  0  0  0  0  0  0  0  0  0  0  0
   -4.0169   20.8818  -26.7150 H   0  0  0  0  0  0  0  0  0  0  0  0
  1  2  1  0
  2  3  2  0
  3  4  1  0
  4  5  2  0
  5  6  1  0
  6  7  2  0
  6  8  1  0
  5  9  1  0
  9 10  1  0
 10 11  1  0
 11 12  1  0
 12 13  2  0
 12 14  1  0
 14 15  1  0
 15 16  2  0
 16 17  1  0
 17 18  2  0
 18 19  1  0
 19 20  1  0
 20 21  2  0
 20 22  2  0
 20 23  1  0
 23 24  1  0
 24 25  1  0
 25 26  1  0
 26 27  1  0
 27 28  1  0
 19 29  2  0
  9 30  2  0
 30  2  1  0
 29 15  1  0
 28 23  1  0
  1 31  1  0
  1 32  1  0
  1 33  1  0
  3 34  1  0
  4 35  1  0
 11 36  1  0
 11 37  1  0
 16 38  1  0
 17 39  1  0
 18 40  1  0
 24 41  1  0
 24 42  1  0
 25 43  1  0
 25 44  1  0
 27 45  1  0
 27 46  1  0
 28 47  1  0
 28 48  1  0
 29 49  1  0
 30 50  1  0
M  CHG  3   6   1   8  -1  14  -1
M  END
>  <UniqueID>  (36) 
35

>  <SMILES>  (36) 
Cc1ccc([N+](=O)[O-])c(OCC(=O)[N-]c2cccc(S(=O)(=O)N3CCOCC3)c2)c1

>  <Energy>  (36) 
61.908666691215295

>  <Genealogy>  (36) 
Cc1ccc([N+](=O)[O-])c(OCC(=O)[N-]c2cccc(S(=O)(=O)N3CCOCC3)c2)c1 (protonated)
Cc1ccc([N+](=O)[O-])c(OCC(=O)[N-]c2cccc(S(=O)(=O)N3CCOCC3)c2)c1 (3D coordinates assigned)
Cc1ccc([N+](=O)[O-])c(OCC(=O)[N-]c2cccc(S(=O)(=O)N3CCOCC3)c2)c1 (nonaromatic ring conformer: 61.908666691215295 kcal/mol)

>  <smiles>  (36) 
Cc1ccc([N+](=O)[O-])c(OCC(=O)Nc2cccc(S(=O)(=O)N3CCOCC3)c2)c1

>  <score_type>  (36) 
oracle

>  <origin>  (36) 
adgpu

>  <m_score__min__energy>  (36) 
-11.06

>  <m_primary>  (36) 
energy

$$$$
36:0
     RDKit          3D

 43 45  0  0  0  0  0  0  0  0999 V2000
   -6.3770   25.8840  -29.5160 O   0  0  0  0  0  0  0  0  0  0  0  0
   -5.2270   24.9880  -29.8780 S   0  0  0  0  0  0  0  0  0  0  0  0
   -4.3770   25.6730  -30.9120 O   0  0  0  0  0  0  0  0  0  0  0  0
   -4.2670   24.6850  -28.4630 N   0  0  0  0  0  0  0  0  0  0  0  0
   -3.1010   23.8390  -28.4590 C   0  0  0  0  0  0  0  0  0  0  0  0
   -3.1690   22.5000  -28.0260 C   0  0  0  0  0  0  0  0  0  0  0  0
   -2.0250   21.6970  -28.0220 C   0  0  0  0  0  0  0  0  0  0  0  0
   -0.8040   22.2160  -28.4550 C   0  0  0  0  0  0  0  0  0  0  0  0
   -0.7240   23.5380  -28.8970 C   0  0  0  0  0  0  0  0  0  0  0  0
   -1.8640   24.3500  -28.9010 C   0  0  0  0  0  0  0  0  0  0  0  0
   -1.7570   25.6660  -29.3390 O   0  0  0  0  0  0  0  0  0  0  0  0
   -5.8670   23.4690  -30.4980 C   0  0  0  0  0  0  0  0  0  0  0  0
   -7.2430   23.2040  -30.4570 C   0  0  0  0  0  0  0  0  0  0  0  0
   -7.7450   22.0130  -30.9890 C   0  0  0  0  0  0  0  0  0  0  0  0
   -6.8760   21.0760  -31.5630 C   0  0  0  0  0  0  0  0  0  0  0  0
   -7.5310   19.6000  -32.2650 S   0  0  0  0  0  0  0  0  0  0  0  0
   -8.3600   18.8640  -31.2480 O   0  0  0  0  0  0  0  0  0  0  0  0
   -8.4010   19.9660  -33.4340 O   0  0  0  0  0  0  0  0  0  0  0  0
   -6.2140   18.5810  -32.7960 N   0  0  0  0  0  0  0  0  0  0  0  0
   -6.4710   17.1600  -32.4690 C   0  0  0  0  0  0  0  0  0  0  0  0
   -6.8600   16.3380  -33.7100 C   0  0  0  0  0  0  0  0  0  0  0  0
   -5.8790   16.3730  -34.7370 O   0  0  0  0  0  0  0  0  0  0  0  0
   -5.1910   17.6150  -34.8320 C   0  0  0  0  0  0  0  0  0  0  0  0
   -5.9550   18.8040  -34.2310 C   0  0  0  0  0  0  0  0  0  0  0  0
   -5.4980   21.3370  -31.5950 C   0  0  0  0  0  0  0  0  0  0  0  0
   -4.9980   22.5290  -31.0630 C   0  0  0  0  0  0  0  0  0  0  0  0
   -4.6360   25.0560  -27.5600 H   0  0  0  0  0  0  0  0  0  0  0  0
   -4.1295   22.0835  -27.6886 H   0  0  0  0  0  0  0  0  0  0  0  0
   -2.0871   20.6543  -27.6770 H   0  0  0  0  0  0  0  0  0  0  0  0
    0.0958   21.5833  -28.4481 H   0  0  0  0  0  0  0  0  0  0  0  0
    0.2384   23.9428  -29.2433 H   0  0  0  0  0  0  0  0  0  0  0  0
   -7.9293   23.9352  -30.0050 H   0  0  0  0  0  0  0  0  0  0  0  0
   -8.8258   21.8108  -30.9569 H   0  0  0  0  0  0  0  0  0  0  0  0
   -5.5602   16.7276  -32.0292 H   0  0  0  0  0  0  0  0  0  0  0  0
   -7.3135   17.1236  -31.7627 H   0  0  0  0  0  0  0  0  0  0  0  0
   -7.0077   15.2919  -33.4037 H   0  0  0  0  0  0  0  0  0  0  0  0
   -7.7782   16.7830  -34.1210 H   0  0  0  0  0  0  0  0  0  0  0  0
   -4.2309   17.5191  -34.3038 H   0  0  0  0  0  0  0  0  0  0  0  0
   -5.0674   17.8273  -35.9042 H   0  0  0  0  0  0  0  0  0  0  0  0
   -5.3553   19.7181  -34.3526 H   0  0  0  0  0  0  0  0  0  0  0  0
   -6.9172   18.9087  -34.7536 H   0  0  0  0  0  0  0  0  0  0  0  0
   -4.8100   20.6026  -32.0393 H   0  0  0  0  0  0  0  0  0  0  0  0
   -3.9166   22.7290  -31.0886 H   0  0  0  0  0  0  0  0  0  0  0  0
  1  2  2  0
  2  3  2  0
  2  4  1  0
  4  5  1  0
  5  6  2  0
  6  7  1  0
  7  8  2  0
  8  9  1  0
  9 10  2  0
 10 11  1  0
  2 12  1  0
 12 13  2  0
 13 14  1  0
 14 15  2  0
 15 16  1  0
 16 17  2  0
 16 18  2  0
 16 19  1  0
 19 20  1  0
 20 21  1  0
 21 22  1  0
 22 23  1  0
 23 24  1  0
 15 25  1  0
 25 26  2  0
 10  5  1  0
 26 12  1  0
 24 19  1  0
  4 27  1  0
  6 28  1  0
  7 29  1  0
  8 30  1  0
  9 31  1  0
 13 32  1  0
 14 33  1  0
 20 34  1  0
 20 35  1  0
 21 36  1  0
 21 37  1  0
 23 38  1  0
 23 39  1  0
 24 40  1  0
 24 41  1  0
 25 42  1  0
 26 43  1  0
M  CHG  1  11  -1
M  END
>  <UniqueID>  (37) 
36

>  <SMILES>  (37) 
O=S(=O)(Nc1ccccc1[O-])c1ccc(S(=O)(=O)N2CCOCC2)cc1

>  <Energy>  (37) 
59.94250493153932

>  <Genealogy>  (37) 
O=S(=O)(Nc1ccccc1[O-])c1ccc(S(=O)(=O)N2CCOCC2)cc1 (protonated)
O=S(=O)(Nc1ccccc1[O-])c1ccc(S(=O)(=O)N2CCOCC2)cc1 (3D coordinates assigned)
O=S(=O)(Nc1ccccc1[O-])c1ccc(S(=O)(=O)N2CCOCC2)cc1 (nonaromatic ring conformer: 59.94250493153932 kcal/mol)

>  <smiles>  (37) 
O=S(=O)(Nc1ccccc1O)c1ccc(S(=O)(=O)N2CCOCC2)cc1

>  <score_type>  (37) 
oracle

>  <origin>  (37) 
adgpu

>  <m_score__min__energy>  (37) 
-13.220000000000001

>  <m_primary>  (37) 
energy

$$$$
37:0
     RDKit          3D

 42 45  0  0  0  0  0  0  0  0999 V2000
   -9.1290   21.8730  -31.9500 C   0  0  0  0  0  0  0  0  0  0  0  0
   -8.7600   20.6480  -31.1220 C   0  0  0  0  0  0  0  0  0  0  0  0
   -7.7190   19.8670  -31.8010 N   0  0  0  0  0  0  0  0  0  0  0  0
   -6.4830   20.3700  -31.8340 N   0  0  0  0  0  0  0  0  0  0  0  0
   -5.4350   19.7300  -32.4150 C   0  0  0  0  0  0  0  0  0  0  0  0
   -4.1400   20.4390  -32.4290 C   0  0  0  0  0  0  0  0  0  0  0  0
   -3.6900   20.9290  -33.4990 O   0  0  0  0  0  0  0  0  0  0  0  0
   -3.4670   20.6780  -31.1870 N   0  0  0  0  0  0  0  0  0  0  0  0
   -3.0950   21.9570  -30.6450 C   0  0  0  0  0  0  0  0  0  0  0  0
   -1.8330   22.1530  -30.0580 C   0  0  0  0  0  0  0  0  0  0  0  0
   -1.4860   23.3890  -29.5150 C   0  0  0  0  0  0  0  0  0  0  0  0
   -2.3920   24.4490  -29.5300 C   0  0  0  0  0  0  0  0  0  0  0  0
   -2.0120   25.6700  -28.9800 O   0  0  0  0  0  0  0  0  0  0  0  0
   -3.6710   24.2750  -30.0870 C   0  0  0  0  0  0  0  0  0  0  0  0
   -4.6030   25.3290  -30.0970 C   0  0  0  0  0  0  0  0  0  0  0  0
   -5.8720   25.1450  -30.6480 C   0  0  0  0  0  0  0  0  0  0  0  0
   -6.2280   23.9130  -31.1950 C   0  0  0  0  0  0  0  0  0  0  0  0
   -5.3170   22.8550  -31.1970 C   0  0  0  0  0  0  0  0  0  0  0  0
   -4.0300   23.0180  -30.6440 C   0  0  0  0  0  0  0  0  0  0  0  0
   -5.6430   18.4480  -32.9750 C   0  0  0  0  0  0  0  0  0  0  0  0
   -4.5950   17.6680  -33.5120 C   0  0  0  0  0  0  0  0  0  0  0  0
   -4.8550   16.4110  -34.0630 C   0  0  0  0  0  0  0  0  0  0  0  0
   -6.1510   15.9030  -34.0730 C   0  0  0  0  0  0  0  0  0  0  0  0
   -7.1960   16.6400  -33.5160 C   0  0  0  0  0  0  0  0  0  0  0  0
   -6.9540   17.9090  -32.9540 C   0  0  0  0  0  0  0  0  0  0  0  0
   -7.9890   18.6450  -32.3510 C   0  0  0  0  0  0  0  0  0  0  0  0
   -9.1620   18.1750  -32.3110 O   0  0  0  0  0  0  0  0  0  0  0  0
   -9.3803   22.7073  -31.2786 H   0  0  0  0  0  0  0  0  0  0  0  0
   -8.2765   22.1570  -32.5846 H   0  0  0  0  0  0  0  0  0  0  0  0
   -9.9965   21.6389  -32.5846 H   0  0  0  0  0  0  0  0  0  0  0  0
   -8.3866   20.9733  -30.1398 H   0  0  0  0  0  0  0  0  0  0  0  0
   -9.6538   20.0191  -30.9968 H   0  0  0  0  0  0  0  0  0  0  0  0
   -1.1121   21.3228  -30.0268 H   0  0  0  0  0  0  0  0  0  0  0  0
   -0.4894   23.5294  -29.0710 H   0  0  0  0  0  0  0  0  0  0  0  0
   -4.3297   26.3043  -29.6678 H   0  0  0  0  0  0  0  0  0  0  0  0
   -6.5939   25.9750  -30.6507 H   0  0  0  0  0  0  0  0  0  0  0  0
   -7.2302   23.7740  -31.6265 H   0  0  0  0  0  0  0  0  0  0  0  0
   -5.6053   21.8872  -31.6331 H   0  0  0  0  0  0  0  0  0  0  0  0
   -3.5650   18.0538  -33.4962 H   0  0  0  0  0  0  0  0  0  0  0  0
   -4.0319   15.8199  -34.4909 H   0  0  0  0  0  0  0  0  0  0  0  0
   -6.3513   14.9185  -34.5210 H   0  0  0  0  0  0  0  0  0  0  0  0
   -8.2158   16.2277  -33.5155 H   0  0  0  0  0  0  0  0  0  0  0  0
  1  2  1  0
  2  3  1  0
  3  4  1  0
  4  5  2  0
  5  6  1  0
  6  7  2  0
  6  8  1  0
  8  9  1  0
  9 10  2  0
 10 11  1  0
 11 12  2  0
 12 13  1  0
 12 14  1  0
 14 15  2  0
 15 16  1  0
 16 17  2  0
 17 18  1  0
 18 19  2  0
  5 20  1  0
 20 21  2  0
 21 22  1  0
 22 23  2  0
 23 24  1  0
 24 25  2  0
 25 26  1  0
 26 27  2  0
 26  3  1  0
 19  9  1  0
 25 20  1  0
 19 14  1  0
  1 28  1  0
  1 29  1  0
  1 30  1  0
  2 31  1  0
  2 32  1  0
 10 33  1  0
 11 34  1  0
 15 35  1  0
 16 36  1  0
 17 37  1  0
 18 38  1  0
 21 39  1  0
 22 40  1  0
 23 41  1  0
 24 42  1  0
M  CHG  2   8  -1  13  -1
M  END
>  <UniqueID>  (38) 
37

>  <SMILES>  (38) 
CCn1nc(C(=O)[N-]c2ccc([O-])c3ccccc23)c2ccccc2c1=O

>  <Energy>  (38) 
64.71612833968108

>  <Genealogy>  (38) 
CCn1nc(C(=O)[N-]c2ccc([O-])c3ccccc23)c2ccccc2c1=O (protonated)
CCn1nc(C(=O)[N-]c2ccc([O-])c3ccccc23)c2ccccc2c1=O (3D coordinates assigned)
CCn1nc(C(=O)[N-]c2ccc([O-])c3ccccc23)c2ccccc2c1=O (optimized conformer: 64.71612833968108 kcal/mol)

>  <smiles>  (38) 
CCn1nc(C(=O)Nc2ccc(O)c3ccccc23)c2ccccc2c1=O

>  <score_type>  (38) 
oracle

>  <origin>  (38) 
adgpu

>  <m_score__min__energy>  (38) 
-12.02

>  <m_primary>  (38) 
energy

$$$$
38:0
     RDKit          3D

 48 51  0  0  0  0  0  0  0  0999 V2000
   -5.5600   25.9800  -31.1470 O   0  0  0  0  0  0  0  0  0  0  0  0
   -4.9800   25.0840  -30.4740 C   0  0  0  0  0  0  0  0  0  0  0  0
   -5.7980   24.0590  -29.7560 C   0  0  0  0  0  0  0  0  0  0  0  0
   -6.3220   23.0840  -30.7090 N   0  0  0  0  0  0  0  0  0  0  0  0
   -7.4160   22.1880  -30.4860 C   0  0  0  0  0  0  0  0  0  0  0  0
   -8.2540   22.3130  -29.5540 O   0  0  0  0  0  0  0  0  0  0  0  0
   -7.3880   21.1100  -31.4670 C   0  0  0  0  0  0  0  0  0  0  0  0
   -8.2390   20.0190  -31.6460 C   0  0  0  0  0  0  0  0  0  0  0  0
   -7.9440   19.1140  -32.6820 C   0  0  0  0  0  0  0  0  0  0  0  0
   -6.8140   19.3130  -33.5060 C   0  0  0  0  0  0  0  0  0  0  0  0
   -5.9690   20.4190  -33.3010 C   0  0  0  0  0  0  0  0  0  0  0  0
   -6.2850   21.3040  -32.2730 C   0  0  0  0  0  0  0  0  0  0  0  0
   -5.6070   22.5090  -31.8070 C   0  0  0  0  0  0  0  0  0  0  0  0
   -4.5320   22.9730  -32.2750 O   0  0  0  0  0  0  0  0  0  0  0  0
   -3.5530   24.9610  -30.4860 N   0  0  0  0  0  0  0  0  0  0  0  0
   -2.7610   24.0560  -29.7040 C   0  0  0  0  0  0  0  0  0  0  0  0
   -3.0980   22.6960  -29.7100 C   0  0  0  0  0  0  0  0  0  0  0  0
   -2.3650   21.7810  -28.9510 C   0  0  0  0  0  0  0  0  0  0  0  0
   -1.2930   22.2200  -28.1690 C   0  0  0  0  0  0  0  0  0  0  0  0
   -0.9560   23.5800  -28.1360 C   0  0  0  0  0  0  0  0  0  0  0  0
    0.3990   24.1340  -27.1450 S   0  0  0  0  0  0  0  0  0  0  0  0
    0.9370   22.9780  -26.3450 O   0  0  0  0  0  0  0  0  0  0  0  0
    1.4970   24.6260  -28.0470 O   0  0  0  0  0  0  0  0  0  0  0  0
   -0.0770   25.4170  -26.0590 N   0  0  0  0  0  0  0  0  0  0  0  0
    0.6770   25.3330  -24.7960 C   0  0  0  0  0  0  0  0  0  0  0  0
    0.1160   26.3280  -23.7600 C   0  0  0  0  0  0  0  0  0  0  0  0
   -0.8090   27.2190  -24.3520 O   0  0  0  0  0  0  0  0  0  0  0  0
   -1.9290   26.4960  -24.8290 C   0  0  0  0  0  0  0  0  0  0  0  0
   -1.5220   25.3570  -25.7920 C   0  0  0  0  0  0  0  0  0  0  0  0
   -1.6990   24.4970  -28.8930 C   0  0  0  0  0  0  0  0  0  0  0  0
   -5.1686   23.5434  -29.0157 H   0  0  0  0  0  0  0  0  0  0  0  0
   -6.6376   24.5565  -29.2485 H   0  0  0  0  0  0  0  0  0  0  0  0
   -9.1144   19.8708  -30.9966 H   0  0  0  0  0  0  0  0  0  0  0  0
   -8.5976   18.2457  -32.8515 H   0  0  0  0  0  0  0  0  0  0  0  0
   -6.5934   18.5988  -34.3130 H   0  0  0  0  0  0  0  0  0  0  0  0
   -5.0842   20.5802  -33.9344 H   0  0  0  0  0  0  0  0  0  0  0  0
   -3.9461   22.3464  -30.3170 H   0  0  0  0  0  0  0  0  0  0  0  0
   -2.6316   20.7139  -28.9687 H   0  0  0  0  0  0  0  0  0  0  0  0
   -0.7124   21.4964  -27.5780 H   0  0  0  0  0  0  0  0  0  0  0  0
    0.5981   24.3116  -24.3954 H   0  0  0  0  0  0  0  0  0  0  0  0
    1.7293   25.5844  -24.9946 H   0  0  0  0  0  0  0  0  0  0  0  0
   -0.3890   25.7661  -22.9605 H   0  0  0  0  0  0  0  0  0  0  0  0
    0.9528   26.9153  -23.3540 H   0  0  0  0  0  0  0  0  0  0  0  0
   -2.4614   26.0607  -23.9705 H   0  0  0  0  0  0  0  0  0  0  0  0
   -2.5704   27.1954  -25.3852 H   0  0  0  0  0  0  0  0  0  0  0  0
   -1.7680   24.3875  -25.3343 H   0  0  0  0  0  0  0  0  0  0  0  0
   -2.0695   25.4717  -26.7391 H   0  0  0  0  0  0  0  0  0  0  0  0
   -1.4502   25.5677  -28.8526 H   0  0  0  0  0  0  0  0  0  0  0  0
  1  2  2  0
  2  3  1  0
  3  4  1  0
  4  5  1  0
  5  6  2  0
  5  7  1  0
  7  8  2  0
  8  9  1  0
  9 10  2  0
 10 11  1  0
 11 12  2  0
 12 13  1  0
 13 14  2  0
  2 15  1  0
 15 16  1  0
 16 17  2  0
 17 18  1  0
 18 19  2  0
 19 20  1  0
 20 21  1  0
 21 22  2  0
 21 23  2  0
 21 24  1  0
 24 25  1  0
 25 26  1  0
 26 27  1  0
 27 28  1  0
 28 29  1  0
 20 30  2  0
 13  4  1  0
 30 16  1  0
 12  7  1  0
 29 24  1  0
  3 31  1  0
  3 32  1  0
  8 33  1  0
  9 34  1  0
 10 35  1  0
 11 36  1  0
 17 37  1  0
 18 38  1  0
 19 39  1  0
 25 40  1  0
 25 41  1  0
 26 42  1  0
 26 43  1  0
 28 44  1  0
 28 45  1  0
 29 46  1  0
 29 47  1  0
 30 48  1  0
M  CHG  1  15  -1
M  END
>  <UniqueID>  (39) 
38

>  <SMILES>  (39) 
O=C(CN1C(=O)c2ccccc2C1=O)[N-]c1cccc(S(=O)(=O)N2CCOCC2)c1

>  <Energy>  (39) 
91.25133194430988

>  <Genealogy>  (39) 
O=C(CN1C(=O)c2ccccc2C1=O)[N-]c1cccc(S(=O)(=O)N2CCOCC2)c1 (protonated)
O=C(CN1C(=O)c2ccccc2C1=O)[N-]c1cccc(S(=O)(=O)N2CCOCC2)c1 (3D coordinates assigned)
O=C(CN1C(=O)c2ccccc2C1=O)[N-]c1cccc(S(=O)(=O)N2CCOCC2)c1 (nonaromatic ring conformer: 91.25133194430988 kcal/mol)

>  <smiles>  (39) 
O=C(CN1C(=O)c2ccccc2C1=O)Nc1cccc(S(=O)(=O)N2CCOCC2)c1

>  <score_type>  (39) 
oracle

>  <origin>  (39) 
adgpu

>  <m_score__min__energy>  (39) 
-11.4

>  <m_primary>  (39) 
energy

$$$$
39:0
     RDKit          3D

 59 62  0  0  0  0  0  0  0  0999 V2000
   -5.6642   24.7839  -31.7470 H   0  0  0  0  0  0  0  0  0  0  0  0
   -5.1020   24.4760  -30.8530 C   0  0  0  0  0  0  0  0  0  0  0  0
   -3.9010   25.0470  -30.5820 N   0  0  0  0  0  0  0  0  0  0  0  0
   -3.1630   24.7130  -29.4900 C   0  0  0  0  0  0  0  0  0  0  0  0
   -2.0110   25.2990  -29.3220 N   0  0  0  0  0  0  0  0  0  0  0  0
   -1.1090   25.1650  -28.2110 C   0  0  0  0  0  0  0  0  0  0  0  0
   -1.1590   26.0480  -27.1200 C   0  0  0  0  0  0  0  0  0  0  0  0
   -1.9339   26.8278  -27.0815 H   0  0  0  0  0  0  0  0  0  0  0  0
   -0.2290   25.9400  -26.0840 C   0  0  0  0  0  0  0  0  0  0  0  0
   -0.2855   26.6223  -25.2230 H   0  0  0  0  0  0  0  0  0  0  0  0
    0.7760   24.9650  -26.1380 C   0  0  0  0  0  0  0  0  0  0  0  0
    1.9320   24.8200  -24.8170 S   0  0  0  0  0  0  0  0  0  0  0  0
    1.7430   23.4970  -24.1240 O   0  0  0  0  0  0  0  0  0  0  0  0
    1.7160   25.9230  -23.8180 O   0  0  0  0  0  0  0  0  0  0  0  0
    3.5820   24.9320  -25.4680 C   0  0  0  0  0  0  0  0  0  0  0  0
    4.3014   24.9808  -24.6373 H   0  0  0  0  0  0  0  0  0  0  0  0
    3.7937   24.0462  -26.0848 H   0  0  0  0  0  0  0  0  0  0  0  0
    3.6721   25.8383  -26.0848 H   0  0  0  0  0  0  0  0  0  0  0  0
    0.8400   24.1000  -27.2390 C   0  0  0  0  0  0  0  0  0  0  0  0
    1.6247   23.3306  -27.2862 H   0  0  0  0  0  0  0  0  0  0  0  0
   -0.0890   24.2110  -28.2770 C   0  0  0  0  0  0  0  0  0  0  0  0
   -0.0175   23.5451  -29.1496 H   0  0  0  0  0  0  0  0  0  0  0  0
   -3.6470   23.7190  -28.6180 C   0  0  0  0  0  0  0  0  0  0  0  0
   -3.0563   23.4172  -27.7405 H   0  0  0  0  0  0  0  0  0  0  0  0
   -4.8810   23.1190  -28.8740 C   0  0  0  0  0  0  0  0  0  0  0  0
   -5.2669   22.3483  -28.1906 H   0  0  0  0  0  0  0  0  0  0  0  0
   -5.6320   23.4940  -29.9990 C   0  0  0  0  0  0  0  0  0  0  0  0
   -6.9400   22.8620  -30.2880 C   0  0  0  0  0  0  0  0  0  0  0  0
   -7.7920   22.7380  -29.3690 O   0  0  0  0  0  0  0  0  0  0  0  0
   -7.2510   22.4410  -31.6240 N   0  0  0  0  0  0  0  0  0  0  0  0
   -6.9180   21.1910  -32.2470 C   0  0  0  0  0  0  0  0  0  0  0  0
   -7.7600   20.0660  -32.1800 C   0  0  0  0  0  0  0  0  0  0  0  0
   -8.7227   20.1334  -31.6522 H   0  0  0  0  0  0  0  0  0  0  0  0
   -7.3790   18.8630  -32.7810 C   0  0  0  0  0  0  0  0  0  0  0  0
   -8.0496   17.9921  -32.7369 H   0  0  0  0  0  0  0  0  0  0  0  0
   -6.1470   18.7620  -33.4390 C   0  0  0  0  0  0  0  0  0  0  0  0
   -5.6640   17.2460  -34.2030 S   0  0  0  0  0  0  0  0  0  0  0  0
   -5.1710   17.5240  -35.5950 O   0  0  0  0  0  0  0  0  0  0  0  0
   -6.8630   16.3450  -34.3090 O   0  0  0  0  0  0  0  0  0  0  0  0
   -4.4040   16.4410  -33.2980 N   0  0  0  0  0  0  0  0  0  0  0  0
   -4.9640   15.5730  -32.2340 C   0  0  0  0  0  0  0  0  0  0  0  0
   -4.3822   15.7269  -31.3132 H   0  0  0  0  0  0  0  0  0  0  0  0
   -6.0200   15.8517  -32.1028 H   0  0  0  0  0  0  0  0  0  0  0  0
   -4.9230   14.0800  -32.5960 C   0  0  0  0  0  0  0  0  0  0  0  0
   -5.3269   13.4959  -31.7559 H   0  0  0  0  0  0  0  0  0  0  0  0
   -5.5268   13.9247  -33.5023 H   0  0  0  0  0  0  0  0  0  0  0  0
   -3.4830   13.6160  -32.8840 C   0  0  0  0  0  0  0  0  0  0  0  0
   -3.0285   13.2747  -31.9422 H   0  0  0  0  0  0  0  0  0  0  0  0
   -3.5376   12.8066  -33.6268 H   0  0  0  0  0  0  0  0  0  0  0  0
   -2.6050   14.7330  -33.4780 C   0  0  0  0  0  0  0  0  0  0  0  0
   -2.0578   15.2312  -32.6642 H   0  0  0  0  0  0  0  0  0  0  0  0
   -1.9036   14.2824  -34.1956 H   0  0  0  0  0  0  0  0  0  0  0  0
   -3.4580   15.7700  -34.2160 C   0  0  0  0  0  0  0  0  0  0  0  0
   -2.7956   16.5260  -34.6629 H   0  0  0  0  0  0  0  0  0  0  0  0
   -4.0382   15.2516  -34.9936 H   0  0  0  0  0  0  0  0  0  0  0  0
   -5.2940   19.8730  -33.4800 C   0  0  0  0  0  0  0  0  0  0  0  0
   -4.3186   19.7969  -33.9827 H   0  0  0  0  0  0  0  0  0  0  0  0
   -5.6780   21.0760  -32.8850 C   0  0  0  0  0  0  0  0  0  0  0  0
   -4.9997   21.9413  -32.9180 H   0  0  0  0  0  0  0  0  0  0  0  0
  1  2  1  0
  2  3  1  0
  3  4  1  0
  4  5  2  0
  5  6  1  0
  6  7  2  0
  7  8  1  0
  7  9  1  0
  9 10  1  0
  9 11  2  0
 11 12  1  0
 12 13  2  0
 12 14  2  0
 12 15  1  0
 15 16  1  0
 15 17  1  0
 15 18  1  0
 11 19  1  0
 19 20  1  0
 19 21  2  0
 21 22  1  0
  4 23  1  0
 23 24  1  0
 23 25  2  0
 25 26  1  0
 25 27  1  0
 27 28  1  0
 28 29  2  0
 28 30  1  0
 30 31  1  0
 31 32  2  0
 32 33  1  0
 32 34  1  0
 34 35  1  0
 34 36  2  0
 36 37  1  0
 37 38  2  0
 37 39  2  0
 37 40  1  0
 40 41  1  0
 41 42  1  0
 41 43  1  0
 41 44  1  0
 44 45  1  0
 44 46  1  0
 44 47  1  0
 47 48  1  0
 47 49  1  0
 47 50  1  0
 50 51  1  0
 50 52  1  0
 50 53  1  0
 53 54  1  0
 53 55  1  0
 36 56  1  0
 56 57  1  0
 56 58  2  0
 58 59  1  0
 27  2  2  0
 58 31  1  0
 21  6  1  0
 53 40  1  0
M  CHG  2   3  -1  30  -1
M  END
>  <UniqueID>  (40) 
39

>  <SMILES>  (40) 
CS(=O)(=O)c1ccc(/N=c2\ccc(C(=O)[N-]c3ccc(S(=O)(=O)N4CCCCC4)cc3)c[n-]2)cc1

>  <Energy>  (40) 
78.92537469280026

>  <Genealogy>  (40) 
CS(=O)(=O)c1ccc(N=c2ccc(C(=O)[N-]c3ccc(S(=O)(=O)N4CCCCC4)cc3)c[n-]2)cc1 (protonated)
CS(=O)(=O)c1ccc(/N=c2\ccc(C(=O)[N-]c3ccc(S(=O)(=O)N4CCCCC4)cc3)c[n-]2)cc1 (cis-trans isomerization)
CS(=O)(=O)c1ccc(/N=c2\ccc(C(=O)[N-]c3ccc(S(=O)(=O)N4CCCCC4)cc3)c[n-]2)cc1 (3D coordinates assigned)
CS(=O)(=O)c1ccc(/N=c2\ccc(C(=O)[N-]c3ccc(S(=O)(=O)N4CCCCC4)cc3)c[n-]2)cc1 (nonaromatic ring conformer: 78.92537469280026 kcal/mol)

>  <smiles>  (40) 
CS(=O)(=O)c1ccc(N=c2ccc(C(=O)Nc3ccc(S(=O)(=O)N4CCCCC4)cc3)c[nH]2)cc1

>  <score_type>  (40) 
oracle

>  <origin>  (40) 
adgpu

>  <m_score__min__energy>  (40) 
-12.5

>  <m_primary>  (40) 
energy

$$$$
40:0
     RDKit          3D

 47 49  0  0  0  0  0  0  0  0999 V2000
   -6.9180   16.4050  -33.4830 C   0  0  0  0  0  0  0  0  0  0  0  0
   -5.6790   17.2380  -33.6230 C   0  0  0  0  0  0  0  0  0  0  0  0
   -4.5600   16.7320  -34.3000 C   0  0  0  0  0  0  0  0  0  0  0  0
   -3.4130   17.5230  -34.4680 C   0  0  0  0  0  0  0  0  0  0  0  0
   -2.1990   16.9570  -35.1430 C   0  0  0  0  0  0  0  0  0  0  0  0
   -3.3850   18.8220  -33.9410 C   0  0  0  0  0  0  0  0  0  0  0  0
   -4.5100   19.3450  -33.2860 C   0  0  0  0  0  0  0  0  0  0  0  0
   -4.4820   20.9770  -32.6180 S   0  0  0  0  0  0  0  0  0  0  0  0
   -3.9430   21.8910  -33.6820 O   0  0  0  0  0  0  0  0  0  0  0  0
   -3.5710   21.0220  -31.4240 O   0  0  0  0  0  0  0  0  0  0  0  0
   -6.1150   21.4780  -32.1360 C   0  0  0  0  0  0  0  0  0  0  0  0
   -7.2140   20.7730  -32.6560 C   0  0  0  0  0  0  0  0  0  0  0  0
   -8.5190   21.1820  -32.3810 C   0  0  0  0  0  0  0  0  0  0  0  0
   -8.7470   22.3020  -31.5840 C   0  0  0  0  0  0  0  0  0  0  0  0
   -7.6710   23.0040  -31.0420 C   0  0  0  0  0  0  0  0  0  0  0  0
   -6.3490   22.5950  -31.2900 C   0  0  0  0  0  0  0  0  0  0  0  0
   -5.2550   23.3410  -30.6360 C   0  0  0  0  0  0  0  0  0  0  0  0
   -5.0110   24.5230  -30.9980 O   0  0  0  0  0  0  0  0  0  0  0  0
   -4.5460   22.7640  -29.5280 N   0  0  0  0  0  0  0  0  0  0  0  0
   -3.2800   23.2430  -29.0410 C   0  0  0  0  0  0  0  0  0  0  0  0
   -2.4980   22.4850  -28.1560 C   0  0  0  0  0  0  0  0  0  0  0  0
   -1.2840   22.9860  -27.6770 C   0  0  0  0  0  0  0  0  0  0  0  0
   -0.8290   24.2610  -28.0620 C   0  0  0  0  0  0  0  0  0  0  0  0
    0.4660   24.7660  -27.5370 C   0  0  0  0  0  0  0  0  0  0  0  0
    0.5090   25.3960  -26.4470 O   0  0  0  0  0  0  0  0  0  0  0  0
    1.6510   24.5550  -28.2320 O   0  0  0  0  0  0  0  0  0  0  0  0
   -1.6290   25.0300  -28.9350 C   0  0  0  0  0  0  0  0  0  0  0  0
   -1.2350   26.3010  -29.3410 O   0  0  0  0  0  0  0  0  0  0  0  0
   -2.8430   24.5220  -29.4100 C   0  0  0  0  0  0  0  0  0  0  0  0
   -5.6550   18.5520  -33.1340 C   0  0  0  0  0  0  0  0  0  0  0  0
   -7.1406   16.2553  -32.4162 H   0  0  0  0  0  0  0  0  0  0  0  0
   -7.7623   16.9197  -33.9650 H   0  0  0  0  0  0  0  0  0  0  0  0
   -6.7600   15.4290  -33.9650 H   0  0  0  0  0  0  0  0  0  0  0  0
   -4.5814   15.7083  -34.7020 H   0  0  0  0  0  0  0  0  0  0  0  0
   -1.4792   16.6214  -34.3819 H   0  0  0  0  0  0  0  0  0  0  0  0
   -2.4932   16.1032  -35.7711 H   0  0  0  0  0  0  0  0  0  0  0  0
   -1.7342   17.7313  -35.7711 H   0  0  0  0  0  0  0  0  0  0  0  0
   -2.4765   19.4340  -34.0416 H   0  0  0  0  0  0  0  0  0  0  0  0
   -7.0431   19.8884  -33.2872 H   0  0  0  0  0  0  0  0  0  0  0  0
   -9.3693   20.6195  -32.7939 H   0  0  0  0  0  0  0  0  0  0  0  0
   -9.7766   22.6326  -31.3822 H   0  0  0  0  0  0  0  0  0  0  0  0
   -7.8585   23.8872  -30.4137 H   0  0  0  0  0  0  0  0  0  0  0  0
   -5.0230   22.0040  -28.9940 H   0  0  0  0  0  0  0  0  0  0  0  0
   -2.8425   21.4902  -27.8371 H   0  0  0  0  0  0  0  0  0  0  0  0
   -0.6772   22.3766  -26.9911 H   0  0  0  0  0  0  0  0  0  0  0  0
   -3.4623   25.1346  -30.0817 H   0  0  0  0  0  0  0  0  0  0  0  0
   -6.5409   18.9629  -32.6277 H   0  0  0  0  0  0  0  0  0  0  0  0
  1  2  1  0
  2  3  2  0
  3  4  1  0
  4  5  1  0
  4  6  2  0
  6  7  1  0
  7  8  1  0
  8  9  2  0
  8 10  2  0
  8 11  1  0
 11 12  2  0
 12 13  1  0
 13 14  2  0
 14 15  1  0
 15 16  2  0
 16 17  1  0
 17 18  2  0
 17 19  1  0
 19 20  1  0
 20 21  2  0
 21 22  1  0
 22 23  2  0
 23 24  1  0
 24 25  2  0
 24 26  1  0
 23 27  1  0
 27 28  1  0
 27 29  2  0
  7 30  2  0
 30  2  1  0
 16 11  1  0
 29 20  1  0
  1 31  1  0
  1 32  1  0
  1 33  1  0
  3 34  1  0
  5 35  1  0
  5 36  1  0
  5 37  1  0
  6 38  1  0
 12 39  1  0
 13 40  1  0
 14 41  1  0
 15 42  1  0
 19 43  1  0
 21 44  1  0
 22 45  1  0
 29 46  1  0
 30 47  1  0
M  CHG  2  26  -1  28  -1
M  END
>  <UniqueID>  (41) 
40

>  <SMILES>  (41) 
Cc1cc(C)cc(S(=O)(=O)c2ccccc2C(=O)Nc2ccc(C(=O)[O-])c([O-])c2)c1

>  <Energy>  (41) 
62.53069897887793

>  <Genealogy>  (41) 
Cc1cc(C)cc(S(=O)(=O)c2ccccc2C(=O)Nc2ccc(C(=O)[O-])c([O-])c2)c1 (protonated)
Cc1cc(C)cc(S(=O)(=O)c2ccccc2C(=O)Nc2ccc(C(=O)[O-])c([O-])c2)c1 (3D coordinates assigned)
Cc1cc(C)cc(S(=O)(=O)c2ccccc2C(=O)Nc2ccc(C(=O)[O-])c([O-])c2)c1 (optimized conformer: 62.53069897887793 kcal/mol)

>  <smiles>  (41) 
Cc1cc(C)cc(S(=O)(=O)c2ccccc2C(=O)Nc2ccc(C(=O)O)c(O)c2)c1

>  <score_type>  (41) 
oracle

>  <origin>  (41) 
adgpu

>  <m_score__min__energy>  (41) 
-13.359999999999999

>  <m_primary>  (41) 
energy

$$$$
41:0
     RDKit          3D

 40 43  0  0  0  0  0  0  0  0999 V2000
   -0.9800   27.6880  -24.3870 N   0  0  0  0  0  0  0  0  0  0  0  0
   -0.6350   26.8020  -25.4550 C   0  0  0  0  0  0  0  0  0  0  0  0
    0.3610   25.8330  -25.2730 C   0  0  0  0  0  0  0  0  0  0  0  0
    0.6970   24.9660  -26.3160 C   0  0  0  0  0  0  0  0  0  0  0  0
    0.0290   25.0460  -27.5500 C   0  0  0  0  0  0  0  0  0  0  0  0
    0.3570   24.1690  -28.6390 N   0  0  0  0  0  0  0  0  0  0  0  0
    0.0100   22.7800  -28.7420 C   0  0  0  0  0  0  0  0  0  0  0  0
    0.7700   21.9280  -28.2110 O   0  0  0  0  0  0  0  0  0  0  0  0
   -1.1830   22.3210  -29.4950 C   0  0  0  0  0  0  0  0  0  0  0  0
   -1.1550   21.1000  -30.1810 C   0  0  0  0  0  0  0  0  0  0  0  0
   -2.2800   20.6550  -30.8790 C   0  0  0  0  0  0  0  0  0  0  0  0
   -3.4630   21.4210  -30.9150 C   0  0  0  0  0  0  0  0  0  0  0  0
   -3.4800   22.6570  -30.2390 C   0  0  0  0  0  0  0  0  0  0  0  0
   -2.3450   23.1040  -29.5490 C   0  0  0  0  0  0  0  0  0  0  0  0
   -4.9020   23.6710  -30.2450 S   0  0  0  0  0  0  0  0  0  0  0  0
   -5.3070   23.9670  -28.8280 O   0  0  0  0  0  0  0  0  0  0  0  0
   -4.6050   24.9490  -30.9770 O   0  0  0  0  0  0  0  0  0  0  0  0
   -6.2000   22.8230  -31.0520 C   0  0  0  0  0  0  0  0  0  0  0  0
   -7.4690   23.4150  -31.0860 C   0  0  0  0  0  0  0  0  0  0  0  0
   -8.5300   22.7760  -31.7280 C   0  0  0  0  0  0  0  0  0  0  0  0
   -8.3280   21.5430  -32.3430 C   0  0  0  0  0  0  0  0  0  0  0  0
   -7.0650   20.9450  -32.3160 C   0  0  0  0  0  0  0  0  0  0  0  0
   -5.9800   21.5740  -31.6700 C   0  0  0  0  0  0  0  0  0  0  0  0
   -4.6460   20.9040  -31.6620 C   0  0  0  0  0  0  0  0  0  0  0  0
   -4.5150   19.8330  -32.3190 O   0  0  0  0  0  0  0  0  0  0  0  0
   -0.9510   26.0330  -27.7380 C   0  0  0  0  0  0  0  0  0  0  0  0
   -1.6030   26.1480  -28.9600 O   0  0  0  0  0  0  0  0  0  0  0  0
   -1.2840   26.9020  -26.6930 C   0  0  0  0  0  0  0  0  0  0  0  0
   -0.2710   28.3360  -23.9800 H   0  0  0  0  0  0  0  0  0  0  0  0
   -1.9490   27.7030  -23.9980 H   0  0  0  0  0  0  0  0  0  0  0  0
    0.8798   25.7547  -24.3062 H   0  0  0  0  0  0  0  0  0  0  0  0
    1.4889   24.2165  -26.1705 H   0  0  0  0  0  0  0  0  0  0  0  0
   -0.2412   20.4878  -30.1699 H   0  0  0  0  0  0  0  0  0  0  0  0
   -2.2424   19.6918  -31.4089 H   0  0  0  0  0  0  0  0  0  0  0  0
   -2.3660   24.0808  -29.0437 H   0  0  0  0  0  0  0  0  0  0  0  0
   -7.6300   24.3902  -30.6033 H   0  0  0  0  0  0  0  0  0  0  0  0
   -9.5246   23.2454  -31.7484 H   0  0  0  0  0  0  0  0  0  0  0  0
   -9.1636   21.0390  -32.8507 H   0  0  0  0  0  0  0  0  0  0  0  0
   -6.9150   19.9711  -32.8049 H   0  0  0  0  0  0  0  0  0  0  0  0
   -2.0592   27.6676  -26.8441 H   0  0  0  0  0  0  0  0  0  0  0  0
  1  2  1  0
  2  3  2  0
  3  4  1  0
  4  5  2  0
  5  6  1  0
  6  7  1  0
  7  8  2  0
  7  9  1  0
  9 10  2  0
 10 11  1  0
 11 12  2  0
 12 13  1  0
 13 14  2  0
 13 15  1  0
 15 16  2  0
 15 17  2  0
 15 18  1  0
 18 19  2  0
 19 20  1  0
 20 21  2  0
 21 22  1  0
 22 23  2  0
 23 24  1  0
 24 25  2  0
  5 26  1  0
 26 27  1  0
 26 28  2  0
 28  2  1  0
 14  9  1  0
 23 18  1  0
 24 12  1  0
  1 29  1  0
  1 30  1  0
  3 31  1  0
  4 32  1  0
 10 33  1  0
 11 34  1  0
 14 35  1  0
 19 36  1  0
 20 37  1  0
 21 38  1  0
 22 39  1  0
 28 40  1  0
M  CHG  2   6  -1  27  -1
M  END
>  <UniqueID>  (42) 
41

>  <SMILES>  (42) 
Nc1ccc([N-]C(=O)c2ccc3c(c2)S(=O)(=O)c2ccccc2C3=O)c([O-])c1

>  <Energy>  (42) 
59.22425865912878

>  <Genealogy>  (42) 
Nc1ccc([N-]C(=O)c2ccc3c(c2)S(=O)(=O)c2ccccc2C3=O)c([O-])c1 (protonated)
Nc1ccc([N-]C(=O)c2ccc3c(c2)S(=O)(=O)c2ccccc2C3=O)c([O-])c1 (3D coordinates assigned)
Nc1ccc([N-]C(=O)c2ccc3c(c2)S(=O)(=O)c2ccccc2C3=O)c([O-])c1 (nonaromatic ring conformer: 59.22425865912878 kcal/mol)

>  <smiles>  (42) 
Nc1ccc(NC(=O)c2ccc3c(c2)S(=O)(=O)c2ccccc2C3=O)c(O)c1

>  <score_type>  (42) 
oracle

>  <origin>  (42) 
adgpu

>  <m_score__min__energy>  (42) 
-15.029999999999999

>  <m_primary>  (42) 
energy

$$$$
42:0
     RDKit          3D

 55 58  0  0  0  0  0  0  0  0999 V2000
    0.6680   23.7860  -26.1270 C   0  0  0  0  0  0  0  0  0  0  0  0
   -0.3920   23.8780  -27.1930 C   0  0  0  0  0  0  0  0  0  0  0  0
   -0.5590   25.1010  -27.8620 C   0  0  0  0  0  0  0  0  0  0  0  0
   -1.5170   25.2410  -28.8630 C   0  0  0  0  0  0  0  0  0  0  0  0
   -2.3410   24.1680  -29.2110 C   0  0  0  0  0  0  0  0  0  0  0  0
   -3.2990   24.3420  -30.2670 N   0  0  0  0  0  0  0  0  0  0  0  0
   -4.6990   24.5550  -30.0330 C   0  0  0  0  0  0  0  0  0  0  0  0
   -5.1030   24.9120  -28.8940 O   0  0  0  0  0  0  0  0  0  0  0  0
   -5.6440   24.4620  -31.1050 N   0  0  0  0  0  0  0  0  0  0  0  0
   -6.3440   23.2750  -31.5050 C   0  0  0  0  0  0  0  0  0  0  0  0
   -7.7500   23.2270  -31.5440 C   0  0  0  0  0  0  0  0  0  0  0  0
   -8.3990   22.0640  -31.9670 C   0  0  0  0  0  0  0  0  0  0  0  0
   -7.6560   20.9500  -32.3650 C   0  0  0  0  0  0  0  0  0  0  0  0
   -6.2550   20.9920  -32.3450 C   0  0  0  0  0  0  0  0  0  0  0  0
   -5.3140   19.5900  -32.8660 S   0  0  0  0  0  0  0  0  0  0  0  0
   -5.7160   18.3960  -32.0460 O   0  0  0  0  0  0  0  0  0  0  0  0
   -5.6330   19.2950  -34.3050 O   0  0  0  0  0  0  0  0  0  0  0  0
   -3.5900   19.8340  -32.7070 N   0  0  0  0  0  0  0  0  0  0  0  0
   -3.0940   20.8720  -33.6080 C   0  0  0  0  0  0  0  0  0  0  0  0
   -1.8260   21.4220  -32.9730 C   0  0  0  0  0  0  0  0  0  0  0  0
   -1.9030   21.0210  -31.5060 C   0  0  0  0  0  0  0  0  0  0  0  0
   -3.2190   20.2730  -31.3640 C   0  0  0  0  0  0  0  0  0  0  0  0
   -5.6060   22.1650  -31.9300 C   0  0  0  0  0  0  0  0  0  0  0  0
   -2.1730   22.9270  -28.5680 C   0  0  0  0  0  0  0  0  0  0  0  0
   -2.9220   21.8340  -28.9940 O   0  0  0  0  0  0  0  0  0  0  0  0
   -1.2290   22.7800  -27.5260 C   0  0  0  0  0  0  0  0  0  0  0  0
   -1.0550   21.2080  -26.7030 S   0  0  0  0  0  0  0  0  0  0  0  0
    0.2430   20.5720  -27.1150 O   0  0  0  0  0  0  0  0  0  0  0  0
   -1.0010   21.4000  -25.2130 O   0  0  0  0  0  0  0  0  0  0  0  0
   -2.3930   20.0730  -27.0850 C   0  0  0  0  0  0  0  0  0  0  0  0
   -1.9540   18.6210  -27.1860 C   0  0  0  0  0  0  0  0  0  0  0  0
   -2.7860   19.0780  -26.0010 C   0  0  0  0  0  0  0  0  0  0  0  0
    0.1948   23.8271  -25.1348 H   0  0  0  0  0  0  0  0  0  0  0  0
    1.2140   22.8371  -26.2338 H   0  0  0  0  0  0  0  0  0  0  0  0
    1.3694   24.6266  -26.2338 H   0  0  0  0  0  0  0  0  0  0  0  0
    0.0745   25.9589  -27.5922 H   0  0  0  0  0  0  0  0  0  0  0  0
   -1.6257   26.2039  -29.3836 H   0  0  0  0  0  0  0  0  0  0  0  0
   -2.9410   24.4780  -31.2390 H   0  0  0  0  0  0  0  0  0  0  0  0
   -8.3385   24.1056  -31.2413 H   0  0  0  0  0  0  0  0  0  0  0  0
   -9.4982   22.0256  -31.9866 H   0  0  0  0  0  0  0  0  0  0  0  0
   -8.1722   20.0365  -32.6953 H   0  0  0  0  0  0  0  0  0  0  0  0
   -2.8696   20.4430  -34.5957 H   0  0  0  0  0  0  0  0  0  0  0  0
   -3.8429   21.6644  -33.7540 H   0  0  0  0  0  0  0  0  0  0  0  0
   -0.9360   20.9816  -33.4463 H   0  0  0  0  0  0  0  0  0  0  0  0
   -1.7461   22.5122  -33.0959 H   0  0  0  0  0  0  0  0  0  0  0  0
   -1.0582   20.3687  -31.2399 H   0  0  0  0  0  0  0  0  0  0  0  0
   -1.8530   21.8940  -30.8387 H   0  0  0  0  0  0  0  0  0  0  0  0
   -3.0934   19.4044  -30.7008 H   0  0  0  0  0  0  0  0  0  0  0  0
   -3.9972   20.9143  -30.9246 H   0  0  0  0  0  0  0  0  0  0  0  0
   -4.5070   22.2122  -31.9389 H   0  0  0  0  0  0  0  0  0  0  0  0
   -2.9568   20.7825  -27.7085 H   0  0  0  0  0  0  0  0  0  0  0  0
   -2.3981   17.9644  -27.9487 H   0  0  0  0  0  0  0  0  0  0  0  0
   -0.9884   18.1079  -27.3055 H   0  0  0  0  0  0  0  0  0  0  0  0
   -3.8326   18.7532  -25.9058 H   0  0  0  0  0  0  0  0  0  0  0  0
   -2.6729   19.0336  -24.9077 H   0  0  0  0  0  0  0  0  0  0  0  0
  1  2  1  0
  2  3  2  0
  3  4  1  0
  4  5  2  0
  5  6  1  0
  6  7  1  0
  7  8  2  0
  7  9  1  0
  9 10  1  0
 10 11  2  0
 11 12  1  0
 12 13  2  0
 13 14  1  0
 14 15  1  0
 15 16  2  0
 15 17  2  0
 15 18  1  0
 18 19  1  0
 19 20  1  0
 20 21  1  0
 21 22  1  0
 14 23  2  0
  5 24  1  0
 24 25  1  0
 24 26  2  0
 26 27  1  0
 27 28  2  0
 27 29  2  0
 27 30  1  0
 30 31  1  0
 31 32  1  0
 26  2  1  0
 32 30  1  0
 23 10  1  0
 22 18  1  0
  1 33  1  0
  1 34  1  0
  1 35  1  0
  3 36  1  0
  4 37  1  0
  6 38  1  0
 11 39  1  0
 12 40  1  0
 13 41  1  0
 19 42  1  0
 19 43  1  0
 20 44  1  0
 20 45  1  0
 21 46  1  0
 21 47  1  0
 22 48  1  0
 22 49  1  0
 23 50  1  0
 30 51  1  0
 31 52  1  0
 31 53  1  0
 32 54  1  0
 32 55  1  0
M  CHG  2   9  -1  25  -1
M  END
>  <UniqueID>  (43) 
42

>  <SMILES>  (43) 
Cc1ccc(NC(=O)[N-]c2cccc(S(=O)(=O)N3CCCC3)c2)c([O-])c1S(=O)(=O)C1CC1

>  <Energy>  (43) 
332.85668836251926

>  <Genealogy>  (43) 
Cc1ccc(NC(=O)[N-]c2cccc(S(=O)(=O)N3CCCC3)c2)c([O-])c1S(=O)(=O)C1CC1 (protonated)
Cc1ccc(NC(=O)[N-]c2cccc(S(=O)(=O)N3CCCC3)c2)c([O-])c1S(=O)(=O)C1CC1 (3D coordinates assigned)
Cc1ccc(NC(=O)[N-]c2cccc(S(=O)(=O)N3CCCC3)c2)c([O-])c1S(=O)(=O)C1CC1 (nonaromatic ring conformer: 332.85668836251926 kcal/mol)

>  <smiles>  (43) 
Cc1ccc(NC(=O)Nc2cccc(S(=O)(=O)N3CCCC3)c2)c(O)c1S(=O)(=O)C1CC1

>  <score_type>  (43) 
oracle

>  <origin>  (43) 
adgpu

>  <m_score__min__energy>  (43) 
-14.84

>  <m_primary>  (43) 
energy

$$$$
43:0
     RDKit          3D

 50 53  0  0  0  0  0  0  0  0999 V2000
   -8.5860   22.0730  -31.3200 C   0  0  0  0  0  0  0  0  0  0  0  0
   -8.2620   20.7640  -31.9740 C   0  0  0  0  0  0  0  0  0  0  0  0
   -9.1490   19.8680  -31.9950 O   0  0  0  0  0  0  0  0  0  0  0  0
   -6.9700   20.5060  -32.5680 N   0  0  0  0  0  0  0  0  0  0  0  0
   -6.8340   19.3510  -33.4730 C   0  0  0  0  0  0  0  0  0  0  0  0
   -5.4930   19.3680  -34.2080 C   0  0  0  0  0  0  0  0  0  0  0  0
   -4.4100   19.5860  -33.2430 N   0  0  0  0  0  0  0  0  0  0  0  0
   -3.3980   18.5780  -33.0710 C   0  0  0  0  0  0  0  0  0  0  0  0
   -3.7420   17.3650  -33.0280 O   0  0  0  0  0  0  0  0  0  0  0  0
   -1.9610   18.9270  -32.9490 C   0  0  0  0  0  0  0  0  0  0  0  0
   -1.2570   19.4000  -34.0700 C   0  0  0  0  0  0  0  0  0  0  0  0
    0.0760   19.7950  -33.9550 C   0  0  0  0  0  0  0  0  0  0  0  0
    0.7290   19.7130  -32.7250 C   0  0  0  0  0  0  0  0  0  0  0  0
    2.0590   20.1090  -32.6290 O   0  0  0  0  0  0  0  0  0  0  0  0
    0.0540   19.2260  -31.5960 C   0  0  0  0  0  0  0  0  0  0  0  0
    0.7690   19.1420  -30.3550 N   0  0  0  0  0  0  0  0  0  0  0  0
    0.2230   19.6950  -28.8020 S   0  0  0  0  0  0  0  0  0  0  0  0
   -0.8750   18.7730  -28.3490 O   0  0  0  0  0  0  0  0  0  0  0  0
    1.3250   19.6450  -27.7810 O   0  0  0  0  0  0  0  0  0  0  0  0
   -0.4130   21.3360  -28.9330 C   0  0  0  0  0  0  0  0  0  0  0  0
    0.2520   22.4150  -28.3010 C   0  0  0  0  0  0  0  0  0  0  0  0
   -0.2540   23.7260  -28.3940 C   0  0  0  0  0  0  0  0  0  0  0  0
   -1.4240   23.9240  -29.1250 C   0  0  0  0  0  0  0  0  0  0  0  0
   -2.0580   25.0940  -29.3270 N   0  0  0  0  0  0  0  0  0  0  0  0
   -3.1240   24.7530  -30.0900 C   0  0  0  0  0  0  0  0  0  0  0  0
   -4.0630   25.6750  -30.5310 O   0  0  0  0  0  0  0  0  0  0  0  0
   -3.1710   23.3930  -30.3740 C   0  0  0  0  0  0  0  0  0  0  0  0
   -2.0680   22.8810  -29.7410 C   0  0  0  0  0  0  0  0  0  0  0  0
   -1.5930   21.5740  -29.6670 C   0  0  0  0  0  0  0  0  0  0  0  0
   -1.3010   18.8590  -31.7100 C   0  0  0  0  0  0  0  0  0  0  0  0
   -4.5160   20.6870  -32.2730 C   0  0  0  0  0  0  0  0  0  0  0  0
   -5.8450   21.4460  -32.4060 C   0  0  0  0  0  0  0  0  0  0  0  0
   -8.5565   21.9539  -30.2269 H   0  0  0  0  0  0  0  0  0  0  0  0
   -7.8478   22.8287  -31.6266 H   0  0  0  0  0  0  0  0  0  0  0  0
   -9.5915   22.3971  -31.6266 H   0  0  0  0  0  0  0  0  0  0  0  0
   -6.9066   18.4250  -32.8837 H   0  0  0  0  0  0  0  0  0  0  0  0
   -7.6380   19.4035  -34.2218 H   0  0  0  0  0  0  0  0  0  0  0  0
   -5.3418   18.4050  -34.7176 H   0  0  0  0  0  0  0  0  0  0  0  0
   -5.4918   20.1796  -34.9505 H   0  0  0  0  0  0  0  0  0  0  0  0
   -1.7613   19.4592  -35.0458 H   0  0  0  0  0  0  0  0  0  0  0  0
    0.6140   20.1724  -34.8371 H   0  0  0  0  0  0  0  0  0  0  0  0
    1.1739   22.2270  -27.7312 H   0  0  0  0  0  0  0  0  0  0  0  0
    0.2583   24.5676  -27.9049 H   0  0  0  0  0  0  0  0  0  0  0  0
   -3.9209   22.8520  -30.9698 H   0  0  0  0  0  0  0  0  0  0  0  0
   -2.1236   20.7504  -30.1672 H   0  0  0  0  0  0  0  0  0  0  0  0
   -1.8485   18.5155  -30.8199 H   0  0  0  0  0  0  0  0  0  0  0  0
   -4.4439   20.2728  -31.2565 H   0  0  0  0  0  0  0  0  0  0  0  0
   -3.6988   21.3956  -32.4731 H   0  0  0  0  0  0  0  0  0  0  0  0
   -6.0073   22.0505  -31.5015 H   0  0  0  0  0  0  0  0  0  0  0  0
   -5.7947   22.0928  -33.2943 H   0  0  0  0  0  0  0  0  0  0  0  0
  1  2  1  0
  2  3  2  0
  2  4  1  0
  4  5  1  0
  5  6  1  0
  6  7  1  0
  7  8  1  0
  8  9  2  0
  8 10  1  0
 10 11  2  0
 11 12  1  0
 12 13  2  0
 13 14  1  0
 13 15  1  0
 15 16  1  0
 16 17  1  0
 17 18  2  0
 17 19  2  0
 17 20  1  0
 20 21  2  0
 21 22  1  0
 22 23  2  0
 23 24  1  0
 24 25  1  0
 25 26  1  0
 25 27  2  0
 27 28  1  0
 28 29  2  0
 15 30  2  0
  7 31  1  0
 31 32  1  0
 32  4  1  0
 30 10  1  0
 29 20  1  0
 28 23  1  0
  1 33  1  0
  1 34  1  0
  1 35  1  0
  5 36  1  0
  5 37  1  0
  6 38  1  0
  6 39  1  0
 11 40  1  0
 12 41  1  0
 21 42  1  0
 22 43  1  0
 27 44  1  0
 29 45  1  0
 30 46  1  0
 31 47  1  0
 31 48  1  0
 32 49  1  0
 32 50  1  0
M  CHG  4  14  -1  16  -1  24  -1  26  -1
M  END
>  <UniqueID>  (44) 
43

>  <SMILES>  (44) 
CC(=O)N1CCN(C(=O)c2ccc([O-])c([N-]S(=O)(=O)c3ccc4[n-]c([O-])cc4c3)c2)CC1

>  <Energy>  (44) 
96.41028038032391

>  <Genealogy>  (44) 
CC(=O)N1CCN(C(=O)c2ccc([O-])c([N-]S(=O)(=O)c3ccc4[n-]c([O-])cc4c3)c2)CC1 (protonated)
CC(=O)N1CCN(C(=O)c2ccc([O-])c([N-]S(=O)(=O)c3ccc4[n-]c([O-])cc4c3)c2)CC1 (3D coordinates assigned)
CC(=O)N1CCN(C(=O)c2ccc([O-])c([N-]S(=O)(=O)c3ccc4[n-]c([O-])cc4c3)c2)CC1 (nonaromatic ring conformer: 96.41028038032391 kcal/mol)

>  <smiles>  (44) 
CC(=O)N1CCN(C(=O)c2ccc(O)c(NS(=O)(=O)c3ccc4[nH]c(O)cc4c3)c2)CC1

>  <score_type>  (44) 
oracle

>  <origin>  (44) 
adgpu

>  <m_score__min__energy>  (44) 
-13.640000000000001

>  <m_primary>  (44) 
energy

$$$$
44:0
     RDKit          3D

 53 56  0  0  0  0  0  0  0  0999 V2000
   -3.1930   20.1290  -33.1410 C   0  0  0  0  0  0  0  0  0  0  0  0
   -4.0730   21.3560  -33.3570 C   0  0  0  0  0  0  0  0  0  0  0  0
   -5.3990   21.1480  -32.7670 N   0  0  0  0  0  0  0  0  0  0  0  0
   -5.9480   21.8480  -31.7490 C   0  0  0  0  0  0  0  0  0  0  0  0
   -5.3480   22.9980  -31.1380 N   0  0  0  0  0  0  0  0  0  0  0  0
   -6.1220   24.2450  -31.0880 C   0  0  0  0  0  0  0  0  0  0  0  0
   -5.1860   25.4560  -31.0830 C   0  0  0  0  0  0  0  0  0  0  0  0
   -4.1860   25.3040  -30.0770 O   0  0  0  0  0  0  0  0  0  0  0  0
   -3.5500   24.0770  -29.8650 C   0  0  0  0  0  0  0  0  0  0  0  0
   -2.3840   24.0200  -29.0970 C   0  0  0  0  0  0  0  0  0  0  0  0
   -1.7310   22.7970  -28.9010 C   0  0  0  0  0  0  0  0  0  0  0  0
   -0.2820   22.7260  -27.9070 S   0  0  0  0  0  0  0  0  0  0  0  0
    0.6110   21.6600  -28.4770 O   0  0  0  0  0  0  0  0  0  0  0  0
   -0.6040   22.3610  -26.4850 O   0  0  0  0  0  0  0  0  0  0  0  0
    0.5780   24.2330  -27.9410 N   0  0  0  0  0  0  0  0  0  0  0  0
    0.3360   25.3520  -27.3200 C   0  0  0  0  0  0  0  0  0  0  0  0
    1.1150   26.3980  -27.4740 O   0  0  0  0  0  0  0  0  0  0  0  0
    0.6810   27.4050  -26.7790 N   0  0  0  0  0  0  0  0  0  0  0  0
   -0.4340   27.0210  -26.1350 C   0  0  0  0  0  0  0  0  0  0  0  0
   -1.2400   27.9200  -25.2510 C   0  0  0  0  0  0  0  0  0  0  0  0
   -0.6980   25.6910  -26.4340 C   0  0  0  0  0  0  0  0  0  0  0  0
   -1.9000   24.9240  -25.9670 C   0  0  0  0  0  0  0  0  0  0  0  0
   -2.2390   21.6360  -29.4990 C   0  0  0  0  0  0  0  0  0  0  0  0
   -3.4130   21.6880  -30.2540 C   0  0  0  0  0  0  0  0  0  0  0  0
   -4.0940   22.9080  -30.4220 C   0  0  0  0  0  0  0  0  0  0  0  0
   -7.1930   21.3550  -31.4200 C   0  0  0  0  0  0  0  0  0  0  0  0
   -7.4150   20.2960  -32.2780 C   0  0  0  0  0  0  0  0  0  0  0  0
   -9.0050   19.2400  -32.3410 Br  0  0  0  0  0  0  0  0  0  0  0  0
   -6.2910   20.1800  -33.0840 C   0  0  0  0  0  0  0  0  0  0  0  0
   -6.1360   19.2120  -34.2190 C   0  0  0  0  0  0  0  0  0  0  0  0
   -3.0671   19.9534  -32.0624 H   0  0  0  0  0  0  0  0  0  0  0  0
   -3.6685   19.2509  -33.6024 H   0  0  0  0  0  0  0  0  0  0  0  0
   -2.2088   20.2978  -33.6024 H   0  0  0  0  0  0  0  0  0  0  0  0
   -3.5993   22.2288  -32.8840 H   0  0  0  0  0  0  0  0  0  0  0  0
   -4.1875   21.5255  -34.4378 H   0  0  0  0  0  0  0  0  0  0  0  0
   -6.7792   24.2989  -31.9684 H   0  0  0  0  0  0  0  0  0  0  0  0
   -6.7221   24.2549  -30.1662 H   0  0  0  0  0  0  0  0  0  0  0  0
   -4.7011   25.5440  -32.0664 H   0  0  0  0  0  0  0  0  0  0  0  0
   -5.7732   26.3615  -30.8703 H   0  0  0  0  0  0  0  0  0  0  0  0
   -1.9784   24.9375  -28.6456 H   0  0  0  0  0  0  0  0  0  0  0  0
    1.1310   28.3470  -26.7490 H   0  0  0  0  0  0  0  0  0  0  0  0
   -1.0285   27.6841  -24.1976 H   0  0  0  0  0  0  0  0  0  0  0  0
   -0.9732   28.9679  -25.4528 H   0  0  0  0  0  0  0  0  0  0  0  0
   -2.3107   27.7688  -25.4528 H   0  0  0  0  0  0  0  0  0  0  0  0
   -1.9216   24.9102  -24.8673 H   0  0  0  0  0  0  0  0  0  0  0  0
   -2.8129   25.4069  -26.3457 H   0  0  0  0  0  0  0  0  0  0  0  0
   -1.8467   23.8926  -26.3457 H   0  0  0  0  0  0  0  0  0  0  0  0
   -1.7108   20.6793  -29.3733 H   0  0  0  0  0  0  0  0  0  0  0  0
   -3.8066   20.7721  -30.7189 H   0  0  0  0  0  0  0  0  0  0  0  0
   -7.8691   21.7279  -30.6366 H   0  0  0  0  0  0  0  0  0  0  0  0
   -5.9740   18.2004  -33.8186 H   0  0  0  0  0  0  0  0  0  0  0  0
   -7.0470   19.2208  -34.8354 H   0  0  0  0  0  0  0  0  0  0  0  0
   -5.2733   19.5048  -34.8354 H   0  0  0  0  0  0  0  0  0  0  0  0
  1  2  1  0
  2  3  1  0
  3  4  1  0
  4  5  1  0
  5  6  1  0
  6  7  1  0
  7  8  1  0
  8  9  1  0
  9 10  2  0
 10 11  1  0
 11 12  1  0
 12 13  2  0
 12 14  2  0
 12 15  1  0
 15 16  2  3
 16 17  1  0
 17 18  1  0
 18 19  1  0
 19 20  1  0
 19 21  2  0
 21 22  1  0
 11 23  2  0
 23 24  1  0
 24 25  2  0
  4 26  2  0
 26 27  1  0
 27 28  1  0
 27 29  2  0
 29 30  1  0
 29  3  1  0
 25  5  1  0
 25  9  1  0
 21 16  1  0
  1 31  1  0
  1 32  1  0
  1 33  1  0
  2 34  1  0
  2 35  1  0
  6 36  1  0
  6 37  1  0
  7 38  1  0
  7 39  1  0
 10 40  1  0
 18 41  1  0
 20 42  1  0
 20 43  1  0
 20 44  1  0
 22 45  1  0
 22 46  1  0
 22 47  1  0
 23 48  1  0
 24 49  1  0
 26 50  1  0
 30 51  1  0
 30 52  1  0
 30 53  1  0
M  END
>  <UniqueID>  (45) 
44

>  <SMILES>  (45) 
CCn1c(N2CCOc3cc(S(=O)(=O)N=c4o[nH]c(C)c4C)ccc32)cc(Br)c1C

>  <Energy>  (45) 
126.37532550907054

>  <Genealogy>  (45) 
CCn1c(N2CCOc3cc(S(=O)(=O)N=c4o[nH]c(C)c4C)ccc32)cc(Br)c1C (3D coordinates assigned)
CCn1c(N2CCOc3cc(S(=O)(=O)N=c4o[nH]c(C)c4C)ccc32)cc(Br)c1C (nonaromatic ring conformer: 126.37532550907054 kcal/mol)

>  <smiles>  (45) 
CCn1c(N2CCOc3cc(S(=O)(=O)N=c4o[nH]c(C)c4C)ccc32)cc(Br)c1C

>  <score_type>  (45) 
oracle

>  <origin>  (45) 
adgpu

>  <m_score__min__energy>  (45) 
-9.9199999999999999

>  <m_primary>  (45) 
energy

$$$$
45:0
     RDKit          3D

 63 66  0  0  0  0  0  0  0  0999 V2000
   -4.3690   24.7590  -30.6330 O   0  0  0  0  0  0  0  0  0  0  0  0
   -3.3050   24.1940  -30.2520 C   0  0  0  0  0  0  0  0  0  0  0  0
   -2.4160   24.8580  -29.3450 N   0  0  0  0  0  0  0  0  0  0  0  0
   -1.8770   24.3190  -28.1300 C   0  0  0  0  0  0  0  0  0  0  0  0
   -1.1940   25.1200  -27.1990 C   0  0  0  0  0  0  0  0  0  0  0  0
   -0.6670   24.5500  -26.0350 C   0  0  0  0  0  0  0  0  0  0  0  0
   -0.8160   23.1830  -25.7930 C   0  0  0  0  0  0  0  0  0  0  0  0
   -1.4830   22.3740  -26.7210 C   0  0  0  0  0  0  0  0  0  0  0  0
   -1.6500   20.6440  -26.4240 S   0  0  0  0  0  0  0  0  0  0  0  0
   -2.9760   20.1660  -26.9500 O   0  0  0  0  0  0  0  0  0  0  0  0
   -1.6090   20.4010  -24.9410 O   0  0  0  0  0  0  0  0  0  0  0  0
   -0.3470   19.7760  -27.1950 N   0  0  0  0  0  0  0  0  0  0  0  0
    0.0680   20.4690  -28.4280 C   0  0  0  0  0  0  0  0  0  0  0  0
    0.9300   19.5500  -29.3170 C   0  0  0  0  0  0  0  0  0  0  0  0
    1.4470   18.4710  -28.5650 O   0  0  0  0  0  0  0  0  0  0  0  0
    0.3890   17.6230  -28.1490 C   0  0  0  0  0  0  0  0  0  0  0  0
   -0.7740   18.4030  -27.4990 C   0  0  0  0  0  0  0  0  0  0  0  0
   -1.9960   22.9440  -27.8950 C   0  0  0  0  0  0  0  0  0  0  0  0
   -2.9910   22.8360  -30.7410 C   0  0  0  0  0  0  0  0  0  0  0  0
   -4.0480   22.0240  -31.1950 C   0  0  0  0  0  0  0  0  0  0  0  0
   -3.8010   20.7460  -31.7110 C   0  0  0  0  0  0  0  0  0  0  0  0
   -5.1530   19.7530  -32.2530 S   0  0  0  0  0  0  0  0  0  0  0  0
   -4.6860   18.9320  -33.4250 O   0  0  0  0  0  0  0  0  0  0  0  0
   -5.5710   18.8310  -31.1410 O   0  0  0  0  0  0  0  0  0  0  0  0
   -6.4970   20.7710  -32.7360 N   0  0  0  0  0  0  0  0  0  0  0  0
   -7.0640   21.4740  -31.5650 C   0  0  0  0  0  0  0  0  0  0  0  0
   -8.5000   21.9870  -31.8430 C   0  0  0  0  0  0  0  0  0  0  0  0
   -9.5960   20.9090  -31.6860 C   0  0  0  0  0  0  0  0  0  0  0  0
   -9.0610   19.4760  -31.4560 C   0  0  0  0  0  0  0  0  0  0  0  0
   -8.1940   18.9000  -32.5900 C   0  0  0  0  0  0  0  0  0  0  0  0
   -7.5030   19.9670  -33.4620 C   0  0  0  0  0  0  0  0  0  0  0  0
   -2.4840   20.2740  -31.7860 C   0  0  0  0  0  0  0  0  0  0  0  0
   -1.4280   21.0640  -31.3290 C   0  0  0  0  0  0  0  0  0  0  0  0
   -1.6660   22.3300  -30.7830 C   0  0  0  0  0  0  0  0  0  0  0  0
   -0.5770   23.0320  -30.2610 O   0  0  0  0  0  0  0  0  0  0  0  0
   -1.0735   26.1973  -27.3858 H   0  0  0  0  0  0  0  0  0  0  0  0
   -0.1337   25.1806  -25.3084 H   0  0  0  0  0  0  0  0  0  0  0  0
   -0.4087   22.7409  -24.8718 H   0  0  0  0  0  0  0  0  0  0  0  0
   -0.8283   20.7734  -28.9883 H   0  0  0  0  0  0  0  0  0  0  0  0
    0.6669   21.3488  -28.1501 H   0  0  0  0  0  0  0  0  0  0  0  0
    0.3109   19.1556  -30.1362 H   0  0  0  0  0  0  0  0  0  0  0  0
    1.7697   20.1344  -29.7212 H   0  0  0  0  0  0  0  0  0  0  0  0
    0.0043   17.0827  -29.0265 H   0  0  0  0  0  0  0  0  0  0  0  0
    0.7918   16.9327  -27.3932 H   0  0  0  0  0  0  0  0  0  0  0  0
   -1.6270   18.4315  -28.1930 H   0  0  0  0  0  0  0  0  0  0  0  0
   -1.0703   17.9009  -26.5662 H   0  0  0  0  0  0  0  0  0  0  0  0
   -2.4963   22.3052  -28.6378 H   0  0  0  0  0  0  0  0  0  0  0  0
   -5.0810   22.3985  -31.1436 H   0  0  0  0  0  0  0  0  0  0  0  0
   -7.0925   20.7799  -30.7121 H   0  0  0  0  0  0  0  0  0  0  0  0
   -6.4264   22.3431  -31.3455 H   0  0  0  0  0  0  0  0  0  0  0  0
   -8.7168   22.8050  -31.1403 H   0  0  0  0  0  0  0  0  0  0  0  0
   -8.5230   22.3124  -32.8935 H   0  0  0  0  0  0  0  0  0  0  0  0
  -10.2256   21.1823  -30.8264 H   0  0  0  0  0  0  0  0  0  0  0  0
  -10.1497   20.8864  -32.6362 H   0  0  0  0  0  0  0  0  0  0  0  0
   -8.4555   19.4841  -30.5377 H   0  0  0  0  0  0  0  0  0  0  0  0
   -9.9487   18.8291  -31.3975 H   0  0  0  0  0  0  0  0  0  0  0  0
   -7.4161   18.2650  -32.1409 H   0  0  0  0  0  0  0  0  0  0  0  0
   -8.8711   18.3408  -33.2524 H   0  0  0  0  0  0  0  0  0  0  0  0
   -7.0024   19.4593  -34.2996 H   0  0  0  0  0  0  0  0  0  0  0  0
   -8.2863   20.6621  -33.7985 H   0  0  0  0  0  0  0  0  0  0  0  0
   -2.2816   19.2778  -32.2063 H   0  0  0  0  0  0  0  0  0  0  0  0
   -0.3970   20.6870  -31.3989 H   0  0  0  0  0  0  0  0  0  0  0  0
   -0.5740   24.0330  -30.1220 H   0  0  0  0  0  0  0  0  0  0  0  0
  1  2  2  0
  2  3  1  0
  3  4  1  0
  4  5  2  0
  5  6  1  0
  6  7  2  0
  7  8  1  0
  8  9  1  0
  9 10  2  0
  9 11  2  0
  9 12  1  0
 12 13  1  0
 13 14  1  0
 14 15  1  0
 15 16  1  0
 16 17  1  0
  8 18  2  0
  2 19  1  0
 19 20  2  0
 20 21  1  0
 21 22  1  0
 22 23  2  0
 22 24  2  0
 22 25  1  0
 25 26  1  0
 26 27  1  0
 27 28  1  0
 28 29  1  0
 29 30  1  0
 30 31  1  0
 21 32  2  0
 32 33  1  0
 33 34  2  0
 34 35  1  0
 18  4  1  0
 34 19  1  0
 17 12  1  0
 31 25  1  0
  5 36  1  0
  6 37  1  0
  7 38  1  0
 13 39  1  0
 13 40  1  0
 14 41  1  0
 14 42  1  0
 16 43  1  0
 16 44  1  0
 17 45  1  0
 17 46  1  0
 18 47  1  0
 20 48  1  0
 26 49  1  0
 26 50  1  0
 27 51  1  0
 27 52  1  0
 28 53  1  0
 28 54  1  0
 29 55  1  0
 29 56  1  0
 30 57  1  0
 30 58  1  0
 31 59  1  0
 31 60  1  0
 32 61  1  0
 33 62  1  0
 35 63  1  0
M  CHG  1   3  -1
M  END
>  <UniqueID>  (46) 
45

>  <SMILES>  (46) 
O=C([N-]c1cccc(S(=O)(=O)N2CCOCC2)c1)c1cc(S(=O)(=O)N2CCCCCC2)ccc1O

>  <Energy>  (46) 
90.12357894744645

>  <Genealogy>  (46) 
O=C([N-]c1cccc(S(=O)(=O)N2CCOCC2)c1)c1cc(S(=O)(=O)N2CCCCCC2)ccc1O (protonated)
O=C([N-]c1cccc(S(=O)(=O)N2CCOCC2)c1)c1cc(S(=O)(=O)N2CCCCCC2)ccc1O (3D coordinates assigned)
O=C([N-]c1cccc(S(=O)(=O)N2CCOCC2)c1)c1cc(S(=O)(=O)N2CCCCCC2)ccc1O (nonaromatic ring conformer: 90.12357894744645 kcal/mol)

>  <smiles>  (46) 
O=C(Nc1cccc(S(=O)(=O)N2CCOCC2)c1)c1cc(S(=O)(=O)N2CCCCCC2)ccc1O

>  <score_type>  (46) 
oracle

>  <origin>  (46) 
adgpu

>  <m_score__min__energy>  (46) 
-9.5800000000000001

>  <m_primary>  (46) 
energy

$$$$
46:0
     RDKit          3D

 65 68  0  0  0  0  0  0  0  0999 V2000
   -0.1800   22.3170  -30.0630 C   0  0  0  0  0  0  0  0  0  0  0  0
   -0.3000   23.5670  -29.3870 O   0  0  0  0  0  0  0  0  0  0  0  0
   -0.0010   23.7700  -28.0310 C   0  0  0  0  0  0  0  0  0  0  0  0
    0.6960   24.9080  -27.5820 C   0  0  0  0  0  0  0  0  0  0  0  0
    0.9730   25.0840  -26.2190 C   0  0  0  0  0  0  0  0  0  0  0  0
    1.7220   26.2750  -25.7690 C   0  0  0  0  0  0  0  0  0  0  0  0
    2.9820   26.2600  -25.8550 O   0  0  0  0  0  0  0  0  0  0  0  0
    1.0480   27.4520  -25.2680 N   0  0  0  0  0  0  0  0  0  0  0  0
    1.8570   28.4330  -24.5230 C   0  0  0  0  0  0  0  0  0  0  0  0
    1.0270   29.6160  -24.0320 C   0  0  0  0  0  0  0  0  0  0  0  0
    0.1550   30.0550  -25.0480 O   0  0  0  0  0  0  0  0  0  0  0  0
   -0.8560   29.0920  -25.2250 C   0  0  0  0  0  0  0  0  0  0  0  0
   -0.2920   27.7780  -25.7890 C   0  0  0  0  0  0  0  0  0  0  0  0
    0.5740   24.1020  -25.3030 C   0  0  0  0  0  0  0  0  0  0  0  0
   -0.1100   22.9660  -25.7400 C   0  0  0  0  0  0  0  0  0  0  0  0
   -0.4050   22.7940  -27.1070 C   0  0  0  0  0  0  0  0  0  0  0  0
   -1.0900   21.6660  -27.5910 O   0  0  0  0  0  0  0  0  0  0  0  0
   -2.3590   21.2120  -27.1220 C   0  0  0  0  0  0  0  0  0  0  0  0
   -3.4640   21.8850  -27.8820 C   0  0  0  0  0  0  0  0  0  0  0  0
   -4.6150   21.9430  -27.3650 O   0  0  0  0  0  0  0  0  0  0  0  0
   -3.2070   22.4940  -29.1560 N   0  0  0  0  0  0  0  0  0  0  0  0
   -4.2020   23.2420  -29.8710 C   0  0  0  0  0  0  0  0  0  0  0  0
   -5.3880   22.6020  -30.2580 C   0  0  0  0  0  0  0  0  0  0  0  0
   -6.3690   23.2950  -30.9770 C   0  0  0  0  0  0  0  0  0  0  0  0
   -7.8550   22.4690  -31.4320 S   0  0  0  0  0  0  0  0  0  0  0  0
   -8.4560   21.7940  -30.2300 O   0  0  0  0  0  0  0  0  0  0  0  0
   -8.8290   23.4970  -31.9420 O   0  0  0  0  0  0  0  0  0  0  0  0
   -7.5070   21.3060  -32.6950 N   0  0  0  0  0  0  0  0  0  0  0  0
   -6.1200   20.8020  -32.6320 C   0  0  0  0  0  0  0  0  0  0  0  0
   -5.9600   19.6610  -31.6150 C   0  0  0  0  0  0  0  0  0  0  0  0
   -6.8820   18.6230  -31.8710 O   0  0  0  0  0  0  0  0  0  0  0  0
   -8.1970   19.1140  -31.7110 C   0  0  0  0  0  0  0  0  0  0  0  0
   -8.4980   20.2130  -32.7410 C   0  0  0  0  0  0  0  0  0  0  0  0
   -6.1700   24.6440  -31.2960 C   0  0  0  0  0  0  0  0  0  0  0  0
   -5.0050   25.2970  -30.8880 C   0  0  0  0  0  0  0  0  0  0  0  0
   -4.0260   24.6080  -30.1640 C   0  0  0  0  0  0  0  0  0  0  0  0
   -2.9000   25.2920  -29.7200 O   0  0  0  0  0  0  0  0  0  0  0  0
   -0.1022   21.5063  -29.3236 H   0  0  0  0  0  0  0  0  0  0  0  0
   -1.0667   22.1545  -30.6934 H   0  0  0  0  0  0  0  0  0  0  0  0
    0.7214   22.3261  -30.6934 H   0  0  0  0  0  0  0  0  0  0  0  0
    1.0263   25.6661  -28.3074 H   0  0  0  0  0  0  0  0  0  0  0  0
    2.3077   27.9322  -23.6535 H   0  0  0  0  0  0  0  0  0  0  0  0
    2.6262   28.8225  -25.2061 H   0  0  0  0  0  0  0  0  0  0  0  0
    0.4377   29.3074  -23.1559 H   0  0  0  0  0  0  0  0  0  0  0  0
    1.7032   30.4397  -23.7593 H   0  0  0  0  0  0  0  0  0  0  0  0
   -1.3302   28.8892  -24.2534 H   0  0  0  0  0  0  0  0  0  0  0  0
   -1.5881   29.4892  -25.9436 H   0  0  0  0  0  0  0  0  0  0  0  0
   -0.9787   26.9604  -25.5245 H   0  0  0  0  0  0  0  0  0  0  0  0
   -0.1988   27.9022  -26.8780 H   0  0  0  0  0  0  0  0  0  0  0  0
    0.8008   24.2266  -24.2339 H   0  0  0  0  0  0  0  0  0  0  0  0
   -0.4203   22.2010  -25.0130 H   0  0  0  0  0  0  0  0  0  0  0  0
   -2.4307   20.1236  -27.2643 H   0  0  0  0  0  0  0  0  0  0  0  0
   -2.4560   21.4586  -26.0544 H   0  0  0  0  0  0  0  0  0  0  0  0
   -2.2150   22.5750  -29.4740 H   0  0  0  0  0  0  0  0  0  0  0  0
   -5.5490   21.5463  -29.9944 H   0  0  0  0  0  0  0  0  0  0  0  0
   -5.8325   20.4318  -33.6272 H   0  0  0  0  0  0  0  0  0  0  0  0
   -5.4743   21.6325  -32.3105 H   0  0  0  0  0  0  0  0  0  0  0  0
   -4.9382   19.2594  -31.6825 H   0  0  0  0  0  0  0  0  0  0  0  0
   -6.1513   20.0595  -30.6077 H   0  0  0  0  0  0  0  0  0  0  0  0
   -8.9097   18.2872  -31.8471 H   0  0  0  0  0  0  0  0  0  0  0  0
   -8.2937   19.5407  -30.7017 H   0  0  0  0  0  0  0  0  0  0  0  0
   -8.4884   19.7681  -33.7470 H   0  0  0  0  0  0  0  0  0  0  0  0
   -9.4832   20.6398  -32.5017 H   0  0  0  0  0  0  0  0  0  0  0  0
   -6.9332   25.1906  -31.8694 H   0  0  0  0  0  0  0  0  0  0  0  0
   -4.8564   26.3581  -31.1370 H   0  0  0  0  0  0  0  0  0  0  0  0
  1  2  1  0
  2  3  1  0
  3  4  2  0
  4  5  1  0
  5  6  1  0
  6  7  2  0
  6  8  1  0
  8  9  1  0
  9 10  1  0
 10 11  1  0
 11 12  1  0
 12 13  1  0
  5 14  2  0
 14 15  1  0
 15 16  2  0
 16 17  1  0
 17 18  1  0
 18 19  1  0
 19 20  2  0
 19 21  1  0
 21 22  1  0
 22 23  2  0
 23 24  1  0
 24 25  1  0
 25 26  2  0
 25 27  2  0
 25 28  1  0
 28 29  1  0
 29 30  1  0
 30 31  1  0
 31 32  1  0
 32 33  1  0
 24 34  2  0
 34 35  1  0
 35 36  2  0
 36 37  1  0
 16  3  1  0
 36 22  1  0
 13  8  1  0
 33 28  1  0
  1 38  1  0
  1 39  1  0
  1 40  1  0
  4 41  1  0
  9 42  1  0
  9 43  1  0
 10 44  1  0
 10 45  1  0
 12 46  1  0
 12 47  1  0
 13 48  1  0
 13 49  1  0
 14 50  1  0
 15 51  1  0
 18 52  1  0
 18 53  1  0
 21 54  1  0
 23 55  1  0
 29 56  1  0
 29 57  1  0
 30 58  1  0
 30 59  1  0
 32 60  1  0
 32 61  1  0
 33 62  1  0
 33 63  1  0
 34 64  1  0
 35 65  1  0
M  CHG  1  37  -1
M  END
>  <UniqueID>  (47) 
46

>  <SMILES>  (47) 
COc1cc(C(=O)N2CCOCC2)ccc1OCC(=O)Nc1cc(S(=O)(=O)N2CCOCC2)ccc1[O-]

>  <Energy>  (47) 
84.52169069777918

>  <Genealogy>  (47) 
COc1cc(C(=O)N2CCOCC2)ccc1OCC(=O)Nc1cc(S(=O)(=O)N2CCOCC2)ccc1[O-] (protonated)
COc1cc(C(=O)N2CCOCC2)ccc1OCC(=O)Nc1cc(S(=O)(=O)N2CCOCC2)ccc1[O-] (3D coordinates assigned)
COc1cc(C(=O)N2CCOCC2)ccc1OCC(=O)Nc1cc(S(=O)(=O)N2CCOCC2)ccc1[O-] (nonaromatic ring conformer: 84.52169069777918 kcal/mol)

>  <smiles>  (47) 
COc1cc(C(=O)N2CCOCC2)ccc1OCC(=O)Nc1cc(S(=O)(=O)N2CCOCC2)ccc1O

>  <score_type>  (47) 
oracle

>  <origin>  (47) 
adgpu

>  <m_score__min__energy>  (47) 
-12.710000000000001

>  <m_primary>  (47) 
energy

$$$$
47:0
     RDKit          3D

 46 48  0  0  0  0  0  0  0  0999 V2000
   -1.7940   24.0730  -29.6410 O   0  0  0  0  0  0  0  0  0  0  0  0
   -3.2330   23.8270  -30.0040 S   0  0  0  0  0  0  0  0  0  0  0  0
   -4.0120   23.6230  -28.7360 O   0  0  0  0  0  0  0  0  0  0  0  0
   -3.8660   25.2180  -30.8400 N   0  0  0  0  0  0  0  0  0  0  0  0
   -5.2500   25.4990  -30.4510 C   0  0  0  0  0  0  0  0  0  0  0  0
   -6.1530   24.3330  -30.7520 C   0  0  0  0  0  0  0  0  0  0  0  0
   -6.3090   23.8770  -32.0690 C   0  0  0  0  0  0  0  0  0  0  0  0
   -7.1440   22.7900  -32.3370 C   0  0  0  0  0  0  0  0  0  0  0  0
   -7.8180   22.1700  -31.2830 C   0  0  0  0  0  0  0  0  0  0  0  0
   -7.6630   22.6270  -30.0120 N   0  0  0  0  0  0  0  0  0  0  0  0
   -6.8570   23.6840  -29.7250 C   0  0  0  0  0  0  0  0  0  0  0  0
   -3.3730   22.3730  -30.9910 C   0  0  0  0  0  0  0  0  0  0  0  0
   -2.7580   22.2990  -32.2480 C   0  0  0  0  0  0  0  0  0  0  0  0
   -2.9090   21.1560  -33.0390 C   0  0  0  0  0  0  0  0  0  0  0  0
   -3.6710   20.0750  -32.5740 C   0  0  0  0  0  0  0  0  0  0  0  0
   -3.9070   18.6480  -33.5820 S   0  0  0  0  0  0  0  0  0  0  0  0
   -3.8680   17.4330  -32.6970 O   0  0  0  0  0  0  0  0  0  0  0  0
   -2.7860   18.5450  -34.5790 O   0  0  0  0  0  0  0  0  0  0  0  0
   -5.4630   18.7390  -34.3820 N   0  0  0  0  0  0  0  0  0  0  0  0
   -6.1140   17.4230  -34.5440 C   0  0  0  0  0  0  0  0  0  0  0  0
   -6.7660   16.9130  -33.2520 C   0  0  0  0  0  0  0  0  0  0  0  0
   -7.7320   17.9530  -32.6880 C   0  0  0  0  0  0  0  0  0  0  0  0
   -7.0280   19.2950  -32.4920 C   0  0  0  0  0  0  0  0  0  0  0  0
   -6.3530   19.7580  -33.7930 C   0  0  0  0  0  0  0  0  0  0  0  0
   -4.2850   20.1490  -31.3190 C   0  0  0  0  0  0  0  0  0  0  0  0
   -4.1360   21.2930  -30.5290 C   0  0  0  0  0  0  0  0  0  0  0  0
   -5.2829   25.7077  -29.3715 H   0  0  0  0  0  0  0  0  0  0  0  0
   -5.6020   26.3671  -31.0275 H   0  0  0  0  0  0  0  0  0  0  0  0
   -5.7738   24.3753  -32.8907 H   0  0  0  0  0  0  0  0  0  0  0  0
   -7.2693   22.4262  -33.3675 H   0  0  0  0  0  0  0  0  0  0  0  0
   -8.4753   21.3106  -31.4813 H   0  0  0  0  0  0  0  0  0  0  0  0
   -6.7563   24.0313  -28.6861 H   0  0  0  0  0  0  0  0  0  0  0  0
   -2.1545   23.1429  -32.6136 H   0  0  0  0  0  0  0  0  0  0  0  0
   -2.4292   21.1049  -34.0275 H   0  0  0  0  0  0  0  0  0  0  0  0
   -6.8907   17.5092  -35.3181 H   0  0  0  0  0  0  0  0  0  0  0  0
   -5.3323   16.7018  -34.8247 H   0  0  0  0  0  0  0  0  0  0  0  0
   -7.3184   15.9865  -33.4676 H   0  0  0  0  0  0  0  0  0  0  0  0
   -5.9775   16.7230  -32.5090 H   0  0  0  0  0  0  0  0  0  0  0  0
   -8.5703   18.0840  -33.3880 H   0  0  0  0  0  0  0  0  0  0  0  0
   -8.0999   17.6013  -31.7128 H   0  0  0  0  0  0  0  0  0  0  0  0
   -7.7682   20.0478  -32.1831 H   0  0  0  0  0  0  0  0  0  0  0  0
   -6.2545   19.1754  -31.7191 H   0  0  0  0  0  0  0  0  0  0  0  0
   -7.1366   20.0028  -34.5252 H   0  0  0  0  0  0  0  0  0  0  0  0
   -5.7309   20.6307  -33.5452 H   0  0  0  0  0  0  0  0  0  0  0  0
   -4.8870   19.3044  -30.9526 H   0  0  0  0  0  0  0  0  0  0  0  0
   -4.6192   21.3450  -29.5422 H   0  0  0  0  0  0  0  0  0  0  0  0
  1  2  2  0
  2  3  2  0
  2  4  1  0
  4  5  1  0
  5  6  1  0
  6  7  2  0
  7  8  1  0
  8  9  2  0
  9 10  1  0
 10 11  2  0
  2 12  1  0
 12 13  2  0
 13 14  1  0
 14 15  2  0
 15 16  1  0
 16 17  2  0
 16 18  2  0
 16 19  1  0
 19 20  1  0
 20 21  1  0
 21 22  1  0
 22 23  1  0
 23 24  1  0
 15 25  1  0
 25 26  2  0
 11  6  1  0
 26 12  1  0
 24 19  1  0
  5 27  1  0
  5 28  1  0
  7 29  1  0
  8 30  1  0
  9 31  1  0
 11 32  1  0
 13 33  1  0
 14 34  1  0
 20 35  1  0
 20 36  1  0
 21 37  1  0
 21 38  1  0
 22 39  1  0
 22 40  1  0
 23 41  1  0
 23 42  1  0
 24 43  1  0
 24 44  1  0
 25 45  1  0
 26 46  1  0
M  CHG  1   4  -1
M  END
>  <UniqueID>  (48) 
47

>  <SMILES>  (48) 
O=S(=O)([N-]Cc1cccnc1)c1ccc(S(=O)(=O)N2CCCCC2)cc1

>  <Energy>  (48) 
45.77983636772794

>  <Genealogy>  (48) 
O=S(=O)([N-]Cc1cccnc1)c1ccc(S(=O)(=O)N2CCCCC2)cc1 (protonated)
O=S(=O)([N-]Cc1cccnc1)c1ccc(S(=O)(=O)N2CCCCC2)cc1 (3D coordinates assigned)
O=S(=O)([N-]Cc1cccnc1)c1ccc(S(=O)(=O)N2CCCCC2)cc1 (nonaromatic ring conformer: 45.77983636772794 kcal/mol)

>  <smiles>  (48) 
O=S(=O)(NCc1cccnc1)c1ccc(S(=O)(=O)N2CCCCC2)cc1

>  <score_type>  (48) 
oracle

>  <origin>  (48) 
adgpu

>  <m_score__min__energy>  (48) 
-10.970000000000001

>  <m_primary>  (48) 
energy

$$$$
48:0
     RDKit          3D

 56 59  0  0  0  0  0  0  0  0999 V2000
   -6.4980   24.8460  -31.9230 O   0  0  0  0  0  0  0  0  0  0  0  0
   -6.2500   23.8020  -31.2620 C   0  0  0  0  0  0  0  0  0  0  0  0
   -5.9250   23.9210  -29.8700 N   0  0  0  0  0  0  0  0  0  0  0  0
   -4.6070   23.7760  -29.3130 C   0  0  0  0  0  0  0  0  0  0  0  0
   -4.3210   22.7770  -28.3660 C   0  0  0  0  0  0  0  0  0  0  0  0
   -3.0250   22.6240  -27.8710 C   0  0  0  0  0  0  0  0  0  0  0  0
   -2.0020   23.4830  -28.2930 C   0  0  0  0  0  0  0  0  0  0  0  0
   -0.3610   23.2750  -27.6790 S   0  0  0  0  0  0  0  0  0  0  0  0
   -0.3640   23.4740  -26.1880 O   0  0  0  0  0  0  0  0  0  0  0  0
    0.5260   24.3270  -28.2830 O   0  0  0  0  0  0  0  0  0  0  0  0
    0.2870   21.6910  -28.0500 N   0  0  0  0  0  0  0  0  0  0  0  0
   -0.2380   20.6750  -27.1320 C   0  0  0  0  0  0  0  0  0  0  0  0
   -1.3880   19.9550  -27.8200 C   0  0  0  0  0  0  0  0  0  0  0  0
   -1.2970   20.3330  -29.2840 C   0  0  0  0  0  0  0  0  0  0  0  0
   -0.0980   21.2640  -29.3990 C   0  0  0  0  0  0  0  0  0  0  0  0
   -2.2930   24.5030  -29.2100 C   0  0  0  0  0  0  0  0  0  0  0  0
   -3.5900   24.6550  -29.7120 C   0  0  0  0  0  0  0  0  0  0  0  0
   -3.8600   25.6710  -30.6220 O   0  0  0  0  0  0  0  0  0  0  0  0
   -6.2840   22.4870  -31.9370 C   0  0  0  0  0  0  0  0  0  0  0  0
   -5.1040   21.9160  -32.4410 C   0  0  0  0  0  0  0  0  0  0  0  0
   -5.1130   20.6200  -32.9600 C   0  0  0  0  0  0  0  0  0  0  0  0
   -6.2990   19.8760  -32.9770 C   0  0  0  0  0  0  0  0  0  0  0  0
   -6.2730   18.1810  -33.4700 S   0  0  0  0  0  0  0  0  0  0  0  0
   -7.5890   17.5420  -33.1240 O   0  0  0  0  0  0  0  0  0  0  0  0
   -6.0890   18.0970  -34.9600 O   0  0  0  0  0  0  0  0  0  0  0  0
   -4.9820   17.3090  -32.6690 N   0  0  0  0  0  0  0  0  0  0  0  0
   -3.6660   17.6030  -33.2790 C   0  0  0  0  0  0  0  0  0  0  0  0
   -3.1750   16.4500  -34.1750 C   0  0  0  0  0  0  0  0  0  0  0  0
   -3.0510   15.2130  -33.4860 O   0  0  0  0  0  0  0  0  0  0  0  0
   -3.9980   15.0430  -32.4370 C   0  0  0  0  0  0  0  0  0  0  0  0
   -5.2850   15.8660  -32.6190 C   0  0  0  0  0  0  0  0  0  0  0  0
   -7.4920   20.4670  -32.5360 C   0  0  0  0  0  0  0  0  0  0  0  0
   -7.4860   21.7680  -32.0250 C   0  0  0  0  0  0  0  0  0  0  0  0
   -5.1232   22.1122  -28.0132 H   0  0  0  0  0  0  0  0  0  0  0  0
   -2.8060   21.8257  -27.1466 H   0  0  0  0  0  0  0  0  0  0  0  0
    0.5550   19.9547  -26.8821 H   0  0  0  0  0  0  0  0  0  0  0  0
   -0.5900   21.1495  -26.2042 H   0  0  0  0  0  0  0  0  0  0  0  0
   -1.2854   18.8665  -27.6986 H   0  0  0  0  0  0  0  0  0  0  0  0
   -2.3590   20.2398  -27.3887 H   0  0  0  0  0  0  0  0  0  0  0  0
   -1.1459   19.4359  -29.9024 H   0  0  0  0  0  0  0  0  0  0  0  0
   -2.2203   20.8172  -29.6350 H   0  0  0  0  0  0  0  0  0  0  0  0
    0.7402   20.7334  -29.8742 H   0  0  0  0  0  0  0  0  0  0  0  0
   -0.3564   22.1391  -30.0133 H   0  0  0  0  0  0  0  0  0  0  0  0
   -1.4966   25.1879  -29.5367 H   0  0  0  0  0  0  0  0  0  0  0  0
   -4.1676   22.4930  -32.4267 H   0  0  0  0  0  0  0  0  0  0  0  0
   -4.1853   20.1819  -33.3569 H   0  0  0  0  0  0  0  0  0  0  0  0
   -3.7528   18.5144  -33.8887 H   0  0  0  0  0  0  0  0  0  0  0  0
   -2.9368   17.7361  -32.4663 H   0  0  0  0  0  0  0  0  0  0  0  0
   -3.8915   16.3196  -34.9994 H   0  0  0  0  0  0  0  0  0  0  0  0
   -2.1721   16.7231  -34.5350 H   0  0  0  0  0  0  0  0  0  0  0  0
   -4.2717   13.9788  -32.3867 H   0  0  0  0  0  0  0  0  0  0  0  0
   -3.5188   15.4001  -31.5135 H   0  0  0  0  0  0  0  0  0  0  0  0
   -5.7740   15.5675  -33.5580 H   0  0  0  0  0  0  0  0  0  0  0  0
   -5.9494   15.6749  -31.7634 H   0  0  0  0  0  0  0  0  0  0  0  0
   -8.4357   19.9047  -32.5925 H   0  0  0  0  0  0  0  0  0  0  0  0
   -8.4267   22.2299  -31.6907 H   0  0  0  0  0  0  0  0  0  0  0  0
  1  2  2  0
  2  3  1  0
  3  4  1  0
  4  5  2  0
  5  6  1  0
  6  7  2  0
  7  8  1  0
  8  9  2  0
  8 10  2  0
  8 11  1  0
 11 12  1  0
 12 13  1  0
 13 14  1  0
 14 15  1  0
  7 16  1  0
 16 17  2  0
 17 18  1  0
  2 19  1  0
 19 20  2  0
 20 21  1  0
 21 22  2  0
 22 23  1  0
 23 24  2  0
 23 25  2  0
 23 26  1  0
 26 27  1  0
 27 28  1  0
 28 29  1  0
 29 30  1  0
 30 31  1  0
 22 32  1  0
 32 33  2  0
 17  4  1  0
 33 19  1  0
 15 11  1  0
 31 26  1  0
  5 34  1  0
  6 35  1  0
 12 36  1  0
 12 37  1  0
 13 38  1  0
 13 39  1  0
 14 40  1  0
 14 41  1  0
 15 42  1  0
 15 43  1  0
 16 44  1  0
 20 45  1  0
 21 46  1  0
 27 47  1  0
 27 48  1  0
 28 49  1  0
 28 50  1  0
 30 51  1  0
 30 52  1  0
 31 53  1  0
 31 54  1  0
 32 55  1  0
 33 56  1  0
M  CHG  2   3  -1  18  -1
M  END
>  <UniqueID>  (49) 
48

>  <SMILES>  (49) 
O=C([N-]c1ccc(S(=O)(=O)N2CCCC2)cc1[O-])c1ccc(S(=O)(=O)N2CCOCC2)cc1

>  <Energy>  (49) 
75.59597414166001

>  <Genealogy>  (49) 
O=C([N-]c1ccc(S(=O)(=O)N2CCCC2)cc1[O-])c1ccc(S(=O)(=O)N2CCOCC2)cc1 (protonated)
O=C([N-]c1ccc(S(=O)(=O)N2CCCC2)cc1[O-])c1ccc(S(=O)(=O)N2CCOCC2)cc1 (3D coordinates assigned)
O=C([N-]c1ccc(S(=O)(=O)N2CCCC2)cc1[O-])c1ccc(S(=O)(=O)N2CCOCC2)cc1 (nonaromatic ring conformer: 75.59597414166001 kcal/mol)

>  <smiles>  (49) 
O=C(Nc1ccc(S(=O)(=O)N2CCCC2)cc1O)c1ccc(S(=O)(=O)N2CCOCC2)cc1

>  <score_type>  (49) 
oracle

>  <origin>  (49) 
adgpu

>  <m_score__min__energy>  (49) 
-15.92

>  <m_primary>  (49) 
energy

$$$$
49:0
     RDKit          3D

 35 37  0  0  0  0  0  0  0  0999 V2000
   -2.0840   20.9370  -29.8710 O   0  0  0  0  0  0  0  0  0  0  0  0
   -2.3090   22.1550  -30.1060 C   0  0  0  0  0  0  0  0  0  0  0  0
   -3.1490   22.5390  -31.2000 N   0  0  0  0  0  0  0  0  0  0  0  0
   -4.4390   23.1550  -31.0790 C   0  0  0  0  0  0  0  0  0  0  0  0
   -5.5780   22.3650  -31.2810 C   0  0  0  0  0  0  0  0  0  0  0  0
   -6.8600   22.9230  -31.1830 C   0  0  0  0  0  0  0  0  0  0  0  0
   -8.2870   21.9320  -31.4930 S   0  0  0  0  0  0  0  0  0  0  0  0
   -8.7970   21.3810  -30.1900 O   0  0  0  0  0  0  0  0  0  0  0  0
   -9.3690   22.7940  -32.0840 O   0  0  0  0  0  0  0  0  0  0  0  0
   -7.9430   20.6080  -32.5870 N   0  0  0  0  0  0  0  0  0  0  0  0
   -6.9220   19.7140  -32.0320 C   0  0  0  0  0  0  0  0  0  0  0  0
   -7.6220   18.5240  -31.3910 C   0  0  0  0  0  0  0  0  0  0  0  0
   -9.0470   18.5590  -31.9060 C   0  0  0  0  0  0  0  0  0  0  0  0
   -9.1340   19.7800  -32.8100 C   0  0  0  0  0  0  0  0  0  0  0  0
   -7.0000   24.2760  -30.8460 C   0  0  0  0  0  0  0  0  0  0  0  0
   -5.8710   25.0610  -30.6080 C   0  0  0  0  0  0  0  0  0  0  0  0
   -4.5910   24.5060  -30.7100 C   0  0  0  0  0  0  0  0  0  0  0  0
   -3.4860   25.2950  -30.4090 O   0  0  0  0  0  0  0  0  0  0  0  0
   -1.7480   23.1890  -29.2240 C   0  0  0  0  0  0  0  0  0  0  0  0
   -2.4740   23.7990  -28.1980 C   0  0  0  0  0  0  0  0  0  0  0  0
   -1.3960   24.8730  -27.5170 S   0  0  0  0  0  0  0  0  0  0  0  0
   -0.0900   24.5600  -28.4880 N   0  0  0  0  0  0  0  0  0  0  0  0
   -0.4570   23.6220  -29.3570 N   0  0  0  0  0  0  0  0  0  0  0  0
   -5.4653   21.2969  -31.5187 H   0  0  0  0  0  0  0  0  0  0  0  0
   -6.2572   19.3650  -32.8359 H   0  0  0  0  0  0  0  0  0  0  0  0
   -6.3202   20.2475  -31.2815 H   0  0  0  0  0  0  0  0  0  0  0  0
   -7.1305   17.5853  -31.6865 H   0  0  0  0  0  0  0  0  0  0  0  0
   -7.5862   18.5757  -30.2928 H   0  0  0  0  0  0  0  0  0  0  0  0
   -9.2706   17.6447  -32.4753 H   0  0  0  0  0  0  0  0  0  0  0  0
   -9.7731   18.6144  -31.0815 H   0  0  0  0  0  0  0  0  0  0  0  0
   -9.1730   19.4612  -33.8621 H   0  0  0  0  0  0  0  0  0  0  0  0
  -10.0427   20.3559  -32.5806 H   0  0  0  0  0  0  0  0  0  0  0  0
   -8.0031   24.7208  -30.7688 H   0  0  0  0  0  0  0  0  0  0  0  0
   -5.9882   26.1211  -30.3389 H   0  0  0  0  0  0  0  0  0  0  0  0
   -3.5182   23.6131  -27.9062 H   0  0  0  0  0  0  0  0  0  0  0  0
  1  2  2  0
  2  3  1  0
  3  4  1  0
  4  5  2  0
  5  6  1  0
  6  7  1  0
  7  8  2  0
  7  9  2  0
  7 10  1  0
 10 11  1  0
 11 12  1  0
 12 13  1  0
 13 14  1  0
  6 15  2  0
 15 16  1  0
 16 17  2  0
 17 18  1  0
  2 19  1  0
 19 20  2  0
 20 21  1  0
 21 22  1  0
 22 23  2  0
 17  4  1  0
 23 19  1  0
 14 10  1  0
  5 24  1  0
 11 25  1  0
 11 26  1  0
 12 27  1  0
 12 28  1  0
 13 29  1  0
 13 30  1  0
 14 31  1  0
 14 32  1  0
 15 33  1  0
 16 34  1  0
 20 35  1  0
M  CHG  2   3  -1  18  -1
M  END
>  <UniqueID>  (50) 
49

>  <SMILES>  (50) 
O=C([N-]c1cc(S(=O)(=O)N2CCCC2)ccc1[O-])c1csnn1

>  <Energy>  (50) 
77.60851217057812

>  <Genealogy>  (50) 
O=C([N-]c1cc(S(=O)(=O)N2CCCC2)ccc1[O-])c1csnn1 (protonated)
O=C([N-]c1cc(S(=O)(=O)N2CCCC2)ccc1[O-])c1csnn1 (3D coordinates assigned)
O=C([N-]c1cc(S(=O)(=O)N2CCCC2)ccc1[O-])c1csnn1 (nonaromatic ring conformer: 77.60851217057812 kcal/mol)

>  <smiles>  (50) 
O=C(Nc1cc(S(=O)(=O)N2CCCC2)ccc1O)c1csnn1

>  <score_type>  (50) 
oracle

>  <origin>  (50) 
adgpu

>  <m_score__min__energy>  (50) 
-12.27

>  <m_primary>  (50) 
energy

$$$$
