0:0
     RDKit          3D

 50 52  0  0  0  0  0  0  0  0999 V2000
    1.1620   26.6690  -23.9450 C   0  0  0  0  0  0  0  0  0  0  0  0
   -0.5040   27.1760  -24.3030 S   0  0  0  0  0  0  0  0  0  0  0  0
   -1.3970   26.8070  -23.1510 O   0  0  0  0  0  0  0  0  0  0  0  0
   -0.5510   28.6660  -24.4920 O   0  0  0  0  0  0  0  0  0  0  0  0
   -1.0530   26.3750  -25.7720 C   0  0  0  0  0  0  0  0  0  0  0  0
   -0.5960   26.8030  -27.0250 C   0  0  0  0  0  0  0  0  0  0  0  0
   -1.0460   26.1740  -28.1900 C   0  0  0  0  0  0  0  0  0  0  0  0
   -1.9810   25.1290  -28.1140 C   0  0  0  0  0  0  0  0  0  0  0  0
   -2.4130   24.4320  -29.2940 N   0  0  0  0  0  0  0  0  0  0  0  0
   -3.6360   24.2560  -29.7110 C   0  0  0  0  0  0  0  0  0  0  0  0
   -4.7620   24.6350  -28.9520 C   0  0  0  0  0  0  0  0  0  0  0  0
   -6.0400   24.4070  -29.4620 C   0  0  0  0  0  0  0  0  0  0  0  0
   -6.1990   23.7970  -30.7070 C   0  0  0  0  0  0  0  0  0  0  0  0
   -7.4450   23.5750  -31.1950 F   0  0  0  0  0  0  0  0  0  0  0  0
   -5.0640   23.4000  -31.4270 C   0  0  0  0  0  0  0  0  0  0  0  0
   -5.2050   22.7810  -32.7170 N   0  0  0  0  0  0  0  0  0  0  0  0
   -5.2080   21.3580  -32.9240 C   0  0  0  0  0  0  0  0  0  0  0  0
   -6.4030   20.6570  -33.1730 C   0  0  0  0  0  0  0  0  0  0  0  0
   -6.3780   19.2780  -33.3930 C   0  0  0  0  0  0  0  0  0  0  0  0
   -5.1620   18.5830  -33.3870 C   0  0  0  0  0  0  0  0  0  0  0  0
   -5.1380   16.8420  -33.6450 S   0  0  0  0  0  0  0  0  0  0  0  0
   -4.1480   16.5080  -34.7270 O   0  0  0  0  0  0  0  0  0  0  0  0
   -4.7220   16.1480  -32.3780 O   0  0  0  0  0  0  0  0  0  0  0  0
   -6.7740   16.3060  -34.1290 C   0  0  0  0  0  0  0  0  0  0  0  0
   -6.8530   14.7880  -34.2670 C   0  0  0  0  0  0  0  0  0  0  0  0
   -5.5940   14.2650  -34.5860 O   0  0  0  0  0  0  0  0  0  0  0  0
   -3.9690   19.2790  -33.1550 C   0  0  0  0  0  0  0  0  0  0  0  0
   -3.9920   20.6590  -32.9350 C   0  0  0  0  0  0  0  0  0  0  0  0
   -3.8270   23.6460  -30.9120 N   0  0  0  0  0  0  0  0  0  0  0  0
   -2.4150   24.6840  -26.8580 C   0  0  0  0  0  0  0  0  0  0  0  0
   -3.2870   23.6490  -26.7640 F   0  0  0  0  0  0  0  0  0  0  0  0
   -1.9640   25.3130  -25.6940 C   0  0  0  0  0  0  0  0  0  0  0  0
    1.3058   26.6252  -22.8553 H   0  0  0  0  0  0  0  0  0  0  0  0
    1.3440   25.6748  -24.3791 H   0  0  0  0  0  0  0  0  0  0  0  0
    1.8670   27.3933  -24.3791 H   0  0  0  0  0  0  0  0  0  0  0  0
    0.1189   27.6363  -27.0927 H   0  0  0  0  0  0  0  0  0  0  0  0
   -0.6661   26.4990  -29.1698 H   0  0  0  0  0  0  0  0  0  0  0  0
   -4.6338   25.1063  -27.9664 H   0  0  0  0  0  0  0  0  0  0  0  0
   -6.9244   24.7086  -28.8816 H   0  0  0  0  0  0  0  0  0  0  0  0
   -5.2240   23.3950  -33.5620 H   0  0  0  0  0  0  0  0  0  0  0  0
   -7.3607   21.1977  -33.1944 H   0  0  0  0  0  0  0  0  0  0  0  0
   -7.3178   18.7351  -33.5718 H   0  0  0  0  0  0  0  0  0  0  0  0
   -7.4963   16.6327  -33.3664 H   0  0  0  0  0  0  0  0  0  0  0  0
   -7.0053   16.7518  -35.1077 H   0  0  0  0  0  0  0  0  0  0  0  0
   -7.1963   14.3542  -33.3163 H   0  0  0  0  0  0  0  0  0  0  0  0
   -7.5600   14.5372  -35.0715 H   0  0  0  0  0  0  0  0  0  0  0  0
   -4.9560   14.6710  -33.9430 H   0  0  0  0  0  0  0  0  0  0  0  0
   -3.0113   18.7380  -33.1459 H   0  0  0  0  0  0  0  0  0  0  0  0
   -3.0493   21.2011  -32.7692 H   0  0  0  0  0  0  0  0  0  0  0  0
   -2.3258   24.9729  -24.7125 H   0  0  0  0  0  0  0  0  0  0  0  0
  1  2  1  0
  2  3  2  0
  2  4  2  0
  2  5  1  0
  5  6  2  0
  6  7  1  0
  7  8  2  0
  8  9  1  0
  9 10  2  3
 10 11  1  0
 11 12  2  0
 12 13  1  0
 13 14  1  0
 13 15  2  0
 15 16  1  0
 16 17  1  0
 17 18  2  0
 18 19  1  0
 19 20  2  0
 20 21  1  0
 21 22  2  0
 21 23  2  0
 21 24  1  0
 24 25  1  0
 25 26  1  0
 20 27  1  0
 27 28  2  0
 15 29  1  0
  8 30  1  0
 30 31  1  0
 30 32  2  0
 32  5  1  0
 29 10  1  0
 28 17  1  0
  1 33  1  0
  1 34  1  0
  1 35  1  0
  6 36  1  0
  7 37  1  0
 11 38  1  0
 12 39  1  0
 16 40  1  0
 18 41  1  0
 19 42  1  0
 24 43  1  0
 24 44  1  0
 25 45  1  0
 25 46  1  0
 26 47  1  0
 27 48  1  0
 28 49  1  0
 32 50  1  0
M  CHG  1  29  -1
M  END
>  <UniqueID>  (1) 
1

>  <SMILES>  (1) 
CS(=O)(=O)c1ccc(N=c2ccc(F)c(Nc3ccc(S(=O)(=O)CCO)cc3)[n-]2)c(F)c1

>  <Energy>  (1) 
59.17540313847395

>  <Genealogy>  (1) 
CS(=O)(=O)c1ccc(N=c2ccc(F)c(Nc3ccc(S(=O)(=O)CCO)cc3)[n-]2)c(F)c1 (protonated)
CS(=O)(=O)c1ccc(N=c2ccc(F)c(Nc3ccc(S(=O)(=O)CCO)cc3)[n-]2)c(F)c1 (3D coordinates assigned)
CS(=O)(=O)c1ccc(N=c2ccc(F)c(Nc3ccc(S(=O)(=O)CCO)cc3)[n-]2)c(F)c1 (optimized conformer: 59.17540313847395 kcal/mol)

>  <smiles>  (1) 
CS(=O)(=O)c1ccc(N=c2ccc(F)c(Nc3ccc(S(=O)(=O)CCO)cc3)[nH]2)c(F)c1

>  <score_type>  (1) 
oracle

>  <origin>  (1) 
adgpu

>  <m_score__min__energy>  (1) 
-9.4499999999999993

>  <m_primary>  (1) 
energy

$$$$
1:0
     RDKit          3D

 56 59  0  0  0  0  0  0  0  0999 V2000
   -2.5170   21.6670  -27.5040 C   0  0  0  0  0  0  0  0  0  0  0  0
   -1.7220   21.1050  -28.6510 C   0  0  0  0  0  0  0  0  0  0  0  0
   -1.5470   21.8770  -29.8120 C   0  0  0  0  0  0  0  0  0  0  0  0
   -0.7840   21.3960  -30.8780 C   0  0  0  0  0  0  0  0  0  0  0  0
   -0.1650   20.1440  -30.7990 C   0  0  0  0  0  0  0  0  0  0  0  0
    0.6520   19.6900  -31.8930 N   0  0  0  0  0  0  0  0  0  0  0  0
    0.5800   20.2330  -33.2210 C   0  0  0  0  0  0  0  0  0  0  0  0
    1.6960   20.7750  -33.8470 C   0  0  0  0  0  0  0  0  0  0  0  0
    1.1170   21.3630  -35.2920 S   0  0  0  0  0  0  0  0  0  0  0  0
   -0.4860   20.9430  -35.1950 N   0  0  0  0  0  0  0  0  0  0  0  0
   -0.6120   20.3130  -33.9980 C   0  0  0  0  0  0  0  0  0  0  0  0
   -1.9000   19.7230  -33.5940 C   0  0  0  0  0  0  0  0  0  0  0  0
   -1.9210   18.5810  -33.0600 O   0  0  0  0  0  0  0  0  0  0  0  0
   -3.1260   20.4260  -33.8490 N   0  0  0  0  0  0  0  0  0  0  0  0
   -4.3580   20.1950  -33.1380 C   0  0  0  0  0  0  0  0  0  0  0  0
   -4.8270   18.8950  -32.8710 C   0  0  0  0  0  0  0  0  0  0  0  0
   -5.9940   18.7030  -32.1290 C   0  0  0  0  0  0  0  0  0  0  0  0
   -6.7040   19.8020  -31.6430 C   0  0  0  0  0  0  0  0  0  0  0  0
   -6.2490   21.1010  -31.8940 C   0  0  0  0  0  0  0  0  0  0  0  0
   -7.1250   22.4820  -31.2370 S   0  0  0  0  0  0  0  0  0  0  0  0
   -7.5440   23.3990  -32.3520 O   0  0  0  0  0  0  0  0  0  0  0  0
   -8.3590   21.9830  -30.5370 O   0  0  0  0  0  0  0  0  0  0  0  0
   -6.1140   23.3420  -30.1000 N   0  0  0  0  0  0  0  0  0  0  0  0
   -4.6930   23.0430  -30.3640 C   0  0  0  0  0  0  0  0  0  0  0  0
   -3.7900   24.1330  -29.7630 C   0  0  0  0  0  0  0  0  0  0  0  0
   -4.0300   25.4380  -30.2760 O   0  0  0  0  0  0  0  0  0  0  0  0
   -5.3230   25.6010  -30.8430 C   0  0  0  0  0  0  0  0  0  0  0  0
   -6.4110   24.7920  -30.1150 C   0  0  0  0  0  0  0  0  0  0  0  0
   -5.0710   21.2930  -32.6310 C   0  0  0  0  0  0  0  0  0  0  0  0
   -0.3630   19.3520  -29.6560 C   0  0  0  0  0  0  0  0  0  0  0  0
   -1.1230   19.8250  -28.5730 C   0  0  0  0  0  0  0  0  0  0  0  0
   -1.2700   18.9680  -27.3430 C   0  0  0  0  0  0  0  0  0  0  0  0
   -2.0651   21.3476  -26.5533 H   0  0  0  0  0  0  0  0  0  0  0  0
   -2.5151   22.7656  -27.5600 H   0  0  0  0  0  0  0  0  0  0  0  0
   -3.5520   21.2988  -27.5600 H   0  0  0  0  0  0  0  0  0  0  0  0
   -2.0156   22.8698  -29.8818 H   0  0  0  0  0  0  0  0  0  0  0  0
   -0.6689   22.0058  -31.7862 H   0  0  0  0  0  0  0  0  0  0  0  0
    1.3960   18.9840  -31.6970 H   0  0  0  0  0  0  0  0  0  0  0  0
    2.7295   20.8079  -33.4718 H   0  0  0  0  0  0  0  0  0  0  0  0
   -3.1230   21.1610  -34.5910 H   0  0  0  0  0  0  0  0  0  0  0  0
   -4.2705   18.0248  -33.2493 H   0  0  0  0  0  0  0  0  0  0  0  0
   -6.3546   17.6836  -31.9270 H   0  0  0  0  0  0  0  0  0  0  0  0
   -7.6242   19.6463  -31.0608 H   0  0  0  0  0  0  0  0  0  0  0  0
   -4.4378   22.0728  -29.9128 H   0  0  0  0  0  0  0  0  0  0  0  0
   -4.5336   23.0104  -31.4519 H   0  0  0  0  0  0  0  0  0  0  0  0
   -3.9528   24.1547  -28.6753 H   0  0  0  0  0  0  0  0  0  0  0  0
   -2.7564   23.8720  -30.0344 H   0  0  0  0  0  0  0  0  0  0  0  0
   -5.5919   26.6667  -30.7995 H   0  0  0  0  0  0  0  0  0  0  0  0
   -5.2757   25.2285  -31.8769 H   0  0  0  0  0  0  0  0  0  0  0  0
   -6.4834   25.1495  -29.0772 H   0  0  0  0  0  0  0  0  0  0  0  0
   -7.3580   24.9370  -30.6555 H   0  0  0  0  0  0  0  0  0  0  0  0
   -4.7025   22.3133  -32.8134 H   0  0  0  0  0  0  0  0  0  0  0  0
    0.0831   18.3476  -29.6081 H   0  0  0  0  0  0  0  0  0  0  0  0
   -1.1626   19.5941  -26.4449 H   0  0  0  0  0  0  0  0  0  0  0  0
   -2.2626   18.4939  -27.3429 H   0  0  0  0  0  0  0  0  0  0  0  0
   -0.4922   18.1902  -27.3429 H   0  0  0  0  0  0  0  0  0  0  0  0
  1  2  1  0
  2  3  2  0
  3  4  1  0
  4  5  2  0
  5  6  1  0
  6  7  1  0
  7  8  2  0
  8  9  1  0
  9 10  1  0
 10 11  2  0
 11 12  1  0
 12 13  2  0
 12 14  1  0
 14 15  1  0
 15 16  2  0
 16 17  1  0
 17 18  2  0
 18 19  1  0
 19 20  1  0
 20 21  2  0
 20 22  2  0
 20 23  1  0
 23 24  1  0
 24 25  1  0
 25 26  1  0
 26 27  1  0
 27 28  1  0
 19 29  2  0
  5 30  1  0
 30 31  2  0
 31 32  1  0
 31  2  1  0
 11  7  1  0
 29 15  1  0
 28 23  1  0
  1 33  1  0
  1 34  1  0
  1 35  1  0
  3 36  1  0
  4 37  1  0
  6 38  1  0
  8 39  1  0
 14 40  1  0
 16 41  1  0
 17 42  1  0
 18 43  1  0
 24 44  1  0
 24 45  1  0
 25 46  1  0
 25 47  1  0
 27 48  1  0
 27 49  1  0
 28 50  1  0
 28 51  1  0
 29 52  1  0
 30 53  1  0
 32 54  1  0
 32 55  1  0
 32 56  1  0
M  END
>  <UniqueID>  (2) 
2

>  <SMILES>  (2) 
Cc1ccc(Nc2csnc2C(=O)Nc2cccc(S(=O)(=O)N3CCOCC3)c2)cc1C

>  <Energy>  (2) 
111.60838682449669

>  <Genealogy>  (2) 
Cc1ccc(Nc2csnc2C(=O)Nc2cccc(S(=O)(=O)N3CCOCC3)c2)cc1C (3D coordinates assigned)
Cc1ccc(Nc2csnc2C(=O)Nc2cccc(S(=O)(=O)N3CCOCC3)c2)cc1C (nonaromatic ring conformer: 111.60838682449669 kcal/mol)

>  <smiles>  (2) 
Cc1ccc(Nc2csnc2C(=O)Nc2cccc(S(=O)(=O)N3CCOCC3)c2)cc1C

>  <score_type>  (2) 
oracle

>  <origin>  (2) 
adgpu

>  <m_score__min__energy>  (2) 
-9.9700000000000006

>  <m_primary>  (2) 
energy

$$$$
2:0
     RDKit          3D

 42 43  0  0  0  0  0  0  0  0999 V2000
   -5.7300   18.1190  -34.9710 C   0  0  0  0  0  0  0  0  0  0  0  0
   -5.4270   17.5460  -33.6580 N   0  0  0  0  0  0  0  0  0  0  0  0
   -4.1370   16.9020  -33.3970 C   0  0  0  0  0  0  0  0  0  0  0  0
   -6.4160   17.6100  -32.6160 C   0  0  0  0  0  0  0  0  0  0  0  0
   -6.1570   17.1430  -31.4740 O   0  0  0  0  0  0  0  0  0  0  0  0
   -7.6460   18.2400  -32.8610 O   0  0  0  0  0  0  0  0  0  0  0  0
   -7.9500   19.5590  -32.4990 C   0  0  0  0  0  0  0  0  0  0  0  0
   -9.2350   19.8470  -32.0270 C   0  0  0  0  0  0  0  0  0  0  0  0
   -9.5800   21.1530  -31.6720 C   0  0  0  0  0  0  0  0  0  0  0  0
   -8.6410   22.1820  -31.7850 C   0  0  0  0  0  0  0  0  0  0  0  0
   -7.3390   21.9130  -32.2380 C   0  0  0  0  0  0  0  0  0  0  0  0
   -6.3990   22.9970  -32.3550 N   0  0  0  0  0  0  0  0  0  0  0  0
   -5.8280   23.9400  -31.0130 S   0  0  0  0  0  0  0  0  0  0  0  0
   -5.4440   25.3090  -31.5000 O   0  0  0  0  0  0  0  0  0  0  0  0
   -6.9350   24.0700  -30.0040 O   0  0  0  0  0  0  0  0  0  0  0  0
   -4.4150   23.1840  -30.2800 C   0  0  0  0  0  0  0  0  0  0  0  0
   -4.2690   21.7930  -30.3050 C   0  0  0  0  0  0  0  0  0  0  0  0
   -3.1270   21.1970  -29.7680 C   0  0  0  0  0  0  0  0  0  0  0  0
   -2.1170   21.9850  -29.2030 C   0  0  0  0  0  0  0  0  0  0  0  0
   -0.6920   21.1750  -28.5610 Cl  0  0  0  0  0  0  0  0  0  0  0  0
   -2.2570   23.3880  -29.1670 C   0  0  0  0  0  0  0  0  0  0  0  0
   -0.9960   24.4150  -28.4770 S   0  0  0  0  0  0  0  0  0  0  0  0
   -1.2410   26.0500  -28.9770 N   0  0  0  0  0  0  0  0  0  0  0  0
   -1.0470   24.3310  -26.9770 O   0  0  0  0  0  0  0  0  0  0  0  0
    0.3600   23.9630  -28.9400 O   0  0  0  0  0  0  0  0  0  0  0  0
   -3.4150   23.9760  -29.7000 C   0  0  0  0  0  0  0  0  0  0  0  0
   -6.9940   20.5880  -32.5690 C   0  0  0  0  0  0  0  0  0  0  0  0
   -6.2406   19.0846  -34.8407 H   0  0  0  0  0  0  0  0  0  0  0  0
   -4.7945   18.2713  -35.5293 H   0  0  0  0  0  0  0  0  0  0  0  0
   -6.3825   17.4316  -35.5293 H   0  0  0  0  0  0  0  0  0  0  0  0
   -3.9795   16.8234  -32.3112 H   0  0  0  0  0  0  0  0  0  0  0  0
   -4.1327   15.8960  -33.8419 H   0  0  0  0  0  0  0  0  0  0  0  0
   -3.3304   17.5032  -33.8419 H   0  0  0  0  0  0  0  0  0  0  0  0
   -9.9776   19.0407  -31.9350 H   0  0  0  0  0  0  0  0  0  0  0  0
  -10.5927   21.3721  -31.3028 H   0  0  0  0  0  0  0  0  0  0  0  0
   -8.9239   23.2107  -31.5170 H   0  0  0  0  0  0  0  0  0  0  0  0
   -5.9790   23.2040  -33.2890 H   0  0  0  0  0  0  0  0  0  0  0  0
   -5.0568   21.1669  -30.7493 H   0  0  0  0  0  0  0  0  0  0  0  0
   -3.0199   20.1024  -29.7888 H   0  0  0  0  0  0  0  0  0  0  0  0
   -1.2190   26.0560  -30.0220 H   0  0  0  0  0  0  0  0  0  0  0  0
   -3.5385   25.0684  -29.6620 H   0  0  0  0  0  0  0  0  0  0  0  0
   -5.9664   20.3558  -32.8854 H   0  0  0  0  0  0  0  0  0  0  0  0
  1  2  1  0
  2  3  1  0
  2  4  1  0
  4  5  2  0
  4  6  1  0
  6  7  1  0
  7  8  2  0
  8  9  1  0
  9 10  2  0
 10 11  1  0
 11 12  1  0
 12 13  1  0
 13 14  2  0
 13 15  2  0
 13 16  1  0
 16 17  2  0
 17 18  1  0
 18 19  2  0
 19 20  1  0
 19 21  1  0
 21 22  1  0
 22 23  1  0
 22 24  2  0
 22 25  2  0
 21 26  2  0
 11 27  2  0
 27  7  1  0
 26 16  1  0
  1 28  1  0
  1 29  1  0
  1 30  1  0
  3 31  1  0
  3 32  1  0
  3 33  1  0
  8 34  1  0
  9 35  1  0
 10 36  1  0
 12 37  1  0
 17 38  1  0
 18 39  1  0
 23 40  1  0
 26 41  1  0
 27 42  1  0
M  CHG  1  23  -1
M  END
>  <UniqueID>  (3) 
3

>  <SMILES>  (3) 
CN(C)C(=O)Oc1cccc(NS(=O)(=O)c2ccc(Cl)c(S([NH-])(=O)=O)c2)c1

>  <Energy>  (3) 
44.86552974581764

>  <Genealogy>  (3) 
CN(C)C(=O)Oc1cccc(NS(=O)(=O)c2ccc(Cl)c(S([NH-])(=O)=O)c2)c1 (protonated)
CN(C)C(=O)Oc1cccc(NS(=O)(=O)c2ccc(Cl)c(S([NH-])(=O)=O)c2)c1 (3D coordinates assigned)
CN(C)C(=O)Oc1cccc(NS(=O)(=O)c2ccc(Cl)c(S([NH-])(=O)=O)c2)c1 (optimized conformer: 44.86552974581764 kcal/mol)

>  <smiles>  (3) 
CN(C)C(=O)Oc1cccc(NS(=O)(=O)c2ccc(Cl)c(S(N)(=O)=O)c2)c1

>  <score_type>  (3) 
oracle

>  <origin>  (3) 
adgpu

>  <m_score__min__energy>  (3) 
-11.949999999999999

>  <m_primary>  (3) 
energy

$$$$
3:0
     RDKit          3D

 56 59  0  0  0  0  0  0  0  0999 V2000
   -6.7840   16.1580  -34.3070 O   0  0  0  0  0  0  0  0  0  0  0  0
   -5.9760   17.1150  -34.1570 C   0  0  0  0  0  0  0  0  0  0  0  0
   -4.6420   17.0110  -34.6690 N   0  0  0  0  0  0  0  0  0  0  0  0
   -3.4530   17.4440  -33.9930 C   0  0  0  0  0  0  0  0  0  0  0  0
   -3.2270   18.8190  -33.8540 C   0  0  0  0  0  0  0  0  0  0  0  0
   -2.0880   19.2920  -33.1860 C   0  0  0  0  0  0  0  0  0  0  0  0
   -1.8130   21.0260  -33.0510 S   0  0  0  0  0  0  0  0  0  0  0  0
   -1.5000   21.3890  -31.6250 O   0  0  0  0  0  0  0  0  0  0  0  0
   -3.0710   21.7400  -33.4630 O   0  0  0  0  0  0  0  0  0  0  0  0
   -0.4950   21.4980  -34.1030 N   0  0  0  0  0  0  0  0  0  0  0  0
   -0.5230   20.7200  -35.3470 C   0  0  0  0  0  0  0  0  0  0  0  0
    0.3810   19.5090  -35.1700 C   0  0  0  0  0  0  0  0  0  0  0  0
    1.2290   19.8080  -33.9490 C   0  0  0  0  0  0  0  0  0  0  0  0
    0.7950   21.1880  -33.4780 C   0  0  0  0  0  0  0  0  0  0  0  0
   -1.1750   18.3770  -32.6460 C   0  0  0  0  0  0  0  0  0  0  0  0
   -1.4090   17.0050  -32.7540 C   0  0  0  0  0  0  0  0  0  0  0  0
   -2.5510   16.5330  -33.4100 C   0  0  0  0  0  0  0  0  0  0  0  0
   -2.7920   15.1630  -33.4440 O   0  0  0  0  0  0  0  0  0  0  0  0
   -6.4240   18.3630  -33.4960 C   0  0  0  0  0  0  0  0  0  0  0  0
   -6.1480   19.6160  -34.0730 C   0  0  0  0  0  0  0  0  0  0  0  0
   -6.5690   20.7930  -33.4470 C   0  0  0  0  0  0  0  0  0  0  0  0
   -7.2760   20.7390  -32.2400 C   0  0  0  0  0  0  0  0  0  0  0  0
   -7.8140   22.2280  -31.4580 S   0  0  0  0  0  0  0  0  0  0  0  0
   -8.9110   22.8510  -32.2760 O   0  0  0  0  0  0  0  0  0  0  0  0
   -8.3770   21.8940  -30.1040 O   0  0  0  0  0  0  0  0  0  0  0  0
   -6.5090   23.3740  -31.2740 N   0  0  0  0  0  0  0  0  0  0  0  0
   -6.8170   24.3440  -30.2140 C   0  0  0  0  0  0  0  0  0  0  0  0
   -5.6800   25.3840  -30.1160 C   0  0  0  0  0  0  0  0  0  0  0  0
   -4.5270   25.0000  -30.8490 O   0  0  0  0  0  0  0  0  0  0  0  0
   -4.1630   23.6740  -30.5160 C   0  0  0  0  0  0  0  0  0  0  0  0
   -5.2450   22.6760  -30.9780 C   0  0  0  0  0  0  0  0  0  0  0  0
   -7.5550   19.4940  -31.6590 C   0  0  0  0  0  0  0  0  0  0  0  0
   -7.1320   18.3170  -32.2810 C   0  0  0  0  0  0  0  0  0  0  0  0
   -3.9496   19.5349  -34.2727 H   0  0  0  0  0  0  0  0  0  0  0  0
   -1.5511   20.3899  -35.5568 H   0  0  0  0  0  0  0  0  0  0  0  0
   -0.1732   21.3359  -36.1886 H   0  0  0  0  0  0  0  0  0  0  0  0
   -0.2197   18.6019  -35.0075 H   0  0  0  0  0  0  0  0  0  0  0  0
    1.0000   19.3295  -36.0614 H   0  0  0  0  0  0  0  0  0  0  0  0
    1.0483   19.0596  -33.1633 H   0  0  0  0  0  0  0  0  0  0  0  0
    2.3036   19.7765  -34.1819 H   0  0  0  0  0  0  0  0  0  0  0  0
    0.6894   21.1921  -32.3831 H   0  0  0  0  0  0  0  0  0  0  0  0
    1.5459   21.9406  -33.7604 H   0  0  0  0  0  0  0  0  0  0  0  0
   -0.2711   18.7407  -32.1354 H   0  0  0  0  0  0  0  0  0  0  0  0
   -0.6921   16.2917  -32.3213 H   0  0  0  0  0  0  0  0  0  0  0  0
   -5.5970   19.6700  -35.0235 H   0  0  0  0  0  0  0  0  0  0  0  0
   -6.3434   21.7671  -33.9055 H   0  0  0  0  0  0  0  0  0  0  0  0
   -7.7617   24.8558  -30.4496 H   0  0  0  0  0  0  0  0  0  0  0  0
   -6.9130   23.8166  -29.2534 H   0  0  0  0  0  0  0  0  0  0  0  0
   -6.0451   26.3439  -30.5102 H   0  0  0  0  0  0  0  0  0  0  0  0
   -5.3914   25.4647  -29.0576 H   0  0  0  0  0  0  0  0  0  0  0  0
   -3.2109   23.4270  -31.0084 H   0  0  0  0  0  0  0  0  0  0  0  0
   -4.0595   23.6008  -29.4233 H   0  0  0  0  0  0  0  0  0  0  0  0
   -4.8966   22.1608  -31.8853 H   0  0  0  0  0  0  0  0  0  0  0  0
   -5.4235   21.9508  -30.1704 H   0  0  0  0  0  0  0  0  0  0  0  0
   -8.1090   19.4438  -30.7100 H   0  0  0  0  0  0  0  0  0  0  0  0
   -7.3545   17.3450  -31.8165 H   0  0  0  0  0  0  0  0  0  0  0  0
  1  2  2  0
  2  3  1  0
  3  4  1  0
  4  5  2  0
  5  6  1  0
  6  7  1  0
  7  8  2  0
  7  9  2  0
  7 10  1  0
 10 11  1  0
 11 12  1  0
 12 13  1  0
 13 14  1  0
  6 15  2  0
 15 16  1  0
 16 17  2  0
 17 18  1  0
  2 19  1  0
 19 20  2  0
 20 21  1  0
 21 22  2  0
 22 23  1  0
 23 24  2  0
 23 25  2  0
 23 26  1  0
 26 27  1  0
 27 28  1  0
 28 29  1  0
 29 30  1  0
 30 31  1  0
 22 32  1  0
 32 33  2  0
 17  4  1  0
 33 19  1  0
 14 10  1  0
 31 26  1  0
  5 34  1  0
 11 35  1  0
 11 36  1  0
 12 37  1  0
 12 38  1  0
 13 39  1  0
 13 40  1  0
 14 41  1  0
 14 42  1  0
 15 43  1  0
 16 44  1  0
 20 45  1  0
 21 46  1  0
 27 47  1  0
 27 48  1  0
 28 49  1  0
 28 50  1  0
 30 51  1  0
 30 52  1  0
 31 53  1  0
 31 54  1  0
 32 55  1  0
 33 56  1  0
M  CHG  2   3  -1  18  -1
M  END
>  <UniqueID>  (4) 
4

>  <SMILES>  (4) 
O=C([N-]c1cc(S(=O)(=O)N2CCCC2)ccc1[O-])c1ccc(S(=O)(=O)N2CCOCC2)cc1

>  <Energy>  (4) 
72.87715020627635

>  <Genealogy>  (4) 
O=C([N-]c1cc(S(=O)(=O)N2CCCC2)ccc1[O-])c1ccc(S(=O)(=O)N2CCOCC2)cc1 (protonated)
O=C([N-]c1cc(S(=O)(=O)N2CCCC2)ccc1[O-])c1ccc(S(=O)(=O)N2CCOCC2)cc1 (3D coordinates assigned)
O=C([N-]c1cc(S(=O)(=O)N2CCCC2)ccc1[O-])c1ccc(S(=O)(=O)N2CCOCC2)cc1 (nonaromatic ring conformer: 72.87715020627635 kcal/mol)

>  <smiles>  (4) 
O=C(Nc1cc(S(=O)(=O)N2CCCC2)ccc1O)c1ccc(S(=O)(=O)N2CCOCC2)cc1

>  <score_type>  (4) 
oracle

>  <origin>  (4) 
adgpu

>  <m_score__min__energy>  (4) 
-15.460000000000001

>  <m_primary>  (4) 
energy

$$$$
4:0
     RDKit          3D

 49 52  0  0  0  0  0  0  0  0999 V2000
   -4.1900   14.1830  -32.1630 C   0  0  0  0  0  0  0  0  0  0  0  0
   -4.4190   15.5770  -32.6530 C   0  0  0  0  0  0  0  0  0  0  0  0
   -5.7180   16.0900  -32.7450 C   0  0  0  0  0  0  0  0  0  0  0  0
   -5.9070   17.3950  -33.2020 C   0  0  0  0  0  0  0  0  0  0  0  0
   -4.8020   18.1800  -33.5570 C   0  0  0  0  0  0  0  0  0  0  0  0
   -4.9600   19.4790  -34.0540 O   0  0  0  0  0  0  0  0  0  0  0  0
   -5.1310   20.6290  -33.2740 C   0  0  0  0  0  0  0  0  0  0  0  0
   -4.0220   21.4560  -33.0780 C   0  0  0  0  0  0  0  0  0  0  0  0
   -4.1120   22.5850  -32.2630 C   0  0  0  0  0  0  0  0  0  0  0  0
   -5.3150   22.8970  -31.6230 C   0  0  0  0  0  0  0  0  0  0  0  0
   -5.3740   24.2610  -30.5120 S   0  0  0  0  0  0  0  0  0  0  0  0
   -6.3820   25.2540  -31.0060 O   0  0  0  0  0  0  0  0  0  0  0  0
   -5.7690   23.8180  -29.1330 O   0  0  0  0  0  0  0  0  0  0  0  0
   -3.8150   25.0090  -30.4510 N   0  0  0  0  0  0  0  0  0  0  0  0
   -2.7770   24.5420  -29.5870 C   0  0  0  0  0  0  0  0  0  0  0  0
   -2.8060   23.2750  -29.0200 C   0  0  0  0  0  0  0  0  0  0  0  0
   -1.3900   23.0960  -28.1300 S   0  0  0  0  0  0  0  0  0  0  0  0
   -0.8190   24.6380  -28.4760 C   0  0  0  0  0  0  0  0  0  0  0  0
   -1.6830   25.2980  -29.2800 N   0  0  0  0  0  0  0  0  0  0  0  0
   -6.4310   22.0740  -31.8070 C   0  0  0  0  0  0  0  0  0  0  0  0
   -6.3480   20.9390  -32.6260 C   0  0  0  0  0  0  0  0  0  0  0  0
   -7.4940   20.0660  -32.7100 C   0  0  0  0  0  0  0  0  0  0  0  0
   -8.4140   19.3690  -32.7770 N   0  0  0  0  0  0  0  0  0  0  0  0
   -3.5140   17.6370  -33.4370 C   0  0  0  0  0  0  0  0  0  0  0  0
   -2.0920   18.6070  -33.8030 S   0  0  0  0  0  0  0  0  0  0  0  0
   -2.5000   19.8210  -34.5860 O   0  0  0  0  0  0  0  0  0  0  0  0
   -1.1290   17.8040  -34.6330 O   0  0  0  0  0  0  0  0  0  0  0  0
   -1.3000   19.0760  -32.2970 C   0  0  0  0  0  0  0  0  0  0  0  0
   -0.5150   18.1550  -31.5890 C   0  0  0  0  0  0  0  0  0  0  0  0
    0.1570   18.5510  -30.4240 C   0  0  0  0  0  0  0  0  0  0  0  0
    0.0380   19.8650  -29.9550 C   0  0  0  0  0  0  0  0  0  0  0  0
   -0.7490   20.7890  -30.6530 C   0  0  0  0  0  0  0  0  0  0  0  0
   -1.4120   20.3970  -31.8250 C   0  0  0  0  0  0  0  0  0  0  0  0
   -3.3570   16.3610  -32.9880 N   0  0  0  0  0  0  0  0  0  0  0  0
   -4.1889   14.1765  -31.0630 H   0  0  0  0  0  0  0  0  0  0  0  0
   -4.9926   13.5279  -32.5328 H   0  0  0  0  0  0  0  0  0  0  0  0
   -3.2200   13.8191  -32.5328 H   0  0  0  0  0  0  0  0  0  0  0  0
   -6.5813   15.4707  -32.4599 H   0  0  0  0  0  0  0  0  0  0  0  0
   -6.9235   17.8074  -33.2835 H   0  0  0  0  0  0  0  0  0  0  0  0
   -3.0687   21.2147  -33.5710 H   0  0  0  0  0  0  0  0  0  0  0  0
   -3.2332   23.2318  -32.1236 H   0  0  0  0  0  0  0  0  0  0  0  0
   -3.6056   22.5279  -29.1319 H   0  0  0  0  0  0  0  0  0  0  0  0
    0.1276   25.0535  -28.1001 H   0  0  0  0  0  0  0  0  0  0  0  0
   -7.3793   22.3187  -31.3062 H   0  0  0  0  0  0  0  0  0  0  0  0
   -0.4261   17.1192  -31.9484 H   0  0  0  0  0  0  0  0  0  0  0  0
    0.7794   17.8275  -29.8769 H   0  0  0  0  0  0  0  0  0  0  0  0
    0.5629   20.1713  -29.0381 H   0  0  0  0  0  0  0  0  0  0  0  0
   -0.8471   21.8202  -30.2829 H   0  0  0  0  0  0  0  0  0  0  0  0
   -2.0227   21.1258  -32.3781 H   0  0  0  0  0  0  0  0  0  0  0  0
  1  2  1  0
  2  3  2  0
  3  4  1  0
  4  5  2  0
  5  6  1  0
  6  7  1  0
  7  8  2  0
  8  9  1  0
  9 10  2  0
 10 11  1  0
 11 12  2  0
 11 13  2  0
 11 14  1  0
 14 15  1  0
 15 16  2  0
 16 17  1  0
 17 18  1  0
 18 19  2  0
 10 20  1  0
 20 21  2  0
 21 22  1  0
 22 23  3  0
  5 24  1  0
 24 25  1  0
 25 26  2  0
 25 27  2  0
 25 28  1  0
 28 29  2  0
 29 30  1  0
 30 31  2  0
 31 32  1  0
 32 33  2  0
 24 34  2  0
 34  2  1  0
 21  7  1  0
 33 28  1  0
 19 15  1  0
  1 35  1  0
  1 36  1  0
  1 37  1  0
  3 38  1  0
  4 39  1  0
  8 40  1  0
  9 41  1  0
 16 42  1  0
 18 43  1  0
 20 44  1  0
 29 45  1  0
 30 46  1  0
 31 47  1  0
 32 48  1  0
 33 49  1  0
M  CHG  1  14  -1
M  END
>  <UniqueID>  (5) 
5

>  <SMILES>  (5) 
Cc1ccc(Oc2ccc(S(=O)(=O)[N-]c3cscn3)cc2C#N)c(S(=O)(=O)c2ccccc2)n1

>  <Energy>  (5) 
90.23617059776628

>  <Genealogy>  (5) 
Cc1ccc(Oc2ccc(S(=O)(=O)[N-]c3cscn3)cc2C#N)c(S(=O)(=O)c2ccccc2)n1 (protonated)
Cc1ccc(Oc2ccc(S(=O)(=O)[N-]c3cscn3)cc2C#N)c(S(=O)(=O)c2ccccc2)n1 (3D coordinates assigned)
Cc1ccc(Oc2ccc(S(=O)(=O)[N-]c3cscn3)cc2C#N)c(S(=O)(=O)c2ccccc2)n1 (optimized conformer: 90.23617059776628 kcal/mol)

>  <smiles>  (5) 
Cc1ccc(Oc2ccc(S(=O)(=O)Nc3cscn3)cc2C#N)c(S(=O)(=O)c2ccccc2)n1

>  <score_type>  (5) 
oracle

>  <origin>  (5) 
adgpu

>  <m_score__min__energy>  (5) 
-11.23

>  <m_primary>  (5) 
energy

$$$$
5:0
     RDKit          3D

 43 46  0  0  0  0  0  0  0  0999 V2000
   -7.0200   17.9100  -32.2540 C   0  0  0  0  0  0  0  0  0  0  0  0
   -7.5970   19.2220  -31.9880 N   0  0  0  0  0  0  0  0  0  0  0  0
   -8.7470   19.4040  -31.3560 N   0  0  0  0  0  0  0  0  0  0  0  0
   -8.9420   20.7320  -31.2320 C   0  0  0  0  0  0  0  0  0  0  0  0
   -7.8750   21.4020  -31.7980 C   0  0  0  0  0  0  0  0  0  0  0  0
   -7.6450   23.1450  -31.8210 S   0  0  0  0  0  0  0  0  0  0  0  0
   -6.7700   23.5620  -32.9690 O   0  0  0  0  0  0  0  0  0  0  0  0
   -8.9860   23.8060  -31.9690 O   0  0  0  0  0  0  0  0  0  0  0  0
   -6.9160   23.6510  -30.3310 N   0  0  0  0  0  0  0  0  0  0  0  0
   -5.5170   23.4920  -30.0350 C   0  0  0  0  0  0  0  0  0  0  0  0
   -4.9280   22.2080  -30.1600 C   0  0  0  0  0  0  0  0  0  0  0  0
   -3.5620   22.0080  -29.8920 C   0  0  0  0  0  0  0  0  0  0  0  0
   -2.8120   23.1140  -29.4940 C   0  0  0  0  0  0  0  0  0  0  0  0
   -3.3700   24.3520  -29.3610 C   0  0  0  0  0  0  0  0  0  0  0  0
   -4.7180   24.5850  -29.6180 C   0  0  0  0  0  0  0  0  0  0  0  0
   -2.4450   25.2530  -28.9750 N   0  0  0  0  0  0  0  0  0  0  0  0
   -1.3210   24.4990  -28.8880 C   0  0  0  0  0  0  0  0  0  0  0  0
   -0.2050   24.9820  -28.5590 O   0  0  0  0  0  0  0  0  0  0  0  0
   -1.5060   23.1890  -29.1900 N   0  0  0  0  0  0  0  0  0  0  0  0
   -0.4930   22.1350  -29.2700 C   0  0  0  0  0  0  0  0  0  0  0  0
   -0.8650   20.9860  -28.3710 C   0  0  0  0  0  0  0  0  0  0  0  0
   -0.4890   19.6760  -28.7090 C   0  0  0  0  0  0  0  0  0  0  0  0
   -0.8570   18.6030  -27.8920 C   0  0  0  0  0  0  0  0  0  0  0  0
   -1.6060   18.8300  -26.7340 C   0  0  0  0  0  0  0  0  0  0  0  0
   -1.9860   20.1290  -26.3910 C   0  0  0  0  0  0  0  0  0  0  0  0
   -1.6200   21.2060  -27.2050 C   0  0  0  0  0  0  0  0  0  0  0  0
   -7.0320   20.4130  -32.2630 C   0  0  0  0  0  0  0  0  0  0  0  0
   -5.4760   20.6300  -33.0500 Cl  0  0  0  0  0  0  0  0  0  0  0  0
   -6.7987   17.4068  -31.3012 H   0  0  0  0  0  0  0  0  0  0  0  0
   -7.7351   17.3050  -32.8307 H   0  0  0  0  0  0  0  0  0  0  0  0
   -6.0908   18.0282  -32.8307 H   0  0  0  0  0  0  0  0  0  0  0  0
   -9.8125   21.2067  -30.7557 H   0  0  0  0  0  0  0  0  0  0  0  0
   -7.5570   23.9930  -29.5810 H   0  0  0  0  0  0  0  0  0  0  0  0
   -5.5492   21.3553  -30.4714 H   0  0  0  0  0  0  0  0  0  0  0  0
   -3.1015   21.0141  -29.9928 H   0  0  0  0  0  0  0  0  0  0  0  0
   -5.1507   25.5895  -29.5006 H   0  0  0  0  0  0  0  0  0  0  0  0
   -0.4230   21.7765  -30.3076 H   0  0  0  0  0  0  0  0  0  0  0  0
    0.4760   22.5437  -28.9473 H   0  0  0  0  0  0  0  0  0  0  0  0
    0.0980   19.4932  -29.6211 H   0  0  0  0  0  0  0  0  0  0  0  0
   -0.5569   17.5794  -28.1607 H   0  0  0  0  0  0  0  0  0  0  0  0
   -1.8962   17.9848  -26.0925 H   0  0  0  0  0  0  0  0  0  0  0  0
   -2.5745   20.3058  -25.4786 H   0  0  0  0  0  0  0  0  0  0  0  0
   -1.9234   22.2276  -26.9325 H   0  0  0  0  0  0  0  0  0  0  0  0
  1  2  1  0
  2  3  1  0
  3  4  2  0
  4  5  1  0
  5  6  1  0
  6  7  2  0
  6  8  2  0
  6  9  1  0
  9 10  1  0
 10 11  2  0
 11 12  1  0
 12 13  2  0
 13 14  1  0
 14 15  2  0
 14 16  1  0
 16 17  1  0
 17 18  2  0
 17 19  1  0
 19 20  1  0
 20 21  1  0
 21 22  2  0
 22 23  1  0
 23 24  2  0
 24 25  1  0
 25 26  2  0
  5 27  2  0
 27 28  1  0
 27  2  1  0
 15 10  1  0
 26 21  1  0
 19 13  1  0
  1 29  1  0
  1 30  1  0
  1 31  1  0
  4 32  1  0
  9 33  1  0
 11 34  1  0
 12 35  1  0
 15 36  1  0
 20 37  1  0
 20 38  1  0
 22 39  1  0
 23 40  1  0
 24 41  1  0
 25 42  1  0
 26 43  1  0
M  CHG  1  16  -1
M  END
>  <UniqueID>  (6) 
6

>  <SMILES>  (6) 
Cn1ncc(S(=O)(=O)Nc2ccc3c(c2)[n-]c(=O)n3Cc2ccccc2)c1Cl

>  <Energy>  (6) 
117.36434882705194

>  <Genealogy>  (6) 
Cn1ncc(S(=O)(=O)Nc2ccc3c(c2)[n-]c(=O)n3Cc2ccccc2)c1Cl (protonated)
Cn1ncc(S(=O)(=O)Nc2ccc3c(c2)[n-]c(=O)n3Cc2ccccc2)c1Cl (3D coordinates assigned)
Cn1ncc(S(=O)(=O)Nc2ccc3c(c2)[n-]c(=O)n3Cc2ccccc2)c1Cl (optimized conformer: 117.36434882705194 kcal/mol)

>  <smiles>  (6) 
Cn1ncc(S(=O)(=O)Nc2ccc3c(c2)[nH]c(=O)n3Cc2ccccc2)c1Cl

>  <score_type>  (6) 
oracle

>  <origin>  (6) 
adgpu

>  <m_score__min__energy>  (6) 
-10.73

>  <m_primary>  (6) 
energy

$$$$
6:0
     RDKit          3D

 60 63  0  0  0  0  0  0  0  0999 V2000
   -2.5630   16.2140  -33.6950 C   0  0  0  0  0  0  0  0  0  0  0  0
   -2.7840   17.6060  -33.9040 O   0  0  0  0  0  0  0  0  0  0  0  0
   -4.0290   18.2440  -33.7710 C   0  0  0  0  0  0  0  0  0  0  0  0
   -5.2280   17.6110  -34.1530 C   0  0  0  0  0  0  0  0  0  0  0  0
   -6.4480   18.2780  -34.0440 C   0  0  0  0  0  0  0  0  0  0  0  0
   -6.4980   19.5980  -33.5670 C   0  0  0  0  0  0  0  0  0  0  0  0
   -7.7380   20.3190  -33.4850 N   0  0  0  0  0  0  0  0  0  0  0  0
   -8.2610   21.1270  -32.0400 S   0  0  0  0  0  0  0  0  0  0  0  0
   -8.4830   20.1160  -30.9510 O   0  0  0  0  0  0  0  0  0  0  0  0
   -9.5540   21.8440  -32.3110 O   0  0  0  0  0  0  0  0  0  0  0  0
   -7.0100   22.2520  -31.5200 C   0  0  0  0  0  0  0  0  0  0  0  0
   -5.9340   21.7810  -30.7600 C   0  0  0  0  0  0  0  0  0  0  0  0
   -4.8940   22.6430  -30.4010 C   0  0  0  0  0  0  0  0  0  0  0  0
   -4.9110   23.9840  -30.8210 C   0  0  0  0  0  0  0  0  0  0  0  0
   -3.8630   24.8950  -30.4620 N   0  0  0  0  0  0  0  0  0  0  0  0
   -3.0520   24.8330  -29.2810 C   0  0  0  0  0  0  0  0  0  0  0  0
   -3.5420   24.2050  -28.0100 C   0  0  0  0  0  0  0  0  0  0  0  0
   -1.8820   25.3010  -29.3230 O   0  0  0  0  0  0  0  0  0  0  0  0
   -6.0090   24.4620  -31.5460 C   0  0  0  0  0  0  0  0  0  0  0  0
   -7.0480   23.5990  -31.9060 C   0  0  0  0  0  0  0  0  0  0  0  0
   -5.3110   20.2220  -33.1610 C   0  0  0  0  0  0  0  0  0  0  0  0
   -4.0760   19.5550  -33.2530 C   0  0  0  0  0  0  0  0  0  0  0  0
   -2.8460   20.2470  -32.7950 C   0  0  0  0  0  0  0  0  0  0  0  0
   -1.8290   20.5640  -33.7050 C   0  0  0  0  0  0  0  0  0  0  0  0
   -0.6660   21.1860  -33.2480 C   0  0  0  0  0  0  0  0  0  0  0  0
   -0.5140   21.4640  -31.9270 N   0  0  0  0  0  0  0  0  0  0  0  0
   -1.4740   21.1670  -31.0040 C   0  0  0  0  0  0  0  0  0  0  0  0
   -1.2630   21.5230  -29.6160 N   0  0  0  0  0  0  0  0  0  0  0  0
   -0.4480   22.6940  -29.2430 C   0  0  0  0  0  0  0  0  0  0  0  0
    0.2260   22.4500  -27.8820 C   0  0  0  0  0  0  0  0  0  0  0  0
   -0.7560   22.0490  -26.8620 N   0  0  0  0  0  0  0  0  0  0  0  0
   -1.4380   20.8120  -27.2620 C   0  0  0  0  0  0  0  0  0  0  0  0
   -2.1770   20.9910  -28.5950 C   0  0  0  0  0  0  0  0  0  0  0  0
   -2.6710   20.5630  -31.4380 C   0  0  0  0  0  0  0  0  0  0  0  0
   -2.5300   16.0060  -32.6153 H   0  0  0  0  0  0  0  0  0  0  0  0
   -3.3812   15.6398  -34.1542 H   0  0  0  0  0  0  0  0  0  0  0  0
   -1.6072   15.9215  -34.1542 H   0  0  0  0  0  0  0  0  0  0  0  0
   -5.2019   16.5819  -34.5406 H   0  0  0  0  0  0  0  0  0  0  0  0
   -7.3778   17.7665  -34.3337 H   0  0  0  0  0  0  0  0  0  0  0  0
   -8.4520   20.1940  -34.2430 H   0  0  0  0  0  0  0  0  0  0  0  0
   -5.9064   20.7278  -30.4436 H   0  0  0  0  0  0  0  0  0  0  0  0
   -4.0599   22.2707  -29.7880 H   0  0  0  0  0  0  0  0  0  0  0  0
   -3.1212   24.7443  -27.1486 H   0  0  0  0  0  0  0  0  0  0  0  0
   -4.6402   24.2576  -27.9747 H   0  0  0  0  0  0  0  0  0  0  0  0
   -3.2240   23.1526  -27.9747 H   0  0  0  0  0  0  0  0  0  0  0  0
   -6.0544   25.5227  -31.8340 H   0  0  0  0  0  0  0  0  0  0  0  0
   -7.8973   23.9778  -32.4935 H   0  0  0  0  0  0  0  0  0  0  0  0
   -5.3454   21.2476  -32.7649 H   0  0  0  0  0  0  0  0  0  0  0  0
   -1.9462   20.3244  -34.7722 H   0  0  0  0  0  0  0  0  0  0  0  0
    0.1297   21.4518  -33.9595 H   0  0  0  0  0  0  0  0  0  0  0  0
    0.3246   22.8595  -30.0083 H   0  0  0  0  0  0  0  0  0  0  0  0
   -1.0968   23.5795  -29.1725 H   0  0  0  0  0  0  0  0  0  0  0  0
    0.9750   21.6519  -27.9913 H   0  0  0  0  0  0  0  0  0  0  0  0
    0.7003   23.3878  -27.5569 H   0  0  0  0  0  0  0  0  0  0  0  0
   -1.4670   22.8110  -26.7520 H   0  0  0  0  0  0  0  0  0  0  0  0
   -0.6926   20.0103  -27.3700 H   0  0  0  0  0  0  0  0  0  0  0  0
   -2.1752   20.5549  -26.4872 H   0  0  0  0  0  0  0  0  0  0  0  0
   -2.5663   20.0176  -28.9279 H   0  0  0  0  0  0  0  0  0  0  0  0
   -3.0066   21.6992  -28.4526 H   0  0  0  0  0  0  0  0  0  0  0  0
   -3.4682   20.3391  -30.7138 H   0  0  0  0  0  0  0  0  0  0  0  0
  1  2  1  0
  2  3  1  0
  3  4  2  0
  4  5  1  0
  5  6  2  0
  6  7  1  0
  7  8  1  0
  8  9  2  0
  8 10  2  0
  8 11  1  0
 11 12  2  0
 12 13  1  0
 13 14  2  0
 14 15  1  0
 15 16  1  0
 16 17  1  0
 16 18  2  0
 14 19  1  0
 19 20  2  0
  6 21  1  0
 21 22  2  0
 22 23  1  0
 23 24  2  0
 24 25  1  0
 25 26  2  0
 26 27  1  0
 27 28  1  0
 28 29  1  0
 29 30  1  0
 30 31  1  0
 31 32  1  0
 32 33  1  0
 27 34  2  0
 22  3  1  0
 34 23  1  0
 20 11  1  0
 33 28  1  0
  1 35  1  0
  1 36  1  0
  1 37  1  0
  4 38  1  0
  5 39  1  0
  7 40  1  0
 12 41  1  0
 13 42  1  0
 17 43  1  0
 17 44  1  0
 17 45  1  0
 19 46  1  0
 20 47  1  0
 21 48  1  0
 24 49  1  0
 25 50  1  0
 29 51  1  0
 29 52  1  0
 30 53  1  0
 30 54  1  0
 31 55  1  0
 32 56  1  0
 32 57  1  0
 33 58  1  0
 33 59  1  0
 34 60  1  0
M  CHG  1  15  -1
M  END
>  <UniqueID>  (7) 
7

>  <SMILES>  (7) 
COc1ccc(NS(=O)(=O)c2ccc([N-]C(C)=O)cc2)cc1-c1ccnc(N2CCNCC2)c1

>  <Energy>  (7) 
77.85903215261409

>  <Genealogy>  (7) 
COc1ccc(NS(=O)(=O)c2ccc([N-]C(C)=O)cc2)cc1-c1ccnc(N2CCNCC2)c1 (protonated)
COc1ccc(NS(=O)(=O)c2ccc([N-]C(C)=O)cc2)cc1-c1ccnc(N2CCNCC2)c1 (3D coordinates assigned)
COc1ccc(NS(=O)(=O)c2ccc([N-]C(C)=O)cc2)cc1-c1ccnc(N2CCNCC2)c1 (nonaromatic ring conformer: 77.85903215261409 kcal/mol)

>  <smiles>  (7) 
COc1ccc(NS(=O)(=O)c2ccc(NC(C)=O)cc2)cc1-c1ccnc(N2CCNCC2)c1

>  <score_type>  (7) 
oracle

>  <origin>  (7) 
adgpu

>  <m_score__min__energy>  (7) 
-11.529999999999999

>  <m_primary>  (7) 
energy

$$$$
7:0
     RDKit          3D

 46 48  0  0  0  0  0  0  0  0999 V2000
   -2.4000   25.2990  -28.8830 O   0  0  0  0  0  0  0  0  0  0  0  0
   -3.5350   24.6030  -29.5810 S   0  0  0  0  0  0  0  0  0  0  0  0
   -3.8200   25.3200  -30.8720 O   0  0  0  0  0  0  0  0  0  0  0  0
   -4.9460   24.6420  -28.5680 N   0  0  0  0  0  0  0  0  0  0  0  0
   -6.1000   25.0990  -29.3460 C   0  0  0  0  0  0  0  0  0  0  0  0
   -6.5590   23.9970  -30.2580 C   0  0  0  0  0  0  0  0  0  0  0  0
   -7.2150   22.8710  -29.7320 C   0  0  0  0  0  0  0  0  0  0  0  0
   -7.6730   21.8610  -30.5840 C   0  0  0  0  0  0  0  0  0  0  0  0
   -7.4910   21.9740  -31.9650 C   0  0  0  0  0  0  0  0  0  0  0  0
   -6.8550   23.0990  -32.4970 C   0  0  0  0  0  0  0  0  0  0  0  0
   -6.3950   24.1100  -31.6490 C   0  0  0  0  0  0  0  0  0  0  0  0
   -3.0720   22.9320  -29.8930 C   0  0  0  0  0  0  0  0  0  0  0  0
   -2.3310   22.2300  -28.9340 C   0  0  0  0  0  0  0  0  0  0  0  0
   -1.9730   20.8990  -29.1590 C   0  0  0  0  0  0  0  0  0  0  0  0
   -2.3520   20.2610  -30.3430 C   0  0  0  0  0  0  0  0  0  0  0  0
   -3.0920   20.9560  -31.3090 C   0  0  0  0  0  0  0  0  0  0  0  0
   -3.5780   20.1580  -32.8020 S   0  0  0  0  0  0  0  0  0  0  0  0
   -2.8590   18.8420  -32.9030 O   0  0  0  0  0  0  0  0  0  0  0  0
   -3.2100   21.0160  -33.9830 O   0  0  0  0  0  0  0  0  0  0  0  0
   -5.3050   19.8910  -32.7950 N   0  0  0  0  0  0  0  0  0  0  0  0
   -5.7630   19.3080  -34.0770 C   0  0  0  0  0  0  0  0  0  0  0  0
   -6.1420   17.8230  -33.9400 C   0  0  0  0  0  0  0  0  0  0  0  0
   -7.1590   17.5970  -32.9760 O   0  0  0  0  0  0  0  0  0  0  0  0
   -7.0640   18.4400  -31.8330 C   0  0  0  0  0  0  0  0  0  0  0  0
   -5.6810   19.0760  -31.6250 C   0  0  0  0  0  0  0  0  0  0  0  0
   -3.4560   22.2900  -31.0790 C   0  0  0  0  0  0  0  0  0  0  0  0
   -4.7610   25.3470  -27.8180 H   0  0  0  0  0  0  0  0  0  0  0  0
   -6.9172   25.3733  -28.6627 H   0  0  0  0  0  0  0  0  0  0  0  0
   -5.8132   25.9752  -29.9461 H   0  0  0  0  0  0  0  0  0  0  0  0
   -7.3688   22.7837  -28.6463 H   0  0  0  0  0  0  0  0  0  0  0  0
   -8.1770   20.9768  -30.1667 H   0  0  0  0  0  0  0  0  0  0  0  0
   -7.8485   21.1771  -32.6336 H   0  0  0  0  0  0  0  0  0  0  0  0
   -6.7163   23.1888  -33.5845 H   0  0  0  0  0  0  0  0  0  0  0  0
   -5.9025   24.9979  -32.0721 H   0  0  0  0  0  0  0  0  0  0  0  0
   -2.0301   22.7285  -28.0008 H   0  0  0  0  0  0  0  0  0  0  0  0
   -1.3914   20.3517  -28.4025 H   0  0  0  0  0  0  0  0  0  0  0  0
   -2.0692   19.2123  -30.5169 H   0  0  0  0  0  0  0  0  0  0  0  0
   -6.6438   19.8673  -34.4255 H   0  0  0  0  0  0  0  0  0  0  0  0
   -4.9326   19.3789  -34.7950 H   0  0  0  0  0  0  0  0  0  0  0  0
   -6.4972   17.4604  -34.9159 H   0  0  0  0  0  0  0  0  0  0  0  0
   -5.2441   17.2839  -33.6037 H   0  0  0  0  0  0  0  0  0  0  0  0
   -7.8018   19.2488  -31.9401 H   0  0  0  0  0  0  0  0  0  0  0  0
   -7.2504   17.8019  -30.9566 H   0  0  0  0  0  0  0  0  0  0  0  0
   -5.7082   19.7168  -30.7313 H   0  0  0  0  0  0  0  0  0  0  0  0
   -4.9376   18.2756  -31.4958 H   0  0  0  0  0  0  0  0  0  0  0  0
   -4.0449   22.8350  -31.8314 H   0  0  0  0  0  0  0  0  0  0  0  0
  1  2  2  0
  2  3  2  0
  2  4  1  0
  4  5  1  0
  5  6  1  0
  6  7  2  0
  7  8  1  0
  8  9  2  0
  9 10  1  0
 10 11  2  0
  2 12  1  0
 12 13  2  0
 13 14  1  0
 14 15  2  0
 15 16  1  0
 16 17  1  0
 17 18  2  0
 17 19  2  0
 17 20  1  0
 20 21  1  0
 21 22  1  0
 22 23  1  0
 23 24  1  0
 24 25  1  0
 16 26  2  0
 11  6  1  0
 26 12  1  0
 25 20  1  0
  4 27  1  0
  5 28  1  0
  5 29  1  0
  7 30  1  0
  8 31  1  0
  9 32  1  0
 10 33  1  0
 11 34  1  0
 13 35  1  0
 14 36  1  0
 15 37  1  0
 21 38  1  0
 21 39  1  0
 22 40  1  0
 22 41  1  0
 24 42  1  0
 24 43  1  0
 25 44  1  0
 25 45  1  0
 26 46  1  0
M  END
>  <UniqueID>  (8) 
8

>  <SMILES>  (8) 
O=S(=O)(NCc1ccccc1)c1cccc(S(=O)(=O)N2CCOCC2)c1

>  <Energy>  (8) 
56.19162933862239

>  <Genealogy>  (8) 
O=S(=O)(NCc1ccccc1)c1cccc(S(=O)(=O)N2CCOCC2)c1 (3D coordinates assigned)
O=S(=O)(NCc1ccccc1)c1cccc(S(=O)(=O)N2CCOCC2)c1 (nonaromatic ring conformer: 56.19162933862239 kcal/mol)

>  <smiles>  (8) 
O=S(=O)(NCc1ccccc1)c1cccc(S(=O)(=O)N2CCOCC2)c1

>  <score_type>  (8) 
oracle

>  <origin>  (8) 
adgpu

>  <m_score__min__energy>  (8) 
-9.7100000000000009

>  <m_primary>  (8) 
energy

$$$$
8:0
     RDKit          3D

 47 49  0  0  1  0  0  0  0  0999 V2000
   -5.3100   18.3680  -34.7530 C   0  0  0  0  0  0  0  0  0  0  0  0
   -6.2850   19.1790  -34.0490 N   0  0  0  0  0  0  0  0  0  0  0  0
   -6.0800   19.7110  -32.7470 C   0  0  0  0  0  0  0  0  0  0  0  0
   -5.0290   19.5300  -32.0760 O   0  0  0  0  0  0  0  0  0  0  0  0
   -7.2010   20.5140  -32.2070 C   0  0  0  0  0  0  0  0  0  0  0  0
   -8.4770   20.2770  -32.6610 C   0  0  0  0  0  0  0  0  0  0  0  0
   -9.5730   20.9970  -32.1840 C   0  0  0  0  0  0  0  0  0  0  0  0
   -9.3880   21.9760  -31.2330 C   0  0  0  0  0  0  0  0  0  0  0  0
   -8.0830   22.2080  -30.7790 C   0  0  0  0  0  0  0  0  0  0  0  0
   -7.0110   21.4880  -31.2600 C   0  0  0  0  0  0  0  0  0  0  0  0
   -5.7100   21.7670  -30.7590 N   0  0  0  0  0  0  0  0  0  0  0  0
   -5.2340   22.9710  -30.6380 C   0  0  0  0  0  0  0  0  0  0  0  0
   -3.9510   23.1460  -30.1370 C   0  0  0  0  0  0  0  0  0  0  0  0
   -3.4510   24.4200  -29.9960 C   0  0  0  0  0  0  0  0  0  0  0  0
   -2.1470   24.6070  -29.4790 N   0  0  0  0  0  0  0  0  0  0  0  0
   -1.8270   25.1930  -28.2430 C   0  0  0  0  0  0  0  0  0  0  0  0
   -2.4890   24.9370  -27.0610 C   0  0  0  0  0  0  0  0  0  0  0  0
   -2.1030   25.5300  -25.8560 C   0  0  0  0  0  0  0  0  0  0  0  0
   -1.0250   26.4090  -25.7980 C   0  0  0  0  0  0  0  0  0  0  0  0
   -0.5150   27.1540  -24.2950 S   0  0  0  0  0  0  0  0  0  0  0  0
    1.2380   26.9850  -24.0430 C   0  0  0  0  0  0  0  0  0  0  0  0
   -0.8410   28.6380  -24.4440 O   0  0  0  0  0  0  0  0  0  0  0  0
   -1.1990   26.5630  -23.0940 O   0  0  0  0  0  0  0  0  0  0  0  0
   -0.3600   26.6680  -26.9840 C   0  0  0  0  0  0  0  0  0  0  0  0
   -0.7560   26.0740  -28.1600 C   0  0  0  0  0  0  0  0  0  0  0  0
   -4.2430   25.4560  -30.3580 N   0  0  0  0  0  0  0  0  0  0  0  0
   -5.4900   25.2460  -30.8440 C   0  0  0  0  0  0  0  0  0  0  0  0
   -6.0020   24.0120  -30.9910 N   0  0  0  0  0  0  0  0  0  0  0  0
   -4.6766   17.8411  -34.0242 H   0  0  0  0  0  0  0  0  0  0  0  0
   -5.8314   17.6334  -35.3843 H   0  0  0  0  0  0  0  0  0  0  0  0
   -4.6827   19.0144  -35.3843 H   0  0  0  0  0  0  0  0  0  0  0  0
   -7.1900   19.3520  -34.5840 H   0  0  0  0  0  0  0  0  0  0  0  0
   -8.6383   19.4984  -33.4211 H   0  0  0  0  0  0  0  0  0  0  0  0
  -10.5820   20.7833  -32.5664 H   0  0  0  0  0  0  0  0  0  0  0  0
  -10.2369   22.5566  -30.8428 H   0  0  0  0  0  0  0  0  0  0  0  0
   -7.9098   22.9845  -30.0194 H   0  0  0  0  0  0  0  0  0  0  0  0
   -3.3406   22.2752  -29.8557 H   0  0  0  0  0  0  0  0  0  0  0  0
   -1.3610   24.2690  -30.1030 H   0  0  0  0  0  0  0  0  0  0  0  0
   -3.3452   24.2464  -27.0667 H   0  0  0  0  0  0  0  0  0  0  0  0
   -2.6609   25.2981  -24.9368 H   0  0  0  0  0  0  0  0  0  0  0  0
    1.4531   26.9643  -22.9644 H   0  0  0  0  0  0  0  0  0  0  0  0
    1.5862   26.0491  -24.5044 H   0  0  0  0  0  0  0  0  0  0  0  0
    1.7586   27.8371  -24.5044 H   0  0  0  0  0  0  0  0  0  0  0  0
    0.4966   27.3581  -26.9862 H   0  0  0  0  0  0  0  0  0  0  0  0
   -0.1979   26.3078  -29.0786 H   0  0  0  0  0  0  0  0  0  0  0  0
   -3.8670   26.4450  -30.2540 H   0  0  0  0  0  0  0  0  0  0  0  0
   -6.1036   26.1138  -31.1276 H   0  0  0  0  0  0  0  0  0  0  0  0
  1  2  1  0
  2  3  1  0
  3  4  2  0
  3  5  1  0
  5  6  2  0
  6  7  1  0
  7  8  2  0
  8  9  1  0
  9 10  2  0
 10 11  1  0
 11 12  2  0
 12 13  1  0
 13 14  2  0
 14 15  1  0
 15 16  1  0
 16 17  2  0
 17 18  1  0
 18 19  2  0
 19 20  1  0
 20 21  1  0
 20 22  2  0
 20 23  2  0
 19 24  1  0
 24 25  2  0
 14 26  1  0
 26 27  1  0
 27 28  2  0
 10  5  1  0
 28 12  1  0
 25 16  1  0
  1 29  1  0
  1 30  1  0
  1 31  1  0
  2 32  1  0
  6 33  1  0
  7 34  1  0
  8 35  1  0
  9 36  1  0
 13 37  1  0
 15 38  1  0
 17 39  1  0
 18 40  1  0
 21 41  1  0
 21 42  1  0
 21 43  1  0
 24 44  1  0
 25 45  1  0
 26 46  1  0
 27 47  1  0
M  END
>  <smiles>  (9) 
CNC(=O)c1ccccc1N=c1cc(Nc2ccc(S(C)(=O)=O)cc2)[nH]cn1

>  <score_type>  (9) 
oracle

>  <origin>  (9) 
adgpu

>  <m_score__min__energy>  (9) 
-10.1

>  <m_primary>  (9) 
energy

$$$$
9:0
     RDKit          3D

 49 52  0  0  0  0  0  0  0  0999 V2000
   -4.3443   15.7978  -34.2012 H   0  0  0  0  0  0  0  0  0  0  0  0
   -5.0900   16.3960  -33.6570 C   0  0  0  0  0  0  0  0  0  0  0  0
   -5.9320   17.2660  -34.3550 C   0  0  0  0  0  0  0  0  0  0  0  0
   -5.8529   17.3470  -35.4492 H   0  0  0  0  0  0  0  0  0  0  0  0
   -6.8740   18.0330  -33.6650 C   0  0  0  0  0  0  0  0  0  0  0  0
   -7.5432   18.7066  -34.2204 H   0  0  0  0  0  0  0  0  0  0  0  0
   -6.9720   17.9490  -32.2630 C   0  0  0  0  0  0  0  0  0  0  0  0
   -7.9920   18.7860  -31.5170 C   0  0  0  0  0  0  0  0  0  0  0  0
   -8.2347   18.2761  -30.5730 H   0  0  0  0  0  0  0  0  0  0  0  0
   -8.8653   18.8891  -32.1779 H   0  0  0  0  0  0  0  0  0  0  0  0
   -7.5280   20.1560  -31.2010 N   0  0  0  0  0  0  0  0  0  0  0  0
   -8.6180   21.1570  -31.1520 C   0  0  0  0  0  0  0  0  0  0  0  0
   -9.2260   20.9826  -30.2520 H   0  0  0  0  0  0  0  0  0  0  0  0
   -9.2314   21.0509  -32.0589 H   0  0  0  0  0  0  0  0  0  0  0  0
   -8.0560   22.5810  -31.1080 C   0  0  0  0  0  0  0  0  0  0  0  0
   -7.3832   22.6763  -30.2429 H   0  0  0  0  0  0  0  0  0  0  0  0
   -8.8944   23.2878  -31.0216 H   0  0  0  0  0  0  0  0  0  0  0  0
   -7.2700   22.9020  -32.3980 C   0  0  0  0  0  0  0  0  0  0  0  0
   -7.9738   23.2819  -33.1532 H   0  0  0  0  0  0  0  0  0  0  0  0
   -6.2610   23.9230  -32.0950 N   0  0  0  0  0  0  0  0  0  0  0  0
   -5.3150   23.8630  -31.1990 C   0  0  0  0  0  0  0  0  0  0  0  0
   -4.4760   24.9230  -31.0680 N   0  0  0  0  0  0  0  0  0  0  0  0
   -3.4860   24.9350  -30.1750 N   0  0  0  0  0  0  0  0  0  0  0  0
   -3.2560   23.8840  -29.3410 C   0  0  0  0  0  0  0  0  0  0  0  0
   -2.1440   23.9490  -28.3590 C   0  0  0  0  0  0  0  0  0  0  0  0
   -2.0030   22.9470  -27.3790 C   0  0  0  0  0  0  0  0  0  0  0  0
   -2.7138   22.1080  -27.3506 H   0  0  0  0  0  0  0  0  0  0  0  0
   -0.9670   23.0100  -26.4420 C   0  0  0  0  0  0  0  0  0  0  0  0
   -0.8643   22.2204  -25.6831 H   0  0  0  0  0  0  0  0  0  0  0  0
   -0.0630   24.0730  -26.4680 C   0  0  0  0  0  0  0  0  0  0  0  0
    0.7514   24.1204  -25.7301 H   0  0  0  0  0  0  0  0  0  0  0  0
   -0.1920   25.0760  -27.4300 C   0  0  0  0  0  0  0  0  0  0  0  0
    0.5203   25.9140  -27.4464 H   0  0  0  0  0  0  0  0  0  0  0  0
   -1.2240   25.0200  -28.3740 C   0  0  0  0  0  0  0  0  0  0  0  0
   -1.3110   26.0250  -29.3320 O   0  0  0  0  0  0  0  0  0  0  0  0
   -4.0870   22.7600  -29.4360 C   0  0  0  0  0  0  0  0  0  0  0  0
   -3.9226   21.8935  -28.7787 H   0  0  0  0  0  0  0  0  0  0  0  0
   -5.1220   22.7460  -30.3670 C   0  0  0  0  0  0  0  0  0  0  0  0
   -5.7821   21.8701  -30.4509 H   0  0  0  0  0  0  0  0  0  0  0  0
   -6.6080   21.6380  -33.0060 C   0  0  0  0  0  0  0  0  0  0  0  0
   -5.6656   21.9287  -33.4932 H   0  0  0  0  0  0  0  0  0  0  0  0
   -7.3087   21.1999  -33.7320 H   0  0  0  0  0  0  0  0  0  0  0  0
   -6.3080   20.5810  -31.9330 C   0  0  0  0  0  0  0  0  0  0  0  0
   -5.5922   21.0027  -31.2120 H   0  0  0  0  0  0  0  0  0  0  0  0
   -5.8953   19.6962  -32.4397 H   0  0  0  0  0  0  0  0  0  0  0  0
   -6.1360   17.0530  -31.5750 C   0  0  0  0  0  0  0  0  0  0  0  0
   -6.2222   16.9542  -30.4828 H   0  0  0  0  0  0  0  0  0  0  0  0
   -5.1950   16.2860  -32.2700 C   0  0  0  0  0  0  0  0  0  0  0  0
   -4.5370   15.5953  -31.7224 H   0  0  0  0  0  0  0  0  0  0  0  0
  1  2  1  0
  2  3  2  0
  3  4  1  0
  3  5  1  0
  5  6  1  0
  5  7  2  0
  7  8  1  0
  8  9  1  0
  8 10  1  0
  8 11  1  0
 11 12  1  0
 12 13  1  0
 12 14  1  0
 12 15  1  0
 15 16  1  0
 15 17  1  0
 15 18  1  0
 18 19  1  0
 18 20  1  0
 20 21  2  0
 21 22  1  0
 22 23  1  0
 23 24  2  0
 24 25  1  0
 25 26  2  0
 26 27  1  0
 26 28  1  0
 28 29  1  0
 28 30  2  0
 30 31  1  0
 30 32  1  0
 32 33  1  0
 32 34  2  0
 34 35  1  0
 24 36  1  0
 36 37  1  0
 36 38  2  0
 38 39  1  0
 18 40  1  0
 40 41  1  0
 40 42  1  0
 40 43  1  0
 43 44  1  0
 43 45  1  0
  7 46  1  0
 46 47  1  0
 46 48  2  0
 48 49  1  0
 48  2  1  0
 43 11  1  0
 38 21  1  0
 34 25  1  0
M  CHG  2  22  -1  35  -1
M  END
>  <UniqueID>  (10) 
9

>  <SMILES>  (10) 
[O-]c1ccccc1-c1cc/c(=N\C2CCN(Cc3ccccc3)CC2)[n-]n1

>  <Energy>  (10) 
72.06864595337652

>  <Genealogy>  (10) 
[O-]c1ccccc1-c1ccc(=NC2CCN(Cc3ccccc3)CC2)[n-]n1 (protonated)
[O-]c1ccccc1-c1cc/c(=N\C2CCN(Cc3ccccc3)CC2)[n-]n1 (cis-trans isomerization)
[O-]c1ccccc1-c1cc/c(=N\C2CCN(Cc3ccccc3)CC2)[n-]n1 (3D coordinates assigned)
[O-]c1ccccc1-c1cc/c(=N\C2CCN(Cc3ccccc3)CC2)[n-]n1 (nonaromatic ring conformer: 72.06864595337652 kcal/mol)

>  <smiles>  (10) 
Oc1ccccc1-c1ccc(=NC2CCN(Cc3ccccc3)CC2)[nH]n1

>  <score_type>  (10) 
oracle

>  <origin>  (10) 
adgpu

>  <m_score__min__energy>  (10) 
-14.130000000000001

>  <m_primary>  (10) 
energy

$$$$
10:0
     RDKit          3D

 44 46  0  0  0  0  0  0  0  0999 V2000
   -1.0810   21.4650  -26.3500 O   0  0  0  0  0  0  0  0  0  0  0  0
   -1.4930   21.0310  -27.7270 S   0  0  0  0  0  0  0  0  0  0  0  0
   -2.4820   19.9050  -27.6190 O   0  0  0  0  0  0  0  0  0  0  0  0
   -0.0950   20.4790  -28.5920 N   0  0  0  0  0  0  0  0  0  0  0  0
   -0.1180   19.9890  -29.9380 C   0  0  0  0  0  0  0  0  0  0  0  0
    0.8030   19.0280  -30.3950 C   0  0  0  0  0  0  0  0  0  0  0  0
    0.7100   18.5330  -31.6980 C   0  0  0  0  0  0  0  0  0  0  0  0
   -0.3060   18.9780  -32.5470 C   0  0  0  0  0  0  0  0  0  0  0  0
   -1.2310   19.9320  -32.1000 C   0  0  0  0  0  0  0  0  0  0  0  0
   -2.5810   20.4120  -33.1290 S   0  0  0  0  0  0  0  0  0  0  0  0
   -2.7580   21.9030  -33.0520 O   0  0  0  0  0  0  0  0  0  0  0  0
   -2.2710   20.0520  -34.5560 O   0  0  0  0  0  0  0  0  0  0  0  0
   -4.0610   19.6140  -32.6460 N   0  0  0  0  0  0  0  0  0  0  0  0
   -4.9240   20.5110  -31.8350 C   0  0  0  0  0  0  0  0  0  0  0  0
   -6.0950   21.1020  -32.6370 C   0  0  0  0  0  0  0  0  0  0  0  0
   -6.9850   19.9920  -33.2220 C   0  0  0  0  0  0  0  0  0  0  0  0
   -6.2030   18.7030  -33.5320 C   0  0  0  0  0  0  0  0  0  0  0  0
   -4.7300   19.0100  -33.8200 C   0  0  0  0  0  0  0  0  0  0  0  0
   -1.1130   20.4530  -30.8040 C   0  0  0  0  0  0  0  0  0  0  0  0
   -2.2050   22.4060  -28.5680 C   0  0  0  0  0  0  0  0  0  0  0  0
   -3.3290   22.2300  -29.3870 C   0  0  0  0  0  0  0  0  0  0  0  0
   -3.8760   23.3200  -30.0720 C   0  0  0  0  0  0  0  0  0  0  0  0
   -3.3060   24.5900  -29.9410 C   0  0  0  0  0  0  0  0  0  0  0  0
   -3.8520   25.6680  -30.6280 O   0  0  0  0  0  0  0  0  0  0  0  0
   -2.1870   24.7730  -29.1180 C   0  0  0  0  0  0  0  0  0  0  0  0
   -1.6150   26.0320  -28.9850 O   0  0  0  0  0  0  0  0  0  0  0  0
   -1.6420   23.6850  -28.4290 C   0  0  0  0  0  0  0  0  0  0  0  0
    1.5971   18.6662  -29.7253 H   0  0  0  0  0  0  0  0  0  0  0  0
    1.4387   17.7909  -32.0563 H   0  0  0  0  0  0  0  0  0  0  0  0
   -0.3806   18.5788  -33.5693 H   0  0  0  0  0  0  0  0  0  0  0  0
   -5.3319   19.9361  -30.9906 H   0  0  0  0  0  0  0  0  0  0  0  0
   -4.2998   21.3507  -31.4956 H   0  0  0  0  0  0  0  0  0  0  0  0
   -6.7014   21.7353  -31.9728 H   0  0  0  0  0  0  0  0  0  0  0  0
   -5.6843   21.6936  -33.4685 H   0  0  0  0  0  0  0  0  0  0  0  0
   -7.7769   19.7568  -32.4956 H   0  0  0  0  0  0  0  0  0  0  0  0
   -7.3994   20.3646  -34.1704 H   0  0  0  0  0  0  0  0  0  0  0  0
   -6.2670   18.0267  -32.6669 H   0  0  0  0  0  0  0  0  0  0  0  0
   -6.6434   18.2318  -34.4231 H   0  0  0  0  0  0  0  0  0  0  0  0
   -4.2148   18.0742  -34.0825 H   0  0  0  0  0  0  0  0  0  0  0  0
   -4.6840   19.7295  -34.6508 H   0  0  0  0  0  0  0  0  0  0  0  0
   -1.8095   21.2340  -30.4651 H   0  0  0  0  0  0  0  0  0  0  0  0
   -3.7817   21.2329  -29.4912 H   0  0  0  0  0  0  0  0  0  0  0  0
   -4.7568   23.1777  -30.7154 H   0  0  0  0  0  0  0  0  0  0  0  0
   -0.7692   23.8315  -27.7758 H   0  0  0  0  0  0  0  0  0  0  0  0
  1  2  2  0
  2  3  2  0
  2  4  1  0
  4  5  1  0
  5  6  2  0
  6  7  1  0
  7  8  2  0
  8  9  1  0
  9 10  1  0
 10 11  2  0
 10 12  2  0
 10 13  1  0
 13 14  1  0
 14 15  1  0
 15 16  1  0
 16 17  1  0
 17 18  1  0
  9 19  2  0
  2 20  1  0
 20 21  2  0
 21 22  1  0
 22 23  2  0
 23 24  1  0
 23 25  1  0
 25 26  1  0
 25 27  2  0
 19  5  1  0
 27 20  1  0
 18 13  1  0
  6 28  1  0
  7 29  1  0
  8 30  1  0
 14 31  1  0
 14 32  1  0
 15 33  1  0
 15 34  1  0
 16 35  1  0
 16 36  1  0
 17 37  1  0
 17 38  1  0
 18 39  1  0
 18 40  1  0
 19 41  1  0
 21 42  1  0
 22 43  1  0
 27 44  1  0
M  CHG  3   4  -1  24  -1  26  -1
M  END
>  <UniqueID>  (11) 
10

>  <SMILES>  (11) 
O=S(=O)([N-]c1cccc(S(=O)(=O)N2CCCCC2)c1)c1ccc([O-])c([O-])c1

>  <Energy>  (11) 
52.53188578926916

>  <Genealogy>  (11) 
O=S(=O)([N-]c1cccc(S(=O)(=O)N2CCCCC2)c1)c1ccc([O-])c([O-])c1 (protonated)
O=S(=O)([N-]c1cccc(S(=O)(=O)N2CCCCC2)c1)c1ccc([O-])c([O-])c1 (3D coordinates assigned)
O=S(=O)([N-]c1cccc(S(=O)(=O)N2CCCCC2)c1)c1ccc([O-])c([O-])c1 (nonaromatic ring conformer: 52.53188578926916 kcal/mol)

>  <smiles>  (11) 
O=S(=O)(Nc1cccc(S(=O)(=O)N2CCCCC2)c1)c1ccc(O)c(O)c1

>  <score_type>  (11) 
oracle

>  <origin>  (11) 
adgpu

>  <m_score__min__energy>  (11) 
-14.82

>  <m_primary>  (11) 
energy

$$$$
11:0
     RDKit          3D

 71 75  0  0  0  0  0  0  0  0999 V2000
   -4.3830   16.2900  -32.7350 C   0  0  0  0  0  0  0  0  0  0  0  0
   -4.7560   17.7420  -32.7400 C   0  0  0  0  0  0  0  0  0  0  0  0
   -4.0950   18.7710  -33.4010 C   0  0  0  0  0  0  0  0  0  0  0  0
   -2.9220   18.7050  -34.2150 N   0  0  0  0  0  0  0  0  0  0  0  0
   -1.4660   19.5920  -33.8830 S   0  0  0  0  0  0  0  0  0  0  0  0
   -0.2750   18.6840  -33.9860 O   0  0  0  0  0  0  0  0  0  0  0  0
   -1.3410   20.6840  -34.9070 O   0  0  0  0  0  0  0  0  0  0  0  0
   -1.5110   20.3090  -32.2660 C   0  0  0  0  0  0  0  0  0  0  0  0
   -0.8890   19.6360  -31.2030 C   0  0  0  0  0  0  0  0  0  0  0  0
   -0.8690   20.1910  -29.9240 C   0  0  0  0  0  0  0  0  0  0  0  0
   -1.4820   21.4190  -29.6840 C   0  0  0  0  0  0  0  0  0  0  0  0
   -2.1420   22.0950  -30.7160 C   0  0  0  0  0  0  0  0  0  0  0  0
   -2.7760   23.3530  -30.4230 N   0  0  0  0  0  0  0  0  0  0  0  0
   -2.9580   23.8820  -29.0980 C   0  0  0  0  0  0  0  0  0  0  0  0
   -4.0410   23.4300  -28.3300 C   0  0  0  0  0  0  0  0  0  0  0  0
   -4.2430   23.9160  -27.0370 C   0  0  0  0  0  0  0  0  0  0  0  0
   -3.3700   24.8630  -26.4990 C   0  0  0  0  0  0  0  0  0  0  0  0
   -2.2930   25.3430  -27.2570 C   0  0  0  0  0  0  0  0  0  0  0  0
   -1.1730   26.5140  -26.5580 S   0  0  0  0  0  0  0  0  0  0  0  0
   -0.8600   27.5570  -27.5930 O   0  0  0  0  0  0  0  0  0  0  0  0
   -1.8080   27.1760  -25.3670 O   0  0  0  0  0  0  0  0  0  0  0  0
    0.2920   25.6900  -26.0720 N   0  0  0  0  0  0  0  0  0  0  0  0
    0.6900   24.6390  -27.0440 C   0  0  0  0  0  0  0  0  0  0  0  0
    0.7370   23.2230  -26.4500 C   0  0  0  0  0  0  0  0  0  0  0  0
   -0.5020   22.9660  -25.5970 C   0  0  0  0  0  0  0  0  0  0  0  0
   -0.6390   23.9940  -24.4600 C   0  0  0  0  0  0  0  0  0  0  0  0
    0.2350   25.2470  -24.6650 C   0  0  0  0  0  0  0  0  0  0  0  0
   -2.0990   24.8700  -28.5690 C   0  0  0  0  0  0  0  0  0  0  0  0
   -1.0730   25.3970  -29.3460 O   0  0  0  0  0  0  0  0  0  0  0  0
   -2.1400   21.5560  -32.0220 C   0  0  0  0  0  0  0  0  0  0  0  0
   -2.7500   22.2810  -33.0500 O   0  0  0  0  0  0  0  0  0  0  0  0
   -4.9180   19.8650  -33.2670 C   0  0  0  0  0  0  0  0  0  0  0  0
   -4.7350   20.9950  -33.7950 O   0  0  0  0  0  0  0  0  0  0  0  0
   -5.9870   19.5370  -32.5110 N   0  0  0  0  0  0  0  0  0  0  0  0
   -7.0760   20.4160  -32.1740 C   0  0  0  0  0  0  0  0  0  0  0  0
   -8.3940   20.0860  -32.5280 C   0  0  0  0  0  0  0  0  0  0  0  0
   -9.4440   20.9560  -32.2200 C   0  0  0  0  0  0  0  0  0  0  0  0
   -9.1860   22.1640  -31.5640 C   0  0  0  0  0  0  0  0  0  0  0  0
   -7.8750   22.5030  -31.2180 C   0  0  0  0  0  0  0  0  0  0  0  0
   -6.8230   21.6340  -31.5220 C   0  0  0  0  0  0  0  0  0  0  0  0
   -5.8780   18.2520  -32.1730 N   0  0  0  0  0  0  0  0  0  0  0  0
   -6.8390   17.5080  -31.3510 C   0  0  0  0  0  0  0  0  0  0  0  0
   -4.2926   15.9382  -31.6967 H   0  0  0  0  0  0  0  0  0  0  0  0
   -5.1612   15.7097  -33.2523 H   0  0  0  0  0  0  0  0  0  0  0  0
   -3.4214   16.1567  -33.2523 H   0  0  0  0  0  0  0  0  0  0  0  0
   -0.4124   18.6607  -31.3807 H   0  0  0  0  0  0  0  0  0  0  0  0
   -0.3680   19.6580  -29.1024 H   0  0  0  0  0  0  0  0  0  0  0  0
   -1.4468   21.8598  -28.6768 H   0  0  0  0  0  0  0  0  0  0  0  0
   -3.1140   23.9260  -31.2290 H   0  0  0  0  0  0  0  0  0  0  0  0
   -4.7359   22.6875  -28.7493 H   0  0  0  0  0  0  0  0  0  0  0  0
   -5.0924   23.5517  -26.4405 H   0  0  0  0  0  0  0  0  0  0  0  0
   -3.5279   25.2343  -25.4757 H   0  0  0  0  0  0  0  0  0  0  0  0
   -0.0335   24.6425  -27.8726 H   0  0  0  0  0  0  0  0  0  0  0  0
    1.7118   24.8801  -27.3723 H   0  0  0  0  0  0  0  0  0  0  0  0
    0.7741   22.4876  -27.2672 H   0  0  0  0  0  0  0  0  0  0  0  0
    1.6326   23.1292  -25.8182 H   0  0  0  0  0  0  0  0  0  0  0  0
   -1.3937   23.0242  -26.2384 H   0  0  0  0  0  0  0  0  0  0  0  0
   -0.4035   21.9682  -25.1445 H   0  0  0  0  0  0  0  0  0  0  0  0
   -1.6913   24.3082  -24.3979 H   0  0  0  0  0  0  0  0  0  0  0  0
   -0.2980   23.5056  -23.5352 H   0  0  0  0  0  0  0  0  0  0  0  0
   -0.1782   26.0652  -24.0569 H   0  0  0  0  0  0  0  0  0  0  0  0
    1.2595   24.9852  -24.3620 H   0  0  0  0  0  0  0  0  0  0  0  0
   -2.8150   21.9570  -34.0050 H   0  0  0  0  0  0  0  0  0  0  0  0
   -8.6011   19.1398  -33.0494 H   0  0  0  0  0  0  0  0  0  0  0  0
  -10.4755   20.6899  -32.4942 H   0  0  0  0  0  0  0  0  0  0  0  0
  -10.0138   22.8463  -31.3207 H   0  0  0  0  0  0  0  0  0  0  0  0
   -7.6707   23.4548  -30.7058 H   0  0  0  0  0  0  0  0  0  0  0  0
   -5.7925   21.9054  -31.2493 H   0  0  0  0  0  0  0  0  0  0  0  0
   -6.6197   17.6778  -30.2865 H   0  0  0  0  0  0  0  0  0  0  0  0
   -7.8587   17.8544  -31.5751 H   0  0  0  0  0  0  0  0  0  0  0  0
   -6.7591   16.4340  -31.5751 H   0  0  0  0  0  0  0  0  0  0  0  0
  1  2  1  0
  2  3  2  0
  3  4  1  0
  4  5  1  0
  5  6  2  0
  5  7  2  0
  5  8  1  0
  8  9  2  0
  9 10  1  0
 10 11  2  0
 11 12  1  0
 12 13  1  0
 13 14  1  0
 14 15  2  0
 15 16  1  0
 16 17  2  0
 17 18  1  0
 18 19  1  0
 19 20  2  0
 19 21  2  0
 19 22  1  0
 22 23  1  0
 23 24  1  0
 24 25  1  0
 25 26  1  0
 26 27  1  0
 18 28  2  0
 28 29  1  0
 12 30  2  0
 30 31  1  0
  3 32  1  0
 32 33  2  0
 32 34  1  0
 34 35  1  0
 35 36  2  0
 36 37  1  0
 37 38  2  0
 38 39  1  0
 39 40  2  0
 34 41  1  0
 41 42  1  0
 41  2  1  0
 30  8  1  0
 40 35  1  0
 28 14  1  0
 27 22  1  0
  1 43  1  0
  1 44  1  0
  1 45  1  0
  9 46  1  0
 10 47  1  0
 11 48  1  0
 13 49  1  0
 15 50  1  0
 16 51  1  0
 17 52  1  0
 23 53  1  0
 23 54  1  0
 24 55  1  0
 24 56  1  0
 25 57  1  0
 25 58  1  0
 26 59  1  0
 26 60  1  0
 27 61  1  0
 27 62  1  0
 31 63  1  0
 36 64  1  0
 37 65  1  0
 38 66  1  0
 39 67  1  0
 40 68  1  0
 42 69  1  0
 42 70  1  0
 42 71  1  0
M  CHG  2   4  -1  29  -1
M  END
>  <UniqueID>  (12) 
11

>  <SMILES>  (12) 
Cc1c([N-]S(=O)(=O)c2cccc(Nc3cccc(S(=O)(=O)N4CCCCC4)c3[O-])c2O)c(=O)n(-c2ccccc2)n1C

>  <Energy>  (12) 
143.35863501377818

>  <Genealogy>  (12) 
Cc1c([N-]S(=O)(=O)c2cccc(Nc3cccc(S(=O)(=O)N4CCCCC4)c3[O-])c2O)c(=O)n(-c2ccccc2)n1C (protonated)
Cc1c([N-]S(=O)(=O)c2cccc(Nc3cccc(S(=O)(=O)N4CCCCC4)c3[O-])c2O)c(=O)n(-c2ccccc2)n1C (3D coordinates assigned)
Cc1c([N-]S(=O)(=O)c2cccc(Nc3cccc(S(=O)(=O)N4CCCCC4)c3[O-])c2O)c(=O)n(-c2ccccc2)n1C (nonaromatic ring conformer: 143.35863501377818 kcal/mol)

>  <smiles>  (12) 
Cc1c(NS(=O)(=O)c2cccc(Nc3cccc(S(=O)(=O)N4CCCCC4)c3O)c2O)c(=O)n(-c2ccccc2)n1C

>  <score_type>  (12) 
oracle

>  <origin>  (12) 
adgpu

>  <m_score__min__energy>  (12) 
-14.9

>  <m_primary>  (12) 
energy

$$$$
12:0
     RDKit          3D

 56 59  0  0  0  0  0  0  0  0999 V2000
   -3.6440   23.6040  -27.2870 O   0  0  0  0  0  0  0  0  0  0  0  0
   -3.7830   22.8750  -28.3060 C   0  0  0  0  0  0  0  0  0  0  0  0
   -3.1850   21.5710  -28.2990 N   0  0  0  0  0  0  0  0  0  0  0  0
   -2.5110   20.9590  -29.4070 C   0  0  0  0  0  0  0  0  0  0  0  0
   -1.1960   20.4770  -29.2890 C   0  0  0  0  0  0  0  0  0  0  0  0
   -0.5540   19.9160  -30.3960 C   0  0  0  0  0  0  0  0  0  0  0  0
   -1.2160   19.8330  -31.6240 C   0  0  0  0  0  0  0  0  0  0  0  0
   -2.5320   20.2990  -31.7460 C   0  0  0  0  0  0  0  0  0  0  0  0
   -3.3580   20.2820  -33.3010 S   0  0  0  0  0  0  0  0  0  0  0  0
   -2.3350   20.3370  -34.4010 O   0  0  0  0  0  0  0  0  0  0  0  0
   -4.2670   21.4760  -33.4170 O   0  0  0  0  0  0  0  0  0  0  0  0
   -4.2790   18.8040  -33.4290 N   0  0  0  0  0  0  0  0  0  0  0  0
   -5.3560   18.9340  -34.4090 C   0  0  0  0  0  0  0  0  0  0  0  0
   -5.6230   17.5390  -34.9530 C   0  0  0  0  0  0  0  0  0  0  0  0
   -4.3980   16.7180  -34.5800 C   0  0  0  0  0  0  0  0  0  0  0  0
   -3.4530   17.6940  -33.9000 C   0  0  0  0  0  0  0  0  0  0  0  0
   -3.1800   20.8450  -30.6310 C   0  0  0  0  0  0  0  0  0  0  0  0
   -4.6080   23.3530  -29.4450 C   0  0  0  0  0  0  0  0  0  0  0  0
   -5.7450   22.6270  -29.8470 C   0  0  0  0  0  0  0  0  0  0  0  0
   -6.5350   23.0630  -30.9180 C   0  0  0  0  0  0  0  0  0  0  0  0
   -7.9280   22.1110  -31.4350 S   0  0  0  0  0  0  0  0  0  0  0  0
   -8.8640   23.0020  -32.2020 O   0  0  0  0  0  0  0  0  0  0  0  0
   -8.6630   21.6130  -30.2220 O   0  0  0  0  0  0  0  0  0  0  0  0
   -7.4780   20.7400  -32.4290 N   0  0  0  0  0  0  0  0  0  0  0  0
   -8.6410   20.1290  -33.0990 C   0  0  0  0  0  0  0  0  0  0  0  0
   -9.4040   19.1280  -32.1970 C   0  0  0  0  0  0  0  0  0  0  0  0
   -8.7070   18.7920  -31.0120 O   0  0  0  0  0  0  0  0  0  0  0  0
   -7.3680   18.4890  -31.3190 C   0  0  0  0  0  0  0  0  0  0  0  0
   -6.6160   19.7660  -31.7210 C   0  0  0  0  0  0  0  0  0  0  0  0
   -6.2010   24.2490  -31.5850 C   0  0  0  0  0  0  0  0  0  0  0  0
   -5.0870   24.9870  -31.1860 C   0  0  0  0  0  0  0  0  0  0  0  0
   -4.2870   24.5450  -30.1270 C   0  0  0  0  0  0  0  0  0  0  0  0
   -3.1690   25.2930  -29.7710 O   0  0  0  0  0  0  0  0  0  0  0  0
   -0.6717   20.5415  -28.3241 H   0  0  0  0  0  0  0  0  0  0  0  0
    0.4749   19.5388  -30.3007 H   0  0  0  0  0  0  0  0  0  0  0  0
   -0.7033   19.4012  -32.4962 H   0  0  0  0  0  0  0  0  0  0  0  0
   -6.2609   19.3325  -33.9271 H   0  0  0  0  0  0  0  0  0  0  0  0
   -5.0748   19.6263  -35.2163 H   0  0  0  0  0  0  0  0  0  0  0  0
   -6.5265   17.1129  -34.4925 H   0  0  0  0  0  0  0  0  0  0  0  0
   -5.7927   17.5495  -36.0398 H   0  0  0  0  0  0  0  0  0  0  0  0
   -4.6737   15.9056  -33.8916 H   0  0  0  0  0  0  0  0  0  0  0  0
   -3.9368   16.2465  -35.4603 H   0  0  0  0  0  0  0  0  0  0  0  0
   -2.9488   17.2078  -33.0518 H   0  0  0  0  0  0  0  0  0  0  0  0
   -2.6720   18.0423  -34.5919 H   0  0  0  0  0  0  0  0  0  0  0  0
   -4.2220   21.1866  -30.7178 H   0  0  0  0  0  0  0  0  0  0  0  0
   -6.0167   21.7047  -29.3127 H   0  0  0  0  0  0  0  0  0  0  0  0
   -9.3337   20.9296  -33.3977 H   0  0  0  0  0  0  0  0  0  0  0  0
   -8.2628   19.5674  -33.9660 H   0  0  0  0  0  0  0  0  0  0  0  0
  -10.3691   19.5761  -31.9182 H   0  0  0  0  0  0  0  0  0  0  0  0
   -9.5266   18.2000  -32.7747 H   0  0  0  0  0  0  0  0  0  0  0  0
   -6.8842   18.0445  -30.4367 H   0  0  0  0  0  0  0  0  0  0  0  0
   -7.3434   17.7779  -32.1579 H   0  0  0  0  0  0  0  0  0  0  0  0
   -6.2208   20.2423  -30.8116 H   0  0  0  0  0  0  0  0  0  0  0  0
   -5.8108   19.4732  -32.4108 H   0  0  0  0  0  0  0  0  0  0  0  0
   -6.8188   24.5988  -32.4252 H   0  0  0  0  0  0  0  0  0  0  0  0
   -4.8358   25.9225  -31.7073 H   0  0  0  0  0  0  0  0  0  0  0  0
  1  2  2  0
  2  3  1  0
  3  4  1  0
  4  5  2  0
  5  6  1  0
  6  7  2  0
  7  8  1  0
  8  9  1  0
  9 10  2  0
  9 11  2  0
  9 12  1  0
 12 13  1  0
 13 14  1  0
 14 15  1  0
 15 16  1  0
  8 17  2  0
  2 18  1  0
 18 19  2  0
 19 20  1  0
 20 21  1  0
 21 22  2  0
 21 23  2  0
 21 24  1  0
 24 25  1  0
 25 26  1  0
 26 27  1  0
 27 28  1  0
 28 29  1  0
 20 30  2  0
 30 31  1  0
 31 32  2  0
 32 33  1  0
 17  4  1  0
 32 18  1  0
 16 12  1  0
 29 24  1  0
  5 34  1  0
  6 35  1  0
  7 36  1  0
 13 37  1  0
 13 38  1  0
 14 39  1  0
 14 40  1  0
 15 41  1  0
 15 42  1  0
 16 43  1  0
 16 44  1  0
 17 45  1  0
 19 46  1  0
 25 47  1  0
 25 48  1  0
 26 49  1  0
 26 50  1  0
 28 51  1  0
 28 52  1  0
 29 53  1  0
 29 54  1  0
 30 55  1  0
 31 56  1  0
M  CHG  2   3  -1  33  -1
M  END
>  <UniqueID>  (13) 
12

>  <SMILES>  (13) 
O=C([N-]c1cccc(S(=O)(=O)N2CCCC2)c1)c1cc(S(=O)(=O)N2CCOCC2)ccc1[O-]

>  <Energy>  (13) 
74.99887670432499

>  <Genealogy>  (13) 
O=C([N-]c1cccc(S(=O)(=O)N2CCCC2)c1)c1cc(S(=O)(=O)N2CCOCC2)ccc1[O-] (protonated)
O=C([N-]c1cccc(S(=O)(=O)N2CCCC2)c1)c1cc(S(=O)(=O)N2CCOCC2)ccc1[O-] (3D coordinates assigned)
O=C([N-]c1cccc(S(=O)(=O)N2CCCC2)c1)c1cc(S(=O)(=O)N2CCOCC2)ccc1[O-] (nonaromatic ring conformer: 74.99887670432499 kcal/mol)

>  <smiles>  (13) 
O=C(Nc1cccc(S(=O)(=O)N2CCCC2)c1)c1cc(S(=O)(=O)N2CCOCC2)ccc1O

>  <score_type>  (13) 
oracle

>  <origin>  (13) 
adgpu

>  <m_score__min__energy>  (13) 
-14.960000000000001

>  <m_primary>  (13) 
energy

$$$$
13:0
     RDKit          3D

 49 53  0  0  0  0  0  0  0  0999 V2000
   -0.4140   20.4000  -27.1320 C   0  0  0  0  0  0  0  0  0  0  0  0
   -1.4140   21.2720  -27.8300 C   0  0  0  0  0  0  0  0  0  0  0  0
   -3.0000   20.7890  -28.1830 S   0  0  0  0  0  0  0  0  0  0  0  0
   -3.4400   22.2620  -28.8640 C   0  0  0  0  0  0  0  0  0  0  0  0
   -4.6480   22.5840  -29.3870 N   0  0  0  0  0  0  0  0  0  0  0  0
   -4.8310   23.8380  -29.9060 C   0  0  0  0  0  0  0  0  0  0  0  0
   -6.1370   24.2240  -30.5350 C   0  0  0  0  0  0  0  0  0  0  0  0
   -6.0600   23.9110  -32.3360 S   0  0  0  0  0  0  0  0  0  0  0  0
   -4.9890   22.4650  -32.2260 C   0  0  0  0  0  0  0  0  0  0  0  0
   -3.6500   22.6780  -32.1960 N   0  0  0  0  0  0  0  0  0  0  0  0
   -2.7650   21.6550  -32.1210 C   0  0  0  0  0  0  0  0  0  0  0  0
   -1.3900   21.9180  -32.0770 C   0  0  0  0  0  0  0  0  0  0  0  0
   -0.4770   20.8610  -31.9940 C   0  0  0  0  0  0  0  0  0  0  0  0
   -0.9340   19.5400  -31.9620 C   0  0  0  0  0  0  0  0  0  0  0  0
   -2.3060   19.2690  -32.0010 C   0  0  0  0  0  0  0  0  0  0  0  0
   -3.2340   20.3280  -32.0780 C   0  0  0  0  0  0  0  0  0  0  0  0
   -4.6230   20.1150  -32.0990 C   0  0  0  0  0  0  0  0  0  0  0  0
   -5.0760   18.9360  -32.0330 O   0  0  0  0  0  0  0  0  0  0  0  0
   -5.4870   21.1840  -32.1710 N   0  0  0  0  0  0  0  0  0  0  0  0
   -6.9140   20.9500  -32.1510 C   0  0  0  0  0  0  0  0  0  0  0  0
   -7.5070   20.0900  -33.0950 C   0  0  0  0  0  0  0  0  0  0  0  0
   -8.8860   19.8450  -33.0590 C   0  0  0  0  0  0  0  0  0  0  0  0
   -9.6830   20.4590  -32.0820 C   0  0  0  0  0  0  0  0  0  0  0  0
   -9.0980   21.3050  -31.1320 C   0  0  0  0  0  0  0  0  0  0  0  0
   -7.7180   21.5470  -31.1620 C   0  0  0  0  0  0  0  0  0  0  0  0
   -3.8060   24.7460  -29.8790 N   0  0  0  0  0  0  0  0  0  0  0  0
   -2.5870   24.4380  -29.3500 C   0  0  0  0  0  0  0  0  0  0  0  0
   -1.6750   25.3100  -29.3420 O   0  0  0  0  0  0  0  0  0  0  0  0
   -2.3810   23.1520  -28.8280 C   0  0  0  0  0  0  0  0  0  0  0  0
   -1.2190   22.6050  -28.2380 C   0  0  0  0  0  0  0  0  0  0  0  0
    0.0540   23.3800  -28.0220 C   0  0  0  0  0  0  0  0  0  0  0  0
   -0.5334   20.5041  -26.0435 H   0  0  0  0  0  0  0  0  0  0  0  0
   -0.5777   19.3511  -27.4202 H   0  0  0  0  0  0  0  0  0  0  0  0
    0.6028   20.7050  -27.4202 H   0  0  0  0  0  0  0  0  0  0  0  0
   -5.4190   21.8750  -29.3990 H   0  0  0  0  0  0  0  0  0  0  0  0
   -6.9480   23.6266  -30.0930 H   0  0  0  0  0  0  0  0  0  0  0  0
   -6.3298   25.2920  -30.3556 H   0  0  0  0  0  0  0  0  0  0  0  0
   -1.0277   22.9562  -32.1077 H   0  0  0  0  0  0  0  0  0  0  0  0
    0.6023   21.0697  -31.9538 H   0  0  0  0  0  0  0  0  0  0  0  0
   -0.2127   18.7114  -31.9060 H   0  0  0  0  0  0  0  0  0  0  0  0
   -2.6613   18.2284  -31.9716 H   0  0  0  0  0  0  0  0  0  0  0  0
   -6.8850   19.6085  -33.8640 H   0  0  0  0  0  0  0  0  0  0  0  0
   -9.3439   19.1706  -33.7976 H   0  0  0  0  0  0  0  0  0  0  0  0
  -10.7675   20.2760  -32.0620 H   0  0  0  0  0  0  0  0  0  0  0  0
   -9.7224   21.7803  -30.3611 H   0  0  0  0  0  0  0  0  0  0  0  0
   -7.2612   22.2064  -30.4093 H   0  0  0  0  0  0  0  0  0  0  0  0
    0.2369   23.4913  -26.9430 H   0  0  0  0  0  0  0  0  0  0  0  0
    0.8945   22.8402  -28.4826 H   0  0  0  0  0  0  0  0  0  0  0  0
   -0.0396   24.3745  -28.4826 H   0  0  0  0  0  0  0  0  0  0  0  0
  1  2  1  0
  2  3  1  0
  3  4  1  0
  4  5  1  0
  5  6  1  0
  6  7  1  0
  7  8  1  0
  8  9  1  0
  9 10  2  0
 10 11  1  0
 11 12  2  0
 12 13  1  0
 13 14  2  0
 14 15  1  0
 15 16  2  0
 16 17  1  0
 17 18  2  0
 17 19  1  0
 19 20  1  0
 20 21  2  0
 21 22  1  0
 22 23  2  0
 23 24  1  0
 24 25  2  0
  6 26  2  0
 26 27  1  0
 27 28  2  0
 27 29  1  0
 29 30  1  0
 30 31  1  0
 30  2  2  0
 29  4  2  0
 19  9  1  0
 25 20  1  0
 16 11  1  0
  1 32  1  0
  1 33  1  0
  1 34  1  0
  5 35  1  0
  7 36  1  0
  7 37  1  0
 12 38  1  0
 13 39  1  0
 14 40  1  0
 15 41  1  0
 21 42  1  0
 22 43  1  0
 23 44  1  0
 24 45  1  0
 25 46  1  0
 31 47  1  0
 31 48  1  0
 31 49  1  0
M  END
>  <UniqueID>  (14) 
13

>  <SMILES>  (14) 
Cc1sc2[nH]c(CSc3nc4ccccc4c(=O)n3-c3ccccc3)nc(=O)c2c1C

>  <Energy>  (14) 
95.94085605866881

>  <Genealogy>  (14) 
Cc1sc2[nH]c(CSc3nc4ccccc4c(=O)n3-c3ccccc3)nc(=O)c2c1C (3D coordinates assigned)
Cc1sc2[nH]c(CSc3nc4ccccc4c(=O)n3-c3ccccc3)nc(=O)c2c1C (optimized conformer: 95.94085605866881 kcal/mol)

>  <smiles>  (14) 
Cc1sc2[nH]c(CSc3nc4ccccc4c(=O)n3-c3ccccc3)nc(=O)c2c1C

>  <score_type>  (14) 
oracle

>  <origin>  (14) 
adgpu

>  <m_score__min__energy>  (14) 
-10.44

>  <m_primary>  (14) 
energy

$$$$
14:0
     RDKit          3D

 30 31  0  0  0  0  0  0  0  0999 V2000
   -9.0020   20.0590  -32.3300 C   0  0  0  0  0  0  0  0  0  0  0  0
   -8.8930   21.4450  -31.7050 C   0  0  0  0  0  0  0  0  0  0  0  0
   -7.6140   21.6110  -31.0160 N   0  0  0  0  0  0  0  0  0  0  0  0
   -6.9630   22.8860  -30.9710 C   0  0  0  0  0  0  0  0  0  0  0  0
   -7.5960   24.0520  -30.7190 N   0  0  0  0  0  0  0  0  0  0  0  0
   -6.6590   24.9580  -30.6980 O   0  0  0  0  0  0  0  0  0  0  0  0
   -5.4770   24.4640  -30.9180 N   0  0  0  0  0  0  0  0  0  0  0  0
   -4.3150   25.2040  -30.8830 O   0  0  0  0  0  0  0  0  0  0  0  0
   -5.6120   23.1380  -31.1080 C   0  0  0  0  0  0  0  0  0  0  0  0
   -4.3070   21.9950  -31.4250 S   0  0  0  0  0  0  0  0  0  0  0  0
   -3.3140   22.5860  -32.3860 O   0  0  0  0  0  0  0  0  0  0  0  0
   -3.5730   21.6880  -30.1500 O   0  0  0  0  0  0  0  0  0  0  0  0
   -4.9850   20.5210  -32.1060 C   0  0  0  0  0  0  0  0  0  0  0  0
   -5.2690   20.4500  -33.4770 C   0  0  0  0  0  0  0  0  0  0  0  0
   -5.8260   19.2870  -34.0200 C   0  0  0  0  0  0  0  0  0  0  0  0
   -6.1050   18.1920  -33.1960 C   0  0  0  0  0  0  0  0  0  0  0  0
   -6.8030   16.7350  -33.8780 Cl  0  0  0  0  0  0  0  0  0  0  0  0
   -5.8270   18.2620  -31.8260 C   0  0  0  0  0  0  0  0  0  0  0  0
   -5.2720   19.4240  -31.2820 C   0  0  0  0  0  0  0  0  0  0  0  0
   -9.0616   19.3017  -31.5344 H   0  0  0  0  0  0  0  0  0  0  0  0
   -9.9069   20.0080  -32.9533 H   0  0  0  0  0  0  0  0  0  0  0  0
   -8.1162   19.8671  -32.9533 H   0  0  0  0  0  0  0  0  0  0  0  0
   -8.9760   22.2040  -32.4968 H   0  0  0  0  0  0  0  0  0  0  0  0
   -9.7039   21.5628  -30.9711 H   0  0  0  0  0  0  0  0  0  0  0  0
   -7.1840   20.7970  -30.5250 H   0  0  0  0  0  0  0  0  0  0  0  0
   -3.4870   24.9190  -31.3870 H   0  0  0  0  0  0  0  0  0  0  0  0
   -5.0534   21.3106  -34.1273 H   0  0  0  0  0  0  0  0  0  0  0  0
   -6.0448   19.2339  -35.0967 H   0  0  0  0  0  0  0  0  0  0  0  0
   -6.0455   17.4015  -31.1765 H   0  0  0  0  0  0  0  0  0  0  0  0
   -5.0599   19.4776  -30.2040 H   0  0  0  0  0  0  0  0  0  0  0  0
  1  2  1  0
  2  3  1  0
  3  4  1  0
  4  5  2  0
  5  6  1  0
  6  7  1  0
  7  8  1  0
  7  9  2  0
  9 10  1  0
 10 11  2  0
 10 12  2  0
 10 13  1  0
 13 14  2  0
 14 15  1  0
 15 16  2  0
 16 17  1  0
 16 18  1  0
 18 19  2  0
  9  4  1  0
 19 13  1  0
  1 20  1  0
  1 21  1  0
  1 22  1  0
  2 23  1  0
  2 24  1  0
  3 25  1  0
  8 26  1  0
 14 27  1  0
 15 28  1  0
 18 29  1  0
 19 30  1  0
M  CHG  1   7   1
M  END
>  <UniqueID>  (15) 
14

>  <SMILES>  (15) 
CCNc1no[n+](O)c1S(=O)(=O)c1ccc(Cl)cc1

>  <Energy>  (15) 
66.1361528960287

>  <Genealogy>  (15) 
CCNc1no[n+](O)c1S(=O)(=O)c1ccc(Cl)cc1 (protonated)
CCNc1no[n+](O)c1S(=O)(=O)c1ccc(Cl)cc1 (3D coordinates assigned)
CCNc1no[n+](O)c1S(=O)(=O)c1ccc(Cl)cc1 (optimized conformer: 66.1361528960287 kcal/mol)

>  <smiles>  (15) 
CCNc1no[n+]([O-])c1S(=O)(=O)c1ccc(Cl)cc1

>  <score_type>  (15) 
oracle

>  <origin>  (15) 
adgpu

>  <m_score__min__energy>  (15) 
-6.9100000000000001

>  <m_primary>  (15) 
energy

$$$$
15:0
     RDKit          3D

 68 71  0  0  0  0  0  0  0  0999 V2000
   -9.7640   21.4470  -31.5710 C   0  0  0  0  0  0  0  0  0  0  0  0
   -8.7510   22.9050  -31.9780 S   0  0  0  0  0  0  0  0  0  0  0  0
   -7.2180   21.9690  -32.0480 C   0  0  0  0  0  0  0  0  0  0  0  0
   -7.1970   20.8200  -32.7700 N   0  0  0  0  0  0  0  0  0  0  0  0
   -6.0870   20.0430  -32.8230 C   0  0  0  0  0  0  0  0  0  0  0  0
   -6.0950   18.8310  -33.5910 C   0  0  0  0  0  0  0  0  0  0  0  0
   -6.1020   17.8510  -34.2090 N   0  0  0  0  0  0  0  0  0  0  0  0
   -4.9710   20.4070  -32.1420 N   0  0  0  0  0  0  0  0  0  0  0  0
   -4.9240   21.5490  -31.4040 C   0  0  0  0  0  0  0  0  0  0  0  0
   -3.6950   21.8990  -30.7320 N   0  0  0  0  0  0  0  0  0  0  0  0
   -2.5140   22.3190  -31.5070 C   0  0  0  0  0  0  0  0  0  0  0  0
   -1.2060   21.8680  -30.8320 C   0  0  0  0  0  0  0  0  0  0  0  0
   -1.3680   20.4490  -30.2550 C   0  0  0  0  0  0  0  0  0  0  0  0
   -0.0400   19.9390  -29.6820 C   0  0  0  0  0  0  0  0  0  0  0  0
   -2.4990   20.3870  -29.1910 C   0  0  0  0  0  0  0  0  0  0  0  0
   -3.5120   21.5370  -29.3210 C   0  0  0  0  0  0  0  0  0  0  0  0
   -6.0660   22.3740  -31.3440 C   0  0  0  0  0  0  0  0  0  0  0  0
   -6.0730   23.5510  -30.5280 N   0  0  0  0  0  0  0  0  0  0  0  0
   -4.8880   24.1840  -30.0360 C   0  0  0  0  0  0  0  0  0  0  0  0
   -4.1660   24.8360  -30.8350 O   0  0  0  0  0  0  0  0  0  0  0  0
   -4.5620   24.1330  -28.6370 N   0  0  0  0  0  0  0  0  0  0  0  0
   -3.2880   24.5050  -28.0890 C   0  0  0  0  0  0  0  0  0  0  0  0
   -2.1590   24.6860  -28.9090 C   0  0  0  0  0  0  0  0  0  0  0  0
   -0.9270   25.0320  -28.3460 C   0  0  0  0  0  0  0  0  0  0  0  0
   -0.8040   25.1930  -26.9590 C   0  0  0  0  0  0  0  0  0  0  0  0
    0.7380   25.6820  -26.2500 S   0  0  0  0  0  0  0  0  0  0  0  0
    1.7960   25.6820  -27.3170 O   0  0  0  0  0  0  0  0  0  0  0  0
    1.1380   24.6830  -25.2000 O   0  0  0  0  0  0  0  0  0  0  0  0
    0.6340   27.2730  -25.5300 N   0  0  0  0  0  0  0  0  0  0  0  0
   -0.7560   27.7730  -25.5950 C   0  0  0  0  0  0  0  0  0  0  0  0
   -0.8070   29.2930  -25.3810 C   0  0  0  0  0  0  0  0  0  0  0  0
   -0.0210   30.0370  -26.3990 N   0  0  0  0  0  0  0  0  0  0  0  0
   -0.8980   30.6840  -27.3870 C   0  0  0  0  0  0  0  0  0  0  0  0
    1.0000   29.2110  -27.0820 C   0  0  0  0  0  0  0  0  0  0  0  0
    1.6330   28.2000  -26.1140 C   0  0  0  0  0  0  0  0  0  0  0  0
   -1.9180   24.9780  -26.1390 C   0  0  0  0  0  0  0  0  0  0  0  0
   -3.1490   24.6330  -26.6990 C   0  0  0  0  0  0  0  0  0  0  0  0
   -9.8357   21.3438  -30.4782 H   0  0  0  0  0  0  0  0  0  0  0  0
  -10.7716   21.5708  -31.9945 H   0  0  0  0  0  0  0  0  0  0  0  0
   -9.2964   20.5459  -31.9945 H   0  0  0  0  0  0  0  0  0  0  0  0
   -2.5693   21.8746  -32.5117 H   0  0  0  0  0  0  0  0  0  0  0  0
   -2.5117   23.4175  -31.5641 H   0  0  0  0  0  0  0  0  0  0  0  0
   -0.3948   21.8679  -31.5749 H   0  0  0  0  0  0  0  0  0  0  0  0
   -0.9655   22.5631  -30.0141 H   0  0  0  0  0  0  0  0  0  0  0  0
   -1.6622   19.7855  -31.0816 H   0  0  0  0  0  0  0  0  0  0  0  0
   -0.0842   19.9560  -28.5830 H   0  0  0  0  0  0  0  0  0  0  0  0
    0.1364   18.9092  -30.0260 H   0  0  0  0  0  0  0  0  0  0  0  0
    0.7804   20.5860  -30.0260 H   0  0  0  0  0  0  0  0  0  0  0  0
   -3.0352   19.4333  -29.3050 H   0  0  0  0  0  0  0  0  0  0  0  0
   -2.0251   20.4769  -28.2024 H   0  0  0  0  0  0  0  0  0  0  0  0
   -4.4773   21.2194  -28.8999 H   0  0  0  0  0  0  0  0  0  0  0  0
   -3.1314   22.4121  -28.7740 H   0  0  0  0  0  0  0  0  0  0  0  0
   -5.3300   23.9030  -27.9680 H   0  0  0  0  0  0  0  0  0  0  0  0
   -2.2461   24.5547  -29.9977 H   0  0  0  0  0  0  0  0  0  0  0  0
   -0.0504   25.1785  -28.9942 H   0  0  0  0  0  0  0  0  0  0  0  0
   -1.1777   27.5348  -26.5826 H   0  0  0  0  0  0  0  0  0  0  0  0
   -1.3395   27.2881  -24.7985 H   0  0  0  0  0  0  0  0  0  0  0  0
   -1.8553   29.6220  -25.4349 H   0  0  0  0  0  0  0  0  0  0  0  0
   -0.3664   29.5071  -24.3961 H   0  0  0  0  0  0  0  0  0  0  0  0
   -1.6771   31.2588  -26.8649 H   0  0  0  0  0  0  0  0  0  0  0  0
   -0.3031   31.3613  -28.0174 H   0  0  0  0  0  0  0  0  0  0  0  0
   -1.3695   29.9158  -28.0174 H   0  0  0  0  0  0  0  0  0  0  0  0
    0.5249   28.6656  -27.9108 H   0  0  0  0  0  0  0  0  0  0  0  0
    1.7913   29.8756  -27.4591 H   0  0  0  0  0  0  0  0  0  0  0  0
    2.3843   27.6108  -26.6604 H   0  0  0  0  0  0  0  0  0  0  0  0
    2.0871   28.7667  -25.2878 H   0  0  0  0  0  0  0  0  0  0  0  0
   -1.8227   25.0815  -25.0480 H   0  0  0  0  0  0  0  0  0  0  0  0
   -4.0167   24.4602  -26.0454 H   0  0  0  0  0  0  0  0  0  0  0  0
  1  2  1  0
  2  3  1  0
  3  4  2  0
  4  5  1  0
  5  6  1  0
  6  7  3  0
  5  8  2  0
  8  9  1  0
  9 10  1  0
 10 11  1  0
 11 12  1  0
 12 13  1  0
 13 14  1  0
 13 15  1  0
 15 16  1  0
  9 17  2  0
 17 18  1  0
 18 19  1  0
 19 20  2  0
 19 21  1  0
 21 22  1  0
 22 23  2  0
 23 24  1  0
 24 25  2  0
 25 26  1  0
 26 27  2  0
 26 28  2  0
 26 29  1  0
 29 30  1  0
 30 31  1  0
 31 32  1  0
 32 33  1  0
 32 34  1  0
 34 35  1  0
 25 36  1  0
 36 37  2  0
 17  3  1  0
 37 22  1  0
 16 10  1  0
 35 29  1  0
  1 38  1  0
  1 39  1  0
  1 40  1  0
 11 41  1  0
 11 42  1  0
 12 43  1  0
 12 44  1  0
 13 45  1  0
 14 46  1  0
 14 47  1  0
 14 48  1  0
 15 49  1  0
 15 50  1  0
 16 51  1  0
 16 52  1  0
 21 53  1  0
 23 54  1  0
 24 55  1  0
 30 56  1  0
 30 57  1  0
 31 58  1  0
 31 59  1  0
 33 60  1  0
 33 61  1  0
 33 62  1  0
 34 63  1  0
 34 64  1  0
 35 65  1  0
 35 66  1  0
 36 67  1  0
 37 68  1  0
M  CHG  1  18  -1
M  END
>  <UniqueID>  (16) 
15

>  <SMILES>  (16) 
CSc1nc(C#N)nc(N2CCC(C)CC2)c1[N-]C(=O)Nc1ccc(S(=O)(=O)N2CCN(C)CC2)cc1

>  <Energy>  (16) 
88.04441423951151

>  <Genealogy>  (16) 
CSc1nc(C#N)nc(N2CCC(C)CC2)c1[N-]C(=O)Nc1ccc(S(=O)(=O)N2CCN(C)CC2)cc1 (protonated)
CSc1nc(C#N)nc(N2CCC(C)CC2)c1[N-]C(=O)Nc1ccc(S(=O)(=O)N2CCN(C)CC2)cc1 (3D coordinates assigned)
CSc1nc(C#N)nc(N2CCC(C)CC2)c1[N-]C(=O)Nc1ccc(S(=O)(=O)N2CCN(C)CC2)cc1 (nonaromatic ring conformer: 88.04441423951151 kcal/mol)

>  <smiles>  (16) 
CSc1nc(C#N)nc(N2CCC(C)CC2)c1NC(=O)Nc1ccc(S(=O)(=O)N2CCN(C)CC2)cc1

>  <score_type>  (16) 
oracle

>  <origin>  (16) 
adgpu

>  <m_score__min__energy>  (16) 
-10.74

>  <m_primary>  (16) 
energy

$$$$
16:0
     RDKit          3D

 59 62  0  0  0  0  0  0  0  0999 V2000
    3.9600   20.4200  -34.7540 C   0  0  0  0  0  0  0  0  0  0  0  0
    2.6260   20.8840  -34.9370 O   0  0  0  0  0  0  0  0  0  0  0  0
    1.5090   20.4020  -34.2330 C   0  0  0  0  0  0  0  0  0  0  0  0
    1.6410   19.7020  -33.0190 C   0  0  0  0  0  0  0  0  0  0  0  0
    0.5120   19.2490  -32.3170 C   0  0  0  0  0  0  0  0  0  0  0  0
    0.7160   18.4980  -31.0250 C   0  0  0  0  0  0  0  0  0  0  0  0
   -0.7800   19.5040  -32.8390 C   0  0  0  0  0  0  0  0  0  0  0  0
   -2.0480   19.1320  -32.1030 C   0  0  0  0  0  0  0  0  0  0  0  0
   -2.8890   20.3210  -31.8790 N   0  0  0  0  0  0  0  0  0  0  0  0
   -2.7490   21.1230  -30.6860 C   0  0  0  0  0  0  0  0  0  0  0  0
   -2.4480   20.5200  -29.4560 C   0  0  0  0  0  0  0  0  0  0  0  0
   -2.3020   21.2910  -28.3050 C   0  0  0  0  0  0  0  0  0  0  0  0
   -2.4650   22.6790  -28.3480 C   0  0  0  0  0  0  0  0  0  0  0  0
   -2.3740   23.3800  -27.1440 O   0  0  0  0  0  0  0  0  0  0  0  0
   -2.7510   23.3110  -29.5840 C   0  0  0  0  0  0  0  0  0  0  0  0
   -2.8570   24.7810  -29.7220 C   0  0  0  0  0  0  0  0  0  0  0  0
   -3.7120   25.2980  -30.4870 O   0  0  0  0  0  0  0  0  0  0  0  0
   -2.0530   25.6110  -28.9500 O   0  0  0  0  0  0  0  0  0  0  0  0
   -2.9180   22.5190  -30.7340 C   0  0  0  0  0  0  0  0  0  0  0  0
   -4.0350   20.8010  -33.1050 S   0  0  0  0  0  0  0  0  0  0  0  0
   -3.5000   22.0030  -33.8350 O   0  0  0  0  0  0  0  0  0  0  0  0
   -4.1790   19.6700  -34.0850 O   0  0  0  0  0  0  0  0  0  0  0  0
   -5.6240   21.2030  -32.4170 C   0  0  0  0  0  0  0  0  0  0  0  0
   -5.8620   22.5170  -31.9850 C   0  0  0  0  0  0  0  0  0  0  0  0
   -7.0630   22.8660  -31.3700 C   0  0  0  0  0  0  0  0  0  0  0  0
   -8.0610   21.9140  -31.1880 C   0  0  0  0  0  0  0  0  0  0  0  0
   -7.8740   20.6020  -31.6400 C   0  0  0  0  0  0  0  0  0  0  0  0
   -8.8960   19.6540  -31.4710 C   0  0  0  0  0  0  0  0  0  0  0  0
   -8.7290   18.3500  -31.9330 C   0  0  0  0  0  0  0  0  0  0  0  0
   -7.5460   17.9790  -32.5710 C   0  0  0  0  0  0  0  0  0  0  0  0
   -6.5170   18.9080  -32.7450 C   0  0  0  0  0  0  0  0  0  0  0  0
   -6.6540   20.2320  -32.2720 C   0  0  0  0  0  0  0  0  0  0  0  0
   -0.9020   20.1820  -34.0620 C   0  0  0  0  0  0  0  0  0  0  0  0
    0.2280   20.6270  -34.7600 C   0  0  0  0  0  0  0  0  0  0  0  0
    0.0640   21.3840  -36.0500 C   0  0  0  0  0  0  0  0  0  0  0  0
    4.1776   20.3443  -33.6784 H   0  0  0  0  0  0  0  0  0  0  0  0
    4.0713   19.4304  -35.2211 H   0  0  0  0  0  0  0  0  0  0  0  0
    4.6614   21.1269  -35.2211 H   0  0  0  0  0  0  0  0  0  0  0  0
    2.6447   19.5066  -32.6135 H   0  0  0  0  0  0  0  0  0  0  0  0
    0.5327   19.1727  -30.1758 H   0  0  0  0  0  0  0  0  0  0  0  0
    0.0153   17.6513  -30.9785 H   0  0  0  0  0  0  0  0  0  0  0  0
    1.7488   18.1222  -30.9785 H   0  0  0  0  0  0  0  0  0  0  0  0
   -2.6104   18.3994  -32.7005 H   0  0  0  0  0  0  0  0  0  0  0  0
   -1.7771   18.7020  -31.1275 H   0  0  0  0  0  0  0  0  0  0  0  0
   -2.3261   19.4282  -29.3997 H   0  0  0  0  0  0  0  0  0  0  0  0
   -2.0556   20.8020  -27.3510 H   0  0  0  0  0  0  0  0  0  0  0  0
   -2.2490   24.3810  -27.0880 H   0  0  0  0  0  0  0  0  0  0  0  0
   -3.1852   22.9989  -31.6870 H   0  0  0  0  0  0  0  0  0  0  0  0
   -5.0878   23.2841  -32.1343 H   0  0  0  0  0  0  0  0  0  0  0  0
   -7.2225   23.8989  -31.0269 H   0  0  0  0  0  0  0  0  0  0  0  0
   -9.0000   22.1928  -30.6874 H   0  0  0  0  0  0  0  0  0  0  0  0
   -9.8328   19.9421  -30.9716 H   0  0  0  0  0  0  0  0  0  0  0  0
   -9.5324   17.6116  -31.7941 H   0  0  0  0  0  0  0  0  0  0  0  0
   -7.4222   16.9498  -32.9391 H   0  0  0  0  0  0  0  0  0  0  0  0
   -5.5908   18.6053  -33.2555 H   0  0  0  0  0  0  0  0  0  0  0  0
   -1.9026   20.3671  -34.4797 H   0  0  0  0  0  0  0  0  0  0  0  0
   -0.1642   22.4374  -35.8305 H   0  0  0  0  0  0  0  0  0  0  0  0
    0.9959   21.3242  -36.6313 H   0  0  0  0  0  0  0  0  0  0  0  0
   -0.7596   20.9438  -36.6313 H   0  0  0  0  0  0  0  0  0  0  0  0
  1  2  1  0
  2  3  1  0
  3  4  2  0
  4  5  1  0
  5  6  1  0
  5  7  2  0
  7  8  1  0
  8  9  1  0
  9 10  1  0
 10 11  2  0
 11 12  1  0
 12 13  2  0
 13 14  1  0
 13 15  1  0
 15 16  1  0
 16 17  2  0
 16 18  1  0
 15 19  2  0
  9 20  1  0
 20 21  2  0
 20 22  2  0
 20 23  1  0
 23 24  2  0
 24 25  1  0
 25 26  2  0
 26 27  1  0
 27 28  2  0
 28 29  1  0
 29 30  2  0
 30 31  1  0
 31 32  2  0
  7 33  1  0
 33 34  2  0
 34 35  1  0
 34  3  1  0
 19 10  1  0
 32 23  1  0
 32 27  1  0
  1 36  1  0
  1 37  1  0
  1 38  1  0
  4 39  1  0
  6 40  1  0
  6 41  1  0
  6 42  1  0
  8 43  1  0
  8 44  1  0
 11 45  1  0
 12 46  1  0
 14 47  1  0
 19 48  1  0
 24 49  1  0
 25 50  1  0
 26 51  1  0
 28 52  1  0
 29 53  1  0
 30 54  1  0
 31 55  1  0
 33 56  1  0
 35 57  1  0
 35 58  1  0
 35 59  1  0
M  CHG  1  18  -1
M  END
>  <UniqueID>  (17) 
16

>  <SMILES>  (17) 
COc1cc(C)c(CN(c2ccc(O)c(C(=O)[O-])c2)S(=O)(=O)c2cccc3ccccc23)cc1C

>  <Energy>  (17) 
78.52653421233124

>  <Genealogy>  (17) 
COc1cc(C)c(CN(c2ccc(O)c(C(=O)[O-])c2)S(=O)(=O)c2cccc3ccccc23)cc1C (protonated)
COc1cc(C)c(CN(c2ccc(O)c(C(=O)[O-])c2)S(=O)(=O)c2cccc3ccccc23)cc1C (3D coordinates assigned)
COc1cc(C)c(CN(c2ccc(O)c(C(=O)[O-])c2)S(=O)(=O)c2cccc3ccccc23)cc1C (optimized conformer: 78.52653421233124 kcal/mol)

>  <smiles>  (17) 
COc1cc(C)c(CN(c2ccc(O)c(C(=O)O)c2)S(=O)(=O)c2cccc3ccccc23)cc1C

>  <score_type>  (17) 
oracle

>  <origin>  (17) 
adgpu

>  <m_score__min__energy>  (17) 
-11.74

>  <m_primary>  (17) 
energy

$$$$
17:0
     RDKit          3D

 47 50  0  0  0  0  0  0  0  0999 V2000
    0.1429   25.8279  -27.6659 H   0  0  0  0  0  0  0  0  0  0  0  0
   -0.7400   25.2440  -27.9650 C   0  0  0  0  0  0  0  0  0  0  0  0
   -1.5650   25.6350  -28.9730 N   0  0  0  0  0  0  0  0  0  0  0  0
   -2.5770   24.7620  -29.1550 C   0  0  0  0  0  0  0  0  0  0  0  0
   -3.4830   24.9320  -30.0700 N   0  0  0  0  0  0  0  0  0  0  0  0
   -4.8090   23.8480  -30.3460 S   0  0  0  0  0  0  0  0  0  0  0  0
   -5.9420   24.6000  -30.9890 O   0  0  0  0  0  0  0  0  0  0  0  0
   -5.2810   23.2960  -29.0300 O   0  0  0  0  0  0  0  0  0  0  0  0
   -4.2790   22.5150  -31.3670 C   0  0  0  0  0  0  0  0  0  0  0  0
   -4.6870   22.4270  -32.7050 C   0  0  0  0  0  0  0  0  0  0  0  0
   -5.3901   23.1676  -33.1139 H   0  0  0  0  0  0  0  0  0  0  0  0
   -4.2030   21.4010  -33.5210 C   0  0  0  0  0  0  0  0  0  0  0  0
   -4.5341   21.3329  -34.5678 H   0  0  0  0  0  0  0  0  0  0  0  0
   -3.3000   20.4600  -33.0150 C   0  0  0  0  0  0  0  0  0  0  0  0
   -2.8080   19.4640  -33.8720 O   0  0  0  0  0  0  0  0  0  0  0  0
   -2.9840   18.0850  -33.6850 C   0  0  0  0  0  0  0  0  0  0  0  0
   -1.8530   17.2600  -33.7210 C   0  0  0  0  0  0  0  0  0  0  0  0
   -0.8589   17.7042  -33.8776 H   0  0  0  0  0  0  0  0  0  0  0  0
   -1.9760   15.8800  -33.5600 C   0  0  0  0  0  0  0  0  0  0  0  0
   -1.0827   15.2395  -33.6025 H   0  0  0  0  0  0  0  0  0  0  0  0
   -3.2320   15.3120  -33.3450 C   0  0  0  0  0  0  0  0  0  0  0  0
   -3.3285   14.2227  -33.2264 H   0  0  0  0  0  0  0  0  0  0  0  0
   -4.3670   16.1230  -33.2800 C   0  0  0  0  0  0  0  0  0  0  0  0
   -5.3543   15.6691  -33.1090 H   0  0  0  0  0  0  0  0  0  0  0  0
   -4.2550   17.5180  -33.4320 C   0  0  0  0  0  0  0  0  0  0  0  0
   -5.3940   18.3810  -33.2890 N   0  0  0  0  0  0  0  0  0  0  0  0
   -6.7270   18.1280  -32.2100 S   0  0  0  0  0  0  0  0  0  0  0  0
   -6.2010   17.6630  -30.8820 O   0  0  0  0  0  0  0  0  0  0  0  0
   -7.6230   17.0670  -32.7800 O   0  0  0  0  0  0  0  0  0  0  0  0
   -7.6470   19.6170  -32.0320 C   0  0  0  0  0  0  0  0  0  0  0  0
   -8.9680   19.6960  -32.4970 C   0  0  0  0  0  0  0  0  0  0  0  0
   -9.4295   18.8280  -32.9905 H   0  0  0  0  0  0  0  0  0  0  0  0
   -9.6990   20.8770  -32.3340 C   0  0  0  0  0  0  0  0  0  0  0  0
  -10.7359   20.9356  -32.6966 H   0  0  0  0  0  0  0  0  0  0  0  0
   -9.1140   21.9830  -31.7110 C   0  0  0  0  0  0  0  0  0  0  0  0
   -9.6916   22.9099  -31.5801 H   0  0  0  0  0  0  0  0  0  0  0  0
   -7.7940   21.9110  -31.2540 C   0  0  0  0  0  0  0  0  0  0  0  0
   -7.3323   22.7836  -30.7688 H   0  0  0  0  0  0  0  0  0  0  0  0
   -7.0610   20.7320  -31.4130 C   0  0  0  0  0  0  0  0  0  0  0  0
   -6.0232   20.6777  -31.0525 H   0  0  0  0  0  0  0  0  0  0  0  0
   -2.9260   20.5240  -31.6590 C   0  0  0  0  0  0  0  0  0  0  0  0
   -2.2542   19.7608  -31.2392 H   0  0  0  0  0  0  0  0  0  0  0  0
   -3.4050   21.5530  -30.8450 C   0  0  0  0  0  0  0  0  0  0  0  0
   -3.0950   21.6080  -29.7910 H   0  0  0  0  0  0  0  0  0  0  0  0
   -2.4900   23.4700  -28.0750 S   0  0  0  0  0  0  0  0  0  0  0  0
   -1.0930   24.0520  -27.3390 C   0  0  0  0  0  0  0  0  0  0  0  0
   -0.5532   23.5739  -26.5083 H   0  0  0  0  0  0  0  0  0  0  0  0
  1  2  1  0
  2  3  1  0
  3  4  1  0
  4  5  2  0
  5  6  1  0
  6  7  2  0
  6  8  2  0
  6  9  1  0
  9 10  2  0
 10 11  1  0
 10 12  1  0
 12 13  1  0
 12 14  2  0
 14 15  1  0
 15 16  1  0
 16 17  2  0
 17 18  1  0
 17 19  1  0
 19 20  1  0
 19 21  2  0
 21 22  1  0
 21 23  1  0
 23 24  1  0
 23 25  2  0
 25 26  1  0
 26 27  1  0
 27 28  2  0
 27 29  2  0
 27 30  1  0
 30 31  2  0
 31 32  1  0
 31 33  1  0
 33 34  1  0
 33 35  2  0
 35 36  1  0
 35 37  1  0
 37 38  1  0
 37 39  2  0
 39 40  1  0
 14 41  1  0
 41 42  1  0
 41 43  2  0
 43 44  1  0
  4 45  1  0
 45 46  1  0
 46 47  1  0
 46  2  2  0
 43  9  1  0
 25 16  1  0
 39 30  1  0
M  CHG  2   3  -1  26  -1
M  END
>  <UniqueID>  (18) 
17

>  <SMILES>  (18) 
O=S(=O)(/N=c1/[n-]ccs1)c1ccc(Oc2ccccc2[N-]S(=O)(=O)c2ccccc2)cc1

>  <Energy>  (18) 
94.70927540919567

>  <Genealogy>  (18) 
O=S(=O)(N=c1[n-]ccs1)c1ccc(Oc2ccccc2[N-]S(=O)(=O)c2ccccc2)cc1 (protonated)
O=S(=O)(/N=c1/[n-]ccs1)c1ccc(Oc2ccccc2[N-]S(=O)(=O)c2ccccc2)cc1 (cis-trans isomerization)
O=S(=O)(/N=c1/[n-]ccs1)c1ccc(Oc2ccccc2[N-]S(=O)(=O)c2ccccc2)cc1 (3D coordinates assigned)
O=S(=O)(/N=c1/[n-]ccs1)c1ccc(Oc2ccccc2[N-]S(=O)(=O)c2ccccc2)cc1 (optimized conformer: 94.70927540919567 kcal/mol)

>  <smiles>  (18) 
O=S(=O)(N=c1[nH]ccs1)c1ccc(Oc2ccccc2NS(=O)(=O)c2ccccc2)cc1

>  <score_type>  (18) 
oracle

>  <origin>  (18) 
adgpu

>  <m_score__min__energy>  (18) 
-11.34

>  <m_primary>  (18) 
energy

$$$$
18:0
     RDKit          3D

 60 63  0  0  0  0  0  0  0  0999 V2000
   -0.2970   23.5860  -25.0370 C   0  0  0  0  0  0  0  0  0  0  0  0
   -0.9900   23.9900  -26.3130 C   0  0  0  0  0  0  0  0  0  0  0  0
   -2.0280   23.1700  -26.7830 C   0  0  0  0  0  0  0  0  0  0  0  0
   -2.7040   23.4800  -27.9600 C   0  0  0  0  0  0  0  0  0  0  0  0
   -2.3740   24.6250  -28.6830 C   0  0  0  0  0  0  0  0  0  0  0  0
   -3.0960   24.9100  -29.8880 N   0  0  0  0  0  0  0  0  0  0  0  0
   -3.5670   23.9020  -30.7870 C   0  0  0  0  0  0  0  0  0  0  0  0
   -4.7490   23.9690  -31.2160 O   0  0  0  0  0  0  0  0  0  0  0  0
   -2.7280   22.7800  -31.1090 N   0  0  0  0  0  0  0  0  0  0  0  0
   -3.0210   21.6940  -32.0000 C   0  0  0  0  0  0  0  0  0  0  0  0
   -2.0720   21.3600  -32.9760 C   0  0  0  0  0  0  0  0  0  0  0  0
   -2.3150   20.3190  -33.8740 C   0  0  0  0  0  0  0  0  0  0  0  0
   -3.5130   19.6070  -33.8120 C   0  0  0  0  0  0  0  0  0  0  0  0
   -4.4810   19.9390  -32.8550 C   0  0  0  0  0  0  0  0  0  0  0  0
   -6.0090   19.0630  -32.8270 S   0  0  0  0  0  0  0  0  0  0  0  0
   -6.1560   18.3280  -31.5240 O   0  0  0  0  0  0  0  0  0  0  0  0
   -6.0110   18.0580  -33.9440 O   0  0  0  0  0  0  0  0  0  0  0  0
   -7.3330   20.1830  -33.0350 N   0  0  0  0  0  0  0  0  0  0  0  0
   -7.0500   21.4400  -32.3040 C   0  0  0  0  0  0  0  0  0  0  0  0
   -8.3300   22.2200  -31.9920 C   0  0  0  0  0  0  0  0  0  0  0  0
   -9.2620   21.4020  -31.0780 C   0  0  0  0  0  0  0  0  0  0  0  0
   -9.1050   19.8820  -31.2740 C   0  0  0  0  0  0  0  0  0  0  0  0
   -8.6310   19.5470  -32.6970 C   0  0  0  0  0  0  0  0  0  0  0  0
   -4.2410   20.9940  -31.9590 C   0  0  0  0  0  0  0  0  0  0  0  0
   -1.3830   25.5010  -28.2010 C   0  0  0  0  0  0  0  0  0  0  0  0
   -1.2240   26.7330  -28.8450 O   0  0  0  0  0  0  0  0  0  0  0  0
   -0.6140   25.1440  -27.0600 C   0  0  0  0  0  0  0  0  0  0  0  0
    0.7910   26.1390  -26.5890 S   0  0  0  0  0  0  0  0  0  0  0  0
    0.8320   27.4150  -27.3800 O   0  0  0  0  0  0  0  0  0  0  0  0
    0.6900   26.5110  -25.1370 O   0  0  0  0  0  0  0  0  0  0  0  0
    2.2490   25.2440  -26.8600 N   0  0  0  0  0  0  0  0  0  0  0  0
    3.0200   25.2530  -28.0930 C   0  0  0  0  0  0  0  0  0  0  0  0
    4.3460   24.5300  -27.7490 C   0  0  0  0  0  0  0  0  0  0  0  0
    4.2860   24.1950  -26.3280 N   0  0  0  0  0  0  0  0  0  0  0  0
    3.0310   24.6360  -25.8570 C   0  0  0  0  0  0  0  0  0  0  0  0
    2.6560   24.4990  -24.6620 O   0  0  0  0  0  0  0  0  0  0  0  0
   -0.8869   23.9299  -24.1746 H   0  0  0  0  0  0  0  0  0  0  0  0
   -0.2015   22.4907  -25.0026 H   0  0  0  0  0  0  0  0  0  0  0  0
    0.7032   24.0425  -25.0026 H   0  0  0  0  0  0  0  0  0  0  0  0
   -2.3107   22.2717  -26.2145 H   0  0  0  0  0  0  0  0  0  0  0  0
   -3.5037   22.8170  -28.3217 H   0  0  0  0  0  0  0  0  0  0  0  0
   -1.1285   21.9224  -33.0349 H   0  0  0  0  0  0  0  0  0  0  0  0
   -1.5607   20.0599  -34.6315 H   0  0  0  0  0  0  0  0  0  0  0  0
   -3.6982   18.7827  -34.5164 H   0  0  0  0  0  0  0  0  0  0  0  0
   -6.5434   21.1953  -31.3588 H   0  0  0  0  0  0  0  0  0  0  0  0
   -6.4142   22.0702  -32.9433 H   0  0  0  0  0  0  0  0  0  0  0  0
   -8.0648   23.1606  -31.4871 H   0  0  0  0  0  0  0  0  0  0  0  0
   -8.8553   22.4263  -32.9362 H   0  0  0  0  0  0  0  0  0  0  0  0
   -9.0315   21.6472  -30.0308 H   0  0  0  0  0  0  0  0  0  0  0  0
  -10.2976   21.6650  -31.3396 H   0  0  0  0  0  0  0  0  0  0  0  0
   -8.3670   19.5022  -30.5521 H   0  0  0  0  0  0  0  0  0  0  0  0
  -10.0853   19.4090  -31.1149 H   0  0  0  0  0  0  0  0  0  0  0  0
   -8.5209   18.4559  -32.7831 H   0  0  0  0  0  0  0  0  0  0  0  0
   -9.3838   19.9374  -33.3976 H   0  0  0  0  0  0  0  0  0  0  0  0
   -5.0092   21.2738  -31.2230 H   0  0  0  0  0  0  0  0  0  0  0  0
   -0.6990   27.5020  -28.4520 H   0  0  0  0  0  0  0  0  0  0  0  0
    2.4825   24.7151  -28.8878 H   0  0  0  0  0  0  0  0  0  0  0  0
    3.1929   26.2747  -28.4620 H   0  0  0  0  0  0  0  0  0  0  0  0
    4.4454   23.6143  -28.3504 H   0  0  0  0  0  0  0  0  0  0  0  0
    5.2135   25.1698  -27.9681 H   0  0  0  0  0  0  0  0  0  0  0  0
  1  2  1  0
  2  3  2  0
  3  4  1  0
  4  5  2  0
  5  6  1  0
  6  7  1  0
  7  8  2  0
  7  9  1  0
  9 10  1  0
 10 11  2  0
 11 12  1  0
 12 13  2  0
 13 14  1  0
 14 15  1  0
 15 16  2  0
 15 17  2  0
 15 18  1  0
 18 19  1  0
 19 20  1  0
 20 21  1  0
 21 22  1  0
 22 23  1  0
 14 24  2  0
  5 25  1  0
 25 26  1  0
 25 27  2  0
 27 28  1  0
 28 29  2  0
 28 30  2  0
 28 31  1  0
 31 32  1  0
 32 33  1  0
 33 34  1  0
 34 35  1  0
 35 36  2  0
 27  2  1  0
 35 31  1  0
 24 10  1  0
 23 18  1  0
  1 37  1  0
  1 38  1  0
  1 39  1  0
  3 40  1  0
  4 41  1  0
 11 42  1  0
 12 43  1  0
 13 44  1  0
 19 45  1  0
 19 46  1  0
 20 47  1  0
 20 48  1  0
 21 49  1  0
 21 50  1  0
 22 51  1  0
 22 52  1  0
 23 53  1  0
 23 54  1  0
 24 55  1  0
 26 56  1  0
 32 57  1  0
 32 58  1  0
 33 59  1  0
 33 60  1  0
M  CHG  3   6  -1   9  -1  34  -1
M  END
>  <UniqueID>  (19) 
18

>  <SMILES>  (19) 
Cc1ccc([N-]C(=O)[N-]c2cccc(S(=O)(=O)N3CCCCC3)c2)c(O)c1S(=O)(=O)N1CC[N-]C1=O

>  <Energy>  (19) 
97.39222995979078

>  <Genealogy>  (19) 
Cc1ccc([N-]C(=O)[N-]c2cccc(S(=O)(=O)N3CCCCC3)c2)c(O)c1S(=O)(=O)N1CC[N-]C1=O (protonated)
Cc1ccc([N-]C(=O)[N-]c2cccc(S(=O)(=O)N3CCCCC3)c2)c(O)c1S(=O)(=O)N1CC[N-]C1=O (3D coordinates assigned)
Cc1ccc([N-]C(=O)[N-]c2cccc(S(=O)(=O)N3CCCCC3)c2)c(O)c1S(=O)(=O)N1CC[N-]C1=O (nonaromatic ring conformer: 97.39222995979078 kcal/mol)

>  <smiles>  (19) 
Cc1ccc(NC(=O)Nc2cccc(S(=O)(=O)N3CCCCC3)c2)c(O)c1S(=O)(=O)N1CCNC1=O

>  <score_type>  (19) 
oracle

>  <origin>  (19) 
adgpu

>  <m_score__min__energy>  (19) 
-14.31

>  <m_primary>  (19) 
energy

$$$$
19:0
     RDKit          3D

 70 74  0  0  0  0  0  0  0  0999 V2000
   -0.2880   22.1910  -35.4980 H   0  0  0  0  0  0  0  0  0  0  0  0
   -0.0970   21.1630  -35.5000 N   0  0  0  0  0  0  0  0  0  0  0  0
   -0.8980   20.3260  -34.9270 C   0  0  0  0  0  0  0  0  0  0  0  0
   -2.0200   20.7680  -34.3040 N   0  0  0  0  0  0  0  0  0  0  0  0
   -2.8730   19.8920  -33.7080 C   0  0  0  0  0  0  0  0  0  0  0  0
   -4.1060   20.3710  -33.0170 C   0  0  0  0  0  0  0  0  0  0  0  0
   -5.3480   19.8230  -33.3830 C   0  0  0  0  0  0  0  0  0  0  0  0
   -5.3928   19.0629  -34.1769 H   0  0  0  0  0  0  0  0  0  0  0  0
   -6.5300   20.2320  -32.7500 C   0  0  0  0  0  0  0  0  0  0  0  0
   -7.8150   19.6850  -33.1010 N   0  0  0  0  0  0  0  0  0  0  0  0
   -8.4480   20.2650  -33.7000 H   0  0  0  0  0  0  0  0  0  0  0  0
   -8.2720   18.3620  -32.6700 C   0  0  0  0  0  0  0  0  0  0  0  0
   -8.7259   18.4439  -31.6714 H   0  0  0  0  0  0  0  0  0  0  0  0
   -9.0109   17.9887  -33.3943 H   0  0  0  0  0  0  0  0  0  0  0  0
   -7.1270   17.4030  -32.6120 C   0  0  0  0  0  0  0  0  0  0  0  0
   -6.7620   16.6130  -33.6440 N   0  0  0  0  0  0  0  0  0  0  0  0
   -5.7430   15.7770  -33.3050 C   0  0  0  0  0  0  0  0  0  0  0  0
   -5.1340   14.8370  -34.2920 C   0  0  0  0  0  0  0  0  0  0  0  0
   -4.6116   14.0307  -33.7563 H   0  0  0  0  0  0  0  0  0  0  0  0
   -5.9246   14.4055  -34.9235 H   0  0  0  0  0  0  0  0  0  0  0  0
   -4.4171   15.3822  -34.9235 H   0  0  0  0  0  0  0  0  0  0  0  0
   -5.2870   15.9000  -31.9960 C   0  0  0  0  0  0  0  0  0  0  0  0
   -4.4677   15.3259  -31.5387 H   0  0  0  0  0  0  0  0  0  0  0  0
   -6.2110   17.0820  -31.2380 S   0  0  0  0  0  0  0  0  0  0  0  0
   -6.4480   21.2060  -31.7540 C   0  0  0  0  0  0  0  0  0  0  0  0
   -7.3639   21.5429  -31.2464 H   0  0  0  0  0  0  0  0  0  0  0  0
   -5.2500   21.7430  -31.4040 N   0  0  0  0  0  0  0  0  0  0  0  0
   -5.2700   22.5050  -30.6920 H   0  0  0  0  0  0  0  0  0  0  0  0
   -4.0760   21.3500  -31.9900 C   0  0  0  0  0  0  0  0  0  0  0  0
   -2.9390   21.9010  -31.6600 N   0  0  0  0  0  0  0  0  0  0  0  0
   -2.6920   22.8220  -30.5880 C   0  0  0  0  0  0  0  0  0  0  0  0
   -3.4310   24.0030  -30.5110 C   0  0  0  0  0  0  0  0  0  0  0  0
   -4.2310   24.1985  -31.2402 H   0  0  0  0  0  0  0  0  0  0  0  0
   -3.1640   24.9130  -29.5360 N   0  0  0  0  0  0  0  0  0  0  0  0
   -2.1710   24.7390  -28.6220 C   0  0  0  0  0  0  0  0  0  0  0  0
   -1.9980   25.6740  -27.7260 N   0  0  0  0  0  0  0  0  0  0  0  0
   -1.0250   25.8050  -26.6290 C   0  0  1  0  0  0  0  0  0  0  0  0
   -1.1836   24.9652  -25.9365 H   0  0  0  0  0  0  0  0  0  0  0  0
    0.4200   25.6600  -27.1430 C   0  0  0  0  0  0  0  0  0  0  0  0
    1.1082   25.5909  -26.2877 H   0  0  0  0  0  0  0  0  0  0  0  0
    0.5021   24.7491  -27.7542 H   0  0  0  0  0  0  0  0  0  0  0  0
    0.6815   26.5364  -27.7542 H   0  0  0  0  0  0  0  0  0  0  0  0
   -1.2710   27.0750  -25.7590 C   0  0  0  0  0  0  0  0  0  0  0  0
   -2.3481   27.2963  -25.7885 H   0  0  0  0  0  0  0  0  0  0  0  0
   -0.5240   28.3070  -26.3450 C   0  0  0  0  0  0  0  0  0  0  0  0
    0.4425   27.9764  -26.7531 H   0  0  0  0  0  0  0  0  0  0  0  0
   -1.1551   28.7475  -27.1309 H   0  0  0  0  0  0  0  0  0  0  0  0
   -0.2720   29.3790  -25.2800 C   0  0  0  0  0  0  0  0  0  0  0  0
    0.2124   30.2461  -25.7528 H   0  0  0  0  0  0  0  0  0  0  0  0
   -1.2392   29.6635  -24.8400 H   0  0  0  0  0  0  0  0  0  0  0  0
    0.6370   28.8500  -24.1520 C   0  0  0  0  0  0  0  0  0  0  0  0
    1.6819   29.0760  -24.4109 H   0  0  0  0  0  0  0  0  0  0  0  0
    0.3234   29.3461  -23.2217 H   0  0  0  0  0  0  0  0  0  0  0  0
    0.5070   27.3310  -23.9250 C   0  0  0  0  0  0  0  0  0  0  0  0
    1.2348   26.8105  -24.5648 H   0  0  0  0  0  0  0  0  0  0  0  0
    0.7004   27.1234  -22.8622 H   0  0  0  0  0  0  0  0  0  0  0  0
   -0.9020   26.8300  -24.2640 C   0  0  0  0  0  0  0  0  0  0  0  0
   -0.9529   25.7505  -24.0590 H   0  0  0  0  0  0  0  0  0  0  0  0
   -1.6175   27.3897  -23.6437 H   0  0  0  0  0  0  0  0  0  0  0  0
   -1.3810   23.5740  -28.6920 C   0  0  0  0  0  0  0  0  0  0  0  0
   -0.5669   23.4120  -27.9702 H   0  0  0  0  0  0  0  0  0  0  0  0
   -1.6400   22.6270  -29.6850 C   0  0  0  0  0  0  0  0  0  0  0  0
   -1.0153   21.7246  -29.7580 H   0  0  0  0  0  0  0  0  0  0  0  0
   -2.5790   18.5630  -33.7340 N   0  0  0  0  0  0  0  0  0  0  0  0
   -1.4510   18.1170  -34.3440 C   0  0  0  0  0  0  0  0  0  0  0  0
   -1.1620   16.6540  -34.3980 C   0  0  0  0  0  0  0  0  0  0  0  0
   -1.0837   16.2577  -33.3749 H   0  0  0  0  0  0  0  0  0  0  0  0
   -1.9757   16.1389  -34.9295 H   0  0  0  0  0  0  0  0  0  0  0  0
   -0.2135   16.4870  -34.9295 H   0  0  0  0  0  0  0  0  0  0  0  0
   -0.6170   19.0000  -34.9510 N   0  0  0  0  0  0  0  0  0  0  0  0
  1  2  1  0
  2  3  2  0
  3  4  1  0
  4  5  2  0
  5  6  1  0
  6  7  2  0
  7  8  1  0
  7  9  1  0
  9 10  1  0
 10 11  1  0
 10 12  1  0
 12 13  1  0
 12 14  1  0
 12 15  1  0
 15 16  2  0
 16 17  1  0
 17 18  1  0
 18 19  1  0
 18 20  1  0
 18 21  1  0
 17 22  2  0
 22 23  1  0
 22 24  1  0
  9 25  2  0
 25 26  1  0
 25 27  1  0
 27 28  1  0
 27 29  1  0
 29 30  2  3
 30 31  1  0
 31 32  2  0
 32 33  1  0
 32 34  1  0
 34 35  1  0
 35 36  2  0
 36 37  1  0
 37 38  1  1
 37 39  1  0
 39 40  1  0
 39 41  1  0
 39 42  1  0
 37 43  1  0
 43 44  1  0
 43 45  1  0
 45 46  1  0
 45 47  1  0
 45 48  1  0
 48 49  1  0
 48 50  1  0
 48 51  1  0
 51 52  1  0
 51 53  1  0
 51 54  1  0
 54 55  1  0
 54 56  1  0
 54 57  1  0
 57 58  1  0
 57 59  1  0
 35 60  1  0
 60 61  1  0
 60 62  2  0
 62 63  1  0
  5 64  1  0
 64 65  1  0
 65 66  1  0
 66 67  1  0
 66 68  1  0
 66 69  1  0
 65 70  2  0
 70  3  1  0
 29  6  1  0
 62 31  1  0
 24 15  1  0
 57 43  1  0
M  CHG  2  34  -1  64  -1
M  END
>  <UniqueID>  (20) 
19

>  <SMILES>  (20) 
[H]/N=c1/nc(C)[n-]c(-c2cc(NCc3nc(C)cs3)c[nH]c2=Nc2cc/c(=N\[C@@H](C)C3CCCCC3)[n-]c2)n1

>  <Energy>  (20) 
122.15560602233269

>  <Genealogy>  (20) 
Cc1csc(CNc2c[nH]c(=Nc3ccc(=NC(C)C4CCCCC4)[n-]c3)c(-c3nc(=N)nc(C)[n-]3)c2)n1 (protonated)
Cc1csc(CNc2c[nH]c(=Nc3ccc(=N[C@@H](C)C4CCCCC4)[n-]c3)c(-c3nc(=N)nc(C)[n-]3)c2)n1 (chirality)
[H]/N=c1/nc(C)[n-]c(-c2cc(NCc3nc(C)cs3)c[nH]c2=Nc2cc/c(=N\[C@@H](C)C3CCCCC3)[n-]c2)n1 (cis-trans isomerization)
[H]/N=c1/nc(C)[n-]c(-c2cc(NCc3nc(C)cs3)c[nH]c2=Nc2cc/c(=N\[C@@H](C)C3CCCCC3)[n-]c2)n1 (3D coordinates assigned)
[H]/N=c1/nc(C)[n-]c(-c2cc(NCc3nc(C)cs3)c[nH]c2=Nc2cc/c(=N\[C@@H](C)C3CCCCC3)[n-]c2)n1 (nonaromatic ring conformer: 122.15560602233269 kcal/mol)

>  <smiles>  (20) 
Cc1csc(CNc2c[nH]c(=Nc3ccc(=NC(C)C4CCCCC4)[nH]c3)c(-c3nc(=N)nc(C)[nH]3)c2)n1

>  <score_type>  (20) 
oracle

>  <origin>  (20) 
adgpu

>  <m_score__min__energy>  (20) 
-11.35

>  <m_primary>  (20) 
energy

$$$$
20:0
     RDKit          3D

 48 50  0  0  0  0  0  0  0  0999 V2000
   -6.9790   20.0100  -33.2020 C   0  0  0  0  0  0  0  0  0  0  0  0
   -6.3670   18.6730  -33.1130 N   0  0  0  0  0  0  0  0  0  0  0  0
   -5.8700   18.1860  -34.4270 C   0  0  0  0  0  0  0  0  0  0  0  0
   -4.3340   18.1350  -34.5440 C   0  0  0  0  0  0  0  0  0  0  0  0
   -3.6950   19.3400  -33.8460 C   0  0  0  0  0  0  0  0  0  0  0  0
   -1.9110   19.3260  -34.0500 S   0  0  0  0  0  0  0  0  0  0  0  0
   -1.4970   18.0100  -34.6490 O   0  0  0  0  0  0  0  0  0  0  0  0
   -1.4960   20.4120  -35.0020 O   0  0  0  0  0  0  0  0  0  0  0  0
   -1.1260   19.5200  -32.4650 C   0  0  0  0  0  0  0  0  0  0  0  0
   -0.6780   18.4110  -31.7090 C   0  0  0  0  0  0  0  0  0  0  0  0
   -0.8120   16.7470  -32.2680 Cl  0  0  0  0  0  0  0  0  0  0  0  0
   -0.0760   18.6160  -30.4630 C   0  0  0  0  0  0  0  0  0  0  0  0
    0.1110   19.9040  -29.9660 C   0  0  0  0  0  0  0  0  0  0  0  0
   -0.2800   21.0170  -30.7260 C   0  0  0  0  0  0  0  0  0  0  0  0
   -0.1060   22.3590  -30.2420 N   0  0  0  0  0  0  0  0  0  0  0  0
   -0.6260   22.9020  -29.0230 C   0  0  0  0  0  0  0  0  0  0  0  0
    0.0980   23.6110  -28.2740 O   0  0  0  0  0  0  0  0  0  0  0  0
   -1.9850   22.6290  -28.6680 N   0  0  0  0  0  0  0  0  0  0  0  0
   -3.1280   22.8840  -29.4960 C   0  0  0  0  0  0  0  0  0  0  0  0
   -3.8720   21.7940  -29.9640 C   0  0  0  0  0  0  0  0  0  0  0  0
   -4.9900   21.9950  -30.7780 C   0  0  0  0  0  0  0  0  0  0  0  0
   -5.3640   23.2920  -31.1480 C   0  0  0  0  0  0  0  0  0  0  0  0
   -6.5150   23.5000  -31.9860 C   0  0  0  0  0  0  0  0  0  0  0  0
   -7.4410   23.6670  -32.6600 N   0  0  0  0  0  0  0  0  0  0  0  0
   -4.6050   24.3860  -30.7130 C   0  0  0  0  0  0  0  0  0  0  0  0
   -3.4820   24.1870  -29.9030 C   0  0  0  0  0  0  0  0  0  0  0  0
   -2.7090   25.2850  -29.5390 O   0  0  0  0  0  0  0  0  0  0  0  0
   -0.9080   20.8210  -31.9640 C   0  0  0  0  0  0  0  0  0  0  0  0
   -1.2960   21.9340  -32.7050 O   0  0  0  0  0  0  0  0  0  0  0  0
   -4.0800   19.3890  -32.3510 C   0  0  0  0  0  0  0  0  0  0  0  0
   -5.3630   18.5960  -32.0310 C   0  0  0  0  0  0  0  0  0  0  0  0
   -7.1574   20.3998  -32.1890 H   0  0  0  0  0  0  0  0  0  0  0  0
   -6.3016   20.6881  -33.7418 H   0  0  0  0  0  0  0  0  0  0  0  0
   -7.9349   19.9405  -33.7418 H   0  0  0  0  0  0  0  0  0  0  0  0
   -6.2619   17.1710  -34.5890 H   0  0  0  0  0  0  0  0  0  0  0  0
   -6.2201   18.9047  -35.1826 H   0  0  0  0  0  0  0  0  0  0  0  0
   -3.9671   17.2101  -34.0749 H   0  0  0  0  0  0  0  0  0  0  0  0
   -4.0605   18.1586  -35.6092 H   0  0  0  0  0  0  0  0  0  0  0  0
   -4.0859   20.2511  -34.3225 H   0  0  0  0  0  0  0  0  0  0  0  0
    0.2534   17.7507  -29.8691 H   0  0  0  0  0  0  0  0  0  0  0  0
    0.5664   20.0489  -28.9752 H   0  0  0  0  0  0  0  0  0  0  0  0
   -3.5741   20.7715  -29.6888 H   0  0  0  0  0  0  0  0  0  0  0  0
   -5.5767   21.1330  -31.1283 H   0  0  0  0  0  0  0  0  0  0  0  0
   -4.8931   25.4054  -31.0094 H   0  0  0  0  0  0  0  0  0  0  0  0
   -3.2519   18.9677  -31.7622 H   0  0  0  0  0  0  0  0  0  0  0  0
   -4.2726   20.4416  -32.0960 H   0  0  0  0  0  0  0  0  0  0  0  0
   -5.0945   17.5408  -31.8747 H   0  0  0  0  0  0  0  0  0  0  0  0
   -5.8114   19.0399  -31.1300 H   0  0  0  0  0  0  0  0  0  0  0  0
  1  2  1  0
  2  3  1  0
  3  4  1  0
  4  5  1  0
  5  6  1  0
  6  7  2  0
  6  8  2  0
  6  9  1  0
  9 10  2  0
 10 11  1  0
 10 12  1  0
 12 13  2  0
 13 14  1  0
 14 15  1  0
 15 16  1  0
 16 17  2  0
 16 18  1  0
 18 19  1  0
 19 20  2  0
 20 21  1  0
 21 22  2  0
 22 23  1  0
 23 24  3  0
 22 25  1  0
 25 26  2  0
 26 27  1  0
 14 28  2  0
 28 29  1  0
  5 30  1  0
 30 31  1  0
 31  2  1  0
 28  9  1  0
 26 19  1  0
  1 32  1  0
  1 33  1  0
  1 34  1  0
  3 35  1  0
  3 36  1  0
  4 37  1  0
  4 38  1  0
  5 39  1  0
 12 40  1  0
 13 41  1  0
 20 42  1  0
 21 43  1  0
 25 44  1  0
 30 45  1  0
 30 46  1  0
 31 47  1  0
 31 48  1  0
M  CHG  4  15  -1  18  -1  27  -1  29  -1
M  END
>  <UniqueID>  (21) 
20

>  <SMILES>  (21) 
CN1CCC(S(=O)(=O)c2c(Cl)ccc([N-]C(=O)[N-]c3ccc(C#N)cc3[O-])c2[O-])CC1

>  <Energy>  (21) 
67.65578302081788

>  <Genealogy>  (21) 
CN1CCC(S(=O)(=O)c2c(Cl)ccc([N-]C(=O)[N-]c3ccc(C#N)cc3[O-])c2[O-])CC1 (protonated)
CN1CCC(S(=O)(=O)c2c(Cl)ccc([N-]C(=O)[N-]c3ccc(C#N)cc3[O-])c2[O-])CC1 (3D coordinates assigned)
CN1CCC(S(=O)(=O)c2c(Cl)ccc([N-]C(=O)[N-]c3ccc(C#N)cc3[O-])c2[O-])CC1 (nonaromatic ring conformer: 67.65578302081788 kcal/mol)

>  <smiles>  (21) 
CN1CCC(S(=O)(=O)c2c(Cl)ccc(NC(=O)Nc3ccc(C#N)cc3O)c2O)CC1

>  <score_type>  (21) 
oracle

>  <origin>  (21) 
adgpu

>  <m_score__min__energy>  (21) 
-15.85

>  <m_primary>  (21) 
energy

$$$$
21:0
     RDKit          3D

 56 59  0  0  0  0  0  0  0  0999 V2000
   -3.7990   21.0710  -32.8030 C   0  0  0  0  0  0  0  0  0  0  0  0
   -4.8940   20.0830  -32.5680 C   0  0  0  0  0  0  0  0  0  0  0  0
   -4.7140   18.8940  -31.9560 N   0  0  0  0  0  0  0  0  0  0  0  0
   -5.9110   18.3530  -31.7690 N   0  0  0  0  0  0  0  0  0  0  0  0
   -6.1190   17.0810  -31.0870 C   0  0  0  0  0  0  0  0  0  0  0  0
   -6.8700   19.1830  -32.2330 C   0  0  0  0  0  0  0  0  0  0  0  0
   -8.3450   18.9670  -32.0850 C   0  0  0  0  0  0  0  0  0  0  0  0
   -6.2450   20.3000  -32.7470 C   0  0  0  0  0  0  0  0  0  0  0  0
   -6.8570   21.5290  -33.1370 N   0  0  0  0  0  0  0  0  0  0  0  0
   -7.5150   22.6050  -31.9520 S   0  0  0  0  0  0  0  0  0  0  0  0
   -8.1260   23.7890  -32.6480 O   0  0  0  0  0  0  0  0  0  0  0  0
   -8.5840   21.9090  -31.1570 O   0  0  0  0  0  0  0  0  0  0  0  0
   -6.2240   23.1480  -30.8860 C   0  0  0  0  0  0  0  0  0  0  0  0
   -5.4770   24.2850  -31.2180 C   0  0  0  0  0  0  0  0  0  0  0  0
   -4.4890   24.7580  -30.3490 C   0  0  0  0  0  0  0  0  0  0  0  0
   -4.2300   24.0980  -29.1330 C   0  0  0  0  0  0  0  0  0  0  0  0
   -3.1830   24.6030  -28.2070 C   0  0  0  0  0  0  0  0  0  0  0  0
   -3.4480   24.7560  -26.8360 C   0  0  0  0  0  0  0  0  0  0  0  0
   -2.4570   25.2320  -25.9760 C   0  0  0  0  0  0  0  0  0  0  0  0
   -1.1910   25.5530  -26.4880 C   0  0  0  0  0  0  0  0  0  0  0  0
   -0.1550   26.0700  -25.6340 N   0  0  0  0  0  0  0  0  0  0  0  0
    1.2630   25.7960  -25.9040 C   0  0  0  0  0  0  0  0  0  0  0  0
    2.0170   25.4630  -24.5990 C   0  0  0  0  0  0  0  0  0  0  0  0
    1.3930   26.0420  -23.3910 N   0  0  0  0  0  0  0  0  0  0  0  0
    0.6890   27.3020  -23.6650 C   0  0  0  0  0  0  0  0  0  0  0  0
   -0.5020   27.0490  -24.5990 C   0  0  0  0  0  0  0  0  0  0  0  0
   -0.9590   25.4120  -27.8210 N   0  0  0  0  0  0  0  0  0  0  0  0
   -1.9070   24.9480  -28.6790 C   0  0  0  0  0  0  0  0  0  0  0  0
   -4.9860   22.9570  -28.8070 C   0  0  0  0  0  0  0  0  0  0  0  0
   -5.9780   22.4890  -29.6760 C   0  0  0  0  0  0  0  0  0  0  0  0
   -3.4090   21.4229  -31.8365 H   0  0  0  0  0  0  0  0  0  0  0  0
   -2.9891   20.5921  -33.3728 H   0  0  0  0  0  0  0  0  0  0  0  0
   -4.1924   21.9257  -33.3728 H   0  0  0  0  0  0  0  0  0  0  0  0
   -6.0930   17.2398  -29.9988 H   0  0  0  0  0  0  0  0  0  0  0  0
   -7.0968   16.6668  -31.3738 H   0  0  0  0  0  0  0  0  0  0  0  0
   -5.3241   16.3769  -31.3738 H   0  0  0  0  0  0  0  0  0  0  0  0
   -8.6046   18.9290  -31.0168 H   0  0  0  0  0  0  0  0  0  0  0  0
   -8.8869   19.7954  -32.5648 H   0  0  0  0  0  0  0  0  0  0  0  0
   -8.6266   18.0180  -32.5648 H   0  0  0  0  0  0  0  0  0  0  0  0
   -5.6683   24.8082  -32.1665 H   0  0  0  0  0  0  0  0  0  0  0  0
   -3.9093   25.6534  -30.6179 H   0  0  0  0  0  0  0  0  0  0  0  0
   -4.4410   24.4995  -26.4384 H   0  0  0  0  0  0  0  0  0  0  0  0
   -2.6674   25.3547  -24.9033 H   0  0  0  0  0  0  0  0  0  0  0  0
    1.3401   24.9417  -26.5927 H   0  0  0  0  0  0  0  0  0  0  0  0
    1.7154   26.6927  -26.3526 H   0  0  0  0  0  0  0  0  0  0  0  0
    2.0476   24.3694  -24.4844 H   0  0  0  0  0  0  0  0  0  0  0  0
    3.0215   25.9029  -24.6856 H   0  0  0  0  0  0  0  0  0  0  0  0
    0.7170   25.3530  -22.9820 H   0  0  0  0  0  0  0  0  0  0  0  0
    2.1370   26.2200  -22.6760 H   0  0  0  0  0  0  0  0  0  0  0  0
    0.3249   27.7284  -22.7186 H   0  0  0  0  0  0  0  0  0  0  0  0
    1.3834   28.0041  -24.1496 H   0  0  0  0  0  0  0  0  0  0  0  0
   -1.3475   26.6654  -24.0091 H   0  0  0  0  0  0  0  0  0  0  0  0
   -0.7736   27.9964  -25.0875 H   0  0  0  0  0  0  0  0  0  0  0  0
   -1.6724   24.8426  -29.7485 H   0  0  0  0  0  0  0  0  0  0  0  0
   -4.7957   22.4285  -27.8612 H   0  0  0  0  0  0  0  0  0  0  0  0
   -6.5668   21.5996  -29.4070 H   0  0  0  0  0  0  0  0  0  0  0  0
  1  2  1  0
  2  3  2  0
  3  4  1  0
  4  5  1  0
  4  6  1  0
  6  7  1  0
  6  8  2  0
  8  9  1  0
  9 10  1  0
 10 11  2  0
 10 12  2  0
 10 13  1  0
 13 14  2  0
 14 15  1  0
 15 16  2  0
 16 17  1  0
 17 18  2  0
 18 19  1  0
 19 20  2  0
 20 21  1  0
 21 22  1  0
 22 23  1  0
 23 24  1  0
 24 25  1  0
 25 26  1  0
 20 27  1  0
 27 28  2  0
 16 29  1  0
 29 30  2  0
  8  2  1  0
 30 13  1  0
 28 17  1  0
 26 21  1  0
  1 31  1  0
  1 32  1  0
  1 33  1  0
  5 34  1  0
  5 35  1  0
  5 36  1  0
  7 37  1  0
  7 38  1  0
  7 39  1  0
 14 40  1  0
 15 41  1  0
 18 42  1  0
 19 43  1  0
 22 44  1  0
 22 45  1  0
 23 46  1  0
 23 47  1  0
 24 48  1  0
 24 49  1  0
 25 50  1  0
 25 51  1  0
 26 52  1  0
 26 53  1  0
 28 54  1  0
 29 55  1  0
 30 56  1  0
M  CHG  2   9  -1  24   1
M  END
>  <UniqueID>  (22) 
21

>  <SMILES>  (22) 
Cc1nn(C)c(C)c1[N-]S(=O)(=O)c1ccc(-c2ccc(N3CC[NH2+]CC3)nc2)cc1

>  <Energy>  (22) 
108.49452021887087

>  <Genealogy>  (22) 
Cc1nn(C)c(C)c1[N-]S(=O)(=O)c1ccc(-c2ccc(N3CC[NH2+]CC3)nc2)cc1 (protonated)
Cc1nn(C)c(C)c1[N-]S(=O)(=O)c1ccc(-c2ccc(N3CC[NH2+]CC3)nc2)cc1 (3D coordinates assigned)
Cc1nn(C)c(C)c1[N-]S(=O)(=O)c1ccc(-c2ccc(N3CC[NH2+]CC3)nc2)cc1 (nonaromatic ring conformer: 108.49452021887087 kcal/mol)

>  <smiles>  (22) 
Cc1nn(C)c(C)c1NS(=O)(=O)c1ccc(-c2ccc(N3CCNCC3)nc2)cc1

>  <score_type>  (22) 
oracle

>  <origin>  (22) 
adgpu

>  <m_score__min__energy>  (22) 
-10.49

>  <m_primary>  (22) 
energy

$$$$
22:0
     RDKit          3D

 53 56  0  0  0  0  0  0  0  0999 V2000
   -9.8630   21.6810  -31.3880 C   0  0  0  0  0  0  0  0  0  0  0  0
   -8.3910   21.4250  -31.4670 C   0  0  0  0  0  0  0  0  0  0  0  0
   -7.8950   20.3810  -32.2520 C   0  0  0  0  0  0  0  0  0  0  0  0
   -6.5060   20.1880  -32.3200 C   0  0  0  0  0  0  0  0  0  0  0  0
   -5.9040   19.0970  -33.1310 C   0  0  0  0  0  0  0  0  0  0  0  0
   -6.6650   17.9520  -33.4370 C   0  0  0  0  0  0  0  0  0  0  0  0
   -6.1170   16.9190  -34.2050 C   0  0  0  0  0  0  0  0  0  0  0  0
   -4.8090   17.0190  -34.6820 C   0  0  0  0  0  0  0  0  0  0  0  0
   -4.0480   18.1540  -34.3970 C   0  0  0  0  0  0  0  0  0  0  0  0
   -4.5890   19.1890  -33.6300 C   0  0  0  0  0  0  0  0  0  0  0  0
   -5.6910   21.0370  -31.6390 N   0  0  0  0  0  0  0  0  0  0  0  0
   -6.1820   22.0590  -30.8870 C   0  0  0  0  0  0  0  0  0  0  0  0
   -5.2810   22.9320  -30.1760 N   0  0  0  0  0  0  0  0  0  0  0  0
   -4.4840   22.3840  -29.0640 C   0  0  0  0  0  0  0  0  0  0  0  0
   -3.7460   23.4850  -28.3000 C   0  0  0  0  0  0  0  0  0  0  0  0
   -3.0810   24.3810  -29.2480 N   0  0  0  0  0  0  0  0  0  0  0  0
   -1.7710   24.8860  -28.9620 C   0  0  0  0  0  0  0  0  0  0  0  0
   -1.6170   26.1110  -28.7160 O   0  0  0  0  0  0  0  0  0  0  0  0
   -0.6270   24.0290  -28.9880 N   0  0  0  0  0  0  0  0  0  0  0  0
   -0.6500   22.6670  -29.5040 C   0  0  0  0  0  0  0  0  0  0  0  0
   -1.0450   21.7260  -28.4050 C   0  0  0  0  0  0  0  0  0  0  0  0
   -1.6810   20.5100  -28.7070 C   0  0  0  0  0  0  0  0  0  0  0  0
   -2.0800   19.6500  -27.6790 C   0  0  0  0  0  0  0  0  0  0  0  0
   -1.8590   20.0030  -26.3450 C   0  0  0  0  0  0  0  0  0  0  0  0
   -1.2400   21.2180  -26.0360 C   0  0  0  0  0  0  0  0  0  0  0  0
   -0.8390   22.0800  -27.0610 C   0  0  0  0  0  0  0  0  0  0  0  0
   -3.8110   24.9100  -30.4050 C   0  0  0  0  0  0  0  0  0  0  0  0
   -5.2490   24.3770  -30.4650 C   0  0  0  0  0  0  0  0  0  0  0  0
   -7.5280   22.2420  -30.8100 N   0  0  0  0  0  0  0  0  0  0  0  0
  -10.1698   21.7344  -30.3330 H   0  0  0  0  0  0  0  0  0  0  0  0
  -10.0968   22.6333  -31.8865 H   0  0  0  0  0  0  0  0  0  0  0  0
  -10.4046   20.8636  -31.8865 H   0  0  0  0  0  0  0  0  0  0  0  0
   -8.5800   19.7226  -32.8064 H   0  0  0  0  0  0  0  0  0  0  0  0
   -7.6984   17.8693  -33.0692 H   0  0  0  0  0  0  0  0  0  0  0  0
   -6.7179   16.0264  -34.4334 H   0  0  0  0  0  0  0  0  0  0  0  0
   -4.3782   16.2039  -35.2821 H   0  0  0  0  0  0  0  0  0  0  0  0
   -3.0190   18.2338  -34.7775 H   0  0  0  0  0  0  0  0  0  0  0  0
   -3.9843   20.0821  -33.4140 H   0  0  0  0  0  0  0  0  0  0  0  0
   -5.1554   21.8572  -28.3700 H   0  0  0  0  0  0  0  0  0  0  0  0
   -3.7346   21.6976  -29.4851 H   0  0  0  0  0  0  0  0  0  0  0  0
   -4.4663   24.0585  -27.6981 H   0  0  0  0  0  0  0  0  0  0  0  0
   -2.9937   23.0293  -27.6394 H   0  0  0  0  0  0  0  0  0  0  0  0
   -1.3778   22.5979  -30.3259 H   0  0  0  0  0  0  0  0  0  0  0  0
    0.3491   22.3980  -29.8774 H   0  0  0  0  0  0  0  0  0  0  0  0
   -1.8657   20.2336  -29.7556 H   0  0  0  0  0  0  0  0  0  0  0  0
   -2.5684   18.6945  -27.9207 H   0  0  0  0  0  0  0  0  0  0  0  0
   -2.1722   19.3246  -25.5377 H   0  0  0  0  0  0  0  0  0  0  0  0
   -1.0684   21.4959  -24.9856 H   0  0  0  0  0  0  0  0  0  0  0  0
   -0.3603   23.0392  -26.8143 H   0  0  0  0  0  0  0  0  0  0  0  0
   -3.8408   26.0074  -30.3356 H   0  0  0  0  0  0  0  0  0  0  0  0
   -3.2880   24.5851  -31.3165 H   0  0  0  0  0  0  0  0  0  0  0  0
   -5.8622   24.9076  -29.7218 H   0  0  0  0  0  0  0  0  0  0  0  0
   -5.6465   24.5444  -31.4769 H   0  0  0  0  0  0  0  0  0  0  0  0
  1  2  1  0
  2  3  2  0
  3  4  1  0
  4  5  1  0
  5  6  2  0
  6  7  1  0
  7  8  2  0
  8  9  1  0
  9 10  2  0
  4 11  2  0
 11 12  1  0
 12 13  1  0
 13 14  1  0
 14 15  1  0
 15 16  1  0
 16 17  1  0
 17 18  2  0
 17 19  1  0
 19 20  1  0
 20 21  1  0
 21 22  2  0
 22 23  1  0
 23 24  2  0
 24 25  1  0
 25 26  2  0
 16 27  1  0
 27 28  1  0
 12 29  2  0
 29  2  1  0
 10  5  1  0
 28 13  1  0
 26 21  1  0
  1 30  1  0
  1 31  1  0
  1 32  1  0
  3 33  1  0
  6 34  1  0
  7 35  1  0
  8 36  1  0
  9 37  1  0
 10 38  1  0
 14 39  1  0
 14 40  1  0
 15 41  1  0
 15 42  1  0
 20 43  1  0
 20 44  1  0
 22 45  1  0
 23 46  1  0
 24 47  1  0
 25 48  1  0
 26 49  1  0
 27 50  1  0
 27 51  1  0
 28 52  1  0
 28 53  1  0
M  CHG  1  19  -1
M  END
>  <UniqueID>  (23) 
22

>  <SMILES>  (23) 
Cc1cc(-c2ccccc2)nc(N2CCN(C(=O)[N-]Cc3ccccc3)CC2)n1

>  <Energy>  (23) 
61.483086388822

>  <Genealogy>  (23) 
Cc1cc(-c2ccccc2)nc(N2CCN(C(=O)[N-]Cc3ccccc3)CC2)n1 (protonated)
Cc1cc(-c2ccccc2)nc(N2CCN(C(=O)[N-]Cc3ccccc3)CC2)n1 (3D coordinates assigned)
Cc1cc(-c2ccccc2)nc(N2CCN(C(=O)[N-]Cc3ccccc3)CC2)n1 (nonaromatic ring conformer: 61.483086388822 kcal/mol)

>  <smiles>  (23) 
Cc1cc(-c2ccccc2)nc(N2CCN(C(=O)NCc3ccccc3)CC2)n1

>  <score_type>  (23) 
oracle

>  <origin>  (23) 
adgpu

>  <m_score__min__energy>  (23) 
-10.15

>  <m_primary>  (23) 
energy

$$$$
23:0
     RDKit          3D

 57 59  0  0  0  0  0  0  0  0999 V2000
    1.2610   19.2110  -32.0560 C   0  0  0  0  0  0  0  0  0  0  0  0
    0.3670   19.6350  -30.9260 C   0  0  0  0  0  0  0  0  0  0  0  0
    0.5550   19.0920  -29.6460 C   0  0  0  0  0  0  0  0  0  0  0  0
   -0.2390   19.4960  -28.5730 C   0  0  0  0  0  0  0  0  0  0  0  0
   -1.2380   20.4550  -28.7590 C   0  0  0  0  0  0  0  0  0  0  0  0
   -2.2280   20.9850  -27.3880 S   0  0  0  0  0  0  0  0  0  0  0  0
   -3.5030   20.1890  -27.3710 O   0  0  0  0  0  0  0  0  0  0  0  0
   -1.4840   20.7430  -26.1050 O   0  0  0  0  0  0  0  0  0  0  0  0
   -2.6100   22.6810  -27.5020 N   0  0  0  0  0  0  0  0  0  0  0  0
   -1.3860   23.4610  -27.7530 C   0  0  0  0  0  0  0  0  0  0  0  0
   -1.5220   24.3260  -28.9690 C   0  0  0  0  0  0  0  0  0  0  0  0
   -0.5270   24.5090  -29.7140 O   0  0  0  0  0  0  0  0  0  0  0  0
   -2.7620   24.9890  -29.2350 N   0  0  0  0  0  0  0  0  0  0  0  0
   -3.8280   24.4760  -30.0500 C   0  0  0  0  0  0  0  0  0  0  0  0
   -4.9900   25.2450  -30.2110 C   0  0  0  0  0  0  0  0  0  0  0  0
   -6.0450   24.7770  -31.0040 C   0  0  0  0  0  0  0  0  0  0  0  0
   -5.9450   23.5400  -31.6490 C   0  0  0  0  0  0  0  0  0  0  0  0
   -4.7800   22.7710  -31.5160 C   0  0  0  0  0  0  0  0  0  0  0  0
   -4.6520   21.2010  -32.3170 S   0  0  0  0  0  0  0  0  0  0  0  0
   -3.6990   21.3080  -33.4770 O   0  0  0  0  0  0  0  0  0  0  0  0
   -4.0930   20.1940  -31.3480 O   0  0  0  0  0  0  0  0  0  0  0  0
   -6.2080   20.6540  -32.8970 N   0  0  0  0  0  0  0  0  0  0  0  0
   -7.1890   20.6370  -31.7910 C   0  0  0  0  0  0  0  0  0  0  0  0
   -8.4250   19.8070  -32.1520 C   0  0  0  0  0  0  0  0  0  0  0  0
   -8.0530   18.3380  -32.4150 C   0  0  0  0  0  0  0  0  0  0  0  0
   -6.5850   18.1650  -32.8440 C   0  0  0  0  0  0  0  0  0  0  0  0
   -6.0990   19.3780  -33.6490 C   0  0  0  0  0  0  0  0  0  0  0  0
   -3.7160   23.2500  -30.7340 C   0  0  0  0  0  0  0  0  0  0  0  0
   -1.4550   20.9730  -30.0390 C   0  0  0  0  0  0  0  0  0  0  0  0
   -0.6550   20.5870  -31.1280 C   0  0  0  0  0  0  0  0  0  0  0  0
   -0.9100   21.1880  -32.4890 C   0  0  0  0  0  0  0  0  0  0  0  0
    2.1842   18.7731  -31.6487 H   0  0  0  0  0  0  0  0  0  0  0  0
    0.7419   18.4632  -32.6735 H   0  0  0  0  0  0  0  0  0  0  0  0
    1.5116   20.0862  -32.6735 H   0  0  0  0  0  0  0  0  0  0  0  0
    1.3393   18.3374  -29.4866 H   0  0  0  0  0  0  0  0  0  0  0  0
   -0.0782   19.0581  -27.5768 H   0  0  0  0  0  0  0  0  0  0  0  0
   -3.2850   22.7820  -28.2950 H   0  0  0  0  0  0  0  0  0  0  0  0
   -1.1852   24.1005  -26.8808 H   0  0  0  0  0  0  0  0  0  0  0  0
   -0.5583   22.7567  -27.9230 H   0  0  0  0  0  0  0  0  0  0  0  0
   -5.0730   26.2215  -29.7114 H   0  0  0  0  0  0  0  0  0  0  0  0
   -6.9550   25.3840  -31.1200 H   0  0  0  0  0  0  0  0  0  0  0  0
   -6.7808   23.1701  -32.2610 H   0  0  0  0  0  0  0  0  0  0  0  0
   -6.7146   20.2027  -30.8986 H   0  0  0  0  0  0  0  0  0  0  0  0
   -7.5109   21.6710  -31.5982 H   0  0  0  0  0  0  0  0  0  0  0  0
   -9.1425   19.8516  -31.3194 H   0  0  0  0  0  0  0  0  0  0  0  0
   -8.8675   20.2231  -33.0691 H   0  0  0  0  0  0  0  0  0  0  0  0
   -8.2205   17.7620  -31.4929 H   0  0  0  0  0  0  0  0  0  0  0  0
   -8.6851   17.9776  -33.2400 H   0  0  0  0  0  0  0  0  0  0  0  0
   -5.9588   18.0550  -31.9464 H   0  0  0  0  0  0  0  0  0  0  0  0
   -6.5094   17.2704  -33.4795 H   0  0  0  0  0  0  0  0  0  0  0  0
   -5.0447   19.2195  -33.9198 H   0  0  0  0  0  0  0  0  0  0  0  0
   -6.7424   19.4631  -34.5371 H   0  0  0  0  0  0  0  0  0  0  0  0
   -2.7888   22.6634  -30.6553 H   0  0  0  0  0  0  0  0  0  0  0  0
   -2.2679   21.6970  -30.1970 H   0  0  0  0  0  0  0  0  0  0  0  0
   -1.3372   22.1948  -32.3710 H   0  0  0  0  0  0  0  0  0  0  0  0
    0.0375   21.2544  -33.0439 H   0  0  0  0  0  0  0  0  0  0  0  0
   -1.6161   20.5528  -33.0439 H   0  0  0  0  0  0  0  0  0  0  0  0
  1  2  1  0
  2  3  2  0
  3  4  1  0
  4  5  2  0
  5  6  1  0
  6  7  2  0
  6  8  2  0
  6  9  1  0
  9 10  1  0
 10 11  1  0
 11 12  2  0
 11 13  1  0
 13 14  1  0
 14 15  2  0
 15 16  1  0
 16 17  2  0
 17 18  1  0
 18 19  1  0
 19 20  2  0
 19 21  2  0
 19 22  1  0
 22 23  1  0
 23 24  1  0
 24 25  1  0
 25 26  1  0
 26 27  1  0
 18 28  2  0
  5 29  1  0
 29 30  2  0
 30 31  1  0
 30  2  1  0
 28 14  1  0
 27 22  1  0
  1 32  1  0
  1 33  1  0
  1 34  1  0
  3 35  1  0
  4 36  1  0
  9 37  1  0
 10 38  1  0
 10 39  1  0
 15 40  1  0
 16 41  1  0
 17 42  1  0
 23 43  1  0
 23 44  1  0
 24 45  1  0
 24 46  1  0
 25 47  1  0
 25 48  1  0
 26 49  1  0
 26 50  1  0
 27 51  1  0
 27 52  1  0
 28 53  1  0
 29 54  1  0
 31 55  1  0
 31 56  1  0
 31 57  1  0
M  CHG  1  13  -1
M  END
>  <UniqueID>  (24) 
23

>  <SMILES>  (24) 
Cc1ccc(S(=O)(=O)NCC(=O)[N-]c2cccc(S(=O)(=O)N3CCCCC3)c2)cc1C

>  <Energy>  (24) 
65.11437187608072

>  <Genealogy>  (24) 
Cc1ccc(S(=O)(=O)NCC(=O)[N-]c2cccc(S(=O)(=O)N3CCCCC3)c2)cc1C (protonated)
Cc1ccc(S(=O)(=O)NCC(=O)[N-]c2cccc(S(=O)(=O)N3CCCCC3)c2)cc1C (3D coordinates assigned)
Cc1ccc(S(=O)(=O)NCC(=O)[N-]c2cccc(S(=O)(=O)N3CCCCC3)c2)cc1C (nonaromatic ring conformer: 65.11437187608072 kcal/mol)

>  <smiles>  (24) 
Cc1ccc(S(=O)(=O)NCC(=O)Nc2cccc(S(=O)(=O)N3CCCCC3)c2)cc1C

>  <score_type>  (24) 
oracle

>  <origin>  (24) 
adgpu

>  <m_score__min__energy>  (24) 
-12.26

>  <m_primary>  (24) 
energy

$$$$
24:0
     RDKit          3D

 44 46  0  0  0  0  0  0  0  0999 V2000
   -3.5660   16.6420  -35.3790 C   0  0  0  0  0  0  0  0  0  0  0  0
   -4.6350   17.3110  -34.5720 C   0  0  0  0  0  0  0  0  0  0  0  0
   -4.3570   18.4860  -33.8660 C   0  0  0  0  0  0  0  0  0  0  0  0
   -5.3830   19.0810  -33.1150 C   0  0  0  0  0  0  0  0  0  0  0  0
   -5.1630   20.3300  -32.3370 C   0  0  0  0  0  0  0  0  0  0  0  0
   -3.9060   20.9630  -32.2970 C   0  0  0  0  0  0  0  0  0  0  0  0
   -3.7210   22.1310  -31.5530 C   0  0  0  0  0  0  0  0  0  0  0  0
   -4.7820   22.6830  -30.8230 C   0  0  0  0  0  0  0  0  0  0  0  0
   -4.5400   24.1440  -29.8650 S   0  0  0  0  0  0  0  0  0  0  0  0
   -5.8530   24.8590  -29.7110 O   0  0  0  0  0  0  0  0  0  0  0  0
   -3.5920   25.0810  -30.5590 O   0  0  0  0  0  0  0  0  0  0  0  0
   -3.9670   23.7280  -28.2800 N   0  0  0  0  0  0  0  0  0  0  0  0
   -3.1570   22.6070  -27.8940 C   0  0  0  0  0  0  0  0  0  0  0  0
   -3.4970   21.2850  -28.2470 C   0  0  0  0  0  0  0  0  0  0  0  0
   -2.6750   20.2190  -27.8770 C   0  0  0  0  0  0  0  0  0  0  0  0
   -1.5000   20.4530  -27.1630 C   0  0  0  0  0  0  0  0  0  0  0  0
   -1.1490   21.7540  -26.8060 C   0  0  0  0  0  0  0  0  0  0  0  0
   -1.9720   22.8380  -27.1540 C   0  0  0  0  0  0  0  0  0  0  0  0
   -1.5420   24.2330  -26.7680 C   0  0  0  0  0  0  0  0  0  0  0  0
   -1.0470   24.9800  -27.9680 C   0  0  0  0  0  0  0  0  0  0  0  0
   -1.9670   25.5540  -28.8950 N   0  0  0  0  0  0  0  0  0  0  0  0
    0.1900   25.0870  -28.1710 O   0  0  0  0  0  0  0  0  0  0  0  0
   -6.0320   22.0500  -30.8450 C   0  0  0  0  0  0  0  0  0  0  0  0
   -6.2210   20.8860  -31.5950 C   0  0  0  0  0  0  0  0  0  0  0  0
   -6.6170   18.5050  -33.1150 N   0  0  0  0  0  0  0  0  0  0  0  0
   -6.8710   17.3680  -33.8100 C   0  0  0  0  0  0  0  0  0  0  0  0
   -5.8850   16.7790  -34.5310 N   0  0  0  0  0  0  0  0  0  0  0  0
   -2.8303   16.1816  -34.7031 H   0  0  0  0  0  0  0  0  0  0  0  0
   -4.0176   15.8651  -36.0134 H   0  0  0  0  0  0  0  0  0  0  0  0
   -3.0647   17.3878  -36.0134 H   0  0  0  0  0  0  0  0  0  0  0  0
   -3.3535   18.9353  -33.8986 H   0  0  0  0  0  0  0  0  0  0  0  0
   -3.0618   20.5340  -32.8567 H   0  0  0  0  0  0  0  0  0  0  0  0
   -2.7360   22.6204  -31.5402 H   0  0  0  0  0  0  0  0  0  0  0  0
   -4.4170   21.0921  -28.8183 H   0  0  0  0  0  0  0  0  0  0  0  0
   -2.9551   19.1908  -28.1496 H   0  0  0  0  0  0  0  0  0  0  0  0
   -0.8504   19.6111  -26.8816 H   0  0  0  0  0  0  0  0  0  0  0  0
   -0.2190   21.9335  -26.2466 H   0  0  0  0  0  0  0  0  0  0  0  0
   -2.3995   24.7696  -26.3359 H   0  0  0  0  0  0  0  0  0  0  0  0
   -0.7280   24.1634  -26.0314 H   0  0  0  0  0  0  0  0  0  0  0  0
   -1.6150   26.0720  -29.7310 H   0  0  0  0  0  0  0  0  0  0  0  0
   -2.9950   25.4940  -28.7340 H   0  0  0  0  0  0  0  0  0  0  0  0
   -6.8689   22.4715  -30.2689 H   0  0  0  0  0  0  0  0  0  0  0  0
   -7.2075   20.3994  -31.6052 H   0  0  0  0  0  0  0  0  0  0  0  0
   -7.8771   16.9237  -33.7887 H   0  0  0  0  0  0  0  0  0  0  0  0
  1  2  1  0
  2  3  2  0
  3  4  1  0
  4  5  1  0
  5  6  2  0
  6  7  1  0
  7  8  2  0
  8  9  1  0
  9 10  2  0
  9 11  2  0
  9 12  1  0
 12 13  1  0
 13 14  2  0
 14 15  1  0
 15 16  2  0
 16 17  1  0
 17 18  2  0
 18 19  1  0
 19 20  1  0
 20 21  1  0
 20 22  2  0
  8 23  1  0
 23 24  2  0
  4 25  2  0
 25 26  1  0
 26 27  2  0
 27  2  1  0
 24  5  1  0
 18 13  1  0
  1 28  1  0
  1 29  1  0
  1 30  1  0
  3 31  1  0
  6 32  1  0
  7 33  1  0
 14 34  1  0
 15 35  1  0
 16 36  1  0
 17 37  1  0
 19 38  1  0
 19 39  1  0
 21 40  1  0
 21 41  1  0
 23 42  1  0
 24 43  1  0
 26 44  1  0
M  CHG  1  12  -1
M  END
>  <UniqueID>  (25) 
24

>  <SMILES>  (25) 
Cc1cc(-c2ccc(S(=O)(=O)[N-]c3ccccc3CC(N)=O)cc2)ncn1

>  <Energy>  (25) 
53.64132724829804

>  <Genealogy>  (25) 
Cc1cc(-c2ccc(S(=O)(=O)[N-]c3ccccc3CC(N)=O)cc2)ncn1 (protonated)
Cc1cc(-c2ccc(S(=O)(=O)[N-]c3ccccc3CC(N)=O)cc2)ncn1 (3D coordinates assigned)
Cc1cc(-c2ccc(S(=O)(=O)[N-]c3ccccc3CC(N)=O)cc2)ncn1 (optimized conformer: 53.64132724829804 kcal/mol)

>  <smiles>  (25) 
Cc1cc(-c2ccc(S(=O)(=O)Nc3ccccc3CC(N)=O)cc2)ncn1

>  <score_type>  (25) 
oracle

>  <origin>  (25) 
adgpu

>  <m_score__min__energy>  (25) 
-9.9199999999999999

>  <m_primary>  (25) 
energy

$$$$
25:0
     RDKit          3D

 57 59  0  0  0  0  0  0  0  0999 V2000
   -5.7370   17.1110  -34.4220 C   0  0  0  0  0  0  0  0  0  0  0  0
   -5.6760   18.6390  -34.5170 C   0  0  0  0  0  0  0  0  0  0  0  0
   -6.2330   19.3400  -33.3410 N   0  0  0  0  0  0  0  0  0  0  0  0
   -6.9090   18.4390  -32.3880 C   0  0  0  0  0  0  0  0  0  0  0  0
   -8.3940   18.7750  -32.2890 C   0  0  0  0  0  0  0  0  0  0  0  0
   -5.0920   20.4430  -32.5820 S   0  0  0  0  0  0  0  0  0  0  0  0
   -4.2480   19.6920  -31.5870 O   0  0  0  0  0  0  0  0  0  0  0  0
   -4.1680   20.9840  -33.6370 O   0  0  0  0  0  0  0  0  0  0  0  0
   -5.8530   21.8160  -31.7600 C   0  0  0  0  0  0  0  0  0  0  0  0
   -7.2150   21.7680  -31.4280 C   0  0  0  0  0  0  0  0  0  0  0  0
   -7.8220   22.8490  -30.7890 C   0  0  0  0  0  0  0  0  0  0  0  0
   -7.0820   23.9950  -30.4890 C   0  0  0  0  0  0  0  0  0  0  0  0
   -5.7220   24.0750  -30.8390 C   0  0  0  0  0  0  0  0  0  0  0  0
   -4.9340   25.2900  -30.5190 C   0  0  0  0  0  0  0  0  0  0  0  0
   -5.5140   26.4050  -30.4100 O   0  0  0  0  0  0  0  0  0  0  0  0
   -3.5090   25.2040  -30.3740 N   0  0  0  0  0  0  0  0  0  0  0  0
   -2.7970   24.4670  -29.3700 C   0  0  0  0  0  0  0  0  0  0  0  0
   -1.6220   23.7980  -29.7330 C   0  0  0  0  0  0  0  0  0  0  0  0
   -0.9120   23.0500  -28.7890 C   0  0  0  0  0  0  0  0  0  0  0  0
   -1.3830   22.9440  -27.4750 C   0  0  0  0  0  0  0  0  0  0  0  0
   -0.4890   21.9970  -26.2880 S   0  0  0  0  0  0  0  0  0  0  0  0
    0.9800   22.1960  -26.5320 O   0  0  0  0  0  0  0  0  0  0  0  0
   -0.8310   22.4710  -24.9020 O   0  0  0  0  0  0  0  0  0  0  0  0
   -0.8920   20.3010  -26.4500 N   0  0  0  0  0  0  0  0  0  0  0  0
   -0.2370   19.7250  -27.6320 C   0  0  0  0  0  0  0  0  0  0  0  0
   -1.2290   19.7460  -28.7890 C   0  0  0  0  0  0  0  0  0  0  0  0
   -2.5710   20.0900  -28.1750 C   0  0  0  0  0  0  0  0  0  0  0  0
   -2.3310   20.1330  -26.6760 C   0  0  0  0  0  0  0  0  0  0  0  0
   -2.5680   23.5970  -27.1110 C   0  0  0  0  0  0  0  0  0  0  0  0
   -3.2780   24.3470  -28.0540 C   0  0  0  0  0  0  0  0  0  0  0  0
   -5.1200   22.9820  -31.4890 C   0  0  0  0  0  0  0  0  0  0  0  0
   -5.7490   16.8096  -33.3642 H   0  0  0  0  0  0  0  0  0  0  0  0
   -6.6503   16.7490  -34.9168 H   0  0  0  0  0  0  0  0  0  0  0  0
   -4.8555   16.6774  -34.9168 H   0  0  0  0  0  0  0  0  0  0  0  0
   -4.6229   18.9362  -34.6294 H   0  0  0  0  0  0  0  0  0  0  0  0
   -6.2938   18.9278  -35.3801 H   0  0  0  0  0  0  0  0  0  0  0  0
   -6.7959   17.4000  -32.7310 H   0  0  0  0  0  0  0  0  0  0  0  0
   -6.4509   18.5653  -31.3960 H   0  0  0  0  0  0  0  0  0  0  0  0
   -8.6852   18.8409  -31.2303 H   0  0  0  0  0  0  0  0  0  0  0  0
   -8.5855   19.7392  -32.7827 H   0  0  0  0  0  0  0  0  0  0  0  0
   -8.9819   17.9872  -32.7827 H   0  0  0  0  0  0  0  0  0  0  0  0
   -7.8070   20.8738  -31.6727 H   0  0  0  0  0  0  0  0  0  0  0  0
   -8.8875   22.7988  -30.5203 H   0  0  0  0  0  0  0  0  0  0  0  0
   -7.5654   24.8396  -29.9762 H   0  0  0  0  0  0  0  0  0  0  0  0
   -1.2549   23.8613  -30.7680 H   0  0  0  0  0  0  0  0  0  0  0  0
    0.0199   22.5431  -29.0798 H   0  0  0  0  0  0  0  0  0  0  0  0
    0.6503   20.3207  -27.8924 H   0  0  0  0  0  0  0  0  0  0  0  0
    0.0792   18.6922  -27.4236 H   0  0  0  0  0  0  0  0  0  0  0  0
   -0.9394   20.5073  -29.5283 H   0  0  0  0  0  0  0  0  0  0  0  0
   -1.2594   18.7800  -29.3142 H   0  0  0  0  0  0  0  0  0  0  0  0
   -2.9201   21.0684  -28.5369 H   0  0  0  0  0  0  0  0  0  0  0  0
   -3.3439   19.3550  -28.4441 H   0  0  0  0  0  0  0  0  0  0  0  0
   -2.8790   20.9786  -26.2347 H   0  0  0  0  0  0  0  0  0  0  0  0
   -2.6846   19.2032  -26.2065 H   0  0  0  0  0  0  0  0  0  0  0  0
   -2.9414   23.5194  -26.0792 H   0  0  0  0  0  0  0  0  0  0  0  0
   -4.2156   24.8446  -27.7654 H   0  0  0  0  0  0  0  0  0  0  0  0
   -4.0632   23.0419  -31.7881 H   0  0  0  0  0  0  0  0  0  0  0  0
  1  2  1  0
  2  3  1  0
  3  4  1  0
  4  5  1  0
  3  6  1  0
  6  7  2  0
  6  8  2  0
  6  9  1  0
  9 10  2  0
 10 11  1  0
 11 12  2  0
 12 13  1  0
 13 14  1  0
 14 15  2  0
 14 16  1  0
 16 17  1  0
 17 18  2  0
 18 19  1  0
 19 20  2  0
 20 21  1  0
 21 22  2  0
 21 23  2  0
 21 24  1  0
 24 25  1  0
 25 26  1  0
 26 27  1  0
 27 28  1  0
 20 29  1  0
 29 30  2  0
 13 31  2  0
 31  9  1  0
 30 17  1  0
 28 24  1  0
  1 32  1  0
  1 33  1  0
  1 34  1  0
  2 35  1  0
  2 36  1  0
  4 37  1  0
  4 38  1  0
  5 39  1  0
  5 40  1  0
  5 41  1  0
 10 42  1  0
 11 43  1  0
 12 44  1  0
 18 45  1  0
 19 46  1  0
 25 47  1  0
 25 48  1  0
 26 49  1  0
 26 50  1  0
 27 51  1  0
 27 52  1  0
 28 53  1  0
 28 54  1  0
 29 55  1  0
 30 56  1  0
 31 57  1  0
M  CHG  1  16  -1
M  END
>  <UniqueID>  (26) 
25

>  <SMILES>  (26) 
CCN(CC)S(=O)(=O)c1cccc(C(=O)[N-]c2ccc(S(=O)(=O)N3CCCC3)cc2)c1

>  <Energy>  (26) 
63.910517222542055

>  <Genealogy>  (26) 
CCN(CC)S(=O)(=O)c1cccc(C(=O)[N-]c2ccc(S(=O)(=O)N3CCCC3)cc2)c1 (protonated)
CCN(CC)S(=O)(=O)c1cccc(C(=O)[N-]c2ccc(S(=O)(=O)N3CCCC3)cc2)c1 (3D coordinates assigned)
CCN(CC)S(=O)(=O)c1cccc(C(=O)[N-]c2ccc(S(=O)(=O)N3CCCC3)cc2)c1 (nonaromatic ring conformer: 63.910517222542055 kcal/mol)

>  <smiles>  (26) 
CCN(CC)S(=O)(=O)c1cccc(C(=O)Nc2ccc(S(=O)(=O)N3CCCC3)cc2)c1

>  <score_type>  (26) 
oracle

>  <origin>  (26) 
adgpu

>  <m_score__min__energy>  (26) 
-11.460000000000001

>  <m_primary>  (26) 
energy

$$$$
26:0
     RDKit          3D

 68 72  0  0  0  0  0  0  0  0999 V2000
   -3.7180   24.1970  -28.0750 C   0  0  0  0  0  0  0  0  0  0  0  0
   -4.2250   24.5670  -29.4060 N   0  0  0  0  0  0  0  0  0  0  0  0
   -5.6910   24.7640  -29.3630 C   0  0  0  0  0  0  0  0  0  0  0  0
   -6.2970   24.7130  -30.7740 C   0  0  0  0  0  0  0  0  0  0  0  0
   -6.0420   23.4210  -31.4560 N   0  0  0  0  0  0  0  0  0  0  0  0
   -7.4770   22.4220  -31.4730 S   0  0  0  0  0  0  0  0  0  0  0  0
   -8.5400   23.0630  -32.3210 O   0  0  0  0  0  0  0  0  0  0  0  0
   -8.0090   22.2630  -30.0750 O   0  0  0  0  0  0  0  0  0  0  0  0
   -7.0730   20.8290  -32.1090 C   0  0  0  0  0  0  0  0  0  0  0  0
   -6.1780   20.7150  -33.1800 C   0  0  0  0  0  0  0  0  0  0  0  0
   -5.8570   19.4570  -33.6980 C   0  0  0  0  0  0  0  0  0  0  0  0
   -6.4420   18.3030  -33.1560 C   0  0  0  0  0  0  0  0  0  0  0  0
   -6.0510   16.7100  -33.7980 S   0  0  0  0  0  0  0  0  0  0  0  0
   -5.7530   15.7390  -32.6870 O   0  0  0  0  0  0  0  0  0  0  0  0
   -7.2360   16.1960  -34.5690 O   0  0  0  0  0  0  0  0  0  0  0  0
   -4.6890   16.8190  -34.8610 N   0  0  0  0  0  0  0  0  0  0  0  0
   -3.3720   17.1790  -34.4340 C   0  0  0  0  0  0  0  0  0  0  0  0
   -3.0480   18.4180  -33.9020 C   0  0  0  0  0  0  0  0  0  0  0  0
   -1.6920   18.3470  -33.6420 C   0  0  0  0  0  0  0  0  0  0  0  0
   -0.8050   19.2960  -33.1170 C   0  0  0  0  0  0  0  0  0  0  0  0
   -1.3460   20.9170  -32.6900 S   0  0  0  0  0  0  0  0  0  0  0  0
   -0.4810   21.9210  -33.4000 O   0  0  0  0  0  0  0  0  0  0  0  0
   -2.7730   21.1290  -33.1090 O   0  0  0  0  0  0  0  0  0  0  0  0
   -1.2320   21.1150  -30.9440 C   0  0  0  0  0  0  0  0  0  0  0  0
   -1.5330   20.0520  -30.0790 C   0  0  0  0  0  0  0  0  0  0  0  0
   -1.4860   20.2410  -28.6950 C   0  0  0  0  0  0  0  0  0  0  0  0
   -1.1330   21.4860  -28.1680 C   0  0  0  0  0  0  0  0  0  0  0  0
   -0.8200   22.5500  -29.0250 C   0  0  0  0  0  0  0  0  0  0  0  0
   -0.3980   24.1290  -28.3700 S   0  0  0  0  0  0  0  0  0  0  0  0
   -1.2010   25.3590  -29.2820 N   0  0  0  0  0  0  0  0  0  0  0  0
    1.0900   24.3270  -28.4480 O   0  0  0  0  0  0  0  0  0  0  0  0
   -0.8220   24.2170  -26.9300 O   0  0  0  0  0  0  0  0  0  0  0  0
   -0.8750   22.3620  -30.4130 C   0  0  0  0  0  0  0  0  0  0  0  0
    0.5460   18.9160  -32.9750 C   0  0  0  0  0  0  0  0  0  0  0  0
    0.9730   17.6240  -33.3570 C   0  0  0  0  0  0  0  0  0  0  0  0
    0.0590   16.6970  -33.8860 C   0  0  0  0  0  0  0  0  0  0  0  0
   -1.2720   17.0940  -34.0150 C   0  0  0  0  0  0  0  0  0  0  0  0
   -2.2910   16.3670  -34.5030 N   0  0  0  0  0  0  0  0  0  0  0  0
   -7.3450   18.4180  -32.0930 C   0  0  0  0  0  0  0  0  0  0  0  0
   -7.6570   19.6750  -31.5680 C   0  0  0  0  0  0  0  0  0  0  0  0
   -4.9090   22.6610  -30.8880 C   0  0  0  0  0  0  0  0  0  0  0  0
   -3.7810   23.6030  -30.4460 C   0  0  0  0  0  0  0  0  0  0  0  0
   -4.3494   24.6578  -27.3010 H   0  0  0  0  0  0  0  0  0  0  0  0
   -3.7423   23.1028  -27.9645 H   0  0  0  0  0  0  0  0  0  0  0  0
   -2.6834   24.5538  -27.9645 H   0  0  0  0  0  0  0  0  0  0  0  0
   -6.1424   23.9706  -28.7492 H   0  0  0  0  0  0  0  0  0  0  0  0
   -5.8982   25.7533  -28.9290 H   0  0  0  0  0  0  0  0  0  0  0  0
   -7.3841   24.8623  -30.6965 H   0  0  0  0  0  0  0  0  0  0  0  0
   -5.8211   25.5052  -31.3706 H   0  0  0  0  0  0  0  0  0  0  0  0
   -5.7260   21.6185  -33.6151 H   0  0  0  0  0  0  0  0  0  0  0  0
   -5.1446   19.3719  -34.5318 H   0  0  0  0  0  0  0  0  0  0  0  0
   -3.7215   19.2696  -33.7257 H   0  0  0  0  0  0  0  0  0  0  0  0
   -1.8062   19.0691  -30.4905 H   0  0  0  0  0  0  0  0  0  0  0  0
   -1.7275   19.4076  -28.0189 H   0  0  0  0  0  0  0  0  0  0  0  0
   -1.1007   21.6314  -27.0781 H   0  0  0  0  0  0  0  0  0  0  0  0
   -2.0500   24.9220  -29.7030 H   0  0  0  0  0  0  0  0  0  0  0  0
   -0.5710   25.6140  -30.0740 H   0  0  0  0  0  0  0  0  0  0  0  0
   -0.6369   23.1969  -31.0885 H   0  0  0  0  0  0  0  0  0  0  0  0
    1.2733   19.6313  -32.5635 H   0  0  0  0  0  0  0  0  0  0  0  0
    2.0296   17.3417  -33.2392 H   0  0  0  0  0  0  0  0  0  0  0  0
    0.3828   15.6903  -34.1888 H   0  0  0  0  0  0  0  0  0  0  0  0
   -2.2440   15.3900  -34.8630 H   0  0  0  0  0  0  0  0  0  0  0  0
   -7.8107   17.5160  -31.6693 H   0  0  0  0  0  0  0  0  0  0  0  0
   -8.3625   19.7592  -30.7283 H   0  0  0  0  0  0  0  0  0  0  0  0
   -5.2607   22.0878  -30.0175 H   0  0  0  0  0  0  0  0  0  0  0  0
   -4.5175   21.9848  -31.6622 H   0  0  0  0  0  0  0  0  0  0  0  0
   -2.9556   23.0000  -30.0398 H   0  0  0  0  0  0  0  0  0  0  0  0
   -3.4618   24.1811  -31.3257 H   0  0  0  0  0  0  0  0  0  0  0  0
  1  2  1  0
  2  3  1  0
  3  4  1  0
  4  5  1  0
  5  6  1  0
  6  7  2  0
  6  8  2  0
  6  9  1  0
  9 10  2  0
 10 11  1  0
 11 12  2  0
 12 13  1  0
 13 14  2  0
 13 15  2  0
 13 16  1  0
 16 17  1  0
 17 18  2  0
 18 19  1  0
 19 20  2  0
 20 21  1  0
 21 22  2  0
 21 23  2  0
 21 24  1  0
 24 25  2  0
 25 26  1  0
 26 27  2  0
 27 28  1  0
 28 29  1  0
 29 30  1  0
 29 31  2  0
 29 32  2  0
 28 33  2  0
 20 34  1  0
 34 35  2  0
 35 36  1  0
 36 37  2  0
 37 38  1  0
 12 39  1  0
 39 40  2  0
  5 41  1  0
 41 42  1  0
 42  2  1  0
 40  9  1  0
 38 17  1  0
 37 19  1  0
 33 24  1  0
  1 43  1  0
  1 44  1  0
  1 45  1  0
  3 46  1  0
  3 47  1  0
  4 48  1  0
  4 49  1  0
 10 50  1  0
 11 51  1  0
 18 52  1  0
 25 53  1  0
 26 54  1  0
 27 55  1  0
 30 56  1  0
 30 57  1  0
 33 58  1  0
 34 59  1  0
 35 60  1  0
 36 61  1  0
 38 62  1  0
 39 63  1  0
 40 64  1  0
 41 65  1  0
 41 66  1  0
 42 67  1  0
 42 68  1  0
M  CHG  1  16  -1
M  END
>  <UniqueID>  (27) 
26

>  <SMILES>  (27) 
CN1CCN(S(=O)(=O)c2ccc(S(=O)(=O)[N-]c3cc4c(S(=O)(=O)c5cccc(S(N)(=O)=O)c5)cccc4[nH]3)cc2)CC1

>  <Energy>  (27) 
118.22486815188512

>  <Genealogy>  (27) 
CN1CCN(S(=O)(=O)c2ccc(S(=O)(=O)[N-]c3cc4c(S(=O)(=O)c5cccc(S(N)(=O)=O)c5)cccc4[nH]3)cc2)CC1 (protonated)
CN1CCN(S(=O)(=O)c2ccc(S(=O)(=O)[N-]c3cc4c(S(=O)(=O)c5cccc(S(N)(=O)=O)c5)cccc4[nH]3)cc2)CC1 (3D coordinates assigned)
CN1CCN(S(=O)(=O)c2ccc(S(=O)(=O)[N-]c3cc4c(S(=O)(=O)c5cccc(S(N)(=O)=O)c5)cccc4[nH]3)cc2)CC1 (nonaromatic ring conformer: 118.22486815188512 kcal/mol)

>  <smiles>  (27) 
CN1CCN(S(=O)(=O)c2ccc(S(=O)(=O)Nc3cc4c(S(=O)(=O)c5cccc(S(N)(=O)=O)c5)cccc4[nH]3)cc2)CC1

>  <score_type>  (27) 
oracle

>  <origin>  (27) 
adgpu

>  <m_score__min__energy>  (27) 
-12.6

>  <m_primary>  (27) 
energy

$$$$
27:0
     RDKit          3D

 55 58  0  0  0  0  0  0  0  0999 V2000
   -2.9949   20.5213  -27.3039 H   0  0  0  0  0  0  0  0  0  0  0  0
   -2.1800   19.9830  -27.8100 C   0  0  0  0  0  0  0  0  0  0  0  0
   -1.4780   18.9900  -27.1270 C   0  0  0  0  0  0  0  0  0  0  0  0
   -1.7253   18.7687  -26.0782 H   0  0  0  0  0  0  0  0  0  0  0  0
   -0.4560   18.2700  -27.7710 C   0  0  0  0  0  0  0  0  0  0  0  0
    0.2950   17.2380  -27.1010 N   0  0  0  0  0  0  0  0  0  0  0  0
   -0.1730   16.6830  -26.3500 H   0  0  0  0  0  0  0  0  0  0  0  0
    1.9630   16.8740  -27.4070 S   0  0  0  0  0  0  0  0  0  0  0  0
    2.6930   18.1540  -27.7050 O   0  0  0  0  0  0  0  0  0  0  0  0
    2.5860   16.2380  -26.1960 O   0  0  0  0  0  0  0  0  0  0  0  0
    2.1080   15.7990  -28.8200 C   0  0  0  0  0  0  0  0  0  0  0  0
    2.2478   14.7625  -28.4793 H   0  0  0  0  0  0  0  0  0  0  0  0
    1.1928   15.8653  -29.4266 H   0  0  0  0  0  0  0  0  0  0  0  0
    2.9729   16.1054  -29.4266 H   0  0  0  0  0  0  0  0  0  0  0  0
   -0.1570   18.5660  -29.1100 C   0  0  0  0  0  0  0  0  0  0  0  0
    0.6342   18.0018  -29.6255 H   0  0  0  0  0  0  0  0  0  0  0  0
   -0.8520   19.5710  -29.8020 C   0  0  0  0  0  0  0  0  0  0  0  0
   -0.5260   19.8460  -31.1780 N   0  0  0  0  0  0  0  0  0  0  0  0
   -0.4940   18.7700  -32.1690 C   0  0  0  0  0  0  0  0  0  0  0  0
   -0.4651   17.7983  -31.6543 H   0  0  0  0  0  0  0  0  0  0  0  0
   -1.3942   18.8247  -32.7988 H   0  0  0  0  0  0  0  0  0  0  0  0
    0.4013   18.8781  -32.7988 H   0  0  0  0  0  0  0  0  0  0  0  0
   -0.1110   21.1960  -31.5630 C   0  0  0  0  0  0  0  0  0  0  0  0
    0.0731   21.7949  -30.6589 H   0  0  0  0  0  0  0  0  0  0  0  0
    0.8114   21.1399  -32.1597 H   0  0  0  0  0  0  0  0  0  0  0  0
   -0.9056   21.6677  -32.1597 H   0  0  0  0  0  0  0  0  0  0  0  0
   -1.8550   20.3010  -29.1380 C   0  0  0  0  0  0  0  0  0  0  0  0
   -2.6400   21.2610  -29.8600 N   0  0  0  0  0  0  0  0  0  0  0  0
   -2.6720   22.5690  -29.7840 C   0  0  0  0  0  0  0  0  0  0  0  0
   -3.7830   23.2280  -30.3660 C   0  0  0  0  0  0  0  0  0  0  0  0
   -4.7360   22.5370  -31.1490 C   0  0  0  0  0  0  0  0  0  0  0  0
   -4.6030   21.4636  -31.3493 H   0  0  0  0  0  0  0  0  0  0  0  0
   -5.8450   23.2070  -31.6700 C   0  0  0  0  0  0  0  0  0  0  0  0
   -6.5751   22.6612  -32.2856 H   0  0  0  0  0  0  0  0  0  0  0  0
   -6.0310   24.5660  -31.4130 C   0  0  0  0  0  0  0  0  0  0  0  0
   -6.9075   25.0885  -31.8237 H   0  0  0  0  0  0  0  0  0  0  0  0
   -5.1050   25.2620  -30.6350 C   0  0  0  0  0  0  0  0  0  0  0  0
   -5.2561   26.3320  -30.4294 H   0  0  0  0  0  0  0  0  0  0  0  0
   -3.9840   24.6030  -30.1150 C   0  0  0  0  0  0  0  0  0  0  0  0
   -3.1000   25.2940  -29.3570 N   0  0  0  0  0  0  0  0  0  0  0  0
   -1.9730   24.7280  -28.8620 C   0  0  0  0  0  0  0  0  0  0  0  0
   -1.0740   25.5310  -28.1490 C   0  0  0  0  0  0  0  0  0  0  0  0
   -1.3403   26.5725  -27.9159 H   0  0  0  0  0  0  0  0  0  0  0  0
    0.1640   25.0190  -27.7290 C   0  0  0  0  0  0  0  0  0  0  0  0
    1.1090   25.8220  -26.9970 N   0  0  0  0  0  0  0  0  0  0  0  0
    2.1150   25.5390  -26.9930 H   0  0  0  0  0  0  0  0  0  0  0  0
    0.7400   27.0130  -26.2390 C   0  0  0  0  0  0  0  0  0  0  0  0
    0.8067   26.7977  -25.1623 H   0  0  0  0  0  0  0  0  0  0  0  0
    1.4255   27.8354  -26.4916 H   0  0  0  0  0  0  0  0  0  0  0  0
   -0.2904   27.3038  -26.4916 H   0  0  0  0  0  0  0  0  0  0  0  0
    0.5010   23.7050  -28.0720 C   0  0  0  0  0  0  0  0  0  0  0  0
    1.4843   23.3042  -27.7846 H   0  0  0  0  0  0  0  0  0  0  0  0
   -0.3940   22.8960  -28.7740 C   0  0  0  0  0  0  0  0  0  0  0  0
   -0.0897   21.8808  -29.0687 H   0  0  0  0  0  0  0  0  0  0  0  0
   -1.6850   23.3610  -29.1120 C   0  0  0  0  0  0  0  0  0  0  0  0
  1  2  1  0
  2  3  2  0
  3  4  1  0
  3  5  1  0
  5  6  1  0
  6  7  1  0
  6  8  1  0
  8  9  2  0
  8 10  2  0
  8 11  1  0
 11 12  1  0
 11 13  1  0
 11 14  1  0
  5 15  2  0
 15 16  1  0
 15 17  1  0
 17 18  1  0
 18 19  1  0
 19 20  1  0
 19 21  1  0
 19 22  1  0
 18 23  1  0
 23 24  1  0
 23 25  1  0
 23 26  1  0
 17 27  2  0
 27 28  1  0
 28 29  2  0
 29 30  1  0
 30 31  2  0
 31 32  1  0
 31 33  1  0
 33 34  1  0
 33 35  2  0
 35 36  1  0
 35 37  1  0
 37 38  1  0
 37 39  2  0
 39 40  1  0
 40 41  1  0
 41 42  2  0
 42 43  1  0
 42 44  1  0
 44 45  1  0
 45 46  1  0
 45 47  1  0
 47 48  1  0
 47 49  1  0
 47 50  1  0
 44 51  2  0
 51 52  1  0
 51 53  1  0
 53 54  1  0
 53 55  2  0
 27  2  1  0
 55 29  1  0
 39 30  1  0
 55 41  1  0
M  CHG  1  40  -1
M  END
>  <UniqueID>  (28) 
27

>  <SMILES>  (28) 
CNc1ccc2/c(=N\c3ccc(NS(C)(=O)=O)cc3N(C)C)c3ccccc3[n-]c2c1

>  <Energy>  (28) 
86.50958241478449

>  <Genealogy>  (28) 
CNc1ccc2c(=Nc3ccc(NS(C)(=O)=O)cc3N(C)C)c3ccccc3[n-]c2c1 (protonated)
CNc1ccc2/c(=N\c3ccc(NS(C)(=O)=O)cc3N(C)C)c3ccccc3[n-]c2c1 (cis-trans isomerization)
CNc1ccc2/c(=N\c3ccc(NS(C)(=O)=O)cc3N(C)C)c3ccccc3[n-]c2c1 (3D coordinates assigned)
CNc1ccc2/c(=N\c3ccc(NS(C)(=O)=O)cc3N(C)C)c3ccccc3[n-]c2c1 (optimized conformer: 86.50958241478449 kcal/mol)

>  <smiles>  (28) 
CNc1ccc2c(=Nc3ccc(NS(C)(=O)=O)cc3N(C)C)c3ccccc3[nH]c2c1

>  <score_type>  (28) 
oracle

>  <origin>  (28) 
adgpu

>  <m_score__min__energy>  (28) 
-9.4800000000000004

>  <m_primary>  (28) 
energy

$$$$
28:0
     RDKit          3D

 51 53  0  0  0  0  0  0  0  0999 V2000
   -0.9920   19.9430  -33.4270 C   0  0  0  0  0  0  0  0  0  0  0  0
   -1.4490   20.7130  -32.2170 C   0  0  0  0  0  0  0  0  0  0  0  0
   -0.6900   20.6520  -31.0350 C   0  0  0  0  0  0  0  0  0  0  0  0
   -1.0940   21.3460  -29.8920 C   0  0  0  0  0  0  0  0  0  0  0  0
   -2.2630   22.1110  -29.9110 C   0  0  0  0  0  0  0  0  0  0  0  0
   -2.7660   23.0270  -28.4930 S   0  0  0  0  0  0  0  0  0  0  0  0
   -2.3250   22.2890  -27.2600 O   0  0  0  0  0  0  0  0  0  0  0  0
   -2.1470   24.3970  -28.4830 O   0  0  0  0  0  0  0  0  0  0  0  0
   -4.4970   23.1730  -28.4790 N   0  0  0  0  0  0  0  0  0  0  0  0
   -5.3140   23.4530  -29.6250 C   0  0  0  0  0  0  0  0  0  0  0  0
   -6.4430   22.6730  -29.9390 C   0  0  0  0  0  0  0  0  0  0  0  0
   -7.2090   22.9540  -31.0780 C   0  0  0  0  0  0  0  0  0  0  0  0
   -8.5860   21.9210  -31.4910 S   0  0  0  0  0  0  0  0  0  0  0  0
   -9.2820   21.4940  -30.2290 O   0  0  0  0  0  0  0  0  0  0  0  0
   -9.5660   22.7040  -32.3160 O   0  0  0  0  0  0  0  0  0  0  0  0
   -8.0730   20.4990  -32.3750 N   0  0  0  0  0  0  0  0  0  0  0  0
   -8.4700   19.2720  -31.6460 C   0  0  0  0  0  0  0  0  0  0  0  0
   -7.7380   18.0390  -32.1860 C   0  0  0  0  0  0  0  0  0  0  0  0
   -6.2120   18.1740  -32.0170 C   0  0  0  0  0  0  0  0  0  0  0  0
   -5.7540   19.6370  -31.8800 C   0  0  0  0  0  0  0  0  0  0  0  0
   -6.6330   20.5680  -32.7320 C   0  0  0  0  0  0  0  0  0  0  0  0
   -6.8600   24.0300  -31.8990 C   0  0  0  0  0  0  0  0  0  0  0  0
   -5.7400   24.8100  -31.5960 C   0  0  0  0  0  0  0  0  0  0  0  0
   -4.9640   24.5220  -30.4640 C   0  0  0  0  0  0  0  0  0  0  0  0
   -3.8430   25.2940  -30.1670 O   0  0  0  0  0  0  0  0  0  0  0  0
   -3.0330   22.1700  -31.0790 C   0  0  0  0  0  0  0  0  0  0  0  0
   -2.6490   21.4640  -32.2310 C   0  0  0  0  0  0  0  0  0  0  0  0
   -3.5010   21.5620  -33.4700 C   0  0  0  0  0  0  0  0  0  0  0  0
   -0.4552   19.0385  -33.1048 H   0  0  0  0  0  0  0  0  0  0  0  0
   -1.8658   19.6555  -34.0302 H   0  0  0  0  0  0  0  0  0  0  0  0
   -0.3211   20.5723  -34.0302 H   0  0  0  0  0  0  0  0  0  0  0  0
    0.2314   20.0516  -31.0101 H   0  0  0  0  0  0  0  0  0  0  0  0
   -0.4901   21.2901  -28.9743 H   0  0  0  0  0  0  0  0  0  0  0  0
   -6.7263   21.8356  -29.2844 H   0  0  0  0  0  0  0  0  0  0  0  0
   -8.2266   19.3944  -30.5803 H   0  0  0  0  0  0  0  0  0  0  0  0
   -9.5507   19.1213  -31.7849 H   0  0  0  0  0  0  0  0  0  0  0  0
   -8.0818   17.1496  -31.6376 H   0  0  0  0  0  0  0  0  0  0  0  0
   -7.9612   17.9454  -33.2590 H   0  0  0  0  0  0  0  0  0  0  0  0
   -5.9085   17.6247  -31.1136 H   0  0  0  0  0  0  0  0  0  0  0  0
   -5.7410   17.7630  -32.9221 H   0  0  0  0  0  0  0  0  0  0  0  0
   -5.8255   19.9397  -30.8249 H   0  0  0  0  0  0  0  0  0  0  0  0
   -4.7147   19.7149  -32.2318 H   0  0  0  0  0  0  0  0  0  0  0  0
   -6.2866   21.6024  -32.5906 H   0  0  0  0  0  0  0  0  0  0  0  0
   -6.5388   20.2409  -33.7780 H   0  0  0  0  0  0  0  0  0  0  0  0
   -7.4679   24.2636  -32.7855 H   0  0  0  0  0  0  0  0  0  0  0  0
   -5.4665   25.6527  -32.2479 H   0  0  0  0  0  0  0  0  0  0  0  0
   -3.4290   25.2930  -29.2430 H   0  0  0  0  0  0  0  0  0  0  0  0
   -3.9503   22.7769  -31.0946 H   0  0  0  0  0  0  0  0  0  0  0  0
   -4.5555   21.6833  -33.1812 H   0  0  0  0  0  0  0  0  0  0  0  0
   -3.1821   22.4294  -34.0666 H   0  0  0  0  0  0  0  0  0  0  0  0
   -3.3874   20.6449  -34.0666 H   0  0  0  0  0  0  0  0  0  0  0  0
  1  2  1  0
  2  3  2  0
  3  4  1  0
  4  5  2  0
  5  6  1  0
  6  7  2  0
  6  8  2  0
  6  9  1  0
  9 10  1  0
 10 11  2  0
 11 12  1  0
 12 13  1  0
 13 14  2  0
 13 15  2  0
 13 16  1  0
 16 17  1  0
 17 18  1  0
 18 19  1  0
 19 20  1  0
 20 21  1  0
 12 22  2  0
 22 23  1  0
 23 24  2  0
 24 25  1  0
  5 26  1  0
 26 27  2  0
 27 28  1  0
 27  2  1  0
 24 10  1  0
 21 16  1  0
  1 29  1  0
  1 30  1  0
  1 31  1  0
  3 32  1  0
  4 33  1  0
 11 34  1  0
 17 35  1  0
 17 36  1  0
 18 37  1  0
 18 38  1  0
 19 39  1  0
 19 40  1  0
 20 41  1  0
 20 42  1  0
 21 43  1  0
 21 44  1  0
 22 45  1  0
 23 46  1  0
 25 47  1  0
 26 48  1  0
 28 49  1  0
 28 50  1  0
 28 51  1  0
M  CHG  1   9  -1
M  END
>  <UniqueID>  (29) 
28

>  <SMILES>  (29) 
Cc1ccc(S(=O)(=O)[N-]c2cc(S(=O)(=O)N3CCCCC3)ccc2O)cc1C

>  <Energy>  (29) 
59.04557125279473

>  <Genealogy>  (29) 
Cc1ccc(S(=O)(=O)[N-]c2cc(S(=O)(=O)N3CCCCC3)ccc2O)cc1C (protonated)
Cc1ccc(S(=O)(=O)[N-]c2cc(S(=O)(=O)N3CCCCC3)ccc2O)cc1C (3D coordinates assigned)
Cc1ccc(S(=O)(=O)[N-]c2cc(S(=O)(=O)N3CCCCC3)ccc2O)cc1C (nonaromatic ring conformer: 59.04557125279473 kcal/mol)

>  <smiles>  (29) 
Cc1ccc(S(=O)(=O)Nc2cc(S(=O)(=O)N3CCCCC3)ccc2O)cc1C

>  <score_type>  (29) 
oracle

>  <origin>  (29) 
adgpu

>  <m_score__min__energy>  (29) 
-11.19

>  <m_primary>  (29) 
energy

$$$$
29:0
     RDKit          3D

 38 40  0  0  0  0  0  0  0  0999 V2000
   -6.5100   17.7460  -33.3360 C   0  0  0  0  0  0  0  0  0  0  0  0
   -5.5450   18.8380  -32.9800 C   0  0  0  0  0  0  0  0  0  0  0  0
   -5.8590   19.7540  -31.9630 C   0  0  0  0  0  0  0  0  0  0  0  0
   -4.9770   20.7930  -31.6570 C   0  0  0  0  0  0  0  0  0  0  0  0
   -3.7800   20.9350  -32.3690 C   0  0  0  0  0  0  0  0  0  0  0  0
   -2.6430   22.2640  -31.9700 S   0  0  0  0  0  0  0  0  0  0  0  0
   -2.8240   22.0150  -30.1990 C   0  0  0  0  0  0  0  0  0  0  0  0
   -2.8630   20.7340  -29.7400 N   0  0  0  0  0  0  0  0  0  0  0  0
   -2.9240   20.4420  -28.4150 C   0  0  0  0  0  0  0  0  0  0  0  0
   -2.9340   21.4710  -27.4740 C   0  0  0  0  0  0  0  0  0  0  0  0
   -2.8990   22.7950  -27.9100 C   0  0  0  0  0  0  0  0  0  0  0  0
   -2.8620   23.0910  -29.2820 C   0  0  0  0  0  0  0  0  0  0  0  0
   -2.8680   24.5080  -29.7120 C   0  0  0  0  0  0  0  0  0  0  0  0
   -1.9910   25.2980  -29.2670 O   0  0  0  0  0  0  0  0  0  0  0  0
   -3.8890   24.9960  -30.5880 N   0  0  0  0  0  0  0  0  0  0  0  0
   -5.2440   25.3140  -30.1540 C   0  0  0  0  0  0  0  0  0  0  0  0
   -6.1940   24.2590  -30.6230 C   0  0  0  0  0  0  0  0  0  0  0  0
   -6.9000   23.3860  -29.8060 C   0  0  0  0  0  0  0  0  0  0  0  0
   -7.6480   22.4450  -30.5240 C   0  0  0  0  0  0  0  0  0  0  0  0
   -7.5240   22.5680  -31.9010 C   0  0  0  0  0  0  0  0  0  0  0  0
   -6.4800   23.8460  -32.2270 S   0  0  0  0  0  0  0  0  0  0  0  0
   -3.4710   20.0350  -33.3950 C   0  0  0  0  0  0  0  0  0  0  0  0
   -4.3540   18.9950  -33.7050 C   0  0  0  0  0  0  0  0  0  0  0  0
   -6.9088   17.2947  -32.4155 H   0  0  0  0  0  0  0  0  0  0  0  0
   -7.3374   18.1660  -33.9267 H   0  0  0  0  0  0  0  0  0  0  0  0
   -5.9914   16.9766  -33.9267 H   0  0  0  0  0  0  0  0  0  0  0  0
   -6.8021   19.6530  -31.4058 H   0  0  0  0  0  0  0  0  0  0  0  0
   -5.2239   21.5024  -30.8534 H   0  0  0  0  0  0  0  0  0  0  0  0
   -2.9655   19.3938  -28.0842 H   0  0  0  0  0  0  0  0  0  0  0  0
   -2.9691   21.2407  -26.3990 H   0  0  0  0  0  0  0  0  0  0  0  0
   -2.9004   23.6128  -27.1744 H   0  0  0  0  0  0  0  0  0  0  0  0
   -5.2715   25.3662  -29.0556 H   0  0  0  0  0  0  0  0  0  0  0  0
   -5.5414   26.2827  -30.5820 H   0  0  0  0  0  0  0  0  0  0  0  0
   -6.8743   23.4292  -28.7072 H   0  0  0  0  0  0  0  0  0  0  0  0
   -8.2749   21.6802  -30.0422 H   0  0  0  0  0  0  0  0  0  0  0  0
   -8.0233   21.9372  -32.6512 H   0  0  0  0  0  0  0  0  0  0  0  0
   -2.5327   20.1453  -33.9585 H   0  0  0  0  0  0  0  0  0  0  0  0
   -4.1135   18.2973  -34.5207 H   0  0  0  0  0  0  0  0  0  0  0  0
  1  2  1  0
  2  3  2  0
  3  4  1  0
  4  5  2  0
  5  6  1  0
  6  7  1  0
  7  8  2  0
  8  9  1  0
  9 10  2  0
 10 11  1  0
 11 12  2  0
 12 13  1  0
 13 14  2  0
 13 15  1  0
 15 16  1  0
 16 17  1  0
 17 18  2  0
 18 19  1  0
 19 20  2  0
 20 21  1  0
  5 22  1  0
 22 23  2  0
 23  2  1  0
 12  7  1  0
 21 17  1  0
  1 24  1  0
  1 25  1  0
  1 26  1  0
  3 27  1  0
  4 28  1  0
  9 29  1  0
 10 30  1  0
 11 31  1  0
 16 32  1  0
 16 33  1  0
 18 34  1  0
 19 35  1  0
 20 36  1  0
 22 37  1  0
 23 38  1  0
M  CHG  1  15  -1
M  END
>  <UniqueID>  (30) 
29

>  <SMILES>  (30) 
Cc1ccc(Sc2ncccc2C(=O)[N-]Cc2cccs2)cc1

>  <Energy>  (30) 
60.973048731935855

>  <Genealogy>  (30) 
Cc1ccc(Sc2ncccc2C(=O)[N-]Cc2cccs2)cc1 (protonated)
Cc1ccc(Sc2ncccc2C(=O)[N-]Cc2cccs2)cc1 (3D coordinates assigned)
Cc1ccc(Sc2ncccc2C(=O)[N-]Cc2cccs2)cc1 (optimized conformer: 60.973048731935855 kcal/mol)

>  <smiles>  (30) 
Cc1ccc(Sc2ncccc2C(=O)NCc2cccs2)cc1

>  <score_type>  (30) 
oracle

>  <origin>  (30) 
adgpu

>  <m_score__min__energy>  (30) 
-9.6799999999999997

>  <m_primary>  (30) 
energy

$$$$
30:0
     RDKit          3D

 55 58  0  0  0  0  0  0  0  0999 V2000
   -4.1820   23.9420  -27.3810 O   0  0  0  0  0  0  0  0  0  0  0  0
   -4.1830   23.1660  -28.3750 C   0  0  0  0  0  0  0  0  0  0  0  0
   -3.3500   21.9990  -28.3640 N   0  0  0  0  0  0  0  0  0  0  0  0
   -2.5350   21.5160  -29.4430 C   0  0  0  0  0  0  0  0  0  0  0  0
   -1.1770   21.1970  -29.2690 C   0  0  0  0  0  0  0  0  0  0  0  0
   -0.4260   20.7110  -30.3430 C   0  0  0  0  0  0  0  0  0  0  0  0
   -1.0250   20.5220  -31.5900 C   0  0  0  0  0  0  0  0  0  0  0  0
   -2.3880   20.8010  -31.7680 C   0  0  0  0  0  0  0  0  0  0  0  0
   -3.1500   20.5530  -33.3430 S   0  0  0  0  0  0  0  0  0  0  0  0
   -2.0800   20.4530  -34.3940 O   0  0  0  0  0  0  0  0  0  0  0  0
   -4.0060   21.7460  -33.6640 O   0  0  0  0  0  0  0  0  0  0  0  0
   -4.1390   19.1130  -33.3990 N   0  0  0  0  0  0  0  0  0  0  0  0
   -5.3340   19.2990  -34.2200 C   0  0  0  0  0  0  0  0  0  0  0  0
   -5.7380   17.9160  -34.7090 C   0  0  0  0  0  0  0  0  0  0  0  0
   -4.4980   17.0500  -34.5410 C   0  0  0  0  0  0  0  0  0  0  0  0
   -3.4300   17.9810  -33.9900 C   0  0  0  0  0  0  0  0  0  0  0  0
   -3.1360   21.2990  -30.6910 C   0  0  0  0  0  0  0  0  0  0  0  0
   -4.9990   23.5040  -29.5730 C   0  0  0  0  0  0  0  0  0  0  0  0
   -6.1720   22.7710  -29.8400 C   0  0  0  0  0  0  0  0  0  0  0  0
   -6.9650   23.0610  -30.9580 C   0  0  0  0  0  0  0  0  0  0  0  0
   -8.4430   22.1470  -31.2470 S   0  0  0  0  0  0  0  0  0  0  0  0
   -9.3700   22.9690  -32.0990 O   0  0  0  0  0  0  0  0  0  0  0  0
   -9.1270   21.8560  -29.9390 O   0  0  0  0  0  0  0  0  0  0  0  0
   -8.0500   20.6650  -32.0780 N   0  0  0  0  0  0  0  0  0  0  0  0
   -6.9310   19.9750  -31.4340 C   0  0  0  0  0  0  0  0  0  0  0  0
   -7.1000   18.4950  -31.7400 C   0  0  0  0  0  0  0  0  0  0  0  0
   -8.5580   18.3290  -32.1350 C   0  0  0  0  0  0  0  0  0  0  0  0
   -9.1650   19.7200  -32.0380 C   0  0  0  0  0  0  0  0  0  0  0  0
   -6.5950   24.1000  -31.8170 C   0  0  0  0  0  0  0  0  0  0  0  0
   -5.4350   24.8330  -31.5710 C   0  0  0  0  0  0  0  0  0  0  0  0
   -4.6340   24.5430  -30.4620 C   0  0  0  0  0  0  0  0  0  0  0  0
   -3.4810   25.2960  -30.2650 O   0  0  0  0  0  0  0  0  0  0  0  0
   -0.7041   21.3302  -28.2848 H   0  0  0  0  0  0  0  0  0  0  0  0
    0.6399   20.4768  -30.2054 H   0  0  0  0  0  0  0  0  0  0  0  0
   -0.4260   20.1531  -32.4356 H   0  0  0  0  0  0  0  0  0  0  0  0
   -6.1427   19.7418  -33.6201 H   0  0  0  0  0  0  0  0  0  0  0  0
   -5.1375   19.9785  -35.0624 H   0  0  0  0  0  0  0  0  0  0  0  0
   -6.5679   17.5213  -34.1045 H   0  0  0  0  0  0  0  0  0  0  0  0
   -6.0846   17.9362  -35.7528 H   0  0  0  0  0  0  0  0  0  0  0  0
   -4.6942   16.2288  -33.8360 H   0  0  0  0  0  0  0  0  0  0  0  0
   -4.1890   16.5877  -35.4901 H   0  0  0  0  0  0  0  0  0  0  0  0
   -2.8321   17.4643  -33.2247 H   0  0  0  0  0  0  0  0  0  0  0  0
   -2.7395   18.3100  -34.7806 H   0  0  0  0  0  0  0  0  0  0  0  0
   -4.2047   21.5215  -30.8269 H   0  0  0  0  0  0  0  0  0  0  0  0
   -6.4698   21.9588  -29.1605 H   0  0  0  0  0  0  0  0  0  0  0  0
   -5.9759   20.3399  -31.8396 H   0  0  0  0  0  0  0  0  0  0  0  0
   -6.9232   20.1577  -30.3493 H   0  0  0  0  0  0  0  0  0  0  0  0
   -6.4404   18.1953  -32.5677 H   0  0  0  0  0  0  0  0  0  0  0  0
   -6.8355   17.8659  -30.8773 H   0  0  0  0  0  0  0  0  0  0  0  0
   -8.6367   17.9458  -33.1631 H   0  0  0  0  0  0  0  0  0  0  0  0
   -9.0781   17.6101  -31.4849 H   0  0  0  0  0  0  0  0  0  0  0  0
   -9.8441   19.8979  -32.8849 H   0  0  0  0  0  0  0  0  0  0  0  0
   -9.7496   19.8345  -31.1133 H   0  0  0  0  0  0  0  0  0  0  0  0
   -7.2208   24.3398  -32.6893 H   0  0  0  0  0  0  0  0  0  0  0  0
   -5.1476   25.6456  -32.2544 H   0  0  0  0  0  0  0  0  0  0  0  0
  1  2  2  0
  2  3  1  0
  3  4  1  0
  4  5  2  0
  5  6  1  0
  6  7  2  0
  7  8  1  0
  8  9  1  0
  9 10  2  0
  9 11  2  0
  9 12  1  0
 12 13  1  0
 13 14  1  0
 14 15  1  0
 15 16  1  0
  8 17  2  0
  2 18  1  0
 18 19  2  0
 19 20  1  0
 20 21  1  0
 21 22  2  0
 21 23  2  0
 21 24  1  0
 24 25  1  0
 25 26  1  0
 26 27  1  0
 27 28  1  0
 20 29  2  0
 29 30  1  0
 30 31  2  0
 31 32  1  0
 17  4  1  0
 31 18  1  0
 16 12  1  0
 28 24  1  0
  5 33  1  0
  6 34  1  0
  7 35  1  0
 13 36  1  0
 13 37  1  0
 14 38  1  0
 14 39  1  0
 15 40  1  0
 15 41  1  0
 16 42  1  0
 16 43  1  0
 17 44  1  0
 19 45  1  0
 25 46  1  0
 25 47  1  0
 26 48  1  0
 26 49  1  0
 27 50  1  0
 27 51  1  0
 28 52  1  0
 28 53  1  0
 29 54  1  0
 30 55  1  0
M  CHG  2   3  -1  32  -1
M  END
>  <UniqueID>  (31) 
30

>  <SMILES>  (31) 
O=C([N-]c1cccc(S(=O)(=O)N2CCCC2)c1)c1cc(S(=O)(=O)N2CCCC2)ccc1[O-]

>  <Energy>  (31) 
65.00726242655595

>  <Genealogy>  (31) 
O=C([N-]c1cccc(S(=O)(=O)N2CCCC2)c1)c1cc(S(=O)(=O)N2CCCC2)ccc1[O-] (protonated)
O=C([N-]c1cccc(S(=O)(=O)N2CCCC2)c1)c1cc(S(=O)(=O)N2CCCC2)ccc1[O-] (3D coordinates assigned)
O=C([N-]c1cccc(S(=O)(=O)N2CCCC2)c1)c1cc(S(=O)(=O)N2CCCC2)ccc1[O-] (nonaromatic ring conformer: 65.00726242655595 kcal/mol)

>  <smiles>  (31) 
O=C(Nc1cccc(S(=O)(=O)N2CCCC2)c1)c1cc(S(=O)(=O)N2CCCC2)ccc1O

>  <score_type>  (31) 
oracle

>  <origin>  (31) 
adgpu

>  <m_score__min__energy>  (31) 
-15.18

>  <m_primary>  (31) 
energy

$$$$
31:0
     RDKit          3D

 42 45  0  0  0  0  0  0  0  0999 V2000
   -4.2210   25.3600  -31.1630 O   0  0  0  0  0  0  0  0  0  0  0  0
   -3.8960   24.9250  -30.0270 C   0  0  0  0  0  0  0  0  0  0  0  0
   -4.9690   24.5270  -29.0520 C   0  0  0  0  0  0  0  0  0  0  0  0
   -6.6270   24.9430  -29.6990 S   0  0  0  0  0  0  0  0  0  0  0  0
   -6.8080   23.4340  -30.6500 C   0  0  0  0  0  0  0  0  0  0  0  0
   -7.9240   22.6600  -30.6070 N   0  0  0  0  0  0  0  0  0  0  0  0
   -7.6200   21.6600  -31.4530 C   0  0  0  0  0  0  0  0  0  0  0  0
   -8.4110   20.5680  -31.8010 C   0  0  0  0  0  0  0  0  0  0  0  0
   -7.8780   19.6400  -32.7160 C   0  0  0  0  0  0  0  0  0  0  0  0
   -6.5820   19.8250  -33.2520 C   0  0  0  0  0  0  0  0  0  0  0  0
   -5.8090   20.9410  -32.8780 C   0  0  0  0  0  0  0  0  0  0  0  0
   -6.3710   21.8370  -31.9710 C   0  0  0  0  0  0  0  0  0  0  0  0
   -5.8400   22.9580  -31.4690 N   0  0  0  0  0  0  0  0  0  0  0  0
   -2.5050   24.8570  -29.6900 N   0  0  0  0  0  0  0  0  0  0  0  0
   -1.9530   24.5770  -28.3940 C   0  0  0  0  0  0  0  0  0  0  0  0
   -2.0730   25.5000  -27.3390 C   0  0  0  0  0  0  0  0  0  0  0  0
   -1.5540   25.2000  -26.0770 C   0  0  0  0  0  0  0  0  0  0  0  0
   -0.9260   23.9740  -25.8520 C   0  0  0  0  0  0  0  0  0  0  0  0
   -0.8260   23.0390  -26.8850 C   0  0  0  0  0  0  0  0  0  0  0  0
   -1.3490   23.3290  -28.1520 C   0  0  0  0  0  0  0  0  0  0  0  0
   -1.2130   22.1000  -29.4550 S   0  0  0  0  0  0  0  0  0  0  0  0
   -1.5710   20.7440  -28.3430 C   0  0  0  0  0  0  0  0  0  0  0  0
   -0.6170   19.7450  -28.1150 C   0  0  0  0  0  0  0  0  0  0  0  0
   -0.9230   18.6950  -27.2470 C   0  0  0  0  0  0  0  0  0  0  0  0
   -2.1680   18.6540  -26.6170 C   0  0  0  0  0  0  0  0  0  0  0  0
   -3.0920   19.6720  -26.8660 C   0  0  0  0  0  0  0  0  0  0  0  0
   -2.7760   20.6870  -27.7150 N   0  0  0  0  0  0  0  0  0  0  0  0
   -4.9124   23.4424  -28.8775 H   0  0  0  0  0  0  0  0  0  0  0  0
   -4.8109   25.0767  -28.1124 H   0  0  0  0  0  0  0  0  0  0  0  0
   -9.4168   20.4351  -31.3760 H   0  0  0  0  0  0  0  0  0  0  0  0
   -8.4735   18.7651  -33.0161 H   0  0  0  0  0  0  0  0  0  0  0  0
   -6.1757   19.0927  -33.9652 H   0  0  0  0  0  0  0  0  0  0  0  0
   -4.7999   21.0994  -33.2863 H   0  0  0  0  0  0  0  0  0  0  0  0
   -4.9010   23.3720  -31.6670 H   0  0  0  0  0  0  0  0  0  0  0  0
   -2.5779   26.4625  -27.5085 H   0  0  0  0  0  0  0  0  0  0  0  0
   -1.6404   25.9310  -25.2596 H   0  0  0  0  0  0  0  0  0  0  0  0
   -0.5094   23.7438  -24.8603 H   0  0  0  0  0  0  0  0  0  0  0  0
   -0.3349   22.0717  -26.7031 H   0  0  0  0  0  0  0  0  0  0  0  0
    0.3624   19.7868  -28.6140 H   0  0  0  0  0  0  0  0  0  0  0  0
   -0.1844   17.9016  -27.0600 H   0  0  0  0  0  0  0  0  0  0  0  0
   -2.4186   17.8300  -25.9327 H   0  0  0  0  0  0  0  0  0  0  0  0
   -4.0761   19.6528  -26.3750 H   0  0  0  0  0  0  0  0  0  0  0  0
  1  2  2  0
  2  3  1  0
  3  4  1  0
  4  5  1  0
  5  6  2  0
  6  7  1  0
  7  8  2  0
  8  9  1  0
  9 10  2  0
 10 11  1  0
 11 12  2  0
 12 13  1  0
  2 14  1  0
 14 15  1  0
 15 16  2  0
 16 17  1  0
 17 18  2  0
 18 19  1  0
 19 20  2  0
 20 21  1  0
 21 22  1  0
 22 23  2  0
 23 24  1  0
 24 25  2  0
 25 26  1  0
 26 27  2  0
 13  5  1  0
 20 15  1  0
 27 22  1  0
 12  7  1  0
  3 28  1  0
  3 29  1  0
  8 30  1  0
  9 31  1  0
 10 32  1  0
 11 33  1  0
 13 34  1  0
 16 35  1  0
 17 36  1  0
 18 37  1  0
 19 38  1  0
 23 39  1  0
 24 40  1  0
 25 41  1  0
 26 42  1  0
M  CHG  1  14  -1
M  END
>  <UniqueID>  (32) 
31

>  <SMILES>  (32) 
O=C(CSc1nc2ccccc2[nH]1)[N-]c1ccccc1Sc1ccccn1

>  <Energy>  (32) 
81.39229269700985

>  <Genealogy>  (32) 
O=C(CSc1nc2ccccc2[nH]1)[N-]c1ccccc1Sc1ccccn1 (protonated)
O=C(CSc1nc2ccccc2[nH]1)[N-]c1ccccc1Sc1ccccn1 (3D coordinates assigned)
O=C(CSc1nc2ccccc2[nH]1)[N-]c1ccccc1Sc1ccccn1 (optimized conformer: 81.39229269700985 kcal/mol)

>  <smiles>  (32) 
O=C(CSc1nc2ccccc2[nH]1)Nc1ccccc1Sc1ccccn1

>  <score_type>  (32) 
oracle

>  <origin>  (32) 
adgpu

>  <m_score__min__energy>  (32) 
-10.779999999999999

>  <m_primary>  (32) 
energy

$$$$
32:0
     RDKit          3D

 62 65  0  0  0  0  0  0  0  0999 V2000
    0.2970   22.6890  -24.5340 C   0  0  0  0  0  0  0  0  0  0  0  0
   -0.2210   22.6330  -25.9470 C   0  0  0  0  0  0  0  0  0  0  0  0
   -1.2280   21.7000  -26.2430 C   0  0  0  0  0  0  0  0  0  0  0  0
   -1.7640   21.6080  -27.5240 C   0  0  0  0  0  0  0  0  0  0  0  0
   -1.3130   22.4540  -28.5440 C   0  0  0  0  0  0  0  0  0  0  0  0
   -1.8580   22.3590  -29.8720 N   0  0  0  0  0  0  0  0  0  0  0  0
   -2.6540   21.2580  -30.3300 C   0  0  0  0  0  0  0  0  0  0  0  0
   -3.0370   20.3650  -29.5270 O   0  0  0  0  0  0  0  0  0  0  0  0
   -3.0330   21.1930  -31.7080 N   0  0  0  0  0  0  0  0  0  0  0  0
   -4.3830   20.9870  -32.1390 C   0  0  0  0  0  0  0  0  0  0  0  0
   -4.6940   19.7960  -32.8070 C   0  0  0  0  0  0  0  0  0  0  0  0
   -6.0020   19.5360  -33.2170 C   0  0  0  0  0  0  0  0  0  0  0  0
   -6.2960   18.3730  -33.8500 F   0  0  0  0  0  0  0  0  0  0  0  0
   -7.0100   20.4690  -32.9690 C   0  0  0  0  0  0  0  0  0  0  0  0
   -6.7070   21.6710  -32.3260 C   0  0  0  0  0  0  0  0  0  0  0  0
   -5.3920   21.9560  -31.9210 C   0  0  0  0  0  0  0  0  0  0  0  0
   -5.0350   23.5300  -31.1900 S   0  0  0  0  0  0  0  0  0  0  0  0
   -3.5570   23.7880  -31.2600 O   0  0  0  0  0  0  0  0  0  0  0  0
   -5.7620   24.6140  -31.9400 O   0  0  0  0  0  0  0  0  0  0  0  0
   -5.5360   23.5490  -29.4660 C   0  0  0  0  0  0  0  0  0  0  0  0
   -4.6450   24.3870  -28.5650 C   0  0  0  0  0  0  0  0  0  0  0  0
   -4.5850   22.8690  -28.4940 C   0  0  0  0  0  0  0  0  0  0  0  0
   -0.2850   23.3710  -28.2740 C   0  0  0  0  0  0  0  0  0  0  0  0
    0.1670   24.2010  -29.2970 O   0  0  0  0  0  0  0  0  0  0  0  0
    0.2770   23.4700  -26.9830 C   0  0  0  0  0  0  0  0  0  0  0  0
    1.5610   24.6800  -26.7250 S   0  0  0  0  0  0  0  0  0  0  0  0
    2.2270   24.9460  -28.0460 O   0  0  0  0  0  0  0  0  0  0  0  0
    2.6190   24.1990  -25.7720 O   0  0  0  0  0  0  0  0  0  0  0  0
    0.8620   26.2200  -26.1040 C   0  0  2  0  0  0  0  0  0  0  0  0
    0.7400   26.1630  -24.5620 C   0  0  0  0  0  0  0  0  0  0  0  0
   -0.5060   26.8870  -24.0200 C   0  0  0  0  0  0  0  0  0  0  0  0
   -0.8260   28.1120  -24.7770 N   0  0  0  0  0  0  0  0  0  0  0  0
    0.1670   29.1760  -24.5510 C   0  0  0  0  0  0  0  0  0  0  0  0
   -1.0840   27.8710  -26.2190 C   0  0  0  0  0  0  0  0  0  0  0  0
   -0.4980   26.5410  -26.7610 C   0  0  1  0  0  0  0  0  0  0  0  0
   -0.4010   26.6000  -28.1620 O   0  0  0  0  0  0  0  0  0  0  0  0
   -0.5443   22.5980  -23.8312 H   0  0  0  0  0  0  0  0  0  0  0  0
    1.0034   21.8620  -24.3694 H   0  0  0  0  0  0  0  0  0  0  0  0
    0.8103   23.6479  -24.3694 H   0  0  0  0  0  0  0  0  0  0  0  0
   -1.5984   21.0324  -25.4511 H   0  0  0  0  0  0  0  0  0  0  0  0
   -2.5473   20.8655  -27.7364 H   0  0  0  0  0  0  0  0  0  0  0  0
   -1.7540   23.1760  -30.5160 H   0  0  0  0  0  0  0  0  0  0  0  0
   -3.9016   19.0605  -33.0098 H   0  0  0  0  0  0  0  0  0  0  0  0
   -8.0436   20.2574  -33.2802 H   0  0  0  0  0  0  0  0  0  0  0  0
   -7.5061   22.4023  -32.1346 H   0  0  0  0  0  0  0  0  0  0  0  0
   -6.6161   23.4811  -29.6631 H   0  0  0  0  0  0  0  0  0  0  0  0
   -3.8039   24.9512  -28.9942 H   0  0  0  0  0  0  0  0  0  0  0  0
   -4.8143   25.1936  -27.8364 H   0  0  0  0  0  0  0  0  0  0  0  0
   -3.7007   22.3351  -28.8721 H   0  0  0  0  0  0  0  0  0  0  0  0
   -4.6930   22.1225  -27.6933 H   0  0  0  0  0  0  0  0  0  0  0  0
    1.5459   27.0380  -26.3744 H   0  0  0  0  0  0  0  0  0  0  0  0
    0.6914   25.1079  -24.2549 H   0  0  0  0  0  0  0  0  0  0  0  0
    1.6200   26.6766  -24.1474 H   0  0  0  0  0  0  0  0  0  0  0  0
   -1.3647   26.2021  -24.0792 H   0  0  0  0  0  0  0  0  0  0  0  0
   -0.2934   27.1833  -22.9822 H   0  0  0  0  0  0  0  0  0  0  0  0
    0.3056   29.3245  -23.4699 H   0  0  0  0  0  0  0  0  0  0  0  0
    1.1251   28.8863  -25.0071 H   0  0  0  0  0  0  0  0  0  0  0  0
   -0.1881   30.1119  -25.0071 H   0  0  0  0  0  0  0  0  0  0  0  0
   -2.1726   27.8567  -26.3761 H   0  0  0  0  0  0  0  0  0  0  0  0
   -0.5824   28.6818  -26.7676 H   0  0  0  0  0  0  0  0  0  0  0  0
   -1.1786   25.7182  -26.4970 H   0  0  0  0  0  0  0  0  0  0  0  0
    0.2610   25.9170  -28.4480 H   0  0  0  0  0  0  0  0  0  0  0  0
  1  2  1  0
  2  3  2  0
  3  4  1  0
  4  5  2  0
  5  6  1  0
  6  7  1  0
  7  8  2  0
  7  9  1  0
  9 10  1  0
 10 11  2  0
 11 12  1  0
 12 13  1  0
 12 14  2  0
 14 15  1  0
 15 16  2  0
 16 17  1  0
 17 18  2  0
 17 19  2  0
 17 20  1  0
 20 21  1  0
 21 22  1  0
  5 23  1  0
 23 24  1  0
 23 25  2  0
 25 26  1  0
 26 27  2  0
 26 28  2  0
 26 29  1  0
 29 30  1  0
 30 31  1  0
 31 32  1  0
 32 33  1  0
 32 34  1  0
 34 35  1  0
 35 36  1  0
 25  2  1  0
 35 29  1  0
 16 10  1  0
 22 20  1  0
  1 37  1  0
  1 38  1  0
  1 39  1  0
  3 40  1  0
  4 41  1  0
  6 42  1  0
 11 43  1  0
 14 44  1  0
 15 45  1  0
 20 46  1  0
 21 47  1  0
 21 48  1  0
 22 49  1  0
 22 50  1  0
 29 51  1  1
 30 52  1  0
 30 53  1  0
 31 54  1  0
 31 55  1  0
 33 56  1  0
 33 57  1  0
 33 58  1  0
 34 59  1  0
 34 60  1  0
 35 61  1  6
 36 62  1  0
M  CHG  2   9  -1  24  -1
M  END
>  <UniqueID>  (33) 
32

>  <SMILES>  (33) 
Cc1ccc(NC(=O)[N-]c2cc(F)ccc2S(=O)(=O)C2CC2)c([O-])c1S(=O)(=O)[C@@H]1CCN(C)C[C@H]1O

>  <Energy>  (33) 
350.6185090131832

>  <Genealogy>  (33) 
Cc1ccc(NC(=O)[N-]c2cc(F)ccc2S(=O)(=O)C2CC2)c([O-])c1S(=O)(=O)C1CCN(C)CC1O (protonated)
Cc1ccc(NC(=O)[N-]c2cc(F)ccc2S(=O)(=O)C2CC2)c([O-])c1S(=O)(=O)[C@@H]1CCN(C)C[C@H]1O (chirality)
Cc1ccc(NC(=O)[N-]c2cc(F)ccc2S(=O)(=O)C2CC2)c([O-])c1S(=O)(=O)[C@@H]1CCN(C)C[C@H]1O (3D coordinates assigned)
Cc1ccc(NC(=O)[N-]c2cc(F)ccc2S(=O)(=O)C2CC2)c([O-])c1S(=O)(=O)[C@@H]1CCN(C)C[C@H]1O (nonaromatic ring conformer: 350.6185090131832 kcal/mol)

>  <smiles>  (33) 
Cc1ccc(NC(=O)Nc2cc(F)ccc2S(=O)(=O)C2CC2)c(O)c1S(=O)(=O)C1CCN(C)CC1O

>  <score_type>  (33) 
oracle

>  <origin>  (33) 
adgpu

>  <m_score__min__energy>  (33) 
-13.039999999999999

>  <m_primary>  (33) 
energy

$$$$
33:0
     RDKit          3D

 27 28  0  0  0  0  0  0  0  0999 V2000
   -6.0350   18.2270  -35.0660 N   0  0  0  0  0  0  0  0  0  0  0  0
   -5.3410   18.3090  -33.4860 S   0  0  0  0  0  0  0  0  0  0  0  0
   -3.8620   18.0590  -33.5740 O   0  0  0  0  0  0  0  0  0  0  0  0
   -5.9740   17.2510  -32.6250 O   0  0  0  0  0  0  0  0  0  0  0  0
   -5.6260   19.8990  -32.7880 C   0  0  0  0  0  0  0  0  0  0  0  0
   -4.7310   20.9480  -33.0300 C   0  0  0  0  0  0  0  0  0  0  0  0
   -4.9610   22.2030  -32.4640 C   0  0  0  0  0  0  0  0  0  0  0  0
   -6.0850   22.3930  -31.6540 C   0  0  0  0  0  0  0  0  0  0  0  0
   -6.4000   23.9890  -30.9060 S   0  0  0  0  0  0  0  0  0  0  0  0
   -5.0260   23.8250  -29.7620 C   0  0  0  0  0  0  0  0  0  0  0  0
   -5.0650   22.8310  -28.7760 C   0  0  0  0  0  0  0  0  0  0  0  0
   -4.0040   22.6950  -27.8760 C   0  0  0  0  0  0  0  0  0  0  0  0
   -2.9010   23.5470  -27.9590 C   0  0  0  0  0  0  0  0  0  0  0  0
   -2.8510   24.5410  -28.9470 C   0  0  0  0  0  0  0  0  0  0  0  0
   -1.7530   25.3930  -29.0360 O   0  0  0  0  0  0  0  0  0  0  0  0
   -3.9150   24.6790  -29.8500 C   0  0  0  0  0  0  0  0  0  0  0  0
   -3.8650   25.6640  -30.8300 O   0  0  0  0  0  0  0  0  0  0  0  0
   -6.9410   21.3610  -31.4280 N   0  0  0  0  0  0  0  0  0  0  0  0
   -6.7380   20.1310  -31.9690 C   0  0  0  0  0  0  0  0  0  0  0  0
   -6.5250   19.1340  -35.2320 H   0  0  0  0  0  0  0  0  0  0  0  0
   -3.8481   20.7835  -33.6651 H   0  0  0  0  0  0  0  0  0  0  0  0
   -4.2654   23.0339  -32.6531 H   0  0  0  0  0  0  0  0  0  0  0  0
   -5.9315   22.1566  -28.7097 H   0  0  0  0  0  0  0  0  0  0  0  0
   -4.0382   21.9152  -27.1009 H   0  0  0  0  0  0  0  0  0  0  0  0
   -2.0691   23.4383  -27.2476 H   0  0  0  0  0  0  0  0  0  0  0  0
   -1.6490   26.0440  -29.8050 H   0  0  0  0  0  0  0  0  0  0  0  0
   -7.4481   19.3165  -31.7633 H   0  0  0  0  0  0  0  0  0  0  0  0
  1  2  1  0
  2  3  2  0
  2  4  2  0
  2  5  1  0
  5  6  2  0
  6  7  1  0
  7  8  2  0
  8  9  1  0
  9 10  1  0
 10 11  2  0
 11 12  1  0
 12 13  2  0
 13 14  1  0
 14 15  1  0
 14 16  2  0
 16 17  1  0
  8 18  1  0
 18 19  2  0
 19  5  1  0
 16 10  1  0
  1 20  1  0
  6 21  1  0
  7 22  1  0
 11 23  1  0
 12 24  1  0
 13 25  1  0
 15 26  1  0
 19 27  1  0
M  CHG  2   1  -1  17  -1
M  END
>  <UniqueID>  (34) 
33

>  <SMILES>  (34) 
[NH-]S(=O)(=O)c1ccc(Sc2cccc(O)c2[O-])nc1

>  <Energy>  (34) 
24.12521942615536

>  <Genealogy>  (34) 
[NH-]S(=O)(=O)c1ccc(Sc2cccc(O)c2[O-])nc1 (protonated)
[NH-]S(=O)(=O)c1ccc(Sc2cccc(O)c2[O-])nc1 (3D coordinates assigned)
[NH-]S(=O)(=O)c1ccc(Sc2cccc(O)c2[O-])nc1 (optimized conformer: 24.12521942615536 kcal/mol)

>  <smiles>  (34) 
NS(=O)(=O)c1ccc(Sc2cccc(O)c2O)nc1

>  <score_type>  (34) 
oracle

>  <origin>  (34) 
adgpu

>  <m_score__min__energy>  (34) 
-11.07

>  <m_primary>  (34) 
energy

$$$$
34:0
     RDKit          3D

 53 56  0  0  0  0  0  0  0  0999 V2000
   -6.7780   25.3900  -30.1410 O   0  0  0  0  0  0  0  0  0  0  0  0
   -5.5550   24.5260  -30.2610 S   0  0  0  0  0  0  0  0  0  0  0  0
   -4.5480   25.2170  -31.1370 O   0  0  0  0  0  0  0  0  0  0  0  0
   -4.8670   24.2680  -28.6880 N   0  0  0  0  0  0  0  0  0  0  0  0
   -3.6690   23.4960  -28.5150 C   0  0  0  0  0  0  0  0  0  0  0  0
   -3.7190   22.2210  -27.9300 C   0  0  0  0  0  0  0  0  0  0  0  0
   -2.5410   21.5080  -27.6770 C   0  0  0  0  0  0  0  0  0  0  0  0
   -1.3000   22.0670  -28.0130 C   0  0  0  0  0  0  0  0  0  0  0  0
   -1.2450   23.3270  -28.6220 C   0  0  0  0  0  0  0  0  0  0  0  0
   -2.4230   24.0370  -28.8790 C   0  0  0  0  0  0  0  0  0  0  0  0
   -2.3460   25.2940  -29.4680 O   0  0  0  0  0  0  0  0  0  0  0  0
   -0.0520   21.3090  -27.6590 C   0  0  0  0  0  0  0  0  0  0  0  0
   -0.2000   19.8190  -28.0070 C   0  0  0  0  0  0  0  0  0  0  0  0
   -1.5690   19.1960  -27.6240 C   0  0  0  0  0  0  0  0  0  0  0  0
   -2.5670   20.1740  -26.9820 C   0  0  0  0  0  0  0  0  0  0  0  0
   -6.0200   22.9700  -30.9440 C   0  0  0  0  0  0  0  0  0  0  0  0
   -7.3720   22.7070  -31.1950 C   0  0  0  0  0  0  0  0  0  0  0  0
   -7.7800   21.4300  -31.5920 C   0  0  0  0  0  0  0  0  0  0  0  0
   -6.8370   20.4060  -31.7450 C   0  0  0  0  0  0  0  0  0  0  0  0
   -7.3470   18.7660  -32.1320 S   0  0  0  0  0  0  0  0  0  0  0  0
   -8.8470   18.6960  -32.0380 O   0  0  0  0  0  0  0  0  0  0  0  0
   -6.7580   17.8040  -31.1370 O   0  0  0  0  0  0  0  0  0  0  0  0
   -6.8240   18.3780  -33.7570 N   0  0  0  0  0  0  0  0  0  0  0  0
   -5.7370   19.2690  -34.2190 C   0  0  0  0  0  0  0  0  0  0  0  0
   -4.3420   18.6410  -34.0640 C   0  0  0  0  0  0  0  0  0  0  0  0
   -4.3150   17.7650  -32.9600 O   0  0  0  0  0  0  0  0  0  0  0  0
   -5.1140   16.6230  -33.2210 C   0  0  0  0  0  0  0  0  0  0  0  0
   -6.4680   16.9540  -33.8900 C   0  0  0  0  0  0  0  0  0  0  0  0
   -5.4810   20.6750  -31.5140 C   0  0  0  0  0  0  0  0  0  0  0  0
   -5.0730   21.9510  -31.1170 C   0  0  0  0  0  0  0  0  0  0  0  0
   -5.4770   24.4620  -27.8640 H   0  0  0  0  0  0  0  0  0  0  0  0
   -4.6915   21.7785  -27.6683 H   0  0  0  0  0  0  0  0  0  0  0  0
   -0.2725   23.7599  -28.8992 H   0  0  0  0  0  0  0  0  0  0  0  0
    0.7958   21.7279  -28.2209 H   0  0  0  0  0  0  0  0  0  0  0  0
    0.1217   21.4024  -26.5768 H   0  0  0  0  0  0  0  0  0  0  0  0
   -0.0637   19.7056  -29.0926 H   0  0  0  0  0  0  0  0  0  0  0  0
    0.5599   19.2854  -27.4172 H   0  0  0  0  0  0  0  0  0  0  0  0
   -2.0276   18.7902  -28.5378 H   0  0  0  0  0  0  0  0  0  0  0  0
   -1.3577   18.4278  -26.8656 H   0  0  0  0  0  0  0  0  0  0  0  0
   -3.5802   19.7516  -27.0529 H   0  0  0  0  0  0  0  0  0  0  0  0
   -2.2830   20.3226  -25.9297 H   0  0  0  0  0  0  0  0  0  0  0  0
   -8.1165   23.5085  -31.0794 H   0  0  0  0  0  0  0  0  0  0  0  0
   -8.8442   21.2292  -31.7846 H   0  0  0  0  0  0  0  0  0  0  0  0
   -5.9013   19.5013  -35.2816 H   0  0  0  0  0  0  0  0  0  0  0  0
   -5.7632   20.1735  -33.5935 H   0  0  0  0  0  0  0  0  0  0  0  0
   -4.0939   18.0802  -34.9772 H   0  0  0  0  0  0  0  0  0  0  0  0
   -3.6070   19.4428  -33.9000 H   0  0  0  0  0  0  0  0  0  0  0  0
   -4.5526   15.9506  -33.8864 H   0  0  0  0  0  0  0  0  0  0  0  0
   -5.3394   16.1585  -32.2497 H   0  0  0  0  0  0  0  0  0  0  0  0
   -6.4049   16.7035  -34.9592 H   0  0  0  0  0  0  0  0  0  0  0  0
   -7.2465   16.3637  -33.3845 H   0  0  0  0  0  0  0  0  0  0  0  0
   -4.7345   19.8779  -31.6459 H   0  0  0  0  0  0  0  0  0  0  0  0
   -4.0069   22.1563  -30.9399 H   0  0  0  0  0  0  0  0  0  0  0  0
  1  2  2  0
  2  3  2  0
  2  4  1  0
  4  5  1  0
  5  6  2  0
  6  7  1  0
  7  8  2  0
  8  9  1  0
  9 10  2  0
 10 11  1  0
  8 12  1  0
 12 13  1  0
 13 14  1  0
 14 15  1  0
  2 16  1  0
 16 17  2  0
 17 18  1  0
 18 19  2  0
 19 20  1  0
 20 21  2  0
 20 22  2  0
 20 23  1  0
 23 24  1  0
 24 25  1  0
 25 26  1  0
 26 27  1  0
 27 28  1  0
 19 29  1  0
 29 30  2  0
 10  5  1  0
 30 16  1  0
 15  7  1  0
 28 23  1  0
  4 31  1  0
  6 32  1  0
  9 33  1  0
 12 34  1  0
 12 35  1  0
 13 36  1  0
 13 37  1  0
 14 38  1  0
 14 39  1  0
 15 40  1  0
 15 41  1  0
 17 42  1  0
 18 43  1  0
 24 44  1  0
 24 45  1  0
 25 46  1  0
 25 47  1  0
 27 48  1  0
 27 49  1  0
 28 50  1  0
 28 51  1  0
 29 52  1  0
 30 53  1  0
M  CHG  1  11  -1
M  END
>  <UniqueID>  (35) 
34

>  <SMILES>  (35) 
O=S(=O)(Nc1cc2c(cc1[O-])CCCC2)c1ccc(S(=O)(=O)N2CCOCC2)cc1

>  <Energy>  (35) 
72.38746484087748

>  <Genealogy>  (35) 
O=S(=O)(Nc1cc2c(cc1[O-])CCCC2)c1ccc(S(=O)(=O)N2CCOCC2)cc1 (protonated)
O=S(=O)(Nc1cc2c(cc1[O-])CCCC2)c1ccc(S(=O)(=O)N2CCOCC2)cc1 (3D coordinates assigned)
O=S(=O)(Nc1cc2c(cc1[O-])CCCC2)c1ccc(S(=O)(=O)N2CCOCC2)cc1 (nonaromatic ring conformer: 72.38746484087748 kcal/mol)

>  <smiles>  (35) 
O=S(=O)(Nc1cc2c(cc1O)CCCC2)c1ccc(S(=O)(=O)N2CCOCC2)cc1

>  <score_type>  (35) 
oracle

>  <origin>  (35) 
adgpu

>  <m_score__min__energy>  (35) 
-14.550000000000001

>  <m_primary>  (35) 
energy

$$$$
35:0
     RDKit          3D

 57 60  0  0  0  0  0  0  0  0999 V2000
   -3.5630   24.1930  -28.1950 O   0  0  0  0  0  0  0  0  0  0  0  0
   -3.0740   24.7470  -29.2160 C   0  0  0  0  0  0  0  0  0  0  0  0
   -3.7900   24.7450  -30.4570 N   0  0  0  0  0  0  0  0  0  0  0  0
   -4.9620   23.9770  -30.7660 C   0  0  0  0  0  0  0  0  0  0  0  0
   -6.1120   24.5610  -31.3270 C   0  0  0  0  0  0  0  0  0  0  0  0
   -7.2260   23.7720  -31.6310 C   0  0  0  0  0  0  0  0  0  0  0  0
   -7.1980   22.3910  -31.3980 C   0  0  0  0  0  0  0  0  0  0  0  0
   -8.6080   21.3970  -31.7530 S   0  0  0  0  0  0  0  0  0  0  0  0
   -9.1300   20.7830  -30.4820 O   0  0  0  0  0  0  0  0  0  0  0  0
   -9.6860   22.2620  -32.3440 O   0  0  0  0  0  0  0  0  0  0  0  0
   -8.1630   20.1560  -32.8970 N   0  0  0  0  0  0  0  0  0  0  0  0
   -6.8280   20.3920  -33.4450 C   0  0  0  0  0  0  0  0  0  0  0  0
   -6.2810   19.0330  -33.8480 C   0  0  0  0  0  0  0  0  0  0  0  0
   -7.0940   18.0210  -33.0550 C   0  0  0  0  0  0  0  0  0  0  0  0
   -8.0950   18.8430  -32.2560 C   0  0  0  0  0  0  0  0  0  0  0  0
   -6.0480   21.8050  -30.8540 C   0  0  0  0  0  0  0  0  0  0  0  0
   -4.9330   22.5930  -30.5520 C   0  0  0  0  0  0  0  0  0  0  0  0
   -1.7560   25.3080  -29.1740 N   0  0  0  0  0  0  0  0  0  0  0  0
   -0.9960   25.4790  -27.9640 C   0  0  0  0  0  0  0  0  0  0  0  0
   -0.6970   26.7660  -27.4810 C   0  0  0  0  0  0  0  0  0  0  0  0
    0.0890   26.9300  -26.3380 C   0  0  0  0  0  0  0  0  0  0  0  0
    0.5970   25.8130  -25.6720 C   0  0  0  0  0  0  0  0  0  0  0  0
    0.3210   24.5300  -26.1480 C   0  0  0  0  0  0  0  0  0  0  0  0
   -0.4730   24.3540  -27.2910 C   0  0  0  0  0  0  0  0  0  0  0  0
   -0.7630   23.0250  -27.7470 N   0  0  0  0  0  0  0  0  0  0  0  0
   -0.4640   22.6580  -29.1370 C   0  0  0  0  0  0  0  0  0  0  0  0
   -0.7530   21.1760  -29.3940 C   0  0  0  0  0  0  0  0  0  0  0  0
   -2.1690   20.7950  -28.9350 C   0  0  0  0  0  0  0  0  0  0  0  0
   -2.5480   21.3510  -27.5420 C   0  0  0  0  0  0  0  0  0  0  0  0
   -1.3870   22.0600  -26.8370 C   0  0  0  0  0  0  0  0  0  0  0  0
   -6.1353   25.6423  -31.5274 H   0  0  0  0  0  0  0  0  0  0  0  0
   -8.1279   24.2378  -32.0548 H   0  0  0  0  0  0  0  0  0  0  0  0
   -6.8887   21.0527  -34.3224 H   0  0  0  0  0  0  0  0  0  0  0  0
   -6.1754   20.8806  -32.7065 H   0  0  0  0  0  0  0  0  0  0  0  0
   -6.4112   18.8702  -34.9281 H   0  0  0  0  0  0  0  0  0  0  0  0
   -5.2042   18.9467  -33.6403 H   0  0  0  0  0  0  0  0  0  0  0  0
   -7.6171   17.3312  -33.7336 H   0  0  0  0  0  0  0  0  0  0  0  0
   -6.4569   17.4058  -32.4026 H   0  0  0  0  0  0  0  0  0  0  0  0
   -9.0832   18.3601  -32.2741 H   0  0  0  0  0  0  0  0  0  0  0  0
   -7.7867   18.9305  -31.2037 H   0  0  0  0  0  0  0  0  0  0  0  0
   -6.0219   20.7219  -30.6638 H   0  0  0  0  0  0  0  0  0  0  0  0
   -4.0265   22.1226  -30.1434 H   0  0  0  0  0  0  0  0  0  0  0  0
   -1.3000   25.5370  -30.0860 H   0  0  0  0  0  0  0  0  0  0  0  0
   -1.0853   27.6502  -28.0076 H   0  0  0  0  0  0  0  0  0  0  0  0
    0.3080   27.9403  -25.9622 H   0  0  0  0  0  0  0  0  0  0  0  0
    1.2151   25.9440  -24.7716 H   0  0  0  0  0  0  0  0  0  0  0  0
    0.7282   23.6526  -25.6242 H   0  0  0  0  0  0  0  0  0  0  0  0
   -1.0856   23.2666  -29.8102 H   0  0  0  0  0  0  0  0  0  0  0  0
    0.6045   22.8415  -29.3231 H   0  0  0  0  0  0  0  0  0  0  0  0
   -0.6592   20.9743  -30.4713 H   0  0  0  0  0  0  0  0  0  0  0  0
   -0.0297   20.5770  -28.8212 H   0  0  0  0  0  0  0  0  0  0  0  0
   -2.8880   21.1847  -29.6707 H   0  0  0  0  0  0  0  0  0  0  0  0
   -2.1952   19.6980  -28.8585 H   0  0  0  0  0  0  0  0  0  0  0  0
   -3.3726   22.0686  -27.6649 H   0  0  0  0  0  0  0  0  0  0  0  0
   -2.8352   20.4935  -26.9157 H   0  0  0  0  0  0  0  0  0  0  0  0
   -1.7672   22.5885  -25.9503 H   0  0  0  0  0  0  0  0  0  0  0  0
   -0.6385   21.3133  -26.5334 H   0  0  0  0  0  0  0  0  0  0  0  0
  1  2  2  0
  2  3  1  0
  3  4  1  0
  4  5  2  0
  5  6  1  0
  6  7  2  0
  7  8  1  0
  8  9  2  0
  8 10  2  0
  8 11  1  0
 11 12  1  0
 12 13  1  0
 13 14  1  0
 14 15  1  0
  7 16  1  0
 16 17  2  0
  2 18  1  0
 18 19  1  0
 19 20  2  0
 20 21  1  0
 21 22  2  0
 22 23  1  0
 23 24  2  0
 24 25  1  0
 25 26  1  0
 26 27  1  0
 27 28  1  0
 28 29  1  0
 29 30  1  0
 17  4  1  0
 24 19  1  0
 30 25  1  0
 15 11  1  0
  5 31  1  0
  6 32  1  0
 12 33  1  0
 12 34  1  0
 13 35  1  0
 13 36  1  0
 14 37  1  0
 14 38  1  0
 15 39  1  0
 15 40  1  0
 16 41  1  0
 17 42  1  0
 18 43  1  0
 20 44  1  0
 21 45  1  0
 22 46  1  0
 23 47  1  0
 26 48  1  0
 26 49  1  0
 27 50  1  0
 27 51  1  0
 28 52  1  0
 28 53  1  0
 29 54  1  0
 29 55  1  0
 30 56  1  0
 30 57  1  0
M  CHG  1   3  -1
M  END
>  <UniqueID>  (36) 
35

>  <SMILES>  (36) 
O=C([N-]c1ccc(S(=O)(=O)N2CCCC2)cc1)Nc1ccccc1N1CCCCC1

>  <Energy>  (36) 
72.17371976810391

>  <Genealogy>  (36) 
O=C([N-]c1ccc(S(=O)(=O)N2CCCC2)cc1)Nc1ccccc1N1CCCCC1 (protonated)
O=C([N-]c1ccc(S(=O)(=O)N2CCCC2)cc1)Nc1ccccc1N1CCCCC1 (3D coordinates assigned)
O=C([N-]c1ccc(S(=O)(=O)N2CCCC2)cc1)Nc1ccccc1N1CCCCC1 (nonaromatic ring conformer: 72.17371976810391 kcal/mol)

>  <smiles>  (36) 
O=C(Nc1ccc(S(=O)(=O)N2CCCC2)cc1)Nc1ccccc1N1CCCCC1

>  <score_type>  (36) 
oracle

>  <origin>  (36) 
adgpu

>  <m_score__min__energy>  (36) 
-11.85

>  <m_primary>  (36) 
energy

$$$$
36:0
     RDKit          3D

 54 57  0  0  0  0  0  0  0  0999 V2000
   -3.6290   25.2800  -30.4790 O   0  0  0  0  0  0  0  0  0  0  0  0
   -3.8670   24.0430  -30.4280 C   0  0  0  0  0  0  0  0  0  0  0  0
   -2.8860   23.1430  -29.8950 N   0  0  0  0  0  0  0  0  0  0  0  0
   -2.2400   23.2420  -28.6170 C   0  0  0  0  0  0  0  0  0  0  0  0
   -2.0090   22.1140  -27.8090 C   0  0  0  0  0  0  0  0  0  0  0  0
   -1.3570   22.2500  -26.5800 C   0  0  0  0  0  0  0  0  0  0  0  0
   -0.9110   23.5070  -26.1510 C   0  0  0  0  0  0  0  0  0  0  0  0
   -0.0970   23.6800  -24.5920 S   0  0  0  0  0  0  0  0  0  0  0  0
   -0.8610   22.9080  -23.5530 O   0  0  0  0  0  0  0  0  0  0  0  0
    1.2810   23.0870  -24.6920 O   0  0  0  0  0  0  0  0  0  0  0  0
    0.0360   25.3460  -24.0820 N   0  0  0  0  0  0  0  0  0  0  0  0
    1.0070   26.1010  -24.8790 C   0  0  0  0  0  0  0  0  0  0  0  0
    0.5840   27.5620  -24.8090 C   0  0  0  0  0  0  0  0  0  0  0  0
   -0.8660   27.5450  -24.3460 C   0  0  0  0  0  0  0  0  0  0  0  0
   -1.2280   26.0730  -24.2080 C   0  0  0  0  0  0  0  0  0  0  0  0
   -1.1290   24.6290  -26.9620 C   0  0  0  0  0  0  0  0  0  0  0  0
   -1.7780   24.4930  -28.1930 C   0  0  0  0  0  0  0  0  0  0  0  0
   -5.1530   23.5100  -30.9390 C   0  0  0  0  0  0  0  0  0  0  0  0
   -6.3350   24.2380  -30.7040 C   0  0  0  0  0  0  0  0  0  0  0  0
   -7.5580   23.7980  -31.2140 C   0  0  0  0  0  0  0  0  0  0  0  0
   -7.6210   22.6230  -31.9640 C   0  0  0  0  0  0  0  0  0  0  0  0
   -6.4630   21.8810  -32.1980 C   0  0  0  0  0  0  0  0  0  0  0  0
   -5.2270   22.3070  -31.6870 C   0  0  0  0  0  0  0  0  0  0  0  0
   -4.0750   21.4700  -31.8790 N   0  0  0  0  0  0  0  0  0  0  0  0
   -2.9390   21.9250  -32.6830 C   0  0  0  0  0  0  0  0  0  0  0  0
   -2.6960   20.9180  -33.8110 C   0  0  0  0  0  0  0  0  0  0  0  0
   -2.5590   19.6040  -33.2940 O   0  0  0  0  0  0  0  0  0  0  0  0
   -3.7720   19.1910  -32.6870 C   0  0  0  0  0  0  0  0  0  0  0  0
   -4.0990   20.0640  -31.4710 C   0  0  0  0  0  0  0  0  0  0  0  0
   -2.3426   21.1213  -28.1455 H   0  0  0  0  0  0  0  0  0  0  0  0
   -1.1933   21.3657  -25.9465 H   0  0  0  0  0  0  0  0  0  0  0  0
    0.3370   25.3580  -23.0780 H   0  0  0  0  0  0  0  0  0  0  0  0
    2.0176   25.9780  -24.4625 H   0  0  0  0  0  0  0  0  0  0  0  0
    1.0302   25.7438  -25.9191 H   0  0  0  0  0  0  0  0  0  0  0  0
    1.2107   28.1094  -24.0896 H   0  0  0  0  0  0  0  0  0  0  0  0
    0.6958   28.0658  -25.7804 H   0  0  0  0  0  0  0  0  0  0  0  0
   -0.9673   28.0587  -23.3786 H   0  0  0  0  0  0  0  0  0  0  0  0
   -1.5281   28.0648  -25.0541 H   0  0  0  0  0  0  0  0  0  0  0  0
   -1.8478   25.9161  -23.3129 H   0  0  0  0  0  0  0  0  0  0  0  0
   -1.8051   25.7215  -25.0760 H   0  0  0  0  0  0  0  0  0  0  0  0
   -0.7882   25.6204  -26.6288 H   0  0  0  0  0  0  0  0  0  0  0  0
   -1.9264   25.3755  -28.8326 H   0  0  0  0  0  0  0  0  0  0  0  0
   -6.2945   25.1641  -30.1118 H   0  0  0  0  0  0  0  0  0  0  0  0
   -8.4730   24.3783  -31.0243 H   0  0  0  0  0  0  0  0  0  0  0  0
   -8.5842   22.2816  -32.3710 H   0  0  0  0  0  0  0  0  0  0  0  0
   -6.5190   20.9543  -32.7879 H   0  0  0  0  0  0  0  0  0  0  0  0
   -3.1620   22.9132  -33.1116 H   0  0  0  0  0  0  0  0  0  0  0  0
   -2.0417   22.0015  -32.0514 H   0  0  0  0  0  0  0  0  0  0  0  0
   -3.5472   20.9444  -34.5073 H   0  0  0  0  0  0  0  0  0  0  0  0
   -1.7660   21.1902  -34.3316 H   0  0  0  0  0  0  0  0  0  0  0  0
   -4.5881   19.2738  -33.4199 H   0  0  0  0  0  0  0  0  0  0  0  0
   -3.6609   18.1491  -32.3523 H   0  0  0  0  0  0  0  0  0  0  0  0
   -5.0981   19.8069  -31.0893 H   0  0  0  0  0  0  0  0  0  0  0  0
   -3.3567   19.8925  -30.6775 H   0  0  0  0  0  0  0  0  0  0  0  0
  1  2  2  0
  2  3  1  0
  3  4  1  0
  4  5  2  0
  5  6  1  0
  6  7  2  0
  7  8  1  0
  8  9  2  0
  8 10  2  0
  8 11  1  0
 11 12  1  0
 12 13  1  0
 13 14  1  0
 14 15  1  0
  7 16  1  0
 16 17  2  0
  2 18  1  0
 18 19  2  0
 19 20  1  0
 20 21  2  0
 21 22  1  0
 22 23  2  0
 23 24  1  0
 24 25  1  0
 25 26  1  0
 26 27  1  0
 27 28  1  0
 28 29  1  0
 17  4  1  0
 23 18  1  0
 29 24  1  0
 15 11  1  0
  5 30  1  0
  6 31  1  0
 11 32  1  0
 12 33  1  0
 12 34  1  0
 13 35  1  0
 13 36  1  0
 14 37  1  0
 14 38  1  0
 15 39  1  0
 15 40  1  0
 16 41  1  0
 17 42  1  0
 19 43  1  0
 20 44  1  0
 21 45  1  0
 22 46  1  0
 25 47  1  0
 25 48  1  0
 26 49  1  0
 26 50  1  0
 28 51  1  0
 28 52  1  0
 29 53  1  0
 29 54  1  0
M  CHG  2   3  -1  11   1
M  END
>  <UniqueID>  (37) 
36

>  <SMILES>  (37) 
O=C([N-]c1ccc(S(=O)(=O)[NH+]2CCCC2)cc1)c1ccccc1N1CCOCC1

>  <Energy>  (37) 
71.31139791593361

>  <Genealogy>  (37) 
O=C([N-]c1ccc(S(=O)(=O)[NH+]2CCCC2)cc1)c1ccccc1N1CCOCC1 (protonated)
O=C([N-]c1ccc(S(=O)(=O)[NH+]2CCCC2)cc1)c1ccccc1N1CCOCC1 (3D coordinates assigned)
O=C([N-]c1ccc(S(=O)(=O)[NH+]2CCCC2)cc1)c1ccccc1N1CCOCC1 (nonaromatic ring conformer: 71.31139791593361 kcal/mol)

>  <smiles>  (37) 
O=C(Nc1ccc(S(=O)(=O)N2CCCC2)cc1)c1ccccc1N1CCOCC1

>  <score_type>  (37) 
oracle

>  <origin>  (37) 
adgpu

>  <m_score__min__energy>  (37) 
-10.42

>  <m_primary>  (37) 
energy

$$$$
37:0
     RDKit          3D

 56 59  0  0  0  0  0  0  0  0999 V2000
   -0.0620   21.7270  -31.6180 O   0  0  0  0  0  0  0  0  0  0  0  0
   -0.3940   21.1730  -32.7020 C   0  0  0  0  0  0  0  0  0  0  0  0
    0.5520   21.2800  -33.8400 C   0  0  0  0  0  0  0  0  0  0  0  0
    1.5160   20.3400  -34.1590 C   0  0  0  0  0  0  0  0  0  0  0  0
    2.1600   20.8230  -35.2760 C   0  0  0  0  0  0  0  0  0  0  0  0
    1.5490   22.0220  -35.5780 C   0  0  0  0  0  0  0  0  0  0  0  0
    0.5980   22.2650  -34.7060 O   0  0  0  0  0  0  0  0  0  0  0  0
   -1.6690   20.4810  -32.7830 N   0  0  0  0  0  0  0  0  0  0  0  0
   -2.1710   20.0240  -34.1000 C   0  0  0  0  0  0  0  0  0  0  0  0
   -3.5700   19.3930  -34.0920 C   0  0  0  0  0  0  0  0  0  0  0  0
   -4.3650   19.9010  -32.9840 N   0  0  0  0  0  0  0  0  0  0  0  0
   -5.7720   20.1640  -33.1460 C   0  0  0  0  0  0  0  0  0  0  0  0
   -6.4390   19.4740  -33.9620 O   0  0  0  0  0  0  0  0  0  0  0  0
   -6.4360   21.2520  -32.3820 C   0  0  0  0  0  0  0  0  0  0  0  0
   -5.6500   22.2180  -31.7310 C   0  0  0  0  0  0  0  0  0  0  0  0
   -6.2450   23.2620  -31.0100 C   0  0  0  0  0  0  0  0  0  0  0  0
   -5.2360   24.4710  -30.2140 S   0  0  0  0  0  0  0  0  0  0  0  0
   -6.1080   25.5850  -29.7040 O   0  0  0  0  0  0  0  0  0  0  0  0
   -4.2770   25.0560  -31.2150 O   0  0  0  0  0  0  0  0  0  0  0  0
   -4.3330   23.7810  -28.8840 N   0  0  0  0  0  0  0  0  0  0  0  0
   -4.2030   22.3180  -29.0530 C   0  0  0  0  0  0  0  0  0  0  0  0
   -3.0820   21.7480  -28.1800 C   0  0  0  0  0  0  0  0  0  0  0  0
   -1.7180   22.3450  -28.5730 C   0  0  0  0  0  0  0  0  0  0  0  0
   -1.8390   23.7360  -29.2180 C   0  0  0  0  0  0  0  0  0  0  0  0
   -3.0510   24.4980  -28.6650 C   0  0  0  0  0  0  0  0  0  0  0  0
   -7.6400   23.3450  -30.9420 C   0  0  0  0  0  0  0  0  0  0  0  0
   -8.4320   22.4050  -31.6010 C   0  0  0  0  0  0  0  0  0  0  0  0
   -7.8420   21.3560  -32.3210 C   0  0  0  0  0  0  0  0  0  0  0  0
   -8.6500   20.4200  -32.9650 O   0  0  0  0  0  0  0  0  0  0  0  0
   -3.7930   19.6940  -31.6600 C   0  0  0  0  0  0  0  0  0  0  0  0
   -2.4720   20.4480  -31.5420 C   0  0  0  0  0  0  0  0  0  0  0  0
    1.7251   19.3992  -33.6287 H   0  0  0  0  0  0  0  0  0  0  0  0
    2.9922   20.3492  -35.8172 H   0  0  0  0  0  0  0  0  0  0  0  0
    1.8176   22.6753  -36.4212 H   0  0  0  0  0  0  0  0  0  0  0  0
   -2.1954   20.8934  -34.7735 H   0  0  0  0  0  0  0  0  0  0  0  0
   -1.4836   19.2294  -34.4257 H   0  0  0  0  0  0  0  0  0  0  0  0
   -4.0777   19.6317  -35.0382 H   0  0  0  0  0  0  0  0  0  0  0  0
   -3.4627   18.3044  -33.9762 H   0  0  0  0  0  0  0  0  0  0  0  0
   -4.5534   22.1538  -31.7881 H   0  0  0  0  0  0  0  0  0  0  0  0
   -5.1529   21.8402  -28.7714 H   0  0  0  0  0  0  0  0  0  0  0  0
   -3.9576   22.1134  -30.1056 H   0  0  0  0  0  0  0  0  0  0  0  0
   -3.2894   21.9876  -27.1266 H   0  0  0  0  0  0  0  0  0  0  0  0
   -3.0430   20.6586  -28.3272 H   0  0  0  0  0  0  0  0  0  0  0  0
   -1.0979   22.4299  -27.6684 H   0  0  0  0  0  0  0  0  0  0  0  0
   -1.2649   21.6735  -29.3172 H   0  0  0  0  0  0  0  0  0  0  0  0
   -0.9257   24.3111  -29.0057 H   0  0  0  0  0  0  0  0  0  0  0  0
   -1.9720   23.6079  -30.3024 H   0  0  0  0  0  0  0  0  0  0  0  0
   -2.9106   24.6438  -27.5838 H   0  0  0  0  0  0  0  0  0  0  0  0
   -3.1123   25.4558  -29.2025 H   0  0  0  0  0  0  0  0  0  0  0  0
   -8.1136   24.1543  -30.3669 H   0  0  0  0  0  0  0  0  0  0  0  0
   -9.5280   22.4870  -31.5557 H   0  0  0  0  0  0  0  0  0  0  0  0
   -8.3770   19.9960  -33.8450 H   0  0  0  0  0  0  0  0  0  0  0  0
   -4.4940   20.0647  -30.8977 H   0  0  0  0  0  0  0  0  0  0  0  0
   -3.6120   18.6198  -31.5073 H   0  0  0  0  0  0  0  0  0  0  0  0
   -2.6938   21.4849  -31.2492 H   0  0  0  0  0  0  0  0  0  0  0  0
   -1.8705   19.9081  -30.7958 H   0  0  0  0  0  0  0  0  0  0  0  0
  1  2  2  0
  2  3  1  0
  3  4  2  0
  4  5  1  0
  5  6  2  0
  6  7  1  0
  2  8  1  0
  8  9  1  0
  9 10  1  0
 10 11  1  0
 11 12  1  0
 12 13  2  0
 12 14  1  0
 14 15  2  0
 15 16  1  0
 16 17  1  0
 17 18  2  0
 17 19  2  0
 17 20  1  0
 20 21  1  0
 21 22  1  0
 22 23  1  0
 23 24  1  0
 24 25  1  0
 16 26  2  0
 26 27  1  0
 27 28  2  0
 28 29  1  0
 11 30  1  0
 30 31  1  0
  7  3  1  0
 31  8  1  0
 28 14  1  0
 25 20  1  0
  4 32  1  0
  5 33  1  0
  6 34  1  0
  9 35  1  0
  9 36  1  0
 10 37  1  0
 10 38  1  0
 15 39  1  0
 21 40  1  0
 21 41  1  0
 22 42  1  0
 22 43  1  0
 23 44  1  0
 23 45  1  0
 24 46  1  0
 24 47  1  0
 25 48  1  0
 25 49  1  0
 26 50  1  0
 27 51  1  0
 29 52  1  0
 30 53  1  0
 30 54  1  0
 31 55  1  0
 31 56  1  0
M  END
>  <UniqueID>  (38) 
37

>  <SMILES>  (38) 
O=C(c1ccco1)N1CCN(C(=O)c2cc(S(=O)(=O)N3CCCCC3)ccc2O)CC1

>  <Energy>  (38) 
99.23919148030352

>  <Genealogy>  (38) 
O=C(c1ccco1)N1CCN(C(=O)c2cc(S(=O)(=O)N3CCCCC3)ccc2O)CC1 (3D coordinates assigned)
O=C(c1ccco1)N1CCN(C(=O)c2cc(S(=O)(=O)N3CCCCC3)ccc2O)CC1 (nonaromatic ring conformer: 99.23919148030352 kcal/mol)

>  <smiles>  (38) 
O=C(c1ccco1)N1CCN(C(=O)c2cc(S(=O)(=O)N3CCCCC3)ccc2O)CC1

>  <score_type>  (38) 
oracle

>  <origin>  (38) 
adgpu

>  <m_score__min__energy>  (38) 
-10.91

>  <m_primary>  (38) 
energy

$$$$
38:0
     RDKit          3D

 50 53  0  0  0  0  0  0  0  0999 V2000
   -7.1040   25.2680  -29.8740 O   0  0  0  0  0  0  0  0  0  0  0  0
   -6.2790   24.6150  -30.5650 C   0  0  0  0  0  0  0  0  0  0  0  0
   -6.7390   23.9800  -31.7670 N   0  0  0  0  0  0  0  0  0  0  0  0
   -7.4290   22.7250  -31.8610 C   0  0  0  0  0  0  0  0  0  0  0  0
   -8.8290   22.7200  -31.8710 C   0  0  0  0  0  0  0  0  0  0  0  0
   -9.5300   21.5140  -31.9490 C   0  0  0  0  0  0  0  0  0  0  0  0
   -8.8370   20.3020  -32.0210 C   0  0  0  0  0  0  0  0  0  0  0  0
   -7.4360   20.2950  -32.0320 C   0  0  0  0  0  0  0  0  0  0  0  0
   -6.5600   18.7680  -32.1100 S   0  0  0  0  0  0  0  0  0  0  0  0
   -5.1230   19.0030  -31.7400 O   0  0  0  0  0  0  0  0  0  0  0  0
   -7.1560   17.8260  -31.1020 O   0  0  0  0  0  0  0  0  0  0  0  0
   -6.7030   18.0740  -33.7120 N   0  0  0  0  0  0  0  0  0  0  0  0
   -5.7080   18.5990  -34.6680 C   0  0  0  0  0  0  0  0  0  0  0  0
   -4.3130   17.9860  -34.4800 C   0  0  0  0  0  0  0  0  0  0  0  0
   -4.3840   16.4610  -34.5200 C   0  0  0  0  0  0  0  0  0  0  0  0
   -5.3920   15.9390  -33.4980 C   0  0  0  0  0  0  0  0  0  0  0  0
   -6.7670   16.5990  -33.6930 C   0  0  0  0  0  0  0  0  0  0  0  0
   -6.7360   21.5080  -31.9820 C   0  0  0  0  0  0  0  0  0  0  0  0
   -4.8890   24.4890  -30.0870 C   0  0  0  0  0  0  0  0  0  0  0  0
   -4.4050   23.5620  -29.1870 C   0  0  0  0  0  0  0  0  0  0  0  0
   -3.0570   23.8530  -29.0990 C   0  0  0  0  0  0  0  0  0  0  0  0
   -2.0460   23.1410  -28.2840 C   0  0  0  0  0  0  0  0  0  0  0  0
   -2.4470   22.0420  -27.5050 C   0  0  0  0  0  0  0  0  0  0  0  0
   -1.5190   21.3440  -26.7270 C   0  0  0  0  0  0  0  0  0  0  0  0
   -0.1810   21.7410  -26.7130 C   0  0  0  0  0  0  0  0  0  0  0  0
    0.2310   22.8410  -27.4670 C   0  0  0  0  0  0  0  0  0  0  0  0
   -0.6940   23.5530  -28.2470 C   0  0  0  0  0  0  0  0  0  0  0  0
   -0.2720   24.6780  -28.9550 O   0  0  0  0  0  0  0  0  0  0  0  0
   -2.7770   24.9180  -29.8750 N   0  0  0  0  0  0  0  0  0  0  0  0
   -3.8910   25.3050  -30.4770 N   0  0  0  0  0  0  0  0  0  0  0  0
   -9.3799   23.6706  -31.8172 H   0  0  0  0  0  0  0  0  0  0  0  0
  -10.6300   21.5181  -31.9538 H   0  0  0  0  0  0  0  0  0  0  0  0
   -9.3919   19.3534  -32.0690 H   0  0  0  0  0  0  0  0  0  0  0  0
   -6.0529   18.3787  -35.6891 H   0  0  0  0  0  0  0  0  0  0  0  0
   -5.6187   19.6806  -34.4888 H   0  0  0  0  0  0  0  0  0  0  0  0
   -3.6522   18.3380  -35.2859 H   0  0  0  0  0  0  0  0  0  0  0  0
   -3.9192   18.2963  -33.5009 H   0  0  0  0  0  0  0  0  0  0  0  0
   -4.6915   16.1404  -35.5263 H   0  0  0  0  0  0  0  0  0  0  0  0
   -3.3913   16.0548  -34.2759 H   0  0  0  0  0  0  0  0  0  0  0  0
   -5.4952   14.8505  -33.6183 H   0  0  0  0  0  0  0  0  0  0  0  0
   -5.0264   16.1825  -32.4895 H   0  0  0  0  0  0  0  0  0  0  0  0
   -7.1886   16.2544  -34.6488 H   0  0  0  0  0  0  0  0  0  0  0  0
   -7.3949   16.3085  -32.8378 H   0  0  0  0  0  0  0  0  0  0  0  0
   -5.6374   21.5078  -32.0378 H   0  0  0  0  0  0  0  0  0  0  0  0
   -4.9632   22.7735  -28.6610 H   0  0  0  0  0  0  0  0  0  0  0  0
   -3.5013   21.7282  -27.5076 H   0  0  0  0  0  0  0  0  0  0  0  0
   -1.8432   20.4818  -26.1258 H   0  0  0  0  0  0  0  0  0  0  0  0
    0.5501   21.1860  -26.1067 H   0  0  0  0  0  0  0  0  0  0  0  0
    1.2861   23.1517  -27.4500 H   0  0  0  0  0  0  0  0  0  0  0  0
   -0.7940   25.0400  -29.7430 H   0  0  0  0  0  0  0  0  0  0  0  0
  1  2  2  0
  2  3  1  0
  3  4  1  0
  4  5  2  0
  5  6  1  0
  6  7  2  0
  7  8  1  0
  8  9  1  0
  9 10  2  0
  9 11  2  0
  9 12  1  0
 12 13  1  0
 13 14  1  0
 14 15  1  0
 15 16  1  0
 16 17  1  0
  8 18  2  0
  2 19  1  0
 19 20  1  0
 20 21  2  0
 21 22  1  0
 22 23  2  0
 23 24  1  0
 24 25  2  0
 25 26  1  0
 26 27  2  0
 27 28  1  0
 21 29  1  0
 29 30  1  0
 18  4  1  0
 30 19  2  0
 17 12  1  0
 27 22  1  0
  5 31  1  0
  6 32  1  0
  7 33  1  0
 13 34  1  0
 13 35  1  0
 14 36  1  0
 14 37  1  0
 15 38  1  0
 15 39  1  0
 16 40  1  0
 16 41  1  0
 17 42  1  0
 17 43  1  0
 18 44  1  0
 20 45  1  0
 23 46  1  0
 24 47  1  0
 25 48  1  0
 26 49  1  0
 28 50  1  0
M  CHG  2   3  -1  29  -1
M  END
>  <UniqueID>  (39) 
38

>  <SMILES>  (39) 
O=C([N-]c1cccc(S(=O)(=O)N2CCCCC2)c1)c1cc(-c2ccccc2O)[n-]n1

>  <Energy>  (39) 
88.86996875388681

>  <Genealogy>  (39) 
O=C([N-]c1cccc(S(=O)(=O)N2CCCCC2)c1)c1cc(-c2ccccc2O)[n-]n1 (protonated)
O=C([N-]c1cccc(S(=O)(=O)N2CCCCC2)c1)c1cc(-c2ccccc2O)[n-]n1 (3D coordinates assigned)
O=C([N-]c1cccc(S(=O)(=O)N2CCCCC2)c1)c1cc(-c2ccccc2O)[n-]n1 (nonaromatic ring conformer: 88.86996875388681 kcal/mol)

>  <smiles>  (39) 
O=C(Nc1cccc(S(=O)(=O)N2CCCCC2)c1)c1cc(-c2ccccc2O)[nH]n1

>  <score_type>  (39) 
oracle

>  <origin>  (39) 
adgpu

>  <m_score__min__energy>  (39) 
-13.32

>  <m_primary>  (39) 
energy

$$$$
39:0
     RDKit          3D

 48 50  0  0  0  0  0  0  0  0999 V2000
   -9.6270   21.5430  -31.3750 C   0  0  0  0  0  0  0  0  0  0  0  0
   -8.1680   21.7310  -31.6700 C   0  0  0  0  0  0  0  0  0  0  0  0
   -7.3700   20.6320  -32.0160 C   0  0  0  0  0  0  0  0  0  0  0  0
   -6.0240   20.8160  -32.3420 C   0  0  0  0  0  0  0  0  0  0  0  0
   -5.4630   22.0970  -32.3300 C   0  0  0  0  0  0  0  0  0  0  0  0
   -4.1390   22.2560  -32.7230 O   0  0  0  0  0  0  0  0  0  0  0  0
   -6.2510   23.2060  -31.9610 C   0  0  0  0  0  0  0  0  0  0  0  0
   -5.7270   24.5410  -31.9500 N   0  0  0  0  0  0  0  0  0  0  0  0
   -5.2730   25.2490  -30.7890 C   0  0  0  0  0  0  0  0  0  0  0  0
   -6.0850   25.9120  -30.0910 O   0  0  0  0  0  0  0  0  0  0  0  0
   -3.8800   25.2930  -30.4700 N   0  0  0  0  0  0  0  0  0  0  0  0
   -3.2090   24.3800  -29.5910 C   0  0  0  0  0  0  0  0  0  0  0  0
   -3.6460   23.0570  -29.5460 C   0  0  0  0  0  0  0  0  0  0  0  0
   -3.0190   22.1330  -28.7140 C   0  0  0  0  0  0  0  0  0  0  0  0
   -1.9280   22.5090  -27.9130 C   0  0  0  0  0  0  0  0  0  0  0  0
   -1.2930   21.4580  -27.0410 C   0  0  0  0  0  0  0  0  0  0  0  0
   -1.4680   23.8530  -27.9530 C   0  0  0  0  0  0  0  0  0  0  0  0
   -0.0870   24.4390  -26.9890 S   0  0  0  0  0  0  0  0  0  0  0  0
    1.0550   24.9040  -27.8470 O   0  0  0  0  0  0  0  0  0  0  0  0
    0.4120   23.3000  -26.1420 O   0  0  0  0  0  0  0  0  0  0  0  0
   -0.6240   25.7360  -25.9520 N   0  0  0  0  0  0  0  0  0  0  0  0
    0.0940   26.9760  -26.2790 C   0  0  0  0  0  0  0  0  0  0  0  0
   -0.3700   28.1190  -25.3500 C   0  0  0  0  0  0  0  0  0  0  0  0
   -1.2320   27.6600  -24.3240 O   0  0  0  0  0  0  0  0  0  0  0  0
   -0.6160   26.5970  -23.6220 C   0  0  0  0  0  0  0  0  0  0  0  0
   -0.4020   25.3770  -24.5400 C   0  0  0  0  0  0  0  0  0  0  0  0
   -2.0920   24.7680  -28.8280 C   0  0  0  0  0  0  0  0  0  0  0  0
   -1.5760   26.0530  -28.9670 O   0  0  0  0  0  0  0  0  0  0  0  0
   -7.6080   23.0180  -31.6680 C   0  0  0  0  0  0  0  0  0  0  0  0
   -9.7813   21.5231  -30.2861 H   0  0  0  0  0  0  0  0  0  0  0  0
  -10.1995   22.3748  -31.8113 H   0  0  0  0  0  0  0  0  0  0  0  0
   -9.9699   20.5932  -31.8113 H   0  0  0  0  0  0  0  0  0  0  0  0
   -7.8047   19.6217  -32.0309 H   0  0  0  0  0  0  0  0  0  0  0  0
   -5.4023   19.9489  -32.6095 H   0  0  0  0  0  0  0  0  0  0  0  0
   -4.4928   22.7404  -30.1727 H   0  0  0  0  0  0  0  0  0  0  0  0
   -3.3827   21.0953  -28.6836 H   0  0  0  0  0  0  0  0  0  0  0  0
   -1.4489   21.7161  -25.9831 H   0  0  0  0  0  0  0  0  0  0  0  0
   -1.7519   20.4807  -27.2515 H   0  0  0  0  0  0  0  0  0  0  0  0
   -0.2144   21.4096  -27.2515 H   0  0  0  0  0  0  0  0  0  0  0  0
    1.1744   26.8163  -26.1475 H   0  0  0  0  0  0  0  0  0  0  0  0
   -0.1196   27.2511  -27.3224 H   0  0  0  0  0  0  0  0  0  0  0  0
    0.5150   28.5813  -24.8883 H   0  0  0  0  0  0  0  0  0  0  0  0
   -0.9287   28.8437  -25.9605 H   0  0  0  0  0  0  0  0  0  0  0  0
    0.3588   26.9353  -23.2407 H   0  0  0  0  0  0  0  0  0  0  0  0
   -1.2732   26.2989  -22.7918 H   0  0  0  0  0  0  0  0  0  0  0  0
    0.6285   25.0116  -24.4190 H   0  0  0  0  0  0  0  0  0  0  0  0
   -1.1225   24.5948  -24.2588 H   0  0  0  0  0  0  0  0  0  0  0  0
   -8.2405   23.8871  -31.4342 H   0  0  0  0  0  0  0  0  0  0  0  0
  1  2  1  0
  2  3  2  0
  3  4  1  0
  4  5  2  0
  5  6  1  0
  5  7  1  0
  7  8  1  0
  8  9  1  0
  9 10  2  0
  9 11  1  0
 11 12  1  0
 12 13  2  0
 13 14  1  0
 14 15  2  0
 15 16  1  0
 15 17  1  0
 17 18  1  0
 18 19  2  0
 18 20  2  0
 18 21  1  0
 21 22  1  0
 22 23  1  0
 23 24  1  0
 24 25  1  0
 25 26  1  0
 17 27  2  0
 27 28  1  0
  7 29  2  0
 29  2  1  0
 27 12  1  0
 26 21  1  0
  1 30  1  0
  1 31  1  0
  1 32  1  0
  3 33  1  0
  4 34  1  0
 13 35  1  0
 14 36  1  0
 16 37  1  0
 16 38  1  0
 16 39  1  0
 22 40  1  0
 22 41  1  0
 23 42  1  0
 23 43  1  0
 25 44  1  0
 25 45  1  0
 26 46  1  0
 26 47  1  0
 29 48  1  0
M  CHG  4   6  -1   8  -1  11  -1  28  -1
M  END
>  <UniqueID>  (40) 
39

>  <SMILES>  (40) 
Cc1ccc([O-])c([N-]C(=O)[N-]c2ccc(C)c(S(=O)(=O)N3CCOCC3)c2[O-])c1

>  <Energy>  (40) 
70.23073516365243

>  <Genealogy>  (40) 
Cc1ccc([O-])c([N-]C(=O)[N-]c2ccc(C)c(S(=O)(=O)N3CCOCC3)c2[O-])c1 (protonated)
Cc1ccc([O-])c([N-]C(=O)[N-]c2ccc(C)c(S(=O)(=O)N3CCOCC3)c2[O-])c1 (3D coordinates assigned)
Cc1ccc([O-])c([N-]C(=O)[N-]c2ccc(C)c(S(=O)(=O)N3CCOCC3)c2[O-])c1 (nonaromatic ring conformer: 70.23073516365243 kcal/mol)

>  <smiles>  (40) 
Cc1ccc(O)c(NC(=O)Nc2ccc(C)c(S(=O)(=O)N3CCOCC3)c2O)c1

>  <score_type>  (40) 
oracle

>  <origin>  (40) 
adgpu

>  <m_score__min__energy>  (40) 
-15.02

>  <m_primary>  (40) 
energy

$$$$
40:0
     RDKit          3D

 53 56  0  0  1  0  0  0  0  0999 V2000
   -6.4920   17.5230  -32.4210 C   0  0  0  0  0  0  0  0  0  0  0  0
   -7.6010   18.1150  -33.1060 N   0  0  0  0  0  0  0  0  0  0  0  0
   -8.3780   19.3690  -32.2070 S   0  0  0  0  0  0  0  0  0  0  0  0
   -9.4380   19.9430  -33.1240 O   0  0  0  0  0  0  0  0  0  0  0  0
   -8.9960   18.8400  -30.9510 O   0  0  0  0  0  0  0  0  0  0  0  0
   -7.2110   20.6230  -31.8560 C   0  0  0  0  0  0  0  0  0  0  0  0
   -7.4990   21.5200  -30.8370 C   0  0  0  0  0  0  0  0  0  0  0  0
   -6.6450   22.5380  -30.4880 C   0  0  0  0  0  0  0  0  0  0  0  0
   -5.4450   22.6600  -31.1960 C   0  0  0  0  0  0  0  0  0  0  0  0
   -4.6000   23.7310  -30.7940 N   0  0  0  0  0  0  0  0  0  0  0  0
   -3.5910   23.6120  -30.0340 C   0  0  0  0  0  0  0  0  0  0  0  0
   -3.2530   22.3720  -29.5430 C   0  0  0  0  0  0  0  0  0  0  0  0
   -2.1610   22.2100  -28.7160 C   0  0  0  0  0  0  0  0  0  0  0  0
   -1.7750   20.9100  -28.1770 C   0  0  0  0  0  0  0  0  0  0  0  0
   -0.5920   20.2900  -28.4190 C   0  0  0  0  0  0  0  0  0  0  0  0
   -0.3130   19.0440  -27.8570 C   0  0  0  0  0  0  0  0  0  0  0  0
   -1.2270   18.4050  -27.0410 C   0  0  0  0  0  0  0  0  0  0  0  0
   -2.4320   19.0500  -26.8020 C   0  0  0  0  0  0  0  0  0  0  0  0
   -2.6870   20.2650  -27.3580 C   0  0  0  0  0  0  0  0  0  0  0  0
   -3.8880   20.8520  -27.0890 F   0  0  0  0  0  0  0  0  0  0  0  0
   -1.4650   23.3460  -28.4330 N   0  0  0  0  0  0  0  0  0  0  0  0
   -1.8170   24.5460  -28.9280 C   0  0  0  0  0  0  0  0  0  0  0  0
   -0.8250   25.9690  -28.4870 S   0  0  0  0  0  0  0  0  0  0  0  0
   -0.9180   26.3510  -26.7510 C   0  0  0  0  0  0  0  0  0  0  0  0
    0.1320   27.0460  -26.1780 C   0  0  0  0  0  0  0  0  0  0  0  0
    0.1400   27.3860  -24.8260 C   0  0  0  0  0  0  0  0  0  0  0  0
   -0.9580   26.9990  -24.0630 C   0  0  0  0  0  0  0  0  0  0  0  0
   -2.0000   26.3060  -24.6530 C   0  0  0  0  0  0  0  0  0  0  0  0
   -2.0070   25.9700  -25.9870 C   0  0  0  0  0  0  0  0  0  0  0  0
   -3.0780   25.2540  -26.6010 N   0  0  0  0  0  0  0  0  0  0  0  0
   -2.8790   24.7210  -29.7360 N   0  0  0  0  0  0  0  0  0  0  0  0
   -5.1290   21.7870  -32.2150 C   0  0  0  0  0  0  0  0  0  0  0  0
   -6.0330   20.7820  -32.5170 C   0  0  0  0  0  0  0  0  0  0  0  0
   -6.6457   17.6051  -31.3349 H   0  0  0  0  0  0  0  0  0  0  0  0
   -6.4120   16.4622  -32.7009 H   0  0  0  0  0  0  0  0  0  0  0  0
   -5.5661   18.0469  -32.7009 H   0  0  0  0  0  0  0  0  0  0  0  0
   -7.2200   18.5850  -33.9790 H   0  0  0  0  0  0  0  0  0  0  0  0
   -8.4463   21.4119  -30.2883 H   0  0  0  0  0  0  0  0  0  0  0  0
   -6.8974   23.2361  -29.6762 H   0  0  0  0  0  0  0  0  0  0  0  0
   -3.8624   21.4972  -29.8138 H   0  0  0  0  0  0  0  0  0  0  0  0
    0.1545   20.7751  -29.0650 H   0  0  0  0  0  0  0  0  0  0  0  0
    0.6527   18.5611  -28.0674 H   0  0  0  0  0  0  0  0  0  0  0  0
   -1.0076   17.4224  -26.5978 H   0  0  0  0  0  0  0  0  0  0  0  0
   -3.1869   18.5752  -26.1580 H   0  0  0  0  0  0  0  0  0  0  0  0
    0.9853   27.3388  -26.8074 H   0  0  0  0  0  0  0  0  0  0  0  0
    0.9804   27.9380  -24.3800 H   0  0  0  0  0  0  0  0  0  0  0  0
   -0.9972   27.2441  -22.9914 H   0  0  0  0  0  0  0  0  0  0  0  0
   -2.8576   26.0118  -24.0302 H   0  0  0  0  0  0  0  0  0  0  0  0
   -4.0440   25.6340  -26.6980 H   0  0  0  0  0  0  0  0  0  0  0  0
   -2.8200   24.2880  -26.9630 H   0  0  0  0  0  0  0  0  0  0  0  0
   -3.1120   25.6650  -30.0920 H   0  0  0  0  0  0  0  0  0  0  0  0
   -4.1858   21.8857  -32.7724 H   0  0  0  0  0  0  0  0  0  0  0  0
   -5.7871   20.0808  -33.3281 H   0  0  0  0  0  0  0  0  0  0  0  0
  1  2  1  0
  2  3  1  0
  3  4  2  0
  3  5  2  0
  3  6  1  0
  6  7  2  0
  7  8  1  0
  8  9  2  0
  9 10  1  0
 10 11  2  0
 11 12  1  0
 12 13  2  0
 13 14  1  0
 14 15  2  0
 15 16  1  0
 16 17  2  0
 17 18  1  0
 18 19  2  0
 19 20  1  0
 13 21  1  0
 21 22  2  0
 22 23  1  0
 23 24  1  0
 24 25  2  0
 25 26  1  0
 26 27  2  0
 27 28  1  0
 28 29  2  0
 29 30  1  0
 22 31  1  0
  9 32  1  0
 32 33  2  0
 33  6  1  0
 31 11  1  0
 19 14  1  0
 29 24  1  0
  1 34  1  0
  1 35  1  0
  1 36  1  0
  2 37  1  0
  7 38  1  0
  8 39  1  0
 12 40  1  0
 15 41  1  0
 16 42  1  0
 17 43  1  0
 18 44  1  0
 25 45  1  0
 26 46  1  0
 27 47  1  0
 28 48  1  0
 30 49  1  0
 30 50  1  0
 31 51  1  0
 32 52  1  0
 33 53  1  0
M  END
>  <smiles>  (41) 
CNS(=O)(=O)c1ccc(N=c2cc(-c3ccccc3F)nc(Sc3ccccc3N)[nH]2)cc1

>  <score_type>  (41) 
oracle

>  <origin>  (41) 
adgpu

>  <m_score__min__energy>  (41) 
-10.66

>  <m_primary>  (41) 
energy

$$$$
41:0
     RDKit          3D

 61 64  0  0  0  0  0  0  0  0999 V2000
   -2.0660   23.3070  -27.8140 O   0  0  0  0  0  0  0  0  0  0  0  0
   -2.9370   22.1990  -28.3350 S   0  0  0  0  0  0  0  0  0  0  0  0
   -4.2220   22.1800  -27.5560 O   0  0  0  0  0  0  0  0  0  0  0  0
   -3.2760   22.4930  -30.0170 N   0  0  0  0  0  0  0  0  0  0  0  0
   -4.5020   23.0860  -30.5010 C   0  0  0  0  0  0  0  0  0  0  0  0
   -5.6420   22.3030  -30.7710 C   0  0  0  0  0  0  0  0  0  0  0  0
   -6.8290   22.8850  -31.2350 C   0  0  0  0  0  0  0  0  0  0  0  0
   -8.2520   21.8750  -31.5200 S   0  0  0  0  0  0  0  0  0  0  0  0
   -9.3100   22.6960  -32.2070 O   0  0  0  0  0  0  0  0  0  0  0  0
   -8.8030   21.4300  -30.1930 O   0  0  0  0  0  0  0  0  0  0  0  0
   -7.8840   20.4830  -32.5160 N   0  0  0  0  0  0  0  0  0  0  0  0
   -6.5410   20.5980  -33.1370 C   0  0  0  0  0  0  0  0  0  0  0  0
   -5.4840   19.6980  -32.4750 C   0  0  0  0  0  0  0  0  0  0  0  0
   -5.9100   18.2180  -32.5020 C   0  0  0  0  0  0  0  0  0  0  0  0
   -7.4390   18.0380  -32.4530 C   0  0  0  0  0  0  0  0  0  0  0  0
   -8.1030   19.2300  -31.7540 C   0  0  0  0  0  0  0  0  0  0  0  0
   -6.8830   24.2690  -31.4440 C   0  0  0  0  0  0  0  0  0  0  0  0
   -5.7630   25.0620  -31.1740 C   0  0  0  0  0  0  0  0  0  0  0  0
   -4.5790   24.4800  -30.6990 C   0  0  0  0  0  0  0  0  0  0  0  0
   -3.4810   25.2970  -30.4350 O   0  0  0  0  0  0  0  0  0  0  0  0
   -2.1370   20.6400  -28.1620 C   0  0  0  0  0  0  0  0  0  0  0  0
   -2.1660   19.9520  -26.9430 C   0  0  0  0  0  0  0  0  0  0  0  0
   -1.3680   18.8200  -26.7580 C   0  0  0  0  0  0  0  0  0  0  0  0
   -0.5280   18.3710  -27.7840 C   0  0  0  0  0  0  0  0  0  0  0  0
    0.2580   17.2840  -27.5590 F   0  0  0  0  0  0  0  0  0  0  0  0
   -0.5040   19.0480  -29.0160 C   0  0  0  0  0  0  0  0  0  0  0  0
    0.5930   18.5620  -30.3210 S   0  0  0  0  0  0  0  0  0  0  0  0
    1.9750   19.0860  -30.0510 O   0  0  0  0  0  0  0  0  0  0  0  0
    0.6700   17.0570  -30.3360 O   0  0  0  0  0  0  0  0  0  0  0  0
    0.0760   19.1610  -31.8890 N   0  0  0  0  0  0  0  0  0  0  0  0
   -1.2970   18.7210  -32.2100 C   0  0  0  0  0  0  0  0  0  0  0  0
   -1.8830   19.5410  -33.3790 C   0  0  0  0  0  0  0  0  0  0  0  0
   -0.8440   20.1100  -34.1550 O   0  0  0  0  0  0  0  0  0  0  0  0
   -0.1530   21.0960  -33.4010 C   0  0  0  0  0  0  0  0  0  0  0  0
    0.1860   20.6290  -31.9680 C   0  0  0  0  0  0  0  0  0  0  0  0
   -1.3310   20.1660  -29.2030 C   0  0  0  0  0  0  0  0  0  0  0  0
   -2.5480   22.1830  -30.7030 H   0  0  0  0  0  0  0  0  0  0  0  0
   -5.5992   21.2150  -30.6146 H   0  0  0  0  0  0  0  0  0  0  0  0
   -6.6221   20.3187  -34.1978 H   0  0  0  0  0  0  0  0  0  0  0  0
   -6.2101   21.6388  -33.0058 H   0  0  0  0  0  0  0  0  0  0  0  0
   -4.5322   19.8064  -33.0157 H   0  0  0  0  0  0  0  0  0  0  0  0
   -5.3739   20.0076  -31.4252 H   0  0  0  0  0  0  0  0  0  0  0  0
   -5.5313   17.7597  -33.4275 H   0  0  0  0  0  0  0  0  0  0  0  0
   -5.4900   17.7352  -31.6073 H   0  0  0  0  0  0  0  0  0  0  0  0
   -7.8264   17.9598  -33.4795 H   0  0  0  0  0  0  0  0  0  0  0  0
   -7.6694   17.1232  -31.8873 H   0  0  0  0  0  0  0  0  0  0  0  0
   -9.1839   19.0428  -31.6728 H   0  0  0  0  0  0  0  0  0  0  0  0
   -7.6553   19.3444  -30.7558 H   0  0  0  0  0  0  0  0  0  0  0  0
   -7.8068   24.7324  -31.8207 H   0  0  0  0  0  0  0  0  0  0  0  0
   -5.8113   26.1490  -31.3353 H   0  0  0  0  0  0  0  0  0  0  0  0
   -2.8180   20.3031  -26.1296 H   0  0  0  0  0  0  0  0  0  0  0  0
   -1.4000   18.2787  -25.8009 H   0  0  0  0  0  0  0  0  0  0  0  0
   -1.2773   17.6577  -32.4911 H   0  0  0  0  0  0  0  0  0  0  0  0
   -1.9298   18.8742  -31.3234 H   0  0  0  0  0  0  0  0  0  0  0  0
   -2.4905   18.8809  -34.0156 H   0  0  0  0  0  0  0  0  0  0  0  0
   -2.5054   20.3502  -32.9694 H   0  0  0  0  0  0  0  0  0  0  0  0
    0.7846   21.3422  -33.9209 H   0  0  0  0  0  0  0  0  0  0  0  0
   -0.8153   21.9701  -33.3152 H   0  0  0  0  0  0  0  0  0  0  0  0
    1.2127   20.9335  -31.7167 H   0  0  0  0  0  0  0  0  0  0  0  0
   -0.5176   21.0875  -31.2576 H   0  0  0  0  0  0  0  0  0  0  0  0
   -1.3459   20.6751  -30.1780 H   0  0  0  0  0  0  0  0  0  0  0  0
  1  2  2  0
  2  3  2  0
  2  4  1  0
  4  5  1  0
  5  6  2  0
  6  7  1  0
  7  8  1  0
  8  9  2  0
  8 10  2  0
  8 11  1  0
 11 12  1  0
 12 13  1  0
 13 14  1  0
 14 15  1  0
 15 16  1  0
  7 17  2  0
 17 18  1  0
 18 19  2  0
 19 20  1  0
  2 21  1  0
 21 22  2  0
 22 23  1  0
 23 24  2  0
 24 25  1  0
 24 26  1  0
 26 27  1  0
 27 28  2  0
 27 29  2  0
 27 30  1  0
 30 31  1  0
 31 32  1  0
 32 33  1  0
 33 34  1  0
 34 35  1  0
 26 36  2  0
 19  5  1  0
 36 21  1  0
 16 11  1  0
 35 30  1  0
  4 37  1  0
  6 38  1  0
 12 39  1  0
 12 40  1  0
 13 41  1  0
 13 42  1  0
 14 43  1  0
 14 44  1  0
 15 45  1  0
 15 46  1  0
 16 47  1  0
 16 48  1  0
 17 49  1  0
 18 50  1  0
 22 51  1  0
 23 52  1  0
 31 53  1  0
 31 54  1  0
 32 55  1  0
 32 56  1  0
 34 57  1  0
 34 58  1  0
 35 59  1  0
 35 60  1  0
 36 61  1  0
M  CHG  1  20  -1
M  END
>  <UniqueID>  (42) 
40

>  <SMILES>  (42) 
O=S(=O)(Nc1cc(S(=O)(=O)N2CCCCC2)ccc1[O-])c1ccc(F)c(S(=O)(=O)N2CCOCC2)c1

>  <Energy>  (42) 
77.80364061874278

>  <Genealogy>  (42) 
O=S(=O)(Nc1cc(S(=O)(=O)N2CCCCC2)ccc1[O-])c1ccc(F)c(S(=O)(=O)N2CCOCC2)c1 (protonated)
O=S(=O)(Nc1cc(S(=O)(=O)N2CCCCC2)ccc1[O-])c1ccc(F)c(S(=O)(=O)N2CCOCC2)c1 (3D coordinates assigned)
O=S(=O)(Nc1cc(S(=O)(=O)N2CCCCC2)ccc1[O-])c1ccc(F)c(S(=O)(=O)N2CCOCC2)c1 (nonaromatic ring conformer: 77.80364061874278 kcal/mol)

>  <smiles>  (42) 
O=S(=O)(Nc1cc(S(=O)(=O)N2CCCCC2)ccc1O)c1ccc(F)c(S(=O)(=O)N2CCOCC2)c1

>  <score_type>  (42) 
oracle

>  <origin>  (42) 
adgpu

>  <m_score__min__energy>  (42) 
-14.35

>  <m_primary>  (42) 
energy

$$$$
42:0
     RDKit          3D

 44 46  0  0  0  0  0  0  0  0999 V2000
   -6.0400   26.0090  -30.5820 O   0  0  0  0  0  0  0  0  0  0  0  0
   -5.2880   25.0100  -30.7360 C   0  0  0  0  0  0  0  0  0  0  0  0
   -3.8860   25.1360  -30.4640 N   0  0  0  0  0  0  0  0  0  0  0  0
   -3.1900   24.4740  -29.4000 C   0  0  0  0  0  0  0  0  0  0  0  0
   -3.6110   23.2230  -28.9140 C   0  0  0  0  0  0  0  0  0  0  0  0
   -2.8690   22.5630  -27.9300 C   0  0  0  0  0  0  0  0  0  0  0  0
   -1.7020   23.1410  -27.4260 C   0  0  0  0  0  0  0  0  0  0  0  0
   -1.2740   24.3920  -27.8970 C   0  0  0  0  0  0  0  0  0  0  0  0
    0.1960   25.1390  -27.2730 S   0  0  0  0  0  0  0  0  0  0  0  0
    0.1250   26.6240  -27.5090 O   0  0  0  0  0  0  0  0  0  0  0  0
    1.3660   24.5740  -28.0280 O   0  0  0  0  0  0  0  0  0  0  0  0
    0.3730   24.8170  -25.5600 N   0  0  0  0  0  0  0  0  0  0  0  0
   -0.9060   24.9960  -24.8260 C   0  0  0  0  0  0  0  0  0  0  0  0
   -0.8720   26.0990  -23.7530 C   0  0  0  0  0  0  0  0  0  0  0  0
   -0.1890   27.3510  -24.2980 C   0  0  0  0  0  0  0  0  0  0  0  0
    1.2330   27.0560  -24.8100 C   0  0  0  0  0  0  0  0  0  0  0  0
    1.5160   25.5510  -24.9790 C   0  0  0  0  0  0  0  0  0  0  0  0
   -2.0130   25.0440  -28.8960 C   0  0  0  0  0  0  0  0  0  0  0  0
   -5.8160   23.7410  -31.3090 C   0  0  0  0  0  0  0  0  0  0  0  0
   -7.2060   23.5060  -31.2420 C   0  0  0  0  0  0  0  0  0  0  0  0
   -7.7590   22.3240  -31.7420 C   0  0  0  0  0  0  0  0  0  0  0  0
   -9.4870   22.0480  -31.6330 Cl  0  0  0  0  0  0  0  0  0  0  0  0
   -6.9350   21.3580  -32.3200 C   0  0  0  0  0  0  0  0  0  0  0  0
   -5.5610   21.5750  -32.4050 C   0  0  0  0  0  0  0  0  0  0  0  0
   -4.9880   22.7590  -31.9210 C   0  0  0  0  0  0  0  0  0  0  0  0
   -3.6100   22.9180  -32.0960 O   0  0  0  0  0  0  0  0  0  0  0  0
   -4.5280   22.7620  -29.3098 H   0  0  0  0  0  0  0  0  0  0  0  0
   -3.2052   21.5862  -27.5519 H   0  0  0  0  0  0  0  0  0  0  0  0
   -1.1166   22.6145  -26.6578 H   0  0  0  0  0  0  0  0  0  0  0  0
   -1.6893   25.2493  -25.5556 H   0  0  0  0  0  0  0  0  0  0  0  0
   -1.1017   24.0503  -24.2993 H   0  0  0  0  0  0  0  0  0  0  0  0
   -1.9016   26.3479  -23.4563 H   0  0  0  0  0  0  0  0  0  0  0  0
   -0.3059   25.7336  -22.8835 H   0  0  0  0  0  0  0  0  0  0  0  0
   -0.7897   27.7503  -25.1285 H   0  0  0  0  0  0  0  0  0  0  0  0
   -0.1103   28.0795  -23.4776 H   0  0  0  0  0  0  0  0  0  0  0  0
    1.3627   27.5480  -25.7852 H   0  0  0  0  0  0  0  0  0  0  0  0
    1.9379   27.4392  -24.0575 H   0  0  0  0  0  0  0  0  0  0  0  0
    2.3858   25.4288  -25.6412 H   0  0  0  0  0  0  0  0  0  0  0  0
    1.7042   25.1342  -23.9786 H   0  0  0  0  0  0  0  0  0  0  0  0
   -1.6652   26.0115  -29.2872 H   0  0  0  0  0  0  0  0  0  0  0  0
   -7.8631   24.2636  -30.7900 H   0  0  0  0  0  0  0  0  0  0  0  0
   -7.3697   20.4252  -32.7086 H   0  0  0  0  0  0  0  0  0  0  0  0
   -4.9174   20.8066  -32.8581 H   0  0  0  0  0  0  0  0  0  0  0  0
   -3.1130   23.7880  -31.9650 H   0  0  0  0  0  0  0  0  0  0  0  0
  1  2  2  0
  2  3  1  0
  3  4  1  0
  4  5  2  0
  5  6  1  0
  6  7  2  0
  7  8  1  0
  8  9  1  0
  9 10  2  0
  9 11  2  0
  9 12  1  0
 12 13  1  0
 13 14  1  0
 14 15  1  0
 15 16  1  0
 16 17  1  0
  8 18  2  0
  2 19  1  0
 19 20  2  0
 20 21  1  0
 21 22  1  0
 21 23  2  0
 23 24  1  0
 24 25  2  0
 25 26  1  0
 18  4  1  0
 25 19  1  0
 17 12  1  0
  5 27  1  0
  6 28  1  0
  7 29  1  0
 13 30  1  0
 13 31  1  0
 14 32  1  0
 14 33  1  0
 15 34  1  0
 15 35  1  0
 16 36  1  0
 16 37  1  0
 17 38  1  0
 17 39  1  0
 18 40  1  0
 20 41  1  0
 23 42  1  0
 24 43  1  0
 26 44  1  0
M  CHG  1   3  -1
M  END
>  <UniqueID>  (43) 
41

>  <SMILES>  (43) 
O=C([N-]c1cccc(S(=O)(=O)N2CCCCC2)c1)c1cc(Cl)ccc1O

>  <Energy>  (43) 
62.608237573596256

>  <Genealogy>  (43) 
O=C([N-]c1cccc(S(=O)(=O)N2CCCCC2)c1)c1cc(Cl)ccc1O (protonated)
O=C([N-]c1cccc(S(=O)(=O)N2CCCCC2)c1)c1cc(Cl)ccc1O (3D coordinates assigned)
O=C([N-]c1cccc(S(=O)(=O)N2CCCCC2)c1)c1cc(Cl)ccc1O (nonaromatic ring conformer: 62.608237573596256 kcal/mol)

>  <smiles>  (43) 
O=C(Nc1cccc(S(=O)(=O)N2CCCCC2)c1)c1cc(Cl)ccc1O

>  <score_type>  (43) 
oracle

>  <origin>  (43) 
adgpu

>  <m_score__min__energy>  (43) 
-11.710000000000001

>  <m_primary>  (43) 
energy

$$$$
43:0
     RDKit          3D

 58 61  0  0  0  0  0  0  0  0999 V2000
   -0.4010   29.8650  -25.0100 C   0  0  0  0  0  0  0  0  0  0  0  0
   -0.3040   28.4210  -25.2740 N   0  0  0  0  0  0  0  0  0  0  0  0
    0.9310   28.1190  -26.0210 C   0  0  0  0  0  0  0  0  0  0  0  0
    1.1390   26.6020  -26.2240 C   0  0  0  0  0  0  0  0  0  0  0  0
   -0.0270   25.7340  -25.7100 C   0  0  0  0  0  0  0  0  0  0  0  0
   -1.3970   25.6490  -26.8870 S   0  0  0  0  0  0  0  0  0  0  0  0
   -1.2810   26.7870  -27.8610 O   0  0  0  0  0  0  0  0  0  0  0  0
   -2.6740   25.8580  -26.1230 O   0  0  0  0  0  0  0  0  0  0  0  0
   -1.4950   24.1050  -27.7690 C   0  0  0  0  0  0  0  0  0  0  0  0
   -1.1270   22.8780  -27.1640 C   0  0  0  0  0  0  0  0  0  0  0  0
   -0.5320   22.7610  -25.5130 Cl  0  0  0  0  0  0  0  0  0  0  0  0
   -1.2530   21.6840  -27.8780 C   0  0  0  0  0  0  0  0  0  0  0  0
   -1.6850   21.6890  -29.2000 C   0  0  0  0  0  0  0  0  0  0  0  0
   -1.9980   22.8910  -29.8330 C   0  0  0  0  0  0  0  0  0  0  0  0
   -2.3560   22.8570  -31.2230 N   0  0  0  0  0  0  0  0  0  0  0  0
   -1.9180   21.8960  -32.1970 C   0  0  0  0  0  0  0  0  0  0  0  0
   -0.7060   21.5570  -32.2090 O   0  0  0  0  0  0  0  0  0  0  0  0
   -2.8090   21.3060  -33.1560 N   0  0  0  0  0  0  0  0  0  0  0  0
   -4.1830   20.9500  -32.9450 C   0  0  0  0  0  0  0  0  0  0  0  0
   -4.5710   19.6390  -33.2210 C   0  0  0  0  0  0  0  0  0  0  0  0
   -5.8560   19.2080  -32.9160 C   0  0  0  0  0  0  0  0  0  0  0  0
   -6.7990   20.0970  -32.3950 C   0  0  0  0  0  0  0  0  0  0  0  0
   -8.3610   19.4160  -31.9520 Cl  0  0  0  0  0  0  0  0  0  0  0  0
   -6.4660   21.4620  -32.2150 C   0  0  0  0  0  0  0  0  0  0  0  0
   -7.7000   22.6490  -31.7210 S   0  0  0  0  0  0  0  0  0  0  0  0
   -9.0750   22.0450  -31.7490 O   0  0  0  0  0  0  0  0  0  0  0  0
   -7.7070   23.8040  -32.6830 O   0  0  0  0  0  0  0  0  0  0  0  0
   -7.3000   23.2500  -30.0790 C   0  0  0  0  0  0  0  0  0  0  0  0
   -5.8430   23.0910  -29.6800 C   0  0  0  0  0  0  0  0  0  0  0  0
   -6.3870   24.4640  -30.0460 C   0  0  0  0  0  0  0  0  0  0  0  0
   -5.1260   21.8750  -32.4540 C   0  0  0  0  0  0  0  0  0  0  0  0
   -4.6980   23.1810  -32.2040 O   0  0  0  0  0  0  0  0  0  0  0  0
   -1.9640   24.0920  -29.1020 C   0  0  0  0  0  0  0  0  0  0  0  0
   -2.4140   25.2660  -29.6990 O   0  0  0  0  0  0  0  0  0  0  0  0
   -0.4740   26.1510  -24.2910 C   0  0  0  0  0  0  0  0  0  0  0  0
   -0.3430   27.6610  -24.0160 C   0  0  0  0  0  0  0  0  0  0  0  0
   -0.4127   30.0392  -23.9239 H   0  0  0  0  0  0  0  0  0  0  0  0
    0.4647   30.3779  -25.4543 H   0  0  0  0  0  0  0  0  0  0  0  0
   -1.3275   30.2576  -25.4543 H   0  0  0  0  0  0  0  0  0  0  0  0
    0.8750   28.6032  -27.0071 H   0  0  0  0  0  0  0  0  0  0  0  0
    1.7801   28.4988  -25.4338 H   0  0  0  0  0  0  0  0  0  0  0  0
    1.2639   26.4111  -27.3001 H   0  0  0  0  0  0  0  0  0  0  0  0
    2.0265   26.3216  -25.6378 H   0  0  0  0  0  0  0  0  0  0  0  0
    0.3535   24.7055  -25.6237 H   0  0  0  0  0  0  0  0  0  0  0  0
   -1.0079   20.7295  -27.3894 H   0  0  0  0  0  0  0  0  0  0  0  0
   -1.7801   20.7403  -29.7486 H   0  0  0  0  0  0  0  0  0  0  0  0
   -3.8556   18.9425  -33.6827 H   0  0  0  0  0  0  0  0  0  0  0  0
   -6.1333   18.1572  -33.0863 H   0  0  0  0  0  0  0  0  0  0  0  0
   -8.2667   22.9903  -29.6228 H   0  0  0  0  0  0  0  0  0  0  0  0
   -5.5801   22.8638  -28.6363 H   0  0  0  0  0  0  0  0  0  0  0  0
   -5.0049   22.4685  -30.0265 H   0  0  0  0  0  0  0  0  0  0  0  0
   -6.5176   25.2296  -29.2670 H   0  0  0  0  0  0  0  0  0  0  0  0
   -6.1054   25.2458  -30.7668 H   0  0  0  0  0  0  0  0  0  0  0  0
   -3.7560   23.4230  -31.9310 H   0  0  0  0  0  0  0  0  0  0  0  0
   -1.5283   25.8652  -24.1616 H   0  0  0  0  0  0  0  0  0  0  0  0
    0.1918   25.6375  -23.5818 H   0  0  0  0  0  0  0  0  0  0  0  0
   -1.2051   27.9948  -23.4199 H   0  0  0  0  0  0  0  0  0  0  0  0
    0.5942   27.8389  -23.4683 H   0  0  0  0  0  0  0  0  0  0  0  0
  1  2  1  0
  2  3  1  0
  3  4  1  0
  4  5  1  0
  5  6  1  0
  6  7  2  0
  6  8  2  0
  6  9  1  0
  9 10  2  0
 10 11  1  0
 10 12  1  0
 12 13  2  0
 13 14  1  0
 14 15  1  0
 15 16  1  0
 16 17  2  0
 16 18  1  0
 18 19  1  0
 19 20  2  0
 20 21  1  0
 21 22  2  0
 22 23  1  0
 22 24  1  0
 24 25  1  0
 25 26  2  0
 25 27  2  0
 25 28  1  0
 28 29  1  0
 29 30  1  0
 24 31  2  0
 31 32  1  0
 14 33  2  0
 33 34  1  0
  5 35  1  0
 35 36  1  0
 36  2  1  0
 33  9  1  0
 31 19  1  0
 30 28  1  0
  1 37  1  0
  1 38  1  0
  1 39  1  0
  3 40  1  0
  3 41  1  0
  4 42  1  0
  4 43  1  0
  5 44  1  0
 12 45  1  0
 13 46  1  0
 20 47  1  0
 21 48  1  0
 28 49  1  0
 29 50  1  0
 29 51  1  0
 30 52  1  0
 30 53  1  0
 32 54  1  0
 35 55  1  0
 35 56  1  0
 36 57  1  0
 36 58  1  0
M  CHG  3  15  -1  18  -1  34  -1
M  END
>  <UniqueID>  (44) 
42

>  <SMILES>  (44) 
CN1CCC(S(=O)(=O)c2c(Cl)ccc([N-]C(=O)[N-]c3ccc(Cl)c(S(=O)(=O)C4CC4)c3O)c2[O-])CC1

>  <Energy>  (44) 
342.16631244873673

>  <Genealogy>  (44) 
CN1CCC(S(=O)(=O)c2c(Cl)ccc([N-]C(=O)[N-]c3ccc(Cl)c(S(=O)(=O)C4CC4)c3O)c2[O-])CC1 (protonated)
CN1CCC(S(=O)(=O)c2c(Cl)ccc([N-]C(=O)[N-]c3ccc(Cl)c(S(=O)(=O)C4CC4)c3O)c2[O-])CC1 (3D coordinates assigned)
CN1CCC(S(=O)(=O)c2c(Cl)ccc([N-]C(=O)[N-]c3ccc(Cl)c(S(=O)(=O)C4CC4)c3O)c2[O-])CC1 (nonaromatic ring conformer: 342.16631244873673 kcal/mol)

>  <smiles>  (44) 
CN1CCC(S(=O)(=O)c2c(Cl)ccc(NC(=O)Nc3ccc(Cl)c(S(=O)(=O)C4CC4)c3O)c2O)CC1

>  <score_type>  (44) 
oracle

>  <origin>  (44) 
adgpu

>  <m_score__min__energy>  (44) 
-17.27

>  <m_primary>  (44) 
energy

$$$$
44:0
     RDKit          3D

 41 43  0  0  0  0  0  0  0  0999 V2000
   -2.9502   17.6128  -26.0810 H   0  0  0  0  0  0  0  0  0  0  0  0
   -2.3580   18.4130  -26.5490 C   0  0  0  0  0  0  0  0  0  0  0  0
   -1.0840   18.1740  -26.9570 N   0  0  0  0  0  0  0  0  0  0  0  0
   -0.3290   19.1480  -27.5380 C   0  0  0  0  0  0  0  0  0  0  0  0
    0.9820   18.8850  -27.9520 O   0  0  0  0  0  0  0  0  0  0  0  0
    1.3370   18.7020  -29.3170 C   0  0  0  0  0  0  0  0  0  0  0  0
    2.3132   18.1987  -29.3777 H   0  0  0  0  0  0  0  0  0  0  0  0
    0.5746   18.0845  -29.8145 H   0  0  0  0  0  0  0  0  0  0  0  0
    1.3977   19.6812  -29.8145 H   0  0  0  0  0  0  0  0  0  0  0  0
   -0.8810   20.4240  -27.7190 C   0  0  0  0  0  0  0  0  0  0  0  0
   -0.1770   21.3650  -28.2710 N   0  0  0  0  0  0  0  0  0  0  0  0
   -0.7570   22.9770  -28.5410 S   0  0  0  0  0  0  0  0  0  0  0  0
    0.2820   23.7840  -29.2660 O   0  0  0  0  0  0  0  0  0  0  0  0
   -1.0570   23.6210  -27.2160 O   0  0  0  0  0  0  0  0  0  0  0  0
   -2.2170   22.9000  -29.5260 C   0  0  0  0  0  0  0  0  0  0  0  0
   -2.6730   21.6680  -30.0210 C   0  0  0  0  0  0  0  0  0  0  0  0
   -2.1206   20.7473  -29.7821 H   0  0  0  0  0  0  0  0  0  0  0  0
   -3.8270   21.5990  -30.8180 C   0  0  0  0  0  0  0  0  0  0  0  0
   -4.2820   20.3200  -31.2920 N   0  0  0  0  0  0  0  0  0  0  0  0
   -4.3110   19.5280  -30.6110 H   0  0  0  0  0  0  0  0  0  0  0  0
   -4.5450   20.0280  -32.6750 C   0  0  0  0  0  0  0  0  0  0  0  0
   -4.0090   20.7330  -33.5750 O   0  0  0  0  0  0  0  0  0  0  0  0
   -5.3980   18.8790  -33.0620 C   0  0  0  0  0  0  0  0  0  0  0  0
   -6.5210   18.5190  -32.2960 C   0  0  0  0  0  0  0  0  0  0  0  0
   -6.7770   19.0881  -31.3901 H   0  0  0  0  0  0  0  0  0  0  0  0
   -7.3100   17.4360  -32.6900 C   0  0  0  0  0  0  0  0  0  0  0  0
   -8.1864   17.1489  -32.0904 H   0  0  0  0  0  0  0  0  0  0  0  0
   -6.9980   16.7360  -33.8120 N   0  0  0  0  0  0  0  0  0  0  0  0
   -5.9250   17.0620  -34.5790 C   0  0  0  0  0  0  0  0  0  0  0  0
   -5.6977   16.4771  -35.4824 H   0  0  0  0  0  0  0  0  0  0  0  0
   -5.1100   18.1390  -34.2220 C   0  0  0  0  0  0  0  0  0  0  0  0
   -4.2453   18.4072  -34.8468 H   0  0  0  0  0  0  0  0  0  0  0  0
   -4.5450   22.7770  -31.0890 C   0  0  0  0  0  0  0  0  0  0  0  0
   -5.4643   22.7322  -31.6914 H   0  0  0  0  0  0  0  0  0  0  0  0
   -4.0950   24.0040  -30.5960 C   0  0  0  0  0  0  0  0  0  0  0  0
   -4.6570   24.9227  -30.8199 H   0  0  0  0  0  0  0  0  0  0  0  0
   -2.9350   24.0710  -29.8200 C   0  0  0  0  0  0  0  0  0  0  0  0
   -2.5060   25.3030  -29.3400 O   0  0  0  0  0  0  0  0  0  0  0  0
   -2.1600   20.6570  -27.3080 N   0  0  0  0  0  0  0  0  0  0  0  0
   -2.9080   19.6820  -26.7290 C   0  0  0  0  0  0  0  0  0  0  0  0
   -3.9381   19.8914  -26.4051 H   0  0  0  0  0  0  0  0  0  0  0  0
  1  2  1  0
  2  3  1  0
  3  4  2  0
  4  5  1  0
  5  6  1  0
  6  7  1  0
  6  8  1  0
  6  9  1  0
  4 10  1  0
 10 11  2  0
 11 12  1  0
 12 13  2  0
 12 14  2  0
 12 15  1  0
 15 16  2  0
 16 17  1  0
 16 18  1  0
 18 19  1  0
 19 20  1  0
 19 21  1  0
 21 22  2  0
 21 23  1  0
 23 24  2  0
 24 25  1  0
 24 26  1  0
 26 27  1  0
 26 28  2  0
 28 29  1  0
 29 30  1  0
 29 31  2  0
 31 32  1  0
 18 33  2  0
 33 34  1  0
 33 35  1  0
 35 36  1  0
 35 37  2  0
 37 38  1  0
 10 39  1  0
 39 40  1  0
 40 41  1  0
 40  2  2  0
 37 15  1  0
 31 23  1  0
M  CHG  2  38  -1  39  -1
M  END
>  <UniqueID>  (45) 
43

>  <SMILES>  (45) 
COc1ncc[n-]/c1=N\S(=O)(=O)c1cc(NC(=O)c2ccncc2)ccc1[O-]

>  <Energy>  (45) 
54.8280466274487

>  <Genealogy>  (45) 
COc1ncc[n-]c1=NS(=O)(=O)c1cc(NC(=O)c2ccncc2)ccc1[O-] (protonated)
COc1ncc[n-]/c1=N\S(=O)(=O)c1cc(NC(=O)c2ccncc2)ccc1[O-] (cis-trans isomerization)
COc1ncc[n-]/c1=N\S(=O)(=O)c1cc(NC(=O)c2ccncc2)ccc1[O-] (3D coordinates assigned)
COc1ncc[n-]/c1=N\S(=O)(=O)c1cc(NC(=O)c2ccncc2)ccc1[O-] (optimized conformer: 54.8280466274487 kcal/mol)

>  <smiles>  (45) 
COc1ncc[nH]c1=NS(=O)(=O)c1cc(NC(=O)c2ccncc2)ccc1O

>  <score_type>  (45) 
oracle

>  <origin>  (45) 
adgpu

>  <m_score__min__energy>  (45) 
-10.85

>  <m_primary>  (45) 
energy

$$$$
45:0
     RDKit          3D

 48 50  0  0  0  0  0  0  0  0999 V2000
   -2.0680   25.2050  -29.2900 N   0  0  0  0  0  0  0  0  0  0  0  0
   -1.3940   23.6190  -29.1500 S   0  0  0  0  0  0  0  0  0  0  0  0
   -1.8410   22.9910  -27.8600 O   0  0  0  0  0  0  0  0  0  0  0  0
    0.1040   23.7280  -29.1600 O   0  0  0  0  0  0  0  0  0  0  0  0
   -1.9310   22.6240  -30.4980 C   0  0  0  0  0  0  0  0  0  0  0  0
   -3.1610   22.8780  -31.1170 C   0  0  0  0  0  0  0  0  0  0  0  0
   -3.5690   22.1100  -32.2110 C   0  0  0  0  0  0  0  0  0  0  0  0
   -2.7490   21.0750  -32.6960 C   0  0  0  0  0  0  0  0  0  0  0  0
   -3.1030   20.3160  -33.8610 N   0  0  0  0  0  0  0  0  0  0  0  0
   -3.2750   18.8970  -33.8710 C   0  0  0  0  0  0  0  0  0  0  0  0
   -2.2660   18.1540  -34.0000 O   0  0  0  0  0  0  0  0  0  0  0  0
   -4.6140   18.3170  -33.6170 C   0  0  0  0  0  0  0  0  0  0  0  0
   -5.6150   19.1670  -33.1160 C   0  0  0  0  0  0  0  0  0  0  0  0
   -6.8540   18.6610  -32.7150 C   0  0  0  0  0  0  0  0  0  0  0  0
   -8.0620   19.7450  -32.0280 S   0  0  0  0  0  0  0  0  0  0  0  0
   -9.0750   20.0680  -33.0910 O   0  0  0  0  0  0  0  0  0  0  0  0
   -8.7500   19.0740  -30.8700 O   0  0  0  0  0  0  0  0  0  0  0  0
   -7.2870   21.2120  -31.4850 N   0  0  0  0  0  0  0  0  0  0  0  0
   -8.1050   21.8750  -30.4560 C   0  0  0  0  0  0  0  0  0  0  0  0
   -7.3100   23.0170  -29.7970 C   0  0  0  0  0  0  0  0  0  0  0  0
   -6.1860   23.5460  -30.7030 C   0  0  0  0  0  0  0  0  0  0  0  0
   -6.6140   23.5280  -32.1750 C   0  0  0  0  0  0  0  0  0  0  0  0
   -7.0520   22.1160  -32.6280 C   0  0  0  0  0  0  0  0  0  0  0  0
   -7.1200   17.2950  -32.8510 C   0  0  0  0  0  0  0  0  0  0  0  0
   -6.1520   16.4430  -33.3820 C   0  0  0  0  0  0  0  0  0  0  0  0
   -4.9030   16.9390  -33.7800 C   0  0  0  0  0  0  0  0  0  0  0  0
   -3.9980   16.0450  -34.3560 O   0  0  0  0  0  0  0  0  0  0  0  0
   -1.5190   20.8270  -32.0760 C   0  0  0  0  0  0  0  0  0  0  0  0
   -1.1100   21.5970  -30.9830 C   0  0  0  0  0  0  0  0  0  0  0  0
   -1.5700   25.6800  -30.0770 H   0  0  0  0  0  0  0  0  0  0  0  0
   -3.8080   23.6843  -30.7411 H   0  0  0  0  0  0  0  0  0  0  0  0
   -4.5353   22.3157  -32.6948 H   0  0  0  0  0  0  0  0  0  0  0  0
   -5.4200   20.2468  -33.0385 H   0  0  0  0  0  0  0  0  0  0  0  0
   -9.0122   22.2863  -30.9227 H   0  0  0  0  0  0  0  0  0  0  0  0
   -8.3787   21.1383  -29.6863 H   0  0  0  0  0  0  0  0  0  0  0  0
   -8.0000   23.8433  -29.5707 H   0  0  0  0  0  0  0  0  0  0  0  0
   -6.8453   22.6189  -28.8829 H   0  0  0  0  0  0  0  0  0  0  0  0
   -5.9443   24.5786  -30.4110 H   0  0  0  0  0  0  0  0  0  0  0  0
   -5.3058   22.8969  -30.5855 H   0  0  0  0  0  0  0  0  0  0  0  0
   -7.4564   24.2224  -32.3094 H   0  0  0  0  0  0  0  0  0  0  0  0
   -5.7509   23.8309  -32.7859 H   0  0  0  0  0  0  0  0  0  0  0  0
   -7.9825   22.2028  -33.2082 H   0  0  0  0  0  0  0  0  0  0  0  0
   -6.2402   21.6890  -33.2351 H   0  0  0  0  0  0  0  0  0  0  0  0
   -8.0945   16.8917  -32.5386 H   0  0  0  0  0  0  0  0  0  0  0  0
   -6.3710   15.3704  -33.4896 H   0  0  0  0  0  0  0  0  0  0  0  0
   -3.0220   16.2610  -34.5040 H   0  0  0  0  0  0  0  0  0  0  0  0
   -0.8703   20.0216  -32.4508 H   0  0  0  0  0  0  0  0  0  0  0  0
   -0.1411   21.3961  -30.5024 H   0  0  0  0  0  0  0  0  0  0  0  0
  1  2  1  0
  2  3  2  0
  2  4  2  0
  2  5  1  0
  5  6  2  0
  6  7  1  0
  7  8  2  0
  8  9  1  0
  9 10  1  0
 10 11  2  0
 10 12  1  0
 12 13  2  0
 13 14  1  0
 14 15  1  0
 15 16  2  0
 15 17  2  0
 15 18  1  0
 18 19  1  0
 19 20  1  0
 20 21  1  0
 21 22  1  0
 22 23  1  0
 14 24  2  0
 24 25  1  0
 25 26  2  0
 26 27  1  0
  8 28  1  0
 28 29  2  0
 29  5  1  0
 26 12  1  0
 23 18  1  0
  1 30  1  0
  6 31  1  0
  7 32  1  0
 13 33  1  0
 19 34  1  0
 19 35  1  0
 20 36  1  0
 20 37  1  0
 21 38  1  0
 21 39  1  0
 22 40  1  0
 22 41  1  0
 23 42  1  0
 23 43  1  0
 24 44  1  0
 25 45  1  0
 27 46  1  0
 28 47  1  0
 29 48  1  0
M  CHG  2   1  -1   9  -1
M  END
>  <UniqueID>  (46) 
44

>  <SMILES>  (46) 
[NH-]S(=O)(=O)c1ccc([N-]C(=O)c2cc(S(=O)(=O)N3CCCCC3)ccc2O)cc1

>  <Energy>  (46) 
62.66037087739448

>  <Genealogy>  (46) 
[NH-]S(=O)(=O)c1ccc([N-]C(=O)c2cc(S(=O)(=O)N3CCCCC3)ccc2O)cc1 (protonated)
[NH-]S(=O)(=O)c1ccc([N-]C(=O)c2cc(S(=O)(=O)N3CCCCC3)ccc2O)cc1 (3D coordinates assigned)
[NH-]S(=O)(=O)c1ccc([N-]C(=O)c2cc(S(=O)(=O)N3CCCCC3)ccc2O)cc1 (nonaromatic ring conformer: 62.66037087739448 kcal/mol)

>  <smiles>  (46) 
NS(=O)(=O)c1ccc(NC(=O)c2cc(S(=O)(=O)N3CCCCC3)ccc2O)cc1

>  <score_type>  (46) 
oracle

>  <origin>  (46) 
adgpu

>  <m_score__min__energy>  (46) 
-11.859999999999999

>  <m_primary>  (46) 
energy

$$$$
46:0
     RDKit          3D

 57 59  0  0  0  0  0  0  0  0999 V2000
   -3.3280   20.5720  -30.0870 C   0  0  0  0  0  0  0  0  0  0  0  0
   -2.6280   21.7500  -29.4640 C   0  0  0  0  0  0  0  0  0  0  0  0
   -1.4590   21.5070  -28.7220 C   0  0  0  0  0  0  0  0  0  0  0  0
   -0.7540   22.5550  -28.1340 C   0  0  0  0  0  0  0  0  0  0  0  0
   -1.1750   23.8770  -28.3040 C   0  0  0  0  0  0  0  0  0  0  0  0
   -0.4180   24.9870  -27.6710 C   0  0  0  0  0  0  0  0  0  0  0  0
    0.8270   25.0680  -27.8730 O   0  0  0  0  0  0  0  0  0  0  0  0
   -1.0830   25.9890  -26.8550 N   0  0  0  0  0  0  0  0  0  0  0  0
   -0.1380   27.1000  -26.5490 C   0  0  0  0  0  0  0  0  0  0  0  0
   -0.6290   28.1020  -25.4810 C   0  0  0  0  0  0  0  0  0  0  0  0
   -0.8470   27.5210  -24.0600 C   0  0  0  0  0  0  0  0  0  0  0  0
   -0.1500   26.1780  -23.7750 C   0  0  0  0  0  0  0  0  0  0  0  0
   -0.7160   24.9830  -24.5630 C   0  0  0  0  0  0  0  0  0  0  0  0
   -1.7120   25.3330  -25.6830 C   0  0  0  0  0  0  0  0  0  0  0  0
   -2.3190   24.1290  -29.0760 C   0  0  0  0  0  0  0  0  0  0  0  0
   -3.1000   23.0860  -29.5950 C   0  0  0  0  0  0  0  0  0  0  0  0
   -4.6240   23.5300  -30.4100 S   0  0  0  0  0  0  0  0  0  0  0  0
   -5.7220   23.4650  -29.3850 O   0  0  0  0  0  0  0  0  0  0  0  0
   -4.5820   24.9350  -30.9350 O   0  0  0  0  0  0  0  0  0  0  0  0
   -5.0340   22.4890  -31.7610 N   0  0  0  0  0  0  0  0  0  0  0  0
   -3.9410   22.2970  -32.7210 C   0  0  0  0  0  0  0  0  0  0  0  0
   -6.3620   22.7350  -32.3620 C   0  0  0  0  0  0  0  0  0  0  0  0
   -7.2880   21.5350  -32.3670 C   0  0  0  0  0  0  0  0  0  0  0  0
   -6.8070   20.2520  -32.6880 C   0  0  0  0  0  0  0  0  0  0  0  0
   -7.6700   19.1520  -32.6870 C   0  0  0  0  0  0  0  0  0  0  0  0
   -9.0130   19.3150  -32.3400 C   0  0  0  0  0  0  0  0  0  0  0  0
   -9.4880   20.5750  -31.9640 C   0  0  0  0  0  0  0  0  0  0  0  0
   -8.6260   21.6750  -31.9610 C   0  0  0  0  0  0  0  0  0  0  0  0
   -3.7178   19.9161  -29.2947 H   0  0  0  0  0  0  0  0  0  0  0  0
   -4.1610   20.9284  -30.7108 H   0  0  0  0  0  0  0  0  0  0  0  0
   -2.6168   20.0107  -30.7108 H   0  0  0  0  0  0  0  0  0  0  0  0
   -1.0959   20.4754  -28.6040 H   0  0  0  0  0  0  0  0  0  0  0  0
    0.1408   22.3404  -27.5313 H   0  0  0  0  0  0  0  0  0  0  0  0
   -1.8740   26.3910  -27.4110 H   0  0  0  0  0  0  0  0  0  0  0  0
    0.8044   26.6577  -26.1937 H   0  0  0  0  0  0  0  0  0  0  0  0
   -0.0283   27.6744  -27.4807 H   0  0  0  0  0  0  0  0  0  0  0  0
    0.1166   28.9072  -25.4056 H   0  0  0  0  0  0  0  0  0  0  0  0
   -1.6193   28.4394  -25.8209 H   0  0  0  0  0  0  0  0  0  0  0  0
   -0.4735   28.2569  -23.3328 H   0  0  0  0  0  0  0  0  0  0  0  0
   -1.9259   27.3227  -23.9788 H   0  0  0  0  0  0  0  0  0  0  0  0
    0.9150   26.2833  -24.0293 H   0  0  0  0  0  0  0  0  0  0  0  0
   -0.3195   25.9582  -22.7106 H   0  0  0  0  0  0  0  0  0  0  0  0
    0.1300   24.4474  -25.0184 H   0  0  0  0  0  0  0  0  0  0  0  0
   -1.2827   24.3849  -23.8342 H   0  0  0  0  0  0  0  0  0  0  0  0
   -2.1943   24.4043  -26.0219 H   0  0  0  0  0  0  0  0  0  0  0  0
   -2.4323   26.0494  -25.2611 H   0  0  0  0  0  0  0  0  0  0  0  0
   -2.6106   25.1700  -29.2792 H   0  0  0  0  0  0  0  0  0  0  0  0
   -2.9996   22.1316  -32.1765 H   0  0  0  0  0  0  0  0  0  0  0  0
   -4.1574   21.4231  -33.3531 H   0  0  0  0  0  0  0  0  0  0  0  0
   -3.8466   23.1923  -33.3531 H   0  0  0  0  0  0  0  0  0  0  0  0
   -6.8501   23.5419  -31.7956 H   0  0  0  0  0  0  0  0  0  0  0  0
   -6.1826   22.9929  -33.4162 H   0  0  0  0  0  0  0  0  0  0  0  0
   -5.7455   20.1137  -32.9413 H   0  0  0  0  0  0  0  0  0  0  0  0
   -7.2905   18.1563  -32.9600 H   0  0  0  0  0  0  0  0  0  0  0  0
   -9.6961   18.4531  -32.3625 H   0  0  0  0  0  0  0  0  0  0  0  0
  -10.5406   20.7006  -31.6704 H   0  0  0  0  0  0  0  0  0  0  0  0
   -8.9980   22.6586  -31.6381 H   0  0  0  0  0  0  0  0  0  0  0  0
  1  2  1  0
  2  3  2  0
  3  4  1  0
  4  5  2  0
  5  6  1  0
  6  7  2  0
  6  8  1  0
  8  9  1  0
  9 10  1  0
 10 11  1  0
 11 12  1  0
 12 13  1  0
 13 14  1  0
  5 15  1  0
 15 16  2  0
 16 17  1  0
 17 18  2  0
 17 19  2  0
 17 20  1  0
 20 21  1  0
 20 22  1  0
 22 23  1  0
 23 24  2  0
 24 25  1  0
 25 26  2  0
 26 27  1  0
 27 28  2  0
 16  2  1  0
 28 23  1  0
 14  8  1  0
  1 29  1  0
  1 30  1  0
  1 31  1  0
  3 32  1  0
  4 33  1  0
  8 34  1  0
  9 35  1  0
  9 36  1  0
 10 37  1  0
 10 38  1  0
 11 39  1  0
 11 40  1  0
 12 41  1  0
 12 42  1  0
 13 43  1  0
 13 44  1  0
 14 45  1  0
 14 46  1  0
 15 47  1  0
 21 48  1  0
 21 49  1  0
 21 50  1  0
 22 51  1  0
 22 52  1  0
 24 53  1  0
 25 54  1  0
 26 55  1  0
 27 56  1  0
 28 57  1  0
M  CHG  1   8   1
M  END
>  <UniqueID>  (47) 
45

>  <SMILES>  (47) 
Cc1ccc(C(=O)[NH+]2CCCCCC2)cc1S(=O)(=O)N(C)Cc1ccccc1

>  <Energy>  (47) 
80.8144442434377

>  <Genealogy>  (47) 
Cc1ccc(C(=O)[NH+]2CCCCCC2)cc1S(=O)(=O)N(C)Cc1ccccc1 (protonated)
Cc1ccc(C(=O)[NH+]2CCCCCC2)cc1S(=O)(=O)N(C)Cc1ccccc1 (3D coordinates assigned)
Cc1ccc(C(=O)[NH+]2CCCCCC2)cc1S(=O)(=O)N(C)Cc1ccccc1 (nonaromatic ring conformer: 80.8144442434377 kcal/mol)

>  <smiles>  (47) 
Cc1ccc(C(=O)N2CCCCCC2)cc1S(=O)(=O)N(C)Cc1ccccc1

>  <score_type>  (47) 
oracle

>  <origin>  (47) 
adgpu

>  <m_score__min__energy>  (47) 
-7.54

>  <m_primary>  (47) 
energy

$$$$
47:0
     RDKit          3D

 36 37  0  0  0  0  0  0  0  0999 V2000
   -2.5890   19.9230  -33.7390 C   0  0  0  0  0  0  0  0  0  0  0  0
   -3.9000   19.3830  -33.8780 O   0  0  0  0  0  0  0  0  0  0  0  0
   -5.0680   20.0050  -33.4140 C   0  0  0  0  0  0  0  0  0  0  0  0
   -6.3370   19.4180  -33.5480 C   0  0  0  0  0  0  0  0  0  0  0  0
   -7.4730   20.0770  -33.0730 C   0  0  0  0  0  0  0  0  0  0  0  0
   -7.3630   21.3360  -32.4510 C   0  0  0  0  0  0  0  0  0  0  0  0
   -8.4940   22.0190  -31.9710 O   0  0  0  0  0  0  0  0  0  0  0  0
   -9.3020   21.5840  -30.8840 C   0  0  0  0  0  0  0  0  0  0  0  0
   -6.0880   21.9230  -32.3040 C   0  0  0  0  0  0  0  0  0  0  0  0
   -5.9070   23.2590  -31.6210 C   0  0  0  0  0  0  0  0  0  0  0  0
   -4.4910   23.5270  -31.3790 N   0  0  0  0  0  0  0  0  0  0  0  0
   -3.9800   24.3730  -30.3410 C   0  0  0  0  0  0  0  0  0  0  0  0
   -4.1760   25.6140  -30.4120 O   0  0  0  0  0  0  0  0  0  0  0  0
   -3.2040   23.8330  -29.2120 C   0  0  0  0  0  0  0  0  0  0  0  0
   -3.6070   22.6330  -28.6080 C   0  0  0  0  0  0  0  0  0  0  0  0
   -2.8890   22.1130  -27.5260 C   0  0  0  0  0  0  0  0  0  0  0  0
   -1.7580   22.7810  -27.0520 C   0  0  0  0  0  0  0  0  0  0  0  0
   -1.3410   23.9700  -27.6580 C   0  0  0  0  0  0  0  0  0  0  0  0
   -2.0570   24.4960  -28.7390 C   0  0  0  0  0  0  0  0  0  0  0  0
   -1.6160   25.6690  -29.3440 O   0  0  0  0  0  0  0  0  0  0  0  0
   -4.9550   21.2540  -32.7970 C   0  0  0  0  0  0  0  0  0  0  0  0
   -2.3451   20.0234  -32.6711 H   0  0  0  0  0  0  0  0  0  0  0  0
   -1.8627   19.2508  -34.2193 H   0  0  0  0  0  0  0  0  0  0  0  0
   -2.5469   20.9117  -34.2193 H   0  0  0  0  0  0  0  0  0  0  0  0
   -6.4366   18.4341  -34.0296 H   0  0  0  0  0  0  0  0  0  0  0  0
   -8.4620   19.6089  -33.1856 H   0  0  0  0  0  0  0  0  0  0  0  0
   -8.8125   21.8475  -29.9348 H   0  0  0  0  0  0  0  0  0  0  0  0
  -10.2849   22.0749  -30.9383 H   0  0  0  0  0  0  0  0  0  0  0  0
   -9.4334   20.4932  -30.9383 H   0  0  0  0  0  0  0  0  0  0  0  0
   -6.3202   24.0515  -32.2623 H   0  0  0  0  0  0  0  0  0  0  0  0
   -6.4332   23.2370  -30.6553 H   0  0  0  0  0  0  0  0  0  0  0  0
   -4.4909   22.0988  -28.9866 H   0  0  0  0  0  0  0  0  0  0  0  0
   -3.2154   21.1775  -27.0483 H   0  0  0  0  0  0  0  0  0  0  0  0
   -1.1945   22.3712  -26.2008 H   0  0  0  0  0  0  0  0  0  0  0  0
   -0.4483   24.4929  -27.2842 H   0  0  0  0  0  0  0  0  0  0  0  0
   -3.9639   21.7204  -32.6958 H   0  0  0  0  0  0  0  0  0  0  0  0
  1  2  1  0
  2  3  1  0
  3  4  2  0
  4  5  1  0
  5  6  2  0
  6  7  1  0
  7  8  1  0
  6  9  1  0
  9 10  1  0
 10 11  1  0
 11 12  1  0
 12 13  2  0
 12 14  1  0
 14 15  2  0
 15 16  1  0
 16 17  2  0
 17 18  1  0
 18 19  2  0
 19 20  1  0
  9 21  2  0
 21  3  1  0
 19 14  1  0
  1 22  1  0
  1 23  1  0
  1 24  1  0
  4 25  1  0
  5 26  1  0
  8 27  1  0
  8 28  1  0
  8 29  1  0
 10 30  1  0
 10 31  1  0
 15 32  1  0
 16 33  1  0
 17 34  1  0
 18 35  1  0
 21 36  1  0
M  CHG  2  11  -1  20  -1
M  END
>  <UniqueID>  (48) 
46

>  <SMILES>  (48) 
COc1ccc(OC)c(C[N-]C(=O)c2ccccc2[O-])c1

>  <Energy>  (48) 
38.19622015126856

>  <Genealogy>  (48) 
COc1ccc(OC)c(C[N-]C(=O)c2ccccc2[O-])c1 (protonated)
COc1ccc(OC)c(C[N-]C(=O)c2ccccc2[O-])c1 (3D coordinates assigned)
COc1ccc(OC)c(C[N-]C(=O)c2ccccc2[O-])c1 (optimized conformer: 38.19622015126856 kcal/mol)

>  <smiles>  (48) 
COc1ccc(OC)c(CNC(=O)c2ccccc2O)c1

>  <score_type>  (48) 
oracle

>  <origin>  (48) 
adgpu

>  <m_score__min__energy>  (48) 
-10.81

>  <m_primary>  (48) 
energy

$$$$
48:0
     RDKit          3D

 42 44  0  0  0  0  0  0  0  0999 V2000
   -5.8180   26.0370  -30.0710 O   0  0  0  0  0  0  0  0  0  0  0  0
   -5.1290   25.0540  -30.4490 C   0  0  0  0  0  0  0  0  0  0  0  0
   -3.7020   25.1910  -30.4890 N   0  0  0  0  0  0  0  0  0  0  0  0
   -2.7550   24.4270  -29.7280 C   0  0  0  0  0  0  0  0  0  0  0  0
   -2.8250   23.0300  -29.7810 C   0  0  0  0  0  0  0  0  0  0  0  0
   -1.9270   22.2420  -29.0470 C   0  0  0  0  0  0  0  0  0  0  0  0
   -2.0140   20.4840  -29.1170 S   0  0  0  0  0  0  0  0  0  0  0  0
   -2.9420   20.0040  -28.0340 O   0  0  0  0  0  0  0  0  0  0  0  0
   -2.5670   20.0510  -30.4470 O   0  0  0  0  0  0  0  0  0  0  0  0
   -0.4260   19.7960  -28.8760 N   0  0  0  0  0  0  0  0  0  0  0  0
   -0.1610   18.7710  -29.9110 C   0  0  0  0  0  0  0  0  0  0  0  0
    0.9790   17.8360  -29.4960 C   0  0  0  0  0  0  0  0  0  0  0  0
    0.6190   17.0590  -28.2170 C   0  0  0  0  0  0  0  0  0  0  0  0
   -0.4060   17.7990  -27.3410 C   0  0  0  0  0  0  0  0  0  0  0  0
   -0.2590   19.3210  -27.4790 C   0  0  0  0  0  0  0  0  0  0  0  0
   -0.9330   22.8610  -28.2790 C   0  0  0  0  0  0  0  0  0  0  0  0
   -0.8360   24.2530  -28.2450 C   0  0  0  0  0  0  0  0  0  0  0  0
   -1.7330   25.0410  -28.9750 C   0  0  0  0  0  0  0  0  0  0  0  0
   -1.5790   26.4220  -28.9670 O   0  0  0  0  0  0  0  0  0  0  0  0
   -5.8120   23.8120  -30.8840 C   0  0  0  0  0  0  0  0  0  0  0  0
   -5.2640   23.0280  -31.9130 C   0  0  0  0  0  0  0  0  0  0  0  0
   -5.9140   21.8590  -32.3120 C   0  0  0  0  0  0  0  0  0  0  0  0
   -7.0650   21.4740  -31.7000 N   0  0  0  0  0  0  0  0  0  0  0  0
   -7.6130   22.2020  -30.6920 C   0  0  0  0  0  0  0  0  0  0  0  0
   -6.9950   23.3790  -30.2610 C   0  0  0  0  0  0  0  0  0  0  0  0
   -3.5914   22.5460  -30.4041 H   0  0  0  0  0  0  0  0  0  0  0  0
   -1.0729   18.1758  -30.0663 H   0  0  0  0  0  0  0  0  0  0  0  0
    0.1339   19.2846  -30.8379 H   0  0  0  0  0  0  0  0  0  0  0  0
    1.1712   17.1206  -30.3091 H   0  0  0  0  0  0  0  0  0  0  0  0
    1.8743   18.4431  -29.2963 H   0  0  0  0  0  0  0  0  0  0  0  0
    0.1977   16.0843  -28.5043 H   0  0  0  0  0  0  0  0  0  0  0  0
    1.5403   16.9462  -27.6267 H   0  0  0  0  0  0  0  0  0  0  0  0
   -1.4202   17.5070  -27.6512 H   0  0  0  0  0  0  0  0  0  0  0  0
   -0.2277   17.5259  -26.2905 H   0  0  0  0  0  0  0  0  0  0  0  0
   -1.0212   19.8051  -26.8507 H   0  0  0  0  0  0  0  0  0  0  0  0
    0.7613   19.5830  -27.1623 H   0  0  0  0  0  0  0  0  0  0  0  0
   -0.2262   22.2481  -27.7005 H   0  0  0  0  0  0  0  0  0  0  0  0
   -0.0511   24.7327  -27.6418 H   0  0  0  0  0  0  0  0  0  0  0  0
   -4.3273   23.3339  -32.4018 H   0  0  0  0  0  0  0  0  0  0  0  0
   -5.4936   21.2476  -33.1240 H   0  0  0  0  0  0  0  0  0  0  0  0
   -8.5446   21.8643  -30.2144 H   0  0  0  0  0  0  0  0  0  0  0  0
   -7.4323   23.9636  -29.4382 H   0  0  0  0  0  0  0  0  0  0  0  0
  1  2  2  0
  2  3  1  0
  3  4  1  0
  4  5  2  0
  5  6  1  0
  6  7  1  0
  7  8  2  0
  7  9  2  0
  7 10  1  0
 10 11  1  0
 11 12  1  0
 12 13  1  0
 13 14  1  0
 14 15  1  0
  6 16  2  0
 16 17  1  0
 17 18  2  0
 18 19  1  0
  2 20  1  0
 20 21  2  0
 21 22  1  0
 22 23  2  0
 23 24  1  0
 24 25  2  0
 18  4  1  0
 25 20  1  0
 15 10  1  0
  5 26  1  0
 11 27  1  0
 11 28  1  0
 12 29  1  0
 12 30  1  0
 13 31  1  0
 13 32  1  0
 14 33  1  0
 14 34  1  0
 15 35  1  0
 15 36  1  0
 16 37  1  0
 17 38  1  0
 21 39  1  0
 22 40  1  0
 24 41  1  0
 25 42  1  0
M  CHG  2   3  -1  19  -1
M  END
>  <UniqueID>  (49) 
47

>  <SMILES>  (49) 
O=C([N-]c1cc(S(=O)(=O)N2CCCCC2)ccc1[O-])c1ccncc1

>  <Energy>  (49) 
58.1060827239612

>  <Genealogy>  (49) 
O=C([N-]c1cc(S(=O)(=O)N2CCCCC2)ccc1[O-])c1ccncc1 (protonated)
O=C([N-]c1cc(S(=O)(=O)N2CCCCC2)ccc1[O-])c1ccncc1 (3D coordinates assigned)
O=C([N-]c1cc(S(=O)(=O)N2CCCCC2)ccc1[O-])c1ccncc1 (nonaromatic ring conformer: 58.1060827239612 kcal/mol)

>  <smiles>  (49) 
O=C(Nc1cc(S(=O)(=O)N2CCCCC2)ccc1O)c1ccncc1

>  <score_type>  (49) 
oracle

>  <origin>  (49) 
adgpu

>  <m_score__min__energy>  (49) 
-12.51

>  <m_primary>  (49) 
energy

$$$$
49:0
     RDKit          3D

 49 52  0  0  0  0  0  0  0  0999 V2000
   -0.4432   22.3084  -29.0453 H   0  0  0  0  0  0  0  0  0  0  0  0
   -1.3130   22.9480  -29.2560 C   0  0  0  0  0  0  0  0  0  0  0  0
   -1.6930   23.9560  -28.3520 C   0  0  0  0  0  0  0  0  0  0  0  0
   -0.9600   24.1890  -27.1240 N   0  0  0  0  0  0  0  0  0  0  0  0
   -1.0220   25.5070  -26.4740 C   0  0  0  0  0  0  0  0  0  0  0  0
   -0.1797   26.1197  -26.8276 H   0  0  0  0  0  0  0  0  0  0  0  0
   -1.9831   25.9747  -26.7338 H   0  0  0  0  0  0  0  0  0  0  0  0
   -0.9430   25.3850  -24.9380 C   0  0  0  0  0  0  0  0  0  0  0  0
   -0.5635   26.3365  -24.5372 H   0  0  0  0  0  0  0  0  0  0  0  0
   -1.9592   25.1458  -24.5914 H   0  0  0  0  0  0  0  0  0  0  0  0
   -0.0660   24.2960  -24.4510 N   0  0  0  0  0  0  0  0  0  0  0  0
    0.5100   24.6510  -23.6530 H   0  0  0  0  0  0  0  0  0  0  0  0
   -0.6570   23.5120  -24.0860 H   0  0  0  0  0  0  0  0  0  0  0  0
    0.8400   23.7650  -25.4770 C   0  0  0  0  0  0  0  0  0  0  0  0
    1.4982   24.5710  -25.8335 H   0  0  0  0  0  0  0  0  0  0  0  0
    1.4428   22.9550  -25.0406 H   0  0  0  0  0  0  0  0  0  0  0  0
    0.0340   23.2110  -26.6550 C   0  0  0  0  0  0  0  0  0  0  0  0
    0.7213   22.9735  -27.4804 H   0  0  0  0  0  0  0  0  0  0  0  0
   -0.4963   22.3071  -26.3208 H   0  0  0  0  0  0  0  0  0  0  0  0
   -2.7750   24.7270  -28.6480 N   0  0  0  0  0  0  0  0  0  0  0  0
   -3.4920   24.5480  -29.7870 C   0  0  0  0  0  0  0  0  0  0  0  0
   -4.5150   25.3110  -30.0210 N   0  0  0  0  0  0  0  0  0  0  0  0
   -5.3560   25.2090  -31.2120 C   0  0  0  0  0  0  0  0  0  0  0  0
   -6.0976   26.0214  -31.2091 H   0  0  0  0  0  0  0  0  0  0  0  0
   -4.7307   25.2901  -32.1133 H   0  0  0  0  0  0  0  0  0  0  0  0
   -6.0630   23.8840  -31.2070 C   0  0  0  0  0  0  0  0  0  0  0  0
   -5.9640   23.0260  -32.3150 C   0  0  0  0  0  0  0  0  0  0  0  0
   -5.3441   23.3126  -33.1774 H   0  0  0  0  0  0  0  0  0  0  0  0
   -6.6520   21.8080  -32.3240 C   0  0  0  0  0  0  0  0  0  0  0  0
   -6.5661   21.1355  -33.1902 H   0  0  0  0  0  0  0  0  0  0  0  0
   -7.4480   21.4440  -31.2350 C   0  0  0  0  0  0  0  0  0  0  0  0
   -7.9841   20.4835  -31.2422 H   0  0  0  0  0  0  0  0  0  0  0  0
   -7.5630   22.3000  -30.1370 C   0  0  0  0  0  0  0  0  0  0  0  0
   -8.1935   22.0146  -29.2820 H   0  0  0  0  0  0  0  0  0  0  0  0
   -6.8780   23.5190  -30.1230 C   0  0  0  0  0  0  0  0  0  0  0  0
   -6.9778   24.1941  -29.2603 H   0  0  0  0  0  0  0  0  0  0  0  0
   -3.1280   23.5760  -30.6650 N   0  0  0  0  0  0  0  0  0  0  0  0
   -2.0590   22.7700  -30.4300 C   0  0  0  0  0  0  0  0  0  0  0  0
   -1.7190   21.7330  -31.4250 C   0  0  0  0  0  0  0  0  0  0  0  0
   -0.4490   21.3650  -31.7030 N   0  0  0  0  0  0  0  0  0  0  0  0
   -0.5740   20.4180  -32.6560 C   0  0  0  0  0  0  0  0  0  0  0  0
    0.2786   19.9043  -33.1242 H   0  0  0  0  0  0  0  0  0  0  0  0
   -1.8600   20.1730  -32.9690 N   0  0  0  0  0  0  0  0  0  0  0  0
   -2.3510   19.2820  -34.0130 C   0  0  0  0  0  0  0  0  0  0  0  0
   -2.8330   18.4074  -33.5518 H   0  0  0  0  0  0  0  0  0  0  0  0
   -3.0819   19.8166  -34.6375 H   0  0  0  0  0  0  0  0  0  0  0  0
   -1.5087   18.9497  -34.6375 H   0  0  0  0  0  0  0  0  0  0  0  0
   -2.5940   21.0060  -32.2130 C   0  0  0  0  0  0  0  0  0  0  0  0
   -3.6904   21.0942  -32.2191 H   0  0  0  0  0  0  0  0  0  0  0  0
  1  2  1  0
  2  3  1  0
  3  4  1  0
  4  5  1  0
  5  6  1  0
  5  7  1  0
  5  8  1  0
  8  9  1  0
  8 10  1  0
  8 11  1  0
 11 12  1  0
 11 13  1  0
 11 14  1  0
 14 15  1  0
 14 16  1  0
 14 17  1  0
 17 18  1  0
 17 19  1  0
  3 20  2  0
 20 21  1  0
 21 22  2  0
 22 23  1  0
 23 24  1  0
 23 25  1  0
 23 26  1  0
 26 27  2  0
 27 28  1  0
 27 29  1  0
 29 30  1  0
 29 31  2  0
 31 32  1  0
 31 33  1  0
 33 34  1  0
 33 35  2  0
 35 36  1  0
 21 37  1  0
 37 38  1  0
 38 39  1  0
 39 40  1  0
 40 41  2  0
 41 42  1  0
 41 43  1  0
 43 44  1  0
 44 45  1  0
 44 46  1  0
 44 47  1  0
 43 48  1  0
 48 49  1  0
 38  2  2  0
 48 39  2  0
 17  4  1  0
 35 26  1  0
M  CHG  2  11   1  37  -1
M  END
>  <UniqueID>  (50) 
48

>  <SMILES>  (50) 
Cn1cnc(-c2cc(N3CC[NH2+]CC3)n/c(=N/Cc3ccccc3)[n-]2)c1

>  <Energy>  (50) 
86.46619278504802

>  <Genealogy>  (50) 
Cn1cnc(-c2cc(N3CC[NH2+]CC3)nc(=NCc3ccccc3)[n-]2)c1 (protonated)
Cn1cnc(-c2cc(N3CC[NH2+]CC3)n/c(=N/Cc3ccccc3)[n-]2)c1 (cis-trans isomerization)
Cn1cnc(-c2cc(N3CC[NH2+]CC3)n/c(=N/Cc3ccccc3)[n-]2)c1 (3D coordinates assigned)
Cn1cnc(-c2cc(N3CC[NH2+]CC3)n/c(=N/Cc3ccccc3)[n-]2)c1 (nonaromatic ring conformer: 86.46619278504802 kcal/mol)

>  <smiles>  (50) 
Cn1cnc(-c2cc(N3CCNCC3)nc(=NCc3ccccc3)[nH]2)c1

>  <score_type>  (50) 
oracle

>  <origin>  (50) 
adgpu

>  <m_score__min__energy>  (50) 
-8.8800000000000008

>  <m_primary>  (50) 
energy

$$$$
