0:0
     RDKit          3D

 48 51  0  0  0  0  0  0  0  0999 V2000
   -6.8170   18.1170  -33.7350 C   0  0  0  0  0  0  0  0  0  0  0  0
   -7.0070   18.2050  -32.2770 N   0  0  0  0  0  0  0  0  0  0  0  0
   -8.3680   18.6390  -31.9060 C   0  0  0  0  0  0  0  0  0  0  0  0
   -8.6710   20.0760  -32.3570 C   0  0  0  0  0  0  0  0  0  0  0  0
   -7.5240   21.0160  -32.0900 C   0  0  0  0  0  0  0  0  0  0  0  0
   -7.7360   22.3980  -32.1890 C   0  0  0  0  0  0  0  0  0  0  0  0
   -6.6770   23.2910  -32.0040 C   0  0  0  0  0  0  0  0  0  0  0  0
   -5.3880   22.8170  -31.7410 C   0  0  0  0  0  0  0  0  0  0  0  0
   -4.3330   23.7660  -31.5360 N   0  0  0  0  0  0  0  0  0  0  0  0
   -3.3090   23.6850  -30.5380 C   0  0  0  0  0  0  0  0  0  0  0  0
   -2.5570   22.6740  -30.5160 O   0  0  0  0  0  0  0  0  0  0  0  0
   -3.1440   24.7320  -29.5750 N   0  0  0  0  0  0  0  0  0  0  0  0
   -2.3030   24.6720  -28.4140 C   0  0  0  0  0  0  0  0  0  0  0  0
   -2.3760   23.5390  -27.6020 C   0  0  0  0  0  0  0  0  0  0  0  0
   -1.5890   23.4400  -26.4570 C   0  0  0  0  0  0  0  0  0  0  0  0
   -0.6930   24.4590  -26.1220 C   0  0  0  0  0  0  0  0  0  0  0  0
    0.2190   24.2750  -24.6260 Cl  0  0  0  0  0  0  0  0  0  0  0  0
   -0.5550   25.5860  -26.9640 C   0  0  0  0  0  0  0  0  0  0  0  0
    0.6000   26.8800  -26.5710 S   0  0  0  0  0  0  0  0  0  0  0  0
    1.8980   26.6690  -27.2970 O   0  0  0  0  0  0  0  0  0  0  0  0
    0.8960   26.8740  -25.0960 O   0  0  0  0  0  0  0  0  0  0  0  0
   -0.0970   28.4450  -27.0970 C   0  0  0  0  0  0  0  0  0  0  0  0
    0.7790   29.6470  -26.7820 C   0  0  0  0  0  0  0  0  0  0  0  0
   -0.4940   29.4050  -25.9860 C   0  0  0  0  0  0  0  0  0  0  0  0
   -1.3720   25.6850  -28.1140 C   0  0  0  0  0  0  0  0  0  0  0  0
   -1.2450   26.7740  -28.9710 O   0  0  0  0  0  0  0  0  0  0  0  0
   -5.1740   21.4330  -31.6220 C   0  0  0  0  0  0  0  0  0  0  0  0
   -6.2290   20.5280  -31.8220 C   0  0  0  0  0  0  0  0  0  0  0  0
   -5.9800   19.0480  -31.6350 C   0  0  0  0  0  0  0  0  0  0  0  0
   -5.8382   17.6637  -33.9505 H   0  0  0  0  0  0  0  0  0  0  0  0
   -7.6129   17.4958  -34.1717 H   0  0  0  0  0  0  0  0  0  0  0  0
   -6.8580   19.1258  -34.1717 H   0  0  0  0  0  0  0  0  0  0  0  0
   -9.0950   17.9609  -32.3767 H   0  0  0  0  0  0  0  0  0  0  0  0
   -8.4401   18.6110  -30.8087 H   0  0  0  0  0  0  0  0  0  0  0  0
   -8.8793   20.0707  -33.4371 H   0  0  0  0  0  0  0  0  0  0  0  0
   -9.5377   20.4325  -31.7810 H   0  0  0  0  0  0  0  0  0  0  0  0
   -8.7420   22.7820  -32.4137 H   0  0  0  0  0  0  0  0  0  0  0  0
   -6.8587   24.3741  -32.0657 H   0  0  0  0  0  0  0  0  0  0  0  0
   -3.0594   22.7191  -27.8680 H   0  0  0  0  0  0  0  0  0  0  0  0
   -1.6733   22.5532  -25.8116 H   0  0  0  0  0  0  0  0  0  0  0  0
   -0.6063   28.0482  -27.9876 H   0  0  0  0  0  0  0  0  0  0  0  0
    1.7605   29.5027  -26.3068 H   0  0  0  0  0  0  0  0  0  0  0  0
    1.1843   30.4878  -27.3640 H   0  0  0  0  0  0  0  0  0  0  0  0
   -0.4333   29.0855  -24.9352 H   0  0  0  0  0  0  0  0  0  0  0  0
   -1.3909   29.9980  -25.7538 H   0  0  0  0  0  0  0  0  0  0  0  0
   -4.1719   21.0556  -31.3701 H   0  0  0  0  0  0  0  0  0  0  0  0
   -5.0006   18.7996  -32.0698 H   0  0  0  0  0  0  0  0  0  0  0  0
   -6.0137   18.8425  -30.5549 H   0  0  0  0  0  0  0  0  0  0  0  0
  1  2  1  0
  2  3  1  0
  3  4  1  0
  4  5  1  0
  5  6  2  0
  6  7  1  0
  7  8  2  0
  8  9  1  0
  9 10  1  0
 10 11  2  0
 10 12  1  0
 12 13  1  0
 13 14  2  0
 14 15  1  0
 15 16  2  0
 16 17  1  0
 16 18  1  0
 18 19  1  0
 19 20  2  0
 19 21  2  0
 19 22  1  0
 22 23  1  0
 23 24  1  0
 18 25  2  0
 25 26  1  0
  8 27  1  0
 27 28  2  0
 28 29  1  0
 29  2  1  0
 28  5  1  0
 25 13  1  0
 24 22  1  0
  1 30  1  0
  1 31  1  0
  1 32  1  0
  3 33  1  0
  3 34  1  0
  4 35  1  0
  4 36  1  0
  6 37  1  0
  7 38  1  0
 14 39  1  0
 15 40  1  0
 22 41  1  0
 23 42  1  0
 23 43  1  0
 24 44  1  0
 24 45  1  0
 27 46  1  0
 29 47  1  0
 29 48  1  0
M  CHG  3   9  -1  12  -1  26  -1
M  END
>  <UniqueID>  (1) 
1

>  <SMILES>  (1) 
CN1CCc2ccc([N-]C(=O)[N-]c3ccc(Cl)c(S(=O)(=O)C4CC4)c3[O-])cc2C1

>  <Energy>  (1) 
331.1141536750195

>  <Genealogy>  (1) 
CN1CCc2ccc([N-]C(=O)[N-]c3ccc(Cl)c(S(=O)(=O)C4CC4)c3[O-])cc2C1 (protonated)
CN1CCc2ccc([N-]C(=O)[N-]c3ccc(Cl)c(S(=O)(=O)C4CC4)c3[O-])cc2C1 (3D coordinates assigned)
CN1CCc2ccc([N-]C(=O)[N-]c3ccc(Cl)c(S(=O)(=O)C4CC4)c3[O-])cc2C1 (nonaromatic ring conformer: 331.1141536750195 kcal/mol)

>  <smiles>  (1) 
CN1CCc2ccc(NC(=O)Nc3ccc(Cl)c(S(=O)(=O)C4CC4)c3O)cc2C1

>  <score_type>  (1) 
oracle

>  <origin>  (1) 
adgpu

>  <m_score__min__energy>  (1) 
-16.32

>  <m_primary>  (1) 
energy

$$$$
1:0
     RDKit          3D

 45 47  0  0  0  0  0  0  0  0999 V2000
   -2.7900   20.2770  -27.6770 C   0  0  0  0  0  0  0  0  0  0  0  0
   -2.5680   21.6850  -28.1440 C   0  0  0  0  0  0  0  0  0  0  0  0
   -1.3940   22.3680  -27.7930 C   0  0  0  0  0  0  0  0  0  0  0  0
   -1.2060   23.6930  -28.1950 C   0  0  0  0  0  0  0  0  0  0  0  0
   -2.1880   24.3490  -28.9450 C   0  0  0  0  0  0  0  0  0  0  0  0
   -1.9820   25.6710  -29.3240 O   0  0  0  0  0  0  0  0  0  0  0  0
   -3.3700   23.6760  -29.2980 C   0  0  0  0  0  0  0  0  0  0  0  0
   -4.6230   24.4840  -30.2440 S   0  0  0  0  0  0  0  0  0  0  0  0
   -5.9350   24.3500  -29.5240 O   0  0  0  0  0  0  0  0  0  0  0  0
   -4.3010   25.9440  -30.4120 O   0  0  0  0  0  0  0  0  0  0  0  0
   -4.7680   23.7600  -31.8140 N   0  0  0  0  0  0  0  0  0  0  0  0
   -5.1550   22.4030  -32.0660 C   0  0  0  0  0  0  0  0  0  0  0  0
   -4.2240   21.4140  -32.4280 C   0  0  0  0  0  0  0  0  0  0  0  0
   -4.6420   20.0980  -32.6490 C   0  0  0  0  0  0  0  0  0  0  0  0
   -5.9950   19.7440  -32.5060 C   0  0  0  0  0  0  0  0  0  0  0  0
   -6.4230   18.3450  -32.7420 C   0  0  0  0  0  0  0  0  0  0  0  0
   -6.7580   17.6290  -31.7590 O   0  0  0  0  0  0  0  0  0  0  0  0
   -6.4810   17.7980  -34.0710 N   0  0  0  0  0  0  0  0  0  0  0  0
   -6.8360   16.4040  -34.3250 C   0  0  0  0  0  0  0  0  0  0  0  0
   -5.7530   15.4950  -33.8230 C   0  0  0  0  0  0  0  0  0  0  0  0
   -5.9000   14.1010  -33.8690 C   0  0  0  0  0  0  0  0  0  0  0  0
   -4.8610   13.2870  -33.4140 C   0  0  0  0  0  0  0  0  0  0  0  0
   -3.6900   13.8660  -32.9200 C   0  0  0  0  0  0  0  0  0  0  0  0
   -3.5760   15.2580  -32.8920 C   0  0  0  0  0  0  0  0  0  0  0  0
   -4.5990   16.0340  -33.3410 N   0  0  0  0  0  0  0  0  0  0  0  0
   -6.9240   20.7410  -32.1590 C   0  0  0  0  0  0  0  0  0  0  0  0
   -6.5040   22.0560  -31.9400 C   0  0  0  0  0  0  0  0  0  0  0  0
   -3.5610   22.3500  -28.8790 C   0  0  0  0  0  0  0  0  0  0  0  0
   -2.7940   20.2518  -26.5773 H   0  0  0  0  0  0  0  0  0  0  0  0
   -3.7566   19.9132  -28.0556 H   0  0  0  0  0  0  0  0  0  0  0  0
   -1.9822   19.6334  -28.0556 H   0  0  0  0  0  0  0  0  0  0  0  0
   -0.6197   21.8593  -27.2000 H   0  0  0  0  0  0  0  0  0  0  0  0
   -0.2818   24.2226  -27.9205 H   0  0  0  0  0  0  0  0  0  0  0  0
   -3.1615   21.6766  -32.5380 H   0  0  0  0  0  0  0  0  0  0  0  0
   -3.9058   19.3332  -32.9372 H   0  0  0  0  0  0  0  0  0  0  0  0
   -6.3370   18.4190  -34.8980 H   0  0  0  0  0  0  0  0  0  0  0  0
   -7.7775   16.1684  -33.8072 H   0  0  0  0  0  0  0  0  0  0  0  0
   -6.9565   16.2554  -35.4082 H   0  0  0  0  0  0  0  0  0  0  0  0
   -6.8255   13.6531  -34.2600 H   0  0  0  0  0  0  0  0  0  0  0  0
   -4.9644   12.1923  -33.4445 H   0  0  0  0  0  0  0  0  0  0  0  0
   -2.8668   13.2331  -32.5571 H   0  0  0  0  0  0  0  0  0  0  0  0
   -2.6585   15.7268  -32.5067 H   0  0  0  0  0  0  0  0  0  0  0  0
   -7.9889   20.4841  -32.0592 H   0  0  0  0  0  0  0  0  0  0  0  0
   -7.2412   22.8251  -31.6660 H   0  0  0  0  0  0  0  0  0  0  0  0
   -4.4965   21.8282  -29.1289 H   0  0  0  0  0  0  0  0  0  0  0  0
  1  2  1  0
  2  3  2  0
  3  4  1  0
  4  5  2  0
  5  6  1  0
  5  7  1  0
  7  8  1  0
  8  9  2  0
  8 10  2  0
  8 11  1  0
 11 12  1  0
 12 13  2  0
 13 14  1  0
 14 15  2  0
 15 16  1  0
 16 17  2  0
 16 18  1  0
 18 19  1  0
 19 20  1  0
 20 21  2  0
 21 22  1  0
 22 23  2  0
 23 24  1  0
 24 25  2  0
 15 26  1  0
 26 27  2  0
  7 28  2  0
 28  2  1  0
 27 12  1  0
 25 20  1  0
  1 29  1  0
  1 30  1  0
  1 31  1  0
  3 32  1  0
  4 33  1  0
 13 34  1  0
 14 35  1  0
 18 36  1  0
 19 37  1  0
 19 38  1  0
 21 39  1  0
 22 40  1  0
 23 41  1  0
 24 42  1  0
 26 43  1  0
 27 44  1  0
 28 45  1  0
M  CHG  2   6  -1  11  -1
M  END
>  <UniqueID>  (2) 
2

>  <SMILES>  (2) 
Cc1ccc([O-])c(S(=O)(=O)[N-]c2ccc(C(=O)NCc3ccccn3)cc2)c1

>  <Energy>  (2) 
51.39674261367405

>  <Genealogy>  (2) 
Cc1ccc([O-])c(S(=O)(=O)[N-]c2ccc(C(=O)NCc3ccccn3)cc2)c1 (protonated)
Cc1ccc([O-])c(S(=O)(=O)[N-]c2ccc(C(=O)NCc3ccccn3)cc2)c1 (3D coordinates assigned)
Cc1ccc([O-])c(S(=O)(=O)[N-]c2ccc(C(=O)NCc3ccccn3)cc2)c1 (optimized conformer: 51.39674261367405 kcal/mol)

>  <smiles>  (2) 
Cc1ccc(O)c(S(=O)(=O)Nc2ccc(C(=O)NCc3ccccn3)cc2)c1

>  <score_type>  (2) 
oracle

>  <origin>  (2) 
adgpu

>  <m_score__min__energy>  (2) 
-12.279999999999999

>  <m_primary>  (2) 
energy

$$$$
2:0
     RDKit          3D

 45 46  0  0  0  0  0  0  0  0999 V2000
   -3.3550   23.5010  -28.6530 C   0  0  0  0  0  0  0  0  0  0  0  0
   -4.6100   24.3500  -28.4890 C   0  0  0  0  0  0  0  0  0  0  0  0
   -5.2830   24.8130  -30.0780 S   0  0  0  0  0  0  0  0  0  0  0  0
   -6.4790   25.7000  -29.8810 O   0  0  0  0  0  0  0  0  0  0  0  0
   -4.2430   25.5620  -30.8640 O   0  0  0  0  0  0  0  0  0  0  0  0
   -5.7650   23.3830  -30.9660 C   0  0  0  0  0  0  0  0  0  0  0  0
   -4.8900   22.4710  -31.4420 N   0  0  0  0  0  0  0  0  0  0  0  0
   -5.5220   21.4470  -32.0730 C   0  0  0  0  0  0  0  0  0  0  0  0
   -4.6180   20.1210  -32.7910 S   0  0  0  0  0  0  0  0  0  0  0  0
   -5.1630   19.8590  -34.1670 O   0  0  0  0  0  0  0  0  0  0  0  0
   -4.7910   18.8850  -31.9530 O   0  0  0  0  0  0  0  0  0  0  0  0
   -2.9060   20.5250  -32.8700 C   0  0  0  0  0  0  0  0  0  0  0  0
   -2.2100   20.4010  -34.0810 C   0  0  0  0  0  0  0  0  0  0  0  0
   -0.8500   20.7220  -34.1460 C   0  0  0  0  0  0  0  0  0  0  0  0
   -0.1820   21.1710  -33.0040 C   0  0  0  0  0  0  0  0  0  0  0  0
   -0.8740   21.3040  -31.7960 C   0  0  0  0  0  0  0  0  0  0  0  0
   -2.2330   20.9820  -31.7290 C   0  0  0  0  0  0  0  0  0  0  0  0
   -6.9120   21.5490  -32.0950 C   0  0  0  0  0  0  0  0  0  0  0  0
   -7.8140   20.6070  -32.6960 N   0  0  0  0  0  0  0  0  0  0  0  0
   -8.5990   19.6520  -31.9170 C   0  0  0  0  0  0  0  0  0  0  0  0
   -8.2940   18.2130  -32.3420 C   0  0  0  0  0  0  0  0  0  0  0  0
   -7.0760   18.1630  -33.1500 N   0  0  0  0  0  0  0  0  0  0  0  0
   -6.5620   16.9440  -33.7060 C   0  0  0  0  0  0  0  0  0  0  0  0
   -5.2580   16.9400  -34.4370 C   0  0  0  0  0  0  0  0  0  0  0  0
   -7.2200   15.8730  -33.6180 O   0  0  0  0  0  0  0  0  0  0  0  0
   -7.3600   22.9650  -31.2990 S   0  0  0  0  0  0  0  0  0  0  0  0
   -2.9606   23.2342  -27.6614 H   0  0  0  0  0  0  0  0  0  0  0  0
   -3.6025   22.5841  -29.2080 H   0  0  0  0  0  0  0  0  0  0  0  0
   -2.5960   24.0719  -29.2080 H   0  0  0  0  0  0  0  0  0  0  0  0
   -5.3641   23.7734  -27.9333 H   0  0  0  0  0  0  0  0  0  0  0  0
   -4.3440   25.2660  -27.9411 H   0  0  0  0  0  0  0  0  0  0  0  0
   -2.7347   20.0505  -34.9820 H   0  0  0  0  0  0  0  0  0  0  0  0
   -0.3062   20.6208  -35.0968 H   0  0  0  0  0  0  0  0  0  0  0  0
    0.8883   21.4199  -33.0550 H   0  0  0  0  0  0  0  0  0  0  0  0
   -0.3489   21.6621  -30.8982 H   0  0  0  0  0  0  0  0  0  0  0  0
   -2.7754   21.0877  -30.7779 H   0  0  0  0  0  0  0  0  0  0  0  0
   -7.9460   20.6130  -33.7320 H   0  0  0  0  0  0  0  0  0  0  0  0
   -8.3554   19.7713  -30.8510 H   0  0  0  0  0  0  0  0  0  0  0  0
   -9.6665   19.8502  -32.0935 H   0  0  0  0  0  0  0  0  0  0  0  0
   -8.1583   17.5918  -31.4444 H   0  0  0  0  0  0  0  0  0  0  0  0
   -9.1343   17.8346  -32.9426 H   0  0  0  0  0  0  0  0  0  0  0  0
   -6.5160   19.0400  -33.2470 H   0  0  0  0  0  0  0  0  0  0  0  0
   -4.4310   16.9375  -33.7116 H   0  0  0  0  0  0  0  0  0  0  0  0
   -5.1945   16.0417  -35.0686 H   0  0  0  0  0  0  0  0  0  0  0  0
   -5.1890   17.8379  -35.0686 H   0  0  0  0  0  0  0  0  0  0  0  0
  1  2  1  0
  2  3  1  0
  3  4  2  0
  3  5  2  0
  3  6  1  0
  6  7  2  0
  7  8  1  0
  8  9  1  0
  9 10  2  0
  9 11  2  0
  9 12  1  0
 12 13  2  0
 13 14  1  0
 14 15  2  0
 15 16  1  0
 16 17  2  0
  8 18  2  0
 18 19  1  0
 19 20  1  0
 20 21  1  0
 21 22  1  0
 22 23  1  0
 23 24  1  0
 23 25  2  0
 18 26  1  0
 26  6  1  0
 17 12  1  0
  1 27  1  0
  1 28  1  0
  1 29  1  0
  2 30  1  0
  2 31  1  0
 13 32  1  0
 14 33  1  0
 15 34  1  0
 16 35  1  0
 17 36  1  0
 19 37  1  0
 20 38  1  0
 20 39  1  0
 21 40  1  0
 21 41  1  0
 22 42  1  0
 24 43  1  0
 24 44  1  0
 24 45  1  0
M  END
>  <UniqueID>  (3) 
3

>  <SMILES>  (3) 
CCS(=O)(=O)c1nc(S(=O)(=O)c2ccccc2)c(NCCNC(C)=O)s1

>  <Energy>  (3) 
62.05159537354321

>  <Genealogy>  (3) 
CCS(=O)(=O)c1nc(S(=O)(=O)c2ccccc2)c(NCCNC(C)=O)s1 (3D coordinates assigned)
CCS(=O)(=O)c1nc(S(=O)(=O)c2ccccc2)c(NCCNC(C)=O)s1 (optimized conformer: 62.05159537354321 kcal/mol)

>  <smiles>  (3) 
CCS(=O)(=O)c1nc(S(=O)(=O)c2ccccc2)c(NCCNC(C)=O)s1

>  <score_type>  (3) 
oracle

>  <origin>  (3) 
adgpu

>  <m_score__min__energy>  (3) 
-8.0800000000000001

>  <m_primary>  (3) 
energy

$$$$
3:0
     RDKit          3D

 66 69  0  0  0  0  0  0  0  0999 V2000
   -2.9600   25.1980  -26.3660 C   0  0  0  0  0  0  0  0  0  0  0  0
   -4.2690   24.7930  -27.0350 C   0  0  0  0  0  0  0  0  0  0  0  0
   -4.0110   24.1360  -28.3190 N   0  0  0  0  0  0  0  0  0  0  0  0
   -3.0610   23.0640  -28.4130 C   0  0  0  0  0  0  0  0  0  0  0  0
   -3.3360   21.8190  -27.8290 C   0  0  0  0  0  0  0  0  0  0  0  0
   -2.3930   20.7880  -27.8920 C   0  0  0  0  0  0  0  0  0  0  0  0
   -1.1720   20.9890  -28.5490 C   0  0  0  0  0  0  0  0  0  0  0  0
    0.0340   19.7000  -28.6110 S   0  0  0  0  0  0  0  0  0  0  0  0
   -0.3840   18.5890  -27.6850 O   0  0  0  0  0  0  0  0  0  0  0  0
    1.3560   20.2330  -28.1290 O   0  0  0  0  0  0  0  0  0  0  0  0
    0.2190   19.0640  -30.2270 N   0  0  0  0  0  0  0  0  0  0  0  0
   -0.8660   19.5460  -31.0990 C   0  0  0  0  0  0  0  0  0  0  0  0
   -0.8980   18.7570  -32.4250 C   0  0  0  0  0  0  0  0  0  0  0  0
    0.3140   18.0600  -32.6280 O   0  0  0  0  0  0  0  0  0  0  0  0
    0.4710   17.0590  -31.6360 C   0  0  0  0  0  0  0  0  0  0  0  0
    0.2420   17.5960  -30.2060 C   0  0  0  0  0  0  0  0  0  0  0  0
   -0.9060   22.2270  -29.1480 C   0  0  0  0  0  0  0  0  0  0  0  0
   -1.8410   23.2620  -29.0740 C   0  0  0  0  0  0  0  0  0  0  0  0
   -4.8480   24.6500  -29.7530 S   0  0  0  0  0  0  0  0  0  0  0  0
   -3.8710   25.2970  -30.6950 O   0  0  0  0  0  0  0  0  0  0  0  0
   -5.9010   25.6660  -29.4030 O   0  0  0  0  0  0  0  0  0  0  0  0
   -5.6010   23.2580  -30.5230 C   0  0  0  0  0  0  0  0  0  0  0  0
   -4.8640   22.0890  -30.7570 C   0  0  0  0  0  0  0  0  0  0  0  0
   -5.4800   20.9690  -31.3220 C   0  0  0  0  0  0  0  0  0  0  0  0
   -6.8400   21.0100  -31.6620 C   0  0  0  0  0  0  0  0  0  0  0  0
   -7.6470   19.5820  -32.3060 S   0  0  0  0  0  0  0  0  0  0  0  0
   -7.5840   18.4930  -31.2710 O   0  0  0  0  0  0  0  0  0  0  0  0
   -9.0940   19.8950  -32.5760 O   0  0  0  0  0  0  0  0  0  0  0  0
   -6.8470   19.0380  -33.7700 N   0  0  0  0  0  0  0  0  0  0  0  0
   -5.5150   19.6710  -33.9300 C   0  0  0  0  0  0  0  0  0  0  0  0
   -4.3660   18.7670  -33.4400 C   0  0  0  0  0  0  0  0  0  0  0  0
   -4.7980   17.9480  -32.3760 O   0  0  0  0  0  0  0  0  0  0  0  0
   -5.7310   16.9880  -32.8440 C   0  0  0  0  0  0  0  0  0  0  0  0
   -6.7660   17.5660  -33.8400 C   0  0  0  0  0  0  0  0  0  0  0  0
   -7.5770   22.1800  -31.4320 C   0  0  0  0  0  0  0  0  0  0  0  0
   -6.9590   23.2990  -30.8650 C   0  0  0  0  0  0  0  0  0  0  0  0
   -3.0799   25.1609  -25.2732 H   0  0  0  0  0  0  0  0  0  0  0  0
   -2.1624   24.5046  -26.6711 H   0  0  0  0  0  0  0  0  0  0  0  0
   -2.6934   26.2207  -26.6711 H   0  0  0  0  0  0  0  0  0  0  0  0
   -4.8117   24.0989  -26.3765 H   0  0  0  0  0  0  0  0  0  0  0  0
   -4.8700   25.6968  -27.2139 H   0  0  0  0  0  0  0  0  0  0  0  0
   -4.2967   21.6527  -27.3196 H   0  0  0  0  0  0  0  0  0  0  0  0
   -2.6106   19.8164  -27.4243 H   0  0  0  0  0  0  0  0  0  0  0  0
   -1.8280   19.4188  -30.5809 H   0  0  0  0  0  0  0  0  0  0  0  0
   -0.6894   20.6078  -31.3258 H   0  0  0  0  0  0  0  0  0  0  0  0
   -1.7274   18.0351  -32.3943 H   0  0  0  0  0  0  0  0  0  0  0  0
   -1.0367   19.4679  -33.2529 H   0  0  0  0  0  0  0  0  0  0  0  0
   -0.2536   16.2545  -31.8301 H   0  0  0  0  0  0  0  0  0  0  0  0
    1.5075   16.6951  -31.6923 H   0  0  0  0  0  0  0  0  0  0  0  0
   -0.7187   17.2206  -29.8238 H   0  0  0  0  0  0  0  0  0  0  0  0
    1.0582   17.2535  -29.5530 H   0  0  0  0  0  0  0  0  0  0  0  0
    0.0441   22.3849  -29.6794 H   0  0  0  0  0  0  0  0  0  0  0  0
   -1.6192   24.2354  -29.5359 H   0  0  0  0  0  0  0  0  0  0  0  0
   -3.7963   22.0530  -30.4948 H   0  0  0  0  0  0  0  0  0  0  0  0
   -4.8970   20.0534  -31.5004 H   0  0  0  0  0  0  0  0  0  0  0  0
   -7.4530   19.3550  -34.5620 H   0  0  0  0  0  0  0  0  0  0  0  0
   -5.3571   19.8951  -34.9953 H   0  0  0  0  0  0  0  0  0  0  0  0
   -5.5046   20.5845  -33.3173 H   0  0  0  0  0  0  0  0  0  0  0  0
   -4.0268   18.1311  -34.2710 H   0  0  0  0  0  0  0  0  0  0  0  0
   -3.5410   19.4026  -33.0859 H   0  0  0  0  0  0  0  0  0  0  0  0
   -5.1776   16.1809  -33.3464 H   0  0  0  0  0  0  0  0  0  0  0  0
   -6.2911   16.6280  -31.9684 H   0  0  0  0  0  0  0  0  0  0  0  0
   -6.4758   17.2755  -34.8605 H   0  0  0  0  0  0  0  0  0  0  0  0
   -7.7533   17.1609  -33.5733 H   0  0  0  0  0  0  0  0  0  0  0  0
   -8.6437   22.2180  -31.6981 H   0  0  0  0  0  0  0  0  0  0  0  0
   -7.5414   24.2150  -30.6868 H   0  0  0  0  0  0  0  0  0  0  0  0
  1  2  1  0
  2  3  1  0
  3  4  1  0
  4  5  2  0
  5  6  1  0
  6  7  2  0
  7  8  1  0
  8  9  2  0
  8 10  2  0
  8 11  1  0
 11 12  1  0
 12 13  1  0
 13 14  1  0
 14 15  1  0
 15 16  1  0
  7 17  1  0
 17 18  2  0
  3 19  1  0
 19 20  2  0
 19 21  2  0
 19 22  1  0
 22 23  2  0
 23 24  1  0
 24 25  2  0
 25 26  1  0
 26 27  2  0
 26 28  2  0
 26 29  1  0
 29 30  1  0
 30 31  1  0
 31 32  1  0
 32 33  1  0
 33 34  1  0
 25 35  1  0
 35 36  2  0
 18  4  1  0
 36 22  1  0
 16 11  1  0
 34 29  1  0
  1 37  1  0
  1 38  1  0
  1 39  1  0
  2 40  1  0
  2 41  1  0
  5 42  1  0
  6 43  1  0
 12 44  1  0
 12 45  1  0
 13 46  1  0
 13 47  1  0
 15 48  1  0
 15 49  1  0
 16 50  1  0
 16 51  1  0
 17 52  1  0
 18 53  1  0
 23 54  1  0
 24 55  1  0
 29 56  1  0
 30 57  1  0
 30 58  1  0
 31 59  1  0
 31 60  1  0
 33 61  1  0
 33 62  1  0
 34 63  1  0
 34 64  1  0
 35 65  1  0
 36 66  1  0
M  CHG  1  29   1
M  END
>  <UniqueID>  (4) 
4

>  <SMILES>  (4) 
CCN(c1ccc(S(=O)(=O)N2CCOCC2)cc1)S(=O)(=O)c1ccc(S(=O)(=O)[NH+]2CCOCC2)cc1

>  <Energy>  (4) 
86.6829037905069

>  <Genealogy>  (4) 
CCN(c1ccc(S(=O)(=O)N2CCOCC2)cc1)S(=O)(=O)c1ccc(S(=O)(=O)[NH+]2CCOCC2)cc1 (protonated)
CCN(c1ccc(S(=O)(=O)N2CCOCC2)cc1)S(=O)(=O)c1ccc(S(=O)(=O)[NH+]2CCOCC2)cc1 (3D coordinates assigned)
CCN(c1ccc(S(=O)(=O)N2CCOCC2)cc1)S(=O)(=O)c1ccc(S(=O)(=O)[NH+]2CCOCC2)cc1 (nonaromatic ring conformer: 86.6829037905069 kcal/mol)

>  <smiles>  (4) 
CCN(c1ccc(S(=O)(=O)N2CCOCC2)cc1)S(=O)(=O)c1ccc(S(=O)(=O)N2CCOCC2)cc1

>  <score_type>  (4) 
oracle

>  <origin>  (4) 
adgpu

>  <m_score__min__energy>  (4) 
-10.109999999999999

>  <m_primary>  (4) 
energy

$$$$
4:0
     RDKit          3D

 67 70  0  0  0  0  0  0  0  0999 V2000
   -1.5200   26.2730  -24.5860 C   0  0  0  0  0  0  0  0  0  0  0  0
   -1.9230   25.6450  -25.8960 C   0  0  0  0  0  0  0  0  0  0  0  0
   -3.2560   25.2390  -26.0610 C   0  0  0  0  0  0  0  0  0  0  0  0
   -3.6760   24.6410  -27.2460 C   0  0  0  0  0  0  0  0  0  0  0  0
   -2.7740   24.4230  -28.2890 C   0  0  0  0  0  0  0  0  0  0  0  0
   -3.2420   23.8050  -29.4980 N   0  0  0  0  0  0  0  0  0  0  0  0
   -4.0610   24.4960  -30.4570 C   0  0  0  0  0  0  0  0  0  0  0  0
   -4.2660   25.7340  -30.3400 O   0  0  0  0  0  0  0  0  0  0  0  0
   -4.6370   23.8070  -31.5710 N   0  0  0  0  0  0  0  0  0  0  0  0
   -5.9700   23.2220  -31.5730 C   0  0  0  0  0  0  0  0  0  0  0  0
   -5.9170   21.8670  -32.2140 C   0  0  0  0  0  0  0  0  0  0  0  0
   -4.6960   21.3460  -32.6690 C   0  0  0  0  0  0  0  0  0  0  0  0
   -4.6390   20.0630  -33.2220 C   0  0  0  0  0  0  0  0  0  0  0  0
   -5.7980   19.2810  -33.3110 C   0  0  0  0  0  0  0  0  0  0  0  0
   -5.7050   17.6660  -34.0070 S   0  0  0  0  0  0  0  0  0  0  0  0
   -5.3890   17.7940  -35.4720 O   0  0  0  0  0  0  0  0  0  0  0  0
   -7.0250   16.9650  -33.8500 O   0  0  0  0  0  0  0  0  0  0  0  0
   -4.4460   16.7650  -33.1910 N   0  0  0  0  0  0  0  0  0  0  0  0
   -5.0030   15.7540  -32.2550 C   0  0  0  0  0  0  0  0  0  0  0  0
   -4.6420   14.3010  -32.6120 C   0  0  0  0  0  0  0  0  0  0  0  0
   -4.8060   14.0620  -34.1110 C   0  0  0  0  0  0  0  0  0  0  0  0
   -3.9550   15.0340  -34.9470 C   0  0  0  0  0  0  0  0  0  0  0  0
   -3.4420   16.2400  -34.1380 C   0  0  0  0  0  0  0  0  0  0  0  0
   -7.0170   19.7930  -32.8470 C   0  0  0  0  0  0  0  0  0  0  0  0
   -7.0750   21.0760  -32.2950 C   0  0  0  0  0  0  0  0  0  0  0  0
   -1.4410   24.8540  -28.1560 C   0  0  0  0  0  0  0  0  0  0  0  0
   -0.5790   24.7310  -29.2410 O   0  0  0  0  0  0  0  0  0  0  0  0
   -0.9930   25.4340  -26.9470 C   0  0  0  0  0  0  0  0  0  0  0  0
    0.7060   25.9380  -26.7680 S   0  0  0  0  0  0  0  0  0  0  0  0
    1.5720   25.3160  -27.8280 O   0  0  0  0  0  0  0  0  0  0  0  0
    1.2140   25.4790  -25.4300 O   0  0  0  0  0  0  0  0  0  0  0  0
    0.8100   27.6780  -26.8700 N   0  0  0  0  0  0  0  0  0  0  0  0
    1.2220   28.2360  -25.5750 C   0  0  0  0  0  0  0  0  0  0  0  0
    1.2590   29.7780  -25.6430 C   0  0  0  0  0  0  0  0  0  0  0  0
    0.8170   30.2630  -26.8980 O   0  0  0  0  0  0  0  0  0  0  0  0
   -0.4830   29.7750  -27.1650 C   0  0  0  0  0  0  0  0  0  0  0  0
   -0.4900   28.2370  -27.2790 C   0  0  0  0  0  0  0  0  0  0  0  0
   -1.9087   25.6673  -23.7541 H   0  0  0  0  0  0  0  0  0  0  0  0
   -0.4227   26.3199  -24.5240 H   0  0  0  0  0  0  0  0  0  0  0  0
   -1.9345   27.2900  -24.5240 H   0  0  0  0  0  0  0  0  0  0  0  0
   -3.9771   25.3949  -25.2451 H   0  0  0  0  0  0  0  0  0  0  0  0
   -4.7271   24.3378  -27.3614 H   0  0  0  0  0  0  0  0  0  0  0  0
   -2.8260   22.8850  -29.7630 H   0  0  0  0  0  0  0  0  0  0  0  0
   -6.3300   23.1249  -30.5381 H   0  0  0  0  0  0  0  0  0  0  0  0
   -6.6555   23.8702  -32.1387 H   0  0  0  0  0  0  0  0  0  0  0  0
   -3.7798   21.9496  -32.5903 H   0  0  0  0  0  0  0  0  0  0  0  0
   -3.6807   19.6663  -33.5885 H   0  0  0  0  0  0  0  0  0  0  0  0
   -4.6185   15.9678  -31.2468 H   0  0  0  0  0  0  0  0  0  0  0  0
   -6.0984   15.8333  -32.3175 H   0  0  0  0  0  0  0  0  0  0  0  0
   -3.5975   14.1070  -32.3267 H   0  0  0  0  0  0  0  0  0  0  0  0
   -5.3160   13.6231  -32.0679 H   0  0  0  0  0  0  0  0  0  0  0  0
   -4.4979   13.0316  -34.3420 H   0  0  0  0  0  0  0  0  0  0  0  0
   -5.8625   14.2288  -34.3677 H   0  0  0  0  0  0  0  0  0  0  0  0
   -3.0884   14.4861  -35.3456 H   0  0  0  0  0  0  0  0  0  0  0  0
   -4.5988   15.4271  -35.7476 H   0  0  0  0  0  0  0  0  0  0  0  0
   -2.5526   15.9292  -33.5702 H   0  0  0  0  0  0  0  0  0  0  0  0
   -3.2107   17.0432  -34.8531 H   0  0  0  0  0  0  0  0  0  0  0  0
   -7.9303   19.1840  -32.9173 H   0  0  0  0  0  0  0  0  0  0  0  0
   -8.0326   21.4683  -31.9220 H   0  0  0  0  0  0  0  0  0  0  0  0
    0.5053   27.9241  -24.8010 H   0  0  0  0  0  0  0  0  0  0  0  0
    2.2278   27.8646  -25.3292 H   0  0  0  0  0  0  0  0  0  0  0  0
    0.6073   30.1842  -24.8554 H   0  0  0  0  0  0  0  0  0  0  0  0
    2.3012   30.1001  -25.5014 H   0  0  0  0  0  0  0  0  0  0  0  0
   -1.1543   30.0771  -26.3476 H   0  0  0  0  0  0  0  0  0  0  0  0
   -0.8229   30.1964  -28.1226 H   0  0  0  0  0  0  0  0  0  0  0  0
   -1.2785   27.8304  -26.6286 H   0  0  0  0  0  0  0  0  0  0  0  0
   -0.6793   27.9612  -28.3269 H   0  0  0  0  0  0  0  0  0  0  0  0
  1  2  1  0
  2  3  2  0
  3  4  1  0
  4  5  2  0
  5  6  1  0
  6  7  1  0
  7  8  2  0
  7  9  1  0
  9 10  1  0
 10 11  1  0
 11 12  2  0
 12 13  1  0
 13 14  2  0
 14 15  1  0
 15 16  2  0
 15 17  2  0
 15 18  1  0
 18 19  1  0
 19 20  1  0
 20 21  1  0
 21 22  1  0
 22 23  1  0
 14 24  1  0
 24 25  2  0
  5 26  1  0
 26 27  1  0
 26 28  2  0
 28 29  1  0
 29 30  2  0
 29 31  2  0
 29 32  1  0
 32 33  1  0
 33 34  1  0
 34 35  1  0
 35 36  1  0
 36 37  1  0
 28  2  1  0
 37 32  1  0
 25 11  1  0
 23 18  1  0
  1 38  1  0
  1 39  1  0
  1 40  1  0
  3 41  1  0
  4 42  1  0
  6 43  1  0
 10 44  1  0
 10 45  1  0
 12 46  1  0
 13 47  1  0
 19 48  1  0
 19 49  1  0
 20 50  1  0
 20 51  1  0
 21 52  1  0
 21 53  1  0
 22 54  1  0
 22 55  1  0
 23 56  1  0
 23 57  1  0
 24 58  1  0
 25 59  1  0
 33 60  1  0
 33 61  1  0
 34 62  1  0
 34 63  1  0
 36 64  1  0
 36 65  1  0
 37 66  1  0
 37 67  1  0
M  CHG  2   9  -1  27  -1
M  END
>  <UniqueID>  (5) 
5

>  <SMILES>  (5) 
Cc1ccc(NC(=O)[N-]Cc2ccc(S(=O)(=O)N3CCCCC3)cc2)c([O-])c1S(=O)(=O)N1CCOCC1

>  <Energy>  (5) 
88.70533650252726

>  <Genealogy>  (5) 
Cc1ccc(NC(=O)[N-]Cc2ccc(S(=O)(=O)N3CCCCC3)cc2)c([O-])c1S(=O)(=O)N1CCOCC1 (protonated)
Cc1ccc(NC(=O)[N-]Cc2ccc(S(=O)(=O)N3CCCCC3)cc2)c([O-])c1S(=O)(=O)N1CCOCC1 (3D coordinates assigned)
Cc1ccc(NC(=O)[N-]Cc2ccc(S(=O)(=O)N3CCCCC3)cc2)c([O-])c1S(=O)(=O)N1CCOCC1 (nonaromatic ring conformer: 88.70533650252726 kcal/mol)

>  <smiles>  (5) 
Cc1ccc(NC(=O)NCc2ccc(S(=O)(=O)N3CCCCC3)cc2)c(O)c1S(=O)(=O)N1CCOCC1

>  <score_type>  (5) 
oracle

>  <origin>  (5) 
adgpu

>  <m_score__min__energy>  (5) 
-14.890000000000001

>  <m_primary>  (5) 
energy

$$$$
5:0
     RDKit          3D

 46 48  0  0  0  0  0  0  0  0999 V2000
   -0.7940   19.1840  -30.8650 C   0  0  0  0  0  0  0  0  0  0  0  0
   -1.3210   20.5200  -30.4300 C   0  0  0  0  0  0  0  0  0  0  0  0
   -2.6660   20.6600  -30.0520 C   0  0  0  0  0  0  0  0  0  0  0  0
   -3.1670   21.9110  -29.6830 C   0  0  0  0  0  0  0  0  0  0  0  0
   -2.3320   23.0370  -29.6970 C   0  0  0  0  0  0  0  0  0  0  0  0
   -2.9550   24.6240  -29.2510 S   0  0  0  0  0  0  0  0  0  0  0  0
   -3.8230   24.5180  -28.0280 O   0  0  0  0  0  0  0  0  0  0  0  0
   -1.8010   25.5340  -28.9400 O   0  0  0  0  0  0  0  0  0  0  0  0
   -3.8640   25.2880  -30.5770 N   0  0  0  0  0  0  0  0  0  0  0  0
   -5.2630   25.5090  -30.2050 C   0  0  0  0  0  0  0  0  0  0  0  0
   -6.1800   24.4610  -30.8440 C   0  0  0  0  0  0  0  0  0  0  0  0
   -5.5900   23.9110  -32.0220 O   0  0  0  0  0  0  0  0  0  0  0  0
   -5.5240   22.5470  -32.3600 C   0  0  0  0  0  0  0  0  0  0  0  0
   -4.3390   21.9260  -32.8010 C   0  0  0  0  0  0  0  0  0  0  0  0
   -4.3190   20.5560  -33.0990 C   0  0  0  0  0  0  0  0  0  0  0  0
   -3.0540   19.9110  -33.5870 C   0  0  0  0  0  0  0  0  0  0  0  0
   -5.5020   19.8100  -33.0130 C   0  0  0  0  0  0  0  0  0  0  0  0
   -6.6940   20.4220  -32.5980 C   0  0  0  0  0  0  0  0  0  0  0  0
   -6.6960   21.7850  -32.2540 C   0  0  0  0  0  0  0  0  0  0  0  0
   -7.8800   22.3870  -31.8070 O   0  0  0  0  0  0  0  0  0  0  0  0
   -8.9960   21.6160  -31.3600 C   0  0  0  0  0  0  0  0  0  0  0  0
   -9.2490   20.4290  -32.2940 C   0  0  0  0  0  0  0  0  0  0  0  0
   -7.9710   19.6800  -32.5410 C   0  0  0  0  0  0  0  0  0  0  0  0
   -8.0060   18.4390  -32.7600 O   0  0  0  0  0  0  0  0  0  0  0  0
   -0.9960   22.9030  -30.0950 C   0  0  0  0  0  0  0  0  0  0  0  0
   -0.4940   21.6520  -30.4650 C   0  0  0  0  0  0  0  0  0  0  0  0
   -0.5549   18.5779  -29.9787 H   0  0  0  0  0  0  0  0  0  0  0  0
   -1.5559   18.6678  -31.4676 H   0  0  0  0  0  0  0  0  0  0  0  0
    0.1151   19.3270  -31.4676 H   0  0  0  0  0  0  0  0  0  0  0  0
   -3.3278   19.7814  -30.0464 H   0  0  0  0  0  0  0  0  0  0  0  0
   -4.2197   22.0127  -29.3806 H   0  0  0  0  0  0  0  0  0  0  0  0
   -5.3569   25.4481  -29.1107 H   0  0  0  0  0  0  0  0  0  0  0  0
   -5.5660   26.5028  -30.5664 H   0  0  0  0  0  0  0  0  0  0  0  0
   -6.3594   23.6518  -30.1207 H   0  0  0  0  0  0  0  0  0  0  0  0
   -7.1263   24.9481  -31.1221 H   0  0  0  0  0  0  0  0  0  0  0  0
   -3.4208   22.5214  -32.9126 H   0  0  0  0  0  0  0  0  0  0  0  0
   -2.4448   19.6004  -32.7254 H   0  0  0  0  0  0  0  0  0  0  0  0
   -3.3032   19.0299  -34.1966 H   0  0  0  0  0  0  0  0  0  0  0  0
   -2.4872   20.6302  -34.1966 H   0  0  0  0  0  0  0  0  0  0  0  0
   -5.4959   18.7409  -33.2718 H   0  0  0  0  0  0  0  0  0  0  0  0
   -8.7913   21.2398  -30.3468 H   0  0  0  0  0  0  0  0  0  0  0  0
   -9.8889   22.2584  -31.3580 H   0  0  0  0  0  0  0  0  0  0  0  0
   -9.9826   19.7526  -31.8310 H   0  0  0  0  0  0  0  0  0  0  0  0
   -9.6357   20.8038  -33.2531 H   0  0  0  0  0  0  0  0  0  0  0  0
   -0.3394   23.7853  -30.1165 H   0  0  0  0  0  0  0  0  0  0  0  0
    0.5540   21.5551  -30.7849 H   0  0  0  0  0  0  0  0  0  0  0  0
  1  2  1  0
  2  3  2  0
  3  4  1  0
  4  5  2  0
  5  6  1  0
  6  7  2  0
  6  8  2  0
  6  9  1  0
  9 10  1  0
 10 11  1  0
 11 12  1  0
 12 13  1  0
 13 14  2  0
 14 15  1  0
 15 16  1  0
 15 17  2  0
 17 18  1  0
 18 19  2  0
 19 20  1  0
 20 21  1  0
 21 22  1  0
 22 23  1  0
 23 24  2  0
  5 25  1  0
 25 26  2  0
 26  2  1  0
 19 13  1  0
 23 18  1  0
  1 27  1  0
  1 28  1  0
  1 29  1  0
  3 30  1  0
  4 31  1  0
 10 32  1  0
 10 33  1  0
 11 34  1  0
 11 35  1  0
 14 36  1  0
 16 37  1  0
 16 38  1  0
 16 39  1  0
 17 40  1  0
 21 41  1  0
 21 42  1  0
 22 43  1  0
 22 44  1  0
 25 45  1  0
 26 46  1  0
M  CHG  1   9  -1
M  END
>  <UniqueID>  (6) 
6

>  <SMILES>  (6) 
Cc1ccc(S(=O)(=O)[N-]CCOc2cc(C)cc3c2OCCC3=O)cc1

>  <Energy>  (6) 
45.596892167847834

>  <Genealogy>  (6) 
Cc1ccc(S(=O)(=O)[N-]CCOc2cc(C)cc3c2OCCC3=O)cc1 (protonated)
Cc1ccc(S(=O)(=O)[N-]CCOc2cc(C)cc3c2OCCC3=O)cc1 (3D coordinates assigned)
Cc1ccc(S(=O)(=O)[N-]CCOc2cc(C)cc3c2OCCC3=O)cc1 (nonaromatic ring conformer: 45.596892167847834 kcal/mol)

>  <smiles>  (6) 
Cc1ccc(S(=O)(=O)NCCOc2cc(C)cc3c2OCCC3=O)cc1

>  <score_type>  (6) 
oracle

>  <origin>  (6) 
adgpu

>  <m_score__min__energy>  (6) 
-10.539999999999999

>  <m_primary>  (6) 
energy

$$$$
6:0
     RDKit          3D

 63 67  0  0  0  0  0  0  0  0999 V2000
   -3.9000   25.6470  -30.6450 O   0  0  0  0  0  0  0  0  0  0  0  0
   -5.2870   25.5550  -30.4570 C   0  0  0  0  0  0  0  0  0  0  0  0
   -5.7750   24.1950  -30.8730 C   0  0  0  0  0  0  0  0  0  0  0  0
   -6.6070   23.4500  -30.0240 C   0  0  0  0  0  0  0  0  0  0  0  0
   -7.0300   22.1700  -30.3940 C   0  0  0  0  0  0  0  0  0  0  0  0
   -6.6200   21.6070  -31.6170 C   0  0  0  0  0  0  0  0  0  0  0  0
   -7.0320   20.2830  -32.0100 N   0  0  0  0  0  0  0  0  0  0  0  0
   -8.1270   19.6050  -31.6000 C   0  0  0  0  0  0  0  0  0  0  0  0
   -8.1460   18.3760  -32.2270 C   0  0  0  0  0  0  0  0  0  0  0  0
   -7.0120   18.3730  -33.0160 C   0  0  0  0  0  0  0  0  0  0  0  0
   -6.5580   17.2520  -33.9170 C   0  0  1  0  0  0  0  0  0  0  0  0
   -5.7750   17.8000  -35.1240 C   0  0  0  0  0  0  0  0  0  0  0  0
   -4.3280   18.1810  -34.7530 C   0  0  0  0  0  0  0  0  0  0  0  0
   -3.5860   17.1320  -33.9850 N   0  0  1  0  0  0  0  0  0  0  0  0
   -3.0270   17.6980  -32.7290 C   0  0  0  0  0  0  0  0  0  0  0  0
   -2.3950   19.0560  -32.9280 C   0  0  0  0  0  0  0  0  0  0  0  0
   -1.3290   19.2210  -33.8260 C   0  0  0  0  0  0  0  0  0  0  0  0
   -0.7500   20.4800  -34.0070 C   0  0  0  0  0  0  0  0  0  0  0  0
   -1.2240   21.5800  -33.2880 C   0  0  0  0  0  0  0  0  0  0  0  0
   -2.2760   21.4250  -32.3700 C   0  0  0  0  0  0  0  0  0  0  0  0
   -2.7800   22.5050  -31.6310 O   0  0  0  0  0  0  0  0  0  0  0  0
   -2.6840   22.6480  -30.2390 C   0  0  0  0  0  0  0  0  0  0  0  0
   -1.6470   23.4280  -29.7120 C   0  0  0  0  0  0  0  0  0  0  0  0
   -1.5290   23.6070  -28.3300 C   0  0  0  0  0  0  0  0  0  0  0  0
   -2.4530   23.0130  -27.4670 C   0  0  0  0  0  0  0  0  0  0  0  0
   -3.5010   22.2470  -27.9840 C   0  0  0  0  0  0  0  0  0  0  0  0
   -3.6250   22.0740  -29.3660 C   0  0  0  0  0  0  0  0  0  0  0  0
   -2.8700   20.1660  -32.2100 C   0  0  0  0  0  0  0  0  0  0  0  0
   -4.3810   15.8970  -33.7490 C   0  0  0  0  0  0  0  0  0  0  0  0
   -5.7570   16.1870  -33.1290 C   0  0  0  0  0  0  0  0  0  0  0  0
   -6.3560   19.5390  -32.8700 N   0  0  0  0  0  0  0  0  0  0  0  0
   -5.7670   22.3520  -32.4520 C   0  0  0  0  0  0  0  0  0  0  0  0
   -5.3470   23.6310  -32.0820 C   0  0  0  0  0  0  0  0  0  0  0  0
   -3.6440   24.8890  -31.2340 H   0  0  0  0  0  0  0  0  0  0  0  0
   -5.5218   25.7167  -29.3946 H   0  0  0  0  0  0  0  0  0  0  0  0
   -5.7853   26.3199  -31.0707 H   0  0  0  0  0  0  0  0  0  0  0  0
   -6.9283   23.8754  -29.0618 H   0  0  0  0  0  0  0  0  0  0  0  0
   -7.6887   21.5982  -29.7238 H   0  0  0  0  0  0  0  0  0  0  0  0
   -8.8782   19.9720  -30.8852 H   0  0  0  0  0  0  0  0  0  0  0  0
   -8.8957   17.5779  -32.1222 H   0  0  0  0  0  0  0  0  0  0  0  0
   -7.4503   16.7457  -34.3138 H   0  0  0  0  0  0  0  0  0  0  0  0
   -6.2905   18.6940  -35.5048 H   0  0  0  0  0  0  0  0  0  0  0  0
   -5.7316   17.0086  -35.8868 H   0  0  0  0  0  0  0  0  0  0  0  0
   -4.3595   19.0955  -34.1426 H   0  0  0  0  0  0  0  0  0  0  0  0
   -3.7873   18.3146  -35.7016 H   0  0  0  0  0  0  0  0  0  0  0  0
   -2.7710   16.8440  -34.5780 H   0  0  0  0  0  0  0  0  0  0  0  0
   -3.8401   17.7932  -31.9942 H   0  0  0  0  0  0  0  0  0  0  0  0
   -2.2390   17.0144  -32.3801 H   0  0  0  0  0  0  0  0  0  0  0  0
   -0.9480   18.3564  -34.3893 H   0  0  0  0  0  0  0  0  0  0  0  0
    0.0807   20.6051  -34.7171 H   0  0  0  0  0  0  0  0  0  0  0  0
   -0.7719   22.5710  -33.4412 H   0  0  0  0  0  0  0  0  0  0  0  0
   -0.9213   23.9025  -30.3889 H   0  0  0  0  0  0  0  0  0  0  0  0
   -0.7084   24.2157  -27.9225 H   0  0  0  0  0  0  0  0  0  0  0  0
   -2.3555   23.1484  -26.3797 H   0  0  0  0  0  0  0  0  0  0  0  0
   -4.2285   21.7800  -27.3038 H   0  0  0  0  0  0  0  0  0  0  0  0
   -4.4619   21.4866  -29.7718 H   0  0  0  0  0  0  0  0  0  0  0  0
   -3.7153   20.0459  -31.5164 H   0  0  0  0  0  0  0  0  0  0  0  0
   -3.8190   15.2415  -33.0675 H   0  0  0  0  0  0  0  0  0  0  0  0
   -4.5504   15.4192  -34.7252 H   0  0  0  0  0  0  0  0  0  0  0  0
   -5.6099   16.5479  -32.1004 H   0  0  0  0  0  0  0  0  0  0  0  0
   -6.3354   15.2517  -33.1547 H   0  0  0  0  0  0  0  0  0  0  0  0
   -5.4276   21.9223  -33.4060 H   0  0  0  0  0  0  0  0  0  0  0  0
   -4.6763   24.1991  -32.7434 H   0  0  0  0  0  0  0  0  0  0  0  0
  1  2  1  0
  2  3  1  0
  3  4  2  0
  4  5  1  0
  5  6  2  0
  6  7  1  0
  7  8  1  0
  8  9  2  0
  9 10  1  0
 10 11  1  0
 11 12  1  0
 12 13  1  0
 13 14  1  0
 14 15  1  0
 15 16  1  0
 16 17  2  0
 17 18  1  0
 18 19  2  0
 19 20  1  0
 20 21  1  0
 21 22  1  0
 22 23  2  0
 23 24  1  0
 24 25  2  0
 25 26  1  0
 26 27  2  0
 20 28  2  0
 14 29  1  0
 29 30  1  0
 10 31  2  0
  6 32  1  0
 32 33  2  0
 33  3  1  0
 31  7  1  0
 30 11  1  0
 28 16  1  0
 27 22  1  0
  1 34  1  0
  2 35  1  0
  2 36  1  0
  4 37  1  0
  5 38  1  0
  8 39  1  0
  9 40  1  0
 11 41  1  6
 12 42  1  0
 12 43  1  0
 13 44  1  0
 13 45  1  0
 14 46  1  6
 15 47  1  0
 15 48  1  0
 17 49  1  0
 18 50  1  0
 19 51  1  0
 23 52  1  0
 24 53  1  0
 25 54  1  0
 26 55  1  0
 27 56  1  0
 28 57  1  0
 29 58  1  0
 29 59  1  0
 30 60  1  0
 30 61  1  0
 32 62  1  0
 33 63  1  0
M  CHG  1  14   1
M  END
>  <UniqueID>  (7) 
7

>  <SMILES>  (7) 
OCc1ccc(-n2ccc(C3CC[NH+](Cc4cccc(Oc5ccccc5)c4)CC3)n2)cc1

>  <Energy>  (7) 
117.10192219035413

>  <Genealogy>  (7) 
OCc1ccc(-n2ccc(C3CC[NH+](Cc4cccc(Oc5ccccc5)c4)CC3)n2)cc1 (protonated)
OCc1ccc(-n2ccc(C3CC[NH+](Cc4cccc(Oc5ccccc5)c4)CC3)n2)cc1 (3D coordinates assigned)
OCc1ccc(-n2ccc(C3CC[NH+](Cc4cccc(Oc5ccccc5)c4)CC3)n2)cc1 (nonaromatic ring conformer: 117.10192219035413 kcal/mol)

>  <smiles>  (7) 
OCc1ccc(-n2ccc(C3CCN(Cc4cccc(Oc5ccccc5)c4)CC3)n2)cc1

>  <score_type>  (7) 
oracle

>  <origin>  (7) 
adgpu

>  <m_score__min__energy>  (7) 
-10.050000000000001

>  <m_primary>  (7) 
energy

$$$$
7:0
     RDKit          3D

 35 36  0  0  0  0  0  0  0  0999 V2000
   -3.2260   21.1490  -33.1300 C   0  0  0  0  0  0  0  0  0  0  0  0
   -4.6490   21.1170  -33.0960 O   0  0  0  0  0  0  0  0  0  0  0  0
   -5.4430   21.9730  -32.3190 C   0  0  0  0  0  0  0  0  0  0  0  0
   -4.9470   23.1670  -31.7650 C   0  0  0  0  0  0  0  0  0  0  0  0
   -5.7750   23.9870  -30.9840 C   0  0  0  0  0  0  0  0  0  0  0  0
   -5.2430   25.2620  -30.3820 C   0  0  0  0  0  0  0  0  0  0  0  0
   -3.7880   25.1950  -30.2350 N   0  0  0  0  0  0  0  0  0  0  0  0
   -3.1080   24.4880  -29.1770 C   0  0  0  0  0  0  0  0  0  0  0  0
   -3.6820   23.3560  -28.5630 C   0  0  0  0  0  0  0  0  0  0  0  0
   -3.0070   22.6880  -27.5370 C   0  0  0  0  0  0  0  0  0  0  0  0
   -1.7550   23.1340  -27.1140 C   0  0  0  0  0  0  0  0  0  0  0  0
   -1.1720   24.2490  -27.7180 C   0  0  0  0  0  0  0  0  0  0  0  0
   -1.8400   24.9260  -28.7450 C   0  0  0  0  0  0  0  0  0  0  0  0
   -1.2390   26.0370  -29.3250 O   0  0  0  0  0  0  0  0  0  0  0  0
   -7.1130   23.6180  -30.7720 C   0  0  0  0  0  0  0  0  0  0  0  0
   -7.6190   22.4270  -31.3240 C   0  0  0  0  0  0  0  0  0  0  0  0
   -8.9470   22.0140  -31.1320 O   0  0  0  0  0  0  0  0  0  0  0  0
   -9.6410   21.1160  -31.9910 C   0  0  0  0  0  0  0  0  0  0  0  0
   -6.7770   21.6160  -32.0910 C   0  0  0  0  0  0  0  0  0  0  0  0
   -2.8348   21.1578  -32.1020 H   0  0  0  0  0  0  0  0  0  0  0  0
   -2.8517   20.2590  -33.6572 H   0  0  0  0  0  0  0  0  0  0  0  0
   -2.8921   22.0549  -33.6572 H   0  0  0  0  0  0  0  0  0  0  0  0
   -3.9022   23.4599  -31.9455 H   0  0  0  0  0  0  0  0  0  0  0  0
   -5.5015   26.1066  -31.0376 H   0  0  0  0  0  0  0  0  0  0  0  0
   -5.6937   25.3997  -29.3881 H   0  0  0  0  0  0  0  0  0  0  0  0
   -3.2210   25.7490  -30.9170 H   0  0  0  0  0  0  0  0  0  0  0  0
   -4.6675   22.9960  -28.8934 H   0  0  0  0  0  0  0  0  0  0  0  0
   -3.4648   21.8079  -27.0618 H   0  0  0  0  0  0  0  0  0  0  0  0
   -1.2275   22.6074  -26.3050 H   0  0  0  0  0  0  0  0  0  0  0  0
   -0.1830   24.5974  -27.3854 H   0  0  0  0  0  0  0  0  0  0  0  0
   -7.7696   24.2640  -30.1707 H   0  0  0  0  0  0  0  0  0  0  0  0
  -10.2025   20.3894  -31.3853 H   0  0  0  0  0  0  0  0  0  0  0  0
  -10.3391   21.6815  -32.6258 H   0  0  0  0  0  0  0  0  0  0  0  0
   -8.9178   20.5831  -32.6258 H   0  0  0  0  0  0  0  0  0  0  0  0
   -7.1691   20.6829  -32.5219 H   0  0  0  0  0  0  0  0  0  0  0  0
  1  2  1  0
  2  3  1  0
  3  4  2  0
  4  5  1  0
  5  6  1  0
  6  7  1  0
  7  8  1  0
  8  9  2  0
  9 10  1  0
 10 11  2  0
 11 12  1  0
 12 13  2  0
 13 14  1  0
  5 15  2  0
 15 16  1  0
 16 17  1  0
 17 18  1  0
 16 19  2  0
 19  3  1  0
 13  8  1  0
  1 20  1  0
  1 21  1  0
  1 22  1  0
  4 23  1  0
  6 24  1  0
  6 25  1  0
  7 26  1  0
  9 27  1  0
 10 28  1  0
 11 29  1  0
 12 30  1  0
 15 31  1  0
 18 32  1  0
 18 33  1  0
 18 34  1  0
 19 35  1  0
M  CHG  1  14  -1
M  END
>  <UniqueID>  (8) 
8

>  <SMILES>  (8) 
COc1cc(CNc2ccccc2[O-])cc(OC)c1

>  <Energy>  (8) 
33.80478720452218

>  <Genealogy>  (8) 
COc1cc(CNc2ccccc2[O-])cc(OC)c1 (protonated)
COc1cc(CNc2ccccc2[O-])cc(OC)c1 (3D coordinates assigned)
COc1cc(CNc2ccccc2[O-])cc(OC)c1 (optimized conformer: 33.80478720452218 kcal/mol)

>  <smiles>  (8) 
COc1cc(CNc2ccccc2O)cc(OC)c1

>  <score_type>  (8) 
oracle

>  <origin>  (8) 
adgpu

>  <m_score__min__energy>  (8) 
-9.7300000000000004

>  <m_primary>  (8) 
energy

$$$$
8:0
     RDKit          3D

 57 60  0  0  0  0  0  0  0  0999 V2000
   -3.5280   21.5560  -28.2420 O   0  0  0  0  0  0  0  0  0  0  0  0
   -3.3420   22.6250  -28.8870 C   0  0  0  0  0  0  0  0  0  0  0  0
   -3.9490   22.8080  -30.1780 N   0  0  0  0  0  0  0  0  0  0  0  0
   -4.7370   21.8090  -30.8470 C   0  0  0  0  0  0  0  0  0  0  0  0
   -4.2270   20.5090  -30.9790 C   0  0  0  0  0  0  0  0  0  0  0  0
   -4.9840   19.5120  -31.6010 C   0  0  0  0  0  0  0  0  0  0  0  0
   -6.2680   19.7970  -32.0820 C   0  0  0  0  0  0  0  0  0  0  0  0
   -7.2020   18.5310  -32.8740 S   0  0  0  0  0  0  0  0  0  0  0  0
   -7.2070   17.3190  -31.9850 O   0  0  0  0  0  0  0  0  0  0  0  0
   -8.6220   18.9850  -33.0780 O   0  0  0  0  0  0  0  0  0  0  0  0
   -6.4660   18.1350  -34.4130 N   0  0  0  0  0  0  0  0  0  0  0  0
   -6.3830   16.6800  -34.5860 C   0  0  0  0  0  0  0  0  0  0  0  0
   -5.0110   16.2220  -34.1120 C   0  0  0  0  0  0  0  0  0  0  0  0
   -4.1750   17.4830  -33.9980 C   0  0  0  0  0  0  0  0  0  0  0  0
   -5.0820   18.6150  -34.4580 C   0  0  0  0  0  0  0  0  0  0  0  0
   -6.7910   21.0890  -31.9330 C   0  0  0  0  0  0  0  0  0  0  0  0
   -6.0350   22.0870  -31.3120 C   0  0  0  0  0  0  0  0  0  0  0  0
   -2.4840   23.6740  -28.2970 C   0  0  0  0  0  0  0  0  0  0  0  0
   -1.7890   23.4020  -27.1070 C   0  0  0  0  0  0  0  0  0  0  0  0
   -0.9430   24.3630  -26.5380 C   0  0  0  0  0  0  0  0  0  0  0  0
   -0.0380   23.9920  -25.0700 S   0  0  0  0  0  0  0  0  0  0  0  0
   -0.2800   25.0820  -24.0630 O   0  0  0  0  0  0  0  0  0  0  0  0
   -0.5530   22.7060  -24.4850 O   0  0  0  0  0  0  0  0  0  0  0  0
    1.6850   23.8500  -25.3600 N   0  0  0  0  0  0  0  0  0  0  0  0
    2.4960   24.5580  -24.3460 C   0  0  0  0  0  0  0  0  0  0  0  0
    3.0350   25.9080  -24.8470 C   0  0  0  0  0  0  0  0  0  0  0  0
    2.1620   26.4650  -25.8020 O   0  0  0  0  0  0  0  0  0  0  0  0
    2.2090   25.7010  -26.9920 C   0  0  0  0  0  0  0  0  0  0  0  0
    2.0550   24.1800  -26.7490 C   0  0  0  0  0  0  0  0  0  0  0  0
   -0.8130   25.6170  -27.1460 C   0  0  0  0  0  0  0  0  0  0  0  0
   -1.5210   25.9080  -28.3140 C   0  0  0  0  0  0  0  0  0  0  0  0
   -2.3610   24.9490  -28.8880 C   0  0  0  0  0  0  0  0  0  0  0  0
   -3.0900   25.2860  -30.0240 O   0  0  0  0  0  0  0  0  0  0  0  0
   -3.8490   23.7340  -30.6530 H   0  0  0  0  0  0  0  0  0  0  0  0
   -3.2253   20.2727  -30.5907 H   0  0  0  0  0  0  0  0  0  0  0  0
   -4.5694   18.4993  -31.7131 H   0  0  0  0  0  0  0  0  0  0  0  0
   -7.1660   16.1889  -33.9896 H   0  0  0  0  0  0  0  0  0  0  0  0
   -6.5278   16.4143  -35.6436 H   0  0  0  0  0  0  0  0  0  0  0  0
   -5.0894   15.7239  -33.1344 H   0  0  0  0  0  0  0  0  0  0  0  0
   -4.5616   15.4980  -34.8075 H   0  0  0  0  0  0  0  0  0  0  0  0
   -3.8595   17.6423  -32.9563 H   0  0  0  0  0  0  0  0  0  0  0  0
   -3.2592   17.4217  -34.6043 H   0  0  0  0  0  0  0  0  0  0  0  0
   -4.9656   19.4812  -33.7900 H   0  0  0  0  0  0  0  0  0  0  0  0
   -4.8183   18.9238  -35.4803 H   0  0  0  0  0  0  0  0  0  0  0  0
   -7.8001   21.3182  -32.3062 H   0  0  0  0  0  0  0  0  0  0  0  0
   -6.4572   23.0949  -31.1863 H   0  0  0  0  0  0  0  0  0  0  0  0
   -1.9102   22.4247  -26.6169 H   0  0  0  0  0  0  0  0  0  0  0  0
    1.8706   24.7371  -23.4590 H   0  0  0  0  0  0  0  0  0  0  0  0
    3.3630   23.9220  -24.1140 H   0  0  0  0  0  0  0  0  0  0  0  0
    3.1285   26.5986  -23.9959 H   0  0  0  0  0  0  0  0  0  0  0  0
    4.0174   25.7469  -25.3149 H   0  0  0  0  0  0  0  0  0  0  0  0
    1.3948   26.0333  -27.6527 H   0  0  0  0  0  0  0  0  0  0  0  0
    3.1996   25.8605  -27.4429 H   0  0  0  0  0  0  0  0  0  0  0  0
    1.2728   23.7958  -27.4202 H   0  0  0  0  0  0  0  0  0  0  0  0
    3.0325   23.7159  -26.9469 H   0  0  0  0  0  0  0  0  0  0  0  0
   -0.1512   26.3755  -26.7025 H   0  0  0  0  0  0  0  0  0  0  0  0
   -1.4173   26.8967  -28.7848 H   0  0  0  0  0  0  0  0  0  0  0  0
  1  2  2  0
  2  3  1  0
  3  4  1  0
  4  5  2  0
  5  6  1  0
  6  7  2  0
  7  8  1  0
  8  9  2  0
  8 10  2  0
  8 11  1  0
 11 12  1  0
 12 13  1  0
 13 14  1  0
 14 15  1  0
  7 16  1  0
 16 17  2  0
  2 18  1  0
 18 19  2  0
 19 20  1  0
 20 21  1  0
 21 22  2  0
 21 23  2  0
 21 24  1  0
 24 25  1  0
 25 26  1  0
 26 27  1  0
 27 28  1  0
 28 29  1  0
 20 30  2  0
 30 31  1  0
 31 32  2  0
 32 33  1  0
 17  4  1  0
 32 18  1  0
 15 11  1  0
 29 24  1  0
  3 34  1  0
  5 35  1  0
  6 36  1  0
 12 37  1  0
 12 38  1  0
 13 39  1  0
 13 40  1  0
 14 41  1  0
 14 42  1  0
 15 43  1  0
 15 44  1  0
 16 45  1  0
 17 46  1  0
 19 47  1  0
 25 48  1  0
 25 49  1  0
 26 50  1  0
 26 51  1  0
 28 52  1  0
 28 53  1  0
 29 54  1  0
 29 55  1  0
 30 56  1  0
 31 57  1  0
M  CHG  1  33  -1
M  END
>  <UniqueID>  (9) 
9

>  <SMILES>  (9) 
O=C(Nc1ccc(S(=O)(=O)N2CCCC2)cc1)c1cc(S(=O)(=O)N2CCOCC2)ccc1[O-]

>  <Energy>  (9) 
79.5497396599944

>  <Genealogy>  (9) 
O=C(Nc1ccc(S(=O)(=O)N2CCCC2)cc1)c1cc(S(=O)(=O)N2CCOCC2)ccc1[O-] (protonated)
O=C(Nc1ccc(S(=O)(=O)N2CCCC2)cc1)c1cc(S(=O)(=O)N2CCOCC2)ccc1[O-] (3D coordinates assigned)
O=C(Nc1ccc(S(=O)(=O)N2CCCC2)cc1)c1cc(S(=O)(=O)N2CCOCC2)ccc1[O-] (nonaromatic ring conformer: 79.5497396599944 kcal/mol)

>  <smiles>  (9) 
O=C(Nc1ccc(S(=O)(=O)N2CCCC2)cc1)c1cc(S(=O)(=O)N2CCOCC2)ccc1O

>  <score_type>  (9) 
oracle

>  <origin>  (9) 
adgpu

>  <m_score__min__energy>  (9) 
-12.109999999999999

>  <m_primary>  (9) 
energy

$$$$
9:0
     RDKit          3D

 56 59  0  0  0  0  0  0  0  0999 V2000
   -5.6910   26.2220  -30.1990 O   0  0  0  0  0  0  0  0  0  0  0  0
   -5.1390   25.1230  -30.4790 C   0  0  0  0  0  0  0  0  0  0  0  0
   -3.7090   25.0180  -30.4830 N   0  0  0  0  0  0  0  0  0  0  0  0
   -2.9220   24.0670  -29.7520 C   0  0  0  0  0  0  0  0  0  0  0  0
   -2.8730   24.0630  -28.3460 C   0  0  0  0  0  0  0  0  0  0  0  0
   -2.1160   23.1000  -27.6720 C   0  0  0  0  0  0  0  0  0  0  0  0
   -1.4130   22.1300  -28.3900 C   0  0  0  0  0  0  0  0  0  0  0  0
   -1.4700   22.1120  -29.7900 C   0  0  0  0  0  0  0  0  0  0  0  0
   -0.6140   20.8780  -30.7120 S   0  0  0  0  0  0  0  0  0  0  0  0
    0.2580   21.5620  -31.7270 O   0  0  0  0  0  0  0  0  0  0  0  0
    0.2580   20.0650  -29.7970 O   0  0  0  0  0  0  0  0  0  0  0  0
   -1.7670   19.8410  -31.5240 N   0  0  0  0  0  0  0  0  0  0  0  0
   -1.4070   19.6500  -32.9350 C   0  0  0  0  0  0  0  0  0  0  0  0
   -2.1630   20.6920  -33.7500 C   0  0  0  0  0  0  0  0  0  0  0  0
   -3.2560   21.2170  -32.8350 C   0  0  0  0  0  0  0  0  0  0  0  0
   -3.1060   20.4440  -31.5320 C   0  0  0  0  0  0  0  0  0  0  0  0
   -2.2340   23.0760  -30.4640 C   0  0  0  0  0  0  0  0  0  0  0  0
   -5.9690   23.9550  -30.8550 C   0  0  0  0  0  0  0  0  0  0  0  0
   -7.1870   24.1300  -31.5370 C   0  0  0  0  0  0  0  0  0  0  0  0
   -7.9660   23.0250  -31.8940 C   0  0  0  0  0  0  0  0  0  0  0  0
   -7.5450   21.7300  -31.5690 C   0  0  0  0  0  0  0  0  0  0  0  0
   -8.5080   20.3320  -32.0390 S   0  0  0  0  0  0  0  0  0  0  0  0
   -9.7780   20.7900  -32.7050 O   0  0  0  0  0  0  0  0  0  0  0  0
   -8.8680   19.5460  -30.8100 O   0  0  0  0  0  0  0  0  0  0  0  0
   -7.5760   19.3290  -33.1210 N   0  0  0  0  0  0  0  0  0  0  0  0
   -6.9460   18.2190  -32.4060 C   0  0  0  0  0  0  0  0  0  0  0  0
   -5.7010   17.8480  -33.1940 C   0  0  0  0  0  0  0  0  0  0  0  0
   -5.3890   19.0640  -34.0530 C   0  0  0  0  0  0  0  0  0  0  0  0
   -6.4760   20.0780  -33.7260 C   0  0  0  0  0  0  0  0  0  0  0  0
   -6.3310   21.5470  -30.8960 C   0  0  0  0  0  0  0  0  0  0  0  0
   -5.5490   22.6490  -30.5390 C   0  0  0  0  0  0  0  0  0  0  0  0
   -3.4317   24.8195  -27.7755 H   0  0  0  0  0  0  0  0  0  0  0  0
   -2.0740   23.1063  -26.5728 H   0  0  0  0  0  0  0  0  0  0  0  0
   -0.8133   21.3786  -27.8554 H   0  0  0  0  0  0  0  0  0  0  0  0
   -1.7890   18.9190  -31.0280 H   0  0  0  0  0  0  0  0  0  0  0  0
   -0.3233   19.7850  -33.0669 H   0  0  0  0  0  0  0  0  0  0  0  0
   -1.6713   18.6350  -33.2665 H   0  0  0  0  0  0  0  0  0  0  0  0
   -1.4886   21.5079  -34.0491 H   0  0  0  0  0  0  0  0  0  0  0  0
   -2.5787   20.2616  -34.6730 H   0  0  0  0  0  0  0  0  0  0  0  0
   -3.1247   22.2949  -32.6592 H   0  0  0  0  0  0  0  0  0  0  0  0
   -4.2549   21.0821  -33.2754 H   0  0  0  0  0  0  0  0  0  0  0  0
   -3.2149   21.1267  -30.6764 H   0  0  0  0  0  0  0  0  0  0  0  0
   -3.8800   19.6663  -31.4533 H   0  0  0  0  0  0  0  0  0  0  0  0
   -2.2935   23.0536  -31.5622 H   0  0  0  0  0  0  0  0  0  0  0  0
   -7.5292   25.1440  -31.7914 H   0  0  0  0  0  0  0  0  0  0  0  0
   -8.9136   23.1739  -32.4325 H   0  0  0  0  0  0  0  0  0  0  0  0
   -6.6719   18.5302  -31.3872 H   0  0  0  0  0  0  0  0  0  0  0  0
   -7.6309   17.3627  -32.3189 H   0  0  0  0  0  0  0  0  0  0  0  0
   -4.8644   17.6331  -32.5129 H   0  0  0  0  0  0  0  0  0  0  0  0
   -5.8566   16.9457  -33.8036 H   0  0  0  0  0  0  0  0  0  0  0  0
   -4.3972   19.4683  -33.8023 H   0  0  0  0  0  0  0  0  0  0  0  0
   -5.3702   18.8148  -35.1242 H   0  0  0  0  0  0  0  0  0  0  0  0
   -6.0942   20.8294  -33.0191 H   0  0  0  0  0  0  0  0  0  0  0  0
   -6.8076   20.6101  -34.6298 H   0  0  0  0  0  0  0  0  0  0  0  0
   -5.9910   20.5309  -30.6470 H   0  0  0  0  0  0  0  0  0  0  0  0
   -4.5985   22.4947  -30.0073 H   0  0  0  0  0  0  0  0  0  0  0  0
  1  2  2  0
  2  3  1  0
  3  4  1  0
  4  5  2  0
  5  6  1  0
  6  7  2  0
  7  8  1  0
  8  9  1  0
  9 10  2  0
  9 11  2  0
  9 12  1  0
 12 13  1  0
 13 14  1  0
 14 15  1  0
 15 16  1  0
  8 17  2  0
  2 18  1  0
 18 19  2  0
 19 20  1  0
 20 21  2  0
 21 22  1  0
 22 23  2  0
 22 24  2  0
 22 25  1  0
 25 26  1  0
 26 27  1  0
 27 28  1  0
 28 29  1  0
 21 30  1  0
 30 31  2  0
 17  4  1  0
 31 18  1  0
 16 12  1  0
 29 25  1  0
  5 32  1  0
  6 33  1  0
  7 34  1  0
 12 35  1  0
 13 36  1  0
 13 37  1  0
 14 38  1  0
 14 39  1  0
 15 40  1  0
 15 41  1  0
 16 42  1  0
 16 43  1  0
 17 44  1  0
 19 45  1  0
 20 46  1  0
 26 47  1  0
 26 48  1  0
 27 49  1  0
 27 50  1  0
 28 51  1  0
 28 52  1  0
 29 53  1  0
 29 54  1  0
 30 55  1  0
 31 56  1  0
M  CHG  2   3  -1  12   1
M  END
>  <UniqueID>  (10) 
10

>  <SMILES>  (10) 
O=C([N-]c1cccc(S(=O)(=O)[NH+]2CCCC2)c1)c1ccc(S(=O)(=O)N2CCCC2)cc1

>  <Energy>  (10) 
64.01641566423675

>  <Genealogy>  (10) 
O=C([N-]c1cccc(S(=O)(=O)[NH+]2CCCC2)c1)c1ccc(S(=O)(=O)N2CCCC2)cc1 (protonated)
O=C([N-]c1cccc(S(=O)(=O)[NH+]2CCCC2)c1)c1ccc(S(=O)(=O)N2CCCC2)cc1 (3D coordinates assigned)
O=C([N-]c1cccc(S(=O)(=O)[NH+]2CCCC2)c1)c1ccc(S(=O)(=O)N2CCCC2)cc1 (nonaromatic ring conformer: 64.01641566423675 kcal/mol)

>  <smiles>  (10) 
O=C(Nc1cccc(S(=O)(=O)N2CCCC2)c1)c1ccc(S(=O)(=O)N2CCCC2)cc1

>  <score_type>  (10) 
oracle

>  <origin>  (10) 
adgpu

>  <m_score__min__energy>  (10) 
-12.42

>  <m_primary>  (10) 
energy

$$$$
10:0
     RDKit          3D

 31 32  0  0  0  0  0  0  0  0999 V2000
   -5.1190   17.2916  -33.6086 H   0  0  0  0  0  0  0  0  0  0  0  0
   -5.9650   17.9280  -33.3100 C   0  0  0  0  0  0  0  0  0  0  0  0
   -6.9250   17.4410  -32.4200 C   0  0  0  0  0  0  0  0  0  0  0  0
   -6.8332   16.4213  -32.0177 H   0  0  0  0  0  0  0  0  0  0  0  0
   -8.0030   18.2470  -32.0390 C   0  0  0  0  0  0  0  0  0  0  0  0
   -8.7562   17.8600  -31.3370 H   0  0  0  0  0  0  0  0  0  0  0  0
   -8.1260   19.5500  -32.5510 C   0  0  0  0  0  0  0  0  0  0  0  0
   -9.3020   20.4120  -32.1810 C   0  0  0  0  0  0  0  0  0  0  0  0
  -10.1271   19.7712  -31.8366 H   0  0  0  0  0  0  0  0  0  0  0  0
   -9.6143   20.9880  -33.0646 H   0  0  0  0  0  0  0  0  0  0  0  0
   -8.8450   21.5740  -30.8470 S   0  0  0  0  0  0  0  0  0  0  0  0
   -8.5230   23.0020  -31.9380 C   0  0  0  0  0  0  0  0  0  0  0  0
   -9.1025   23.8687  -31.5872 H   0  0  0  0  0  0  0  0  0  0  0  0
   -8.8221   22.7508  -32.9663 H   0  0  0  0  0  0  0  0  0  0  0  0
   -7.0590   23.3360  -31.9120 C   0  0  0  0  0  0  0  0  0  0  0  0
   -6.5360   23.7990  -32.9600 O   0  0  0  0  0  0  0  0  0  0  0  0
   -6.2260   23.1760  -30.7500 N   0  0  0  0  0  0  0  0  0  0  0  0
   -5.1580   23.8390  -30.4130 C   0  0  0  0  0  0  0  0  0  0  0  0
   -4.5980   24.8320  -31.1300 N   0  0  0  0  0  0  0  0  0  0  0  0
   -3.5500   25.2230  -30.4640 O   0  0  0  0  0  0  0  0  0  0  0  0
   -3.4120   24.5310  -29.3560 C   0  0  0  0  0  0  0  0  0  0  0  0
   -2.3020   24.7150  -28.3770 C   0  0  0  0  0  0  0  0  0  0  0  0
   -2.7007   24.6489  -27.3539 H   0  0  0  0  0  0  0  0  0  0  0  0
   -1.5464   23.9298  -28.5275 H   0  0  0  0  0  0  0  0  0  0  0  0
   -1.8402   25.7020  -28.5275 H   0  0  0  0  0  0  0  0  0  0  0  0
   -4.4320   23.6060  -29.2680 C   0  0  0  0  0  0  0  0  0  0  0  0
   -4.6187   22.8647  -28.4770 H   0  0  0  0  0  0  0  0  0  0  0  0
   -7.1540   20.0330  -33.4440 C   0  0  0  0  0  0  0  0  0  0  0  0
   -7.2396   21.0526  -33.8479 H   0  0  0  0  0  0  0  0  0  0  0  0
   -6.0790   19.2230  -33.8210 C   0  0  0  0  0  0  0  0  0  0  0  0
   -5.3218   19.6059  -34.5210 H   0  0  0  0  0  0  0  0  0  0  0  0
  1  2  1  0
  2  3  2  0
  3  4  1  0
  3  5  1  0
  5  6  1  0
  5  7  2  0
  7  8  1  0
  8  9  1  0
  8 10  1  0
  8 11  1  0
 11 12  1  0
 12 13  1  0
 12 14  1  0
 12 15  1  0
 15 16  2  0
 15 17  1  0
 17 18  2  0
 18 19  1  0
 19 20  1  0
 20 21  1  0
 21 22  1  0
 22 23  1  0
 22 24  1  0
 22 25  1  0
 21 26  2  0
 26 27  1  0
  7 28  1  0
 28 29  1  0
 28 30  2  0
 30 31  1  0
 30  2  1  0
 26 18  1  0
M  CHG  1  19  -1
M  END
>  <UniqueID>  (11) 
11

>  <SMILES>  (11) 
Cc1c/c(=N/C(=O)CSCc2ccccc2)[n-]o1

>  <Energy>  (11) 
58.339911647395425

>  <Genealogy>  (11) 
Cc1cc(=NC(=O)CSCc2ccccc2)[n-]o1 (protonated)
Cc1c/c(=N/C(=O)CSCc2ccccc2)[n-]o1 (cis-trans isomerization)
Cc1c/c(=N/C(=O)CSCc2ccccc2)[n-]o1 (3D coordinates assigned)
Cc1c/c(=N/C(=O)CSCc2ccccc2)[n-]o1 (optimized conformer: 58.339911647395425 kcal/mol)

>  <smiles>  (11) 
Cc1cc(=NC(=O)CSCc2ccccc2)[nH]o1

>  <score_type>  (11) 
oracle

>  <origin>  (11) 
adgpu

>  <m_score__min__energy>  (11) 
-9.4000000000000004

>  <m_primary>  (11) 
energy

$$$$
11:0
     RDKit          3D

 55 58  0  0  0  0  0  0  0  0999 V2000
   -2.1410   20.7500  -31.2510 O   0  0  0  0  0  0  0  0  0  0  0  0
   -1.5010   21.7670  -30.3540 S   0  0  0  0  0  0  0  0  0  0  0  0
   -0.0730   21.9480  -30.7840 O   0  0  0  0  0  0  0  0  0  0  0  0
   -2.3420   23.2710  -30.5410 N   0  0  0  0  0  0  0  0  0  0  0  0
   -3.7560   23.2740  -30.7620 C   0  0  0  0  0  0  0  0  0  0  0  0
   -4.4170   22.0660  -31.0140 C   0  0  0  0  0  0  0  0  0  0  0  0
   -5.7880   22.0460  -31.3060 C   0  0  0  0  0  0  0  0  0  0  0  0
   -6.5220   23.2550  -31.2820 C   0  0  0  0  0  0  0  0  0  0  0  0
   -5.8580   24.4580  -31.0030 C   0  0  0  0  0  0  0  0  0  0  0  0
   -4.4860   24.4720  -30.7410 C   0  0  0  0  0  0  0  0  0  0  0  0
   -3.8610   25.6770  -30.4460 O   0  0  0  0  0  0  0  0  0  0  0  0
   -7.9840   23.3000  -31.6610 C   0  0  0  0  0  0  0  0  0  0  0  0
   -8.6630   21.9320  -31.5510 C   0  0  0  0  0  0  0  0  0  0  0  0
   -7.8200   20.8610  -32.2420 C   0  0  0  0  0  0  0  0  0  0  0  0
   -6.4640   20.7160  -31.5440 C   0  0  0  0  0  0  0  0  0  0  0  0
   -1.5160   21.3280  -28.6310 C   0  0  0  0  0  0  0  0  0  0  0  0
   -2.1000   20.0880  -28.3200 C   0  0  0  0  0  0  0  0  0  0  0  0
   -2.1390   19.6190  -27.0080 C   0  0  0  0  0  0  0  0  0  0  0  0
   -1.6020   20.3870  -25.9790 C   0  0  0  0  0  0  0  0  0  0  0  0
   -1.0320   21.6270  -26.2590 C   0  0  0  0  0  0  0  0  0  0  0  0
   -0.9850   22.1230  -27.5760 C   0  0  0  0  0  0  0  0  0  0  0  0
   -0.2360   23.7090  -27.8280 S   0  0  0  0  0  0  0  0  0  0  0  0
    1.1500   23.7000  -27.2440 O   0  0  0  0  0  0  0  0  0  0  0  0
   -0.1170   23.9940  -29.3000 O   0  0  0  0  0  0  0  0  0  0  0  0
   -1.2060   24.9550  -27.0800 N   0  0  0  0  0  0  0  0  0  0  0  0
   -0.5410   26.2690  -27.2310 C   0  0  0  0  0  0  0  0  0  0  0  0
   -1.0900   27.2920  -26.2320 C   0  0  0  0  0  0  0  0  0  0  0  0
   -0.8110   26.8500  -24.7850 C   0  0  0  0  0  0  0  0  0  0  0  0
   -0.6890   25.3230  -24.6420 C   0  0  0  0  0  0  0  0  0  0  0  0
   -1.5550   24.5960  -25.6820 C   0  0  0  0  0  0  0  0  0  0  0  0
   -1.9100   24.1120  -30.0960 H   0  0  0  0  0  0  0  0  0  0  0  0
   -3.8541   21.1215  -30.9825 H   0  0  0  0  0  0  0  0  0  0  0  0
   -6.4238   25.4013  -30.9903 H   0  0  0  0  0  0  0  0  0  0  0  0
   -8.4999   24.0043  -30.9918 H   0  0  0  0  0  0  0  0  0  0  0  0
   -8.0462   23.6194  -32.7118 H   0  0  0  0  0  0  0  0  0  0  0  0
   -8.7814   21.6706  -30.4891 H   0  0  0  0  0  0  0  0  0  0  0  0
   -9.6469   21.9820  -32.0403 H   0  0  0  0  0  0  0  0  0  0  0  0
   -8.3526   19.8993  -32.2027 H   0  0  0  0  0  0  0  0  0  0  0  0
   -7.6530   21.1581  -33.2879 H   0  0  0  0  0  0  0  0  0  0  0  0
   -6.6182   20.2206  -30.5741 H   0  0  0  0  0  0  0  0  0  0  0  0
   -5.8118   20.1239  -32.2028 H   0  0  0  0  0  0  0  0  0  0  0  0
   -2.5336   19.4773  -29.1256 H   0  0  0  0  0  0  0  0  0  0  0  0
   -2.5940   18.6424  -26.7860 H   0  0  0  0  0  0  0  0  0  0  0  0
   -1.6276   20.0148  -24.9442 H   0  0  0  0  0  0  0  0  0  0  0  0
   -0.6122   22.2278  -25.4387 H   0  0  0  0  0  0  0  0  0  0  0  0
    0.5385   26.1454  -27.0597 H   0  0  0  0  0  0  0  0  0  0  0  0
   -0.7352   26.6401  -28.2481 H   0  0  0  0  0  0  0  0  0  0  0  0
   -0.6082   28.2645  -26.4108 H   0  0  0  0  0  0  0  0  0  0  0  0
   -2.1782   27.3711  -26.3719 H   0  0  0  0  0  0  0  0  0  0  0  0
    0.1307   27.3107  -24.4520 H   0  0  0  0  0  0  0  0  0  0  0  0
   -1.6631   27.1737  -24.1693 H   0  0  0  0  0  0  0  0  0  0  0  0
    0.3623   25.0323  -24.7843 H   0  0  0  0  0  0  0  0  0  0  0  0
   -1.0380   25.0384  -23.6384 H   0  0  0  0  0  0  0  0  0  0  0  0
   -1.4201   23.5118  -25.5543 H   0  0  0  0  0  0  0  0  0  0  0  0
   -2.5980   24.9024  -25.5140 H   0  0  0  0  0  0  0  0  0  0  0  0
  1  2  2  0
  2  3  2  0
  2  4  1  0
  4  5  1  0
  5  6  2  0
  6  7  1  0
  7  8  2  0
  8  9  1  0
  9 10  2  0
 10 11  1  0
  8 12  1  0
 12 13  1  0
 13 14  1  0
 14 15  1  0
  2 16  1  0
 16 17  2  0
 17 18  1  0
 18 19  2  0
 19 20  1  0
 20 21  2  0
 21 22  1  0
 22 23  2  0
 22 24  2  0
 22 25  1  0
 25 26  1  0
 26 27  1  0
 27 28  1  0
 28 29  1  0
 29 30  1  0
 10  5  1  0
 21 16  1  0
 30 25  1  0
 15  7  1  0
  4 31  1  0
  6 32  1  0
  9 33  1  0
 12 34  1  0
 12 35  1  0
 13 36  1  0
 13 37  1  0
 14 38  1  0
 14 39  1  0
 15 40  1  0
 15 41  1  0
 17 42  1  0
 18 43  1  0
 19 44  1  0
 20 45  1  0
 26 46  1  0
 26 47  1  0
 27 48  1  0
 27 49  1  0
 28 50  1  0
 28 51  1  0
 29 52  1  0
 29 53  1  0
 30 54  1  0
 30 55  1  0
M  CHG  1  11  -1
M  END
>  <UniqueID>  (12) 
12

>  <SMILES>  (12) 
O=S(=O)(Nc1cc2c(cc1[O-])CCCC2)c1ccccc1S(=O)(=O)N1CCCCC1

>  <Energy>  (12) 
70.5047101548729

>  <Genealogy>  (12) 
O=S(=O)(Nc1cc2c(cc1[O-])CCCC2)c1ccccc1S(=O)(=O)N1CCCCC1 (protonated)
O=S(=O)(Nc1cc2c(cc1[O-])CCCC2)c1ccccc1S(=O)(=O)N1CCCCC1 (3D coordinates assigned)
O=S(=O)(Nc1cc2c(cc1[O-])CCCC2)c1ccccc1S(=O)(=O)N1CCCCC1 (nonaromatic ring conformer: 70.5047101548729 kcal/mol)

>  <smiles>  (12) 
O=S(=O)(Nc1cc2c(cc1O)CCCC2)c1ccccc1S(=O)(=O)N1CCCCC1

>  <score_type>  (12) 
oracle

>  <origin>  (12) 
adgpu

>  <m_score__min__energy>  (12) 
-14.35

>  <m_primary>  (12) 
energy

$$$$
12:0
     RDKit          3D

 49 51  0  0  0  0  0  0  0  0999 V2000
   -9.2740   22.4670  -31.8520 C   0  0  0  0  0  0  0  0  0  0  0  0
   -7.7780   22.4900  -31.6790 C   0  0  0  0  0  0  0  0  0  0  0  0
   -7.1930   23.5350  -30.9430 C   0  0  0  0  0  0  0  0  0  0  0  0
   -5.8060   23.6050  -30.7770 C   0  0  0  0  0  0  0  0  0  0  0  0
   -5.0820   24.9350  -29.8780 S   0  0  0  0  0  0  0  0  0  0  0  0
   -3.5180   25.2840  -30.5240 N   0  0  0  0  0  0  0  0  0  0  0  0
   -4.9550   24.5570  -28.4280 O   0  0  0  0  0  0  0  0  0  0  0  0
   -5.9490   26.1580  -29.9830 O   0  0  0  0  0  0  0  0  0  0  0  0
   -4.9910   22.6270  -31.3520 C   0  0  0  0  0  0  0  0  0  0  0  0
   -5.5560   21.5750  -32.0730 C   0  0  0  0  0  0  0  0  0  0  0  0
   -6.9480   21.4870  -32.2430 C   0  0  0  0  0  0  0  0  0  0  0  0
   -7.5020   20.3410  -33.0060 C   0  0  0  0  0  0  0  0  0  0  0  0
   -8.5650   19.7900  -32.6140 O   0  0  0  0  0  0  0  0  0  0  0  0
   -6.8140   19.7830  -34.1330 N   0  0  0  0  0  0  0  0  0  0  0  0
   -6.1070   18.5340  -34.1590 C   0  0  0  0  0  0  0  0  0  0  0  0
   -6.7200   17.3300  -33.7740 C   0  0  0  0  0  0  0  0  0  0  0  0
   -5.9980   16.1330  -33.8000 C   0  0  0  0  0  0  0  0  0  0  0  0
   -4.6520   16.1240  -34.1800 C   0  0  0  0  0  0  0  0  0  0  0  0
   -3.9670   14.9010  -34.2080 O   0  0  0  0  0  0  0  0  0  0  0  0
   -3.5690   14.1650  -33.0830 C   0  0  0  0  0  0  0  0  0  0  0  0
   -2.2160   13.9740  -32.7640 C   0  0  0  0  0  0  0  0  0  0  0  0
   -1.8820   13.2370  -31.6130 C   0  0  0  0  0  0  0  0  0  0  0  0
   -0.5070   12.9910  -31.2340 N   0  0  0  0  0  0  0  0  0  0  0  0
    0.5520   13.9660  -31.5290 C   0  0  0  0  0  0  0  0  0  0  0  0
   -0.1690   11.7360  -30.5540 C   0  0  0  0  0  0  0  0  0  0  0  0
   -2.8900   12.7510  -30.8350 N   0  0  0  0  0  0  0  0  0  0  0  0
   -4.1950   12.9610  -31.1460 C   0  0  0  0  0  0  0  0  0  0  0  0
   -4.5240   13.6660  -32.2570 N   0  0  0  0  0  0  0  0  0  0  0  0
   -4.0380   17.3310  -34.5630 C   0  0  0  0  0  0  0  0  0  0  0  0
   -4.7600   18.5280  -34.5370 C   0  0  0  0  0  0  0  0  0  0  0  0
   -9.7573   22.4596  -30.8639 H   0  0  0  0  0  0  0  0  0  0  0  0
   -9.5925   23.3604  -32.4092 H   0  0  0  0  0  0  0  0  0  0  0  0
   -9.5648   21.5643  -32.4092 H   0  0  0  0  0  0  0  0  0  0  0  0
   -7.8338   24.3071  -30.4921 H   0  0  0  0  0  0  0  0  0  0  0  0
   -3.6420   26.0510  -31.2230 H   0  0  0  0  0  0  0  0  0  0  0  0
   -3.8988   22.6867  -31.2357 H   0  0  0  0  0  0  0  0  0  0  0  0
   -4.9046   20.8058  -32.5134 H   0  0  0  0  0  0  0  0  0  0  0  0
   -7.7715   17.3290  -33.4510 H   0  0  0  0  0  0  0  0  0  0  0  0
   -6.4923   15.1912  -33.5195 H   0  0  0  0  0  0  0  0  0  0  0  0
   -1.4273   14.3947  -33.4050 H   0  0  0  0  0  0  0  0  0  0  0  0
    0.9694   14.3503  -30.5866 H   0  0  0  0  0  0  0  0  0  0  0  0
    1.3480   13.4780  -32.1106 H   0  0  0  0  0  0  0  0  0  0  0  0
    0.1313   14.7995  -32.1106 H   0  0  0  0  0  0  0  0  0  0  0  0
   -0.2095   11.8865  -29.4651 H   0  0  0  0  0  0  0  0  0  0  0  0
   -0.8892   10.9566  -30.8435 H   0  0  0  0  0  0  0  0  0  0  0  0
    0.8452   11.4237  -30.8435 H   0  0  0  0  0  0  0  0  0  0  0  0
   -4.9862   12.5589  -30.4962 H   0  0  0  0  0  0  0  0  0  0  0  0
   -2.9859   17.3327  -34.8841 H   0  0  0  0  0  0  0  0  0  0  0  0
   -4.2660   19.4706  -34.8154 H   0  0  0  0  0  0  0  0  0  0  0  0
  1  2  1  0
  2  3  2  0
  3  4  1  0
  4  5  1  0
  5  6  1  0
  5  7  2  0
  5  8  2  0
  4  9  2  0
  9 10  1  0
 10 11  2  0
 11 12  1  0
 12 13  2  0
 12 14  1  0
 14 15  1  0
 15 16  2  0
 16 17  1  0
 17 18  2  0
 18 19  1  0
 19 20  1  0
 20 21  2  0
 21 22  1  0
 22 23  1  0
 23 24  1  0
 23 25  1  0
 22 26  2  0
 26 27  1  0
 27 28  2  0
 18 29  1  0
 29 30  2  0
 11  2  1  0
 30 15  1  0
 28 20  1  0
  1 31  1  0
  1 32  1  0
  1 33  1  0
  3 34  1  0
  6 35  1  0
  9 36  1  0
 10 37  1  0
 16 38  1  0
 17 39  1  0
 21 40  1  0
 24 41  1  0
 24 42  1  0
 24 43  1  0
 25 44  1  0
 25 45  1  0
 25 46  1  0
 27 47  1  0
 29 48  1  0
 30 49  1  0
M  CHG  2   6  -1  14  -1
M  END
>  <UniqueID>  (13) 
13

>  <SMILES>  (13) 
Cc1cc(S([NH-])(=O)=O)ccc1C(=O)[N-]c1ccc(Oc2cc(N(C)C)ncn2)cc1

>  <Energy>  (13) 
66.29592226289058

>  <Genealogy>  (13) 
Cc1cc(S([NH-])(=O)=O)ccc1C(=O)[N-]c1ccc(Oc2cc(N(C)C)ncn2)cc1 (protonated)
Cc1cc(S([NH-])(=O)=O)ccc1C(=O)[N-]c1ccc(Oc2cc(N(C)C)ncn2)cc1 (3D coordinates assigned)
Cc1cc(S([NH-])(=O)=O)ccc1C(=O)[N-]c1ccc(Oc2cc(N(C)C)ncn2)cc1 (optimized conformer: 66.29592226289058 kcal/mol)

>  <smiles>  (13) 
Cc1cc(S(N)(=O)=O)ccc1C(=O)Nc1ccc(Oc2cc(N(C)C)ncn2)cc1

>  <score_type>  (13) 
oracle

>  <origin>  (13) 
adgpu

>  <m_score__min__energy>  (13) 
-11.140000000000001

>  <m_primary>  (13) 
energy

$$$$
13:0
     RDKit          3D

 42 43  0  0  0  0  0  0  0  0999 V2000
   -6.5450   16.6100  -33.4120 C   0  0  0  0  0  0  0  0  0  0  0  0
   -6.7710   17.8460  -32.6050 C   0  0  0  0  0  0  0  0  0  0  0  0
   -6.2090   17.9630  -31.4830 O   0  0  0  0  0  0  0  0  0  0  0  0
   -7.6960   18.8420  -33.0680 N   0  0  0  0  0  0  0  0  0  0  0  0
   -7.8510   20.1390  -32.4630 C   0  0  0  0  0  0  0  0  0  0  0  0
   -8.9960   20.4080  -31.6990 C   0  0  0  0  0  0  0  0  0  0  0  0
   -9.1770   21.6660  -31.1190 C   0  0  0  0  0  0  0  0  0  0  0  0
   -8.2210   22.6680  -31.3020 C   0  0  0  0  0  0  0  0  0  0  0  0
   -7.0780   22.4150  -32.0690 C   0  0  0  0  0  0  0  0  0  0  0  0
   -5.8520   23.7060  -32.3120 S   0  0  0  0  0  0  0  0  0  0  0  0
   -4.7880   23.1120  -30.9790 C   0  0  0  0  0  0  0  0  0  0  0  0
   -3.8650   22.0720  -31.2180 C   0  0  0  0  0  0  0  0  0  0  0  0
   -3.6570   21.3700  -32.8180 Cl  0  0  0  0  0  0  0  0  0  0  0  0
   -3.0680   21.5880  -30.1760 C   0  0  0  0  0  0  0  0  0  0  0  0
   -3.1590   22.1400  -28.8920 C   0  0  0  0  0  0  0  0  0  0  0  0
   -2.3130   21.5880  -27.7750 C   0  0  0  0  0  0  0  0  0  0  0  0
   -2.1960   20.1190  -27.8880 N   0  0  0  0  0  0  0  0  0  0  0  0
   -3.0890   19.4460  -26.9290 C   0  0  0  0  0  0  0  0  0  0  0  0
   -0.8060   19.7060  -27.6390 C   0  0  0  0  0  0  0  0  0  0  0  0
   -4.0520   23.1940  -28.6580 C   0  0  0  0  0  0  0  0  0  0  0  0
   -4.8570   23.6880  -29.6930 C   0  0  0  0  0  0  0  0  0  0  0  0
   -5.7330   24.8000  -29.4150 C   0  0  0  0  0  0  0  0  0  0  0  0
   -6.4330   25.6930  -29.1900 N   0  0  0  0  0  0  0  0  0  0  0  0
   -6.9060   21.1600  -32.6670 C   0  0  0  0  0  0  0  0  0  0  0  0
   -6.3887   15.7552  -32.7375 H   0  0  0  0  0  0  0  0  0  0  0  0
   -7.4234   16.4206  -34.0465 H   0  0  0  0  0  0  0  0  0  0  0  0
   -5.6564   16.7437  -34.0465 H   0  0  0  0  0  0  0  0  0  0  0  0
   -8.3530   18.5760  -33.8360 H   0  0  0  0  0  0  0  0  0  0  0  0
   -9.7550   19.6248  -31.5558 H   0  0  0  0  0  0  0  0  0  0  0  0
  -10.0749   21.8681  -30.5165 H   0  0  0  0  0  0  0  0  0  0  0  0
   -8.3667   23.6569  -30.8428 H   0  0  0  0  0  0  0  0  0  0  0  0
   -2.3627   20.7657  -30.3666 H   0  0  0  0  0  0  0  0  0  0  0  0
   -1.3095   22.0356  -27.8265 H   0  0  0  0  0  0  0  0  0  0  0  0
   -2.7901   21.8328  -26.8146 H   0  0  0  0  0  0  0  0  0  0  0  0
   -2.7721   19.6848  -25.9031 H   0  0  0  0  0  0  0  0  0  0  0  0
   -4.1214   19.7926  -27.0839 H   0  0  0  0  0  0  0  0  0  0  0  0
   -3.0403   18.3581  -27.0839 H   0  0  0  0  0  0  0  0  0  0  0  0
   -0.6278   19.6531  -26.5548 H   0  0  0  0  0  0  0  0  0  0  0  0
   -0.6313   18.7171  -28.0880 H   0  0  0  0  0  0  0  0  0  0  0  0
   -0.1197   20.4390  -28.0880 H   0  0  0  0  0  0  0  0  0  0  0  0
   -4.1217   23.6372  -27.6537 H   0  0  0  0  0  0  0  0  0  0  0  0
   -6.0263   20.9721  -33.3001 H   0  0  0  0  0  0  0  0  0  0  0  0
  1  2  1  0
  2  3  2  0
  2  4  1  0
  4  5  1  0
  5  6  2  0
  6  7  1  0
  7  8  2  0
  8  9  1  0
  9 10  1  0
 10 11  1  0
 11 12  2  0
 12 13  1  0
 12 14  1  0
 14 15  2  0
 15 16  1  0
 16 17  1  0
 17 18  1  0
 17 19  1  0
 15 20  1  0
 20 21  2  0
 21 22  1  0
 22 23  3  0
  9 24  2  0
 24  5  1  0
 21 11  1  0
  1 25  1  0
  1 26  1  0
  1 27  1  0
  4 28  1  0
  6 29  1  0
  7 30  1  0
  8 31  1  0
 14 32  1  0
 16 33  1  0
 16 34  1  0
 18 35  1  0
 18 36  1  0
 18 37  1  0
 19 38  1  0
 19 39  1  0
 19 40  1  0
 20 41  1  0
 24 42  1  0
M  END
>  <UniqueID>  (14) 
14

>  <SMILES>  (14) 
CC(=O)Nc1cccc(Sc2c(Cl)cc(CN(C)C)cc2C#N)c1

>  <Energy>  (14) 
39.50423773747838

>  <Genealogy>  (14) 
CC(=O)Nc1cccc(Sc2c(Cl)cc(CN(C)C)cc2C#N)c1 (3D coordinates assigned)
CC(=O)Nc1cccc(Sc2c(Cl)cc(CN(C)C)cc2C#N)c1 (optimized conformer: 39.50423773747838 kcal/mol)

>  <smiles>  (14) 
CC(=O)Nc1cccc(Sc2c(Cl)cc(CN(C)C)cc2C#N)c1

>  <score_type>  (14) 
oracle

>  <origin>  (14) 
adgpu

>  <m_score__min__energy>  (14) 
-8.6799999999999997

>  <m_primary>  (14) 
energy

$$$$
14:0
     RDKit          3D

 33 34  0  0  0  0  0  0  0  0999 V2000
   -6.1100   25.6510  -29.8260 C   0  0  0  0  0  0  0  0  0  0  0  0
   -5.1290   24.8950  -31.1570 S   0  0  0  0  0  0  0  0  0  0  0  0
   -6.0690   23.3580  -31.1690 C   0  0  0  0  0  0  0  0  0  0  0  0
   -7.2370   23.2940  -30.3970 C   0  0  0  0  0  0  0  0  0  0  0  0
   -8.0220   22.1410  -30.3980 C   0  0  0  0  0  0  0  0  0  0  0  0
   -7.6630   21.0520  -31.1910 C   0  0  0  0  0  0  0  0  0  0  0  0
   -6.5100   21.1090  -31.9770 C   0  0  0  0  0  0  0  0  0  0  0  0
   -5.6800   22.2490  -31.9560 C   0  0  0  0  0  0  0  0  0  0  0  0
   -4.4960   22.3110  -32.7800 N   0  0  0  0  0  0  0  0  0  0  0  0
   -3.2770   21.5950  -32.5110 C   0  0  0  0  0  0  0  0  0  0  0  0
   -2.3900   21.0330  -33.7660 S   0  0  0  0  0  0  0  0  0  0  0  0
   -2.8210   21.3500  -31.1710 N   0  0  0  0  0  0  0  0  0  0  0  0
   -3.0550   22.2470  -30.0740 C   0  0  0  0  0  0  0  0  0  0  0  0
   -3.9630   21.9210  -29.0530 C   0  0  0  0  0  0  0  0  0  0  0  0
   -4.1740   22.8040  -27.9910 C   0  0  0  0  0  0  0  0  0  0  0  0
   -3.4900   24.0210  -27.9440 C   0  0  0  0  0  0  0  0  0  0  0  0
   -2.6000   24.3660  -28.9670 C   0  0  0  0  0  0  0  0  0  0  0  0
   -1.9290   25.5850  -28.9130 O   0  0  0  0  0  0  0  0  0  0  0  0
   -2.3910   23.4810  -30.0350 C   0  0  0  0  0  0  0  0  0  0  0  0
   -5.7065   25.3400  -28.8511 H   0  0  0  0  0  0  0  0  0  0  0  0
   -6.0603   26.7466  -29.9108 H   0  0  0  0  0  0  0  0  0  0  0  0
   -7.1568   25.3238  -29.9108 H   0  0  0  0  0  0  0  0  0  0  0  0
   -7.5366   24.1585  -29.7864 H   0  0  0  0  0  0  0  0  0  0  0  0
   -8.9254   22.0909  -29.7724 H   0  0  0  0  0  0  0  0  0  0  0  0
   -8.2884   20.1471  -31.1976 H   0  0  0  0  0  0  0  0  0  0  0  0
   -6.2465   20.2557  -32.6192 H   0  0  0  0  0  0  0  0  0  0  0  0
   -4.5500   22.8200  -33.6900 H   0  0  0  0  0  0  0  0  0  0  0  0
   -2.2900   20.4700  -30.9850 H   0  0  0  0  0  0  0  0  0  0  0  0
   -4.5098   20.9672  -29.0897 H   0  0  0  0  0  0  0  0  0  0  0  0
   -4.8804   22.5402  -27.1901 H   0  0  0  0  0  0  0  0  0  0  0  0
   -3.6513   24.7093  -27.1013 H   0  0  0  0  0  0  0  0  0  0  0  0
   -1.6130   26.0540  -29.7540 H   0  0  0  0  0  0  0  0  0  0  0  0
   -1.7019   23.7569  -30.8468 H   0  0  0  0  0  0  0  0  0  0  0  0
  1  2  1  0
  2  3  1  0
  3  4  2  0
  4  5  1  0
  5  6  2  0
  6  7  1  0
  7  8  2  0
  8  9  1  0
  9 10  1  0
 10 11  2  0
 10 12  1  0
 12 13  1  0
 13 14  2  0
 14 15  1  0
 15 16  2  0
 16 17  1  0
 17 18  1  0
 17 19  2  0
  8  3  1  0
 19 13  1  0
  1 20  1  0
  1 21  1  0
  1 22  1  0
  4 23  1  0
  5 24  1  0
  6 25  1  0
  7 26  1  0
  9 27  1  0
 12 28  1  0
 14 29  1  0
 15 30  1  0
 16 31  1  0
 18 32  1  0
 19 33  1  0
M  END
>  <UniqueID>  (15) 
15

>  <SMILES>  (15) 
CSc1ccccc1NC(=S)Nc1cccc(O)c1

>  <Energy>  (15) 
36.18470526087357

>  <Genealogy>  (15) 
CSc1ccccc1NC(=S)Nc1cccc(O)c1 (3D coordinates assigned)
CSc1ccccc1NC(=S)Nc1cccc(O)c1 (optimized conformer: 36.18470526087357 kcal/mol)

>  <smiles>  (15) 
CSc1ccccc1NC(=S)Nc1cccc(O)c1

>  <score_type>  (15) 
oracle

>  <origin>  (15) 
adgpu

>  <m_score__min__energy>  (15) 
-8.4600000000000009

>  <m_primary>  (15) 
energy

$$$$
15:0
     RDKit          3D

 57 60  0  0  0  0  0  0  0  0999 V2000
   -1.6700   25.6040  -28.0870 C   0  0  0  0  0  0  0  0  0  0  0  0
   -1.7330   24.1670  -28.5070 C   0  0  0  0  0  0  0  0  0  0  0  0
   -2.4190   23.6690  -29.5990 C   0  0  0  0  0  0  0  0  0  0  0  0
   -3.2700   24.3960  -30.4820 N   0  0  0  0  0  0  0  0  0  0  0  0
   -4.9050   24.7330  -30.0330 S   0  0  0  0  0  0  0  0  0  0  0  0
   -5.3510   26.0010  -30.7070 O   0  0  0  0  0  0  0  0  0  0  0  0
   -4.9940   24.9230  -28.5440 O   0  0  0  0  0  0  0  0  0  0  0  0
   -5.9390   23.4000  -30.5360 C   0  0  0  0  0  0  0  0  0  0  0  0
   -5.3770   22.1500  -30.8280 C   0  0  0  0  0  0  0  0  0  0  0  0
   -6.1870   21.1010  -31.2720 C   0  0  0  0  0  0  0  0  0  0  0  0
   -7.5680   21.2910  -31.4220 C   0  0  0  0  0  0  0  0  0  0  0  0
   -8.6030   19.9870  -32.0000 S   0  0  0  0  0  0  0  0  0  0  0  0
   -9.0950   19.1660  -30.8390 O   0  0  0  0  0  0  0  0  0  0  0  0
   -9.7880   20.5890  -32.7020 O   0  0  0  0  0  0  0  0  0  0  0  0
   -7.7150   18.9680  -33.1090 N   0  0  0  0  0  0  0  0  0  0  0  0
   -7.1180   17.8050  -32.4040 C   0  0  0  0  0  0  0  0  0  0  0  0
   -5.6040   17.9780  -32.1830 C   0  0  0  0  0  0  0  0  0  0  0  0
   -4.8780   18.1540  -33.3910 O   0  0  0  0  0  0  0  0  0  0  0  0
   -5.5890   18.8770  -34.3890 C   0  0  0  0  0  0  0  0  0  0  0  0
   -6.7080   19.7740  -33.8340 C   0  0  0  0  0  0  0  0  0  0  0  0
   -8.1280   22.5420  -31.1350 C   0  0  0  0  0  0  0  0  0  0  0  0
   -7.3180   23.5930  -30.6970 C   0  0  0  0  0  0  0  0  0  0  0  0
   -2.3070   22.3030  -29.5050 C   0  0  0  0  0  0  0  0  0  0  0  0
   -2.8280   21.4630  -30.2890 O   0  0  0  0  0  0  0  0  0  0  0  0
   -1.5670   21.9880  -28.4230 N   0  0  0  0  0  0  0  0  0  0  0  0
   -1.2480   20.6590  -27.9790 C   0  0  0  0  0  0  0  0  0  0  0  0
   -0.0280   20.0700  -28.3410 C   0  0  0  0  0  0  0  0  0  0  0  0
    0.2840   18.7760  -27.9090 C   0  0  0  0  0  0  0  0  0  0  0  0
   -0.6150   18.0700  -27.1070 C   0  0  0  0  0  0  0  0  0  0  0  0
   -1.8300   18.6540  -26.7370 C   0  0  0  0  0  0  0  0  0  0  0  0
   -2.1470   19.9460  -27.1710 C   0  0  0  0  0  0  0  0  0  0  0  0
   -1.2340   23.1200  -27.8020 N   0  0  0  0  0  0  0  0  0  0  0  0
   -0.4790   23.2070  -26.5500 C   0  0  0  0  0  0  0  0  0  0  0  0
   -1.6673   25.6652  -26.9887 H   0  0  0  0  0  0  0  0  0  0  0  0
   -0.7509   26.0615  -28.4820 H   0  0  0  0  0  0  0  0  0  0  0  0
   -2.5455   26.1402  -28.4820 H   0  0  0  0  0  0  0  0  0  0  0  0
   -4.2948   21.9938  -30.7074 H   0  0  0  0  0  0  0  0  0  0  0  0
   -5.7396   20.1234  -31.5045 H   0  0  0  0  0  0  0  0  0  0  0  0
   -8.4070   18.6070  -33.8080 H   0  0  0  0  0  0  0  0  0  0  0  0
   -7.6089   17.6926  -31.4260 H   0  0  0  0  0  0  0  0  0  0  0  0
   -7.2697   16.9139  -33.0308 H   0  0  0  0  0  0  0  0  0  0  0  0
   -5.4423   18.8604  -31.5464 H   0  0  0  0  0  0  0  0  0  0  0  0
   -5.2352   17.0549  -31.7119 H   0  0  0  0  0  0  0  0  0  0  0  0
   -4.8735   19.5124  -34.9315 H   0  0  0  0  0  0  0  0  0  0  0  0
   -6.0713   18.1319  -35.0387 H   0  0  0  0  0  0  0  0  0  0  0  0
   -6.2710   20.5110  -33.1441 H   0  0  0  0  0  0  0  0  0  0  0  0
   -7.2020   20.2832  -34.6746 H   0  0  0  0  0  0  0  0  0  0  0  0
   -9.2103   22.6980  -31.2549 H   0  0  0  0  0  0  0  0  0  0  0  0
   -7.7637   24.5745  -30.4780 H   0  0  0  0  0  0  0  0  0  0  0  0
    0.6857   20.6266  -28.9662 H   0  0  0  0  0  0  0  0  0  0  0  0
    1.2387   18.3144  -28.2016 H   0  0  0  0  0  0  0  0  0  0  0  0
   -0.3670   17.0539  -26.7662 H   0  0  0  0  0  0  0  0  0  0  0  0
   -2.5372   18.0976  -26.1044 H   0  0  0  0  0  0  0  0  0  0  0  0
   -3.1033   20.4039  -26.8781 H   0  0  0  0  0  0  0  0  0  0  0  0
   -1.1707   23.1273  -25.6984 H   0  0  0  0  0  0  0  0  0  0  0  0
    0.2532   22.3873  -26.5056 H   0  0  0  0  0  0  0  0  0  0  0  0
    0.0476   24.1718  -26.5056 H   0  0  0  0  0  0  0  0  0  0  0  0
  1  2  1  0
  2  3  2  0
  3  4  1  0
  4  5  1  0
  5  6  2  0
  5  7  2  0
  5  8  1  0
  8  9  2  0
  9 10  1  0
 10 11  2  0
 11 12  1  0
 12 13  2  0
 12 14  2  0
 12 15  1  0
 15 16  1  0
 16 17  1  0
 17 18  1  0
 18 19  1  0
 19 20  1  0
 11 21  1  0
 21 22  2  0
  3 23  1  0
 23 24  2  0
 23 25  1  0
 25 26  1  0
 26 27  2  0
 27 28  1  0
 28 29  2  0
 29 30  1  0
 30 31  2  0
 25 32  1  0
 32 33  1  0
 32  2  1  0
 22  8  1  0
 31 26  1  0
 20 15  1  0
  1 34  1  0
  1 35  1  0
  1 36  1  0
  9 37  1  0
 10 38  1  0
 15 39  1  0
 16 40  1  0
 16 41  1  0
 17 42  1  0
 17 43  1  0
 19 44  1  0
 19 45  1  0
 20 46  1  0
 20 47  1  0
 21 48  1  0
 22 49  1  0
 27 50  1  0
 28 51  1  0
 29 52  1  0
 30 53  1  0
 31 54  1  0
 33 55  1  0
 33 56  1  0
 33 57  1  0
M  CHG  2   4  -1  15   1
M  END
>  <UniqueID>  (16) 
16

>  <SMILES>  (16) 
Cc1c([N-]S(=O)(=O)c2ccc(S(=O)(=O)[NH+]3CCOCC3)cc2)c(=O)n(-c2ccccc2)n1C

>  <Energy>  (16) 
118.68245936139236

>  <Genealogy>  (16) 
Cc1c([N-]S(=O)(=O)c2ccc(S(=O)(=O)[NH+]3CCOCC3)cc2)c(=O)n(-c2ccccc2)n1C (protonated)
Cc1c([N-]S(=O)(=O)c2ccc(S(=O)(=O)[NH+]3CCOCC3)cc2)c(=O)n(-c2ccccc2)n1C (3D coordinates assigned)
Cc1c([N-]S(=O)(=O)c2ccc(S(=O)(=O)[NH+]3CCOCC3)cc2)c(=O)n(-c2ccccc2)n1C (nonaromatic ring conformer: 118.68245936139236 kcal/mol)

>  <smiles>  (16) 
Cc1c(NS(=O)(=O)c2ccc(S(=O)(=O)N3CCOCC3)cc2)c(=O)n(-c2ccccc2)n1C

>  <score_type>  (16) 
oracle

>  <origin>  (16) 
adgpu

>  <m_score__min__energy>  (16) 
-11.44

>  <m_primary>  (16) 
energy

$$$$
16:0
     RDKit          3D

 41 42  0  0  0  0  0  0  0  0999 V2000
   -0.1050   18.0760  -27.5620 C   0  0  0  0  0  0  0  0  0  0  0  0
    0.4940   18.4770  -28.9060 C   0  0  0  0  0  0  0  0  0  0  0  0
   -0.5030   19.0520  -29.7520 O   0  0  0  0  0  0  0  0  0  0  0  0
   -1.0210   20.3540  -29.6370 C   0  0  0  0  0  0  0  0  0  0  0  0
   -0.7300   21.3760  -30.5610 C   0  0  0  0  0  0  0  0  0  0  0  0
   -1.2600   22.6570  -30.3830 C   0  0  0  0  0  0  0  0  0  0  0  0
   -2.0900   22.9330  -29.2900 C   0  0  0  0  0  0  0  0  0  0  0  0
   -2.7450   24.5560  -29.0840 S   0  0  0  0  0  0  0  0  0  0  0  0
   -1.6030   25.5250  -28.9720 O   0  0  0  0  0  0  0  0  0  0  0  0
   -3.5690   24.6340  -27.8280 O   0  0  0  0  0  0  0  0  0  0  0  0
   -3.7160   24.9800  -30.4660 N   0  0  0  0  0  0  0  0  0  0  0  0
   -5.1420   24.7710  -30.2070 C   0  0  0  0  0  0  0  0  0  0  0  0
   -5.6460   23.5260  -30.8890 C   0  0  0  0  0  0  0  0  0  0  0  0
   -7.0220   23.2570  -30.9550 C   0  0  0  0  0  0  0  0  0  0  0  0
   -7.4830   22.0920  -31.5750 C   0  0  0  0  0  0  0  0  0  0  0  0
   -6.5760   21.1890  -32.1440 C   0  0  0  0  0  0  0  0  0  0  0  0
   -7.1590   19.7300  -32.9380 S   0  0  0  0  0  0  0  0  0  0  0  0
   -8.8410   19.8930  -33.2970 N   0  0  0  0  0  0  0  0  0  0  0  0
   -6.9520   18.5460  -32.0350 O   0  0  0  0  0  0  0  0  0  0  0  0
   -6.3950   19.5020  -34.2120 O   0  0  0  0  0  0  0  0  0  0  0  0
   -5.2010   21.4490  -32.0690 C   0  0  0  0  0  0  0  0  0  0  0  0
   -4.7390   22.6130  -31.4490 C   0  0  0  0  0  0  0  0  0  0  0  0
   -2.3930   21.9150  -28.3770 C   0  0  0  0  0  0  0  0  0  0  0  0
   -1.8650   20.6330  -28.5550 C   0  0  0  0  0  0  0  0  0  0  0  0
    0.5105   18.4880  -26.7487 H   0  0  0  0  0  0  0  0  0  0  0  0
   -1.1284   18.4717  -27.4840 H   0  0  0  0  0  0  0  0  0  0  0  0
   -0.1291   16.9790  -27.4840 H   0  0  0  0  0  0  0  0  0  0  0  0
    1.2944   19.2130  -28.7394 H   0  0  0  0  0  0  0  0  0  0  0  0
    0.8975   17.5783  -29.3954 H   0  0  0  0  0  0  0  0  0  0  0  0
   -0.0835   21.1655  -31.4257 H   0  0  0  0  0  0  0  0  0  0  0  0
   -1.0238   23.4522  -31.1053 H   0  0  0  0  0  0  0  0  0  0  0  0
   -5.2986   24.6738  -29.1226 H   0  0  0  0  0  0  0  0  0  0  0  0
   -5.6969   25.6334  -30.6049 H   0  0  0  0  0  0  0  0  0  0  0  0
   -7.7404   23.9657  -30.5172 H   0  0  0  0  0  0  0  0  0  0  0  0
   -8.5623   21.8836  -31.6162 H   0  0  0  0  0  0  0  0  0  0  0  0
   -9.2100   18.9310  -33.4640 H   0  0  0  0  0  0  0  0  0  0  0  0
   -8.9060   20.4050  -34.2050 H   0  0  0  0  0  0  0  0  0  0  0  0
   -4.4835   20.7349  -32.4993 H   0  0  0  0  0  0  0  0  0  0  0  0
   -3.6588   22.8148  -31.3996 H   0  0  0  0  0  0  0  0  0  0  0  0
   -3.0477   22.1247  -27.5183 H   0  0  0  0  0  0  0  0  0  0  0  0
   -2.1147   19.8363  -27.8388 H   0  0  0  0  0  0  0  0  0  0  0  0
  1  2  1  0
  2  3  1  0
  3  4  1  0
  4  5  2  0
  5  6  1  0
  6  7  2  0
  7  8  1  0
  8  9  2  0
  8 10  2  0
  8 11  1  0
 11 12  1  0
 12 13  1  0
 13 14  2  0
 14 15  1  0
 15 16  2  0
 16 17  1  0
 17 18  1  0
 17 19  2  0
 17 20  2  0
 16 21  1  0
 21 22  2  0
  7 23  1  0
 23 24  2  0
 24  4  1  0
 22 13  1  0
  1 25  1  0
  1 26  1  0
  1 27  1  0
  2 28  1  0
  2 29  1  0
  5 30  1  0
  6 31  1  0
 12 32  1  0
 12 33  1  0
 14 34  1  0
 15 35  1  0
 18 36  1  0
 18 37  1  0
 21 38  1  0
 22 39  1  0
 23 40  1  0
 24 41  1  0
M  CHG  1  11  -1
M  END
>  <UniqueID>  (17) 
17

>  <SMILES>  (17) 
CCOc1ccc(S(=O)(=O)[N-]Cc2ccc(S(N)(=O)=O)cc2)cc1

>  <Energy>  (17) 
31.771587367591156

>  <Genealogy>  (17) 
CCOc1ccc(S(=O)(=O)[N-]Cc2ccc(S(N)(=O)=O)cc2)cc1 (protonated)
CCOc1ccc(S(=O)(=O)[N-]Cc2ccc(S(N)(=O)=O)cc2)cc1 (3D coordinates assigned)
CCOc1ccc(S(=O)(=O)[N-]Cc2ccc(S(N)(=O)=O)cc2)cc1 (optimized conformer: 31.771587367591156 kcal/mol)

>  <smiles>  (17) 
CCOc1ccc(S(=O)(=O)NCc2ccc(S(N)(=O)=O)cc2)cc1

>  <score_type>  (17) 
oracle

>  <origin>  (17) 
adgpu

>  <m_score__min__energy>  (17) 
-9.6799999999999997

>  <m_primary>  (17) 
energy

$$$$
17:0
     RDKit          3D

 42 44  0  0  0  0  0  0  0  0999 V2000
   -2.9920   21.1330  -31.1670 O   0  0  0  0  0  0  0  0  0  0  0  0
   -3.4470   22.2920  -30.9850 C   0  0  0  0  0  0  0  0  0  0  0  0
   -2.5730   23.2990  -30.4580 N   0  0  0  0  0  0  0  0  0  0  0  0
   -2.6410   23.8820  -29.1480 C   0  0  0  0  0  0  0  0  0  0  0  0
   -1.5740   24.6260  -28.6110 C   0  0  0  0  0  0  0  0  0  0  0  0
   -1.6720   25.1700  -27.3270 C   0  0  0  0  0  0  0  0  0  0  0  0
   -2.8250   24.9640  -26.5650 C   0  0  0  0  0  0  0  0  0  0  0  0
   -3.8790   24.2060  -27.0840 C   0  0  0  0  0  0  0  0  0  0  0  0
   -3.7830   23.6610  -28.3680 C   0  0  0  0  0  0  0  0  0  0  0  0
   -4.8720   22.5640  -31.2860 C   0  0  0  0  0  0  0  0  0  0  0  0
   -5.7530   21.4870  -31.4700 C   0  0  0  0  0  0  0  0  0  0  0  0
   -7.1030   21.7100  -31.7700 C   0  0  0  0  0  0  0  0  0  0  0  0
   -8.1970   20.3440  -32.0060 S   0  0  0  0  0  0  0  0  0  0  0  0
   -9.4290   20.8200  -32.7250 O   0  0  0  0  0  0  0  0  0  0  0  0
   -8.6190   19.8090  -30.6660 O   0  0  0  0  0  0  0  0  0  0  0  0
   -7.4490   19.0650  -32.9310 N   0  0  0  0  0  0  0  0  0  0  0  0
   -6.4080   19.6080  -33.8150 C   0  0  0  0  0  0  0  0  0  0  0  0
   -5.7770   18.4680  -34.6440 C   0  0  0  0  0  0  0  0  0  0  0  0
   -6.2160   17.1880  -34.2200 O   0  0  0  0  0  0  0  0  0  0  0  0
   -6.0100   17.0470  -32.8270 C   0  0  0  0  0  0  0  0  0  0  0  0
   -6.8750   18.0480  -32.0340 C   0  0  0  0  0  0  0  0  0  0  0  0
   -7.5780   23.0210  -31.8830 C   0  0  0  0  0  0  0  0  0  0  0  0
   -6.7160   24.1000  -31.6830 C   0  0  0  0  0  0  0  0  0  0  0  0
   -5.3660   23.8820  -31.3740 C   0  0  0  0  0  0  0  0  0  0  0  0
   -4.5270   24.9710  -31.1350 O   0  0  0  0  0  0  0  0  0  0  0  0
   -0.6600   24.7800  -29.2034 H   0  0  0  0  0  0  0  0  0  0  0  0
   -0.8403   25.7610  -26.9159 H   0  0  0  0  0  0  0  0  0  0  0  0
   -2.9034   25.3980  -25.5573 H   0  0  0  0  0  0  0  0  0  0  0  0
   -4.7842   24.0383  -26.4819 H   0  0  0  0  0  0  0  0  0  0  0  0
   -4.6094   23.0550  -28.7679 H   0  0  0  0  0  0  0  0  0  0  0  0
   -5.3793   20.4566  -31.3776 H   0  0  0  0  0  0  0  0  0  0  0  0
   -6.8557   20.3485  -34.4942 H   0  0  0  0  0  0  0  0  0  0  0  0
   -5.6282   20.0874  -33.2051 H   0  0  0  0  0  0  0  0  0  0  0  0
   -6.0522   18.6045  -35.7002 H   0  0  0  0  0  0  0  0  0  0  0  0
   -4.6869   18.5135  -34.5039 H   0  0  0  0  0  0  0  0  0  0  0  0
   -6.2778   16.0234  -32.5260 H   0  0  0  0  0  0  0  0  0  0  0  0
   -4.9513   17.2498  -32.6079 H   0  0  0  0  0  0  0  0  0  0  0  0
   -7.6910   17.5043  -31.5356 H   0  0  0  0  0  0  0  0  0  0  0  0
   -6.2406   18.5510  -31.2893 H   0  0  0  0  0  0  0  0  0  0  0  0
   -8.6345   23.2019  -32.1303 H   0  0  0  0  0  0  0  0  0  0  0  0
   -7.0981   25.1280  -31.7683 H   0  0  0  0  0  0  0  0  0  0  0  0
   -3.5210   24.8970  -31.2240 H   0  0  0  0  0  0  0  0  0  0  0  0
  1  2  2  0
  2  3  1  0
  3  4  1  0
  4  5  2  0
  5  6  1  0
  6  7  2  0
  7  8  1  0
  8  9  2  0
  2 10  1  0
 10 11  2  0
 11 12  1  0
 12 13  1  0
 13 14  2  0
 13 15  2  0
 13 16  1  0
 16 17  1  0
 17 18  1  0
 18 19  1  0
 19 20  1  0
 20 21  1  0
 12 22  2  0
 22 23  1  0
 23 24  2  0
 24 25  1  0
  9  4  1  0
 24 10  1  0
 21 16  1  0
  5 26  1  0
  6 27  1  0
  7 28  1  0
  8 29  1  0
  9 30  1  0
 11 31  1  0
 17 32  1  0
 17 33  1  0
 18 34  1  0
 18 35  1  0
 20 36  1  0
 20 37  1  0
 21 38  1  0
 21 39  1  0
 22 40  1  0
 23 41  1  0
 25 42  1  0
M  CHG  1   3  -1
M  END
>  <UniqueID>  (18) 
18

>  <SMILES>  (18) 
O=C([N-]c1ccccc1)c1cc(S(=O)(=O)N2CCOCC2)ccc1O

>  <Energy>  (18) 
58.3649533087287

>  <Genealogy>  (18) 
O=C([N-]c1ccccc1)c1cc(S(=O)(=O)N2CCOCC2)ccc1O (protonated)
O=C([N-]c1ccccc1)c1cc(S(=O)(=O)N2CCOCC2)ccc1O (3D coordinates assigned)
O=C([N-]c1ccccc1)c1cc(S(=O)(=O)N2CCOCC2)ccc1O (nonaromatic ring conformer: 58.3649533087287 kcal/mol)

>  <smiles>  (18) 
O=C(Nc1ccccc1)c1cc(S(=O)(=O)N2CCOCC2)ccc1O

>  <score_type>  (18) 
oracle

>  <origin>  (18) 
adgpu

>  <m_score__min__energy>  (18) 
-10.33

>  <m_primary>  (18) 
energy

$$$$
18:0
     RDKit          3D

 59 62  0  0  0  0  0  0  0  0999 V2000
   -3.8380   25.3140  -30.6090 O   0  0  0  0  0  0  0  0  0  0  0  0
   -3.9170   24.1400  -30.1530 C   0  0  0  0  0  0  0  0  0  0  0  0
   -5.0300   23.2990  -30.5000 N   0  0  0  0  0  0  0  0  0  0  0  0
   -5.1020   22.1710  -31.3880 C   0  0  0  0  0  0  0  0  0  0  0  0
   -3.8950   21.6540  -31.8790 C   0  0  0  0  0  0  0  0  0  0  0  0
   -3.8840   20.5450  -32.7280 C   0  0  0  0  0  0  0  0  0  0  0  0
   -5.0860   19.9270  -33.0980 C   0  0  0  0  0  0  0  0  0  0  0  0
   -5.0710   18.5010  -34.1390 S   0  0  0  0  0  0  0  0  0  0  0  0
   -6.1190   18.6560  -35.2080 O   0  0  0  0  0  0  0  0  0  0  0  0
   -3.7310   18.3930  -34.8130 O   0  0  0  0  0  0  0  0  0  0  0  0
   -5.3740   17.0380  -33.2270 N   0  0  0  0  0  0  0  0  0  0  0  0
   -4.3690   16.0060  -33.5640 C   0  0  0  0  0  0  0  0  0  0  0  0
   -4.8360   14.6090  -33.1380 C   0  0  0  0  0  0  0  0  0  0  0  0
   -6.1260   14.2070  -33.8760 C   0  0  0  0  0  0  0  0  0  0  0  0
   -6.9610   15.4200  -34.3200 C   0  0  0  0  0  0  0  0  0  0  0  0
   -6.7850   16.5980  -33.3510 C   0  0  0  0  0  0  0  0  0  0  0  0
   -6.2980   20.4390  -32.6170 C   0  0  0  0  0  0  0  0  0  0  0  0
   -6.3100   21.5460  -31.7600 C   0  0  0  0  0  0  0  0  0  0  0  0
   -2.8390   23.6290  -29.2620 C   0  0  0  0  0  0  0  0  0  0  0  0
   -2.9140   22.3090  -28.7700 C   0  0  0  0  0  0  0  0  0  0  0  0
   -1.9230   21.7970  -27.9190 C   0  0  0  0  0  0  0  0  0  0  0  0
   -2.0460   20.1500  -27.2920 S   0  0  0  0  0  0  0  0  0  0  0  0
   -3.4950   19.7530  -27.2370 O   0  0  0  0  0  0  0  0  0  0  0  0
   -1.4990   20.1070  -25.8940 O   0  0  0  0  0  0  0  0  0  0  0  0
   -1.1770   19.0090  -28.2920 N   0  0  0  0  0  0  0  0  0  0  0  0
   -0.5580   19.7010  -29.4330 C   0  0  0  0  0  0  0  0  0  0  0  0
    0.2100   18.6900  -30.3110 C   0  0  0  0  0  0  0  0  0  0  0  0
    0.2670   17.3980  -29.7270 O   0  0  0  0  0  0  0  0  0  0  0  0
    0.7830   17.4890  -28.4130 C   0  0  0  0  0  0  0  0  0  0  0  0
   -0.1550   18.3050  -27.4990 C   0  0  0  0  0  0  0  0  0  0  0  0
   -0.8380   22.6020  -27.5610 C   0  0  0  0  0  0  0  0  0  0  0  0
   -0.7440   23.9080  -28.0410 C   0  0  0  0  0  0  0  0  0  0  0  0
   -1.7310   24.4270  -28.8870 C   0  0  0  0  0  0  0  0  0  0  0  0
   -1.5880   25.7340  -29.3430 O   0  0  0  0  0  0  0  0  0  0  0  0
   -2.9446   22.1277  -31.5920 H   0  0  0  0  0  0  0  0  0  0  0  0
   -2.9280   20.1552  -33.1077 H   0  0  0  0  0  0  0  0  0  0  0  0
   -4.2016   16.0112  -34.6512 H   0  0  0  0  0  0  0  0  0  0  0  0
   -3.4393   16.2394  -33.0244 H   0  0  0  0  0  0  0  0  0  0  0  0
   -4.0464   13.8795  -33.3713 H   0  0  0  0  0  0  0  0  0  0  0  0
   -5.0417   14.6237  -32.0575 H   0  0  0  0  0  0  0  0  0  0  0  0
   -5.8535   13.6226  -34.7672 H   0  0  0  0  0  0  0  0  0  0  0  0
   -6.7394   13.6210  -33.1758 H   0  0  0  0  0  0  0  0  0  0  0  0
   -6.6378   15.7301  -35.3247 H   0  0  0  0  0  0  0  0  0  0  0  0
   -8.0219   15.1295  -34.3272 H   0  0  0  0  0  0  0  0  0  0  0  0
   -7.3859   17.4445  -33.7149 H   0  0  0  0  0  0  0  0  0  0  0  0
   -7.1136   16.2597  -32.3572 H   0  0  0  0  0  0  0  0  0  0  0  0
   -7.2465   19.9681  -32.9146 H   0  0  0  0  0  0  0  0  0  0  0  0
   -7.2662   21.9300  -31.3751 H   0  0  0  0  0  0  0  0  0  0  0  0
   -3.7627   21.6712  -29.0581 H   0  0  0  0  0  0  0  0  0  0  0  0
   -1.3419   20.1841  -30.0348 H   0  0  0  0  0  0  0  0  0  0  0  0
    0.1447   20.4592  -29.0571 H   0  0  0  0  0  0  0  0  0  0  0  0
   -0.2940   18.6148  -31.2858 H   0  0  0  0  0  0  0  0  0  0  0  0
    1.2422   19.0552  -30.4171 H   0  0  0  0  0  0  0  0  0  0  0  0
    0.8934   16.4754  -28.0001 H   0  0  0  0  0  0  0  0  0  0  0  0
    1.7566   17.9991  -28.4563 H   0  0  0  0  0  0  0  0  0  0  0  0
   -0.6526   17.6239  -26.7930 H   0  0  0  0  0  0  0  0  0  0  0  0
    0.4439   19.0503  -26.9551 H   0  0  0  0  0  0  0  0  0  0  0  0
   -0.0554   22.2040  -26.8983 H   0  0  0  0  0  0  0  0  0  0  0  0
    0.1124   24.5351  -27.7525 H   0  0  0  0  0  0  0  0  0  0  0  0
  1  2  2  0
  2  3  1  0
  3  4  1  0
  4  5  2  0
  5  6  1  0
  6  7  2  0
  7  8  1  0
  8  9  2  0
  8 10  2  0
  8 11  1  0
 11 12  1  0
 12 13  1  0
 13 14  1  0
 14 15  1  0
 15 16  1  0
  7 17  1  0
 17 18  2  0
  2 19  1  0
 19 20  2  0
 20 21  1  0
 21 22  1  0
 22 23  2  0
 22 24  2  0
 22 25  1  0
 25 26  1  0
 26 27  1  0
 27 28  1  0
 28 29  1  0
 29 30  1  0
 21 31  2  0
 31 32  1  0
 32 33  2  0
 33 34  1  0
 18  4  1  0
 33 19  1  0
 16 11  1  0
 30 25  1  0
  5 35  1  0
  6 36  1  0
 12 37  1  0
 12 38  1  0
 13 39  1  0
 13 40  1  0
 14 41  1  0
 14 42  1  0
 15 43  1  0
 15 44  1  0
 16 45  1  0
 16 46  1  0
 17 47  1  0
 18 48  1  0
 20 49  1  0
 26 50  1  0
 26 51  1  0
 27 52  1  0
 27 53  1  0
 29 54  1  0
 29 55  1  0
 30 56  1  0
 30 57  1  0
 31 58  1  0
 32 59  1  0
M  CHG  2   3  -1  34  -1
M  END
>  <UniqueID>  (19) 
19

>  <SMILES>  (19) 
O=C([N-]c1ccc(S(=O)(=O)N2CCCCC2)cc1)c1cc(S(=O)(=O)N2CCOCC2)ccc1[O-]

>  <Energy>  (19) 
80.17581460750922

>  <Genealogy>  (19) 
O=C([N-]c1ccc(S(=O)(=O)N2CCCCC2)cc1)c1cc(S(=O)(=O)N2CCOCC2)ccc1[O-] (protonated)
O=C([N-]c1ccc(S(=O)(=O)N2CCCCC2)cc1)c1cc(S(=O)(=O)N2CCOCC2)ccc1[O-] (3D coordinates assigned)
O=C([N-]c1ccc(S(=O)(=O)N2CCCCC2)cc1)c1cc(S(=O)(=O)N2CCOCC2)ccc1[O-] (nonaromatic ring conformer: 80.17581460750922 kcal/mol)

>  <smiles>  (19) 
O=C(Nc1ccc(S(=O)(=O)N2CCCCC2)cc1)c1cc(S(=O)(=O)N2CCOCC2)ccc1O

>  <score_type>  (19) 
oracle

>  <origin>  (19) 
adgpu

>  <m_score__min__energy>  (19) 
-14.630000000000001

>  <m_primary>  (19) 
energy

$$$$
19:0
     RDKit          3D

 55 58  0  0  0  0  0  0  0  0999 V2000
   -9.0910   22.5440  -31.6180 C   0  0  0  0  0  0  0  0  0  0  0  0
   -8.2820   21.2850  -31.7860 C   0  0  0  0  0  0  0  0  0  0  0  0
   -8.9560   20.0700  -31.9920 C   0  0  0  0  0  0  0  0  0  0  0  0
   -8.2440   18.8850  -32.1810 C   0  0  0  0  0  0  0  0  0  0  0  0
   -6.8440   18.8880  -32.1780 C   0  0  0  0  0  0  0  0  0  0  0  0
   -6.1360   17.6500  -32.3640 N   0  0  0  0  0  0  0  0  0  0  0  0
   -5.4940   17.2760  -33.5980 C   0  0  0  0  0  0  0  0  0  0  0  0
   -5.6260   18.0030  -34.6210 O   0  0  0  0  0  0  0  0  0  0  0  0
   -4.6780   16.0410  -33.6980 C   0  0  0  0  0  0  0  0  0  0  0  0
   -3.8900   15.7740  -34.8310 C   0  0  0  0  0  0  0  0  0  0  0  0
   -3.1380   14.6000  -34.9080 C   0  0  0  0  0  0  0  0  0  0  0  0
   -3.1470   13.6870  -33.8510 C   0  0  0  0  0  0  0  0  0  0  0  0
   -3.8940   13.9520  -32.6920 C   0  0  0  0  0  0  0  0  0  0  0  0
   -3.9430   12.9490  -31.5660 C   0  0  0  0  0  0  0  0  0  0  0  0
   -2.7580   12.9540  -30.8500 F   0  0  0  0  0  0  0  0  0  0  0  0
   -4.9760   13.2470  -30.6940 F   0  0  0  0  0  0  0  0  0  0  0  0
   -4.1460   11.6860  -32.0910 F   0  0  0  0  0  0  0  0  0  0  0  0
   -4.6710   15.1230  -32.6320 C   0  0  0  0  0  0  0  0  0  0  0  0
   -6.1630   20.0890  -31.9240 C   0  0  0  0  0  0  0  0  0  0  0  0
   -6.8660   21.2880  -31.7190 C   0  0  0  0  0  0  0  0  0  0  0  0
   -6.0950   22.5210  -31.4400 C   0  0  0  0  0  0  0  0  0  0  0  0
   -6.5610   23.7700  -31.8740 C   0  0  0  0  0  0  0  0  0  0  0  0
   -5.8350   24.9200  -31.5650 C   0  0  0  0  0  0  0  0  0  0  0  0
   -4.6840   24.8270  -30.8480 N   0  0  0  0  0  0  0  0  0  0  0  0
   -4.1960   23.6320  -30.4140 C   0  0  0  0  0  0  0  0  0  0  0  0
   -2.9850   23.6000  -29.6350 N   0  0  0  0  0  0  0  0  0  0  0  0
   -2.9330   24.1570  -28.2750 C   0  0  0  0  0  0  0  0  0  0  0  0
   -1.6140   24.9260  -28.0460 C   0  0  0  0  0  0  0  0  0  0  0  0
   -0.5250   24.5040  -28.9470 N   0  0  0  0  0  0  0  0  0  0  0  0
   -0.5990   23.0760  -29.2670 C   0  0  0  0  0  0  0  0  0  0  0  0
   -1.8420   22.8170  -30.1220 C   0  0  0  0  0  0  0  0  0  0  0  0
   -4.9110   22.4560  -30.6900 C   0  0  0  0  0  0  0  0  0  0  0  0
   -9.2254   22.7532  -30.5465 H   0  0  0  0  0  0  0  0  0  0  0  0
   -8.5637   23.3847  -32.0924 H   0  0  0  0  0  0  0  0  0  0  0  0
  -10.0748   22.4137  -32.0924 H   0  0  0  0  0  0  0  0  0  0  0  0
  -10.0558   20.0525  -32.0044 H   0  0  0  0  0  0  0  0  0  0  0  0
   -8.7871   17.9407  -32.3336 H   0  0  0  0  0  0  0  0  0  0  0  0
   -6.1420   16.9790  -31.5660 H   0  0  0  0  0  0  0  0  0  0  0  0
   -3.8656   16.4943  -35.6620 H   0  0  0  0  0  0  0  0  0  0  0  0
   -2.5359   14.3933  -35.8050 H   0  0  0  0  0  0  0  0  0  0  0  0
   -2.5661   12.7560  -33.9269 H   0  0  0  0  0  0  0  0  0  0  0  0
   -5.2816   15.3237  -31.7393 H   0  0  0  0  0  0  0  0  0  0  0  0
   -5.0637   20.0914  -31.8849 H   0  0  0  0  0  0  0  0  0  0  0  0
   -7.4927   23.8424  -32.4542 H   0  0  0  0  0  0  0  0  0  0  0  0
   -6.1943   25.9035  -31.9020 H   0  0  0  0  0  0  0  0  0  0  0  0
   -3.7801   24.8446  -28.1346 H   0  0  0  0  0  0  0  0  0  0  0  0
   -2.9874   23.3288  -27.5531 H   0  0  0  0  0  0  0  0  0  0  0  0
   -1.8031   25.9978  -28.2060 H   0  0  0  0  0  0  0  0  0  0  0  0
   -1.2868   24.7100  -27.0183 H   0  0  0  0  0  0  0  0  0  0  0  0
    0.3870   24.6850  -28.4640 H   0  0  0  0  0  0  0  0  0  0  0  0
    0.3005   22.7766  -29.8249 H   0  0  0  0  0  0  0  0  0  0  0  0
   -0.6607   22.4911  -28.3375 H   0  0  0  0  0  0  0  0  0  0  0  0
   -1.6285   23.1006  -31.1632 H   0  0  0  0  0  0  0  0  0  0  0  0
   -2.0955   21.7484  -30.0593 H   0  0  0  0  0  0  0  0  0  0  0  0
   -4.5445   21.4872  -30.3197 H   0  0  0  0  0  0  0  0  0  0  0  0
  1  2  1  0
  2  3  2  0
  3  4  1  0
  4  5  2  0
  5  6  1  0
  6  7  1  0
  7  8  2  0
  7  9  1  0
  9 10  2  0
 10 11  1  0
 11 12  2  0
 12 13  1  0
 13 14  1  0
 14 15  1  0
 14 16  1  0
 14 17  1  0
 13 18  2  0
  5 19  1  0
 19 20  2  0
 20 21  1  0
 21 22  2  0
 22 23  1  0
 23 24  2  0
 24 25  1  0
 25 26  1  0
 26 27  1  0
 27 28  1  0
 28 29  1  0
 29 30  1  0
 30 31  1  0
 25 32  2  0
 20  2  1  0
 32 21  1  0
 18  9  1  0
 31 26  1  0
  1 33  1  0
  1 34  1  0
  1 35  1  0
  3 36  1  0
  4 37  1  0
  6 38  1  0
 10 39  1  0
 11 40  1  0
 12 41  1  0
 18 42  1  0
 19 43  1  0
 22 44  1  0
 23 45  1  0
 27 46  1  0
 27 47  1  0
 28 48  1  0
 28 49  1  0
 29 50  1  0
 30 51  1  0
 30 52  1  0
 31 53  1  0
 31 54  1  0
 32 55  1  0
M  END
>  <UniqueID>  (20) 
20

>  <SMILES>  (20) 
Cc1ccc(NC(=O)c2cccc(C(F)(F)F)c2)cc1-c1ccnc(N2CCNCC2)c1

>  <Energy>  (20) 
80.36649932550014

>  <Genealogy>  (20) 
Cc1ccc(NC(=O)c2cccc(C(F)(F)F)c2)cc1-c1ccnc(N2CCNCC2)c1 (3D coordinates assigned)
Cc1ccc(NC(=O)c2cccc(C(F)(F)F)c2)cc1-c1ccnc(N2CCNCC2)c1 (nonaromatic ring conformer: 80.36649932550014 kcal/mol)

>  <smiles>  (20) 
Cc1ccc(NC(=O)c2cccc(C(F)(F)F)c2)cc1-c1ccnc(N2CCNCC2)c1

>  <score_type>  (20) 
oracle

>  <origin>  (20) 
adgpu

>  <m_score__min__energy>  (20) 
-9.7799999999999994

>  <m_primary>  (20) 
energy

$$$$
20:0
     RDKit          3D

 72 76  0  0  0  0  0  0  0  0999 V2000
    0.2290   17.2950  -30.7150 C   0  0  0  0  0  0  0  0  0  0  0  0
    0.2760   16.4930  -31.8890 O   0  0  0  0  0  0  0  0  0  0  0  0
   -0.8940   16.0660  -32.5160 C   0  0  0  0  0  0  0  0  0  0  0  0
   -1.3170   14.7200  -32.3990 C   0  0  0  0  0  0  0  0  0  0  0  0
   -0.4910   13.7270  -31.6320 C   0  0  0  0  0  0  0  0  0  0  0  0
   -2.5560   14.3190  -32.9510 C   0  0  0  0  0  0  0  0  0  0  0  0
   -3.3640   15.2370  -33.6370 C   0  0  0  0  0  0  0  0  0  0  0  0
   -2.9100   16.5500  -33.7670 C   0  0  0  0  0  0  0  0  0  0  0  0
   -1.7000   16.9540  -33.2500 C   0  0  0  0  0  0  0  0  0  0  0  0
   -1.5560   18.2980  -33.5900 C   0  0  0  0  0  0  0  0  0  0  0  0
   -0.4070   19.2010  -33.3960 C   0  0  0  0  0  0  0  0  0  0  0  0
    0.5420   19.2200  -34.2220 O   0  0  0  0  0  0  0  0  0  0  0  0
   -0.3920   20.0820  -32.2670 N   0  0  0  0  0  0  0  0  0  0  0  0
   -1.5240   20.8320  -31.8060 C   0  0  0  0  0  0  0  0  0  0  0  0
   -2.3700   21.4100  -32.7570 C   0  0  0  0  0  0  0  0  0  0  0  0
   -3.4700   22.1730  -32.3630 C   0  0  0  0  0  0  0  0  0  0  0  0
   -3.7410   22.3830  -31.0000 C   0  0  0  0  0  0  0  0  0  0  0  0
   -4.9100   23.2000  -30.5870 C   0  0  0  0  0  0  0  0  0  0  0  0
   -6.1450   22.5710  -30.3430 C   0  0  0  0  0  0  0  0  0  0  0  0
   -7.2610   23.3220  -29.9650 C   0  0  0  0  0  0  0  0  0  0  0  0
   -7.1600   24.7070  -29.8240 C   0  0  0  0  0  0  0  0  0  0  0  0
   -5.9430   25.3460  -30.0640 C   0  0  0  0  0  0  0  0  0  0  0  0
   -4.8180   24.6040  -30.4560 C   0  0  0  0  0  0  0  0  0  0  0  0
   -3.6200   25.2630  -30.7340 O   0  0  0  0  0  0  0  0  0  0  0  0
   -2.8880   21.8100  -30.0410 C   0  0  0  0  0  0  0  0  0  0  0  0
   -1.7590   21.0650  -30.4310 C   0  0  0  0  0  0  0  0  0  0  0  0
   -0.8250   20.5500  -29.3700 C   0  0  0  0  0  0  0  0  0  0  0  0
   -2.7130   18.6410  -34.2830 C   0  0  0  0  0  0  0  0  0  0  0  0
   -3.5320   17.5710  -34.3880 N   0  0  0  0  0  0  0  0  0  0  0  0
   -4.8150   17.5330  -35.0930 C   0  0  0  0  0  0  0  0  0  0  0  0
   -5.9520   17.2500  -34.1380 C   0  0  0  0  0  0  0  0  0  0  0  0
   -6.3660   16.0610  -34.0270 O   0  0  0  0  0  0  0  0  0  0  0  0
   -6.6090   18.3100  -33.4000 N   0  0  0  0  0  0  0  0  0  0  0  0
   -7.6010   17.9040  -32.3860 C   0  0  0  0  0  0  0  0  0  0  0  0
   -8.1510   19.0710  -31.5740 C   0  0  0  0  0  0  0  0  0  0  0  0
   -8.4250   20.2080  -32.4620 N   0  0  0  0  0  0  0  0  0  0  0  0
   -9.1570   21.2550  -31.7300 C   0  0  0  0  0  0  0  0  0  0  0  0
   -7.1410   20.7350  -32.9430 C   0  0  0  0  0  0  0  0  0  0  0  0
   -6.4280   19.7110  -33.8340 C   0  0  0  0  0  0  0  0  0  0  0  0
    0.2670   16.6473  -29.8267 H   0  0  0  0  0  0  0  0  0  0  0  0
    1.0885   17.9815  -30.7052 H   0  0  0  0  0  0  0  0  0  0  0  0
   -0.7048   17.8764  -30.7052 H   0  0  0  0  0  0  0  0  0  0  0  0
   -0.6280   13.8917  -30.5531 H   0  0  0  0  0  0  0  0  0  0  0  0
   -0.8106   12.7067  -31.8906 H   0  0  0  0  0  0  0  0  0  0  0  0
    0.5704   13.8554  -31.8906 H   0  0  0  0  0  0  0  0  0  0  0  0
   -2.8891   13.2764  -32.8410 H   0  0  0  0  0  0  0  0  0  0  0  0
   -4.3311   14.9299  -34.0618 H   0  0  0  0  0  0  0  0  0  0  0  0
   -2.1664   21.2617  -33.8278 H   0  0  0  0  0  0  0  0  0  0  0  0
   -4.1299   22.6134  -33.1249 H   0  0  0  0  0  0  0  0  0  0  0  0
   -6.2324   21.4798  -30.4507 H   0  0  0  0  0  0  0  0  0  0  0  0
   -8.2219   22.8203  -29.7780 H   0  0  0  0  0  0  0  0  0  0  0  0
   -8.0399   25.2948  -29.5236 H   0  0  0  0  0  0  0  0  0  0  0  0
   -5.8649   26.4368  -29.9454 H   0  0  0  0  0  0  0  0  0  0  0  0
   -3.1140   25.1040  -31.5970 H   0  0  0  0  0  0  0  0  0  0  0  0
   -3.1056   21.9455  -28.9713 H   0  0  0  0  0  0  0  0  0  0  0  0
   -1.2379   20.7776  -28.3762 H   0  0  0  0  0  0  0  0  0  0  0  0
   -0.7108   19.4614  -29.4790 H   0  0  0  0  0  0  0  0  0  0  0  0
    0.1566   21.0344  -29.4790 H   0  0  0  0  0  0  0  0  0  0  0  0
   -2.9301   19.6406  -34.6877 H   0  0  0  0  0  0  0  0  0  0  0  0
   -4.9871   18.5049  -35.5786 H   0  0  0  0  0  0  0  0  0  0  0  0
   -4.7788   16.7279  -35.8417 H   0  0  0  0  0  0  0  0  0  0  0  0
   -8.4399   17.4095  -32.8976 H   0  0  0  0  0  0  0  0  0  0  0  0
   -7.0884   17.2322  -31.6818 H   0  0  0  0  0  0  0  0  0  0  0  0
   -9.0825   18.7631  -31.0765 H   0  0  0  0  0  0  0  0  0  0  0  0
   -7.4094   19.3700  -30.8186 H   0  0  0  0  0  0  0  0  0  0  0  0
   -9.0439   21.0932  -30.6479 H   0  0  0  0  0  0  0  0  0  0  0  0
   -8.7509   22.2416  -31.9976 H   0  0  0  0  0  0  0  0  0  0  0  0
  -10.2231   21.2124  -31.9976 H   0  0  0  0  0  0  0  0  0  0  0  0
   -7.3226   21.6520  -33.5227 H   0  0  0  0  0  0  0  0  0  0  0  0
   -6.5018   20.9498  -32.0739 H   0  0  0  0  0  0  0  0  0  0  0  0
   -6.8198   19.8099  -34.8571 H   0  0  0  0  0  0  0  0  0  0  0  0
   -5.3515   19.9280  -33.7710 H   0  0  0  0  0  0  0  0  0  0  0  0
  1  2  1  0
  2  3  1  0
  3  4  2  0
  4  5  1  0
  4  6  1  0
  6  7  2  0
  7  8  1  0
  8  9  2  0
  9 10  1  0
 10 11  1  0
 11 12  2  0
 11 13  1  0
 13 14  1  0
 14 15  2  0
 15 16  1  0
 16 17  2  0
 17 18  1  0
 18 19  2  0
 19 20  1  0
 20 21  2  0
 21 22  1  0
 22 23  2  0
 23 24  1  0
 17 25  1  0
 25 26  2  0
 26 27  1  0
 10 28  2  0
 28 29  1  0
 29 30  1  0
 30 31  1  0
 31 32  2  0
 31 33  1  0
 33 34  1  0
 34 35  1  0
 35 36  1  0
 36 37  1  0
 36 38  1  0
 38 39  1  0
  9  3  1  0
 26 14  1  0
 39 33  1  0
 29  8  1  0
 23 18  1  0
  1 40  1  0
  1 41  1  0
  1 42  1  0
  5 43  1  0
  5 44  1  0
  5 45  1  0
  6 46  1  0
  7 47  1  0
 15 48  1  0
 16 49  1  0
 19 50  1  0
 20 51  1  0
 21 52  1  0
 22 53  1  0
 24 54  1  0
 25 55  1  0
 27 56  1  0
 27 57  1  0
 27 58  1  0
 28 59  1  0
 30 60  1  0
 30 61  1  0
 34 62  1  0
 34 63  1  0
 35 64  1  0
 35 65  1  0
 37 66  1  0
 37 67  1  0
 37 68  1  0
 38 69  1  0
 38 70  1  0
 39 71  1  0
 39 72  1  0
M  CHG  1  13  -1
M  END
>  <UniqueID>  (21) 
21

>  <SMILES>  (21) 
COc1c(C)ccc2c1c(C(=O)[N-]c1ccc(-c3ccccc3O)cc1C)cn2CC(=O)N1CCN(C)CC1

>  <Energy>  (21) 
133.6797436867313

>  <Genealogy>  (21) 
COc1c(C)ccc2c1c(C(=O)[N-]c1ccc(-c3ccccc3O)cc1C)cn2CC(=O)N1CCN(C)CC1 (protonated)
COc1c(C)ccc2c1c(C(=O)[N-]c1ccc(-c3ccccc3O)cc1C)cn2CC(=O)N1CCN(C)CC1 (3D coordinates assigned)
COc1c(C)ccc2c1c(C(=O)[N-]c1ccc(-c3ccccc3O)cc1C)cn2CC(=O)N1CCN(C)CC1 (nonaromatic ring conformer: 133.6797436867313 kcal/mol)

>  <smiles>  (21) 
COc1c(C)ccc2c1c(C(=O)Nc1ccc(-c3ccccc3O)cc1C)cn2CC(=O)N1CCN(C)CC1

>  <score_type>  (21) 
oracle

>  <origin>  (21) 
adgpu

>  <m_score__min__energy>  (21) 
-12.050000000000001

>  <m_primary>  (21) 
energy

$$$$
21:0
     RDKit          3D

 54 57  0  0  0  0  0  0  0  0999 V2000
   -3.1590   18.9120  -26.0980 C   0  0  0  0  0  0  0  0  0  0  0  0
   -1.8030   19.5350  -26.3980 C   0  0  0  0  0  0  0  0  0  0  0  0
   -1.9720   20.8570  -27.0780 C   0  0  0  0  0  0  0  0  0  0  0  0
   -3.0210   21.1300  -27.9000 N   0  0  0  0  0  0  0  0  0  0  0  0
   -2.7380   22.3690  -28.3280 C   0  0  0  0  0  0  0  0  0  0  0  0
   -3.4790   23.1580  -29.2040 C   0  0  0  0  0  0  0  0  0  0  0  0
   -2.9810   24.4440  -29.5180 C   0  0  0  0  0  0  0  0  0  0  0  0
   -3.6470   25.2970  -30.4610 N   0  0  0  0  0  0  0  0  0  0  0  0
   -5.0530   25.2910  -30.7460 C   0  0  0  0  0  0  0  0  0  0  0  0
   -5.7210   26.3340  -30.5140 O   0  0  0  0  0  0  0  0  0  0  0  0
   -5.7420   24.0810  -31.2490 C   0  0  0  0  0  0  0  0  0  0  0  0
   -7.1360   23.9920  -31.1880 C   0  0  0  0  0  0  0  0  0  0  0  0
   -7.7900   22.8370  -31.6100 C   0  0  0  0  0  0  0  0  0  0  0  0
   -7.0610   21.7370  -32.0970 C   0  0  0  0  0  0  0  0  0  0  0  0
   -7.7080   20.5470  -32.4680 O   0  0  0  0  0  0  0  0  0  0  0  0
   -9.0890   20.2720  -32.2580 C   0  0  0  0  0  0  0  0  0  0  0  0
   -5.6540   21.8260  -32.1950 C   0  0  0  0  0  0  0  0  0  0  0  0
   -4.6830   20.4320  -32.7410 S   0  0  0  0  0  0  0  0  0  0  0  0
   -3.8390   19.9350  -31.6020 O   0  0  0  0  0  0  0  0  0  0  0  0
   -3.7590   20.9050  -33.8310 O   0  0  0  0  0  0  0  0  0  0  0  0
   -5.6170   19.0640  -33.3100 N   0  0  0  0  0  0  0  0  0  0  0  0
   -4.9440   18.3670  -34.4200 C   0  0  0  0  0  0  0  0  0  0  0  0
   -5.8450   17.2290  -34.9610 C   0  0  0  0  0  0  0  0  0  0  0  0
   -6.8700   16.8490  -34.0540 O   0  0  0  0  0  0  0  0  0  0  0  0
   -6.3530   16.7450  -32.7460 C   0  0  0  0  0  0  0  0  0  0  0  0
   -5.9750   18.1400  -32.2100 C   0  0  0  0  0  0  0  0  0  0  0  0
   -5.0100   22.9940  -31.7470 C   0  0  0  0  0  0  0  0  0  0  0  0
   -1.7600   24.8810  -28.9490 C   0  0  0  0  0  0  0  0  0  0  0  0
   -1.0400   24.0540  -28.0670 C   0  0  0  0  0  0  0  0  0  0  0  0
   -1.5670   22.7970  -27.7870 C   0  0  0  0  0  0  0  0  0  0  0  0
   -1.0490   21.8510  -26.9880 N   0  0  0  0  0  0  0  0  0  0  0  0
   -3.2999   18.8473  -25.0090 H   0  0  0  0  0  0  0  0  0  0  0  0
   -3.9535   19.5354  -26.5341 H   0  0  0  0  0  0  0  0  0  0  0  0
   -3.2036   17.9031  -26.5341 H   0  0  0  0  0  0  0  0  0  0  0  0
   -1.2550   19.6803  -25.4554 H   0  0  0  0  0  0  0  0  0  0  0  0
   -1.2420   18.8622  -27.0632 H   0  0  0  0  0  0  0  0  0  0  0  0
   -4.4215   22.7928  -29.6379 H   0  0  0  0  0  0  0  0  0  0  0  0
   -7.7207   24.8408  -30.8037 H   0  0  0  0  0  0  0  0  0  0  0  0
   -8.8877   22.7845  -31.5620 H   0  0  0  0  0  0  0  0  0  0  0  0
   -9.2946   20.2310  -31.1782 H   0  0  0  0  0  0  0  0  0  0  0  0
   -9.6951   21.0671  -32.7168 H   0  0  0  0  0  0  0  0  0  0  0  0
   -9.3443   19.3054  -32.7168 H   0  0  0  0  0  0  0  0  0  0  0  0
   -6.5100   19.4630  -33.6880 H   0  0  0  0  0  0  0  0  0  0  0  0
   -4.7393   19.0841  -35.2286 H   0  0  0  0  0  0  0  0  0  0  0  0
   -4.0009   17.9351  -34.0538 H   0  0  0  0  0  0  0  0  0  0  0  0
   -6.3138   17.5687  -35.8963 H   0  0  0  0  0  0  0  0  0  0  0  0
   -5.2032   16.3494  -35.1169 H   0  0  0  0  0  0  0  0  0  0  0  0
   -7.1135   16.2973  -32.0893 H   0  0  0  0  0  0  0  0  0  0  0  0
   -5.4535   16.1122  -32.7651 H   0  0  0  0  0  0  0  0  0  0  0  0
   -6.8313   18.5553  -31.6585 H   0  0  0  0  0  0  0  0  0  0  0  0
   -5.1008   18.0319  -31.5511 H   0  0  0  0  0  0  0  0  0  0  0  0
   -3.9125   23.0553  -31.7882 H   0  0  0  0  0  0  0  0  0  0  0  0
   -1.3699   25.8785  -29.1994 H   0  0  0  0  0  0  0  0  0  0  0  0
   -0.0947   24.3891  -27.6152 H   0  0  0  0  0  0  0  0  0  0  0  0
  1  2  1  0
  2  3  1  0
  3  4  2  0
  4  5  1  0
  5  6  2  0
  6  7  1  0
  7  8  1  0
  8  9  1  0
  9 10  2  0
  9 11  1  0
 11 12  2  0
 12 13  1  0
 13 14  2  0
 14 15  1  0
 15 16  1  0
 14 17  1  0
 17 18  1  0
 18 19  2  0
 18 20  2  0
 18 21  1  0
 21 22  1  0
 22 23  1  0
 23 24  1  0
 24 25  1  0
 25 26  1  0
 17 27  2  0
  7 28  2  0
 28 29  1  0
 29 30  2  0
 30 31  1  0
 31  3  1  0
 30  5  1  0
 27 11  1  0
 26 21  1  0
  1 32  1  0
  1 33  1  0
  1 34  1  0
  2 35  1  0
  2 36  1  0
  6 37  1  0
 12 38  1  0
 13 39  1  0
 16 40  1  0
 16 41  1  0
 16 42  1  0
 21 43  1  0
 22 44  1  0
 22 45  1  0
 23 46  1  0
 23 47  1  0
 25 48  1  0
 25 49  1  0
 26 50  1  0
 26 51  1  0
 27 52  1  0
 28 53  1  0
 29 54  1  0
M  CHG  3   8  -1  21   1  31  -1
M  END
>  <UniqueID>  (22) 
22

>  <SMILES>  (22) 
CCc1nc2cc([N-]C(=O)c3ccc(OC)c(S(=O)(=O)[NH+]4CCOCC4)c3)ccc2[n-]1

>  <Energy>  (22) 
102.67416285437245

>  <Genealogy>  (22) 
CCc1nc2cc([N-]C(=O)c3ccc(OC)c(S(=O)(=O)[NH+]4CCOCC4)c3)ccc2[n-]1 (protonated)
CCc1nc2cc([N-]C(=O)c3ccc(OC)c(S(=O)(=O)[NH+]4CCOCC4)c3)ccc2[n-]1 (3D coordinates assigned)
CCc1nc2cc([N-]C(=O)c3ccc(OC)c(S(=O)(=O)[NH+]4CCOCC4)c3)ccc2[n-]1 (nonaromatic ring conformer: 102.67416285437245 kcal/mol)

>  <smiles>  (22) 
CCc1nc2cc(NC(=O)c3ccc(OC)c(S(=O)(=O)N4CCOCC4)c3)ccc2[nH]1

>  <score_type>  (22) 
oracle

>  <origin>  (22) 
adgpu

>  <m_score__min__energy>  (22) 
-10.84

>  <m_primary>  (22) 
energy

$$$$
22:0
     RDKit          3D

 52 55  0  0  0  0  0  0  0  0999 V2000
   -1.7850   21.4020  -26.8400 C   0  0  0  0  0  0  0  0  0  0  0  0
   -2.2880   22.4790  -27.7650 C   0  0  0  0  0  0  0  0  0  0  0  0
   -3.5830   22.3500  -28.2860 C   0  0  0  0  0  0  0  0  0  0  0  0
   -4.0890   23.2900  -29.1790 C   0  0  0  0  0  0  0  0  0  0  0  0
   -3.3080   24.3710  -29.5850 C   0  0  0  0  0  0  0  0  0  0  0  0
   -3.8470   25.2680  -30.5630 N   0  0  0  0  0  0  0  0  0  0  0  0
   -5.2380   25.5980  -30.6680 C   0  0  0  0  0  0  0  0  0  0  0  0
   -5.6920   26.6190  -30.0870 O   0  0  0  0  0  0  0  0  0  0  0  0
   -6.1350   24.7560  -31.3990 N   0  0  0  0  0  0  0  0  0  0  0  0
   -5.9170   23.3790  -31.7380 C   0  0  0  0  0  0  0  0  0  0  0  0
   -6.8380   22.3760  -31.3960 C   0  0  0  0  0  0  0  0  0  0  0  0
   -6.5850   21.0440  -31.7290 C   0  0  0  0  0  0  0  0  0  0  0  0
   -5.4060   20.6900  -32.4020 C   0  0  0  0  0  0  0  0  0  0  0  0
   -4.4530   21.6850  -32.7000 C   0  0  0  0  0  0  0  0  0  0  0  0
   -4.7220   23.0230  -32.3730 C   0  0  0  0  0  0  0  0  0  0  0  0
   -3.1890   21.3480  -33.4600 C   0  0  0  0  0  0  0  0  0  0  0  0
   -2.8210   19.9230  -33.3640 N   0  0  0  0  0  0  0  0  0  0  0  0
   -2.1940   19.6000  -32.0700 C   0  0  0  0  0  0  0  0  0  0  0  0
   -3.9680   19.0470  -33.6740 C   0  0  0  0  0  0  0  0  0  0  0  0
   -5.1360   19.2380  -32.6940 C   0  0  0  0  0  0  0  0  0  0  0  0
   -2.0270   24.5620  -29.0210 C   0  0  0  0  0  0  0  0  0  0  0  0
   -1.2700   25.6900  -29.3480 O   0  0  0  0  0  0  0  0  0  0  0  0
   -1.5110   23.6220  -28.0970 C   0  0  0  0  0  0  0  0  0  0  0  0
    0.1120   23.8800  -27.4070 S   0  0  0  0  0  0  0  0  0  0  0  0
    0.7290   22.5640  -27.0260 O   0  0  0  0  0  0  0  0  0  0  0  0
    1.0230   24.5280  -28.4130 O   0  0  0  0  0  0  0  0  0  0  0  0
   -0.0520   24.8840  -25.9310 C   0  0  0  0  0  0  0  0  0  0  0  0
   -0.6820   26.2440  -26.1830 C   0  0  0  0  0  0  0  0  0  0  0  0
   -1.4710   25.1630  -25.4620 C   0  0  0  0  0  0  0  0  0  0  0  0
   -1.9321   21.7169  -25.7963 H   0  0  0  0  0  0  0  0  0  0  0  0
   -2.3416   20.4712  -27.0241 H   0  0  0  0  0  0  0  0  0  0  0  0
   -0.7140   21.2313  -27.0241 H   0  0  0  0  0  0  0  0  0  0  0  0
   -4.2069   21.4954  -27.9854 H   0  0  0  0  0  0  0  0  0  0  0  0
   -5.1123   23.1792  -29.5671 H   0  0  0  0  0  0  0  0  0  0  0  0
   -7.7632   22.6409  -30.8632 H   0  0  0  0  0  0  0  0  0  0  0  0
   -7.3155   20.2663  -31.4617 H   0  0  0  0  0  0  0  0  0  0  0  0
   -3.9845   23.8013  -32.6188 H   0  0  0  0  0  0  0  0  0  0  0  0
   -3.3396   21.6004  -34.5200 H   0  0  0  0  0  0  0  0  0  0  0  0
   -2.3705   21.9300  -33.0114 H   0  0  0  0  0  0  0  0  0  0  0  0
   -2.8475   19.9367  -31.2517 H   0  0  0  0  0  0  0  0  0  0  0  0
   -2.0446   18.5127  -31.9962 H   0  0  0  0  0  0  0  0  0  0  0  0
   -1.2219   20.1096  -31.9962 H   0  0  0  0  0  0  0  0  0  0  0  0
   -4.3202   19.2737  -34.6911 H   0  0  0  0  0  0  0  0  0  0  0  0
   -3.6259   18.0051  -33.5873 H   0  0  0  0  0  0  0  0  0  0  0  0
   -6.0410   18.7910  -33.1311 H   0  0  0  0  0  0  0  0  0  0  0  0
   -4.8635   18.7496  -31.7468 H   0  0  0  0  0  0  0  0  0  0  0  0
   -0.3190   25.6370  -29.6910 H   0  0  0  0  0  0  0  0  0  0  0  0
    0.8572   24.5090  -25.4384 H   0  0  0  0  0  0  0  0  0  0  0  0
   -0.3259   27.1260  -25.6305 H   0  0  0  0  0  0  0  0  0  0  0  0
   -0.8526   26.8695  -27.0716 H   0  0  0  0  0  0  0  0  0  0  0  0
   -1.6857   25.2627  -24.3878 H   0  0  0  0  0  0  0  0  0  0  0  0
   -2.4488   24.6822  -25.6127 H   0  0  0  0  0  0  0  0  0  0  0  0
  1  2  1  0
  2  3  2  0
  3  4  1  0
  4  5  2  0
  5  6  1  0
  6  7  1  0
  7  8  2  0
  7  9  1  0
  9 10  1  0
 10 11  2  0
 11 12  1  0
 12 13  2  0
 13 14  1  0
 14 15  2  0
 14 16  1  0
 16 17  1  0
 17 18  1  0
 17 19  1  0
 19 20  1  0
  5 21  1  0
 21 22  1  0
 21 23  2  0
 23 24  1  0
 24 25  2  0
 24 26  2  0
 24 27  1  0
 27 28  1  0
 28 29  1  0
 23  2  1  0
 29 27  1  0
 15 10  1  0
 20 13  1  0
  1 30  1  0
  1 31  1  0
  1 32  1  0
  3 33  1  0
  4 34  1  0
 11 35  1  0
 12 36  1  0
 15 37  1  0
 16 38  1  0
 16 39  1  0
 18 40  1  0
 18 41  1  0
 18 42  1  0
 19 43  1  0
 19 44  1  0
 20 45  1  0
 20 46  1  0
 22 47  1  0
 27 48  1  0
 28 49  1  0
 28 50  1  0
 29 51  1  0
 29 52  1  0
M  CHG  2   6  -1   9  -1
M  END
>  <UniqueID>  (23) 
23

>  <SMILES>  (23) 
Cc1ccc([N-]C(=O)[N-]c2ccc3c(c2)CN(C)CC3)c(O)c1S(=O)(=O)C1CC1

>  <Energy>  (23) 
336.4845427417384

>  <Genealogy>  (23) 
Cc1ccc([N-]C(=O)[N-]c2ccc3c(c2)CN(C)CC3)c(O)c1S(=O)(=O)C1CC1 (protonated)
Cc1ccc([N-]C(=O)[N-]c2ccc3c(c2)CN(C)CC3)c(O)c1S(=O)(=O)C1CC1 (3D coordinates assigned)
Cc1ccc([N-]C(=O)[N-]c2ccc3c(c2)CN(C)CC3)c(O)c1S(=O)(=O)C1CC1 (nonaromatic ring conformer: 336.4845427417384 kcal/mol)

>  <smiles>  (23) 
Cc1ccc(NC(=O)Nc2ccc3c(c2)CN(C)CC3)c(O)c1S(=O)(=O)C1CC1

>  <score_type>  (23) 
oracle

>  <origin>  (23) 
adgpu

>  <m_score__min__energy>  (23) 
-14.17

>  <m_primary>  (23) 
energy

$$$$
23:0
     RDKit          3D

 52 54  0  0  0  0  0  0  0  0999 V2000
   -0.4550   18.1770  -31.6820 C   0  0  0  0  0  0  0  0  0  0  0  0
   -1.1990   19.1990  -32.4270 N   0  0  0  0  0  0  0  0  0  0  0  0
   -1.4600   18.9880  -33.8590 C   0  0  0  0  0  0  0  0  0  0  0  0
   -1.6390   20.4200  -31.7700 C   0  0  0  0  0  0  0  0  0  0  0  0
   -2.8950   20.9940  -32.0670 C   0  0  0  0  0  0  0  0  0  0  0  0
   -3.3120   22.1720  -31.4390 C   0  0  0  0  0  0  0  0  0  0  0  0
   -2.4850   22.8000  -30.4980 C   0  0  0  0  0  0  0  0  0  0  0  0
   -2.9780   24.3000  -29.7140 S   0  0  0  0  0  0  0  0  0  0  0  0
   -3.7800   23.9770  -28.4810 O   0  0  0  0  0  0  0  0  0  0  0  0
   -1.7400   25.0570  -29.3120 O   0  0  0  0  0  0  0  0  0  0  0  0
   -3.9070   25.2970  -30.7980 N   0  0  0  0  0  0  0  0  0  0  0  0
   -5.3010   25.4060  -30.3640 C   0  0  0  0  0  0  0  0  0  0  0  0
   -6.0670   24.1600  -30.7240 C   0  0  0  0  0  0  0  0  0  0  0  0
   -5.9680   23.6100  -32.0110 C   0  0  0  0  0  0  0  0  0  0  0  0
   -6.6720   22.4470  -32.3370 C   0  0  0  0  0  0  0  0  0  0  0  0
   -7.4930   21.8170  -31.3820 C   0  0  0  0  0  0  0  0  0  0  0  0
   -8.2360   20.5840  -31.7290 C   0  0  0  0  0  0  0  0  0  0  0  0
   -9.1190   20.1360  -30.9440 O   0  0  0  0  0  0  0  0  0  0  0  0
   -7.9720   19.9050  -32.9660 N   0  0  0  0  0  0  0  0  0  0  0  0
   -6.8530   19.0380  -33.1770 C   0  0  0  0  0  0  0  0  0  0  0  0
   -6.0300   19.2680  -34.2890 C   0  0  0  0  0  0  0  0  0  0  0  0
   -4.9290   18.4460  -34.5360 C   0  0  0  0  0  0  0  0  0  0  0  0
   -4.6350   17.3920  -33.6690 C   0  0  0  0  0  0  0  0  0  0  0  0
   -5.4320   17.1650  -32.5430 C   0  0  0  0  0  0  0  0  0  0  0  0
   -6.5350   17.9900  -32.2750 C   0  0  0  0  0  0  0  0  0  0  0  0
   -7.2790   17.7920  -31.0660 N   0  0  0  0  0  0  0  0  0  0  0  0
   -7.6090   22.3870  -30.1010 C   0  0  0  0  0  0  0  0  0  0  0  0
   -6.9030   23.5490  -29.7780 C   0  0  0  0  0  0  0  0  0  0  0  0
   -1.2360   22.2380  -30.1910 C   0  0  0  0  0  0  0  0  0  0  0  0
   -0.8180   21.0600  -30.8160 C   0  0  0  0  0  0  0  0  0  0  0  0
   -0.5790   18.3473  -30.6024 H   0  0  0  0  0  0  0  0  0  0  0  0
   -0.8402   17.1802  -31.9426 H   0  0  0  0  0  0  0  0  0  0  0  0
    0.6120   18.2374  -31.9426 H   0  0  0  0  0  0  0  0  0  0  0  0
   -2.3103   18.3006  -33.9793 H   0  0  0  0  0  0  0  0  0  0  0  0
   -1.6971   19.9513  -34.3343 H   0  0  0  0  0  0  0  0  0  0  0  0
   -0.5678   18.5543  -34.3343 H   0  0  0  0  0  0  0  0  0  0  0  0
   -3.5537   20.5081  -32.8018 H   0  0  0  0  0  0  0  0  0  0  0  0
   -4.2921   22.6069  -31.6844 H   0  0  0  0  0  0  0  0  0  0  0  0
   -5.3302   25.5459  -29.2733 H   0  0  0  0  0  0  0  0  0  0  0  0
   -5.7640   26.2658  -30.8703 H   0  0  0  0  0  0  0  0  0  0  0  0
   -5.3336   24.0961  -32.7669 H   0  0  0  0  0  0  0  0  0  0  0  0
   -6.5839   22.0208  -33.3472 H   0  0  0  0  0  0  0  0  0  0  0  0
   -6.2535   20.1016  -34.9711 H   0  0  0  0  0  0  0  0  0  0  0  0
   -4.2926   18.6289  -35.4144 H   0  0  0  0  0  0  0  0  0  0  0  0
   -3.7739   16.7384  -33.8724 H   0  0  0  0  0  0  0  0  0  0  0  0
   -5.1929   16.3343  -31.8627 H   0  0  0  0  0  0  0  0  0  0  0  0
   -6.9280   17.1360  -30.3310 H   0  0  0  0  0  0  0  0  0  0  0  0
   -8.1380   18.3370  -30.8420 H   0  0  0  0  0  0  0  0  0  0  0  0
   -8.2591   21.9154  -29.3494 H   0  0  0  0  0  0  0  0  0  0  0  0
   -7.0037   23.9877  -28.7743 H   0  0  0  0  0  0  0  0  0  0  0  0
   -0.5823   22.7277  -29.4541 H   0  0  0  0  0  0  0  0  0  0  0  0
    0.1607   20.6269  -30.5621 H   0  0  0  0  0  0  0  0  0  0  0  0
  1  2  1  0
  2  3  1  0
  2  4  1  0
  4  5  2  0
  5  6  1  0
  6  7  2  0
  7  8  1  0
  8  9  2  0
  8 10  2  0
  8 11  1  0
 11 12  1  0
 12 13  1  0
 13 14  2  0
 14 15  1  0
 15 16  2  0
 16 17  1  0
 17 18  2  0
 17 19  1  0
 19 20  1  0
 20 21  2  0
 21 22  1  0
 22 23  2  0
 23 24  1  0
 24 25  2  0
 25 26  1  0
 16 27  1  0
 27 28  2  0
  7 29  1  0
 29 30  2  0
 30  4  1  0
 28 13  1  0
 25 20  1  0
  1 31  1  0
  1 32  1  0
  1 33  1  0
  3 34  1  0
  3 35  1  0
  3 36  1  0
  5 37  1  0
  6 38  1  0
 12 39  1  0
 12 40  1  0
 14 41  1  0
 15 42  1  0
 21 43  1  0
 22 44  1  0
 23 45  1  0
 24 46  1  0
 26 47  1  0
 26 48  1  0
 27 49  1  0
 28 50  1  0
 29 51  1  0
 30 52  1  0
M  CHG  2  11  -1  19  -1
M  END
>  <UniqueID>  (24) 
24

>  <SMILES>  (24) 
CN(C)c1ccc(S(=O)(=O)[N-]Cc2ccc(C(=O)[N-]c3ccccc3N)cc2)cc1

>  <Energy>  (24) 
62.939990359999804

>  <Genealogy>  (24) 
CN(C)c1ccc(S(=O)(=O)[N-]Cc2ccc(C(=O)[N-]c3ccccc3N)cc2)cc1 (protonated)
CN(C)c1ccc(S(=O)(=O)[N-]Cc2ccc(C(=O)[N-]c3ccccc3N)cc2)cc1 (3D coordinates assigned)
CN(C)c1ccc(S(=O)(=O)[N-]Cc2ccc(C(=O)[N-]c3ccccc3N)cc2)cc1 (optimized conformer: 62.939990359999804 kcal/mol)

>  <smiles>  (24) 
CN(C)c1ccc(S(=O)(=O)NCc2ccc(C(=O)Nc3ccccc3N)cc2)cc1

>  <score_type>  (24) 
oracle

>  <origin>  (24) 
adgpu

>  <m_score__min__energy>  (24) 
-11.65

>  <m_primary>  (24) 
energy

$$$$
24:0
     RDKit          3D

 51 54  0  0  0  0  0  0  0  0999 V2000
   -8.3840   21.1700  -30.4390 O   0  0  0  0  0  0  0  0  0  0  0  0
   -7.3710   21.2390  -31.1830 C   0  0  0  0  0  0  0  0  0  0  0  0
   -6.4570   22.3980  -31.0550 C   0  0  0  0  0  0  0  0  0  0  0  0
   -6.9650   23.6970  -30.9160 C   0  0  0  0  0  0  0  0  0  0  0  0
   -6.1000   24.7790  -30.7510 C   0  0  0  0  0  0  0  0  0  0  0  0
   -4.7180   24.5820  -30.7400 C   0  0  0  0  0  0  0  0  0  0  0  0
   -3.8730   25.6730  -30.5640 O   0  0  0  0  0  0  0  0  0  0  0  0
   -4.1880   23.2960  -30.8950 C   0  0  0  0  0  0  0  0  0  0  0  0
   -2.7630   23.1290  -30.8470 N   0  0  0  0  0  0  0  0  0  0  0  0
   -1.9120   21.6790  -30.4200 S   0  0  0  0  0  0  0  0  0  0  0  0
   -0.4870   22.0340  -30.0800 O   0  0  0  0  0  0  0  0  0  0  0  0
   -2.5370   21.0490  -29.2060 O   0  0  0  0  0  0  0  0  0  0  0  0
   -1.9090   20.5630  -31.7820 C   0  0  0  0  0  0  0  0  0  0  0  0
   -1.2540   19.3230  -31.6930 C   0  0  0  0  0  0  0  0  0  0  0  0
   -1.2520   18.4520  -32.7870 C   0  0  0  0  0  0  0  0  0  0  0  0
   -1.8980   18.8150  -33.9730 C   0  0  0  0  0  0  0  0  0  0  0  0
   -2.5560   20.0470  -34.0650 C   0  0  0  0  0  0  0  0  0  0  0  0
   -2.5680   20.9180  -32.9710 C   0  0  0  0  0  0  0  0  0  0  0  0
   -5.0640   22.2040  -31.0670 C   0  0  0  0  0  0  0  0  0  0  0  0
   -7.1280   20.1950  -32.1460 N   0  0  0  0  0  0  0  0  0  0  0  0
   -7.3910   18.8010  -31.7700 C   0  0  0  0  0  0  0  0  0  0  0  0
   -7.2170   17.8540  -32.9630 C   0  0  0  0  0  0  0  0  0  0  0  0
   -6.0080   18.2070  -33.7170 N   0  0  0  0  0  0  0  0  0  0  0  0
   -5.1100   17.1910  -34.1950 C   0  0  0  0  0  0  0  0  0  0  0  0
   -4.6900   17.2390  -35.3830 O   0  0  0  0  0  0  0  0  0  0  0  0
   -4.6420   16.1120  -33.3090 C   0  0  0  0  0  0  0  0  0  0  0  0
   -3.4290   15.4540  -33.4050 C   0  0  0  0  0  0  0  0  0  0  0  0
   -3.4120   14.5440  -32.3720 C   0  0  0  0  0  0  0  0  0  0  0  0
   -4.6110   14.7070  -31.7060 C   0  0  0  0  0  0  0  0  0  0  0  0
   -5.3210   15.6480  -32.2880 O   0  0  0  0  0  0  0  0  0  0  0  0
   -5.7740   19.6030  -34.1160 C   0  0  0  0  0  0  0  0  0  0  0  0
   -6.8490   20.5370  -33.5490 C   0  0  0  0  0  0  0  0  0  0  0  0
   -8.0520   23.8642  -30.9371 H   0  0  0  0  0  0  0  0  0  0  0  0
   -6.5091   25.7928  -30.6289 H   0  0  0  0  0  0  0  0  0  0  0  0
   -0.7424   19.0372  -30.7621 H   0  0  0  0  0  0  0  0  0  0  0  0
   -0.7417   17.4802  -32.7146 H   0  0  0  0  0  0  0  0  0  0  0  0
   -1.8890   18.1314  -34.8348 H   0  0  0  0  0  0  0  0  0  0  0  0
   -3.0641   20.3303  -34.9986 H   0  0  0  0  0  0  0  0  0  0  0  0
   -3.0937   21.8817  -33.0414 H   0  0  0  0  0  0  0  0  0  0  0  0
   -4.6547   21.1933  -31.2116 H   0  0  0  0  0  0  0  0  0  0  0  0
   -6.6897   18.5069  -30.9752 H   0  0  0  0  0  0  0  0  0  0  0  0
   -8.4317   18.7285  -31.4212 H   0  0  0  0  0  0  0  0  0  0  0  0
   -7.1283   16.8205  -32.5969 H   0  0  0  0  0  0  0  0  0  0  0  0
   -8.0918   17.9440  -33.6238 H   0  0  0  0  0  0  0  0  0  0  0  0
   -2.6402   15.6231  -34.1529 H   0  0  0  0  0  0  0  0  0  0  0  0
   -2.6088   13.8333  -32.1274 H   0  0  0  0  0  0  0  0  0  0  0  0
   -4.9250   14.1348  -30.8206 H   0  0  0  0  0  0  0  0  0  0  0  0
   -4.7900   19.9216  -33.7416 H   0  0  0  0  0  0  0  0  0  0  0  0
   -5.8121   19.6592  -35.2139 H   0  0  0  0  0  0  0  0  0  0  0  0
   -6.4944   21.5767  -33.6063 H   0  0  0  0  0  0  0  0  0  0  0  0
   -7.7714   20.4227  -34.1373 H   0  0  0  0  0  0  0  0  0  0  0  0
  1  2  2  0
  2  3  1  0
  3  4  2  0
  4  5  1  0
  5  6  2  0
  6  7  1  0
  6  8  1  0
  8  9  1  0
  9 10  1  0
 10 11  2  0
 10 12  2  0
 10 13  1  0
 13 14  2  0
 14 15  1  0
 15 16  2  0
 16 17  1  0
 17 18  2  0
  8 19  2  0
  2 20  1  0
 20 21  1  0
 21 22  1  0
 22 23  1  0
 23 24  1  0
 24 25  2  0
 24 26  1  0
 26 27  2  0
 27 28  1  0
 28 29  2  0
 29 30  1  0
 23 31  1  0
 31 32  1  0
 19  3  1  0
 32 20  1  0
 18 13  1  0
 30 26  1  0
  4 33  1  0
  5 34  1  0
 14 35  1  0
 15 36  1  0
 16 37  1  0
 17 38  1  0
 18 39  1  0
 19 40  1  0
 21 41  1  0
 21 42  1  0
 22 43  1  0
 22 44  1  0
 27 45  1  0
 28 46  1  0
 29 47  1  0
 31 48  1  0
 31 49  1  0
 32 50  1  0
 32 51  1  0
M  CHG  2   7  -1   9  -1
M  END
>  <UniqueID>  (25) 
25

>  <SMILES>  (25) 
O=C(c1ccc([O-])c([N-]S(=O)(=O)c2ccccc2)c1)N1CCN(C(=O)c2ccco2)CC1

>  <Energy>  (25) 
92.40266094967672

>  <Genealogy>  (25) 
O=C(c1ccc([O-])c([N-]S(=O)(=O)c2ccccc2)c1)N1CCN(C(=O)c2ccco2)CC1 (protonated)
O=C(c1ccc([O-])c([N-]S(=O)(=O)c2ccccc2)c1)N1CCN(C(=O)c2ccco2)CC1 (3D coordinates assigned)
O=C(c1ccc([O-])c([N-]S(=O)(=O)c2ccccc2)c1)N1CCN(C(=O)c2ccco2)CC1 (nonaromatic ring conformer: 92.40266094967672 kcal/mol)

>  <smiles>  (25) 
O=C(c1ccc(O)c(NS(=O)(=O)c2ccccc2)c1)N1CCN(C(=O)c2ccco2)CC1

>  <score_type>  (25) 
oracle

>  <origin>  (25) 
adgpu

>  <m_score__min__energy>  (25) 
-13.42

>  <m_primary>  (25) 
energy

$$$$
25:0
     RDKit          3D

 54 56  0  0  0  0  0  0  0  0999 V2000
   -4.2120   17.0180  -35.5530 C   0  0  0  0  0  0  0  0  0  0  0  0
   -4.9840   17.0390  -34.2300 C   0  0  1  0  0  0  0  0  0  0  0  0
   -4.6040   18.2760  -33.3710 C   0  0  0  0  0  0  0  0  0  0  0  0
   -5.6410   18.6490  -32.3730 N   0  0  0  0  0  0  0  0  0  0  0  0
   -6.4000   19.8610  -32.7560 C   0  0  0  0  0  0  0  0  0  0  0  0
   -5.8070   21.0930  -32.1200 C   0  0  0  0  0  0  0  0  0  0  0  0
   -4.4260   21.3390  -32.1940 C   0  0  0  0  0  0  0  0  0  0  0  0
   -3.8800   22.4760  -31.5910 C   0  0  0  0  0  0  0  0  0  0  0  0
   -4.7020   23.3760  -30.8940 C   0  0  0  0  0  0  0  0  0  0  0  0
   -4.1170   24.5650  -30.2460 C   0  0  0  0  0  0  0  0  0  0  0  0
   -4.2410   25.6950  -30.7920 O   0  0  0  0  0  0  0  0  0  0  0  0
   -3.3980   24.4710  -29.0120 N   0  0  0  0  0  0  0  0  0  0  0  0
   -1.6670   24.5360  -28.9090 S   0  0  0  0  0  0  0  0  0  0  0  0
   -1.0390   23.5430  -29.8440 O   0  0  0  0  0  0  0  0  0  0  0  0
   -1.2060   25.9130  -29.3030 O   0  0  0  0  0  0  0  0  0  0  0  0
   -1.1740   24.2200  -27.2460 C   0  0  0  0  0  0  0  0  0  0  0  0
   -1.0860   22.9010  -26.7710 C   0  0  0  0  0  0  0  0  0  0  0  0
   -0.7450   22.6580  -25.4380 C   0  0  0  0  0  0  0  0  0  0  0  0
   -0.4860   23.7280  -24.5720 C   0  0  0  0  0  0  0  0  0  0  0  0
   -0.5740   25.0560  -25.0320 C   0  0  0  0  0  0  0  0  0  0  0  0
   -0.3150   26.1880  -24.1040 C   0  0  0  0  0  0  0  0  0  0  0  0
    0.8890   26.2110  -23.3260 N   0  0  0  0  0  0  0  0  0  0  0  0
   -1.1780   27.1510  -23.9720 N   0  0  0  0  0  0  0  0  0  0  0  0
   -0.9200   25.2920  -26.3770 C   0  0  0  0  0  0  0  0  0  0  0  0
   -6.0880   23.1530  -30.8530 C   0  0  0  0  0  0  0  0  0  0  0  0
   -6.6370   22.0150  -31.4590 C   0  0  0  0  0  0  0  0  0  0  0  0
   -6.5150   17.5100  -32.0220 C   0  0  0  0  0  0  0  0  0  0  0  0
   -7.2190   16.9020  -33.2570 C   0  0  0  0  0  0  0  0  0  0  0  0
   -6.4290   17.0140  -34.4970 N   0  0  0  0  0  0  0  0  0  0  0  0
   -3.1319   16.9886  -35.3468 H   0  0  0  0  0  0  0  0  0  0  0  0
   -4.4993   16.1273  -36.1311 H   0  0  0  0  0  0  0  0  0  0  0  0
   -4.4505   17.9230  -36.1311 H   0  0  0  0  0  0  0  0  0  0  0  0
   -4.7095   16.1430  -33.6540 H   0  0  0  0  0  0  0  0  0  0  0  0
   -3.6696   18.0533  -32.8349 H   0  0  0  0  0  0  0  0  0  0  0  0
   -4.4985   19.1270  -34.0600 H   0  0  0  0  0  0  0  0  0  0  0  0
   -6.3723   19.9721  -33.8500 H   0  0  0  0  0  0  0  0  0  0  0  0
   -7.4370   19.7504  -32.4062 H   0  0  0  0  0  0  0  0  0  0  0  0
   -3.7718   20.6344  -32.7284 H   0  0  0  0  0  0  0  0  0  0  0  0
   -2.7991   22.6668  -31.6631 H   0  0  0  0  0  0  0  0  0  0  0  0
   -1.2858   22.0584  -27.4493 H   0  0  0  0  0  0  0  0  0  0  0  0
   -0.6798   21.6242  -25.0679 H   0  0  0  0  0  0  0  0  0  0  0  0
   -0.2120   23.5295  -23.5253 H   0  0  0  0  0  0  0  0  0  0  0  0
    1.0360   26.9470  -22.5910 H   0  0  0  0  0  0  0  0  0  0  0  0
    1.6490   25.5090  -23.4910 H   0  0  0  0  0  0  0  0  0  0  0  0
   -2.0870   27.1450  -24.4870 H   0  0  0  0  0  0  0  0  0  0  0  0
   -0.9920   27.9490  -23.3250 H   0  0  0  0  0  0  0  0  0  0  0  0
   -0.9916   26.3247  -26.7489 H   0  0  0  0  0  0  0  0  0  0  0  0
   -6.7446   23.8738  -30.3437 H   0  0  0  0  0  0  0  0  0  0  0  0
   -7.7226   21.8424  -31.4172 H   0  0  0  0  0  0  0  0  0  0  0  0
   -5.9035   16.7300  -31.5448 H   0  0  0  0  0  0  0  0  0  0  0  0
   -7.2952   17.8840  -31.3427 H   0  0  0  0  0  0  0  0  0  0  0  0
   -7.4094   15.8366  -33.0602 H   0  0  0  0  0  0  0  0  0  0  0  0
   -8.1485   17.4694  -33.4124 H   0  0  0  0  0  0  0  0  0  0  0  0
   -6.7000   17.8920  -35.0040 H   0  0  0  0  0  0  0  0  0  0  0  0
  1  2  1  0
  2  3  1  0
  3  4  1  0
  4  5  1  0
  5  6  1  0
  6  7  2  0
  7  8  1  0
  8  9  2  0
  9 10  1  0
 10 11  2  0
 10 12  1  0
 12 13  1  0
 13 14  2  0
 13 15  2  0
 13 16  1  0
 16 17  2  0
 17 18  1  0
 18 19  2  0
 19 20  1  0
 20 21  1  0
 21 22  1  0
 21 23  2  0
 20 24  2  0
  9 25  1  0
 25 26  2  0
  4 27  1  0
 27 28  1  0
 28 29  1  0
 29  2  1  0
 26  6  1  0
 24 16  1  0
  1 30  1  0
  1 31  1  0
  1 32  1  0
  2 33  1  1
  3 34  1  0
  3 35  1  0
  5 36  1  0
  5 37  1  0
  7 38  1  0
  8 39  1  0
 17 40  1  0
 18 41  1  0
 19 42  1  0
 22 43  1  0
 22 44  1  0
 23 45  1  0
 23 46  1  0
 24 47  1  0
 25 48  1  0
 26 49  1  0
 27 50  1  0
 27 51  1  0
 28 52  1  0
 28 53  1  0
 29 54  1  0
M  CHG  2  12  -1  23   1
M  END
>  <UniqueID>  (26) 
26

>  <SMILES>  (26) 
C[C@H]1CN(Cc2ccc(C(=O)[N-]S(=O)(=O)c3cccc(C(N)=[NH2+])c3)cc2)CCN1

>  <Energy>  (26) 
74.72673220894627

>  <Genealogy>  (26) 
CC1CN(Cc2ccc(C(=O)[N-]S(=O)(=O)c3cccc(C(N)=[NH2+])c3)cc2)CCN1 (protonated)
C[C@H]1CN(Cc2ccc(C(=O)[N-]S(=O)(=O)c3cccc(C(N)=[NH2+])c3)cc2)CCN1 (chirality)
C[C@H]1CN(Cc2ccc(C(=O)[N-]S(=O)(=O)c3cccc(C(N)=[NH2+])c3)cc2)CCN1 (3D coordinates assigned)
C[C@H]1CN(Cc2ccc(C(=O)[N-]S(=O)(=O)c3cccc(C(N)=[NH2+])c3)cc2)CCN1 (nonaromatic ring conformer: 74.72673220894627 kcal/mol)

>  <smiles>  (26) 
CC1CN(Cc2ccc(C(=O)NS(=O)(=O)c3cccc(C(=N)N)c3)cc2)CCN1

>  <score_type>  (26) 
oracle

>  <origin>  (26) 
adgpu

>  <m_score__min__energy>  (26) 
-12.75

>  <m_primary>  (26) 
energy

$$$$
26:0
     RDKit          3D

 50 53  0  0  0  0  0  0  0  0999 V2000
   -9.1660   20.1850  -33.1070 O   0  0  0  0  0  0  0  0  0  0  0  0
   -7.6940   19.9980  -32.8880 S   0  0  0  0  0  0  0  0  0  0  0  0
   -7.0110   19.8430  -34.2170 O   0  0  0  0  0  0  0  0  0  0  0  0
   -7.4320   18.5550  -31.9600 N   0  0  0  0  0  0  0  0  0  0  0  0
   -6.6710   17.4190  -32.3970 C   0  0  0  0  0  0  0  0  0  0  0  0
   -5.7440   16.7700  -31.5580 C   0  0  0  0  0  0  0  0  0  0  0  0
   -5.0370   15.6580  -32.0210 C   0  0  0  0  0  0  0  0  0  0  0  0
   -5.2380   15.1900  -33.3220 C   0  0  0  0  0  0  0  0  0  0  0  0
   -6.1510   15.8310  -34.1620 C   0  0  0  0  0  0  0  0  0  0  0  0
   -6.8650   16.9430  -33.7000 C   0  0  0  0  0  0  0  0  0  0  0  0
   -7.0560   21.4010  -32.0370 C   0  0  0  0  0  0  0  0  0  0  0  0
   -7.8360   22.5580  -31.9040 C   0  0  0  0  0  0  0  0  0  0  0  0
   -7.3050   23.6990  -31.2980 C   0  0  0  0  0  0  0  0  0  0  0  0
   -5.9850   23.6940  -30.8210 C   0  0  0  0  0  0  0  0  0  0  0  0
   -5.2690   25.1630  -30.1710 S   0  0  0  0  0  0  0  0  0  0  0  0
   -5.6230   25.2710  -28.7150 O   0  0  0  0  0  0  0  0  0  0  0  0
   -5.8210   26.3680  -30.8810 O   0  0  0  0  0  0  0  0  0  0  0  0
   -3.5410   25.1520  -30.3320 N   0  0  0  0  0  0  0  0  0  0  0  0
   -2.6730   24.4560  -29.4310 C   0  0  0  0  0  0  0  0  0  0  0  0
   -2.9740   23.1590  -28.9910 C   0  0  0  0  0  0  0  0  0  0  0  0
   -2.0990   22.4830  -28.1300 C   0  0  0  0  0  0  0  0  0  0  0  0
   -0.9330   23.1190  -27.6750 C   0  0  0  0  0  0  0  0  0  0  0  0
   -0.6580   24.4350  -28.0710 C   0  0  0  0  0  0  0  0  0  0  0  0
   -1.5240   25.1020  -28.9450 C   0  0  0  0  0  0  0  0  0  0  0  0
   -1.2320   26.4030  -29.3400 O   0  0  0  0  0  0  0  0  0  0  0  0
   -0.0380   22.3810  -26.7180 C   0  0  0  0  0  0  0  0  0  0  0  0
    0.1420   20.9180  -27.1590 C   0  0  0  0  0  0  0  0  0  0  0  0
   -1.1630   20.2090  -27.6070 C   0  0  0  0  0  0  0  0  0  0  0  0
   -2.4150   21.1050  -27.6140 C   0  0  0  0  0  0  0  0  0  0  0  0
   -5.2140   22.5300  -30.9310 C   0  0  0  0  0  0  0  0  0  0  0  0
   -5.7490   21.3850  -31.5280 C   0  0  0  0  0  0  0  0  0  0  0  0
   -5.5765   17.1399  -30.5357 H   0  0  0  0  0  0  0  0  0  0  0  0
   -4.3201   15.1494  -31.3597 H   0  0  0  0  0  0  0  0  0  0  0  0
   -4.6768   14.3162  -33.6848 H   0  0  0  0  0  0  0  0  0  0  0  0
   -6.3091   15.4623  -35.1862 H   0  0  0  0  0  0  0  0  0  0  0  0
   -7.5829   17.4461  -34.3644 H   0  0  0  0  0  0  0  0  0  0  0  0
   -8.8703   22.5675  -32.2783 H   0  0  0  0  0  0  0  0  0  0  0  0
   -7.9226   24.6033  -31.1944 H   0  0  0  0  0  0  0  0  0  0  0  0
   -3.9015   22.6698  -29.3233 H   0  0  0  0  0  0  0  0  0  0  0  0
    0.2408   24.9449  -27.6939 H   0  0  0  0  0  0  0  0  0  0  0  0
    0.9453   22.8734  -26.6906 H   0  0  0  0  0  0  0  0  0  0  0  0
   -0.5000   22.3949  -25.7198 H   0  0  0  0  0  0  0  0  0  0  0  0
    0.8486   20.8990  -28.0018 H   0  0  0  0  0  0  0  0  0  0  0  0
    0.5048   20.3707  -26.2765 H   0  0  0  0  0  0  0  0  0  0  0  0
   -1.0112   19.8252  -28.6266 H   0  0  0  0  0  0  0  0  0  0  0  0
   -1.3538   19.4162  -26.8687 H   0  0  0  0  0  0  0  0  0  0  0  0
   -3.1794   20.6474  -28.2593 H   0  0  0  0  0  0  0  0  0  0  0  0
   -2.7817   21.1969  -26.5810 H   0  0  0  0  0  0  0  0  0  0  0  0
   -4.1836   22.5168  -30.5461 H   0  0  0  0  0  0  0  0  0  0  0  0
   -5.1437   20.4693  -31.5988 H   0  0  0  0  0  0  0  0  0  0  0  0
  1  2  2  0
  2  3  2  0
  2  4  1  0
  4  5  1  0
  5  6  2  0
  6  7  1  0
  7  8  2  0
  8  9  1  0
  9 10  2  0
  2 11  1  0
 11 12  2  0
 12 13  1  0
 13 14  2  0
 14 15  1  0
 15 16  2  0
 15 17  2  0
 15 18  1  0
 18 19  1  0
 19 20  2  0
 20 21  1  0
 21 22  2  0
 22 23  1  0
 23 24  2  0
 24 25  1  0
 22 26  1  0
 26 27  1  0
 27 28  1  0
 28 29  1  0
 14 30  1  0
 30 31  2  0
 10  5  1  0
 31 11  1  0
 24 19  1  0
 29 21  1  0
  6 32  1  0
  7 33  1  0
  8 34  1  0
  9 35  1  0
 10 36  1  0
 12 37  1  0
 13 38  1  0
 20 39  1  0
 23 40  1  0
 26 41  1  0
 26 42  1  0
 27 43  1  0
 27 44  1  0
 28 45  1  0
 28 46  1  0
 29 47  1  0
 29 48  1  0
 30 49  1  0
 31 50  1  0
M  CHG  3   4  -1  18  -1  25  -1
M  END
>  <UniqueID>  (27) 
27

>  <SMILES>  (27) 
O=S(=O)([N-]c1ccccc1)c1ccc(S(=O)(=O)[N-]c2cc3c(cc2[O-])CCCC3)cc1

>  <Energy>  (27) 
67.41715399462552

>  <Genealogy>  (27) 
O=S(=O)([N-]c1ccccc1)c1ccc(S(=O)(=O)[N-]c2cc3c(cc2[O-])CCCC3)cc1 (protonated)
O=S(=O)([N-]c1ccccc1)c1ccc(S(=O)(=O)[N-]c2cc3c(cc2[O-])CCCC3)cc1 (3D coordinates assigned)
O=S(=O)([N-]c1ccccc1)c1ccc(S(=O)(=O)[N-]c2cc3c(cc2[O-])CCCC3)cc1 (nonaromatic ring conformer: 67.41715399462552 kcal/mol)

>  <smiles>  (27) 
O=S(=O)(Nc1ccccc1)c1ccc(S(=O)(=O)Nc2cc3c(cc2O)CCCC3)cc1

>  <score_type>  (27) 
oracle

>  <origin>  (27) 
adgpu

>  <m_score__min__energy>  (27) 
-15.4

>  <m_primary>  (27) 
energy

$$$$
27:0
     RDKit          3D

 41 43  0  0  0  0  0  0  0  0999 V2000
   -2.6300   20.3190  -30.9830 O   0  0  0  0  0  0  0  0  0  0  0  0
   -2.6140   21.4890  -30.5170 C   0  0  0  0  0  0  0  0  0  0  0  0
   -3.1690   22.5500  -31.3070 N   0  0  0  0  0  0  0  0  0  0  0  0
   -4.4570   23.1560  -31.1210 C   0  0  0  0  0  0  0  0  0  0  0  0
   -5.6000   22.4060  -31.4240 C   0  0  0  0  0  0  0  0  0  0  0  0
   -6.8790   22.9480  -31.2370 C   0  0  0  0  0  0  0  0  0  0  0  0
   -8.3010   21.9700  -31.5890 S   0  0  0  0  0  0  0  0  0  0  0  0
   -9.3860   22.8340  -32.1730 O   0  0  0  0  0  0  0  0  0  0  0  0
   -8.7910   21.3660  -30.3020 O   0  0  0  0  0  0  0  0  0  0  0  0
   -7.8790   20.7000  -32.7180 N   0  0  0  0  0  0  0  0  0  0  0  0
   -9.0530   19.8750  -33.0270 C   0  0  0  0  0  0  0  0  0  0  0  0
   -9.0540   18.6760  -32.0900 C   0  0  0  0  0  0  0  0  0  0  0  0
   -7.6650   18.6330  -31.4800 C   0  0  0  0  0  0  0  0  0  0  0  0
   -6.9030   19.7830  -32.1180 C   0  0  0  0  0  0  0  0  0  0  0  0
   -7.0130   24.2560  -30.7570 C   0  0  0  0  0  0  0  0  0  0  0  0
   -5.8780   25.0250  -30.4890 C   0  0  0  0  0  0  0  0  0  0  0  0
   -4.6010   24.4880  -30.6810 C   0  0  0  0  0  0  0  0  0  0  0  0
   -3.4890   25.2940  -30.4620 O   0  0  0  0  0  0  0  0  0  0  0  0
   -2.0550   21.7230  -29.1640 C   0  0  0  0  0  0  0  0  0  0  0  0
   -2.1260   20.6970  -28.2050 C   0  0  0  0  0  0  0  0  0  0  0  0
   -1.5890   20.8830  -26.9290 C   0  0  0  0  0  0  0  0  0  0  0  0
   -0.9850   22.0940  -26.5930 C   0  0  0  0  0  0  0  0  0  0  0  0
   -0.9280   23.1300  -27.5280 C   0  0  0  0  0  0  0  0  0  0  0  0
   -1.4720   22.9590  -28.8100 C   0  0  0  0  0  0  0  0  0  0  0  0
   -1.4520   24.0190  -29.7160 O   0  0  0  0  0  0  0  0  0  0  0  0
   -5.4932   21.3823  -31.8122 H   0  0  0  0  0  0  0  0  0  0  0  0
   -9.9705   20.4634  -32.8791 H   0  0  0  0  0  0  0  0  0  0  0  0
   -9.0149   19.5383  -34.0735 H   0  0  0  0  0  0  0  0  0  0  0  0
   -9.8142   18.8028  -31.3051 H   0  0  0  0  0  0  0  0  0  0  0  0
   -9.2935   17.7437  -32.6225 H   0  0  0  0  0  0  0  0  0  0  0  0
   -7.7201   18.7669  -30.3896 H   0  0  0  0  0  0  0  0  0  0  0  0
   -7.1707   17.6671  -31.6607 H   0  0  0  0  0  0  0  0  0  0  0  0
   -6.3164   20.3118  -31.3523 H   0  0  0  0  0  0  0  0  0  0  0  0
   -6.2142   19.4034  -32.8871 H   0  0  0  0  0  0  0  0  0  0  0  0
   -8.0145   24.6794  -30.5904 H   0  0  0  0  0  0  0  0  0  0  0  0
   -5.9891   26.0572  -30.1254 H   0  0  0  0  0  0  0  0  0  0  0  0
   -2.6075   19.7418  -28.4613 H   0  0  0  0  0  0  0  0  0  0  0  0
   -1.6427   20.0723  -26.1875 H   0  0  0  0  0  0  0  0  0  0  0  0
   -0.5532   22.2335  -25.5910 H   0  0  0  0  0  0  0  0  0  0  0  0
   -0.4540   24.0852  -27.2578 H   0  0  0  0  0  0  0  0  0  0  0  0
   -2.2480   24.2240  -30.3100 H   0  0  0  0  0  0  0  0  0  0  0  0
  1  2  2  0
  2  3  1  0
  3  4  1  0
  4  5  2  0
  5  6  1  0
  6  7  1  0
  7  8  2  0
  7  9  2  0
  7 10  1  0
 10 11  1  0
 11 12  1  0
 12 13  1  0
 13 14  1  0
  6 15  2  0
 15 16  1  0
 16 17  2  0
 17 18  1  0
  2 19  1  0
 19 20  2  0
 20 21  1  0
 21 22  2  0
 22 23  1  0
 23 24  2  0
 24 25  1  0
 17  4  1  0
 24 19  1  0
 14 10  1  0
  5 26  1  0
 11 27  1  0
 11 28  1  0
 12 29  1  0
 12 30  1  0
 13 31  1  0
 13 32  1  0
 14 33  1  0
 14 34  1  0
 15 35  1  0
 16 36  1  0
 20 37  1  0
 21 38  1  0
 22 39  1  0
 23 40  1  0
 25 41  1  0
M  CHG  2   3  -1  18  -1
M  END
>  <UniqueID>  (28) 
28

>  <SMILES>  (28) 
O=C([N-]c1cc(S(=O)(=O)N2CCCC2)ccc1[O-])c1ccccc1O

>  <Energy>  (28) 
53.26467190381697

>  <Genealogy>  (28) 
O=C([N-]c1cc(S(=O)(=O)N2CCCC2)ccc1[O-])c1ccccc1O (protonated)
O=C([N-]c1cc(S(=O)(=O)N2CCCC2)ccc1[O-])c1ccccc1O (3D coordinates assigned)
O=C([N-]c1cc(S(=O)(=O)N2CCCC2)ccc1[O-])c1ccccc1O (nonaromatic ring conformer: 53.26467190381697 kcal/mol)

>  <smiles>  (28) 
O=C(Nc1cc(S(=O)(=O)N2CCCC2)ccc1O)c1ccccc1O

>  <score_type>  (28) 
oracle

>  <origin>  (28) 
adgpu

>  <m_score__min__energy>  (28) 
-12.69

>  <m_primary>  (28) 
energy

$$$$
28:0
     RDKit          3D

 39 41  0  0  0  0  0  0  0  0999 V2000
   -2.3140   25.3570  -28.8630 O   0  0  0  0  0  0  0  0  0  0  0  0
   -2.7910   24.5570  -29.7120 C   0  0  0  0  0  0  0  0  0  0  0  0
   -3.9280   24.9720  -30.4820 N   0  0  0  0  0  0  0  0  0  0  0  0
   -5.1230   24.2100  -30.6990 C   0  0  0  0  0  0  0  0  0  0  0  0
   -5.7600   23.5240  -29.6500 C   0  0  0  0  0  0  0  0  0  0  0  0
   -6.9180   22.7810  -29.8950 C   0  0  0  0  0  0  0  0  0  0  0  0
   -7.4570   22.7190  -31.1880 C   0  0  0  0  0  0  0  0  0  0  0  0
   -8.9080   21.7600  -31.5030 S   0  0  0  0  0  0  0  0  0  0  0  0
   -9.5820   21.4480  -30.1950 O   0  0  0  0  0  0  0  0  0  0  0  0
   -9.8610   22.5720  -32.3340 O   0  0  0  0  0  0  0  0  0  0  0  0
   -8.5600   20.2630  -32.3340 N   0  0  0  0  0  0  0  0  0  0  0  0
   -8.6940   19.1020  -31.4570 C   0  0  0  0  0  0  0  0  0  0  0  0
   -7.8000   18.0180  -32.0380 C   0  0  0  0  0  0  0  0  0  0  0  0
   -6.8160   18.7490  -32.9420 C   0  0  0  0  0  0  0  0  0  0  0  0
   -7.1870   20.2200  -32.8340 C   0  0  0  0  0  0  0  0  0  0  0  0
   -6.8460   23.4400  -32.2240 C   0  0  0  0  0  0  0  0  0  0  0  0
   -5.6880   24.1840  -31.9780 C   0  0  0  0  0  0  0  0  0  0  0  0
   -2.1300   23.2460  -29.9340 C   0  0  0  0  0  0  0  0  0  0  0  0
   -2.8500   22.1760  -30.4910 C   0  0  0  0  0  0  0  0  0  0  0  0
   -2.2320   20.9440  -30.7010 C   0  0  0  0  0  0  0  0  0  0  0  0
   -0.8880   20.7880  -30.3640 C   0  0  0  0  0  0  0  0  0  0  0  0
   -0.1930   21.8290  -29.8370 N   0  0  0  0  0  0  0  0  0  0  0  0
   -0.7700   23.0420  -29.6160 C   0  0  0  0  0  0  0  0  0  0  0  0
   -0.0780   23.9670  -29.1140 O   0  0  0  0  0  0  0  0  0  0  0  0
   -5.3452   23.5723  -28.6323 H   0  0  0  0  0  0  0  0  0  0  0  0
   -7.4085   22.2428  -29.0705 H   0  0  0  0  0  0  0  0  0  0  0  0
   -8.3695   19.3564  -30.4372 H   0  0  0  0  0  0  0  0  0  0  0  0
   -9.7398   18.7663  -31.3977 H   0  0  0  0  0  0  0  0  0  0  0  0
   -7.2655   17.4885  -31.2355 H   0  0  0  0  0  0  0  0  0  0  0  0
   -8.3783   17.2616  -32.5888 H   0  0  0  0  0  0  0  0  0  0  0  0
   -5.7836   18.5860  -32.5990 H   0  0  0  0  0  0  0  0  0  0  0  0
   -6.8676   18.3886  -33.9800 H   0  0  0  0  0  0  0  0  0  0  0  0
   -6.5108   20.7326  -32.1340 H   0  0  0  0  0  0  0  0  0  0  0  0
   -7.1006   20.7258  -33.8070 H   0  0  0  0  0  0  0  0  0  0  0  0
   -7.2797   23.4202  -33.2347 H   0  0  0  0  0  0  0  0  0  0  0  0
   -5.2189   24.7519  -32.7949 H   0  0  0  0  0  0  0  0  0  0  0  0
   -3.9073   22.3109  -30.7630 H   0  0  0  0  0  0  0  0  0  0  0  0
   -2.7989   20.1037  -31.1282 H   0  0  0  0  0  0  0  0  0  0  0  0
   -0.3900   19.8205  -30.5252 H   0  0  0  0  0  0  0  0  0  0  0  0
  1  2  2  0
  2  3  1  0
  3  4  1  0
  4  5  2  0
  5  6  1  0
  6  7  2  0
  7  8  1  0
  8  9  2  0
  8 10  2  0
  8 11  1  0
 11 12  1  0
 12 13  1  0
 13 14  1  0
 14 15  1  0
  7 16  1  0
 16 17  2  0
  2 18  1  0
 18 19  2  0
 19 20  1  0
 20 21  2  0
 21 22  1  0
 22 23  1  0
 23 24  2  0
 17  4  1  0
 23 18  1  0
 15 11  1  0
  5 25  1  0
  6 26  1  0
 12 27  1  0
 12 28  1  0
 13 29  1  0
 13 30  1  0
 14 31  1  0
 14 32  1  0
 15 33  1  0
 15 34  1  0
 16 35  1  0
 17 36  1  0
 19 37  1  0
 20 38  1  0
 21 39  1  0
M  CHG  2   3  -1  22  -1
M  END
>  <UniqueID>  (29) 
29

>  <SMILES>  (29) 
O=C([N-]c1ccc(S(=O)(=O)N2CCCC2)cc1)c1ccc[n-]c1=O

>  <Energy>  (29) 
50.3390063952302

>  <Genealogy>  (29) 
O=C([N-]c1ccc(S(=O)(=O)N2CCCC2)cc1)c1ccc[n-]c1=O (protonated)
O=C([N-]c1ccc(S(=O)(=O)N2CCCC2)cc1)c1ccc[n-]c1=O (3D coordinates assigned)
O=C([N-]c1ccc(S(=O)(=O)N2CCCC2)cc1)c1ccc[n-]c1=O (nonaromatic ring conformer: 50.3390063952302 kcal/mol)

>  <smiles>  (29) 
O=C(Nc1ccc(S(=O)(=O)N2CCCC2)cc1)c1ccc[nH]c1=O

>  <score_type>  (29) 
oracle

>  <origin>  (29) 
adgpu

>  <m_score__min__energy>  (29) 
-10.94

>  <m_primary>  (29) 
energy

$$$$
29:0
     RDKit          3D

 53 56  0  0  0  0  0  0  0  0999 V2000
   -7.4980   20.1710  -33.5600 N   0  0  0  0  0  0  0  0  0  0  0  0
   -7.4930   20.9900  -32.3880 C   0  0  0  0  0  0  0  0  0  0  0  0
   -8.6560   21.1270  -31.6160 C   0  0  0  0  0  0  0  0  0  0  0  0
   -8.6480   21.9300  -30.4720 C   0  0  0  0  0  0  0  0  0  0  0  0
   -7.4840   22.6020  -30.0950 C   0  0  0  0  0  0  0  0  0  0  0  0
   -6.3180   22.4790  -30.8630 C   0  0  0  0  0  0  0  0  0  0  0  0
   -4.8520   23.3530  -30.4230 S   0  0  0  0  0  0  0  0  0  0  0  0
   -4.9430   23.6890  -28.9610 O   0  0  0  0  0  0  0  0  0  0  0  0
   -4.7370   24.6330  -31.2000 O   0  0  0  0  0  0  0  0  0  0  0  0
   -3.4210   22.3510  -30.7320 C   0  0  0  0  0  0  0  0  0  0  0  0
   -3.5960   21.1200  -31.3860 C   0  0  0  0  0  0  0  0  0  0  0  0
   -2.4940   20.3480  -31.7570 C   0  0  0  0  0  0  0  0  0  0  0  0
   -1.2030   20.8010  -31.4910 C   0  0  0  0  0  0  0  0  0  0  0  0
   -1.0090   22.0160  -30.8330 C   0  0  0  0  0  0  0  0  0  0  0  0
   -2.1090   22.7850  -30.4180 C   0  0  0  0  0  0  0  0  0  0  0  0
   -1.8430   24.0380  -29.6830 C   0  0  0  0  0  0  0  0  0  0  0  0
   -2.7280   24.9330  -29.6620 O   0  0  0  0  0  0  0  0  0  0  0  0
   -0.6240   24.2530  -28.9620 N   0  0  0  0  0  0  0  0  0  0  0  0
   -0.4530   24.2580  -27.5350 C   0  0  0  0  0  0  0  0  0  0  0  0
   -0.0560   25.4270  -26.8590 C   0  0  0  0  0  0  0  0  0  0  0  0
    0.1050   25.4260  -25.4730 C   0  0  0  0  0  0  0  0  0  0  0  0
   -0.1490   24.2670  -24.7400 C   0  0  0  0  0  0  0  0  0  0  0  0
   -0.5750   23.1090  -25.3920 C   0  0  0  0  0  0  0  0  0  0  0  0
   -0.7350   23.0900  -26.7890 C   0  0  0  0  0  0  0  0  0  0  0  0
   -1.1890   21.8810  -27.4320 N   0  0  0  0  0  0  0  0  0  0  0  0
   -0.2260   20.9060  -27.9590 C   0  0  0  0  0  0  0  0  0  0  0  0
   -0.5220   19.4940  -27.4010 C   0  0  0  0  0  0  0  0  0  0  0  0
   -1.8000   19.3670  -26.7950 O   0  0  0  0  0  0  0  0  0  0  0  0
   -2.7850   20.0180  -27.5710 C   0  0  0  0  0  0  0  0  0  0  0  0
   -2.6150   21.5340  -27.4400 C   0  0  0  0  0  0  0  0  0  0  0  0
   -6.3250   21.6670  -32.0070 C   0  0  0  0  0  0  0  0  0  0  0  0
   -6.6390   20.0680  -34.1440 H   0  0  0  0  0  0  0  0  0  0  0  0
   -8.3620   19.6620  -33.8510 H   0  0  0  0  0  0  0  0  0  0  0  0
   -9.5761   20.6015  -31.9114 H   0  0  0  0  0  0  0  0  0  0  0  0
   -9.5611   22.0327  -29.8673 H   0  0  0  0  0  0  0  0  0  0  0  0
   -7.4818   23.2302  -29.1921 H   0  0  0  0  0  0  0  0  0  0  0  0
   -4.6118   20.7610  -31.6079 H   0  0  0  0  0  0  0  0  0  0  0  0
   -2.6445   19.3813  -32.2597 H   0  0  0  0  0  0  0  0  0  0  0  0
   -0.3355   20.1996  -31.8004 H   0  0  0  0  0  0  0  0  0  0  0  0
    0.0125   22.3743  -30.6378 H   0  0  0  0  0  0  0  0  0  0  0  0
    0.1290   26.3497  -27.4285 H   0  0  0  0  0  0  0  0  0  0  0  0
    0.4328   26.3408  -24.9576 H   0  0  0  0  0  0  0  0  0  0  0  0
   -0.0136   24.2656  -23.6484 H   0  0  0  0  0  0  0  0  0  0  0  0
   -0.7878   22.2019  -24.8072 H   0  0  0  0  0  0  0  0  0  0  0  0
   -0.2977   20.8836  -29.0564 H   0  0  0  0  0  0  0  0  0  0  0  0
    0.7867   21.2047  -27.6505 H   0  0  0  0  0  0  0  0  0  0  0  0
   -0.4599   18.7745  -28.2307 H   0  0  0  0  0  0  0  0  0  0  0  0
    0.2228   19.3006  -26.6149 H   0  0  0  0  0  0  0  0  0  0  0  0
   -2.6737   19.7259  -28.6257 H   0  0  0  0  0  0  0  0  0  0  0  0
   -3.7845   19.7280  -27.2149 H   0  0  0  0  0  0  0  0  0  0  0  0
   -3.1058   22.0303  -28.2902 H   0  0  0  0  0  0  0  0  0  0  0  0
   -3.0730   21.8683  -26.4974 H   0  0  0  0  0  0  0  0  0  0  0  0
   -5.4100   21.5607  -32.6082 H   0  0  0  0  0  0  0  0  0  0  0  0
  1  2  1  0
  2  3  2  0
  3  4  1  0
  4  5  2  0
  5  6  1  0
  6  7  1  0
  7  8  2  0
  7  9  2  0
  7 10  1  0
 10 11  2  0
 11 12  1  0
 12 13  2  0
 13 14  1  0
 14 15  2  0
 15 16  1  0
 16 17  2  0
 16 18  1  0
 18 19  1  0
 19 20  2  0
 20 21  1  0
 21 22  2  0
 22 23  1  0
 23 24  2  0
 24 25  1  0
 25 26  1  0
 26 27  1  0
 27 28  1  0
 28 29  1  0
 29 30  1  0
  6 31  2  0
 31  2  1  0
 15 10  1  0
 24 19  1  0
 30 25  1  0
  1 32  1  0
  1 33  1  0
  3 34  1  0
  4 35  1  0
  5 36  1  0
 11 37  1  0
 12 38  1  0
 13 39  1  0
 14 40  1  0
 20 41  1  0
 21 42  1  0
 22 43  1  0
 23 44  1  0
 26 45  1  0
 26 46  1  0
 27 47  1  0
 27 48  1  0
 29 49  1  0
 29 50  1  0
 30 51  1  0
 30 52  1  0
 31 53  1  0
M  CHG  1  18  -1
M  END
>  <UniqueID>  (30) 
30

>  <SMILES>  (30) 
Nc1cccc(S(=O)(=O)c2ccccc2C(=O)[N-]c2ccccc2N2CCOCC2)c1

>  <Energy>  (30) 
78.38089422513112

>  <Genealogy>  (30) 
Nc1cccc(S(=O)(=O)c2ccccc2C(=O)[N-]c2ccccc2N2CCOCC2)c1 (protonated)
Nc1cccc(S(=O)(=O)c2ccccc2C(=O)[N-]c2ccccc2N2CCOCC2)c1 (3D coordinates assigned)
Nc1cccc(S(=O)(=O)c2ccccc2C(=O)[N-]c2ccccc2N2CCOCC2)c1 (nonaromatic ring conformer: 78.38089422513112 kcal/mol)

>  <smiles>  (30) 
Nc1cccc(S(=O)(=O)c2ccccc2C(=O)Nc2ccccc2N2CCOCC2)c1

>  <score_type>  (30) 
oracle

>  <origin>  (30) 
adgpu

>  <m_score__min__energy>  (30) 
-10.76

>  <m_primary>  (30) 
energy

$$$$
30:0
     RDKit          3D

 39 41  0  0  0  0  0  0  0  0999 V2000
   -4.6350   19.4790  -33.8790 O   0  0  0  0  0  0  0  0  0  0  0  0
   -4.2790   20.6010  -33.4250 C   0  0  0  0  0  0  0  0  0  0  0  0
   -2.9490   21.0820  -33.6640 N   0  0  0  0  0  0  0  0  0  0  0  0
   -1.7590   20.7030  -32.9550 C   0  0  0  0  0  0  0  0  0  0  0  0
   -1.8110   19.9540  -31.7630 C   0  0  0  0  0  0  0  0  0  0  0  0
   -0.6330   19.6220  -31.0880 C   0  0  0  0  0  0  0  0  0  0  0  0
    0.6020   20.0420  -31.5850 C   0  0  0  0  0  0  0  0  0  0  0  0
    0.6620   20.8060  -32.7530 C   0  0  0  0  0  0  0  0  0  0  0  0
   -0.5140   21.1420  -33.4340 C   0  0  0  0  0  0  0  0  0  0  0  0
   -0.4410   21.9080  -34.5910 O   0  0  0  0  0  0  0  0  0  0  0  0
   -5.2520   21.4450  -32.6930 C   0  0  0  0  0  0  0  0  0  0  0  0
   -6.6160   21.1000  -32.6610 C   0  0  0  0  0  0  0  0  0  0  0  0
   -7.5330   21.8990  -31.9740 C   0  0  0  0  0  0  0  0  0  0  0  0
   -7.1030   23.0470  -31.3090 C   0  0  0  0  0  0  0  0  0  0  0  0
   -5.7500   23.4040  -31.3250 C   0  0  0  0  0  0  0  0  0  0  0  0
   -5.2240   24.8590  -30.4840 S   0  0  0  0  0  0  0  0  0  0  0  0
   -5.7910   26.0580  -31.1900 O   0  0  0  0  0  0  0  0  0  0  0  0
   -5.7070   24.8640  -29.0590 O   0  0  0  0  0  0  0  0  0  0  0  0
   -3.4930   24.9540  -30.4990 N   0  0  0  0  0  0  0  0  0  0  0  0
   -2.6140   24.1670  -29.6830 C   0  0  0  0  0  0  0  0  0  0  0  0
   -2.7110   22.7630  -29.6190 C   0  0  0  0  0  0  0  0  0  0  0  0
   -1.8350   22.0320  -28.8120 C   0  0  0  0  0  0  0  0  0  0  0  0
   -0.8580   22.6910  -28.0620 C   0  0  0  0  0  0  0  0  0  0  0  0
   -0.7550   24.0830  -28.1180 C   0  0  0  0  0  0  0  0  0  0  0  0
   -1.6300   24.8210  -28.9240 C   0  0  0  0  0  0  0  0  0  0  0  0
   -1.5160   26.2060  -28.9680 O   0  0  0  0  0  0  0  0  0  0  0  0
   -4.8270   22.6030  -32.0140 C   0  0  0  0  0  0  0  0  0  0  0  0
   -2.7824   19.6292  -31.3619 H   0  0  0  0  0  0  0  0  0  0  0  0
   -0.6792   19.0284  -30.1631 H   0  0  0  0  0  0  0  0  0  0  0  0
    1.5281   19.7713  -31.0568 H   0  0  0  0  0  0  0  0  0  0  0  0
    1.6352   21.1442  -33.1383 H   0  0  0  0  0  0  0  0  0  0  0  0
   -6.9625   20.1946  -33.1807 H   0  0  0  0  0  0  0  0  0  0  0  0
   -8.5974   21.6219  -31.9575 H   0  0  0  0  0  0  0  0  0  0  0  0
   -7.8293   23.6735  -30.7705 H   0  0  0  0  0  0  0  0  0  0  0  0
   -3.4796   22.2398  -30.2068 H   0  0  0  0  0  0  0  0  0  0  0  0
   -1.9150   20.9358  -28.7673 H   0  0  0  0  0  0  0  0  0  0  0  0
   -0.1697   22.1137  -27.4272 H   0  0  0  0  0  0  0  0  0  0  0  0
    0.0154   24.6004  -27.5274 H   0  0  0  0  0  0  0  0  0  0  0  0
   -3.7630   22.8818  -32.0239 H   0  0  0  0  0  0  0  0  0  0  0  0
  1  2  2  0
  2  3  1  0
  3  4  1  0
  4  5  2  0
  5  6  1  0
  6  7  2  0
  7  8  1  0
  8  9  2  0
  9 10  1  0
  2 11  1  0
 11 12  2  0
 12 13  1  0
 13 14  2  0
 14 15  1  0
 15 16  1  0
 16 17  2  0
 16 18  2  0
 16 19  1  0
 19 20  1  0
 20 21  2  0
 21 22  1  0
 22 23  2  0
 23 24  1  0
 24 25  2  0
 25 26  1  0
 15 27  2  0
  9  4  1  0
 27 11  1  0
 25 20  1  0
  5 28  1  0
  6 29  1  0
  7 30  1  0
  8 31  1  0
 12 32  1  0
 13 33  1  0
 14 34  1  0
 21 35  1  0
 22 36  1  0
 23 37  1  0
 24 38  1  0
 27 39  1  0
M  CHG  4   3  -1  10  -1  19  -1  26  -1
M  END
>  <UniqueID>  (31) 
31

>  <SMILES>  (31) 
O=C([N-]c1ccccc1[O-])c1cccc(S(=O)(=O)[N-]c2ccccc2[O-])c1

>  <Energy>  (31) 
50.19335411643156

>  <Genealogy>  (31) 
O=C([N-]c1ccccc1[O-])c1cccc(S(=O)(=O)[N-]c2ccccc2[O-])c1 (protonated)
O=C([N-]c1ccccc1[O-])c1cccc(S(=O)(=O)[N-]c2ccccc2[O-])c1 (3D coordinates assigned)
O=C([N-]c1ccccc1[O-])c1cccc(S(=O)(=O)[N-]c2ccccc2[O-])c1 (optimized conformer: 50.19335411643156 kcal/mol)

>  <smiles>  (31) 
O=C(Nc1ccccc1O)c1cccc(S(=O)(=O)Nc2ccccc2O)c1

>  <score_type>  (31) 
oracle

>  <origin>  (31) 
adgpu

>  <m_score__min__energy>  (31) 
-13.57

>  <m_primary>  (31) 
energy

$$$$
31:0
     RDKit          3D

 58 60  0  0  0  0  0  0  0  0999 V2000
   -2.6050   20.5470  -28.3110 C   0  0  0  0  0  0  0  0  0  0  0  0
   -2.3100   22.0160  -28.4570 C   0  0  0  0  0  0  0  0  0  0  0  0
   -3.1210   22.8000  -29.2850 C   0  0  0  0  0  0  0  0  0  0  0  0
   -2.8760   24.1720  -29.4320 C   0  0  0  0  0  0  0  0  0  0  0  0
   -3.6760   24.9830  -30.3060 N   0  0  0  0  0  0  0  0  0  0  0  0
   -4.8660   24.5640  -30.9830 C   0  0  0  0  0  0  0  0  0  0  0  0
   -4.8000   23.7830  -31.9710 O   0  0  0  0  0  0  0  0  0  0  0  0
   -6.1380   24.9820  -30.4780 N   0  0  0  0  0  0  0  0  0  0  0  0
   -7.2360   24.0670  -30.1820 C   0  0  0  0  0  0  0  0  0  0  0  0
   -7.4470   23.0600  -31.3220 C   0  0  0  0  0  0  0  0  0  0  0  0
   -7.2590   21.6630  -30.8580 N   0  0  0  0  0  0  0  0  0  0  0  0
   -5.9710   21.0850  -31.2950 C   0  0  0  0  0  0  0  0  0  0  0  0
   -5.9550   20.7810  -32.8140 C   0  0  0  0  0  0  0  0  0  0  0  0
   -7.2470   20.8130  -33.3980 O   0  0  0  0  0  0  0  0  0  0  0  0
   -8.1530   20.0760  -32.6030 C   0  0  0  0  0  0  0  0  0  0  0  0
   -8.3840   20.7760  -31.2450 C   0  0  0  0  0  0  0  0  0  0  0  0
   -1.8060   24.7620  -28.7480 C   0  0  0  0  0  0  0  0  0  0  0  0
   -1.5480   26.1140  -28.9530 O   0  0  0  0  0  0  0  0  0  0  0  0
   -1.0100   24.0030  -27.8640 C   0  0  0  0  0  0  0  0  0  0  0  0
    0.2660   24.8000  -26.9100 S   0  0  0  0  0  0  0  0  0  0  0  0
    0.8630   23.8460  -25.9140 O   0  0  0  0  0  0  0  0  0  0  0  0
    1.3710   25.2400  -27.8300 O   0  0  0  0  0  0  0  0  0  0  0  0
   -0.4210   26.2120  -26.0330 C   0  0  0  0  0  0  0  0  0  0  0  0
   -1.0350   25.7550  -24.6880 C   0  0  0  0  0  0  0  0  0  0  0  0
   -1.1620   26.9240  -23.7070 C   0  0  0  0  0  0  0  0  0  0  0  0
    0.2130   27.5300  -23.3610 C   0  0  0  0  0  0  0  0  0  0  0  0
    1.2680   27.3370  -24.4700 C   0  0  0  0  0  0  0  0  0  0  0  0
    0.6320   27.3410  -25.8640 C   0  0  0  0  0  0  0  0  0  0  0  0
   -1.2580   22.6120  -27.7370 C   0  0  0  0  0  0  0  0  0  0  0  0
   -0.4710   21.7890  -26.9240 O   0  0  0  0  0  0  0  0  0  0  0  0
   -2.6570   20.2878  -27.2432 H   0  0  0  0  0  0  0  0  0  0  0  0
   -3.5673   20.3167  -28.7915 H   0  0  0  0  0  0  0  0  0  0  0  0
   -1.8062   19.9631  -28.7915 H   0  0  0  0  0  0  0  0  0  0  0  0
   -3.9586   22.3351  -29.8256 H   0  0  0  0  0  0  0  0  0  0  0  0
   -7.0052   23.5179  -29.2572 H   0  0  0  0  0  0  0  0  0  0  0  0
   -8.1571   24.6568  -30.0653 H   0  0  0  0  0  0  0  0  0  0  0  0
   -8.4692   23.1720  -31.7127 H   0  0  0  0  0  0  0  0  0  0  0  0
   -6.7026   23.2657  -32.1053 H   0  0  0  0  0  0  0  0  0  0  0  0
   -5.1661   21.7995  -31.0676 H   0  0  0  0  0  0  0  0  0  0  0  0
   -5.8255   20.1362  -30.7578 H   0  0  0  0  0  0  0  0  0  0  0  0
   -5.3249   21.5306  -33.3151 H   0  0  0  0  0  0  0  0  0  0  0  0
   -5.5606   19.7622  -32.9421 H   0  0  0  0  0  0  0  0  0  0  0  0
   -9.1129   19.9918  -33.1336 H   0  0  0  0  0  0  0  0  0  0  0  0
   -7.7297   19.0777  -32.4183 H   0  0  0  0  0  0  0  0  0  0  0  0
   -9.3010   21.3799  -31.3121 H   0  0  0  0  0  0  0  0  0  0  0  0
   -8.4676   19.9922  -30.4777 H   0  0  0  0  0  0  0  0  0  0  0  0
   -1.2340   26.6453  -26.6341 H   0  0  0  0  0  0  0  0  0  0  0  0
   -2.0340   25.3343  -24.8750 H   0  0  0  0  0  0  0  0  0  0  0  0
   -0.3710   24.9995  -24.2428 H   0  0  0  0  0  0  0  0  0  0  0  0
   -1.7912   27.7037  -24.1611 H   0  0  0  0  0  0  0  0  0  0  0  0
   -1.6132   26.5448  -22.7782 H   0  0  0  0  0  0  0  0  0  0  0  0
    0.0842   28.6085  -23.1870 H   0  0  0  0  0  0  0  0  0  0  0  0
    0.5826   27.0043  -22.4682 H   0  0  0  0  0  0  0  0  0  0  0  0
    2.0015   28.1546  -24.4105 H   0  0  0  0  0  0  0  0  0  0  0  0
    1.7521   26.3612  -24.3167 H   0  0  0  0  0  0  0  0  0  0  0  0
    0.1397   28.3113  -26.0258 H   0  0  0  0  0  0  0  0  0  0  0  0
    1.4314   27.1693  -26.5998 H   0  0  0  0  0  0  0  0  0  0  0  0
    0.2710   22.1230  -26.3240 H   0  0  0  0  0  0  0  0  0  0  0  0
  1  2  1  0
  2  3  2  0
  3  4  1  0
  4  5  1  0
  5  6  1  0
  6  7  2  0
  6  8  1  0
  8  9  1  0
  9 10  1  0
 10 11  1  0
 11 12  1  0
 12 13  1  0
 13 14  1  0
 14 15  1  0
 15 16  1  0
  4 17  2  0
 17 18  1  0
 17 19  1  0
 19 20  1  0
 20 21  2  0
 20 22  2  0
 20 23  1  0
 23 24  1  0
 24 25  1  0
 25 26  1  0
 26 27  1  0
 27 28  1  0
 19 29  2  0
 29 30  1  0
 29  2  1  0
 16 11  1  0
 28 23  1  0
  1 31  1  0
  1 32  1  0
  1 33  1  0
  3 34  1  0
  9 35  1  0
  9 36  1  0
 10 37  1  0
 10 38  1  0
 12 39  1  0
 12 40  1  0
 13 41  1  0
 13 42  1  0
 15 43  1  0
 15 44  1  0
 16 45  1  0
 16 46  1  0
 23 47  1  0
 24 48  1  0
 24 49  1  0
 25 50  1  0
 25 51  1  0
 26 52  1  0
 26 53  1  0
 27 54  1  0
 27 55  1  0
 28 56  1  0
 28 57  1  0
 30 58  1  0
M  CHG  3   5  -1   8  -1  18  -1
M  END
>  <UniqueID>  (32) 
32

>  <SMILES>  (32) 
Cc1cc([N-]C(=O)[N-]CCN2CCOCC2)c([O-])c(S(=O)(=O)C2CCCCC2)c1O

>  <Energy>  (32) 
74.77067067540058

>  <Genealogy>  (32) 
Cc1cc([N-]C(=O)[N-]CCN2CCOCC2)c([O-])c(S(=O)(=O)C2CCCCC2)c1O (protonated)
Cc1cc([N-]C(=O)[N-]CCN2CCOCC2)c([O-])c(S(=O)(=O)C2CCCCC2)c1O (3D coordinates assigned)
Cc1cc([N-]C(=O)[N-]CCN2CCOCC2)c([O-])c(S(=O)(=O)C2CCCCC2)c1O (nonaromatic ring conformer: 74.77067067540058 kcal/mol)

>  <smiles>  (32) 
Cc1cc(NC(=O)NCCN2CCOCC2)c(O)c(S(=O)(=O)C2CCCCC2)c1O

>  <score_type>  (32) 
oracle

>  <origin>  (32) 
adgpu

>  <m_score__min__energy>  (32) 
-14.31

>  <m_primary>  (32) 
energy

$$$$
32:0
     RDKit          3D

 60 63  0  0  0  0  0  0  0  0999 V2000
   -4.2160   24.5530  -31.1720 O   0  0  0  0  0  0  0  0  0  0  0  0
   -4.9210   23.5120  -31.0900 C   0  0  0  0  0  0  0  0  0  0  0  0
   -6.3480   23.6530  -31.0980 N   0  0  0  0  0  0  0  0  0  0  0  0
   -7.2970   22.6190  -31.3940 C   0  0  0  0  0  0  0  0  0  0  0  0
   -8.6520   22.9090  -31.6280 C   0  0  0  0  0  0  0  0  0  0  0  0
   -9.5400   21.8860  -31.9740 C   0  0  0  0  0  0  0  0  0  0  0  0
   -9.0820   20.5740  -32.1070 C   0  0  0  0  0  0  0  0  0  0  0  0
   -7.7280   20.2770  -31.8990 C   0  0  0  0  0  0  0  0  0  0  0  0
   -7.1420   18.6320  -32.1330 S   0  0  0  0  0  0  0  0  0  0  0  0
   -8.3140   17.7150  -32.3470 O   0  0  0  0  0  0  0  0  0  0  0  0
   -6.3990   18.1790  -30.9060 O   0  0  0  0  0  0  0  0  0  0  0  0
   -6.1020   18.5840  -33.5350 N   0  0  0  0  0  0  0  0  0  0  0  0
   -4.8200   19.2350  -33.2640 C   0  0  0  0  0  0  0  0  0  0  0  0
   -3.8070   18.5910  -34.1990 C   0  0  0  0  0  0  0  0  0  0  0  0
   -4.4300   17.2670  -34.6190 C   0  0  0  0  0  0  0  0  0  0  0  0
   -5.7690   17.2100  -33.9030 C   0  0  0  0  0  0  0  0  0  0  0  0
   -6.8390   21.3060  -31.5560 C   0  0  0  0  0  0  0  0  0  0  0  0
   -4.3010   22.2160  -31.0170 N   0  0  0  0  0  0  0  0  0  0  0  0
   -2.8840   21.9970  -31.1190 C   0  0  0  0  0  0  0  0  0  0  0  0
   -2.0800   22.1760  -29.9850 C   0  0  0  0  0  0  0  0  0  0  0  0
   -0.7060   21.9410  -30.0510 C   0  0  0  0  0  0  0  0  0  0  0  0
   -0.1250   21.5100  -31.2450 C   0  0  0  0  0  0  0  0  0  0  0  0
   -0.9180   21.3010  -32.3790 C   0  0  0  0  0  0  0  0  0  0  0  0
   -0.1900   20.7490  -33.8860 S   0  0  0  0  0  0  0  0  0  0  0  0
   -1.2830   20.4770  -34.8810 O   0  0  0  0  0  0  0  0  0  0  0  0
    0.5610   19.4700  -33.6440 O   0  0  0  0  0  0  0  0  0  0  0  0
    0.8830   21.9740  -34.5180 N   0  0  0  0  0  0  0  0  0  0  0  0
    2.1950   21.3720  -34.8450 C   0  0  0  0  0  0  0  0  0  0  0  0
    3.0560   22.2800  -35.7530 C   0  0  0  0  0  0  0  0  0  0  0  0
    2.5770   23.7330  -35.7200 C   0  0  0  0  0  0  0  0  0  0  0  0
    1.1000   23.8370  -36.1300 C   0  0  0  0  0  0  0  0  0  0  0  0
    0.2810   22.6040  -35.7030 C   0  0  0  0  0  0  0  0  0  0  0  0
   -2.2960   21.5450  -32.3140 C   0  0  0  0  0  0  0  0  0  0  0  0
   -9.0149   23.9436  -31.5387 H   0  0  0  0  0  0  0  0  0  0  0  0
  -10.6026   22.1156  -32.1419 H   0  0  0  0  0  0  0  0  0  0  0  0
   -9.7850   19.7717  -32.3755 H   0  0  0  0  0  0  0  0  0  0  0  0
   -4.8911   20.3142  -33.4647 H   0  0  0  0  0  0  0  0  0  0  0  0
   -4.5252   19.1140  -32.2112 H   0  0  0  0  0  0  0  0  0  0  0  0
   -3.6329   19.2302  -35.0771 H   0  0  0  0  0  0  0  0  0  0  0  0
   -2.8321   18.4478  -33.7101 H   0  0  0  0  0  0  0  0  0  0  0  0
   -4.5742   17.2375  -35.7091 H   0  0  0  0  0  0  0  0  0  0  0  0
   -3.7892   16.4113  -34.3599 H   0  0  0  0  0  0  0  0  0  0  0  0
   -6.5398   16.7982  -34.5710 H   0  0  0  0  0  0  0  0  0  0  0  0
   -5.7181   16.5620  -33.0156 H   0  0  0  0  0  0  0  0  0  0  0  0
   -5.7721   21.0794  -31.4130 H   0  0  0  0  0  0  0  0  0  0  0  0
   -4.9050   21.3770  -30.8620 H   0  0  0  0  0  0  0  0  0  0  0  0
   -2.5343   22.5034  -29.0382 H   0  0  0  0  0  0  0  0  0  0  0  0
   -0.0794   22.0957  -29.1603 H   0  0  0  0  0  0  0  0  0  0  0  0
    0.9597   21.3341  -31.2946 H   0  0  0  0  0  0  0  0  0  0  0  0
    2.7423   21.1898  -33.9084 H   0  0  0  0  0  0  0  0  0  0  0  0
    2.0054   20.4370  -35.3925 H   0  0  0  0  0  0  0  0  0  0  0  0
    4.1000   22.2411  -35.4085 H   0  0  0  0  0  0  0  0  0  0  0  0
    2.9673   21.9137  -36.7864 H   0  0  0  0  0  0  0  0  0  0  0  0
    2.6955   24.1274  -34.7000 H   0  0  0  0  0  0  0  0  0  0  0  0
    3.1795   24.3161  -36.4320 H   0  0  0  0  0  0  0  0  0  0  0  0
    0.6649   24.7302  -35.6580 H   0  0  0  0  0  0  0  0  0  0  0  0
    1.0614   23.9002  -37.2275 H   0  0  0  0  0  0  0  0  0  0  0  0
   -0.7466   22.9161  -35.4650 H   0  0  0  0  0  0  0  0  0  0  0  0
    0.2735   21.8771  -36.5286 H   0  0  0  0  0  0  0  0  0  0  0  0
   -2.9223   21.3820  -33.2035 H   0  0  0  0  0  0  0  0  0  0  0  0
  1  2  2  0
  2  3  1  0
  3  4  1  0
  4  5  2  0
  5  6  1  0
  6  7  2  0
  7  8  1  0
  8  9  1  0
  9 10  2  0
  9 11  2  0
  9 12  1  0
 12 13  1  0
 13 14  1  0
 14 15  1  0
 15 16  1  0
  8 17  2  0
  2 18  1  0
 18 19  1  0
 19 20  2  0
 20 21  1  0
 21 22  2  0
 22 23  1  0
 23 24  1  0
 24 25  2  0
 24 26  2  0
 24 27  1  0
 27 28  1  0
 28 29  1  0
 29 30  1  0
 30 31  1  0
 31 32  1  0
 23 33  2  0
 17  4  1  0
 33 19  1  0
 16 12  1  0
 32 27  1  0
  5 34  1  0
  6 35  1  0
  7 36  1  0
 13 37  1  0
 13 38  1  0
 14 39  1  0
 14 40  1  0
 15 41  1  0
 15 42  1  0
 16 43  1  0
 16 44  1  0
 17 45  1  0
 18 46  1  0
 20 47  1  0
 21 48  1  0
 22 49  1  0
 28 50  1  0
 28 51  1  0
 29 52  1  0
 29 53  1  0
 30 54  1  0
 30 55  1  0
 31 56  1  0
 31 57  1  0
 32 58  1  0
 32 59  1  0
 33 60  1  0
M  CHG  1   3  -1
M  END
>  <UniqueID>  (33) 
33

>  <SMILES>  (33) 
O=C([N-]c1cccc(S(=O)(=O)N2CCCC2)c1)Nc1cccc(S(=O)(=O)N2CCCCC2)c1

>  <Energy>  (33) 
73.2968684103164

>  <Genealogy>  (33) 
O=C([N-]c1cccc(S(=O)(=O)N2CCCC2)c1)Nc1cccc(S(=O)(=O)N2CCCCC2)c1 (protonated)
O=C([N-]c1cccc(S(=O)(=O)N2CCCC2)c1)Nc1cccc(S(=O)(=O)N2CCCCC2)c1 (3D coordinates assigned)
O=C([N-]c1cccc(S(=O)(=O)N2CCCC2)c1)Nc1cccc(S(=O)(=O)N2CCCCC2)c1 (nonaromatic ring conformer: 73.2968684103164 kcal/mol)

>  <smiles>  (33) 
O=C(Nc1cccc(S(=O)(=O)N2CCCCC2)c1)Nc1cccc(S(=O)(=O)N2CCCC2)c1

>  <score_type>  (33) 
oracle

>  <origin>  (33) 
adgpu

>  <m_score__min__energy>  (33) 
-12.81

>  <m_primary>  (33) 
energy

$$$$
33:0
     RDKit          3D

 54 58  0  0  0  0  0  0  0  0999 V2000
   -9.4910   18.9430  -32.3180 C   0  0  0  0  0  0  0  0  0  0  0  0
   -8.8200   20.0490  -32.9120 O   0  0  0  0  0  0  0  0  0  0  0  0
   -7.4270   20.2230  -32.9330 C   0  0  0  0  0  0  0  0  0  0  0  0
   -6.5840   19.3210  -33.6120 C   0  0  0  0  0  0  0  0  0  0  0  0
   -5.2030   19.5190  -33.6330 C   0  0  0  0  0  0  0  0  0  0  0  0
   -4.6390   20.6320  -32.9970 C   0  0  0  0  0  0  0  0  0  0  0  0
   -3.1740   20.8310  -32.9840 C   0  0  0  0  0  0  0  0  0  0  0  0
   -2.5560   21.0730  -34.1700 N   0  0  0  0  0  0  0  0  0  0  0  0
   -1.2450   21.3020  -34.2590 N   0  0  0  0  0  0  0  0  0  0  0  0
   -0.4500   21.3080  -33.1580 C   0  0  0  0  0  0  0  0  0  0  0  0
    0.7830   21.5400  -33.2810 O   0  0  0  0  0  0  0  0  0  0  0  0
   -1.0130   21.0490  -31.8970 C   0  0  0  0  0  0  0  0  0  0  0  0
   -0.2300   21.0230  -30.7310 C   0  0  0  0  0  0  0  0  0  0  0  0
   -0.8000   20.7350  -29.5330 N   0  0  0  0  0  0  0  0  0  0  0  0
   -2.1280   20.4570  -29.4110 C   0  0  0  0  0  0  0  0  0  0  0  0
   -2.6440   20.1750  -28.2520 N   0  0  0  0  0  0  0  0  0  0  0  0
   -1.8730   20.1320  -27.0140 C   0  0  0  0  0  0  0  0  0  0  0  0
   -2.4390   19.1800  -25.9760 C   0  0  0  0  0  0  0  0  0  0  0  0
   -1.2080   18.7880  -26.7820 C   0  0  0  0  0  0  0  0  0  0  0  0
   -2.9470   20.4730  -30.5440 C   0  0  0  0  0  0  0  0  0  0  0  0
   -2.3990   20.7910  -31.8020 C   0  0  0  0  0  0  0  0  0  0  0  0
   -5.4690   21.5210  -32.3030 C   0  0  0  0  0  0  0  0  0  0  0  0
   -6.8580   21.3250  -32.2600 C   0  0  0  0  0  0  0  0  0  0  0  0
   -7.8570   22.4730  -31.3490 S   0  0  0  0  0  0  0  0  0  0  0  0
   -8.7890   23.1680  -32.3020 O   0  0  0  0  0  0  0  0  0  0  0  0
   -8.6990   21.7360  -30.3450 O   0  0  0  0  0  0  0  0  0  0  0  0
   -6.8880   23.6740  -30.5210 N   0  0  0  0  0  0  0  0  0  0  0  0
   -5.9530   23.0610  -29.5530 C   0  0  0  0  0  0  0  0  0  0  0  0
   -4.5110   23.0290  -30.0880 C   0  0  0  0  0  0  0  0  0  0  0  0
   -3.9990   24.3160  -30.4080 O   0  0  0  0  0  0  0  0  0  0  0  0
   -4.9900   25.2340  -30.8540 C   0  0  0  0  0  0  0  0  0  0  0  0
   -6.2170   24.5610  -31.4910 C   0  0  0  0  0  0  0  0  0  0  0  0
   -9.4394   19.0281  -31.2225 H   0  0  0  0  0  0  0  0  0  0  0  0
  -10.5440   18.9390  -32.6362 H   0  0  0  0  0  0  0  0  0  0  0  0
   -9.0082   18.0073  -32.6362 H   0  0  0  0  0  0  0  0  0  0  0  0
   -7.0184   18.4532  -34.1300 H   0  0  0  0  0  0  0  0  0  0  0  0
   -4.5543   18.7976  -34.1515 H   0  0  0  0  0  0  0  0  0  0  0  0
   -0.8300   21.4860  -35.2000 H   0  0  0  0  0  0  0  0  0  0  0  0
    0.8475   21.2365  -30.7888 H   0  0  0  0  0  0  0  0  0  0  0  0
   -1.5453   21.1820  -27.0057 H   0  0  0  0  0  0  0  0  0  0  0  0
   -2.3443   19.4136  -24.9053 H   0  0  0  0  0  0  0  0  0  0  0  0
   -3.4241   18.7275  -25.7896 H   0  0  0  0  0  0  0  0  0  0  0  0
   -0.2236   18.7381  -26.2938 H   0  0  0  0  0  0  0  0  0  0  0  0
   -0.9345   17.9345  -27.4197 H   0  0  0  0  0  0  0  0  0  0  0  0
   -4.0177   20.2376  -30.4531 H   0  0  0  0  0  0  0  0  0  0  0  0
   -5.0264   22.3844  -31.7847 H   0  0  0  0  0  0  0  0  0  0  0  0
   -5.9734   23.6446  -28.6208 H   0  0  0  0  0  0  0  0  0  0  0  0
   -6.2747   22.0236  -29.3792 H   0  0  0  0  0  0  0  0  0  0  0  0
   -3.8645   22.5773  -29.3212 H   0  0  0  0  0  0  0  0  0  0  0  0
   -4.5230   22.4435  -31.0191 H   0  0  0  0  0  0  0  0  0  0  0  0
   -5.3282   25.8259  -29.9907 H   0  0  0  0  0  0  0  0  0  0  0  0
   -4.5242   25.8549  -31.6334 H   0  0  0  0  0  0  0  0  0  0  0  0
   -6.9241   25.3367  -31.8201 H   0  0  0  0  0  0  0  0  0  0  0  0
   -5.8842   23.9589  -32.3493 H   0  0  0  0  0  0  0  0  0  0  0  0
  1  2  1  0
  2  3  1  0
  3  4  2  0
  4  5  1  0
  5  6  2  0
  6  7  1  0
  7  8  2  0
  8  9  1  0
  9 10  1  0
 10 11  2  0
 10 12  1  0
 12 13  2  0
 13 14  1  0
 14 15  1  0
 15 16  2  3
 16 17  1  0
 17 18  1  0
 18 19  1  0
 15 20  1  0
 20 21  2  0
  6 22  1  0
 22 23  2  0
 23 24  1  0
 24 25  2  0
 24 26  2  0
 24 27  1  0
 27 28  1  0
 28 29  1  0
 29 30  1  0
 30 31  1  0
 31 32  1  0
 23  3  1  0
 32 27  1  0
 21  7  1  0
 21 12  1  0
 19 17  1  0
  1 33  1  0
  1 34  1  0
  1 35  1  0
  4 36  1  0
  5 37  1  0
  9 38  1  0
 13 39  1  0
 17 40  1  0
 18 41  1  0
 18 42  1  0
 19 43  1  0
 19 44  1  0
 20 45  1  0
 22 46  1  0
 28 47  1  0
 28 48  1  0
 29 49  1  0
 29 50  1  0
 31 51  1  0
 31 52  1  0
 32 53  1  0
 32 54  1  0
M  CHG  1  14  -1
M  END
>  <UniqueID>  (34) 
34

>  <SMILES>  (34) 
COc1ccc(-c2n[nH]c(=O)c3c[n-]c(=NC4CC4)cc23)cc1S(=O)(=O)N1CCOCC1

>  <Energy>  (34) 
348.3433274426201

>  <Genealogy>  (34) 
COc1ccc(-c2n[nH]c(=O)c3c[n-]c(=NC4CC4)cc23)cc1S(=O)(=O)N1CCOCC1 (protonated)
COc1ccc(-c2n[nH]c(=O)c3c[n-]c(=NC4CC4)cc23)cc1S(=O)(=O)N1CCOCC1 (3D coordinates assigned)
COc1ccc(-c2n[nH]c(=O)c3c[n-]c(=NC4CC4)cc23)cc1S(=O)(=O)N1CCOCC1 (nonaromatic ring conformer: 348.3433274426201 kcal/mol)

>  <smiles>  (34) 
COc1ccc(-c2n[nH]c(=O)c3c[nH]c(=NC4CC4)cc23)cc1S(=O)(=O)N1CCOCC1

>  <score_type>  (34) 
oracle

>  <origin>  (34) 
adgpu

>  <m_score__min__energy>  (34) 
-9.9499999999999993

>  <m_primary>  (34) 
energy

$$$$
34:0
     RDKit          3D

 69 73  0  0  0  0  0  0  0  0999 V2000
   -1.6470   26.6300  -25.6270 C   0  0  0  0  0  0  0  0  0  0  0  0
   -1.5390   25.3410  -26.3850 C   0  0  0  0  0  0  0  0  0  0  0  0
   -0.2910   24.7510  -26.6140 C   0  0  0  0  0  0  0  0  0  0  0  0
   -0.2080   23.5530  -27.2480 N   0  0  0  0  0  0  0  0  0  0  0  0
   -1.3080   22.8820  -27.6850 C   0  0  0  0  0  0  0  0  0  0  0  0
   -1.1150   21.5640  -28.3290 C   0  0  0  0  0  0  0  0  0  0  0  0
   -0.8240   21.5010  -29.6990 C   0  0  0  0  0  0  0  0  0  0  0  0
   -0.6640   20.2520  -30.3310 C   0  0  0  0  0  0  0  0  0  0  0  0
   -0.3770   20.1470  -31.7500 N   0  0  0  0  0  0  0  0  0  0  0  0
    1.0200   20.1150  -32.2300 C   0  0  0  0  0  0  0  0  0  0  0  0
    1.0900   19.9060  -33.7440 C   0  0  0  0  0  0  0  0  0  0  0  0
    0.1480   20.8190  -34.3950 N   0  0  0  0  0  0  0  0  0  0  0  0
    0.5860   21.8020  -35.3470 C   0  0  0  0  0  0  0  0  0  0  0  0
   -0.1100   22.0120  -36.3780 O   0  0  0  0  0  0  0  0  0  0  0  0
    1.7790   22.5710  -35.1070 N   0  0  0  0  0  0  0  0  0  0  0  0
    2.1220   23.7850  -35.8020 C   0  0  0  0  0  0  0  0  0  0  0  0
    3.4480   24.0770  -36.1690 C   0  0  0  0  0  0  0  0  0  0  0  0
    3.7400   25.2320  -36.8990 C   0  0  0  0  0  0  0  0  0  0  0  0
    2.7130   26.0890  -37.2970 C   0  0  0  0  0  0  0  0  0  0  0  0
    1.3830   25.7950  -36.9690 C   0  0  0  0  0  0  0  0  0  0  0  0
    0.0740   26.8290  -37.5460 S   0  0  0  0  0  0  0  0  0  0  0  0
   -1.2370   26.1190  -37.3510 O   0  0  0  0  0  0  0  0  0  0  0  0
    0.2520   27.0770  -39.0190 O   0  0  0  0  0  0  0  0  0  0  0  0
    0.0260   28.3610  -36.6960 N   0  0  0  0  0  0  0  0  0  0  0  0
    0.7000   28.2690  -35.3950 C   0  0  0  0  0  0  0  0  0  0  0  0
   -0.3580   28.0770  -34.3160 C   0  0  0  0  0  0  0  0  0  0  0  0
   -1.6920   28.3260  -34.9930 C   0  0  0  0  0  0  0  0  0  0  0  0
   -1.3560   28.7620  -36.4100 C   0  0  0  0  0  0  0  0  0  0  0  0
    1.0960   24.6490  -36.2120 C   0  0  0  0  0  0  0  0  0  0  0  0
   -1.2560   20.8320  -33.9640 C   0  0  0  0  0  0  0  0  0  0  0  0
   -1.4760   19.9610  -32.7180 C   0  0  0  0  0  0  0  0  0  0  0  0
   -0.8000   19.1210  -29.5820 N   0  0  0  0  0  0  0  0  0  0  0  0
   -1.0900   19.1510  -28.2560 C   0  0  0  0  0  0  0  0  0  0  0  0
   -1.2610   20.3710  -27.6000 C   0  0  0  0  0  0  0  0  0  0  0  0
   -1.6150   20.3700  -25.8750 Cl  0  0  0  0  0  0  0  0  0  0  0  0
   -2.5900   23.4440  -27.4900 C   0  0  0  0  0  0  0  0  0  0  0  0
   -3.8480   22.7560  -27.9560 C   0  0  0  0  0  0  0  0  0  0  0  0
   -2.6900   24.6690  -26.8130 C   0  0  0  0  0  0  0  0  0  0  0  0
   -1.6296   26.4227  -24.5468 H   0  0  0  0  0  0  0  0  0  0  0  0
   -0.8003   27.2815  -25.8890 H   0  0  0  0  0  0  0  0  0  0  0  0
   -2.5903   27.1315  -25.8890 H   0  0  0  0  0  0  0  0  0  0  0  0
    0.6255   25.2591  -26.2795 H   0  0  0  0  0  0  0  0  0  0  0  0
   -0.7204   22.4283  -30.2815 H   0  0  0  0  0  0  0  0  0  0  0  0
    1.5060   21.0692  -31.9784 H   0  0  0  0  0  0  0  0  0  0  0  0
    1.5325   19.2728  -31.7421 H   0  0  0  0  0  0  0  0  0  0  0  0
    2.1103   20.1144  -34.0983 H   0  0  0  0  0  0  0  0  0  0  0  0
    0.8286   18.8658  -33.9882 H   0  0  0  0  0  0  0  0  0  0  0  0
    2.4360   22.2510  -34.3600 H   0  0  0  0  0  0  0  0  0  0  0  0
    4.2592   23.3926  -35.8799 H   0  0  0  0  0  0  0  0  0  0  0  0
    4.7824   25.4665  -37.1608 H   0  0  0  0  0  0  0  0  0  0  0  0
    2.9484   26.9980  -37.8699 H   0  0  0  0  0  0  0  0  0  0  0  0
    1.3905   27.4127  -35.3944 H   0  0  0  0  0  0  0  0  0  0  0  0
    1.2737   29.1874  -35.2016 H   0  0  0  0  0  0  0  0  0  0  0  0
   -0.3165   27.0526  -33.9174 H   0  0  0  0  0  0  0  0  0  0  0  0
   -0.2006   28.7617  -33.4696 H   0  0  0  0  0  0  0  0  0  0  0  0
   -2.2934   27.4050  -35.0070 H   0  0  0  0  0  0  0  0  0  0  0  0
   -2.2822   29.0873  -34.4620 H   0  0  0  0  0  0  0  0  0  0  0  0
   -2.0398   28.2760  -37.1214 H   0  0  0  0  0  0  0  0  0  0  0  0
   -1.4640   29.8523  -36.5084 H   0  0  0  0  0  0  0  0  0  0  0  0
    0.0546   24.4257  -35.9370 H   0  0  0  0  0  0  0  0  0  0  0  0
   -1.5480   21.8668  -33.7317 H   0  0  0  0  0  0  0  0  0  0  0  0
   -1.8692   20.4232  -34.7807 H   0  0  0  0  0  0  0  0  0  0  0  0
   -2.4270   20.2439  -32.2431 H   0  0  0  0  0  0  0  0  0  0  0  0
   -1.5016   18.9050  -33.0250 H   0  0  0  0  0  0  0  0  0  0  0  0
   -1.1906   18.2095  -27.6961 H   0  0  0  0  0  0  0  0  0  0  0  0
   -4.4352   22.4349  -27.0830 H   0  0  0  0  0  0  0  0  0  0  0  0
   -4.4443   23.4536  -28.5625 H   0  0  0  0  0  0  0  0  0  0  0  0
   -3.5824   21.8776  -28.5625 H   0  0  0  0  0  0  0  0  0  0  0  0
   -3.6808   25.1048  -26.6170 H   0  0  0  0  0  0  0  0  0  0  0  0
  1  2  1  0
  2  3  2  0
  3  4  1  0
  4  5  2  0
  5  6  1  0
  6  7  2  0
  7  8  1  0
  8  9  1  0
  9 10  1  0
 10 11  1  0
 11 12  1  0
 12 13  1  0
 13 14  2  0
 13 15  1  0
 15 16  1  0
 16 17  2  0
 17 18  1  0
 18 19  2  0
 19 20  1  0
 20 21  1  0
 21 22  2  0
 21 23  2  0
 21 24  1  0
 24 25  1  0
 25 26  1  0
 26 27  1  0
 27 28  1  0
 20 29  2  0
 12 30  1  0
 30 31  1  0
  8 32  2  0
 32 33  1  0
 33 34  2  0
 34 35  1  0
  5 36  1  0
 36 37  1  0
 36 38  2  0
 38  2  1  0
 34  6  1  0
 31  9  1  0
 29 16  1  0
 28 24  1  0
  1 39  1  0
  1 40  1  0
  1 41  1  0
  3 42  1  0
  7 43  1  0
 10 44  1  0
 10 45  1  0
 11 46  1  0
 11 47  1  0
 15 48  1  0
 17 49  1  0
 18 50  1  0
 19 51  1  0
 25 52  1  0
 25 53  1  0
 26 54  1  0
 26 55  1  0
 27 56  1  0
 27 57  1  0
 28 58  1  0
 28 59  1  0
 29 60  1  0
 30 61  1  0
 30 62  1  0
 31 63  1  0
 31 64  1  0
 33 65  1  0
 37 66  1  0
 37 67  1  0
 37 68  1  0
 38 69  1  0
M  END
>  <UniqueID>  (35) 
35

>  <SMILES>  (35) 
Cc1cnc(-c2cc(N3CCN(C(=O)Nc4cccc(S(=O)(=O)N5CCCC5)c4)CC3)ncc2Cl)c(C)c1

>  <Energy>  (35) 
90.74167894419433

>  <Genealogy>  (35) 
Cc1cnc(-c2cc(N3CCN(C(=O)Nc4cccc(S(=O)(=O)N5CCCC5)c4)CC3)ncc2Cl)c(C)c1 (3D coordinates assigned)
Cc1cnc(-c2cc(N3CCN(C(=O)Nc4cccc(S(=O)(=O)N5CCCC5)c4)CC3)ncc2Cl)c(C)c1 (nonaromatic ring conformer: 90.74167894419433 kcal/mol)

>  <smiles>  (35) 
Cc1cnc(-c2cc(N3CCN(C(=O)Nc4cccc(S(=O)(=O)N5CCCC5)c4)CC3)ncc2Cl)c(C)c1

>  <score_type>  (35) 
oracle

>  <origin>  (35) 
adgpu

>  <m_score__min__energy>  (35) 
-10.949999999999999

>  <m_primary>  (35) 
energy

$$$$
35:0
     RDKit          3D

 71 75  0  0  0  0  0  0  0  0999 V2000
   -9.8300   19.2900  -32.4470 O   0  0  0  0  0  0  0  0  0  0  0  0
   -8.6530   19.5540  -32.0920 C   0  0  0  0  0  0  0  0  0  0  0  0
   -7.6660   18.5170  -32.1170 N   0  0  0  0  0  0  0  0  0  0  0  0
   -7.2600   17.7880  -33.3180 C   0  0  0  0  0  0  0  0  0  0  0  0
   -5.7630   17.6470  -33.3880 C   0  0  0  0  0  0  0  0  0  0  0  0
   -4.9970   18.5910  -34.0900 C   0  0  0  0  0  0  0  0  0  0  0  0
   -3.6190   18.4130  -34.2360 C   0  0  0  0  0  0  0  0  0  0  0  0
   -2.9760   17.2850  -33.6920 C   0  0  0  0  0  0  0  0  0  0  0  0
   -1.5220   17.0710  -33.9400 C   0  0  0  0  0  0  0  0  0  0  0  0
   -1.1520   16.0170  -34.5290 O   0  0  0  0  0  0  0  0  0  0  0  0
   -0.5180   18.0190  -33.5130 N   0  0  0  0  0  0  0  0  0  0  0  0
    0.2570   17.7130  -32.3060 C   0  0  0  0  0  0  0  0  0  0  0  0
   -0.1420   18.6410  -31.1580 C   0  0  0  0  0  0  0  0  0  0  0  0
    0.3280   20.0920  -31.3490 C   0  0  0  0  0  0  0  0  0  0  0  0
   -0.4900   20.8600  -32.3970 C   0  0  0  0  0  0  0  0  0  0  0  0
   -0.1570   20.4930  -33.8350 C   0  0  0  0  0  0  0  0  0  0  0  0
    0.2530   21.5400  -34.6850 C   0  0  0  0  0  0  0  0  0  0  0  0
    0.6550   21.2870  -35.9950 C   0  0  0  0  0  0  0  0  0  0  0  0
    0.6520   19.9860  -36.4880 C   0  0  0  0  0  0  0  0  0  0  0  0
    0.2500   18.9310  -35.6710 C   0  0  0  0  0  0  0  0  0  0  0  0
   -0.1520   19.1550  -34.3370 C   0  0  0  0  0  0  0  0  0  0  0  0
   -3.7480   16.3490  -32.9810 C   0  0  0  0  0  0  0  0  0  0  0  0
   -5.1280   16.5210  -32.8440 C   0  0  0  0  0  0  0  0  0  0  0  0
   -8.3460   20.8670  -31.6140 N   0  0  0  0  0  0  0  0  0  0  0  0
   -7.0650   21.4880  -31.7600 C   0  0  0  0  0  0  0  0  0  0  0  0
   -6.1100   20.9810  -32.6560 C   0  0  0  0  0  0  0  0  0  0  0  0
   -4.8670   21.6050  -32.7830 C   0  0  0  0  0  0  0  0  0  0  0  0
   -4.5680   22.7330  -32.0140 C   0  0  0  0  0  0  0  0  0  0  0  0
   -5.5180   23.2510  -31.1240 C   0  0  0  0  0  0  0  0  0  0  0  0
   -5.1290   24.6270  -30.1010 S   0  0  0  0  0  0  0  0  0  0  0  0
   -4.3200   25.6350  -30.8700 O   0  0  0  0  0  0  0  0  0  0  0  0
   -6.4110   25.2780  -29.6590 O   0  0  0  0  0  0  0  0  0  0  0  0
   -4.2270   24.0630  -28.7150 N   0  0  0  0  0  0  0  0  0  0  0  0
   -2.8290   24.5470  -28.7890 C   0  0  0  0  0  0  0  0  0  0  0  0
   -1.9170   23.7580  -27.8480 C   0  0  0  0  0  0  0  0  0  0  0  0
   -1.8700   22.2710  -28.2380 C   0  0  0  0  0  0  0  0  0  0  0  0
   -3.1250   21.8170  -29.0040 C   0  0  0  0  0  0  0  0  0  0  0  0
   -4.3660   22.5950  -28.5430 C   0  0  0  0  0  0  0  0  0  0  0  0
   -6.7720   22.6340  -31.0120 C   0  0  0  0  0  0  0  0  0  0  0  0
   -7.7145   16.7864  -33.3008 H   0  0  0  0  0  0  0  0  0  0  0  0
   -7.5988   18.3520  -34.1995 H   0  0  0  0  0  0  0  0  0  0  0  0
   -5.4841   19.4751  -34.5272 H   0  0  0  0  0  0  0  0  0  0  0  0
   -3.0292   19.1635  -34.7827 H   0  0  0  0  0  0  0  0  0  0  0  0
    0.0679   16.6706  -32.0101 H   0  0  0  0  0  0  0  0  0  0  0  0
    1.3250   17.8598  -32.5247 H   0  0  0  0  0  0  0  0  0  0  0  0
   -1.2388   18.6388  -31.0740 H   0  0  0  0  0  0  0  0  0  0  0  0
    0.3475   18.2599  -30.2496 H   0  0  0  0  0  0  0  0  0  0  0  0
    0.2428   20.6167  -30.3859 H   0  0  0  0  0  0  0  0  0  0  0  0
    1.3668   20.0543  -31.7087 H   0  0  0  0  0  0  0  0  0  0  0  0
   -1.5560   20.6502  -32.2249 H   0  0  0  0  0  0  0  0  0  0  0  0
   -0.2417   21.9247  -32.2755 H   0  0  0  0  0  0  0  0  0  0  0  0
    0.2557   22.5734  -34.3082 H   0  0  0  0  0  0  0  0  0  0  0  0
    0.9754   22.1178  -36.6408 H   0  0  0  0  0  0  0  0  0  0  0  0
    0.9672   19.7900  -37.5235 H   0  0  0  0  0  0  0  0  0  0  0  0
    0.2460   17.9069  -36.0726 H   0  0  0  0  0  0  0  0  0  0  0  0
   -3.2608   15.4729  -32.5282 H   0  0  0  0  0  0  0  0  0  0  0  0
   -5.7210   15.7673  -32.3052 H   0  0  0  0  0  0  0  0  0  0  0  0
   -6.3414   20.0906  -33.2590 H   0  0  0  0  0  0  0  0  0  0  0  0
   -4.1226   21.2082  -33.4890 H   0  0  0  0  0  0  0  0  0  0  0  0
   -3.5839   23.2155  -32.1078 H   0  0  0  0  0  0  0  0  0  0  0  0
   -2.4644   24.4328  -29.8205 H   0  0  0  0  0  0  0  0  0  0  0  0
   -2.8110   25.6039  -28.4846 H   0  0  0  0  0  0  0  0  0  0  0  0
   -0.9005   24.1751  -27.8999 H   0  0  0  0  0  0  0  0  0  0  0  0
   -2.3168   23.8382  -26.8264 H   0  0  0  0  0  0  0  0  0  0  0  0
   -0.9890   22.1020  -28.8747 H   0  0  0  0  0  0  0  0  0  0  0  0
   -1.8189   21.6855  -27.3082 H   0  0  0  0  0  0  0  0  0  0  0  0
   -2.9716   21.9900  -30.0794 H   0  0  0  0  0  0  0  0  0  0  0  0
   -3.2887   20.7479  -28.8037 H   0  0  0  0  0  0  0  0  0  0  0  0
   -5.2317   22.2537  -29.1296 H   0  0  0  0  0  0  0  0  0  0  0  0
   -4.4960   22.4004  -27.4682 H   0  0  0  0  0  0  0  0  0  0  0  0
   -7.5293   23.0527  -30.3329 H   0  0  0  0  0  0  0  0  0  0  0  0
  1  2  2  0
  2  3  1  0
  3  4  1  0
  4  5  1  0
  5  6  2  0
  6  7  1  0
  7  8  2  0
  8  9  1  0
  9 10  2  0
  9 11  1  0
 11 12  1  0
 12 13  1  0
 13 14  1  0
 14 15  1  0
 15 16  1  0
 16 17  2  0
 17 18  1  0
 18 19  2  0
 19 20  1  0
 20 21  2  0
  8 22  1  0
 22 23  2  0
  2 24  1  0
 24 25  1  0
 25 26  2  0
 26 27  1  0
 27 28  2  0
 28 29  1  0
 29 30  1  0
 30 31  2  0
 30 32  2  0
 30 33  1  0
 33 34  1  0
 34 35  1  0
 35 36  1  0
 36 37  1  0
 37 38  1  0
 29 39  2  0
 23  5  1  0
 39 25  1  0
 21 11  1  0
 38 33  1  0
 21 16  1  0
  4 40  1  0
  4 41  1  0
  6 42  1  0
  7 43  1  0
 12 44  1  0
 12 45  1  0
 13 46  1  0
 13 47  1  0
 14 48  1  0
 14 49  1  0
 15 50  1  0
 15 51  1  0
 17 52  1  0
 18 53  1  0
 19 54  1  0
 20 55  1  0
 22 56  1  0
 23 57  1  0
 26 58  1  0
 27 59  1  0
 28 60  1  0
 34 61  1  0
 34 62  1  0
 35 63  1  0
 35 64  1  0
 36 65  1  0
 36 66  1  0
 37 67  1  0
 37 68  1  0
 38 69  1  0
 38 70  1  0
 39 71  1  0
M  CHG  2   3  -1  24  -1
M  END
>  <UniqueID>  (36) 
36

>  <SMILES>  (36) 
O=C([N-]Cc1ccc(C(=O)N2CCCCc3ccccc32)cc1)[N-]c1cccc(S(=O)(=O)N2CCCCC2)c1

>  <Energy>  (36) 
91.47109999482255

>  <Genealogy>  (36) 
O=C([N-]Cc1ccc(C(=O)N2CCCCc3ccccc32)cc1)[N-]c1cccc(S(=O)(=O)N2CCCCC2)c1 (protonated)
O=C([N-]Cc1ccc(C(=O)N2CCCCc3ccccc32)cc1)[N-]c1cccc(S(=O)(=O)N2CCCCC2)c1 (3D coordinates assigned)
O=C([N-]Cc1ccc(C(=O)N2CCCCc3ccccc32)cc1)[N-]c1cccc(S(=O)(=O)N2CCCCC2)c1 (nonaromatic ring conformer: 91.47109999482255 kcal/mol)

>  <smiles>  (36) 
O=C(NCc1ccc(C(=O)N2CCCCc3ccccc32)cc1)Nc1cccc(S(=O)(=O)N2CCCCC2)c1

>  <score_type>  (36) 
oracle

>  <origin>  (36) 
adgpu

>  <m_score__min__energy>  (36) 
-11.66

>  <m_primary>  (36) 
energy

$$$$
36:0
     RDKit          3D

 54 56  0  0  0  0  0  0  0  0999 V2000
   -5.0870   16.3390  -32.8720 C   0  0  0  0  0  0  0  0  0  0  0  0
   -5.7690   17.0290  -34.0520 C   0  0  0  0  0  0  0  0  0  0  0  0
   -5.9190   18.5470  -33.8150 C   0  0  1  0  0  0  0  0  0  0  0  0
   -6.1540   19.2440  -35.0150 O   0  0  0  0  0  0  0  0  0  0  0  0
   -7.0170   18.8430  -32.8020 C   0  0  0  0  0  0  0  0  0  0  0  0
   -7.9850   17.8600  -32.5130 C   0  0  0  0  0  0  0  0  0  0  0  0
   -9.0050   18.1120  -31.5930 C   0  0  0  0  0  0  0  0  0  0  0  0
   -9.0760   19.3460  -30.9460 C   0  0  0  0  0  0  0  0  0  0  0  0
   -8.1230   20.3290  -31.2120 C   0  0  0  0  0  0  0  0  0  0  0  0
   -7.0900   20.0880  -32.1290 C   0  0  0  0  0  0  0  0  0  0  0  0
   -6.1220   21.1180  -32.3630 N   0  0  0  0  0  0  0  0  0  0  0  0
   -6.5500   22.5220  -32.3380 C   0  0  0  0  0  0  0  0  0  0  0  0
   -5.3600   23.4630  -32.5420 C   0  0  0  0  0  0  0  0  0  0  0  0
   -4.2210   22.9990  -31.7340 N   0  0  0  0  0  0  0  0  0  0  0  0
   -3.6280   23.8520  -30.7300 C   0  0  0  0  0  0  0  0  0  0  0  0
   -4.1360   24.9790  -30.4780 O   0  0  0  0  0  0  0  0  0  0  0  0
   -2.4480   23.4370  -30.0220 N   0  0  0  0  0  0  0  0  0  0  0  0
   -2.0990   23.9120  -28.7100 C   0  0  0  0  0  0  0  0  0  0  0  0
   -3.1070   24.3860  -27.8570 C   0  0  0  0  0  0  0  0  0  0  0  0
   -2.7880   24.8740  -26.5860 C   0  0  0  0  0  0  0  0  0  0  0  0
   -1.4560   24.9050  -26.1610 C   0  0  0  0  0  0  0  0  0  0  0  0
   -1.0470   25.5390  -24.5330 S   0  0  0  0  0  0  0  0  0  0  0  0
   -1.1690   27.2800  -25.0480 C   0  0  0  0  0  0  0  0  0  0  0  0
   -0.4410   24.4590  -27.0140 C   0  0  0  0  0  0  0  0  0  0  0  0
   -0.7580   23.9670  -28.2840 C   0  0  0  0  0  0  0  0  0  0  0  0
   -3.7640   21.6050  -31.8750 C   0  0  0  0  0  0  0  0  0  0  0  0
   -4.7410   20.7620  -32.7050 C   0  0  0  0  0  0  0  0  0  0  0  0
   -5.4865   16.7431  -31.9301 H   0  0  0  0  0  0  0  0  0  0  0  0
   -5.2805   15.2571  -32.9181 H   0  0  0  0  0  0  0  0  0  0  0  0
   -4.0030   16.5199  -32.9181 H   0  0  0  0  0  0  0  0  0  0  0  0
   -5.1654   16.8672  -34.9573 H   0  0  0  0  0  0  0  0  0  0  0  0
   -6.7746   16.5983  -34.1673 H   0  0  0  0  0  0  0  0  0  0  0  0
   -4.9630   18.9022  -33.4028 H   0  0  0  0  0  0  0  0  0  0  0  0
   -7.0870   19.5810  -35.0030 H   0  0  0  0  0  0  0  0  0  0  0  0
   -7.9365   16.8838  -33.0176 H   0  0  0  0  0  0  0  0  0  0  0  0
   -9.7542   17.3358  -31.3780 H   0  0  0  0  0  0  0  0  0  0  0  0
   -9.8837   19.5437  -30.2260 H   0  0  0  0  0  0  0  0  0  0  0  0
   -8.1822   21.3001  -30.6988 H   0  0  0  0  0  0  0  0  0  0  0  0
   -7.2823   22.6890  -33.1416 H   0  0  0  0  0  0  0  0  0  0  0  0
   -6.9993   22.7335  -31.3565 H   0  0  0  0  0  0  0  0  0  0  0  0
   -5.0765   23.4699  -33.6048 H   0  0  0  0  0  0  0  0  0  0  0  0
   -5.6400   24.4798  -32.2296 H   0  0  0  0  0  0  0  0  0  0  0  0
   -1.7710   22.8100  -30.5120 H   0  0  0  0  0  0  0  0  0  0  0  0
   -4.1552   24.3737  -28.1903 H   0  0  0  0  0  0  0  0  0  0  0  0
   -3.5857   25.2339  -25.9196 H   0  0  0  0  0  0  0  0  0  0  0  0
   -1.2141   27.9236  -24.1571 H   0  0  0  0  0  0  0  0  0  0  0  0
   -0.2874   27.5472  -25.6491 H   0  0  0  0  0  0  0  0  0  0  0  0
   -2.0793   27.4216  -25.6491 H   0  0  0  0  0  0  0  0  0  0  0  0
    0.6081   24.4954  -26.6853 H   0  0  0  0  0  0  0  0  0  0  0  0
    0.0437   23.6214  -28.9532 H   0  0  0  0  0  0  0  0  0  0  0  0
   -2.7820   21.6014  -32.3705 H   0  0  0  0  0  0  0  0  0  0  0  0
   -3.7033   21.1636  -30.8693 H   0  0  0  0  0  0  0  0  0  0  0  0
   -4.5694   20.9524  -33.7747 H   0  0  0  0  0  0  0  0  0  0  0  0
   -4.5767   19.6966  -32.4861 H   0  0  0  0  0  0  0  0  0  0  0  0
  1  2  1  0
  2  3  1  0
  3  4  1  0
  3  5  1  0
  5  6  2  0
  6  7  1  0
  7  8  2  0
  8  9  1  0
  9 10  2  0
 10 11  1  0
 11 12  1  0
 12 13  1  0
 13 14  1  0
 14 15  1  0
 15 16  2  0
 15 17  1  0
 17 18  1  0
 18 19  2  0
 19 20  1  0
 20 21  2  0
 21 22  1  0
 22 23  1  0
 21 24  1  0
 24 25  2  0
 14 26  1  0
 26 27  1  0
 10  5  1  0
 27 11  1  0
 25 18  1  0
  1 28  1  0
  1 29  1  0
  1 30  1  0
  2 31  1  0
  2 32  1  0
  3 33  1  1
  4 34  1  0
  6 35  1  0
  7 36  1  0
  8 37  1  0
  9 38  1  0
 12 39  1  0
 12 40  1  0
 13 41  1  0
 13 42  1  0
 17 43  1  0
 19 44  1  0
 20 45  1  0
 23 46  1  0
 23 47  1  0
 23 48  1  0
 24 49  1  0
 25 50  1  0
 26 51  1  0
 26 52  1  0
 27 53  1  0
 27 54  1  0
M  END
>  <UniqueID>  (37) 
37

>  <SMILES>  (37) 
CC[C@@H](O)c1ccccc1N1CCN(C(=O)Nc2ccc(SC)cc2)CC1

>  <Energy>  (37) 
57.993032158631664

>  <Genealogy>  (37) 
CC[C@@H](O)c1ccccc1N1CCN(C(=O)Nc2ccc(SC)cc2)CC1 (chirality)
CC[C@@H](O)c1ccccc1N1CCN(C(=O)Nc2ccc(SC)cc2)CC1 (3D coordinates assigned)
CC[C@@H](O)c1ccccc1N1CCN(C(=O)Nc2ccc(SC)cc2)CC1 (nonaromatic ring conformer: 57.993032158631664 kcal/mol)

>  <smiles>  (37) 
CCC(O)c1ccccc1N1CCN(C(=O)Nc2ccc(SC)cc2)CC1

>  <score_type>  (37) 
oracle

>  <origin>  (37) 
adgpu

>  <m_score__min__energy>  (37) 
-8.6400000000000006

>  <m_primary>  (37) 
energy

$$$$
37:0
     RDKit          3D

 40 41  0  0  0  0  0  0  0  0999 V2000
   -1.6020   25.6510  -30.0540 H   0  0  0  0  0  0  0  0  0  0  0  0
   -1.9720   24.9370  -29.3880 N   0  0  0  0  0  0  0  0  0  0  0  0
   -3.6020   24.6070  -29.8580 S   0  0  0  0  0  0  0  0  0  0  0  0
   -4.0600   25.6500  -30.8380 O   0  0  0  0  0  0  0  0  0  0  0  0
   -4.4940   24.6570  -28.6500 O   0  0  0  0  0  0  0  0  0  0  0  0
   -3.6890   23.0110  -30.5980 C   0  0  0  0  0  0  0  0  0  0  0  0
   -4.4330   22.8140  -31.7690 C   0  0  0  0  0  0  0  0  0  0  0  0
   -4.9723   23.6577  -32.2244 H   0  0  0  0  0  0  0  0  0  0  0  0
   -4.4920   21.5490  -32.3600 C   0  0  0  0  0  0  0  0  0  0  0  0
   -5.0949   21.3979  -33.2676 H   0  0  0  0  0  0  0  0  0  0  0  0
   -3.7890   20.4720  -31.8050 C   0  0  0  0  0  0  0  0  0  0  0  0
   -3.9040   19.1810  -32.4270 N   0  0  0  0  0  0  0  0  0  0  0  0
   -4.9990   18.5040  -32.6320 C   0  0  0  0  0  0  0  0  0  0  0  0
   -6.1950   18.9510  -32.1650 N   0  0  0  0  0  0  0  0  0  0  0  0
   -7.3370   18.2420  -32.3490 C   0  0  0  0  0  0  0  0  0  0  0  0
   -8.6360   18.7740  -31.8340 C   0  0  0  0  0  0  0  0  0  0  0  0
   -8.6240   18.7691  -30.7341 H   0  0  0  0  0  0  0  0  0  0  0  0
   -8.7794   19.8033  -32.1945 H   0  0  0  0  0  0  0  0  0  0  0  0
   -9.4602   18.1410  -32.1945 H   0  0  0  0  0  0  0  0  0  0  0  0
   -7.2900   17.0230  -33.0270 C   0  0  0  0  0  0  0  0  0  0  0  0
   -8.2069   16.4367  -33.1866 H   0  0  0  0  0  0  0  0  0  0  0  0
   -6.0540   16.5570  -33.5020 C   0  0  0  0  0  0  0  0  0  0  0  0
   -5.9700   15.2990  -34.2160 N   0  0  0  0  0  0  0  0  0  0  0  0
   -4.6540   14.7520  -34.5700 C   0  0  0  0  0  0  0  0  0  0  0  0
   -4.0945   14.5195  -33.6519 H   0  0  0  0  0  0  0  0  0  0  0  0
   -4.7856   13.8340  -35.1616 H   0  0  0  0  0  0  0  0  0  0  0  0
   -4.0961   15.4928  -35.1616 H   0  0  0  0  0  0  0  0  0  0  0  0
   -7.1830   14.5480  -34.5780 C   0  0  0  0  0  0  0  0  0  0  0  0
   -7.5048   14.8481  -35.5862 H   0  0  0  0  0  0  0  0  0  0  0  0
   -7.9680   14.7726  -33.8409 H   0  0  0  0  0  0  0  0  0  0  0  0
   -6.9180   13.0440  -34.5650 C   0  0  0  0  0  0  0  0  0  0  0  0
   -6.8559   12.6916  -33.5248 H   0  0  0  0  0  0  0  0  0  0  0  0
   -7.7381   12.5227  -35.0804 H   0  0  0  0  0  0  0  0  0  0  0  0
   -5.9691   12.8344  -35.0804 H   0  0  0  0  0  0  0  0  0  0  0  0
   -4.9350   17.3090  -33.2850 N   0  0  0  0  0  0  0  0  0  0  0  0
   -4.0020   16.9690  -33.6060 H   0  0  0  0  0  0  0  0  0  0  0  0
   -3.0620   20.6660  -30.6160 C   0  0  0  0  0  0  0  0  0  0  0  0
   -2.5369   19.8192  -30.1500 H   0  0  0  0  0  0  0  0  0  0  0  0
   -3.0050   21.9320  -30.0250 C   0  0  0  0  0  0  0  0  0  0  0  0
   -2.4200   22.0809  -29.1055 H   0  0  0  0  0  0  0  0  0  0  0  0
  1  2  1  0
  2  3  1  0
  3  4  2  0
  3  5  2  0
  3  6  1  0
  6  7  2  0
  7  8  1  0
  7  9  1  0
  9 10  1  0
  9 11  2  0
 11 12  1  0
 12 13  2  0
 13 14  1  0
 14 15  2  0
 15 16  1  0
 16 17  1  0
 16 18  1  0
 16 19  1  0
 15 20  1  0
 20 21  1  0
 20 22  2  0
 22 23  1  0
 23 24  1  0
 24 25  1  0
 24 26  1  0
 24 27  1  0
 23 28  1  0
 28 29  1  0
 28 30  1  0
 28 31  1  0
 31 32  1  0
 31 33  1  0
 31 34  1  0
 22 35  1  0
 35 36  1  0
 11 37  1  0
 37 38  1  0
 37 39  2  0
 39 40  1  0
 39  6  1  0
 35 13  1  0
M  CHG  1   2  -1
M  END
>  <UniqueID>  (38) 
38

>  <SMILES>  (38) 
CCN(C)c1cc(C)n/c(=N\c2ccc(S([NH-])(=O)=O)cc2)[nH]1

>  <Energy>  (38) 
44.53449543602376

>  <Genealogy>  (38) 
CCN(C)c1cc(C)nc(=Nc2ccc(S([NH-])(=O)=O)cc2)[nH]1 (protonated)
CCN(C)c1cc(C)n/c(=N\c2ccc(S([NH-])(=O)=O)cc2)[nH]1 (cis-trans isomerization)
CCN(C)c1cc(C)n/c(=N\c2ccc(S([NH-])(=O)=O)cc2)[nH]1 (3D coordinates assigned)
CCN(C)c1cc(C)n/c(=N\c2ccc(S([NH-])(=O)=O)cc2)[nH]1 (optimized conformer: 44.53449543602376 kcal/mol)

>  <smiles>  (38) 
CCN(C)c1cc(C)nc(=Nc2ccc(S(N)(=O)=O)cc2)[nH]1

>  <score_type>  (38) 
oracle

>  <origin>  (38) 
adgpu

>  <m_score__min__energy>  (38) 
-8.9800000000000004

>  <m_primary>  (38) 
energy

$$$$
38:0
     RDKit          3D

 60 63  0  0  0  0  0  0  0  0999 V2000
   -3.0820   19.2600  -26.5530 C   0  0  0  0  0  0  0  0  0  0  0  0
   -2.5100   20.5140  -27.2090 C   0  0  0  0  0  0  0  0  0  0  0  0
   -1.3050   20.1720  -28.0560 C   0  0  0  0  0  0  0  0  0  0  0  0
   -0.6710   18.9330  -27.8630 C   0  0  0  0  0  0  0  0  0  0  0  0
    0.4060   18.5540  -28.6650 C   0  0  0  0  0  0  0  0  0  0  0  0
    0.8550   19.3980  -29.6810 C   0  0  0  0  0  0  0  0  0  0  0  0
    0.2310   20.6280  -29.8940 C   0  0  0  0  0  0  0  0  0  0  0  0
   -0.8460   21.0270  -29.0900 C   0  0  0  0  0  0  0  0  0  0  0  0
   -1.4560   22.3510  -29.3340 C   0  0  0  0  0  0  0  0  0  0  0  0
   -1.0860   23.5470  -28.7160 C   0  0  0  0  0  0  0  0  0  0  0  0
   -0.0200   23.7400  -27.7020 C   0  0  0  0  0  0  0  0  0  0  0  0
    0.8660   24.6140  -27.9000 O   0  0  0  0  0  0  0  0  0  0  0  0
    0.0360   22.8750  -26.4620 C   0  0  0  0  0  0  0  0  0  0  0  0
   -0.0490   23.6630  -25.1310 C   0  0  0  0  0  0  0  0  0  0  0  0
   -1.0540   24.8230  -25.2290 C   0  0  0  0  0  0  0  0  0  0  0  0
   -0.4490   22.7260  -23.9830 C   0  0  0  0  0  0  0  0  0  0  0  0
   -1.9220   24.5110  -29.2590 C   0  0  0  0  0  0  0  0  0  0  0  0
   -1.9490   25.8650  -28.9520 O   0  0  0  0  0  0  0  0  0  0  0  0
   -2.7460   23.8850  -30.1640 C   0  0  0  0  0  0  0  0  0  0  0  0
   -3.7450   24.5190  -30.8960 O   0  0  0  0  0  0  0  0  0  0  0  0
   -2.4670   22.5650  -30.2130 N   0  0  0  0  0  0  0  0  0  0  0  0
   -3.1050   21.5820  -31.0440 C   0  0  0  0  0  0  0  0  0  0  0  0
   -4.4830   21.3670  -30.9520 C   0  0  0  0  0  0  0  0  0  0  0  0
   -5.0970   20.3780  -31.7220 C   0  0  0  0  0  0  0  0  0  0  0  0
   -4.3460   19.5790  -32.6030 C   0  0  0  0  0  0  0  0  0  0  0  0
   -5.0450   18.5310  -33.3930 C   0  0  0  0  0  0  0  0  0  0  0  0
   -5.1920   17.2540  -32.9690 N   0  0  0  0  0  0  0  0  0  0  0  0
   -5.8660   16.6670  -33.9740 C   0  0  0  0  0  0  0  0  0  0  0  0
   -6.2700   15.2540  -33.9790 C   0  0  0  0  0  0  0  0  0  0  0  0
   -5.3730   14.2560  -33.4990 N   0  0  0  0  0  0  0  0  0  0  0  0
   -7.4070   14.9210  -34.4050 O   0  0  0  0  0  0  0  0  0  0  0  0
   -6.1060   17.5890  -34.9670 C   0  0  0  0  0  0  0  0  0  0  0  0
   -5.5870   18.7260  -34.5760 O   0  0  0  0  0  0  0  0  0  0  0  0
   -2.9500   19.8050  -32.7020 C   0  0  0  0  0  0  0  0  0  0  0  0
   -1.9030   18.8770  -33.7690 Cl  0  0  0  0  0  0  0  0  0  0  0  0
   -2.3470   20.8010  -31.9230 C   0  0  0  0  0  0  0  0  0  0  0  0
   -3.0344   19.3643  -25.4590 H   0  0  0  0  0  0  0  0  0  0  0  0
   -4.1290   19.1288  -26.8636 H   0  0  0  0  0  0  0  0  0  0  0  0
   -2.4947   18.3833  -26.8636 H   0  0  0  0  0  0  0  0  0  0  0  0
   -3.2810   20.9719  -27.8461 H   0  0  0  0  0  0  0  0  0  0  0  0
   -2.2003   21.2157  -26.4205 H   0  0  0  0  0  0  0  0  0  0  0  0
   -1.0269   18.2558  -27.0726 H   0  0  0  0  0  0  0  0  0  0  0  0
    0.9024   17.5871  -28.4957 H   0  0  0  0  0  0  0  0  0  0  0  0
    1.7013   19.0939  -30.3145 H   0  0  0  0  0  0  0  0  0  0  0  0
    0.5866   21.2889  -30.6982 H   0  0  0  0  0  0  0  0  0  0  0  0
   -0.8051   22.1670  -26.4975 H   0  0  0  0  0  0  0  0  0  0  0  0
    1.0159   22.3753  -26.4703 H   0  0  0  0  0  0  0  0  0  0  0  0
    0.9461   24.0856  -24.9283 H   0  0  0  0  0  0  0  0  0  0  0  0
   -1.3369   25.1495  -24.2174 H   0  0  0  0  0  0  0  0  0  0  0  0
   -0.5932   25.6627  -25.7699 H   0  0  0  0  0  0  0  0  0  0  0  0
   -1.9508   24.4865  -25.7699 H   0  0  0  0  0  0  0  0  0  0  0  0
   -0.2400   23.2156  -23.0204 H   0  0  0  0  0  0  0  0  0  0  0  0
   -1.5229   22.4981  -24.0529 H   0  0  0  0  0  0  0  0  0  0  0  0
    0.1292   21.7928  -24.0529 H   0  0  0  0  0  0  0  0  0  0  0  0
   -3.5310   25.2270  -31.5870 H   0  0  0  0  0  0  0  0  0  0  0  0
   -5.0875   21.9812  -30.2683 H   0  0  0  0  0  0  0  0  0  0  0  0
   -6.1826   20.2213  -31.6388 H   0  0  0  0  0  0  0  0  0  0  0  0
   -4.4870   14.5200  -33.0110 H   0  0  0  0  0  0  0  0  0  0  0  0
   -6.6355   17.4051  -35.9135 H   0  0  0  0  0  0  0  0  0  0  0  0
   -1.2632   20.9712  -32.0035 H   0  0  0  0  0  0  0  0  0  0  0  0
  1  2  1  0
  2  3  1  0
  3  4  2  0
  4  5  1  0
  5  6  2  0
  6  7  1  0
  7  8  2  0
  8  9  1  0
  9 10  2  0
 10 11  1  0
 11 12  2  0
 11 13  1  0
 13 14  1  0
 14 15  1  0
 14 16  1  0
 10 17  1  0
 17 18  1  0
 17 19  2  0
 19 20  1  0
 19 21  1  0
 21 22  1  0
 22 23  2  0
 23 24  1  0
 24 25  2  0
 25 26  1  0
 26 27  2  0
 27 28  1  0
 28 29  1  0
 29 30  1  0
 29 31  2  0
 28 32  2  0
 32 33  1  0
 25 34  1  0
 34 35  1  0
 34 36  2  0
  8  3  1  0
 21  9  1  0
 36 22  1  0
 33 26  1  0
  1 37  1  0
  1 38  1  0
  1 39  1  0
  2 40  1  0
  2 41  1  0
  4 42  1  0
  5 43  1  0
  6 44  1  0
  7 45  1  0
 13 46  1  0
 13 47  1  0
 14 48  1  0
 15 49  1  0
 15 50  1  0
 15 51  1  0
 16 52  1  0
 16 53  1  0
 16 54  1  0
 20 55  1  0
 23 56  1  0
 24 57  1  0
 30 58  1  0
 32 59  1  0
 36 60  1  0
M  CHG  2  18  -1  30  -1
M  END
>  <UniqueID>  (39) 
39

>  <SMILES>  (39) 
CCc1ccccc1-c1c(C(=O)CC(C)C)c([O-])c(O)n1-c1ccc(-c2nc(C([NH-])=O)co2)c(Cl)c1

>  <Energy>  (39) 
129.56245874249709

>  <Genealogy>  (39) 
CCc1ccccc1-c1c(C(=O)CC(C)C)c([O-])c(O)n1-c1ccc(-c2nc(C([NH-])=O)co2)c(Cl)c1 (protonated)
CCc1ccccc1-c1c(C(=O)CC(C)C)c([O-])c(O)n1-c1ccc(-c2nc(C([NH-])=O)co2)c(Cl)c1 (3D coordinates assigned)
CCc1ccccc1-c1c(C(=O)CC(C)C)c([O-])c(O)n1-c1ccc(-c2nc(C([NH-])=O)co2)c(Cl)c1 (optimized conformer: 129.56245874249709 kcal/mol)

>  <smiles>  (39) 
CCc1ccccc1-c1c(C(=O)CC(C)C)c(O)c(O)n1-c1ccc(-c2nc(C(N)=O)co2)c(Cl)c1

>  <score_type>  (39) 
oracle

>  <origin>  (39) 
adgpu

>  <m_score__min__energy>  (39) 
-12.26

>  <m_primary>  (39) 
energy

$$$$
39:0
     RDKit          3D

 53 56  0  0  0  0  0  0  0  0999 V2000
   -3.9510   24.7070  -31.5040 H   0  0  0  0  0  0  0  0  0  0  0  0
   -3.9190   25.5140  -30.9240 O   0  0  0  0  0  0  0  0  0  0  0  0
   -5.2390   25.7770  -30.5320 C   0  0  0  0  0  0  0  0  0  0  0  0
   -5.6338   26.6161  -31.1237 H   0  0  0  0  0  0  0  0  0  0  0  0
   -5.2522   26.0338  -29.4625 H   0  0  0  0  0  0  0  0  0  0  0  0
   -6.0980   24.5620  -30.7570 C   0  0  0  0  0  0  0  0  0  0  0  0
   -6.4120   24.1410  -32.0590 C   0  0  0  0  0  0  0  0  0  0  0  0
   -6.0541   24.7208  -32.9226 H   0  0  0  0  0  0  0  0  0  0  0  0
   -7.1770   22.9890  -32.2640 C   0  0  0  0  0  0  0  0  0  0  0  0
   -7.4315   22.6773  -33.2877 H   0  0  0  0  0  0  0  0  0  0  0  0
   -7.6210   22.2300  -31.1760 C   0  0  0  0  0  0  0  0  0  0  0  0
   -8.4150   21.0600  -31.4240 N   0  0  0  0  0  0  0  0  0  0  0  0
   -8.2030   20.1050  -32.4730 C   0  0  0  0  0  0  0  0  0  0  0  0
   -9.1750   19.7980  -33.2140 O   0  0  0  0  0  0  0  0  0  0  0  0
   -6.8720   19.5090  -32.7340 C   0  0  0  0  0  0  0  0  0  0  0  0
   -6.6770   18.1190  -32.6530 C   0  0  0  0  0  0  0  0  0  0  0  0
   -7.5177   17.4623  -32.3848 H   0  0  0  0  0  0  0  0  0  0  0  0
   -5.4190   17.5690  -32.9120 C   0  0  0  0  0  0  0  0  0  0  0  0
   -5.2737   16.4804  -32.8492 H   0  0  0  0  0  0  0  0  0  0  0  0
   -4.3460   18.3950  -33.2500 C   0  0  0  0  0  0  0  0  0  0  0  0
   -3.3571   17.9569  -33.4505 H   0  0  0  0  0  0  0  0  0  0  0  0
   -4.5270   19.7800  -33.3340 C   0  0  0  0  0  0  0  0  0  0  0  0
   -3.1590   20.8570  -33.7870 S   0  0  0  0  0  0  0  0  0  0  0  0
   -2.1270   20.3250  -32.4070 C   0  0  0  0  0  0  0  0  0  0  0  0
   -1.1580   19.3410  -32.6580 C   0  0  0  0  0  0  0  0  0  0  0  0
   -1.0476   18.9324  -33.6733 H   0  0  0  0  0  0  0  0  0  0  0  0
   -0.3340   18.8760  -31.6340 C   0  0  0  0  0  0  0  0  0  0  0  0
    0.4104   18.0928  -31.8402 H   0  0  0  0  0  0  0  0  0  0  0  0
   -0.4530   19.4030  -30.3490 C   0  0  0  0  0  0  0  0  0  0  0  0
    0.1886   19.0256  -29.5391 H   0  0  0  0  0  0  0  0  0  0  0  0
   -1.3860   20.4100  -30.0880 C   0  0  0  0  0  0  0  0  0  0  0  0
   -1.4619   20.8314  -29.0748 H   0  0  0  0  0  0  0  0  0  0  0  0
   -2.2310   20.8920  -31.1080 C   0  0  0  0  0  0  0  0  0  0  0  0
   -3.1620   22.0110  -30.7880 C   0  0  0  0  0  0  0  0  0  0  0  0
   -4.4000   21.8050  -30.7040 O   0  0  0  0  0  0  0  0  0  0  0  0
   -2.6680   23.3190  -30.4530 N   0  0  0  0  0  0  0  0  0  0  0  0
   -2.3170   23.7480  -29.2720 C   0  0  0  0  0  0  0  0  0  0  0  0
   -2.2610   22.8980  -28.1450 C   0  0  0  0  0  0  0  0  0  0  0  0
   -2.5185   21.8330  -28.2427 H   0  0  0  0  0  0  0  0  0  0  0  0
   -1.8780   23.4150  -26.9090 C   0  0  0  0  0  0  0  0  0  0  0  0
   -1.8380   22.7596  -26.0265 H   0  0  0  0  0  0  0  0  0  0  0  0
   -1.5450   24.7660  -26.7920 C   0  0  0  0  0  0  0  0  0  0  0  0
   -1.0450   25.4280  -25.2480 Cl  0  0  0  0  0  0  0  0  0  0  0  0
   -1.5990   25.5810  -27.9270 C   0  0  0  0  0  0  0  0  0  0  0  0
   -1.3436   26.6480  -27.8476 H   0  0  0  0  0  0  0  0  0  0  0  0
   -1.9660   25.0600  -29.1290 N   0  0  0  0  0  0  0  0  0  0  0  0
   -1.9930   25.6970  -29.9570 H   0  0  0  0  0  0  0  0  0  0  0  0
   -5.7820   20.3350  -33.0550 C   0  0  0  0  0  0  0  0  0  0  0  0
   -5.9154   21.4264  -33.0874 H   0  0  0  0  0  0  0  0  0  0  0  0
   -7.3190   22.6550  -29.8700 C   0  0  0  0  0  0  0  0  0  0  0  0
   -7.6902   22.0825  -29.0072 H   0  0  0  0  0  0  0  0  0  0  0  0
   -6.5470   23.8050  -29.6650 C   0  0  0  0  0  0  0  0  0  0  0  0
   -6.2912   24.1166  -28.6415 H   0  0  0  0  0  0  0  0  0  0  0  0
  1  2  1  0
  2  3  1  0
  3  4  1  0
  3  5  1  0
  3  6  1  0
  6  7  2  0
  7  8  1  0
  7  9  1  0
  9 10  1  0
  9 11  2  0
 11 12  1  0
 12 13  1  0
 13 14  2  0
 13 15  1  0
 15 16  2  0
 16 17  1  0
 16 18  1  0
 18 19  1  0
 18 20  2  0
 20 21  1  0
 20 22  1  0
 22 23  1  0
 23 24  1  0
 24 25  2  0
 25 26  1  0
 25 27  1  0
 27 28  1  0
 27 29  2  0
 29 30  1  0
 29 31  1  0
 31 32  1  0
 31 33  2  0
 33 34  1  0
 34 35  2  0
 34 36  1  0
 36 37  2  0
 37 38  1  0
 38 39  1  0
 38 40  2  0
 40 41  1  0
 40 42  1  0
 42 43  1  0
 42 44  2  0
 44 45  1  0
 44 46  1  0
 46 47  1  0
 22 48  2  0
 48 49  1  0
 11 50  1  0
 50 51  1  0
 50 52  2  0
 52 53  1  0
 52  6  1  0
 48 15  1  0
 33 24  1  0
 46 37  1  0
M  CHG  1  12  -1
M  END
>  <UniqueID>  (40) 
40

>  <SMILES>  (40) 
O=C([N-]c1ccc(CO)cc1)c1cccc(Sc2ccccc2C(=O)/N=c2\ccc(Cl)c[nH]2)c1

>  <Energy>  (40) 
74.14255039907316

>  <Genealogy>  (40) 
O=C([N-]c1ccc(CO)cc1)c1cccc(Sc2ccccc2C(=O)N=c2ccc(Cl)c[nH]2)c1 (protonated)
O=C([N-]c1ccc(CO)cc1)c1cccc(Sc2ccccc2C(=O)/N=c2\ccc(Cl)c[nH]2)c1 (cis-trans isomerization)
O=C([N-]c1ccc(CO)cc1)c1cccc(Sc2ccccc2C(=O)/N=c2\ccc(Cl)c[nH]2)c1 (3D coordinates assigned)
O=C([N-]c1ccc(CO)cc1)c1cccc(Sc2ccccc2C(=O)/N=c2\ccc(Cl)c[nH]2)c1 (optimized conformer: 74.14255039907316 kcal/mol)

>  <smiles>  (40) 
O=C(Nc1ccc(CO)cc1)c1cccc(Sc2ccccc2C(=O)N=c2ccc(Cl)c[nH]2)c1

>  <score_type>  (40) 
oracle

>  <origin>  (40) 
adgpu

>  <m_score__min__energy>  (40) 
-11.74

>  <m_primary>  (40) 
energy

$$$$
40:0
     RDKit          3D

 38 40  0  0  0  0  0  0  0  0999 V2000
   -6.0530   26.0230  -30.2500 O   0  0  0  0  0  0  0  0  0  0  0  0
   -5.2680   25.1310  -30.6670 C   0  0  0  0  0  0  0  0  0  0  0  0
   -3.8620   25.2990  -30.4260 N   0  0  0  0  0  0  0  0  0  0  0  0
   -3.0280   24.5440  -29.4930 C   0  0  0  0  0  0  0  0  0  0  0  0
   -3.7950   24.1600  -28.2290 C   0  0  0  0  0  0  0  0  0  0  0  0
   -3.3070   22.7690  -27.8290 C   0  0  0  0  0  0  0  0  0  0  0  0
   -2.3750   22.2900  -28.9380 C   0  0  0  0  0  0  0  0  0  0  0  0
   -2.6070   23.2220  -30.1130 C   0  0  0  0  0  0  0  0  0  0  0  0
   -5.8360   23.9580  -31.3710 C   0  0  0  0  0  0  0  0  0  0  0  0
   -5.6300   23.7940  -32.6010 O   0  0  0  0  0  0  0  0  0  0  0  0
   -6.6320   23.0070  -30.6440 N   0  0  0  0  0  0  0  0  0  0  0  0
   -7.0070   21.7150  -31.1540 C   0  0  0  0  0  0  0  0  0  0  0  0
   -8.3660   21.3640  -31.2080 C   0  0  0  0  0  0  0  0  0  0  0  0
   -8.7580   20.1100  -31.6870 C   0  0  0  0  0  0  0  0  0  0  0  0
   -7.7910   19.1920  -32.1040 C   0  0  0  0  0  0  0  0  0  0  0  0
   -6.4310   19.5120  -32.0070 C   0  0  0  0  0  0  0  0  0  0  0  0
   -6.0370   20.7710  -31.5440 C   0  0  0  0  0  0  0  0  0  0  0  0
   -5.4790   18.5560  -32.3750 O   0  0  0  0  0  0  0  0  0  0  0  0
   -5.8480   17.1900  -32.5850 C   0  0  0  0  0  0  0  0  0  0  0  0
   -7.2120   17.1100  -33.2860 C   0  0  0  0  0  0  0  0  0  0  0  0
   -8.1610   17.9440  -32.6150 O   0  0  0  0  0  0  0  0  0  0  0  0
   -2.1725   25.1942  -29.2577 H   0  0  0  0  0  0  0  0  0  0  0  0
   -3.5870   24.8811  -27.4248 H   0  0  0  0  0  0  0  0  0  0  0  0
   -4.8805   24.1640  -28.4067 H   0  0  0  0  0  0  0  0  0  0  0  0
   -2.7638   22.8189  -26.8738 H   0  0  0  0  0  0  0  0  0  0  0  0
   -4.1525   22.0774  -27.6994 H   0  0  0  0  0  0  0  0  0  0  0  0
   -1.3274   22.3459  -28.6072 H   0  0  0  0  0  0  0  0  0  0  0  0
   -2.5768   21.2431  -29.2089 H   0  0  0  0  0  0  0  0  0  0  0  0
   -1.6824   23.3460  -30.6959 H   0  0  0  0  0  0  0  0  0  0  0  0
   -3.3672   22.8309  -30.8052 H   0  0  0  0  0  0  0  0  0  0  0  0
   -7.0440   23.3080  -29.7320 H   0  0  0  0  0  0  0  0  0  0  0  0
   -9.1284   22.0816  -30.8706 H   0  0  0  0  0  0  0  0  0  0  0  0
   -9.8250   19.8471  -31.7353 H   0  0  0  0  0  0  0  0  0  0  0  0
   -4.9683   21.0247  -31.4842 H   0  0  0  0  0  0  0  0  0  0  0  0
   -5.0881   16.7008  -33.2121 H   0  0  0  0  0  0  0  0  0  0  0  0
   -5.9150   16.6829  -31.6112 H   0  0  0  0  0  0  0  0  0  0  0  0
   -7.1055   17.4460  -34.3280 H   0  0  0  0  0  0  0  0  0  0  0  0
   -7.5679   16.0694  -33.2620 H   0  0  0  0  0  0  0  0  0  0  0  0
  1  2  2  0
  2  3  1  0
  3  4  1  0
  4  5  1  0
  5  6  1  0
  6  7  1  0
  7  8  1  0
  2  9  1  0
  9 10  2  0
  9 11  1  0
 11 12  1  0
 12 13  2  0
 13 14  1  0
 14 15  2  0
 15 16  1  0
 16 17  2  0
 16 18  1  0
 18 19  1  0
 19 20  1  0
 20 21  1  0
  8  4  1  0
 17 12  1  0
 21 15  1  0
  4 22  1  0
  5 23  1  0
  5 24  1  0
  6 25  1  0
  6 26  1  0
  7 27  1  0
  7 28  1  0
  8 29  1  0
  8 30  1  0
 11 31  1  0
 13 32  1  0
 14 33  1  0
 17 34  1  0
 19 35  1  0
 19 36  1  0
 20 37  1  0
 20 38  1  0
M  CHG  1   3  -1
M  END
>  <UniqueID>  (41) 
41

>  <SMILES>  (41) 
O=C([N-]C1CCCC1)C(=O)Nc1ccc2c(c1)OCCO2

>  <Energy>  (41) 
43.25564033581023

>  <Genealogy>  (41) 
O=C([N-]C1CCCC1)C(=O)Nc1ccc2c(c1)OCCO2 (protonated)
O=C([N-]C1CCCC1)C(=O)Nc1ccc2c(c1)OCCO2 (3D coordinates assigned)
O=C([N-]C1CCCC1)C(=O)Nc1ccc2c(c1)OCCO2 (nonaromatic ring conformer: 43.25564033581023 kcal/mol)

>  <smiles>  (41) 
O=C(Nc1ccc2c(c1)OCCO2)C(=O)NC1CCCC1

>  <score_type>  (41) 
oracle

>  <origin>  (41) 
adgpu

>  <m_score__min__energy>  (41) 
-8.75

>  <m_primary>  (41) 
energy

$$$$
41:0
     RDKit          3D

 56 60  0  0  0  0  0  0  0  0999 V2000
   -3.5730   22.2090  -32.8380 O   0  0  0  0  0  0  0  0  0  0  0  0
   -3.9700   22.7210  -31.7560 C   0  0  0  0  0  0  0  0  0  0  0  0
   -5.3250   23.1850  -31.6270 N   0  0  0  0  0  0  0  0  0  0  0  0
   -6.4480   22.5540  -31.8420 C   0  0  0  0  0  0  0  0  0  0  0  0
   -6.5210   21.1820  -32.1600 C   0  0  0  0  0  0  0  0  0  0  0  0
   -7.7700   20.5870  -32.3620 C   0  0  0  0  0  0  0  0  0  0  0  0
   -8.9060   21.3220  -32.2420 N   0  0  0  0  0  0  0  0  0  0  0  0
   -8.8690   22.6410  -31.9250 C   0  0  0  0  0  0  0  0  0  0  0  0
   -7.6420   23.2770  -31.7180 C   0  0  0  0  0  0  0  0  0  0  0  0
   -3.0030   22.9040  -30.6390 C   0  0  0  0  0  0  0  0  0  0  0  0
   -2.2690   21.7960  -30.1720 C   0  0  0  0  0  0  0  0  0  0  0  0
   -1.3530   21.9250  -29.1130 C   0  0  0  0  0  0  0  0  0  0  0  0
   -0.5880   20.7520  -28.6260 C   0  0  0  0  0  0  0  0  0  0  0  0
   -1.2090   19.4960  -28.4990 C   0  0  0  0  0  0  0  0  0  0  0  0
   -0.4720   18.3790  -28.0970 C   0  0  0  0  0  0  0  0  0  0  0  0
    0.9000   18.4940  -27.8320 C   0  0  0  0  0  0  0  0  0  0  0  0
    1.8750   17.0630  -27.4700 S   0  0  0  0  0  0  0  0  0  0  0  0
    1.0000   16.0230  -26.8250 O   0  0  0  0  0  0  0  0  0  0  0  0
    2.9320   17.4540  -26.4760 O   0  0  0  0  0  0  0  0  0  0  0  0
    2.6670   16.3890  -28.8880 N   0  0  0  0  0  0  0  0  0  0  0  0
    1.8980   15.3150  -29.5430 C   0  0  0  0  0  0  0  0  0  0  0  0
    0.6170   15.8250  -30.2190 C   0  0  0  0  0  0  0  0  0  0  0  0
    0.7960   17.1600  -30.8950 C   0  0  0  0  0  0  0  0  0  0  0  0
   -0.2600   17.6860  -31.6560 C   0  0  0  0  0  0  0  0  0  0  0  0
   -0.1540   18.9540  -32.2360 C   0  0  0  0  0  0  0  0  0  0  0  0
    1.0100   19.7060  -32.0630 C   0  0  0  0  0  0  0  0  0  0  0  0
    2.0670   19.1970  -31.3050 C   0  0  0  0  0  0  0  0  0  0  0  0
    1.9590   17.9360  -30.6960 C   0  0  0  0  0  0  0  0  0  0  0  0
    3.0980   17.4160  -29.8510 C   0  0  0  0  0  0  0  0  0  0  0  0
    1.5090   19.7560  -27.8990 C   0  0  0  0  0  0  0  0  0  0  0  0
    0.7740   20.8740  -28.3030 C   0  0  0  0  0  0  0  0  0  0  0  0
   -1.1650   23.1830  -28.5230 C   0  0  0  0  0  0  0  0  0  0  0  0
   -1.8840   24.2890  -28.9750 C   0  0  0  0  0  0  0  0  0  0  0  0
   -2.7990   24.1610  -30.0230 C   0  0  0  0  0  0  0  0  0  0  0  0
   -3.4870   25.2960  -30.4420 O   0  0  0  0  0  0  0  0  0  0  0  0
   -5.6018   20.5842  -32.2485 H   0  0  0  0  0  0  0  0  0  0  0  0
   -7.8330   19.5193  -32.6191 H   0  0  0  0  0  0  0  0  0  0  0  0
   -9.8057   23.2100  -31.8309 H   0  0  0  0  0  0  0  0  0  0  0  0
   -7.6134   24.3454  -31.4577 H   0  0  0  0  0  0  0  0  0  0  0  0
   -2.4149   20.8131  -30.6439 H   0  0  0  0  0  0  0  0  0  0  0  0
   -2.2821   19.3926  -28.7177 H   0  0  0  0  0  0  0  0  0  0  0  0
   -0.9707   17.4046  -27.9879 H   0  0  0  0  0  0  0  0  0  0  0  0
    2.5340   14.8433  -30.3065 H   0  0  0  0  0  0  0  0  0  0  0  0
    1.5977   14.6005  -28.7624 H   0  0  0  0  0  0  0  0  0  0  0  0
    0.3032   15.0895  -30.9744 H   0  0  0  0  0  0  0  0  0  0  0  0
   -0.1397   15.9553  -29.4313 H   0  0  0  0  0  0  0  0  0  0  0  0
   -1.1777   17.0962  -31.7971 H   0  0  0  0  0  0  0  0  0  0  0  0
   -0.9875   19.3591  -32.8285 H   0  0  0  0  0  0  0  0  0  0  0  0
    1.0945   20.7009  -32.5245 H   0  0  0  0  0  0  0  0  0  0  0  0
    2.9880   19.7863  -31.1845 H   0  0  0  0  0  0  0  0  0  0  0  0
    3.8582   16.9790  -30.5152 H   0  0  0  0  0  0  0  0  0  0  0  0
    3.4996   18.2635  -29.2761 H   0  0  0  0  0  0  0  0  0  0  0  0
    2.5704   19.8662  -27.6322 H   0  0  0  0  0  0  0  0  0  0  0  0
    1.2651   21.8561  -28.3685 H   0  0  0  0  0  0  0  0  0  0  0  0
   -0.4460   23.2982  -27.6986 H   0  0  0  0  0  0  0  0  0  0  0  0
   -1.7295   25.2703  -28.5025 H   0  0  0  0  0  0  0  0  0  0  0  0
  1  2  2  0
  2  3  1  0
  3  4  2  3
  4  5  1  0
  5  6  2  0
  6  7  1  0
  7  8  1  0
  8  9  2  0
  2 10  1  0
 10 11  2  0
 11 12  1  0
 12 13  1  0
 13 14  2  0
 14 15  1  0
 15 16  2  0
 16 17  1  0
 17 18  2  0
 17 19  2  0
 17 20  1  0
 20 21  1  0
 21 22  1  0
 22 23  1  0
 23 24  2  0
 24 25  1  0
 25 26  2  0
 26 27  1  0
 27 28  2  0
 28 29  1  0
 16 30  1  0
 30 31  2  0
 12 32  2  0
 32 33  1  0
 33 34  2  0
 34 35  1  0
  9  4  1  0
 34 10  1  0
 31 13  1  0
 29 20  1  0
 28 23  1  0
  5 36  1  0
  6 37  1  0
  8 38  1  0
  9 39  1  0
 11 40  1  0
 14 41  1  0
 15 42  1  0
 21 43  1  0
 21 44  1  0
 22 45  1  0
 22 46  1  0
 24 47  1  0
 25 48  1  0
 26 49  1  0
 27 50  1  0
 29 51  1  0
 29 52  1  0
 30 53  1  0
 31 54  1  0
 32 55  1  0
 33 56  1  0
M  CHG  2   7  -1  35  -1
M  END
>  <UniqueID>  (42) 
42

>  <SMILES>  (42) 
O=C(N=c1cc[n-]cc1)c1cc(-c2ccc(S(=O)(=O)N3CCc4ccccc4C3)cc2)ccc1[O-]

>  <Energy>  (42) 
81.89517581554018

>  <Genealogy>  (42) 
O=C(N=c1cc[n-]cc1)c1cc(-c2ccc(S(=O)(=O)N3CCc4ccccc4C3)cc2)ccc1[O-] (protonated)
O=C(N=c1cc[n-]cc1)c1cc(-c2ccc(S(=O)(=O)N3CCc4ccccc4C3)cc2)ccc1[O-] (3D coordinates assigned)
O=C(N=c1cc[n-]cc1)c1cc(-c2ccc(S(=O)(=O)N3CCc4ccccc4C3)cc2)ccc1[O-] (nonaromatic ring conformer: 81.89517581554018 kcal/mol)

>  <smiles>  (42) 
O=C(N=c1cc[nH]cc1)c1cc(-c2ccc(S(=O)(=O)N3CCc4ccccc4C3)cc2)ccc1O

>  <score_type>  (42) 
oracle

>  <origin>  (42) 
adgpu

>  <m_score__min__energy>  (42) 
-12.369999999999999

>  <m_primary>  (42) 
energy

$$$$
42:0
     RDKit          3D

 52 55  0  0  0  0  0  0  0  0999 V2000
   -5.7350   25.2880  -28.9680 O   0  0  0  0  0  0  0  0  0  0  0  0
   -5.2960   25.0710  -30.3920 S   0  0  0  0  0  0  0  0  0  0  0  0
   -5.7130   26.2620  -31.2070 O   0  0  0  0  0  0  0  0  0  0  0  0
   -3.5700   24.9410  -30.4380 N   0  0  0  0  0  0  0  0  0  0  0  0
   -2.7660   24.1660  -29.5370 C   0  0  0  0  0  0  0  0  0  0  0  0
   -3.1150   22.8570  -29.1630 C   0  0  0  0  0  0  0  0  0  0  0  0
   -2.3290   22.1380  -28.2610 C   0  0  0  0  0  0  0  0  0  0  0  0
   -1.1450   22.7080  -27.7520 C   0  0  0  0  0  0  0  0  0  0  0  0
   -0.7960   24.0160  -28.1180 C   0  0  0  0  0  0  0  0  0  0  0  0
   -1.6040   24.7430  -28.9990 C   0  0  0  0  0  0  0  0  0  0  0  0
   -1.2440   26.0400  -29.3440 O   0  0  0  0  0  0  0  0  0  0  0  0
   -0.2980   21.9340  -26.7760 C   0  0  0  0  0  0  0  0  0  0  0  0
   -0.5690   20.4190  -26.8540 C   0  0  0  0  0  0  0  0  0  0  0  0
   -2.0710   20.1470  -26.8210 C   0  0  0  0  0  0  0  0  0  0  0  0
   -2.7130   20.8430  -27.8850 O   0  0  0  0  0  0  0  0  0  0  0  0
   -6.0590   23.6100  -30.9990 C   0  0  0  0  0  0  0  0  0  0  0  0
   -7.3530   23.6700  -31.5320 C   0  0  0  0  0  0  0  0  0  0  0  0
   -7.9930   22.5020  -31.9550 C   0  0  0  0  0  0  0  0  0  0  0  0
   -7.3490   21.2620  -31.8370 C   0  0  0  0  0  0  0  0  0  0  0  0
   -8.2120   19.7720  -32.2290 S   0  0  0  0  0  0  0  0  0  0  0  0
   -8.6980   19.1300  -30.9580 O   0  0  0  0  0  0  0  0  0  0  0  0
   -9.4160   20.1010  -33.0760 O   0  0  0  0  0  0  0  0  0  0  0  0
   -7.1930   18.6490  -33.1020 N   0  0  0  0  0  0  0  0  0  0  0  0
   -6.4100   17.7850  -32.1870 C   0  0  0  0  0  0  0  0  0  0  0  0
   -5.0140   17.4650  -32.7200 C   0  0  0  0  0  0  0  0  0  0  0  0
   -4.2400   18.7650  -32.9270 C   0  0  0  0  0  0  0  0  0  0  0  0
   -5.0300   19.7930  -33.7610 C   0  0  0  0  0  0  0  0  0  0  0  0
   -6.4320   19.3060  -34.1860 C   0  0  0  0  0  0  0  0  0  0  0  0
   -6.0430   21.2080  -31.3300 C   0  0  0  0  0  0  0  0  0  0  0  0
   -5.4040   22.3760  -30.9120 C   0  0  0  0  0  0  0  0  0  0  0  0
   -4.0184   22.3935  -29.5862 H   0  0  0  0  0  0  0  0  0  0  0  0
    0.1178   24.4728  -27.7103 H   0  0  0  0  0  0  0  0  0  0  0  0
    0.7627   22.1175  -27.0024 H   0  0  0  0  0  0  0  0  0  0  0  0
   -0.5518   22.2735  -25.7610 H   0  0  0  0  0  0  0  0  0  0  0  0
   -0.1490   20.0230  -27.7904 H   0  0  0  0  0  0  0  0  0  0  0  0
   -0.0971   19.9262  -25.9912 H   0  0  0  0  0  0  0  0  0  0  0  0
   -2.2487   19.0671  -26.9319 H   0  0  0  0  0  0  0  0  0  0  0  0
   -2.4811   20.4946  -25.8613 H   0  0  0  0  0  0  0  0  0  0  0  0
   -7.8666   24.6389  -31.6178 H   0  0  0  0  0  0  0  0  0  0  0  0
   -9.0053   22.5555  -32.3820 H   0  0  0  0  0  0  0  0  0  0  0  0
   -6.3071   18.2999  -31.2204 H   0  0  0  0  0  0  0  0  0  0  0  0
   -6.9517   16.8328  -32.0881 H   0  0  0  0  0  0  0  0  0  0  0  0
   -4.4808   16.8318  -31.9956 H   0  0  0  0  0  0  0  0  0  0  0  0
   -5.0998   16.9318  -33.6783 H   0  0  0  0  0  0  0  0  0  0  0  0
   -4.0177   19.2042  -31.9433 H   0  0  0  0  0  0  0  0  0  0  0  0
   -3.3191   18.5229  -33.4778 H   0  0  0  0  0  0  0  0  0  0  0  0
   -5.1476   20.7082  -33.1623 H   0  0  0  0  0  0  0  0  0  0  0  0
   -4.4571   19.9643  -34.6843 H   0  0  0  0  0  0  0  0  0  0  0  0
   -7.0087   20.1747  -34.5365 H   0  0  0  0  0  0  0  0  0  0  0  0
   -6.2827   18.5521  -34.9730 H   0  0  0  0  0  0  0  0  0  0  0  0
   -5.5206   20.2424  -31.2615 H   0  0  0  0  0  0  0  0  0  0  0  0
   -4.3804   22.3267  -30.5121 H   0  0  0  0  0  0  0  0  0  0  0  0
  1  2  2  0
  2  3  2  0
  2  4  1  0
  4  5  1  0
  5  6  2  0
  6  7  1  0
  7  8  2  0
  8  9  1  0
  9 10  2  0
 10 11  1  0
  8 12  1  0
 12 13  1  0
 13 14  1  0
 14 15  1  0
  2 16  1  0
 16 17  2  0
 17 18  1  0
 18 19  2  0
 19 20  1  0
 20 21  2  0
 20 22  2  0
 20 23  1  0
 23 24  1  0
 24 25  1  0
 25 26  1  0
 26 27  1  0
 27 28  1  0
 19 29  1  0
 29 30  2  0
 10  5  1  0
 30 16  1  0
 15  7  1  0
 28 23  1  0
  6 31  1  0
  9 32  1  0
 12 33  1  0
 12 34  1  0
 13 35  1  0
 13 36  1  0
 14 37  1  0
 14 38  1  0
 17 39  1  0
 18 40  1  0
 24 41  1  0
 24 42  1  0
 25 43  1  0
 25 44  1  0
 26 45  1  0
 26 46  1  0
 27 47  1  0
 27 48  1  0
 28 49  1  0
 28 50  1  0
 29 51  1  0
 30 52  1  0
M  CHG  2   4  -1  11  -1
M  END
>  <UniqueID>  (43) 
43

>  <SMILES>  (43) 
O=S(=O)([N-]c1cc2c(cc1[O-])CCCO2)c1ccc(S(=O)(=O)N2CCCCC2)cc1

>  <Energy>  (43) 
63.45507848133258

>  <Genealogy>  (43) 
O=S(=O)([N-]c1cc2c(cc1[O-])CCCO2)c1ccc(S(=O)(=O)N2CCCCC2)cc1 (protonated)
O=S(=O)([N-]c1cc2c(cc1[O-])CCCO2)c1ccc(S(=O)(=O)N2CCCCC2)cc1 (3D coordinates assigned)
O=S(=O)([N-]c1cc2c(cc1[O-])CCCO2)c1ccc(S(=O)(=O)N2CCCCC2)cc1 (nonaromatic ring conformer: 63.45507848133258 kcal/mol)

>  <smiles>  (43) 
O=S(=O)(Nc1cc2c(cc1O)CCCO2)c1ccc(S(=O)(=O)N2CCCCC2)cc1

>  <score_type>  (43) 
oracle

>  <origin>  (43) 
adgpu

>  <m_score__min__energy>  (43) 
-15.34

>  <m_primary>  (43) 
energy

$$$$
43:0
     RDKit          3D

 41 43  0  0  0  0  0  0  0  0999 V2000
   -8.8240   20.1020  -30.8360 O   0  0  0  0  0  0  0  0  0  0  0  0
   -7.8310   20.2210  -31.9570 S   0  0  0  0  0  0  0  0  0  0  0  0
   -8.5850   20.3620  -33.2480 O   0  0  0  0  0  0  0  0  0  0  0  0
   -6.8240   21.6330  -31.6560 C   0  0  0  0  0  0  0  0  0  0  0  0
   -7.3350   22.9110  -31.9090 C   0  0  0  0  0  0  0  0  0  0  0  0
   -6.5580   24.0430  -31.6510 C   0  0  0  0  0  0  0  0  0  0  0  0
   -5.2640   23.9100  -31.1340 C   0  0  0  0  0  0  0  0  0  0  0  0
   -4.5270   25.0630  -30.8640 O   0  0  0  0  0  0  0  0  0  0  0  0
   -4.7410   22.6250  -30.8850 C   0  0  0  0  0  0  0  0  0  0  0  0
   -3.4130   22.4640  -30.3670 N   0  0  0  0  0  0  0  0  0  0  0  0
   -2.5280   21.4510  -30.9500 C   0  0  0  0  0  0  0  0  0  0  0  0
   -1.0570   21.9270  -30.9660 C   0  0  0  0  0  0  0  0  0  0  0  0
   -0.7580   22.9970  -29.9970 N   0  0  0  0  0  0  0  0  0  0  0  0
   -1.5730   22.8870  -28.7810 C   0  0  0  0  0  0  0  0  0  0  0  0
   -3.0500   23.1240  -29.1090 C   0  0  0  0  0  0  0  0  0  0  0  0
   -5.5260   21.4930  -31.1480 C   0  0  0  0  0  0  0  0  0  0  0  0
   -6.8420   18.7930  -32.0190 N   0  0  0  0  0  0  0  0  0  0  0  0
   -6.8550   17.8140  -31.0950 C   0  0  0  0  0  0  0  0  0  0  0  0
   -5.9320   16.8440  -31.4240 C   0  0  0  0  0  0  0  0  0  0  0  0
   -5.3300   17.2510  -32.5980 C   0  0  0  0  0  0  0  0  0  0  0  0
   -5.9200   18.4540  -32.9500 C   0  0  0  0  0  0  0  0  0  0  0  0
   -5.5110   19.2920  -34.1310 C   0  0  0  0  0  0  0  0  0  0  0  0
   -4.5110   20.1750  -33.7740 F   0  0  0  0  0  0  0  0  0  0  0  0
   -5.0590   18.4700  -35.1460 F   0  0  0  0  0  0  0  0  0  0  0  0
   -6.5890   20.0210  -34.5980 F   0  0  0  0  0  0  0  0  0  0  0  0
   -8.3520   23.0246  -32.3124 H   0  0  0  0  0  0  0  0  0  0  0  0
   -6.9653   25.0442  -31.8552 H   0  0  0  0  0  0  0  0  0  0  0  0
   -4.1820   25.6710  -31.5950 H   0  0  0  0  0  0  0  0  0  0  0  0
   -2.5990   20.5287  -30.3547 H   0  0  0  0  0  0  0  0  0  0  0  0
   -2.8446   21.2717  -31.9881 H   0  0  0  0  0  0  0  0  0  0  0  0
   -0.4129   21.0650  -30.7378 H   0  0  0  0  0  0  0  0  0  0  0  0
   -0.8707   22.3450  -31.9663 H   0  0  0  0  0  0  0  0  0  0  0  0
   -0.9510   23.9250  -30.4460 H   0  0  0  0  0  0  0  0  0  0  0  0
   -1.4530   21.8807  -28.3533 H   0  0  0  0  0  0  0  0  0  0  0  0
   -1.2406   23.6456  -28.0571 H   0  0  0  0  0  0  0  0  0  0  0  0
   -3.6702   22.7183  -28.2961 H   0  0  0  0  0  0  0  0  0  0  0  0
   -3.2200   24.2056  -29.2147 H   0  0  0  0  0  0  0  0  0  0  0  0
   -5.1201   20.4892  -30.9542 H   0  0  0  0  0  0  0  0  0  0  0  0
   -7.5058   17.7913  -30.2085 H   0  0  0  0  0  0  0  0  0  0  0  0
   -5.7169   15.9242  -30.8604 H   0  0  0  0  0  0  0  0  0  0  0  0
   -4.5364   16.7229  -33.1469 H   0  0  0  0  0  0  0  0  0  0  0  0
  1  2  2  0
  2  3  2  0
  2  4  1  0
  4  5  2  0
  5  6  1  0
  6  7  2  0
  7  8  1  0
  7  9  1  0
  9 10  1  0
 10 11  1  0
 11 12  1  0
 12 13  1  0
 13 14  1  0
 14 15  1  0
  9 16  2  0
  2 17  1  0
 17 18  1  0
 18 19  2  0
 19 20  1  0
 20 21  2  0
 21 22  1  0
 22 23  1  0
 22 24  1  0
 22 25  1  0
 16  4  1  0
 21 17  1  0
 15 10  1  0
  5 26  1  0
  6 27  1  0
  8 28  1  0
 11 29  1  0
 11 30  1  0
 12 31  1  0
 12 32  1  0
 13 33  1  0
 14 34  1  0
 14 35  1  0
 15 36  1  0
 15 37  1  0
 16 38  1  0
 18 39  1  0
 19 40  1  0
 20 41  1  0
M  END
>  <UniqueID>  (44) 
44

>  <SMILES>  (44) 
O=S(=O)(c1ccc(O)c(N2CCNCC2)c1)n1cccc1C(F)(F)F

>  <Energy>  (44) 
78.85400594962674

>  <Genealogy>  (44) 
O=S(=O)(c1ccc(O)c(N2CCNCC2)c1)n1cccc1C(F)(F)F (3D coordinates assigned)
O=S(=O)(c1ccc(O)c(N2CCNCC2)c1)n1cccc1C(F)(F)F (nonaromatic ring conformer: 78.85400594962674 kcal/mol)

>  <smiles>  (44) 
O=S(=O)(c1ccc(O)c(N2CCNCC2)c1)n1cccc1C(F)(F)F

>  <score_type>  (44) 
oracle

>  <origin>  (44) 
adgpu

>  <m_score__min__energy>  (44) 
-8.2100000000000009

>  <m_primary>  (44) 
energy

$$$$
44:0
     RDKit          3D

 41 43  0  0  0  0  0  0  0  0999 V2000
   -4.6140   13.8060  -31.2460 C   0  0  0  0  0  0  0  0  0  0  0  0
   -4.2430   14.1900  -32.6430 C   0  0  0  0  0  0  0  0  0  0  0  0
   -3.5700   13.3740  -33.4810 N   0  0  0  0  0  0  0  0  0  0  0  0
   -3.3380   14.0450  -34.6000 N   0  0  0  0  0  0  0  0  0  0  0  0
   -2.6030   13.4920  -35.7320 C   0  0  0  0  0  0  0  0  0  0  0  0
   -3.8610   15.2880  -34.5090 C   0  0  0  0  0  0  0  0  0  0  0  0
   -3.7100   16.3690  -35.5340 C   0  0  0  0  0  0  0  0  0  0  0  0
   -4.4600   15.4060  -33.2710 C   0  0  0  0  0  0  0  0  0  0  0  0
   -5.0130   16.6040  -32.7090 N   0  0  0  0  0  0  0  0  0  0  0  0
   -6.1750   17.2570  -33.2510 C   0  0  0  0  0  0  0  0  0  0  0  0
   -6.7040   16.8150  -34.3070 O   0  0  0  0  0  0  0  0  0  0  0  0
   -6.7630   18.4470  -32.5940 C   0  0  0  0  0  0  0  0  0  0  0  0
   -8.1370   18.4780  -32.3120 C   0  0  0  0  0  0  0  0  0  0  0  0
   -8.6950   19.6030  -31.7040 C   0  0  0  0  0  0  0  0  0  0  0  0
   -7.9100   20.6650  -31.3890 N   0  0  0  0  0  0  0  0  0  0  0  0
   -6.5720   20.6830  -31.6460 C   0  0  0  0  0  0  0  0  0  0  0  0
   -5.7790   21.8850  -31.2850 C   0  0  0  0  0  0  0  0  0  0  0  0
   -4.3950   21.9120  -31.5350 C   0  0  0  0  0  0  0  0  0  0  0  0
   -3.6340   23.0380  -31.2070 C   0  0  0  0  0  0  0  0  0  0  0  0
   -2.2990   23.0400  -31.4460 F   0  0  0  0  0  0  0  0  0  0  0  0
   -4.2460   24.1570  -30.6330 C   0  0  0  0  0  0  0  0  0  0  0  0
   -3.4820   25.2720  -30.3100 O   0  0  0  0  0  0  0  0  0  0  0  0
   -5.6260   24.1500  -30.3920 C   0  0  0  0  0  0  0  0  0  0  0  0
   -6.4870   25.6760  -29.6230 Br  0  0  0  0  0  0  0  0  0  0  0  0
   -6.3880   23.0230  -30.7180 C   0  0  0  0  0  0  0  0  0  0  0  0
   -5.9810   19.5680  -32.2700 C   0  0  0  0  0  0  0  0  0  0  0  0
   -4.0318   14.4086  -30.5332 H   0  0  0  0  0  0  0  0  0  0  0  0
   -5.6874   13.9876  -31.0886 H   0  0  0  0  0  0  0  0  0  0  0  0
   -4.3956   12.7394  -31.0886 H   0  0  0  0  0  0  0  0  0  0  0  0
   -1.7751   12.8691  -35.3626 H   0  0  0  0  0  0  0  0  0  0  0  0
   -3.2798   12.8772  -36.3436 H   0  0  0  0  0  0  0  0  0  0  0  0
   -2.1998   14.3126  -36.3436 H   0  0  0  0  0  0  0  0  0  0  0  0
   -3.5748   17.3368  -35.0290 H   0  0  0  0  0  0  0  0  0  0  0  0
   -2.8326   16.1579  -36.1630 H   0  0  0  0  0  0  0  0  0  0  0  0
   -4.6116   16.4064  -36.1630 H   0  0  0  0  0  0  0  0  0  0  0  0
   -4.4910   17.0420  -31.9200 H   0  0  0  0  0  0  0  0  0  0  0  0
   -8.7725   17.6179  -32.5695 H   0  0  0  0  0  0  0  0  0  0  0  0
   -9.7716   19.6295  -31.4797 H   0  0  0  0  0  0  0  0  0  0  0  0
   -3.9069   21.0390  -31.9929 H   0  0  0  0  0  0  0  0  0  0  0  0
   -7.4719   23.0248  -30.5303 H   0  0  0  0  0  0  0  0  0  0  0  0
   -4.9062   19.5746  -32.5040 H   0  0  0  0  0  0  0  0  0  0  0  0
  1  2  1  0
  2  3  2  0
  3  4  1  0
  4  5  1  0
  4  6  1  0
  6  7  1  0
  6  8  2  0
  8  9  1  0
  9 10  1  0
 10 11  2  0
 10 12  1  0
 12 13  2  0
 13 14  1  0
 14 15  2  0
 15 16  1  0
 16 17  1  0
 17 18  2  0
 18 19  1  0
 19 20  1  0
 19 21  2  0
 21 22  1  0
 21 23  1  0
 23 24  1  0
 23 25  2  0
 16 26  2  0
  8  2  1  0
 26 12  1  0
 25 17  1  0
  1 27  1  0
  1 28  1  0
  1 29  1  0
  5 30  1  0
  5 31  1  0
  5 32  1  0
  7 33  1  0
  7 34  1  0
  7 35  1  0
  9 36  1  0
 13 37  1  0
 14 38  1  0
 18 39  1  0
 25 40  1  0
 26 41  1  0
M  CHG  1  22  -1
M  END
>  <UniqueID>  (45) 
45

>  <SMILES>  (45) 
Cc1nn(C)c(C)c1NC(=O)c1ccnc(-c2cc(F)c([O-])c(Br)c2)c1

>  <Energy>  (45) 
84.58119658376803

>  <Genealogy>  (45) 
Cc1nn(C)c(C)c1NC(=O)c1ccnc(-c2cc(F)c([O-])c(Br)c2)c1 (protonated)
Cc1nn(C)c(C)c1NC(=O)c1ccnc(-c2cc(F)c([O-])c(Br)c2)c1 (3D coordinates assigned)
Cc1nn(C)c(C)c1NC(=O)c1ccnc(-c2cc(F)c([O-])c(Br)c2)c1 (optimized conformer: 84.58119658376803 kcal/mol)

>  <smiles>  (45) 
Cc1nn(C)c(C)c1NC(=O)c1ccnc(-c2cc(F)c(O)c(Br)c2)c1

>  <score_type>  (45) 
oracle

>  <origin>  (45) 
adgpu

>  <m_score__min__energy>  (45) 
-11.050000000000001

>  <m_primary>  (45) 
energy

$$$$
45:0
     RDKit          3D

 57 61  0  0  0  0  0  0  0  0999 V2000
   -1.6020   25.5900  -29.3380 O   0  0  0  0  0  0  0  0  0  0  0  0
   -2.0560   24.5500  -28.7900 C   0  0  0  0  0  0  0  0  0  0  0  0
   -1.4200   24.0210  -27.5580 C   0  0  0  0  0  0  0  0  0  0  0  0
   -0.6330   24.8530  -26.7420 C   0  0  0  0  0  0  0  0  0  0  0  0
   -0.0320   24.3480  -25.5880 C   0  0  0  0  0  0  0  0  0  0  0  0
   -0.2160   23.0120  -25.2270 C   0  0  0  0  0  0  0  0  0  0  0  0
   -1.0220   22.1710  -26.0140 C   0  0  0  0  0  0  0  0  0  0  0  0
   -1.2590   20.7990  -25.6690 N   0  0  0  0  0  0  0  0  0  0  0  0
   -2.0310   19.6290  -26.6900 S   0  0  0  0  0  0  0  0  0  0  0  0
   -3.1220   20.2950  -27.4810 O   0  0  0  0  0  0  0  0  0  0  0  0
   -2.6060   18.5330  -25.8370 O   0  0  0  0  0  0  0  0  0  0  0  0
   -0.8610   18.9350  -27.8180 C   0  0  0  0  0  0  0  0  0  0  0  0
   -0.1740   17.7610  -27.4780 C   0  0  0  0  0  0  0  0  0  0  0  0
    0.7600   17.2090  -28.3600 C   0  0  0  0  0  0  0  0  0  0  0  0
    1.0210   17.8200  -29.5880 C   0  0  0  0  0  0  0  0  0  0  0  0
    0.3450   18.9970  -29.9410 C   0  0  0  0  0  0  0  0  0  0  0  0
    0.5940   19.6330  -31.1630 C   0  0  0  0  0  0  0  0  0  0  0  0
   -0.0920   20.8040  -31.4870 C   0  0  0  0  0  0  0  0  0  0  0  0
   -1.0190   21.3290  -30.5860 C   0  0  0  0  0  0  0  0  0  0  0  0
   -1.2510   20.7030  -29.4020 N   0  0  0  0  0  0  0  0  0  0  0  0
   -0.6020   19.5570  -29.0530 C   0  0  0  0  0  0  0  0  0  0  0  0
   -1.6170   22.6810  -27.1750 C   0  0  0  0  0  0  0  0  0  0  0  0
   -3.1990   23.9000  -29.3670 N   0  0  0  0  0  0  0  0  0  0  0  0
   -4.4710   23.9140  -28.6330 C   0  0  0  0  0  0  0  0  0  0  0  0
   -5.2980   22.6700  -28.9700 C   0  0  0  0  0  0  0  0  0  0  0  0
   -5.3290   22.4620  -30.4230 N   0  0  0  0  0  0  0  0  0  0  0  0
   -6.5280   21.9910  -31.0740 C   0  0  0  0  0  0  0  0  0  0  0  0
   -7.7260   22.7260  -30.9880 C   0  0  0  0  0  0  0  0  0  0  0  0
   -8.8870   22.2630  -31.6160 C   0  0  0  0  0  0  0  0  0  0  0  0
   -8.8620   21.0650  -32.3370 C   0  0  0  0  0  0  0  0  0  0  0  0
   -7.6760   20.3330  -32.4340 C   0  0  0  0  0  0  0  0  0  0  0  0
   -6.5140   20.7920  -31.8070 C   0  0  0  0  0  0  0  0  0  0  0  0
   -4.0450   22.4290  -31.1320 C   0  0  0  0  0  0  0  0  0  0  0  0
   -3.2420   23.6880  -30.8160 C   0  0  0  0  0  0  0  0  0  0  0  0
   -0.4901   25.9089  -27.0150 H   0  0  0  0  0  0  0  0  0  0  0  0
    0.5887   25.0048  -24.9608 H   0  0  0  0  0  0  0  0  0  0  0  0
    0.2713   22.6161  -24.3238 H   0  0  0  0  0  0  0  0  0  0  0  0
   -0.3708   17.2718  -26.5126 H   0  0  0  0  0  0  0  0  0  0  0  0
    1.2929   16.2870  -28.0845 H   0  0  0  0  0  0  0  0  0  0  0  0
    1.7558   17.3789  -30.2776 H   0  0  0  0  0  0  0  0  0  0  0  0
    1.3279   19.2110  -31.8653 H   0  0  0  0  0  0  0  0  0  0  0  0
    0.0966   21.3095  -32.4456 H   0  0  0  0  0  0  0  0  0  0  0  0
   -1.5635   22.2519  -30.8345 H   0  0  0  0  0  0  0  0  0  0  0  0
   -2.2463   22.0259  -27.7954 H   0  0  0  0  0  0  0  0  0  0  0  0
   -4.2654   23.9303  -27.5525 H   0  0  0  0  0  0  0  0  0  0  0  0
   -5.0400   24.8093  -28.9241 H   0  0  0  0  0  0  0  0  0  0  0  0
   -4.8465   21.7912  -28.4864 H   0  0  0  0  0  0  0  0  0  0  0  0
   -6.3259   22.8118  -28.6050 H   0  0  0  0  0  0  0  0  0  0  0  0
   -7.7490   23.6699  -30.4236 H   0  0  0  0  0  0  0  0  0  0  0  0
   -9.8198   22.8413  -31.5427 H   0  0  0  0  0  0  0  0  0  0  0  0
   -9.7760   20.6991  -32.8277 H   0  0  0  0  0  0  0  0  0  0  0  0
   -7.6565   19.3931  -33.0052 H   0  0  0  0  0  0  0  0  0  0  0  0
   -5.5832   20.2113  -31.8878 H   0  0  0  0  0  0  0  0  0  0  0  0
   -3.4753   21.5438  -30.8129 H   0  0  0  0  0  0  0  0  0  0  0  0
   -4.2315   22.3819  -32.2150 H   0  0  0  0  0  0  0  0  0  0  0  0
   -2.2171   23.5728  -31.1986 H   0  0  0  0  0  0  0  0  0  0  0  0
   -3.7220   24.5541  -31.2951 H   0  0  0  0  0  0  0  0  0  0  0  0
  1  2  2  0
  2  3  1  0
  3  4  2  0
  4  5  1  0
  5  6  2  0
  6  7  1  0
  7  8  1  0
  8  9  1  0
  9 10  2  0
  9 11  2  0
  9 12  1  0
 12 13  2  0
 13 14  1  0
 14 15  2  0
 15 16  1  0
 16 17  2  0
 17 18  1  0
 18 19  2  0
 19 20  1  0
 20 21  2  0
  7 22  2  0
  2 23  1  0
 23 24  1  0
 24 25  1  0
 25 26  1  0
 26 27  1  0
 27 28  2  0
 28 29  1  0
 29 30  2  0
 30 31  1  0
 31 32  2  0
 26 33  1  0
 33 34  1  0
 22  3  1  0
 34 23  1  0
 21 12  1  0
 32 27  1  0
 21 16  1  0
  4 35  1  0
  5 36  1  0
  6 37  1  0
 13 38  1  0
 14 39  1  0
 15 40  1  0
 17 41  1  0
 18 42  1  0
 19 43  1  0
 22 44  1  0
 24 45  1  0
 24 46  1  0
 25 47  1  0
 25 48  1  0
 28 49  1  0
 29 50  1  0
 30 51  1  0
 31 52  1  0
 32 53  1  0
 33 54  1  0
 33 55  1  0
 34 56  1  0
 34 57  1  0
M  CHG  1   8  -1
M  END
>  <UniqueID>  (46) 
46

>  <SMILES>  (46) 
O=C(c1cccc([N-]S(=O)(=O)c2cccc3cccnc23)c1)N1CCN(c2ccccc2)CC1

>  <Energy>  (46) 
79.16173372761016

>  <Genealogy>  (46) 
O=C(c1cccc([N-]S(=O)(=O)c2cccc3cccnc23)c1)N1CCN(c2ccccc2)CC1 (protonated)
O=C(c1cccc([N-]S(=O)(=O)c2cccc3cccnc23)c1)N1CCN(c2ccccc2)CC1 (3D coordinates assigned)
O=C(c1cccc([N-]S(=O)(=O)c2cccc3cccnc23)c1)N1CCN(c2ccccc2)CC1 (nonaromatic ring conformer: 79.16173372761016 kcal/mol)

>  <smiles>  (46) 
O=C(c1cccc(NS(=O)(=O)c2cccc3cccnc23)c1)N1CCN(c2ccccc2)CC1

>  <score_type>  (46) 
oracle

>  <origin>  (46) 
adgpu

>  <m_score__min__energy>  (46) 
-11.09

>  <m_primary>  (46) 
energy

$$$$
46:0
     RDKit          3D

 55 57  0  0  0  0  0  0  0  0999 V2000
    1.4980   21.9040  -36.0140 C   0  0  0  0  0  0  0  0  0  0  0  0
    2.3540   20.7130  -36.0620 N   0  0  0  0  0  0  0  0  0  0  0  0
    3.7420   21.0730  -35.7400 C   0  0  0  0  0  0  0  0  0  0  0  0
    1.7690   19.5180  -34.9290 S   0  0  0  0  0  0  0  0  0  0  0  0
    1.4660   18.2430  -35.6670 O   0  0  0  0  0  0  0  0  0  0  0  0
    2.8360   19.2230  -33.9130 O   0  0  0  0  0  0  0  0  0  0  0  0
    0.3110   20.0680  -34.1000 C   0  0  0  0  0  0  0  0  0  0  0  0
    0.4100   20.9020  -32.9780 C   0  0  0  0  0  0  0  0  0  0  0  0
   -0.7440   21.3470  -32.3280 C   0  0  0  0  0  0  0  0  0  0  0  0
   -2.0200   20.9600  -32.7870 C   0  0  0  0  0  0  0  0  0  0  0  0
   -3.2390   21.4290  -32.0810 C   0  0  0  0  0  0  0  0  0  0  0  0
   -4.1860   20.6200  -31.8740 O   0  0  0  0  0  0  0  0  0  0  0  0
   -3.3390   22.7750  -31.5920 N   0  0  0  0  0  0  0  0  0  0  0  0
   -4.5800   23.3620  -31.1710 C   0  0  0  0  0  0  0  0  0  0  0  0
   -5.7740   22.6600  -31.3830 C   0  0  0  0  0  0  0  0  0  0  0  0
   -7.0050   23.2170  -31.0050 C   0  0  0  0  0  0  0  0  0  0  0  0
   -8.5120   22.3720  -31.3670 S   0  0  0  0  0  0  0  0  0  0  0  0
   -9.1150   21.8690  -30.0840 O   0  0  0  0  0  0  0  0  0  0  0  0
   -9.4870   23.3350  -31.9870 O   0  0  0  0  0  0  0  0  0  0  0  0
   -8.2540   21.0350  -32.4680 N   0  0  0  0  0  0  0  0  0  0  0  0
   -9.4520   20.1660  -32.5750 C   0  0  0  0  0  0  0  0  0  0  0  0
   -9.1050   18.6820  -32.7130 C   0  0  0  0  0  0  0  0  0  0  0  0
   -8.2860   18.2370  -31.5040 C   0  0  0  0  0  0  0  0  0  0  0  0
   -7.0690   19.1500  -31.2500 C   0  0  0  0  0  0  0  0  0  0  0  0
   -6.9670   20.3440  -32.2250 C   0  0  0  0  0  0  0  0  0  0  0  0
   -7.0330   24.4670  -30.3730 C   0  0  0  0  0  0  0  0  0  0  0  0
   -5.8440   25.1590  -30.1300 C   0  0  0  0  0  0  0  0  0  0  0  0
   -4.6180   24.6100  -30.5190 C   0  0  0  0  0  0  0  0  0  0  0  0
   -3.4450   25.3000  -30.2330 O   0  0  0  0  0  0  0  0  0  0  0  0
   -2.1090   20.1130  -33.9060 C   0  0  0  0  0  0  0  0  0  0  0  0
   -0.9530   19.6770  -34.5610 C   0  0  0  0  0  0  0  0  0  0  0  0
    1.3039   22.1740  -34.9655 H   0  0  0  0  0  0  0  0  0  0  0  0
    2.0035   22.7395  -36.5203 H   0  0  0  0  0  0  0  0  0  0  0  0
    0.5449   21.6912  -36.5203 H   0  0  0  0  0  0  0  0  0  0  0  0
    3.8683   21.1058  -34.6478 H   0  0  0  0  0  0  0  0  0  0  0  0
    4.4238   20.3220  -36.1656 H   0  0  0  0  0  0  0  0  0  0  0  0
    3.9728   22.0607  -36.1656 H   0  0  0  0  0  0  0  0  0  0  0  0
    1.3998   21.2073  -32.6078 H   0  0  0  0  0  0  0  0  0  0  0  0
   -0.6564   22.0048  -31.4507 H   0  0  0  0  0  0  0  0  0  0  0  0
   -2.4570   23.2940  -31.3730 H   0  0  0  0  0  0  0  0  0  0  0  0
   -5.7460   21.6642  -31.8495 H   0  0  0  0  0  0  0  0  0  0  0  0
  -10.0640   20.3001  -31.6708 H   0  0  0  0  0  0  0  0  0  0  0  0
   -9.9931   20.4630  -33.4855 H   0  0  0  0  0  0  0  0  0  0  0  0
  -10.0319   18.0919  -32.7654 H   0  0  0  0  0  0  0  0  0  0  0  0
   -8.5190   18.5260  -33.6307 H   0  0  0  0  0  0  0  0  0  0  0  0
   -8.9322   18.2539  -30.6140 H   0  0  0  0  0  0  0  0  0  0  0  0
   -7.9086   17.2243  -31.7089 H   0  0  0  0  0  0  0  0  0  0  0  0
   -7.1400   19.5446  -30.2257 H   0  0  0  0  0  0  0  0  0  0  0  0
   -6.1706   18.5344  -31.4045 H   0  0  0  0  0  0  0  0  0  0  0  0
   -6.2569   21.0725  -31.8066 H   0  0  0  0  0  0  0  0  0  0  0  0
   -6.6365   19.9376  -33.1923 H   0  0  0  0  0  0  0  0  0  0  0  0
   -7.9945   24.9051  -30.0671 H   0  0  0  0  0  0  0  0  0  0  0  0
   -5.8722   26.1389  -29.6310 H   0  0  0  0  0  0  0  0  0  0  0  0
   -3.0961   19.7908  -34.2691 H   0  0  0  0  0  0  0  0  0  0  0  0
   -1.0364   19.0240  -35.4423 H   0  0  0  0  0  0  0  0  0  0  0  0
  1  2  1  0
  2  3  1  0
  2  4  1  0
  4  5  2  0
  4  6  2  0
  4  7  1  0
  7  8  2  0
  8  9  1  0
  9 10  2  0
 10 11  1  0
 11 12  2  0
 11 13  1  0
 13 14  1  0
 14 15  2  0
 15 16  1  0
 16 17  1  0
 17 18  2  0
 17 19  2  0
 17 20  1  0
 20 21  1  0
 21 22  1  0
 22 23  1  0
 23 24  1  0
 24 25  1  0
 16 26  2  0
 26 27  1  0
 27 28  2  0
 28 29  1  0
 10 30  1  0
 30 31  2  0
 31  7  1  0
 28 14  1  0
 25 20  1  0
  1 32  1  0
  1 33  1  0
  1 34  1  0
  3 35  1  0
  3 36  1  0
  3 37  1  0
  8 38  1  0
  9 39  1  0
 13 40  1  0
 15 41  1  0
 21 42  1  0
 21 43  1  0
 22 44  1  0
 22 45  1  0
 23 46  1  0
 23 47  1  0
 24 48  1  0
 24 49  1  0
 25 50  1  0
 25 51  1  0
 26 52  1  0
 27 53  1  0
 30 54  1  0
 31 55  1  0
M  CHG  1  29  -1
M  END
>  <UniqueID>  (47) 
47

>  <SMILES>  (47) 
CN(C)S(=O)(=O)c1ccc(C(=O)Nc2cc(S(=O)(=O)N3CCCCC3)ccc2[O-])cc1

>  <Energy>  (47) 
67.41608798246229

>  <Genealogy>  (47) 
CN(C)S(=O)(=O)c1ccc(C(=O)Nc2cc(S(=O)(=O)N3CCCCC3)ccc2[O-])cc1 (protonated)
CN(C)S(=O)(=O)c1ccc(C(=O)Nc2cc(S(=O)(=O)N3CCCCC3)ccc2[O-])cc1 (3D coordinates assigned)
CN(C)S(=O)(=O)c1ccc(C(=O)Nc2cc(S(=O)(=O)N3CCCCC3)ccc2[O-])cc1 (nonaromatic ring conformer: 67.41608798246229 kcal/mol)

>  <smiles>  (47) 
CN(C)S(=O)(=O)c1ccc(C(=O)Nc2cc(S(=O)(=O)N3CCCCC3)ccc2O)cc1

>  <score_type>  (47) 
oracle

>  <origin>  (47) 
adgpu

>  <m_score__min__energy>  (47) 
-12.56

>  <m_primary>  (47) 
energy

$$$$
47:0
     RDKit          3D

 47 50  0  0  0  0  0  0  0  0999 V2000
   -1.7670   20.7550  -33.7050 C   0  0  0  0  0  0  0  0  0  0  0  0
   -3.1290   20.4800  -33.8440 C   0  0  0  0  0  0  0  0  0  0  0  0
   -3.9310   20.3600  -32.6970 C   0  0  0  0  0  0  0  0  0  0  0  0
   -5.3660   20.0230  -32.8090 C   0  0  0  0  0  0  0  0  0  0  0  0
   -6.2660   20.9790  -32.4590 N   0  0  0  0  0  0  0  0  0  0  0  0
   -7.5970   20.7230  -32.4090 C   0  0  0  0  0  0  0  0  0  0  0  0
   -8.7270   21.9950  -31.8570 S   0  0  0  0  0  0  0  0  0  0  0  0
   -8.1920   21.9220  -30.1050 C   0  0  0  0  0  0  0  0  0  0  0  0
   -7.2540   23.0930  -29.7250 C   0  0  0  0  0  0  0  0  0  0  0  0
   -6.0430   23.1590  -30.5860 N   0  0  0  0  0  0  0  0  0  0  0  0
   -6.0490   24.3850  -31.4270 C   0  0  0  0  0  0  0  0  0  0  0  0
   -5.2420   25.5220  -30.7740 C   0  0  0  0  0  0  0  0  0  0  0  0
   -3.8750   25.2020  -30.5490 O   0  0  0  0  0  0  0  0  0  0  0  0
   -3.6290   23.8090  -30.4200 C   0  0  0  0  0  0  0  0  0  0  0  0
   -4.7990   23.0440  -29.7750 C   0  0  0  0  0  0  0  0  0  0  0  0
   -8.0620   19.4900  -32.7230 N   0  0  0  0  0  0  0  0  0  0  0  0
   -7.2130   18.5010  -33.1010 C   0  0  0  0  0  0  0  0  0  0  0  0
   -5.8320   18.7360  -33.1700 C   0  0  0  0  0  0  0  0  0  0  0  0
   -4.9400   17.6610  -33.6650 C   0  0  0  0  0  0  0  0  0  0  0  0
   -4.5060   16.5600  -32.9530 C   0  0  0  0  0  0  0  0  0  0  0  0
   -3.7410   15.8240  -33.8330 C   0  0  0  0  0  0  0  0  0  0  0  0
   -3.7150   16.4170  -35.0050 O   0  0  0  0  0  0  0  0  0  0  0  0
   -4.4280   17.5170  -34.9420 C   0  0  0  0  0  0  0  0  0  0  0  0
   -3.3360   20.4810  -31.4330 C   0  0  0  0  0  0  0  0  0  0  0  0
   -1.9690   20.7560  -31.3390 C   0  0  0  0  0  0  0  0  0  0  0  0
   -1.2200   20.8870  -32.4660 N   0  0  0  0  0  0  0  0  0  0  0  0
   -1.1351   20.8651  -34.5987 H   0  0  0  0  0  0  0  0  0  0  0  0
   -3.5705   20.3583  -34.8441 H   0  0  0  0  0  0  0  0  0  0  0  0
   -9.0834   21.9604  -29.4616 H   0  0  0  0  0  0  0  0  0  0  0  0
   -7.6329   20.9852  -29.9639 H   0  0  0  0  0  0  0  0  0  0  0  0
   -7.8100   24.0367  -29.8262 H   0  0  0  0  0  0  0  0  0  0  0  0
   -6.9184   22.9285  -28.6904 H   0  0  0  0  0  0  0  0  0  0  0  0
   -6.0660   22.3450  -31.2440 H   0  0  0  0  0  0  0  0  0  0  0  0
   -5.6061   24.1490  -32.4059 H   0  0  0  0  0  0  0  0  0  0  0  0
   -7.0903   24.7214  -31.5388 H   0  0  0  0  0  0  0  0  0  0  0  0
   -5.2880   26.4019  -31.4325 H   0  0  0  0  0  0  0  0  0  0  0  0
   -5.6929   25.7086  -29.7882 H   0  0  0  0  0  0  0  0  0  0  0  0
   -3.4482   23.3916  -31.4216 H   0  0  0  0  0  0  0  0  0  0  0  0
   -2.7573   23.6906  -29.7596 H   0  0  0  0  0  0  0  0  0  0  0  0
   -4.5264   21.9819  -29.6883 H   0  0  0  0  0  0  0  0  0  0  0  0
   -4.9922   23.4822  -28.7847 H   0  0  0  0  0  0  0  0  0  0  0  0
   -7.6110   17.5075  -33.3552 H   0  0  0  0  0  0  0  0  0  0  0  0
   -4.7251   16.3201  -31.9021 H   0  0  0  0  0  0  0  0  0  0  0  0
   -3.2290   14.8812  -33.5900 H   0  0  0  0  0  0  0  0  0  0  0  0
   -4.5929   18.2159  -35.7752 H   0  0  0  0  0  0  0  0  0  0  0  0
   -3.9408   20.3604  -30.5221 H   0  0  0  0  0  0  0  0  0  0  0  0
   -1.4981   20.8667  -30.3511 H   0  0  0  0  0  0  0  0  0  0  0  0
  1  2  2  0
  2  3  1  0
  3  4  1  0
  4  5  2  0
  5  6  1  0
  6  7  1  0
  7  8  1  0
  8  9  1  0
  9 10  1  0
 10 11  1  0
 11 12  1  0
 12 13  1  0
 13 14  1  0
 14 15  1  0
  6 16  2  0
 16 17  1  0
 17 18  2  0
 18 19  1  0
 19 20  1  0
 20 21  2  0
 21 22  1  0
 22 23  1  0
  3 24  2  0
 24 25  1  0
 25 26  2  0
 26  1  1  0
 18  4  1  0
 23 19  2  0
 15 10  1  0
  1 27  1  0
  2 28  1  0
  8 29  1  0
  8 30  1  0
  9 31  1  0
  9 32  1  0
 10 33  1  0
 11 34  1  0
 11 35  1  0
 12 36  1  0
 12 37  1  0
 14 38  1  0
 14 39  1  0
 15 40  1  0
 15 41  1  0
 17 42  1  0
 20 43  1  0
 21 44  1  0
 23 45  1  0
 24 46  1  0
 25 47  1  0
M  CHG  1  10   1
M  END
>  <UniqueID>  (48) 
48

>  <SMILES>  (48) 
c1cc(-c2nc(SCC[NH+]3CCOCC3)ncc2-c2ccoc2)ccn1

>  <Energy>  (48) 
100.6681848351319

>  <Genealogy>  (48) 
c1cc(-c2nc(SCC[NH+]3CCOCC3)ncc2-c2ccoc2)ccn1 (protonated)
c1cc(-c2nc(SCC[NH+]3CCOCC3)ncc2-c2ccoc2)ccn1 (3D coordinates assigned)
c1cc(-c2nc(SCC[NH+]3CCOCC3)ncc2-c2ccoc2)ccn1 (nonaromatic ring conformer: 100.6681848351319 kcal/mol)

>  <smiles>  (48) 
c1cc(-c2nc(SCCN3CCOCC3)ncc2-c2ccoc2)ccn1

>  <score_type>  (48) 
oracle

>  <origin>  (48) 
adgpu

>  <m_score__min__energy>  (48) 
-7.4800000000000004

>  <m_primary>  (48) 
energy

$$$$
48:0
     RDKit          3D

 58 61  0  0  0  0  0  0  0  0999 V2000
   -9.6780   21.2140  -31.6050 C   0  0  0  0  0  0  0  0  0  0  0  0
   -8.3980   20.5400  -32.0250 C   0  0  0  0  0  0  0  0  0  0  0  0
   -8.4510   19.2060  -32.4640 C   0  0  0  0  0  0  0  0  0  0  0  0
   -7.2910   18.5440  -32.8690 C   0  0  0  0  0  0  0  0  0  0  0  0
   -6.0570   19.2000  -32.8340 C   0  0  0  0  0  0  0  0  0  0  0  0
   -4.5880   18.3630  -33.3430 S   0  0  0  0  0  0  0  0  0  0  0  0
   -4.5810   18.2460  -34.8420 O   0  0  0  0  0  0  0  0  0  0  0  0
   -4.5840   16.9740  -32.7680 O   0  0  0  0  0  0  0  0  0  0  0  0
   -3.1520   19.2130  -32.8190 N   0  0  0  0  0  0  0  0  0  0  0  0
   -1.9270   18.3990  -33.0250 C   0  0  0  0  0  0  0  0  0  0  0  0
   -1.1130   18.8420  -34.2500 C   0  0  0  0  0  0  0  0  0  0  0  0
   -0.6910   20.3170  -34.1350 C   0  0  0  0  0  0  0  0  0  0  0  0
   -1.7020   21.1660  -33.3430 C   0  0  0  0  0  0  0  0  0  0  0  0
   -3.1080   20.5630  -33.4230 C   0  0  0  0  0  0  0  0  0  0  0  0
   -5.9950   20.5290  -32.4040 C   0  0  0  0  0  0  0  0  0  0  0  0
   -7.1570   21.2220  -32.0300 C   0  0  0  0  0  0  0  0  0  0  0  0
   -7.0190   22.9320  -31.5760 S   0  0  0  0  0  0  0  0  0  0  0  0
   -7.9410   23.7830  -32.4030 O   0  0  0  0  0  0  0  0  0  0  0  0
   -7.3860   23.0730  -30.1250 O   0  0  0  0  0  0  0  0  0  0  0  0
   -5.3950   23.5100  -31.8010 N   0  0  0  0  0  0  0  0  0  0  0  0
   -4.3240   23.2850  -30.8630 C   0  0  0  0  0  0  0  0  0  0  0  0
   -4.0130   21.9890  -30.4050 C   0  0  0  0  0  0  0  0  0  0  0  0
   -3.0270   21.7990  -29.4280 C   0  0  0  0  0  0  0  0  0  0  0  0
   -2.3180   22.8970  -28.9230 C   0  0  0  0  0  0  0  0  0  0  0  0
   -2.5890   24.1820  -29.4070 C   0  0  0  0  0  0  0  0  0  0  0  0
   -3.5930   24.3790  -30.3620 C   0  0  0  0  0  0  0  0  0  0  0  0
   -3.8630   25.6700  -30.8010 O   0  0  0  0  0  0  0  0  0  0  0  0
   -1.2250   22.6530  -27.9160 C   0  0  0  0  0  0  0  0  0  0  0  0
   -1.6400   21.6110  -26.8550 C   0  0  0  0  0  0  0  0  0  0  0  0
   -2.5770   20.4850  -27.3690 C   0  0  0  0  0  0  0  0  0  0  0  0
   -2.7020   20.4300  -28.8980 C   0  0  0  0  0  0  0  0  0  0  0  0
   -9.7337   21.2433  -30.5068 H   0  0  0  0  0  0  0  0  0  0  0  0
   -9.6990   22.2401  -32.0007 H   0  0  0  0  0  0  0  0  0  0  0  0
  -10.5360   20.6507  -32.0007 H   0  0  0  0  0  0  0  0  0  0  0  0
   -9.4160   18.6786  -32.4886 H   0  0  0  0  0  0  0  0  0  0  0  0
   -7.3479   17.5021  -33.2171 H   0  0  0  0  0  0  0  0  0  0  0  0
   -1.2922   18.4880  -32.1311 H   0  0  0  0  0  0  0  0  0  0  0  0
   -2.2463   17.3609  -33.1991 H   0  0  0  0  0  0  0  0  0  0  0  0
   -0.2117   18.2161  -34.3272 H   0  0  0  0  0  0  0  0  0  0  0  0
   -1.7421   18.7289  -35.1452 H   0  0  0  0  0  0  0  0  0  0  0  0
    0.2833   20.3653  -33.6266 H   0  0  0  0  0  0  0  0  0  0  0  0
   -0.6398   20.7276  -35.1542 H   0  0  0  0  0  0  0  0  0  0  0  0
   -1.3884   21.2087  -32.2895 H   0  0  0  0  0  0  0  0  0  0  0  0
   -1.7287   22.1757  -33.7787 H   0  0  0  0  0  0  0  0  0  0  0  0
   -3.8095   21.2183  -32.8859 H   0  0  0  0  0  0  0  0  0  0  0  0
   -3.3878   20.4770  -34.4833 H   0  0  0  0  0  0  0  0  0  0  0  0
   -5.0214   21.0389  -32.3581 H   0  0  0  0  0  0  0  0  0  0  0  0
   -5.2310   24.1210  -32.6320 H   0  0  0  0  0  0  0  0  0  0  0  0
   -4.5480   21.1208  -30.8174 H   0  0  0  0  0  0  0  0  0  0  0  0
   -2.0105   25.0406  -29.0353 H   0  0  0  0  0  0  0  0  0  0  0  0
   -0.3315   22.2871  -28.4430 H   0  0  0  0  0  0  0  0  0  0  0  0
   -1.0204   23.6022  -27.3991 H   0  0  0  0  0  0  0  0  0  0  0  0
   -0.7259   21.1412  -26.4630 H   0  0  0  0  0  0  0  0  0  0  0  0
   -2.2115   22.1609  -26.0927 H   0  0  0  0  0  0  0  0  0  0  0  0
   -2.1830   19.5196  -27.0187 H   0  0  0  0  0  0  0  0  0  0  0  0
   -3.5809   20.6996  -26.9739 H   0  0  0  0  0  0  0  0  0  0  0  0
   -1.7509   20.0864  -29.3308 H   0  0  0  0  0  0  0  0  0  0  0  0
   -3.5060   19.7317  -29.1735 H   0  0  0  0  0  0  0  0  0  0  0  0
  1  2  1  0
  2  3  2  0
  3  4  1  0
  4  5  2  0
  5  6  1  0
  6  7  2  0
  6  8  2  0
  6  9  1  0
  9 10  1  0
 10 11  1  0
 11 12  1  0
 12 13  1  0
 13 14  1  0
  5 15  1  0
 15 16  2  0
 16 17  1  0
 17 18  2  0
 17 19  2  0
 17 20  1  0
 20 21  1  0
 21 22  2  0
 22 23  1  0
 23 24  2  0
 24 25  1  0
 25 26  2  0
 26 27  1  0
 24 28  1  0
 28 29  1  0
 29 30  1  0
 30 31  1  0
 16  2  1  0
 26 21  1  0
 14  9  1  0
 31 23  1  0
  1 32  1  0
  1 33  1  0
  1 34  1  0
  3 35  1  0
  4 36  1  0
 10 37  1  0
 10 38  1  0
 11 39  1  0
 11 40  1  0
 12 41  1  0
 12 42  1  0
 13 43  1  0
 13 44  1  0
 14 45  1  0
 14 46  1  0
 15 47  1  0
 20 48  1  0
 22 49  1  0
 25 50  1  0
 28 51  1  0
 28 52  1  0
 29 53  1  0
 29 54  1  0
 30 55  1  0
 30 56  1  0
 31 57  1  0
 31 58  1  0
M  CHG  1  27  -1
M  END
>  <UniqueID>  (49) 
49

>  <SMILES>  (49) 
Cc1ccc(S(=O)(=O)N2CCCCC2)cc1S(=O)(=O)Nc1cc2c(cc1[O-])CCCC2

>  <Energy>  (49) 
72.31108033250925

>  <Genealogy>  (49) 
Cc1ccc(S(=O)(=O)N2CCCCC2)cc1S(=O)(=O)Nc1cc2c(cc1[O-])CCCC2 (protonated)
Cc1ccc(S(=O)(=O)N2CCCCC2)cc1S(=O)(=O)Nc1cc2c(cc1[O-])CCCC2 (3D coordinates assigned)
Cc1ccc(S(=O)(=O)N2CCCCC2)cc1S(=O)(=O)Nc1cc2c(cc1[O-])CCCC2 (nonaromatic ring conformer: 72.31108033250925 kcal/mol)

>  <smiles>  (49) 
Cc1ccc(S(=O)(=O)N2CCCCC2)cc1S(=O)(=O)Nc1cc2c(cc1O)CCCC2

>  <score_type>  (49) 
oracle

>  <origin>  (49) 
adgpu

>  <m_score__min__energy>  (49) 
-14.25

>  <m_primary>  (49) 
energy

$$$$
