0:0
     RDKit          3D

 47 50  0  0  0  0  0  0  0  0999 V2000
   -7.6190   25.5130  -29.3230 O   0  0  0  0  0  0  0  0  0  0  0  0
   -6.9850   24.8290  -30.1690 C   0  0  0  0  0  0  0  0  0  0  0  0
   -7.7130   24.1900  -31.2270 N   0  0  0  0  0  0  0  0  0  0  0  0
   -7.6780   22.7870  -31.5190 C   0  0  0  0  0  0  0  0  0  0  0  0
   -6.4420   22.1570  -31.7020 C   0  0  0  0  0  0  0  0  0  0  0  0
   -6.3830   20.7770  -31.9220 C   0  0  0  0  0  0  0  0  0  0  0  0
   -7.5620   20.0180  -31.9720 C   0  0  0  0  0  0  0  0  0  0  0  0
   -7.4880   18.2740  -32.2090 S   0  0  0  0  0  0  0  0  0  0  0  0
   -8.8570   17.6920  -31.9860 O   0  0  0  0  0  0  0  0  0  0  0  0
   -6.5690   17.6830  -31.1770 O   0  0  0  0  0  0  0  0  0  0  0  0
   -6.9230   17.8260  -33.8040 N   0  0  0  0  0  0  0  0  0  0  0  0
   -6.4150   16.4400  -33.8830 C   0  0  0  0  0  0  0  0  0  0  0  0
   -4.8990   16.3460  -33.6460 C   0  0  0  0  0  0  0  0  0  0  0  0
   -4.2060   17.2380  -34.4890 O   0  0  0  0  0  0  0  0  0  0  0  0
   -4.5470   18.5610  -34.1360 C   0  0  0  0  0  0  0  0  0  0  0  0
   -6.0320   18.8330  -34.4170 C   0  0  0  0  0  0  0  0  0  0  0  0
   -8.8020   20.6600  -31.8530 C   0  0  0  0  0  0  0  0  0  0  0  0
   -8.8620   22.0360  -31.6240 C   0  0  0  0  0  0  0  0  0  0  0  0
   -5.5120   24.7610  -30.0780 C   0  0  0  0  0  0  0  0  0  0  0  0
   -4.7600   24.4660  -28.9550 C   0  0  0  0  0  0  0  0  0  0  0  0
   -3.4540   24.4930  -29.4070 C   0  0  0  0  0  0  0  0  0  0  0  0
   -2.2220   24.2830  -28.6050 C   0  0  0  0  0  0  0  0  0  0  0  0
   -2.1210   23.1330  -27.7970 C   0  0  0  0  0  0  0  0  0  0  0  0
   -0.9760   22.8970  -27.0320 C   0  0  0  0  0  0  0  0  0  0  0  0
    0.0840   23.8060  -27.0630 C   0  0  0  0  0  0  0  0  0  0  0  0
   -0.0060   24.9590  -27.8430 C   0  0  0  0  0  0  0  0  0  0  0  0
   -1.1570   25.2150  -28.6000 C   0  0  0  0  0  0  0  0  0  0  0  0
   -1.2360   26.4090  -29.3080 O   0  0  0  0  0  0  0  0  0  0  0  0
   -3.4450   24.7870  -30.7240 N   0  0  0  0  0  0  0  0  0  0  0  0
   -4.6960   24.9400  -31.1320 N   0  0  0  0  0  0  0  0  0  0  0  0
   -5.5149   22.7483  -31.6728 H   0  0  0  0  0  0  0  0  0  0  0  0
   -5.4085   20.2848  -32.0563 H   0  0  0  0  0  0  0  0  0  0  0  0
   -6.9279   15.8339  -33.1217 H   0  0  0  0  0  0  0  0  0  0  0  0
   -6.6143   16.0720  -34.9003 H   0  0  0  0  0  0  0  0  0  0  0  0
   -4.6813   16.5975  -32.5975 H   0  0  0  0  0  0  0  0  0  0  0  0
   -4.5694   15.3206  -33.8693 H   0  0  0  0  0  0  0  0  0  0  0  0
   -4.3490   18.7111  -33.0644 H   0  0  0  0  0  0  0  0  0  0  0  0
   -3.9408   19.2545  -34.7373 H   0  0  0  0  0  0  0  0  0  0  0  0
   -6.2906   19.8233  -34.0140 H   0  0  0  0  0  0  0  0  0  0  0  0
   -6.1777   18.7859  -35.5063 H   0  0  0  0  0  0  0  0  0  0  0  0
   -9.7312   20.0778  -31.9403 H   0  0  0  0  0  0  0  0  0  0  0  0
   -9.8380   22.5338  -31.5255 H   0  0  0  0  0  0  0  0  0  0  0  0
   -5.1189   24.2578  -27.9363 H   0  0  0  0  0  0  0  0  0  0  0  0
   -2.9525   22.4134  -27.7683 H   0  0  0  0  0  0  0  0  0  0  0  0
   -0.9093   21.9954  -26.4054 H   0  0  0  0  0  0  0  0  0  0  0  0
    0.9910   23.6124  -26.4715 H   0  0  0  0  0  0  0  0  0  0  0  0
    0.8317   25.6716  -27.8639 H   0  0  0  0  0  0  0  0  0  0  0  0
  1  2  2  0
  2  3  1  0
  3  4  1  0
  4  5  2  0
  5  6  1  0
  6  7  2  0
  7  8  1  0
  8  9  2  0
  8 10  2  0
  8 11  1  0
 11 12  1  0
 12 13  1  0
 13 14  1  0
 14 15  1  0
 15 16  1  0
  7 17  1  0
 17 18  2  0
  2 19  1  0
 19 20  1  0
 20 21  2  0
 21 22  1  0
 22 23  2  0
 23 24  1  0
 24 25  2  0
 25 26  1  0
 26 27  2  0
 27 28  1  0
 21 29  1  0
 29 30  1  0
 18  4  1  0
 30 19  2  0
 16 11  1  0
 27 22  1  0
  5 31  1  0
  6 32  1  0
 12 33  1  0
 12 34  1  0
 13 35  1  0
 13 36  1  0
 15 37  1  0
 15 38  1  0
 16 39  1  0
 16 40  1  0
 17 41  1  0
 18 42  1  0
 20 43  1  0
 23 44  1  0
 24 45  1  0
 25 46  1  0
 26 47  1  0
M  CHG  3   3  -1  28  -1  29  -1
M  END
>  <UniqueID>  (1) 
1

>  <SMILES>  (1) 
O=C([N-]c1ccc(S(=O)(=O)N2CCOCC2)cc1)c1cc(-c2ccccc2[O-])[n-]n1

>  <Energy>  (1) 
91.68309410187463

>  <Genealogy>  (1) 
O=C([N-]c1ccc(S(=O)(=O)N2CCOCC2)cc1)c1cc(-c2ccccc2[O-])[n-]n1 (protonated)
O=C([N-]c1ccc(S(=O)(=O)N2CCOCC2)cc1)c1cc(-c2ccccc2[O-])[n-]n1 (3D coordinates assigned)
O=C([N-]c1ccc(S(=O)(=O)N2CCOCC2)cc1)c1cc(-c2ccccc2[O-])[n-]n1 (nonaromatic ring conformer: 91.68309410187463 kcal/mol)

>  <smiles>  (1) 
O=C(Nc1ccc(S(=O)(=O)N2CCOCC2)cc1)c1cc(-c2ccccc2O)[nH]n1

>  <score_type>  (1) 
oracle

>  <origin>  (1) 
adgpu

>  <m_score__min__energy>  (1) 
-15.050000000000001

>  <m_primary>  (1) 
energy

$$$$
1:0
     RDKit          3D

 50 52  0  0  0  0  0  0  0  0999 V2000
   -1.1690   21.7990  -29.4200 O   0  0  0  0  0  0  0  0  0  0  0  0
   -1.9030   22.6270  -30.0240 C   0  0  0  0  0  0  0  0  0  0  0  0
   -2.1350   22.4820  -31.5070 C   0  0  0  0  0  0  0  0  0  0  0  0
   -3.3570   21.6500  -31.7990 C   0  0  0  0  0  0  0  0  0  0  0  0
   -4.2200   21.9990  -32.8500 C   0  0  0  0  0  0  0  0  0  0  0  0
   -5.3700   21.2440  -33.1000 C   0  0  0  0  0  0  0  0  0  0  0  0
   -5.6770   20.1390  -32.2930 C   0  0  0  0  0  0  0  0  0  0  0  0
   -7.1110   19.1650  -32.6120 S   0  0  0  0  0  0  0  0  0  0  0  0
   -7.4860   18.4490  -31.3450 O   0  0  0  0  0  0  0  0  0  0  0  0
   -8.2540   20.0560  -33.0070 O   0  0  0  0  0  0  0  0  0  0  0  0
   -6.7920   17.9860  -33.8670 N   0  0  0  0  0  0  0  0  0  0  0  0
   -6.5300   16.6420  -33.3170 C   0  0  0  0  0  0  0  0  0  0  0  0
   -5.1420   16.5230  -32.6610 C   0  0  0  0  0  0  0  0  0  0  0  0
   -4.0420   17.2700  -33.4340 C   0  0  0  0  0  0  0  0  0  0  0  0
   -4.4810   17.6230  -34.8550 C   0  0  0  0  0  0  0  0  0  0  0  0
   -5.7690   18.4680  -34.8300 C   0  0  0  0  0  0  0  0  0  0  0  0
   -4.8200   19.7920  -31.2390 C   0  0  0  0  0  0  0  0  0  0  0  0
   -3.6720   20.5470  -30.9890 C   0  0  0  0  0  0  0  0  0  0  0  0
   -2.5670   23.6380  -29.2570 N   0  0  0  0  0  0  0  0  0  0  0  0
   -3.8600   23.4660  -28.6070 C   0  0  0  0  0  0  0  0  0  0  0  0
   -4.9610   23.6880  -29.6100 C   0  0  0  0  0  0  0  0  0  0  0  0
   -6.0430   22.7890  -29.6530 C   0  0  0  0  0  0  0  0  0  0  0  0
   -7.0740   22.9620  -30.5800 C   0  0  0  0  0  0  0  0  0  0  0  0
   -8.4190   21.8360  -30.6170 Cl  0  0  0  0  0  0  0  0  0  0  0  0
   -7.0340   24.0300  -31.4790 C   0  0  0  0  0  0  0  0  0  0  0  0
   -5.9610   24.9240  -31.4550 C   0  0  0  0  0  0  0  0  0  0  0  0
   -4.9190   24.7610  -30.5340 C   0  0  0  0  0  0  0  0  0  0  0  0
   -3.8630   25.6740  -30.5660 O   0  0  0  0  0  0  0  0  0  0  0  0
   -2.2703   23.4813  -31.9465 H   0  0  0  0  0  0  0  0  0  0  0  0
   -1.2617   21.9754  -31.9438 H   0  0  0  0  0  0  0  0  0  0  0  0
   -3.9902   22.8709  -33.4800 H   0  0  0  0  0  0  0  0  0  0  0  0
   -6.0357   21.5175  -33.9319 H   0  0  0  0  0  0  0  0  0  0  0  0
   -7.2962   16.4169  -32.5605 H   0  0  0  0  0  0  0  0  0  0  0  0
   -6.5609   15.9305  -34.1554 H   0  0  0  0  0  0  0  0  0  0  0  0
   -5.1988   16.9386  -31.6441 H   0  0  0  0  0  0  0  0  0  0  0  0
   -4.8724   15.4566  -32.6563 H   0  0  0  0  0  0  0  0  0  0  0  0
   -3.7979   18.1982  -32.8966 H   0  0  0  0  0  0  0  0  0  0  0  0
   -3.1657   16.6086  -33.5031 H   0  0  0  0  0  0  0  0  0  0  0  0
   -3.6821   18.1960  -35.3484 H   0  0  0  0  0  0  0  0  0  0  0  0
   -4.6780   16.6922  -35.4071 H   0  0  0  0  0  0  0  0  0  0  0  0
   -5.4999   19.5000  -34.5604 H   0  0  0  0  0  0  0  0  0  0  0  0
   -6.2167   18.3936  -35.8320 H   0  0  0  0  0  0  0  0  0  0  0  0
   -5.0526   18.9223  -30.6069 H   0  0  0  0  0  0  0  0  0  0  0  0
   -3.0107   20.2761  -30.1528 H   0  0  0  0  0  0  0  0  0  0  0  0
   -3.9336   22.4460  -28.2018 H   0  0  0  0  0  0  0  0  0  0  0  0
   -3.9581   24.1943  -27.7885 H   0  0  0  0  0  0  0  0  0  0  0  0
   -6.0773   21.9430  -28.9508 H   0  0  0  0  0  0  0  0  0  0  0  0
   -7.8478   24.1672  -32.2063 H   0  0  0  0  0  0  0  0  0  0  0  0
   -5.9344   25.7632  -32.1657 H   0  0  0  0  0  0  0  0  0  0  0  0
   -3.1060   25.6710  -29.8960 H   0  0  0  0  0  0  0  0  0  0  0  0
  1  2  2  0
  2  3  1  0
  3  4  1  0
  4  5  2  0
  5  6  1  0
  6  7  2  0
  7  8  1  0
  8  9  2  0
  8 10  2  0
  8 11  1  0
 11 12  1  0
 12 13  1  0
 13 14  1  0
 14 15  1  0
 15 16  1  0
  7 17  1  0
 17 18  2  0
  2 19  1  0
 19 20  1  0
 20 21  1  0
 21 22  2  0
 22 23  1  0
 23 24  1  0
 23 25  2  0
 25 26  1  0
 26 27  2  0
 27 28  1  0
 18  4  1  0
 27 21  1  0
 16 11  1  0
  3 29  1  0
  3 30  1  0
  5 31  1  0
  6 32  1  0
 12 33  1  0
 12 34  1  0
 13 35  1  0
 13 36  1  0
 14 37  1  0
 14 38  1  0
 15 39  1  0
 15 40  1  0
 16 41  1  0
 16 42  1  0
 17 43  1  0
 18 44  1  0
 20 45  1  0
 20 46  1  0
 22 47  1  0
 25 48  1  0
 26 49  1  0
 28 50  1  0
M  CHG  1  19  -1
M  END
>  <UniqueID>  (2) 
2

>  <SMILES>  (2) 
O=C(Cc1ccc(S(=O)(=O)N2CCCCC2)cc1)[N-]Cc1cc(Cl)ccc1O

>  <Energy>  (2) 
56.77733129864709

>  <Genealogy>  (2) 
O=C(Cc1ccc(S(=O)(=O)N2CCCCC2)cc1)[N-]Cc1cc(Cl)ccc1O (protonated)
O=C(Cc1ccc(S(=O)(=O)N2CCCCC2)cc1)[N-]Cc1cc(Cl)ccc1O (3D coordinates assigned)
O=C(Cc1ccc(S(=O)(=O)N2CCCCC2)cc1)[N-]Cc1cc(Cl)ccc1O (nonaromatic ring conformer: 56.77733129864709 kcal/mol)

>  <smiles>  (2) 
O=C(Cc1ccc(S(=O)(=O)N2CCCCC2)cc1)NCc1cc(Cl)ccc1O

>  <score_type>  (2) 
oracle

>  <origin>  (2) 
adgpu

>  <m_score__min__energy>  (2) 
-12.33

>  <m_primary>  (2) 
energy

$$$$
2:0
     RDKit          3D

 53 56  0  0  0  0  0  0  0  0999 V2000
   -3.4030   16.7000  -35.4700 C   0  0  0  0  0  0  0  0  0  0  0  0
   -4.2290   16.8000  -34.2580 N   0  0  0  0  0  0  0  0  0  0  0  0
   -5.6520   16.5270  -34.5760 C   0  0  0  0  0  0  0  0  0  0  0  0
   -6.5920   17.1280  -33.5270 C   0  0  0  0  0  0  0  0  0  0  0  0
   -6.4860   18.6670  -33.5290 C   0  0  0  0  0  0  0  0  0  0  0  0
   -7.0560   19.3310  -31.9560 S   0  0  0  0  0  0  0  0  0  0  0  0
   -6.2790   18.6570  -30.8580 O   0  0  0  0  0  0  0  0  0  0  0  0
   -8.5150   19.0030  -31.8060 O   0  0  0  0  0  0  0  0  0  0  0  0
   -6.8600   21.0890  -31.8080 C   0  0  0  0  0  0  0  0  0  0  0  0
   -7.9670   21.9350  -31.9890 C   0  0  0  0  0  0  0  0  0  0  0  0
   -7.8220   23.3190  -31.9180 C   0  0  0  0  0  0  0  0  0  0  0  0
   -6.5780   23.8820  -31.6470 C   0  0  0  0  0  0  0  0  0  0  0  0
   -5.4640   23.0580  -31.4140 C   0  0  0  0  0  0  0  0  0  0  0  0
   -4.1650   23.6080  -31.1490 N   0  0  0  0  0  0  0  0  0  0  0  0
   -3.8710   24.8210  -30.4430 C   0  0  0  0  0  0  0  0  0  0  0  0
   -4.6760   25.7890  -30.4640 O   0  0  0  0  0  0  0  0  0  0  0  0
   -2.6850   24.9180  -29.6490 N   0  0  0  0  0  0  0  0  0  0  0  0
   -2.2830   23.9250  -28.6960 C   0  0  0  0  0  0  0  0  0  0  0  0
   -2.5410   22.5810  -28.9950 C   0  0  0  0  0  0  0  0  0  0  0  0
   -2.1220   21.5670  -28.1330 C   0  0  0  0  0  0  0  0  0  0  0  0
   -1.4500   21.8800  -26.9520 C   0  0  0  0  0  0  0  0  0  0  0  0
   -1.2150   23.2200  -26.6110 C   0  0  0  0  0  0  0  0  0  0  0  0
   -0.5710   23.5460  -25.4100 C   0  0  0  0  0  0  0  0  0  0  0  0
   -0.3790   24.8460  -25.0680 N   0  0  0  0  0  0  0  0  0  0  0  0
   -0.8030   25.8630  -25.8640 C   0  0  0  0  0  0  0  0  0  0  0  0
   -1.4500   25.5930  -27.0700 C   0  0  0  0  0  0  0  0  0  0  0  0
   -1.6440   24.2600  -27.4750 C   0  0  0  0  0  0  0  0  0  0  0  0
   -5.6000   21.6630  -31.5030 C   0  0  0  0  0  0  0  0  0  0  0  0
   -4.4650   20.8780  -31.2710 O   0  0  0  0  0  0  0  0  0  0  0  0
   -5.0510   19.1480  -33.8650 C   0  0  0  0  0  0  0  0  0  0  0  0
   -3.9930   18.0810  -33.5430 C   0  0  0  0  0  0  0  0  0  0  0  0
   -2.3482   16.5723  -35.1853 H   0  0  0  0  0  0  0  0  0  0  0  0
   -3.7293   15.8348  -36.0658 H   0  0  0  0  0  0  0  0  0  0  0  0
   -3.5134   17.6181  -36.0658 H   0  0  0  0  0  0  0  0  0  0  0  0
   -5.8879   16.9633  -35.5578 H   0  0  0  0  0  0  0  0  0  0  0  0
   -5.7987   15.4369  -34.5836 H   0  0  0  0  0  0  0  0  0  0  0  0
   -7.6270   16.8356  -33.7578 H   0  0  0  0  0  0  0  0  0  0  0  0
   -6.3056   16.7518  -32.5338 H   0  0  0  0  0  0  0  0  0  0  0  0
   -7.1395   19.0523  -34.3255 H   0  0  0  0  0  0  0  0  0  0  0  0
   -8.9577   21.5006  -32.1887 H   0  0  0  0  0  0  0  0  0  0  0  0
   -8.6945   23.9697  -32.0768 H   0  0  0  0  0  0  0  0  0  0  0  0
   -6.4667   24.9759  -31.6152 H   0  0  0  0  0  0  0  0  0  0  0  0
   -3.0794   22.3224  -29.9187 H   0  0  0  0  0  0  0  0  0  0  0  0
   -2.3228   20.5156  -28.3863 H   0  0  0  0  0  0  0  0  0  0  0  0
   -1.1038   21.0750  -26.2870 H   0  0  0  0  0  0  0  0  0  0  0  0
   -0.2197   22.7459  -24.7418 H   0  0  0  0  0  0  0  0  0  0  0  0
   -0.6349   26.9053  -25.5553 H   0  0  0  0  0  0  0  0  0  0  0  0
   -1.8072   26.4195  -27.7019 H   0  0  0  0  0  0  0  0  0  0  0  0
   -4.4990   19.9160  -30.9630 H   0  0  0  0  0  0  0  0  0  0  0  0
   -4.9990   19.3866  -34.9375 H   0  0  0  0  0  0  0  0  0  0  0  0
   -4.8376   20.0334  -33.2481 H   0  0  0  0  0  0  0  0  0  0  0  0
   -3.0047   18.4678  -33.8323 H   0  0  0  0  0  0  0  0  0  0  0  0
   -4.0508   17.8731  -32.4644 H   0  0  0  0  0  0  0  0  0  0  0  0
  1  2  1  0
  2  3  1  0
  3  4  1  0
  4  5  1  0
  5  6  1  0
  6  7  2  0
  6  8  2  0
  6  9  1  0
  9 10  2  0
 10 11  1  0
 11 12  2  0
 12 13  1  0
 13 14  1  0
 14 15  1  0
 15 16  2  0
 15 17  1  0
 17 18  1  0
 18 19  2  0
 19 20  1  0
 20 21  2  0
 21 22  1  0
 22 23  2  0
 23 24  1  0
 24 25  2  0
 25 26  1  0
 26 27  2  0
 13 28  2  0
 28 29  1  0
  5 30  1  0
 30 31  1  0
 31  2  1  0
 28  9  1  0
 27 18  1  0
 27 22  1  0
  1 32  1  0
  1 33  1  0
  1 34  1  0
  3 35  1  0
  3 36  1  0
  4 37  1  0
  4 38  1  0
  5 39  1  0
 10 40  1  0
 11 41  1  0
 12 42  1  0
 19 43  1  0
 20 44  1  0
 21 45  1  0
 23 46  1  0
 25 47  1  0
 26 48  1  0
 29 49  1  0
 30 50  1  0
 30 51  1  0
 31 52  1  0
 31 53  1  0
M  CHG  2  14  -1  17  -1
M  END
>  <UniqueID>  (3) 
3

>  <SMILES>  (3) 
CN1CCC(S(=O)(=O)c2cccc([N-]C(=O)[N-]c3cccc4cnccc34)c2O)CC1

>  <Energy>  (3) 
79.25014174918172

>  <Genealogy>  (3) 
CN1CCC(S(=O)(=O)c2cccc([N-]C(=O)[N-]c3cccc4cnccc34)c2O)CC1 (protonated)
CN1CCC(S(=O)(=O)c2cccc([N-]C(=O)[N-]c3cccc4cnccc34)c2O)CC1 (3D coordinates assigned)
CN1CCC(S(=O)(=O)c2cccc([N-]C(=O)[N-]c3cccc4cnccc34)c2O)CC1 (nonaromatic ring conformer: 79.25014174918172 kcal/mol)

>  <smiles>  (3) 
CN1CCC(S(=O)(=O)c2cccc(NC(=O)Nc3cccc4cnccc34)c2O)CC1

>  <score_type>  (3) 
oracle

>  <origin>  (3) 
adgpu

>  <m_score__min__energy>  (3) 
-13.41

>  <m_primary>  (3) 
energy

$$$$
3:0
     RDKit          3D

 52 54  0  0  0  0  0  0  0  0999 V2000
   -1.2260   26.1060  -27.9290 C   0  0  0  0  0  0  0  0  0  0  0  0
   -1.9340   25.4450  -28.9690 O   0  0  0  0  0  0  0  0  0  0  0  0
   -1.9670   24.0520  -29.1500 C   0  0  0  0  0  0  0  0  0  0  0  0
   -0.7880   23.2950  -29.2870 C   0  0  0  0  0  0  0  0  0  0  0  0
   -0.8530   21.9110  -29.4680 C   0  0  0  0  0  0  0  0  0  0  0  0
   -2.0850   21.2670  -29.5200 C   0  0  0  0  0  0  0  0  0  0  0  0
   -3.2600   22.0040  -29.3890 C   0  0  0  0  0  0  0  0  0  0  0  0
   -3.2140   23.3960  -29.1950 C   0  0  0  0  0  0  0  0  0  0  0  0
   -4.5050   24.1730  -29.0930 C   0  0  0  0  0  0  0  0  0  0  0  0
   -4.5570   25.3160  -30.1090 C   0  0  0  0  0  0  0  0  0  0  0  0
   -5.2330   24.8830  -31.3290 N   0  0  0  0  0  0  0  0  0  0  0  0
   -5.3410   23.5210  -31.7600 C   0  0  0  0  0  0  0  0  0  0  0  0
   -4.2850   22.8920  -32.0380 O   0  0  0  0  0  0  0  0  0  0  0  0
   -6.6400   22.8300  -31.8780 C   0  0  0  0  0  0  0  0  0  0  0  0
   -7.8400   23.5450  -31.7490 C   0  0  0  0  0  0  0  0  0  0  0  0
   -9.0650   22.8770  -31.8030 C   0  0  0  0  0  0  0  0  0  0  0  0
   -9.1040   21.4910  -31.9660 C   0  0  0  0  0  0  0  0  0  0  0  0
   -7.9140   20.7630  -32.0750 C   0  0  0  0  0  0  0  0  0  0  0  0
   -7.9670   19.0080  -32.2130 S   0  0  0  0  0  0  0  0  0  0  0  0
   -9.3710   18.5630  -32.5210 O   0  0  0  0  0  0  0  0  0  0  0  0
   -7.5540   18.4050  -30.8990 O   0  0  0  0  0  0  0  0  0  0  0  0
   -6.8790   18.4830  -33.4720 N   0  0  0  0  0  0  0  0  0  0  0  0
   -6.8330   17.0100  -33.5270 C   0  0  0  0  0  0  0  0  0  0  0  0
   -5.8050   16.5260  -34.5740 C   0  0  0  0  0  0  0  0  0  0  0  0
   -5.0930   17.6000  -35.1640 O   0  0  0  0  0  0  0  0  0  0  0  0
   -4.4810   18.3740  -34.1540 C   0  0  0  0  0  0  0  0  0  0  0  0
   -5.5320   19.0420  -33.2430 C   0  0  0  0  0  0  0  0  0  0  0  0
   -6.6840   21.4330  -32.0240 C   0  0  0  0  0  0  0  0  0  0  0  0
   -1.5981   25.7586  -26.9539 H   0  0  0  0  0  0  0  0  0  0  0  0
   -0.1530   25.8790  -28.0141 H   0  0  0  0  0  0  0  0  0  0  0  0
   -1.3789   27.1920  -28.0141 H   0  0  0  0  0  0  0  0  0  0  0  0
    0.1905   23.7962  -29.2513 H   0  0  0  0  0  0  0  0  0  0  0  0
    0.0742   21.3280  -29.5698 H   0  0  0  0  0  0  0  0  0  0  0  0
   -2.1314   20.1775  -29.6643 H   0  0  0  0  0  0  0  0  0  0  0  0
   -4.2326   21.4924  -29.4378 H   0  0  0  0  0  0  0  0  0  0  0  0
   -5.3477   23.4910  -29.2796 H   0  0  0  0  0  0  0  0  0  0  0  0
   -4.5663   24.6068  -28.0840 H   0  0  0  0  0  0  0  0  0  0  0  0
   -5.1050   26.1641  -29.6726 H   0  0  0  0  0  0  0  0  0  0  0  0
   -3.5292   25.6181  -30.3588 H   0  0  0  0  0  0  0  0  0  0  0  0
   -7.8159   24.6352  -31.6049 H   0  0  0  0  0  0  0  0  0  0  0  0
  -10.0030   23.4451  -31.7168 H   0  0  0  0  0  0  0  0  0  0  0  0
  -10.0720   20.9703  -32.0088 H   0  0  0  0  0  0  0  0  0  0  0  0
   -7.2520   18.8470  -34.3810 H   0  0  0  0  0  0  0  0  0  0  0  0
   -6.5486   16.6220  -32.5378 H   0  0  0  0  0  0  0  0  0  0  0  0
   -7.8276   16.6392  -33.8155 H   0  0  0  0  0  0  0  0  0  0  0  0
   -5.0872   15.8541  -34.0808 H   0  0  0  0  0  0  0  0  0  0  0  0
   -6.3561   16.0080  -35.3728 H   0  0  0  0  0  0  0  0  0  0  0  0
   -3.8397   17.7222  -33.5426 H   0  0  0  0  0  0  0  0  0  0  0  0
   -3.8871   19.1648  -34.6355 H   0  0  0  0  0  0  0  0  0  0  0  0
   -5.2506   18.8778  -32.1924 H   0  0  0  0  0  0  0  0  0  0  0  0
   -5.5594   20.1164  -33.4774 H   0  0  0  0  0  0  0  0  0  0  0  0
   -5.7470   20.8616  -32.0987 H   0  0  0  0  0  0  0  0  0  0  0  0
  1  2  1  0
  2  3  1  0
  3  4  2  0
  4  5  1  0
  5  6  2  0
  6  7  1  0
  7  8  2  0
  8  9  1  0
  9 10  1  0
 10 11  1  0
 11 12  1  0
 12 13  2  0
 12 14  1  0
 14 15  2  0
 15 16  1  0
 16 17  2  0
 17 18  1  0
 18 19  1  0
 19 20  2  0
 19 21  2  0
 19 22  1  0
 22 23  1  0
 23 24  1  0
 24 25  1  0
 25 26  1  0
 26 27  1  0
 18 28  2  0
  8  3  1  0
 28 14  1  0
 27 22  1  0
  1 29  1  0
  1 30  1  0
  1 31  1  0
  4 32  1  0
  5 33  1  0
  6 34  1  0
  7 35  1  0
  9 36  1  0
  9 37  1  0
 10 38  1  0
 10 39  1  0
 15 40  1  0
 16 41  1  0
 17 42  1  0
 22 43  1  0
 23 44  1  0
 23 45  1  0
 24 46  1  0
 24 47  1  0
 26 48  1  0
 26 49  1  0
 27 50  1  0
 27 51  1  0
 28 52  1  0
M  CHG  2  11  -1  22   1
M  END
>  <UniqueID>  (4) 
4

>  <SMILES>  (4) 
COc1ccccc1CC[N-]C(=O)c1cccc(S(=O)(=O)[NH+]2CCOCC2)c1

>  <Energy>  (4) 
61.75462440110699

>  <Genealogy>  (4) 
COc1ccccc1CC[N-]C(=O)c1cccc(S(=O)(=O)[NH+]2CCOCC2)c1 (protonated)
COc1ccccc1CC[N-]C(=O)c1cccc(S(=O)(=O)[NH+]2CCOCC2)c1 (3D coordinates assigned)
COc1ccccc1CC[N-]C(=O)c1cccc(S(=O)(=O)[NH+]2CCOCC2)c1 (nonaromatic ring conformer: 61.75462440110699 kcal/mol)

>  <smiles>  (4) 
COc1ccccc1CCNC(=O)c1cccc(S(=O)(=O)N2CCOCC2)c1

>  <score_type>  (4) 
oracle

>  <origin>  (4) 
adgpu

>  <m_score__min__energy>  (4) 
-10.119999999999999

>  <m_primary>  (4) 
energy

$$$$
4:0
     RDKit          3D

 48 51  0  0  0  0  0  0  0  0999 V2000
   -3.1760   23.8940  -27.1730 O   0  0  0  0  0  0  0  0  0  0  0  0
   -2.4740   24.5660  -27.9790 C   0  0  0  0  0  0  0  0  0  0  0  0
   -2.9880   24.9020  -29.2800 N   0  0  0  0  0  0  0  0  0  0  0  0
   -4.2110   24.3790  -29.8310 C   0  0  0  0  0  0  0  0  0  0  0  0
   -4.9890   25.1190  -30.7430 C   0  0  0  0  0  0  0  0  0  0  0  0
   -6.1670   24.5780  -31.2670 C   0  0  0  0  0  0  0  0  0  0  0  0
   -6.5970   23.3020  -30.8710 C   0  0  0  0  0  0  0  0  0  0  0  0
   -8.0540   22.5980  -31.5770 S   0  0  0  0  0  0  0  0  0  0  0  0
   -8.9560   22.1170  -30.4740 O   0  0  0  0  0  0  0  0  0  0  0  0
   -8.7930   23.6550  -32.3500 O   0  0  0  0  0  0  0  0  0  0  0  0
   -7.6730   21.2670  -32.6510 N   0  0  0  0  0  0  0  0  0  0  0  0
   -8.5470   20.0990  -32.4000 C   0  0  0  0  0  0  0  0  0  0  0  0
   -7.8490   18.7710  -32.7060 C   0  0  0  0  0  0  0  0  0  0  0  0
   -6.6450   18.6060  -31.7770 C   0  0  0  0  0  0  0  0  0  0  0  0
   -5.7670   19.8800  -31.7240 C   0  0  0  0  0  0  0  0  0  0  0  0
   -6.2160   20.9900  -32.6960 C   0  0  0  0  0  0  0  0  0  0  0  0
   -5.8510   22.5840  -29.9260 C   0  0  0  0  0  0  0  0  0  0  0  0
   -4.6690   23.1190  -29.4100 C   0  0  0  0  0  0  0  0  0  0  0  0
   -1.1000   24.9830  -27.6090 C   0  0  0  0  0  0  0  0  0  0  0  0
   -0.1020   24.6460  -28.4680 N   0  0  0  0  0  0  0  0  0  0  0  0
    1.1790   24.9080  -28.2160 N   0  0  0  0  0  0  0  0  0  0  0  0
    1.5670   25.5260  -27.0770 C   0  0  0  0  0  0  0  0  0  0  0  0
    2.7940   25.7410  -26.8840 O   0  0  0  0  0  0  0  0  0  0  0  0
    0.6010   25.9230  -26.1380 C   0  0  0  0  0  0  0  0  0  0  0  0
    0.9700   26.5690  -24.9430 C   0  0  0  0  0  0  0  0  0  0  0  0
   -0.0010   26.9680  -24.0270 C   0  0  0  0  0  0  0  0  0  0  0  0
   -1.3490   26.7570  -24.3020 C   0  0  0  0  0  0  0  0  0  0  0  0
   -1.7360   26.1310  -25.4890 C   0  0  0  0  0  0  0  0  0  0  0  0
   -0.7680   25.6670  -26.4100 C   0  0  0  0  0  0  0  0  0  0  0  0
   -2.5090   25.6690  -29.8050 H   0  0  0  0  0  0  0  0  0  0  0  0
   -4.6682   26.1271  -31.0443 H   0  0  0  0  0  0  0  0  0  0  0  0
   -6.7592   25.1548  -31.9926 H   0  0  0  0  0  0  0  0  0  0  0  0
   -8.8483   20.1041  -31.3421 H   0  0  0  0  0  0  0  0  0  0  0  0
   -9.4174   20.1819  -33.0675 H   0  0  0  0  0  0  0  0  0  0  0  0
   -8.5527   17.9408  -32.5462 H   0  0  0  0  0  0  0  0  0  0  0  0
   -7.5100   18.7658  -33.7525 H   0  0  0  0  0  0  0  0  0  0  0  0
   -7.0082   18.3839  -30.7627 H   0  0  0  0  0  0  0  0  0  0  0  0
   -6.0259   17.7859  -32.1697 H   0  0  0  0  0  0  0  0  0  0  0  0
   -5.8009   20.2815  -30.7005 H   0  0  0  0  0  0  0  0  0  0  0  0
   -4.7528   19.5813  -32.0274 H   0  0  0  0  0  0  0  0  0  0  0  0
   -5.6784   21.9148  -32.4397 H   0  0  0  0  0  0  0  0  0  0  0  0
   -5.9860   20.6398  -33.7131 H   0  0  0  0  0  0  0  0  0  0  0  0
   -6.1980   21.5958  -29.5898 H   0  0  0  0  0  0  0  0  0  0  0  0
   -4.0913   22.5491  -28.6674 H   0  0  0  0  0  0  0  0  0  0  0  0
    2.0323   26.7601  -24.7309 H   0  0  0  0  0  0  0  0  0  0  0  0
    0.2982   27.4506  -23.0849 H   0  0  0  0  0  0  0  0  0  0  0  0
   -2.1128   27.0847  -23.5814 H   0  0  0  0  0  0  0  0  0  0  0  0
   -2.8052   25.9974  -25.7100 H   0  0  0  0  0  0  0  0  0  0  0  0
  1  2  2  0
  2  3  1  0
  3  4  1  0
  4  5  2  0
  5  6  1  0
  6  7  2  0
  7  8  1  0
  8  9  2  0
  8 10  2  0
  8 11  1  0
 11 12  1  0
 12 13  1  0
 13 14  1  0
 14 15  1  0
 15 16  1  0
  7 17  1  0
 17 18  2  0
  2 19  1  0
 19 20  2  0
 20 21  1  0
 21 22  1  0
 22 23  2  0
 22 24  1  0
 24 25  2  0
 25 26  1  0
 26 27  2  0
 27 28  1  0
 28 29  2  0
 18  4  1  0
 29 19  1  0
 16 11  1  0
 29 24  1  0
  3 30  1  0
  5 31  1  0
  6 32  1  0
 12 33  1  0
 12 34  1  0
 13 35  1  0
 13 36  1  0
 14 37  1  0
 14 38  1  0
 15 39  1  0
 15 40  1  0
 16 41  1  0
 16 42  1  0
 17 43  1  0
 18 44  1  0
 25 45  1  0
 26 46  1  0
 27 47  1  0
 28 48  1  0
M  CHG  1  21  -1
M  END
>  <UniqueID>  (5) 
5

>  <SMILES>  (5) 
O=C(Nc1ccc(S(=O)(=O)N2CCCCC2)cc1)c1n[n-]c(=O)c2ccccc12

>  <Energy>  (5) 
73.92731565880787

>  <Genealogy>  (5) 
O=C(Nc1ccc(S(=O)(=O)N2CCCCC2)cc1)c1n[n-]c(=O)c2ccccc12 (protonated)
O=C(Nc1ccc(S(=O)(=O)N2CCCCC2)cc1)c1n[n-]c(=O)c2ccccc12 (3D coordinates assigned)
O=C(Nc1ccc(S(=O)(=O)N2CCCCC2)cc1)c1n[n-]c(=O)c2ccccc12 (nonaromatic ring conformer: 73.92731565880787 kcal/mol)

>  <smiles>  (5) 
O=C(Nc1ccc(S(=O)(=O)N2CCCCC2)cc1)c1n[nH]c(=O)c2ccccc12

>  <score_type>  (5) 
oracle

>  <origin>  (5) 
adgpu

>  <m_score__min__energy>  (5) 
-11.220000000000001

>  <m_primary>  (5) 
energy

$$$$
5:0
     RDKit          3D

 52 55  0  0  0  0  0  0  0  0999 V2000
   -9.3880   18.6740  -31.9890 C   0  0  0  0  0  0  0  0  0  0  0  0
   -7.9760   19.1750  -31.9060 C   0  0  0  0  0  0  0  0  0  0  0  0
   -6.9010   18.2700  -31.8880 C   0  0  0  0  0  0  0  0  0  0  0  0
   -5.5850   18.7430  -31.8490 C   0  0  0  0  0  0  0  0  0  0  0  0
   -5.3300   20.1230  -31.8340 C   0  0  0  0  0  0  0  0  0  0  0  0
   -3.6710   20.7040  -31.8460 S   0  0  0  0  0  0  0  0  0  0  0  0
   -2.7620   19.6930  -31.2030 O   0  0  0  0  0  0  0  0  0  0  0  0
   -3.2090   20.9000  -33.2640 O   0  0  0  0  0  0  0  0  0  0  0  0
   -3.6090   22.2170  -30.9410 C   0  0  0  0  0  0  0  0  0  0  0  0
   -4.2310   23.4190  -31.2440 C   0  0  0  0  0  0  0  0  0  0  0  0
   -4.9920   23.7350  -32.3680 O   0  0  0  0  0  0  0  0  0  0  0  0
   -3.9910   24.2690  -30.1880 C   0  0  0  0  0  0  0  0  0  0  0  0
   -4.4410   25.5810  -30.1010 O   0  0  0  0  0  0  0  0  0  0  0  0
   -3.2730   23.6450  -29.2310 N   0  0  0  0  0  0  0  0  0  0  0  0
   -2.8560   24.2120  -27.9450 C   0  0  0  0  0  0  0  0  0  0  0  0
   -1.3810   24.0050  -27.7330 C   0  0  0  0  0  0  0  0  0  0  0  0
   -0.9020   23.3260  -26.6030 C   0  0  0  0  0  0  0  0  0  0  0  0
    0.4690   23.1240  -26.4400 C   0  0  0  0  0  0  0  0  0  0  0  0
    1.3510   23.6060  -27.4080 C   0  0  0  0  0  0  0  0  0  0  0  0
    0.8740   24.2650  -28.4970 N   0  0  0  0  0  0  0  0  0  0  0  0
   -0.4580   24.4720  -28.6800 C   0  0  0  0  0  0  0  0  0  0  0  0
   -3.0380   22.3910  -29.6850 C   0  0  0  0  0  0  0  0  0  0  0  0
   -2.3450   21.3470  -28.9110 C   0  0  0  0  0  0  0  0  0  0  0  0
   -3.0310   20.6710  -27.8910 C   0  0  0  0  0  0  0  0  0  0  0  0
   -2.3940   19.6570  -27.1600 C   0  0  0  0  0  0  0  0  0  0  0  0
   -3.1580   18.9040  -26.1120 C   0  0  0  0  0  0  0  0  0  0  0  0
   -1.0660   19.3170  -27.4620 C   0  0  0  0  0  0  0  0  0  0  0  0
   -0.3760   19.9990  -28.4680 C   0  0  0  0  0  0  0  0  0  0  0  0
   -1.0100   21.0130  -29.1930 C   0  0  0  0  0  0  0  0  0  0  0  0
   -0.3090   21.6850  -30.1900 O   0  0  0  0  0  0  0  0  0  0  0  0
   -6.4010   21.0280  -31.8720 C   0  0  0  0  0  0  0  0  0  0  0  0
   -7.7170   20.5570  -31.9150 C   0  0  0  0  0  0  0  0  0  0  0  0
   -9.7871   18.5324  -30.9738 H   0  0  0  0  0  0  0  0  0  0  0  0
  -10.0063   19.4076  -32.5270 H   0  0  0  0  0  0  0  0  0  0  0  0
   -9.4057   17.7147  -32.5270 H   0  0  0  0  0  0  0  0  0  0  0  0
   -7.0948   17.1873  -31.9046 H   0  0  0  0  0  0  0  0  0  0  0  0
   -4.7470   18.0307  -31.8300 H   0  0  0  0  0  0  0  0  0  0  0  0
   -5.6870   24.4670  -32.3590 H   0  0  0  0  0  0  0  0  0  0  0  0
   -3.0755   25.2898  -27.9361 H   0  0  0  0  0  0  0  0  0  0  0  0
   -3.4064   23.7069  -27.1376 H   0  0  0  0  0  0  0  0  0  0  0  0
   -1.6070   22.9528  -25.8455 H   0  0  0  0  0  0  0  0  0  0  0  0
    0.8507   22.5901  -25.5572 H   0  0  0  0  0  0  0  0  0  0  0  0
    2.4338   23.4525  -27.2896 H   0  0  0  0  0  0  0  0  0  0  0  0
   -0.8122   25.0072  -29.5734 H   0  0  0  0  0  0  0  0  0  0  0  0
   -4.0737   20.9373  -27.6632 H   0  0  0  0  0  0  0  0  0  0  0  0
   -2.8286   19.2286  -25.1139 H   0  0  0  0  0  0  0  0  0  0  0  0
   -4.2333   19.1052  -26.2267 H   0  0  0  0  0  0  0  0  0  0  0  0
   -2.9724   17.8258  -26.2267 H   0  0  0  0  0  0  0  0  0  0  0  0
   -0.5665   18.5108  -26.9048 H   0  0  0  0  0  0  0  0  0  0  0  0
    0.6691   19.7374  -28.6902 H   0  0  0  0  0  0  0  0  0  0  0  0
   -6.2053   22.1104  -31.8680 H   0  0  0  0  0  0  0  0  0  0  0  0
   -8.5531   21.2707  -31.9560 H   0  0  0  0  0  0  0  0  0  0  0  0
  1  2  1  0
  2  3  2  0
  3  4  1  0
  4  5  2  0
  5  6  1  0
  6  7  2  0
  6  8  2  0
  6  9  1  0
  9 10  1  0
 10 11  1  0
 10 12  2  0
 12 13  1  0
 12 14  1  0
 14 15  1  0
 15 16  1  0
 16 17  2  0
 17 18  1  0
 18 19  2  0
 19 20  1  0
 20 21  2  0
 14 22  1  0
 22 23  1  0
 23 24  2  0
 24 25  1  0
 25 26  1  0
 25 27  2  0
 27 28  1  0
 28 29  2  0
 29 30  1  0
  5 31  1  0
 31 32  2  0
 32  2  1  0
 22  9  2  0
 29 23  1  0
 21 16  1  0
  1 33  1  0
  1 34  1  0
  1 35  1  0
  3 36  1  0
  4 37  1  0
 11 38  1  0
 15 39  1  0
 15 40  1  0
 17 41  1  0
 18 42  1  0
 19 43  1  0
 21 44  1  0
 24 45  1  0
 26 46  1  0
 26 47  1  0
 26 48  1  0
 27 49  1  0
 28 50  1  0
 31 51  1  0
 32 52  1  0
M  CHG  2  13  -1  30  -1
M  END
>  <UniqueID>  (6) 
6

>  <SMILES>  (6) 
Cc1ccc(S(=O)(=O)c2c(O)c([O-])n(Cc3cccnc3)c2-c2cc(C)ccc2[O-])cc1

>  <Energy>  (6) 
89.70165408687168

>  <Genealogy>  (6) 
Cc1ccc(S(=O)(=O)c2c(O)c([O-])n(Cc3cccnc3)c2-c2cc(C)ccc2[O-])cc1 (protonated)
Cc1ccc(S(=O)(=O)c2c(O)c([O-])n(Cc3cccnc3)c2-c2cc(C)ccc2[O-])cc1 (3D coordinates assigned)
Cc1ccc(S(=O)(=O)c2c(O)c([O-])n(Cc3cccnc3)c2-c2cc(C)ccc2[O-])cc1 (optimized conformer: 89.70165408687168 kcal/mol)

>  <smiles>  (6) 
Cc1ccc(S(=O)(=O)c2c(O)c(O)n(Cc3cccnc3)c2-c2cc(C)ccc2O)cc1

>  <score_type>  (6) 
oracle

>  <origin>  (6) 
adgpu

>  <m_score__min__energy>  (6) 
-12.81

>  <m_primary>  (6) 
energy

$$$$
6:0
     RDKit          3D

 66 70  0  0  0  0  0  0  0  0999 V2000
    1.7460   21.1270  -34.1020 O   0  0  0  0  0  0  0  0  0  0  0  0
    0.5560   20.9850  -34.4950 C   0  0  0  0  0  0  0  0  0  0  0  0
   -0.0970   22.0480  -35.2150 N   0  0  0  0  0  0  0  0  0  0  0  0
    0.6020   23.1970  -35.7180 C   0  0  0  0  0  0  0  0  0  0  0  0
   -0.1190   24.3360  -36.1010 C   0  0  0  0  0  0  0  0  0  0  0  0
    0.5420   25.4590  -36.6060 C   0  0  0  0  0  0  0  0  0  0  0  0
    1.9350   25.4420  -36.7650 C   0  0  0  0  0  0  0  0  0  0  0  0
    2.7780   26.8570  -37.3880 S   0  0  0  0  0  0  0  0  0  0  0  0
    4.2250   26.7930  -36.9790 O   0  0  0  0  0  0  0  0  0  0  0  0
    2.7060   26.8650  -38.8920 O   0  0  0  0  0  0  0  0  0  0  0  0
    2.0250   28.3070  -36.7660 N   0  0  0  0  0  0  0  0  0  0  0  0
    0.7200   28.5390  -37.3870 C   0  0  0  0  0  0  0  0  0  0  0  0
   -0.1160   29.3120  -36.3740 C   0  0  0  0  0  0  0  0  0  0  0  0
    0.5900   29.1230  -35.0410 C   0  0  0  0  0  0  0  0  0  0  0  0
    1.7530   28.1880  -35.3350 C   0  0  0  0  0  0  0  0  0  0  0  0
    2.6570   24.2910  -36.4170 C   0  0  0  0  0  0  0  0  0  0  0  0
    1.9960   23.1760  -35.8950 C   0  0  0  0  0  0  0  0  0  0  0  0
   -0.1750   19.7360  -34.1900 C   0  0  0  0  0  0  0  0  0  0  0  0
    0.5100   18.5500  -33.9100 C   0  0  0  0  0  0  0  0  0  0  0  0
   -0.2110   17.3970  -33.6060 C   0  0  0  0  0  0  0  0  0  0  0  0
   -1.6160   17.4140  -33.5680 C   0  0  0  0  0  0  0  0  0  0  0  0
   -2.3550   16.1420  -33.2080 C   0  0  0  0  0  0  0  0  0  0  0  0
   -2.6490   15.3870  -34.3280 F   0  0  0  0  0  0  0  0  0  0  0  0
   -3.5550   16.4400  -32.5830 F   0  0  0  0  0  0  0  0  0  0  0  0
   -1.5780   15.3930  -32.3400 F   0  0  0  0  0  0  0  0  0  0  0  0
   -2.2720   18.6220  -33.9200 C   0  0  0  0  0  0  0  0  0  0  0  0
   -3.7020   18.7300  -33.9870 N   0  0  0  0  0  0  0  0  0  0  0  0
   -4.4160   17.8700  -34.9420 C   0  0  0  0  0  0  0  0  0  0  0  0
   -5.9120   17.7890  -34.6390 C   0  0  0  0  0  0  0  0  0  0  0  0
   -6.4240   19.0570  -34.2880 O   0  0  0  0  0  0  0  0  0  0  0  0
   -5.9000   19.4420  -33.0310 C   0  0  2  0  0  0  0  0  0  0  0  0
   -6.6180   20.6880  -32.5560 C   0  0  0  0  0  0  0  0  0  0  0  0
   -7.9980   20.6530  -32.2850 C   0  0  0  0  0  0  0  0  0  0  0  0
   -8.6540   21.7960  -31.8100 C   0  0  0  0  0  0  0  0  0  0  0  0
   -7.9360   22.9770  -31.5900 C   0  0  0  0  0  0  0  0  0  0  0  0
   -6.5610   23.0170  -31.8370 C   0  0  0  0  0  0  0  0  0  0  0  0
   -5.9030   21.8790  -32.3160 C   0  0  0  0  0  0  0  0  0  0  0  0
   -4.3850   19.7150  -33.1320 C   0  0  0  0  0  0  0  0  0  0  0  0
   -1.5340   19.7310  -34.1970 N   0  0  0  0  0  0  0  0  0  0  0  0
   -1.1410   22.0350  -35.2940 H   0  0  0  0  0  0  0  0  0  0  0  0
   -1.2146   24.3462  -36.0033 H   0  0  0  0  0  0  0  0  0  0  0  0
   -0.0312   26.3573  -36.8791 H   0  0  0  0  0  0  0  0  0  0  0  0
    0.8381   29.1274  -38.3088 H   0  0  0  0  0  0  0  0  0  0  0  0
    0.2358   27.5889  -37.6568 H   0  0  0  0  0  0  0  0  0  0  0  0
   -0.1554   30.3784  -36.6410 H   0  0  0  0  0  0  0  0  0  0  0  0
   -1.1551   28.9527  -36.3415 H   0  0  0  0  0  0  0  0  0  0  0  0
    0.9571   30.0869  -34.6588 H   0  0  0  0  0  0  0  0  0  0  0  0
   -0.0832   28.7132  -34.2736 H   0  0  0  0  0  0  0  0  0  0  0  0
    2.6377   28.4863  -34.7533 H   0  0  0  0  0  0  0  0  0  0  0  0
    1.5110   27.1509  -35.0595 H   0  0  0  0  0  0  0  0  0  0  0  0
    3.7480   24.2659  -36.5555 H   0  0  0  0  0  0  0  0  0  0  0  0
    2.5693   22.2779  -35.6214 H   0  0  0  0  0  0  0  0  0  0  0  0
    1.6096   18.5271  -33.9295 H   0  0  0  0  0  0  0  0  0  0  0  0
    0.3264   16.4612  -33.3929 H   0  0  0  0  0  0  0  0  0  0  0  0
   -4.2812   18.2772  -35.9549 H   0  0  0  0  0  0  0  0  0  0  0  0
   -3.9993   16.8553  -34.8599 H   0  0  0  0  0  0  0  0  0  0  0  0
   -6.4407   17.4213  -35.5308 H   0  0  0  0  0  0  0  0  0  0  0  0
   -6.0627   17.1025  -33.7928 H   0  0  0  0  0  0  0  0  0  0  0  0
   -6.0547   18.6243  -32.3117 H   0  0  0  0  0  0  0  0  0  0  0  0
   -8.5644   19.7240  -32.4468 H   0  0  0  0  0  0  0  0  0  0  0  0
   -9.7352   21.7652  -31.6096 H   0  0  0  0  0  0  0  0  0  0  0  0
   -8.4545   23.8748  -31.2223 H   0  0  0  0  0  0  0  0  0  0  0  0
   -5.9961   23.9431  -31.6548 H   0  0  0  0  0  0  0  0  0  0  0  0
   -4.8202   21.9139  -32.5067 H   0  0  0  0  0  0  0  0  0  0  0  0
   -4.2326   20.7188  -33.5554 H   0  0  0  0  0  0  0  0  0  0  0  0
   -3.9585   19.6403  -32.1208 H   0  0  0  0  0  0  0  0  0  0  0  0
  1  2  2  0
  2  3  1  0
  3  4  1  0
  4  5  2  0
  5  6  1  0
  6  7  2  0
  7  8  1  0
  8  9  2  0
  8 10  2  0
  8 11  1  0
 11 12  1  0
 12 13  1  0
 13 14  1  0
 14 15  1  0
  7 16  1  0
 16 17  2  0
  2 18  1  0
 18 19  2  0
 19 20  1  0
 20 21  2  0
 21 22  1  0
 22 23  1  0
 22 24  1  0
 22 25  1  0
 21 26  1  0
 26 27  1  0
 27 28  1  0
 28 29  1  0
 29 30  1  0
 30 31  1  0
 31 32  1  0
 32 33  2  0
 33 34  1  0
 34 35  2  0
 35 36  1  0
 36 37  2  0
 31 38  1  0
 26 39  2  0
 17  4  1  0
 39 18  1  0
 15 11  1  0
 38 27  1  0
 37 32  1  0
  3 40  1  0
  5 41  1  0
  6 42  1  0
 12 43  1  0
 12 44  1  0
 13 45  1  0
 13 46  1  0
 14 47  1  0
 14 48  1  0
 15 49  1  0
 15 50  1  0
 16 51  1  0
 17 52  1  0
 19 53  1  0
 20 54  1  0
 28 55  1  0
 28 56  1  0
 29 57  1  0
 29 58  1  0
 31 59  1  1
 33 60  1  0
 34 61  1  0
 35 62  1  0
 36 63  1  0
 37 64  1  0
 38 65  1  0
 38 66  1  0
M  END
>  <UniqueID>  (7) 
7

>  <SMILES>  (7) 
O=C(Nc1ccc(S(=O)(=O)N2CCCC2)cc1)c1ccc(C(F)(F)F)c(N2CCO[C@H](c3ccccc3)C2)n1

>  <Energy>  (7) 
87.33525859163704

>  <Genealogy>  (7) 
O=C(Nc1ccc(S(=O)(=O)N2CCCC2)cc1)c1ccc(C(F)(F)F)c(N2CCO[C@H](c3ccccc3)C2)n1 (chirality)
O=C(Nc1ccc(S(=O)(=O)N2CCCC2)cc1)c1ccc(C(F)(F)F)c(N2CCO[C@H](c3ccccc3)C2)n1 (3D coordinates assigned)
O=C(Nc1ccc(S(=O)(=O)N2CCCC2)cc1)c1ccc(C(F)(F)F)c(N2CCO[C@H](c3ccccc3)C2)n1 (nonaromatic ring conformer: 87.33525859163704 kcal/mol)

>  <smiles>  (7) 
O=C(Nc1ccc(S(=O)(=O)N2CCCC2)cc1)c1ccc(C(F)(F)F)c(N2CCOC(c3ccccc3)C2)n1

>  <score_type>  (7) 
oracle

>  <origin>  (7) 
adgpu

>  <m_score__min__energy>  (7) 
-10.06

>  <m_primary>  (7) 
energy

$$$$
7:0
     RDKit          3D

 47 50  0  0  0  0  0  0  0  0999 V2000
   -1.4400   25.2760  -28.9910 N   0  0  0  0  0  0  0  0  0  0  0  0
   -1.5790   24.0920  -28.4840 C   0  0  0  0  0  0  0  0  0  0  0  0
   -0.7900   23.6610  -27.4670 N   0  0  0  0  0  0  0  0  0  0  0  0
   -1.2920   22.4440  -27.1950 C   0  0  0  0  0  0  0  0  0  0  0  0
   -0.8620   21.5550  -26.2130 C   0  0  0  0  0  0  0  0  0  0  0  0
   -1.5560   20.3390  -26.0790 C   0  0  0  0  0  0  0  0  0  0  0  0
   -2.6590   20.0520  -26.9130 C   0  0  0  0  0  0  0  0  0  0  0  0
   -3.0710   20.9710  -27.8930 C   0  0  0  0  0  0  0  0  0  0  0  0
   -2.3470   22.1620  -28.0160 C   0  0  0  0  0  0  0  0  0  0  0  0
   -2.5330   23.1930  -28.8620 N   0  0  0  0  0  0  0  0  0  0  0  0
   -3.6950   23.2830  -30.1630 S   0  0  0  0  0  0  0  0  0  0  0  0
   -5.0650   23.0050  -29.6110 O   0  0  0  0  0  0  0  0  0  0  0  0
   -3.6880   24.6370  -30.8130 O   0  0  0  0  0  0  0  0  0  0  0  0
   -3.2820   22.1110  -31.4120 C   0  0  0  0  0  0  0  0  0  0  0  0
   -1.9780   22.0350  -31.9180 C   0  0  0  0  0  0  0  0  0  0  0  0
   -1.6780   21.1400  -32.9470 C   0  0  0  0  0  0  0  0  0  0  0  0
   -2.6770   20.3220  -33.4800 C   0  0  0  0  0  0  0  0  0  0  0  0
   -3.9890   20.3900  -32.9820 C   0  0  0  0  0  0  0  0  0  0  0  0
   -5.0600   19.5450  -33.5550 C   0  0  0  0  0  0  0  0  0  0  0  0
   -4.7980   18.3640  -33.9040 O   0  0  0  0  0  0  0  0  0  0  0  0
   -6.3870   20.0470  -33.7630 N   0  0  0  0  0  0  0  0  0  0  0  0
   -7.1710   20.7700  -32.8010 C   0  0  0  0  0  0  0  0  0  0  0  0
   -7.0970   22.1740  -32.7190 C   0  0  0  0  0  0  0  0  0  0  0  0
   -7.8430   22.8670  -31.7650 C   0  0  0  0  0  0  0  0  0  0  0  0
   -8.6570   22.1690  -30.8720 C   0  0  0  0  0  0  0  0  0  0  0  0
   -8.7250   20.7750  -30.9290 C   0  0  0  0  0  0  0  0  0  0  0  0
   -7.9850   20.0660  -31.8890 C   0  0  0  0  0  0  0  0  0  0  0  0
   -8.0870   18.3020  -31.9410 S   0  0  0  0  0  0  0  0  0  0  0  0
   -7.5490   17.7300  -33.4800 N   0  0  0  0  0  0  0  0  0  0  0  0
   -7.2250   17.7020  -30.8650 O   0  0  0  0  0  0  0  0  0  0  0  0
   -9.5080   17.8710  -31.7080 O   0  0  0  0  0  0  0  0  0  0  0  0
   -4.2790   21.2740  -31.9300 C   0  0  0  0  0  0  0  0  0  0  0  0
   -2.0490   25.6670  -29.7380 H   0  0  0  0  0  0  0  0  0  0  0  0
   -0.0076   21.7959  -25.5634 H   0  0  0  0  0  0  0  0  0  0  0  0
   -1.2381   19.6080  -25.3210 H   0  0  0  0  0  0  0  0  0  0  0  0
   -3.1999   19.1015  -26.7945 H   0  0  0  0  0  0  0  0  0  0  0  0
   -3.9340   20.7610  -28.5419 H   0  0  0  0  0  0  0  0  0  0  0  0
   -1.1896   22.6810  -31.5043 H   0  0  0  0  0  0  0  0  0  0  0  0
   -0.6520   21.0789  -33.3390 H   0  0  0  0  0  0  0  0  0  0  0  0
   -2.4355   19.6216  -34.2931 H   0  0  0  0  0  0  0  0  0  0  0  0
   -6.4466   22.7281  -33.4118 H   0  0  0  0  0  0  0  0  0  0  0  0
   -7.7894   23.9646  -31.7168 H   0  0  0  0  0  0  0  0  0  0  0  0
   -9.2460   22.7174  -30.1221 H   0  0  0  0  0  0  0  0  0  0  0  0
   -9.3621   20.2293  -30.2175 H   0  0  0  0  0  0  0  0  0  0  0  0
   -7.8350   18.4390  -34.1910 H   0  0  0  0  0  0  0  0  0  0  0  0
   -6.5040   17.7310  -33.4570 H   0  0  0  0  0  0  0  0  0  0  0  0
   -5.2951   21.3095  -31.5101 H   0  0  0  0  0  0  0  0  0  0  0  0
  1  2  2  3
  2  3  1  0
  3  4  1  0
  4  5  2  0
  5  6  1  0
  6  7  2  0
  7  8  1  0
  8  9  2  0
  9 10  1  0
 10 11  1  0
 11 12  2  0
 11 13  2  0
 11 14  1  0
 14 15  2  0
 15 16  1  0
 16 17  2  0
 17 18  1  0
 18 19  1  0
 19 20  2  0
 19 21  1  0
 21 22  1  0
 22 23  2  0
 23 24  1  0
 24 25  2  0
 25 26  1  0
 26 27  2  0
 27 28  1  0
 28 29  1  0
 28 30  2  0
 28 31  2  0
 18 32  2  0
 10  2  1  0
 32 14  1  0
  9  4  1  0
 27 22  1  0
  1 33  1  0
  5 34  1  0
  6 35  1  0
  7 36  1  0
  8 37  1  0
 15 38  1  0
 16 39  1  0
 17 40  1  0
 23 41  1  0
 24 42  1  0
 25 43  1  0
 26 44  1  0
 29 45  1  0
 29 46  1  0
 32 47  1  0
M  CHG  2   3  -1  21  -1
M  END
>  <UniqueID>  (8) 
8

>  <SMILES>  (8) 
N=c1[n-]c2ccccc2n1S(=O)(=O)c1cccc(C(=O)[N-]c2ccccc2S(N)(=O)=O)c1

>  <Energy>  (8) 
99.81759151081155

>  <Genealogy>  (8) 
N=c1[n-]c2ccccc2n1S(=O)(=O)c1cccc(C(=O)[N-]c2ccccc2S(N)(=O)=O)c1 (protonated)
N=c1[n-]c2ccccc2n1S(=O)(=O)c1cccc(C(=O)[N-]c2ccccc2S(N)(=O)=O)c1 (3D coordinates assigned)
N=c1[n-]c2ccccc2n1S(=O)(=O)c1cccc(C(=O)[N-]c2ccccc2S(N)(=O)=O)c1 (optimized conformer: 99.81759151081155 kcal/mol)

>  <smiles>  (8) 
N=c1[nH]c2ccccc2n1S(=O)(=O)c1cccc(C(=O)Nc2ccccc2S(N)(=O)=O)c1

>  <score_type>  (8) 
oracle

>  <origin>  (8) 
adgpu

>  <m_score__min__energy>  (8) 
-11.35

>  <m_primary>  (8) 
energy

$$$$
8:0
     RDKit          3D

 68 71  0  0  0  0  0  0  0  0999 V2000
   -0.6670   19.5260  -32.8200 C   0  0  0  0  0  0  0  0  0  0  0  0
   -1.8940   20.7360  -32.3790 S   0  0  0  0  0  0  0  0  0  0  0  0
   -1.5810   21.2660  -31.0070 O   0  0  0  0  0  0  0  0  0  0  0  0
   -1.8600   21.8750  -33.3590 O   0  0  0  0  0  0  0  0  0  0  0  0
   -3.4930   19.9980  -32.3940 C   0  0  0  0  0  0  0  0  0  0  0  0
   -4.2990   20.0620  -31.2510 C   0  0  0  0  0  0  0  0  0  0  0  0
   -5.5680   19.4750  -31.2490 C   0  0  0  0  0  0  0  0  0  0  0  0
   -6.0460   18.8160  -32.3910 C   0  0  0  0  0  0  0  0  0  0  0  0
   -7.3950   18.2190  -32.3600 C   0  0  0  0  0  0  0  0  0  0  0  0
   -7.5530   17.0420  -32.7790 O   0  0  0  0  0  0  0  0  0  0  0  0
   -8.5260   18.9250  -31.8380 N   0  0  0  0  0  0  0  0  0  0  0  0
   -9.2510   19.9800  -32.5450 C   0  0  0  0  0  0  0  0  0  0  0  0
   -9.4420   21.1980  -31.6370 C   0  0  0  0  0  0  0  0  0  0  0  0
   -8.1420   21.9120  -31.3440 C   0  0  0  0  0  0  0  0  0  0  0  0
   -7.8190   22.3060  -30.0320 C   0  0  0  0  0  0  0  0  0  0  0  0
   -6.6160   22.9630  -29.7700 C   0  0  0  0  0  0  0  0  0  0  0  0
   -5.6950   23.1950  -30.8010 C   0  0  0  0  0  0  0  0  0  0  0  0
   -4.1570   23.9900  -30.4690 S   0  0  0  0  0  0  0  0  0  0  0  0
   -4.2930   25.4520  -30.7860 O   0  0  0  0  0  0  0  0  0  0  0  0
   -3.0910   23.4000  -31.3500 O   0  0  0  0  0  0  0  0  0  0  0  0
   -3.6860   23.7490  -28.8080 N   0  0  0  0  0  0  0  0  0  0  0  0
   -4.5350   24.2160  -27.7180 C   0  0  0  0  0  0  0  0  0  0  0  0
   -3.5900   24.8880  -26.7030 C   0  0  0  0  0  0  0  0  0  0  0  0
   -2.2380   24.4680  -27.0760 N   0  0  0  0  0  0  0  0  0  0  0  0
   -0.9930   25.0150  -26.5060 C   0  0  0  0  0  0  0  0  0  0  0  0
   -1.0570   25.1430  -24.9580 C   0  0  0  0  0  0  0  0  0  0  0  0
   -1.3820   26.5710  -24.5030 C   0  0  0  0  0  0  0  0  0  0  0  0
   -0.3340   27.5850  -25.0050 C   0  0  0  0  0  0  0  0  0  0  0  0
    0.3170   27.1860  -26.3460 C   0  0  0  0  0  0  0  0  0  0  0  0
   -0.6330   26.3480  -27.2060 C   0  0  0  0  0  0  0  0  0  0  0  0
   -2.3460   23.8270  -28.3440 C   0  0  0  0  0  0  0  0  0  0  0  0
   -1.3460   23.2650  -28.9550 N   0  0  0  0  0  0  0  0  0  0  0  0
   -6.0090   22.7970  -32.1070 C   0  0  0  0  0  0  0  0  0  0  0  0
   -7.2240   22.1620  -32.3780 C   0  0  0  0  0  0  0  0  0  0  0  0
   -5.2280   18.7320  -33.5360 C   0  0  0  0  0  0  0  0  0  0  0  0
   -5.7300   17.8380  -34.9670 Cl  0  0  0  0  0  0  0  0  0  0  0  0
   -3.9610   19.3290  -33.5330 C   0  0  0  0  0  0  0  0  0  0  0  0
   -0.2310   19.0960  -31.9062 H   0  0  0  0  0  0  0  0  0  0  0  0
   -1.1362   18.7273  -33.4133 H   0  0  0  0  0  0  0  0  0  0  0  0
    0.1250   20.0063  -33.4133 H   0  0  0  0  0  0  0  0  0  0  0  0
   -3.9322   20.5764  -30.3505 H   0  0  0  0  0  0  0  0  0  0  0  0
   -6.1949   19.5304  -30.3468 H   0  0  0  0  0  0  0  0  0  0  0  0
   -8.6789   20.2784  -33.4359 H   0  0  0  0  0  0  0  0  0  0  0  0
  -10.2390   19.5972  -32.8406 H   0  0  0  0  0  0  0  0  0  0  0  0
  -10.1275   21.9022  -32.1311 H   0  0  0  0  0  0  0  0  0  0  0  0
   -9.8497   20.8404  -30.6800 H   0  0  0  0  0  0  0  0  0  0  0  0
   -8.5180   22.0951  -29.2093 H   0  0  0  0  0  0  0  0  0  0  0  0
   -6.3891   23.3009  -28.7481 H   0  0  0  0  0  0  0  0  0  0  0  0
   -5.2728   24.9412  -28.0918 H   0  0  0  0  0  0  0  0  0  0  0  0
   -5.0956   23.3877  -27.2601 H   0  0  0  0  0  0  0  0  0  0  0  0
   -3.6808   25.9827  -26.7620 H   0  0  0  0  0  0  0  0  0  0  0  0
   -3.8332   24.5973  -25.6703 H   0  0  0  0  0  0  0  0  0  0  0  0
   -0.1790   24.3014  -26.7017 H   0  0  0  0  0  0  0  0  0  0  0  0
   -1.8365   24.4655  -24.5793 H   0  0  0  0  0  0  0  0  0  0  0  0
   -0.0663   24.8806  -24.5583 H   0  0  0  0  0  0  0  0  0  0  0  0
   -2.3690   26.8544  -24.8975 H   0  0  0  0  0  0  0  0  0  0  0  0
   -1.3755   26.5890  -23.4032 H   0  0  0  0  0  0  0  0  0  0  0  0
   -0.8269   28.5599  -25.1339 H   0  0  0  0  0  0  0  0  0  0  0  0
    0.4687   27.6189  -24.2536 H   0  0  0  0  0  0  0  0  0  0  0  0
    0.5866   28.0987  -26.8976 H   0  0  0  0  0  0  0  0  0  0  0  0
    1.2093   26.5805  -26.1288 H   0  0  0  0  0  0  0  0  0  0  0  0
   -1.5553   26.9204  -27.3838 H   0  0  0  0  0  0  0  0  0  0  0  0
   -0.1303   26.1175  -28.1569 H   0  0  0  0  0  0  0  0  0  0  0  0
   -1.4880   22.7060  -29.8220 H   0  0  0  0  0  0  0  0  0  0  0  0
   -0.3740   23.3140  -28.5860 H   0  0  0  0  0  0  0  0  0  0  0  0
   -5.2958   22.9852  -32.9230 H   0  0  0  0  0  0  0  0  0  0  0  0
   -7.4632   21.8560  -33.4071 H   0  0  0  0  0  0  0  0  0  0  0  0
   -3.3286   19.2723  -34.4313 H   0  0  0  0  0  0  0  0  0  0  0  0
  1  2  1  0
  2  3  2  0
  2  4  2  0
  2  5  1  0
  5  6  2  0
  6  7  1  0
  7  8  2  0
  8  9  1  0
  9 10  2  0
  9 11  1  0
 11 12  1  0
 12 13  1  0
 13 14  1  0
 14 15  2  0
 15 16  1  0
 16 17  2  0
 17 18  1  0
 18 19  2  0
 18 20  2  0
 18 21  1  0
 21 22  1  0
 22 23  1  0
 23 24  1  0
 24 25  1  0
 25 26  1  0
 26 27  1  0
 27 28  1  0
 28 29  1  0
 29 30  1  0
 24 31  1  0
 31 32  2  0
 17 33  1  0
 33 34  2  0
  8 35  1  0
 35 36  1  0
 35 37  2  0
 37  5  1  0
 34 14  1  0
 31 21  1  0
 30 25  1  0
  1 38  1  0
  1 39  1  0
  1 40  1  0
  6 41  1  0
  7 42  1  0
 12 43  1  0
 12 44  1  0
 13 45  1  0
 13 46  1  0
 15 47  1  0
 16 48  1  0
 22 49  1  0
 22 50  1  0
 23 51  1  0
 23 52  1  0
 25 53  1  0
 26 54  1  0
 26 55  1  0
 27 56  1  0
 27 57  1  0
 28 58  1  0
 28 59  1  0
 29 60  1  0
 29 61  1  0
 30 62  1  0
 30 63  1  0
 32 64  1  0
 32 65  1  0
 33 66  1  0
 34 67  1  0
 37 68  1  0
M  CHG  2  11  -1  32   1
M  END
>  <UniqueID>  (9) 
9

>  <SMILES>  (9) 
CS(=O)(=O)c1ccc(C(=O)[N-]CCc2ccc(S(=O)(=O)N3CCN(C4CCCCC4)C3=[NH2+])cc2)c(Cl)c1

>  <Energy>  (9) 
89.45500656601175

>  <Genealogy>  (9) 
CS(=O)(=O)c1ccc(C(=O)[N-]CCc2ccc(S(=O)(=O)N3CCN(C4CCCCC4)C3=[NH2+])cc2)c(Cl)c1 (protonated)
CS(=O)(=O)c1ccc(C(=O)[N-]CCc2ccc(S(=O)(=O)N3CCN(C4CCCCC4)C3=[NH2+])cc2)c(Cl)c1 (3D coordinates assigned)
CS(=O)(=O)c1ccc(C(=O)[N-]CCc2ccc(S(=O)(=O)N3CCN(C4CCCCC4)C3=[NH2+])cc2)c(Cl)c1 (nonaromatic ring conformer: 89.45500656601175 kcal/mol)

>  <smiles>  (9) 
CS(=O)(=O)c1ccc(C(=O)NCCc2ccc(S(=O)(=O)N3CCN(C4CCCCC4)C3=N)cc2)c(Cl)c1

>  <score_type>  (9) 
oracle

>  <origin>  (9) 
adgpu

>  <m_score__min__energy>  (9) 
-13.35

>  <m_primary>  (9) 
energy

$$$$
9:0
     RDKit          3D

 59 62  0  0  0  0  0  0  0  0999 V2000
   -3.9920   14.2750  -33.1940 C   0  0  0  0  0  0  0  0  0  0  0  0
   -4.6640   15.4020  -33.8610 N   0  0  0  0  0  0  0  0  0  0  0  0
   -5.8740   15.8310  -33.1140 C   0  0  0  0  0  0  0  0  0  0  0  0
   -5.6180   17.0740  -32.2490 C   0  0  0  0  0  0  0  0  0  0  0  0
   -5.1420   18.2290  -33.0450 N   0  0  0  0  0  0  0  0  0  0  0  0
   -6.4530   19.3270  -33.4170 S   0  0  0  0  0  0  0  0  0  0  0  0
   -7.7690   18.6850  -33.0700 O   0  0  0  0  0  0  0  0  0  0  0  0
   -6.4720   19.6130  -34.8960 O   0  0  0  0  0  0  0  0  0  0  0  0
   -6.2070   20.8560  -32.5300 C   0  0  0  0  0  0  0  0  0  0  0  0
   -4.9100   21.4210  -32.4630 C   0  0  0  0  0  0  0  0  0  0  0  0
   -3.5000   20.6450  -33.1820 Cl  0  0  0  0  0  0  0  0  0  0  0  0
   -4.6950   22.6150  -31.7710 C   0  0  0  0  0  0  0  0  0  0  0  0
   -5.7400   23.2490  -31.0970 C   0  0  0  0  0  0  0  0  0  0  0  0
   -5.4300   24.6980  -30.1450 S   0  0  0  0  0  0  0  0  0  0  0  0
   -6.7200   25.4340  -29.9250 O   0  0  0  0  0  0  0  0  0  0  0  0
   -4.4870   25.6150  -30.8680 O   0  0  0  0  0  0  0  0  0  0  0  0
   -4.7840   24.2390  -28.6010 N   0  0  0  0  0  0  0  0  0  0  0  0
   -3.6100   23.4380  -28.4090 C   0  0  0  0  0  0  0  0  0  0  0  0
   -3.6800   22.1470  -27.8580 C   0  0  0  0  0  0  0  0  0  0  0  0
   -2.5160   21.3910  -27.6560 C   0  0  0  0  0  0  0  0  0  0  0  0
   -1.2670   21.9140  -28.0480 C   0  0  0  0  0  0  0  0  0  0  0  0
   -1.1990   23.1980  -28.6130 C   0  0  0  0  0  0  0  0  0  0  0  0
   -2.3640   23.9540  -28.8000 C   0  0  0  0  0  0  0  0  0  0  0  0
   -2.2880   25.2280  -29.3590 O   0  0  0  0  0  0  0  0  0  0  0  0
    0.0110   21.1490  -27.7870 C   0  0  0  0  0  0  0  0  0  0  0  0
   -0.2070   19.6970  -27.6560 N   0  0  0  0  0  0  0  0  0  0  0  0
   -0.4180   19.0550  -28.9630 C   0  0  0  0  0  0  0  0  0  0  0  0
   -1.2880   19.3990  -26.6950 C   0  0  0  0  0  0  0  0  0  0  0  0
   -2.6420   19.9910  -27.1210 C   0  0  0  0  0  0  0  0  0  0  0  0
   -7.0180   22.6860  -31.1280 C   0  0  0  0  0  0  0  0  0  0  0  0
   -7.2650   21.5080  -31.8430 C   0  0  0  0  0  0  0  0  0  0  0  0
   -8.9120   20.8900  -31.7940 Cl  0  0  0  0  0  0  0  0  0  0  0  0
   -4.4310   17.8440  -34.2840 C   0  0  0  0  0  0  0  0  0  0  0  0
   -3.7030   16.5020  -34.1170 C   0  0  0  0  0  0  0  0  0  0  0  0
   -4.0653   14.3979  -32.1033 H   0  0  0  0  0  0  0  0  0  0  0  0
   -4.4757   13.3325  -33.4901 H   0  0  0  0  0  0  0  0  0  0  0  0
   -2.9328   14.2524  -33.4901 H   0  0  0  0  0  0  0  0  0  0  0  0
   -6.6716   16.0610  -33.8357 H   0  0  0  0  0  0  0  0  0  0  0  0
   -6.1627   15.0089  -32.4426 H   0  0  0  0  0  0  0  0  0  0  0  0
   -6.5558   17.3538  -31.7468 H   0  0  0  0  0  0  0  0  0  0  0  0
   -4.8313   16.8206  -31.5231 H   0  0  0  0  0  0  0  0  0  0  0  0
   -3.6897   23.0613  -31.7570 H   0  0  0  0  0  0  0  0  0  0  0  0
   -4.6578   21.7251  -27.5823 H   0  0  0  0  0  0  0  0  0  0  0  0
   -0.2248   23.6130  -28.9107 H   0  0  0  0  0  0  0  0  0  0  0  0
   -3.1100   25.6990  -29.7340 H   0  0  0  0  0  0  0  0  0  0  0  0
    0.7033   21.3261  -28.6233 H   0  0  0  0  0  0  0  0  0  0  0  0
    0.4224   21.5088  -26.8324 H   0  0  0  0  0  0  0  0  0  0  0  0
   -0.7582   18.0198  -28.8124 H   0  0  0  0  0  0  0  0  0  0  0  0
   -1.1800   19.6130  -29.5269 H   0  0  0  0  0  0  0  0  0  0  0  0
    0.5265   19.0522  -29.5269 H   0  0  0  0  0  0  0  0  0  0  0  0
   -1.3924   18.3072  -26.6105 H   0  0  0  0  0  0  0  0  0  0  0  0
   -1.0131   19.8575  -25.7336 H   0  0  0  0  0  0  0  0  0  0  0  0
   -3.0757   19.3518  -27.9042 H   0  0  0  0  0  0  0  0  0  0  0  0
   -3.2848   20.0307  -26.2292 H   0  0  0  0  0  0  0  0  0  0  0  0
   -7.8402   23.1741  -30.5841 H   0  0  0  0  0  0  0  0  0  0  0  0
   -5.1603   17.7563  -35.1028 H   0  0  0  0  0  0  0  0  0  0  0  0
   -3.6831   18.6185  -34.5094 H   0  0  0  0  0  0  0  0  0  0  0  0
   -3.1408   16.2813  -35.0364 H   0  0  0  0  0  0  0  0  0  0  0  0
   -3.0220   16.5785  -33.2566 H   0  0  0  0  0  0  0  0  0  0  0  0
  1  2  1  0
  2  3  1  0
  3  4  1  0
  4  5  1  0
  5  6  1  0
  6  7  2  0
  6  8  2  0
  6  9  1  0
  9 10  2  0
 10 11  1  0
 10 12  1  0
 12 13  2  0
 13 14  1  0
 14 15  2  0
 14 16  2  0
 14 17  1  0
 17 18  1  0
 18 19  2  0
 19 20  1  0
 20 21  2  0
 21 22  1  0
 22 23  2  0
 23 24  1  0
 21 25  1  0
 25 26  1  0
 26 27  1  0
 26 28  1  0
 28 29  1  0
 13 30  1  0
 30 31  2  0
 31 32  1  0
  5 33  1  0
 33 34  1  0
 34  2  1  0
 31  9  1  0
 23 18  1  0
 29 20  1  0
  1 35  1  0
  1 36  1  0
  1 37  1  0
  3 38  1  0
  3 39  1  0
  4 40  1  0
  4 41  1  0
 12 42  1  0
 19 43  1  0
 22 44  1  0
 24 45  1  0
 25 46  1  0
 25 47  1  0
 27 48  1  0
 27 49  1  0
 27 50  1  0
 28 51  1  0
 28 52  1  0
 29 53  1  0
 29 54  1  0
 30 55  1  0
 33 56  1  0
 33 57  1  0
 34 58  1  0
 34 59  1  0
M  CHG  1  17  -1
M  END
>  <UniqueID>  (10) 
10

>  <SMILES>  (10) 
CN1CCN(S(=O)(=O)c2c(Cl)cc(S(=O)(=O)[N-]c3cc4c(cc3O)CN(C)CC4)cc2Cl)CC1

>  <Energy>  (10) 
87.34383258385157

>  <Genealogy>  (10) 
CN1CCN(S(=O)(=O)c2c(Cl)cc(S(=O)(=O)[N-]c3cc4c(cc3O)CN(C)CC4)cc2Cl)CC1 (protonated)
CN1CCN(S(=O)(=O)c2c(Cl)cc(S(=O)(=O)[N-]c3cc4c(cc3O)CN(C)CC4)cc2Cl)CC1 (3D coordinates assigned)
CN1CCN(S(=O)(=O)c2c(Cl)cc(S(=O)(=O)[N-]c3cc4c(cc3O)CN(C)CC4)cc2Cl)CC1 (nonaromatic ring conformer: 87.34383258385157 kcal/mol)

>  <smiles>  (10) 
CN1CCN(S(=O)(=O)c2c(Cl)cc(S(=O)(=O)Nc3cc4c(cc3O)CN(C)CC4)cc2Cl)CC1

>  <score_type>  (10) 
oracle

>  <origin>  (10) 
adgpu

>  <m_score__min__energy>  (10) 
-13.789999999999999

>  <m_primary>  (10) 
energy

$$$$
10:0
     RDKit          3D

 41 42  0  0  0  0  0  0  0  0999 V2000
   -2.7300   20.5310  -33.6360 C   0  0  0  0  0  0  0  0  0  0  0  0
   -4.1460   20.3930  -33.1430 C   0  0  0  0  0  0  0  0  0  0  0  0
   -5.0340   19.5570  -33.8300 C   0  0  0  0  0  0  0  0  0  0  0  0
   -6.3250   19.4500  -33.4270 N   0  0  0  0  0  0  0  0  0  0  0  0
   -6.7940   20.1490  -32.3590 C   0  0  0  0  0  0  0  0  0  0  0  0
   -8.2300   19.9730  -31.8940 C   0  0  0  0  0  0  0  0  0  0  0  0
   -8.6110   21.0840  -30.8900 C   0  0  0  0  0  0  0  0  0  0  0  0
   -9.2020   20.0430  -33.0910 C   0  0  0  0  0  0  0  0  0  0  0  0
   -8.3630   18.6010  -31.2100 C   0  0  0  0  0  0  0  0  0  0  0  0
   -5.9350   20.9300  -31.6490 N   0  0  0  0  0  0  0  0  0  0  0  0
   -4.6280   21.0660  -31.9980 C   0  0  0  0  0  0  0  0  0  0  0  0
   -3.7730   21.9330  -31.1590 C   0  0  0  0  0  0  0  0  0  0  0  0
   -4.2530   23.1820  -30.7350 C   0  0  0  0  0  0  0  0  0  0  0  0
   -3.4650   24.0020  -29.9220 C   0  0  0  0  0  0  0  0  0  0  0  0
   -2.1950   23.5760  -29.5090 C   0  0  0  0  0  0  0  0  0  0  0  0
   -1.1960   24.6160  -28.5010 S   0  0  0  0  0  0  0  0  0  0  0  0
   -1.7270   24.4870  -26.8100 C   0  0  0  0  0  0  0  0  0  0  0  0
    0.2440   24.2000  -28.6090 O   0  0  0  0  0  0  0  0  0  0  0  0
   -1.3200   26.0420  -28.9600 O   0  0  0  0  0  0  0  0  0  0  0  0
   -1.7190   22.3240  -29.9190 C   0  0  0  0  0  0  0  0  0  0  0  0
   -2.5060   21.5020  -30.7310 C   0  0  0  0  0  0  0  0  0  0  0  0
   -2.0472   20.5975  -32.7761 H   0  0  0  0  0  0  0  0  0  0  0  0
   -2.4670   19.6542  -34.2460 H   0  0  0  0  0  0  0  0  0  0  0  0
   -2.6413   21.4420  -34.2460 H   0  0  0  0  0  0  0  0  0  0  0  0
   -4.6833   18.9839  -34.7010 H   0  0  0  0  0  0  0  0  0  0  0  0
   -8.4828   20.7102  -29.8634 H   0  0  0  0  0  0  0  0  0  0  0  0
   -7.9611   21.9577  -31.0459 H   0  0  0  0  0  0  0  0  0  0  0  0
   -9.6603   21.3750  -31.0459 H   0  0  0  0  0  0  0  0  0  0  0  0
  -10.2351   20.1174  -32.7206 H   0  0  0  0  0  0  0  0  0  0  0  0
   -8.9673   20.9266  -33.7027 H   0  0  0  0  0  0  0  0  0  0  0  0
   -9.0963   19.1349  -33.7027 H   0  0  0  0  0  0  0  0  0  0  0  0
   -8.3502   18.7329  -30.1180 H   0  0  0  0  0  0  0  0  0  0  0  0
   -9.3109   18.1313  -31.5115 H   0  0  0  0  0  0  0  0  0  0  0  0
   -7.5230   17.9580  -31.5115 H   0  0  0  0  0  0  0  0  0  0  0  0
   -5.2541   23.5172  -31.0439 H   0  0  0  0  0  0  0  0  0  0  0  0
   -3.8430   24.9852  -29.6052 H   0  0  0  0  0  0  0  0  0  0  0  0
   -0.8776   24.6933  -26.1422 H   0  0  0  0  0  0  0  0  0  0  0  0
   -2.5281   25.2167  -26.6205 H   0  0  0  0  0  0  0  0  0  0  0  0
   -2.1040   23.4711  -26.6205 H   0  0  0  0  0  0  0  0  0  0  0  0
   -0.7217   21.9862  -29.6007 H   0  0  0  0  0  0  0  0  0  0  0  0
   -2.1318   20.5136  -31.0361 H   0  0  0  0  0  0  0  0  0  0  0  0
  1  2  1  0
  2  3  2  0
  3  4  1  0
  4  5  2  0
  5  6  1  0
  6  7  1  0
  6  8  1  0
  6  9  1  0
  5 10  1  0
 10 11  2  0
 11 12  1  0
 12 13  2  0
 13 14  1  0
 14 15  2  0
 15 16  1  0
 16 17  1  0
 16 18  2  0
 16 19  2  0
 15 20  1  0
 20 21  2  0
 11  2  1  0
 21 12  1  0
  1 22  1  0
  1 23  1  0
  1 24  1  0
  3 25  1  0
  7 26  1  0
  7 27  1  0
  7 28  1  0
  8 29  1  0
  8 30  1  0
  8 31  1  0
  9 32  1  0
  9 33  1  0
  9 34  1  0
 13 35  1  0
 14 36  1  0
 17 37  1  0
 17 38  1  0
 17 39  1  0
 20 40  1  0
 21 41  1  0
M  END
>  <UniqueID>  (11) 
11

>  <SMILES>  (11) 
Cc1cnc(C(C)(C)C)nc1-c1ccc(S(C)(=O)=O)cc1

>  <Energy>  (11) 
41.72011247561246

>  <Genealogy>  (11) 
Cc1cnc(C(C)(C)C)nc1-c1ccc(S(C)(=O)=O)cc1 (3D coordinates assigned)
Cc1cnc(C(C)(C)C)nc1-c1ccc(S(C)(=O)=O)cc1 (optimized conformer: 41.72011247561246 kcal/mol)

>  <smiles>  (11) 
Cc1cnc(C(C)(C)C)nc1-c1ccc(S(C)(=O)=O)cc1

>  <score_type>  (11) 
oracle

>  <origin>  (11) 
adgpu

>  <m_score__min__energy>  (11) 
-8.0700000000000003

>  <m_primary>  (11) 
energy

$$$$
11:0
     RDKit          3D

 57 59  0  0  0  0  0  0  0  0999 V2000
   -1.1860   22.6790  -30.3200 C   0  0  0  0  0  0  0  0  0  0  0  0
   -0.7800   23.2720  -28.9970 C   0  0  0  0  0  0  0  0  0  0  0  0
    0.1220   22.5580  -28.1940 C   0  0  0  0  0  0  0  0  0  0  0  0
    0.6010   23.1070  -27.0080 C   0  0  0  0  0  0  0  0  0  0  0  0
    0.1850   24.3730  -26.6000 C   0  0  0  0  0  0  0  0  0  0  0  0
   -0.7490   25.1010  -27.3610 C   0  0  0  0  0  0  0  0  0  0  0  0
   -1.1880   26.4830  -26.8860 C   0  0  0  0  0  0  0  0  0  0  0  0
   -0.0770   27.5180  -27.1030 C   0  0  0  0  0  0  0  0  0  0  0  0
   -1.6330   26.4510  -25.4180 C   0  0  0  0  0  0  0  0  0  0  0  0
   -1.2650   24.5300  -28.5520 C   0  0  0  0  0  0  0  0  0  0  0  0
   -2.2080   25.2770  -29.3340 N   0  0  0  0  0  0  0  0  0  0  0  0
   -3.5800   24.9210  -29.5380 C   0  0  0  0  0  0  0  0  0  0  0  0
   -4.2910   24.5450  -28.5690 O   0  0  0  0  0  0  0  0  0  0  0  0
   -4.1650   25.0290  -30.8370 N   0  0  0  0  0  0  0  0  0  0  0  0
   -5.0890   24.0390  -31.3820 C   0  0  0  0  0  0  0  0  0  0  0  0
   -4.6730   22.6230  -30.9680 C   0  0  0  0  0  0  0  0  0  0  0  0
   -5.4950   21.6000  -31.7010 C   0  0  0  0  0  0  0  0  0  0  0  0
   -5.0430   20.4910  -32.4220 C   0  0  0  0  0  0  0  0  0  0  0  0
   -3.6020   20.1360  -32.6510 C   0  0  0  0  0  0  0  0  0  0  0  0
   -6.0980   19.7810  -32.9030 N   0  0  0  0  0  0  0  0  0  0  0  0
   -6.0280   18.3630  -33.9150 S   0  0  0  0  0  0  0  0  0  0  0  0
   -4.5290   17.4720  -33.5760 C   0  0  0  0  0  0  0  0  0  0  0  0
   -6.0620   18.7620  -35.3640 O   0  0  0  0  0  0  0  0  0  0  0  0
   -7.2140   17.4770  -33.6500 O   0  0  0  0  0  0  0  0  0  0  0  0
   -7.2090   20.3930  -32.4350 C   0  0  0  0  0  0  0  0  0  0  0  0
   -8.5440   19.9980  -32.5780 C   0  0  0  0  0  0  0  0  0  0  0  0
   -9.5380   20.7910  -31.9760 C   0  0  0  0  0  0  0  0  0  0  0  0
   -9.1870   21.9430  -31.2410 C   0  0  0  0  0  0  0  0  0  0  0  0
   -7.8380   22.3080  -31.0930 C   0  0  0  0  0  0  0  0  0  0  0  0
   -6.8730   21.5070  -31.7040 C   0  0  0  0  0  0  0  0  0  0  0  0
   -1.7997   21.7826  -30.1472 H   0  0  0  0  0  0  0  0  0  0  0  0
   -1.7686   23.4180  -30.8897 H   0  0  0  0  0  0  0  0  0  0  0  0
   -0.2864   22.4032  -30.8897 H   0  0  0  0  0  0  0  0  0  0  0  0
    0.4534   21.5560  -28.5042 H   0  0  0  0  0  0  0  0  0  0  0  0
    1.3115   22.5388  -26.3897 H   0  0  0  0  0  0  0  0  0  0  0  0
    0.5904   24.8075  -25.6744 H   0  0  0  0  0  0  0  0  0  0  0  0
   -2.0552   26.7854  -27.4914 H   0  0  0  0  0  0  0  0  0  0  0  0
    0.2959   27.8654  -26.1282 H   0  0  0  0  0  0  0  0  0  0  0  0
    0.7471   27.0583  -27.6682 H   0  0  0  0  0  0  0  0  0  0  0  0
   -0.4773   28.3726  -27.6682 H   0  0  0  0  0  0  0  0  0  0  0  0
   -0.7496   26.5145  -24.7656 H   0  0  0  0  0  0  0  0  0  0  0  0
   -2.2986   27.3036  -25.2180 H   0  0  0  0  0  0  0  0  0  0  0  0
   -2.1698   25.5119  -25.2180 H   0  0  0  0  0  0  0  0  0  0  0  0
   -6.1014   24.2431  -31.0032 H   0  0  0  0  0  0  0  0  0  0  0  0
   -5.0713   24.1058  -32.4798 H   0  0  0  0  0  0  0  0  0  0  0  0
   -3.6099   22.4730  -31.2075 H   0  0  0  0  0  0  0  0  0  0  0  0
   -4.8373   22.5046  -29.8868 H   0  0  0  0  0  0  0  0  0  0  0  0
   -3.0966   20.0115  -31.6820 H   0  0  0  0  0  0  0  0  0  0  0  0
   -3.5418   19.1962  -33.2194 H   0  0  0  0  0  0  0  0  0  0  0  0
   -3.1121   20.9403  -33.2194 H   0  0  0  0  0  0  0  0  0  0  0  0
   -4.3897   17.3892  -32.4880 H   0  0  0  0  0  0  0  0  0  0  0  0
   -4.5934   16.4655  -34.0150 H   0  0  0  0  0  0  0  0  0  0  0  0
   -3.6756   18.0096  -34.0150 H   0  0  0  0  0  0  0  0  0  0  0  0
   -8.8086   19.0933  -33.1450 H   0  0  0  0  0  0  0  0  0  0  0  0
  -10.5967   20.5108  -32.0791 H   0  0  0  0  0  0  0  0  0  0  0  0
   -9.9738   22.5590  -30.7811 H   0  0  0  0  0  0  0  0  0  0  0  0
   -7.5518   23.1979  -30.5132 H   0  0  0  0  0  0  0  0  0  0  0  0
  1  2  1  0
  2  3  2  0
  3  4  1  0
  4  5  2  0
  5  6  1  0
  6  7  1  0
  7  8  1  0
  7  9  1  0
  6 10  2  0
 10 11  1  0
 11 12  1  0
 12 13  2  0
 12 14  1  0
 14 15  1  0
 15 16  1  0
 16 17  1  0
 17 18  2  0
 18 19  1  0
 18 20  1  0
 20 21  1  0
 21 22  1  0
 21 23  2  0
 21 24  2  0
 20 25  1  0
 25 26  2  0
 26 27  1  0
 27 28  2  0
 28 29  1  0
 29 30  2  0
 10  2  1  0
 30 17  1  0
 30 25  1  0
  1 31  1  0
  1 32  1  0
  1 33  1  0
  3 34  1  0
  4 35  1  0
  5 36  1  0
  7 37  1  0
  8 38  1  0
  8 39  1  0
  8 40  1  0
  9 41  1  0
  9 42  1  0
  9 43  1  0
 15 44  1  0
 15 45  1  0
 16 46  1  0
 16 47  1  0
 19 48  1  0
 19 49  1  0
 19 50  1  0
 22 51  1  0
 22 52  1  0
 22 53  1  0
 26 54  1  0
 27 55  1  0
 28 56  1  0
 29 57  1  0
M  CHG  2  11  -1  14  -1
M  END
>  <UniqueID>  (12) 
12

>  <SMILES>  (12) 
Cc1cccc(C(C)C)c1[N-]C(=O)[N-]CCc1c(C)n(S(C)(=O)=O)c2ccccc12

>  <Energy>  (12) 
88.21503726585391

>  <Genealogy>  (12) 
Cc1cccc(C(C)C)c1[N-]C(=O)[N-]CCc1c(C)n(S(C)(=O)=O)c2ccccc12 (protonated)
Cc1cccc(C(C)C)c1[N-]C(=O)[N-]CCc1c(C)n(S(C)(=O)=O)c2ccccc12 (3D coordinates assigned)
Cc1cccc(C(C)C)c1[N-]C(=O)[N-]CCc1c(C)n(S(C)(=O)=O)c2ccccc12 (optimized conformer: 88.21503726585391 kcal/mol)

>  <smiles>  (12) 
Cc1cccc(C(C)C)c1NC(=O)NCCc1c(C)n(S(C)(=O)=O)c2ccccc12

>  <score_type>  (12) 
oracle

>  <origin>  (12) 
adgpu

>  <m_score__min__energy>  (12) 
-12.9

>  <m_primary>  (12) 
energy

$$$$
12:0
     RDKit          3D

 45 48  0  0  0  0  0  0  0  0999 V2000
   -0.0540   19.4570  -29.3810 C   0  0  0  0  0  0  0  0  0  0  0  0
    0.1360   20.0120  -28.0300 N   0  0  0  0  0  0  0  0  0  0  0  0
   -0.9490   19.6340  -27.1020 C   0  0  0  0  0  0  0  0  0  0  0  0
   -2.3050   20.2410  -27.4950 C   0  0  0  0  0  0  0  0  0  0  0  0
   -2.1930   21.6740  -27.9460 C   0  0  0  0  0  0  0  0  0  0  0  0
   -3.3640   22.4290  -28.1180 C   0  0  0  0  0  0  0  0  0  0  0  0
   -3.3030   23.7540  -28.5880 C   0  0  0  0  0  0  0  0  0  0  0  0
   -4.4830   24.5470  -28.7790 N   0  0  0  0  0  0  0  0  0  0  0  0
   -5.2180   24.9090  -30.3070 S   0  0  0  0  0  0  0  0  0  0  0  0
   -6.4130   25.7910  -30.0810 O   0  0  0  0  0  0  0  0  0  0  0  0
   -4.2350   25.6530  -31.1710 O   0  0  0  0  0  0  0  0  0  0  0  0
   -5.7460   23.4230  -31.0890 C   0  0  0  0  0  0  0  0  0  0  0  0
   -4.8270   22.6170  -31.8000 C   0  0  0  0  0  0  0  0  0  0  0  0
   -5.2470   21.4320  -32.4260 C   0  0  0  0  0  0  0  0  0  0  0  0
   -6.5930   21.0760  -32.3390 C   0  0  0  0  0  0  0  0  0  0  0  0
   -7.4910   21.8660  -31.6390 C   0  0  0  0  0  0  0  0  0  0  0  0
   -7.0970   23.0390  -31.0010 C   0  0  0  0  0  0  0  0  0  0  0  0
   -8.7900   21.2170  -31.6970 C   0  0  0  0  0  0  0  0  0  0  0  0
   -9.8670   21.6160  -31.1790 O   0  0  0  0  0  0  0  0  0  0  0  0
   -8.5840   20.0010  -32.4700 C   0  0  0  0  0  0  0  0  0  0  0  0
   -9.4610   19.1340  -32.7180 O   0  0  0  0  0  0  0  0  0  0  0  0
   -7.2230   19.9190  -32.9050 N   0  0  0  0  0  0  0  0  0  0  0  0
   -6.5500   18.7130  -33.3730 C   0  0  0  0  0  0  0  0  0  0  0  0
   -2.0550   24.3180  -28.8840 C   0  0  0  0  0  0  0  0  0  0  0  0
   -1.9710   25.6300  -29.3380 O   0  0  0  0  0  0  0  0  0  0  0  0
   -0.8860   23.5680  -28.7240 C   0  0  0  0  0  0  0  0  0  0  0  0
   -0.9460   22.2400  -28.2780 C   0  0  0  0  0  0  0  0  0  0  0  0
    0.3370   21.4730  -28.0560 C   0  0  0  0  0  0  0  0  0  0  0  0
   -0.4094   18.4188  -29.3043 H   0  0  0  0  0  0  0  0  0  0  0  0
   -0.7970   20.0597  -29.9239 H   0  0  0  0  0  0  0  0  0  0  0  0
    0.9025   19.4779  -29.9239 H   0  0  0  0  0  0  0  0  0  0  0  0
   -1.0422   18.5380  -27.0976 H   0  0  0  0  0  0  0  0  0  0  0  0
   -0.6863   20.0243  -26.1077 H   0  0  0  0  0  0  0  0  0  0  0  0
   -2.7319   19.6462  -28.3160 H   0  0  0  0  0  0  0  0  0  0  0  0
   -2.9475   20.2234  -26.6024 H   0  0  0  0  0  0  0  0  0  0  0  0
   -4.3402   21.9798  -27.8827 H   0  0  0  0  0  0  0  0  0  0  0  0
   -3.7719   22.9214  -31.8635 H   0  0  0  0  0  0  0  0  0  0  0  0
   -4.5315   20.7996  -32.9720 H   0  0  0  0  0  0  0  0  0  0  0  0
   -7.8223   23.6494  -30.4430 H   0  0  0  0  0  0  0  0  0  0  0  0
   -6.2186   18.1191  -32.5085 H   0  0  0  0  0  0  0  0  0  0  0  0
   -7.2462   18.1174  -33.9818 H   0  0  0  0  0  0  0  0  0  0  0  0
   -5.6776   18.9927  -33.9818 H   0  0  0  0  0  0  0  0  0  0  0  0
    0.0893   24.0237  -28.9500 H   0  0  0  0  0  0  0  0  0  0  0  0
    1.0365   21.7165  -28.8692 H   0  0  0  0  0  0  0  0  0  0  0  0
    0.7323   21.7690  -27.0731 H   0  0  0  0  0  0  0  0  0  0  0  0
  1  2  1  0
  2  3  1  0
  3  4  1  0
  4  5  1  0
  5  6  2  0
  6  7  1  0
  7  8  1  0
  8  9  1  0
  9 10  2  0
  9 11  2  0
  9 12  1  0
 12 13  2  0
 13 14  1  0
 14 15  2  0
 15 16  1  0
 16 17  2  0
 16 18  1  0
 18 19  2  0
 18 20  1  0
 20 21  2  0
 20 22  1  0
 22 23  1  0
  7 24  2  0
 24 25  1  0
 24 26  1  0
 26 27  2  0
 27 28  1  0
 28  2  1  0
 27  5  1  0
 17 12  1  0
 22 15  1  0
  1 29  1  0
  1 30  1  0
  1 31  1  0
  3 32  1  0
  3 33  1  0
  4 34  1  0
  4 35  1  0
  6 36  1  0
 13 37  1  0
 14 38  1  0
 17 39  1  0
 23 40  1  0
 23 41  1  0
 23 42  1  0
 26 43  1  0
 28 44  1  0
 28 45  1  0
M  CHG  2   8  -1  25  -1
M  END
>  <UniqueID>  (13) 
13

>  <SMILES>  (13) 
CN1CCc2cc([N-]S(=O)(=O)c3ccc4c(c3)C(=O)C(=O)N4C)c([O-])cc2C1

>  <Energy>  (13) 
88.18626997250492

>  <Genealogy>  (13) 
CN1CCc2cc([N-]S(=O)(=O)c3ccc4c(c3)C(=O)C(=O)N4C)c([O-])cc2C1 (protonated)
CN1CCc2cc([N-]S(=O)(=O)c3ccc4c(c3)C(=O)C(=O)N4C)c([O-])cc2C1 (3D coordinates assigned)
CN1CCc2cc([N-]S(=O)(=O)c3ccc4c(c3)C(=O)C(=O)N4C)c([O-])cc2C1 (nonaromatic ring conformer: 88.18626997250492 kcal/mol)

>  <smiles>  (13) 
CN1CCc2cc(NS(=O)(=O)c3ccc4c(c3)C(=O)C(=O)N4C)c(O)cc2C1

>  <score_type>  (13) 
oracle

>  <origin>  (13) 
adgpu

>  <m_score__min__energy>  (13) 
-15.140000000000001

>  <m_primary>  (13) 
energy

$$$$
13:0
     RDKit          3D

 72 76  0  0  0  0  0  0  0  0999 V2000
   -6.8350   19.7140  -33.7100 C   0  0  0  0  0  0  0  0  0  0  0  0
   -5.8640   18.5660  -33.7320 C   0  0  0  0  0  0  0  0  0  0  0  0
   -6.1250   17.4580  -34.5540 C   0  0  0  0  0  0  0  0  0  0  0  0
   -5.2270   16.3900  -34.6180 C   0  0  0  0  0  0  0  0  0  0  0  0
   -4.0500   16.4130  -33.8580 C   0  0  0  0  0  0  0  0  0  0  0  0
   -2.8990   15.0820  -33.9360 S   0  0  0  0  0  0  0  0  0  0  0  0
   -3.2700   14.2000  -35.0960 O   0  0  0  0  0  0  0  0  0  0  0  0
   -1.5120   15.6180  -34.1650 O   0  0  0  0  0  0  0  0  0  0  0  0
   -2.9680   14.1840  -32.4350 N   0  0  0  0  0  0  0  0  0  0  0  0
   -2.2440   12.8900  -32.5270 C   0  0  0  0  0  0  0  0  0  0  0  0
   -3.1460   11.6520  -32.3640 C   0  0  0  0  0  0  0  0  0  0  0  0
   -4.4460   11.8220  -33.1480 C   0  0  0  0  0  0  0  0  0  0  0  0
   -5.2110   13.0920  -32.7300 C   0  0  0  0  0  0  0  0  0  0  0  0
   -4.3470   14.0790  -31.9210 C   0  0  0  0  0  0  0  0  0  0  0  0
   -3.7850   17.5100  -33.0310 C   0  0  0  0  0  0  0  0  0  0  0  0
   -4.6930   18.5730  -32.9380 C   0  0  0  0  0  0  0  0  0  0  0  0
   -4.3910   19.6640  -32.0580 N   0  0  0  0  0  0  0  0  0  0  0  0
   -3.0850   20.2580  -32.0000 C   0  0  0  0  0  0  0  0  0  0  0  0
   -2.2100   19.9270  -32.8480 O   0  0  0  0  0  0  0  0  0  0  0  0
   -2.7690   21.3010  -30.9950 C   0  0  0  0  0  0  0  0  0  0  0  0
   -2.0040   20.9970  -29.8580 C   0  0  0  0  0  0  0  0  0  0  0  0
   -1.7310   21.9780  -28.9030 C   0  0  0  0  0  0  0  0  0  0  0  0
   -2.2200   23.2830  -29.0590 C   0  0  0  0  0  0  0  0  0  0  0  0
   -1.8740   24.2960  -28.1010 N   0  0  0  0  0  0  0  0  0  0  0  0
   -0.8360   25.2960  -28.2950 C   0  0  0  0  0  0  0  0  0  0  0  0
   -0.9610   26.2790  -27.1140 C   0  0  0  0  0  0  0  0  0  0  0  0
   -2.2640   25.9390  -26.3760 C   0  0  0  0  0  0  0  0  0  0  0  0
   -2.7000   24.6840  -27.0180 C   0  0  0  0  0  0  0  0  0  0  0  0
   -3.7300   24.0450  -26.6720 O   0  0  0  0  0  0  0  0  0  0  0  0
   -2.9960   23.5940  -30.1930 C   0  0  0  0  0  0  0  0  0  0  0  0
   -3.5890   24.8820  -30.3590 N   0  0  0  0  0  0  0  0  0  0  0  0
   -5.2440   25.1900  -29.9450 S   0  0  0  0  0  0  0  0  0  0  0  0
   -5.3870   25.1880  -28.4500 O   0  0  0  0  0  0  0  0  0  0  0  0
   -5.6410   26.5450  -30.4650 O   0  0  0  0  0  0  0  0  0  0  0  0
   -6.2850   23.9520  -30.6370 C   0  0  0  0  0  0  0  0  0  0  0  0
   -6.9790   23.0580  -29.8050 C   0  0  0  0  0  0  0  0  0  0  0  0
   -7.7910   22.0650  -30.3640 C   0  0  0  0  0  0  0  0  0  0  0  0
   -7.9140   21.9610  -31.7520 C   0  0  0  0  0  0  0  0  0  0  0  0
   -7.2180   22.8450  -32.5840 C   0  0  0  0  0  0  0  0  0  0  0  0
   -6.4040   23.8360  -32.0290 C   0  0  0  0  0  0  0  0  0  0  0  0
   -3.2420   22.6130  -31.1630 C   0  0  0  0  0  0  0  0  0  0  0  0
   -7.0620   19.9823  -32.6677 H   0  0  0  0  0  0  0  0  0  0  0  0
   -6.3909   20.5797  -34.2231 H   0  0  0  0  0  0  0  0  0  0  0  0
   -7.7624   19.4197  -34.2231 H   0  0  0  0  0  0  0  0  0  0  0  0
   -7.0465   17.4307  -35.1540 H   0  0  0  0  0  0  0  0  0  0  0  0
   -5.4444   15.5286  -35.2667 H   0  0  0  0  0  0  0  0  0  0  0  0
   -1.7574   12.8356  -33.5120 H   0  0  0  0  0  0  0  0  0  0  0  0
   -1.5238   12.8695  -31.6958 H   0  0  0  0  0  0  0  0  0  0  0  0
   -2.6127   10.7654  -32.7375 H   0  0  0  0  0  0  0  0  0  0  0  0
   -3.3899   11.5309  -31.2982 H   0  0  0  0  0  0  0  0  0  0  0  0
   -4.2081   11.8875  -34.2200 H   0  0  0  0  0  0  0  0  0  0  0  0
   -5.0870   10.9539  -32.9346 H   0  0  0  0  0  0  0  0  0  0  0  0
   -5.5671   13.6010  -33.6378 H   0  0  0  0  0  0  0  0  0  0  0  0
   -6.0421   12.7762  -32.0823 H   0  0  0  0  0  0  0  0  0  0  0  0
   -4.8151   15.0735  -31.9643 H   0  0  0  0  0  0  0  0  0  0  0  0
   -4.2887   13.7007  -30.8897 H   0  0  0  0  0  0  0  0  0  0  0  0
   -2.8532   17.5382  -32.4472 H   0  0  0  0  0  0  0  0  0  0  0  0
   -5.1980   20.1700  -31.6240 H   0  0  0  0  0  0  0  0  0  0  0  0
   -1.6163   19.9771  -29.7183 H   0  0  0  0  0  0  0  0  0  0  0  0
   -1.1264   21.7249  -28.0196 H   0  0  0  0  0  0  0  0  0  0  0  0
    0.1563   24.8212  -28.2928 H   0  0  0  0  0  0  0  0  0  0  0  0
   -0.9508   25.8115  -29.2599 H   0  0  0  0  0  0  0  0  0  0  0  0
   -0.1027   26.1642  -26.4357 H   0  0  0  0  0  0  0  0  0  0  0  0
   -0.9748   27.3192  -27.4716 H   0  0  0  0  0  0  0  0  0  0  0  0
   -2.0809   25.7892  -25.3017 H   0  0  0  0  0  0  0  0  0  0  0  0
   -3.0162   26.7391  -26.4397 H   0  0  0  0  0  0  0  0  0  0  0  0
   -6.8840   23.1387  -28.7121 H   0  0  0  0  0  0  0  0  0  0  0  0
   -8.3329   21.3657  -29.7103 H   0  0  0  0  0  0  0  0  0  0  0  0
   -8.5578   21.1844  -32.1906 H   0  0  0  0  0  0  0  0  0  0  0  0
   -7.3118   22.7597  -33.6767 H   0  0  0  0  0  0  0  0  0  0  0  0
   -5.8552   24.5268  -32.6860 H   0  0  0  0  0  0  0  0  0  0  0  0
   -3.8123   22.8735  -32.0668 H   0  0  0  0  0  0  0  0  0  0  0  0
  1  2  1  0
  2  3  2  0
  3  4  1  0
  4  5  2  0
  5  6  1  0
  6  7  2  0
  6  8  2  0
  6  9  1  0
  9 10  1  0
 10 11  1  0
 11 12  1  0
 12 13  1  0
 13 14  1  0
  5 15  1  0
 15 16  2  0
 16 17  1  0
 17 18  1  0
 18 19  2  0
 18 20  1  0
 20 21  2  0
 21 22  1  0
 22 23  2  0
 23 24  1  0
 24 25  1  0
 25 26  1  0
 26 27  1  0
 27 28  1  0
 28 29  2  0
 23 30  1  0
 30 31  1  0
 31 32  1  0
 32 33  2  0
 32 34  2  0
 32 35  1  0
 35 36  2  0
 36 37  1  0
 37 38  2  0
 38 39  1  0
 39 40  2  0
 30 41  2  0
 16  2  1  0
 41 20  1  0
 14  9  1  0
 28 24  1  0
 40 35  1  0
  1 42  1  0
  1 43  1  0
  1 44  1  0
  3 45  1  0
  4 46  1  0
 10 47  1  0
 10 48  1  0
 11 49  1  0
 11 50  1  0
 12 51  1  0
 12 52  1  0
 13 53  1  0
 13 54  1  0
 14 55  1  0
 14 56  1  0
 15 57  1  0
 17 58  1  0
 21 59  1  0
 22 60  1  0
 25 61  1  0
 25 62  1  0
 26 63  1  0
 26 64  1  0
 27 65  1  0
 27 66  1  0
 36 67  1  0
 37 68  1  0
 38 69  1  0
 39 70  1  0
 40 71  1  0
 41 72  1  0
M  CHG  1  31  -1
M  END
>  <UniqueID>  (14) 
14

>  <SMILES>  (14) 
Cc1ccc(S(=O)(=O)N2CCCCC2)cc1NC(=O)c1ccc(N2CCCC2=O)c([N-]S(=O)(=O)c2ccccc2)c1

>  <Energy>  (14) 
108.72783455875631

>  <Genealogy>  (14) 
Cc1ccc(S(=O)(=O)N2CCCCC2)cc1NC(=O)c1ccc(N2CCCC2=O)c([N-]S(=O)(=O)c2ccccc2)c1 (protonated)
Cc1ccc(S(=O)(=O)N2CCCCC2)cc1NC(=O)c1ccc(N2CCCC2=O)c([N-]S(=O)(=O)c2ccccc2)c1 (3D coordinates assigned)
Cc1ccc(S(=O)(=O)N2CCCCC2)cc1NC(=O)c1ccc(N2CCCC2=O)c([N-]S(=O)(=O)c2ccccc2)c1 (nonaromatic ring conformer: 108.72783455875631 kcal/mol)

>  <smiles>  (14) 
Cc1ccc(S(=O)(=O)N2CCCCC2)cc1NC(=O)c1ccc(N2CCCC2=O)c(NS(=O)(=O)c2ccccc2)c1

>  <score_type>  (14) 
oracle

>  <origin>  (14) 
adgpu

>  <m_score__min__energy>  (14) 
-12.960000000000001

>  <m_primary>  (14) 
energy

$$$$
14:0
     RDKit          3D

 36 38  0  0  0  0  0  0  0  0999 V2000
   -3.5450   24.5340  -30.5820 O   0  0  0  0  0  0  0  0  0  0  0  0
   -2.6890   23.8320  -29.9790 C   0  0  0  0  0  0  0  0  0  0  0  0
   -2.7790   22.3970  -29.9970 N   0  0  0  0  0  0  0  0  0  0  0  0
   -3.6290   21.6570  -30.8900 C   0  0  0  0  0  0  0  0  0  0  0  0
   -3.1010   20.7440  -31.8210 C   0  0  0  0  0  0  0  0  0  0  0  0
   -3.9530   20.0190  -32.6600 C   0  0  0  0  0  0  0  0  0  0  0  0
   -5.3410   20.1830  -32.5690 C   0  0  0  0  0  0  0  0  0  0  0  0
   -6.4230   19.2720  -33.6180 S   0  0  0  0  0  0  0  0  0  0  0  0
   -5.7570   19.0130  -34.9420 O   0  0  0  0  0  0  0  0  0  0  0  0
   -7.6650   20.0890  -33.8440 O   0  0  0  0  0  0  0  0  0  0  0  0
   -6.8450   17.7520  -32.8560 N   0  0  0  0  0  0  0  0  0  0  0  0
   -5.8150   17.3590  -31.8880 C   0  0  0  0  0  0  0  0  0  0  0  0
   -4.8330   16.4310  -32.5880 C   0  0  0  0  0  0  0  0  0  0  0  0
   -5.5180   16.0010  -33.8710 C   0  0  0  0  0  0  0  0  0  0  0  0
   -6.8830   16.6740  -33.8490 C   0  0  0  0  0  0  0  0  0  0  0  0
   -5.8710   21.0770  -31.6320 C   0  0  0  0  0  0  0  0  0  0  0  0
   -5.0210   21.8030  -30.7910 C   0  0  0  0  0  0  0  0  0  0  0  0
   -1.6220   24.5000  -29.2190 C   0  0  0  0  0  0  0  0  0  0  0  0
   -1.7260   25.7420  -28.7090 N   0  0  0  0  0  0  0  0  0  0  0  0
   -0.5280   25.8990  -28.1140 C   0  0  0  0  0  0  0  0  0  0  0  0
    0.2580   24.8150  -28.2530 N   0  0  0  0  0  0  0  0  0  0  0  0
   -0.4320   23.9310  -28.9500 N   0  0  0  0  0  0  0  0  0  0  0  0
   -2.2630   21.8640  -29.2620 H   0  0  0  0  0  0  0  0  0  0  0  0
   -2.0126   20.5997  -31.8893 H   0  0  0  0  0  0  0  0  0  0  0  0
   -3.5314   19.3170  -33.3945 H   0  0  0  0  0  0  0  0  0  0  0  0
   -5.2872   18.2523  -31.5227 H   0  0  0  0  0  0  0  0  0  0  0  0
   -6.2757   16.8471  -31.0302 H   0  0  0  0  0  0  0  0  0  0  0  0
   -3.8966   16.9626  -32.8127 H   0  0  0  0  0  0  0  0  0  0  0  0
   -4.5710   15.5677  -31.9586 H   0  0  0  0  0  0  0  0  0  0  0  0
   -4.9396   16.3335  -34.7456 H   0  0  0  0  0  0  0  0  0  0  0  0
   -5.6039   14.9066  -33.9405 H   0  0  0  0  0  0  0  0  0  0  0  0
   -7.1094   17.0898  -34.8419 H   0  0  0  0  0  0  0  0  0  0  0  0
   -7.6631   15.9437  -33.5881 H   0  0  0  0  0  0  0  0  0  0  0  0
   -6.9604   21.2094  -31.5564 H   0  0  0  0  0  0  0  0  0  0  0  0
   -5.4466   22.4928  -30.0473 H   0  0  0  0  0  0  0  0  0  0  0  0
   -0.2261   26.8095  -27.5756 H   0  0  0  0  0  0  0  0  0  0  0  0
  1  2  2  0
  2  3  1  0
  3  4  1  0
  4  5  2  0
  5  6  1  0
  6  7  2  0
  7  8  1  0
  8  9  2  0
  8 10  2  0
  8 11  1  0
 11 12  1  0
 12 13  1  0
 13 14  1  0
 14 15  1  0
  7 16  1  0
 16 17  2  0
  2 18  1  0
 18 19  1  0
 19 20  2  0
 20 21  1  0
 21 22  1  0
 17  4  1  0
 22 18  2  0
 15 11  1  0
  3 23  1  0
  5 24  1  0
  6 25  1  0
 12 26  1  0
 12 27  1  0
 13 28  1  0
 13 29  1  0
 14 30  1  0
 14 31  1  0
 15 32  1  0
 15 33  1  0
 16 34  1  0
 17 35  1  0
 20 36  1  0
M  CHG  1  21  -1
M  END
>  <UniqueID>  (15) 
15

>  <SMILES>  (15) 
O=C(Nc1ccc(S(=O)(=O)N2CCCC2)cc1)c1nc[n-]n1

>  <Energy>  (15) 
72.27364586720569

>  <Genealogy>  (15) 
O=C(Nc1ccc(S(=O)(=O)N2CCCC2)cc1)c1nc[n-]n1 (protonated)
O=C(Nc1ccc(S(=O)(=O)N2CCCC2)cc1)c1nc[n-]n1 (3D coordinates assigned)
O=C(Nc1ccc(S(=O)(=O)N2CCCC2)cc1)c1nc[n-]n1 (nonaromatic ring conformer: 72.27364586720569 kcal/mol)

>  <smiles>  (15) 
O=C(Nc1ccc(S(=O)(=O)N2CCCC2)cc1)c1nc[nH]n1

>  <score_type>  (15) 
oracle

>  <origin>  (15) 
adgpu

>  <m_score__min__energy>  (15) 
-9.8200000000000003

>  <m_primary>  (15) 
energy

$$$$
15:0
     RDKit          3D

 45 47  0  0  0  0  0  0  0  0999 V2000
   -5.7570   26.9180  -28.8760 H   0  0  0  0  0  0  0  0  0  0  0  0
   -6.1100   26.3810  -29.7000 N   0  0  0  0  0  0  0  0  0  0  0  0
   -5.5340   25.2970  -30.1120 C   0  0  0  0  0  0  0  0  0  0  0  0
   -6.0440   24.6390  -31.1920 N   0  0  0  0  0  0  0  0  0  0  0  0
   -5.4360   23.5060  -31.6130 C   0  0  0  0  0  0  0  0  0  0  0  0
   -4.3260   23.0020  -30.9980 C   0  0  0  0  0  0  0  0  0  0  0  0
   -3.9740   21.8600  -31.7090 C   0  0  0  0  0  0  0  0  0  0  0  0
   -2.7710   20.9760  -31.5510 C   0  0  0  0  0  0  0  0  0  0  0  0
   -2.2665   21.2188  -30.6041 H   0  0  0  0  0  0  0  0  0  0  0  0
   -3.1013   19.9268  -31.5498 H   0  0  0  0  0  0  0  0  0  0  0  0
   -1.7950   21.1810  -32.7050 C   0  0  0  0  0  0  0  0  0  0  0  0
   -0.7925   21.3916  -32.3043 H   0  0  0  0  0  0  0  0  0  0  0  0
   -1.7597   20.2707  -33.3215 H   0  0  0  0  0  0  0  0  0  0  0  0
   -2.1289   22.0286  -33.3215 H   0  0  0  0  0  0  0  0  0  0  0  0
   -4.9150   21.7520  -32.7310 C   0  0  0  0  0  0  0  0  0  0  0  0
   -4.9267   20.9545  -33.4885 H   0  0  0  0  0  0  0  0  0  0  0  0
   -5.8110   22.7610  -32.6640 N   0  0  0  0  0  0  0  0  0  0  0  0
   -6.6150   22.9320  -33.3080 H   0  0  0  0  0  0  0  0  0  0  0  0
   -3.7990   23.6660  -29.8870 C   0  0  0  0  0  0  0  0  0  0  0  0
   -2.6770   23.1580  -29.1570 N   0  0  0  0  0  0  0  0  0  0  0  0
   -1.3640   23.1270  -29.8090 C   0  0  0  0  0  0  0  0  0  0  0  0
   -1.3744   22.3688  -30.6058 H   0  0  0  0  0  0  0  0  0  0  0  0
   -1.1551   24.1212  -30.2309 H   0  0  0  0  0  0  0  0  0  0  0  0
   -0.2660   22.7800  -28.7990 C   0  0  0  0  0  0  0  0  0  0  0  0
   -0.4162   21.7484  -28.4479 H   0  0  0  0  0  0  0  0  0  0  0  0
    0.7084   22.8854  -29.2984 H   0  0  0  0  0  0  0  0  0  0  0  0
   -0.2940   23.7430  -27.5710 C   0  0  0  0  0  0  0  0  0  0  0  0
    0.3611   23.2812  -26.8176 H   0  0  0  0  0  0  0  0  0  0  0  0
    0.2650   25.1000  -27.8550 N   0  0  0  0  0  0  0  0  0  0  0  0
    1.4140   25.4570  -27.0000 C   0  0  0  0  0  0  0  0  0  0  0  0
    1.1257   25.3674  -25.9422 H   0  0  0  0  0  0  0  0  0  0  0  0
    2.2528   24.7771  -27.2103 H   0  0  0  0  0  0  0  0  0  0  0  0
    1.7198   26.4925  -27.2103 H   0  0  0  0  0  0  0  0  0  0  0  0
   -0.7770   26.1340  -27.6770 C   0  0  0  0  0  0  0  0  0  0  0  0
   -0.9468   26.3025  -26.6033 H   0  0  0  0  0  0  0  0  0  0  0  0
   -0.4471   27.0719  -28.1476 H   0  0  0  0  0  0  0  0  0  0  0  0
   -1.7123   25.7968  -28.1476 H   0  0  0  0  0  0  0  0  0  0  0  0
   -1.7500   23.8810  -27.0090 C   0  0  0  0  0  0  0  0  0  0  0  0
   -1.7328   23.6211  -25.9403 H   0  0  0  0  0  0  0  0  0  0  0  0
   -2.0608   24.9203  -27.1914 H   0  0  0  0  0  0  0  0  0  0  0  0
   -2.7820   22.9860  -27.7040 C   0  0  0  0  0  0  0  0  0  0  0  0
   -2.5900   21.9345  -27.4442 H   0  0  0  0  0  0  0  0  0  0  0  0
   -3.7930   23.2660  -27.3732 H   0  0  0  0  0  0  0  0  0  0  0  0
   -4.4230   24.8090  -29.4670 N   0  0  0  0  0  0  0  0  0  0  0  0
   -4.0440   25.3100  -28.6310 H   0  0  0  0  0  0  0  0  0  0  0  0
  1  2  1  0
  2  3  2  0
  3  4  1  0
  4  5  2  0
  5  6  1  0
  6  7  1  0
  7  8  1  0
  8  9  1  0
  8 10  1  0
  8 11  1  0
 11 12  1  0
 11 13  1  0
 11 14  1  0
  7 15  2  0
 15 16  1  0
 15 17  1  0
 17 18  1  0
  6 19  2  0
 19 20  1  0
 20 21  1  0
 21 22  1  0
 21 23  1  0
 21 24  1  0
 24 25  1  0
 24 26  1  0
 24 27  1  0
 27 28  1  0
 27 29  1  0
 29 30  1  0
 30 31  1  0
 30 32  1  0
 30 33  1  0
 29 34  1  0
 34 35  1  0
 34 36  1  0
 34 37  1  0
 27 38  1  0
 38 39  1  0
 38 40  1  0
 38 41  1  0
 41 42  1  0
 41 43  1  0
 19 44  1  0
 44 45  1  0
 44  3  1  0
 17  5  1  0
 41 20  1  0
M  END
>  <UniqueID>  (16) 
16

>  <SMILES>  (16) 
[H]/N=c1/nc2[nH]cc(CC)c2c(N2CCC(N(C)C)CC2)[nH]1

>  <Energy>  (16) 
93.3348097084943

>  <Genealogy>  (16) 
[H]/N=c1/nc2[nH]cc(CC)c2c(N2CCC(N(C)C)CC2)[nH]1 (cis-trans isomerization)
[H]/N=c1/nc2[nH]cc(CC)c2c(N2CCC(N(C)C)CC2)[nH]1 (3D coordinates assigned)
[H]/N=c1/nc2[nH]cc(CC)c2c(N2CCC(N(C)C)CC2)[nH]1 (nonaromatic ring conformer: 93.3348097084943 kcal/mol)

>  <smiles>  (16) 
CCc1c[nH]c2nc(=N)[nH]c(N3CCC(N(C)C)CC3)c12

>  <score_type>  (16) 
oracle

>  <origin>  (16) 
adgpu

>  <m_score__min__energy>  (16) 
-7.04

>  <m_primary>  (16) 
energy

$$$$
16:0
     RDKit          3D

 45 47  0  0  0  0  0  0  0  0999 V2000
   -9.6410   19.8050  -33.1520 N   0  0  0  0  0  0  0  0  0  0  0  0
   -8.4260   19.4190  -31.9850 S   0  0  0  0  0  0  0  0  0  0  0  0
   -8.8240   18.1640  -31.2590 O   0  0  0  0  0  0  0  0  0  0  0  0
   -8.3150   20.5360  -30.9850 O   0  0  0  0  0  0  0  0  0  0  0  0
   -6.8730   19.1910  -32.7980 C   0  0  0  0  0  0  0  0  0  0  0  0
   -6.6420   18.0070  -33.5170 C   0  0  0  0  0  0  0  0  0  0  0  0
   -5.4180   17.7910  -34.1520 C   0  0  0  0  0  0  0  0  0  0  0  0
   -4.4140   18.7570  -34.0830 C   0  0  0  0  0  0  0  0  0  0  0  0
   -4.6320   19.9420  -33.3780 C   0  0  0  0  0  0  0  0  0  0  0  0
   -5.8560   20.1690  -32.7240 C   0  0  0  0  0  0  0  0  0  0  0  0
   -6.0820   21.4140  -32.0390 N   0  0  0  0  0  0  0  0  0  0  0  0
   -5.0780   22.1000  -31.2710 C   0  0  0  0  0  0  0  0  0  0  0  0
   -4.1260   21.3560  -30.5610 C   0  0  0  0  0  0  0  0  0  0  0  0
   -3.1320   22.0000  -29.8210 C   0  0  0  0  0  0  0  0  0  0  0  0
   -3.0590   23.3990  -29.7930 C   0  0  0  0  0  0  0  0  0  0  0  0
   -1.8000   24.1750  -28.8250 S   0  0  0  0  0  0  0  0  0  0  0  0
   -2.2070   24.2400  -27.3790 O   0  0  0  0  0  0  0  0  0  0  0  0
   -1.6030   25.5810  -29.3190 O   0  0  0  0  0  0  0  0  0  0  0  0
   -0.3000   23.3120  -28.9800 N   0  0  0  0  0  0  0  0  0  0  0  0
    0.0920   22.7550  -27.6890 C   0  0  0  0  0  0  0  0  0  0  0  0
   -0.5020   21.3850  -27.5440 C   0  0  0  0  0  0  0  0  0  0  0  0
   -1.4980   21.1340  -26.5890 C   0  0  0  0  0  0  0  0  0  0  0  0
   -2.0170   19.8460  -26.4420 C   0  0  0  0  0  0  0  0  0  0  0  0
   -1.5260   18.8160  -27.2450 C   0  0  0  0  0  0  0  0  0  0  0  0
   -0.5490   19.0690  -28.1560 N   0  0  0  0  0  0  0  0  0  0  0  0
   -0.0280   20.3150  -28.3190 C   0  0  0  0  0  0  0  0  0  0  0  0
   -4.0040   24.1550  -30.5120 C   0  0  0  0  0  0  0  0  0  0  0  0
   -3.9600   25.5490  -30.4880 O   0  0  0  0  0  0  0  0  0  0  0  0
   -5.0000   23.5030  -31.2540 C   0  0  0  0  0  0  0  0  0  0  0  0
   -9.6470   19.0300  -33.8520 H   0  0  0  0  0  0  0  0  0  0  0  0
   -7.4318   17.2440  -33.5802 H   0  0  0  0  0  0  0  0  0  0  0  0
   -5.2448   16.8576  -34.7077 H   0  0  0  0  0  0  0  0  0  0  0  0
   -3.4501   18.5849  -34.5843 H   0  0  0  0  0  0  0  0  0  0  0  0
   -3.8401   20.7042  -33.3337 H   0  0  0  0  0  0  0  0  0  0  0  0
   -7.0190   21.8650  -32.1370 H   0  0  0  0  0  0  0  0  0  0  0  0
   -4.1619   20.2569  -30.5868 H   0  0  0  0  0  0  0  0  0  0  0  0
   -2.4004   21.4041  -29.2555 H   0  0  0  0  0  0  0  0  0  0  0  0
    1.1886   22.6886  -27.6343 H   0  0  0  0  0  0  0  0  0  0  0  0
   -0.2726   23.4043  -26.8794 H   0  0  0  0  0  0  0  0  0  0  0  0
   -1.8706   21.9523  -25.9553 H   0  0  0  0  0  0  0  0  0  0  0  0
   -2.8047   19.6455  -25.7009 H   0  0  0  0  0  0  0  0  0  0  0  0
   -1.9298   17.7981  -27.1409 H   0  0  0  0  0  0  0  0  0  0  0  0
    0.7669   20.4845  -29.0602 H   0  0  0  0  0  0  0  0  0  0  0  0
   -3.4810   26.0530  -29.7510 H   0  0  0  0  0  0  0  0  0  0  0  0
   -5.7272   24.0958  -31.8282 H   0  0  0  0  0  0  0  0  0  0  0  0
  1  2  1  0
  2  3  2  0
  2  4  2  0
  2  5  1  0
  5  6  2  0
  6  7  1  0
  7  8  2  0
  8  9  1  0
  9 10  2  0
 10 11  1  0
 11 12  1  0
 12 13  2  0
 13 14  1  0
 14 15  2  0
 15 16  1  0
 16 17  2  0
 16 18  2  0
 16 19  1  0
 19 20  1  0
 20 21  1  0
 21 22  2  0
 22 23  1  0
 23 24  2  0
 24 25  1  0
 25 26  2  0
 15 27  1  0
 27 28  1  0
 27 29  2  0
 10  5  1  0
 29 12  1  0
 26 21  1  0
  1 30  1  0
  6 31  1  0
  7 32  1  0
  8 33  1  0
  9 34  1  0
 11 35  1  0
 13 36  1  0
 14 37  1  0
 20 38  1  0
 20 39  1  0
 22 40  1  0
 23 41  1  0
 24 42  1  0
 26 43  1  0
 28 44  1  0
 29 45  1  0
M  CHG  2   1  -1  19  -1
M  END
>  <UniqueID>  (17) 
17

>  <SMILES>  (17) 
[NH-]S(=O)(=O)c1ccccc1Nc1ccc(S(=O)(=O)[N-]Cc2cccnc2)c(O)c1

>  <Energy>  (17) 
53.254470772285764

>  <Genealogy>  (17) 
[NH-]S(=O)(=O)c1ccccc1Nc1ccc(S(=O)(=O)[N-]Cc2cccnc2)c(O)c1 (protonated)
[NH-]S(=O)(=O)c1ccccc1Nc1ccc(S(=O)(=O)[N-]Cc2cccnc2)c(O)c1 (3D coordinates assigned)
[NH-]S(=O)(=O)c1ccccc1Nc1ccc(S(=O)(=O)[N-]Cc2cccnc2)c(O)c1 (optimized conformer: 53.254470772285764 kcal/mol)

>  <smiles>  (17) 
NS(=O)(=O)c1ccccc1Nc1ccc(S(=O)(=O)NCc2cccnc2)c(O)c1

>  <score_type>  (17) 
oracle

>  <origin>  (17) 
adgpu

>  <m_score__min__energy>  (17) 
-10.859999999999999

>  <m_primary>  (17) 
energy

$$$$
17:0
     RDKit          3D

 69 72  0  0  0  0  0  0  0  0999 V2000
   -0.2600   18.1715  -29.8488 H   0  0  0  0  0  0  0  0  0  0  0  0
   -0.2770   18.9250  -30.6500 C   0  0  0  0  0  0  0  0  0  0  0  0
    0.3030   18.6280  -31.7790 N   0  0  0  0  0  0  0  0  0  0  0  0
    0.2560   19.3870  -32.9990 C   0  0  0  0  0  0  0  0  0  0  0  0
    0.7820   20.6910  -33.0420 C   0  0  0  0  0  0  0  0  0  0  0  0
    1.2657   21.1158  -32.1500 H   0  0  0  0  0  0  0  0  0  0  0  0
    0.6930   21.4490  -34.2120 C   0  0  0  0  0  0  0  0  0  0  0  0
    1.1263   22.4595  -34.2460 H   0  0  0  0  0  0  0  0  0  0  0  0
    0.0550   20.9260  -35.3380 C   0  0  0  0  0  0  0  0  0  0  0  0
   -0.0234   21.5293  -36.2545 H   0  0  0  0  0  0  0  0  0  0  0  0
   -0.4840   19.6380  -35.3030 C   0  0  0  0  0  0  0  0  0  0  0  0
   -0.9907   19.2331  -36.1914 H   0  0  0  0  0  0  0  0  0  0  0  0
   -0.3830   18.8570  -34.1410 C   0  0  0  0  0  0  0  0  0  0  0  0
   -0.9970   17.1990  -34.1570 S   0  0  0  0  0  0  0  0  0  0  0  0
   -0.0990   16.3130  -34.9790 O   0  0  0  0  0  0  0  0  0  0  0  0
   -1.0410   16.6800  -32.7480 O   0  0  0  0  0  0  0  0  0  0  0  0
   -2.5950   17.1400  -34.8350 N   0  0  0  0  0  0  0  0  0  0  0  0
   -2.6910   16.7390  -35.7950 H   0  0  0  0  0  0  0  0  0  0  0  0
   -3.7310   17.7760  -34.2240 C   0  0  0  0  0  0  0  0  0  0  0  0
   -3.7580   19.1620  -33.9810 C   0  0  0  0  0  0  0  0  0  0  0  0
   -2.8946   19.7826  -34.2629 H   0  0  0  0  0  0  0  0  0  0  0  0
   -4.8720   19.7550  -33.3850 C   0  0  0  0  0  0  0  0  0  0  0  0
   -4.8774   20.8378  -33.1915 H   0  0  0  0  0  0  0  0  0  0  0  0
   -5.9830   18.9790  -33.0320 C   0  0  0  0  0  0  0  0  0  0  0  0
   -7.4040   19.7410  -32.3190 S   0  0  0  0  0  0  0  0  0  0  0  0
   -8.0450   18.7900  -31.3460 O   0  0  0  0  0  0  0  0  0  0  0  0
   -8.3940   20.0460  -33.4100 O   0  0  0  0  0  0  0  0  0  0  0  0
   -6.9540   21.2220  -31.5070 N   0  0  0  0  0  0  0  0  0  0  0  0
   -8.0170   21.6250  -30.5690 C   0  0  0  0  0  0  0  0  0  0  0  0
   -8.9097   21.9203  -31.1398 H   0  0  0  0  0  0  0  0  0  0  0  0
   -8.2497   20.7749  -29.9108 H   0  0  0  0  0  0  0  0  0  0  0  0
   -7.5550   22.8120  -29.7020 C   0  0  0  0  0  0  0  0  0  0  0  0
   -8.4176   23.4688  -29.5162 H   0  0  0  0  0  0  0  0  0  0  0  0
   -7.1474   22.4013  -28.7664 H   0  0  0  0  0  0  0  0  0  0  0  0
   -6.4450   23.6360  -30.3690 C   0  0  0  0  0  0  0  0  0  0  0  0
   -6.4665   24.6595  -29.9665 H   0  0  0  0  0  0  0  0  0  0  0  0
   -5.4784   23.1562  -30.1558 H   0  0  0  0  0  0  0  0  0  0  0  0
   -6.6350   23.6920  -31.8880 C   0  0  0  0  0  0  0  0  0  0  0  0
   -7.5683   24.2302  -32.1100 H   0  0  0  0  0  0  0  0  0  0  0  0
   -5.7662   24.2091  -32.3213 H   0  0  0  0  0  0  0  0  0  0  0  0
   -6.7120   22.2800  -32.5120 C   0  0  0  0  0  0  0  0  0  0  0  0
   -7.5327   22.2636  -33.2443 H   0  0  0  0  0  0  0  0  0  0  0  0
   -5.7402   22.0728  -32.9838 H   0  0  0  0  0  0  0  0  0  0  0  0
   -5.9590   17.5960  -33.2610 C   0  0  0  0  0  0  0  0  0  0  0  0
   -6.8258   16.9787  -32.9825 H   0  0  0  0  0  0  0  0  0  0  0  0
   -4.8350   16.9990  -33.8430 C   0  0  0  0  0  0  0  0  0  0  0  0
   -4.8171   15.9109  -34.0031 H   0  0  0  0  0  0  0  0  0  0  0  0
   -0.9570   20.2110  -30.3770 C   0  0  0  0  0  0  0  0  0  0  0  0
   -0.3390   21.1510  -29.5370 C   0  0  0  0  0  0  0  0  0  0  0  0
    0.6327   20.9177  -29.0773 H   0  0  0  0  0  0  0  0  0  0  0  0
   -0.9510   22.3820  -29.2810 C   0  0  0  0  0  0  0  0  0  0  0  0
   -0.4650   23.1074  -28.6120 H   0  0  0  0  0  0  0  0  0  0  0  0
   -2.1810   22.6940  -29.8740 C   0  0  0  0  0  0  0  0  0  0  0  0
   -2.9810   24.2240  -29.5090 S   0  0  0  0  0  0  0  0  0  0  0  0
   -1.9420   25.2680  -29.2060 O   0  0  0  0  0  0  0  0  0  0  0  0
   -3.7560   24.6750  -30.7170 O   0  0  0  0  0  0  0  0  0  0  0  0
   -4.0680   24.0690  -28.1490 N   0  0  0  0  0  0  0  0  0  0  0  0
   -4.2900   22.6480  -27.8510 C   0  0  0  0  0  0  0  0  0  0  0  0
   -4.3129   22.5012  -26.7611 H   0  0  0  0  0  0  0  0  0  0  0  0
   -5.2490   22.3279  -28.2844 H   0  0  0  0  0  0  0  0  0  0  0  0
   -3.4743   22.0507  -28.2844 H   0  0  0  0  0  0  0  0  0  0  0  0
   -3.4990   24.7490  -26.9780 C   0  0  0  0  0  0  0  0  0  0  0  0
   -3.8876   24.2846  -26.0596 H   0  0  0  0  0  0  0  0  0  0  0  0
   -2.4028   24.6594  -26.9987 H   0  0  0  0  0  0  0  0  0  0  0  0
   -3.7805   25.8122  -26.9987 H   0  0  0  0  0  0  0  0  0  0  0  0
   -2.7800   21.7770  -30.7480 C   0  0  0  0  0  0  0  0  0  0  0  0
   -3.7379   22.0231  -31.2295 H   0  0  0  0  0  0  0  0  0  0  0  0
   -2.1640   20.5520  -31.0090 C   0  0  0  0  0  0  0  0  0  0  0  0
   -2.6277   19.8479  -31.7155 H   0  0  0  0  0  0  0  0  0  0  0  0
  1  2  1  0
  2  3  2  0
  3  4  1  0
  4  5  2  0
  5  6  1  0
  5  7  1  0
  7  8  1  0
  7  9  2  0
  9 10  1  0
  9 11  1  0
 11 12  1  0
 11 13  2  0
 13 14  1  0
 14 15  2  0
 14 16  2  0
 14 17  1  0
 17 18  1  0
 17 19  1  0
 19 20  2  0
 20 21  1  0
 20 22  1  0
 22 23  1  0
 22 24  2  0
 24 25  1  0
 25 26  2  0
 25 27  2  0
 25 28  1  0
 28 29  1  0
 29 30  1  0
 29 31  1  0
 29 32  1  0
 32 33  1  0
 32 34  1  0
 32 35  1  0
 35 36  1  0
 35 37  1  0
 35 38  1  0
 38 39  1  0
 38 40  1  0
 38 41  1  0
 41 42  1  0
 41 43  1  0
 24 44  1  0
 44 45  1  0
 44 46  2  0
 46 47  1  0
  2 48  1  0
 48 49  2  0
 49 50  1  0
 49 51  1  0
 51 52  1  0
 51 53  2  0
 53 54  1  0
 54 55  2  0
 54 56  2  0
 54 57  1  0
 57 58  1  0
 58 59  1  0
 58 60  1  0
 58 61  1  0
 57 62  1  0
 62 63  1  0
 62 64  1  0
 62 65  1  0
 53 66  1  0
 66 67  1  0
 66 68  2  0
 68 69  1  0
 13  4  1  0
 46 19  1  0
 68 48  1  0
 41 28  1  0
M  END
>  <UniqueID>  (18) 
18

>  <SMILES>  (18) 
CN(C)S(=O)(=O)c1ccc(/C=N\c2ccccc2S(=O)(=O)Nc2ccc(S(=O)(=O)N3CCCCC3)cc2)cc1

>  <Energy>  (18) 
86.3695384432235

>  <Genealogy>  (18) 
CN(C)S(=O)(=O)c1ccc(/C=N\c2ccccc2S(=O)(=O)Nc2ccc(S(=O)(=O)N3CCCCC3)cc2)cc1 (cis-trans isomerization)
CN(C)S(=O)(=O)c1ccc(/C=N\c2ccccc2S(=O)(=O)Nc2ccc(S(=O)(=O)N3CCCCC3)cc2)cc1 (3D coordinates assigned)
CN(C)S(=O)(=O)c1ccc(/C=N\c2ccccc2S(=O)(=O)Nc2ccc(S(=O)(=O)N3CCCCC3)cc2)cc1 (nonaromatic ring conformer: 86.3695384432235 kcal/mol)

>  <smiles>  (18) 
CN(C)S(=O)(=O)c1ccc(C=Nc2ccccc2S(=O)(=O)Nc2ccc(S(=O)(=O)N3CCCCC3)cc2)cc1

>  <score_type>  (18) 
oracle

>  <origin>  (18) 
adgpu

>  <m_score__min__energy>  (18) 
-11.289999999999999

>  <m_primary>  (18) 
energy

$$$$
18:0
     RDKit          3D

 52 54  0  0  0  0  0  0  0  0999 V2000
   -2.9960   21.7510  -28.4120 C   0  0  0  0  0  0  0  0  0  0  0  0
   -2.5770   22.8710  -29.2730 N   0  0  0  0  0  0  0  0  0  0  0  0
   -3.4970   24.0130  -29.0930 C   0  0  0  0  0  0  0  0  0  0  0  0
   -4.0270   24.4650  -30.4180 C   0  0  0  0  0  0  0  0  0  0  0  0
   -4.2620   25.6890  -30.6070 O   0  0  0  0  0  0  0  0  0  0  0  0
   -4.3320   23.4930  -31.4260 N   0  0  0  0  0  0  0  0  0  0  0  0
   -5.5820   22.8120  -31.6130 C   0  0  0  0  0  0  0  0  0  0  0  0
   -6.8140   23.4070  -31.2850 C   0  0  0  0  0  0  0  0  0  0  0  0
   -8.0080   22.7150  -31.5040 C   0  0  0  0  0  0  0  0  0  0  0  0
   -7.9870   21.4350  -32.0640 C   0  0  0  0  0  0  0  0  0  0  0  0
   -6.7660   20.8430  -32.4140 C   0  0  0  0  0  0  0  0  0  0  0  0
   -6.7220   19.2500  -33.1670 S   0  0  0  0  0  0  0  0  0  0  0  0
   -8.0550   18.5850  -32.9560 O   0  0  0  0  0  0  0  0  0  0  0  0
   -6.4850   19.3910  -34.6450 O   0  0  0  0  0  0  0  0  0  0  0  0
   -5.4480   18.3040  -32.4250 N   0  0  0  0  0  0  0  0  0  0  0  0
   -4.1570   18.4660  -33.1310 C   0  0  0  0  0  0  0  0  0  0  0  0
   -3.8520   17.3000  -34.0890 C   0  0  0  0  0  0  0  0  0  0  0  0
   -5.0460   16.7890  -34.6340 O   0  0  0  0  0  0  0  0  0  0  0  0
   -5.8030   16.1340  -33.6310 C   0  0  0  0  0  0  0  0  0  0  0  0
   -5.8330   16.8890  -32.2810 C   0  0  0  0  0  0  0  0  0  0  0  0
   -5.5700   21.5400  -32.1970 C   0  0  0  0  0  0  0  0  0  0  0  0
   -1.1820   23.2630  -28.9670 C   0  0  0  0  0  0  0  0  0  0  0  0
   -1.1490   24.2310  -27.8100 C   0  0  0  0  0  0  0  0  0  0  0  0
   -1.0740   23.7520  -26.4910 C   0  0  0  0  0  0  0  0  0  0  0  0
   -1.0320   24.6460  -25.4170 C   0  0  0  0  0  0  0  0  0  0  0  0
   -1.0610   26.0240  -25.6500 C   0  0  0  0  0  0  0  0  0  0  0  0
   -1.1280   26.5100  -26.9580 C   0  0  0  0  0  0  0  0  0  0  0  0
   -1.1700   25.6200  -28.0390 C   0  0  0  0  0  0  0  0  0  0  0  0
   -1.2360   26.1240  -29.3340 O   0  0  0  0  0  0  0  0  0  0  0  0
   -2.8879   22.0399  -27.3561 H   0  0  0  0  0  0  0  0  0  0  0  0
   -4.0476   21.5032  -28.6186 H   0  0  0  0  0  0  0  0  0  0  0  0
   -2.3652   20.8738  -28.6186 H   0  0  0  0  0  0  0  0  0  0  0  0
   -4.3363   23.7056  -28.4518 H   0  0  0  0  0  0  0  0  0  0  0  0
   -2.9497   24.8437  -28.6235 H   0  0  0  0  0  0  0  0  0  0  0  0
   -6.8373   24.4193  -30.8552 H   0  0  0  0  0  0  0  0  0  0  0  0
   -8.9680   23.1796  -31.2346 H   0  0  0  0  0  0  0  0  0  0  0  0
   -8.9291   20.8919  -32.2301 H   0  0  0  0  0  0  0  0  0  0  0  0
   -4.1886   19.3995  -33.7120 H   0  0  0  0  0  0  0  0  0  0  0  0
   -3.3630   18.4865  -32.3700 H   0  0  0  0  0  0  0  0  0  0  0  0
   -3.2061   17.6593  -34.9036 H   0  0  0  0  0  0  0  0  0  0  0  0
   -3.3439   16.5010  -33.5292 H   0  0  0  0  0  0  0  0  0  0  0  0
   -6.8367   16.0259  -33.9913 H   0  0  0  0  0  0  0  0  0  0  0  0
   -5.3191   15.1637  -33.4457 H   0  0  0  0  0  0  0  0  0  0  0  0
   -6.8522   16.8394  -31.8701 H   0  0  0  0  0  0  0  0  0  0  0  0
   -5.1063   16.4084  -31.6095 H   0  0  0  0  0  0  0  0  0  0  0  0
   -4.6127   21.0833  -32.4883 H   0  0  0  0  0  0  0  0  0  0  0  0
   -0.6025   22.3654  -28.7052 H   0  0  0  0  0  0  0  0  0  0  0  0
   -0.7461   23.7498  -29.8519 H   0  0  0  0  0  0  0  0  0  0  0  0
   -1.0482   22.6685  -26.3027 H   0  0  0  0  0  0  0  0  0  0  0  0
   -0.9760   24.2644  -24.3868 H   0  0  0  0  0  0  0  0  0  0  0  0
   -1.0311   26.7257  -24.8034 H   0  0  0  0  0  0  0  0  0  0  0  0
   -1.1478   27.5947  -27.1396 H   0  0  0  0  0  0  0  0  0  0  0  0
  1  2  1  0
  2  3  1  0
  3  4  1  0
  4  5  2  0
  4  6  1  0
  6  7  1  0
  7  8  2  0
  8  9  1  0
  9 10  2  0
 10 11  1  0
 11 12  1  0
 12 13  2  0
 12 14  2  0
 12 15  1  0
 15 16  1  0
 16 17  1  0
 17 18  1  0
 18 19  1  0
 19 20  1  0
 11 21  2  0
  2 22  1  0
 22 23  1  0
 23 24  2  0
 24 25  1  0
 25 26  2  0
 26 27  1  0
 27 28  2  0
 28 29  1  0
 21  7  1  0
 28 23  1  0
 20 15  1  0
  1 30  1  0
  1 31  1  0
  1 32  1  0
  3 33  1  0
  3 34  1  0
  8 35  1  0
  9 36  1  0
 10 37  1  0
 16 38  1  0
 16 39  1  0
 17 40  1  0
 17 41  1  0
 19 42  1  0
 19 43  1  0
 20 44  1  0
 20 45  1  0
 21 46  1  0
 22 47  1  0
 22 48  1  0
 24 49  1  0
 25 50  1  0
 26 51  1  0
 27 52  1  0
M  CHG  2   6  -1  29  -1
M  END
>  <UniqueID>  (19) 
19

>  <SMILES>  (19) 
CN(CC(=O)[N-]c1cccc(S(=O)(=O)N2CCOCC2)c1)Cc1ccccc1[O-]

>  <Energy>  (19) 
67.65624217394966

>  <Genealogy>  (19) 
CN(CC(=O)[N-]c1cccc(S(=O)(=O)N2CCOCC2)c1)Cc1ccccc1[O-] (protonated)
CN(CC(=O)[N-]c1cccc(S(=O)(=O)N2CCOCC2)c1)Cc1ccccc1[O-] (3D coordinates assigned)
CN(CC(=O)[N-]c1cccc(S(=O)(=O)N2CCOCC2)c1)Cc1ccccc1[O-] (nonaromatic ring conformer: 67.65624217394966 kcal/mol)

>  <smiles>  (19) 
CN(CC(=O)Nc1cccc(S(=O)(=O)N2CCOCC2)c1)Cc1ccccc1O

>  <score_type>  (19) 
oracle

>  <origin>  (19) 
adgpu

>  <m_score__min__energy>  (19) 
-13.41

>  <m_primary>  (19) 
energy

$$$$
19:0
     RDKit          3D

 62 65  0  0  0  0  0  0  0  0999 V2000
   -4.3060   20.3120  -33.4860 C   0  0  0  0  0  0  0  0  0  0  0  0
   -5.6840   20.4120  -33.0110 N   0  0  0  0  0  0  0  0  0  0  0  0
   -6.6810   19.3940  -33.1140 C   0  0  0  0  0  0  0  0  0  0  0  0
   -6.5520   18.3790  -33.8520 O   0  0  0  0  0  0  0  0  0  0  0  0
   -7.8800   19.6620  -32.2380 C   0  0  0  0  0  0  0  0  0  0  0  0
   -9.1400   19.9000  -33.0880 C   0  0  0  0  0  0  0  0  0  0  0  0
   -8.0810   18.5310  -31.2170 C   0  0  0  0  0  0  0  0  0  0  0  0
   -7.4230   20.9320  -31.5670 C   0  0  0  0  0  0  0  0  0  0  0  0
   -8.0930   21.6950  -30.6070 C   0  0  0  0  0  0  0  0  0  0  0  0
   -7.4730   22.8510  -30.1110 C   0  0  0  0  0  0  0  0  0  0  0  0
   -6.1920   23.2270  -30.5690 C   0  0  0  0  0  0  0  0  0  0  0  0
   -5.4700   24.7500  -30.0510 S   0  0  0  0  0  0  0  0  0  0  0  0
   -6.5260   25.6750  -29.5030 O   0  0  0  0  0  0  0  0  0  0  0  0
   -4.7970   25.4190  -31.2160 O   0  0  0  0  0  0  0  0  0  0  0  0
   -4.2870   24.3990  -28.8320 N   0  0  0  0  0  0  0  0  0  0  0  0
   -3.0460   23.7970  -29.1970 C   0  0  0  0  0  0  0  0  0  0  0  0
   -2.9980   22.4390  -29.5500 C   0  0  0  0  0  0  0  0  0  0  0  0
   -1.7860   21.8500  -29.9480 C   0  0  0  0  0  0  0  0  0  0  0  0
   -1.7370   20.4110  -30.2990 C   0  0  0  0  0  0  0  0  0  0  0  0
   -2.5620   19.9570  -31.1440 O   0  0  0  0  0  0  0  0  0  0  0  0
   -0.7690   19.5210  -29.7060 N   0  0  0  0  0  0  0  0  0  0  0  0
   -0.3300   18.3350  -30.4510 C   0  0  0  0  0  0  0  0  0  0  0  0
    0.8880   17.6960  -29.7750 C   0  0  0  0  0  0  0  0  0  0  0  0
    0.6120   17.3680  -28.3590 N   0  0  0  0  0  0  0  0  0  0  0  0
    2.0930   16.9210  -27.5310 S   0  0  0  0  0  0  0  0  0  0  0  0
    3.1720   15.9720  -28.5950 C   0  0  0  0  0  0  0  0  0  0  0  0
    1.7640   16.1010  -26.3130 O   0  0  0  0  0  0  0  0  0  0  0  0
    2.8050   18.1710  -27.0880 O   0  0  0  0  0  0  0  0  0  0  0  0
   -0.1430   18.4030  -27.6060 C   0  0  0  0  0  0  0  0  0  0  0  0
   -0.2590   19.7430  -28.3450 C   0  0  0  0  0  0  0  0  0  0  0  0
   -0.6330   22.6520  -30.0370 C   0  0  0  0  0  0  0  0  0  0  0  0
   -0.6840   24.0070  -29.6890 C   0  0  0  0  0  0  0  0  0  0  0  0
   -1.8850   24.5810  -29.2660 C   0  0  0  0  0  0  0  0  0  0  0  0
   -1.9290   25.9340  -28.9390 O   0  0  0  0  0  0  0  0  0  0  0  0
   -5.5320   22.4420  -31.5310 C   0  0  0  0  0  0  0  0  0  0  0  0
   -6.1730   21.3040  -32.0200 C   0  0  0  0  0  0  0  0  0  0  0  0
   -3.6239   20.2625  -32.6245 H   0  0  0  0  0  0  0  0  0  0  0  0
   -4.1933   19.4033  -34.0956 H   0  0  0  0  0  0  0  0  0  0  0  0
   -4.0633   21.1949  -34.0956 H   0  0  0  0  0  0  0  0  0  0  0  0
  -10.0034   20.0631  -32.4262 H   0  0  0  0  0  0  0  0  0  0  0  0
   -8.9921   20.7861  -33.7228 H   0  0  0  0  0  0  0  0  0  0  0  0
   -9.3255   19.0210  -33.7228 H   0  0  0  0  0  0  0  0  0  0  0  0
   -8.0084   18.9395  -30.1983 H   0  0  0  0  0  0  0  0  0  0  0  0
   -9.0735   18.0791  -31.3610 H   0  0  0  0  0  0  0  0  0  0  0  0
   -7.3049   17.7648  -31.3610 H   0  0  0  0  0  0  0  0  0  0  0  0
   -9.0881   21.3945  -30.2471 H   0  0  0  0  0  0  0  0  0  0  0  0
   -7.9882   23.4684  -29.3604 H   0  0  0  0  0  0  0  0  0  0  0  0
   -3.9149   21.8323  -29.5148 H   0  0  0  0  0  0  0  0  0  0  0  0
   -1.1510   17.6036  -30.4834 H   0  0  0  0  0  0  0  0  0  0  0  0
   -0.0518   18.6388  -31.4710 H   0  0  0  0  0  0  0  0  0  0  0  0
    1.1508   16.7722  -30.3113 H   0  0  0  0  0  0  0  0  0  0  0  0
    1.7183   18.4169  -29.8069 H   0  0  0  0  0  0  0  0  0  0  0  0
    3.8567   15.3698  -27.9797 H   0  0  0  0  0  0  0  0  0  0  0  0
    2.5684   15.3068  -29.2299 H   0  0  0  0  0  0  0  0  0  0  0  0
    3.7547   16.6556  -29.2299 H   0  0  0  0  0  0  0  0  0  0  0  0
   -1.1574   18.0227  -27.4154 H   0  0  0  0  0  0  0  0  0  0  0  0
    0.4148   18.5955  -26.6777 H   0  0  0  0  0  0  0  0  0  0  0  0
   -0.9504   20.4019  -27.7993 H   0  0  0  0  0  0  0  0  0  0  0  0
    0.7342   20.2123  -28.4023 H   0  0  0  0  0  0  0  0  0  0  0  0
    0.3140   22.2115  -30.3821 H   0  0  0  0  0  0  0  0  0  0  0  0
    0.2258   24.6224  -29.7490 H   0  0  0  0  0  0  0  0  0  0  0  0
   -4.5303   22.7199  -31.8906 H   0  0  0  0  0  0  0  0  0  0  0  0
  1  2  1  0
  2  3  1  0
  3  4  2  0
  3  5  1  0
  5  6  1  0
  5  7  1  0
  5  8  1  0
  8  9  2  0
  9 10  1  0
 10 11  2  0
 11 12  1  0
 12 13  2  0
 12 14  2  0
 12 15  1  0
 15 16  1  0
 16 17  2  0
 17 18  1  0
 18 19  1  0
 19 20  2  0
 19 21  1  0
 21 22  1  0
 22 23  1  0
 23 24  1  0
 24 25  1  0
 25 26  1  0
 25 27  2  0
 25 28  2  0
 24 29  1  0
 29 30  1  0
 18 31  2  0
 31 32  1  0
 32 33  2  0
 33 34  1  0
 11 35  1  0
 35 36  2  0
 36  2  1  0
 36  8  1  0
 33 16  1  0
 30 21  1  0
  1 37  1  0
  1 38  1  0
  1 39  1  0
  6 40  1  0
  6 41  1  0
  6 42  1  0
  7 43  1  0
  7 44  1  0
  7 45  1  0
  9 46  1  0
 10 47  1  0
 17 48  1  0
 22 49  1  0
 22 50  1  0
 23 51  1  0
 23 52  1  0
 26 53  1  0
 26 54  1  0
 26 55  1  0
 29 56  1  0
 29 57  1  0
 30 58  1  0
 30 59  1  0
 31 60  1  0
 32 61  1  0
 35 62  1  0
M  CHG  2  15  -1  34  -1
M  END
>  <UniqueID>  (20) 
20

>  <SMILES>  (20) 
CN1C(=O)C(C)(C)c2ccc(S(=O)(=O)[N-]c3cc(C(=O)N4CCN(S(C)(=O)=O)CC4)ccc3[O-])cc21

>  <Energy>  (20) 
93.50523161976415

>  <Genealogy>  (20) 
CN1C(=O)C(C)(C)c2ccc(S(=O)(=O)[N-]c3cc(C(=O)N4CCN(S(C)(=O)=O)CC4)ccc3[O-])cc21 (protonated)
CN1C(=O)C(C)(C)c2ccc(S(=O)(=O)[N-]c3cc(C(=O)N4CCN(S(C)(=O)=O)CC4)ccc3[O-])cc21 (3D coordinates assigned)
CN1C(=O)C(C)(C)c2ccc(S(=O)(=O)[N-]c3cc(C(=O)N4CCN(S(C)(=O)=O)CC4)ccc3[O-])cc21 (nonaromatic ring conformer: 93.50523161976415 kcal/mol)

>  <smiles>  (20) 
CN1C(=O)C(C)(C)c2ccc(S(=O)(=O)Nc3cc(C(=O)N4CCN(S(C)(=O)=O)CC4)ccc3O)cc21

>  <score_type>  (20) 
oracle

>  <origin>  (20) 
adgpu

>  <m_score__min__energy>  (20) 
-15.199999999999999

>  <m_primary>  (20) 
energy

$$$$
20:0
     RDKit          3D

 64 69  0  0  0  0  0  0  0  0999 V2000
    0.7510   16.9790  -27.5730 O   0  0  0  0  0  0  0  0  0  0  0  0
    0.3770   17.6820  -28.5480 C   0  0  0  0  0  0  0  0  0  0  0  0
    0.3030   17.2830  -29.9440 C   0  0  0  0  0  0  0  0  0  0  0  0
    0.5950   16.1430  -30.3950 O   0  0  0  0  0  0  0  0  0  0  0  0
   -0.1700   18.3700  -30.7460 N   0  0  0  0  0  0  0  0  0  0  0  0
   -0.7530   18.2470  -32.0820 C   0  0  0  0  0  0  0  0  0  0  0  0
   -0.3200   19.4010  -32.9470 C   0  0  0  0  0  0  0  0  0  0  0  0
   -1.2410   20.3960  -33.3200 C   0  0  0  0  0  0  0  0  0  0  0  0
   -0.8470   21.4400  -34.1620 C   0  0  0  0  0  0  0  0  0  0  0  0
    0.4650   21.4980  -34.6430 C   0  0  0  0  0  0  0  0  0  0  0  0
    1.3860   20.5110  -34.2810 C   0  0  0  0  0  0  0  0  0  0  0  0
    2.6900   20.5680  -34.7600 O   0  0  0  0  0  0  0  0  0  0  0  0
    0.9960   19.4650  -33.4370 C   0  0  0  0  0  0  0  0  0  0  0  0
   -0.4060   19.4310  -29.8070 C   0  0  0  0  0  0  0  0  0  0  0  0
   -0.8850   20.7150  -30.0840 C   0  0  0  0  0  0  0  0  0  0  0  0
   -1.0560   21.6160  -29.0120 C   0  0  0  0  0  0  0  0  0  0  0  0
   -1.6550   23.2460  -29.3020 S   0  0  0  0  0  0  0  0  0  0  0  0
   -0.4860   24.1900  -29.3570 O   0  0  0  0  0  0  0  0  0  0  0  0
   -2.5830   23.6600  -28.1940 O   0  0  0  0  0  0  0  0  0  0  0  0
   -2.5090   23.2640  -30.8120 N   0  0  0  0  0  0  0  0  0  0  0  0
   -3.9360   23.2990  -30.9600 C   0  0  0  0  0  0  0  0  0  0  0  0
   -4.6830   22.1440  -31.2600 C   0  0  0  0  0  0  0  0  0  0  0  0
   -6.0840   22.2090  -31.3700 C   0  0  0  0  0  0  0  0  0  0  0  0
   -6.8640   20.9860  -31.6690 C   0  0  0  0  0  0  0  0  0  0  0  0
   -8.0030   20.8410  -31.1460 O   0  0  0  0  0  0  0  0  0  0  0  0
   -6.3400   19.9520  -32.5290 N   0  0  0  0  0  0  0  0  0  0  0  0
   -5.3090   20.2730  -33.5210 C   0  0  0  0  0  0  0  0  0  0  0  0
   -4.2890   19.1400  -33.5830 C   0  0  0  0  0  0  0  0  0  0  0  0
   -4.9670   17.8070  -33.7600 C   0  0  0  0  0  0  0  0  0  0  0  0
   -4.2460   16.7370  -34.3130 C   0  0  0  0  0  0  0  0  0  0  0  0
   -4.8410   15.4800  -34.4500 C   0  0  0  0  0  0  0  0  0  0  0  0
   -6.1550   15.2790  -34.0260 C   0  0  0  0  0  0  0  0  0  0  0  0
   -6.8760   16.3300  -33.4540 C   0  0  0  0  0  0  0  0  0  0  0  0
   -6.2900   17.5960  -33.3040 C   0  0  0  0  0  0  0  0  0  0  0  0
   -7.1110   18.7120  -32.6940 C   0  0  0  0  0  0  0  0  0  0  0  0
   -6.7290   23.4460  -31.2170 C   0  0  0  0  0  0  0  0  0  0  0  0
   -5.9910   24.5950  -30.9270 C   0  0  0  0  0  0  0  0  0  0  0  0
   -4.6000   24.5230  -30.7940 C   0  0  0  0  0  0  0  0  0  0  0  0
   -3.8810   25.6750  -30.4960 O   0  0  0  0  0  0  0  0  0  0  0  0
   -0.7330   21.2190  -27.6950 C   0  0  0  0  0  0  0  0  0  0  0  0
   -0.2440   19.9290  -27.4370 C   0  0  0  0  0  0  0  0  0  0  0  0
   -0.0890   19.0580  -28.5120 C   0  0  0  0  0  0  0  0  0  0  0  0
   -0.4177   17.3044  -32.5393 H   0  0  0  0  0  0  0  0  0  0  0  0
   -1.8497   18.2541  -31.9969 H   0  0  0  0  0  0  0  0  0  0  0  0
   -2.2752   20.3527  -32.9479 H   0  0  0  0  0  0  0  0  0  0  0  0
   -1.5707   22.2179  -34.4470 H   0  0  0  0  0  0  0  0  0  0  0  0
    0.7720   22.3202  -35.3061 H   0  0  0  0  0  0  0  0  0  0  0  0
    1.7230   18.6889  -33.1556 H   0  0  0  0  0  0  0  0  0  0  0  0
   -1.1232   21.0160  -31.1149 H   0  0  0  0  0  0  0  0  0  0  0  0
   -4.1675   21.1838  -31.4095 H   0  0  0  0  0  0  0  0  0  0  0  0
   -5.7773   20.3986  -34.5084 H   0  0  0  0  0  0  0  0  0  0  0  0
   -4.8022   21.2058  -33.2329 H   0  0  0  0  0  0  0  0  0  0  0  0
   -3.6111   19.3134  -34.4317 H   0  0  0  0  0  0  0  0  0  0  0  0
   -3.7286   19.1232  -32.6366 H   0  0  0  0  0  0  0  0  0  0  0  0
   -3.2069   16.8888  -34.6403 H   0  0  0  0  0  0  0  0  0  0  0  0
   -4.2730   14.6484  -34.8925 H   0  0  0  0  0  0  0  0  0  0  0  0
   -6.6242   14.2909  -34.1424 H   0  0  0  0  0  0  0  0  0  0  0  0
   -7.9104   16.1639  -33.1188 H   0  0  0  0  0  0  0  0  0  0  0  0
   -7.9710   18.9158  -33.3488 H   0  0  0  0  0  0  0  0  0  0  0  0
   -7.4326   18.3828  -31.6949 H   0  0  0  0  0  0  0  0  0  0  0  0
   -7.8217   23.5105  -31.3261 H   0  0  0  0  0  0  0  0  0  0  0  0
   -6.5046   25.5598  -30.8027 H   0  0  0  0  0  0  0  0  0  0  0  0
   -0.8660   21.9276  -26.8642 H   0  0  0  0  0  0  0  0  0  0  0  0
    0.0098   19.6148  -26.4138 H   0  0  0  0  0  0  0  0  0  0  0  0
  1  2  2  0
  2  3  1  0
  3  4  2  0
  3  5  1  0
  5  6  1  0
  6  7  1  0
  7  8  2  0
  8  9  1  0
  9 10  2  0
 10 11  1  0
 11 12  1  0
 11 13  2  0
  5 14  1  0
 14 15  2  0
 15 16  1  0
 16 17  1  0
 17 18  2  0
 17 19  2  0
 17 20  1  0
 20 21  1  0
 21 22  2  0
 22 23  1  0
 23 24  1  0
 24 25  2  0
 24 26  1  0
 26 27  1  0
 27 28  1  0
 28 29  1  0
 29 30  2  0
 30 31  1  0
 31 32  2  0
 32 33  1  0
 33 34  2  0
 34 35  1  0
 23 36  2  0
 36 37  1  0
 37 38  2  0
 38 39  1  0
 16 40  2  0
 40 41  1  0
 41 42  2  0
 42  2  1  0
 13  7  1  0
 42 14  1  0
 38 21  1  0
 35 26  1  0
 34 29  1  0
  6 43  1  0
  6 44  1  0
  8 45  1  0
  9 46  1  0
 10 47  1  0
 13 48  1  0
 15 49  1  0
 22 50  1  0
 27 51  1  0
 27 52  1  0
 28 53  1  0
 28 54  1  0
 30 55  1  0
 31 56  1  0
 32 57  1  0
 33 58  1  0
 35 59  1  0
 35 60  1  0
 36 61  1  0
 37 62  1  0
 40 63  1  0
 41 64  1  0
M  CHG  3  12  -1  20  -1  39  -1
M  END
>  <UniqueID>  (21) 
21

>  <SMILES>  (21) 
O=C1C(=O)N(Cc2cccc([O-])c2)c2cc(S(=O)(=O)[N-]c3cc(C(=O)N4CCc5ccccc5C4)ccc3[O-])ccc21

>  <Energy>  (21) 
112.99436534060213

>  <Genealogy>  (21) 
O=C1C(=O)N(Cc2cccc([O-])c2)c2cc(S(=O)(=O)[N-]c3cc(C(=O)N4CCc5ccccc5C4)ccc3[O-])ccc21 (protonated)
O=C1C(=O)N(Cc2cccc([O-])c2)c2cc(S(=O)(=O)[N-]c3cc(C(=O)N4CCc5ccccc5C4)ccc3[O-])ccc21 (3D coordinates assigned)
O=C1C(=O)N(Cc2cccc([O-])c2)c2cc(S(=O)(=O)[N-]c3cc(C(=O)N4CCc5ccccc5C4)ccc3[O-])ccc21 (nonaromatic ring conformer: 112.99436534060213 kcal/mol)

>  <smiles>  (21) 
O=C1C(=O)N(Cc2cccc(O)c2)c2cc(S(=O)(=O)Nc3cc(C(=O)N4CCc5ccccc5C4)ccc3O)ccc21

>  <score_type>  (21) 
oracle

>  <origin>  (21) 
adgpu

>  <m_score__min__energy>  (21) 
-16.359999999999999

>  <m_primary>  (21) 
energy

$$$$
21:0
     RDKit          3D

 59 62  0  0  0  0  0  0  0  0999 V2000
   -0.5110   17.8110  -32.7460 C   0  0  0  0  0  0  0  0  0  0  0  0
   -1.2830   18.9270  -33.3900 C   0  0  0  0  0  0  0  0  0  0  0  0
   -1.6520   18.8120  -34.5940 O   0  0  0  0  0  0  0  0  0  0  0  0
   -1.5990   20.1620  -32.6370 C   0  0  0  0  0  0  0  0  0  0  0  0
   -1.3270   20.3730  -31.2940 C   0  0  0  0  0  0  0  0  0  0  0  0
   -1.7860   21.6460  -31.0210 C   0  0  0  0  0  0  0  0  0  0  0  0
   -1.7000   22.4770  -29.4800 S   0  0  0  0  0  0  0  0  0  0  0  0
   -0.6030   23.5010  -29.5140 O   0  0  0  0  0  0  0  0  0  0  0  0
   -1.4050   21.4670  -28.4080 O   0  0  0  0  0  0  0  0  0  0  0  0
   -3.2200   23.2480  -29.1660 N   0  0  0  0  0  0  0  0  0  0  0  0
   -4.3240   23.2960  -30.0800 C   0  0  0  0  0  0  0  0  0  0  0  0
   -5.1080   22.1610  -30.3560 C   0  0  0  0  0  0  0  0  0  0  0  0
   -6.1240   22.2130  -31.3240 C   0  0  0  0  0  0  0  0  0  0  0  0
   -6.9010   21.0000  -31.6460 C   0  0  0  0  0  0  0  0  0  0  0  0
   -8.0680   20.8840  -31.1840 O   0  0  0  0  0  0  0  0  0  0  0  0
   -6.3450   19.9440  -32.4580 N   0  0  0  0  0  0  0  0  0  0  0  0
   -4.8920   19.7130  -32.5060 C   0  0  0  0  0  0  0  0  0  0  0  0
   -4.6120   18.2150  -32.3890 C   0  0  0  0  0  0  0  0  0  0  0  0
   -5.2860   17.3980  -33.5230 C   0  0  0  0  0  0  0  0  0  0  0  0
   -5.6870   15.9850  -33.0400 C   0  0  0  0  0  0  0  0  0  0  0  0
   -4.4840   15.1320  -32.7150 C   0  0  0  0  0  0  0  0  0  0  0  0
   -4.5920   14.0660  -31.8040 C   0  0  0  0  0  0  0  0  0  0  0  0
   -3.4690   13.2990  -31.4820 C   0  0  0  0  0  0  0  0  0  0  0  0
   -2.2290   13.5920  -32.0650 C   0  0  0  0  0  0  0  0  0  0  0  0
   -2.1120   14.6510  -32.9710 C   0  0  0  0  0  0  0  0  0  0  0  0
   -3.2360   15.4190  -33.2950 C   0  0  0  0  0  0  0  0  0  0  0  0
   -6.5020   18.1330  -34.1480 C   0  0  0  0  0  0  0  0  0  0  0  0
   -7.2540   19.0050  -33.1330 C   0  0  0  0  0  0  0  0  0  0  0  0
   -6.3810   23.4200  -31.9870 C   0  0  0  0  0  0  0  0  0  0  0  0
   -5.6350   24.5610  -31.6820 C   0  0  0  0  0  0  0  0  0  0  0  0
   -4.6100   24.5020  -30.7360 C   0  0  0  0  0  0  0  0  0  0  0  0
   -3.8620   25.6420  -30.4610 O   0  0  0  0  0  0  0  0  0  0  0  0
   -2.3110   22.1600  -32.1890 C   0  0  0  0  0  0  0  0  0  0  0  0
   -2.1970   21.2500  -33.1730 N   0  0  0  0  0  0  0  0  0  0  0  0
   -0.5755   17.9043  -31.6519 H   0  0  0  0  0  0  0  0  0  0  0  0
   -0.9347   16.8448  -33.0573 H   0  0  0  0  0  0  0  0  0  0  0  0
    0.5426   17.8667  -33.0573 H   0  0  0  0  0  0  0  0  0  0  0  0
   -0.8468   19.6737  -30.5938 H   0  0  0  0  0  0  0  0  0  0  0  0
   -4.9236   21.2247  -29.8088 H   0  0  0  0  0  0  0  0  0  0  0  0
   -4.4921   20.0877  -33.4598 H   0  0  0  0  0  0  0  0  0  0  0  0
   -4.4079   20.2435  -31.6728 H   0  0  0  0  0  0  0  0  0  0  0  0
   -3.5248   18.0539  -32.4355 H   0  0  0  0  0  0  0  0  0  0  0  0
   -5.0296   17.8690  -31.4320 H   0  0  0  0  0  0  0  0  0  0  0  0
   -4.5321   17.2912  -34.3168 H   0  0  0  0  0  0  0  0  0  0  0  0
   -6.3073   16.0819  -32.1368 H   0  0  0  0  0  0  0  0  0  0  0  0
   -6.2402   15.4936  -33.8539 H   0  0  0  0  0  0  0  0  0  0  0  0
   -5.5638   13.8351  -31.3433 H   0  0  0  0  0  0  0  0  0  0  0  0
   -3.5586   12.4649  -30.7705 H   0  0  0  0  0  0  0  0  0  0  0  0
   -1.3459   12.9879  -31.8096 H   0  0  0  0  0  0  0  0  0  0  0  0
   -1.1380   14.8798  -33.4282 H   0  0  0  0  0  0  0  0  0  0  0  0
   -3.1425   16.2519  -34.0074 H   0  0  0  0  0  0  0  0  0  0  0  0
   -6.1426   18.7753  -34.9655 H   0  0  0  0  0  0  0  0  0  0  0  0
   -7.2027   17.3664  -34.5104 H   0  0  0  0  0  0  0  0  0  0  0  0
   -8.0332   19.5761  -33.6590 H   0  0  0  0  0  0  0  0  0  0  0  0
   -7.7002   18.3467  -32.3730 H   0  0  0  0  0  0  0  0  0  0  0  0
   -7.1722   23.4694  -32.7496 H   0  0  0  0  0  0  0  0  0  0  0  0
   -5.8564   25.5112  -32.1900 H   0  0  0  0  0  0  0  0  0  0  0  0
   -2.7547   23.1605  -32.2986 H   0  0  0  0  0  0  0  0  0  0  0  0
   -2.5190   21.3760  -34.1610 H   0  0  0  0  0  0  0  0  0  0  0  0
  1  2  1  0
  2  3  2  0
  2  4  1  0
  4  5  2  0
  5  6  1  0
  6  7  1  0
  7  8  2  0
  7  9  2  0
  7 10  1  0
 10 11  1  0
 11 12  2  0
 12 13  1  0
 13 14  1  0
 14 15  2  0
 14 16  1  0
 16 17  1  0
 17 18  1  0
 18 19  1  0
 19 20  1  0
 20 21  1  0
 21 22  2  0
 22 23  1  0
 23 24  2  0
 24 25  1  0
 25 26  2  0
 19 27  1  0
 27 28  1  0
 13 29  2  0
 29 30  1  0
 30 31  2  0
 31 32  1  0
  6 33  2  0
 33 34  1  0
 34  4  1  0
 31 11  1  0
 28 16  1  0
 26 21  1  0
  1 35  1  0
  1 36  1  0
  1 37  1  0
  5 38  1  0
 12 39  1  0
 17 40  1  0
 17 41  1  0
 18 42  1  0
 18 43  1  0
 19 44  1  0
 20 45  1  0
 20 46  1  0
 22 47  1  0
 23 48  1  0
 24 49  1  0
 25 50  1  0
 26 51  1  0
 27 52  1  0
 27 53  1  0
 28 54  1  0
 28 55  1  0
 29 56  1  0
 30 57  1  0
 33 58  1  0
 34 59  1  0
M  CHG  2  10  -1  32  -1
M  END
>  <UniqueID>  (22) 
22

>  <SMILES>  (22) 
CC(=O)c1cc(S(=O)(=O)[N-]c2cc(C(=O)N3CCC(Cc4ccccc4)CC3)ccc2[O-])c[nH]1

>  <Energy>  (22) 
96.24896338464549

>  <Genealogy>  (22) 
CC(=O)c1cc(S(=O)(=O)[N-]c2cc(C(=O)N3CCC(Cc4ccccc4)CC3)ccc2[O-])c[nH]1 (protonated)
CC(=O)c1cc(S(=O)(=O)[N-]c2cc(C(=O)N3CCC(Cc4ccccc4)CC3)ccc2[O-])c[nH]1 (3D coordinates assigned)
CC(=O)c1cc(S(=O)(=O)[N-]c2cc(C(=O)N3CCC(Cc4ccccc4)CC3)ccc2[O-])c[nH]1 (nonaromatic ring conformer: 96.24896338464549 kcal/mol)

>  <smiles>  (22) 
CC(=O)c1cc(S(=O)(=O)Nc2cc(C(=O)N3CCC(Cc4ccccc4)CC3)ccc2O)c[nH]1

>  <score_type>  (22) 
oracle

>  <origin>  (22) 
adgpu

>  <m_score__min__energy>  (22) 
-13.119999999999999

>  <m_primary>  (22) 
energy

$$$$
22:0
     RDKit          3D

 63 67  0  0  1  0  0  0  0  0999 V2000
   -4.2870   15.7940  -34.2620 C   0  0  0  0  0  0  0  0  0  0  0  0
   -6.0330   15.9590  -33.7350 S   0  0  0  0  0  0  0  0  0  0  0  0
   -6.3750   17.6430  -33.2420 C   0  0  0  0  0  0  0  0  0  0  0  0
   -7.6610   18.0230  -33.0510 N   0  0  0  0  0  0  0  0  0  0  0  0
   -7.9850   19.2780  -32.6790 C   0  0  0  0  0  0  0  0  0  0  0  0
   -9.3020   19.6770  -32.4800 C   0  0  0  0  0  0  0  0  0  0  0  0
   -9.5940   20.9860  -32.0940 C   0  0  0  0  0  0  0  0  0  0  0  0
   -8.5510   21.8930  -31.9090 C   0  0  0  0  0  0  0  0  0  0  0  0
   -7.2410   21.5010  -32.1050 C   0  0  0  0  0  0  0  0  0  0  0  0
   -6.9680   20.1930  -32.4880 C   0  0  0  0  0  0  0  0  0  0  0  0
   -5.6760   19.7600  -32.6950 C   0  0  0  0  0  0  0  0  0  0  0  0
   -4.7330   20.6130  -32.5170 N   0  0  0  0  0  0  0  0  0  0  0  0
   -3.3470   20.3320  -32.6860 C   0  0  0  0  0  0  0  0  0  0  0  0
   -2.9100   20.1330  -34.0000 C   0  0  0  0  0  0  0  0  0  0  0  0
   -1.5630   19.8550  -34.2120 C   0  0  0  0  0  0  0  0  0  0  0  0
   -0.6800   19.7780  -33.1580 C   0  0  0  0  0  0  0  0  0  0  0  0
   -1.1230   19.9760  -31.8560 C   0  0  0  0  0  0  0  0  0  0  0  0
   -2.4610   20.2530  -31.6300 C   0  0  0  0  0  0  0  0  0  0  0  0
   -3.0740   20.5170  -29.9540 S   0  0  0  0  0  0  0  0  0  0  0  0
   -2.8030   22.2630  -29.6210 C   0  0  0  0  0  0  0  0  0  0  0  0
   -1.8600   22.5690  -28.6420 C   0  0  0  0  0  0  0  0  0  0  0  0
   -1.6030   23.8940  -28.3370 C   0  0  0  0  0  0  0  0  0  0  0  0
   -0.4080   24.2010  -27.0970 S   0  0  0  0  0  0  0  0  0  0  0  0
    0.6120   25.2090  -27.5880 O   0  0  0  0  0  0  0  0  0  0  0  0
    0.3270   22.9500  -26.7920 O   0  0  0  0  0  0  0  0  0  0  0  0
   -1.1070   24.9040  -25.6760 N   0  0  0  0  0  0  0  0  0  0  0  0
   -0.1360   25.0960  -24.6410 C   0  0  0  0  0  0  0  0  0  0  0  0
   -0.5850   26.1060  -23.6150 C   0  0  0  0  0  0  0  0  0  0  0  0
   -0.7950   27.4770  -24.2060 C   0  0  0  0  0  0  0  0  0  0  0  0
   -0.8110   27.2780  -25.7260 C   0  0  0  0  0  0  0  0  0  0  0  0
   -1.7740   26.1460  -26.0050 C   0  0  0  0  0  0  0  0  0  0  0  0
   -2.2730   24.9040  -28.9970 C   0  0  0  0  0  0  0  0  0  0  0  0
   -3.2080   24.5700  -29.9710 C   0  0  0  0  0  0  0  0  0  0  0  0
   -3.8680   25.6050  -30.6200 O   0  0  0  0  0  0  0  0  0  0  0  0
   -3.4860   23.2530  -30.2970 C   0  0  0  0  0  0  0  0  0  0  0  0
   -4.4150   22.9120  -31.2630 O   0  0  0  0  0  0  0  0  0  0  0  0
   -5.3490   18.5200  -33.0630 N   0  0  0  0  0  0  0  0  0  0  0  0
   -3.6403   15.7329  -33.3743 H   0  0  0  0  0  0  0  0  0  0  0  0
   -4.1705   14.8808  -34.8641 H   0  0  0  0  0  0  0  0  0  0  0  0
   -4.0015   16.6692  -34.8641 H   0  0  0  0  0  0  0  0  0  0  0  0
  -10.1194   18.9559  -32.6278 H   0  0  0  0  0  0  0  0  0  0  0  0
  -10.6367   21.2993  -31.9372 H   0  0  0  0  0  0  0  0  0  0  0  0
   -8.7728   22.9267  -31.6052 H   0  0  0  0  0  0  0  0  0  0  0  0
   -6.4201   22.2185  -31.9591 H   0  0  0  0  0  0  0  0  0  0  0  0
   -3.6130   20.1947  -34.8438 H   0  0  0  0  0  0  0  0  0  0  0  0
   -1.1980   19.6943  -35.2372 H   0  0  0  0  0  0  0  0  0  0  0  0
    0.3811   19.5587  -33.3478 H   0  0  0  0  0  0  0  0  0  0  0  0
   -0.4184   19.9134  -31.0136 H   0  0  0  0  0  0  0  0  0  0  0  0
   -1.3247   21.7646  -28.1163 H   0  0  0  0  0  0  0  0  0  0  0  0
    0.0390   24.1339  -24.1373 H   0  0  0  0  0  0  0  0  0  0  0  0
    0.7835   25.4777  -25.1089 H   0  0  0  0  0  0  0  0  0  0  0  0
   -1.5327   25.7632  -23.1741 H   0  0  0  0  0  0  0  0  0  0  0  0
    0.2083   26.1872  -22.8573 H   0  0  0  0  0  0  0  0  0  0  0  0
   -1.7518   27.8989  -23.8647 H   0  0  0  0  0  0  0  0  0  0  0  0
   -0.0043   28.1766  -23.8974 H   0  0  0  0  0  0  0  0  0  0  0  0
   -1.1513   28.1972  -26.2253 H   0  0  0  0  0  0  0  0  0  0  0  0
    0.1948   27.0449  -26.1055 H   0  0  0  0  0  0  0  0  0  0  0  0
   -2.6760   26.2613  -25.3860 H   0  0  0  0  0  0  0  0  0  0  0  0
   -2.0754   26.1509  -27.0629 H   0  0  0  0  0  0  0  0  0  0  0  0
   -2.0705   25.9580  -28.7562 H   0  0  0  0  0  0  0  0  0  0  0  0
   -4.1090   25.5540  -31.5900 H   0  0  0  0  0  0  0  0  0  0  0  0
   -4.6440   21.9310  -31.4350 H   0  0  0  0  0  0  0  0  0  0  0  0
   -4.3510   18.2330  -33.2080 H   0  0  0  0  0  0  0  0  0  0  0  0
  1  2  1  0
  2  3  1  0
  3  4  2  0
  4  5  1  0
  5  6  2  0
  6  7  1  0
  7  8  2  0
  8  9  1  0
  9 10  2  0
 10 11  1  0
 11 12  2  0
 12 13  1  0
 13 14  2  0
 14 15  1  0
 15 16  2  0
 16 17  1  0
 17 18  2  0
 18 19  1  0
 19 20  1  0
 20 21  2  0
 21 22  1  0
 22 23  1  0
 23 24  2  0
 23 25  2  0
 23 26  1  0
 26 27  1  0
 27 28  1  0
 28 29  1  0
 29 30  1  0
 30 31  1  0
 22 32  2  0
 32 33  1  0
 33 34  1  0
 33 35  2  0
 35 36  1  0
 11 37  1  0
 37  3  1  0
 10  5  1  0
 18 13  1  0
 35 20  1  0
 31 26  1  0
  1 38  1  0
  1 39  1  0
  1 40  1  0
  6 41  1  0
  7 42  1  0
  8 43  1  0
  9 44  1  0
 14 45  1  0
 15 46  1  0
 16 47  1  0
 17 48  1  0
 21 49  1  0
 27 50  1  0
 27 51  1  0
 28 52  1  0
 28 53  1  0
 29 54  1  0
 29 55  1  0
 30 56  1  0
 30 57  1  0
 31 58  1  0
 31 59  1  0
 32 60  1  0
 34 61  1  0
 36 62  1  0
 37 63  1  0
M  END
>  <smiles>  (23) 
CSc1nc2ccccc2c(=Nc2ccccc2Sc2cc(S(=O)(=O)N3CCCCC3)cc(O)c2O)[nH]1

>  <score_type>  (23) 
oracle

>  <origin>  (23) 
adgpu

>  <m_score__min__energy>  (23) 
-12.039999999999999

>  <m_primary>  (23) 
energy

$$$$
23:0
     RDKit          3D

 52 55  0  0  0  0  0  0  0  0999 V2000
   -5.0350   24.0400  -29.3140 O   0  0  0  0  0  0  0  0  0  0  0  0
   -3.9990   24.2180  -30.3880 S   0  0  0  0  0  0  0  0  0  0  0  0
   -4.0310   25.6470  -30.8460 O   0  0  0  0  0  0  0  0  0  0  0  0
   -4.3500   23.1960  -31.7420 N   0  0  0  0  0  0  0  0  0  0  0  0
   -5.6030   22.5270  -31.8900 C   0  0  0  0  0  0  0  0  0  0  0  0
   -5.6130   21.2200  -32.3930 C   0  0  0  0  0  0  0  0  0  0  0  0
   -6.8150   20.5090  -32.4940 C   0  0  0  0  0  0  0  0  0  0  0  0
   -8.0190   21.1110  -32.0990 C   0  0  0  0  0  0  0  0  0  0  0  0
   -8.0210   22.4410  -31.6540 C   0  0  0  0  0  0  0  0  0  0  0  0
   -6.8220   23.1610  -31.5680 C   0  0  0  0  0  0  0  0  0  0  0  0
   -6.8740   24.5040  -31.2030 O   0  0  0  0  0  0  0  0  0  0  0  0
   -9.2970   20.3310  -32.2480 C   0  0  0  0  0  0  0  0  0  0  0  0
   -9.1200   18.8660  -31.8010 C   0  0  0  0  0  0  0  0  0  0  0  0
   -7.7530   18.2250  -32.1710 C   0  0  0  0  0  0  0  0  0  0  0  0
   -6.8590   19.1130  -33.0480 C   0  0  0  0  0  0  0  0  0  0  0  0
   -2.4210   23.7750  -29.7280 C   0  0  0  0  0  0  0  0  0  0  0  0
   -2.0150   22.4330  -29.8300 C   0  0  0  0  0  0  0  0  0  0  0  0
   -0.7780   22.0250  -29.3110 C   0  0  0  0  0  0  0  0  0  0  0  0
   -0.2720   20.3380  -29.4480 S   0  0  0  0  0  0  0  0  0  0  0  0
   -1.3130   19.4560  -28.8200 O   0  0  0  0  0  0  0  0  0  0  0  0
    1.0150   20.1480  -28.6920 O   0  0  0  0  0  0  0  0  0  0  0  0
   -0.0400   19.8580  -31.1140 N   0  0  0  0  0  0  0  0  0  0  0  0
   -1.1460   19.0140  -31.5800 C   0  0  0  0  0  0  0  0  0  0  0  0
   -2.1230   19.8900  -32.3550 C   0  0  0  0  0  0  0  0  0  0  0  0
   -1.3930   21.1880  -32.6260 C   0  0  0  0  0  0  0  0  0  0  0  0
   -0.0130   21.0240  -32.0030 C   0  0  0  0  0  0  0  0  0  0  0  0
    0.0460   22.9610  -28.6710 C   0  0  0  0  0  0  0  0  0  0  0  0
   -0.3550   24.2930  -28.5640 C   0  0  0  0  0  0  0  0  0  0  0  0
   -1.5820   24.7080  -29.0890 C   0  0  0  0  0  0  0  0  0  0  0  0
   -1.9560   26.0380  -28.9620 O   0  0  0  0  0  0  0  0  0  0  0  0
   -4.6709   20.7492  -32.7106 H   0  0  0  0  0  0  0  0  0  0  0  0
   -8.9691   22.9216  -31.3709 H   0  0  0  0  0  0  0  0  0  0  0  0
   -6.0500   25.0210  -30.9420 H   0  0  0  0  0  0  0  0  0  0  0  0
  -10.0768   20.8013  -31.6310 H   0  0  0  0  0  0  0  0  0  0  0  0
   -9.5825   20.3357  -33.3103 H   0  0  0  0  0  0  0  0  0  0  0  0
   -9.2295   18.8277  -30.7071 H   0  0  0  0  0  0  0  0  0  0  0  0
   -9.8856   18.2869  -32.3381 H   0  0  0  0  0  0  0  0  0  0  0  0
   -7.2119   18.0041  -31.2391 H   0  0  0  0  0  0  0  0  0  0  0  0
   -7.9757   17.3221  -32.7585 H   0  0  0  0  0  0  0  0  0  0  0  0
   -5.8408   18.6972  -33.0678 H   0  0  0  0  0  0  0  0  0  0  0  0
   -7.2710   19.1432  -34.0675 H   0  0  0  0  0  0  0  0  0  0  0  0
   -2.6715   21.6988  -30.3198 H   0  0  0  0  0  0  0  0  0  0  0  0
   -0.7577   18.2204  -32.2353 H   0  0  0  0  0  0  0  0  0  0  0  0
   -1.6534   18.5471  -30.7230 H   0  0  0  0  0  0  0  0  0  0  0  0
   -2.4042   19.4046  -33.3012 H   0  0  0  0  0  0  0  0  0  0  0  0
   -3.0502   20.0594  -31.7879 H   0  0  0  0  0  0  0  0  0  0  0  0
   -1.3066   21.3603  -33.7090 H   0  0  0  0  0  0  0  0  0  0  0  0
   -1.9289   22.0505  -32.2031 H   0  0  0  0  0  0  0  0  0  0  0  0
    0.7355   20.8702  -32.7942 H   0  0  0  0  0  0  0  0  0  0  0  0
    0.2533   21.9265  -31.4333 H   0  0  0  0  0  0  0  0  0  0  0  0
    1.0123   22.6442  -28.2516 H   0  0  0  0  0  0  0  0  0  0  0  0
    0.2991   25.0217  -28.0629 H   0  0  0  0  0  0  0  0  0  0  0  0
  1  2  2  0
  2  3  2  0
  2  4  1  0
  4  5  1  0
  5  6  2  0
  6  7  1  0
  7  8  2  0
  8  9  1  0
  9 10  2  0
 10 11  1  0
  8 12  1  0
 12 13  1  0
 13 14  1  0
 14 15  1  0
  2 16  1  0
 16 17  2  0
 17 18  1  0
 18 19  1  0
 19 20  2  0
 19 21  2  0
 19 22  1  0
 22 23  1  0
 23 24  1  0
 24 25  1  0
 25 26  1  0
 18 27  2  0
 27 28  1  0
 28 29  2  0
 29 30  1  0
 10  5  1  0
 29 16  1  0
 15  7  1  0
 26 22  1  0
  6 31  1  0
  9 32  1  0
 11 33  1  0
 12 34  1  0
 12 35  1  0
 13 36  1  0
 13 37  1  0
 14 38  1  0
 14 39  1  0
 15 40  1  0
 15 41  1  0
 17 42  1  0
 23 43  1  0
 23 44  1  0
 24 45  1  0
 24 46  1  0
 25 47  1  0
 25 48  1  0
 26 49  1  0
 26 50  1  0
 27 51  1  0
 28 52  1  0
M  CHG  2   4  -1  30  -1
M  END
>  <UniqueID>  (24) 
23

>  <SMILES>  (24) 
O=S(=O)([N-]c1cc2c(cc1O)CCCC2)c1cc(S(=O)(=O)N2CCCC2)ccc1[O-]

>  <Energy>  (24) 
67.15612164105842

>  <Genealogy>  (24) 
O=S(=O)([N-]c1cc2c(cc1O)CCCC2)c1cc(S(=O)(=O)N2CCCC2)ccc1[O-] (protonated)
O=S(=O)([N-]c1cc2c(cc1O)CCCC2)c1cc(S(=O)(=O)N2CCCC2)ccc1[O-] (3D coordinates assigned)
O=S(=O)([N-]c1cc2c(cc1O)CCCC2)c1cc(S(=O)(=O)N2CCCC2)ccc1[O-] (nonaromatic ring conformer: 67.15612164105842 kcal/mol)

>  <smiles>  (24) 
O=S(=O)(Nc1cc2c(cc1O)CCCC2)c1cc(S(=O)(=O)N2CCCC2)ccc1O

>  <score_type>  (24) 
oracle

>  <origin>  (24) 
adgpu

>  <m_score__min__energy>  (24) 
-14.19

>  <m_primary>  (24) 
energy

$$$$
24:0
     RDKit          3D

 52 55  0  0  0  0  0  0  0  0999 V2000
   -3.3030   22.4700  -31.6050 C   0  0  0  0  0  0  0  0  0  0  0  0
   -4.7960   22.2640  -31.5420 C   0  0  0  0  0  0  0  0  0  0  0  0
   -5.3480   21.1410  -32.1840 C   0  0  0  0  0  0  0  0  0  0  0  0
   -6.7330   20.9030  -32.1590 C   0  0  0  0  0  0  0  0  0  0  0  0
   -7.5700   21.7930  -31.4640 C   0  0  0  0  0  0  0  0  0  0  0  0
   -7.0340   22.9130  -30.8250 C   0  0  0  0  0  0  0  0  0  0  0  0
   -5.6500   23.1560  -30.8400 C   0  0  0  0  0  0  0  0  0  0  0  0
   -5.0390   24.6010  -30.0120 S   0  0  0  0  0  0  0  0  0  0  0  0
   -3.9280   25.2200  -30.8140 O   0  0  0  0  0  0  0  0  0  0  0  0
   -6.1330   25.6210  -29.8840 O   0  0  0  0  0  0  0  0  0  0  0  0
   -4.4150   24.1400  -28.4580 N   0  0  0  0  0  0  0  0  0  0  0  0
   -3.1760   23.4550  -28.2440 C   0  0  0  0  0  0  0  0  0  0  0  0
   -3.1370   22.2070  -27.6030 C   0  0  0  0  0  0  0  0  0  0  0  0
   -1.9260   21.5140  -27.4750 C   0  0  0  0  0  0  0  0  0  0  0  0
   -0.7390   22.0760  -27.9590 C   0  0  0  0  0  0  0  0  0  0  0  0
   -0.7690   23.3570  -28.5250 C   0  0  0  0  0  0  0  0  0  0  0  0
   -1.9770   24.0430  -28.6800 C   0  0  0  0  0  0  0  0  0  0  0  0
   -1.9640   25.2940  -29.2970 O   0  0  0  0  0  0  0  0  0  0  0  0
    0.5770   21.3300  -27.8400 C   0  0  0  0  0  0  0  0  0  0  0  0
    0.4620   19.8500  -27.6380 N   0  0  0  0  0  0  0  0  0  0  0  0
    1.3300   19.1150  -28.5890 C   0  0  0  0  0  0  0  0  0  0  0  0
   -0.9150   19.3060  -27.6960 C   0  0  0  0  0  0  0  0  0  0  0  0
   -1.8730   20.1510  -26.8650 C   0  0  0  0  0  0  0  0  0  0  0  0
   -8.9510   21.5610  -31.4220 O   0  0  0  0  0  0  0  0  0  0  0  0
   -9.5150   20.3170  -31.8350 C   0  0  0  0  0  0  0  0  0  0  0  0
   -8.7880   19.7980  -33.0800 C   0  0  0  0  0  0  0  0  0  0  0  0
   -7.3350   19.7760  -32.8400 N   0  0  0  0  0  0  0  0  0  0  0  0
   -6.5370   18.6240  -33.2660 C   0  0  0  0  0  0  0  0  0  0  0  0
   -2.8972   22.5260  -30.5841 H   0  0  0  0  0  0  0  0  0  0  0  0
   -2.8388   21.6274  -32.1384 H   0  0  0  0  0  0  0  0  0  0  0  0
   -3.0843   23.4068  -32.1384 H   0  0  0  0  0  0  0  0  0  0  0  0
   -4.6866   20.4391  -32.7131 H   0  0  0  0  0  0  0  0  0  0  0  0
   -7.7031   23.6134  -30.3037 H   0  0  0  0  0  0  0  0  0  0  0  0
   -4.0623   21.7705  -27.1989 H   0  0  0  0  0  0  0  0  0  0  0  0
    0.1695   23.8288  -28.8515 H   0  0  0  0  0  0  0  0  0  0  0  0
   -2.7780   25.6710  -29.7690 H   0  0  0  0  0  0  0  0  0  0  0  0
    1.1495   21.5028  -28.7633 H   0  0  0  0  0  0  0  0  0  0  0  0
    1.0661   21.7217  -26.9359 H   0  0  0  0  0  0  0  0  0  0  0  0
    2.0523   18.5033  -28.0286 H   0  0  0  0  0  0  0  0  0  0  0  0
    0.7104   18.4627  -29.2220 H   0  0  0  0  0  0  0  0  0  0  0  0
    1.8712   19.8336  -29.2220 H   0  0  0  0  0  0  0  0  0  0  0  0
   -1.2555   19.3003  -28.7420 H   0  0  0  0  0  0  0  0  0  0  0  0
   -0.9051   18.2847  -27.2876 H   0  0  0  0  0  0  0  0  0  0  0  0
   -2.8753   19.6979  -26.8735 H   0  0  0  0  0  0  0  0  0  0  0  0
   -1.5280   20.2098  -25.8222 H   0  0  0  0  0  0  0  0  0  0  0  0
   -9.4133   19.5833  -31.0217 H   0  0  0  0  0  0  0  0  0  0  0  0
  -10.5785   20.4650  -32.0740 H   0  0  0  0  0  0  0  0  0  0  0  0
   -9.1355   18.7793  -33.3071 H   0  0  0  0  0  0  0  0  0  0  0  0
   -9.0045   20.4630  -33.9291 H   0  0  0  0  0  0  0  0  0  0  0  0
   -6.1655   18.0877  -32.3804 H   0  0  0  0  0  0  0  0  0  0  0  0
   -7.1614   17.9482  -33.8688 H   0  0  0  0  0  0  0  0  0  0  0  0
   -5.6848   18.9710  -33.8688 H   0  0  0  0  0  0  0  0  0  0  0  0
  1  2  1  0
  2  3  2  0
  3  4  1  0
  4  5  2  0
  5  6  1  0
  6  7  2  0
  7  8  1  0
  8  9  2  0
  8 10  2  0
  8 11  1  0
 11 12  1  0
 12 13  2  0
 13 14  1  0
 14 15  2  0
 15 16  1  0
 16 17  2  0
 17 18  1  0
 15 19  1  0
 19 20  1  0
 20 21  1  0
 20 22  1  0
 22 23  1  0
  5 24  1  0
 24 25  1  0
 25 26  1  0
 26 27  1  0
 27 28  1  0
  7  2  1  0
 17 12  1  0
 27  4  1  0
 23 14  1  0
  1 29  1  0
  1 30  1  0
  1 31  1  0
  3 32  1  0
  6 33  1  0
 13 34  1  0
 16 35  1  0
 18 36  1  0
 19 37  1  0
 19 38  1  0
 21 39  1  0
 21 40  1  0
 21 41  1  0
 22 42  1  0
 22 43  1  0
 23 44  1  0
 23 45  1  0
 25 46  1  0
 25 47  1  0
 26 48  1  0
 26 49  1  0
 28 50  1  0
 28 51  1  0
 28 52  1  0
M  CHG  1  11  -1
M  END
>  <UniqueID>  (25) 
24

>  <SMILES>  (25) 
Cc1cc2c(cc1S(=O)(=O)[N-]c1cc3c(cc1O)CN(C)CC3)OCCN2C

>  <Energy>  (25) 
74.50378729528406

>  <Genealogy>  (25) 
Cc1cc2c(cc1S(=O)(=O)[N-]c1cc3c(cc1O)CN(C)CC3)OCCN2C (protonated)
Cc1cc2c(cc1S(=O)(=O)[N-]c1cc3c(cc1O)CN(C)CC3)OCCN2C (3D coordinates assigned)
Cc1cc2c(cc1S(=O)(=O)[N-]c1cc3c(cc1O)CN(C)CC3)OCCN2C (nonaromatic ring conformer: 74.50378729528406 kcal/mol)

>  <smiles>  (25) 
Cc1cc2c(cc1S(=O)(=O)Nc1cc3c(cc1O)CN(C)CC3)OCCN2C

>  <score_type>  (25) 
oracle

>  <origin>  (25) 
adgpu

>  <m_score__min__energy>  (25) 
-11.6

>  <m_primary>  (25) 
energy

$$$$
25:0
     RDKit          3D

 40 42  0  0  0  0  0  0  0  0999 V2000
   -8.8978   18.1579  -32.0680 H   0  0  0  0  0  0  0  0  0  0  0  0
   -8.0910   18.8660  -32.3080 C   0  0  0  0  0  0  0  0  0  0  0  0
   -6.9490   18.4200  -32.9780 C   0  0  0  0  0  0  0  0  0  0  0  0
   -6.8631   17.3627  -33.2691 H   0  0  0  0  0  0  0  0  0  0  0  0
   -5.9090   19.3160  -33.2820 C   0  0  0  0  0  0  0  0  0  0  0  0
   -4.7010   18.8560  -34.0080 C   0  0  0  0  0  0  0  0  0  0  0  0
   -4.6760   17.6880  -34.4790 O   0  0  0  0  0  0  0  0  0  0  0  0
   -3.5330   19.6780  -34.1530 N   0  0  0  0  0  0  0  0  0  0  0  0
   -2.8520   20.2000  -33.1760 C   0  0  0  0  0  0  0  0  0  0  0  0
   -3.1800   20.1150  -31.8670 N   0  0  0  0  0  0  0  0  0  0  0  0
   -2.2850   20.7990  -31.0910 C   0  0  0  0  0  0  0  0  0  0  0  0
   -2.3980   20.8150  -29.6020 C   0  0  0  0  0  0  0  0  0  0  0  0
   -1.4019   20.6740  -29.1572 H   0  0  0  0  0  0  0  0  0  0  0  0
   -2.8117   21.7807  -29.2760 H   0  0  0  0  0  0  0  0  0  0  0  0
   -3.0636   20.0021  -29.2760 H   0  0  0  0  0  0  0  0  0  0  0  0
   -1.2610   21.4170  -31.7390 N   0  0  0  0  0  0  0  0  0  0  0  0
   -0.4880   21.9690  -31.3050 H   0  0  0  0  0  0  0  0  0  0  0  0
   -1.4780   21.1190  -33.3580 S   0  0  0  0  0  0  0  0  0  0  0  0
   -6.0440   20.6680  -32.9250 C   0  0  0  0  0  0  0  0  0  0  0  0
   -5.2472   21.3821  -33.1804 H   0  0  0  0  0  0  0  0  0  0  0  0
   -7.1860   21.1140  -32.2460 C   0  0  0  0  0  0  0  0  0  0  0  0
   -7.3390   22.8170  -31.8210 S   0  0  0  0  0  0  0  0  0  0  0  0
   -8.7030   23.0480  -31.2330 O   0  0  0  0  0  0  0  0  0  0  0  0
   -7.1970   23.6700  -33.0520 O   0  0  0  0  0  0  0  0  0  0  0  0
   -6.1150   23.2500  -30.6520 N   0  0  0  0  0  0  0  0  0  0  0  0
   -4.7720   23.0600  -31.2350 C   0  0  0  0  0  0  0  0  0  0  0  0
   -4.5003   21.9957  -31.1767 H   0  0  0  0  0  0  0  0  0  0  0  0
   -4.7913   23.3919  -32.2835 H   0  0  0  0  0  0  0  0  0  0  0  0
   -3.7270   23.8900  -30.4730 C   0  0  0  0  0  0  0  0  0  0  0  0
   -3.7105   23.5484  -29.4275 H   0  0  0  0  0  0  0  0  0  0  0  0
   -2.7661   23.7371  -30.9861 H   0  0  0  0  0  0  0  0  0  0  0  0
   -3.9770   25.2910  -30.4810 O   0  0  0  0  0  0  0  0  0  0  0  0
   -5.3330   25.6300  -30.7320 C   0  0  0  0  0  0  0  0  0  0  0  0
   -5.5330   26.6190  -30.2939 H   0  0  0  0  0  0  0  0  0  0  0  0
   -5.4747   25.6250  -31.8228 H   0  0  0  0  0  0  0  0  0  0  0  0
   -6.3300   24.6210  -30.1370 C   0  0  0  0  0  0  0  0  0  0  0  0
   -6.2129   24.6107  -29.0433 H   0  0  0  0  0  0  0  0  0  0  0  0
   -7.3427   24.9357  -30.4291 H   0  0  0  0  0  0  0  0  0  0  0  0
   -8.2110   20.2090  -31.9420 C   0  0  0  0  0  0  0  0  0  0  0  0
   -9.1116   20.5561  -31.4144 H   0  0  0  0  0  0  0  0  0  0  0  0
  1  2  1  0
  2  3  2  0
  3  4  1  0
  3  5  1  0
  5  6  1  0
  6  7  2  0
  6  8  1  0
  8  9  2  0
  9 10  1  0
 10 11  2  0
 11 12  1  0
 12 13  1  0
 12 14  1  0
 12 15  1  0
 11 16  1  0
 16 17  1  0
 16 18  1  0
  5 19  2  0
 19 20  1  0
 19 21  1  0
 21 22  1  0
 22 23  2  0
 22 24  2  0
 22 25  1  0
 25 26  1  0
 26 27  1  0
 26 28  1  0
 26 29  1  0
 29 30  1  0
 29 31  1  0
 29 32  1  0
 32 33  1  0
 33 34  1  0
 33 35  1  0
 33 36  1  0
 36 37  1  0
 36 38  1  0
 21 39  2  0
 39 40  1  0
 39  2  1  0
 18  9  1  0
 36 25  1  0
M  END
>  <UniqueID>  (26) 
25

>  <SMILES>  (26) 
Cc1n/c(=N\C(=O)c2cccc(S(=O)(=O)N3CCOCC3)c2)s[nH]1

>  <Energy>  (26) 
97.22391937097362

>  <Genealogy>  (26) 
Cc1n/c(=N\C(=O)c2cccc(S(=O)(=O)N3CCOCC3)c2)s[nH]1 (cis-trans isomerization)
Cc1n/c(=N\C(=O)c2cccc(S(=O)(=O)N3CCOCC3)c2)s[nH]1 (3D coordinates assigned)
Cc1n/c(=N\C(=O)c2cccc(S(=O)(=O)N3CCOCC3)c2)s[nH]1 (nonaromatic ring conformer: 97.22391937097362 kcal/mol)

>  <smiles>  (26) 
Cc1nc(=NC(=O)c2cccc(S(=O)(=O)N3CCOCC3)c2)s[nH]1

>  <score_type>  (26) 
oracle

>  <origin>  (26) 
adgpu

>  <m_score__min__energy>  (26) 
-8.8000000000000007

>  <m_primary>  (26) 
energy

$$$$
26:0
     RDKit          3D

 64 68  0  0  0  0  0  0  0  0999 V2000
   -4.3557   25.0012  -27.9636 H   0  0  0  0  0  0  0  0  0  0  0  0
   -3.3470   24.5850  -28.1030 C   0  0  0  0  0  0  0  0  0  0  0  0
   -3.1920   23.5810  -28.9830 C   0  0  0  0  0  0  0  0  0  0  0  0
   -1.9250   23.0470  -29.2260 O   0  0  0  0  0  0  0  0  0  0  0  0
   -1.7080   22.0010  -30.1260 C   0  0  0  0  0  0  0  0  0  0  0  0
   -0.4090   21.5130  -30.2850 C   0  0  0  0  0  0  0  0  0  0  0  0
    0.4161   21.9588  -29.7102 H   0  0  0  0  0  0  0  0  0  0  0  0
   -0.1510   20.4650  -31.1670 C   0  0  0  0  0  0  0  0  0  0  0  0
    0.8756   20.0863  -31.2795 H   0  0  0  0  0  0  0  0  0  0  0  0
   -1.1920   19.8890  -31.9130 C   0  0  0  0  0  0  0  0  0  0  0  0
   -0.9070   18.7630  -32.8360 C   0  0  0  0  0  0  0  0  0  0  0  0
    0.1700   18.1190  -32.7120 O   0  0  0  0  0  0  0  0  0  0  0  0
   -1.8320   18.4060  -33.8760 N   0  0  0  0  0  0  0  0  0  0  0  0
   -2.5420   19.1080  -34.1820 H   0  0  0  0  0  0  0  0  0  0  0  0
   -1.6670   17.1980  -34.6910 C   0  0  0  0  0  0  0  0  0  0  0  0
   -0.9349   17.3825  -35.4910 H   0  0  0  0  0  0  0  0  0  0  0  0
   -3.0110   16.8370  -35.3570 C   0  0  0  0  0  0  0  0  0  0  0  0
   -3.8327   17.1037  -34.6760 H   0  0  0  0  0  0  0  0  0  0  0  0
   -3.0949   17.3957  -36.3008 H   0  0  0  0  0  0  0  0  0  0  0  0
   -3.0860   15.3360  -35.6700 C   0  0  0  0  0  0  0  0  0  0  0  0
   -4.0546   15.1247  -36.1465 H   0  0  0  0  0  0  0  0  0  0  0  0
   -2.2424   15.0943  -36.3333 H   0  0  0  0  0  0  0  0  0  0  0  0
   -2.9580   14.4840  -34.4550 N   0  0  0  0  0  0  0  0  0  0  0  0
   -4.2610   13.9560  -34.0060 C   0  0  0  0  0  0  0  0  0  0  0  0
   -4.7825   13.5019  -34.8615 H   0  0  0  0  0  0  0  0  0  0  0  0
   -4.0903   13.2014  -33.2240 H   0  0  0  0  0  0  0  0  0  0  0  0
   -5.1090   15.0650  -33.4390 C   0  0  0  0  0  0  0  0  0  0  0  0
   -6.0910   15.6750  -34.2370 C   0  0  0  0  0  0  0  0  0  0  0  0
   -6.2453   15.3345  -35.2715 H   0  0  0  0  0  0  0  0  0  0  0  0
   -6.8730   16.7130  -33.7220 C   0  0  0  0  0  0  0  0  0  0  0  0
   -7.6419   17.1861  -34.3505 H   0  0  0  0  0  0  0  0  0  0  0  0
   -6.6780   17.1500  -32.4080 C   0  0  0  0  0  0  0  0  0  0  0  0
   -7.2933   17.9674  -32.0040 H   0  0  0  0  0  0  0  0  0  0  0  0
   -5.7030   16.5500  -31.6080 C   0  0  0  0  0  0  0  0  0  0  0  0
   -5.5501   16.8961  -30.5751 H   0  0  0  0  0  0  0  0  0  0  0  0
   -4.9200   15.5080  -32.1200 C   0  0  0  0  0  0  0  0  0  0  0  0
   -4.1546   15.0351  -31.4871 H   0  0  0  0  0  0  0  0  0  0  0  0
   -2.2440   15.1350  -33.3280 C   0  0  0  0  0  0  0  0  0  0  0  0
   -2.9607   15.7396  -32.7528 H   0  0  0  0  0  0  0  0  0  0  0  0
   -1.8016   14.3477  -32.6999 H   0  0  0  0  0  0  0  0  0  0  0  0
   -1.1140   16.0430  -33.8260 C   0  0  0  0  0  0  0  0  0  0  0  0
   -0.5844   16.4653  -32.9593 H   0  0  0  0  0  0  0  0  0  0  0  0
   -0.4297   15.4420  -34.4428 H   0  0  0  0  0  0  0  0  0  0  0  0
   -2.5020   20.3750  -31.7450 C   0  0  0  0  0  0  0  0  0  0  0  0
   -3.3256   19.9192  -32.3141 H   0  0  0  0  0  0  0  0  0  0  0  0
   -2.7760   21.4390  -30.8570 C   0  0  0  0  0  0  0  0  0  0  0  0
   -4.1200   21.9560  -30.6740 N   0  0  0  0  0  0  0  0  0  0  0  0
   -5.2510   21.3960  -31.4290 C   0  0  0  0  0  0  0  0  0  0  0  0
   -6.0101   21.0201  -30.7272 H   0  0  0  0  0  0  0  0  0  0  0  0
   -5.6929   22.1794  -32.0622 H   0  0  0  0  0  0  0  0  0  0  0  0
   -4.8959   20.5696  -32.0622 H   0  0  0  0  0  0  0  0  0  0  0  0
   -4.3390   23.0290  -29.7340 C   0  0  0  0  0  0  0  0  0  0  0  0
   -5.4990   23.4950  -29.5510 O   0  0  0  0  0  0  0  0  0  0  0  0
   -2.2360   25.1640  -27.3090 C   0  0  0  0  0  0  0  0  0  0  0  0
   -2.2030   25.0490  -25.9060 C   0  0  0  0  0  0  0  0  0  0  0  0
   -3.0009   24.5001  -25.3844 H   0  0  0  0  0  0  0  0  0  0  0  0
   -1.1640   25.6270  -25.1710 C   0  0  0  0  0  0  0  0  0  0  0  0
   -1.1393   25.5204  -24.0765 H   0  0  0  0  0  0  0  0  0  0  0  0
   -0.1570   26.3400  -25.8260 C   0  0  0  0  0  0  0  0  0  0  0  0
    0.6636   26.7897  -25.2477 H   0  0  0  0  0  0  0  0  0  0  0  0
   -0.1920   26.4820  -27.2160 C   0  0  0  0  0  0  0  0  0  0  0  0
    0.5980   27.0504  -27.7287 H   0  0  0  0  0  0  0  0  0  0  0  0
   -1.2280   25.9040  -27.9580 C   0  0  0  0  0  0  0  0  0  0  0  0
   -1.2430   26.0610  -29.3410 O   0  0  0  0  0  0  0  0  0  0  0  0
  1  2  1  0
  2  3  2  0
  3  4  1  0
  4  5  1  0
  5  6  2  0
  6  7  1  0
  6  8  1  0
  8  9  1  0
  8 10  2  0
 10 11  1  0
 11 12  2  0
 11 13  1  0
 13 14  1  0
 13 15  1  0
 15 16  1  0
 15 17  1  0
 17 18  1  0
 17 19  1  0
 17 20  1  0
 20 21  1  0
 20 22  1  0
 20 23  1  0
 23 24  1  0
 24 25  1  0
 24 26  1  0
 24 27  1  0
 27 28  2  0
 28 29  1  0
 28 30  1  0
 30 31  1  0
 30 32  2  0
 32 33  1  0
 32 34  1  0
 34 35  1  0
 34 36  2  0
 36 37  1  0
 23 38  1  0
 38 39  1  0
 38 40  1  0
 38 41  1  0
 41 42  1  0
 41 43  1  0
 10 44  1  0
 44 45  1  0
 44 46  2  0
 46 47  1  0
 47 48  1  0
 48 49  1  0
 48 50  1  0
 48 51  1  0
 47 52  1  0
 52 53  2  0
  2 54  1  0
 54 55  2  0
 55 56  1  0
 55 57  1  0
 57 58  1  0
 57 59  2  0
 59 60  1  0
 59 61  1  0
 61 62  1  0
 61 63  2  0
 63 64  1  0
 52  3  1  0
 63 54  1  0
 46  5  1  0
 41 15  1  0
 36 27  1  0
M  CHG  1  64  -1
M  END
>  <UniqueID>  (27) 
26

>  <SMILES>  (27) 
CN1C(=O)/C(=C/c2ccccc2[O-])Oc2ccc(C(=O)NC3CCN(Cc4ccccc4)CC3)cc21

>  <Energy>  (27) 
86.80577921309488

>  <Genealogy>  (27) 
CN1C(=O)C(=Cc2ccccc2[O-])Oc2ccc(C(=O)NC3CCN(Cc4ccccc4)CC3)cc21 (protonated)
CN1C(=O)/C(=C/c2ccccc2[O-])Oc2ccc(C(=O)NC3CCN(Cc4ccccc4)CC3)cc21 (cis-trans isomerization)
CN1C(=O)/C(=C/c2ccccc2[O-])Oc2ccc(C(=O)NC3CCN(Cc4ccccc4)CC3)cc21 (3D coordinates assigned)
CN1C(=O)/C(=C/c2ccccc2[O-])Oc2ccc(C(=O)NC3CCN(Cc4ccccc4)CC3)cc21 (nonaromatic ring conformer: 86.80577921309488 kcal/mol)

>  <smiles>  (27) 
CN1C(=O)C(=Cc2ccccc2O)Oc2ccc(C(=O)NC3CCN(Cc4ccccc4)CC3)cc21

>  <score_type>  (27) 
oracle

>  <origin>  (27) 
adgpu

>  <m_score__min__energy>  (27) 
-11.109999999999999

>  <m_primary>  (27) 
energy

$$$$
27:0
     RDKit          3D

 49 51  0  0  0  0  0  0  0  0999 V2000
   -3.0700   25.6220  -25.9460 N   0  0  0  0  0  0  0  0  0  0  0  0
   -3.3770   24.9130  -26.8080 C   0  0  0  0  0  0  0  0  0  0  0  0
   -3.7590   24.0300  -27.8800 C   0  0  0  0  0  0  0  0  0  0  0  0
   -4.6370   24.4810  -28.8740 C   0  0  0  0  0  0  0  0  0  0  0  0
   -5.0080   23.6300  -29.9190 C   0  0  0  0  0  0  0  0  0  0  0  0
   -4.5020   22.3250  -29.9820 C   0  0  0  0  0  0  0  0  0  0  0  0
   -4.9540   21.2680  -31.3180 S   0  0  0  0  0  0  0  0  0  0  0  0
   -4.2620   21.7550  -32.5590 O   0  0  0  0  0  0  0  0  0  0  0  0
   -4.4950   19.8610  -31.0500 O   0  0  0  0  0  0  0  0  0  0  0  0
   -6.7130   21.2790  -31.5620 C   0  0  0  0  0  0  0  0  0  0  0  0
   -7.3930   22.4820  -31.3000 C   0  0  0  0  0  0  0  0  0  0  0  0
   -8.7710   22.5800  -31.4790 C   0  0  0  0  0  0  0  0  0  0  0  0
   -9.4940   21.4790  -31.9270 C   0  0  0  0  0  0  0  0  0  0  0  0
   -8.8430   20.2730  -32.1850 C   0  0  0  0  0  0  0  0  0  0  0  0
   -7.4560   20.1390  -31.9880 C   0  0  0  0  0  0  0  0  0  0  0  0
   -6.6980   18.5610  -32.3310 S   0  0  0  0  0  0  0  0  0  0  0  0
   -7.6060   17.7250  -33.1860 O   0  0  0  0  0  0  0  0  0  0  0  0
   -6.4640   17.8570  -31.0230 O   0  0  0  0  0  0  0  0  0  0  0  0
   -5.1710   18.7220  -33.1730 N   0  0  1  0  0  0  0  0  0  0  0  0
   -4.2510   17.6420  -32.7330 C   0  0  0  0  0  0  0  0  0  0  0  0
   -3.0970   17.4470  -33.7240 C   0  0  0  0  0  0  0  0  0  0  0  0
   -3.6180   17.0120  -35.1180 C   0  0  1  0  0  0  0  0  0  0  0  0
   -3.4690   15.4960  -35.3360 C   0  0  0  0  0  0  0  0  0  0  0  0
   -4.3410   14.8000  -34.4890 O   0  0  0  0  0  0  0  0  0  0  0  0
   -5.0860   17.4410  -35.3450 C   0  0  0  0  0  0  0  0  0  0  0  0
   -5.3810   18.7770  -34.6480 C   0  0  0  0  0  0  0  0  0  0  0  0
   -3.6310   21.8720  -28.9790 C   0  0  0  0  0  0  0  0  0  0  0  0
   -3.2580   22.7210  -27.9330 C   0  0  0  0  0  0  0  0  0  0  0  0
   -2.4080   22.2680  -26.9760 F   0  0  0  0  0  0  0  0  0  0  0  0
   -5.0348   25.5057  -28.8321 H   0  0  0  0  0  0  0  0  0  0  0  0
   -5.7006   23.9866  -30.6957 H   0  0  0  0  0  0  0  0  0  0  0  0
   -6.8284   23.3582  -30.9486 H   0  0  0  0  0  0  0  0  0  0  0  0
   -9.2874   23.5277  -31.2662 H   0  0  0  0  0  0  0  0  0  0  0  0
  -10.5806   21.5599  -32.0779 H   0  0  0  0  0  0  0  0  0  0  0  0
   -9.4233   19.4121  -32.5485 H   0  0  0  0  0  0  0  0  0  0  0  0
   -4.7400   19.6250  -32.8690 H   0  0  0  0  0  0  0  0  0  0  0  0
   -4.8162   16.7017  -32.6533 H   0  0  0  0  0  0  0  0  0  0  0  0
   -3.8251   17.9272  -31.7597 H   0  0  0  0  0  0  0  0  0  0  0  0
   -2.4196   16.6716  -33.3368 H   0  0  0  0  0  0  0  0  0  0  0  0
   -2.5691   18.4057  -33.8347 H   0  0  0  0  0  0  0  0  0  0  0  0
   -2.9913   17.5302  -35.8588 H   0  0  0  0  0  0  0  0  0  0  0  0
   -3.7073   15.2537  -36.3822 H   0  0  0  0  0  0  0  0  0  0  0  0
   -2.4341   15.1997  -35.1096 H   0  0  0  0  0  0  0  0  0  0  0  0
   -4.3860   13.8740  -34.8400 H   0  0  0  0  0  0  0  0  0  0  0  0
   -5.7541   16.6675  -34.9384 H   0  0  0  0  0  0  0  0  0  0  0  0
   -5.2529   17.5641  -36.4253 H   0  0  0  0  0  0  0  0  0  0  0  0
   -6.4284   19.0507  -34.8432 H   0  0  0  0  0  0  0  0  0  0  0  0
   -4.6802   19.5219  -35.0531 H   0  0  0  0  0  0  0  0  0  0  0  0
   -3.2402   20.8444  -29.0162 H   0  0  0  0  0  0  0  0  0  0  0  0
  1  2  3  0
  2  3  1  0
  3  4  2  0
  4  5  1  0
  5  6  2  0
  6  7  1  0
  7  8  2  0
  7  9  2  0
  7 10  1  0
 10 11  2  0
 11 12  1  0
 12 13  2  0
 13 14  1  0
 14 15  2  0
 15 16  1  0
 16 17  2  0
 16 18  2  0
 16 19  1  0
 19 20  1  0
 20 21  1  0
 21 22  1  0
 22 23  1  0
 23 24  1  0
 22 25  1  0
 25 26  1  0
  6 27  1  0
 27 28  2  0
 28 29  1  0
 28  3  1  0
 15 10  1  0
 26 19  1  0
  4 30  1  0
  5 31  1  0
 11 32  1  0
 12 33  1  0
 13 34  1  0
 14 35  1  0
 19 36  1  1
 20 37  1  0
 20 38  1  0
 21 39  1  0
 21 40  1  0
 22 41  1  6
 23 42  1  0
 23 43  1  0
 24 44  1  0
 25 45  1  0
 25 46  1  0
 26 47  1  0
 26 48  1  0
 27 49  1  0
M  CHG  1  19   1
M  END
>  <UniqueID>  (28) 
27

>  <SMILES>  (28) 
N#Cc1ccc(S(=O)(=O)c2ccccc2S(=O)(=O)[NH+]2CCC(CO)CC2)cc1F

>  <Energy>  (28) 
60.891223363813275

>  <Genealogy>  (28) 
N#Cc1ccc(S(=O)(=O)c2ccccc2S(=O)(=O)[NH+]2CCC(CO)CC2)cc1F (protonated)
N#Cc1ccc(S(=O)(=O)c2ccccc2S(=O)(=O)[NH+]2CCC(CO)CC2)cc1F (3D coordinates assigned)
N#Cc1ccc(S(=O)(=O)c2ccccc2S(=O)(=O)[NH+]2CCC(CO)CC2)cc1F (nonaromatic ring conformer: 60.891223363813275 kcal/mol)

>  <smiles>  (28) 
N#Cc1ccc(S(=O)(=O)c2ccccc2S(=O)(=O)N2CCC(CO)CC2)cc1F

>  <score_type>  (28) 
oracle

>  <origin>  (28) 
adgpu

>  <m_score__min__energy>  (28) 
-9.2599999999999998

>  <m_primary>  (28) 
energy

$$$$
28:0
     RDKit          3D

 44 47  0  0  0  0  0  0  0  0999 V2000
   -3.8770   20.4060  -33.2060 C   0  0  0  0  0  0  0  0  0  0  0  0
   -5.3220   20.5950  -33.1500 N   0  0  0  0  0  0  0  0  0  0  0  0
   -6.3040   19.6190  -33.5100 C   0  0  0  0  0  0  0  0  0  0  0  0
   -6.0670   18.5950  -34.2030 O   0  0  0  0  0  0  0  0  0  0  0  0
   -7.5930   19.9680  -32.9300 C   0  0  0  0  0  0  0  0  0  0  0  0
   -8.6750   19.3320  -33.0370 O   0  0  0  0  0  0  0  0  0  0  0  0
   -7.3590   21.1840  -32.1700 C   0  0  0  0  0  0  0  0  0  0  0  0
   -8.2270   21.9330  -31.3800 C   0  0  0  0  0  0  0  0  0  0  0  0
   -7.7110   23.0540  -30.7110 C   0  0  0  0  0  0  0  0  0  0  0  0
   -6.3460   23.4010  -30.8380 C   0  0  0  0  0  0  0  0  0  0  0  0
   -5.7110   24.8330  -30.0350 S   0  0  0  0  0  0  0  0  0  0  0  0
   -6.8590   25.7200  -29.6480 O   0  0  0  0  0  0  0  0  0  0  0  0
   -4.7890   25.5960  -30.9450 O   0  0  0  0  0  0  0  0  0  0  0  0
   -4.8410   24.3690  -28.6080 N   0  0  0  0  0  0  0  0  0  0  0  0
   -3.7710   23.4130  -28.5630 C   0  0  0  0  0  0  0  0  0  0  0  0
   -3.9500   22.1210  -28.0350 C   0  0  0  0  0  0  0  0  0  0  0  0
   -2.8780   21.2190  -27.9820 C   0  0  0  0  0  0  0  0  0  0  0  0
   -1.6260   21.5940  -28.4910 C   0  0  0  0  0  0  0  0  0  0  0  0
   -1.4480   22.8720  -29.0370 C   0  0  0  0  0  0  0  0  0  0  0  0
   -2.5150   23.7800  -29.0690 C   0  0  0  0  0  0  0  0  0  0  0  0
   -2.3310   25.0550  -29.6040 O   0  0  0  0  0  0  0  0  0  0  0  0
   -0.5040   20.5950  -28.4450 C   0  0  0  0  0  0  0  0  0  0  0  0
   -0.4860   19.9140  -27.0720 C   0  0  0  0  0  0  0  0  0  0  0  0
   -1.8500   19.2920  -26.6750 C   0  0  0  0  0  0  0  0  0  0  0  0
   -3.0700   19.8130  -27.4720 C   0  0  0  0  0  0  0  0  0  0  0  0
   -5.4880   22.6210  -31.6370 C   0  0  0  0  0  0  0  0  0  0  0  0
   -6.0220   21.5140  -32.3020 C   0  0  0  0  0  0  0  0  0  0  0  0
   -3.4742   20.3533  -32.1838 H   0  0  0  0  0  0  0  0  0  0  0  0
   -3.6499   19.4705  -33.7382 H   0  0  0  0  0  0  0  0  0  0  0  0
   -3.4170   21.2516  -33.7382 H   0  0  0  0  0  0  0  0  0  0  0  0
   -9.2867   21.6543  -31.2829 H   0  0  0  0  0  0  0  0  0  0  0  0
   -8.3737   23.6674  -30.0829 H   0  0  0  0  0  0  0  0  0  0  0  0
   -4.9386   21.8164  -27.6610 H   0  0  0  0  0  0  0  0  0  0  0  0
   -0.4676   23.1636  -29.4418 H   0  0  0  0  0  0  0  0  0  0  0  0
   -3.1080   25.6890  -29.7390 H   0  0  0  0  0  0  0  0  0  0  0  0
   -0.6543   19.8377  -29.2285 H   0  0  0  0  0  0  0  0  0  0  0  0
    0.4537   21.1094  -28.6130 H   0  0  0  0  0  0  0  0  0  0  0  0
    0.2698   19.1150  -27.0890 H   0  0  0  0  0  0  0  0  0  0  0  0
   -0.2541   20.6900  -26.3277 H   0  0  0  0  0  0  0  0  0  0  0  0
   -1.7846   18.2044  -26.8258 H   0  0  0  0  0  0  0  0  0  0  0  0
   -2.0238   19.5814  -25.6281 H   0  0  0  0  0  0  0  0  0  0  0  0
   -3.2386   19.1474  -28.3314 H   0  0  0  0  0  0  0  0  0  0  0  0
   -3.9319   19.8235  -26.7886 H   0  0  0  0  0  0  0  0  0  0  0  0
   -4.4227   22.8770  -31.7353 H   0  0  0  0  0  0  0  0  0  0  0  0
  1  2  1  0
  2  3  1  0
  3  4  2  0
  3  5  1  0
  5  6  2  0
  5  7  1  0
  7  8  2  0
  8  9  1  0
  9 10  2  0
 10 11  1  0
 11 12  2  0
 11 13  2  0
 11 14  1  0
 14 15  1  0
 15 16  2  0
 16 17  1  0
 17 18  2  0
 18 19  1  0
 19 20  2  0
 20 21  1  0
 18 22  1  0
 22 23  1  0
 23 24  1  0
 24 25  1  0
 10 26  1  0
 26 27  2  0
 27  2  1  0
 27  7  1  0
 20 15  1  0
 25 17  1  0
  1 28  1  0
  1 29  1  0
  1 30  1  0
  8 31  1  0
  9 32  1  0
 16 33  1  0
 19 34  1  0
 21 35  1  0
 22 36  1  0
 22 37  1  0
 23 38  1  0
 23 39  1  0
 24 40  1  0
 24 41  1  0
 25 42  1  0
 25 43  1  0
 26 44  1  0
M  CHG  1  14  -1
M  END
>  <UniqueID>  (29) 
28

>  <SMILES>  (29) 
CN1C(=O)C(=O)c2ccc(S(=O)(=O)[N-]c3cc4c(cc3O)CCCC4)cc21

>  <Energy>  (29) 
85.36760259964434

>  <Genealogy>  (29) 
CN1C(=O)C(=O)c2ccc(S(=O)(=O)[N-]c3cc4c(cc3O)CCCC4)cc21 (protonated)
CN1C(=O)C(=O)c2ccc(S(=O)(=O)[N-]c3cc4c(cc3O)CCCC4)cc21 (3D coordinates assigned)
CN1C(=O)C(=O)c2ccc(S(=O)(=O)[N-]c3cc4c(cc3O)CCCC4)cc21 (nonaromatic ring conformer: 85.36760259964434 kcal/mol)

>  <smiles>  (29) 
CN1C(=O)C(=O)c2ccc(S(=O)(=O)Nc3cc4c(cc3O)CCCC4)cc21

>  <score_type>  (29) 
oracle

>  <origin>  (29) 
adgpu

>  <m_score__min__energy>  (29) 
-12.48

>  <m_primary>  (29) 
energy

$$$$
29:0
     RDKit          3D

 45 48  0  0  0  0  0  0  0  0999 V2000
   -3.4210   20.0050  -33.6440 C   0  0  0  0  0  0  0  0  0  0  0  0
   -3.6640   21.3360  -33.1030 N   0  0  0  0  0  0  0  0  0  0  0  0
   -4.3220   21.5270  -31.8430 C   0  0  0  0  0  0  0  0  0  0  0  0
   -4.7840   20.5350  -31.2170 O   0  0  0  0  0  0  0  0  0  0  0  0
   -4.4080   22.8790  -31.2450 C   0  0  0  0  0  0  0  0  0  0  0  0
   -5.5430   23.6750  -31.5170 C   0  0  0  0  0  0  0  0  0  0  0  0
   -6.5690   23.2070  -32.3940 N   0  0  0  0  0  0  0  0  0  0  0  0
   -7.9810   22.4440  -31.7510 S   0  0  0  0  0  0  0  0  0  0  0  0
   -9.2130   23.0420  -32.3680 O   0  0  0  0  0  0  0  0  0  0  0  0
   -8.0270   22.6640  -30.2650 O   0  0  0  0  0  0  0  0  0  0  0  0
   -7.9050   20.7200  -32.0990 C   0  0  0  0  0  0  0  0  0  0  0  0
   -8.6860   19.8030  -31.3590 C   0  0  0  0  0  0  0  0  0  0  0  0
   -8.5550   18.4200  -31.5730 C   0  0  0  0  0  0  0  0  0  0  0  0
   -7.6340   17.9700  -32.5180 C   0  0  0  0  0  0  0  0  0  0  0  0
   -7.3890   16.6630  -32.7890 N   0  0  0  0  0  0  0  0  0  0  0  0
   -6.4330   16.5380  -33.7440 C   0  0  0  0  0  0  0  0  0  0  0  0
   -5.9030   15.2230  -34.1990 C   0  0  0  0  0  0  0  0  0  0  0  0
   -5.8370   18.0380  -34.2590 S   0  0  0  0  0  0  0  0  0  0  0  0
   -6.8730   18.8740  -33.2390 C   0  0  0  0  0  0  0  0  0  0  0  0
   -6.9880   20.2490  -33.0570 C   0  0  0  0  0  0  0  0  0  0  0  0
   -5.6400   24.9670  -30.9930 C   0  0  0  0  0  0  0  0  0  0  0  0
   -4.6220   25.4820  -30.1960 C   0  0  0  0  0  0  0  0  0  0  0  0
   -3.4880   24.7170  -29.9210 C   0  0  0  0  0  0  0  0  0  0  0  0
   -3.3610   23.4090  -30.4430 C   0  0  0  0  0  0  0  0  0  0  0  0
   -2.1860   22.5620  -29.9760 C   0  0  0  0  0  0  0  0  0  0  0  0
   -0.9110   23.3920  -29.7840 C   0  0  0  0  0  0  0  0  0  0  0  0
   -1.1970   24.6130  -28.9660 C   0  0  0  0  0  0  0  0  0  0  0  0
   -0.3140   25.0930  -28.2070 O   0  0  0  0  0  0  0  0  0  0  0  0
   -2.4520   25.2750  -29.1070 N   0  0  0  0  0  0  0  0  0  0  0  0
   -3.2907   19.2913  -32.8172 H   0  0  0  0  0  0  0  0  0  0  0  0
   -4.2780   19.6982  -34.2616 H   0  0  0  0  0  0  0  0  0  0  0  0
   -2.5109   20.0208  -34.2616 H   0  0  0  0  0  0  0  0  0  0  0  0
   -3.3390   22.1670  -33.6450 H   0  0  0  0  0  0  0  0  0  0  0  0
   -9.4013   20.1744  -30.6104 H   0  0  0  0  0  0  0  0  0  0  0  0
   -9.1684   17.7052  -31.0048 H   0  0  0  0  0  0  0  0  0  0  0  0
   -5.6540   14.6053  -33.3236 H   0  0  0  0  0  0  0  0  0  0  0  0
   -6.6648   14.7104  -34.8048 H   0  0  0  0  0  0  0  0  0  0  0  0
   -4.9987   15.3819  -34.8048 H   0  0  0  0  0  0  0  0  0  0  0  0
   -6.3781   20.9493  -33.6465 H   0  0  0  0  0  0  0  0  0  0  0  0
   -6.5264   25.5806  -31.2119 H   0  0  0  0  0  0  0  0  0  0  0  0
   -4.7118   26.4967  -29.7810 H   0  0  0  0  0  0  0  0  0  0  0  0
   -2.4487   22.0901  -29.0177 H   0  0  0  0  0  0  0  0  0  0  0  0
   -1.9840   21.8091  -30.7521 H   0  0  0  0  0  0  0  0  0  0  0  0
   -0.1553   22.7805  -29.2692 H   0  0  0  0  0  0  0  0  0  0  0  0
   -0.5387   23.7046  -30.7707 H   0  0  0  0  0  0  0  0  0  0  0  0
  1  2  1  0
  2  3  1  0
  3  4  2  0
  3  5  1  0
  5  6  2  0
  6  7  1  0
  7  8  1  0
  8  9  2  0
  8 10  2  0
  8 11  1  0
 11 12  2  0
 12 13  1  0
 13 14  2  0
 14 15  1  0
 15 16  2  0
 16 17  1  0
 16 18  1  0
 18 19  1  0
 19 20  2  0
  6 21  1  0
 21 22  2  0
 22 23  1  0
 23 24  2  0
 24 25  1  0
 25 26  1  0
 26 27  1  0
 27 28  2  0
 27 29  1  0
 24  5  1  0
 20 11  1  0
 29 23  1  0
 19 14  1  0
  1 30  1  0
  1 31  1  0
  1 32  1  0
  2 33  1  0
 12 34  1  0
 13 35  1  0
 17 36  1  0
 17 37  1  0
 17 38  1  0
 20 39  1  0
 21 40  1  0
 22 41  1  0
 25 42  1  0
 25 43  1  0
 26 44  1  0
 26 45  1  0
M  CHG  2   7  -1  29  -1
M  END
>  <UniqueID>  (30) 
29

>  <SMILES>  (30) 
CNC(=O)c1c([N-]S(=O)(=O)c2ccc3nc(C)sc3c2)ccc2c1CCC(=O)[N-]2

>  <Energy>  (30) 
93.43378326114731

>  <Genealogy>  (30) 
CNC(=O)c1c([N-]S(=O)(=O)c2ccc3nc(C)sc3c2)ccc2c1CCC(=O)[N-]2 (protonated)
CNC(=O)c1c([N-]S(=O)(=O)c2ccc3nc(C)sc3c2)ccc2c1CCC(=O)[N-]2 (3D coordinates assigned)
CNC(=O)c1c([N-]S(=O)(=O)c2ccc3nc(C)sc3c2)ccc2c1CCC(=O)[N-]2 (nonaromatic ring conformer: 93.43378326114731 kcal/mol)

>  <smiles>  (30) 
CNC(=O)c1c(NS(=O)(=O)c2ccc3nc(C)sc3c2)ccc2c1CCC(=O)N2

>  <score_type>  (30) 
oracle

>  <origin>  (30) 
adgpu

>  <m_score__min__energy>  (30) 
-11.98

>  <m_primary>  (30) 
energy

$$$$
30:0
     RDKit          3D

 73 77  0  0  0  0  0  0  0  0999 V2000
    2.1890   18.2720  -37.2620 C   0  0  0  0  0  0  0  0  0  0  0  0
    1.2940   19.0470  -36.3410 C   0  0  0  0  0  0  0  0  0  0  0  0
    1.2080   20.4440  -36.4460 C   0  0  0  0  0  0  0  0  0  0  0  0
    0.3550   21.1670  -35.5990 C   0  0  0  0  0  0  0  0  0  0  0  0
    0.2580   22.6590  -35.7240 C   0  0  0  0  0  0  0  0  0  0  0  0
   -0.4500   20.4830  -34.6750 C   0  0  0  0  0  0  0  0  0  0  0  0
   -0.3910   19.0850  -34.5830 C   0  0  0  0  0  0  0  0  0  0  0  0
   -1.3640   18.2220  -33.3960 S   0  0  0  0  0  0  0  0  0  0  0  0
   -0.9800   16.7710  -33.3640 O   0  0  0  0  0  0  0  0  0  0  0  0
   -1.0800   18.8220  -32.0500 O   0  0  0  0  0  0  0  0  0  0  0  0
   -3.0790   18.3450  -33.8380 C   0  0  0  0  0  0  0  0  0  0  0  0
   -3.6380   17.3020  -34.5940 C   0  0  0  0  0  0  0  0  0  0  0  0
   -4.9950   17.3000  -34.9160 C   0  0  0  0  0  0  0  0  0  0  0  0
   -5.8210   18.3330  -34.4680 C   0  0  0  0  0  0  0  0  0  0  0  0
   -5.2850   19.3750  -33.7090 C   0  0  0  0  0  0  0  0  0  0  0  0
   -3.9190   19.3990  -33.3970 C   0  0  0  0  0  0  0  0  0  0  0  0
   -3.4180   20.5470  -32.6330 C   0  0  0  0  0  0  0  0  0  0  0  0
   -3.2710   21.6590  -33.2050 O   0  0  0  0  0  0  0  0  0  0  0  0
   -3.1310   20.4150  -31.2390 N   0  0  0  0  0  0  0  0  0  0  0  0
   -3.4130   21.4660  -30.3030 C   0  0  0  0  0  0  0  0  0  0  0  0
   -4.2560   22.5240  -30.6770 C   0  0  0  0  0  0  0  0  0  0  0  0
   -4.6230   23.5050  -29.7460 C   0  0  0  0  0  0  0  0  0  0  0  0
   -5.7680   24.7680  -30.1960 S   0  0  0  0  0  0  0  0  0  0  0  0
   -6.0960   25.5940  -28.9810 O   0  0  0  0  0  0  0  0  0  0  0  0
   -5.1330   25.6740  -31.2150 O   0  0  0  0  0  0  0  0  0  0  0  0
   -7.2480   24.0990  -30.8500 N   0  0  0  0  0  0  0  0  0  0  0  0
   -7.6270   22.8660  -30.1510 C   0  0  0  0  0  0  0  0  0  0  0  0
   -7.1630   21.6790  -30.9830 C   0  0  0  0  0  0  0  0  0  0  0  0
   -6.8320   22.2390  -32.3510 C   0  0  0  0  0  0  0  0  0  0  0  0
   -7.0910   23.7390  -32.2630 C   0  0  0  0  0  0  0  0  0  0  0  0
   -4.0980   23.4570  -28.4490 C   0  0  0  0  0  0  0  0  0  0  0  0
   -3.2420   22.4220  -28.0750 C   0  0  0  0  0  0  0  0  0  0  0  0
   -2.9080   21.4070  -28.9890 C   0  0  0  0  0  0  0  0  0  0  0  0
   -1.9920   20.3710  -28.6020 N   0  0  0  0  0  0  0  0  0  0  0  0
   -0.7080   20.2890  -29.3160 C   0  0  0  0  0  0  0  0  0  0  0  0
    0.0470   19.0070  -28.9650 C   0  0  0  0  0  0  0  0  0  0  0  0
    0.0600   18.7920  -27.5670 O   0  0  0  0  0  0  0  0  0  0  0  0
   -1.2540   18.5200  -27.1290 C   0  0  0  0  0  0  0  0  0  0  0  0
   -2.1430   19.7610  -27.2780 C   0  0  0  0  0  0  0  0  0  0  0  0
    0.4840   18.3710  -35.4160 C   0  0  0  0  0  0  0  0  0  0  0  0
    2.8892   17.6657  -36.6686 H   0  0  0  0  0  0  0  0  0  0  0  0
    1.5792   17.6120  -37.8964 H   0  0  0  0  0  0  0  0  0  0  0  0
    2.7550   18.9699  -37.8964 H   0  0  0  0  0  0  0  0  0  0  0  0
    1.8126   20.9746  -37.1963 H   0  0  0  0  0  0  0  0  0  0  0  0
    0.2287   23.1098  -34.7211 H   0  0  0  0  0  0  0  0  0  0  0  0
    1.1334   23.0388  -36.2713 H   0  0  0  0  0  0  0  0  0  0  0  0
   -0.6592   22.9222  -36.2713 H   0  0  0  0  0  0  0  0  0  0  0  0
   -1.1306   21.0463  -34.0197 H   0  0  0  0  0  0  0  0  0  0  0  0
   -2.9974   16.4760  -34.9366 H   0  0  0  0  0  0  0  0  0  0  0  0
   -5.4148   16.4844  -35.5231 H   0  0  0  0  0  0  0  0  0  0  0  0
   -6.8933   18.3257  -34.7130 H   0  0  0  0  0  0  0  0  0  0  0  0
   -5.9402   20.1837  -33.3530 H   0  0  0  0  0  0  0  0  0  0  0  0
   -2.7720   19.4980  -30.8790 H   0  0  0  0  0  0  0  0  0  0  0  0
   -4.6316   22.5836  -31.7092 H   0  0  0  0  0  0  0  0  0  0  0  0
   -7.1461   22.8370  -29.1621 H   0  0  0  0  0  0  0  0  0  0  0  0
   -8.7180   22.8288  -30.0157 H   0  0  0  0  0  0  0  0  0  0  0  0
   -6.2716   21.2194  -30.5312 H   0  0  0  0  0  0  0  0  0  0  0  0
   -7.9356   20.8981  -31.0410 H   0  0  0  0  0  0  0  0  0  0  0  0
   -5.7775   22.0467  -32.5981 H   0  0  0  0  0  0  0  0  0  0  0  0
   -7.4412   21.7697  -33.1375 H   0  0  0  0  0  0  0  0  0  0  0  0
   -6.2414   24.2887  -32.6943 H   0  0  0  0  0  0  0  0  0  0  0  0
   -8.0014   23.9991  -32.8229 H   0  0  0  0  0  0  0  0  0  0  0  0
   -4.3620   24.2392  -27.7220 H   0  0  0  0  0  0  0  0  0  0  0  0
   -2.8249   22.3993  -27.0574 H   0  0  0  0  0  0  0  0  0  0  0  0
   -0.8995   20.3059  -30.3991 H   0  0  0  0  0  0  0  0  0  0  0  0
   -0.0898   21.1474  -29.0143 H   0  0  0  0  0  0  0  0  0  0  0  0
   -0.4452   18.1542  -29.4554 H   0  0  0  0  0  0  0  0  0  0  0  0
    1.0856   19.1058  -29.3137 H   0  0  0  0  0  0  0  0  0  0  0  0
   -1.6733   17.7010  -27.7318 H   0  0  0  0  0  0  0  0  0  0  0  0
   -1.2208   18.2342  -26.0673 H   0  0  0  0  0  0  0  0  0  0  0  0
   -3.1937   19.4676  -27.1368 H   0  0  0  0  0  0  0  0  0  0  0  0
   -1.8384   20.4981  -26.5204 H   0  0  0  0  0  0  0  0  0  0  0  0
    0.5352   17.2746  -35.3433 H   0  0  0  0  0  0  0  0  0  0  0  0
  1  2  1  0
  2  3  2  0
  3  4  1  0
  4  5  1  0
  4  6  2  0
  6  7  1  0
  7  8  1  0
  8  9  2  0
  8 10  2  0
  8 11  1  0
 11 12  2  0
 12 13  1  0
 13 14  2  0
 14 15  1  0
 15 16  2  0
 16 17  1  0
 17 18  2  0
 17 19  1  0
 19 20  1  0
 20 21  2  0
 21 22  1  0
 22 23  1  0
 23 24  2  0
 23 25  2  0
 23 26  1  0
 26 27  1  0
 27 28  1  0
 28 29  1  0
 29 30  1  0
 22 31  2  0
 31 32  1  0
 32 33  2  0
 33 34  1  0
 34 35  1  0
 35 36  1  0
 36 37  1  0
 37 38  1  0
 38 39  1  0
  7 40  2  0
 40  2  1  0
 16 11  1  0
 33 20  1  0
 39 34  1  0
 30 26  1  0
  1 41  1  0
  1 42  1  0
  1 43  1  0
  3 44  1  0
  5 45  1  0
  5 46  1  0
  5 47  1  0
  6 48  1  0
 12 49  1  0
 13 50  1  0
 14 51  1  0
 15 52  1  0
 19 53  1  0
 21 54  1  0
 27 55  1  0
 27 56  1  0
 28 57  1  0
 28 58  1  0
 29 59  1  0
 29 60  1  0
 30 61  1  0
 30 62  1  0
 31 63  1  0
 32 64  1  0
 35 65  1  0
 35 66  1  0
 36 67  1  0
 36 68  1  0
 38 69  1  0
 38 70  1  0
 39 71  1  0
 39 72  1  0
 40 73  1  0
M  END
>  <UniqueID>  (31) 
30

>  <SMILES>  (31) 
Cc1cc(C)cc(S(=O)(=O)c2ccccc2C(=O)Nc2cc(S(=O)(=O)N3CCCC3)ccc2N2CCOCC2)c1

>  <Energy>  (31) 
98.18762392248836

>  <Genealogy>  (31) 
Cc1cc(C)cc(S(=O)(=O)c2ccccc2C(=O)Nc2cc(S(=O)(=O)N3CCCC3)ccc2N2CCOCC2)c1 (3D coordinates assigned)
Cc1cc(C)cc(S(=O)(=O)c2ccccc2C(=O)Nc2cc(S(=O)(=O)N3CCCC3)ccc2N2CCOCC2)c1 (nonaromatic ring conformer: 98.18762392248836 kcal/mol)

>  <smiles>  (31) 
Cc1cc(C)cc(S(=O)(=O)c2ccccc2C(=O)Nc2cc(S(=O)(=O)N3CCCC3)ccc2N2CCOCC2)c1

>  <score_type>  (31) 
oracle

>  <origin>  (31) 
adgpu

>  <m_score__min__energy>  (31) 
-10.65

>  <m_primary>  (31) 
energy

$$$$
31:0
     RDKit          3D

 57 59  0  0  0  0  0  0  0  0999 V2000
   -3.5720   24.1060  -28.2410 C   0  0  0  0  0  0  0  0  0  0  0  0
   -2.8520   24.5270  -29.5160 C   0  0  0  0  0  0  0  0  0  0  0  0
   -3.8020   25.0470  -30.4970 N   0  0  0  0  0  0  0  0  0  0  0  0
   -5.2260   24.8940  -30.4270 C   0  0  0  0  0  0  0  0  0  0  0  0
   -5.9250   25.8690  -30.0480 O   0  0  0  0  0  0  0  0  0  0  0  0
   -5.8930   23.6280  -30.7670 C   0  0  0  0  0  0  0  0  0  0  0  0
   -7.2350   23.3530  -30.5870 C   0  0  0  0  0  0  0  0  0  0  0  0
   -7.5210   22.1220  -31.0620 N   0  0  0  0  0  0  0  0  0  0  0  0
   -8.8330   21.4750  -30.9620 C   0  0  0  0  0  0  0  0  0  0  0  0
   -9.3610   21.1090  -32.3450 C   0  0  0  0  0  0  0  0  0  0  0  0
   -6.3710   21.6090  -31.5650 C   0  0  0  0  0  0  0  0  0  0  0  0
   -6.2290   20.2790  -32.1990 C   0  0  0  0  0  0  0  0  0  0  0  0
   -6.6940   19.1240  -31.5510 C   0  0  0  0  0  0  0  0  0  0  0  0
   -6.5640   17.8730  -32.1600 C   0  0  0  0  0  0  0  0  0  0  0  0
   -5.9800   17.7640  -33.4300 C   0  0  0  0  0  0  0  0  0  0  0  0
   -5.7870   16.1910  -34.2010 S   0  0  0  0  0  0  0  0  0  0  0  0
   -4.8250   16.3320  -35.3490 O   0  0  0  0  0  0  0  0  0  0  0  0
   -7.1090   15.7130  -34.7370 O   0  0  0  0  0  0  0  0  0  0  0  0
   -5.1620   15.0420  -33.0440 N   0  0  0  0  0  0  0  0  0  0  0  0
   -3.6930   15.0500  -33.0730 C   0  0  0  0  0  0  0  0  0  0  0  0
   -3.1270   14.1520  -31.9550 C   0  0  0  0  0  0  0  0  0  0  0  0
   -3.9100   12.9100  -31.7400 N   0  0  0  0  0  0  0  0  0  0  0  0
   -4.6690   12.9290  -30.4770 C   0  0  0  0  0  0  0  0  0  0  0  0
   -4.7620   12.5480  -32.8890 C   0  0  0  0  0  0  0  0  0  0  0  0
   -5.7140   13.6910  -33.3100 C   0  0  0  0  0  0  0  0  0  0  0  0
   -5.5240   18.9160  -34.0830 C   0  0  0  0  0  0  0  0  0  0  0  0
   -5.6510   20.1670  -33.4730 C   0  0  0  0  0  0  0  0  0  0  0  0
   -5.3430   22.5240  -31.3940 C   0  0  0  0  0  0  0  0  0  0  0  0
   -4.0050   22.4160  -31.9210 C   0  0  0  0  0  0  0  0  0  0  0  0
   -2.9310   22.3290  -32.3430 N   0  0  0  0  0  0  0  0  0  0  0  0
   -2.9961   24.4428  -27.3664 H   0  0  0  0  0  0  0  0  0  0  0  0
   -4.5732   24.5610  -28.2180 H   0  0  0  0  0  0  0  0  0  0  0  0
   -3.6665   23.0103  -28.2180 H   0  0  0  0  0  0  0  0  0  0  0  0
   -2.1174   25.3094  -29.2745 H   0  0  0  0  0  0  0  0  0  0  0  0
   -2.3466   23.6485  -29.9437 H   0  0  0  0  0  0  0  0  0  0  0  0
   -7.9629   24.0361  -30.1249 H   0  0  0  0  0  0  0  0  0  0  0  0
   -8.7394   20.5606  -30.3577 H   0  0  0  0  0  0  0  0  0  0  0  0
   -9.5372   22.1752  -30.4888 H   0  0  0  0  0  0  0  0  0  0  0  0
  -10.2610   20.4852  -32.2406 H   0  0  0  0  0  0  0  0  0  0  0  0
   -9.6131   22.0271  -32.8960 H   0  0  0  0  0  0  0  0  0  0  0  0
   -8.5898   20.5508  -32.8960 H   0  0  0  0  0  0  0  0  0  0  0  0
   -7.1629   19.2040  -30.5592 H   0  0  0  0  0  0  0  0  0  0  0  0
   -6.9209   16.9710  -31.6414 H   0  0  0  0  0  0  0  0  0  0  0  0
   -5.4800   15.3670  -32.1010 H   0  0  0  0  0  0  0  0  0  0  0  0
   -3.3480   14.6754  -34.0480 H   0  0  0  0  0  0  0  0  0  0  0  0
   -3.3393   16.0797  -32.9162 H   0  0  0  0  0  0  0  0  0  0  0  0
   -2.0969   13.8725  -32.2209 H   0  0  0  0  0  0  0  0  0  0  0  0
   -3.1744   14.7302  -31.0204 H   0  0  0  0  0  0  0  0  0  0  0  0
   -3.9693   12.9115  -29.6284 H   0  0  0  0  0  0  0  0  0  0  0  0
   -5.2797   13.8427  -30.4299 H   0  0  0  0  0  0  0  0  0  0  0  0
   -5.3246   12.0470  -30.4299 H   0  0  0  0  0  0  0  0  0  0  0  0
   -4.1143   12.2974  -33.7421 H   0  0  0  0  0  0  0  0  0  0  0  0
   -5.3838   11.6930  -32.5850 H   0  0  0  0  0  0  0  0  0  0  0  0
   -5.9124   13.6009  -34.3882 H   0  0  0  0  0  0  0  0  0  0  0  0
   -6.6305   13.5895  -32.7102 H   0  0  0  0  0  0  0  0  0  0  0  0
   -5.0644   18.8359  -35.0792 H   0  0  0  0  0  0  0  0  0  0  0  0
   -5.2961   21.0684  -33.9941 H   0  0  0  0  0  0  0  0  0  0  0  0
  1  2  1  0
  2  3  1  0
  3  4  1  0
  4  5  2  0
  4  6  1  0
  6  7  2  0
  7  8  1  0
  8  9  1  0
  9 10  1  0
  8 11  1  0
 11 12  1  0
 12 13  2  0
 13 14  1  0
 14 15  2  0
 15 16  1  0
 16 17  2  0
 16 18  2  0
 16 19  1  0
 19 20  1  0
 20 21  1  0
 21 22  1  0
 22 23  1  0
 22 24  1  0
 24 25  1  0
 15 26  1  0
 26 27  2  0
 11 28  2  0
 28 29  1  0
 29 30  3  0
 28  6  1  0
 27 12  1  0
 25 19  1  0
  1 31  1  0
  1 32  1  0
  1 33  1  0
  2 34  1  0
  2 35  1  0
  7 36  1  0
  9 37  1  0
  9 38  1  0
 10 39  1  0
 10 40  1  0
 10 41  1  0
 13 42  1  0
 14 43  1  0
 19 44  1  0
 20 45  1  0
 20 46  1  0
 21 47  1  0
 21 48  1  0
 23 49  1  0
 23 50  1  0
 23 51  1  0
 24 52  1  0
 24 53  1  0
 25 54  1  0
 25 55  1  0
 26 56  1  0
 27 57  1  0
M  CHG  2   3  -1  19   1
M  END
>  <UniqueID>  (32) 
31

>  <SMILES>  (32) 
CC[N-]C(=O)c1cn(CC)c(-c2ccc(S(=O)(=O)[NH+]3CCN(C)CC3)cc2)c1C#N

>  <Energy>  (32) 
97.60928197629373

>  <Genealogy>  (32) 
CC[N-]C(=O)c1cn(CC)c(-c2ccc(S(=O)(=O)[NH+]3CCN(C)CC3)cc2)c1C#N (protonated)
CC[N-]C(=O)c1cn(CC)c(-c2ccc(S(=O)(=O)[NH+]3CCN(C)CC3)cc2)c1C#N (3D coordinates assigned)
CC[N-]C(=O)c1cn(CC)c(-c2ccc(S(=O)(=O)[NH+]3CCN(C)CC3)cc2)c1C#N (nonaromatic ring conformer: 97.60928197629373 kcal/mol)

>  <smiles>  (32) 
CCNC(=O)c1cn(CC)c(-c2ccc(S(=O)(=O)N3CCN(C)CC3)cc2)c1C#N

>  <score_type>  (32) 
oracle

>  <origin>  (32) 
adgpu

>  <m_score__min__energy>  (32) 
-10.050000000000001

>  <m_primary>  (32) 
energy

$$$$
32:0
     RDKit          3D

 40 42  0  0  0  0  0  0  0  0999 V2000
   -7.7950   23.4120  -31.1490 C   0  0  0  0  0  0  0  0  0  0  0  0
   -7.1800   22.2300  -31.8460 C   0  0  0  0  0  0  0  0  0  0  0  0
   -7.9400   21.0680  -32.0600 C   0  0  0  0  0  0  0  0  0  0  0  0
   -7.3840   19.9680  -32.7170 C   0  0  0  0  0  0  0  0  0  0  0  0
   -6.0560   20.0100  -33.1560 C   0  0  0  0  0  0  0  0  0  0  0  0
   -5.3330   18.6300  -33.9800 S   0  0  0  0  0  0  0  0  0  0  0  0
   -3.8710   18.8820  -34.2270 O   0  0  0  0  0  0  0  0  0  0  0  0
   -6.0310   18.4450  -35.2990 O   0  0  0  0  0  0  0  0  0  0  0  0
   -5.5210   17.1910  -33.0040 N   0  0  0  0  0  0  0  0  0  0  0  0
   -4.3010   16.3560  -33.0970 C   0  0  0  0  0  0  0  0  0  0  0  0
   -4.5710   14.9180  -32.6450 C   0  0  0  0  0  0  0  0  0  0  0  0
   -5.6150   14.2400  -33.5490 C   0  0  0  0  0  0  0  0  0  0  0  0
   -6.5610   15.2490  -34.2250 C   0  0  0  0  0  0  0  0  0  0  0  0
   -6.7820   16.4820  -33.3370 C   0  0  0  0  0  0  0  0  0  0  0  0
   -5.2900   21.1590  -32.9360 C   0  0  0  0  0  0  0  0  0  0  0  0
   -5.8530   22.2890  -32.3180 C   0  0  0  0  0  0  0  0  0  0  0  0
   -5.0680   23.4710  -32.0900 N   0  0  0  0  0  0  0  0  0  0  0  0
   -4.5560   23.8450  -30.9540 C   0  0  0  0  0  0  0  0  0  0  0  0
   -3.8580   24.9940  -30.8150 N   0  0  0  0  0  0  0  0  0  0  0  0
   -3.3730   25.1820  -29.5900 N   0  0  0  0  0  0  0  0  0  0  0  0
   -3.6790   24.1720  -28.7480 C   0  0  0  0  0  0  0  0  0  0  0  0
   -3.2120   24.1310  -27.1840 S   0  0  0  0  0  0  0  0  0  0  0  0
   -4.5820   22.9690  -29.5050 S   0  0  0  0  0  0  0  0  0  0  0  0
   -7.7231   23.2738  -30.0601 H   0  0  0  0  0  0  0  0  0  0  0  0
   -7.2592   24.3280  -31.4385 H   0  0  0  0  0  0  0  0  0  0  0  0
   -8.8527   23.4989  -31.4385 H   0  0  0  0  0  0  0  0  0  0  0  0
   -8.9810   21.0241  -31.7074 H   0  0  0  0  0  0  0  0  0  0  0  0
   -7.9911   19.0671  -32.8896 H   0  0  0  0  0  0  0  0  0  0  0  0
   -3.9547   16.3437  -34.1410 H   0  0  0  0  0  0  0  0  0  0  0  0
   -3.5351   16.7881  -32.4361 H   0  0  0  0  0  0  0  0  0  0  0  0
   -3.6326   14.3457  -32.6881 H   0  0  0  0  0  0  0  0  0  0  0  0
   -4.9621   14.9425  -31.6172 H   0  0  0  0  0  0  0  0  0  0  0  0
   -5.0883   13.6732  -34.3309 H   0  0  0  0  0  0  0  0  0  0  0  0
   -6.2283   13.5839  -32.9138 H   0  0  0  0  0  0  0  0  0  0  0  0
   -6.1207   15.5692  -35.1808 H   0  0  0  0  0  0  0  0  0  0  0  0
   -7.5322   14.7598  -34.3906 H   0  0  0  0  0  0  0  0  0  0  0  0
   -7.4474   17.1801  -33.8660 H   0  0  0  0  0  0  0  0  0  0  0  0
   -7.2219   16.1318  -32.3916 H   0  0  0  0  0  0  0  0  0  0  0  0
   -4.2359   21.1788  -33.2498 H   0  0  0  0  0  0  0  0  0  0  0  0
   -3.7040   25.6780  -31.5880 H   0  0  0  0  0  0  0  0  0  0  0  0
  1  2  1  0
  2  3  2  0
  3  4  1  0
  4  5  2  0
  5  6  1  0
  6  7  2  0
  6  8  2  0
  6  9  1  0
  9 10  1  0
 10 11  1  0
 11 12  1  0
 12 13  1  0
 13 14  1  0
  5 15  1  0
 15 16  2  0
 16 17  1  0
 17 18  2  3
 18 19  1  0
 19 20  1  0
 20 21  1  0
 21 22  2  0
 21 23  1  0
 16  2  1  0
 23 18  1  0
 14  9  1  0
  1 24  1  0
  1 25  1  0
  1 26  1  0
  3 27  1  0
  4 28  1  0
 10 29  1  0
 10 30  1  0
 11 31  1  0
 11 32  1  0
 12 33  1  0
 12 34  1  0
 13 35  1  0
 13 36  1  0
 14 37  1  0
 14 38  1  0
 15 39  1  0
 19 40  1  0
M  CHG  1  20  -1
M  END
>  <UniqueID>  (33) 
32

>  <SMILES>  (33) 
Cc1ccc(S(=O)(=O)N2CCCCC2)cc1N=c1[nH][n-]c(=S)s1

>  <Energy>  (33) 
86.6340805144803

>  <Genealogy>  (33) 
Cc1ccc(S(=O)(=O)N2CCCCC2)cc1N=c1[nH][n-]c(=S)s1 (protonated)
Cc1ccc(S(=O)(=O)N2CCCCC2)cc1N=c1[nH][n-]c(=S)s1 (3D coordinates assigned)
Cc1ccc(S(=O)(=O)N2CCCCC2)cc1N=c1[nH][n-]c(=S)s1 (nonaromatic ring conformer: 86.6340805144803 kcal/mol)

>  <smiles>  (33) 
Cc1ccc(S(=O)(=O)N2CCCCC2)cc1N=c1[nH][nH]c(=S)s1

>  <score_type>  (33) 
oracle

>  <origin>  (33) 
adgpu

>  <m_score__min__energy>  (33) 
-10.84

>  <m_primary>  (33) 
energy

$$$$
33:0
     RDKit          3D

 48 50  0  0  0  0  0  0  0  0999 V2000
   -9.0690   18.7520  -30.9610 O   0  0  0  0  0  0  0  0  0  0  0  0
   -8.3680   19.6570  -31.9340 S   0  0  0  0  0  0  0  0  0  0  0  0
   -9.3330   20.0120  -33.0300 O   0  0  0  0  0  0  0  0  0  0  0  0
   -7.8780   21.1090  -31.1050 N   0  0  0  0  0  0  0  0  0  0  0  0
   -6.5320   21.5310  -31.5020 C   0  0  0  0  0  0  0  0  0  0  0  0
   -6.1990   22.9090  -30.9650 C   0  0  0  0  0  0  0  0  0  0  0  0
   -7.2580   23.6890  -30.4620 C   0  0  0  0  0  0  0  0  0  0  0  0
   -7.0310   24.9820  -29.9900 C   0  0  0  0  0  0  0  0  0  0  0  0
   -5.7440   25.5140  -30.0010 C   0  0  0  0  0  0  0  0  0  0  0  0
   -4.6740   24.7480  -30.4660 C   0  0  0  0  0  0  0  0  0  0  0  0
   -3.3930   25.2880  -30.4570 O   0  0  0  0  0  0  0  0  0  0  0  0
   -4.8810   23.4410  -30.9340 C   0  0  0  0  0  0  0  0  0  0  0  0
   -3.7540   22.7200  -31.3420 O   0  0  0  0  0  0  0  0  0  0  0  0
   -6.9820   18.7970  -32.6040 C   0  0  0  0  0  0  0  0  0  0  0  0
   -6.4350   19.2080  -33.8250 C   0  0  0  0  0  0  0  0  0  0  0  0
   -5.3510   18.5200  -34.3780 C   0  0  0  0  0  0  0  0  0  0  0  0
   -4.8030   17.4150  -33.7120 C   0  0  0  0  0  0  0  0  0  0  0  0
   -3.4200   16.5600  -34.3980 S   0  0  0  0  0  0  0  0  0  0  0  0
   -3.3710   15.1660  -33.8360 O   0  0  0  0  0  0  0  0  0  0  0  0
   -3.5930   16.4520  -35.8880 O   0  0  0  0  0  0  0  0  0  0  0  0
   -1.9190   17.3850  -34.0510 N   0  0  0  0  0  0  0  0  0  0  0  0
   -1.3660   16.9260  -32.7570 C   0  0  0  0  0  0  0  0  0  0  0  0
   -0.3140   17.9010  -32.2200 C   0  0  0  0  0  0  0  0  0  0  0  0
   -0.9300   19.2850  -31.9480 C   0  0  0  0  0  0  0  0  0  0  0  0
   -2.1660   19.5670  -32.8190 C   0  0  0  0  0  0  0  0  0  0  0  0
   -2.0620   18.8570  -34.1770 C   0  0  0  0  0  0  0  0  0  0  0  0
   -5.3570   16.9990  -32.4930 C   0  0  0  0  0  0  0  0  0  0  0  0
   -6.4380   17.6890  -31.9380 C   0  0  0  0  0  0  0  0  0  0  0  0
   -5.8010   20.8086  -31.1098 H   0  0  0  0  0  0  0  0  0  0  0  0
   -6.4936   21.5709  -32.6006 H   0  0  0  0  0  0  0  0  0  0  0  0
   -8.2764   23.2738  -30.4410 H   0  0  0  0  0  0  0  0  0  0  0  0
   -7.8700   25.5824  -29.6085 H   0  0  0  0  0  0  0  0  0  0  0  0
   -5.5705   26.5394  -29.6427 H   0  0  0  0  0  0  0  0  0  0  0  0
   -2.8040   23.0600  -31.2980 H   0  0  0  0  0  0  0  0  0  0  0  0
   -6.8596   20.0755  -34.3514 H   0  0  0  0  0  0  0  0  0  0  0  0
   -4.9267   18.8468  -35.3388 H   0  0  0  0  0  0  0  0  0  0  0  0
   -2.1846   16.8452  -32.0267 H   0  0  0  0  0  0  0  0  0  0  0  0
   -0.8842   15.9496  -32.9139 H   0  0  0  0  0  0  0  0  0  0  0  0
    0.1008   17.5017  -31.2827 H   0  0  0  0  0  0  0  0  0  0  0  0
    0.4773   18.0128  -32.9759 H   0  0  0  0  0  0  0  0  0  0  0  0
   -1.2262   19.3364  -30.8899 H   0  0  0  0  0  0  0  0  0  0  0  0
   -0.1702   20.0409  -32.1954 H   0  0  0  0  0  0  0  0  0  0  0  0
   -3.0640   19.2085  -32.2945 H   0  0  0  0  0  0  0  0  0  0  0  0
   -2.2273   20.6509  -32.9963 H   0  0  0  0  0  0  0  0  0  0  0  0
   -2.9719   19.0727  -34.7562 H   0  0  0  0  0  0  0  0  0  0  0  0
   -1.1582   19.2343  -34.6778 H   0  0  0  0  0  0  0  0  0  0  0  0
   -4.9388   16.1256  -31.9712 H   0  0  0  0  0  0  0  0  0  0  0  0
   -6.8629   17.3627  -30.9773 H   0  0  0  0  0  0  0  0  0  0  0  0
  1  2  2  0
  2  3  2  0
  2  4  1  0
  4  5  1  0
  5  6  1  0
  6  7  2  0
  7  8  1  0
  8  9  2  0
  9 10  1  0
 10 11  1  0
 10 12  2  0
 12 13  1  0
  2 14  1  0
 14 15  2  0
 15 16  1  0
 16 17  2  0
 17 18  1  0
 18 19  2  0
 18 20  2  0
 18 21  1  0
 21 22  1  0
 22 23  1  0
 23 24  1  0
 24 25  1  0
 25 26  1  0
 17 27  1  0
 27 28  2  0
 12  6  1  0
 28 14  1  0
 26 21  1  0
  5 29  1  0
  5 30  1  0
  7 31  1  0
  8 32  1  0
  9 33  1  0
 13 34  1  0
 15 35  1  0
 16 36  1  0
 22 37  1  0
 22 38  1  0
 23 39  1  0
 23 40  1  0
 24 41  1  0
 24 42  1  0
 25 43  1  0
 25 44  1  0
 26 45  1  0
 26 46  1  0
 27 47  1  0
 28 48  1  0
M  CHG  2   4  -1  11  -1
M  END
>  <UniqueID>  (34) 
33

>  <SMILES>  (34) 
O=S(=O)([N-]Cc1cccc([O-])c1O)c1ccc(S(=O)(=O)N2CCCCC2)cc1

>  <Energy>  (34) 
55.891302849900754

>  <Genealogy>  (34) 
O=S(=O)([N-]Cc1cccc([O-])c1O)c1ccc(S(=O)(=O)N2CCCCC2)cc1 (protonated)
O=S(=O)([N-]Cc1cccc([O-])c1O)c1ccc(S(=O)(=O)N2CCCCC2)cc1 (3D coordinates assigned)
O=S(=O)([N-]Cc1cccc([O-])c1O)c1ccc(S(=O)(=O)N2CCCCC2)cc1 (nonaromatic ring conformer: 55.891302849900754 kcal/mol)

>  <smiles>  (34) 
O=S(=O)(NCc1cccc(O)c1O)c1ccc(S(=O)(=O)N2CCCCC2)cc1

>  <score_type>  (34) 
oracle

>  <origin>  (34) 
adgpu

>  <m_score__min__energy>  (34) 
-12.880000000000001

>  <m_primary>  (34) 
energy

$$$$
34:0
     RDKit          3D

 57 60  0  0  0  0  0  0  0  0999 V2000
   -5.7970   24.9590  -30.2050 O   0  0  0  0  0  0  0  0  0  0  0  0
   -4.7520   24.3550  -30.5740 C   0  0  0  0  0  0  0  0  0  0  0  0
   -3.4750   24.9420  -30.3000 N   0  0  0  0  0  0  0  0  0  0  0  0
   -2.5590   24.3880  -29.3480 C   0  0  0  0  0  0  0  0  0  0  0  0
   -2.7720   23.0930  -28.8580 C   0  0  0  0  0  0  0  0  0  0  0  0
   -1.8690   22.5230  -27.9460 C   0  0  0  0  0  0  0  0  0  0  0  0
   -2.0600   20.8450  -27.4140 S   0  0  0  0  0  0  0  0  0  0  0  0
   -1.5830   20.7210  -25.9960 O   0  0  0  0  0  0  0  0  0  0  0  0
   -3.5220   20.4860  -27.4410 O   0  0  0  0  0  0  0  0  0  0  0  0
   -1.1970   19.7020  -28.4130 N   0  0  0  0  0  0  0  0  0  0  0  0
   -1.0160   20.1780  -29.7810 C   0  0  0  0  0  0  0  0  0  0  0  0
    0.1790   19.4150  -30.3360 C   0  0  0  0  0  0  0  0  0  0  0  0
    0.9650   18.9700  -29.1100 C   0  0  0  0  0  0  0  0  0  0  0  0
    0.1480   19.4360  -27.9120 C   0  0  0  0  0  0  0  0  0  0  0  0
   -0.7760   23.2740  -27.4930 C   0  0  0  0  0  0  0  0  0  0  0  0
   -0.5780   24.5750  -27.9550 C   0  0  0  0  0  0  0  0  0  0  0  0
   -1.4590   25.1320  -28.8860 C   0  0  0  0  0  0  0  0  0  0  0  0
   -1.2390   26.4310  -29.3320 O   0  0  0  0  0  0  0  0  0  0  0  0
   -4.8480   23.0570  -31.2930 C   0  0  0  0  0  0  0  0  0  0  0  0
   -3.6810   22.4560  -31.8120 C   0  0  0  0  0  0  0  0  0  0  0  0
   -3.7350   21.2050  -32.4360 C   0  0  0  0  0  0  0  0  0  0  0  0
   -2.2690   20.4560  -33.0650 S   0  0  0  0  0  0  0  0  0  0  0  0
   -2.3270   20.4170  -34.5690 O   0  0  0  0  0  0  0  0  0  0  0  0
   -1.0720   21.2730  -32.6610 O   0  0  0  0  0  0  0  0  0  0  0  0
   -2.1010   18.8320  -32.4610 N   0  0  0  0  0  0  0  0  0  0  0  0
   -2.3440   17.8720  -33.5360 C   0  0  0  0  0  0  0  0  0  0  0  0
   -3.8200   17.6140  -33.6580 C   0  0  0  0  0  0  0  0  0  0  0  0
   -4.5430   18.1230  -34.7490 C   0  0  0  0  0  0  0  0  0  0  0  0
   -5.9130   17.8700  -34.8690 C   0  0  0  0  0  0  0  0  0  0  0  0
   -6.5730   17.1190  -33.8920 C   0  0  0  0  0  0  0  0  0  0  0  0
   -5.8640   16.6200  -32.7970 C   0  0  0  0  0  0  0  0  0  0  0  0
   -4.4920   16.8650  -32.6760 C   0  0  0  0  0  0  0  0  0  0  0  0
   -4.9600   20.5380  -32.5380 C   0  0  0  0  0  0  0  0  0  0  0  0
   -6.1240   21.1250  -32.0430 C   0  0  0  0  0  0  0  0  0  0  0  0
   -6.0790   22.3800  -31.4330 C   0  0  0  0  0  0  0  0  0  0  0  0
   -7.2670   22.9420  -30.9800 O   0  0  0  0  0  0  0  0  0  0  0  0
   -3.6506   22.5200  -29.1892 H   0  0  0  0  0  0  0  0  0  0  0  0
   -1.9145   19.9694  -30.3803 H   0  0  0  0  0  0  0  0  0  0  0  0
   -0.8493   21.2649  -29.8107 H   0  0  0  0  0  0  0  0  0  0  0  0
   -0.1550   18.5438  -30.9186 H   0  0  0  0  0  0  0  0  0  0  0  0
    0.7856   20.0330  -31.0143 H   0  0  0  0  0  0  0  0  0  0  0  0
    1.0733   17.8754  -29.0992 H   0  0  0  0  0  0  0  0  0  0  0  0
    1.9806   19.3925  -29.1007 H   0  0  0  0  0  0  0  0  0  0  0  0
    0.1194   18.6512  -27.1418 H   0  0  0  0  0  0  0  0  0  0  0  0
    0.5883   20.3329  -27.4518 H   0  0  0  0  0  0  0  0  0  0  0  0
   -0.0717   22.8359  -26.7705 H   0  0  0  0  0  0  0  0  0  0  0  0
    0.2741   25.1644  -27.5855 H   0  0  0  0  0  0  0  0  0  0  0  0
   -2.7167   22.9780  -31.7247 H   0  0  0  0  0  0  0  0  0  0  0  0
   -1.9642   18.2803  -34.4842 H   0  0  0  0  0  0  0  0  0  0  0  0
   -1.8261   16.9289  -33.3073 H   0  0  0  0  0  0  0  0  0  0  0  0
   -4.0288   18.7240  -35.5134 H   0  0  0  0  0  0  0  0  0  0  0  0
   -6.4713   18.2619  -35.7320 H   0  0  0  0  0  0  0  0  0  0  0  0
   -7.6510   16.9210  -33.9856 H   0  0  0  0  0  0  0  0  0  0  0  0
   -6.3860   16.0325  -32.0274 H   0  0  0  0  0  0  0  0  0  0  0  0
   -3.9380   16.4710  -31.8112 H   0  0  0  0  0  0  0  0  0  0  0  0
   -5.0055   19.5459  -33.0108 H   0  0  0  0  0  0  0  0  0  0  0  0
   -7.0840   20.5957  -32.1337 H   0  0  0  0  0  0  0  0  0  0  0  0
  1  2  2  0
  2  3  1  0
  3  4  1  0
  4  5  2  0
  5  6  1  0
  6  7  1  0
  7  8  2  0
  7  9  2  0
  7 10  1  0
 10 11  1  0
 11 12  1  0
 12 13  1  0
 13 14  1  0
  6 15  2  0
 15 16  1  0
 16 17  2  0
 17 18  1  0
  2 19  1  0
 19 20  2  0
 20 21  1  0
 21 22  1  0
 22 23  2  0
 22 24  2  0
 22 25  1  0
 25 26  1  0
 26 27  1  0
 27 28  2  0
 28 29  1  0
 29 30  2  0
 30 31  1  0
 31 32  2  0
 21 33  2  0
 33 34  1  0
 34 35  2  0
 35 36  1  0
 17  4  1  0
 35 19  1  0
 14 10  1  0
 32 27  1  0
  5 37  1  0
 11 38  1  0
 11 39  1  0
 12 40  1  0
 12 41  1  0
 13 42  1  0
 13 43  1  0
 14 44  1  0
 14 45  1  0
 15 46  1  0
 16 47  1  0
 20 48  1  0
 26 49  1  0
 26 50  1  0
 28 51  1  0
 29 52  1  0
 30 53  1  0
 31 54  1  0
 32 55  1  0
 33 56  1  0
 34 57  1  0
M  CHG  4   3  -1  18  -1  25  -1  36  -1
M  END
>  <UniqueID>  (35) 
34

>  <SMILES>  (35) 
O=C([N-]c1cc(S(=O)(=O)N2CCCC2)ccc1[O-])c1cc(S(=O)(=O)[N-]Cc2ccccc2)ccc1[O-]

>  <Energy>  (35) 
70.41005313589662

>  <Genealogy>  (35) 
O=C([N-]c1cc(S(=O)(=O)N2CCCC2)ccc1[O-])c1cc(S(=O)(=O)[N-]Cc2ccccc2)ccc1[O-] (protonated)
O=C([N-]c1cc(S(=O)(=O)N2CCCC2)ccc1[O-])c1cc(S(=O)(=O)[N-]Cc2ccccc2)ccc1[O-] (3D coordinates assigned)
O=C([N-]c1cc(S(=O)(=O)N2CCCC2)ccc1[O-])c1cc(S(=O)(=O)[N-]Cc2ccccc2)ccc1[O-] (nonaromatic ring conformer: 70.41005313589662 kcal/mol)

>  <smiles>  (35) 
O=C(Nc1cc(S(=O)(=O)N2CCCC2)ccc1O)c1cc(S(=O)(=O)NCc2ccccc2)ccc1O

>  <score_type>  (35) 
oracle

>  <origin>  (35) 
adgpu

>  <m_score__min__energy>  (35) 
-17.289999999999999

>  <m_primary>  (35) 
energy

$$$$
35:0
     RDKit          3D

 39 41  0  0  0  0  0  0  0  0999 V2000
   -8.9670   19.3180  -32.6250 C   0  0  0  0  0  0  0  0  0  0  0  0
   -8.1270   20.4740  -32.1990 C   0  0  0  0  0  0  0  0  0  0  0  0
   -6.7720   20.4150  -32.1130 N   0  0  0  0  0  0  0  0  0  0  0  0
   -6.4650   21.6640  -31.7240 C   0  0  0  0  0  0  0  0  0  0  0  0
   -5.2030   22.1950  -31.4730 C   0  0  0  0  0  0  0  0  0  0  0  0
   -5.1250   23.5520  -31.0700 C   0  0  0  0  0  0  0  0  0  0  0  0
   -3.8730   24.1830  -30.7730 N   0  0  0  0  0  0  0  0  0  0  0  0
   -3.0730   24.1310  -29.2340 S   0  0  0  0  0  0  0  0  0  0  0  0
   -4.0420   24.5360  -28.1600 O   0  0  0  0  0  0  0  0  0  0  0  0
   -1.9420   25.1210  -29.2570 O   0  0  0  0  0  0  0  0  0  0  0  0
   -2.5060   22.4740  -28.9000 C   0  0  0  0  0  0  0  0  0  0  0  0
   -1.3170   21.9830  -29.4780 C   0  0  0  0  0  0  0  0  0  0  0  0
   -0.5940   22.7890  -30.4270 N   0  0  0  0  0  0  0  0  0  0  0  0
   -0.8520   20.7370  -29.1310 N   0  0  0  0  0  0  0  0  0  0  0  0
    0.3930   20.2250  -29.7350 C   0  0  0  0  0  0  0  0  0  0  0  0
   -1.5340   19.9750  -28.2140 C   0  0  0  0  0  0  0  0  0  0  0  0
   -1.0610   18.8610  -27.8460 O   0  0  0  0  0  0  0  0  0  0  0  0
   -2.7230   20.4070  -27.6910 N   0  0  0  0  0  0  0  0  0  0  0  0
   -3.4420   19.5680  -26.7130 C   0  0  0  0  0  0  0  0  0  0  0  0
   -3.2040   21.6480  -28.0080 C   0  0  0  0  0  0  0  0  0  0  0  0
   -4.2780   22.0570  -27.4880 O   0  0  0  0  0  0  0  0  0  0  0  0
   -6.3120   24.3170  -30.9500 C   0  0  0  0  0  0  0  0  0  0  0  0
   -7.5690   23.7440  -31.2160 C   0  0  0  0  0  0  0  0  0  0  0  0
   -7.5980   22.4090  -31.6010 C   0  0  0  0  0  0  0  0  0  0  0  0
   -8.6260   21.6620  -31.9000 O   0  0  0  0  0  0  0  0  0  0  0  0
   -9.3477   18.7941  -31.7359 H   0  0  0  0  0  0  0  0  0  0  0  0
   -9.8131   19.6815  -33.2267 H   0  0  0  0  0  0  0  0  0  0  0  0
   -8.3599   18.6256  -33.2267 H   0  0  0  0  0  0  0  0  0  0  0  0
   -4.2963   21.5821  -31.5837 H   0  0  0  0  0  0  0  0  0  0  0  0
    0.0690   22.3720  -31.1150 H   0  0  0  0  0  0  0  0  0  0  0  0
   -0.7190   23.8240  -30.4760 H   0  0  0  0  0  0  0  0  0  0  0  0
    1.0950   19.9363  -28.9389 H   0  0  0  0  0  0  0  0  0  0  0  0
    0.1645   19.3479  -30.3582 H   0  0  0  0  0  0  0  0  0  0  0  0
    0.8477   21.0091  -30.3582 H   0  0  0  0  0  0  0  0  0  0  0  0
   -3.1734   19.8815  -25.6934 H   0  0  0  0  0  0  0  0  0  0  0  0
   -4.5263   19.6830  -26.8583 H   0  0  0  0  0  0  0  0  0  0  0  0
   -3.1623   18.5141  -26.8583 H   0  0  0  0  0  0  0  0  0  0  0  0
   -6.2497   25.3720  -30.6450 H   0  0  0  0  0  0  0  0  0  0  0  0
   -8.4946   24.3309  -31.1227 H   0  0  0  0  0  0  0  0  0  0  0  0
  1  2  1  0
  2  3  2  0
  3  4  1  0
  4  5  2  0
  5  6  1  0
  6  7  1  0
  7  8  1  0
  8  9  2  0
  8 10  2  0
  8 11  1  0
 11 12  2  0
 12 13  1  0
 12 14  1  0
 14 15  1  0
 14 16  1  0
 16 17  2  0
 16 18  1  0
 18 19  1  0
 18 20  1  0
 20 21  2  0
  6 22  2  0
 22 23  1  0
 23 24  2  0
 24 25  1  0
 25  2  1  0
 24  4  1  0
 20 11  1  0
  1 26  1  0
  1 27  1  0
  1 28  1  0
  5 29  1  0
 13 30  1  0
 13 31  1  0
 15 32  1  0
 15 33  1  0
 15 34  1  0
 19 35  1  0
 19 36  1  0
 19 37  1  0
 22 38  1  0
 23 39  1  0
M  CHG  1   7  -1
M  END
>  <UniqueID>  (36) 
35

>  <SMILES>  (36) 
Cc1nc2cc([N-]S(=O)(=O)c3c(N)n(C)c(=O)n(C)c3=O)ccc2o1

>  <Energy>  (36) 
93.14240819137353

>  <Genealogy>  (36) 
Cc1nc2cc([N-]S(=O)(=O)c3c(N)n(C)c(=O)n(C)c3=O)ccc2o1 (protonated)
Cc1nc2cc([N-]S(=O)(=O)c3c(N)n(C)c(=O)n(C)c3=O)ccc2o1 (3D coordinates assigned)
Cc1nc2cc([N-]S(=O)(=O)c3c(N)n(C)c(=O)n(C)c3=O)ccc2o1 (optimized conformer: 93.14240819137353 kcal/mol)

>  <smiles>  (36) 
Cc1nc2cc(NS(=O)(=O)c3c(N)n(C)c(=O)n(C)c3=O)ccc2o1

>  <score_type>  (36) 
oracle

>  <origin>  (36) 
adgpu

>  <m_score__min__energy>  (36) 
-8.5399999999999991

>  <m_primary>  (36) 
energy

$$$$
36:0
     RDKit          3D

 60 64  0  0  0  0  0  0  0  0999 V2000
   -8.3880   22.0530  -31.7200 C   0  0  0  0  0  0  0  0  0  0  0  0
   -7.1160   22.7900  -31.3850 C   0  0  0  0  0  0  0  0  0  0  0  0
   -7.2100   24.0120  -30.7030 C   0  0  0  0  0  0  0  0  0  0  0  0
   -6.0700   24.7540  -30.3990 C   0  0  0  0  0  0  0  0  0  0  0  0
   -4.8020   24.2820  -30.7640 C   0  0  0  0  0  0  0  0  0  0  0  0
   -3.6020   25.0120  -30.4680 N   0  0  0  0  0  0  0  0  0  0  0  0
   -2.4590   24.6030  -29.2290 S   0  0  0  0  0  0  0  0  0  0  0  0
   -3.1030   24.8020  -27.8860 O   0  0  0  0  0  0  0  0  0  0  0  0
   -1.2560   25.5010  -29.3110 O   0  0  0  0  0  0  0  0  0  0  0  0
   -2.0000   22.9110  -29.3970 C   0  0  0  0  0  0  0  0  0  0  0  0
   -2.7180   21.9020  -28.7380 C   0  0  0  0  0  0  0  0  0  0  0  0
   -2.3240   20.5640  -28.8600 C   0  0  0  0  0  0  0  0  0  0  0  0
   -1.2170   20.2250  -29.6440 C   0  0  0  0  0  0  0  0  0  0  0  0
   -0.4990   21.2270  -30.3040 C   0  0  0  0  0  0  0  0  0  0  0  0
   -0.8860   22.5680  -30.1780 C   0  0  0  0  0  0  0  0  0  0  0  0
   -4.6930   23.0600  -31.4320 C   0  0  0  0  0  0  0  0  0  0  0  0
   -5.8320   22.2990  -31.7620 C   0  0  0  0  0  0  0  0  0  0  0  0
   -5.6400   21.0340  -32.5260 C   0  0  0  0  0  0  0  0  0  0  0  0
   -6.4840   20.6660  -33.3840 O   0  0  0  0  0  0  0  0  0  0  0  0
   -4.5020   20.2060  -32.2510 N   0  0  0  0  0  0  0  0  0  0  0  0
   -3.2230   20.2920  -32.8920 C   0  0  0  0  0  0  0  0  0  0  0  0
   -2.5120   21.4720  -33.0520 C   0  0  0  0  0  0  0  0  0  0  0  0
   -1.4330   21.1190  -33.8330 C   0  0  0  0  0  0  0  0  0  0  0  0
   -0.4620   21.9370  -34.3010 N   0  0  0  0  0  0  0  0  0  0  0  0
    0.5190   21.4350  -35.1100 C   0  0  0  0  0  0  0  0  0  0  0  0
    1.5400   22.3350  -35.5870 N   0  0  0  0  0  0  0  0  0  0  0  0
    2.9580   22.2060  -35.2710 C   0  0  0  0  0  0  0  0  0  0  0  0
    3.5550   23.5880  -35.4960 C   0  0  0  0  0  0  0  0  0  0  0  0
    2.5560   24.3190  -36.3860 C   0  0  0  0  0  0  0  0  0  0  0  0
    1.2180   23.6470  -36.1230 C   0  0  0  0  0  0  0  0  0  0  0  0
    0.4850   20.0600  -35.4870 C   0  0  0  0  0  0  0  0  0  0  0  0
    1.4670   19.4570  -36.4500 C   0  0  0  0  0  0  0  0  0  0  0  0
   -0.5400   19.2490  -34.9590 C   0  0  0  0  0  0  0  0  0  0  0  0
   -1.4610   19.8190  -34.1470 N   0  0  0  0  0  0  0  0  0  0  0  0
   -2.5580   19.2820  -33.5840 C   0  0  0  0  0  0  0  0  0  0  0  0
   -8.8967   21.7583  -30.7903 H   0  0  0  0  0  0  0  0  0  0  0  0
   -9.0479   22.7087  -32.3071 H   0  0  0  0  0  0  0  0  0  0  0  0
   -8.1474   21.1544  -32.3071 H   0  0  0  0  0  0  0  0  0  0  0  0
   -8.1984   24.3905  -30.4035 H   0  0  0  0  0  0  0  0  0  0  0  0
   -6.1660   25.7139  -29.8705 H   0  0  0  0  0  0  0  0  0  0  0  0
   -3.5926   22.1626  -28.1239 H   0  0  0  0  0  0  0  0  0  0  0  0
   -2.8872   19.7769  -28.3373 H   0  0  0  0  0  0  0  0  0  0  0  0
   -0.9117   19.1727  -29.7413 H   0  0  0  0  0  0  0  0  0  0  0  0
    0.3709   20.9623  -30.9230 H   0  0  0  0  0  0  0  0  0  0  0  0
   -0.3145   23.3542  -30.6931 H   0  0  0  0  0  0  0  0  0  0  0  0
   -3.6964   22.6837  -31.7063 H   0  0  0  0  0  0  0  0  0  0  0  0
   -2.7547   22.4655  -32.6469 H   0  0  0  0  0  0  0  0  0  0  0  0
    3.0914   21.8959  -34.2241 H   0  0  0  0  0  0  0  0  0  0  0  0
    3.4468   21.4447  -35.8967 H   0  0  0  0  0  0  0  0  0  0  0  0
    3.6759   24.1158  -34.5385 H   0  0  0  0  0  0  0  0  0  0  0  0
    4.5518   23.5334  -35.9580 H   0  0  0  0  0  0  0  0  0  0  0  0
    2.5107   25.3853  -36.1194 H   0  0  0  0  0  0  0  0  0  0  0  0
    2.8388   24.2682  -37.4478 H   0  0  0  0  0  0  0  0  0  0  0  0
    0.6334   24.2271  -35.3938 H   0  0  0  0  0  0  0  0  0  0  0  0
    0.6107   23.5760  -37.0374 H   0  0  0  0  0  0  0  0  0  0  0  0
    2.2735   18.9618  -35.8893 H   0  0  0  0  0  0  0  0  0  0  0  0
    0.9534   18.7184  -37.0830 H   0  0  0  0  0  0  0  0  0  0  0  0
    1.8934   20.2491  -37.0830 H   0  0  0  0  0  0  0  0  0  0  0  0
   -0.5903   18.1772  -35.2013 H   0  0  0  0  0  0  0  0  0  0  0  0
   -2.8743   18.2310  -33.6570 H   0  0  0  0  0  0  0  0  0  0  0  0
  1  2  1  0
  2  3  2  0
  3  4  1  0
  4  5  2  0
  5  6  1  0
  6  7  1  0
  7  8  2  0
  7  9  2  0
  7 10  1  0
 10 11  2  0
 11 12  1  0
 12 13  2  0
 13 14  1  0
 14 15  2  0
  5 16  1  0
 16 17  2  0
 17 18  1  0
 18 19  2  0
 18 20  1  0
 20 21  1  0
 21 22  1  0
 22 23  2  0
 23 24  1  0
 24 25  2  0
 25 26  1  0
 26 27  1  0
 27 28  1  0
 28 29  1  0
 29 30  1  0
 25 31  1  0
 31 32  1  0
 31 33  2  0
 33 34  1  0
 34 35  1  0
 17  2  1  0
 35 21  2  0
 15 10  1  0
 34 23  1  0
 30 26  1  0
  1 36  1  0
  1 37  1  0
  1 38  1  0
  3 39  1  0
  4 40  1  0
 11 41  1  0
 12 42  1  0
 13 43  1  0
 14 44  1  0
 15 45  1  0
 16 46  1  0
 22 47  1  0
 27 48  1  0
 27 49  1  0
 28 50  1  0
 28 51  1  0
 29 52  1  0
 29 53  1  0
 30 54  1  0
 30 55  1  0
 32 56  1  0
 32 57  1  0
 32 58  1  0
 33 59  1  0
 35 60  1  0
M  CHG  2   6  -1  20  -1
M  END
>  <UniqueID>  (37) 
36

>  <SMILES>  (37) 
Cc1ccc([N-]S(=O)(=O)c2ccccc2)cc1C(=O)[N-]c1cc2nc(N3CCCC3)c(C)cn2c1

>  <Energy>  (37) 
113.66985914270549

>  <Genealogy>  (37) 
Cc1ccc([N-]S(=O)(=O)c2ccccc2)cc1C(=O)[N-]c1cc2nc(N3CCCC3)c(C)cn2c1 (protonated)
Cc1ccc([N-]S(=O)(=O)c2ccccc2)cc1C(=O)[N-]c1cc2nc(N3CCCC3)c(C)cn2c1 (3D coordinates assigned)
Cc1ccc([N-]S(=O)(=O)c2ccccc2)cc1C(=O)[N-]c1cc2nc(N3CCCC3)c(C)cn2c1 (nonaromatic ring conformer: 113.66985914270549 kcal/mol)

>  <smiles>  (37) 
Cc1ccc(NS(=O)(=O)c2ccccc2)cc1C(=O)Nc1cc2nc(N3CCCC3)c(C)cn2c1

>  <score_type>  (37) 
oracle

>  <origin>  (37) 
adgpu

>  <m_score__min__energy>  (37) 
-11.49

>  <m_primary>  (37) 
energy

$$$$
37:0
     RDKit          3D

 53 56  0  0  0  0  0  0  0  0999 V2000
   -3.0800   19.7160  -27.1390 C   0  0  0  0  0  0  0  0  0  0  0  0
   -1.7590   20.2990  -27.4240 N   0  0  0  0  0  0  0  0  0  0  0  0
   -1.3000   21.1380  -26.2830 C   0  0  0  0  0  0  0  0  0  0  0  0
   -0.4110   22.3140  -26.7080 C   0  0  0  0  0  0  0  0  0  0  0  0
   -1.1620   23.1260  -27.7150 C   0  0  0  0  0  0  0  0  0  0  0  0
   -1.2050   24.5250  -27.6620 C   0  0  0  0  0  0  0  0  0  0  0  0
   -1.9790   25.2330  -28.5840 C   0  0  0  0  0  0  0  0  0  0  0  0
   -2.7160   24.5470  -29.5650 C   0  0  0  0  0  0  0  0  0  0  0  0
   -3.5950   25.2440  -30.4600 N   0  0  0  0  0  0  0  0  0  0  0  0
   -5.0100   25.0280  -30.5660 C   0  0  0  0  0  0  0  0  0  0  0  0
   -5.7890   25.9280  -30.1520 O   0  0  0  0  0  0  0  0  0  0  0  0
   -5.5750   23.8000  -31.1810 C   0  0  0  0  0  0  0  0  0  0  0  0
   -4.7430   22.8740  -31.8300 C   0  0  0  0  0  0  0  0  0  0  0  0
   -5.2470   21.6640  -32.3530 C   0  0  0  0  0  0  0  0  0  0  0  0
   -4.3520   20.6670  -32.9380 N   0  0  0  0  0  0  0  0  0  0  0  0
   -2.9140   20.9800  -33.0780 C   0  0  0  0  0  0  0  0  0  0  0  0
   -2.0810   19.7880  -33.5430 C   0  0  0  0  0  0  0  0  0  0  0  0
   -2.7530   19.0900  -34.5620 O   0  0  0  0  0  0  0  0  0  0  0  0
   -3.8540   18.4230  -33.9910 C   0  0  0  0  0  0  0  0  0  0  0  0
   -4.9130   19.4100  -33.4800 C   0  0  0  0  0  0  0  0  0  0  0  0
   -6.6430   21.4510  -32.2820 C   0  0  0  0  0  0  0  0  0  0  0  0
   -7.4940   22.3780  -31.6570 C   0  0  0  0  0  0  0  0  0  0  0  0
   -8.9860   22.1460  -31.6360 C   0  0  0  0  0  0  0  0  0  0  0  0
   -9.2850   21.0380  -32.4040 F   0  0  0  0  0  0  0  0  0  0  0  0
   -9.4270   21.9310  -30.3420 F   0  0  0  0  0  0  0  0  0  0  0  0
   -9.6630   23.2420  -32.1430 F   0  0  0  0  0  0  0  0  0  0  0  0
   -6.9530   23.5570  -31.1240 C   0  0  0  0  0  0  0  0  0  0  0  0
   -2.6220   23.1520  -29.6510 C   0  0  0  0  0  0  0  0  0  0  0  0
   -1.8650   22.4390  -28.7110 C   0  0  0  0  0  0  0  0  0  0  0  0
   -1.7360   20.9390  -28.7690 C   0  0  0  0  0  0  0  0  0  0  0  0
   -3.2254   19.6518  -26.0505 H   0  0  0  0  0  0  0  0  0  0  0  0
   -3.8636   20.3519  -27.5767 H   0  0  0  0  0  0  0  0  0  0  0  0
   -3.1383   18.7085  -27.5767 H   0  0  0  0  0  0  0  0  0  0  0  0
   -2.1850   21.5390  -25.7673 H   0  0  0  0  0  0  0  0  0  0  0  0
   -0.6937   20.4931  -25.6300 H   0  0  0  0  0  0  0  0  0  0  0  0
   -0.1712   22.9352  -25.8325 H   0  0  0  0  0  0  0  0  0  0  0  0
    0.5287   21.9428  -27.1430 H   0  0  0  0  0  0  0  0  0  0  0  0
   -0.6301   25.0652  -26.8954 H   0  0  0  0  0  0  0  0  0  0  0  0
   -2.0121   26.3317  -28.5424 H   0  0  0  0  0  0  0  0  0  0  0  0
   -3.6709   23.0973  -31.9335 H   0  0  0  0  0  0  0  0  0  0  0  0
   -2.8028   21.7917  -33.8120 H   0  0  0  0  0  0  0  0  0  0  0  0
   -2.5442   21.2687  -32.0831 H   0  0  0  0  0  0  0  0  0  0  0  0
   -1.1148   20.1481  -33.9263 H   0  0  0  0  0  0  0  0  0  0  0  0
   -1.9202   19.1104  -32.6916 H   0  0  0  0  0  0  0  0  0  0  0  0
   -4.3104   17.7726  -34.7517 H   0  0  0  0  0  0  0  0  0  0  0  0
   -3.4922   17.8345  -33.1350 H   0  0  0  0  0  0  0  0  0  0  0  0
   -5.5827   19.6620  -34.3154 H   0  0  0  0  0  0  0  0  0  0  0  0
   -5.4383   18.9125  -32.6514 H   0  0  0  0  0  0  0  0  0  0  0  0
   -7.0719   20.5403  -32.7255 H   0  0  0  0  0  0  0  0  0  0  0  0
   -7.6177   24.2983  -30.6565 H   0  0  0  0  0  0  0  0  0  0  0  0
   -3.1430   22.6152  -30.4574 H   0  0  0  0  0  0  0  0  0  0  0  0
   -2.5714   20.5383  -29.3619 H   0  0  0  0  0  0  0  0  0  0  0  0
   -0.7613   20.7106  -29.2248 H   0  0  0  0  0  0  0  0  0  0  0  0
  1  2  1  0
  2  3  1  0
  3  4  1  0
  4  5  1  0
  5  6  2  0
  6  7  1  0
  7  8  2  0
  8  9  1  0
  9 10  1  0
 10 11  2  0
 10 12  1  0
 12 13  2  0
 13 14  1  0
 14 15  1  0
 15 16  1  0
 16 17  1  0
 17 18  1  0
 18 19  1  0
 19 20  1  0
 14 21  2  0
 21 22  1  0
 22 23  1  0
 23 24  1  0
 23 25  1  0
 23 26  1  0
 22 27  2  0
  8 28  1  0
 28 29  2  0
 29 30  1  0
 30  2  1  0
 29  5  1  0
 27 12  1  0
 20 15  1  0
  1 31  1  0
  1 32  1  0
  1 33  1  0
  3 34  1  0
  3 35  1  0
  4 36  1  0
  4 37  1  0
  6 38  1  0
  7 39  1  0
 13 40  1  0
 16 41  1  0
 16 42  1  0
 17 43  1  0
 17 44  1  0
 19 45  1  0
 19 46  1  0
 20 47  1  0
 20 48  1  0
 21 49  1  0
 27 50  1  0
 28 51  1  0
 30 52  1  0
 30 53  1  0
M  CHG  1   9  -1
M  END
>  <UniqueID>  (38) 
37

>  <SMILES>  (38) 
CN1CCc2ccc([N-]C(=O)c3cc(N4CCOCC4)cc(C(F)(F)F)c3)cc2C1

>  <Energy>  (38) 
79.3359943226296

>  <Genealogy>  (38) 
CN1CCc2ccc([N-]C(=O)c3cc(N4CCOCC4)cc(C(F)(F)F)c3)cc2C1 (protonated)
CN1CCc2ccc([N-]C(=O)c3cc(N4CCOCC4)cc(C(F)(F)F)c3)cc2C1 (3D coordinates assigned)
CN1CCc2ccc([N-]C(=O)c3cc(N4CCOCC4)cc(C(F)(F)F)c3)cc2C1 (nonaromatic ring conformer: 79.3359943226296 kcal/mol)

>  <smiles>  (38) 
CN1CCc2ccc(NC(=O)c3cc(N4CCOCC4)cc(C(F)(F)F)c3)cc2C1

>  <score_type>  (38) 
oracle

>  <origin>  (38) 
adgpu

>  <m_score__min__energy>  (38) 
-10.68

>  <m_primary>  (38) 
energy

$$$$
38:0
     RDKit          3D

 38 39  0  0  0  0  0  0  0  0999 V2000
   -3.1610   21.8131  -31.3511 H   0  0  0  0  0  0  0  0  0  0  0  0
   -4.2430   21.9810  -31.4560 C   0  0  0  0  0  0  0  0  0  0  0  0
   -5.0110   21.0490  -32.0700 N   0  0  0  0  0  0  0  0  0  0  0  0
   -6.3510   21.2230  -32.2170 C   0  0  0  0  0  0  0  0  0  0  0  0
   -7.0780   20.3250  -32.8190 N   0  0  0  0  0  0  0  0  0  0  0  0
   -6.6080   19.0580  -33.3060 C   0  0  0  0  0  0  0  0  0  0  0  0
   -5.8150   19.0370  -34.4600 C   0  0  0  0  0  0  0  0  0  0  0  0
   -5.5604   19.9807  -34.9646 H   0  0  0  0  0  0  0  0  0  0  0  0
   -5.3450   17.8270  -34.9750 C   0  0  0  0  0  0  0  0  0  0  0  0
   -4.7095   17.8210  -35.8728 H   0  0  0  0  0  0  0  0  0  0  0  0
   -5.6820   16.6250  -34.3500 C   0  0  0  0  0  0  0  0  0  0  0  0
   -5.3010   15.6734  -34.7490 H   0  0  0  0  0  0  0  0  0  0  0  0
   -6.5020   16.6280  -33.2190 C   0  0  0  0  0  0  0  0  0  0  0  0
   -6.7694   15.6771  -32.7351 H   0  0  0  0  0  0  0  0  0  0  0  0
   -6.9890   17.8430  -32.6940 C   0  0  0  0  0  0  0  0  0  0  0  0
   -7.8620   17.8770  -31.5950 O   0  0  0  0  0  0  0  0  0  0  0  0
   -9.1100   18.5610  -31.5750 C   0  0  0  0  0  0  0  0  0  0  0  0
   -9.4187   18.7302  -30.5329 H   0  0  0  0  0  0  0  0  0  0  0  0
   -9.0062   19.5283  -32.0883 H   0  0  0  0  0  0  0  0  0  0  0  0
   -9.8696   17.9531  -32.0883 H   0  0  0  0  0  0  0  0  0  0  0  0
   -6.9350   22.3630  -31.7620 N   0  0  0  0  0  0  0  0  0  0  0  0
   -7.9650   22.4890  -31.8980 H   0  0  0  0  0  0  0  0  0  0  0  0
   -6.2090   23.3410  -31.1450 C   0  0  0  0  0  0  0  0  0  0  0  0
   -6.9180   24.5920  -30.6960 C   0  0  0  0  0  0  0  0  0  0  0  0
   -6.9382   24.6276  -29.5968 H   0  0  0  0  0  0  0  0  0  0  0  0
   -6.3854   25.4738  -31.0817 H   0  0  0  0  0  0  0  0  0  0  0  0
   -7.9482   24.5881  -31.0817 H   0  0  0  0  0  0  0  0  0  0  0  0
   -4.8160   23.1580  -30.9530 C   0  0  0  0  0  0  0  0  0  0  0  0
   -3.9460   24.1400  -30.2550 C   0  0  0  0  0  0  0  0  0  0  0  0
   -3.8580   25.3190  -30.6970 O   0  0  0  0  0  0  0  0  0  0  0  0
   -3.2030   23.7620  -29.1310 O   0  0  0  0  0  0  0  0  0  0  0  0
   -3.7920   23.3520  -27.8970 C   0  0  0  0  0  0  0  0  0  0  0  0
   -3.1347   22.6170  -27.4093 H   0  0  0  0  0  0  0  0  0  0  0  0
   -4.7751   22.9045  -28.1047 H   0  0  0  0  0  0  0  0  0  0  0  0
   -3.9820   24.5470  -26.9700 C   0  0  0  0  0  0  0  0  0  0  0  0
   -3.9287   24.2116  -25.9237 H   0  0  0  0  0  0  0  0  0  0  0  0
   -3.1902   25.2869  -27.1586 H   0  0  0  0  0  0  0  0  0  0  0  0
   -4.9642   25.0049  -27.1586 H   0  0  0  0  0  0  0  0  0  0  0  0
  1  2  1  0
  2  3  2  0
  3  4  1  0
  4  5  2  0
  5  6  1  0
  6  7  2  0
  7  8  1  0
  7  9  1  0
  9 10  1  0
  9 11  2  0
 11 12  1  0
 11 13  1  0
 13 14  1  0
 13 15  2  0
 15 16  1  0
 16 17  1  0
 17 18  1  0
 17 19  1  0
 17 20  1  0
  4 21  1  0
 21 22  1  0
 21 23  1  0
 23 24  1  0
 24 25  1  0
 24 26  1  0
 24 27  1  0
 23 28  2  0
 28 29  1  0
 29 30  2  0
 29 31  1  0
 31 32  1  0
 32 33  1  0
 32 34  1  0
 32 35  1  0
 35 36  1  0
 35 37  1  0
 35 38  1  0
 28  2  1  0
 15  6  1  0
M  END
>  <UniqueID>  (39) 
38

>  <SMILES>  (39) 
CCOC(=O)c1cn/c(=N\c2ccccc2OC)[nH]c1C

>  <Energy>  (39) 
45.613932955402596

>  <Genealogy>  (39) 
CCOC(=O)c1cn/c(=N\c2ccccc2OC)[nH]c1C (cis-trans isomerization)
CCOC(=O)c1cn/c(=N\c2ccccc2OC)[nH]c1C (3D coordinates assigned)
CCOC(=O)c1cn/c(=N\c2ccccc2OC)[nH]c1C (optimized conformer: 45.613932955402596 kcal/mol)

>  <smiles>  (39) 
CCOC(=O)c1cnc(=Nc2ccccc2OC)[nH]c1C

>  <score_type>  (39) 
oracle

>  <origin>  (39) 
adgpu

>  <m_score__min__energy>  (39) 
-6.9400000000000004

>  <m_primary>  (39) 
energy

$$$$
39:0
     RDKit          3D

 50 53  0  0  0  0  0  0  0  0999 V2000
   -9.4265   22.8611  -31.2490 H   0  0  0  0  0  0  0  0  0  0  0  0
   -8.3870   22.5250  -31.3770 C   0  0  0  0  0  0  0  0  0  0  0  0
   -8.1200   21.2000  -31.7210 C   0  0  0  0  0  0  0  0  0  0  0  0
   -8.9495   20.4897  -31.8532 H   0  0  0  0  0  0  0  0  0  0  0  0
   -6.8030   20.7730  -31.8980 C   0  0  0  0  0  0  0  0  0  0  0  0
   -6.5995   19.7263  -32.1683 H   0  0  0  0  0  0  0  0  0  0  0  0
   -5.7350   21.6720  -31.7330 C   0  0  0  0  0  0  0  0  0  0  0  0
   -4.3180   21.1770  -31.9000 C   0  0  0  0  0  0  0  0  0  0  0  0
   -4.3195   20.0771  -31.9148 H   0  0  0  0  0  0  0  0  0  0  0  0
   -3.7134   21.5475  -31.0590 H   0  0  0  0  0  0  0  0  0  0  0  0
   -3.7140   21.6940  -33.2020 C   0  0  0  0  0  0  0  0  0  0  0  0
   -2.8964   22.3938  -32.9744 H   0  0  0  0  0  0  0  0  0  0  0  0
   -3.3210   20.8482  -33.7852 H   0  0  0  0  0  0  0  0  0  0  0  0
   -4.4891   22.2128  -33.7852 H   0  0  0  0  0  0  0  0  0  0  0  0
   -6.0010   23.0020  -31.3400 C   0  0  0  0  0  0  0  0  0  0  0  0
   -4.9170   23.9310  -31.1780 N   0  0  0  0  0  0  0  0  0  0  0  0
   -4.0960   23.9820  -30.1720 C   0  0  0  0  0  0  0  0  0  0  0  0
   -4.0410   22.8830  -28.8740 S   0  0  0  0  0  0  0  0  0  0  0  0
   -2.7230   23.6630  -28.1800 C   0  0  0  0  0  0  0  0  0  0  0  0
   -2.0450   23.3440  -27.0080 C   0  0  0  0  0  0  0  0  0  0  0  0
   -2.3524   22.4842  -26.3946 H   0  0  0  0  0  0  0  0  0  0  0  0
   -0.9550   24.1500  -26.6270 C   0  0  0  0  0  0  0  0  0  0  0  0
   -0.0780   23.8150  -25.1370 S   0  0  0  0  0  0  0  0  0  0  0  0
   -0.8150   22.7770  -24.3340 O   0  0  0  0  0  0  0  0  0  0  0  0
    1.2810   23.2770  -25.4870 O   0  0  0  0  0  0  0  0  0  0  0  0
    0.0930   25.2830  -24.2030 N   0  0  0  0  0  0  0  0  0  0  0  0
    1.2330   26.0750  -24.7150 C   0  0  0  0  0  0  0  0  0  0  0  0
    2.1696   25.6356  -24.3413 H   0  0  0  0  0  0  0  0  0  0  0  0
    1.2009   26.0539  -25.8143 H   0  0  0  0  0  0  0  0  0  0  0  0
    1.1530   27.5350  -24.2610 C   0  0  0  0  0  0  0  0  0  0  0  0
    1.1304   27.5688  -23.1618 H   0  0  0  0  0  0  0  0  0  0  0  0
    2.0339   28.0696  -24.6459 H   0  0  0  0  0  0  0  0  0  0  0  0
   -0.1120   28.2170  -24.8110 C   0  0  0  0  0  0  0  0  0  0  0  0
   -0.4662   28.9502  -24.0715 H   0  0  0  0  0  0  0  0  0  0  0  0
    0.1569   28.6971  -25.7635 H   0  0  0  0  0  0  0  0  0  0  0  0
   -1.2480   27.2190  -25.0980 C   0  0  0  0  0  0  0  0  0  0  0  0
   -2.2142   27.7312  -24.9788 H   0  0  0  0  0  0  0  0  0  0  0  0
   -1.1315   26.8449  -26.1258 H   0  0  0  0  0  0  0  0  0  0  0  0
   -1.1930   26.0230  -24.1360 C   0  0  0  0  0  0  0  0  0  0  0  0
   -1.3318   26.3924  -23.1092 H   0  0  0  0  0  0  0  0  0  0  0  0
   -1.9900   25.3252  -24.4326 H   0  0  0  0  0  0  0  0  0  0  0  0
   -0.5820   25.2540  -27.4270 C   0  0  0  0  0  0  0  0  0  0  0  0
    0.2646   25.8863  -27.1213 H   0  0  0  0  0  0  0  0  0  0  0  0
   -1.2810   25.5520  -28.6080 C   0  0  0  0  0  0  0  0  0  0  0  0
   -0.9861   26.4075  -29.2334 H   0  0  0  0  0  0  0  0  0  0  0  0
   -2.3580   24.7410  -28.9730 C   0  0  0  0  0  0  0  0  0  0  0  0
   -3.1180   24.9160  -30.0840 N   0  0  0  0  0  0  0  0  0  0  0  0
   -2.9680   25.6740  -30.7870 H   0  0  0  0  0  0  0  0  0  0  0  0
   -7.3350   23.4250  -31.1950 C   0  0  0  0  0  0  0  0  0  0  0  0
   -7.5508   24.4722  -30.9364 H   0  0  0  0  0  0  0  0  0  0  0  0
  1  2  1  0
  2  3  2  0
  3  4  1  0
  3  5  1  0
  5  6  1  0
  5  7  2  0
  7  8  1  0
  8  9  1  0
  8 10  1  0
  8 11  1  0
 11 12  1  0
 11 13  1  0
 11 14  1  0
  7 15  1  0
 15 16  1  0
 16 17  2  0
 17 18  1  0
 18 19  1  0
 19 20  2  0
 20 21  1  0
 20 22  1  0
 22 23  1  0
 23 24  2  0
 23 25  2  0
 23 26  1  0
 26 27  1  0
 27 28  1  0
 27 29  1  0
 27 30  1  0
 30 31  1  0
 30 32  1  0
 30 33  1  0
 33 34  1  0
 33 35  1  0
 33 36  1  0
 36 37  1  0
 36 38  1  0
 36 39  1  0
 39 40  1  0
 39 41  1  0
 22 42  2  0
 42 43  1  0
 42 44  1  0
 44 45  1  0
 44 46  2  0
 46 47  1  0
 47 48  1  0
 15 49  2  0
 49 50  1  0
 49  2  1  0
 47 17  1  0
 46 19  1  0
 39 26  1  0
M  END
>  <UniqueID>  (40) 
39

>  <SMILES>  (40) 
CCc1ccccc1/N=c1/[nH]c2ccc(S(=O)(=O)N3CCCCC3)cc2s1

>  <Energy>  (40) 
96.98733909521441

>  <Genealogy>  (40) 
CCc1ccccc1/N=c1/[nH]c2ccc(S(=O)(=O)N3CCCCC3)cc2s1 (cis-trans isomerization)
CCc1ccccc1/N=c1/[nH]c2ccc(S(=O)(=O)N3CCCCC3)cc2s1 (3D coordinates assigned)
CCc1ccccc1/N=c1/[nH]c2ccc(S(=O)(=O)N3CCCCC3)cc2s1 (nonaromatic ring conformer: 96.98733909521441 kcal/mol)

>  <smiles>  (40) 
CCc1ccccc1N=c1[nH]c2ccc(S(=O)(=O)N3CCCCC3)cc2s1

>  <score_type>  (40) 
oracle

>  <origin>  (40) 
adgpu

>  <m_score__min__energy>  (40) 
-10.76

>  <m_primary>  (40) 
energy

$$$$
40:0
     RDKit          3D

 37 40  0  0  0  0  0  0  0  0999 V2000
    0.3660   21.0320  -32.6320 C   0  0  0  0  0  0  0  0  0  0  0  0
   -0.8550   21.4990  -31.9910 N   0  0  0  0  0  0  0  0  0  0  0  0
   -2.1090   21.2190  -32.3940 C   0  0  0  0  0  0  0  0  0  0  0  0
   -2.9780   21.7720  -31.4730 C   0  0  0  0  0  0  0  0  0  0  0  0
   -4.4040   21.6110  -31.4360 N   0  0  0  0  0  0  0  0  0  0  0  0
   -5.3220   22.7140  -31.5150 C   0  0  0  0  0  0  0  0  0  0  0  0
   -4.9050   23.8940  -31.3770 O   0  0  0  0  0  0  0  0  0  0  0  0
   -6.7630   22.4800  -31.7280 C   0  0  0  0  0  0  0  0  0  0  0  0
   -7.8020   23.4140  -31.7590 C   0  0  0  0  0  0  0  0  0  0  0  0
   -8.9850   22.7870  -31.9710 N   0  0  0  0  0  0  0  0  0  0  0  0
   -8.7190   21.4970  -32.0720 N   0  0  0  0  0  0  0  0  0  0  0  0
   -9.6050   20.4930  -32.2850 C   0  0  0  0  0  0  0  0  0  0  0  0
   -9.1070   19.1850  -32.3560 C   0  0  0  0  0  0  0  0  0  0  0  0
   -7.7210   18.9770  -32.2050 C   0  0  0  0  0  0  0  0  0  0  0  0
   -6.8810   20.0320  -31.9920 N   0  0  0  0  0  0  0  0  0  0  0  0
   -7.4080   21.2810  -31.9300 C   0  0  0  0  0  0  0  0  0  0  0  0
   -2.1710   22.3560  -30.5040 C   0  0  0  0  0  0  0  0  0  0  0  0
   -2.6020   23.1030  -29.3020 C   0  0  0  0  0  0  0  0  0  0  0  0
   -3.7790   22.7830  -28.6950 N   0  0  0  0  0  0  0  0  0  0  0  0
   -4.2360   23.4450  -27.6000 C   0  0  0  0  0  0  0  0  0  0  0  0
   -3.4960   24.4980  -27.0620 C   0  0  0  0  0  0  0  0  0  0  0  0
   -2.2890   24.8580  -27.6620 C   0  0  0  0  0  0  0  0  0  0  0  0
   -1.8330   24.1650  -28.7870 C   0  0  0  0  0  0  0  0  0  0  0  0
   -0.6520   24.5220  -29.3510 F   0  0  0  0  0  0  0  0  0  0  0  0
   -0.8790   22.1700  -30.8490 N   0  0  0  0  0  0  0  0  0  0  0  0
    1.1000   20.7513  -31.8623 H   0  0  0  0  0  0  0  0  0  0  0  0
    0.1394   20.1571  -33.2590 H   0  0  0  0  0  0  0  0  0  0  0  0
    0.7811   21.8348  -33.2590 H   0  0  0  0  0  0  0  0  0  0  0  0
   -2.3907   20.6524  -33.2938 H   0  0  0  0  0  0  0  0  0  0  0  0
   -4.7870   20.6460  -31.3440 H   0  0  0  0  0  0  0  0  0  0  0  0
   -7.6780   24.4994  -31.6302 H   0  0  0  0  0  0  0  0  0  0  0  0
  -10.6797   20.6985  -32.3984 H   0  0  0  0  0  0  0  0  0  0  0  0
   -9.7854   18.3360  -32.5265 H   0  0  0  0  0  0  0  0  0  0  0  0
   -7.3131   17.9569  -32.2592 H   0  0  0  0  0  0  0  0  0  0  0  0
   -5.1897   23.1505  -27.1377 H   0  0  0  0  0  0  0  0  0  0  0  0
   -3.8597   25.0380  -26.1754 H   0  0  0  0  0  0  0  0  0  0  0  0
   -1.6959   25.6876  -27.2496 H   0  0  0  0  0  0  0  0  0  0  0  0
  1  2  1  0
  2  3  1  0
  3  4  2  0
  4  5  1  0
  5  6  1  0
  6  7  2  0
  6  8  1  0
  8  9  1  0
  9 10  2  0
 10 11  1  0
 11 12  1  0
 12 13  2  0
 13 14  1  0
 14 15  2  0
 15 16  1  0
  4 17  1  0
 17 18  1  0
 18 19  2  0
 19 20  1  0
 20 21  2  0
 21 22  1  0
 22 23  2  0
 23 24  1  0
 17 25  2  0
 25  2  1  0
 16  8  2  0
 23 18  1  0
 16 11  1  0
  1 26  1  0
  1 27  1  0
  1 28  1  0
  3 29  1  0
  5 30  1  0
  9 31  1  0
 12 32  1  0
 13 33  1  0
 14 34  1  0
 20 35  1  0
 21 36  1  0
 22 37  1  0
M  END
>  <UniqueID>  (41) 
40

>  <SMILES>  (41) 
Cn1cc(NC(=O)c2cnn3cccnc23)c(-c2ncccc2F)n1

>  <Energy>  (41) 
114.61441320536959

>  <Genealogy>  (41) 
Cn1cc(NC(=O)c2cnn3cccnc23)c(-c2ncccc2F)n1 (3D coordinates assigned)
Cn1cc(NC(=O)c2cnn3cccnc23)c(-c2ncccc2F)n1 (optimized conformer: 114.61441320536959 kcal/mol)

>  <smiles>  (41) 
Cn1cc(NC(=O)c2cnn3cccnc23)c(-c2ncccc2F)n1

>  <score_type>  (41) 
oracle

>  <origin>  (41) 
adgpu

>  <m_score__min__energy>  (41) 
-7.46

>  <m_primary>  (41) 
energy

$$$$
41:0
     RDKit          3D

 49 52  0  0  0  0  0  0  0  0999 V2000
   -3.9900   17.9540  -34.3150 O   0  0  0  0  0  0  0  0  0  0  0  0
   -4.0750   18.9300  -33.5210 C   0  0  0  0  0  0  0  0  0  0  0  0
   -5.4150   19.3860  -33.0990 C   0  0  0  0  0  0  0  0  0  0  0  0
   -6.5050   18.5060  -33.0510 C   0  0  0  0  0  0  0  0  0  0  0  0
   -7.7620   18.9790  -32.6700 C   0  0  0  0  0  0  0  0  0  0  0  0
   -8.7370   18.1790  -32.6260 O   0  0  0  0  0  0  0  0  0  0  0  0
   -7.9310   20.3400  -32.3460 C   0  0  0  0  0  0  0  0  0  0  0  0
   -9.1790   20.8580  -31.9630 C   0  0  0  0  0  0  0  0  0  0  0  0
   -9.3100   22.2120  -31.6560 C   0  0  0  0  0  0  0  0  0  0  0  0
   -8.2060   23.0620  -31.7280 C   0  0  0  0  0  0  0  0  0  0  0  0
   -6.9450   22.5730  -32.1150 C   0  0  0  0  0  0  0  0  0  0  0  0
   -5.8010   23.4470  -32.1920 N   0  0  0  0  0  0  0  0  0  0  0  0
   -5.0770   24.2020  -30.8070 S   0  0  0  0  0  0  0  0  0  0  0  0
   -4.5030   25.5300  -31.2140 O   0  0  0  0  0  0  0  0  0  0  0  0
   -6.1260   24.4240  -29.7560 O   0  0  0  0  0  0  0  0  0  0  0  0
   -3.8260   23.1560  -30.1430 C   0  0  0  0  0  0  0  0  0  0  0  0
   -4.0360   21.7710  -30.0820 C   0  0  0  0  0  0  0  0  0  0  0  0
   -3.0430   20.9310  -29.5710 C   0  0  0  0  0  0  0  0  0  0  0  0
   -1.8370   21.4700  -29.1150 C   0  0  0  0  0  0  0  0  0  0  0  0
   -1.6220   22.8510  -29.1680 C   0  0  0  0  0  0  0  0  0  0  0  0
   -0.1090   23.5270  -28.5940 Cl  0  0  0  0  0  0  0  0  0  0  0  0
   -2.6150   23.6940  -29.6800 C   0  0  0  0  0  0  0  0  0  0  0  0
   -6.8100   21.2020  -32.4190 C   0  0  0  0  0  0  0  0  0  0  0  0
   -5.6020   20.6990  -32.7980 N   0  0  0  0  0  0  0  0  0  0  0  0
   -2.8710   19.5660  -33.0540 N   0  0  0  0  0  0  0  0  0  0  0  0
   -1.6750   18.7430  -32.8220 C   0  0  0  0  0  0  0  0  0  0  0  0
   -0.5570   19.5570  -32.1630 C   0  0  0  0  0  0  0  0  0  0  0  0
   -0.2360   20.8330  -32.9580 C   0  0  0  0  0  0  0  0  0  0  0  0
   -1.4830   21.5340  -33.5440 C   0  0  0  0  0  0  0  0  0  0  0  0
   -2.7920   21.0300  -32.9280 C   0  0  0  0  0  0  0  0  0  0  0  0
   -6.3704   17.4461  -33.3127 H   0  0  0  0  0  0  0  0  0  0  0  0
  -10.0545   20.1946  -31.9051 H   0  0  0  0  0  0  0  0  0  0  0  0
  -10.2895   22.6122  -31.3553 H   0  0  0  0  0  0  0  0  0  0  0  0
   -8.3230   24.1271  -31.4792 H   0  0  0  0  0  0  0  0  0  0  0  0
   -5.4330   23.7380  -33.1250 H   0  0  0  0  0  0  0  0  0  0  0  0
   -4.9855   21.3443  -30.4375 H   0  0  0  0  0  0  0  0  0  0  0  0
   -3.2108   19.8447  -29.5277 H   0  0  0  0  0  0  0  0  0  0  0  0
   -1.0559   20.8074  -28.7139 H   0  0  0  0  0  0  0  0  0  0  0  0
   -2.4461   24.7802  -29.7197 H   0  0  0  0  0  0  0  0  0  0  0  0
   -1.9410   17.9021  -32.1646 H   0  0  0  0  0  0  0  0  0  0  0  0
   -1.3114   18.3780  -33.7939 H   0  0  0  0  0  0  0  0  0  0  0  0
   -0.8731   19.8398  -31.1481 H   0  0  0  0  0  0  0  0  0  0  0  0
    0.3492   18.9340  -32.1354 H   0  0  0  0  0  0  0  0  0  0  0  0
    0.2760   21.5393  -32.2880 H   0  0  0  0  0  0  0  0  0  0  0  0
    0.3909   20.5303  -33.8097 H   0  0  0  0  0  0  0  0  0  0  0  0
   -1.3994   22.6146  -33.3562 H   0  0  0  0  0  0  0  0  0  0  0  0
   -1.5149   21.3080  -34.6201 H   0  0  0  0  0  0  0  0  0  0  0  0
   -2.8255   21.3073  -31.8641 H   0  0  0  0  0  0  0  0  0  0  0  0
   -3.6417   21.4864  -33.4569 H   0  0  0  0  0  0  0  0  0  0  0  0
  1  2  2  0
  2  3  1  0
  3  4  2  0
  4  5  1  0
  5  6  2  0
  5  7  1  0
  7  8  2  0
  8  9  1  0
  9 10  2  0
 10 11  1  0
 11 12  1  0
 12 13  1  0
 13 14  2  0
 13 15  2  0
 13 16  1  0
 16 17  2  0
 17 18  1  0
 18 19  2  0
 19 20  1  0
 20 21  1  0
 20 22  2  0
 11 23  2  0
 23 24  1  0
  2 25  1  0
 25 26  1  0
 26 27  1  0
 27 28  1  0
 28 29  1  0
 29 30  1  0
 24  3  1  0
 30 25  1  0
 23  7  1  0
 22 16  1  0
  4 31  1  0
  8 32  1  0
  9 33  1  0
 10 34  1  0
 12 35  1  0
 17 36  1  0
 18 37  1  0
 19 38  1  0
 22 39  1  0
 26 40  1  0
 26 41  1  0
 27 42  1  0
 27 43  1  0
 28 44  1  0
 28 45  1  0
 29 46  1  0
 29 47  1  0
 30 48  1  0
 30 49  1  0
M  CHG  1  24  -1
M  END
>  <UniqueID>  (42) 
41

>  <SMILES>  (42) 
O=C(c1cc(=O)c2cccc(NS(=O)(=O)c3cccc(Cl)c3)c2[n-]1)N1CCCCC1

>  <Energy>  (42) 
65.09356248583983

>  <Genealogy>  (42) 
O=C(c1cc(=O)c2cccc(NS(=O)(=O)c3cccc(Cl)c3)c2[n-]1)N1CCCCC1 (protonated)
O=C(c1cc(=O)c2cccc(NS(=O)(=O)c3cccc(Cl)c3)c2[n-]1)N1CCCCC1 (3D coordinates assigned)
O=C(c1cc(=O)c2cccc(NS(=O)(=O)c3cccc(Cl)c3)c2[n-]1)N1CCCCC1 (nonaromatic ring conformer: 65.09356248583983 kcal/mol)

>  <smiles>  (42) 
O=C(c1cc(=O)c2cccc(NS(=O)(=O)c3cccc(Cl)c3)c2[nH]1)N1CCCCC1

>  <score_type>  (42) 
oracle

>  <origin>  (42) 
adgpu

>  <m_score__min__energy>  (42) 
-10.82

>  <m_primary>  (42) 
energy

$$$$
42:0
     RDKit          3D

 39 40  0  0  0  0  0  0  0  0999 V2000
   -9.0850   22.0600  -31.5170 C   0  0  0  0  0  0  0  0  0  0  0  0
   -7.6450   21.7140  -31.7940 C   0  0  0  0  0  0  0  0  0  0  0  0
   -7.3310   20.4120  -32.2190 C   0  0  0  0  0  0  0  0  0  0  0  0
   -6.0130   20.0520  -32.4840 C   0  0  0  0  0  0  0  0  0  0  0  0
   -4.9900   20.9850  -32.3440 C   0  0  0  0  0  0  0  0  0  0  0  0
   -5.2730   22.2990  -31.9340 C   0  0  0  0  0  0  0  0  0  0  0  0
   -4.2140   23.2610  -31.7970 N   0  0  0  0  0  0  0  0  0  0  0  0
   -3.8110   23.9050  -30.5810 C   0  0  0  0  0  0  0  0  0  0  0  0
   -4.0130   25.1410  -30.4540 O   0  0  0  0  0  0  0  0  0  0  0  0
   -3.0750   23.1760  -29.5220 C   0  0  0  0  0  0  0  0  0  0  0  0
   -3.5740   21.9330  -29.1020 C   0  0  0  0  0  0  0  0  0  0  0  0
   -2.8980   21.1850  -28.1440 C   0  0  0  0  0  0  0  0  0  0  0  0
   -1.7120   21.6630  -27.5930 C   0  0  0  0  0  0  0  0  0  0  0  0
   -1.1840   22.9020  -27.9870 C   0  0  0  0  0  0  0  0  0  0  0  0
    0.3030   23.4670  -27.2030 S   0  0  0  0  0  0  0  0  0  0  0  0
   -0.0520   24.0290  -25.5510 C   0  0  0  0  0  0  0  0  0  0  0  0
    0.9240   24.5720  -28.0090 O   0  0  0  0  0  0  0  0  0  0  0  0
    1.2940   22.3390  -27.1090 O   0  0  0  0  0  0  0  0  0  0  0  0
   -1.8750   23.6800  -28.9560 C   0  0  0  0  0  0  0  0  0  0  0  0
   -1.4030   24.9870  -29.3250 N   0  0  0  0  0  0  0  0  0  0  0  0
   -6.6020   22.6590  -31.6080 C   0  0  0  0  0  0  0  0  0  0  0  0
   -6.9160   24.0670  -31.1550 C   0  0  0  0  0  0  0  0  0  0  0  0
   -9.2500   22.0997  -30.4302 H   0  0  0  0  0  0  0  0  0  0  0  0
   -9.3183   23.0398  -31.9593 H   0  0  0  0  0  0  0  0  0  0  0  0
   -9.7380   21.2932  -31.9593 H   0  0  0  0  0  0  0  0  0  0  0  0
   -8.1341   19.6707  -32.3434 H   0  0  0  0  0  0  0  0  0  0  0  0
   -5.7791   19.0263  -32.8053 H   0  0  0  0  0  0  0  0  0  0  0  0
   -3.9513   20.6915  -32.5560 H   0  0  0  0  0  0  0  0  0  0  0  0
   -4.5087   21.5469  -29.5347 H   0  0  0  0  0  0  0  0  0  0  0  0
   -3.3011   20.2138  -27.8210 H   0  0  0  0  0  0  0  0  0  0  0  0
   -1.1823   21.0618  -26.8394 H   0  0  0  0  0  0  0  0  0  0  0  0
    0.3887   23.3313  -24.8237 H   0  0  0  0  0  0  0  0  0  0  0  0
    0.3773   25.0311  -25.4044 H   0  0  0  0  0  0  0  0  0  0  0  0
   -1.1413   24.0718  -25.4044 H   0  0  0  0  0  0  0  0  0  0  0  0
   -0.4370   25.3130  -29.1170 H   0  0  0  0  0  0  0  0  0  0  0  0
   -2.0310   25.6810  -29.7860 H   0  0  0  0  0  0  0  0  0  0  0  0
   -6.9245   24.1052  -30.0557 H   0  0  0  0  0  0  0  0  0  0  0  0
   -6.1493   24.7556  -31.5399 H   0  0  0  0  0  0  0  0  0  0  0  0
   -7.9026   24.3646  -31.5399 H   0  0  0  0  0  0  0  0  0  0  0  0
  1  2  1  0
  2  3  2  0
  3  4  1  0
  4  5  2  0
  5  6  1  0
  6  7  1  0
  7  8  1  0
  8  9  2  0
  8 10  1  0
 10 11  2  0
 11 12  1  0
 12 13  2  0
 13 14  1  0
 14 15  1  0
 15 16  1  0
 15 17  2  0
 15 18  2  0
 14 19  2  0
 19 20  1  0
  6 21  2  0
 21 22  1  0
 21  2  1  0
 19 10  1  0
  1 23  1  0
  1 24  1  0
  1 25  1  0
  3 26  1  0
  4 27  1  0
  5 28  1  0
 11 29  1  0
 12 30  1  0
 13 31  1  0
 16 32  1  0
 16 33  1  0
 16 34  1  0
 20 35  1  0
 20 36  1  0
 22 37  1  0
 22 38  1  0
 22 39  1  0
M  CHG  1   7  -1
M  END
>  <UniqueID>  (43) 
42

>  <SMILES>  (43) 
Cc1cccc([N-]C(=O)c2cccc(S(C)(=O)=O)c2N)c1C

>  <Energy>  (43) 
50.84784543902059

>  <Genealogy>  (43) 
Cc1cccc([N-]C(=O)c2cccc(S(C)(=O)=O)c2N)c1C (protonated)
Cc1cccc([N-]C(=O)c2cccc(S(C)(=O)=O)c2N)c1C (3D coordinates assigned)
Cc1cccc([N-]C(=O)c2cccc(S(C)(=O)=O)c2N)c1C (optimized conformer: 50.84784543902059 kcal/mol)

>  <smiles>  (43) 
Cc1cccc(NC(=O)c2cccc(S(C)(=O)=O)c2N)c1C

>  <score_type>  (43) 
oracle

>  <origin>  (43) 
adgpu

>  <m_score__min__energy>  (43) 
-9.6300000000000008

>  <m_primary>  (43) 
energy

$$$$
43:0
     RDKit          3D

 36 37  0  0  0  0  0  0  0  0999 V2000
   -7.4210   19.7840  -33.0620 C   0  0  0  0  0  0  0  0  0  0  0  0
   -6.9330   21.0310  -32.3870 C   0  0  0  0  0  0  0  0  0  0  0  0
   -7.8270   21.8480  -31.6790 C   0  0  0  0  0  0  0  0  0  0  0  0
   -7.3650   22.9890  -31.0150 C   0  0  0  0  0  0  0  0  0  0  0  0
   -6.0020   23.3150  -31.0410 C   0  0  0  0  0  0  0  0  0  0  0  0
   -5.4040   24.7320  -30.1820 S   0  0  0  0  0  0  0  0  0  0  0  0
   -6.4740   25.7830  -30.0740 O   0  0  0  0  0  0  0  0  0  0  0  0
   -4.2380   25.2990  -30.9430 O   0  0  0  0  0  0  0  0  0  0  0  0
   -4.8850   24.2830  -28.5870 N   0  0  0  0  0  0  0  0  0  0  0  0
   -3.6880   23.5240  -28.3230 C   0  0  0  0  0  0  0  0  0  0  0  0
   -3.7450   22.2090  -27.8520 C   0  0  0  0  0  0  0  0  0  0  0  0
   -2.6020   21.4980  -27.6330 N   0  0  0  0  0  0  0  0  0  0  0  0
   -2.6920   20.1040  -27.1800 C   0  0  0  0  0  0  0  0  0  0  0  0
   -1.3800   22.0700  -27.8610 C   0  0  0  0  0  0  0  0  0  0  0  0
   -0.3300   21.3870  -27.6870 O   0  0  0  0  0  0  0  0  0  0  0  0
   -1.2880   23.3740  -28.2760 N   0  0  0  0  0  0  0  0  0  0  0  0
    0.0340   23.9730  -28.5320 C   0  0  0  0  0  0  0  0  0  0  0  0
   -2.4260   24.0950  -28.5320 C   0  0  0  0  0  0  0  0  0  0  0  0
   -2.3460   25.2760  -28.9710 O   0  0  0  0  0  0  0  0  0  0  0  0
   -5.1060   22.4940  -31.7360 C   0  0  0  0  0  0  0  0  0  0  0  0
   -5.5660   21.3530  -32.4000 C   0  0  0  0  0  0  0  0  0  0  0  0
   -7.7104   19.0444  -32.3010 H   0  0  0  0  0  0  0  0  0  0  0  0
   -8.2916   20.0238  -33.6901 H   0  0  0  0  0  0  0  0  0  0  0  0
   -6.6189   19.3691  -33.6901 H   0  0  0  0  0  0  0  0  0  0  0  0
   -8.8958   21.5902  -31.6459 H   0  0  0  0  0  0  0  0  0  0  0  0
   -8.0728   23.6319  -30.4712 H   0  0  0  0  0  0  0  0  0  0  0  0
   -5.4280   24.6840  -27.7920 H   0  0  0  0  0  0  0  0  0  0  0  0
   -4.7219   21.7429  -27.6560 H   0  0  0  0  0  0  0  0  0  0  0  0
   -2.6939   20.0752  -26.0804 H   0  0  0  0  0  0  0  0  0  0  0  0
   -3.6211   19.6542  -27.5602 H   0  0  0  0  0  0  0  0  0  0  0  0
   -1.8285   19.5384  -27.5602 H   0  0  0  0  0  0  0  0  0  0  0  0
    0.5270   24.1964  -27.5744 H   0  0  0  0  0  0  0  0  0  0  0  0
    0.6515   23.2668  -29.1064 H   0  0  0  0  0  0  0  0  0  0  0  0
   -0.0898   24.9029  -29.1064 H   0  0  0  0  0  0  0  0  0  0  0  0
   -4.0359   22.7477  -31.7597 H   0  0  0  0  0  0  0  0  0  0  0  0
   -4.8552   20.7055  -32.9342 H   0  0  0  0  0  0  0  0  0  0  0  0
  1  2  1  0
  2  3  2  0
  3  4  1  0
  4  5  2  0
  5  6  1  0
  6  7  2  0
  6  8  2  0
  6  9  1  0
  9 10  1  0
 10 11  2  0
 11 12  1  0
 12 13  1  0
 12 14  1  0
 14 15  2  0
 14 16  1  0
 16 17  1  0
 16 18  1  0
 18 19  2  0
  5 20  1  0
 20 21  2  0
 21  2  1  0
 18 10  1  0
  1 22  1  0
  1 23  1  0
  1 24  1  0
  3 25  1  0
  4 26  1  0
  9 27  1  0
 11 28  1  0
 13 29  1  0
 13 30  1  0
 13 31  1  0
 17 32  1  0
 17 33  1  0
 17 34  1  0
 20 35  1  0
 21 36  1  0
M  END
>  <UniqueID>  (44) 
43

>  <SMILES>  (44) 
Cc1ccc(S(=O)(=O)Nc2cn(C)c(=O)n(C)c2=O)cc1

>  <Energy>  (44) 
44.181413190634764

>  <Genealogy>  (44) 
Cc1ccc(S(=O)(=O)Nc2cn(C)c(=O)n(C)c2=O)cc1 (3D coordinates assigned)
Cc1ccc(S(=O)(=O)Nc2cn(C)c(=O)n(C)c2=O)cc1 (optimized conformer: 44.181413190634764 kcal/mol)

>  <smiles>  (44) 
Cc1ccc(S(=O)(=O)Nc2cn(C)c(=O)n(C)c2=O)cc1

>  <score_type>  (44) 
oracle

>  <origin>  (44) 
adgpu

>  <m_score__min__energy>  (44) 
-8.3599999999999994

>  <m_primary>  (44) 
energy

$$$$
44:0
     RDKit          3D

 28 29  0  0  0  0  0  0  0  0999 V2000
   -8.1600   21.9640  -30.3410 C   0  0  0  0  0  0  0  0  0  0  0  0
   -7.0140   22.9280  -30.4370 C   0  0  0  0  0  0  0  0  0  0  0  0
   -7.2120   24.2900  -30.1730 C   0  0  0  0  0  0  0  0  0  0  0  0
   -6.1530   25.1900  -30.2920 C   0  0  0  0  0  0  0  0  0  0  0  0
   -4.8900   24.7460  -30.6990 C   0  0  0  0  0  0  0  0  0  0  0  0
   -3.8580   25.6710  -30.8250 O   0  0  0  0  0  0  0  0  0  0  0  0
   -4.6800   23.3830  -30.9940 C   0  0  0  0  0  0  0  0  0  0  0  0
   -3.3490   22.8940  -31.4320 C   0  0  0  0  0  0  0  0  0  0  0  0
   -3.2550   22.2040  -32.4820 O   0  0  0  0  0  0  0  0  0  0  0  0
   -2.1460   23.2350  -30.7280 N   0  0  0  0  0  0  0  0  0  0  0  0
   -1.9900   23.2990  -29.3030 C   0  0  0  0  0  0  0  0  0  0  0  0
   -2.1850   22.1330  -28.5530 C   0  0  0  0  0  0  0  0  0  0  0  0
   -2.0320   22.1490  -27.1630 C   0  0  0  0  0  0  0  0  0  0  0  0
   -1.7000   23.3400  -26.5110 C   0  0  0  0  0  0  0  0  0  0  0  0
   -1.5350   24.5170  -27.2460 C   0  0  0  0  0  0  0  0  0  0  0  0
   -1.6920   24.5070  -28.6360 C   0  0  0  0  0  0  0  0  0  0  0  0
   -1.5810   25.7030  -29.3370 O   0  0  0  0  0  0  0  0  0  0  0  0
   -5.7510   22.4820  -30.8540 C   0  0  0  0  0  0  0  0  0  0  0  0
   -8.3892   21.7712  -29.2826 H   0  0  0  0  0  0  0  0  0  0  0  0
   -9.0436   22.3944  -30.8350 H   0  0  0  0  0  0  0  0  0  0  0  0
   -7.8873   21.0198  -30.8350 H   0  0  0  0  0  0  0  0  0  0  0  0
   -8.2063   24.6507  -29.8708 H   0  0  0  0  0  0  0  0  0  0  0  0
   -6.3116   26.2545  -30.0647 H   0  0  0  0  0  0  0  0  0  0  0  0
   -2.4607   21.1971  -29.0610 H   0  0  0  0  0  0  0  0  0  0  0  0
   -2.1728   21.2249  -26.5831 H   0  0  0  0  0  0  0  0  0  0  0  0
   -1.5686   23.3508  -25.4189 H   0  0  0  0  0  0  0  0  0  0  0  0
   -1.2808   25.4545  -26.7298 H   0  0  0  0  0  0  0  0  0  0  0  0
   -5.5964   21.4154  -31.0740 H   0  0  0  0  0  0  0  0  0  0  0  0
  1  2  1  0
  2  3  2  0
  3  4  1  0
  4  5  2  0
  5  6  1  0
  5  7  1  0
  7  8  1  0
  8  9  2  0
  8 10  1  0
 10 11  1  0
 11 12  2  0
 12 13  1  0
 13 14  2  0
 14 15  1  0
 15 16  2  0
 16 17  1  0
  7 18  2  0
 18  2  1  0
 16 11  1  0
  1 19  1  0
  1 20  1  0
  1 21  1  0
  3 22  1  0
  4 23  1  0
 12 24  1  0
 13 25  1  0
 14 26  1  0
 15 27  1  0
 18 28  1  0
M  CHG  3   6  -1  10  -1  17  -1
M  END
>  <UniqueID>  (45) 
44

>  <SMILES>  (45) 
Cc1ccc([O-])c(C(=O)[N-]c2ccccc2[O-])c1

>  <Energy>  (45) 
37.73380315749139

>  <Genealogy>  (45) 
Cc1ccc([O-])c(C(=O)[N-]c2ccccc2[O-])c1 (protonated)
Cc1ccc([O-])c(C(=O)[N-]c2ccccc2[O-])c1 (3D coordinates assigned)
Cc1ccc([O-])c(C(=O)[N-]c2ccccc2[O-])c1 (optimized conformer: 37.73380315749139 kcal/mol)

>  <smiles>  (45) 
Cc1ccc(O)c(C(=O)Nc2ccccc2O)c1

>  <score_type>  (45) 
oracle

>  <origin>  (45) 
adgpu

>  <m_score__min__energy>  (45) 
-13.18

>  <m_primary>  (45) 
energy

$$$$
45:0
     RDKit          3D

 40 42  0  0  0  0  0  0  0  0999 V2000
   -6.5910   17.0710  -32.7040 C   0  0  0  0  0  0  0  0  0  0  0  0
   -7.0400   18.2280  -31.9160 N   0  0  0  0  0  0  0  0  0  0  0  0
   -5.9990   19.2850  -31.8610 C   0  0  0  0  0  0  0  0  0  0  0  0
   -6.2530   20.4140  -32.8760 C   0  0  0  0  0  0  0  0  0  0  0  0
   -7.5840   21.0450  -32.7070 N   0  0  0  0  0  0  0  0  0  0  0  0
   -7.4700   22.5900  -31.8960 S   0  0  0  0  0  0  0  0  0  0  0  0
   -8.5520   22.6900  -30.8560 O   0  0  0  0  0  0  0  0  0  0  0  0
   -7.6830   23.6910  -32.8970 O   0  0  0  0  0  0  0  0  0  0  0  0
   -5.8980   22.8040  -31.1220 C   0  0  0  0  0  0  0  0  0  0  0  0
   -5.8140   23.0300  -29.7410 C   0  0  0  0  0  0  0  0  0  0  0  0
   -4.5690   23.1780  -29.1250 C   0  0  0  0  0  0  0  0  0  0  0  0
   -3.3880   23.1100  -29.8820 C   0  0  0  0  0  0  0  0  0  0  0  0
   -2.1050   23.2580  -29.2470 N   0  0  0  0  0  0  0  0  0  0  0  0
   -1.3100   22.2760  -28.7730 C   0  0  0  0  0  0  0  0  0  0  0  0
   -1.6090   20.9210  -28.8490 O   0  0  0  0  0  0  0  0  0  0  0  0
   -0.1520   22.7940  -28.2290 C   0  0  0  0  0  0  0  0  0  0  0  0
   -0.2360   24.1650  -28.3780 C   0  0  0  0  0  0  0  0  0  0  0  0
   -1.4430   24.4090  -29.0040 C   0  0  0  0  0  0  0  0  0  0  0  0
   -1.9290   25.6740  -29.3150 O   0  0  0  0  0  0  0  0  0  0  0  0
   -3.4770   22.8950  -31.2680 C   0  0  0  0  0  0  0  0  0  0  0  0
   -4.7230   22.7450  -31.8830 C   0  0  0  0  0  0  0  0  0  0  0  0
   -8.5770   20.1800  -32.0360 C   0  0  0  0  0  0  0  0  0  0  0  0
   -8.3540   18.7100  -32.4030 C   0  0  0  0  0  0  0  0  0  0  0  0
   -6.2779   16.2642  -32.0250 H   0  0  0  0  0  0  0  0  0  0  0  0
   -7.4169   16.7166  -33.3383 H   0  0  0  0  0  0  0  0  0  0  0  0
   -5.7423   17.3665  -33.3383 H   0  0  0  0  0  0  0  0  0  0  0  0
   -5.9868   19.7162  -30.8491 H   0  0  0  0  0  0  0  0  0  0  0  0
   -5.0350   18.8189  -32.1129 H   0  0  0  0  0  0  0  0  0  0  0  0
   -5.4789   21.1847  -32.7465 H   0  0  0  0  0  0  0  0  0  0  0  0
   -6.2203   19.9705  -33.8821 H   0  0  0  0  0  0  0  0  0  0  0  0
   -6.7330   23.0911  -29.1395 H   0  0  0  0  0  0  0  0  0  0  0  0
   -4.5133   23.3489  -28.0398 H   0  0  0  0  0  0  0  0  0  0  0  0
    0.6721   22.2288  -27.7692 H   0  0  0  0  0  0  0  0  0  0  0  0
    0.5078   24.9113  -28.0621 H   0  0  0  0  0  0  0  0  0  0  0  0
   -2.5597   22.8444  -31.8729 H   0  0  0  0  0  0  0  0  0  0  0  0
   -4.7815   22.5799  -32.9690 H   0  0  0  0  0  0  0  0  0  0  0  0
   -8.4807   20.2983  -30.9466 H   0  0  0  0  0  0  0  0  0  0  0  0
   -9.5834   20.4770  -32.3660 H   0  0  0  0  0  0  0  0  0  0  0  0
   -9.1499   18.1021  -31.9480 H   0  0  0  0  0  0  0  0  0  0  0  0
   -8.3735   18.6184  -33.4990 H   0  0  0  0  0  0  0  0  0  0  0  0
  1  2  1  0
  2  3  1  0
  3  4  1  0
  4  5  1  0
  5  6  1  0
  6  7  2  0
  6  8  2  0
  6  9  1  0
  9 10  2  0
 10 11  1  0
 11 12  2  0
 12 13  1  0
 13 14  1  0
 14 15  1  0
 14 16  2  0
 16 17  1  0
 17 18  2  0
 18 19  1  0
 12 20  1  0
 20 21  2  0
  5 22  1  0
 22 23  1  0
 23  2  1  0
 21  9  1  0
 18 13  1  0
  1 24  1  0
  1 25  1  0
  1 26  1  0
  3 27  1  0
  3 28  1  0
  4 29  1  0
  4 30  1  0
 10 31  1  0
 11 32  1  0
 16 33  1  0
 17 34  1  0
 20 35  1  0
 21 36  1  0
 22 37  1  0
 22 38  1  0
 23 39  1  0
 23 40  1  0
M  CHG  2  15  -1  19  -1
M  END
>  <UniqueID>  (46) 
45

>  <SMILES>  (46) 
CN1CCN(S(=O)(=O)c2ccc(-n3c([O-])ccc3[O-])cc2)CC1

>  <Energy>  (46) 
84.28124478680543

>  <Genealogy>  (46) 
CN1CCN(S(=O)(=O)c2ccc(-n3c([O-])ccc3[O-])cc2)CC1 (protonated)
CN1CCN(S(=O)(=O)c2ccc(-n3c([O-])ccc3[O-])cc2)CC1 (3D coordinates assigned)
CN1CCN(S(=O)(=O)c2ccc(-n3c([O-])ccc3[O-])cc2)CC1 (nonaromatic ring conformer: 84.28124478680543 kcal/mol)

>  <smiles>  (46) 
CN1CCN(S(=O)(=O)c2ccc(-n3c(O)ccc3O)cc2)CC1

>  <score_type>  (46) 
oracle

>  <origin>  (46) 
adgpu

>  <m_score__min__energy>  (46) 
-10.73

>  <m_primary>  (46) 
energy

$$$$
46:0
     RDKit          3D

 73 77  0  0  0  0  0  0  0  0999 V2000
    1.0350   20.9940  -33.3170 O   0  0  0  0  0  0  0  0  0  0  0  0
    0.4340   20.1240  -32.6350 C   0  0  0  0  0  0  0  0  0  0  0  0
   -0.3920   19.1640  -33.3000 N   0  0  0  0  0  0  0  0  0  0  0  0
   -1.8250   19.1760  -33.2810 C   0  0  0  0  0  0  0  0  0  0  0  0
   -2.5470   20.3800  -33.2510 C   0  0  0  0  0  0  0  0  0  0  0  0
   -3.9440   20.3640  -33.2320 C   0  0  0  0  0  0  0  0  0  0  0  0
   -4.6350   19.1440  -33.2470 C   0  0  0  0  0  0  0  0  0  0  0  0
   -6.4000   19.1200  -33.3160 S   0  0  0  0  0  0  0  0  0  0  0  0
   -6.8680   17.7030  -33.5020 O   0  0  0  0  0  0  0  0  0  0  0  0
   -6.8610   19.9220  -34.5000 O   0  0  0  0  0  0  0  0  0  0  0  0
   -7.1060   19.7950  -31.8620 N   0  0  0  0  0  0  0  0  0  0  0  0
   -8.5450   19.4490  -31.7450 C   0  0  0  0  0  0  0  0  0  0  0  0
   -9.4720   20.6000  -32.1660 C   0  0  0  0  0  0  0  0  0  0  0  0
   -9.2210   21.8610  -31.3210 C   0  0  0  0  0  0  0  0  0  0  0  0
   -7.7700   21.9590  -30.8160 C   0  0  0  0  0  0  0  0  0  0  0  0
   -6.8080   21.2410  -31.7680 C   0  0  0  0  0  0  0  0  0  0  0  0
   -3.9140   17.9420  -33.2370 C   0  0  0  0  0  0  0  0  0  0  0  0
   -2.5160   17.9600  -33.2410 C   0  0  0  0  0  0  0  0  0  0  0  0
    0.5730   20.0890  -31.2080 N   0  0  0  0  0  0  0  0  0  0  0  0
   -0.4510   20.3980  -30.2510 C   0  0  0  0  0  0  0  0  0  0  0  0
   -0.6540   19.5160  -29.1780 C   0  0  0  0  0  0  0  0  0  0  0  0
    0.1050   18.3030  -29.0820 N   0  0  0  0  0  0  0  0  0  0  0  0
    0.2670   17.3790  -30.1900 C   0  0  0  0  0  0  0  0  0  0  0  0
    0.8580   16.1160  -29.5760 C   0  0  0  0  0  0  0  0  0  0  0  0
    1.3930   16.5280  -28.2060 C   0  0  0  0  0  0  0  0  0  0  0  0
    0.6420   17.7980  -27.8320 C   0  0  0  0  0  0  0  0  0  0  0  0
   -1.5950   19.8220  -28.1940 C   0  0  0  0  0  0  0  0  0  0  0  0
   -2.3590   20.9810  -28.2880 C   0  0  0  0  0  0  0  0  0  0  0  0
   -2.2210   21.8490  -29.3820 C   0  0  0  0  0  0  0  0  0  0  0  0
   -3.2500   23.3000  -29.4100 S   0  0  0  0  0  0  0  0  0  0  0  0
   -3.3850   23.7580  -30.8360 O   0  0  0  0  0  0  0  0  0  0  0  0
   -4.6330   22.9850  -28.9160 O   0  0  0  0  0  0  0  0  0  0  0  0
   -2.5690   24.6110  -28.4730 N   0  0  0  0  0  0  0  0  0  0  0  0
   -1.1000   24.5660  -28.5200 C   0  0  0  0  0  0  0  0  0  0  0  0
   -0.5010   25.6840  -27.6390 C   0  0  0  0  0  0  0  0  0  0  0  0
   -1.5090   26.4780  -27.0410 O   0  0  0  0  0  0  0  0  0  0  0  0
   -2.3470   25.6610  -26.2420 C   0  0  0  0  0  0  0  0  0  0  0  0
   -3.0310   24.5580  -27.0780 C   0  0  0  0  0  0  0  0  0  0  0  0
   -1.2740   21.5390  -30.3930 C   0  0  0  0  0  0  0  0  0  0  0  0
   -1.1490   22.3010  -31.5570 O   0  0  0  0  0  0  0  0  0  0  0  0
   -2.0103   21.3401  -33.2424 H   0  0  0  0  0  0  0  0  0  0  0  0
   -4.5032   21.3109  -33.2052 H   0  0  0  0  0  0  0  0  0  0  0  0
   -8.7505   18.5798  -32.3871 H   0  0  0  0  0  0  0  0  0  0  0  0
   -8.7477   19.2320  -30.6858 H   0  0  0  0  0  0  0  0  0  0  0  0
   -9.2904   20.8367  -33.2248 H   0  0  0  0  0  0  0  0  0  0  0  0
  -10.5130   20.2806  -32.0103 H   0  0  0  0  0  0  0  0  0  0  0  0
   -9.4400   22.7462  -31.9362 H   0  0  0  0  0  0  0  0  0  0  0  0
   -9.8765   21.8059  -30.4394 H   0  0  0  0  0  0  0  0  0  0  0  0
   -7.4838   23.0189  -30.7472 H   0  0  0  0  0  0  0  0  0  0  0  0
   -7.7094   21.4787  -29.8283 H   0  0  0  0  0  0  0  0  0  0  0  0
   -6.8970   21.6888  -32.7688 H   0  0  0  0  0  0  0  0  0  0  0  0
   -5.7876   21.3551  -31.3734 H   0  0  0  0  0  0  0  0  0  0  0  0
   -4.4498   16.9814  -33.2260 H   0  0  0  0  0  0  0  0  0  0  0  0
   -1.9565   17.0134  -33.2126 H   0  0  0  0  0  0  0  0  0  0  0  0
   -0.7053   17.1622  -30.6564 H   0  0  0  0  0  0  0  0  0  0  0  0
    0.9126   17.7929  -30.9786 H   0  0  0  0  0  0  0  0  0  0  0  0
    0.0820   15.3440  -29.4675 H   0  0  0  0  0  0  0  0  0  0  0  0
    1.6516   15.6922  -30.2089 H   0  0  0  0  0  0  0  0  0  0  0  0
    1.2005   15.7372  -27.4660 H   0  0  0  0  0  0  0  0  0  0  0  0
    2.4804   16.6927  -28.2289 H   0  0  0  0  0  0  0  0  0  0  0  0
   -0.1707   17.5721  -27.1260 H   0  0  0  0  0  0  0  0  0  0  0  0
    1.2954   18.5323  -27.3381 H   0  0  0  0  0  0  0  0  0  0  0  0
   -1.7335   19.1433  -27.3395 H   0  0  0  0  0  0  0  0  0  0  0  0
   -3.0813   21.2203  -27.4936 H   0  0  0  0  0  0  0  0  0  0  0  0
   -0.7549   23.5890  -28.1508 H   0  0  0  0  0  0  0  0  0  0  0  0
   -0.7706   24.7141  -29.5590 H   0  0  0  0  0  0  0  0  0  0  0  0
    0.1080   25.2250  -26.8463 H   0  0  0  0  0  0  0  0  0  0  0  0
    0.1113   26.3345  -28.2808 H   0  0  0  0  0  0  0  0  0  0  0  0
   -1.7400   25.1882  -25.4559 H   0  0  0  0  0  0  0  0  0  0  0  0
   -3.1309   26.2967  -25.8045 H   0  0  0  0  0  0  0  0  0  0  0  0
   -2.7841   23.5745  -26.6516 H   0  0  0  0  0  0  0  0  0  0  0  0
   -4.1192   24.7172  -27.0563 H   0  0  0  0  0  0  0  0  0  0  0  0
   -0.5430   22.0690  -32.3270 H   0  0  0  0  0  0  0  0  0  0  0  0
  1  2  2  0
  2  3  1  0
  3  4  1  0
  4  5  2  0
  5  6  1  0
  6  7  2  0
  7  8  1  0
  8  9  2  0
  8 10  2  0
  8 11  1  0
 11 12  1  0
 12 13  1  0
 13 14  1  0
 14 15  1  0
 15 16  1  0
  7 17  1  0
 17 18  2  0
  2 19  1  0
 19 20  1  0
 20 21  1  0
 21 22  1  0
 22 23  1  0
 23 24  1  0
 24 25  1  0
 25 26  1  0
 21 27  2  0
 27 28  1  0
 28 29  2  0
 29 30  1  0
 30 31  2  0
 30 32  2  0
 30 33  1  0
 33 34  1  0
 34 35  1  0
 35 36  1  0
 36 37  1  0
 37 38  1  0
 29 39  1  0
 39 40  1  0
 18  4  1  0
 39 20  2  0
 16 11  1  0
 26 22  1  0
 38 33  1  0
  5 41  1  0
  6 42  1  0
 12 43  1  0
 12 44  1  0
 13 45  1  0
 13 46  1  0
 14 47  1  0
 14 48  1  0
 15 49  1  0
 15 50  1  0
 16 51  1  0
 16 52  1  0
 17 53  1  0
 18 54  1  0
 23 55  1  0
 23 56  1  0
 24 57  1  0
 24 58  1  0
 25 59  1  0
 25 60  1  0
 26 61  1  0
 26 62  1  0
 27 63  1  0
 28 64  1  0
 34 65  1  0
 34 66  1  0
 35 67  1  0
 35 68  1  0
 37 69  1  0
 37 70  1  0
 38 71  1  0
 38 72  1  0
 40 73  1  0
M  CHG  2   3  -1  19  -1
M  END
>  <UniqueID>  (47) 
46

>  <SMILES>  (47) 
O=C([N-]c1ccc(S(=O)(=O)N2CCCCC2)cc1)[N-]c1c(N2CCCC2)ccc(S(=O)(=O)N2CCOCC2)c1O

>  <Energy>  (47) 
101.63942584125313

>  <Genealogy>  (47) 
O=C([N-]c1ccc(S(=O)(=O)N2CCCCC2)cc1)[N-]c1c(N2CCCC2)ccc(S(=O)(=O)N2CCOCC2)c1O (protonated)
O=C([N-]c1ccc(S(=O)(=O)N2CCCCC2)cc1)[N-]c1c(N2CCCC2)ccc(S(=O)(=O)N2CCOCC2)c1O (3D coordinates assigned)
O=C([N-]c1ccc(S(=O)(=O)N2CCCCC2)cc1)[N-]c1c(N2CCCC2)ccc(S(=O)(=O)N2CCOCC2)c1O (nonaromatic ring conformer: 101.63942584125313 kcal/mol)

>  <smiles>  (47) 
O=C(Nc1ccc(S(=O)(=O)N2CCCCC2)cc1)Nc1c(N2CCCC2)ccc(S(=O)(=O)N2CCOCC2)c1O

>  <score_type>  (47) 
oracle

>  <origin>  (47) 
adgpu

>  <m_score__min__energy>  (47) 
-13.4

>  <m_primary>  (47) 
energy

$$$$
47:0
     RDKit          3D

 37 40  0  0  0  0  0  0  0  0999 V2000
   -8.7680   21.0190  -31.8570 O   0  0  0  0  0  0  0  0  0  0  0  0
   -7.4520   20.4800  -32.3460 S   0  0  0  0  0  0  0  0  0  0  0  0
   -7.5810   20.1830  -33.8120 O   0  0  0  0  0  0  0  0  0  0  0  0
   -6.1840   21.6860  -32.1460 C   0  0  0  0  0  0  0  0  0  0  0  0
   -4.9120   21.6150  -32.7060 C   0  0  0  0  0  0  0  0  0  0  0  0
   -4.1690   22.6800  -32.3290 N   0  0  0  0  0  0  0  0  0  0  0  0
   -4.9660   23.4150  -31.5370 C   0  0  0  0  0  0  0  0  0  0  0  0
   -4.6260   24.5750  -30.9240 N   0  0  0  0  0  0  0  0  0  0  0  0
   -5.5490   25.2060  -30.1380 C   0  0  0  0  0  0  0  0  0  0  0  0
   -6.8390   24.6580  -29.9650 C   0  0  0  0  0  0  0  0  0  0  0  0
   -7.1790   23.4530  -30.6040 C   0  0  0  0  0  0  0  0  0  0  0  0
   -6.2030   22.8480  -31.3960 C   0  0  0  0  0  0  0  0  0  0  0  0
   -7.0340   19.0050  -31.4980 N   0  0  0  0  0  0  0  0  0  0  0  0
   -7.7110   17.8120  -32.0370 C   0  0  0  0  0  0  0  0  0  0  0  0
   -7.2490   17.4560  -33.4570 C   0  0  0  0  0  0  0  0  0  0  0  0
   -5.7580   17.5700  -33.6230 C   0  0  0  0  0  0  0  0  0  0  0  0
   -5.1570   17.0410  -34.7750 C   0  0  0  0  0  0  0  0  0  0  0  0
   -3.7830   17.1810  -34.9830 C   0  0  0  0  0  0  0  0  0  0  0  0
   -2.9990   17.8590  -34.0470 C   0  0  0  0  0  0  0  0  0  0  0  0
   -3.5880   18.3990  -32.9020 C   0  0  0  0  0  0  0  0  0  0  0  0
   -4.9720   18.2770  -32.6890 C   0  0  0  0  0  0  0  0  0  0  0  0
   -5.5740   18.8190  -31.4150 C   0  0  0  0  0  0  0  0  0  0  0  0
   -4.5603   20.8060  -33.3631 H   0  0  0  0  0  0  0  0  0  0  0  0
   -3.1790   22.8830  -32.5950 H   0  0  0  0  0  0  0  0  0  0  0  0
   -5.2849   26.1485  -29.6360 H   0  0  0  0  0  0  0  0  0  0  0  0
   -7.5762   25.1730  -29.3315 H   0  0  0  0  0  0  0  0  0  0  0  0
   -8.1762   23.0044  -30.4841 H   0  0  0  0  0  0  0  0  0  0  0  0
   -7.5004   16.9592  -31.3748 H   0  0  0  0  0  0  0  0  0  0  0  0
   -8.7870   18.0355  -32.0852 H   0  0  0  0  0  0  0  0  0  0  0  0
   -7.5504   16.4212  -33.6771 H   0  0  0  0  0  0  0  0  0  0  0  0
   -7.7182   18.1698  -34.1501 H   0  0  0  0  0  0  0  0  0  0  0  0
   -5.7715   16.5128  -35.5189 H   0  0  0  0  0  0  0  0  0  0  0  0
   -3.3179   16.7568  -35.8850 H   0  0  0  0  0  0  0  0  0  0  0  0
   -1.9169   17.9677  -34.2119 H   0  0  0  0  0  0  0  0  0  0  0  0
   -2.9651   18.9231  -32.1621 H   0  0  0  0  0  0  0  0  0  0  0  0
   -5.3568   18.1150  -30.5982 H   0  0  0  0  0  0  0  0  0  0  0  0
   -5.1273   19.8082  -31.2364 H   0  0  0  0  0  0  0  0  0  0  0  0
  1  2  2  0
  2  3  2  0
  2  4  1  0
  4  5  2  0
  5  6  1  0
  6  7  1  0
  7  8  2  0
  8  9  1  0
  9 10  2  0
 10 11  1  0
 11 12  2  0
  2 13  1  0
 13 14  1  0
 14 15  1  0
 15 16  1  0
 16 17  2  0
 17 18  1  0
 18 19  2  0
 19 20  1  0
 20 21  2  0
 21 22  1  0
 12  4  1  0
 22 13  1  0
 12  7  1  0
 21 16  1  0
  5 23  1  0
  6 24  1  0
  9 25  1  0
 10 26  1  0
 11 27  1  0
 14 28  1  0
 14 29  1  0
 15 30  1  0
 15 31  1  0
 17 32  1  0
 18 33  1  0
 19 34  1  0
 20 35  1  0
 22 36  1  0
 22 37  1  0
M  END
>  <UniqueID>  (48) 
47

>  <SMILES>  (48) 
O=S(=O)(c1c[nH]c2ncccc12)N1CCc2ccccc2C1

>  <Energy>  (48) 
81.06088481598258

>  <Genealogy>  (48) 
O=S(=O)(c1c[nH]c2ncccc12)N1CCc2ccccc2C1 (3D coordinates assigned)
O=S(=O)(c1c[nH]c2ncccc12)N1CCc2ccccc2C1 (nonaromatic ring conformer: 81.06088481598258 kcal/mol)

>  <smiles>  (48) 
O=S(=O)(c1c[nH]c2ncccc12)N1CCc2ccccc2C1

>  <score_type>  (48) 
oracle

>  <origin>  (48) 
adgpu

>  <m_score__min__energy>  (48) 
-8.3100000000000005

>  <m_primary>  (48) 
energy

$$$$
48:0
     RDKit          3D

 59 62  0  0  0  0  0  0  0  0999 V2000
   -3.8400   23.6430  -31.2310 O   0  0  0  0  0  0  0  0  0  0  0  0
   -2.8780   22.8920  -30.9030 C   0  0  0  0  0  0  0  0  0  0  0  0
   -2.3080   21.9650  -31.8310 N   0  0  0  0  0  0  0  0  0  0  0  0
   -2.9140   20.8230  -32.4550 C   0  0  0  0  0  0  0  0  0  0  0  0
   -4.2880   20.6570  -32.2760 C   0  0  0  0  0  0  0  0  0  0  0  0
   -4.9770   19.6030  -32.8880 C   0  0  0  0  0  0  0  0  0  0  0  0
   -6.7120   19.4260  -32.6100 S   0  0  0  0  0  0  0  0  0  0  0  0
   -6.9160   18.9760  -31.1910 O   0  0  0  0  0  0  0  0  0  0  0  0
   -7.2320   18.3400  -33.5100 O   0  0  0  0  0  0  0  0  0  0  0  0
   -7.6280   20.8900  -32.9280 N   0  0  0  0  0  0  0  0  0  0  0  0
   -6.9110   22.1630  -32.6630 C   0  0  0  0  0  0  0  0  0  0  0  0
   -7.4870   22.9750  -31.4840 C   0  0  0  0  0  0  0  0  0  0  0  0
   -7.9480   22.0430  -30.3680 C   0  0  0  0  0  0  0  0  0  0  0  0
   -9.0680   21.1140  -30.8600 C   0  0  0  0  0  0  0  0  0  0  0  0
   -8.9980   20.8250  -32.3780 C   0  0  0  0  0  0  0  0  0  0  0  0
   -4.2800   18.7090  -33.7090 C   0  0  0  0  0  0  0  0  0  0  0  0
   -2.8960   18.8370  -33.8630 C   0  0  0  0  0  0  0  0  0  0  0  0
   -2.2000   19.8720  -33.2170 C   0  0  0  0  0  0  0  0  0  0  0  0
   -0.8180   19.9060  -33.3090 O   0  0  0  0  0  0  0  0  0  0  0  0
   -2.3910   22.8750  -29.5010 C   0  0  0  0  0  0  0  0  0  0  0  0
   -2.1640   21.6340  -28.8840 C   0  0  0  0  0  0  0  0  0  0  0  0
   -1.7940   21.5560  -27.5350 C   0  0  0  0  0  0  0  0  0  0  0  0
   -1.7150   19.9680  -26.7780 S   0  0  0  0  0  0  0  0  0  0  0  0
   -1.6130   20.1500  -25.2870 O   0  0  0  0  0  0  0  0  0  0  0  0
   -2.9590   19.1710  -27.0750 O   0  0  0  0  0  0  0  0  0  0  0  0
   -0.2940   19.1640  -27.4000 N   0  0  0  0  0  0  0  0  0  0  0  0
   -0.3980   17.7100  -27.2240 C   0  0  0  0  0  0  0  0  0  0  0  0
    0.8580   17.0400  -27.8070 C   0  0  0  0  0  0  0  0  0  0  0  0
    1.0100   17.3570  -29.1790 O   0  0  0  0  0  0  0  0  0  0  0  0
    1.1420   18.7580  -29.3440 C   0  0  0  0  0  0  0  0  0  0  0  0
   -0.1060   19.4840  -28.8210 C   0  0  0  0  0  0  0  0  0  0  0  0
   -1.6250   22.7310  -26.7950 C   0  0  0  0  0  0  0  0  0  0  0  0
   -1.8170   23.9730  -27.4070 C   0  0  0  0  0  0  0  0  0  0  0  0
   -2.2040   24.0540  -28.7520 C   0  0  0  0  0  0  0  0  0  0  0  0
   -2.3840   25.3060  -29.3300 O   0  0  0  0  0  0  0  0  0  0  0  0
   -4.8397   21.3672  -31.6426 H   0  0  0  0  0  0  0  0  0  0  0  0
   -5.8598   21.9278  -32.4400 H   0  0  0  0  0  0  0  0  0  0  0  0
   -7.0246   22.7851  -33.5630 H   0  0  0  0  0  0  0  0  0  0  0  0
   -6.7097   23.6490  -31.0947 H   0  0  0  0  0  0  0  0  0  0  0  0
   -8.3497   23.5568  -31.8406 H   0  0  0  0  0  0  0  0  0  0  0  0
   -7.0959   21.4339  -30.0320 H   0  0  0  0  0  0  0  0  0  0  0  0
   -8.3348   22.6520  -29.5377 H   0  0  0  0  0  0  0  0  0  0  0  0
   -8.9933   20.1593  -30.3187 H   0  0  0  0  0  0  0  0  0  0  0  0
  -10.0234   21.6243  -30.6684 H   0  0  0  0  0  0  0  0  0  0  0  0
   -9.3984   19.8166  -32.5592 H   0  0  0  0  0  0  0  0  0  0  0  0
   -9.5867   21.6048  -32.8832 H   0  0  0  0  0  0  0  0  0  0  0  0
   -4.8203   17.9065  -34.2325 H   0  0  0  0  0  0  0  0  0  0  0  0
   -2.3484   18.1220  -34.4946 H   0  0  0  0  0  0  0  0  0  0  0  0
   -2.2784   20.7093  -29.4687 H   0  0  0  0  0  0  0  0  0  0  0  0
   -0.4776   17.4736  -26.1527 H   0  0  0  0  0  0  0  0  0  0  0  0
   -1.2920   17.3372  -27.7452 H   0  0  0  0  0  0  0  0  0  0  0  0
    1.7425   17.3921  -27.2560 H   0  0  0  0  0  0  0  0  0  0  0  0
    0.7523   15.9496  -27.7081 H   0  0  0  0  0  0  0  0  0  0  0  0
    2.0234   19.1063  -28.7856 H   0  0  0  0  0  0  0  0  0  0  0  0
    1.2581   18.9794  -30.4152 H   0  0  0  0  0  0  0  0  0  0  0  0
    0.0241   20.5699  -28.9390 H   0  0  0  0  0  0  0  0  0  0  0  0
   -0.9881   19.1583  -29.3919 H   0  0  0  0  0  0  0  0  0  0  0  0
   -1.3415   22.6777  -25.7335 H   0  0  0  0  0  0  0  0  0  0  0  0
   -1.6630   24.8954  -26.8278 H   0  0  0  0  0  0  0  0  0  0  0  0
  1  2  2  0
  2  3  1  0
  3  4  1  0
  4  5  2  0
  5  6  1  0
  6  7  1  0
  7  8  2  0
  7  9  2  0
  7 10  1  0
 10 11  1  0
 11 12  1  0
 12 13  1  0
 13 14  1  0
 14 15  1  0
  6 16  2  0
 16 17  1  0
 17 18  2  0
 18 19  1  0
  2 20  1  0
 20 21  2  0
 21 22  1  0
 22 23  1  0
 23 24  2  0
 23 25  2  0
 23 26  1  0
 26 27  1  0
 27 28  1  0
 28 29  1  0
 29 30  1  0
 30 31  1  0
 22 32  2  0
 32 33  1  0
 33 34  2  0
 34 35  1  0
 18  4  1  0
 34 20  1  0
 15 10  1  0
 31 26  1  0
  5 36  1  0
 11 37  1  0
 11 38  1  0
 12 39  1  0
 12 40  1  0
 13 41  1  0
 13 42  1  0
 14 43  1  0
 14 44  1  0
 15 45  1  0
 15 46  1  0
 16 47  1  0
 17 48  1  0
 21 49  1  0
 27 50  1  0
 27 51  1  0
 28 52  1  0
 28 53  1  0
 30 54  1  0
 30 55  1  0
 31 56  1  0
 31 57  1  0
 32 58  1  0
 33 59  1  0
M  CHG  3   3  -1  19  -1  35  -1
M  END
>  <UniqueID>  (49) 
48

>  <SMILES>  (49) 
O=C([N-]c1cc(S(=O)(=O)N2CCCCC2)ccc1[O-])c1cc(S(=O)(=O)N2CCOCC2)ccc1[O-]

>  <Energy>  (49) 
85.35296055470631

>  <Genealogy>  (49) 
O=C([N-]c1cc(S(=O)(=O)N2CCCCC2)ccc1[O-])c1cc(S(=O)(=O)N2CCOCC2)ccc1[O-] (protonated)
O=C([N-]c1cc(S(=O)(=O)N2CCCCC2)ccc1[O-])c1cc(S(=O)(=O)N2CCOCC2)ccc1[O-] (3D coordinates assigned)
O=C([N-]c1cc(S(=O)(=O)N2CCCCC2)ccc1[O-])c1cc(S(=O)(=O)N2CCOCC2)ccc1[O-] (nonaromatic ring conformer: 85.35296055470631 kcal/mol)

>  <smiles>  (49) 
O=C(Nc1cc(S(=O)(=O)N2CCCCC2)ccc1O)c1cc(S(=O)(=O)N2CCOCC2)ccc1O

>  <score_type>  (49) 
oracle

>  <origin>  (49) 
adgpu

>  <m_score__min__energy>  (49) 
-15.210000000000001

>  <m_primary>  (49) 
energy

$$$$
