0:0
     RDKit          3D

 44 46  0  0  0  0  0  0  0  0999 V2000
   -2.7660   16.1430  -34.0690 C   0  0  0  0  0  0  0  0  0  0  0  0
   -3.4140   15.0970  -33.2840 N   0  0  0  0  0  0  0  0  0  0  0  0
   -2.8060   14.2170  -32.4720 C   0  0  0  0  0  0  0  0  0  0  0  0
   -3.7690   13.3950  -31.9350 C   0  0  0  0  0  0  0  0  0  0  0  0
   -4.9830   13.7500  -32.4050 N   0  0  0  0  0  0  0  0  0  0  0  0
   -4.7290   14.7890  -33.2280 C   0  0  0  0  0  0  0  0  0  0  0  0
   -5.8160   15.5180  -33.9680 C   0  0  0  0  0  0  0  0  0  0  0  0
   -5.8810   16.9250  -33.5290 N   0  0  0  0  0  0  0  0  0  0  0  0
   -6.9500   17.1020  -32.5170 C   0  0  0  0  0  0  0  0  0  0  0  0
   -7.3860   18.5730  -32.3460 C   0  0  0  0  0  0  0  0  0  0  0  0
   -6.3600   19.4920  -32.8580 N   0  0  0  0  0  0  0  0  0  0  0  0
   -6.0410   20.7160  -32.1700 C   0  0  0  0  0  0  0  0  0  0  0  0
   -6.9750   21.3400  -31.3280 C   0  0  0  0  0  0  0  0  0  0  0  0
   -6.6250   22.5170  -30.6620 C   0  0  0  0  0  0  0  0  0  0  0  0
   -5.3440   23.0560  -30.8220 C   0  0  0  0  0  0  0  0  0  0  0  0
   -4.8930   24.5460  -30.0010 S   0  0  0  0  0  0  0  0  0  0  0  0
   -6.3410   25.5500  -29.7600 C   0  0  0  0  0  0  0  0  0  0  0  0
   -4.2760   24.2240  -28.6680 O   0  0  0  0  0  0  0  0  0  0  0  0
   -3.8900   25.2990  -30.8280 O   0  0  0  0  0  0  0  0  0  0  0  0
   -4.4350   22.4020  -31.6610 C   0  0  0  0  0  0  0  0  0  0  0  0
   -4.7970   21.2590  -32.3010 N   0  0  0  0  0  0  0  0  0  0  0  0
   -5.8270   19.2750  -34.2100 C   0  0  0  0  0  0  0  0  0  0  0  0
   -6.0770   17.8370  -34.6720 C   0  0  0  0  0  0  0  0  0  0  0  0
   -2.3095   16.8799  -33.3919 H   0  0  0  0  0  0  0  0  0  0  0  0
   -1.9866   15.6957  -34.7034 H   0  0  0  0  0  0  0  0  0  0  0  0
   -3.5136   16.6417  -34.7034 H   0  0  0  0  0  0  0  0  0  0  0  0
   -1.7258   14.1630  -32.2713 H   0  0  0  0  0  0  0  0  0  0  0  0
   -3.5785   12.5729  -31.2294 H   0  0  0  0  0  0  0  0  0  0  0  0
   -5.6057   15.4842  -35.0472 H   0  0  0  0  0  0  0  0  0  0  0  0
   -6.7801   15.0326  -33.7560 H   0  0  0  0  0  0  0  0  0  0  0  0
   -7.8251   16.5113  -32.8255 H   0  0  0  0  0  0  0  0  0  0  0  0
   -6.5453   16.7659  -31.5509 H   0  0  0  0  0  0  0  0  0  0  0  0
   -8.3229   18.7366  -32.8988 H   0  0  0  0  0  0  0  0  0  0  0  0
   -7.5298   18.7723  -31.2738 H   0  0  0  0  0  0  0  0  0  0  0  0
   -7.9763   20.9048  -31.1935 H   0  0  0  0  0  0  0  0  0  0  0  0
   -7.3563   23.0198  -30.0121 H   0  0  0  0  0  0  0  0  0  0  0  0
   -6.5240   25.6769  -28.6828 H   0  0  0  0  0  0  0  0  0  0  0  0
   -6.1855   26.5351  -30.2241 H   0  0  0  0  0  0  0  0  0  0  0  0
   -7.2091   25.0590  -30.2241 H   0  0  0  0  0  0  0  0  0  0  0  0
   -3.4250   22.8140  -31.8029 H   0  0  0  0  0  0  0  0  0  0  0  0
   -6.3205   19.9681  -34.9071 H   0  0  0  0  0  0  0  0  0  0  0  0
   -4.7419   19.4548  -34.1928 H   0  0  0  0  0  0  0  0  0  0  0  0
   -7.1072   17.7435  -35.0461 H   0  0  0  0  0  0  0  0  0  0  0  0
   -5.3754   17.5783  -35.4788 H   0  0  0  0  0  0  0  0  0  0  0  0
  1  2  1  0
  2  3  1  0
  3  4  2  0
  4  5  1  0
  5  6  2  0
  6  7  1  0
  7  8  1  0
  8  9  1  0
  9 10  1  0
 10 11  1  0
 11 12  1  0
 12 13  2  0
 13 14  1  0
 14 15  2  0
 15 16  1  0
 16 17  1  0
 16 18  2  0
 16 19  2  0
 15 20  1  0
 20 21  2  0
 11 22  1  0
 22 23  1  0
  6  2  1  0
 23  8  1  0
 21 12  1  0
  1 24  1  0
  1 25  1  0
  1 26  1  0
  3 27  1  0
  4 28  1  0
  7 29  1  0
  7 30  1  0
  9 31  1  0
  9 32  1  0
 10 33  1  0
 10 34  1  0
 13 35  1  0
 14 36  1  0
 17 37  1  0
 17 38  1  0
 17 39  1  0
 20 40  1  0
 22 41  1  0
 22 42  1  0
 23 43  1  0
 23 44  1  0
M  END
>  <UniqueID>  (1) 
1

>  <SMILES>  (1) 
Cn1ccnc1CN1CCN(c2ccc(S(C)(=O)=O)cn2)CC1

>  <Energy>  (1) 
79.78169848537827

>  <Genealogy>  (1) 
Cn1ccnc1CN1CCN(c2ccc(S(C)(=O)=O)cn2)CC1 (3D coordinates assigned)
Cn1ccnc1CN1CCN(c2ccc(S(C)(=O)=O)cn2)CC1 (nonaromatic ring conformer: 79.78169848537827 kcal/mol)

>  <smiles>  (1) 
Cn1ccnc1CN1CCN(c2ccc(S(C)(=O)=O)cn2)CC1

>  <score_type>  (1) 
oracle

>  <origin>  (1) 
adgpu

>  <m_score__min__energy>  (1) 
-7.7400000000000002

>  <m_primary>  (1) 
energy

$$$$
1:0
     RDKit          3D

 39 41  0  0  0  0  0  0  0  0999 V2000
   -9.4830   21.4740  -31.9150 C   0  0  0  0  0  0  0  0  0  0  0  0
   -7.9950   21.6530  -31.8740 C   0  0  0  0  0  0  0  0  0  0  0  0
   -7.1500   20.6630  -32.4010 C   0  0  0  0  0  0  0  0  0  0  0  0
   -5.7660   20.8530  -32.4160 C   0  0  0  0  0  0  0  0  0  0  0  0
   -5.2150   22.0420  -31.9230 C   0  0  0  0  0  0  0  0  0  0  0  0
   -3.4410   22.3040  -32.0000 S   0  0  0  0  0  0  0  0  0  0  0  0
   -3.2060   21.9630  -30.2480 C   0  0  0  0  0  0  0  0  0  0  0  0
   -3.2480   20.6650  -29.8430 N   0  0  0  0  0  0  0  0  0  0  0  0
   -3.1130   20.3080  -28.5390 C   0  0  0  0  0  0  0  0  0  0  0  0
   -2.9260   21.2870  -27.5650 C   0  0  0  0  0  0  0  0  0  0  0  0
   -2.8790   22.6270  -27.9440 C   0  0  0  0  0  0  0  0  0  0  0  0
   -3.0190   22.9880  -29.2930 C   0  0  0  0  0  0  0  0  0  0  0  0
   -2.9830   24.4190  -29.6680 C   0  0  0  0  0  0  0  0  0  0  0  0
   -3.8360   24.8670  -30.4800 O   0  0  0  0  0  0  0  0  0  0  0  0
   -1.9550   25.3040  -29.1980 N   0  0  0  0  0  0  0  0  0  0  0  0
   -1.2830   25.2660  -27.9280 C   0  0  0  0  0  0  0  0  0  0  0  0
   -0.0120   24.6810  -27.8600 C   0  0  0  0  0  0  0  0  0  0  0  0
    0.6950   24.6580  -26.6550 C   0  0  0  0  0  0  0  0  0  0  0  0
    0.1430   25.2360  -25.5080 C   0  0  0  0  0  0  0  0  0  0  0  0
   -1.1170   25.8430  -25.5670 C   0  0  0  0  0  0  0  0  0  0  0  0
   -1.6720   26.4380  -24.4360 O   0  0  0  0  0  0  0  0  0  0  0  0
   -1.8260   25.8590  -26.7720 C   0  0  0  0  0  0  0  0  0  0  0  0
   -6.0520   23.0280  -31.3880 C   0  0  0  0  0  0  0  0  0  0  0  0
   -7.4360   22.8410  -31.3750 C   0  0  0  0  0  0  0  0  0  0  0  0
   -9.8751   21.4268  -30.8883 H   0  0  0  0  0  0  0  0  0  0  0  0
   -9.9401   22.3236  -32.4434 H   0  0  0  0  0  0  0  0  0  0  0  0
   -9.7256   20.5402  -32.4434 H   0  0  0  0  0  0  0  0  0  0  0  0
   -7.5796   19.7339  -32.8037 H   0  0  0  0  0  0  0  0  0  0  0  0
   -5.1081   20.0672  -32.8158 H   0  0  0  0  0  0  0  0  0  0  0  0
   -3.1513   19.2467  -28.2522 H   0  0  0  0  0  0  0  0  0  0  0  0
   -2.8166   21.0047  -26.5075 H   0  0  0  0  0  0  0  0  0  0  0  0
   -2.7314   23.4062  -27.1817 H   0  0  0  0  0  0  0  0  0  0  0  0
    0.4330   24.2362  -28.7623 H   0  0  0  0  0  0  0  0  0  0  0  0
    1.6869   24.1846  -26.6088 H   0  0  0  0  0  0  0  0  0  0  0  0
    0.6988   25.2138  -24.5590 H   0  0  0  0  0  0  0  0  0  0  0  0
   -2.3570   27.1810  -24.5110 H   0  0  0  0  0  0  0  0  0  0  0  0
   -2.8151   26.3383  -26.8173 H   0  0  0  0  0  0  0  0  0  0  0  0
   -5.6190   23.9519  -30.9770 H   0  0  0  0  0  0  0  0  0  0  0  0
   -8.0911   23.6275  -30.9722 H   0  0  0  0  0  0  0  0  0  0  0  0
  1  2  1  0
  2  3  2  0
  3  4  1  0
  4  5  2  0
  5  6  1  0
  6  7  1  0
  7  8  2  0
  8  9  1  0
  9 10  2  0
 10 11  1  0
 11 12  2  0
 12 13  1  0
 13 14  2  0
 13 15  1  0
 15 16  1  0
 16 17  2  0
 17 18  1  0
 18 19  2  0
 19 20  1  0
 20 21  1  0
 20 22  2  0
  5 23  1  0
 23 24  2  0
 24  2  1  0
 12  7  1  0
 22 16  1  0
  1 25  1  0
  1 26  1  0
  1 27  1  0
  3 28  1  0
  4 29  1  0
  9 30  1  0
 10 31  1  0
 11 32  1  0
 17 33  1  0
 18 34  1  0
 19 35  1  0
 21 36  1  0
 22 37  1  0
 23 38  1  0
 24 39  1  0
M  CHG  1  15  -1
M  END
>  <UniqueID>  (2) 
2

>  <SMILES>  (2) 
Cc1ccc(Sc2ncccc2C(=O)[N-]c2cccc(O)c2)cc1

>  <Energy>  (2) 
43.4916150038318

>  <Genealogy>  (2) 
Cc1ccc(Sc2ncccc2C(=O)[N-]c2cccc(O)c2)cc1 (protonated)
Cc1ccc(Sc2ncccc2C(=O)[N-]c2cccc(O)c2)cc1 (3D coordinates assigned)
Cc1ccc(Sc2ncccc2C(=O)[N-]c2cccc(O)c2)cc1 (optimized conformer: 43.4916150038318 kcal/mol)

>  <smiles>  (2) 
Cc1ccc(Sc2ncccc2C(=O)Nc2cccc(O)c2)cc1

>  <score_type>  (2) 
oracle

>  <origin>  (2) 
adgpu

>  <m_score__min__energy>  (2) 
-9.4600000000000009

>  <m_primary>  (2) 
energy

$$$$
2:0
     RDKit          3D

 42 44  0  0  0  0  0  0  0  0999 V2000
   -3.4870   25.2970  -30.4720 O   0  0  0  0  0  0  0  0  0  0  0  0
   -4.6530   24.5470  -30.5820 C   0  0  0  0  0  0  0  0  0  0  0  0
   -5.8810   25.1460  -30.2800 C   0  0  0  0  0  0  0  0  0  0  0  0
   -7.0660   24.4110  -30.3770 C   0  0  0  0  0  0  0  0  0  0  0  0
   -7.0280   23.0750  -30.7770 C   0  0  0  0  0  0  0  0  0  0  0  0
   -5.8060   22.4680  -31.0810 C   0  0  0  0  0  0  0  0  0  0  0  0
   -4.6080   23.1970  -30.9900 C   0  0  0  0  0  0  0  0  0  0  0  0
   -3.2930   22.5130  -31.3050 C   0  0  0  0  0  0  0  0  0  0  0  0
   -3.1600   22.1960  -32.7360 N   0  0  0  0  0  0  0  0  0  0  0  0
   -2.6610   20.8290  -32.9720 C   0  0  2  0  0  0  0  0  0  0  0  0
   -1.7080   20.8140  -34.0050 O   0  0  0  0  0  0  0  0  0  0  0  0
   -3.8010   19.9140  -33.3280 C   0  0  0  0  0  0  0  0  0  0  0  0
   -3.7290   18.7760  -34.1130 C   0  0  0  0  0  0  0  0  0  0  0  0
   -5.0040   18.2550  -34.1230 C   0  0  0  0  0  0  0  0  0  0  0  0
   -5.3810   17.1040  -34.8040 O   0  0  0  0  0  0  0  0  0  0  0  0
   -5.8440   19.0090  -33.3780 N   0  0  0  0  0  0  0  0  0  0  0  0
   -7.2800   18.8020  -33.1400 C   0  0  0  0  0  0  0  0  0  0  0  0
   -8.0260   20.1270  -32.9240 C   0  0  0  0  0  0  0  0  0  0  0  0
   -8.6610   20.0470  -31.5420 C   0  0  0  0  0  0  0  0  0  0  0  0
   -8.7220   18.5700  -31.1970 C   0  0  0  0  0  0  0  0  0  0  0  0
   -7.5290   17.9420  -31.8970 C   0  0  0  0  0  0  0  0  0  0  0  0
   -5.1080   20.0270  -32.8870 C   0  0  0  0  0  0  0  0  0  0  0  0
   -5.9139   26.1994  -29.9650 H   0  0  0  0  0  0  0  0  0  0  0  0
   -8.0288   24.8861  -30.1379 H   0  0  0  0  0  0  0  0  0  0  0  0
   -7.9615   22.4981  -30.8533 H   0  0  0  0  0  0  0  0  0  0  0  0
   -5.7820   21.4135  -31.3933 H   0  0  0  0  0  0  0  0  0  0  0  0
   -2.4681   23.1789  -31.0115 H   0  0  0  0  0  0  0  0  0  0  0  0
   -3.2620   21.5666  -30.7452 H   0  0  0  0  0  0  0  0  0  0  0  0
   -4.0960   22.3030  -33.1960 H   0  0  0  0  0  0  0  0  0  0  0  0
   -2.1836   20.4769  -32.0456 H   0  0  0  0  0  0  0  0  0  0  0  0
   -2.0000   21.4750  -34.6870 H   0  0  0  0  0  0  0  0  0  0  0  0
   -2.8408   18.3728  -34.6215 H   0  0  0  0  0  0  0  0  0  0  0  0
   -7.6551   18.2971  -34.0424 H   0  0  0  0  0  0  0  0  0  0  0  0
   -7.3221   20.9710  -32.9702 H   0  0  0  0  0  0  0  0  0  0  0  0
   -8.7870   20.2859  -33.7022 H   0  0  0  0  0  0  0  0  0  0  0  0
   -8.0462   20.5866  -30.8066 H   0  0  0  0  0  0  0  0  0  0  0  0
   -9.6605   20.5062  -31.5296 H   0  0  0  0  0  0  0  0  0  0  0  0
   -8.6494   18.4257  -30.1089 H   0  0  0  0  0  0  0  0  0  0  0  0
   -9.6705   18.1142  -31.5173 H   0  0  0  0  0  0  0  0  0  0  0  0
   -6.6477   17.9543  -31.2389 H   0  0  0  0  0  0  0  0  0  0  0  0
   -7.7192   16.8912  -32.1609 H   0  0  0  0  0  0  0  0  0  0  0  0
   -5.4890   20.8264  -32.2345 H   0  0  0  0  0  0  0  0  0  0  0  0
  1  2  1  0
  2  3  2  0
  3  4  1  0
  4  5  2  0
  5  6  1  0
  6  7  2  0
  7  8  1  0
  8  9  1  0
  9 10  1  0
 10 11  1  0
 10 12  1  0
 12 13  1  0
 13 14  2  0
 14 15  1  0
 14 16  1  0
 16 17  1  0
 17 18  1  0
 18 19  1  0
 19 20  1  0
 20 21  1  0
 16 22  1  0
  7  2  1  0
 22 12  2  0
 21 17  1  0
  3 23  1  0
  4 24  1  0
  5 25  1  0
  6 26  1  0
  8 27  1  0
  8 28  1  0
  9 29  1  0
 10 30  1  1
 11 31  1  0
 13 32  1  0
 17 33  1  0
 18 34  1  0
 18 35  1  0
 19 36  1  0
 19 37  1  0
 20 38  1  0
 20 39  1  0
 21 40  1  0
 21 41  1  0
 22 42  1  0
M  CHG  2   1  -1  15  -1
M  END
>  <UniqueID>  (3) 
3

>  <SMILES>  (3) 
[O-]c1ccccc1CN[C@H](O)c1cc([O-])n(C2CCCC2)c1

>  <Energy>  (3) 
72.36917228512905

>  <Genealogy>  (3) 
[O-]c1ccccc1CNC(O)c1cc([O-])n(C2CCCC2)c1 (protonated)
[O-]c1ccccc1CN[C@H](O)c1cc([O-])n(C2CCCC2)c1 (chirality)
[O-]c1ccccc1CN[C@H](O)c1cc([O-])n(C2CCCC2)c1 (3D coordinates assigned)
[O-]c1ccccc1CN[C@H](O)c1cc([O-])n(C2CCCC2)c1 (nonaromatic ring conformer: 72.36917228512905 kcal/mol)

>  <smiles>  (3) 
Oc1ccccc1CNC(O)c1cc(O)n(C2CCCC2)c1

>  <score_type>  (3) 
oracle

>  <origin>  (3) 
adgpu

>  <m_score__min__energy>  (3) 
-11.779999999999999

>  <m_primary>  (3) 
energy

$$$$
3:0
     RDKit          3D

 38 40  0  0  0  0  0  0  0  0999 V2000
   -5.4010   26.2020  -30.5610 N   0  0  0  0  0  0  0  0  0  0  0  0
   -5.9820   24.8660  -30.4650 C   0  0  0  0  0  0  0  0  0  0  0  0
   -4.9320   23.8270  -30.7610 C   0  0  0  0  0  0  0  0  0  0  0  0
   -5.3020   22.6150  -31.3670 C   0  0  0  0  0  0  0  0  0  0  0  0
   -4.3360   21.6430  -31.6820 C   0  0  0  0  0  0  0  0  0  0  0  0
   -4.7380   20.3600  -32.3160 C   0  0  0  0  0  0  0  0  0  0  0  0
   -3.7920   19.5390  -32.9460 C   0  0  0  0  0  0  0  0  0  0  0  0
   -4.1790   18.3820  -33.5420 N   0  0  0  0  0  0  0  0  0  0  0  0
   -5.4750   17.9740  -33.5570 C   0  0  0  0  0  0  0  0  0  0  0  0
   -5.7720   16.8940  -34.1320 O   0  0  0  0  0  0  0  0  0  0  0  0
   -6.4700   18.7570  -32.9430 C   0  0  0  0  0  0  0  0  0  0  0  0
   -7.8520   18.3360  -32.9780 N   0  0  0  0  0  0  0  0  0  0  0  0
   -8.8180   18.5840  -31.9070 C   0  0  0  0  0  0  0  0  0  0  0  0
   -8.9250   20.0510  -31.6220 C   0  0  0  0  0  0  0  0  0  0  0  0
   -9.6720   20.9610  -32.3430 C   0  0  0  0  0  0  0  0  0  0  0  0
   -9.4560   22.1790  -31.7340 C   0  0  0  0  0  0  0  0  0  0  0  0
   -8.5950   21.9350  -30.6820 C   0  0  0  0  0  0  0  0  0  0  0  0
   -8.2980   20.6570  -30.6410 O   0  0  0  0  0  0  0  0  0  0  0  0
   -6.0800   19.9490  -32.3090 C   0  0  0  0  0  0  0  0  0  0  0  0
   -2.9860   21.9050  -31.3930 C   0  0  0  0  0  0  0  0  0  0  0  0
   -2.6100   23.1150  -30.8050 C   0  0  0  0  0  0  0  0  0  0  0  0
   -3.5740   24.0780  -30.4950 C   0  0  0  0  0  0  0  0  0  0  0  0
   -3.1730   25.2810  -29.9230 O   0  0  0  0  0  0  0  0  0  0  0  0
   -4.6140   26.1590  -31.2470 H   0  0  0  0  0  0  0  0  0  0  0  0
   -4.9770   26.4400  -29.6350 H   0  0  0  0  0  0  0  0  0  0  0  0
   -6.3725   24.7104  -29.4485 H   0  0  0  0  0  0  0  0  0  0  0  0
   -6.7989   24.7733  -31.1958 H   0  0  0  0  0  0  0  0  0  0  0  0
   -6.3604   22.4239  -31.5980 H   0  0  0  0  0  0  0  0  0  0  0  0
   -2.7322   19.8334  -32.9575 H   0  0  0  0  0  0  0  0  0  0  0  0
   -8.2110   17.8480  -33.8300 H   0  0  0  0  0  0  0  0  0  0  0  0
   -9.8032   18.2026  -32.2134 H   0  0  0  0  0  0  0  0  0  0  0  0
   -8.4771   18.0699  -30.9962 H   0  0  0  0  0  0  0  0  0  0  0  0
  -10.3058   20.7573  -33.2186 H   0  0  0  0  0  0  0  0  0  0  0  0
   -9.8833   23.1494  -32.0269 H   0  0  0  0  0  0  0  0  0  0  0  0
   -8.2157   22.6961  -29.9843 H   0  0  0  0  0  0  0  0  0  0  0  0
   -6.8352   20.5670  -31.8014 H   0  0  0  0  0  0  0  0  0  0  0  0
   -2.2202   21.1522  -31.6314 H   0  0  0  0  0  0  0  0  0  0  0  0
   -1.5502   23.3107  -30.5850 H   0  0  0  0  0  0  0  0  0  0  0  0
  1  2  1  0
  2  3  1  0
  3  4  2  0
  4  5  1  0
  5  6  1  0
  6  7  2  0
  7  8  1  0
  8  9  1  0
  9 10  2  0
  9 11  1  0
 11 12  1  0
 12 13  1  0
 13 14  1  0
 14 15  2  0
 15 16  1  0
 16 17  2  0
 17 18  1  0
 11 19  2  0
  5 20  2  0
 20 21  1  0
 21 22  2  0
 22 23  1  0
 22  3  1  0
 19  6  1  0
 18 14  1  0
  1 24  1  0
  1 25  1  0
  2 26  1  0
  2 27  1  0
  4 28  1  0
  7 29  1  0
 12 30  1  0
 13 31  1  0
 13 32  1  0
 15 33  1  0
 16 34  1  0
 17 35  1  0
 19 36  1  0
 20 37  1  0
 21 38  1  0
M  CHG  2   8  -1  23  -1
M  END
>  <UniqueID>  (4) 
4

>  <SMILES>  (4) 
NCc1cc(-c2c[n-]c(=O)c(NCc3ccco3)c2)ccc1[O-]

>  <Energy>  (4) 
69.82701750930285

>  <Genealogy>  (4) 
NCc1cc(-c2c[n-]c(=O)c(NCc3ccco3)c2)ccc1[O-] (protonated)
NCc1cc(-c2c[n-]c(=O)c(NCc3ccco3)c2)ccc1[O-] (3D coordinates assigned)
NCc1cc(-c2c[n-]c(=O)c(NCc3ccco3)c2)ccc1[O-] (optimized conformer: 69.82701750930285 kcal/mol)

>  <smiles>  (4) 
NCc1cc(-c2c[nH]c(=O)c(NCc3ccco3)c2)ccc1O

>  <score_type>  (4) 
oracle

>  <origin>  (4) 
adgpu

>  <m_score__min__energy>  (4) 
-10.789999999999999

>  <m_primary>  (4) 
energy

$$$$
4:0
     RDKit          3D

 42 44  0  0  0  0  0  0  0  0999 V2000
   -3.6270   16.3630  -33.6520 C   0  0  0  0  0  0  0  0  0  0  0  0
   -4.8440   17.1580  -33.2850 C   0  0  0  0  0  0  0  0  0  0  0  0
   -4.7420   18.2770  -32.4430 C   0  0  0  0  0  0  0  0  0  0  0  0
   -5.8800   19.0180  -32.1180 C   0  0  0  0  0  0  0  0  0  0  0  0
   -7.1310   18.6560  -32.6330 C   0  0  0  0  0  0  0  0  0  0  0  0
   -8.5670   19.5640  -32.1630 S   0  0  0  0  0  0  0  0  0  0  0  0
   -8.7440   19.5500  -30.6700 O   0  0  0  0  0  0  0  0  0  0  0  0
   -9.7700   18.9370  -32.8090 O   0  0  0  0  0  0  0  0  0  0  0  0
   -8.4180   21.2050  -32.7030 N   0  0  0  0  0  0  0  0  0  0  0  0
   -7.4890   22.1510  -32.1560 C   0  0  0  0  0  0  0  0  0  0  0  0
   -6.1150   22.0910  -32.4410 C   0  0  0  0  0  0  0  0  0  0  0  0
   -5.2510   23.0730  -31.9540 C   0  0  0  0  0  0  0  0  0  0  0  0
   -5.7420   24.1350  -31.1770 C   0  0  0  0  0  0  0  0  0  0  0  0
   -4.8200   25.2030  -30.7240 C   0  0  0  0  0  0  0  0  0  0  0  0
   -5.2710   26.3540  -30.4820 O   0  0  0  0  0  0  0  0  0  0  0  0
   -3.4240   24.9500  -30.4990 N   0  0  0  0  0  0  0  0  0  0  0  0
   -2.8360   24.4450  -29.2900 C   0  0  0  0  0  0  0  0  0  0  0  0
   -3.3070   23.2680  -28.6770 C   0  0  0  0  0  0  0  0  0  0  0  0
   -2.7090   22.7970  -27.5040 C   0  0  0  0  0  0  0  0  0  0  0  0
   -1.6300   23.4840  -26.9420 C   0  0  0  0  0  0  0  0  0  0  0  0
   -1.1400   24.6400  -27.5580 C   0  0  0  0  0  0  0  0  0  0  0  0
   -1.7360   25.1170  -28.7330 C   0  0  0  0  0  0  0  0  0  0  0  0
   -1.2370   26.2650  -29.3370 O   0  0  0  0  0  0  0  0  0  0  0  0
   -7.1120   24.1680  -30.8520 C   0  0  0  0  0  0  0  0  0  0  0  0
   -7.6350   25.1960  -30.0730 O   0  0  0  0  0  0  0  0  0  0  0  0
   -7.9720   23.1760  -31.3350 C   0  0  0  0  0  0  0  0  0  0  0  0
   -7.2330   17.5510  -33.4890 C   0  0  0  0  0  0  0  0  0  0  0  0
   -6.0950   16.8080  -33.8150 C   0  0  0  0  0  0  0  0  0  0  0  0
   -3.1168   16.0297  -32.7362 H   0  0  0  0  0  0  0  0  0  0  0  0
   -3.9268   15.4861  -34.2445 H   0  0  0  0  0  0  0  0  0  0  0  0
   -2.9444   16.9899  -34.2445 H   0  0  0  0  0  0  0  0  0  0  0  0
   -3.7624   18.5709  -32.0381 H   0  0  0  0  0  0  0  0  0  0  0  0
   -5.7934   19.8907  -31.4540 H   0  0  0  0  0  0  0  0  0  0  0  0
   -5.7180   21.2662  -33.0509 H   0  0  0  0  0  0  0  0  0  0  0  0
   -4.1762   23.0147  -32.1807 H   0  0  0  0  0  0  0  0  0  0  0  0
   -4.1484   22.7171  -29.1225 H   0  0  0  0  0  0  0  0  0  0  0  0
   -3.0889   21.8837  -27.0227 H   0  0  0  0  0  0  0  0  0  0  0  0
   -1.1660   23.1157  -26.0152 H   0  0  0  0  0  0  0  0  0  0  0  0
   -0.2852   25.1757  -27.1193 H   0  0  0  0  0  0  0  0  0  0  0  0
   -9.0385   23.2020  -31.0667 H   0  0  0  0  0  0  0  0  0  0  0  0
   -8.2110   17.2678  -33.9053 H   0  0  0  0  0  0  0  0  0  0  0  0
   -6.1806   15.9442  -34.4907 H   0  0  0  0  0  0  0  0  0  0  0  0
  1  2  1  0
  2  3  2  0
  3  4  1  0
  4  5  2  0
  5  6  1  0
  6  7  2  0
  6  8  2  0
  6  9  1  0
  9 10  1  0
 10 11  2  0
 11 12  1  0
 12 13  2  0
 13 14  1  0
 14 15  2  0
 14 16  1  0
 16 17  1  0
 17 18  2  0
 18 19  1  0
 19 20  2  0
 20 21  1  0
 21 22  2  0
 22 23  1  0
 13 24  1  0
 24 25  1  0
 24 26  2  0
  5 27  1  0
 27 28  2  0
 28  2  1  0
 26 10  1  0
 22 17  1  0
  1 29  1  0
  1 30  1  0
  1 31  1  0
  3 32  1  0
  4 33  1  0
 11 34  1  0
 12 35  1  0
 18 36  1  0
 19 37  1  0
 20 38  1  0
 21 39  1  0
 26 40  1  0
 27 41  1  0
 28 42  1  0
M  CHG  4   9  -1  16  -1  23  -1  25  -1
M  END
>  <UniqueID>  (5) 
5

>  <SMILES>  (5) 
Cc1ccc(S(=O)(=O)[N-]c2ccc(C(=O)[N-]c3ccccc3[O-])c([O-])c2)cc1

>  <Energy>  (5) 
53.38546309916876

>  <Genealogy>  (5) 
Cc1ccc(S(=O)(=O)[N-]c2ccc(C(=O)[N-]c3ccccc3[O-])c([O-])c2)cc1 (protonated)
Cc1ccc(S(=O)(=O)[N-]c2ccc(C(=O)[N-]c3ccccc3[O-])c([O-])c2)cc1 (3D coordinates assigned)
Cc1ccc(S(=O)(=O)[N-]c2ccc(C(=O)[N-]c3ccccc3[O-])c([O-])c2)cc1 (optimized conformer: 53.38546309916876 kcal/mol)

>  <smiles>  (5) 
Cc1ccc(S(=O)(=O)Nc2ccc(C(=O)Nc3ccccc3O)c(O)c2)cc1

>  <score_type>  (5) 
oracle

>  <origin>  (5) 
adgpu

>  <m_score__min__energy>  (5) 
-15.960000000000001

>  <m_primary>  (5) 
energy

$$$$
5:0
     RDKit          3D

 38 41  0  0  0  0  0  0  0  0999 V2000
   -3.9166   24.1501  -27.4168 H   0  0  0  0  0  0  0  0  0  0  0  0
   -2.8340   24.2640  -27.5750 C   0  0  0  0  0  0  0  0  0  0  0  0
   -1.9350   23.8250  -26.5850 C   0  0  0  0  0  0  0  0  0  0  0  0
   -2.2966   23.3748  -25.6488 H   0  0  0  0  0  0  0  0  0  0  0  0
   -0.5750   23.9790  -26.8290 C   0  0  0  0  0  0  0  0  0  0  0  0
   -0.1100   24.5290  -27.9790 C   0  0  0  0  0  0  0  0  0  0  0  0
   -0.9640   24.9760  -28.9820 C   0  0  0  0  0  0  0  0  0  0  0  0
   -0.5682   25.4138  -29.9103 H   0  0  0  0  0  0  0  0  0  0  0  0
   -2.3590   24.8500  -28.7710 C   0  0  0  0  0  0  0  0  0  0  0  0
   -3.2940   25.2670  -29.7300 O   0  0  0  0  0  0  0  0  0  0  0  0
   -4.3480   24.4800  -30.2130 C   0  0  0  0  0  0  0  0  0  0  0  0
   -5.6480   24.9970  -30.1560 C   0  0  0  0  0  0  0  0  0  0  0  0
   -5.8181   26.0017  -29.7417 H   0  0  0  0  0  0  0  0  0  0  0  0
   -6.7300   24.2470  -30.6210 C   0  0  0  0  0  0  0  0  0  0  0  0
   -7.7487   24.6573  -30.5590 H   0  0  0  0  0  0  0  0  0  0  0  0
   -6.5220   22.9740  -31.1660 C   0  0  0  0  0  0  0  0  0  0  0  0
   -7.8910   22.0390  -31.7610 S   0  0  0  0  0  0  0  0  0  0  0  0
   -8.5250   21.2570  -30.6450 O   0  0  0  0  0  0  0  0  0  0  0  0
   -8.9080   22.9810  -32.3390 O   0  0  0  0  0  0  0  0  0  0  0  0
   -7.3690   20.9400  -32.9980 N   0  0  0  0  0  0  0  0  0  0  0  0
   -6.9910   19.7150  -32.7860 C   0  0  0  0  0  0  0  0  0  0  0  0
   -6.4790   18.6830  -34.0100 S   0  0  0  0  0  0  0  0  0  0  0  0
   -6.1950   17.4160  -32.9380 C   0  0  0  0  0  0  0  0  0  0  0  0
   -5.5990   15.8320  -33.3850 Cl  0  0  0  0  0  0  0  0  0  0  0  0
   -6.5080   17.8330  -31.6510 C   0  0  0  0  0  0  0  0  0  0  0  0
   -6.4055   17.1810  -30.7710 H   0  0  0  0  0  0  0  0  0  0  0  0
   -6.9520   19.1160  -31.5710 N   0  0  0  0  0  0  0  0  0  0  0  0
   -7.2260   19.5590  -30.6680 H   0  0  0  0  0  0  0  0  0  0  0  0
   -5.2220   22.4570  -31.2450 C   0  0  0  0  0  0  0  0  0  0  0  0
   -5.0557   21.4582  -31.6749 H   0  0  0  0  0  0  0  0  0  0  0  0
   -4.1320   23.2060  -30.7790 C   0  0  0  0  0  0  0  0  0  0  0  0
   -2.8010   22.6760  -30.9410 C   0  0  0  0  0  0  0  0  0  0  0  0
   -1.7330   22.2510  -31.0700 N   0  0  0  0  0  0  0  0  0  0  0  0
    1.2720   24.5510  -27.9520 O   0  0  0  0  0  0  0  0  0  0  0  0
    1.7000   23.9800  -26.7070 C   0  0  0  0  0  0  0  0  0  0  0  0
    2.3169   23.0865  -26.8835 H   0  0  0  0  0  0  0  0  0  0  0  0
    2.3167   24.6789  -26.1229 H   0  0  0  0  0  0  0  0  0  0  0  0
    0.4890   23.6290  -26.0220 O   0  0  0  0  0  0  0  0  0  0  0  0
  1  2  1  0
  2  3  2  0
  3  4  1  0
  3  5  1  0
  5  6  2  0
  6  7  1  0
  7  8  1  0
  7  9  2  0
  9 10  1  0
 10 11  1  0
 11 12  2  0
 12 13  1  0
 12 14  1  0
 14 15  1  0
 14 16  2  0
 16 17  1  0
 17 18  2  0
 17 19  2  0
 17 20  1  0
 20 21  2  0
 21 22  1  0
 22 23  1  0
 23 24  1  0
 23 25  2  0
 25 26  1  0
 25 27  1  0
 27 28  1  0
 16 29  1  0
 29 30  1  0
 29 31  2  0
 31 32  1  0
 32 33  3  0
  6 34  1  0
 34 35  1  0
 35 36  1  0
 35 37  1  0
 35 38  1  0
  9  2  1  0
 31 11  1  0
 38  5  1  0
 27 21  1  0
M  END
>  <UniqueID>  (6) 
6

>  <SMILES>  (6) 
N#Cc1cc(S(=O)(=O)/N=c2\[nH]cc(Cl)s2)ccc1Oc1ccc2c(c1)OCO2

>  <Energy>  (6) 
111.35759983892959

>  <Genealogy>  (6) 
N#Cc1cc(S(=O)(=O)/N=c2\[nH]cc(Cl)s2)ccc1Oc1ccc2c(c1)OCO2 (cis-trans isomerization)
N#Cc1cc(S(=O)(=O)/N=c2\[nH]cc(Cl)s2)ccc1Oc1ccc2c(c1)OCO2 (3D coordinates assigned)
N#Cc1cc(S(=O)(=O)/N=c2\[nH]cc(Cl)s2)ccc1Oc1ccc2c(c1)OCO2 (nonaromatic ring conformer: 111.35759983892959 kcal/mol)

>  <smiles>  (6) 
N#Cc1cc(S(=O)(=O)N=c2[nH]cc(Cl)s2)ccc1Oc1ccc2c(c1)OCO2

>  <score_type>  (6) 
oracle

>  <origin>  (6) 
adgpu

>  <m_score__min__energy>  (6) 
-10.16

>  <m_primary>  (6) 
energy

$$$$
6:0
     RDKit          3D

 65 69  0  0  0  0  0  0  0  0999 V2000
   -0.1180   26.8940  -22.9450 C   0  0  0  0  0  0  0  0  0  0  0  0
   -0.6030   26.1520  -24.1550 C   0  0  0  0  0  0  0  0  0  0  0  0
   -0.4550   24.7590  -24.2360 C   0  0  0  0  0  0  0  0  0  0  0  0
   -0.8730   24.0710  -25.3800 C   0  0  0  0  0  0  0  0  0  0  0  0
   -1.4280   24.7700  -26.4630 C   0  0  0  0  0  0  0  0  0  0  0  0
   -1.8580   24.0620  -27.6460 N   0  0  0  0  0  0  0  0  0  0  0  0
   -0.9650   23.2870  -28.3290 C   0  0  0  0  0  0  0  0  0  0  0  0
    0.2330   23.2030  -27.9340 O   0  0  0  0  0  0  0  0  0  0  0  0
   -1.3690   22.6000  -29.4810 C   0  0  0  0  0  0  0  0  0  0  0  0
   -0.4590   21.8120  -30.2120 C   0  0  0  0  0  0  0  0  0  0  0  0
   -0.8660   21.1600  -31.3740 C   0  0  0  0  0  0  0  0  0  0  0  0
   -2.1760   21.2920  -31.8250 C   0  0  0  0  0  0  0  0  0  0  0  0
   -3.0910   22.0650  -31.1110 C   0  0  0  0  0  0  0  0  0  0  0  0
   -2.7130   22.7220  -29.9120 C   0  0  0  0  0  0  0  0  0  0  0  0
   -3.6020   23.4820  -29.1740 N   0  0  0  0  0  0  0  0  0  0  0  0
   -5.0290   23.5970  -29.5580 C   0  0  0  0  0  0  0  0  0  0  0  0
   -5.1960   24.3640  -30.8390 C   0  0  0  0  0  0  0  0  0  0  0  0
   -4.7960   25.5580  -30.8980 O   0  0  0  0  0  0  0  0  0  0  0  0
   -5.7910   23.7360  -31.9840 N   0  0  0  0  0  0  0  0  0  0  0  0
   -6.8390   22.7560  -31.9700 C   0  0  0  0  0  0  0  0  0  0  0  0
   -8.1620   23.1890  -31.8300 C   0  0  0  0  0  0  0  0  0  0  0  0
   -9.2090   22.2660  -31.8250 C   0  0  0  0  0  0  0  0  0  0  0  0
   -8.9430   20.9020  -31.9650 C   0  0  0  0  0  0  0  0  0  0  0  0
   -7.6240   20.4550  -32.1220 C   0  0  0  0  0  0  0  0  0  0  0  0
   -7.2810   18.7320  -32.2850 S   0  0  0  0  0  0  0  0  0  0  0  0
   -8.5720   17.9660  -32.1810 O   0  0  0  0  0  0  0  0  0  0  0  0
   -6.3930   18.2930  -31.1540 O   0  0  0  0  0  0  0  0  0  0  0  0
   -6.4960   18.3550  -33.8030 N   0  0  0  0  0  0  0  0  0  0  0  0
   -5.2080   19.0670  -33.9800 C   0  0  0  0  0  0  0  0  0  0  0  0
   -4.0580   18.1590  -34.4340 C   0  0  0  0  0  0  0  0  0  0  0  0
   -3.9700   16.9420  -33.5180 C   0  0  0  0  0  0  0  0  0  0  0  0
   -5.2880   16.1500  -33.4880 C   0  0  0  0  0  0  0  0  0  0  0  0
   -6.4880   16.9050  -34.0960 C   0  0  0  0  0  0  0  0  0  0  0  0
   -6.5780   21.3870  -32.1510 C   0  0  0  0  0  0  0  0  0  0  0  0
   -3.1570   24.1690  -28.0680 C   0  0  0  0  0  0  0  0  0  0  0  0
   -3.9570   24.9060  -27.4220 O   0  0  0  0  0  0  0  0  0  0  0  0
   -1.5590   26.1660  -26.3890 C   0  0  0  0  0  0  0  0  0  0  0  0
   -1.1440   26.8540  -25.2450 C   0  0  0  0  0  0  0  0  0  0  0  0
   -0.4572   26.3751  -22.0363 H   0  0  0  0  0  0  0  0  0  0  0  0
    0.9812   26.9341  -22.9557 H   0  0  0  0  0  0  0  0  0  0  0  0
   -0.5224   27.9169  -22.9557 H   0  0  0  0  0  0  0  0  0  0  0  0
   -0.0085   24.2058  -23.3966 H   0  0  0  0  0  0  0  0  0  0  0  0
   -0.7662   22.9774  -25.4309 H   0  0  0  0  0  0  0  0  0  0  0  0
    0.5794   21.7107  -29.8634 H   0  0  0  0  0  0  0  0  0  0  0  0
   -0.1513   20.5403  -31.9355 H   0  0  0  0  0  0  0  0  0  0  0  0
   -2.4910   20.7844  -32.7486 H   0  0  0  0  0  0  0  0  0  0  0  0
   -4.1211   22.1668  -31.4831 H   0  0  0  0  0  0  0  0  0  0  0  0
   -5.4460   22.5876  -29.6892 H   0  0  0  0  0  0  0  0  0  0  0  0
   -5.5577   24.1394  -28.7603 H   0  0  0  0  0  0  0  0  0  0  0  0
   -8.3781   24.2623  -31.7233 H   0  0  0  0  0  0  0  0  0  0  0  0
  -10.2463   22.6137  -31.7105 H   0  0  0  0  0  0  0  0  0  0  0  0
   -9.7704   20.1772  -31.9520 H   0  0  0  0  0  0  0  0  0  0  0  0
   -5.3476   19.8544  -34.7353 H   0  0  0  0  0  0  0  0  0  0  0  0
   -4.9277   19.4730  -32.9968 H   0  0  0  0  0  0  0  0  0  0  0  0
   -4.2405   17.8268  -35.4666 H   0  0  0  0  0  0  0  0  0  0  0  0
   -3.1122   18.7188  -34.3872 H   0  0  0  0  0  0  0  0  0  0  0  0
   -3.1670   16.2825  -33.8790 H   0  0  0  0  0  0  0  0  0  0  0  0
   -3.7628   17.2975  -32.4979 H   0  0  0  0  0  0  0  0  0  0  0  0
   -5.1439   15.2173  -34.0531 H   0  0  0  0  0  0  0  0  0  0  0  0
   -5.5278   15.9714  -32.4294 H   0  0  0  0  0  0  0  0  0  0  0  0
   -6.4631   16.7726  -35.1877 H   0  0  0  0  0  0  0  0  0  0  0  0
   -7.3951   16.4824  -33.6393 H   0  0  0  0  0  0  0  0  0  0  0  0
   -5.5458   21.0448  -32.3165 H   0  0  0  0  0  0  0  0  0  0  0  0
   -1.9902   26.7209  -27.2352 H   0  0  0  0  0  0  0  0  0  0  0  0
   -1.2414   27.9487  -25.1982 H   0  0  0  0  0  0  0  0  0  0  0  0
  1  2  1  0
  2  3  2  0
  3  4  1  0
  4  5  2  0
  5  6  1  0
  6  7  1  0
  7  8  2  0
  7  9  1  0
  9 10  2  0
 10 11  1  0
 11 12  2  0
 12 13  1  0
 13 14  2  0
 14 15  1  0
 15 16  1  0
 16 17  1  0
 17 18  2  0
 17 19  1  0
 19 20  1  0
 20 21  2  0
 21 22  1  0
 22 23  2  0
 23 24  1  0
 24 25  1  0
 25 26  2  0
 25 27  2  0
 25 28  1  0
 28 29  1  0
 29 30  1  0
 30 31  1  0
 31 32  1  0
 32 33  1  0
 24 34  2  0
 15 35  1  0
 35 36  2  0
  5 37  1  0
 37 38  2  0
 38  2  1  0
 35  6  1  0
 14  9  1  0
 34 20  1  0
 33 28  1  0
  1 39  1  0
  1 40  1  0
  1 41  1  0
  3 42  1  0
  4 43  1  0
 10 44  1  0
 11 45  1  0
 12 46  1  0
 13 47  1  0
 16 48  1  0
 16 49  1  0
 21 50  1  0
 22 51  1  0
 23 52  1  0
 29 53  1  0
 29 54  1  0
 30 55  1  0
 30 56  1  0
 31 57  1  0
 31 58  1  0
 32 59  1  0
 32 60  1  0
 33 61  1  0
 33 62  1  0
 34 63  1  0
 37 64  1  0
 38 65  1  0
M  CHG  1  19  -1
M  END
>  <UniqueID>  (7) 
7

>  <SMILES>  (7) 
Cc1ccc(-n2c(=O)c3ccccc3n(CC(=O)[N-]c3cccc(S(=O)(=O)N4CCCCC4)c3)c2=O)cc1

>  <Energy>  (7) 
101.01920285449637

>  <Genealogy>  (7) 
Cc1ccc(-n2c(=O)c3ccccc3n(CC(=O)[N-]c3cccc(S(=O)(=O)N4CCCCC4)c3)c2=O)cc1 (protonated)
Cc1ccc(-n2c(=O)c3ccccc3n(CC(=O)[N-]c3cccc(S(=O)(=O)N4CCCCC4)c3)c2=O)cc1 (3D coordinates assigned)
Cc1ccc(-n2c(=O)c3ccccc3n(CC(=O)[N-]c3cccc(S(=O)(=O)N4CCCCC4)c3)c2=O)cc1 (nonaromatic ring conformer: 101.01920285449637 kcal/mol)

>  <smiles>  (7) 
Cc1ccc(-n2c(=O)c3ccccc3n(CC(=O)Nc3cccc(S(=O)(=O)N4CCCCC4)c3)c2=O)cc1

>  <score_type>  (7) 
oracle

>  <origin>  (7) 
adgpu

>  <m_score__min__energy>  (7) 
-13.08

>  <m_primary>  (7) 
energy

$$$$
7:0
     RDKit          3D

 44 46  0  0  0  0  0  0  0  0999 V2000
   -1.9530   22.6380  -26.9550 C   0  0  0  0  0  0  0  0  0  0  0  0
   -2.7200   23.8820  -26.8660 N   0  0  0  0  0  0  0  0  0  0  0  0
   -4.1620   23.8600  -27.1190 C   0  0  0  0  0  0  0  0  0  0  0  0
   -2.0280   25.1070  -26.5480 C   0  0  0  0  0  0  0  0  0  0  0  0
   -2.1670   25.6370  -25.3030 N   0  0  0  0  0  0  0  0  0  0  0  0
   -1.5400   26.7860  -24.9450 C   0  0  0  0  0  0  0  0  0  0  0  0
   -0.7500   27.4330  -25.8370 N   0  0  0  0  0  0  0  0  0  0  0  0
   -0.5910   26.9630  -27.1000 C   0  0  0  0  0  0  0  0  0  0  0  0
   -1.2490   25.7900  -27.5040 C   0  0  0  0  0  0  0  0  0  0  0  0
   -1.1320   25.2820  -28.8420 N   0  0  0  0  0  0  0  0  0  0  0  0
   -2.0840   24.4690  -29.5380 C   0  0  0  0  0  0  0  0  0  0  0  0
   -1.7600   23.3250  -29.9550 O   0  0  0  0  0  0  0  0  0  0  0  0
   -3.3760   25.0140  -29.8370 N   0  0  0  0  0  0  0  0  0  0  0  0
   -4.4630   24.2580  -30.3990 C   0  0  0  0  0  0  0  0  0  0  0  0
   -4.1830   23.1020  -31.1430 C   0  0  0  0  0  0  0  0  0  0  0  0
   -5.2190   22.3600  -31.7160 C   0  0  0  0  0  0  0  0  0  0  0  0
   -6.5550   22.7690  -31.5600 C   0  0  0  0  0  0  0  0  0  0  0  0
   -7.6190   22.0580  -32.1320 O   0  0  0  0  0  0  0  0  0  0  0  0
   -7.7250   20.6600  -32.1860 C   0  0  0  0  0  0  0  0  0  0  0  0
   -8.7310   19.9620  -31.4920 C   0  0  0  0  0  0  0  0  0  0  0  0
   -8.8160   18.5690  -31.5880 C   0  0  0  0  0  0  0  0  0  0  0  0
   -7.9030   17.8650  -32.3770 C   0  0  0  0  0  0  0  0  0  0  0  0
   -6.9130   18.5540  -33.0830 C   0  0  0  0  0  0  0  0  0  0  0  0
   -6.8300   19.9470  -32.9940 C   0  0  0  0  0  0  0  0  0  0  0  0
   -6.8320   23.9460  -30.8560 C   0  0  0  0  0  0  0  0  0  0  0  0
   -5.7960   24.6880  -30.2780 C   0  0  0  0  0  0  0  0  0  0  0  0
   -1.7278   22.2728  -25.9421 H   0  0  0  0  0  0  0  0  0  0  0  0
   -2.5420   21.8819  -27.4949 H   0  0  0  0  0  0  0  0  0  0  0  0
   -1.0130   22.8247  -27.4949 H   0  0  0  0  0  0  0  0  0  0  0  0
   -4.7023   23.8518  -26.1609 H   0  0  0  0  0  0  0  0  0  0  0  0
   -4.4472   24.7539  -27.6931 H   0  0  0  0  0  0  0  0  0  0  0  0
   -4.4198   22.9578  -27.6931 H   0  0  0  0  0  0  0  0  0  0  0  0
   -1.6726   27.1924  -23.9314 H   0  0  0  0  0  0  0  0  0  0  0  0
    0.0547   27.5020  -27.8089 H   0  0  0  0  0  0  0  0  0  0  0  0
   -3.5020   26.0440  -29.7130 H   0  0  0  0  0  0  0  0  0  0  0  0
   -3.1404   22.7775  -31.2762 H   0  0  0  0  0  0  0  0  0  0  0  0
   -4.9882   21.4516  -32.2918 H   0  0  0  0  0  0  0  0  0  0  0  0
   -9.4529   20.5137  -30.8720 H   0  0  0  0  0  0  0  0  0  0  0  0
   -9.6024   18.0275  -31.0418 H   0  0  0  0  0  0  0  0  0  0  0  0
   -7.9633   16.7686  -32.4426 H   0  0  0  0  0  0  0  0  0  0  0  0
   -6.1984   17.9999  -33.7093 H   0  0  0  0  0  0  0  0  0  0  0  0
   -6.0574   20.4861  -33.5618 H   0  0  0  0  0  0  0  0  0  0  0  0
   -7.8719   24.2906  -30.7562 H   0  0  0  0  0  0  0  0  0  0  0  0
   -6.0256   25.6117  -29.7266 H   0  0  0  0  0  0  0  0  0  0  0  0
  1  2  1  0
  2  3  1  0
  2  4  1  0
  4  5  2  0
  5  6  1  0
  6  7  2  0
  7  8  1  0
  8  9  2  0
  9 10  1  0
 10 11  1  0
 11 12  2  0
 11 13  1  0
 13 14  1  0
 14 15  2  0
 15 16  1  0
 16 17  2  0
 17 18  1  0
 18 19  1  0
 19 20  2  0
 20 21  1  0
 21 22  2  0
 22 23  1  0
 23 24  2  0
 17 25  1  0
 25 26  2  0
  9  4  1  0
 26 14  1  0
 24 19  1  0
  1 27  1  0
  1 28  1  0
  1 29  1  0
  3 30  1  0
  3 31  1  0
  3 32  1  0
  6 33  1  0
  8 34  1  0
 13 35  1  0
 15 36  1  0
 16 37  1  0
 20 38  1  0
 21 39  1  0
 22 40  1  0
 23 41  1  0
 24 42  1  0
 25 43  1  0
 26 44  1  0
M  CHG  1  10  -1
M  END
>  <UniqueID>  (8) 
8

>  <SMILES>  (8) 
CN(C)c1ncncc1[N-]C(=O)Nc1ccc(Oc2ccccc2)cc1

>  <Energy>  (8) 
63.41179152124036

>  <Genealogy>  (8) 
CN(C)c1ncncc1[N-]C(=O)Nc1ccc(Oc2ccccc2)cc1 (protonated)
CN(C)c1ncncc1[N-]C(=O)Nc1ccc(Oc2ccccc2)cc1 (3D coordinates assigned)
CN(C)c1ncncc1[N-]C(=O)Nc1ccc(Oc2ccccc2)cc1 (optimized conformer: 63.41179152124036 kcal/mol)

>  <smiles>  (8) 
CN(C)c1ncncc1NC(=O)Nc1ccc(Oc2ccccc2)cc1

>  <score_type>  (8) 
oracle

>  <origin>  (8) 
adgpu

>  <m_score__min__energy>  (8) 
-9.4499999999999993

>  <m_primary>  (8) 
energy

$$$$
8:0
     RDKit          3D

 53 56  0  0  0  0  0  0  0  0999 V2000
   -0.5210   27.0670  -23.3810 C   0  0  0  0  0  0  0  0  0  0  0  0
   -0.7770   26.7340  -24.8280 C   0  0  0  0  0  0  0  0  0  0  0  0
   -1.5780   25.6250  -25.1450 C   0  0  0  0  0  0  0  0  0  0  0  0
   -1.8370   25.2950  -26.4760 C   0  0  0  0  0  0  0  0  0  0  0  0
   -1.2970   26.0550  -27.5150 C   0  0  0  0  0  0  0  0  0  0  0  0
   -1.5870   25.6840  -28.8360 O   0  0  0  0  0  0  0  0  0  0  0  0
   -1.8660   24.3800  -29.2680 C   0  0  0  0  0  0  0  0  0  0  0  0
   -1.0740   23.3360  -28.8940 N   0  0  0  0  0  0  0  0  0  0  0  0
   -1.3300   22.0600  -29.2880 C   0  0  0  0  0  0  0  0  0  0  0  0
   -2.4280   21.7880  -30.1030 C   0  0  0  0  0  0  0  0  0  0  0  0
   -3.2640   22.8360  -30.4940 C   0  0  0  0  0  0  0  0  0  0  0  0
   -3.0020   24.1450  -30.0570 C   0  0  0  0  0  0  0  0  0  0  0  0
   -3.8230   25.2550  -30.4520 N   0  0  0  0  0  0  0  0  0  0  0  0
   -5.2460   25.2390  -30.6090 C   0  0  0  0  0  0  0  0  0  0  0  0
   -5.9660   25.7270  -29.6980 O   0  0  0  0  0  0  0  0  0  0  0  0
   -5.8470   24.6650  -31.7760 N   0  0  0  0  0  0  0  0  0  0  0  0
   -6.4590   23.3700  -31.8420 C   0  0  0  0  0  0  0  0  0  0  0  0
   -7.7430   23.2210  -31.3220 C   0  0  0  0  0  0  0  0  0  0  0  0
   -8.3620   21.9750  -31.3220 C   0  0  0  0  0  0  0  0  0  0  0  0
   -7.7330   20.8690  -31.8980 C   0  0  0  0  0  0  0  0  0  0  0  0
   -8.5690   19.3250  -31.7530 Cl  0  0  0  0  0  0  0  0  0  0  0  0
   -6.4690   21.0140  -32.5250 C   0  0  0  0  0  0  0  0  0  0  0  0
   -5.7280   19.6560  -33.4100 S   0  0  0  0  0  0  0  0  0  0  0  0
   -6.4850   19.3570  -34.6730 O   0  0  0  0  0  0  0  0  0  0  0  0
   -4.3240   20.0120  -33.8140 O   0  0  0  0  0  0  0  0  0  0  0  0
   -5.7670   18.2020  -32.3620 C   0  0  0  0  0  0  0  0  0  0  0  0
   -6.4960   17.0210  -32.9820 C   0  0  0  0  0  0  0  0  0  0  0  0
   -4.9820   16.9950  -32.8520 C   0  0  0  0  0  0  0  0  0  0  0  0
   -5.8130   22.2740  -32.4510 C   0  0  0  0  0  0  0  0  0  0  0  0
   -4.5320   22.4720  -32.9730 O   0  0  0  0  0  0  0  0  0  0  0  0
   -0.5220   27.1870  -27.2080 C   0  0  0  0  0  0  0  0  0  0  0  0
   -0.2600   27.5380  -25.8720 C   0  0  0  0  0  0  0  0  0  0  0  0
    0.5830   28.7520  -25.5800 C   0  0  0  0  0  0  0  0  0  0  0  0
   -1.0657   26.3584  -22.7398 H   0  0  0  0  0  0  0  0  0  0  0  0
    0.5569   26.9954  -23.1734 H   0  0  0  0  0  0  0  0  0  0  0  0
   -0.8672   28.0902  -23.1734 H   0  0  0  0  0  0  0  0  0  0  0  0
   -2.0047   25.0115  -24.3378 H   0  0  0  0  0  0  0  0  0  0  0  0
   -2.4726   24.4279  -26.7086 H   0  0  0  0  0  0  0  0  0  0  0  0
   -0.6703   21.2418  -28.9635 H   0  0  0  0  0  0  0  0  0  0  0  0
   -2.6335   20.7594  -30.4343 H   0  0  0  0  0  0  0  0  0  0  0  0
   -4.1282   22.6363  -31.1446 H   0  0  0  0  0  0  0  0  0  0  0  0
   -8.2704   24.0936  -30.9091 H   0  0  0  0  0  0  0  0  0  0  0  0
   -9.3556   21.8599  -30.8643 H   0  0  0  0  0  0  0  0  0  0  0  0
   -5.8092   18.7519  -31.4102 H   0  0  0  0  0  0  0  0  0  0  0  0
   -7.1134   16.3636  -32.3521 H   0  0  0  0  0  0  0  0  0  0  0  0
   -7.2075   16.8948  -33.8114 H   0  0  0  0  0  0  0  0  0  0  0  0
   -4.5036   16.3191  -32.1279 H   0  0  0  0  0  0  0  0  0  0  0  0
   -4.1440   16.8424  -33.5480 H   0  0  0  0  0  0  0  0  0  0  0  0
   -4.2550   22.2010  -33.9040 H   0  0  0  0  0  0  0  0  0  0  0  0
   -0.1160   27.8051  -28.0223 H   0  0  0  0  0  0  0  0  0  0  0  0
    0.6735   28.8824  -24.4915 H   0  0  0  0  0  0  0  0  0  0  0  0
    1.5832   28.6177  -26.0176 H   0  0  0  0  0  0  0  0  0  0  0  0
    0.1078   29.6423  -26.0176 H   0  0  0  0  0  0  0  0  0  0  0  0
  1  2  1  0
  2  3  2  0
  3  4  1  0
  4  5  2  0
  5  6  1  0
  6  7  1  0
  7  8  2  0
  8  9  1  0
  9 10  2  0
 10 11  1  0
 11 12  2  0
 12 13  1  0
 13 14  1  0
 14 15  2  0
 14 16  1  0
 16 17  1  0
 17 18  2  0
 18 19  1  0
 19 20  2  0
 20 21  1  0
 20 22  1  0
 22 23  1  0
 23 24  2  0
 23 25  2  0
 23 26  1  0
 26 27  1  0
 27 28  1  0
 22 29  2  0
 29 30  1  0
  5 31  1  0
 31 32  2  0
 32 33  1  0
 32  2  1  0
 12  7  1  0
 29 17  1  0
 28 26  1  0
  1 34  1  0
  1 35  1  0
  1 36  1  0
  3 37  1  0
  4 38  1  0
  9 39  1  0
 10 40  1  0
 11 41  1  0
 18 42  1  0
 19 43  1  0
 26 44  1  0
 27 45  1  0
 27 46  1  0
 28 47  1  0
 28 48  1  0
 30 49  1  0
 31 50  1  0
 33 51  1  0
 33 52  1  0
 33 53  1  0
M  CHG  2  13  -1  16  -1
M  END
>  <UniqueID>  (9) 
9

>  <SMILES>  (9) 
Cc1ccc(Oc2ncccc2[N-]C(=O)[N-]c2ccc(Cl)c(S(=O)(=O)C3CC3)c2O)cc1C

>  <Energy>  (9) 
341.4045790622361

>  <Genealogy>  (9) 
Cc1ccc(Oc2ncccc2[N-]C(=O)[N-]c2ccc(Cl)c(S(=O)(=O)C3CC3)c2O)cc1C (protonated)
Cc1ccc(Oc2ncccc2[N-]C(=O)[N-]c2ccc(Cl)c(S(=O)(=O)C3CC3)c2O)cc1C (3D coordinates assigned)
Cc1ccc(Oc2ncccc2[N-]C(=O)[N-]c2ccc(Cl)c(S(=O)(=O)C3CC3)c2O)cc1C (nonaromatic ring conformer: 341.4045790622361 kcal/mol)

>  <smiles>  (9) 
Cc1ccc(Oc2ncccc2NC(=O)Nc2ccc(Cl)c(S(=O)(=O)C3CC3)c2O)cc1C

>  <score_type>  (9) 
oracle

>  <origin>  (9) 
adgpu

>  <m_score__min__energy>  (9) 
-13.470000000000001

>  <m_primary>  (9) 
energy

$$$$
9:0
     RDKit          3D

 52 54  0  0  0  0  0  0  0  0999 V2000
   -5.7270   18.2920  -34.6270 C   0  0  0  0  0  0  0  0  0  0  0  0
   -5.2200   18.2170  -33.3010 O   0  0  0  0  0  0  0  0  0  0  0  0
   -6.0100   18.4660  -32.1740 C   0  0  0  0  0  0  0  0  0  0  0  0
   -6.0800   17.6080  -31.2530 O   0  0  0  0  0  0  0  0  0  0  0  0
   -6.7710   19.7300  -32.0700 C   0  0  0  0  0  0  0  0  0  0  0  0
   -8.1260   19.8670  -31.7830 C   0  0  0  0  0  0  0  0  0  0  0  0
   -9.1060   18.7580  -31.5480 C   0  0  0  0  0  0  0  0  0  0  0  0
   -8.4620   21.1700  -31.7200 N   0  0  0  0  0  0  0  0  0  0  0  0
   -7.3470   21.8800  -31.9710 C   0  0  0  0  0  0  0  0  0  0  0  0
   -7.3150   23.3770  -31.9980 C   0  0  0  0  0  0  0  0  0  0  0  0
   -6.2720   21.0250  -32.1760 C   0  0  0  0  0  0  0  0  0  0  0  0
   -4.8900   21.4240  -32.5160 C   0  0  0  0  0  0  0  0  0  0  0  0
   -4.4470   21.1500  -33.6650 O   0  0  0  0  0  0  0  0  0  0  0  0
   -4.0270   22.1460  -31.5510 C   0  0  0  0  0  0  0  0  0  0  0  0
   -2.7790   21.6230  -31.1640 C   0  0  0  0  0  0  0  0  0  0  0  0
   -1.9690   22.3150  -30.2620 C   0  0  0  0  0  0  0  0  0  0  0  0
   -2.3840   23.5470  -29.7390 C   0  0  0  0  0  0  0  0  0  0  0  0
   -1.3480   24.4330  -28.6170 S   0  0  0  0  0  0  0  0  0  0  0  0
   -1.6070   25.9060  -28.7610 O   0  0  0  0  0  0  0  0  0  0  0  0
    0.0920   24.1770  -28.9660 O   0  0  0  0  0  0  0  0  0  0  0  0
   -1.6330   23.9480  -26.9600 N   0  0  0  0  0  0  0  0  0  0  0  0
   -2.2610   25.0380  -26.1730 C   0  0  0  0  0  0  0  0  0  0  0  0
   -1.2710   25.7500  -25.2400 C   0  0  0  0  0  0  0  0  0  0  0  0
   -0.6250   24.7610  -24.2550 C   0  0  0  0  0  0  0  0  0  0  0  0
   -0.4810   23.3450  -24.8410 C   0  0  0  0  0  0  0  0  0  0  0  0
   -0.3980   23.3880  -26.3690 C   0  0  0  0  0  0  0  0  0  0  0  0
   -3.6240   24.0750  -30.1230 C   0  0  0  0  0  0  0  0  0  0  0  0
   -4.4360   23.3850  -31.0260 C   0  0  0  0  0  0  0  0  0  0  0  0
   -6.8147   18.4529  -34.5951 H   0  0  0  0  0  0  0  0  0  0  0  0
   -5.2479   19.1290  -35.1560 H   0  0  0  0  0  0  0  0  0  0  0  0
   -5.5107   17.3521  -35.1560 H   0  0  0  0  0  0  0  0  0  0  0  0
   -9.2381   18.6085  -30.4662 H   0  0  0  0  0  0  0  0  0  0  0  0
  -10.0727   19.0204  -32.0026 H   0  0  0  0  0  0  0  0  0  0  0  0
   -8.7266   17.8310  -32.0026 H   0  0  0  0  0  0  0  0  0  0  0  0
   -9.4100   21.5590  -31.5200 H   0  0  0  0  0  0  0  0  0  0  0  0
   -7.3068   23.7622  -30.9677 H   0  0  0  0  0  0  0  0  0  0  0  0
   -6.4094   23.7150  -32.5231 H   0  0  0  0  0  0  0  0  0  0  0  0
   -8.2053   23.7534  -32.5231 H   0  0  0  0  0  0  0  0  0  0  0  0
   -2.4392   20.6612  -31.5756 H   0  0  0  0  0  0  0  0  0  0  0  0
   -0.9999   21.8910  -29.9602 H   0  0  0  0  0  0  0  0  0  0  0  0
   -2.6796   25.7781  -26.8708 H   0  0  0  0  0  0  0  0  0  0  0  0
   -3.0391   24.5830  -25.5424 H   0  0  0  0  0  0  0  0  0  0  0  0
   -0.4821   26.2202  -25.8455 H   0  0  0  0  0  0  0  0  0  0  0  0
   -1.8204   26.5080  -24.6624 H   0  0  0  0  0  0  0  0  0  0  0  0
    0.3746   25.1340  -23.9871 H   0  0  0  0  0  0  0  0  0  0  0  0
   -1.2830   24.6908  -23.3763 H   0  0  0  0  0  0  0  0  0  0  0  0
    0.4351   22.8831  -24.4441 H   0  0  0  0  0  0  0  0  0  0  0  0
   -1.3652   22.7564  -24.5551 H   0  0  0  0  0  0  0  0  0  0  0  0
    0.4563   24.0151  -26.6637 H   0  0  0  0  0  0  0  0  0  0  0  0
   -0.2724   22.3595  -26.7384 H   0  0  0  0  0  0  0  0  0  0  0  0
   -3.9597   25.0381  -29.7110 H   0  0  0  0  0  0  0  0  0  0  0  0
   -5.4026   23.8139  -31.3288 H   0  0  0  0  0  0  0  0  0  0  0  0
  1  2  1  0
  2  3  1  0
  3  4  2  0
  3  5  1  0
  5  6  2  0
  6  7  1  0
  6  8  1  0
  8  9  1  0
  9 10  1  0
  9 11  2  0
 11 12  1  0
 12 13  2  0
 12 14  1  0
 14 15  2  0
 15 16  1  0
 16 17  2  0
 17 18  1  0
 18 19  2  0
 18 20  2  0
 18 21  1  0
 21 22  1  0
 22 23  1  0
 23 24  1  0
 24 25  1  0
 25 26  1  0
 17 27  1  0
 27 28  2  0
 11  5  1  0
 28 14  1  0
 26 21  1  0
  1 29  1  0
  1 30  1  0
  1 31  1  0
  7 32  1  0
  7 33  1  0
  7 34  1  0
  8 35  1  0
 10 36  1  0
 10 37  1  0
 10 38  1  0
 15 39  1  0
 16 40  1  0
 22 41  1  0
 22 42  1  0
 23 43  1  0
 23 44  1  0
 24 45  1  0
 24 46  1  0
 25 47  1  0
 25 48  1  0
 26 49  1  0
 26 50  1  0
 27 51  1  0
 28 52  1  0
M  END
>  <UniqueID>  (10) 
10

>  <SMILES>  (10) 
COC(=O)c1c(C)[nH]c(C)c1C(=O)c1ccc(S(=O)(=O)N2CCCCC2)cc1

>  <Energy>  (10) 
86.50048228152232

>  <Genealogy>  (10) 
COC(=O)c1c(C)[nH]c(C)c1C(=O)c1ccc(S(=O)(=O)N2CCCCC2)cc1 (3D coordinates assigned)
COC(=O)c1c(C)[nH]c(C)c1C(=O)c1ccc(S(=O)(=O)N2CCCCC2)cc1 (nonaromatic ring conformer: 86.50048228152232 kcal/mol)

>  <smiles>  (10) 
COC(=O)c1c(C)[nH]c(C)c1C(=O)c1ccc(S(=O)(=O)N2CCCCC2)cc1

>  <score_type>  (10) 
oracle

>  <origin>  (10) 
adgpu

>  <m_score__min__energy>  (10) 
-9.5600000000000005

>  <m_primary>  (10) 
energy

$$$$
10:0
     RDKit          3D

 43 45  0  0  0  0  0  0  0  0999 V2000
   -4.0640   25.4110  -30.5990 O   0  0  0  0  0  0  0  0  0  0  0  0
   -3.8090   24.1790  -30.5320 C   0  0  0  0  0  0  0  0  0  0  0  0
   -4.2870   23.3210  -31.5760 N   0  0  0  0  0  0  0  0  0  0  0  0
   -5.6140   22.7860  -31.6940 C   0  0  0  0  0  0  0  0  0  0  0  0
   -6.7360   23.6190  -31.8520 C   0  0  0  0  0  0  0  0  0  0  0  0
   -8.0110   23.0620  -31.9810 C   0  0  0  0  0  0  0  0  0  0  0  0
   -8.1770   21.6750  -31.9660 C   0  0  0  0  0  0  0  0  0  0  0  0
   -7.0640   20.8360  -31.8250 C   0  0  0  0  0  0  0  0  0  0  0  0
   -7.2530   19.0840  -31.8420 S   0  0  0  0  0  0  0  0  0  0  0  0
   -6.3070   18.4880  -30.8370 O   0  0  0  0  0  0  0  0  0  0  0  0
   -8.6600   18.7170  -31.4530 O   0  0  0  0  0  0  0  0  0  0  0  0
   -6.8920   18.4600  -33.4330 N   0  0  0  0  0  0  0  0  0  0  0  0
   -6.4250   17.0600  -33.3310 C   0  0  0  0  0  0  0  0  0  0  0  0
   -5.6760   16.6230  -34.5950 C   0  0  0  0  0  0  0  0  0  0  0  0
   -4.4120   17.4730  -34.8100 C   0  0  0  0  0  0  0  0  0  0  0  0
   -4.5180   18.8680  -34.1700 C   0  0  0  0  0  0  0  0  0  0  0  0
   -5.9690   19.3680  -34.1630 C   0  0  0  0  0  0  0  0  0  0  0  0
   -5.7840   21.3960  -31.7030 C   0  0  0  0  0  0  0  0  0  0  0  0
   -3.0000   23.6700  -29.4010 C   0  0  0  0  0  0  0  0  0  0  0  0
   -3.3200   22.4250  -28.8300 C   0  0  0  0  0  0  0  0  0  0  0  0
   -2.5620   21.9150  -27.7730 C   0  0  0  0  0  0  0  0  0  0  0  0
   -1.4840   22.6450  -27.2690 C   0  0  0  0  0  0  0  0  0  0  0  0
   -1.1680   23.8920  -27.8140 C   0  0  0  0  0  0  0  0  0  0  0  0
   -1.9250   24.4120  -28.8690 C   0  0  0  0  0  0  0  0  0  0  0  0
   -1.6160   25.6760  -29.3620 O   0  0  0  0  0  0  0  0  0  0  0  0
   -6.6096   24.7115  -31.8741 H   0  0  0  0  0  0  0  0  0  0  0  0
   -8.8868   23.7178  -32.0947 H   0  0  0  0  0  0  0  0  0  0  0  0
   -9.1829   21.2411  -32.0650 H   0  0  0  0  0  0  0  0  0  0  0  0
   -5.7501   16.9706  -32.4670 H   0  0  0  0  0  0  0  0  0  0  0  0
   -7.3049   16.4111  -33.2101 H   0  0  0  0  0  0  0  0  0  0  0  0
   -5.3860   15.5667  -34.4939 H   0  0  0  0  0  0  0  0  0  0  0  0
   -6.3409   16.7596  -35.4606 H   0  0  0  0  0  0  0  0  0  0  0  0
   -3.5543   16.9465  -34.3660 H   0  0  0  0  0  0  0  0  0  0  0  0
   -4.2868   17.6136  -35.8938 H   0  0  0  0  0  0  0  0  0  0  0  0
   -4.1516   18.8160  -33.1341 H   0  0  0  0  0  0  0  0  0  0  0  0
   -3.9114   19.5692  -34.7619 H   0  0  0  0  0  0  0  0  0  0  0  0
   -5.9968   20.3569  -33.6821 H   0  0  0  0  0  0  0  0  0  0  0  0
   -6.3077   19.4106  -35.2087 H   0  0  0  0  0  0  0  0  0  0  0  0
   -4.9068   20.7383  -31.6137 H   0  0  0  0  0  0  0  0  0  0  0  0
   -4.1729   21.8490  -29.2183 H   0  0  0  0  0  0  0  0  0  0  0  0
   -2.8149   20.9371  -27.3374 H   0  0  0  0  0  0  0  0  0  0  0  0
   -0.8831   22.2381  -26.4423 H   0  0  0  0  0  0  0  0  0  0  0  0
   -0.3208   24.4670  -27.4120 H   0  0  0  0  0  0  0  0  0  0  0  0
  1  2  2  0
  2  3  1  0
  3  4  1  0
  4  5  2  0
  5  6  1  0
  6  7  2  0
  7  8  1  0
  8  9  1  0
  9 10  2  0
  9 11  2  0
  9 12  1  0
 12 13  1  0
 13 14  1  0
 14 15  1  0
 15 16  1  0
 16 17  1  0
  8 18  2  0
  2 19  1  0
 19 20  2  0
 20 21  1  0
 21 22  2  0
 22 23  1  0
 23 24  2  0
 24 25  1  0
 18  4  1  0
 24 19  1  0
 17 12  1  0
  5 26  1  0
  6 27  1  0
  7 28  1  0
 13 29  1  0
 13 30  1  0
 14 31  1  0
 14 32  1  0
 15 33  1  0
 15 34  1  0
 16 35  1  0
 16 36  1  0
 17 37  1  0
 17 38  1  0
 18 39  1  0
 20 40  1  0
 21 41  1  0
 22 42  1  0
 23 43  1  0
M  CHG  2   3  -1  25  -1
M  END
>  <UniqueID>  (11) 
11

>  <SMILES>  (11) 
O=C([N-]c1cccc(S(=O)(=O)N2CCCCC2)c1)c1ccccc1[O-]

>  <Energy>  (11) 
57.99768190843178

>  <Genealogy>  (11) 
O=C([N-]c1cccc(S(=O)(=O)N2CCCCC2)c1)c1ccccc1[O-] (protonated)
O=C([N-]c1cccc(S(=O)(=O)N2CCCCC2)c1)c1ccccc1[O-] (3D coordinates assigned)
O=C([N-]c1cccc(S(=O)(=O)N2CCCCC2)c1)c1ccccc1[O-] (nonaromatic ring conformer: 57.99768190843178 kcal/mol)

>  <smiles>  (11) 
O=C(Nc1cccc(S(=O)(=O)N2CCCCC2)c1)c1ccccc1O

>  <score_type>  (11) 
oracle

>  <origin>  (11) 
adgpu

>  <m_score__min__energy>  (11) 
-13.67

>  <m_primary>  (11) 
energy

$$$$
11:0
     RDKit          3D

 42 45  0  0  0  0  0  0  0  0999 V2000
   -4.7330   19.9580  -33.2190 C   0  0  0  0  0  0  0  0  0  0  0  0
   -6.1110   19.7600  -32.6460 C   0  0  0  0  0  0  0  0  0  0  0  0
   -6.5960   18.4540  -32.4710 C   0  0  0  0  0  0  0  0  0  0  0  0
   -7.8910   18.2360  -32.0040 C   0  0  0  0  0  0  0  0  0  0  0  0
   -8.7300   19.3160  -31.7360 C   0  0  0  0  0  0  0  0  0  0  0  0
   -8.2740   20.6270  -31.9090 C   0  0  0  0  0  0  0  0  0  0  0  0
   -9.4390   21.9230  -31.6630 Cl  0  0  0  0  0  0  0  0  0  0  0  0
   -6.9390   20.8650  -32.3280 C   0  0  0  0  0  0  0  0  0  0  0  0
   -6.4240   22.2020  -32.4930 N   0  0  0  0  0  0  0  0  0  0  0  0
   -6.0360   23.0930  -31.4310 C   0  0  0  0  0  0  0  0  0  0  0  0
   -7.0220   23.9320  -30.8910 C   0  0  0  0  0  0  0  0  0  0  0  0
   -6.7160   24.8380  -29.8760 C   0  0  0  0  0  0  0  0  0  0  0  0
   -5.4110   24.9340  -29.3990 C   0  0  0  0  0  0  0  0  0  0  0  0
   -4.4090   24.1280  -29.9370 C   0  0  0  0  0  0  0  0  0  0  0  0
   -4.6970   23.1980  -30.9540 C   0  0  0  0  0  0  0  0  0  0  0  0
   -3.5480   22.4160  -31.5490 C   0  0  0  0  0  0  0  0  0  0  0  0
   -2.9190   21.5070  -30.5390 C   0  0  0  0  0  0  0  0  0  0  0  0
   -3.4940   21.2230  -29.3470 N   0  0  0  0  0  0  0  0  0  0  0  0
   -2.6810   20.4480  -28.5850 C   0  0  0  0  0  0  0  0  0  0  0  0
   -3.0120   19.9710  -27.3130 C   0  0  0  0  0  0  0  0  0  0  0  0
   -2.0720   19.1820  -26.6280 C   0  0  0  0  0  0  0  0  0  0  0  0
   -0.8240   18.8820  -27.2100 C   0  0  0  0  0  0  0  0  0  0  0  0
   -0.5090   19.3610  -28.4920 C   0  0  0  0  0  0  0  0  0  0  0  0
   -1.4560   20.1380  -29.1540 C   0  0  0  0  0  0  0  0  0  0  0  0
   -1.3620   20.8450  -30.6720 S   0  0  0  0  0  0  0  0  0  0  0  0
   -4.0067   20.0624  -32.3995 H   0  0  0  0  0  0  0  0  0  0  0  0
   -4.4650   19.0891  -33.8381 H   0  0  0  0  0  0  0  0  0  0  0  0
   -4.7205   20.8672  -33.8381 H   0  0  0  0  0  0  0  0  0  0  0  0
   -5.9486   17.5959  -32.7044 H   0  0  0  0  0  0  0  0  0  0  0  0
   -8.2517   17.2088  -31.8466 H   0  0  0  0  0  0  0  0  0  0  0  0
   -9.7573   19.1364  -31.3862 H   0  0  0  0  0  0  0  0  0  0  0  0
   -6.4370   22.6020  -33.4580 H   0  0  0  0  0  0  0  0  0  0  0  0
   -8.0516   23.8744  -31.2738 H   0  0  0  0  0  0  0  0  0  0  0  0
   -7.5051   25.4766  -29.4522 H   0  0  0  0  0  0  0  0  0  0  0  0
   -5.1707   25.6469  -28.5965 H   0  0  0  0  0  0  0  0  0  0  0  0
   -3.3791   24.2199  -29.5618 H   0  0  0  0  0  0  0  0  0  0  0  0
   -3.9238   21.8119  -32.3880 H   0  0  0  0  0  0  0  0  0  0  0  0
   -2.7853   23.1311  -31.8908 H   0  0  0  0  0  0  0  0  0  0  0  0
   -3.9855   20.2078  -26.8590 H   0  0  0  0  0  0  0  0  0  0  0  0
   -2.3129   18.7946  -25.6271 H   0  0  0  0  0  0  0  0  0  0  0  0
   -0.0945   18.2708  -26.6584 H   0  0  0  0  0  0  0  0  0  0  0  0
    0.4589   19.1288  -28.9602 H   0  0  0  0  0  0  0  0  0  0  0  0
  1  2  1  0
  2  3  2  0
  3  4  1  0
  4  5  2  0
  5  6  1  0
  6  7  1  0
  6  8  2  0
  8  9  1  0
  9 10  1  0
 10 11  2  0
 11 12  1  0
 12 13  2  0
 13 14  1  0
 14 15  2  0
 15 16  1  0
 16 17  1  0
 17 18  2  0
 18 19  1  0
 19 20  2  0
 20 21  1  0
 21 22  2  0
 22 23  1  0
 23 24  2  0
 24 25  1  0
  8  2  1  0
 15 10  1  0
 25 17  1  0
 24 19  1  0
  1 26  1  0
  1 27  1  0
  1 28  1  0
  3 29  1  0
  4 30  1  0
  5 31  1  0
  9 32  1  0
 11 33  1  0
 12 34  1  0
 13 35  1  0
 14 36  1  0
 16 37  1  0
 16 38  1  0
 20 39  1  0
 21 40  1  0
 22 41  1  0
 23 42  1  0
M  END
>  <UniqueID>  (12) 
12

>  <SMILES>  (12) 
Cc1cccc(Cl)c1Nc1ccccc1Cc1nc2ccccc2s1

>  <Energy>  (12) 
90.12901295261621

>  <Genealogy>  (12) 
Cc1cccc(Cl)c1Nc1ccccc1Cc1nc2ccccc2s1 (3D coordinates assigned)
Cc1cccc(Cl)c1Nc1ccccc1Cc1nc2ccccc2s1 (optimized conformer: 90.12901295261621 kcal/mol)

>  <smiles>  (12) 
Cc1cccc(Cl)c1Nc1ccccc1Cc1nc2ccccc2s1

>  <score_type>  (12) 
oracle

>  <origin>  (12) 
adgpu

>  <m_score__min__energy>  (12) 
-9.6199999999999992

>  <m_primary>  (12) 
energy

$$$$
12:0
     RDKit          3D

 60 63  0  0  0  0  0  0  0  0999 V2000
   -1.4940   25.3810  -29.2840 O   0  0  0  0  0  0  0  0  0  0  0  0
   -2.6060   24.3730  -29.3720 S   0  0  0  0  0  0  0  0  0  0  0  0
   -3.1290   24.1170  -27.9860 O   0  0  0  0  0  0  0  0  0  0  0  0
   -3.8870   25.0170  -30.3480 N   0  0  0  0  0  0  0  0  0  0  0  0
   -5.0510   24.2530  -30.6660 C   0  0  0  0  0  0  0  0  0  0  0  0
   -5.4740   23.2470  -29.7910 C   0  0  0  0  0  0  0  0  0  0  0  0
   -6.6300   22.5140  -30.0730 C   0  0  0  0  0  0  0  0  0  0  0  0
   -7.3590   22.7670  -31.2430 C   0  0  0  0  0  0  0  0  0  0  0  0
   -8.8540   21.8910  -31.5550 S   0  0  0  0  0  0  0  0  0  0  0  0
   -9.7770   22.7550  -32.3700 O   0  0  0  0  0  0  0  0  0  0  0  0
   -9.5320   21.5620  -30.2510 O   0  0  0  0  0  0  0  0  0  0  0  0
   -8.4860   20.4320  -32.4370 N   0  0  0  0  0  0  0  0  0  0  0  0
   -8.7560   19.2320  -31.6430 C   0  0  0  0  0  0  0  0  0  0  0  0
   -7.8500   18.1420  -32.1940 C   0  0  0  0  0  0  0  0  0  0  0  0
   -6.7150   18.8770  -32.8950 C   0  0  0  0  0  0  0  0  0  0  0  0
   -7.0690   20.3560  -32.8040 C   0  0  0  0  0  0  0  0  0  0  0  0
   -6.9200   23.7580  -32.1310 C   0  0  0  0  0  0  0  0  0  0  0  0
   -5.7640   24.4910  -31.8480 C   0  0  0  0  0  0  0  0  0  0  0  0
   -1.9920   22.8670  -30.0460 C   0  0  0  0  0  0  0  0  0  0  0  0
   -0.9680   22.1700  -29.3900 C   0  0  0  0  0  0  0  0  0  0  0  0
   -0.4620   20.9870  -29.9340 C   0  0  0  0  0  0  0  0  0  0  0  0
   -0.9780   20.4940  -31.1350 C   0  0  0  0  0  0  0  0  0  0  0  0
   -1.9930   21.1890  -31.8050 C   0  0  0  0  0  0  0  0  0  0  0  0
   -2.6430   20.5520  -33.3130 S   0  0  0  0  0  0  0  0  0  0  0  0
   -1.6520   20.8150  -34.4150 O   0  0  0  0  0  0  0  0  0  0  0  0
   -3.9310   21.2510  -33.6530 O   0  0  0  0  0  0  0  0  0  0  0  0
   -2.9140   18.8340  -33.1540 N   0  0  0  0  0  0  0  0  0  0  0  0
   -3.8200   18.3680  -34.2170 C   0  0  0  0  0  0  0  0  0  0  0  0
   -4.2420   16.9070  -33.9630 C   0  0  0  0  0  0  0  0  0  0  0  0
   -3.2250   16.1440  -33.0980 C   0  0  0  0  0  0  0  0  0  0  0  0
   -1.7940   16.5950  -33.4060 C   0  0  0  0  0  0  0  0  0  0  0  0
   -1.6210   18.1180  -33.2090 C   0  0  0  0  0  0  0  0  0  0  0  0
   -2.5000   22.3750  -31.2560 C   0  0  0  0  0  0  0  0  0  0  0  0
   -4.8961   23.0326  -28.8799 H   0  0  0  0  0  0  0  0  0  0  0  0
   -6.9691   21.7354  -29.3739 H   0  0  0  0  0  0  0  0  0  0  0  0
   -9.0720   20.4100  -33.3060 H   0  0  0  0  0  0  0  0  0  0  0  0
   -8.5275   19.4174  -30.5831 H   0  0  0  0  0  0  0  0  0  0  0  0
   -9.8150   18.9411  -31.7061 H   0  0  0  0  0  0  0  0  0  0  0  0
   -7.4581   17.5178  -31.3774 H   0  0  0  0  0  0  0  0  0  0  0  0
   -8.3877   17.4701  -32.8792 H   0  0  0  0  0  0  0  0  0  0  0  0
   -5.7586   18.6790  -32.3890 H   0  0  0  0  0  0  0  0  0  0  0  0
   -6.5999   18.5488  -33.9386 H   0  0  0  0  0  0  0  0  0  0  0  0
   -6.4524   20.8461  -32.0362 H   0  0  0  0  0  0  0  0  0  0  0  0
   -6.8818   20.8656  -33.7607 H   0  0  0  0  0  0  0  0  0  0  0  0
   -7.4861   23.9595  -33.0524 H   0  0  0  0  0  0  0  0  0  0  0  0
   -5.4132   25.2568  -32.5554 H   0  0  0  0  0  0  0  0  0  0  0  0
   -0.5614   22.5559  -28.4435 H   0  0  0  0  0  0  0  0  0  0  0  0
    0.3426   20.4437  -29.4168 H   0  0  0  0  0  0  0  0  0  0  0  0
   -0.5858   19.5565  -31.5561 H   0  0  0  0  0  0  0  0  0  0  0  0
   -4.7159   19.0059  -34.2348 H   0  0  0  0  0  0  0  0  0  0  0  0
   -3.2956   18.4247  -35.1823 H   0  0  0  0  0  0  0  0  0  0  0  0
   -5.2146   16.9047  -33.4492 H   0  0  0  0  0  0  0  0  0  0  0  0
   -4.2993   16.4006  -34.9378 H   0  0  0  0  0  0  0  0  0  0  0  0
   -3.4414   16.3343  -32.0364 H   0  0  0  0  0  0  0  0  0  0  0  0
   -3.3099   15.0705  -33.3225 H   0  0  0  0  0  0  0  0  0  0  0  0
   -1.1013   16.0674  -32.7338 H   0  0  0  0  0  0  0  0  0  0  0  0
   -1.5783   16.3582  -34.4583 H   0  0  0  0  0  0  0  0  0  0  0  0
   -1.0811   18.2924  -32.2666 H   0  0  0  0  0  0  0  0  0  0  0  0
   -1.0620   18.5048  -34.0738 H   0  0  0  0  0  0  0  0  0  0  0  0
   -3.2998   22.9217  -31.7770 H   0  0  0  0  0  0  0  0  0  0  0  0
  1  2  2  0
  2  3  2  0
  2  4  1  0
  4  5  1  0
  5  6  2  0
  6  7  1  0
  7  8  2  0
  8  9  1  0
  9 10  2  0
  9 11  2  0
  9 12  1  0
 12 13  1  0
 13 14  1  0
 14 15  1  0
 15 16  1  0
  8 17  1  0
 17 18  2  0
  2 19  1  0
 19 20  2  0
 20 21  1  0
 21 22  2  0
 22 23  1  0
 23 24  1  0
 24 25  2  0
 24 26  2  0
 24 27  1  0
 27 28  1  0
 28 29  1  0
 29 30  1  0
 30 31  1  0
 31 32  1  0
 23 33  2  0
 18  5  1  0
 33 19  1  0
 16 12  1  0
 32 27  1  0
  6 34  1  0
  7 35  1  0
 12 36  1  0
 13 37  1  0
 13 38  1  0
 14 39  1  0
 14 40  1  0
 15 41  1  0
 15 42  1  0
 16 43  1  0
 16 44  1  0
 17 45  1  0
 18 46  1  0
 20 47  1  0
 21 48  1  0
 22 49  1  0
 28 50  1  0
 28 51  1  0
 29 52  1  0
 29 53  1  0
 30 54  1  0
 30 55  1  0
 31 56  1  0
 31 57  1  0
 32 58  1  0
 32 59  1  0
 33 60  1  0
M  CHG  2   4  -1  12   1
M  END
>  <UniqueID>  (13) 
13

>  <SMILES>  (13) 
O=S(=O)([N-]c1ccc(S(=O)(=O)[NH+]2CCCC2)cc1)c1cccc(S(=O)(=O)N2CCCCC2)c1

>  <Energy>  (13) 
73.14705595807571

>  <Genealogy>  (13) 
O=S(=O)([N-]c1ccc(S(=O)(=O)[NH+]2CCCC2)cc1)c1cccc(S(=O)(=O)N2CCCCC2)c1 (protonated)
O=S(=O)([N-]c1ccc(S(=O)(=O)[NH+]2CCCC2)cc1)c1cccc(S(=O)(=O)N2CCCCC2)c1 (3D coordinates assigned)
O=S(=O)([N-]c1ccc(S(=O)(=O)[NH+]2CCCC2)cc1)c1cccc(S(=O)(=O)N2CCCCC2)c1 (nonaromatic ring conformer: 73.14705595807571 kcal/mol)

>  <smiles>  (13) 
O=S(=O)(Nc1ccc(S(=O)(=O)N2CCCC2)cc1)c1cccc(S(=O)(=O)N2CCCCC2)c1

>  <score_type>  (13) 
oracle

>  <origin>  (13) 
adgpu

>  <m_score__min__energy>  (13) 
-12.73

>  <m_primary>  (13) 
energy

$$$$
13:0
     RDKit          3D

 49 51  0  0  0  0  0  0  0  0999 V2000
   -1.5840   25.1790  -26.5110 C   0  0  0  0  0  0  0  0  0  0  0  0
   -0.9360   25.2440  -27.8520 C   0  0  0  0  0  0  0  0  0  0  0  0
    0.3220   25.2820  -27.9330 O   0  0  0  0  0  0  0  0  0  0  0  0
   -1.7500   25.3750  -29.0230 N   0  0  0  0  0  0  0  0  0  0  0  0
   -2.5600   24.3480  -29.6120 C   0  0  0  0  0  0  0  0  0  0  0  0
   -2.0710   23.0480  -29.8320 C   0  0  0  0  0  0  0  0  0  0  0  0
   -2.8950   22.0760  -30.4070 C   0  0  0  0  0  0  0  0  0  0  0  0
   -4.2100   22.3900  -30.7610 C   0  0  0  0  0  0  0  0  0  0  0  0
   -4.7120   23.6770  -30.5290 C   0  0  0  0  0  0  0  0  0  0  0  0
   -6.3470   24.0810  -31.0360 S   0  0  0  0  0  0  0  0  0  0  0  0
   -6.4720   23.9920  -32.5320 O   0  0  0  0  0  0  0  0  0  0  0  0
   -6.6520   25.4890  -30.6110 O   0  0  0  0  0  0  0  0  0  0  0  0
   -7.4990   23.0020  -30.3130 N   0  0  0  0  0  0  0  0  0  0  0  0
   -8.0100   21.8630  -31.0190 C   0  0  0  0  0  0  0  0  0  0  0  0
   -9.3380   21.8640  -31.4690 C   0  0  0  0  0  0  0  0  0  0  0  0
   -9.8400   20.7750  -32.1870 C   0  0  0  0  0  0  0  0  0  0  0  0
   -9.0250   19.6710  -32.4480 C   0  0  0  0  0  0  0  0  0  0  0  0
   -7.7050   19.6450  -31.9790 C   0  0  0  0  0  0  0  0  0  0  0  0
   -6.6750   18.2400  -32.2700 S   0  0  0  0  0  0  0  0  0  0  0  0
   -6.6620   17.3810  -31.0350 O   0  0  0  0  0  0  0  0  0  0  0  0
   -7.2500   17.4240  -33.3960 O   0  0  0  0  0  0  0  0  0  0  0  0
   -5.0390   18.6970  -32.6790 N   0  0  0  0  0  0  0  0  0  0  0  0
   -4.4590   17.7430  -33.6380 C   0  0  0  0  0  0  0  0  0  0  0  0
   -3.1370   18.2880  -34.2190 C   0  0  0  0  0  0  0  0  0  0  0  0
   -2.6470   19.3600  -33.4380 O   0  0  0  0  0  0  0  0  0  0  0  0
   -3.5380   20.4620  -33.5140 C   0  0  0  0  0  0  0  0  0  0  0  0
   -5.0000   20.0590  -33.2260 C   0  0  0  0  0  0  0  0  0  0  0  0
   -7.2060   20.7370  -31.2580 C   0  0  0  0  0  0  0  0  0  0  0  0
   -3.8880   24.6470  -29.9390 C   0  0  0  0  0  0  0  0  0  0  0  0
   -0.8151   25.2561  -25.7281 H   0  0  0  0  0  0  0  0  0  0  0  0
   -2.2971   26.0101  -26.4077 H   0  0  0  0  0  0  0  0  0  0  0  0
   -2.1179   24.2228  -26.4077 H   0  0  0  0  0  0  0  0  0  0  0  0
   -1.0379   22.7954  -29.5511 H   0  0  0  0  0  0  0  0  0  0  0  0
   -2.5073   21.0614  -30.5813 H   0  0  0  0  0  0  0  0  0  0  0  0
   -4.8519   21.6252  -31.2226 H   0  0  0  0  0  0  0  0  0  0  0  0
   -8.0300   23.3610  -29.4890 H   0  0  0  0  0  0  0  0  0  0  0  0
   -9.9876   22.7257  -31.2560 H   0  0  0  0  0  0  0  0  0  0  0  0
  -10.8792   20.7873  -32.5474 H   0  0  0  0  0  0  0  0  0  0  0  0
   -9.4203   18.8205  -33.0228 H   0  0  0  0  0  0  0  0  0  0  0  0
   -4.2621   16.7901  -33.1250 H   0  0  0  0  0  0  0  0  0  0  0  0
   -5.1719   17.5929  -34.4622 H   0  0  0  0  0  0  0  0  0  0  0  0
   -2.3896   17.4810  -34.2324 H   0  0  0  0  0  0  0  0  0  0  0  0
   -3.3256   18.6537  -35.2392 H   0  0  0  0  0  0  0  0  0  0  0  0
   -3.2284   21.2178  -32.7772 H   0  0  0  0  0  0  0  0  0  0  0  0
   -3.4953   20.8571  -34.5397 H   0  0  0  0  0  0  0  0  0  0  0  0
   -5.4353   20.7584  -32.4971 H   0  0  0  0  0  0  0  0  0  0  0  0
   -5.5783   20.0928  -34.1611 H   0  0  0  0  0  0  0  0  0  0  0  0
   -6.1749   20.7123  -30.8755 H   0  0  0  0  0  0  0  0  0  0  0  0
   -4.2884   25.6503  -29.7317 H   0  0  0  0  0  0  0  0  0  0  0  0
  1  2  1  0
  2  3  2  0
  2  4  1  0
  4  5  1  0
  5  6  2  0
  6  7  1  0
  7  8  2  0
  8  9  1  0
  9 10  1  0
 10 11  2  0
 10 12  2  0
 10 13  1  0
 13 14  1  0
 14 15  2  0
 15 16  1  0
 16 17  2  0
 17 18  1  0
 18 19  1  0
 19 20  2  0
 19 21  2  0
 19 22  1  0
 22 23  1  0
 23 24  1  0
 24 25  1  0
 25 26  1  0
 26 27  1  0
 18 28  2  0
  9 29  2  0
 29  5  1  0
 28 14  1  0
 27 22  1  0
  1 30  1  0
  1 31  1  0
  1 32  1  0
  6 33  1  0
  7 34  1  0
  8 35  1  0
 13 36  1  0
 15 37  1  0
 16 38  1  0
 17 39  1  0
 23 40  1  0
 23 41  1  0
 24 42  1  0
 24 43  1  0
 26 44  1  0
 26 45  1  0
 27 46  1  0
 27 47  1  0
 28 48  1  0
 29 49  1  0
M  CHG  1   4  -1
M  END
>  <UniqueID>  (14) 
14

>  <SMILES>  (14) 
CC(=O)[N-]c1cccc(S(=O)(=O)Nc2cccc(S(=O)(=O)N3CCOCC3)c2)c1

>  <Energy>  (14) 
59.94652649094357

>  <Genealogy>  (14) 
CC(=O)[N-]c1cccc(S(=O)(=O)Nc2cccc(S(=O)(=O)N3CCOCC3)c2)c1 (protonated)
CC(=O)[N-]c1cccc(S(=O)(=O)Nc2cccc(S(=O)(=O)N3CCOCC3)c2)c1 (3D coordinates assigned)
CC(=O)[N-]c1cccc(S(=O)(=O)Nc2cccc(S(=O)(=O)N3CCOCC3)c2)c1 (nonaromatic ring conformer: 59.94652649094357 kcal/mol)

>  <smiles>  (14) 
CC(=O)Nc1cccc(S(=O)(=O)Nc2cccc(S(=O)(=O)N3CCOCC3)c2)c1

>  <score_type>  (14) 
oracle

>  <origin>  (14) 
adgpu

>  <m_score__min__energy>  (14) 
-11.48

>  <m_primary>  (14) 
energy

$$$$
14:0
     RDKit          3D

 55 58  0  0  0  0  0  0  0  0999 V2000
   -1.8690   25.9660  -28.5990 O   0  0  0  0  0  0  0  0  0  0  0  0
   -2.1320   24.7540  -28.8320 C   0  0  0  0  0  0  0  0  0  0  0  0
   -2.7810   24.3800  -30.0540 N   0  0  0  0  0  0  0  0  0  0  0  0
   -4.1930   24.3050  -30.2960 C   0  0  0  0  0  0  0  0  0  0  0  0
   -5.0860   25.2490  -29.7560 C   0  0  0  0  0  0  0  0  0  0  0  0
   -6.4610   25.1280  -29.9770 C   0  0  0  0  0  0  0  0  0  0  0  0
   -6.9590   24.0580  -30.7240 C   0  0  0  0  0  0  0  0  0  0  0  0
   -6.0830   23.1010  -31.2440 C   0  0  0  0  0  0  0  0  0  0  0  0
   -4.7040   23.2160  -31.0300 C   0  0  0  0  0  0  0  0  0  0  0  0
   -3.8250   22.2190  -31.5670 N   0  0  0  0  0  0  0  0  0  0  0  0
   -3.2640   21.2040  -30.6740 C   0  0  0  0  0  0  0  0  0  0  0  0
   -1.9890   20.6240  -31.2940 C   0  0  0  0  0  0  0  0  0  0  0  0
   -2.2280   20.1870  -32.6190 O   0  0  0  0  0  0  0  0  0  0  0  0
   -2.5450   21.2970  -33.4390 C   0  0  0  0  0  0  0  0  0  0  0  0
   -3.8650   21.9390  -33.0020 C   0  0  0  0  0  0  0  0  0  0  0  0
   -1.7150   23.7070  -27.8680 C   0  0  0  0  0  0  0  0  0  0  0  0
   -1.8380   22.3450  -28.1960 C   0  0  0  0  0  0  0  0  0  0  0  0
   -1.4430   21.3610  -27.2880 C   0  0  0  0  0  0  0  0  0  0  0  0
   -0.9150   21.7200  -26.0470 C   0  0  0  0  0  0  0  0  0  0  0  0
   -0.7750   23.0720  -25.7060 C   0  0  0  0  0  0  0  0  0  0  0  0
   -0.0820   23.5280  -24.1460 S   0  0  0  0  0  0  0  0  0  0  0  0
    1.1400   22.6900  -23.8850 O   0  0  0  0  0  0  0  0  0  0  0  0
   -1.0820   23.2420  -23.0600 O   0  0  0  0  0  0  0  0  0  0  0  0
    0.3550   25.2230  -24.1000 N   0  0  0  0  0  0  0  0  0  0  0  0
    1.0800   25.5990  -25.3330 C   0  0  0  0  0  0  0  0  0  0  0  0
    0.9990   27.1160  -25.5740 C   0  0  0  0  0  0  0  0  0  0  0  0
   -0.3290   27.6090  -25.7230 O   0  0  0  0  0  0  0  0  0  0  0  0
   -1.3190   26.7830  -25.1240 C   0  0  0  0  0  0  0  0  0  0  0  0
   -0.8290   26.0820  -23.8430 C   0  0  0  0  0  0  0  0  0  0  0  0
   -1.1850   24.0610  -26.6130 C   0  0  0  0  0  0  0  0  0  0  0  0
   -4.7000   26.0867  -29.1567 H   0  0  0  0  0  0  0  0  0  0  0  0
   -7.1519   25.8766  -29.5620 H   0  0  0  0  0  0  0  0  0  0  0  0
   -8.0406   23.9685  -30.9031 H   0  0  0  0  0  0  0  0  0  0  0  0
   -6.4786   22.2540  -31.8238 H   0  0  0  0  0  0  0  0  0  0  0  0
   -3.0236   21.6625  -29.7035 H   0  0  0  0  0  0  0  0  0  0  0  0
   -3.9989   20.3986  -30.5281 H   0  0  0  0  0  0  0  0  0  0  0  0
   -1.2086   21.3991  -31.3052 H   0  0  0  0  0  0  0  0  0  0  0  0
   -1.6645   19.7625  -30.6918 H   0  0  0  0  0  0  0  0  0  0  0  0
   -1.7395   22.0423  -33.3636 H   0  0  0  0  0  0  0  0  0  0  0  0
   -2.6499   20.9489  -34.4772 H   0  0  0  0  0  0  0  0  0  0  0  0
   -4.0151   22.8786  -33.5539 H   0  0  0  0  0  0  0  0  0  0  0  0
   -4.6944   21.2488  -33.2158 H   0  0  0  0  0  0  0  0  0  0  0  0
   -2.2480   22.0532  -29.1741 H   0  0  0  0  0  0  0  0  0  0  0  0
   -1.5483   20.2983  -27.5517 H   0  0  0  0  0  0  0  0  0  0  0  0
   -0.6080   20.9399  -25.3349 H   0  0  0  0  0  0  0  0  0  0  0  0
    1.0130   25.3340  -23.2930 H   0  0  0  0  0  0  0  0  0  0  0  0
    2.1355   25.3055  -25.2343 H   0  0  0  0  0  0  0  0  0  0  0  0
    0.6165   25.0816  -26.1859 H   0  0  0  0  0  0  0  0  0  0  0  0
    1.4638   27.6275  -24.7182 H   0  0  0  0  0  0  0  0  0  0  0  0
    1.5208   27.3159  -26.5215 H   0  0  0  0  0  0  0  0  0  0  0  0
   -2.1886   27.4071  -24.8704 H   0  0  0  0  0  0  0  0  0  0  0  0
   -1.5729   25.9971  -25.8505 H   0  0  0  0  0  0  0  0  0  0  0  0
   -0.5588   26.8470  -23.1001 H   0  0  0  0  0  0  0  0  0  0  0  0
   -1.6422   25.4400  -23.4734 H   0  0  0  0  0  0  0  0  0  0  0  0
   -1.0914   25.1227  -26.3408 H   0  0  0  0  0  0  0  0  0  0  0  0
  1  2  2  0
  2  3  1  0
  3  4  1  0
  4  5  2  0
  5  6  1  0
  6  7  2  0
  7  8  1  0
  8  9  2  0
  9 10  1  0
 10 11  1  0
 11 12  1  0
 12 13  1  0
 13 14  1  0
 14 15  1  0
  2 16  1  0
 16 17  2  0
 17 18  1  0
 18 19  2  0
 19 20  1  0
 20 21  1  0
 21 22  2  0
 21 23  2  0
 21 24  1  0
 24 25  1  0
 25 26  1  0
 26 27  1  0
 27 28  1  0
 28 29  1  0
 20 30  2  0
  9  4  1  0
 15 10  1  0
 30 16  1  0
 29 24  1  0
  5 31  1  0
  6 32  1  0
  7 33  1  0
  8 34  1  0
 11 35  1  0
 11 36  1  0
 12 37  1  0
 12 38  1  0
 14 39  1  0
 14 40  1  0
 15 41  1  0
 15 42  1  0
 17 43  1  0
 18 44  1  0
 19 45  1  0
 24 46  1  0
 25 47  1  0
 25 48  1  0
 26 49  1  0
 26 50  1  0
 28 51  1  0
 28 52  1  0
 29 53  1  0
 29 54  1  0
 30 55  1  0
M  CHG  2   3  -1  24   1
M  END
>  <UniqueID>  (15) 
15

>  <SMILES>  (15) 
O=C([N-]c1ccccc1N1CCOCC1)c1cccc(S(=O)(=O)[NH+]2CCOCC2)c1

>  <Energy>  (15) 
79.51416491029143

>  <Genealogy>  (15) 
O=C([N-]c1ccccc1N1CCOCC1)c1cccc(S(=O)(=O)[NH+]2CCOCC2)c1 (protonated)
O=C([N-]c1ccccc1N1CCOCC1)c1cccc(S(=O)(=O)[NH+]2CCOCC2)c1 (3D coordinates assigned)
O=C([N-]c1ccccc1N1CCOCC1)c1cccc(S(=O)(=O)[NH+]2CCOCC2)c1 (nonaromatic ring conformer: 79.51416491029143 kcal/mol)

>  <smiles>  (15) 
O=C(Nc1ccccc1N1CCOCC1)c1cccc(S(=O)(=O)N2CCOCC2)c1

>  <score_type>  (15) 
oracle

>  <origin>  (15) 
adgpu

>  <m_score__min__energy>  (15) 
-9.8399999999999999

>  <m_primary>  (15) 
energy

$$$$
15:0
     RDKit          3D

 57 61  0  0  0  0  0  0  0  0999 V2000
   -0.2610   18.2540  -32.2870 C   0  0  0  0  0  0  0  0  0  0  0  0
    0.2550   18.7770  -30.9870 C   0  0  0  0  0  0  0  0  0  0  0  0
   -0.5060   19.2920  -29.9620 C   0  0  0  0  0  0  0  0  0  0  0  0
    0.4430   19.5930  -29.0010 C   0  0  0  0  0  0  0  0  0  0  0  0
    0.2270   20.1150  -27.8330 N   0  0  0  0  0  0  0  0  0  0  0  0
   -1.3430   20.5250  -27.2190 S   0  0  0  0  0  0  0  0  0  0  0  0
   -1.2570   20.8030  -25.7440 O   0  0  0  0  0  0  0  0  0  0  0  0
   -2.2760   19.3640  -27.4290 O   0  0  0  0  0  0  0  0  0  0  0  0
   -1.9590   21.9280  -28.0900 C   0  0  0  0  0  0  0  0  0  0  0  0
   -2.4220   23.0390  -27.3730 C   0  0  0  0  0  0  0  0  0  0  0  0
   -2.9490   24.1450  -28.0490 C   0  0  0  0  0  0  0  0  0  0  0  0
   -3.0150   24.1560  -29.4470 C   0  0  0  0  0  0  0  0  0  0  0  0
   -3.5900   25.2960  -30.1060 N   0  0  0  0  0  0  0  0  0  0  0  0
   -4.9770   25.4820  -30.4110 C   0  0  0  0  0  0  0  0  0  0  0  0
   -5.4360   26.6550  -30.4580 O   0  0  0  0  0  0  0  0  0  0  0  0
   -5.8650   24.3490  -30.7450 C   0  0  0  0  0  0  0  0  0  0  0  0
   -6.1950   23.4000  -29.7630 C   0  0  0  0  0  0  0  0  0  0  0  0
   -7.0070   22.3080  -30.0820 C   0  0  0  0  0  0  0  0  0  0  0  0
   -7.5230   22.1680  -31.3790 C   0  0  0  0  0  0  0  0  0  0  0  0
   -8.5080   20.7680  -31.7820 S   0  0  0  0  0  0  0  0  0  0  0  0
   -9.0960   20.1950  -30.5240 O   0  0  0  0  0  0  0  0  0  0  0  0
   -9.6410   21.1590  -32.6890 O   0  0  0  0  0  0  0  0  0  0  0  0
   -7.5140   19.5680  -32.5430 N   0  0  0  0  0  0  0  0  0  0  0  0
   -7.9170   18.1720  -32.6880 C   0  0  0  0  0  0  0  0  0  0  0  0
   -6.6620   17.4150  -33.1850 C   0  0  0  0  0  0  0  0  0  0  0  0
   -5.6080   18.4660  -33.1950 C   0  0  0  0  0  0  0  0  0  0  0  0
   -4.2540   18.3240  -33.5150 C   0  0  0  0  0  0  0  0  0  0  0  0
   -3.4270   19.4570  -33.4520 C   0  0  0  0  0  0  0  0  0  0  0  0
   -3.9630   20.7040  -33.0740 C   0  0  0  0  0  0  0  0  0  0  0  0
   -5.3270   20.8210  -32.7570 C   0  0  0  0  0  0  0  0  0  0  0  0
   -6.1280   19.6750  -32.8230 C   0  0  0  0  0  0  0  0  0  0  0  0
   -7.2130   23.1240  -32.3560 C   0  0  0  0  0  0  0  0  0  0  0  0
   -6.3870   24.2080  -32.0430 C   0  0  0  0  0  0  0  0  0  0  0  0
   -2.5760   23.0280  -30.1650 C   0  0  0  0  0  0  0  0  0  0  0  0
   -2.0400   21.9260  -29.4900 C   0  0  0  0  0  0  0  0  0  0  0  0
    1.6740   19.2680  -29.4370 N   0  0  0  0  0  0  0  0  0  0  0  0
    1.5220   18.7790  -30.6320 O   0  0  0  0  0  0  0  0  0  0  0  0
   -1.0218   17.4829  -32.0959 H   0  0  0  0  0  0  0  0  0  0  0  0
   -0.7100   19.0777  -32.8613 H   0  0  0  0  0  0  0  0  0  0  0  0
    0.5687   17.8161  -32.8613 H   0  0  0  0  0  0  0  0  0  0  0  0
   -1.5964   19.4299  -29.9179 H   0  0  0  0  0  0  0  0  0  0  0  0
   -2.3710   23.0419  -26.2742 H   0  0  0  0  0  0  0  0  0  0  0  0
   -3.3138   25.0115  -27.4779 H   0  0  0  0  0  0  0  0  0  0  0  0
   -5.8125   23.5169  -28.7383 H   0  0  0  0  0  0  0  0  0  0  0  0
   -7.2421   21.5564  -29.3140 H   0  0  0  0  0  0  0  0  0  0  0  0
   -8.2491   17.7676  -31.7204 H   0  0  0  0  0  0  0  0  0  0  0  0
   -8.7562   18.0659  -33.3912 H   0  0  0  0  0  0  0  0  0  0  0  0
   -6.3970   16.5980  -32.4977 H   0  0  0  0  0  0  0  0  0  0  0  0
   -6.8064   16.9417  -34.1674 H   0  0  0  0  0  0  0  0  0  0  0  0
   -3.8458   17.3460  -33.8096 H   0  0  0  0  0  0  0  0  0  0  0  0
   -2.3584   19.3709  -33.6983 H   0  0  0  0  0  0  0  0  0  0  0  0
   -3.3115   21.5890  -33.0269 H   0  0  0  0  0  0  0  0  0  0  0  0
   -5.7554   21.7908  -32.4638 H   0  0  0  0  0  0  0  0  0  0  0  0
   -7.6209   23.0212  -33.3724 H   0  0  0  0  0  0  0  0  0  0  0  0
   -6.1447   24.9532  -32.8150 H   0  0  0  0  0  0  0  0  0  0  0  0
   -2.6547   23.0127  -31.2621 H   0  0  0  0  0  0  0  0  0  0  0  0
   -1.6811   21.0557  -30.0590 H   0  0  0  0  0  0  0  0  0  0  0  0
  1  2  1  0
  2  3  2  0
  3  4  1  0
  4  5  2  3
  5  6  1  0
  6  7  2  0
  6  8  2  0
  6  9  1  0
  9 10  2  0
 10 11  1  0
 11 12  2  0
 12 13  1  0
 13 14  1  0
 14 15  2  0
 14 16  1  0
 16 17  2  0
 17 18  1  0
 18 19  2  0
 19 20  1  0
 20 21  2  0
 20 22  2  0
 20 23  1  0
 23 24  1  0
 24 25  1  0
 25 26  1  0
 26 27  2  0
 27 28  1  0
 28 29  2  0
 29 30  1  0
 30 31  2  0
 19 32  1  0
 32 33  2  0
 12 34  1  0
 34 35  2  0
  4 36  1  0
 36 37  1  0
 37  2  1  0
 35  9  1  0
 33 16  1  0
 31 23  1  0
 31 26  1  0
  1 38  1  0
  1 39  1  0
  1 40  1  0
  3 41  1  0
 10 42  1  0
 11 43  1  0
 17 44  1  0
 18 45  1  0
 24 46  1  0
 24 47  1  0
 25 48  1  0
 25 49  1  0
 27 50  1  0
 28 51  1  0
 29 52  1  0
 30 53  1  0
 32 54  1  0
 33 55  1  0
 34 56  1  0
 35 57  1  0
M  CHG  2  13  -1  36  -1
M  END
>  <UniqueID>  (16) 
16

>  <SMILES>  (16) 
Cc1cc(=NS(=O)(=O)c2ccc([N-]C(=O)c3ccc(S(=O)(=O)N4CCc5ccccc54)cc3)cc2)[n-]o1

>  <Energy>  (16) 
118.58529857401182

>  <Genealogy>  (16) 
Cc1cc(=NS(=O)(=O)c2ccc([N-]C(=O)c3ccc(S(=O)(=O)N4CCc5ccccc54)cc3)cc2)[n-]o1 (protonated)
Cc1cc(=NS(=O)(=O)c2ccc([N-]C(=O)c3ccc(S(=O)(=O)N4CCc5ccccc54)cc3)cc2)[n-]o1 (3D coordinates assigned)
Cc1cc(=NS(=O)(=O)c2ccc([N-]C(=O)c3ccc(S(=O)(=O)N4CCc5ccccc54)cc3)cc2)[n-]o1 (nonaromatic ring conformer: 118.58529857401182 kcal/mol)

>  <smiles>  (16) 
Cc1cc(=NS(=O)(=O)c2ccc(NC(=O)c3ccc(S(=O)(=O)N4CCc5ccccc54)cc3)cc2)[nH]o1

>  <score_type>  (16) 
oracle

>  <origin>  (16) 
adgpu

>  <m_score__min__energy>  (16) 
-13.529999999999999

>  <m_primary>  (16) 
energy

$$$$
16:0
     RDKit          3D

 40 42  0  0  0  0  0  0  0  0999 V2000
   -1.6470   21.6960  -28.8640 O   0  0  0  0  0  0  0  0  0  0  0  0
   -2.0860   22.8380  -29.1590 C   0  0  0  0  0  0  0  0  0  0  0  0
   -2.6240   23.0560  -30.4700 N   0  0  0  0  0  0  0  0  0  0  0  0
   -4.0160   23.2320  -30.7650 C   0  0  0  0  0  0  0  0  0  0  0  0
   -4.8070   22.0990  -30.9900 C   0  0  0  0  0  0  0  0  0  0  0  0
   -6.1600   22.2320  -31.3260 C   0  0  0  0  0  0  0  0  0  0  0  0
   -7.0950   20.8000  -31.7450 S   0  0  0  0  0  0  0  0  0  0  0  0
   -7.5530   20.8570  -33.1760 O   0  0  0  0  0  0  0  0  0  0  0  0
   -8.2950   20.7210  -30.8460 O   0  0  0  0  0  0  0  0  0  0  0  0
   -6.1130   19.3880  -31.5180 N   0  0  0  0  0  0  0  0  0  0  0  0
   -5.5470   18.6060  -32.5780 C   0  0  0  0  0  0  0  0  0  0  0  0
   -4.3140   18.9940  -33.1160 C   0  0  0  0  0  0  0  0  0  0  0  0
   -3.7430   18.2750  -34.1710 C   0  0  0  0  0  0  0  0  0  0  0  0
   -4.3970   17.1550  -34.6930 C   0  0  0  0  0  0  0  0  0  0  0  0
   -3.8220   16.4530  -35.7500 O   0  0  0  0  0  0  0  0  0  0  0  0
   -5.6220   16.7500  -34.1490 C   0  0  0  0  0  0  0  0  0  0  0  0
   -6.1950   17.4690  -33.0970 C   0  0  0  0  0  0  0  0  0  0  0  0
   -6.7380   23.5060  -31.3890 C   0  0  0  0  0  0  0  0  0  0  0  0
   -5.9640   24.6390  -31.1260 C   0  0  0  0  0  0  0  0  0  0  0  0
   -4.6080   24.5090  -30.8120 C   0  0  0  0  0  0  0  0  0  0  0  0
   -3.8660   25.6490  -30.5260 O   0  0  0  0  0  0  0  0  0  0  0  0
   -2.0130   23.9270  -28.1580 C   0  0  0  0  0  0  0  0  0  0  0  0
   -3.1030   24.1490  -27.2990 C   0  0  0  0  0  0  0  0  0  0  0  0
   -3.0620   25.1820  -26.3580 C   0  0  0  0  0  0  0  0  0  0  0  0
   -1.9300   25.9930  -26.2570 C   0  0  0  0  0  0  0  0  0  0  0  0
   -0.8310   25.7670  -27.0880 C   0  0  0  0  0  0  0  0  0  0  0  0
   -0.8610   24.7320  -28.0300 C   0  0  0  0  0  0  0  0  0  0  0  0
    0.2660   24.4960  -28.8100 O   0  0  0  0  0  0  0  0  0  0  0  0
   -4.3624   21.0967  -30.9022 H   0  0  0  0  0  0  0  0  0  0  0  0
   -3.7907   19.8704  -32.7061 H   0  0  0  0  0  0  0  0  0  0  0  0
   -2.7769   18.5915  -34.5911 H   0  0  0  0  0  0  0  0  0  0  0  0
   -3.1060   16.8680  -36.3340 H   0  0  0  0  0  0  0  0  0  0  0  0
   -6.1345   15.8635  -34.5509 H   0  0  0  0  0  0  0  0  0  0  0  0
   -7.1567   17.1453  -32.6724 H   0  0  0  0  0  0  0  0  0  0  0  0
   -7.8021   23.6147  -31.6457 H   0  0  0  0  0  0  0  0  0  0  0  0
   -6.4236   25.6376  -31.1662 H   0  0  0  0  0  0  0  0  0  0  0  0
   -3.9932   23.5064  -27.3675 H   0  0  0  0  0  0  0  0  0  0  0  0
   -3.9231   25.3562  -25.6960 H   0  0  0  0  0  0  0  0  0  0  0  0
   -1.9040   26.8109  -25.5219 H   0  0  0  0  0  0  0  0  0  0  0  0
    0.0614   26.4044  -27.0022 H   0  0  0  0  0  0  0  0  0  0  0  0
  1  2  2  0
  2  3  1  0
  3  4  1  0
  4  5  2  0
  5  6  1  0
  6  7  1  0
  7  8  2  0
  7  9  2  0
  7 10  1  0
 10 11  1  0
 11 12  2  0
 12 13  1  0
 13 14  2  0
 14 15  1  0
 14 16  1  0
 16 17  2  0
  6 18  2  0
 18 19  1  0
 19 20  2  0
 20 21  1  0
  2 22  1  0
 22 23  2  0
 23 24  1  0
 24 25  2  0
 25 26  1  0
 26 27  2  0
 27 28  1  0
 20  4  1  0
 27 22  1  0
 17 11  1  0
  5 29  1  0
 12 30  1  0
 13 31  1  0
 15 32  1  0
 16 33  1  0
 17 34  1  0
 18 35  1  0
 19 36  1  0
 23 37  1  0
 24 38  1  0
 25 39  1  0
 26 40  1  0
M  CHG  4   3  -1  10  -1  21  -1  28  -1
M  END
>  <UniqueID>  (17) 
17

>  <SMILES>  (17) 
O=C([N-]c1cc(S(=O)(=O)[N-]c2ccc(O)cc2)ccc1[O-])c1ccccc1[O-]

>  <Energy>  (17) 
54.25958555556326

>  <Genealogy>  (17) 
O=C([N-]c1cc(S(=O)(=O)[N-]c2ccc(O)cc2)ccc1[O-])c1ccccc1[O-] (protonated)
O=C([N-]c1cc(S(=O)(=O)[N-]c2ccc(O)cc2)ccc1[O-])c1ccccc1[O-] (3D coordinates assigned)
O=C([N-]c1cc(S(=O)(=O)[N-]c2ccc(O)cc2)ccc1[O-])c1ccccc1[O-] (optimized conformer: 54.25958555556326 kcal/mol)

>  <smiles>  (17) 
O=C(Nc1cc(S(=O)(=O)Nc2ccc(O)cc2)ccc1O)c1ccccc1O

>  <score_type>  (17) 
oracle

>  <origin>  (17) 
adgpu

>  <m_score__min__energy>  (17) 
-14.449999999999999

>  <m_primary>  (17) 
energy

$$$$
17:0
     RDKit          3D

 39 41  0  0  0  0  0  0  0  0999 V2000
   -5.5000   20.8330  -33.6280 O   0  0  0  0  0  0  0  0  0  0  0  0
   -4.7280   20.6980  -32.6390 C   0  0  0  0  0  0  0  0  0  0  0  0
   -4.2420   19.3890  -32.2980 N   0  0  0  0  0  0  0  0  0  0  0  0
   -4.7420   18.2050  -32.9370 C   0  0  0  0  0  0  0  0  0  0  0  0
   -4.0120   17.6590  -34.0020 C   0  0  0  0  0  0  0  0  0  0  0  0
   -4.4580   16.5030  -34.6480 C   0  0  0  0  0  0  0  0  0  0  0  0
   -5.6200   15.8700  -34.2220 C   0  0  0  0  0  0  0  0  0  0  0  0
   -6.3450   16.3870  -33.1480 C   0  0  0  0  0  0  0  0  0  0  0  0
   -5.9190   17.5590  -32.4920 C   0  0  0  0  0  0  0  0  0  0  0  0
   -6.6760   18.0260  -31.2680 C   0  0  0  0  0  0  0  0  0  0  0  0
   -7.6480   19.1220  -31.6230 C   0  0  0  0  0  0  0  0  0  0  0  0
   -7.4140   20.4450  -31.2050 C   0  0  0  0  0  0  0  0  0  0  0  0
   -8.3350   21.4510  -31.5070 C   0  0  0  0  0  0  0  0  0  0  0  0
   -9.4850   21.1510  -32.2430 C   0  0  0  0  0  0  0  0  0  0  0  0
   -9.7170   19.8430  -32.6780 C   0  0  0  0  0  0  0  0  0  0  0  0
   -8.8020   18.8300  -32.3730 C   0  0  0  0  0  0  0  0  0  0  0  0
   -4.3210   21.8970  -31.8600 C   0  0  0  0  0  0  0  0  0  0  0  0
   -3.0240   21.9730  -31.3110 C   0  0  0  0  0  0  0  0  0  0  0  0
   -2.6190   23.1010  -30.5920 C   0  0  0  0  0  0  0  0  0  0  0  0
   -3.5000   24.1720  -30.4180 C   0  0  0  0  0  0  0  0  0  0  0  0
   -3.0970   25.2940  -29.7040 O   0  0  0  0  0  0  0  0  0  0  0  0
   -4.7840   24.1120  -30.9620 C   0  0  0  0  0  0  0  0  0  0  0  0
   -5.1950   22.9860  -31.6800 C   0  0  0  0  0  0  0  0  0  0  0  0
   -3.3340   19.3070  -31.7880 H   0  0  0  0  0  0  0  0  0  0  0  0
   -3.0814   18.1441  -34.3315 H   0  0  0  0  0  0  0  0  0  0  0  0
   -3.8886   16.0931  -35.4952 H   0  0  0  0  0  0  0  0  0  0  0  0
   -5.9684   14.9601  -34.7325 H   0  0  0  0  0  0  0  0  0  0  0  0
   -7.2579   15.8748  -32.8101 H   0  0  0  0  0  0  0  0  0  0  0  0
   -7.2304   17.1770  -30.8417 H   0  0  0  0  0  0  0  0  0  0  0  0
   -5.9542   18.4193  -30.5370 H   0  0  0  0  0  0  0  0  0  0  0  0
   -6.5029   20.6879  -30.6386 H   0  0  0  0  0  0  0  0  0  0  0  0
   -8.1550   22.4809  -31.1651 H   0  0  0  0  0  0  0  0  0  0  0  0
  -10.2082   21.9452  -32.4801 H   0  0  0  0  0  0  0  0  0  0  0  0
  -10.6203   19.6101  -33.2609 H   0  0  0  0  0  0  0  0  0  0  0  0
   -8.9851   17.8025  -32.7204 H   0  0  0  0  0  0  0  0  0  0  0  0
   -2.3241   21.1359  -31.4502 H   0  0  0  0  0  0  0  0  0  0  0  0
   -1.6070   23.1459  -30.1631 H   0  0  0  0  0  0  0  0  0  0  0  0
   -5.4762   24.9558  -30.8247 H   0  0  0  0  0  0  0  0  0  0  0  0
   -6.2080   22.9502  -32.1074 H   0  0  0  0  0  0  0  0  0  0  0  0
  1  2  2  0
  2  3  1  0
  3  4  1  0
  4  5  2  0
  5  6  1  0
  6  7  2  0
  7  8  1  0
  8  9  2  0
  9 10  1  0
 10 11  1  0
 11 12  2  0
 12 13  1  0
 13 14  2  0
 14 15  1  0
 15 16  2  0
  2 17  1  0
 17 18  2  0
 18 19  1  0
 19 20  2  0
 20 21  1  0
 20 22  1  0
 22 23  2  0
  9  4  1  0
 16 11  1  0
 23 17  1  0
  3 24  1  0
  5 25  1  0
  6 26  1  0
  7 27  1  0
  8 28  1  0
 10 29  1  0
 10 30  1  0
 12 31  1  0
 13 32  1  0
 14 33  1  0
 15 34  1  0
 16 35  1  0
 18 36  1  0
 19 37  1  0
 22 38  1  0
 23 39  1  0
M  CHG  1  21  -1
M  END
>  <UniqueID>  (18) 
18

>  <SMILES>  (18) 
O=C(Nc1ccccc1Cc1ccccc1)c1ccc([O-])cc1

>  <Energy>  (18) 
48.697076913909854

>  <Genealogy>  (18) 
O=C(Nc1ccccc1Cc1ccccc1)c1ccc([O-])cc1 (protonated)
O=C(Nc1ccccc1Cc1ccccc1)c1ccc([O-])cc1 (3D coordinates assigned)
O=C(Nc1ccccc1Cc1ccccc1)c1ccc([O-])cc1 (optimized conformer: 48.697076913909854 kcal/mol)

>  <smiles>  (18) 
O=C(Nc1ccccc1Cc1ccccc1)c1ccc(O)cc1

>  <score_type>  (18) 
oracle

>  <origin>  (18) 
adgpu

>  <m_score__min__energy>  (18) 
-10.869999999999999

>  <m_primary>  (18) 
energy

$$$$
18:0
     RDKit          3D

 63 67  0  0  0  0  0  0  0  0999 V2000
    0.4110   21.6310  -33.2830 O   0  0  0  0  0  0  0  0  0  0  0  0
   -0.3230   20.9480  -32.5220 C   0  0  0  0  0  0  0  0  0  0  0  0
   -0.5540   21.3930  -31.1300 C   0  0  0  0  0  0  0  0  0  0  0  0
   -0.0350   20.6540  -30.0520 C   0  0  0  0  0  0  0  0  0  0  0  0
   -0.2320   21.0880  -28.7390 C   0  0  0  0  0  0  0  0  0  0  0  0
   -0.9510   22.2580  -28.4860 C   0  0  0  0  0  0  0  0  0  0  0  0
   -1.4910   22.9940  -29.5490 C   0  0  0  0  0  0  0  0  0  0  0  0
   -2.3280   24.5120  -29.2430 S   0  0  0  0  0  0  0  0  0  0  0  0
   -1.3440   25.6480  -29.1830 O   0  0  0  0  0  0  0  0  0  0  0  0
   -3.0200   24.4190  -27.9140 O   0  0  0  0  0  0  0  0  0  0  0  0
   -3.5070   24.8510  -30.4690 N   0  0  0  0  0  0  0  0  0  0  0  0
   -4.6880   24.0680  -30.6740 C   0  0  0  0  0  0  0  0  0  0  0  0
   -4.7030   23.0060  -31.5900 C   0  0  0  0  0  0  0  0  0  0  0  0
   -5.8600   22.2380  -31.7820 C   0  0  0  0  0  0  0  0  0  0  0  0
   -7.0090   22.5040  -31.0000 C   0  0  0  0  0  0  0  0  0  0  0  0
   -6.9830   23.5580  -30.0730 C   0  0  0  0  0  0  0  0  0  0  0  0
   -5.8270   24.3300  -29.9010 C   0  0  0  0  0  0  0  0  0  0  0  0
   -5.8070   25.3660  -28.9700 O   0  0  0  0  0  0  0  0  0  0  0  0
   -8.2950   21.7400  -31.2040 C   0  0  0  0  0  0  0  0  0  0  0  0
   -8.0690   20.3840  -31.8830 C   0  0  0  0  0  0  0  0  0  0  0  0
   -7.1950   20.5530  -33.1260 C   0  0  0  0  0  0  0  0  0  0  0  0
   -5.8050   21.0690  -32.7370 C   0  0  0  0  0  0  0  0  0  0  0  0
   -1.2970   22.5580  -30.8670 C   0  0  0  0  0  0  0  0  0  0  0  0
   -0.9200   19.7400  -33.0180 N   0  0  0  0  0  0  0  0  0  0  0  0
   -0.6680   18.4630  -32.3380 C   0  0  0  0  0  0  0  0  0  0  0  0
   -1.9450   17.6160  -32.3180 C   0  0  0  0  0  0  0  0  0  0  0  0
   -2.6070   17.6030  -33.6320 N   0  0  0  0  0  0  0  0  0  0  0  0
   -3.7430   16.7430  -33.8360 C   0  0  0  0  0  0  0  0  0  0  0  0
   -3.6240   15.3620  -33.6060 C   0  0  0  0  0  0  0  0  0  0  0  0
   -4.7200   14.5140  -33.7990 C   0  0  0  0  0  0  0  0  0  0  0  0
   -5.9420   15.0390  -34.2270 C   0  0  0  0  0  0  0  0  0  0  0  0
   -6.0700   16.4090  -34.4680 C   0  0  0  0  0  0  0  0  0  0  0  0
   -4.9770   17.2620  -34.2780 C   0  0  0  0  0  0  0  0  0  0  0  0
   -5.1200   18.6200  -34.5470 O   0  0  0  0  0  0  0  0  0  0  0  0
   -2.0490   18.3700  -34.7540 C   0  0  0  0  0  0  0  0  0  0  0  0
   -1.6500   19.7760  -34.2920 C   0  0  0  0  0  0  0  0  0  0  0  0
    0.5291   19.7293  -30.2438 H   0  0  0  0  0  0  0  0  0  0  0  0
    0.1806   20.5062  -27.9016 H   0  0  0  0  0  0  0  0  0  0  0  0
   -1.0936   22.6022  -27.4510 H   0  0  0  0  0  0  0  0  0  0  0  0
   -3.7950   22.7726  -32.1653 H   0  0  0  0  0  0  0  0  0  0  0  0
   -7.8796   23.7798  -29.4756 H   0  0  0  0  0  0  0  0  0  0  0  0
   -4.9560   25.6310  -28.4880 H   0  0  0  0  0  0  0  0  0  0  0  0
   -8.7641   21.5701  -30.2236 H   0  0  0  0  0  0  0  0  0  0  0  0
   -8.9406   22.3405  -31.8617 H   0  0  0  0  0  0  0  0  0  0  0  0
   -7.5694   19.7036  -31.1777 H   0  0  0  0  0  0  0  0  0  0  0  0
   -9.0417   19.9672  -32.1831 H   0  0  0  0  0  0  0  0  0  0  0  0
   -7.0924   19.5814  -33.6315 H   0  0  0  0  0  0  0  0  0  0  0  0
   -7.6701   21.2817  -33.7993 H   0  0  0  0  0  0  0  0  0  0  0  0
   -5.2476   20.2503  -32.2584 H   0  0  0  0  0  0  0  0  0  0  0  0
   -5.3115   21.4161  -33.6568 H   0  0  0  0  0  0  0  0  0  0  0  0
   -1.7287   23.1307  -31.7011 H   0  0  0  0  0  0  0  0  0  0  0  0
    0.1229   17.9162  -32.8723 H   0  0  0  0  0  0  0  0  0  0  0  0
   -0.3519   18.6623  -31.3034 H   0  0  0  0  0  0  0  0  0  0  0  0
   -1.6847   16.5842  -32.0392 H   0  0  0  0  0  0  0  0  0  0  0  0
   -2.6390   18.0571  -31.5875 H   0  0  0  0  0  0  0  0  0  0  0  0
   -2.6626   14.9447  -33.2719 H   0  0  0  0  0  0  0  0  0  0  0  0
   -4.6196   13.4344  -33.6138 H   0  0  0  0  0  0  0  0  0  0  0  0
   -6.8046   14.3725  -34.3744 H   0  0  0  0  0  0  0  0  0  0  0  0
   -7.0326   16.8185  -34.8081 H   0  0  0  0  0  0  0  0  0  0  0  0
   -1.1609   17.8502  -35.1426 H   0  0  0  0  0  0  0  0  0  0  0  0
   -2.8111   18.4557  -35.5426 H   0  0  0  0  0  0  0  0  0  0  0  0
   -1.0080   20.2347  -35.0584 H   0  0  0  0  0  0  0  0  0  0  0  0
   -2.5684   20.3635  -34.1456 H   0  0  0  0  0  0  0  0  0  0  0  0
  1  2  2  0
  2  3  1  0
  3  4  2  0
  4  5  1  0
  5  6  2  0
  6  7  1  0
  7  8  1  0
  8  9  2  0
  8 10  2  0
  8 11  1  0
 11 12  1  0
 12 13  2  0
 13 14  1  0
 14 15  2  0
 15 16  1  0
 16 17  2  0
 17 18  1  0
 15 19  1  0
 19 20  1  0
 20 21  1  0
 21 22  1  0
  7 23  2  0
  2 24  1  0
 24 25  1  0
 25 26  1  0
 26 27  1  0
 27 28  1  0
 28 29  2  0
 29 30  1  0
 30 31  2  0
 31 32  1  0
 32 33  2  0
 33 34  1  0
 27 35  1  0
 35 36  1  0
 23  3  1  0
 36 24  1  0
 17 12  1  0
 33 28  1  0
 22 14  1  0
  4 37  1  0
  5 38  1  0
  6 39  1  0
 13 40  1  0
 16 41  1  0
 18 42  1  0
 19 43  1  0
 19 44  1  0
 20 45  1  0
 20 46  1  0
 21 47  1  0
 21 48  1  0
 22 49  1  0
 22 50  1  0
 23 51  1  0
 25 52  1  0
 25 53  1  0
 26 54  1  0
 26 55  1  0
 29 56  1  0
 30 57  1  0
 31 58  1  0
 32 59  1  0
 35 60  1  0
 35 61  1  0
 36 62  1  0
 36 63  1  0
M  CHG  2  11  -1  34  -1
M  END
>  <UniqueID>  (19) 
19

>  <SMILES>  (19) 
O=C(c1cccc(S(=O)(=O)[N-]c2cc3c(cc2O)CCCC3)c1)N1CCN(c2ccccc2[O-])CC1

>  <Energy>  (19) 
83.99355774581849

>  <Genealogy>  (19) 
O=C(c1cccc(S(=O)(=O)[N-]c2cc3c(cc2O)CCCC3)c1)N1CCN(c2ccccc2[O-])CC1 (protonated)
O=C(c1cccc(S(=O)(=O)[N-]c2cc3c(cc2O)CCCC3)c1)N1CCN(c2ccccc2[O-])CC1 (3D coordinates assigned)
O=C(c1cccc(S(=O)(=O)[N-]c2cc3c(cc2O)CCCC3)c1)N1CCN(c2ccccc2[O-])CC1 (nonaromatic ring conformer: 83.99355774581849 kcal/mol)

>  <smiles>  (19) 
O=C(c1cccc(S(=O)(=O)Nc2cc3c(cc2O)CCCC3)c1)N1CCN(c2ccccc2O)CC1

>  <score_type>  (19) 
oracle

>  <origin>  (19) 
adgpu

>  <m_score__min__energy>  (19) 
-12.94

>  <m_primary>  (19) 
energy

$$$$
19:0
     RDKit          3D

 46 48  0  0  0  0  0  0  0  0999 V2000
    3.1530   19.4190  -33.0970 C   0  0  0  0  0  0  0  0  0  0  0  0
    1.7300   19.5000  -33.0910 O   0  0  0  0  0  0  0  0  0  0  0  0
    0.9410   19.5820  -31.9320 C   0  0  0  0  0  0  0  0  0  0  0  0
    1.4380   19.2100  -30.6670 C   0  0  0  0  0  0  0  0  0  0  0  0
    0.6220   19.2840  -29.5360 C   0  0  0  0  0  0  0  0  0  0  0  0
   -0.6990   19.7450  -29.6460 C   0  0  0  0  0  0  0  0  0  0  0  0
   -1.5750   19.7990  -28.5090 N   0  0  0  0  0  0  0  0  0  0  0  0
   -2.0020   20.9870  -27.8300 C   0  0  0  0  0  0  0  0  0  0  0  0
   -1.9640   21.0080  -26.5700 O   0  0  0  0  0  0  0  0  0  0  0  0
   -2.5430   22.1590  -28.5610 C   0  0  0  0  0  0  0  0  0  0  0  0
   -3.7650   22.0580  -29.2480 C   0  0  0  0  0  0  0  0  0  0  0  0
   -4.2710   23.1520  -29.9550 C   0  0  0  0  0  0  0  0  0  0  0  0
   -3.5630   24.3580  -29.9960 C   0  0  0  0  0  0  0  0  0  0  0  0
   -4.0900   25.4320  -30.7120 O   0  0  0  0  0  0  0  0  0  0  0  0
   -2.3360   24.4650  -29.3210 C   0  0  0  0  0  0  0  0  0  0  0  0
   -1.6140   25.6530  -29.3550 O   0  0  0  0  0  0  0  0  0  0  0  0
   -1.8290   23.3700  -28.6110 C   0  0  0  0  0  0  0  0  0  0  0  0
   -1.1980   20.1050  -30.9000 C   0  0  0  0  0  0  0  0  0  0  0  0
   -0.3830   20.0430  -32.0410 C   0  0  0  0  0  0  0  0  0  0  0  0
   -1.0400   20.5020  -33.6140 S   0  0  0  0  0  0  0  0  0  0  0  0
   -0.5400   19.5340  -34.6520 O   0  0  0  0  0  0  0  0  0  0  0  0
   -0.5710   21.8820  -33.9870 O   0  0  0  0  0  0  0  0  0  0  0  0
   -2.7830   20.4570  -33.5580 N   0  0  0  0  0  0  0  0  0  0  0  0
   -3.2350   19.1720  -32.9950 C   0  0  0  0  0  0  0  0  0  0  0  0
   -4.7410   19.2130  -32.6620 C   0  0  0  0  0  0  0  0  0  0  0  0
   -5.3590   20.3460  -33.2420 O   0  0  0  0  0  0  0  0  0  0  0  0
   -4.8270   21.5260  -32.6670 C   0  0  0  0  0  0  0  0  0  0  0  0
   -3.2860   21.5760  -32.7470 C   0  0  0  0  0  0  0  0  0  0  0  0
    3.5234   19.3979  -32.0615 H   0  0  0  0  0  0  0  0  0  0  0  0
    3.4659   18.5016  -33.6171 H   0  0  0  0  0  0  0  0  0  0  0  0
    3.5679   20.2950  -33.6171 H   0  0  0  0  0  0  0  0  0  0  0  0
    2.4759   18.8589  -30.5696 H   0  0  0  0  0  0  0  0  0  0  0  0
    1.0162   18.9798  -28.5552 H   0  0  0  0  0  0  0  0  0  0  0  0
   -4.3264   21.1122  -29.2290 H   0  0  0  0  0  0  0  0  0  0  0  0
   -5.2322   23.0644  -30.4827 H   0  0  0  0  0  0  0  0  0  0  0  0
   -3.7610   25.6740  -31.6400 H   0  0  0  0  0  0  0  0  0  0  0  0
   -0.8651   23.4573  -28.0883 H   0  0  0  0  0  0  0  0  0  0  0  0
   -2.2412   20.4408  -30.9943 H   0  0  0  0  0  0  0  0  0  0  0  0
   -3.0504   18.3732  -33.7284 H   0  0  0  0  0  0  0  0  0  0  0  0
   -2.6762   18.9801  -32.0672 H   0  0  0  0  0  0  0  0  0  0  0  0
   -5.2203   18.3030  -33.0520 H   0  0  0  0  0  0  0  0  0  0  0  0
   -4.8564   19.2722  -31.5697 H   0  0  0  0  0  0  0  0  0  0  0  0
   -5.2370   22.3955  -33.2017 H   0  0  0  0  0  0  0  0  0  0  0  0
   -5.1084   21.5376  -31.6037 H   0  0  0  0  0  0  0  0  0  0  0  0
   -2.9767   22.5261  -33.2071 H   0  0  0  0  0  0  0  0  0  0  0  0
   -2.8711   21.4981  -31.7312 H   0  0  0  0  0  0  0  0  0  0  0  0
  1  2  1  0
  2  3  1  0
  3  4  2  0
  4  5  1  0
  5  6  2  0
  6  7  1  0
  7  8  1  0
  8  9  2  0
  8 10  1  0
 10 11  2  0
 11 12  1  0
 12 13  2  0
 13 14  1  0
 13 15  1  0
 15 16  1  0
 15 17  2  0
  6 18  1  0
 18 19  2  0
 19 20  1  0
 20 21  2  0
 20 22  2  0
 20 23  1  0
 23 24  1  0
 24 25  1  0
 25 26  1  0
 26 27  1  0
 27 28  1  0
 19  3  1  0
 28 23  1  0
 17 10  1  0
  1 29  1  0
  1 30  1  0
  1 31  1  0
  4 32  1  0
  5 33  1  0
 11 34  1  0
 12 35  1  0
 14 36  1  0
 17 37  1  0
 18 38  1  0
 24 39  1  0
 24 40  1  0
 25 41  1  0
 25 42  1  0
 27 43  1  0
 27 44  1  0
 28 45  1  0
 28 46  1  0
M  CHG  2   7  -1  16  -1
M  END
>  <UniqueID>  (20) 
20

>  <SMILES>  (20) 
COc1ccc([N-]C(=O)c2ccc(O)c([O-])c2)cc1S(=O)(=O)N1CCOCC1

>  <Energy>  (20) 
61.41788494314283

>  <Genealogy>  (20) 
COc1ccc([N-]C(=O)c2ccc(O)c([O-])c2)cc1S(=O)(=O)N1CCOCC1 (protonated)
COc1ccc([N-]C(=O)c2ccc(O)c([O-])c2)cc1S(=O)(=O)N1CCOCC1 (3D coordinates assigned)
COc1ccc([N-]C(=O)c2ccc(O)c([O-])c2)cc1S(=O)(=O)N1CCOCC1 (nonaromatic ring conformer: 61.41788494314283 kcal/mol)

>  <smiles>  (20) 
COc1ccc(NC(=O)c2ccc(O)c(O)c2)cc1S(=O)(=O)N1CCOCC1

>  <score_type>  (20) 
oracle

>  <origin>  (20) 
adgpu

>  <m_score__min__energy>  (20) 
-10.609999999999999

>  <m_primary>  (20) 
energy

$$$$
20:0
     RDKit          3D

 38 41  0  0  0  0  0  0  0  0999 V2000
   -9.1160   18.9210  -32.1370 C   0  0  0  0  0  0  0  0  0  0  0  0
   -8.8220   20.3840  -32.0270 C   0  0  0  0  0  0  0  0  0  0  0  0
   -9.7470   21.2940  -31.6570 N   0  0  0  0  0  0  0  0  0  0  0  0
   -9.1410   22.4720  -31.6190 N   0  0  0  0  0  0  0  0  0  0  0  0
   -7.8620   22.2610  -31.9790 C   0  0  0  0  0  0  0  0  0  0  0  0
   -7.6220   20.9680  -32.2440 N   0  0  0  0  0  0  0  0  0  0  0  0
   -6.3690   20.4080  -32.6760 C   0  0  0  0  0  0  0  0  0  0  0  0
   -6.3560   19.4480  -33.7050 C   0  0  0  0  0  0  0  0  0  0  0  0
   -5.1540   18.9130  -34.1680 C   0  0  0  0  0  0  0  0  0  0  0  0
   -3.9440   19.3390  -33.6240 C   0  0  0  0  0  0  0  0  0  0  0  0
   -2.4340   18.6670  -34.2120 Cl  0  0  0  0  0  0  0  0  0  0  0  0
   -3.9340   20.3070  -32.6180 C   0  0  0  0  0  0  0  0  0  0  0  0
   -5.1340   20.8640  -32.1370 C   0  0  0  0  0  0  0  0  0  0  0  0
   -5.0410   21.8650  -31.0280 C   0  0  0  0  0  0  0  0  0  0  0  0
   -4.0740   21.6220  -29.9880 N   0  0  0  0  0  0  0  0  0  0  0  0
   -3.4960   22.6490  -29.1680 C   0  0  0  0  0  0  0  0  0  0  0  0
   -4.2780   23.2380  -28.1640 C   0  0  0  0  0  0  0  0  0  0  0  0
   -3.7460   24.2390  -27.3490 C   0  0  0  0  0  0  0  0  0  0  0  0
   -2.4230   24.6500  -27.5180 C   0  0  0  0  0  0  0  0  0  0  0  0
   -1.6240   24.0520  -28.4960 C   0  0  0  0  0  0  0  0  0  0  0  0
   -2.1490   23.0470  -29.3190 C   0  0  0  0  0  0  0  0  0  0  0  0
   -1.0730   22.2620  -30.4690 Cl  0  0  0  0  0  0  0  0  0  0  0  0
   -5.7940   22.9390  -30.9760 N   0  0  0  0  0  0  0  0  0  0  0  0
   -6.7950   23.2980  -31.9770 C   0  0  0  0  0  0  0  0  0  0  0  0
   -9.2031   18.4877  -31.1297 H   0  0  0  0  0  0  0  0  0  0  0  0
  -10.0611   18.7768  -32.6811 H   0  0  0  0  0  0  0  0  0  0  0  0
   -8.3000   18.4229  -32.6811 H   0  0  0  0  0  0  0  0  0  0  0  0
   -7.3056   19.1155  -34.1497 H   0  0  0  0  0  0  0  0  0  0  0  0
   -5.1613   18.1536  -34.9638 H   0  0  0  0  0  0  0  0  0  0  0  0
   -2.9744   20.6393  -32.1951 H   0  0  0  0  0  0  0  0  0  0  0  0
   -3.8510   20.6270  -29.7510 H   0  0  0  0  0  0  0  0  0  0  0  0
   -5.3174   22.9092  -28.0176 H   0  0  0  0  0  0  0  0  0  0  0  0
   -4.3706   24.7045  -26.5724 H   0  0  0  0  0  0  0  0  0  0  0  0
   -2.0089   25.4453  -26.8808 H   0  0  0  0  0  0  0  0  0  0  0  0
   -0.5788   24.3715  -28.6202 H   0  0  0  0  0  0  0  0  0  0  0  0
   -5.7030   23.5910  -30.1650 H   0  0  0  0  0  0  0  0  0  0  0  0
   -7.2311   24.2771  -31.7296 H   0  0  0  0  0  0  0  0  0  0  0  0
   -6.3269   23.3556  -32.9708 H   0  0  0  0  0  0  0  0  0  0  0  0
  1  2  1  0
  2  3  2  0
  3  4  1  0
  4  5  2  0
  5  6  1  0
  6  7  1  0
  7  8  2  0
  8  9  1  0
  9 10  2  0
 10 11  1  0
 10 12  1  0
 12 13  2  0
 13 14  1  0
 14 15  1  0
 15 16  1  0
 16 17  2  0
 17 18  1  0
 18 19  2  0
 19 20  1  0
 20 21  2  0
 21 22  1  0
 14 23  2  0
 23 24  1  0
  6  2  1  0
 13  7  1  0
 21 16  1  0
 24  5  1  0
  1 25  1  0
  1 26  1  0
  1 27  1  0
  8 28  1  0
  9 29  1  0
 12 30  1  0
 15 31  1  0
 17 32  1  0
 18 33  1  0
 19 34  1  0
 20 35  1  0
 23 36  1  0
 24 37  1  0
 24 38  1  0
M  CHG  1  23   1
M  END
>  <UniqueID>  (21) 
21

>  <SMILES>  (21) 
Cc1nnc2n1-c1ccc(Cl)cc1C(Nc1ccccc1Cl)=[NH+]C2

>  <Energy>  (21) 
96.32154164849102

>  <Genealogy>  (21) 
Cc1nnc2n1-c1ccc(Cl)cc1C(Nc1ccccc1Cl)=[NH+]C2 (protonated)
Cc1nnc2n1-c1ccc(Cl)cc1C(Nc1ccccc1Cl)=[NH+]C2 (3D coordinates assigned)
Cc1nnc2n1-c1ccc(Cl)cc1C(Nc1ccccc1Cl)=[NH+]C2 (nonaromatic ring conformer: 96.32154164849102 kcal/mol)

>  <smiles>  (21) 
Cc1nnc2n1-c1ccc(Cl)cc1C(Nc1ccccc1Cl)=NC2

>  <score_type>  (21) 
oracle

>  <origin>  (21) 
adgpu

>  <m_score__min__energy>  (21) 
-7.7400000000000002

>  <m_primary>  (21) 
energy

$$$$
21:0
     RDKit          3D

 58 61  0  0  0  0  0  0  0  0999 V2000
   -2.3400   21.3100  -31.4460 O   0  0  0  0  0  0  0  0  0  0  0  0
   -2.9010   22.3780  -31.0800 C   0  0  0  0  0  0  0  0  0  0  0  0
   -3.9930   22.9200  -31.8360 N   0  0  0  0  0  0  0  0  0  0  0  0
   -5.3490   22.4510  -31.8410 C   0  0  0  0  0  0  0  0  0  0  0  0
   -6.4440   23.3340  -31.8670 C   0  0  0  0  0  0  0  0  0  0  0  0
   -7.7480   22.8330  -31.9000 C   0  0  0  0  0  0  0  0  0  0  0  0
   -7.9720   21.4550  -31.9250 C   0  0  0  0  0  0  0  0  0  0  0  0
   -6.8880   20.5670  -31.9380 C   0  0  0  0  0  0  0  0  0  0  0  0
   -7.1670   18.8260  -31.9670 S   0  0  0  0  0  0  0  0  0  0  0  0
   -6.2830   18.1760  -30.9400 O   0  0  0  0  0  0  0  0  0  0  0  0
   -8.5940   18.5580  -31.5730 O   0  0  0  0  0  0  0  0  0  0  0  0
   -6.8620   18.1010  -33.5310 N   0  0  0  0  0  0  0  0  0  0  0  0
   -6.5110   16.6700  -33.4590 C   0  0  0  0  0  0  0  0  0  0  0  0
   -4.9970   16.4350  -33.3610 C   0  0  0  0  0  0  0  0  0  0  0  0
   -4.3170   17.1160  -34.3910 O   0  0  0  0  0  0  0  0  0  0  0  0
   -4.4860   18.5040  -34.2140 C   0  0  0  0  0  0  0  0  0  0  0  0
   -5.9600   18.8980  -34.3840 C   0  0  0  0  0  0  0  0  0  0  0  0
   -5.5800   21.0700  -31.8880 C   0  0  0  0  0  0  0  0  0  0  0  0
   -2.4380   23.0600  -29.8560 C   0  0  0  0  0  0  0  0  0  0  0  0
   -1.6460   22.3370  -28.9460 C   0  0  0  0  0  0  0  0  0  0  0  0
   -1.2480   22.9090  -27.7300 C   0  0  0  0  0  0  0  0  0  0  0  0
   -0.2540   21.9990  -26.5960 S   0  0  0  0  0  0  0  0  0  0  0  0
   -0.2980   22.6510  -25.2400 O   0  0  0  0  0  0  0  0  0  0  0  0
    1.1680   22.0070  -27.0820 O   0  0  0  0  0  0  0  0  0  0  0  0
   -0.8300   20.3530  -26.4930 N   0  0  0  0  0  0  0  0  0  0  0  0
   -0.1520   19.5180  -27.5010 C   0  0  0  0  0  0  0  0  0  0  0  0
   -0.8350   18.1410  -27.6210 C   0  0  0  0  0  0  0  0  0  0  0  0
   -1.7400   17.9260  -26.5550 O   0  0  0  0  0  0  0  0  0  0  0  0
   -2.7980   18.8660  -26.6330 C   0  0  0  0  0  0  0  0  0  0  0  0
   -2.2840   20.3200  -26.6990 C   0  0  0  0  0  0  0  0  0  0  0  0
   -1.6280   24.2200  -27.4250 C   0  0  0  0  0  0  0  0  0  0  0  0
   -2.3960   24.9560  -28.3300 C   0  0  0  0  0  0  0  0  0  0  0  0
   -2.7890   24.3980  -29.5510 C   0  0  0  0  0  0  0  0  0  0  0  0
   -3.4910   25.2110  -30.4450 O   0  0  0  0  0  0  0  0  0  0  0  0
   -6.2733   24.4207  -31.8613 H   0  0  0  0  0  0  0  0  0  0  0  0
   -8.6015   23.5269  -31.9063 H   0  0  0  0  0  0  0  0  0  0  0  0
   -9.0008   21.0659  -31.9345 H   0  0  0  0  0  0  0  0  0  0  0  0
   -6.9929   16.2338  -32.5716 H   0  0  0  0  0  0  0  0  0  0  0  0
   -6.8613   16.1951  -34.3873 H   0  0  0  0  0  0  0  0  0  0  0  0
   -4.6375   16.8011  -32.3880 H   0  0  0  0  0  0  0  0  0  0  0  0
   -4.8003   15.3574  -33.4611 H   0  0  0  0  0  0  0  0  0  0  0  0
   -4.1522   18.7823  -33.2035 H   0  0  0  0  0  0  0  0  0  0  0  0
   -3.8894   19.0321  -34.9724 H   0  0  0  0  0  0  0  0  0  0  0  0
   -6.0734   19.9601  -34.1210 H   0  0  0  0  0  0  0  0  0  0  0  0
   -6.2372   18.7077  -35.4314 H   0  0  0  0  0  0  0  0  0  0  0  0
   -4.7280   20.3743  -31.8857 H   0  0  0  0  0  0  0  0  0  0  0  0
   -1.3354   21.3107  -29.1915 H   0  0  0  0  0  0  0  0  0  0  0  0
   -0.1914   20.0262  -28.4758 H   0  0  0  0  0  0  0  0  0  0  0  0
    0.8921   19.3675  -27.1894 H   0  0  0  0  0  0  0  0  0  0  0  0
   -1.3839   18.0941  -28.5731 H   0  0  0  0  0  0  0  0  0  0  0  0
   -0.0593   17.3620  -27.5828 H   0  0  0  0  0  0  0  0  0  0  0  0
   -3.3901   18.6584  -27.5365 H   0  0  0  0  0  0  0  0  0  0  0  0
   -3.4069   18.7646  -25.7226 H   0  0  0  0  0  0  0  0  0  0  0  0
   -2.5211   20.7449  -27.6855 H   0  0  0  0  0  0  0  0  0  0  0  0
   -2.7722   20.9099  -25.9093 H   0  0  0  0  0  0  0  0  0  0  0  0
   -1.3213   24.6723  -26.4704 H   0  0  0  0  0  0  0  0  0  0  0  0
   -2.6948   25.9847  -28.0801 H   0  0  0  0  0  0  0  0  0  0  0  0
   -3.7100   24.9350  -31.3920 H   0  0  0  0  0  0  0  0  0  0  0  0
  1  2  2  0
  2  3  1  0
  3  4  1  0
  4  5  2  0
  5  6  1  0
  6  7  2  0
  7  8  1  0
  8  9  1  0
  9 10  2  0
  9 11  2  0
  9 12  1  0
 12 13  1  0
 13 14  1  0
 14 15  1  0
 15 16  1  0
 16 17  1  0
  8 18  2  0
  2 19  1  0
 19 20  2  0
 20 21  1  0
 21 22  1  0
 22 23  2  0
 22 24  2  0
 22 25  1  0
 25 26  1  0
 26 27  1  0
 27 28  1  0
 28 29  1  0
 29 30  1  0
 21 31  2  0
 31 32  1  0
 32 33  2  0
 33 34  1  0
 18  4  1  0
 33 19  1  0
 17 12  1  0
 30 25  1  0
  5 35  1  0
  6 36  1  0
  7 37  1  0
 13 38  1  0
 13 39  1  0
 14 40  1  0
 14 41  1  0
 16 42  1  0
 16 43  1  0
 17 44  1  0
 17 45  1  0
 18 46  1  0
 20 47  1  0
 26 48  1  0
 26 49  1  0
 27 50  1  0
 27 51  1  0
 29 52  1  0
 29 53  1  0
 30 54  1  0
 30 55  1  0
 31 56  1  0
 32 57  1  0
 34 58  1  0
M  CHG  1   3  -1
M  END
>  <UniqueID>  (22) 
22

>  <SMILES>  (22) 
O=C([N-]c1cccc(S(=O)(=O)N2CCOCC2)c1)c1cc(S(=O)(=O)N2CCOCC2)ccc1O

>  <Energy>  (22) 
82.25258573893824

>  <Genealogy>  (22) 
O=C([N-]c1cccc(S(=O)(=O)N2CCOCC2)c1)c1cc(S(=O)(=O)N2CCOCC2)ccc1O (protonated)
O=C([N-]c1cccc(S(=O)(=O)N2CCOCC2)c1)c1cc(S(=O)(=O)N2CCOCC2)ccc1O (3D coordinates assigned)
O=C([N-]c1cccc(S(=O)(=O)N2CCOCC2)c1)c1cc(S(=O)(=O)N2CCOCC2)ccc1O (nonaromatic ring conformer: 82.25258573893824 kcal/mol)

>  <smiles>  (22) 
O=C(Nc1cccc(S(=O)(=O)N2CCOCC2)c1)c1cc(S(=O)(=O)N2CCOCC2)ccc1O

>  <score_type>  (22) 
oracle

>  <origin>  (22) 
adgpu

>  <m_score__min__energy>  (22) 
-12.41

>  <m_primary>  (22) 
energy

$$$$
22:0
     RDKit          3D

 53 57  0  0  0  0  0  0  0  0999 V2000
    1.0282   23.8294  -24.6507 H   0  0  0  0  0  0  0  0  0  0  0  0
    0.1780   23.9810  -25.3320 C   0  0  0  0  0  0  0  0  0  0  0  0
   -0.0500   23.0820  -26.3750 C   0  0  0  0  0  0  0  0  0  0  0  0
    0.6299   22.2301  -26.5232 H   0  0  0  0  0  0  0  0  0  0  0  0
   -1.1400   23.2610  -27.2320 C   0  0  0  0  0  0  0  0  0  0  0  0
   -1.3089   22.5556  -28.0590 H   0  0  0  0  0  0  0  0  0  0  0  0
   -2.0210   24.3400  -27.0400 C   0  0  0  0  0  0  0  0  0  0  0  0
   -3.1540   24.5480  -27.9030 N   0  0  0  0  0  0  0  0  0  0  0  0
   -3.3530   25.5220  -28.2320 H   0  0  0  0  0  0  0  0  0  0  0  0
   -4.1120   23.5250  -28.2170 C   0  0  0  0  0  0  0  0  0  0  0  0
   -4.2630   22.5470  -27.4350 O   0  0  0  0  0  0  0  0  0  0  0  0
   -4.9820   23.6410  -29.4120 C   0  0  0  0  0  0  0  0  0  0  0  0
   -6.1300   22.8350  -29.5080 C   0  0  0  0  0  0  0  0  0  0  0  0
   -6.3661   22.1284  -28.6987 H   0  0  0  0  0  0  0  0  0  0  0  0
   -6.9800   22.9200  -30.6240 C   0  0  0  0  0  0  0  0  0  0  0  0
   -8.1670   22.1250  -30.7510 N   0  0  0  0  0  0  0  0  0  0  0  0
   -8.3470   20.6650  -31.6710 S   0  0  0  0  0  0  0  0  0  0  0  0
   -8.8090   19.5750  -30.7460 O   0  0  0  0  0  0  0  0  0  0  0  0
   -9.3910   20.8340  -32.7410 O   0  0  0  0  0  0  0  0  0  0  0  0
   -6.7970   20.2070  -32.3710 C   0  0  0  0  0  0  0  0  0  0  0  0
   -6.7340   19.6240  -33.6440 C   0  0  0  0  0  0  0  0  0  0  0  0
   -7.6621   19.4077  -34.1935 H   0  0  0  0  0  0  0  0  0  0  0  0
   -5.4970   19.3160  -34.2190 C   0  0  0  0  0  0  0  0  0  0  0  0
   -5.4564   18.8841  -35.2298 H   0  0  0  0  0  0  0  0  0  0  0  0
   -4.3100   19.5540  -33.5160 C   0  0  0  0  0  0  0  0  0  0  0  0
   -3.0570   19.2810  -34.1650 N   0  0  0  0  0  0  0  0  0  0  0  0
   -1.8890   19.2760  -33.5950 C   0  0  0  0  0  0  0  0  0  0  0  0
   -0.7450   19.0690  -34.2980 N   0  0  0  0  0  0  0  0  0  0  0  0
    0.1830   19.1260  -33.3270 C   0  0  0  0  0  0  0  0  0  0  0  0
    1.5620   18.9910  -33.4550 C   0  0  0  0  0  0  0  0  0  0  0  0
    2.0295   18.8187  -34.4357 H   0  0  0  0  0  0  0  0  0  0  0  0
    2.3370   19.0830  -32.2830 C   0  0  0  0  0  0  0  0  0  0  0  0
    3.4307   18.9817  -32.3420 H   0  0  0  0  0  0  0  0  0  0  0  0
    1.7180   19.3050  -31.0290 C   0  0  0  0  0  0  0  0  0  0  0  0
    2.3334   19.3716  -30.1197 H   0  0  0  0  0  0  0  0  0  0  0  0
    0.3200   19.4410  -30.9390 C   0  0  0  0  0  0  0  0  0  0  0  0
   -0.1757   19.6150  -29.9726 H   0  0  0  0  0  0  0  0  0  0  0  0
   -0.4110   19.3470  -32.1190 C   0  0  0  0  0  0  0  0  0  0  0  0
   -1.7010   19.4390  -32.2950 O   0  0  0  0  0  0  0  0  0  0  0  0
   -4.3730   20.1420  -32.2390 C   0  0  0  0  0  0  0  0  0  0  0  0
   -3.4459   20.3472  -31.6838 H   0  0  0  0  0  0  0  0  0  0  0  0
   -5.6090   20.4660  -31.6740 C   0  0  0  0  0  0  0  0  0  0  0  0
   -5.6500   20.9271  -30.6762 H   0  0  0  0  0  0  0  0  0  0  0  0
   -6.6580   23.8010  -31.6600 C   0  0  0  0  0  0  0  0  0  0  0  0
   -7.3104   23.8653  -32.5433 H   0  0  0  0  0  0  0  0  0  0  0  0
   -5.5160   24.6000  -31.5840 C   0  0  0  0  0  0  0  0  0  0  0  0
   -5.2764   25.2928  -32.4041 H   0  0  0  0  0  0  0  0  0  0  0  0
   -4.6760   24.5230  -30.4700 C   0  0  0  0  0  0  0  0  0  0  0  0
   -3.5260   25.3050  -30.4450 O   0  0  0  0  0  0  0  0  0  0  0  0
   -1.7660   25.2550  -26.0060 C   0  0  0  0  0  0  0  0  0  0  0  0
   -2.4300   26.1207  -25.8656 H   0  0  0  0  0  0  0  0  0  0  0  0
   -0.6730   25.0720  -25.1540 C   0  0  0  0  0  0  0  0  0  0  0  0
   -0.4836   25.7894  -24.3419 H   0  0  0  0  0  0  0  0  0  0  0  0
  1  2  1  0
  2  3  2  0
  3  4  1  0
  3  5  1  0
  5  6  1  0
  5  7  2  0
  7  8  1  0
  8  9  1  0
  8 10  1  0
 10 11  2  0
 10 12  1  0
 12 13  2  0
 13 14  1  0
 13 15  1  0
 15 16  1  0
 16 17  1  0
 17 18  2  0
 17 19  2  0
 17 20  1  0
 20 21  2  0
 21 22  1  0
 21 23  1  0
 23 24  1  0
 23 25  2  0
 25 26  1  0
 26 27  2  0
 27 28  1  0
 28 29  1  0
 29 30  2  0
 30 31  1  0
 30 32  1  0
 32 33  1  0
 32 34  2  0
 34 35  1  0
 34 36  1  0
 36 37  1  0
 36 38  2  0
 38 39  1  0
 25 40  1  0
 40 41  1  0
 40 42  2  0
 42 43  1  0
 15 44  2  0
 44 45  1  0
 44 46  1  0
 46 47  1  0
 46 48  2  0
 48 49  1  0
  7 50  1  0
 50 51  1  0
 50 52  2  0
 52 53  1  0
 52  2  1  0
 48 12  1  0
 42 20  1  0
 39 27  1  0
 38 29  1  0
M  CHG  3  16  -1  28  -1  49  -1
M  END
>  <UniqueID>  (23) 
23

>  <SMILES>  (23) 
O=C(Nc1ccccc1)c1cc([N-]S(=O)(=O)c2ccc(/N=c3/[n-]c4ccccc4o3)cc2)ccc1[O-]

>  <Energy>  (23) 
115.40486623376145

>  <Genealogy>  (23) 
O=C(Nc1ccccc1)c1cc([N-]S(=O)(=O)c2ccc(N=c3[n-]c4ccccc4o3)cc2)ccc1[O-] (protonated)
O=C(Nc1ccccc1)c1cc([N-]S(=O)(=O)c2ccc(/N=c3/[n-]c4ccccc4o3)cc2)ccc1[O-] (cis-trans isomerization)
O=C(Nc1ccccc1)c1cc([N-]S(=O)(=O)c2ccc(/N=c3/[n-]c4ccccc4o3)cc2)ccc1[O-] (3D coordinates assigned)
O=C(Nc1ccccc1)c1cc([N-]S(=O)(=O)c2ccc(/N=c3/[n-]c4ccccc4o3)cc2)ccc1[O-] (optimized conformer: 115.40486623376145 kcal/mol)

>  <smiles>  (23) 
O=C(Nc1ccccc1)c1cc(NS(=O)(=O)c2ccc(N=c3[nH]c4ccccc4o3)cc2)ccc1O

>  <score_type>  (23) 
oracle

>  <origin>  (23) 
adgpu

>  <m_score__min__energy>  (23) 
-14.300000000000001

>  <m_primary>  (23) 
energy

$$$$
23:0
     RDKit          3D

 40 43  0  0  0  0  0  0  0  0999 V2000
   -3.5060   25.2930  -30.4890 O   0  0  0  0  0  0  0  0  0  0  0  0
   -3.5990   23.9170  -30.3210 C   0  0  0  0  0  0  0  0  0  0  0  0
   -3.3290   23.3450  -29.0740 C   0  0  0  0  0  0  0  0  0  0  0  0
   -3.4190   21.9610  -28.9070 C   0  0  0  0  0  0  0  0  0  0  0  0
   -3.7760   21.1460  -29.9840 C   0  0  0  0  0  0  0  0  0  0  0  0
   -4.0470   21.7110  -31.2420 C   0  0  0  0  0  0  0  0  0  0  0  0
   -4.3840   20.8690  -32.3620 N   0  0  0  0  0  0  0  0  0  0  0  0
   -5.5710   20.7510  -33.0000 C   0  0  0  0  0  0  0  0  0  0  0  0
   -6.8420   21.3830  -32.5860 C   0  0  0  0  0  0  0  0  0  0  0  0
   -6.8240   22.7370  -32.2120 C   0  0  0  0  0  0  0  0  0  0  0  0
   -7.9820   23.3570  -31.7390 C   0  0  0  0  0  0  0  0  0  0  0  0
   -9.1710   22.6340  -31.6380 C   0  0  0  0  0  0  0  0  0  0  0  0
   -9.2110   21.2940  -32.0300 C   0  0  0  0  0  0  0  0  0  0  0  0
   -8.0640   20.6650  -32.5350 C   0  0  0  0  0  0  0  0  0  0  0  0
   -8.1660   19.3020  -32.9790 N   0  0  0  0  0  0  0  0  0  0  0  0
   -7.2410   18.2610  -32.6130 C   0  0  0  0  0  0  0  0  0  0  0  0
   -6.6390   17.4340  -33.5810 C   0  0  0  0  0  0  0  0  0  0  0  0
   -5.7360   16.4390  -33.1950 C   0  0  0  0  0  0  0  0  0  0  0  0
   -5.4390   16.2480  -31.8440 C   0  0  0  0  0  0  0  0  0  0  0  0
   -6.0510   17.0460  -30.8740 C   0  0  0  0  0  0  0  0  0  0  0  0
   -6.9550   18.0430  -31.2560 C   0  0  0  0  0  0  0  0  0  0  0  0
   -5.4680   19.9600  -34.0870 N   0  0  0  0  0  0  0  0  0  0  0  0
   -4.2090   19.5550  -34.1580 N   0  0  0  0  0  0  0  0  0  0  0  0
   -3.5640   20.1030  -33.1130 C   0  0  0  0  0  0  0  0  0  0  0  0
   -1.9480   19.9460  -32.8870 S   0  0  0  0  0  0  0  0  0  0  0  0
   -3.9600   23.1040  -31.4010 C   0  0  0  0  0  0  0  0  0  0  0  0
   -3.0459   23.9845  -28.2249 H   0  0  0  0  0  0  0  0  0  0  0  0
   -3.2083   21.5119  -27.9252 H   0  0  0  0  0  0  0  0  0  0  0  0
   -3.8453   20.0568  -29.8468 H   0  0  0  0  0  0  0  0  0  0  0  0
   -5.8904   23.3131  -32.2925 H   0  0  0  0  0  0  0  0  0  0  0  0
   -7.9570   24.4168  -31.4456 H   0  0  0  0  0  0  0  0  0  0  0  0
  -10.0780   23.1199  -31.2492 H   0  0  0  0  0  0  0  0  0  0  0  0
  -10.1498   20.7276  -31.9419 H   0  0  0  0  0  0  0  0  0  0  0  0
   -8.9050   19.0790  -33.6830 H   0  0  0  0  0  0  0  0  0  0  0  0
   -6.8803   17.5715  -34.6454 H   0  0  0  0  0  0  0  0  0  0  0  0
   -5.2586   15.8054  -33.9570 H   0  0  0  0  0  0  0  0  0  0  0  0
   -4.7230   15.4690  -31.5433 H   0  0  0  0  0  0  0  0  0  0  0  0
   -5.8219   16.8902  -29.8095 H   0  0  0  0  0  0  0  0  0  0  0  0
   -7.4448   18.6600  -30.4882 H   0  0  0  0  0  0  0  0  0  0  0  0
   -4.1767   23.5578  -32.3793 H   0  0  0  0  0  0  0  0  0  0  0  0
  1  2  1  0
  2  3  2  0
  3  4  1  0
  4  5  2  0
  5  6  1  0
  6  7  1  0
  7  8  1  0
  8  9  1  0
  9 10  2  0
 10 11  1  0
 11 12  2  0
 12 13  1  0
 13 14  2  0
 14 15  1  0
 15 16  1  0
 16 17  2  0
 17 18  1  0
 18 19  2  0
 19 20  1  0
 20 21  2  0
  8 22  2  0
 22 23  1  0
 23 24  1  0
 24 25  2  0
  6 26  2  0
 26  2  1  0
 24  7  1  0
 14  9  1  0
 21 16  1  0
  3 27  1  0
  4 28  1  0
  5 29  1  0
 10 30  1  0
 11 31  1  0
 12 32  1  0
 13 33  1  0
 15 34  1  0
 17 35  1  0
 18 36  1  0
 19 37  1  0
 20 38  1  0
 21 39  1  0
 26 40  1  0
M  CHG  2   1  -1  23  -1
M  END
>  <UniqueID>  (24) 
24

>  <SMILES>  (24) 
[O-]c1cccc(-n2c(-c3ccccc3Nc3ccccc3)n[n-]c2=S)c1

>  <Energy>  (24) 
95.53522201941037

>  <Genealogy>  (24) 
[O-]c1cccc(-n2c(-c3ccccc3Nc3ccccc3)n[n-]c2=S)c1 (protonated)
[O-]c1cccc(-n2c(-c3ccccc3Nc3ccccc3)n[n-]c2=S)c1 (3D coordinates assigned)
[O-]c1cccc(-n2c(-c3ccccc3Nc3ccccc3)n[n-]c2=S)c1 (optimized conformer: 95.53522201941037 kcal/mol)

>  <smiles>  (24) 
Oc1cccc(-n2c(-c3ccccc3Nc3ccccc3)n[nH]c2=S)c1

>  <score_type>  (24) 
oracle

>  <origin>  (24) 
adgpu

>  <m_score__min__energy>  (24) 
-12.31

>  <m_primary>  (24) 
energy

$$$$
24:0
     RDKit          3D

 60 63  0  0  0  0  0  0  0  0999 V2000
   -3.3350   22.0280  -28.7040 O   0  0  0  0  0  0  0  0  0  0  0  0
   -3.7520   23.2020  -28.9020 C   0  0  0  0  0  0  0  0  0  0  0  0
   -3.2770   24.2900  -28.0880 N   0  0  0  0  0  0  0  0  0  0  0  0
   -2.2780   24.1500  -27.0650 C   0  0  0  0  0  0  0  0  0  0  0  0
   -1.6570   22.9060  -26.8770 C   0  0  0  0  0  0  0  0  0  0  0  0
   -0.6820   22.7450  -25.8910 C   0  0  0  0  0  0  0  0  0  0  0  0
   -0.3100   23.8270  -25.0900 C   0  0  0  0  0  0  0  0  0  0  0  0
   -0.9030   25.0820  -25.2810 C   0  0  0  0  0  0  0  0  0  0  0  0
   -0.4440   26.4470  -24.2590 S   0  0  0  0  0  0  0  0  0  0  0  0
   -0.7280   26.1080  -22.8220 O   0  0  0  0  0  0  0  0  0  0  0  0
   -1.2760   27.6450  -24.6270 O   0  0  0  0  0  0  0  0  0  0  0  0
    1.2500   26.8400  -24.4420 N   0  0  0  0  0  0  0  0  0  0  0  0
    1.5370   28.2390  -24.0360 C   0  0  0  0  0  0  0  0  0  0  0  0
    2.2180   28.3380  -22.6630 C   0  0  0  0  0  0  0  0  0  0  0  0
    3.5430   27.5580  -22.6470 C   0  0  0  0  0  0  0  0  0  0  0  0
    3.5180   26.3180  -23.5590 C   0  0  0  0  0  0  0  0  0  0  0  0
    2.0850   25.8180  -23.7750 C   0  0  0  0  0  0  0  0  0  0  0  0
   -1.8710   25.2450  -26.2820 C   0  0  0  0  0  0  0  0  0  0  0  0
   -4.7470   23.4350  -29.9720 C   0  0  0  0  0  0  0  0  0  0  0  0
   -5.6470   22.4100  -30.3070 C   0  0  0  0  0  0  0  0  0  0  0  0
   -6.6010   22.5960  -31.3170 C   0  0  0  0  0  0  0  0  0  0  0  0
   -7.7250   21.2990  -31.7280 S   0  0  0  0  0  0  0  0  0  0  0  0
   -8.1200   20.5740  -30.4710 O   0  0  0  0  0  0  0  0  0  0  0  0
   -8.9680   21.8910  -32.3320 O   0  0  0  0  0  0  0  0  0  0  0  0
   -7.0230   20.1620  -32.8520 N   0  0  0  0  0  0  0  0  0  0  0  0
   -5.5750   20.3940  -32.9850 C   0  0  0  0  0  0  0  0  0  0  0  0
   -4.9120   19.2580  -33.7920 C   0  0  0  0  0  0  0  0  0  0  0  0
   -5.8840   18.4430  -34.4180 O   0  0  0  0  0  0  0  0  0  0  0  0
   -6.6710   17.7910  -33.4350 C   0  0  0  0  0  0  0  0  0  0  0  0
   -7.2780   18.7810  -32.4190 C   0  0  0  0  0  0  0  0  0  0  0  0
   -6.6550   23.8190  -31.9990 C   0  0  0  0  0  0  0  0  0  0  0  0
   -5.7520   24.8370  -31.6870 C   0  0  0  0  0  0  0  0  0  0  0  0
   -4.7920   24.6500  -30.6880 C   0  0  0  0  0  0  0  0  0  0  0  0
   -3.8710   25.6620  -30.4400 O   0  0  0  0  0  0  0  0  0  0  0  0
   -3.6160   25.2550  -28.2970 H   0  0  0  0  0  0  0  0  0  0  0  0
   -1.9401   22.0524  -27.5104 H   0  0  0  0  0  0  0  0  0  0  0  0
   -0.2059   21.7642  -25.7446 H   0  0  0  0  0  0  0  0  0  0  0  0
    0.4508   23.6935  -24.3068 H   0  0  0  0  0  0  0  0  0  0  0  0
    2.1979   28.6938  -24.7886 H   0  0  0  0  0  0  0  0  0  0  0  0
    0.5735   28.7648  -23.9639 H   0  0  0  0  0  0  0  0  0  0  0  0
    2.4204   29.3954  -22.4374 H   0  0  0  0  0  0  0  0  0  0  0  0
    1.5470   27.9040  -21.9071 H   0  0  0  0  0  0  0  0  0  0  0  0
    4.3482   28.2266  -22.9854 H   0  0  0  0  0  0  0  0  0  0  0  0
    3.7080   27.2078  -21.6174 H   0  0  0  0  0  0  0  0  0  0  0  0
    3.9574   26.5799  -24.5329 H   0  0  0  0  0  0  0  0  0  0  0  0
    4.0971   25.5177  -23.0750 H   0  0  0  0  0  0  0  0  0  0  0  0
    2.1122   24.9141  -24.4013 H   0  0  0  0  0  0  0  0  0  0  0  0
    1.6435   25.5993  -22.7915 H   0  0  0  0  0  0  0  0  0  0  0  0
   -2.3152   26.2362  -26.4561 H   0  0  0  0  0  0  0  0  0  0  0  0
   -5.6027   21.4506  -29.7708 H   0  0  0  0  0  0  0  0  0  0  0  0
   -5.4086   21.3498  -33.5034 H   0  0  0  0  0  0  0  0  0  0  0  0
   -5.1277   20.4216  -31.9804 H   0  0  0  0  0  0  0  0  0  0  0  0
   -4.2614   19.6972  -34.5625 H   0  0  0  0  0  0  0  0  0  0  0  0
   -4.3263   18.6344  -33.1006 H   0  0  0  0  0  0  0  0  0  0  0  0
   -7.4889   17.2530  -33.9365 H   0  0  0  0  0  0  0  0  0  0  0  0
   -6.0157   17.1016  -32.8825 H   0  0  0  0  0  0  0  0  0  0  0  0
   -8.3632   18.6146  -32.3514 H   0  0  0  0  0  0  0  0  0  0  0  0
   -6.8147   18.6189  -31.4346 H   0  0  0  0  0  0  0  0  0  0  0  0
   -7.4109   23.9773  -32.7823 H   0  0  0  0  0  0  0  0  0  0  0  0
   -5.7961   25.7923  -32.2306 H   0  0  0  0  0  0  0  0  0  0  0  0
  1  2  2  0
  2  3  1  0
  3  4  1  0
  4  5  2  0
  5  6  1  0
  6  7  2  0
  7  8  1  0
  8  9  1  0
  9 10  2  0
  9 11  2  0
  9 12  1  0
 12 13  1  0
 13 14  1  0
 14 15  1  0
 15 16  1  0
 16 17  1  0
  8 18  2  0
  2 19  1  0
 19 20  2  0
 20 21  1  0
 21 22  1  0
 22 23  2  0
 22 24  2  0
 22 25  1  0
 25 26  1  0
 26 27  1  0
 27 28  1  0
 28 29  1  0
 29 30  1  0
 21 31  2  0
 31 32  1  0
 32 33  2  0
 33 34  1  0
 18  4  1  0
 33 19  1  0
 17 12  1  0
 30 25  1  0
  3 35  1  0
  5 36  1  0
  6 37  1  0
  7 38  1  0
 13 39  1  0
 13 40  1  0
 14 41  1  0
 14 42  1  0
 15 43  1  0
 15 44  1  0
 16 45  1  0
 16 46  1  0
 17 47  1  0
 17 48  1  0
 18 49  1  0
 20 50  1  0
 26 51  1  0
 26 52  1  0
 27 53  1  0
 27 54  1  0
 29 55  1  0
 29 56  1  0
 30 57  1  0
 30 58  1  0
 31 59  1  0
 32 60  1  0
M  CHG  1  34  -1
M  END
>  <UniqueID>  (25) 
25

>  <SMILES>  (25) 
O=C(Nc1cccc(S(=O)(=O)N2CCCCC2)c1)c1cc(S(=O)(=O)N2CCOCC2)ccc1[O-]

>  <Energy>  (25) 
81.88251319173568

>  <Genealogy>  (25) 
O=C(Nc1cccc(S(=O)(=O)N2CCCCC2)c1)c1cc(S(=O)(=O)N2CCOCC2)ccc1[O-] (protonated)
O=C(Nc1cccc(S(=O)(=O)N2CCCCC2)c1)c1cc(S(=O)(=O)N2CCOCC2)ccc1[O-] (3D coordinates assigned)
O=C(Nc1cccc(S(=O)(=O)N2CCCCC2)c1)c1cc(S(=O)(=O)N2CCOCC2)ccc1[O-] (nonaromatic ring conformer: 81.88251319173568 kcal/mol)

>  <smiles>  (25) 
O=C(Nc1cccc(S(=O)(=O)N2CCCCC2)c1)c1cc(S(=O)(=O)N2CCOCC2)ccc1O

>  <score_type>  (25) 
oracle

>  <origin>  (25) 
adgpu

>  <m_score__min__energy>  (25) 
-13.800000000000001

>  <m_primary>  (25) 
energy

$$$$
25:0
     RDKit          3D

 48 50  0  0  0  0  0  0  0  0999 V2000
   -8.4390   18.9740  -31.2840 C   0  0  0  0  0  0  0  0  0  0  0  0
   -7.4390   18.6150  -32.3510 C   0  0  0  0  0  0  0  0  0  0  0  0
   -7.2410   17.2630  -32.6800 C   0  0  0  0  0  0  0  0  0  0  0  0
   -6.3290   16.9000  -33.6720 C   0  0  0  0  0  0  0  0  0  0  0  0
   -5.6130   17.8820  -34.3600 C   0  0  0  0  0  0  0  0  0  0  0  0
   -4.4520   17.4070  -35.6460 S   0  0  0  0  0  0  0  0  0  0  0  0
   -3.3270   16.5000  -34.5260 C   0  0  0  0  0  0  0  0  0  0  0  0
   -2.7250   17.4110  -33.4990 C   0  0  0  0  0  0  0  0  0  0  0  0
   -2.1320   16.9130  -32.5040 O   0  0  0  0  0  0  0  0  0  0  0  0
   -2.7810   18.8350  -33.6780 N   0  0  0  0  0  0  0  0  0  0  0  0
   -2.5260   19.7920  -32.6340 C   0  0  0  0  0  0  0  0  0  0  0  0
   -1.3660   20.5790  -32.6930 C   0  0  0  0  0  0  0  0  0  0  0  0
   -1.1070   21.5370  -31.7080 C   0  0  0  0  0  0  0  0  0  0  0  0
   -2.0160   21.7350  -30.6620 C   0  0  0  0  0  0  0  0  0  0  0  0
   -1.6740   22.9390  -29.4240 S   0  0  0  0  0  0  0  0  0  0  0  0
   -0.1990   23.2150  -29.3410 O   0  0  0  0  0  0  0  0  0  0  0  0
   -2.1370   22.4170  -28.0930 O   0  0  0  0  0  0  0  0  0  0  0  0
   -2.5210   24.4090  -29.7870 N   0  0  0  0  0  0  0  0  0  0  0  0
   -3.7880   24.4630  -30.0580 C   0  0  0  0  0  0  0  0  0  0  0  0
   -4.5500   23.3340  -30.0770 N   0  0  0  0  0  0  0  0  0  0  0  0
   -5.8770   23.3870  -30.3600 C   0  0  0  0  0  0  0  0  0  0  0  0
   -6.4780   24.6150  -30.6400 C   0  0  0  0  0  0  0  0  0  0  0  0
   -5.6860   25.7620  -30.6150 C   0  0  0  0  0  0  0  0  0  0  0  0
   -4.3620   25.6660  -30.3270 N   0  0  0  0  0  0  0  0  0  0  0  0
   -3.1860   20.9650  -30.6060 C   0  0  0  0  0  0  0  0  0  0  0  0
   -3.4420   20.0030  -31.5870 C   0  0  0  0  0  0  0  0  0  0  0  0
   -5.7970   19.2310  -34.0430 C   0  0  0  0  0  0  0  0  0  0  0  0
   -6.7190   19.6130  -33.0520 C   0  0  0  0  0  0  0  0  0  0  0  0
   -6.9060   21.0750  -32.7420 C   0  0  0  0  0  0  0  0  0  0  0  0
   -7.9908   18.8131  -30.2924 H   0  0  0  0  0  0  0  0  0  0  0  0
   -8.7249   20.0309  -31.3901 H   0  0  0  0  0  0  0  0  0  0  0  0
   -9.3318   18.3403  -31.3901 H   0  0  0  0  0  0  0  0  0  0  0  0
   -7.8098   16.4842  -32.1510 H   0  0  0  0  0  0  0  0  0  0  0  0
   -6.1737   15.8379  -33.9126 H   0  0  0  0  0  0  0  0  0  0  0  0
   -3.8936   15.7084  -34.0139 H   0  0  0  0  0  0  0  0  0  0  0  0
   -2.5123   16.0706  -35.1275 H   0  0  0  0  0  0  0  0  0  0  0  0
   -2.9780   19.1960  -34.6390 H   0  0  0  0  0  0  0  0  0  0  0  0
   -0.6547   20.4413  -33.5207 H   0  0  0  0  0  0  0  0  0  0  0  0
   -0.1862   22.1369  -31.7552 H   0  0  0  0  0  0  0  0  0  0  0  0
   -6.4765   22.4648  -30.3685 H   0  0  0  0  0  0  0  0  0  0  0  0
   -7.5509   24.6764  -30.8748 H   0  0  0  0  0  0  0  0  0  0  0  0
   -6.1330   26.7442  -30.8284 H   0  0  0  0  0  0  0  0  0  0  0  0
   -3.9048   21.1184  -29.7875 H   0  0  0  0  0  0  0  0  0  0  0  0
   -4.3654   19.4071  -31.5403 H   0  0  0  0  0  0  0  0  0  0  0  0
   -5.2159   20.0001  -34.5730 H   0  0  0  0  0  0  0  0  0  0  0  0
   -6.9244   21.2192  -31.6516 H   0  0  0  0  0  0  0  0  0  0  0  0
   -6.0742   21.6507  -33.1740 H   0  0  0  0  0  0  0  0  0  0  0  0
   -7.8560   21.4228  -33.1740 H   0  0  0  0  0  0  0  0  0  0  0  0
  1  2  1  0
  2  3  2  0
  3  4  1  0
  4  5  2  0
  5  6  1  0
  6  7  1  0
  7  8  1  0
  8  9  2  0
  8 10  1  0
 10 11  1  0
 11 12  2  0
 12 13  1  0
 13 14  2  0
 14 15  1  0
 15 16  2  0
 15 17  2  0
 15 18  1  0
 18 19  2  3
 19 20  1  0
 20 21  2  0
 21 22  1  0
 22 23  2  0
 23 24  1  0
 14 25  1  0
 25 26  2  0
  5 27  1  0
 27 28  2  0
 28 29  1  0
 28  2  1  0
 26 11  1  0
 24 19  1  0
  1 30  1  0
  1 31  1  0
  1 32  1  0
  3 33  1  0
  4 34  1  0
  7 35  1  0
  7 36  1  0
 10 37  1  0
 12 38  1  0
 13 39  1  0
 21 40  1  0
 22 41  1  0
 23 42  1  0
 25 43  1  0
 26 44  1  0
 27 45  1  0
 29 46  1  0
 29 47  1  0
 29 48  1  0
M  CHG  1  24  -1
M  END
>  <UniqueID>  (26) 
26

>  <SMILES>  (26) 
Cc1ccc(SCC(=O)Nc2ccc(S(=O)(=O)N=c3nccc[n-]3)cc2)cc1C

>  <Energy>  (26) 
51.54324291875933

>  <Genealogy>  (26) 
Cc1ccc(SCC(=O)Nc2ccc(S(=O)(=O)N=c3nccc[n-]3)cc2)cc1C (protonated)
Cc1ccc(SCC(=O)Nc2ccc(S(=O)(=O)N=c3nccc[n-]3)cc2)cc1C (3D coordinates assigned)
Cc1ccc(SCC(=O)Nc2ccc(S(=O)(=O)N=c3nccc[n-]3)cc2)cc1C (optimized conformer: 51.54324291875933 kcal/mol)

>  <smiles>  (26) 
Cc1ccc(SCC(=O)Nc2ccc(S(=O)(=O)N=c3nccc[nH]3)cc2)cc1C

>  <score_type>  (26) 
oracle

>  <origin>  (26) 
adgpu

>  <m_score__min__energy>  (26) 
-10.720000000000001

>  <m_primary>  (26) 
energy

$$$$
26:0
     RDKit          3D

 74 78  0  0  0  0  0  0  0  0999 V2000
   -2.6450   18.3320  -33.5150 C   0  0  0  0  0  0  0  0  0  0  0  0
   -3.5660   19.4520  -33.1070 C   0  0  0  0  0  0  0  0  0  0  0  0
   -4.9070   19.1490  -32.8160 C   0  0  0  0  0  0  0  0  0  0  0  0
   -5.7870   20.1490  -32.3950 C   0  0  0  0  0  0  0  0  0  0  0  0
   -5.3500   21.4740  -32.2770 C   0  0  0  0  0  0  0  0  0  0  0  0
   -6.4620   22.7410  -31.7410 S   0  0  0  0  0  0  0  0  0  0  0  0
   -7.8590   22.1920  -31.7680 O   0  0  0  0  0  0  0  0  0  0  0  0
   -6.4020   23.8780  -32.7230 O   0  0  0  0  0  0  0  0  0  0  0  0
   -6.1370   23.3100  -30.1130 N   0  0  0  0  0  0  0  0  0  0  0  0
   -6.4780   24.7300  -29.9180 C   0  0  0  0  0  0  0  0  0  0  0  0
   -5.4100   25.6770  -30.5130 C   0  0  0  0  0  0  0  0  0  0  0  0
   -4.1840   25.0310  -30.8070 O   0  0  0  0  0  0  0  0  0  0  0  0
   -3.8090   24.1830  -29.7450 C   0  0  0  0  0  0  0  0  0  0  0  0
   -4.7740   22.9850  -29.6400 C   0  0  0  0  0  0  0  0  0  0  0  0
   -4.0320   21.7940  -32.6170 C   0  0  0  0  0  0  0  0  0  0  0  0
   -3.1310   20.8000  -33.0260 C   0  0  0  0  0  0  0  0  0  0  0  0
   -1.7430   21.2080  -33.3150 C   0  0  0  0  0  0  0  0  0  0  0  0
   -1.0210   21.6310  -32.3700 O   0  0  0  0  0  0  0  0  0  0  0  0
   -1.2210   21.1600  -34.6510 N   0  0  0  0  0  0  0  0  0  0  0  0
    0.0720   21.6840  -34.9810 C   0  0  0  0  0  0  0  0  0  0  0  0
    0.1640   22.9460  -35.5840 C   0  0  0  0  0  0  0  0  0  0  0  0
    1.4110   23.4760  -35.9440 C   0  0  0  0  0  0  0  0  0  0  0  0
    1.5220   25.0890  -36.6560 S   0  0  0  0  0  0  0  0  0  0  0  0
    2.7180   25.7990  -36.0750 O   0  0  0  0  0  0  0  0  0  0  0  0
    1.7380   24.9580  -38.1410 O   0  0  0  0  0  0  0  0  0  0  0  0
    0.0830   26.0380  -36.3760 N   0  0  0  0  0  0  0  0  0  0  0  0
   -0.3630   26.6800  -37.6200 C   0  0  0  0  0  0  0  0  0  0  0  0
   -1.6100   27.5260  -37.3330 C   0  0  0  0  0  0  0  0  0  0  0  0
   -1.3370   28.5040  -36.3450 O   0  0  0  0  0  0  0  0  0  0  0  0
   -0.9500   27.8770  -35.1360 C   0  0  0  0  0  0  0  0  0  0  0  0
    0.3250   27.0530  -35.3400 C   0  0  0  0  0  0  0  0  0  0  0  0
    2.5730   22.7320  -35.7020 C   0  0  0  0  0  0  0  0  0  0  0  0
    2.4930   21.4870  -35.0770 C   0  0  0  0  0  0  0  0  0  0  0  0
    1.2500   20.9550  -34.6980 C   0  0  0  0  0  0  0  0  0  0  0  0
    1.1970   19.7250  -33.9480 N   0  0  0  0  0  0  0  0  0  0  0  0
    0.6160   18.5450  -34.6090 C   0  0  0  0  0  0  0  0  0  0  0  0
    0.8570   17.2690  -33.7970 C   0  0  0  0  0  0  0  0  0  0  0  0
    0.5500   17.4760  -32.4350 O   0  0  0  0  0  0  0  0  0  0  0  0
    1.4940   18.3740  -31.8830 C   0  0  0  0  0  0  0  0  0  0  0  0
    1.3250   19.7760  -32.4820 C   0  0  0  0  0  0  0  0  0  0  0  0
   -2.2424   17.8424  -32.6160 H   0  0  0  0  0  0  0  0  0  0  0  0
   -3.2037   17.5974  -34.1135 H   0  0  0  0  0  0  0  0  0  0  0  0
   -1.8163   18.7383  -34.1135 H   0  0  0  0  0  0  0  0  0  0  0  0
   -5.2671   18.1149  -32.9207 H   0  0  0  0  0  0  0  0  0  0  0  0
   -6.8297   19.8939  -32.1547 H   0  0  0  0  0  0  0  0  0  0  0  0
   -7.4423   24.9326  -30.4069 H   0  0  0  0  0  0  0  0  0  0  0  0
   -6.5291   24.9183  -28.8354 H   0  0  0  0  0  0  0  0  0  0  0  0
   -5.8074   26.1098  -31.4429 H   0  0  0  0  0  0  0  0  0  0  0  0
   -5.1980   26.4441  -29.7536 H   0  0  0  0  0  0  0  0  0  0  0  0
   -2.7891   23.8111  -29.9223 H   0  0  0  0  0  0  0  0  0  0  0  0
   -3.8483   24.7533  -28.8052 H   0  0  0  0  0  0  0  0  0  0  0  0
   -4.3775   22.1588  -30.2484 H   0  0  0  0  0  0  0  0  0  0  0  0
   -4.8470   22.7078  -28.5780 H   0  0  0  0  0  0  0  0  0  0  0  0
   -3.6970   22.8403  -32.5629 H   0  0  0  0  0  0  0  0  0  0  0  0
   -1.7870   20.7220  -35.4130 H   0  0  0  0  0  0  0  0  0  0  0  0
   -0.7507   23.5259  -35.7765 H   0  0  0  0  0  0  0  0  0  0  0  0
    0.4383   27.3259  -38.0083 H   0  0  0  0  0  0  0  0  0  0  0  0
   -0.6035   25.9096  -38.3674 H   0  0  0  0  0  0  0  0  0  0  0  0
   -1.9267   28.0276  -38.2593 H   0  0  0  0  0  0  0  0  0  0  0  0
   -2.4079   26.8647  -36.9641 H   0  0  0  0  0  0  0  0  0  0  0  0
   -0.7645   28.6470  -34.3727 H   0  0  0  0  0  0  0  0  0  0  0  0
   -1.7580   27.2053  -34.8105 H   0  0  0  0  0  0  0  0  0  0  0  0
    1.1442   27.7149  -35.6574 H   0  0  0  0  0  0  0  0  0  0  0  0
    0.6018   26.5599  -34.3965 H   0  0  0  0  0  0  0  0  0  0  0  0
    3.5521   23.1307  -36.0058 H   0  0  0  0  0  0  0  0  0  0  0  0
    3.4126   20.9167  -34.8793 H   0  0  0  0  0  0  0  0  0  0  0  0
   -0.4676   18.6967  -34.7226 H   0  0  0  0  0  0  0  0  0  0  0  0
    1.1006   18.4260  -35.5893 H   0  0  0  0  0  0  0  0  0  0  0  0
    0.2195   16.4643  -34.1921 H   0  0  0  0  0  0  0  0  0  0  0  0
    1.9184   16.9928  -33.8811 H   0  0  0  0  0  0  0  0  0  0  0  0
    1.3479   18.4268  -30.7940 H   0  0  0  0  0  0  0  0  0  0  0  0
    2.5056   18.0101  -32.1157 H   0  0  0  0  0  0  0  0  0  0  0  0
    0.4203   20.2382  -32.0601 H   0  0  0  0  0  0  0  0  0  0  0  0
    2.2189   20.3671  -32.2341 H   0  0  0  0  0  0  0  0  0  0  0  0
  1  2  1  0
  2  3  2  0
  3  4  1  0
  4  5  2  0
  5  6  1  0
  6  7  2  0
  6  8  2  0
  6  9  1  0
  9 10  1  0
 10 11  1  0
 11 12  1  0
 12 13  1  0
 13 14  1  0
  5 15  1  0
 15 16  2  0
 16 17  1  0
 17 18  2  0
 17 19  1  0
 19 20  1  0
 20 21  2  0
 21 22  1  0
 22 23  1  0
 23 24  2  0
 23 25  2  0
 23 26  1  0
 26 27  1  0
 27 28  1  0
 28 29  1  0
 29 30  1  0
 30 31  1  0
 22 32  2  0
 32 33  1  0
 33 34  2  0
 34 35  1  0
 35 36  1  0
 36 37  1  0
 37 38  1  0
 38 39  1  0
 39 40  1  0
 16  2  1  0
 34 20  1  0
 40 35  1  0
 14  9  1  0
 31 26  1  0
  1 41  1  0
  1 42  1  0
  1 43  1  0
  3 44  1  0
  4 45  1  0
 10 46  1  0
 10 47  1  0
 11 48  1  0
 11 49  1  0
 13 50  1  0
 13 51  1  0
 14 52  1  0
 14 53  1  0
 15 54  1  0
 19 55  1  0
 21 56  1  0
 27 57  1  0
 27 58  1  0
 28 59  1  0
 28 60  1  0
 30 61  1  0
 30 62  1  0
 31 63  1  0
 31 64  1  0
 32 65  1  0
 33 66  1  0
 36 67  1  0
 36 68  1  0
 37 69  1  0
 37 70  1  0
 39 71  1  0
 39 72  1  0
 40 73  1  0
 40 74  1  0
M  END
>  <UniqueID>  (27) 
27

>  <SMILES>  (27) 
Cc1ccc(S(=O)(=O)N2CCOCC2)cc1C(=O)Nc1cc(S(=O)(=O)N2CCOCC2)ccc1N1CCOCC1

>  <Energy>  (27) 
104.52058719795436

>  <Genealogy>  (27) 
Cc1ccc(S(=O)(=O)N2CCOCC2)cc1C(=O)Nc1cc(S(=O)(=O)N2CCOCC2)ccc1N1CCOCC1 (3D coordinates assigned)
Cc1ccc(S(=O)(=O)N2CCOCC2)cc1C(=O)Nc1cc(S(=O)(=O)N2CCOCC2)ccc1N1CCOCC1 (nonaromatic ring conformer: 104.52058719795436 kcal/mol)

>  <smiles>  (27) 
Cc1ccc(S(=O)(=O)N2CCOCC2)cc1C(=O)Nc1cc(S(=O)(=O)N2CCOCC2)ccc1N1CCOCC1

>  <score_type>  (27) 
oracle

>  <origin>  (27) 
adgpu

>  <m_score__min__energy>  (27) 
-11.52

>  <m_primary>  (27) 
energy

$$$$
27:0
     RDKit          3D

 48 51  0  0  0  0  0  0  0  0999 V2000
   -4.1210   22.0370  -32.3080 O   0  0  0  0  0  0  0  0  0  0  0  0
   -4.2850   22.6370  -31.2110 C   0  0  0  0  0  0  0  0  0  0  0  0
   -5.6100   22.9590  -30.7560 N   0  0  0  0  0  0  0  0  0  0  0  0
   -6.8030   22.3270  -31.2530 C   0  0  0  0  0  0  0  0  0  0  0  0
   -7.9400   23.1080  -31.5080 C   0  0  0  0  0  0  0  0  0  0  0  0
   -9.1160   22.5130  -31.9720 C   0  0  0  0  0  0  0  0  0  0  0  0
   -9.1740   21.1320  -32.1690 C   0  0  0  0  0  0  0  0  0  0  0  0
   -8.0560   20.3330  -31.8880 C   0  0  0  0  0  0  0  0  0  0  0  0
   -8.1420   18.5810  -32.0950 S   0  0  0  0  0  0  0  0  0  0  0  0
   -9.5800   18.1700  -32.2480 O   0  0  0  0  0  0  0  0  0  0  0  0
   -7.5950   17.9100  -30.8660 O   0  0  0  0  0  0  0  0  0  0  0  0
   -7.2340   18.0500  -33.4920 N   0  0  0  0  0  0  0  0  0  0  0  0
   -6.7580   16.6580  -33.3400 C   0  0  0  0  0  0  0  0  0  0  0  0
   -5.2510   16.5920  -33.0360 C   0  0  0  0  0  0  0  0  0  0  0  0
   -4.4500   17.2070  -34.0370 O   0  0  0  0  0  0  0  0  0  0  0  0
   -5.0650   18.3320  -34.6550 C   0  0  0  0  0  0  0  0  0  0  0  0
   -6.1500   19.0030  -33.7960 C   0  0  0  0  0  0  0  0  0  0  0  0
   -6.8730   20.9330  -31.4330 C   0  0  0  0  0  0  0  0  0  0  0  0
   -3.1010   23.0360  -30.4320 C   0  0  0  0  0  0  0  0  0  0  0  0
   -3.0870   23.7920  -29.2780 C   0  0  0  0  0  0  0  0  0  0  0  0
   -1.7460   23.8720  -28.9450 C   0  0  0  0  0  0  0  0  0  0  0  0
   -1.1470   24.6020  -27.8020 C   0  0  0  0  0  0  0  0  0  0  0  0
   -0.8310   23.8910  -26.6290 C   0  0  0  0  0  0  0  0  0  0  0  0
   -0.2560   24.5410  -25.5340 C   0  0  0  0  0  0  0  0  0  0  0  0
    0.0050   25.9110  -25.5920 C   0  0  0  0  0  0  0  0  0  0  0  0
   -0.3180   26.6340  -26.7410 C   0  0  0  0  0  0  0  0  0  0  0  0
   -0.8980   25.9940  -27.8410 C   0  0  0  0  0  0  0  0  0  0  0  0
   -1.2450   26.7570  -28.9500 O   0  0  0  0  0  0  0  0  0  0  0  0
   -1.0190   23.2060  -29.8650 N   0  0  0  0  0  0  0  0  0  0  0  0
   -1.8420   22.6930  -30.7650 N   0  0  0  0  0  0  0  0  0  0  0  0
   -5.7250   23.7610  -30.0960 H   0  0  0  0  0  0  0  0  0  0  0  0
   -7.9056   24.1948  -31.3418 H   0  0  0  0  0  0  0  0  0  0  0  0
   -9.9988   23.1345  -32.1827 H   0  0  0  0  0  0  0  0  0  0  0  0
  -10.0984   20.6696  -32.5454 H   0  0  0  0  0  0  0  0  0  0  0  0
   -7.3077   16.1833  -32.5139 H   0  0  0  0  0  0  0  0  0  0  0  0
   -6.9353   16.1335  -34.2905 H   0  0  0  0  0  0  0  0  0  0  0  0
   -5.0650   17.1002  -32.0783 H   0  0  0  0  0  0  0  0  0  0  0  0
   -4.9710   15.5288  -33.0009 H   0  0  0  0  0  0  0  0  0  0  0  0
   -4.2851   19.0771  -34.8710 H   0  0  0  0  0  0  0  0  0  0  0  0
   -5.5623   17.9630  -35.5641 H   0  0  0  0  0  0  0  0  0  0  0  0
   -5.7011   19.3524  -32.8545 H   0  0  0  0  0  0  0  0  0  0  0  0
   -6.5704   19.8520  -34.3549 H   0  0  0  0  0  0  0  0  0  0  0  0
   -5.9933   20.3095  -31.2152 H   0  0  0  0  0  0  0  0  0  0  0  0
   -3.9440   24.2301  -28.7454 H   0  0  0  0  0  0  0  0  0  0  0  0
   -1.0389   22.8122  -26.5738 H   0  0  0  0  0  0  0  0  0  0  0  0
   -0.0087   23.9725  -24.6253 H   0  0  0  0  0  0  0  0  0  0  0  0
    0.4650   26.4204  -24.7324 H   0  0  0  0  0  0  0  0  0  0  0  0
   -0.1151   27.7144  -26.7818 H   0  0  0  0  0  0  0  0  0  0  0  0
  1  2  2  0
  2  3  1  0
  3  4  1  0
  4  5  2  0
  5  6  1  0
  6  7  2  0
  7  8  1  0
  8  9  1  0
  9 10  2  0
  9 11  2  0
  9 12  1  0
 12 13  1  0
 13 14  1  0
 14 15  1  0
 15 16  1  0
 16 17  1  0
  8 18  2  0
  2 19  1  0
 19 20  1  0
 20 21  2  0
 21 22  1  0
 22 23  2  0
 23 24  1  0
 24 25  2  0
 25 26  1  0
 26 27  2  0
 27 28  1  0
 21 29  1  0
 29 30  1  0
 18  4  1  0
 30 19  2  0
 17 12  1  0
 27 22  1  0
  3 31  1  0
  5 32  1  0
  6 33  1  0
  7 34  1  0
 13 35  1  0
 13 36  1  0
 14 37  1  0
 14 38  1  0
 16 39  1  0
 16 40  1  0
 17 41  1  0
 17 42  1  0
 18 43  1  0
 20 44  1  0
 23 45  1  0
 24 46  1  0
 25 47  1  0
 26 48  1  0
M  CHG  2  28  -1  29  -1
M  END
>  <UniqueID>  (28) 
28

>  <SMILES>  (28) 
O=C(Nc1cccc(S(=O)(=O)N2CCOCC2)c1)c1cc(-c2ccccc2[O-])[n-]n1

>  <Energy>  (28) 
99.7464165735447

>  <Genealogy>  (28) 
O=C(Nc1cccc(S(=O)(=O)N2CCOCC2)c1)c1cc(-c2ccccc2[O-])[n-]n1 (protonated)
O=C(Nc1cccc(S(=O)(=O)N2CCOCC2)c1)c1cc(-c2ccccc2[O-])[n-]n1 (3D coordinates assigned)
O=C(Nc1cccc(S(=O)(=O)N2CCOCC2)c1)c1cc(-c2ccccc2[O-])[n-]n1 (nonaromatic ring conformer: 99.7464165735447 kcal/mol)

>  <smiles>  (28) 
O=C(Nc1cccc(S(=O)(=O)N2CCOCC2)c1)c1cc(-c2ccccc2O)[nH]n1

>  <score_type>  (28) 
oracle

>  <origin>  (28) 
adgpu

>  <m_score__min__energy>  (28) 
-14.779999999999999

>  <m_primary>  (28) 
energy

$$$$
28:0
     RDKit          3D

 51 53  0  0  0  0  0  0  0  0999 V2000
   -3.0920   23.5360  -27.6120 C   0  0  0  0  0  0  0  0  0  0  0  0
   -3.3880   22.3460  -28.3350 O   0  0  0  0  0  0  0  0  0  0  0  0
   -2.7860   21.9800  -29.5500 C   0  0  0  0  0  0  0  0  0  0  0  0
   -1.7540   21.0250  -29.6080 C   0  0  0  0  0  0  0  0  0  0  0  0
   -1.1800   20.6730  -30.8310 C   0  0  0  0  0  0  0  0  0  0  0  0
   -1.6270   21.2670  -32.0190 C   0  0  0  0  0  0  0  0  0  0  0  0
   -1.0680   20.8530  -33.3240 C   0  0  0  0  0  0  0  0  0  0  0  0
   -0.6990   21.7350  -34.1450 O   0  0  0  0  0  0  0  0  0  0  0  0
   -0.9030   19.4710  -33.6790 N   0  0  0  0  0  0  0  0  0  0  0  0
   -1.9490   18.5020  -33.8630 C   0  0  0  0  0  0  0  0  0  0  0  0
   -3.3070   18.8520  -33.7550 C   0  0  0  0  0  0  0  0  0  0  0  0
   -4.3080   17.8890  -33.9290 C   0  0  0  0  0  0  0  0  0  0  0  0
   -6.0020   18.3290  -33.7070 S   0  0  0  0  0  0  0  0  0  0  0  0
   -6.8680   17.1390  -34.0150 O   0  0  0  0  0  0  0  0  0  0  0  0
   -6.3420   19.4200  -34.6860 O   0  0  0  0  0  0  0  0  0  0  0  0
   -6.3010   18.9050  -32.0810 N   0  0  0  0  0  0  0  0  0  0  0  0
   -7.5270   18.3250  -31.4960 C   0  0  0  0  0  0  0  0  0  0  0  0
   -8.8200   18.9270  -32.0830 C   0  0  0  0  0  0  0  0  0  0  0  0
   -8.7170   20.4390  -32.3480 C   0  0  0  0  0  0  0  0  0  0  0  0
   -7.5440   21.0680  -31.6000 C   0  0  0  0  0  0  0  0  0  0  0  0
   -6.2210   20.3860  -31.9940 C   0  0  0  0  0  0  0  0  0  0  0  0
   -3.9540   16.5770  -34.2650 C   0  0  0  0  0  0  0  0  0  0  0  0
   -2.6080   16.2290  -34.4100 C   0  0  0  0  0  0  0  0  0  0  0  0
   -1.6080   17.1860  -34.2100 C   0  0  0  0  0  0  0  0  0  0  0  0
   -0.2730   16.8230  -34.3520 O   0  0  0  0  0  0  0  0  0  0  0  0
   -2.6370   22.2380  -31.9650 C   0  0  0  0  0  0  0  0  0  0  0  0
   -3.2300   22.5850  -30.7410 C   0  0  0  0  0  0  0  0  0  0  0  0
   -4.5320   23.7780  -30.7080 S   0  0  0  0  0  0  0  0  0  0  0  0
   -3.8680   25.3540  -30.4710 N   0  0  0  0  0  0  0  0  0  0  0  0
   -5.4860   23.4550  -29.5910 O   0  0  0  0  0  0  0  0  0  0  0  0
   -5.2910   23.7550  -32.0050 O   0  0  0  0  0  0  0  0  0  0  0  0
   -3.1429   23.3314  -26.5324 H   0  0  0  0  0  0  0  0  0  0  0  0
   -2.0806   23.8813  -27.8725 H   0  0  0  0  0  0  0  0  0  0  0  0
   -3.8238   24.3149  -27.8725 H   0  0  0  0  0  0  0  0  0  0  0  0
   -1.3965   20.5517  -28.6816 H   0  0  0  0  0  0  0  0  0  0  0  0
   -0.3732   19.9260  -30.8623 H   0  0  0  0  0  0  0  0  0  0  0  0
   -3.5852   19.8925  -33.5316 H   0  0  0  0  0  0  0  0  0  0  0  0
   -7.5272   17.2416  -31.6864 H   0  0  0  0  0  0  0  0  0  0  0  0
   -7.5173   18.5537  -30.4201 H   0  0  0  0  0  0  0  0  0  0  0  0
   -9.0421   18.4196  -33.0334 H   0  0  0  0  0  0  0  0  0  0  0  0
   -9.6173   18.7783  -31.3398 H   0  0  0  0  0  0  0  0  0  0  0  0
   -8.5799   20.6027  -33.4271 H   0  0  0  0  0  0  0  0  0  0  0  0
   -9.6434   20.9123  -31.9904 H   0  0  0  0  0  0  0  0  0  0  0  0
   -7.4877   22.1377  -31.8501 H   0  0  0  0  0  0  0  0  0  0  0  0
   -7.7019   20.9375  -30.5192 H   0  0  0  0  0  0  0  0  0  0  0  0
   -5.9127   20.7730  -32.9764 H   0  0  0  0  0  0  0  0  0  0  0  0
   -5.4974   20.6170  -31.1984 H   0  0  0  0  0  0  0  0  0  0  0  0
   -4.7364   15.8186  -34.4152 H   0  0  0  0  0  0  0  0  0  0  0  0
   -2.3344   15.1990  -34.6823 H   0  0  0  0  0  0  0  0  0  0  0  0
   -2.9677   22.7324  -32.8903 H   0  0  0  0  0  0  0  0  0  0  0  0
   -2.8280   25.2540  -30.4680 H   0  0  0  0  0  0  0  0  0  0  0  0
  1  2  1  0
  2  3  1  0
  3  4  2  0
  4  5  1  0
  5  6  2  0
  6  7  1  0
  7  8  2  0
  7  9  1  0
  9 10  1  0
 10 11  2  0
 11 12  1  0
 12 13  1  0
 13 14  2  0
 13 15  2  0
 13 16  1  0
 16 17  1  0
 17 18  1  0
 18 19  1  0
 19 20  1  0
 20 21  1  0
 12 22  2  0
 22 23  1  0
 23 24  2  0
 24 25  1  0
  6 26  1  0
 26 27  2  0
 27 28  1  0
 28 29  1  0
 28 30  2  0
 28 31  2  0
 27  3  1  0
 24 10  1  0
 21 16  1  0
  1 32  1  0
  1 33  1  0
  1 34  1  0
  4 35  1  0
  5 36  1  0
 11 37  1  0
 17 38  1  0
 17 39  1  0
 18 40  1  0
 18 41  1  0
 19 42  1  0
 19 43  1  0
 20 44  1  0
 20 45  1  0
 21 46  1  0
 21 47  1  0
 22 48  1  0
 23 49  1  0
 26 50  1  0
 29 51  1  0
M  CHG  3   9  -1  25  -1  29  -1
M  END
>  <UniqueID>  (29) 
29

>  <SMILES>  (29) 
COc1ccc(C(=O)[N-]c2cc(S(=O)(=O)N3CCCCC3)ccc2[O-])cc1S([NH-])(=O)=O

>  <Energy>  (29) 
65.0617912917389

>  <Genealogy>  (29) 
COc1ccc(C(=O)[N-]c2cc(S(=O)(=O)N3CCCCC3)ccc2[O-])cc1S([NH-])(=O)=O (protonated)
COc1ccc(C(=O)[N-]c2cc(S(=O)(=O)N3CCCCC3)ccc2[O-])cc1S([NH-])(=O)=O (3D coordinates assigned)
COc1ccc(C(=O)[N-]c2cc(S(=O)(=O)N3CCCCC3)ccc2[O-])cc1S([NH-])(=O)=O (nonaromatic ring conformer: 65.0617912917389 kcal/mol)

>  <smiles>  (29) 
COc1ccc(C(=O)Nc2cc(S(=O)(=O)N3CCCCC3)ccc2O)cc1S(N)(=O)=O

>  <score_type>  (29) 
oracle

>  <origin>  (29) 
adgpu

>  <m_score__min__energy>  (29) 
-13.77

>  <m_primary>  (29) 
energy

$$$$
29:0
     RDKit          3D

 44 46  0  0  0  0  0  0  0  0999 V2000
   -6.1690   17.3700  -34.5120 C   0  0  0  0  0  0  0  0  0  0  0  0
   -6.9190   17.5820  -33.3200 O   0  0  0  0  0  0  0  0  0  0  0  0
   -7.1570   18.8410  -32.7440 C   0  0  0  0  0  0  0  0  0  0  0  0
   -8.4610   19.3310  -32.5370 C   0  0  0  0  0  0  0  0  0  0  0  0
   -8.6620   20.5880  -31.9660 C   0  0  0  0  0  0  0  0  0  0  0  0
   -7.5680   21.3740  -31.5840 C   0  0  0  0  0  0  0  0  0  0  0  0
   -7.7890   22.7520  -31.0190 C   0  0  0  0  0  0  0  0  0  0  0  0
   -6.5010   23.3600  -30.6460 N   0  0  0  0  0  0  0  0  0  0  0  0
   -6.1090   23.3250  -29.3360 C   0  0  0  0  0  0  0  0  0  0  0  0
   -4.8800   23.8500  -28.9490 C   0  0  0  0  0  0  0  0  0  0  0  0
   -4.0640   24.4180  -29.9230 C   0  0  0  0  0  0  0  0  0  0  0  0
   -2.9460   24.9030  -29.6110 O   0  0  0  0  0  0  0  0  0  0  0  0
   -4.4750   24.4440  -31.2150 N   0  0  0  0  0  0  0  0  0  0  0  0
   -5.6730   23.9220  -31.5850 C   0  0  0  0  0  0  0  0  0  0  0  0
   -6.0080   23.9630  -32.7990 O   0  0  0  0  0  0  0  0  0  0  0  0
   -6.2670   20.8910  -31.7890 C   0  0  0  0  0  0  0  0  0  0  0  0
   -6.0550   19.6240  -32.3630 C   0  0  0  0  0  0  0  0  0  0  0  0
   -4.7340   19.1090  -32.5810 N   0  0  0  0  0  0  0  0  0  0  0  0
   -3.4490   19.9550  -33.3840 S   0  0  0  0  0  0  0  0  0  0  0  0
   -3.9420   21.3130  -33.7980 O   0  0  0  0  0  0  0  0  0  0  0  0
   -3.0160   19.1660  -34.5890 O   0  0  0  0  0  0  0  0  0  0  0  0
   -2.0660   20.1520  -32.2970 C   0  0  0  0  0  0  0  0  0  0  0  0
   -1.1230   19.1150  -32.1990 C   0  0  0  0  0  0  0  0  0  0  0  0
   -0.0230   19.2330  -31.3490 C   0  0  0  0  0  0  0  0  0  0  0  0
    0.1480   20.3840  -30.5820 C   0  0  0  0  0  0  0  0  0  0  0  0
   -0.7770   21.4250  -30.6680 C   0  0  0  0  0  0  0  0  0  0  0  0
   -1.8900   21.3240  -31.5200 C   0  0  0  0  0  0  0  0  0  0  0  0
   -2.8200   22.4150  -31.5720 N   0  0  0  0  0  0  0  0  0  0  0  0
   -5.1406   17.0793  -34.2513 H   0  0  0  0  0  0  0  0  0  0  0  0
   -6.6379   16.5692  -35.1027 H   0  0  0  0  0  0  0  0  0  0  0  0
   -6.1492   18.2978  -35.1027 H   0  0  0  0  0  0  0  0  0  0  0  0
   -9.3272   18.7183  -32.8276 H   0  0  0  0  0  0  0  0  0  0  0  0
   -9.6849   20.9634  -31.8152 H   0  0  0  0  0  0  0  0  0  0  0  0
   -8.2821   23.3803  -31.7754 H   0  0  0  0  0  0  0  0  0  0  0  0
   -8.4232   22.6758  -30.1235 H   0  0  0  0  0  0  0  0  0  0  0  0
   -6.7720   22.8773  -28.5810 H   0  0  0  0  0  0  0  0  0  0  0  0
   -4.5605   23.8169  -27.8970 H   0  0  0  0  0  0  0  0  0  0  0  0
   -5.4044   21.5086  -31.4983 H   0  0  0  0  0  0  0  0  0  0  0  0
   -1.2532   18.2016  -32.7980 H   0  0  0  0  0  0  0  0  0  0  0  0
    0.7107   18.4160  -31.2841 H   0  0  0  0  0  0  0  0  0  0  0  0
    1.0130   20.4718  -29.9082 H   0  0  0  0  0  0  0  0  0  0  0  0
   -0.6338   22.3328  -30.0635 H   0  0  0  0  0  0  0  0  0  0  0  0
   -3.7520   22.3380  -32.0310 H   0  0  0  0  0  0  0  0  0  0  0  0
   -2.5980   23.3210  -31.1000 H   0  0  0  0  0  0  0  0  0  0  0  0
  1  2  1  0
  2  3  1  0
  3  4  2  0
  4  5  1  0
  5  6  2  0
  6  7  1  0
  7  8  1  0
  8  9  1  0
  9 10  2  0
 10 11  1  0
 11 12  2  0
 11 13  1  0
 13 14  1  0
 14 15  2  0
  6 16  1  0
 16 17  2  0
 17 18  1  0
 18 19  1  0
 19 20  2  0
 19 21  2  0
 19 22  1  0
 22 23  2  0
 23 24  1  0
 24 25  2  0
 25 26  1  0
 26 27  2  0
 27 28  1  0
 17  3  1  0
 27 22  1  0
 14  8  1  0
  1 29  1  0
  1 30  1  0
  1 31  1  0
  4 32  1  0
  5 33  1  0
  7 34  1  0
  7 35  1  0
  9 36  1  0
 10 37  1  0
 16 38  1  0
 23 39  1  0
 24 40  1  0
 25 41  1  0
 26 42  1  0
 28 43  1  0
 28 44  1  0
M  CHG  2  13  -1  18  -1
M  END
>  <UniqueID>  (30) 
30

>  <SMILES>  (30) 
COc1ccc(Cn2ccc(=O)[n-]c2=O)cc1[N-]S(=O)(=O)c1ccccc1N

>  <Energy>  (30) 
53.78289094962827

>  <Genealogy>  (30) 
COc1ccc(Cn2ccc(=O)[n-]c2=O)cc1[N-]S(=O)(=O)c1ccccc1N (protonated)
COc1ccc(Cn2ccc(=O)[n-]c2=O)cc1[N-]S(=O)(=O)c1ccccc1N (3D coordinates assigned)
COc1ccc(Cn2ccc(=O)[n-]c2=O)cc1[N-]S(=O)(=O)c1ccccc1N (optimized conformer: 53.78289094962827 kcal/mol)

>  <smiles>  (30) 
COc1ccc(Cn2ccc(=O)[nH]c2=O)cc1NS(=O)(=O)c1ccccc1N

>  <score_type>  (30) 
oracle

>  <origin>  (30) 
adgpu

>  <m_score__min__energy>  (30) 
-9.4900000000000002

>  <m_primary>  (30) 
energy

$$$$
30:0
     RDKit          3D

 55 58  0  0  0  0  0  0  0  0999 V2000
   -9.0720   22.2730  -31.2540 N   0  0  0  0  0  0  0  0  0  0  0  0
   -8.2550   21.6230  -31.7550 C   0  0  0  0  0  0  0  0  0  0  0  0
   -7.2340   20.8140  -32.3800 C   0  0  0  0  0  0  0  0  0  0  0  0
   -5.9730   21.3730  -32.6720 C   0  0  0  0  0  0  0  0  0  0  0  0
   -5.7100   22.7620  -32.4030 N   0  0  0  0  0  0  0  0  0  0  0  0
   -4.9500   23.2330  -31.2750 C   0  0  0  0  0  0  0  0  0  0  0  0
   -3.5850   22.9190  -31.1820 C   0  0  0  0  0  0  0  0  0  0  0  0
   -2.8240   23.3830  -30.1050 C   0  0  0  0  0  0  0  0  0  0  0  0
   -3.4160   24.1770  -29.1190 C   0  0  0  0  0  0  0  0  0  0  0  0
   -2.3740   24.8130  -27.6500 Br  0  0  0  0  0  0  0  0  0  0  0  0
   -4.7690   24.5140  -29.2140 C   0  0  0  0  0  0  0  0  0  0  0  0
   -5.5340   24.0510  -30.2890 C   0  0  0  0  0  0  0  0  0  0  0  0
   -4.9910   20.5760  -33.2790 C   0  0  0  0  0  0  0  0  0  0  0  0
   -5.2260   19.2250  -33.5510 C   0  0  0  0  0  0  0  0  0  0  0  0
   -4.1800   18.4510  -34.1590 N   0  0  0  0  0  0  0  0  0  0  0  0
   -2.9030   18.2040  -33.5390 C   0  0  0  0  0  0  0  0  0  0  0  0
   -2.1980   17.0150  -33.7740 C   0  0  0  0  0  0  0  0  0  0  0  0
   -0.9710   16.7960  -33.1550 C   0  0  0  0  0  0  0  0  0  0  0  0
   -0.4270   17.7480  -32.2860 C   0  0  0  0  0  0  0  0  0  0  0  0
    0.8110   17.4560  -31.7100 O   0  0  0  0  0  0  0  0  0  0  0  0
   -1.1320   18.9510  -32.0200 C   0  0  0  0  0  0  0  0  0  0  0  0
   -0.4390   20.1600  -30.9030 S   0  0  0  0  0  0  0  0  0  0  0  0
   -0.8000   21.5240  -31.4270 O   0  0  0  0  0  0  0  0  0  0  0  0
    1.0560   20.0150  -30.9460 O   0  0  0  0  0  0  0  0  0  0  0  0
   -0.9220   20.1010  -29.2210 N   0  0  0  0  0  0  0  0  0  0  0  0
   -0.4960   18.8620  -28.5530 C   0  0  0  0  0  0  0  0  0  0  0  0
   -0.9700   18.8650  -27.0950 C   0  0  0  0  0  0  0  0  0  0  0  0
   -2.3700   19.0530  -27.0260 O   0  0  0  0  0  0  0  0  0  0  0  0
   -2.7040   20.3280  -27.5410 C   0  0  0  0  0  0  0  0  0  0  0  0
   -2.3440   20.4230  -29.0270 C   0  0  0  0  0  0  0  0  0  0  0  0
   -2.3730   19.1540  -32.6560 C   0  0  0  0  0  0  0  0  0  0  0  0
   -6.4900   18.6660  -33.2700 C   0  0  0  0  0  0  0  0  0  0  0  0
   -6.7750   17.2960  -33.6310 C   0  0  0  0  0  0  0  0  0  0  0  0
   -7.0020   16.1990  -33.9210 N   0  0  0  0  0  0  0  0  0  0  0  0
   -7.4930   19.4600  -32.6790 C   0  0  0  0  0  0  0  0  0  0  0  0
   -9.0790   18.7620  -32.3190 Cl  0  0  0  0  0  0  0  0  0  0  0  0
   -6.0740   23.4720  -33.0780 H   0  0  0  0  0  0  0  0  0  0  0  0
   -3.1112   22.3041  -31.9614 H   0  0  0  0  0  0  0  0  0  0  0  0
   -1.7576   23.1227  -30.0335 H   0  0  0  0  0  0  0  0  0  0  0  0
   -5.2331   25.1448  -28.4415 H   0  0  0  0  0  0  0  0  0  0  0  0
   -6.5961   24.3269  -30.3646 H   0  0  0  0  0  0  0  0  0  0  0  0
   -4.0209   21.0210  -33.5451 H   0  0  0  0  0  0  0  0  0  0  0  0
   -4.3210   18.1400  -35.1470 H   0  0  0  0  0  0  0  0  0  0  0  0
   -2.6157   16.2536  -34.4491 H   0  0  0  0  0  0  0  0  0  0  0  0
   -0.4222   15.8631  -33.3513 H   0  0  0  0  0  0  0  0  0  0  0  0
    1.4060   18.1420  -31.2680 H   0  0  0  0  0  0  0  0  0  0  0  0
   -0.9310   17.9976  -29.0761 H   0  0  0  0  0  0  0  0  0  0  0  0
    0.6018   18.7973  -28.5765 H   0  0  0  0  0  0  0  0  0  0  0  0
   -0.7113   17.9028  -26.6290 H   0  0  0  0  0  0  0  0  0  0  0  0
   -0.4751   19.6912  -26.5634 H   0  0  0  0  0  0  0  0  0  0  0  0
   -3.7845   20.4946  -27.4199 H   0  0  0  0  0  0  0  0  0  0  0  0
   -2.1359   21.0919  -26.9899 H   0  0  0  0  0  0  0  0  0  0  0  0
   -2.9597   19.7119  -29.5973 H   0  0  0  0  0  0  0  0  0  0  0  0
   -2.5340   21.4473  -29.3801 H   0  0  0  0  0  0  0  0  0  0  0  0
   -2.9369   20.0768  -32.4552 H   0  0  0  0  0  0  0  0  0  0  0  0
  1  2  3  0
  2  3  1  0
  3  4  2  0
  4  5  1  0
  5  6  1  0
  6  7  2  0
  7  8  1  0
  8  9  2  0
  9 10  1  0
  9 11  1  0
 11 12  2  0
  4 13  1  0
 13 14  2  0
 14 15  1  0
 15 16  1  0
 16 17  2  0
 17 18  1  0
 18 19  2  0
 19 20  1  0
 19 21  1  0
 21 22  1  0
 22 23  2  0
 22 24  2  0
 22 25  1  0
 25 26  1  0
 26 27  1  0
 27 28  1  0
 28 29  1  0
 29 30  1  0
 21 31  2  0
 14 32  1  0
 32 33  1  0
 33 34  3  0
 32 35  2  0
 35 36  1  0
 35  3  1  0
 12  6  1  0
 31 16  1  0
 30 25  1  0
  5 37  1  0
  7 38  1  0
  8 39  1  0
 11 40  1  0
 12 41  1  0
 13 42  1  0
 15 43  1  0
 17 44  1  0
 18 45  1  0
 20 46  1  0
 26 47  1  0
 26 48  1  0
 27 49  1  0
 27 50  1  0
 29 51  1  0
 29 52  1  0
 30 53  1  0
 30 54  1  0
 31 55  1  0
M  END
>  <UniqueID>  (31) 
31

>  <SMILES>  (31) 
N#Cc1c(Nc2ccc(Br)cc2)cc(Nc2ccc(O)c(S(=O)(=O)N3CCOCC3)c2)c(C#N)c1Cl

>  <Energy>  (31) 
83.01080587082893

>  <Genealogy>  (31) 
N#Cc1c(Nc2ccc(Br)cc2)cc(Nc2ccc(O)c(S(=O)(=O)N3CCOCC3)c2)c(C#N)c1Cl (3D coordinates assigned)
N#Cc1c(Nc2ccc(Br)cc2)cc(Nc2ccc(O)c(S(=O)(=O)N3CCOCC3)c2)c(C#N)c1Cl (nonaromatic ring conformer: 83.01080587082893 kcal/mol)

>  <smiles>  (31) 
N#Cc1c(Nc2ccc(Br)cc2)cc(Nc2ccc(O)c(S(=O)(=O)N3CCOCC3)c2)c(C#N)c1Cl

>  <score_type>  (31) 
oracle

>  <origin>  (31) 
adgpu

>  <m_score__min__energy>  (31) 
-11.01

>  <m_primary>  (31) 
energy

$$$$
31:0
     RDKit          3D

 47 50  0  0  0  0  0  0  0  0999 V2000
   -5.5680   25.6230  -31.0110 O   0  0  0  0  0  0  0  0  0  0  0  0
   -5.2670   24.4090  -31.1590 C   0  0  0  0  0  0  0  0  0  0  0  0
   -3.8920   24.0300  -31.0040 N   0  0  0  0  0  0  0  0  0  0  0  0
   -3.2700   23.3930  -29.8770 C   0  0  0  0  0  0  0  0  0  0  0  0
   -3.4310   23.9960  -28.6230 C   0  0  0  0  0  0  0  0  0  0  0  0
   -2.8820   23.4180  -27.4790 C   0  0  0  0  0  0  0  0  0  0  0  0
   -2.1490   22.2370  -27.5790 C   0  0  0  0  0  0  0  0  0  0  0  0
   -1.9480   21.6410  -28.8250 C   0  0  0  0  0  0  0  0  0  0  0  0
   -2.4920   22.2120  -29.9920 C   0  0  0  0  0  0  0  0  0  0  0  0
   -2.1900   21.6270  -31.2750 N   0  0  0  0  0  0  0  0  0  0  0  0
   -0.8010   21.2630  -31.5740 C   0  0  0  0  0  0  0  0  0  0  0  0
   -0.6150   21.1260  -33.0880 C   0  0  0  0  0  0  0  0  0  0  0  0
   -1.5710   20.2360  -33.6300 O   0  0  0  0  0  0  0  0  0  0  0  0
   -2.8680   20.7830  -33.4850 C   0  0  0  0  0  0  0  0  0  0  0  0
   -3.2450   20.9160  -32.0070 C   0  0  0  0  0  0  0  0  0  0  0  0
   -6.3540   23.4410  -31.4290 C   0  0  0  0  0  0  0  0  0  0  0  0
   -7.7090   23.7820  -31.3490 C   0  0  0  0  0  0  0  0  0  0  0  0
   -8.6690   22.8090  -31.5990 C   0  0  0  0  0  0  0  0  0  0  0  0
   -8.2700   21.5250  -31.9640 C   0  0  0  0  0  0  0  0  0  0  0  0
   -9.1450   20.6350  -32.1430 O   0  0  0  0  0  0  0  0  0  0  0  0
   -6.9350   21.2450  -32.1050 N   0  0  0  0  0  0  0  0  0  0  0  0
   -6.4650   19.9490  -32.5290 C   0  0  0  0  0  0  0  0  0  0  0  0
   -6.3110   18.9130  -31.5910 C   0  0  0  0  0  0  0  0  0  0  0  0
   -5.8370   17.6590  -31.9910 C   0  0  0  0  0  0  0  0  0  0  0  0
   -5.4970   17.4320  -33.3250 C   0  0  0  0  0  0  0  0  0  0  0  0
   -5.6230   18.4600  -34.2630 C   0  0  0  0  0  0  0  0  0  0  0  0
   -6.0970   19.7150  -33.8680 C   0  0  0  0  0  0  0  0  0  0  0  0
   -6.0220   22.1840  -31.8290 N   0  0  0  0  0  0  0  0  0  0  0  0
   -3.9967   24.9357  -28.5398 H   0  0  0  0  0  0  0  0  0  0  0  0
   -3.0274   23.8940  -26.4980 H   0  0  0  0  0  0  0  0  0  0  0  0
   -1.7281   21.7737  -26.6744 H   0  0  0  0  0  0  0  0  0  0  0  0
   -1.3583   20.7152  -28.8964 H   0  0  0  0  0  0  0  0  0  0  0  0
   -0.1283   22.0454  -31.1927 H   0  0  0  0  0  0  0  0  0  0  0  0
   -0.5649   20.3034  -31.0908 H   0  0  0  0  0  0  0  0  0  0  0  0
   -0.7341   22.1137  -33.5574 H   0  0  0  0  0  0  0  0  0  0  0  0
    0.3912   20.7283  -33.2864 H   0  0  0  0  0  0  0  0  0  0  0  0
   -2.8934   21.7778  -33.9537 H   0  0  0  0  0  0  0  0  0  0  0  0
   -3.5889   20.1095  -33.9715 H   0  0  0  0  0  0  0  0  0  0  0  0
   -4.1873   21.4771  -31.9218 H   0  0  0  0  0  0  0  0  0  0  0  0
   -3.3650   19.9110  -31.5761 H   0  0  0  0  0  0  0  0  0  0  0  0
   -8.0104   24.8080  -31.0913 H   0  0  0  0  0  0  0  0  0  0  0  0
   -9.7382   23.0512  -31.5092 H   0  0  0  0  0  0  0  0  0  0  0  0
   -6.5650   19.0897  -30.5354 H   0  0  0  0  0  0  0  0  0  0  0  0
   -5.7322   16.8505  -31.2525 H   0  0  0  0  0  0  0  0  0  0  0  0
   -5.1297   16.4436  -33.6384 H   0  0  0  0  0  0  0  0  0  0  0  0
   -5.3490   18.2819  -35.3133 H   0  0  0  0  0  0  0  0  0  0  0  0
   -6.1829   20.5244  -34.6079 H   0  0  0  0  0  0  0  0  0  0  0  0
  1  2  2  0
  2  3  1  0
  3  4  1  0
  4  5  2  0
  5  6  1  0
  6  7  2  0
  7  8  1  0
  8  9  2  0
  9 10  1  0
 10 11  1  0
 11 12  1  0
 12 13  1  0
 13 14  1  0
 14 15  1  0
  2 16  1  0
 16 17  1  0
 17 18  2  0
 18 19  1  0
 19 20  2  0
 19 21  1  0
 21 22  1  0
 22 23  2  0
 23 24  1  0
 24 25  2  0
 25 26  1  0
 26 27  2  0
 21 28  1  0
  9  4  1  0
 15 10  1  0
 28 16  2  0
 27 22  1  0
  5 29  1  0
  6 30  1  0
  7 31  1  0
  8 32  1  0
 11 33  1  0
 11 34  1  0
 12 35  1  0
 12 36  1  0
 14 37  1  0
 14 38  1  0
 15 39  1  0
 15 40  1  0
 17 41  1  0
 18 42  1  0
 23 43  1  0
 24 44  1  0
 25 45  1  0
 26 46  1  0
 27 47  1  0
M  CHG  1   3  -1
M  END
>  <UniqueID>  (32) 
32

>  <SMILES>  (32) 
O=C([N-]c1ccccc1N1CCOCC1)c1ccc(=O)n(-c2ccccc2)n1

>  <Energy>  (32) 
69.8375734806821

>  <Genealogy>  (32) 
O=C([N-]c1ccccc1N1CCOCC1)c1ccc(=O)n(-c2ccccc2)n1 (protonated)
O=C([N-]c1ccccc1N1CCOCC1)c1ccc(=O)n(-c2ccccc2)n1 (3D coordinates assigned)
O=C([N-]c1ccccc1N1CCOCC1)c1ccc(=O)n(-c2ccccc2)n1 (nonaromatic ring conformer: 69.8375734806821 kcal/mol)

>  <smiles>  (32) 
O=C(Nc1ccccc1N1CCOCC1)c1ccc(=O)n(-c2ccccc2)n1

>  <score_type>  (32) 
oracle

>  <origin>  (32) 
adgpu

>  <m_score__min__energy>  (32) 
-9.6400000000000006

>  <m_primary>  (32) 
energy

$$$$
32:0
     RDKit          3D

 36 38  0  0  0  0  0  0  0  0999 V2000
   -6.3230   24.5530  -30.8280 O   0  0  0  0  0  0  0  0  0  0  0  0
   -6.2100   23.5870  -31.6280 C   0  0  0  0  0  0  0  0  0  0  0  0
   -4.9820   23.4390  -32.3530 N   0  0  0  0  0  0  0  0  0  0  0  0
   -4.0220   22.3820  -32.2010 C   0  0  0  0  0  0  0  0  0  0  0  0
   -3.3400   21.8620  -33.3160 C   0  0  0  0  0  0  0  0  0  0  0  0
   -2.4560   20.7910  -33.1690 C   0  0  0  0  0  0  0  0  0  0  0  0
   -2.2400   20.2320  -31.9090 C   0  0  0  0  0  0  0  0  0  0  0  0
   -2.8880   20.7580  -30.7900 C   0  0  0  0  0  0  0  0  0  0  0  0
   -3.7500   21.8550  -30.9180 C   0  0  0  0  0  0  0  0  0  0  0  0
   -4.3800   22.3660  -29.7330 N   0  0  0  0  0  0  0  0  0  0  0  0
   -3.7390   22.6170  -28.4740 C   0  0  0  0  0  0  0  0  0  0  0  0
   -4.0760   21.9260  -27.4770 O   0  0  0  0  0  0  0  0  0  0  0  0
   -2.6700   23.6360  -28.3240 C   0  0  0  0  0  0  0  0  0  0  0  0
   -2.6020   24.7550  -29.1740 C   0  0  0  0  0  0  0  0  0  0  0  0
   -3.5160   24.9180  -30.2120 O   0  0  0  0  0  0  0  0  0  0  0  0
   -1.6210   25.6800  -28.9990 N   0  0  0  0  0  0  0  0  0  0  0  0
   -0.6890   25.5390  -28.0240 C   0  0  0  0  0  0  0  0  0  0  0  0
    0.2090   26.4100  -27.8810 O   0  0  0  0  0  0  0  0  0  0  0  0
   -0.7180   24.4570  -27.2060 N   0  0  0  0  0  0  0  0  0  0  0  0
   -1.6780   23.5050  -27.3350 C   0  0  0  0  0  0  0  0  0  0  0  0
   -1.6780   22.5220  -26.5480 O   0  0  0  0  0  0  0  0  0  0  0  0
   -7.3170   22.6090  -31.7500 C   0  0  0  0  0  0  0  0  0  0  0  0
   -7.0760   21.2270  -31.6840 C   0  0  0  0  0  0  0  0  0  0  0  0
   -8.1370   20.3260  -31.7960 C   0  0  0  0  0  0  0  0  0  0  0  0
   -9.4330   20.8120  -31.9640 C   0  0  0  0  0  0  0  0  0  0  0  0
   -9.6570   22.1520  -32.0110 N   0  0  0  0  0  0  0  0  0  0  0  0
   -8.6420   23.0510  -31.9040 C   0  0  0  0  0  0  0  0  0  0  0  0
   -3.5042   22.3021  -34.3107 H   0  0  0  0  0  0  0  0  0  0  0  0
   -1.9298   20.3879  -34.0469 H   0  0  0  0  0  0  0  0  0  0  0  0
   -1.5584   19.3759  -31.7973 H   0  0  0  0  0  0  0  0  0  0  0  0
   -2.7206   20.3078  -29.8004 H   0  0  0  0  0  0  0  0  0  0  0  0
   -4.1880   24.1940  -30.4320 H   0  0  0  0  0  0  0  0  0  0  0  0
   -6.0507   20.8540  -31.5440 H   0  0  0  0  0  0  0  0  0  0  0  0
   -7.9520   19.2426  -31.7521 H   0  0  0  0  0  0  0  0  0  0  0  0
  -10.2750   20.1105  -32.0586 H   0  0  0  0  0  0  0  0  0  0  0  0
   -8.8592   24.1288  -31.9382 H   0  0  0  0  0  0  0  0  0  0  0  0
  1  2  2  0
  2  3  1  0
  3  4  1  0
  4  5  2  0
  5  6  1  0
  6  7  2  0
  7  8  1  0
  8  9  2  0
  9 10  1  0
 10 11  1  0
 11 12  2  0
 11 13  1  0
 13 14  2  0
 14 15  1  0
 14 16  1  0
 16 17  1  0
 17 18  2  0
 17 19  1  0
 19 20  1  0
 20 21  2  0
  2 22  1  0
 22 23  2  0
 23 24  1  0
 24 25  2  0
 25 26  1  0
 26 27  2  0
  9  4  1  0
 20 13  1  0
 27 22  1  0
  5 28  1  0
  6 29  1  0
  7 30  1  0
  8 31  1  0
 15 32  1  0
 23 33  1  0
 24 34  1  0
 25 35  1  0
 27 36  1  0
M  CHG  4   3  -1  10  -1  16  -1  19  -1
M  END
>  <UniqueID>  (33) 
33

>  <SMILES>  (33) 
O=C([N-]c1ccccc1[N-]C(=O)c1c(O)[n-]c(=O)[n-]c1=O)c1cccnc1

>  <Energy>  (33) 
58.64134915172499

>  <Genealogy>  (33) 
O=C([N-]c1ccccc1[N-]C(=O)c1c(O)[n-]c(=O)[n-]c1=O)c1cccnc1 (protonated)
O=C([N-]c1ccccc1[N-]C(=O)c1c(O)[n-]c(=O)[n-]c1=O)c1cccnc1 (3D coordinates assigned)
O=C([N-]c1ccccc1[N-]C(=O)c1c(O)[n-]c(=O)[n-]c1=O)c1cccnc1 (optimized conformer: 58.64134915172499 kcal/mol)

>  <smiles>  (33) 
O=C(Nc1ccccc1NC(=O)c1c(O)[nH]c(=O)[nH]c1=O)c1cccnc1

>  <score_type>  (33) 
oracle

>  <origin>  (33) 
adgpu

>  <m_score__min__energy>  (33) 
-10.57

>  <m_primary>  (33) 
energy

$$$$
33:0
     RDKit          3D

 47 50  0  0  0  0  0  0  0  0999 V2000
   -1.3084   22.4363  -26.1990 H   0  0  0  0  0  0  0  0  0  0  0  0
   -1.8410   22.8500  -27.0680 C   0  0  0  0  0  0  0  0  0  0  0  0
   -2.9540   22.1850  -27.5850 C   0  0  0  0  0  0  0  0  0  0  0  0
   -3.2992   21.2485  -27.1227 H   0  0  0  0  0  0  0  0  0  0  0  0
   -3.6300   22.7100  -28.6910 C   0  0  0  0  0  0  0  0  0  0  0  0
   -4.5137   22.1880  -29.0868 H   0  0  0  0  0  0  0  0  0  0  0  0
   -3.1910   23.9010  -29.3040 C   0  0  0  0  0  0  0  0  0  0  0  0
   -3.9080   24.4150  -30.4950 C   0  0  0  0  0  0  0  0  0  0  0  0
   -4.1690   25.6460  -30.5850 O   0  0  0  0  0  0  0  0  0  0  0  0
   -4.3090   23.5200  -31.5410 N   0  0  0  0  0  0  0  0  0  0  0  0
   -5.6150   22.9420  -31.6670 C   0  0  0  0  0  0  0  0  0  0  0  0
   -6.6840   23.7980  -31.9700 C   0  0  0  0  0  0  0  0  0  0  0  0
   -6.4883   24.8577  -32.1906 H   0  0  0  0  0  0  0  0  0  0  0  0
   -7.9930   23.3170  -31.9940 C   0  0  0  0  0  0  0  0  0  0  0  0
   -8.8239   23.9960  -32.2360 H   0  0  0  0  0  0  0  0  0  0  0  0
   -8.2490   21.9740  -31.7110 C   0  0  0  0  0  0  0  0  0  0  0  0
   -9.2838   21.6010  -31.7022 H   0  0  0  0  0  0  0  0  0  0  0  0
   -7.1900   21.1040  -31.4390 C   0  0  0  0  0  0  0  0  0  0  0  0
   -7.3984   20.0502  -31.2020 H   0  0  0  0  0  0  0  0  0  0  0  0
   -5.8620   21.5610  -31.4650 C   0  0  0  0  0  0  0  0  0  0  0  0
   -4.5300   20.3620  -31.2170 S   0  0  0  0  0  0  0  0  0  0  0  0
   -4.8550   19.3890  -32.7090 C   0  0  0  0  0  0  0  0  0  0  0  0
   -6.1600   18.9070  -32.9040 C   0  0  0  0  0  0  0  0  0  0  0  0
   -6.9467   19.1624  -32.1789 H   0  0  0  0  0  0  0  0  0  0  0  0
   -6.4720   18.1080  -34.0060 C   0  0  0  0  0  0  0  0  0  0  0  0
   -7.5042   17.7596  -34.1580 H   0  0  0  0  0  0  0  0  0  0  0  0
   -5.4760   17.7520  -34.9130 C   0  0  0  0  0  0  0  0  0  0  0  0
   -5.7256   17.1372  -35.7903 H   0  0  0  0  0  0  0  0  0  0  0  0
   -4.1620   18.1750  -34.7090 C   0  0  0  0  0  0  0  0  0  0  0  0
   -3.3767   17.8694  -35.4161 H   0  0  0  0  0  0  0  0  0  0  0  0
   -3.8290   18.9890  -33.6080 C   0  0  0  0  0  0  0  0  0  0  0  0
   -2.4070   19.3380  -33.4040 C   0  0  0  0  0  0  0  0  0  0  0  0
   -1.6310   18.5110  -32.8590 O   0  0  0  0  0  0  0  0  0  0  0  0
   -1.9270   20.6260  -33.8350 N   0  0  0  0  0  0  0  0  0  0  0  0
   -0.7180   20.9290  -34.2160 C   0  0  0  0  0  0  0  0  0  0  0  0
   -0.3880   22.1710  -34.6370 N   0  0  0  0  0  0  0  0  0  0  0  0
    0.8920   22.2840  -34.9930 N   0  0  0  0  0  0  0  0  0  0  0  0
    1.5940   21.1350  -34.8380 C   0  0  0  0  0  0  0  0  0  0  0  0
    3.0150   20.9750  -35.2530 C   0  0  0  0  0  0  0  0  0  0  0  0
    3.6522   20.9033  -34.3592 H   0  0  0  0  0  0  0  0  0  0  0  0
    3.1208   20.0593  -35.8532 H   0  0  0  0  0  0  0  0  0  0  0  0
    3.3218   21.8443  -35.8532 H   0  0  0  0  0  0  0  0  0  0  0  0
    0.6140   19.8890  -34.2690 S   0  0  0  0  0  0  0  0  0  0  0  0
   -2.0670   24.5690  -28.7690 C   0  0  0  0  0  0  0  0  0  0  0  0
   -1.6090   25.7600  -29.3210 O   0  0  0  0  0  0  0  0  0  0  0  0
   -1.4030   24.0400  -27.6530 C   0  0  0  0  0  0  0  0  0  0  0  0
   -0.5315   24.5657  -27.2357 H   0  0  0  0  0  0  0  0  0  0  0  0
  1  2  1  0
  2  3  2  0
  3  4  1  0
  3  5  1  0
  5  6  1  0
  5  7  2  0
  7  8  1  0
  8  9  2  0
  8 10  1  0
 10 11  1  0
 11 12  2  0
 12 13  1  0
 12 14  1  0
 14 15  1  0
 14 16  2  0
 16 17  1  0
 16 18  1  0
 18 19  1  0
 18 20  2  0
 20 21  1  0
 21 22  1  0
 22 23  2  0
 23 24  1  0
 23 25  1  0
 25 26  1  0
 25 27  2  0
 27 28  1  0
 27 29  1  0
 29 30  1  0
 29 31  2  0
 31 32  1  0
 32 33  2  0
 32 34  1  0
 34 35  2  0
 35 36  1  0
 36 37  1  0
 37 38  2  0
 38 39  1  0
 39 40  1  0
 39 41  1  0
 39 42  1  0
 38 43  1  0
  7 44  1  0
 44 45  1  0
 44 46  2  0
 46 47  1  0
 46  2  1  0
 20 11  1  0
 31 22  1  0
 43 35  1  0
M  CHG  3  10  -1  36  -1  45  -1
M  END
>  <UniqueID>  (34) 
34

>  <SMILES>  (34) 
Cc1n[n-]/c(=N/C(=O)c2ccccc2Sc2ccccc2[N-]C(=O)c2ccccc2[O-])s1

>  <Energy>  (34) 
98.84318027986481

>  <Genealogy>  (34) 
Cc1n[n-]c(=NC(=O)c2ccccc2Sc2ccccc2[N-]C(=O)c2ccccc2[O-])s1 (protonated)
Cc1n[n-]/c(=N/C(=O)c2ccccc2Sc2ccccc2[N-]C(=O)c2ccccc2[O-])s1 (cis-trans isomerization)
Cc1n[n-]/c(=N/C(=O)c2ccccc2Sc2ccccc2[N-]C(=O)c2ccccc2[O-])s1 (3D coordinates assigned)
Cc1n[n-]/c(=N/C(=O)c2ccccc2Sc2ccccc2[N-]C(=O)c2ccccc2[O-])s1 (optimized conformer: 98.84318027986481 kcal/mol)

>  <smiles>  (34) 
Cc1n[nH]c(=NC(=O)c2ccccc2Sc2ccccc2NC(=O)c2ccccc2O)s1

>  <score_type>  (34) 
oracle

>  <origin>  (34) 
adgpu

>  <m_score__min__energy>  (34) 
-15.119999999999999

>  <m_primary>  (34) 
energy

$$$$
34:0
     RDKit          3D

 39 40  0  0  0  0  0  0  0  0999 V2000
   -4.2810   25.3560  -30.8460 N   0  0  0  0  0  0  0  0  0  0  0  0
   -3.5710   24.0690  -29.9390 S   0  0  0  0  0  0  0  0  0  0  0  0
   -2.1510   24.4190  -29.5940 O   0  0  0  0  0  0  0  0  0  0  0  0
   -4.3420   23.8730  -28.6630 O   0  0  0  0  0  0  0  0  0  0  0  0
   -3.6060   22.5890  -30.8920 C   0  0  0  0  0  0  0  0  0  0  0  0
   -3.4740   22.6490  -32.2850 C   0  0  0  0  0  0  0  0  0  0  0  0
   -3.5180   21.4780  -33.0480 C   0  0  0  0  0  0  0  0  0  0  0  0
   -3.7090   20.2340  -32.4250 C   0  0  0  0  0  0  0  0  0  0  0  0
   -3.7750   18.9720  -33.2450 C   0  0  0  0  0  0  0  0  0  0  0  0
   -4.8230   18.0690  -32.7600 N   0  0  0  0  0  0  0  0  0  0  0  0
   -6.3420   18.3480  -33.5670 S   0  0  0  0  0  0  0  0  0  0  0  0
   -7.1430   17.0760  -33.5740 O   0  0  0  0  0  0  0  0  0  0  0  0
   -6.0720   18.7430  -34.9920 O   0  0  0  0  0  0  0  0  0  0  0  0
   -7.2570   19.6380  -32.7890 C   0  0  0  0  0  0  0  0  0  0  0  0
   -8.6190   19.4580  -32.5230 C   0  0  0  0  0  0  0  0  0  0  0  0
   -9.3610   20.4840  -31.9340 C   0  0  0  0  0  0  0  0  0  0  0  0
   -8.7480   21.6980  -31.6130 C   0  0  0  0  0  0  0  0  0  0  0  0
   -7.3820   21.8980  -31.8780 C   0  0  0  0  0  0  0  0  0  0  0  0
   -6.7230   23.1870  -31.5480 C   0  0  0  0  0  0  0  0  0  0  0  0
   -6.5280   23.5570  -30.1780 N   0  0  0  0  0  0  0  0  0  0  0  0
   -6.3110   23.9820  -32.4900 N   0  0  0  0  0  0  0  0  0  0  0  0
   -6.6410   20.8560  -32.4620 C   0  0  0  0  0  0  0  0  0  0  0  0
   -3.8350   20.1770  -31.0280 C   0  0  0  0  0  0  0  0  0  0  0  0
   -3.7890   21.3480  -30.2670 C   0  0  0  0  0  0  0  0  0  0  0  0
   -3.4950   25.9350  -31.2190 H   0  0  0  0  0  0  0  0  0  0  0  0
   -3.3352   23.6211  -32.7808 H   0  0  0  0  0  0  0  0  0  0  0  0
   -3.4025   21.5315  -34.1406 H   0  0  0  0  0  0  0  0  0  0  0  0
   -3.9875   19.2366  -34.2913 H   0  0  0  0  0  0  0  0  0  0  0  0
   -2.8079   18.4548  -33.1599 H   0  0  0  0  0  0  0  0  0  0  0  0
   -9.1065   18.5056  -32.7786 H   0  0  0  0  0  0  0  0  0  0  0  0
  -10.4303   20.3362  -31.7223 H   0  0  0  0  0  0  0  0  0  0  0  0
   -9.3382   22.5025  -31.1499 H   0  0  0  0  0  0  0  0  0  0  0  0
   -6.9250   22.9830  -29.4020 H   0  0  0  0  0  0  0  0  0  0  0  0
   -6.0230   24.4370  -29.9280 H   0  0  0  0  0  0  0  0  0  0  0  0
   -5.8490   24.8900  -32.2590 H   0  0  0  0  0  0  0  0  0  0  0  0
   -6.4010   23.7310  -33.5000 H   0  0  0  0  0  0  0  0  0  0  0  0
   -5.5690   20.9964  -32.6645 H   0  0  0  0  0  0  0  0  0  0  0  0
   -3.9706   19.2056  -30.5299 H   0  0  0  0  0  0  0  0  0  0  0  0
   -3.8968   21.2956  -29.1735 H   0  0  0  0  0  0  0  0  0  0  0  0
  1  2  1  0
  2  3  2  0
  2  4  2  0
  2  5  1  0
  5  6  2  0
  6  7  1  0
  7  8  2  0
  8  9  1  0
  9 10  1  0
 10 11  1  0
 11 12  2  0
 11 13  2  0
 11 14  1  0
 14 15  2  0
 15 16  1  0
 16 17  2  0
 17 18  1  0
 18 19  1  0
 19 20  1  0
 19 21  2  0
 18 22  2  0
  8 23  1  0
 23 24  2  0
 24  5  1  0
 22 14  1  0
  1 25  1  0
  6 26  1  0
  7 27  1  0
  9 28  1  0
  9 29  1  0
 15 30  1  0
 16 31  1  0
 17 32  1  0
 20 33  1  0
 20 34  1  0
 21 35  1  0
 21 36  1  0
 22 37  1  0
 23 38  1  0
 24 39  1  0
M  CHG  3   1  -1  10  -1  21   1
M  END
>  <UniqueID>  (35) 
35

>  <SMILES>  (35) 
[NH-]S(=O)(=O)c1ccc(C[N-]S(=O)(=O)c2cccc(C(N)=[NH2+])c2)cc1

>  <Energy>  (35) 
39.17638405335961

>  <Genealogy>  (35) 
[NH-]S(=O)(=O)c1ccc(C[N-]S(=O)(=O)c2cccc(C(N)=[NH2+])c2)cc1 (protonated)
[NH-]S(=O)(=O)c1ccc(C[N-]S(=O)(=O)c2cccc(C(N)=[NH2+])c2)cc1 (3D coordinates assigned)
[NH-]S(=O)(=O)c1ccc(C[N-]S(=O)(=O)c2cccc(C(N)=[NH2+])c2)cc1 (optimized conformer: 39.17638405335961 kcal/mol)

>  <smiles>  (35) 
N=C(N)c1cccc(S(=O)(=O)NCc2ccc(S(N)(=O)=O)cc2)c1

>  <score_type>  (35) 
oracle

>  <origin>  (35) 
adgpu

>  <m_score__min__energy>  (35) 
-9.9299999999999997

>  <m_primary>  (35) 
energy

$$$$
35:0
     RDKit          3D

 59 62  0  0  0  0  0  0  0  0999 V2000
   -2.1700   18.8470  -26.7360 C   0  0  0  0  0  0  0  0  0  0  0  0
   -1.2810   19.5210  -27.6820 N   0  0  0  0  0  0  0  0  0  0  0  0
   -1.5730   20.8620  -28.1190 C   0  0  0  0  0  0  0  0  0  0  0  0
   -0.6210   21.6010  -28.8440 C   0  0  0  0  0  0  0  0  0  0  0  0
   -0.8940   22.9110  -29.2440 C   0  0  0  0  0  0  0  0  0  0  0  0
   -2.1170   23.5160  -28.9140 C   0  0  0  0  0  0  0  0  0  0  0  0
   -2.3790   24.9210  -29.3020 C   0  0  0  0  0  0  0  0  0  0  0  0
   -1.5820   25.8210  -28.9290 O   0  0  0  0  0  0  0  0  0  0  0  0
   -3.4960   25.2890  -30.1250 N   0  0  0  0  0  0  0  0  0  0  0  0
   -4.5540   24.4230  -30.5640 C   0  0  0  0  0  0  0  0  0  0  0  0
   -5.8810   24.8100  -30.3430 C   0  0  0  0  0  0  0  0  0  0  0  0
   -6.9340   23.9880  -30.7550 C   0  0  0  0  0  0  0  0  0  0  0  0
   -6.6680   22.7710  -31.3860 C   0  0  0  0  0  0  0  0  0  0  0  0
   -5.3440   22.3640  -31.5990 C   0  0  0  0  0  0  0  0  0  0  0  0
   -5.0140   20.8270  -32.3950 S   0  0  0  0  0  0  0  0  0  0  0  0
   -4.6290   19.8030  -31.3640 O   0  0  0  0  0  0  0  0  0  0  0  0
   -3.8550   21.0140  -33.3360 O   0  0  0  0  0  0  0  0  0  0  0  0
   -6.4360   20.3090  -33.2800 N   0  0  0  0  0  0  0  0  0  0  0  0
   -7.5670   19.9880  -32.3630 C   0  0  0  0  0  0  0  0  0  0  0  0
   -8.0050   18.5130  -32.3950 C   0  0  0  0  0  0  0  0  0  0  0  0
   -6.7890   17.5890  -32.3810 C   0  0  0  0  0  0  0  0  0  0  0  0
   -5.8340   17.8800  -33.5510 C   0  0  0  0  0  0  0  0  0  0  0  0
   -6.1090   19.2310  -34.2390 C   0  0  0  0  0  0  0  0  0  0  0  0
   -4.2900   23.1790  -31.1660 C   0  0  0  0  0  0  0  0  0  0  0  0
   -3.0770   22.7730  -28.2090 C   0  0  0  0  0  0  0  0  0  0  0  0
   -2.8050   21.4620  -27.8070 C   0  0  0  0  0  0  0  0  0  0  0  0
    0.1600   18.7060  -28.2190 S   0  0  0  0  0  0  0  0  0  0  0  0
    0.0510   17.2410  -27.9040 O   0  0  0  0  0  0  0  0  0  0  0  0
    1.3670   19.2720  -27.5250 O   0  0  0  0  0  0  0  0  0  0  0  0
    0.3640   18.9320  -29.9450 C   0  0  0  0  0  0  0  0  0  0  0  0
    1.5760   18.9390  -30.6180 C   0  0  0  0  0  0  0  0  0  0  0  0
    1.4340   19.1700  -31.9910 C   0  0  0  0  0  0  0  0  0  0  0  0
    0.1170   19.3460  -32.3940 C   0  0  0  0  0  0  0  0  0  0  0  0
   -0.8760   19.2170  -31.0420 S   0  0  0  0  0  0  0  0  0  0  0  0
   -1.8584   19.0833  -25.7079 H   0  0  0  0  0  0  0  0  0  0  0  0
   -3.2027   19.1911  -26.8944 H   0  0  0  0  0  0  0  0  0  0  0  0
   -2.1175   17.7597  -26.8944 H   0  0  0  0  0  0  0  0  0  0  0  0
    0.3465   21.1435  -29.0981 H   0  0  0  0  0  0  0  0  0  0  0  0
   -0.1453   23.4727  -29.8218 H   0  0  0  0  0  0  0  0  0  0  0  0
   -6.0963   25.7657  -29.8427 H   0  0  0  0  0  0  0  0  0  0  0  0
   -7.9743   24.3005  -30.5818 H   0  0  0  0  0  0  0  0  0  0  0  0
   -7.4991   22.1307  -31.7164 H   0  0  0  0  0  0  0  0  0  0  0  0
   -6.7210   21.1380  -33.8540 H   0  0  0  0  0  0  0  0  0  0  0  0
   -7.2593   20.2344  -31.3361 H   0  0  0  0  0  0  0  0  0  0  0  0
   -8.4285   20.5813  -32.7033 H   0  0  0  0  0  0  0  0  0  0  0  0
   -8.6289   18.3023  -31.5139 H   0  0  0  0  0  0  0  0  0  0  0  0
   -8.5755   18.3332  -33.3181 H   0  0  0  0  0  0  0  0  0  0  0  0
   -6.2458   17.7304  -31.4350 H   0  0  0  0  0  0  0  0  0  0  0  0
   -7.1464   16.5536  -32.4822 H   0  0  0  0  0  0  0  0  0  0  0  0
   -4.8032   17.8868  -33.1672 H   0  0  0  0  0  0  0  0  0  0  0  0
   -5.9903   17.0929  -34.3033 H   0  0  0  0  0  0  0  0  0  0  0  0
   -5.2133   19.5251  -34.8057 H   0  0  0  0  0  0  0  0  0  0  0  0
   -6.9820   19.0961  -34.8945 H   0  0  0  0  0  0  0  0  0  0  0  0
   -3.2503   22.8445  -31.2974 H   0  0  0  0  0  0  0  0  0  0  0  0
   -4.0508   23.2259  -27.9710 H   0  0  0  0  0  0  0  0  0  0  0  0
   -3.5606   20.8960  -27.2425 H   0  0  0  0  0  0  0  0  0  0  0  0
    2.5464   18.7799  -30.1251 H   0  0  0  0  0  0  0  0  0  0  0  0
    2.2859   19.2085  -32.6858 H   0  0  0  0  0  0  0  0  0  0  0  0
   -0.2202   19.5374  -33.4234 H   0  0  0  0  0  0  0  0  0  0  0  0
  1  2  1  0
  2  3  1  0
  3  4  2  0
  4  5  1  0
  5  6  2  0
  6  7  1  0
  7  8  2  0
  7  9  1  0
  9 10  1  0
 10 11  2  0
 11 12  1  0
 12 13  2  0
 13 14  1  0
 14 15  1  0
 15 16  2  0
 15 17  2  0
 15 18  1  0
 18 19  1  0
 19 20  1  0
 20 21  1  0
 21 22  1  0
 22 23  1  0
 14 24  2  0
  6 25  1  0
 25 26  2  0
  2 27  1  0
 27 28  2  0
 27 29  2  0
 27 30  1  0
 30 31  2  0
 31 32  1  0
 32 33  2  0
 33 34  1  0
 26  3  1  0
 34 30  1  0
 24 10  1  0
 23 18  1  0
  1 35  1  0
  1 36  1  0
  1 37  1  0
  4 38  1  0
  5 39  1  0
 11 40  1  0
 12 41  1  0
 13 42  1  0
 18 43  1  0
 19 44  1  0
 19 45  1  0
 20 46  1  0
 20 47  1  0
 21 48  1  0
 21 49  1  0
 22 50  1  0
 22 51  1  0
 23 52  1  0
 23 53  1  0
 24 54  1  0
 25 55  1  0
 26 56  1  0
 31 57  1  0
 32 58  1  0
 33 59  1  0
M  CHG  2   9  -1  18   1
M  END
>  <UniqueID>  (36) 
36

>  <SMILES>  (36) 
CN(c1ccc(C(=O)[N-]c2cccc(S(=O)(=O)[NH+]3CCCCC3)c2)cc1)S(=O)(=O)c1cccs1

>  <Energy>  (36) 
105.37877688831374

>  <Genealogy>  (36) 
CN(c1ccc(C(=O)[N-]c2cccc(S(=O)(=O)[NH+]3CCCCC3)c2)cc1)S(=O)(=O)c1cccs1 (protonated)
CN(c1ccc(C(=O)[N-]c2cccc(S(=O)(=O)[NH+]3CCCCC3)c2)cc1)S(=O)(=O)c1cccs1 (3D coordinates assigned)
CN(c1ccc(C(=O)[N-]c2cccc(S(=O)(=O)[NH+]3CCCCC3)c2)cc1)S(=O)(=O)c1cccs1 (nonaromatic ring conformer: 105.37877688831374 kcal/mol)

>  <smiles>  (36) 
CN(c1ccc(C(=O)Nc2cccc(S(=O)(=O)N3CCCCC3)c2)cc1)S(=O)(=O)c1cccs1

>  <score_type>  (36) 
oracle

>  <origin>  (36) 
adgpu

>  <m_score__min__energy>  (36) 
-12.300000000000001

>  <m_primary>  (36) 
energy

$$$$
36:0
     RDKit          3D

 49 52  0  0  0  0  0  0  0  0999 V2000
   -7.6360   25.6650  -29.3950 O   0  0  0  0  0  0  0  0  0  0  0  0
   -7.0380   24.9270  -30.2190 C   0  0  0  0  0  0  0  0  0  0  0  0
   -7.8020   24.1930  -31.1840 N   0  0  0  0  0  0  0  0  0  0  0  0
   -7.6960   22.7790  -31.3880 C   0  0  0  0  0  0  0  0  0  0  0  0
   -6.4380   22.2080  -31.6040 C   0  0  0  0  0  0  0  0  0  0  0  0
   -6.3220   20.8370  -31.8480 C   0  0  0  0  0  0  0  0  0  0  0  0
   -7.4610   20.0190  -31.8560 C   0  0  0  0  0  0  0  0  0  0  0  0
   -7.3110   18.2850  -32.1700 S   0  0  0  0  0  0  0  0  0  0  0  0
   -6.3500   17.7040  -31.1700 O   0  0  0  0  0  0  0  0  0  0  0  0
   -8.6480   17.6350  -31.9460 O   0  0  0  0  0  0  0  0  0  0  0  0
   -6.7200   17.9160  -33.7800 N   0  0  0  0  0  0  0  0  0  0  0  0
   -6.1930   16.5370  -33.9190 C   0  0  0  0  0  0  0  0  0  0  0  0
   -4.7170   16.4730  -34.3480 C   0  0  0  0  0  0  0  0  0  0  0  0
   -3.8930   17.5240  -33.6100 C   0  0  0  0  0  0  0  0  0  0  0  0
   -4.4230   18.9440  -33.8600 C   0  0  0  0  0  0  0  0  0  0  0  0
   -5.8770   18.9770  -34.3630 C   0  0  0  0  0  0  0  0  0  0  0  0
   -8.7120   20.5800  -31.5680 C   0  0  0  0  0  0  0  0  0  0  0  0
   -8.8340   21.9560  -31.3540 C   0  0  0  0  0  0  0  0  0  0  0  0
   -5.5710   24.7920  -30.1380 C   0  0  0  0  0  0  0  0  0  0  0  0
   -4.8490   24.3590  -29.0450 C   0  0  0  0  0  0  0  0  0  0  0  0
   -3.5320   24.4450  -29.4550 C   0  0  0  0  0  0  0  0  0  0  0  0
   -2.3370   24.1030  -28.6480 C   0  0  0  0  0  0  0  0  0  0  0  0
   -2.2970   22.8960  -27.9200 C   0  0  0  0  0  0  0  0  0  0  0  0
   -1.1690   22.5550  -27.1680 C   0  0  0  0  0  0  0  0  0  0  0  0
   -0.0700   23.4140  -27.1270 C   0  0  0  0  0  0  0  0  0  0  0  0
   -0.0970   24.6170  -27.8350 C   0  0  0  0  0  0  0  0  0  0  0  0
   -1.2190   24.9650  -28.5950 C   0  0  0  0  0  0  0  0  0  0  0  0
   -1.2040   26.1620  -29.3030 O   0  0  0  0  0  0  0  0  0  0  0  0
   -3.4900   24.9110  -30.7200 N   0  0  0  0  0  0  0  0  0  0  0  0
   -4.7300   25.1300  -31.1320 N   0  0  0  0  0  0  0  0  0  0  0  0
   -5.5376   22.8395  -31.5818 H   0  0  0  0  0  0  0  0  0  0  0  0
   -5.3314   20.3968  -32.0349 H   0  0  0  0  0  0  0  0  0  0  0  0
   -6.2939   16.0284  -32.9488 H   0  0  0  0  0  0  0  0  0  0  0  0
   -6.7775   16.0509  -34.7140 H   0  0  0  0  0  0  0  0  0  0  0  0
   -4.3174   15.4743  -34.1179 H   0  0  0  0  0  0  0  0  0  0  0  0
   -4.6546   16.6703  -35.4284 H   0  0  0  0  0  0  0  0  0  0  0  0
   -3.9326   17.3141  -32.5309 H   0  0  0  0  0  0  0  0  0  0  0  0
   -2.8602   17.4738  -33.9852 H   0  0  0  0  0  0  0  0  0  0  0  0
   -4.3681   19.5072  -32.9167 H   0  0  0  0  0  0  0  0  0  0  0  0
   -3.7978   19.3885  -34.6484 H   0  0  0  0  0  0  0  0  0  0  0  0
   -6.3142   19.9525  -34.1036 H   0  0  0  0  0  0  0  0  0  0  0  0
   -5.8497   18.8112  -35.4501 H   0  0  0  0  0  0  0  0  0  0  0  0
   -9.6014   19.9354  -31.5101 H   0  0  0  0  0  0  0  0  0  0  0  0
   -9.8233   22.3954  -31.1585 H   0  0  0  0  0  0  0  0  0  0  0  0
   -5.2334   24.0225  -28.0708 H   0  0  0  0  0  0  0  0  0  0  0  0
   -3.1616   22.2163  -27.9441 H   0  0  0  0  0  0  0  0  0  0  0  0
   -1.1477   21.6085  -26.6079 H   0  0  0  0  0  0  0  0  0  0  0  0
    0.8178   23.1432  -26.5367 H   0  0  0  0  0  0  0  0  0  0  0  0
    0.7684   25.2948  -27.7951 H   0  0  0  0  0  0  0  0  0  0  0  0
  1  2  2  0
  2  3  1  0
  3  4  1  0
  4  5  2  0
  5  6  1  0
  6  7  2  0
  7  8  1  0
  8  9  2  0
  8 10  2  0
  8 11  1  0
 11 12  1  0
 12 13  1  0
 13 14  1  0
 14 15  1  0
 15 16  1  0
  7 17  1  0
 17 18  2  0
  2 19  1  0
 19 20  1  0
 20 21  2  0
 21 22  1  0
 22 23  2  0
 23 24  1  0
 24 25  2  0
 25 26  1  0
 26 27  2  0
 27 28  1  0
 21 29  1  0
 29 30  1  0
 18  4  1  0
 30 19  2  0
 16 11  1  0
 27 22  1  0
  5 31  1  0
  6 32  1  0
 12 33  1  0
 12 34  1  0
 13 35  1  0
 13 36  1  0
 14 37  1  0
 14 38  1  0
 15 39  1  0
 15 40  1  0
 16 41  1  0
 16 42  1  0
 17 43  1  0
 18 44  1  0
 20 45  1  0
 23 46  1  0
 24 47  1  0
 25 48  1  0
 26 49  1  0
M  CHG  3   3  -1  28  -1  29  -1
M  END
>  <UniqueID>  (37) 
37

>  <SMILES>  (37) 
O=C([N-]c1ccc(S(=O)(=O)N2CCCCC2)cc1)c1cc(-c2ccccc2[O-])[n-]n1

>  <Energy>  (37) 
95.49572645607473

>  <Genealogy>  (37) 
O=C([N-]c1ccc(S(=O)(=O)N2CCCCC2)cc1)c1cc(-c2ccccc2[O-])[n-]n1 (protonated)
O=C([N-]c1ccc(S(=O)(=O)N2CCCCC2)cc1)c1cc(-c2ccccc2[O-])[n-]n1 (3D coordinates assigned)
O=C([N-]c1ccc(S(=O)(=O)N2CCCCC2)cc1)c1cc(-c2ccccc2[O-])[n-]n1 (nonaromatic ring conformer: 95.49572645607473 kcal/mol)

>  <smiles>  (37) 
O=C(Nc1ccc(S(=O)(=O)N2CCCCC2)cc1)c1cc(-c2ccccc2O)[nH]n1

>  <score_type>  (37) 
oracle

>  <origin>  (37) 
adgpu

>  <m_score__min__energy>  (37) 
-15.42

>  <m_primary>  (37) 
energy

$$$$
37:0
     RDKit          3D

 49 51  0  0  0  0  0  0  0  0999 V2000
   -6.1970   25.5550  -30.0320 C   0  0  0  0  0  0  0  0  0  0  0  0
   -5.5100   24.3340  -30.5760 C   0  0  0  0  0  0  0  0  0  0  0  0
   -6.2800   23.2270  -30.9850 C   0  0  0  0  0  0  0  0  0  0  0  0
   -5.6410   22.0560  -31.4380 C   0  0  0  0  0  0  0  0  0  0  0  0
   -6.4540   20.8760  -31.8920 C   0  0  0  0  0  0  0  0  0  0  0  0
   -5.5810   19.7470  -32.2250 N   0  0  0  0  0  0  0  0  0  0  0  0
   -6.0680   18.6320  -32.9720 C   0  0  0  0  0  0  0  0  0  0  0  0
   -5.5870   17.8420  -34.0020 C   0  0  0  0  0  0  0  0  0  0  0  0
   -4.4260   17.8270  -34.8360 N   0  0  0  0  0  0  0  0  0  0  0  0
   -3.0940   17.9900  -34.3180 C   0  0  0  0  0  0  0  0  0  0  0  0
   -2.2100   16.8930  -34.3550 C   0  0  0  0  0  0  0  0  0  0  0  0
   -0.9120   17.0170  -33.8490 C   0  0  0  0  0  0  0  0  0  0  0  0
   -0.4810   18.2400  -33.3010 C   0  0  0  0  0  0  0  0  0  0  0  0
   -1.3340   19.3550  -33.2860 C   0  0  0  0  0  0  0  0  0  0  0  0
   -0.8520   20.6190  -32.7010 C   0  0  0  0  0  0  0  0  0  0  0  0
   -0.5020   21.5530  -33.4820 O   0  0  0  0  0  0  0  0  0  0  0  0
   -0.7200   20.7920  -31.2760 N   0  0  0  0  0  0  0  0  0  0  0  0
   -0.8920   19.6460  -30.3640 C   0  0  0  0  0  0  0  0  0  0  0  0
   -0.3190   22.1030  -30.7530 C   0  0  0  0  0  0  0  0  0  0  0  0
   -2.6460   19.2420  -33.8050 C   0  0  0  0  0  0  0  0  0  0  0  0
   -3.4960   20.3590  -33.8580 O   0  0  0  0  0  0  0  0  0  0  0  0
   -6.7180   17.0580  -33.9170 C   0  0  0  0  0  0  0  0  0  0  0  0
   -7.1290   16.0380  -34.5180 O   0  0  0  0  0  0  0  0  0  0  0  0
   -7.2230   17.8700  -32.9310 C   0  0  0  0  0  0  0  0  0  0  0  0
   -8.2840   17.8930  -32.2530 O   0  0  0  0  0  0  0  0  0  0  0  0
   -4.2270   22.0040  -31.4990 C   0  0  0  0  0  0  0  0  0  0  0  0
   -3.4720   23.0890  -31.0630 C   0  0  0  0  0  0  0  0  0  0  0  0
   -4.1150   24.2450  -30.5830 C   0  0  0  0  0  0  0  0  0  0  0  0
   -3.3470   25.2950  -30.1060 O   0  0  0  0  0  0  0  0  0  0  0  0
   -6.1805   25.5257  -28.9325 H   0  0  0  0  0  0  0  0  0  0  0  0
   -5.6739   26.4569  -30.3827 H   0  0  0  0  0  0  0  0  0  0  0  0
   -7.2394   25.5761  -30.3827 H   0  0  0  0  0  0  0  0  0  0  0  0
   -7.3783   23.2771  -30.9506 H   0  0  0  0  0  0  0  0  0  0  0  0
   -7.1398   20.5774  -31.0854 H   0  0  0  0  0  0  0  0  0  0  0  0
   -7.0235   21.1611  -32.7889 H   0  0  0  0  0  0  0  0  0  0  0  0
   -4.5480   19.8950  -32.1990 H   0  0  0  0  0  0  0  0  0  0  0  0
   -4.5550   17.6940  -35.8650 H   0  0  0  0  0  0  0  0  0  0  0  0
   -2.5421   15.9358  -34.7834 H   0  0  0  0  0  0  0  0  0  0  0  0
   -0.2266   16.1572  -33.8793 H   0  0  0  0  0  0  0  0  0  0  0  0
    0.5324   18.3227  -32.8811 H   0  0  0  0  0  0  0  0  0  0  0  0
   -0.8396   19.9953  -29.3223 H   0  0  0  0  0  0  0  0  0  0  0  0
   -1.8706   19.1772  -30.5447 H   0  0  0  0  0  0  0  0  0  0  0  0
   -0.0942   18.9106  -30.5447 H   0  0  0  0  0  0  0  0  0  0  0  0
   -0.3269   22.0771  -29.6533 H   0  0  0  0  0  0  0  0  0  0  0  0
    0.6941   22.3446  -31.1068 H   0  0  0  0  0  0  0  0  0  0  0  0
   -1.0236   22.8701  -31.1068 H   0  0  0  0  0  0  0  0  0  0  0  0
   -3.2120   21.2630  -34.2110 H   0  0  0  0  0  0  0  0  0  0  0  0
   -3.7257   21.1066  -31.8907 H   0  0  0  0  0  0  0  0  0  0  0  0
   -2.3734   23.0429  -31.0936 H   0  0  0  0  0  0  0  0  0  0  0  0
  1  2  1  0
  2  3  2  0
  3  4  1  0
  4  5  1  0
  5  6  1  0
  6  7  1  0
  7  8  2  0
  8  9  1  0
  9 10  1  0
 10 11  2  0
 11 12  1  0
 12 13  2  0
 13 14  1  0
 14 15  1  0
 15 16  2  0
 15 17  1  0
 17 18  1  0
 17 19  1  0
 14 20  2  0
 20 21  1  0
  8 22  1  0
 22 23  2  0
 22 24  1  0
 24 25  2  0
  4 26  2  0
 26 27  1  0
 27 28  2  0
 28 29  1  0
 28  2  1  0
 24  7  1  0
 20 10  1  0
  1 30  1  0
  1 31  1  0
  1 32  1  0
  3 33  1  0
  5 34  1  0
  5 35  1  0
  6 36  1  0
  9 37  1  0
 11 38  1  0
 12 39  1  0
 13 40  1  0
 18 41  1  0
 18 42  1  0
 18 43  1  0
 19 44  1  0
 19 45  1  0
 19 46  1  0
 21 47  1  0
 26 48  1  0
 27 49  1  0
M  CHG  1  29  -1
M  END
>  <UniqueID>  (38) 
38

>  <SMILES>  (38) 
Cc1cc(CNc2c(Nc3cccc(C(=O)N(C)C)c3O)c(=O)c2=O)ccc1[O-]

>  <Energy>  (38) 
52.510151027914816

>  <Genealogy>  (38) 
Cc1cc(CNc2c(Nc3cccc(C(=O)N(C)C)c3O)c(=O)c2=O)ccc1[O-] (protonated)
Cc1cc(CNc2c(Nc3cccc(C(=O)N(C)C)c3O)c(=O)c2=O)ccc1[O-] (3D coordinates assigned)
Cc1cc(CNc2c(Nc3cccc(C(=O)N(C)C)c3O)c(=O)c2=O)ccc1[O-] (optimized conformer: 52.510151027914816 kcal/mol)

>  <smiles>  (38) 
Cc1cc(CNc2c(Nc3cccc(C(=O)N(C)C)c3O)c(=O)c2=O)ccc1O

>  <score_type>  (38) 
oracle

>  <origin>  (38) 
adgpu

>  <m_score__min__energy>  (38) 
-11.380000000000001

>  <m_primary>  (38) 
energy

$$$$
38:0
     RDKit          3D

 57 60  0  0  0  0  0  0  0  0999 V2000
   -3.9480   25.5240  -30.8350 O   0  0  0  0  0  0  0  0  0  0  0  0
   -4.9740   24.7900  -30.0160 S   0  0  0  0  0  0  0  0  0  0  0  0
   -6.0560   25.7690  -29.6560 O   0  0  0  0  0  0  0  0  0  0  0  0
   -5.6760   23.4980  -30.9900 C   0  0  0  0  0  0  0  0  0  0  0  0
   -4.8600   22.7030  -31.8070 C   0  0  0  0  0  0  0  0  0  0  0  0
   -5.4170   21.6650  -32.5590 C   0  0  0  0  0  0  0  0  0  0  0  0
   -6.7910   21.4030  -32.4980 C   0  0  0  0  0  0  0  0  0  0  0  0
   -7.3120   20.3540  -33.2690 O   0  0  0  0  0  0  0  0  0  0  0  0
   -6.7900   19.0540  -33.3260 C   0  0  0  0  0  0  0  0  0  0  0  0
   -6.8860   18.1690  -32.2390 C   0  0  0  0  0  0  0  0  0  0  0  0
   -6.3340   16.8920  -32.3430 C   0  0  0  0  0  0  0  0  0  0  0  0
   -5.6840   16.5040  -33.5190 C   0  0  0  0  0  0  0  0  0  0  0  0
   -4.9920   14.8870  -33.6660 S   0  0  0  0  0  0  0  0  0  0  0  0
   -4.9800   14.2250  -32.3160 O   0  0  0  0  0  0  0  0  0  0  0  0
   -5.8570   14.0650  -34.5810 O   0  0  0  0  0  0  0  0  0  0  0  0
   -3.3630   14.9400  -34.3010 N   0  0  0  0  0  0  0  0  0  0  0  0
   -2.6080   16.0570  -33.6840 C   0  0  0  0  0  0  0  0  0  0  0  0
   -1.3340   16.4380  -34.4750 C   0  0  0  0  0  0  0  0  0  0  0  0
   -0.8680   15.3010  -35.3860 C   0  0  0  0  0  0  0  0  0  0  0  0
   -1.9770   14.8850  -36.3680 C   0  0  0  0  0  0  0  0  0  0  0  0
   -3.3900   15.0480  -35.7720 C   0  0  0  0  0  0  0  0  0  0  0  0
   -5.5880   17.4210  -34.5720 C   0  0  0  0  0  0  0  0  0  0  0  0
   -6.1330   18.6610  -34.4500 N   0  0  0  0  0  0  0  0  0  0  0  0
   -7.6130   22.2220  -31.7050 C   0  0  0  0  0  0  0  0  0  0  0  0
   -7.0570   23.2620  -30.9550 C   0  0  0  0  0  0  0  0  0  0  0  0
   -4.2240   24.1940  -28.5480 N   0  0  0  0  0  0  0  0  0  0  0  0
   -4.4540   22.7490  -28.3330 C   0  0  0  0  0  0  0  0  0  0  0  0
   -3.2310   21.8890  -28.6930 C   0  0  0  0  0  0  0  0  0  0  0  0
   -2.4890   22.4970  -29.7230 O   0  0  0  0  0  0  0  0  0  0  0  0
   -1.8550   23.6620  -29.2310 C   0  0  0  0  0  0  0  0  0  0  0  0
   -2.8070   24.5890  -28.4370 C   0  0  0  0  0  0  0  0  0  0  0  0
   -3.7783   22.8967  -31.8563 H   0  0  0  0  0  0  0  0  0  0  0  0
   -4.7716   21.0497  -33.2031 H   0  0  0  0  0  0  0  0  0  0  0  0
   -7.3923   18.4805  -31.3135 H   0  0  0  0  0  0  0  0  0  0  0  0
   -6.4100   16.1899  -31.4996 H   0  0  0  0  0  0  0  0  0  0  0  0
   -2.9100   14.0340  -34.0360 H   0  0  0  0  0  0  0  0  0  0  0  0
   -3.2650   16.9378  -33.6331 H   0  0  0  0  0  0  0  0  0  0  0  0
   -2.2873   15.7244  -32.6858 H   0  0  0  0  0  0  0  0  0  0  0  0
   -1.5496   17.3227  -35.0921 H   0  0  0  0  0  0  0  0  0  0  0  0
   -0.5322   16.6458  -33.7511 H   0  0  0  0  0  0  0  0  0  0  0  0
    0.0102   15.6360  -35.9575 H   0  0  0  0  0  0  0  0  0  0  0  0
   -0.6146   14.4336  -34.7588 H   0  0  0  0  0  0  0  0  0  0  0  0
   -1.9011   15.5098  -37.2701 H   0  0  0  0  0  0  0  0  0  0  0  0
   -1.8342   13.8190  -36.5990 H   0  0  0  0  0  0  0  0  0  0  0  0
   -3.7862   16.0351  -36.0523 H   0  0  0  0  0  0  0  0  0  0  0  0
   -4.0306   14.2467  -36.1689 H   0  0  0  0  0  0  0  0  0  0  0  0
   -5.0705   17.1381  -35.5005 H   0  0  0  0  0  0  0  0  0  0  0  0
   -8.6980   22.0438  -31.6745 H   0  0  0  0  0  0  0  0  0  0  0  0
   -7.7059   23.8978  -30.3348 H   0  0  0  0  0  0  0  0  0  0  0  0
   -4.6979   22.5862  -27.2728 H   0  0  0  0  0  0  0  0  0  0  0  0
   -5.2786   22.4438  -28.9939 H   0  0  0  0  0  0  0  0  0  0  0  0
   -2.5927   21.7768  -27.8042 H   0  0  0  0  0  0  0  0  0  0  0  0
   -3.5771   20.9032  -29.0370 H   0  0  0  0  0  0  0  0  0  0  0  0
   -1.0312   23.3578  -28.5685 H   0  0  0  0  0  0  0  0  0  0  0  0
   -1.4982   24.2310  -30.1022 H   0  0  0  0  0  0  0  0  0  0  0  0
   -2.5179   24.5619  -27.3760 H   0  0  0  0  0  0  0  0  0  0  0  0
   -2.7133   25.5987  -28.8633 H   0  0  0  0  0  0  0  0  0  0  0  0
  1  2  2  0
  2  3  2  0
  2  4  1  0
  4  5  2  0
  5  6  1  0
  6  7  2  0
  7  8  1  0
  8  9  1  0
  9 10  2  0
 10 11  1  0
 11 12  2  0
 12 13  1  0
 13 14  2  0
 13 15  2  0
 13 16  1  0
 16 17  1  0
 17 18  1  0
 18 19  1  0
 19 20  1  0
 20 21  1  0
 12 22  1  0
 22 23  2  0
  7 24  1  0
 24 25  2  0
  2 26  1  0
 26 27  1  0
 27 28  1  0
 28 29  1  0
 29 30  1  0
 30 31  1  0
 25  4  1  0
 31 26  1  0
 23  9  1  0
 21 16  1  0
  5 32  1  0
  6 33  1  0
 10 34  1  0
 11 35  1  0
 16 36  1  0
 17 37  1  0
 17 38  1  0
 18 39  1  0
 18 40  1  0
 19 41  1  0
 19 42  1  0
 20 43  1  0
 20 44  1  0
 21 45  1  0
 21 46  1  0
 22 47  1  0
 24 48  1  0
 25 49  1  0
 27 50  1  0
 27 51  1  0
 28 52  1  0
 28 53  1  0
 30 54  1  0
 30 55  1  0
 31 56  1  0
 31 57  1  0
M  CHG  1  16   1
M  END
>  <UniqueID>  (39) 
39

>  <SMILES>  (39) 
O=S(=O)(c1ccc(Oc2ccc(S(=O)(=O)[NH+]3CCCCC3)cn2)cc1)N1CCOCC1

>  <Energy>  (39) 
79.69164741777976

>  <Genealogy>  (39) 
O=S(=O)(c1ccc(Oc2ccc(S(=O)(=O)[NH+]3CCCCC3)cn2)cc1)N1CCOCC1 (protonated)
O=S(=O)(c1ccc(Oc2ccc(S(=O)(=O)[NH+]3CCCCC3)cn2)cc1)N1CCOCC1 (3D coordinates assigned)
O=S(=O)(c1ccc(Oc2ccc(S(=O)(=O)[NH+]3CCCCC3)cn2)cc1)N1CCOCC1 (nonaromatic ring conformer: 79.69164741777976 kcal/mol)

>  <smiles>  (39) 
O=S(=O)(c1ccc(Oc2ccc(S(=O)(=O)N3CCOCC3)cc2)nc1)N1CCCCC1

>  <score_type>  (39) 
oracle

>  <origin>  (39) 
adgpu

>  <m_score__min__energy>  (39) 
-11.369999999999999

>  <m_primary>  (39) 
energy

$$$$
39:0
     RDKit          3D

 52 55  0  0  0  0  0  0  0  0999 V2000
    0.0650   22.0040  -34.4960 O   0  0  0  0  0  0  0  0  0  0  0  0
   -0.1510   20.8260  -33.5860 S   0  0  0  0  0  0  0  0  0  0  0  0
    0.6640   19.6720  -34.0960 O   0  0  0  0  0  0  0  0  0  0  0  0
    0.3790   21.2320  -31.9870 N   0  0  0  0  0  0  0  0  0  0  0  0
    0.0580   20.5060  -30.7910 C   0  0  0  0  0  0  0  0  0  0  0  0
    0.2060   19.1080  -30.7140 C   0  0  0  0  0  0  0  0  0  0  0  0
   -0.0990   18.4310  -29.5300 C   0  0  0  0  0  0  0  0  0  0  0  0
   -0.5520   19.1370  -28.4160 C   0  0  0  0  0  0  0  0  0  0  0  0
   -0.7130   20.5240  -28.4840 C   0  0  0  0  0  0  0  0  0  0  0  0
   -0.4140   21.2100  -29.6680 C   0  0  0  0  0  0  0  0  0  0  0  0
   -0.6180   22.9970  -29.7120 S   0  0  0  0  0  0  0  0  0  0  0  0
   -2.3850   22.8960  -30.0000 C   0  0  0  0  0  0  0  0  0  0  0  0
   -2.9520   21.6820  -30.2400 N   0  0  0  0  0  0  0  0  0  0  0  0
   -4.2870   21.5450  -30.4570 C   0  0  0  0  0  0  0  0  0  0  0  0
   -5.1170   22.6670  -30.4360 C   0  0  0  0  0  0  0  0  0  0  0  0
   -4.5610   23.9240  -30.1870 C   0  0  0  0  0  0  0  0  0  0  0  0
   -3.1890   24.0460  -29.9630 C   0  0  0  0  0  0  0  0  0  0  0  0
   -2.6390   25.2950  -29.6960 O   0  0  0  0  0  0  0  0  0  0  0  0
   -1.8460   20.3540  -33.5510 C   0  0  0  0  0  0  0  0  0  0  0  0
   -2.8390   21.3410  -33.4990 C   0  0  0  0  0  0  0  0  0  0  0  0
   -4.1890   20.9800  -33.4560 C   0  0  0  0  0  0  0  0  0  0  0  0
   -4.5570   19.6280  -33.4740 C   0  0  0  0  0  0  0  0  0  0  0  0
   -6.2590   19.1840  -33.3640 S   0  0  0  0  0  0  0  0  0  0  0  0
   -6.4390   17.7500  -33.7780 O   0  0  0  0  0  0  0  0  0  0  0  0
   -7.0360   20.0520  -34.3160 O   0  0  0  0  0  0  0  0  0  0  0  0
   -6.8590   19.4360  -31.7370 N   0  0  0  0  0  0  0  0  0  0  0  0
   -7.7860   18.3680  -31.3200 C   0  0  0  0  0  0  0  0  0  0  0  0
   -9.1670   18.4890  -32.0080 C   0  0  0  0  0  0  0  0  0  0  0  0
   -9.4250   19.7760  -32.5450 O   0  0  0  0  0  0  0  0  0  0  0  0
   -8.9870   20.7750  -31.6530 C   0  0  0  0  0  0  0  0  0  0  0  0
   -7.4490   20.7840  -31.5730 C   0  0  0  0  0  0  0  0  0  0  0  0
   -3.5630   18.6390  -33.5290 C   0  0  0  0  0  0  0  0  0  0  0  0
   -2.2130   19.0010  -33.5680 C   0  0  0  0  0  0  0  0  0  0  0  0
    0.5633   18.5461  -31.5896 H   0  0  0  0  0  0  0  0  0  0  0  0
    0.0186   17.3386  -29.4767 H   0  0  0  0  0  0  0  0  0  0  0  0
   -0.7828   18.6021  -27.4830 H   0  0  0  0  0  0  0  0  0  0  0  0
   -1.0754   21.0780  -27.6055 H   0  0  0  0  0  0  0  0  0  0  0  0
   -4.7133   20.5494  -30.6492 H   0  0  0  0  0  0  0  0  0  0  0  0
   -6.1975   22.5625  -30.6137 H   0  0  0  0  0  0  0  0  0  0  0  0
   -5.2037   24.8165  -30.1675 H   0  0  0  0  0  0  0  0  0  0  0  0
   -2.5554   22.4038  -33.4920 H   0  0  0  0  0  0  0  0  0  0  0  0
   -4.9641   21.7591  -33.4079 H   0  0  0  0  0  0  0  0  0  0  0  0
   -7.3448   17.3946  -31.5806 H   0  0  0  0  0  0  0  0  0  0  0  0
   -7.9407   18.4607  -30.2349 H   0  0  0  0  0  0  0  0  0  0  0  0
   -9.2128   17.7555  -32.8265 H   0  0  0  0  0  0  0  0  0  0  0  0
   -9.9284   18.3040  -31.2359 H   0  0  0  0  0  0  0  0  0  0  0  0
   -9.3376   21.7559  -32.0064 H   0  0  0  0  0  0  0  0  0  0  0  0
   -9.3958   20.5661  -30.6534 H   0  0  0  0  0  0  0  0  0  0  0  0
   -7.0594   21.4374  -32.3675 H   0  0  0  0  0  0  0  0  0  0  0  0
   -7.1711   21.1482  -30.5729 H   0  0  0  0  0  0  0  0  0  0  0  0
   -3.8466   17.5763  -33.5415 H   0  0  0  0  0  0  0  0  0  0  0  0
   -1.4371   18.2225  -33.6121 H   0  0  0  0  0  0  0  0  0  0  0  0
  1  2  2  0
  2  3  2  0
  2  4  1  0
  4  5  1  0
  5  6  2  0
  6  7  1  0
  7  8  2  0
  8  9  1  0
  9 10  2  0
 10 11  1  0
 11 12  1  0
 12 13  2  0
 13 14  1  0
 14 15  2  0
 15 16  1  0
 16 17  2  0
 17 18  1  0
  2 19  1  0
 19 20  2  0
 20 21  1  0
 21 22  2  0
 22 23  1  0
 23 24  2  0
 23 25  2  0
 23 26  1  0
 26 27  1  0
 27 28  1  0
 28 29  1  0
 29 30  1  0
 30 31  1  0
 22 32  1  0
 32 33  2  0
 10  5  1  0
 17 12  1  0
 33 19  1  0
 31 26  1  0
  6 34  1  0
  7 35  1  0
  8 36  1  0
  9 37  1  0
 14 38  1  0
 15 39  1  0
 16 40  1  0
 20 41  1  0
 21 42  1  0
 27 43  1  0
 27 44  1  0
 28 45  1  0
 28 46  1  0
 30 47  1  0
 30 48  1  0
 31 49  1  0
 31 50  1  0
 32 51  1  0
 33 52  1  0
M  CHG  2   4  -1  18  -1
M  END
>  <UniqueID>  (40) 
40

>  <SMILES>  (40) 
O=S(=O)([N-]c1ccccc1Sc1ncccc1[O-])c1ccc(S(=O)(=O)N2CCOCC2)cc1

>  <Energy>  (40) 
66.92800156952681

>  <Genealogy>  (40) 
O=S(=O)([N-]c1ccccc1Sc1ncccc1[O-])c1ccc(S(=O)(=O)N2CCOCC2)cc1 (protonated)
O=S(=O)([N-]c1ccccc1Sc1ncccc1[O-])c1ccc(S(=O)(=O)N2CCOCC2)cc1 (3D coordinates assigned)
O=S(=O)([N-]c1ccccc1Sc1ncccc1[O-])c1ccc(S(=O)(=O)N2CCOCC2)cc1 (nonaromatic ring conformer: 66.92800156952681 kcal/mol)

>  <smiles>  (40) 
O=S(=O)(Nc1ccccc1Sc1ncccc1O)c1ccc(S(=O)(=O)N2CCOCC2)cc1

>  <score_type>  (40) 
oracle

>  <origin>  (40) 
adgpu

>  <m_score__min__energy>  (40) 
-14.720000000000001

>  <m_primary>  (40) 
energy

$$$$
40:0
     RDKit          3D

 59 62  0  0  0  0  0  0  0  0999 V2000
   -2.6710   18.7530  -33.8270 C   0  0  0  0  0  0  0  0  0  0  0  0
   -4.0500   18.2620  -33.5340 C   0  0  0  0  0  0  0  0  0  0  0  0
   -4.8160   18.7480  -32.5330 N   0  0  0  0  0  0  0  0  0  0  0  0
   -5.9660   18.0630  -32.6680 C   0  0  0  0  0  0  0  0  0  0  0  0
   -7.1390   18.1980  -31.7400 C   0  0  0  0  0  0  0  0  0  0  0  0
   -8.0630   19.2740  -32.2370 C   0  0  0  0  0  0  0  0  0  0  0  0
   -9.3110   19.1160  -32.1280 O   0  0  0  0  0  0  0  0  0  0  0  0
   -7.5660   20.4220  -32.9340 N   0  0  0  0  0  0  0  0  0  0  0  0
   -6.8160   21.4850  -32.3310 C   0  0  0  0  0  0  0  0  0  0  0  0
   -5.4270   21.5780  -32.5050 C   0  0  0  0  0  0  0  0  0  0  0  0
   -4.7060   22.5840  -31.8580 C   0  0  0  0  0  0  0  0  0  0  0  0
   -5.3620   23.5080  -31.0270 C   0  0  0  0  0  0  0  0  0  0  0  0
   -4.6030   24.5580  -30.3120 C   0  0  0  0  0  0  0  0  0  0  0  0
   -4.3090   25.6220  -30.9140 O   0  0  0  0  0  0  0  0  0  0  0  0
   -4.1390   24.3740  -28.9670 N   0  0  0  0  0  0  0  0  0  0  0  0
   -2.8960   23.7680  -28.5870 C   0  0  0  0  0  0  0  0  0  0  0  0
   -2.9070   22.4610  -28.0850 C   0  0  0  0  0  0  0  0  0  0  0  0
   -1.7140   21.8390  -27.6890 C   0  0  0  0  0  0  0  0  0  0  0  0
   -1.7320   20.1880  -27.0640 S   0  0  0  0  0  0  0  0  0  0  0  0
   -3.0320   19.5320  -27.4410 O   0  0  0  0  0  0  0  0  0  0  0  0
   -1.6510   20.2300  -25.5640 O   0  0  0  0  0  0  0  0  0  0  0  0
   -0.3960   19.2440  -27.6780 N   0  0  0  0  0  0  0  0  0  0  0  0
   -0.3760   19.2690  -29.1500 C   0  0  0  0  0  0  0  0  0  0  0  0
    0.7640   18.3770  -29.6840 C   0  0  0  0  0  0  0  0  0  0  0  0
    1.5070   17.7880  -28.6320 O   0  0  0  0  0  0  0  0  0  0  0  0
    0.6490   17.0050  -27.8220 C   0  0  0  0  0  0  0  0  0  0  0  0
   -0.4730   17.8580  -27.1950 C   0  0  0  0  0  0  0  0  0  0  0  0
   -0.5010   22.5290  -27.8070 C   0  0  0  0  0  0  0  0  0  0  0  0
   -0.4770   23.8190  -28.3390 C   0  0  0  0  0  0  0  0  0  0  0  0
   -1.6640   24.4360  -28.7490 C   0  0  0  0  0  0  0  0  0  0  0  0
   -1.6030   25.6930  -29.3400 O   0  0  0  0  0  0  0  0  0  0  0  0
   -6.7540   23.4210  -30.8710 C   0  0  0  0  0  0  0  0  0  0  0  0
   -7.4710   22.4020  -31.5040 C   0  0  0  0  0  0  0  0  0  0  0  0
   -5.8510   17.1930  -33.7350 C   0  0  0  0  0  0  0  0  0  0  0  0
   -6.8640   16.1990  -34.2120 C   0  0  0  0  0  0  0  0  0  0  0  0
   -4.6590   17.3440  -34.2500 O   0  0  0  0  0  0  0  0  0  0  0  0
   -2.1405   18.9419  -32.8820 H   0  0  0  0  0  0  0  0  0  0  0  0
   -2.1269   17.9933  -34.4074 H   0  0  0  0  0  0  0  0  0  0  0  0
   -2.7294   19.6856  -34.4074 H   0  0  0  0  0  0  0  0  0  0  0  0
   -7.6819   17.2423  -31.6969 H   0  0  0  0  0  0  0  0  0  0  0  0
   -6.7777   18.4660  -30.7362 H   0  0  0  0  0  0  0  0  0  0  0  0
   -4.9051   20.8575  -33.1519 H   0  0  0  0  0  0  0  0  0  0  0  0
   -3.6174   22.6535  -31.9998 H   0  0  0  0  0  0  0  0  0  0  0  0
   -3.8595   21.9174  -28.0005 H   0  0  0  0  0  0  0  0  0  0  0  0
   -1.3378   18.8968  -29.5326 H   0  0  0  0  0  0  0  0  0  0  0  0
   -0.2109   20.3025  -29.4886 H   0  0  0  0  0  0  0  0  0  0  0  0
    0.3307   17.5787  -30.3044 H   0  0  0  0  0  0  0  0  0  0  0  0
    1.4457   19.0087  -30.2724 H   0  0  0  0  0  0  0  0  0  0  0  0
    0.1951   16.2166  -28.4404 H   0  0  0  0  0  0  0  0  0  0  0  0
    1.2466   16.5695  -27.0077 H   0  0  0  0  0  0  0  0  0  0  0  0
   -1.4489   17.4320  -27.4710 H   0  0  0  0  0  0  0  0  0  0  0  0
   -0.3538   17.8549  -26.1015 H   0  0  0  0  0  0  0  0  0  0  0  0
    0.4351   22.0530  -27.4796 H   0  0  0  0  0  0  0  0  0  0  0  0
    0.4796   24.3532  -28.4365 H   0  0  0  0  0  0  0  0  0  0  0  0
   -7.2827   24.1576  -30.2482 H   0  0  0  0  0  0  0  0  0  0  0  0
   -8.5572   22.3211  -31.3505 H   0  0  0  0  0  0  0  0  0  0  0  0
   -7.3479   15.7242  -33.3458 H   0  0  0  0  0  0  0  0  0  0  0  0
   -7.6232   16.7123  -34.8203 H   0  0  0  0  0  0  0  0  0  0  0  0
   -6.3651   15.4302  -34.8203 H   0  0  0  0  0  0  0  0  0  0  0  0
  1  2  1  0
  2  3  2  0
  3  4  1  0
  4  5  1  0
  5  6  1  0
  6  7  2  0
  6  8  1  0
  8  9  1  0
  9 10  2  0
 10 11  1  0
 11 12  2  0
 12 13  1  0
 13 14  2  0
 13 15  1  0
 15 16  1  0
 16 17  2  0
 17 18  1  0
 18 19  1  0
 19 20  2  0
 19 21  2  0
 19 22  1  0
 22 23  1  0
 23 24  1  0
 24 25  1  0
 25 26  1  0
 26 27  1  0
 18 28  2  0
 28 29  1  0
 29 30  2  0
 30 31  1  0
 12 32  1  0
 32 33  2  0
  4 34  2  0
 34 35  1  0
 34 36  1  0
 36  2  1  0
 33  9  1  0
 30 16  1  0
 27 22  1  0
  1 37  1  0
  1 38  1  0
  1 39  1  0
  5 40  1  0
  5 41  1  0
 10 42  1  0
 11 43  1  0
 17 44  1  0
 23 45  1  0
 23 46  1  0
 24 47  1  0
 24 48  1  0
 26 49  1  0
 26 50  1  0
 27 51  1  0
 27 52  1  0
 28 53  1  0
 29 54  1  0
 32 55  1  0
 33 56  1  0
 35 57  1  0
 35 58  1  0
 35 59  1  0
M  CHG  3   8  -1  15  -1  31  -1
M  END
>  <UniqueID>  (41) 
41

>  <SMILES>  (41) 
Cc1nc(CC(=O)[N-]c2ccc(C(=O)[N-]c3cc(S(=O)(=O)N4CCOCC4)ccc3[O-])cc2)c(C)o1

>  <Energy>  (41) 
108.38530382614508

>  <Genealogy>  (41) 
Cc1nc(CC(=O)[N-]c2ccc(C(=O)[N-]c3cc(S(=O)(=O)N4CCOCC4)ccc3[O-])cc2)c(C)o1 (protonated)
Cc1nc(CC(=O)[N-]c2ccc(C(=O)[N-]c3cc(S(=O)(=O)N4CCOCC4)ccc3[O-])cc2)c(C)o1 (3D coordinates assigned)
Cc1nc(CC(=O)[N-]c2ccc(C(=O)[N-]c3cc(S(=O)(=O)N4CCOCC4)ccc3[O-])cc2)c(C)o1 (nonaromatic ring conformer: 108.38530382614508 kcal/mol)

>  <smiles>  (41) 
Cc1nc(CC(=O)Nc2ccc(C(=O)Nc3cc(S(=O)(=O)N4CCOCC4)ccc3O)cc2)c(C)o1

>  <score_type>  (41) 
oracle

>  <origin>  (41) 
adgpu

>  <m_score__min__energy>  (41) 
-14.210000000000001

>  <m_primary>  (41) 
energy

$$$$
41:0
     RDKit          3D

 54 58  0  0  0  0  0  0  0  0999 V2000
   -2.0910   21.4140  -30.2460 C   0  0  0  0  0  0  0  0  0  0  0  0
   -1.2900   22.6920  -30.0540 C   0  0  0  0  0  0  0  0  0  0  0  0
   -1.9400   23.5360  -29.0590 N   0  0  0  0  0  0  0  0  0  0  0  0
   -2.2790   24.9010  -29.3080 C   0  0  0  0  0  0  0  0  0  0  0  0
   -1.4780   25.8070  -28.9580 O   0  0  0  0  0  0  0  0  0  0  0  0
   -3.4950   25.2250  -29.9980 N   0  0  0  0  0  0  0  0  0  0  0  0
   -4.5790   24.3310  -30.2860 C   0  0  0  0  0  0  0  0  0  0  0  0
   -5.7360   24.4060  -29.5010 C   0  0  0  0  0  0  0  0  0  0  0  0
   -6.8270   23.5740  -29.7610 C   0  0  0  0  0  0  0  0  0  0  0  0
   -6.7800   22.6650  -30.8220 C   0  0  0  0  0  0  0  0  0  0  0  0
   -7.8400   21.8610  -31.0730 N   0  0  0  0  0  0  0  0  0  0  0  0
   -7.8250   20.9760  -32.1020 C   0  0  0  0  0  0  0  0  0  0  0  0
   -6.7340   20.8760  -32.9210 N   0  0  0  0  0  0  0  0  0  0  0  0
   -6.7480   19.8730  -33.9990 C   0  0  0  0  0  0  0  0  0  0  0  0
   -6.0890   18.6010  -33.5360 C   0  0  0  0  0  0  0  0  0  0  0  0
   -4.7390   18.6030  -33.1550 C   0  0  0  0  0  0  0  0  0  0  0  0
   -4.1150   17.4160  -32.7640 C   0  0  0  0  0  0  0  0  0  0  0  0
   -4.8330   16.2100  -32.7500 C   0  0  0  0  0  0  0  0  0  0  0  0
   -4.1670   14.9510  -32.3520 C   0  0  0  0  0  0  0  0  0  0  0  0
   -4.6730   14.2630  -31.2350 C   0  0  0  0  0  0  0  0  0  0  0  0
   -4.1380   13.0310  -30.8580 C   0  0  0  0  0  0  0  0  0  0  0  0
   -3.0930   12.4710  -31.5920 C   0  0  0  0  0  0  0  0  0  0  0  0
   -2.5670   13.1470  -32.6960 C   0  0  0  0  0  0  0  0  0  0  0  0
   -3.0810   14.3980  -33.0860 C   0  0  0  0  0  0  0  0  0  0  0  0
   -2.4320   15.1050  -34.2190 C   0  0  0  0  0  0  0  0  0  0  0  0
   -2.5980   14.7740  -35.5150 N   0  0  0  0  0  0  0  0  0  0  0  0
   -1.8210   15.6110  -36.1830 N   0  0  0  0  0  0  0  0  0  0  0  0
   -1.2000   16.4160  -35.3360 N   0  0  0  0  0  0  0  0  0  0  0  0
   -1.5570   16.1220  -34.0960 N   0  0  0  0  0  0  0  0  0  0  0  0
   -6.1760   16.2030  -33.1540 C   0  0  0  0  0  0  0  0  0  0  0  0
   -6.8010   17.3910  -33.5430 C   0  0  0  0  0  0  0  0  0  0  0  0
   -5.6350   21.6680  -32.6990 C   0  0  0  0  0  0  0  0  0  0  0  0
   -4.6220   21.5730  -33.4470 O   0  0  0  0  0  0  0  0  0  0  0  0
   -5.6340   22.5890  -31.6360 C   0  0  0  0  0  0  0  0  0  0  0  0
   -4.5370   23.4320  -31.3690 C   0  0  0  0  0  0  0  0  0  0  0  0
   -2.3537   20.9948  -29.2635 H   0  0  0  0  0  0  0  0  0  0  0  0
   -3.0104   21.6383  -30.8067 H   0  0  0  0  0  0  0  0  0  0  0  0
   -1.4884   20.6843  -30.8067 H   0  0  0  0  0  0  0  0  0  0  0  0
   -0.2754   22.4395  -29.7123 H   0  0  0  0  0  0  0  0  0  0  0  0
   -1.2345   23.2335  -31.0099 H   0  0  0  0  0  0  0  0  0  0  0  0
   -5.7860   25.1270  -28.6718 H   0  0  0  0  0  0  0  0  0  0  0  0
   -7.7256   23.6340  -29.1294 H   0  0  0  0  0  0  0  0  0  0  0  0
   -8.6993   20.3325  -32.2792 H   0  0  0  0  0  0  0  0  0  0  0  0
   -7.7891   19.6600  -34.2833 H   0  0  0  0  0  0  0  0  0  0  0  0
   -6.1953   20.2687  -34.8639 H   0  0  0  0  0  0  0  0  0  0  0  0
   -4.1690   19.5438  -33.1642 H   0  0  0  0  0  0  0  0  0  0  0  0
   -3.0563   17.4264  -32.4658 H   0  0  0  0  0  0  0  0  0  0  0  0
   -5.4980   14.7001  -30.6533 H   0  0  0  0  0  0  0  0  0  0  0  0
   -4.5404   12.5014  -29.9819 H   0  0  0  0  0  0  0  0  0  0  0  0
   -2.6812   11.4934  -31.3008 H   0  0  0  0  0  0  0  0  0  0  0  0
   -1.7418   12.6964  -33.2669 H   0  0  0  0  0  0  0  0  0  0  0  0
   -6.7398   15.2585  -33.1647 H   0  0  0  0  0  0  0  0  0  0  0  0
   -7.8554   17.3779  -33.8560 H   0  0  0  0  0  0  0  0  0  0  0  0
   -3.6438   23.3876  -32.0094 H   0  0  0  0  0  0  0  0  0  0  0  0
  1  2  1  0
  2  3  1  0
  3  4  1  0
  4  5  2  0
  4  6  1  0
  6  7  1  0
  7  8  2  0
  8  9  1  0
  9 10  2  0
 10 11  1  0
 11 12  2  0
 12 13  1  0
 13 14  1  0
 14 15  1  0
 15 16  2  0
 16 17  1  0
 17 18  2  0
 18 19  1  0
 19 20  2  0
 20 21  1  0
 21 22  2  0
 22 23  1  0
 23 24  2  0
 24 25  1  0
 25 26  1  0
 26 27  2  0
 27 28  1  0
 28 29  1  0
 18 30  1  0
 30 31  2  0
 13 32  1  0
 32 33  2  0
 32 34  1  0
 34 35  2  0
 35  7  1  0
 34 10  1  0
 31 15  1  0
 24 19  1  0
 29 25  2  0
  1 36  1  0
  1 37  1  0
  1 38  1  0
  2 39  1  0
  2 40  1  0
  8 41  1  0
  9 42  1  0
 12 43  1  0
 14 44  1  0
 14 45  1  0
 16 46  1  0
 17 47  1  0
 20 48  1  0
 21 49  1  0
 22 50  1  0
 23 51  1  0
 30 52  1  0
 31 53  1  0
 35 54  1  0
M  CHG  3   3  -1   6  -1  28  -1
M  END
>  <UniqueID>  (42) 
42

>  <SMILES>  (42) 
CC[N-]C(=O)[N-]c1ccc2ncn(Cc3ccc(-c4ccccc4-c4nn[n-]n4)cc3)c(=O)c2c1

>  <Energy>  (42) 
112.59912735510065

>  <Genealogy>  (42) 
CC[N-]C(=O)[N-]c1ccc2ncn(Cc3ccc(-c4ccccc4-c4nn[n-]n4)cc3)c(=O)c2c1 (protonated)
CC[N-]C(=O)[N-]c1ccc2ncn(Cc3ccc(-c4ccccc4-c4nn[n-]n4)cc3)c(=O)c2c1 (3D coordinates assigned)
CC[N-]C(=O)[N-]c1ccc2ncn(Cc3ccc(-c4ccccc4-c4nn[n-]n4)cc3)c(=O)c2c1 (optimized conformer: 112.59912735510065 kcal/mol)

>  <smiles>  (42) 
CCNC(=O)Nc1ccc2ncn(Cc3ccc(-c4ccccc4-c4nn[nH]n4)cc3)c(=O)c2c1

>  <score_type>  (42) 
oracle

>  <origin>  (42) 
adgpu

>  <m_score__min__energy>  (42) 
-12.68

>  <m_primary>  (42) 
energy

$$$$
42:0
     RDKit          3D

 55 58  0  0  0  0  0  0  0  0999 V2000
   -6.8280   23.5900  -30.8760 C   0  0  0  0  0  0  0  0  0  0  0  0
   -5.6670   24.0180  -31.3640 C   0  0  0  0  0  0  0  0  0  0  0  0
   -4.8810   25.1020  -30.7430 C   0  0  0  0  0  0  0  0  0  0  0  0
   -5.4580   26.1890  -30.4780 O   0  0  0  0  0  0  0  0  0  0  0  0
   -3.4840   24.9800  -30.4480 N   0  0  0  0  0  0  0  0  0  0  0  0
   -2.8760   24.2010  -29.4050 C   0  0  0  0  0  0  0  0  0  0  0  0
   -3.1710   24.5390  -28.0760 C   0  0  0  0  0  0  0  0  0  0  0  0
   -2.6150   23.8160  -27.0170 C   0  0  0  0  0  0  0  0  0  0  0  0
   -1.7610   22.7470  -27.2780 C   0  0  0  0  0  0  0  0  0  0  0  0
   -1.4760   22.3800  -28.5960 C   0  0  0  0  0  0  0  0  0  0  0  0
   -2.0630   23.0740  -29.6710 C   0  0  0  0  0  0  0  0  0  0  0  0
   -1.7610   22.6960  -31.0270 N   0  0  0  0  0  0  0  0  0  0  0  0
   -2.3300   21.7730  -31.7500 C   0  0  0  0  0  0  0  0  0  0  0  0
   -3.4860   21.0800  -31.3390 C   0  0  0  0  0  0  0  0  0  0  0  0
   -4.0210   20.1330  -32.1510 N   0  0  0  0  0  0  0  0  0  0  0  0
   -3.4700   19.8320  -33.3580 C   0  0  0  0  0  0  0  0  0  0  0  0
   -4.0790   18.7840  -34.1930 C   0  0  0  0  0  0  0  0  0  0  0  0
   -3.3590   17.8930  -34.7180 O   0  0  0  0  0  0  0  0  0  0  0  0
   -5.4890   18.8170  -34.4480 N   0  0  0  0  0  0  0  0  0  0  0  0
   -6.4980   19.0840  -33.4680 C   0  0  0  0  0  0  0  0  0  0  0  0
   -7.0170   20.3800  -33.3150 C   0  0  0  0  0  0  0  0  0  0  0  0
   -8.0500   20.6230  -32.4080 C   0  0  0  0  0  0  0  0  0  0  0  0
   -8.5820   19.5770  -31.6540 C   0  0  0  0  0  0  0  0  0  0  0  0
   -8.0810   18.2830  -31.8030 C   0  0  0  0  0  0  0  0  0  0  0  0
   -7.0400   18.0200  -32.7130 C   0  0  0  0  0  0  0  0  0  0  0  0
   -6.4780   16.6960  -32.7870 N   0  0  0  0  0  0  0  0  0  0  0  0
   -5.4000   16.2870  -31.8770 C   0  0  0  0  0  0  0  0  0  0  0  0
   -4.1570   15.8240  -32.6680 C   0  0  0  0  0  0  0  0  0  0  0  0
   -4.4600   15.4960  -34.0740 N   0  0  0  0  0  0  0  0  0  0  0  0
   -5.7480   14.8070  -34.1940 C   0  0  0  0  0  0  0  0  0  0  0  0
   -6.8760   15.7890  -33.8760 C   0  0  0  0  0  0  0  0  0  0  0  0
   -2.3330   20.5370  -33.7780 C   0  0  0  0  0  0  0  0  0  0  0  0
   -1.8040   21.4920  -32.9710 N   0  0  0  0  0  0  0  0  0  0  0  0
   -7.3710   22.7776  -31.3812 H   0  0  0  0  0  0  0  0  0  0  0  0
   -7.2452   24.0485  -29.9673 H   0  0  0  0  0  0  0  0  0  0  0  0
   -5.2738   23.5412  -32.2740 H   0  0  0  0  0  0  0  0  0  0  0  0
   -3.8465   25.3812  -27.8652 H   0  0  0  0  0  0  0  0  0  0  0  0
   -2.8516   24.0909  -25.9785 H   0  0  0  0  0  0  0  0  0  0  0  0
   -1.3094   22.1898  -26.4439 H   0  0  0  0  0  0  0  0  0  0  0  0
   -0.7891   21.5441  -28.7946 H   0  0  0  0  0  0  0  0  0  0  0  0
   -3.9512   21.3047  -30.3678 H   0  0  0  0  0  0  0  0  0  0  0  0
   -6.6075   21.2076  -33.9128 H   0  0  0  0  0  0  0  0  0  0  0  0
   -8.4456   21.6423  -32.2876 H   0  0  0  0  0  0  0  0  0  0  0  0
   -9.3970   19.7722  -30.9415 H   0  0  0  0  0  0  0  0  0  0  0  0
   -8.5030   17.4622  -31.2045 H   0  0  0  0  0  0  0  0  0  0  0  0
   -5.1240   17.1398  -31.2393 H   0  0  0  0  0  0  0  0  0  0  0  0
   -5.7582   15.4479  -31.2626 H   0  0  0  0  0  0  0  0  0  0  0  0
   -3.4088   16.6301  -32.6491 H   0  0  0  0  0  0  0  0  0  0  0  0
   -3.7835   14.9072  -32.1885 H   0  0  0  0  0  0  0  0  0  0  0  0
   -3.7080   14.8650  -34.4350 H   0  0  0  0  0  0  0  0  0  0  0  0
   -5.8683   14.4283  -35.2197 H   0  0  0  0  0  0  0  0  0  0  0  0
   -5.7828   13.9638  -33.4885 H   0  0  0  0  0  0  0  0  0  0  0  0
   -7.1049   16.3808  -34.7746 H   0  0  0  0  0  0  0  0  0  0  0  0
   -7.7635   15.2212  -33.5598 H   0  0  0  0  0  0  0  0  0  0  0  0
   -1.8735   20.3181  -34.7532 H   0  0  0  0  0  0  0  0  0  0  0  0
  1  2  2  0
  2  3  1  0
  3  4  2  0
  3  5  1  0
  5  6  1  0
  6  7  2  0
  7  8  1  0
  8  9  2  0
  9 10  1  0
 10 11  2  0
 11 12  1  0
 12 13  2  3
 13 14  1  0
 14 15  2  0
 15 16  1  0
 16 17  1  0
 17 18  2  0
 17 19  1  0
 19 20  1  0
 20 21  2  0
 21 22  1  0
 22 23  2  0
 23 24  1  0
 24 25  2  0
 25 26  1  0
 26 27  1  0
 27 28  1  0
 28 29  1  0
 29 30  1  0
 30 31  1  0
 16 32  2  0
 32 33  1  0
 11  6  1  0
 33 13  1  0
 25 20  1  0
 31 26  1  0
  1 34  1  0
  1 35  1  0
  2 36  1  0
  7 37  1  0
  8 38  1  0
  9 39  1  0
 10 40  1  0
 14 41  1  0
 21 42  1  0
 22 43  1  0
 23 44  1  0
 24 45  1  0
 27 46  1  0
 27 47  1  0
 28 48  1  0
 28 49  1  0
 29 50  1  0
 30 51  1  0
 30 52  1  0
 31 53  1  0
 31 54  1  0
 32 55  1  0
M  CHG  3   5  -1  19  -1  33  -1
M  END
>  <UniqueID>  (43) 
43

>  <SMILES>  (43) 
C=CC(=O)[N-]c1ccccc1N=c1cnc(C(=O)[N-]c2ccccc2N2CCNCC2)c[n-]1

>  <Energy>  (43) 
90.04784895794319

>  <Genealogy>  (43) 
C=CC(=O)[N-]c1ccccc1N=c1cnc(C(=O)[N-]c2ccccc2N2CCNCC2)c[n-]1 (protonated)
C=CC(=O)[N-]c1ccccc1N=c1cnc(C(=O)[N-]c2ccccc2N2CCNCC2)c[n-]1 (3D coordinates assigned)
C=CC(=O)[N-]c1ccccc1N=c1cnc(C(=O)[N-]c2ccccc2N2CCNCC2)c[n-]1 (nonaromatic ring conformer: 90.04784895794319 kcal/mol)

>  <smiles>  (43) 
C=CC(=O)Nc1ccccc1N=c1cnc(C(=O)Nc2ccccc2N2CCNCC2)c[nH]1

>  <score_type>  (43) 
oracle

>  <origin>  (43) 
adgpu

>  <m_score__min__energy>  (43) 
-11.869999999999999

>  <m_primary>  (43) 
energy

$$$$
43:0
     RDKit          3D

 55 58  0  0  0  0  0  0  0  0999 V2000
   -1.8580   20.7460  -28.6050 C   0  0  0  0  0  0  0  0  0  0  0  0
   -2.1410   21.9510  -29.3000 O   0  0  0  0  0  0  0  0  0  0  0  0
   -3.4410   22.3040  -29.6690 C   0  0  0  0  0  0  0  0  0  0  0  0
   -4.0840   21.6230  -30.7270 C   0  0  0  0  0  0  0  0  0  0  0  0
   -3.4970   20.4970  -31.3950 N   0  0  0  0  0  0  0  0  0  0  0  0
   -2.8730   20.4910  -33.0140 S   0  0  0  0  0  0  0  0  0  0  0  0
   -1.4250   20.8880  -32.9990 O   0  0  0  0  0  0  0  0  0  0  0  0
   -3.6650   21.4620  -33.8420 O   0  0  0  0  0  0  0  0  0  0  0  0
   -3.0040   18.8610  -33.6880 C   0  0  0  0  0  0  0  0  0  0  0  0
   -1.8500   18.2590  -34.2130 C   0  0  0  0  0  0  0  0  0  0  0  0
   -1.8930   16.9600  -34.7150 C   0  0  0  0  0  0  0  0  0  0  0  0
   -3.0900   16.2430  -34.7050 C   0  0  0  0  0  0  0  0  0  0  0  0
   -4.2500   16.8280  -34.1970 C   0  0  0  0  0  0  0  0  0  0  0  0
   -4.2270   18.1400  -33.6960 C   0  0  0  0  0  0  0  0  0  0  0  0
   -5.4860   18.7220  -33.1910 C   0  0  0  0  0  0  0  0  0  0  0  0
   -6.0530   19.8330  -33.8330 C   0  0  0  0  0  0  0  0  0  0  0  0
   -7.2470   20.3850  -33.3600 C   0  0  0  0  0  0  0  0  0  0  0  0
   -7.8750   19.8390  -32.2370 C   0  0  0  0  0  0  0  0  0  0  0  0
   -7.3080   18.7440  -31.5820 C   0  0  0  0  0  0  0  0  0  0  0  0
   -6.1150   18.1880  -32.0540 C   0  0  0  0  0  0  0  0  0  0  0  0
   -5.3160   22.0920  -31.1990 C   0  0  0  0  0  0  0  0  0  0  0  0
   -5.9370   23.1890  -30.6010 C   0  0  0  0  0  0  0  0  0  0  0  0
   -7.4850   23.7610  -31.2040 Cl  0  0  0  0  0  0  0  0  0  0  0  0
   -5.3380   23.8210  -29.5110 C   0  0  0  0  0  0  0  0  0  0  0  0
   -4.1000   23.3730  -29.0190 C   0  0  0  0  0  0  0  0  0  0  0  0
   -3.5200   24.0420  -27.8320 C   0  0  0  0  0  0  0  0  0  0  0  0
   -4.2940   24.5400  -26.9690 O   0  0  0  0  0  0  0  0  0  0  0  0
   -2.0940   24.1250  -27.6620 N   0  0  0  0  0  0  0  0  0  0  0  0
   -1.4650   24.7870  -26.5540 C   0  0  0  0  0  0  0  0  0  0  0  0
   -0.8590   24.0200  -25.5500 C   0  0  0  0  0  0  0  0  0  0  0  0
   -0.2610   24.6400  -24.4490 C   0  0  0  0  0  0  0  0  0  0  0  0
   -0.2830   26.0310  -24.3320 C   0  0  0  0  0  0  0  0  0  0  0  0
   -0.9070   26.8070  -25.3180 C   0  0  0  0  0  0  0  0  0  0  0  0
   -0.9550   28.2380  -25.1810 C   0  0  0  0  0  0  0  0  0  0  0  0
   -0.9950   29.3890  -25.0710 N   0  0  0  0  0  0  0  0  0  0  0  0
   -1.5020   26.1860  -26.4240 C   0  0  0  0  0  0  0  0  0  0  0  0
   -1.9010   20.9291  -27.5212 H   0  0  0  0  0  0  0  0  0  0  0  0
   -2.6012   19.9823  -28.8776 H   0  0  0  0  0  0  0  0  0  0  0  0
   -0.8525   20.3929  -28.8776 H   0  0  0  0  0  0  0  0  0  0  0  0
   -0.9027   18.8180  -34.2283 H   0  0  0  0  0  0  0  0  0  0  0  0
   -0.9806   16.4983  -35.1204 H   0  0  0  0  0  0  0  0  0  0  0  0
   -3.1189   15.2160  -35.0979 H   0  0  0  0  0  0  0  0  0  0  0  0
   -5.1903   16.2572  -34.1887 H   0  0  0  0  0  0  0  0  0  0  0  0
   -5.5565   20.2712  -34.7113 H   0  0  0  0  0  0  0  0  0  0  0  0
   -7.6929   21.2503  -33.8723 H   0  0  0  0  0  0  0  0  0  0  0  0
   -8.8167   20.2723  -31.8689 H   0  0  0  0  0  0  0  0  0  0  0  0
   -7.7998   18.3188  -30.6947 H   0  0  0  0  0  0  0  0  0  0  0  0
   -5.6672   17.3290  -31.5329 H   0  0  0  0  0  0  0  0  0  0  0  0
   -5.7994   21.5903  -32.0503 H   0  0  0  0  0  0  0  0  0  0  0  0
   -5.8383   24.6762  -29.0331 H   0  0  0  0  0  0  0  0  0  0  0  0
   -1.4710   23.7610  -28.4190 H   0  0  0  0  0  0  0  0  0  0  0  0
   -0.8538   22.9228  -25.6287 H   0  0  0  0  0  0  0  0  0  0  0  0
    0.2275   24.0312  -23.6739 H   0  0  0  0  0  0  0  0  0  0  0  0
    0.1894   26.5178  -23.4660 H   0  0  0  0  0  0  0  0  0  0  0  0
   -1.9996   26.7952  -27.1929 H   0  0  0  0  0  0  0  0  0  0  0  0
  1  2  1  0
  2  3  1  0
  3  4  2  0
  4  5  1  0
  5  6  1  0
  6  7  2  0
  6  8  2  0
  6  9  1  0
  9 10  2  0
 10 11  1  0
 11 12  2  0
 12 13  1  0
 13 14  2  0
 14 15  1  0
 15 16  2  0
 16 17  1  0
 17 18  2  0
 18 19  1  0
 19 20  2  0
  4 21  1  0
 21 22  2  0
 22 23  1  0
 22 24  1  0
 24 25  2  0
 25 26  1  0
 26 27  2  0
 26 28  1  0
 28 29  1  0
 29 30  2  0
 30 31  1  0
 31 32  2  0
 32 33  1  0
 33 34  1  0
 34 35  3  0
 33 36  2  0
 25  3  1  0
 36 29  1  0
 14  9  1  0
 20 15  1  0
  1 37  1  0
  1 38  1  0
  1 39  1  0
 10 40  1  0
 11 41  1  0
 12 42  1  0
 13 43  1  0
 16 44  1  0
 17 45  1  0
 18 46  1  0
 19 47  1  0
 20 48  1  0
 21 49  1  0
 24 50  1  0
 28 51  1  0
 30 52  1  0
 31 53  1  0
 32 54  1  0
 36 55  1  0
M  CHG  1   5  -1
M  END
>  <UniqueID>  (44) 
44

>  <SMILES>  (44) 
COc1c([N-]S(=O)(=O)c2ccccc2-c2ccccc2)cc(Cl)cc1C(=O)Nc1cccc(C#N)c1

>  <Energy>  (44) 
88.5453946641243

>  <Genealogy>  (44) 
COc1c([N-]S(=O)(=O)c2ccccc2-c2ccccc2)cc(Cl)cc1C(=O)Nc1cccc(C#N)c1 (protonated)
COc1c([N-]S(=O)(=O)c2ccccc2-c2ccccc2)cc(Cl)cc1C(=O)Nc1cccc(C#N)c1 (3D coordinates assigned)
COc1c([N-]S(=O)(=O)c2ccccc2-c2ccccc2)cc(Cl)cc1C(=O)Nc1cccc(C#N)c1 (optimized conformer: 88.5453946641243 kcal/mol)

>  <smiles>  (44) 
COc1c(NS(=O)(=O)c2ccccc2-c2ccccc2)cc(Cl)cc1C(=O)Nc1cccc(C#N)c1

>  <score_type>  (44) 
oracle

>  <origin>  (44) 
adgpu

>  <m_score__min__energy>  (44) 
-12.08

>  <m_primary>  (44) 
energy

$$$$
44:0
     RDKit          3D

 35 36  0  0  0  0  0  0  0  0999 V2000
   -5.7210   24.9370  -29.3200 C   0  0  0  0  0  0  0  0  0  0  0  0
   -5.6930   25.4290  -30.7620 C   0  0  0  0  0  0  0  0  0  0  0  0
   -5.4180   24.3520  -31.6580 O   0  0  0  0  0  0  0  0  0  0  0  0
   -6.1060   23.1270  -31.7130 C   0  0  0  0  0  0  0  0  0  0  0  0
   -7.5130   23.0540  -31.7010 C   0  0  0  0  0  0  0  0  0  0  0  0
   -8.1690   21.8140  -31.7500 C   0  0  0  0  0  0  0  0  0  0  0  0
   -9.6720   21.7600  -31.7380 C   0  0  0  0  0  0  0  0  0  0  0  0
   -7.4080   20.6310  -31.8040 C   0  0  0  0  0  0  0  0  0  0  0  0
   -8.2330   18.9000  -31.8670 Br  0  0  0  0  0  0  0  0  0  0  0  0
   -6.0120   20.7000  -31.8140 C   0  0  0  0  0  0  0  0  0  0  0  0
   -5.3580   21.9380  -31.7710 C   0  0  0  0  0  0  0  0  0  0  0  0
   -3.5940   22.0040  -31.7970 S   0  0  0  0  0  0  0  0  0  0  0  0
   -3.0510   20.8320  -31.0290 O   0  0  0  0  0  0  0  0  0  0  0  0
   -3.0920   21.9540  -33.2130 O   0  0  0  0  0  0  0  0  0  0  0  0
   -3.0810   23.4890  -31.0610 N   0  0  0  0  0  0  0  0  0  0  0  0
   -2.5590   23.5740  -29.8760 C   0  0  0  0  0  0  0  0  0  0  0  0
   -2.1780   24.7480  -29.3310 N   0  0  0  0  0  0  0  0  0  0  0  0
   -1.6700   24.6300  -28.1060 N   0  0  0  0  0  0  0  0  0  0  0  0
   -1.6300   23.3490  -27.6720 C   0  0  0  0  0  0  0  0  0  0  0  0
   -1.1690   22.9550  -26.3110 C   0  0  0  0  0  0  0  0  0  0  0  0
   -2.2700   22.2880  -28.8180 S   0  0  0  0  0  0  0  0  0  0  0  0
   -5.6720   25.7984  -28.6377 H   0  0  0  0  0  0  0  0  0  0  0  0
   -6.6523   24.3798  -29.1407 H   0  0  0  0  0  0  0  0  0  0  0  0
   -4.8589   24.2777  -29.1407 H   0  0  0  0  0  0  0  0  0  0  0  0
   -6.6704   25.8668  -31.0131 H   0  0  0  0  0  0  0  0  0  0  0  0
   -4.8992   26.1838  -30.8625 H   0  0  0  0  0  0  0  0  0  0  0  0
   -8.1047   23.9801  -31.6526 H   0  0  0  0  0  0  0  0  0  0  0  0
  -10.0301   21.7471  -30.6980 H   0  0  0  0  0  0  0  0  0  0  0  0
  -10.0748   22.6443  -32.2536 H   0  0  0  0  0  0  0  0  0  0  0  0
  -10.0103   20.8491  -32.2536 H   0  0  0  0  0  0  0  0  0  0  0  0
   -5.4212   19.7731  -31.8560 H   0  0  0  0  0  0  0  0  0  0  0  0
   -2.2730   25.6730  -29.8090 H   0  0  0  0  0  0  0  0  0  0  0  0
   -1.7757   23.4735  -25.5540 H   0  0  0  0  0  0  0  0  0  0  0  0
   -1.2790   21.8675  -26.1871 H   0  0  0  0  0  0  0  0  0  0  0  0
   -0.1120   23.2331  -26.1871 H   0  0  0  0  0  0  0  0  0  0  0  0
  1  2  1  0
  2  3  1  0
  3  4  1  0
  4  5  2  0
  5  6  1  0
  6  7  1  0
  6  8  2  0
  8  9  1  0
  8 10  1  0
 10 11  2  0
 11 12  1  0
 12 13  2  0
 12 14  2  0
 12 15  1  0
 15 16  2  3
 16 17  1  0
 17 18  1  0
 18 19  2  0
 19 20  1  0
 19 21  1  0
 11  4  1  0
 21 16  1  0
  1 22  1  0
  1 23  1  0
  1 24  1  0
  2 25  1  0
  2 26  1  0
  5 27  1  0
  7 28  1  0
  7 29  1  0
  7 30  1  0
 10 31  1  0
 17 32  1  0
 20 33  1  0
 20 34  1  0
 20 35  1  0
M  END
>  <UniqueID>  (45) 
45

>  <SMILES>  (45) 
CCOc1cc(C)c(Br)cc1S(=O)(=O)N=c1[nH]nc(C)s1

>  <Energy>  (45) 
69.95207577687793

>  <Genealogy>  (45) 
CCOc1cc(C)c(Br)cc1S(=O)(=O)N=c1[nH]nc(C)s1 (3D coordinates assigned)
CCOc1cc(C)c(Br)cc1S(=O)(=O)N=c1[nH]nc(C)s1 (optimized conformer: 69.95207577687793 kcal/mol)

>  <smiles>  (45) 
CCOc1cc(C)c(Br)cc1S(=O)(=O)N=c1[nH]nc(C)s1

>  <score_type>  (45) 
oracle

>  <origin>  (45) 
adgpu

>  <m_score__min__energy>  (45) 
-8.5800000000000001

>  <m_primary>  (45) 
energy

$$$$
45:0
     RDKit          3D

 46 49  0  0  0  0  0  0  0  0999 V2000
   -6.0330   25.9460  -29.9590 O   0  0  0  0  0  0  0  0  0  0  0  0
   -5.2740   25.0520  -30.4180 C   0  0  0  0  0  0  0  0  0  0  0  0
   -3.8600   25.2910  -30.4360 N   0  0  0  0  0  0  0  0  0  0  0  0
   -2.8860   24.5130  -29.7260 C   0  0  0  0  0  0  0  0  0  0  0  0
   -2.2400   25.0200  -28.5870 C   0  0  0  0  0  0  0  0  0  0  0  0
   -1.3110   24.2350  -27.9000 C   0  0  0  0  0  0  0  0  0  0  0  0
   -1.0160   22.9450  -28.3470 C   0  0  0  0  0  0  0  0  0  0  0  0
   -1.6400   22.4390  -29.4960 C   0  0  0  0  0  0  0  0  0  0  0  0
   -1.3380   20.7870  -30.0250 S   0  0  0  0  0  0  0  0  0  0  0  0
    0.1160   20.6130  -30.3680 O   0  0  0  0  0  0  0  0  0  0  0  0
   -2.1580   20.5130  -31.2540 O   0  0  0  0  0  0  0  0  0  0  0  0
   -1.7950   19.6830  -28.7520 N   0  0  0  0  0  0  0  0  0  0  0  0
   -2.7460   20.3330  -27.8380 C   0  0  0  0  0  0  0  0  0  0  0  0
   -3.1290   19.3690  -26.6950 C   0  0  0  0  0  0  0  0  0  0  0  0
   -2.3770   18.1690  -26.7340 O   0  0  0  0  0  0  0  0  0  0  0  0
   -0.9950   18.4720  -26.7390 C   0  0  0  0  0  0  0  0  0  0  0  0
   -0.5980   19.2470  -28.0130 C   0  0  0  0  0  0  0  0  0  0  0  0
   -2.5650   23.2320  -30.1890 C   0  0  0  0  0  0  0  0  0  0  0  0
   -5.8500   23.8160  -30.9930 C   0  0  0  0  0  0  0  0  0  0  0  0
   -7.2130   23.5130  -30.8410 C   0  0  0  0  0  0  0  0  0  0  0  0
   -7.7160   22.3350  -31.3990 C   0  0  0  0  0  0  0  0  0  0  0  0
   -8.9370   22.0560  -31.2630 O   0  0  0  0  0  0  0  0  0  0  0  0
   -6.8510   21.4820  -32.1020 C   0  0  0  0  0  0  0  0  0  0  0  0
   -7.2890   20.2800  -32.6870 C   0  0  0  0  0  0  0  0  0  0  0  0
   -6.3830   19.4660  -33.3760 C   0  0  0  0  0  0  0  0  0  0  0  0
   -5.0410   19.8430  -33.4870 C   0  0  0  0  0  0  0  0  0  0  0  0
   -4.5960   21.0340  -32.9100 C   0  0  0  0  0  0  0  0  0  0  0  0
   -5.4930   21.8570  -32.2180 C   0  0  0  0  0  0  0  0  0  0  0  0
   -5.0600   22.9870  -31.6730 O   0  0  0  0  0  0  0  0  0  0  0  0
   -2.4660   26.0374  -28.2350 H   0  0  0  0  0  0  0  0  0  0  0  0
   -0.8107   24.6336  -27.0051 H   0  0  0  0  0  0  0  0  0  0  0  0
   -0.2929   22.3251  -27.7967 H   0  0  0  0  0  0  0  0  0  0  0  0
   -2.2825   21.2353  -27.4126 H   0  0  0  0  0  0  0  0  0  0  0  0
   -3.6531   20.6055  -28.3974 H   0  0  0  0  0  0  0  0  0  0  0  0
   -2.9473   19.8701  -25.7328 H   0  0  0  0  0  0  0  0  0  0  0  0
   -4.1906   19.1070  -26.8150 H   0  0  0  0  0  0  0  0  0  0  0  0
   -0.7592   19.0861  -25.8574 H   0  0  0  0  0  0  0  0  0  0  0  0
   -0.4314   17.5276  -26.7160 H   0  0  0  0  0  0  0  0  0  0  0  0
   -0.0075   20.1305  -27.7288 H   0  0  0  0  0  0  0  0  0  0  0  0
   -0.0054   18.5835  -28.6600 H   0  0  0  0  0  0  0  0  0  0  0  0
   -3.0413   22.8452  -31.1020 H   0  0  0  0  0  0  0  0  0  0  0  0
   -7.8766   24.1950  -30.2892 H   0  0  0  0  0  0  0  0  0  0  0  0
   -8.3439   19.9799  -32.6028 H   0  0  0  0  0  0  0  0  0  0  0  0
   -6.7277   18.5262  -33.8319 H   0  0  0  0  0  0  0  0  0  0  0  0
   -4.3338   19.1993  -34.0306 H   0  0  0  0  0  0  0  0  0  0  0  0
   -3.5393   21.3262  -32.9991 H   0  0  0  0  0  0  0  0  0  0  0  0
  1  2  2  0
  2  3  1  0
  3  4  1  0
  4  5  2  0
  5  6  1  0
  6  7  2  0
  7  8  1  0
  8  9  1  0
  9 10  2  0
  9 11  2  0
  9 12  1  0
 12 13  1  0
 13 14  1  0
 14 15  1  0
 15 16  1  0
 16 17  1  0
  8 18  2  0
  2 19  1  0
 19 20  2  0
 20 21  1  0
 21 22  2  0
 21 23  1  0
 23 24  2  0
 24 25  1  0
 25 26  2  0
 26 27  1  0
 27 28  2  0
 28 29  1  0
 18  4  1  0
 29 19  1  0
 17 12  1  0
 28 23  1  0
  5 30  1  0
  6 31  1  0
  7 32  1  0
 13 33  1  0
 13 34  1  0
 14 35  1  0
 14 36  1  0
 16 37  1  0
 16 38  1  0
 17 39  1  0
 17 40  1  0
 18 41  1  0
 20 42  1  0
 24 43  1  0
 25 44  1  0
 26 45  1  0
 27 46  1  0
M  CHG  1   3  -1
M  END
>  <UniqueID>  (46) 
46

>  <SMILES>  (46) 
O=C([N-]c1cccc(S(=O)(=O)N2CCOCC2)c1)c1cc(=O)c2ccccc2o1

>  <Energy>  (46) 
65.86581412059421

>  <Genealogy>  (46) 
O=C([N-]c1cccc(S(=O)(=O)N2CCOCC2)c1)c1cc(=O)c2ccccc2o1 (protonated)
O=C([N-]c1cccc(S(=O)(=O)N2CCOCC2)c1)c1cc(=O)c2ccccc2o1 (3D coordinates assigned)
O=C([N-]c1cccc(S(=O)(=O)N2CCOCC2)c1)c1cc(=O)c2ccccc2o1 (nonaromatic ring conformer: 65.86581412059421 kcal/mol)

>  <smiles>  (46) 
O=C(Nc1cccc(S(=O)(=O)N2CCOCC2)c1)c1cc(=O)c2ccccc2o1

>  <score_type>  (46) 
oracle

>  <origin>  (46) 
adgpu

>  <m_score__min__energy>  (46) 
-11.51

>  <m_primary>  (46) 
energy

$$$$
46:0
     RDKit          3D

 49 51  0  0  0  0  0  0  0  0999 V2000
   -3.8470   25.2850  -30.8270 N   0  0  0  0  0  0  0  0  0  0  0  0
   -3.1630   23.9000  -30.0540 S   0  0  0  0  0  0  0  0  0  0  0  0
   -1.8710   24.2870  -29.3890 O   0  0  0  0  0  0  0  0  0  0  0  0
   -4.1100   23.3910  -29.0040 O   0  0  0  0  0  0  0  0  0  0  0  0
   -2.8660   22.6450  -31.2510 C   0  0  0  0  0  0  0  0  0  0  0  0
   -3.8070   22.3960  -32.2580 C   0  0  0  0  0  0  0  0  0  0  0  0
   -3.5670   21.4080  -33.2180 C   0  0  0  0  0  0  0  0  0  0  0  0
   -2.3840   20.6530  -33.1760 C   0  0  0  0  0  0  0  0  0  0  0  0
   -2.1070   19.6170  -34.2270 C   0  0  0  0  0  0  0  0  0  0  0  0
   -1.8890   18.3260  -33.5790 N   0  0  0  0  0  0  0  0  0  0  0  0
   -3.2640   17.2980  -33.8370 S   0  0  0  0  0  0  0  0  0  0  0  0
   -3.1100   16.0490  -33.0170 O   0  0  0  0  0  0  0  0  0  0  0  0
   -3.3450   16.9130  -35.2890 O   0  0  0  0  0  0  0  0  0  0  0  0
   -4.7330   18.1330  -33.3380 C   0  0  0  0  0  0  0  0  0  0  0  0
   -5.2660   17.8940  -32.0660 C   0  0  0  0  0  0  0  0  0  0  0  0
   -6.4060   18.5830  -31.6400 C   0  0  0  0  0  0  0  0  0  0  0  0
   -7.0180   19.5210  -32.4820 C   0  0  0  0  0  0  0  0  0  0  0  0
   -8.4380   20.4130  -31.9290 S   0  0  0  0  0  0  0  0  0  0  0  0
   -9.0300   19.7080  -30.7400 O   0  0  0  0  0  0  0  0  0  0  0  0
   -9.4710   20.4280  -33.0230 O   0  0  0  0  0  0  0  0  0  0  0  0
   -8.0410   22.0550  -31.4860 N   0  0  0  0  0  0  0  0  0  0  0  0
   -7.1780   22.6710  -32.5080 C   0  0  0  0  0  0  0  0  0  0  0  0
   -6.6260   24.0240  -32.0130 C   0  0  0  0  0  0  0  0  0  0  0  0
   -7.3050   24.4560  -30.8500 O   0  0  0  0  0  0  0  0  0  0  0  0
   -7.0620   23.5510  -29.7850 C   0  0  0  0  0  0  0  0  0  0  0  0
   -7.3780   22.0900  -30.1740 C   0  0  0  0  0  0  0  0  0  0  0  0
   -6.4870   19.7570  -33.7570 C   0  0  0  0  0  0  0  0  0  0  0  0
   -5.3470   19.0680  -34.1830 C   0  0  0  0  0  0  0  0  0  0  0  0
   -1.4320   20.9210  -32.1800 C   0  0  0  0  0  0  0  0  0  0  0  0
   -1.6730   21.9100  -31.2210 C   0  0  0  0  0  0  0  0  0  0  0  0
   -3.9120   26.0370  -30.1040 H   0  0  0  0  0  0  0  0  0  0  0  0
   -4.7385   22.9799  -32.2939 H   0  0  0  0  0  0  0  0  0  0  0  0
   -4.3080   21.2216  -34.0093 H   0  0  0  0  0  0  0  0  0  0  0  0
   -2.9664   19.5460  -34.9100 H   0  0  0  0  0  0  0  0  0  0  0  0
   -1.2118   19.9002  -34.8000 H   0  0  0  0  0  0  0  0  0  0  0  0
   -4.7867   17.1620  -31.3994 H   0  0  0  0  0  0  0  0  0  0  0  0
   -6.8234   18.3880  -30.6411 H   0  0  0  0  0  0  0  0  0  0  0  0
   -6.3372   21.9958  -32.7252 H   0  0  0  0  0  0  0  0  0  0  0  0
   -7.7738   22.8434  -33.4164 H   0  0  0  0  0  0  0  0  0  0  0  0
   -5.5558   23.9133  -31.7840 H   0  0  0  0  0  0  0  0  0  0  0  0
   -6.7765   24.7733  -32.8041 H   0  0  0  0  0  0  0  0  0  0  0  0
   -6.0024   23.6193  -29.4975 H   0  0  0  0  0  0  0  0  0  0  0  0
   -7.7232   23.8277  -28.9506 H   0  0  0  0  0  0  0  0  0  0  0  0
   -6.4417   21.5146  -30.2227 H   0  0  0  0  0  0  0  0  0  0  0  0
   -8.0454   21.6497  -29.4185 H   0  0  0  0  0  0  0  0  0  0  0  0
   -6.9683   20.4865  -34.4250 H   0  0  0  0  0  0  0  0  0  0  0  0
   -4.9313   19.2601  -35.1831 H   0  0  0  0  0  0  0  0  0  0  0  0
   -0.4919   20.3504  -32.1536 H   0  0  0  0  0  0  0  0  0  0  0  0
   -0.9241   22.1116  -30.4409 H   0  0  0  0  0  0  0  0  0  0  0  0
  1  2  1  0
  2  3  2  0
  2  4  2  0
  2  5  1  0
  5  6  2  0
  6  7  1  0
  7  8  2  0
  8  9  1  0
  9 10  1  0
 10 11  1  0
 11 12  2  0
 11 13  2  0
 11 14  1  0
 14 15  2  0
 15 16  1  0
 16 17  2  0
 17 18  1  0
 18 19  2  0
 18 20  2  0
 18 21  1  0
 21 22  1  0
 22 23  1  0
 23 24  1  0
 24 25  1  0
 25 26  1  0
 17 27  1  0
 27 28  2  0
  8 29  1  0
 29 30  2  0
 30  5  1  0
 28 14  1  0
 26 21  1  0
  1 31  1  0
  6 32  1  0
  7 33  1  0
  9 34  1  0
  9 35  1  0
 15 36  1  0
 16 37  1  0
 22 38  1  0
 22 39  1  0
 23 40  1  0
 23 41  1  0
 25 42  1  0
 25 43  1  0
 26 44  1  0
 26 45  1  0
 27 46  1  0
 28 47  1  0
 29 48  1  0
 30 49  1  0
M  CHG  2   1  -1  10  -1
M  END
>  <UniqueID>  (47) 
47

>  <SMILES>  (47) 
[NH-]S(=O)(=O)c1ccc(C[N-]S(=O)(=O)c2ccc(S(=O)(=O)N3CCOCC3)cc2)cc1

>  <Energy>  (47) 
54.38530461542427

>  <Genealogy>  (47) 
[NH-]S(=O)(=O)c1ccc(C[N-]S(=O)(=O)c2ccc(S(=O)(=O)N3CCOCC3)cc2)cc1 (protonated)
[NH-]S(=O)(=O)c1ccc(C[N-]S(=O)(=O)c2ccc(S(=O)(=O)N3CCOCC3)cc2)cc1 (3D coordinates assigned)
[NH-]S(=O)(=O)c1ccc(C[N-]S(=O)(=O)c2ccc(S(=O)(=O)N3CCOCC3)cc2)cc1 (nonaromatic ring conformer: 54.38530461542427 kcal/mol)

>  <smiles>  (47) 
NS(=O)(=O)c1ccc(CNS(=O)(=O)c2ccc(S(=O)(=O)N3CCOCC3)cc2)cc1

>  <score_type>  (47) 
oracle

>  <origin>  (47) 
adgpu

>  <m_score__min__energy>  (47) 
-11.41

>  <m_primary>  (47) 
energy

$$$$
47:0
     RDKit          3D

 42 44  0  0  0  0  0  0  0  0999 V2000
   -1.2410   26.3830  -28.6870 N   0  0  0  0  0  0  0  0  0  0  0  0
   -0.9430   24.7450  -28.2200 S   0  0  0  0  0  0  0  0  0  0  0  0
    0.5310   24.4620  -28.2990 O   0  0  0  0  0  0  0  0  0  0  0  0
   -1.4120   24.5540  -26.8040 O   0  0  0  0  0  0  0  0  0  0  0  0
   -1.8090   23.6490  -29.2910 C   0  0  0  0  0  0  0  0  0  0  0  0
   -3.0810   23.9870  -29.7710 C   0  0  0  0  0  0  0  0  0  0  0  0
   -3.7700   23.1100  -30.6130 C   0  0  0  0  0  0  0  0  0  0  0  0
   -3.1980   21.8830  -30.9760 C   0  0  0  0  0  0  0  0  0  0  0  0
   -4.0680   20.7730  -32.0300 S   0  0  0  0  0  0  0  0  0  0  0  0
   -3.2550   19.5340  -32.2770 O   0  0  0  0  0  0  0  0  0  0  0  0
   -4.3310   21.4550  -33.3430 O   0  0  0  0  0  0  0  0  0  0  0  0
   -5.5840   20.3240  -31.3110 N   0  0  0  0  0  0  0  0  0  0  0  0
   -6.8220   21.0370  -31.5160 C   0  0  0  0  0  0  0  0  0  0  0  0
   -6.8400   22.4410  -31.6420 C   0  0  0  0  0  0  0  0  0  0  0  0
   -8.0370   23.1210  -31.8740 C   0  0  0  0  0  0  0  0  0  0  0  0
   -9.2330   22.4170  -31.9860 C   0  0  0  0  0  0  0  0  0  0  0  0
   -9.2390   21.0280  -31.8600 C   0  0  0  0  0  0  0  0  0  0  0  0
   -8.0470   20.3320  -31.6160 C   0  0  0  0  0  0  0  0  0  0  0  0
   -8.1350   18.5440  -31.4270 S   0  0  0  0  0  0  0  0  0  0  0  0
   -6.8850   18.2520  -32.6790 C   0  0  0  0  0  0  0  0  0  0  0  0
   -6.7780   19.1040  -33.7860 C   0  0  0  0  0  0  0  0  0  0  0  0
   -5.7960   18.8750  -34.7550 C   0  0  0  0  0  0  0  0  0  0  0  0
   -4.9250   17.7890  -34.6250 C   0  0  0  0  0  0  0  0  0  0  0  0
   -5.0370   16.9300  -33.5270 C   0  0  0  0  0  0  0  0  0  0  0  0
   -6.0150   17.1610  -32.5550 C   0  0  0  0  0  0  0  0  0  0  0  0
   -1.9260   21.5440  -30.4950 C   0  0  0  0  0  0  0  0  0  0  0  0
   -1.2370   22.4210  -29.6520 C   0  0  0  0  0  0  0  0  0  0  0  0
   -1.1910   26.4180  -29.7300 H   0  0  0  0  0  0  0  0  0  0  0  0
   -3.5386   24.9453  -29.4843 H   0  0  0  0  0  0  0  0  0  0  0  0
   -4.7655   23.3838  -30.9925 H   0  0  0  0  0  0  0  0  0  0  0  0
   -5.5640   19.4660  -30.7180 H   0  0  0  0  0  0  0  0  0  0  0  0
   -5.9006   23.0069  -31.5566 H   0  0  0  0  0  0  0  0  0  0  0  0
   -8.0352   24.2169  -31.9687 H   0  0  0  0  0  0  0  0  0  0  0  0
  -10.1731   22.9563  -32.1739 H   0  0  0  0  0  0  0  0  0  0  0  0
  -10.1854   20.4751  -31.9527 H   0  0  0  0  0  0  0  0  0  0  0  0
   -7.4675   19.9544  -33.8931 H   0  0  0  0  0  0  0  0  0  0  0  0
   -5.7088   19.5494  -35.6196 H   0  0  0  0  0  0  0  0  0  0  0  0
   -4.1515   17.6102  -35.3864 H   0  0  0  0  0  0  0  0  0  0  0  0
   -4.3554   16.0723  -33.4281 H   0  0  0  0  0  0  0  0  0  0  0  0
   -6.1015   16.4850  -31.6915 H   0  0  0  0  0  0  0  0  0  0  0  0
   -1.4686   20.5855  -30.7815 H   0  0  0  0  0  0  0  0  0  0  0  0
   -0.2424   22.1465  -29.2706 H   0  0  0  0  0  0  0  0  0  0  0  0
  1  2  1  0
  2  3  2  0
  2  4  2  0
  2  5  1  0
  5  6  2  0
  6  7  1  0
  7  8  2  0
  8  9  1  0
  9 10  2  0
  9 11  2  0
  9 12  1  0
 12 13  1  0
 13 14  2  0
 14 15  1  0
 15 16  2  0
 16 17  1  0
 17 18  2  0
 18 19  1  0
 19 20  1  0
 20 21  2  0
 21 22  1  0
 22 23  2  0
 23 24  1  0
 24 25  2  0
  8 26  1  0
 26 27  2  0
 27  5  1  0
 18 13  1  0
 25 20  1  0
  1 28  1  0
  6 29  1  0
  7 30  1  0
 12 31  1  0
 14 32  1  0
 15 33  1  0
 16 34  1  0
 17 35  1  0
 21 36  1  0
 22 37  1  0
 23 38  1  0
 24 39  1  0
 25 40  1  0
 26 41  1  0
 27 42  1  0
M  CHG  1   1  -1
M  END
>  <UniqueID>  (48) 
48

>  <SMILES>  (48) 
[NH-]S(=O)(=O)c1ccc(S(=O)(=O)Nc2ccccc2Sc2ccccc2)cc1

>  <Energy>  (48) 
43.946857407171095

>  <Genealogy>  (48) 
[NH-]S(=O)(=O)c1ccc(S(=O)(=O)Nc2ccccc2Sc2ccccc2)cc1 (protonated)
[NH-]S(=O)(=O)c1ccc(S(=O)(=O)Nc2ccccc2Sc2ccccc2)cc1 (3D coordinates assigned)
[NH-]S(=O)(=O)c1ccc(S(=O)(=O)Nc2ccccc2Sc2ccccc2)cc1 (optimized conformer: 43.946857407171095 kcal/mol)

>  <smiles>  (48) 
NS(=O)(=O)c1ccc(S(=O)(=O)Nc2ccccc2Sc2ccccc2)cc1

>  <score_type>  (48) 
oracle

>  <origin>  (48) 
adgpu

>  <m_score__min__energy>  (48) 
-11.58

>  <m_primary>  (48) 
energy

$$$$
48:0
     RDKit          3D

 43 45  0  0  0  0  0  0  0  0999 V2000
   -2.1780   21.3270  -33.3190 C   0  0  0  0  0  0  0  0  0  0  0  0
   -2.8780   20.8960  -32.1070 N   0  0  0  0  0  0  0  0  0  0  0  0
   -2.1370   20.4680  -30.9130 C   0  0  0  0  0  0  0  0  0  0  0  0
   -2.2540   21.5110  -29.8360 C   0  0  0  0  0  0  0  0  0  0  0  0
   -3.0740   21.2820  -28.7200 C   0  0  0  0  0  0  0  0  0  0  0  0
   -3.2330   22.2740  -27.7460 C   0  0  0  0  0  0  0  0  0  0  0  0
   -2.5830   23.5060  -27.8870 C   0  0  0  0  0  0  0  0  0  0  0  0
   -2.7510   24.5280  -26.8880 C   0  0  0  0  0  0  0  0  0  0  0  0
   -2.8850   25.3500  -26.0850 N   0  0  0  0  0  0  0  0  0  0  0  0
   -1.7760   23.7440  -29.0070 C   0  0  0  0  0  0  0  0  0  0  0  0
   -1.6160   22.7540  -29.9800 C   0  0  0  0  0  0  0  0  0  0  0  0
   -4.3110   20.8100  -32.1230 C   0  0  0  0  0  0  0  0  0  0  0  0
   -4.9360   19.5610  -32.2370 C   0  0  0  0  0  0  0  0  0  0  0  0
   -6.3310   19.4710  -32.2090 C   0  0  0  0  0  0  0  0  0  0  0  0
   -6.9850   18.2330  -32.3100 C   0  0  0  0  0  0  0  0  0  0  0  0
   -8.3820   18.1760  -32.2760 C   0  0  0  0  0  0  0  0  0  0  0  0
   -9.1310   19.3510  -32.1390 C   0  0  0  0  0  0  0  0  0  0  0  0
   -8.4870   20.5880  -32.0370 C   0  0  0  0  0  0  0  0  0  0  0  0
   -7.0900   20.6530  -32.0690 C   0  0  0  0  0  0  0  0  0  0  0  0
   -6.4600   21.8530  -31.9670 N   0  0  0  0  0  0  0  0  0  0  0  0
   -5.1030   21.9620  -31.9900 C   0  0  0  0  0  0  0  0  0  0  0  0
   -4.4910   23.2140  -31.8890 O   0  0  0  0  0  0  0  0  0  0  0  0
   -5.0260   24.4160  -30.8000 S   0  0  0  0  0  0  0  0  0  0  0  0
   -5.6870   23.6310  -29.3480 C   0  0  0  0  0  0  0  0  0  0  0  0
   -3.8730   25.2970  -30.4100 O   0  0  0  0  0  0  0  0  0  0  0  0
   -6.0970   25.2480  -31.4490 O   0  0  0  0  0  0  0  0  0  0  0  0
   -1.2719   21.8849  -33.0403 H   0  0  0  0  0  0  0  0  0  0  0  0
   -1.8973   20.4451  -33.9135 H   0  0  0  0  0  0  0  0  0  0  0  0
   -2.8391   21.9747  -33.9135 H   0  0  0  0  0  0  0  0  0  0  0  0
   -2.5529   19.5177  -30.5470 H   0  0  0  0  0  0  0  0  0  0  0  0
   -1.0767   20.3344  -31.1737 H   0  0  0  0  0  0  0  0  0  0  0  0
   -3.5938   20.3187  -28.6107 H   0  0  0  0  0  0  0  0  0  0  0  0
   -3.8693   22.0857  -26.8687 H   0  0  0  0  0  0  0  0  0  0  0  0
   -1.2671   24.7125  -29.1208 H   0  0  0  0  0  0  0  0  0  0  0  0
   -0.9881   22.9488  -30.8619 H   0  0  0  0  0  0  0  0  0  0  0  0
   -4.3287   18.6507  -32.3486 H   0  0  0  0  0  0  0  0  0  0  0  0
   -6.3990   17.3081  -32.4158 H   0  0  0  0  0  0  0  0  0  0  0  0
   -8.8936   17.2056  -32.3571 H   0  0  0  0  0  0  0  0  0  0  0  0
  -10.2295   19.3009  -32.1115 H   0  0  0  0  0  0  0  0  0  0  0  0
   -9.0785   21.5094  -31.9317 H   0  0  0  0  0  0  0  0  0  0  0  0
   -5.2778   24.1170  -28.4500 H   0  0  0  0  0  0  0  0  0  0  0  0
   -6.7831   23.7237  -29.3479 H   0  0  0  0  0  0  0  0  0  0  0  0
   -5.4090   22.5667  -29.3479 H   0  0  0  0  0  0  0  0  0  0  0  0
  1  2  1  0
  2  3  1  0
  3  4  1  0
  4  5  2  0
  5  6  1  0
  6  7  2  0
  7  8  1  0
  8  9  3  0
  7 10  1  0
 10 11  2  0
  2 12  1  0
 12 13  2  0
 13 14  1  0
 14 15  2  0
 15 16  1  0
 16 17  2  0
 17 18  1  0
 18 19  2  0
 19 20  1  0
 20 21  2  0
 21 22  1  0
 22 23  1  0
 23 24  1  0
 23 25  2  0
 23 26  2  0
 11  4  1  0
 21 12  1  0
 19 14  1  0
  1 27  1  0
  1 28  1  0
  1 29  1  0
  3 30  1  0
  3 31  1  0
  5 32  1  0
  6 33  1  0
 10 34  1  0
 11 35  1  0
 13 36  1  0
 15 37  1  0
 16 38  1  0
 17 39  1  0
 18 40  1  0
 24 41  1  0
 24 42  1  0
 24 43  1  0
M  END
>  <UniqueID>  (49) 
49

>  <SMILES>  (49) 
CN(Cc1ccc(C#N)cc1)c1cc2ccccc2nc1OS(C)(=O)=O

>  <Energy>  (49) 
42.73896221613432

>  <Genealogy>  (49) 
CN(Cc1ccc(C#N)cc1)c1cc2ccccc2nc1OS(C)(=O)=O (3D coordinates assigned)
CN(Cc1ccc(C#N)cc1)c1cc2ccccc2nc1OS(C)(=O)=O (optimized conformer: 42.73896221613432 kcal/mol)

>  <smiles>  (49) 
CN(Cc1ccc(C#N)cc1)c1cc2ccccc2nc1OS(C)(=O)=O

>  <score_type>  (49) 
oracle

>  <origin>  (49) 
adgpu

>  <m_score__min__energy>  (49) 
-9.0199999999999996

>  <m_primary>  (49) 
energy

$$$$
