0:0
     RDKit          3D

 46 48  0  0  0  0  0  0  0  0999 V2000
   -2.0667   21.2388  -26.8743 H   0  0  0  0  0  0  0  0  0  0  0  0
   -1.6210   22.1940  -27.1890 C   0  0  0  0  0  0  0  0  0  0  0  0
   -2.2650   22.9790  -28.0940 N   0  0  0  0  0  0  0  0  0  0  0  0
   -1.7490   24.1730  -28.5060 C   0  0  0  0  0  0  0  0  0  0  0  0
   -2.3880   24.9180  -29.3560 N   0  0  0  0  0  0  0  0  0  0  0  0
   -3.9260   24.5020  -30.0470 S   0  0  0  0  0  0  0  0  0  0  0  0
   -4.8960   24.1520  -28.9570 O   0  0  0  0  0  0  0  0  0  0  0  0
   -4.4690   25.6600  -30.8360 O   0  0  0  0  0  0  0  0  0  0  0  0
   -3.7140   23.1230  -31.1200 C   0  0  0  0  0  0  0  0  0  0  0  0
   -2.4820   22.4590  -31.1790 C   0  0  0  0  0  0  0  0  0  0  0  0
   -1.6457   22.8005  -30.5514 H   0  0  0  0  0  0  0  0  0  0  0  0
   -2.3100   21.3640  -32.0320 C   0  0  0  0  0  0  0  0  0  0  0  0
   -1.3374   20.8521  -32.0773 H   0  0  0  0  0  0  0  0  0  0  0  0
   -3.3760   20.9150  -32.8320 C   0  0  0  0  0  0  0  0  0  0  0  0
   -3.2390   19.7780  -33.7030 N   0  0  0  0  0  0  0  0  0  0  0  0
   -3.7960   19.7840  -34.5850 H   0  0  0  0  0  0  0  0  0  0  0  0
   -2.6060   18.5430  -33.3280 C   0  0  0  0  0  0  0  0  0  0  0  0
   -1.9550   18.4530  -32.2540 O   0  0  0  0  0  0  0  0  0  0  0  0
   -2.7330   17.3350  -34.2090 C   0  0  0  0  0  0  0  0  0  0  0  0
   -2.4595   17.6160  -35.2367 H   0  0  0  0  0  0  0  0  0  0  0  0
   -2.0625   16.5576  -33.8139 H   0  0  0  0  0  0  0  0  0  0  0  0
   -4.1580   16.7680  -34.2150 C   0  0  0  0  0  0  0  0  0  0  0  0
   -4.1335   15.7567  -34.6472 H   0  0  0  0  0  0  0  0  0  0  0  0
   -4.5169   16.7548  -33.1753 H   0  0  0  0  0  0  0  0  0  0  0  0
   -5.3210   17.7990  -35.1940 S   0  0  0  0  0  0  0  0  0  0  0  0
   -6.3150   18.3460  -33.7960 C   0  0  0  0  0  0  0  0  0  0  0  0
   -6.5370   17.4890  -32.7090 C   0  0  0  0  0  0  0  0  0  0  0  0
   -6.1078   16.4762  -32.7117 H   0  0  0  0  0  0  0  0  0  0  0  0
   -7.3040   17.9200  -31.6200 C   0  0  0  0  0  0  0  0  0  0  0  0
   -7.4888   17.2400  -30.7753 H   0  0  0  0  0  0  0  0  0  0  0  0
   -7.8360   19.2140  -31.6040 C   0  0  0  0  0  0  0  0  0  0  0  0
   -8.4367   19.5518  -30.7467 H   0  0  0  0  0  0  0  0  0  0  0  0
   -7.6030   20.0780  -32.6800 C   0  0  0  0  0  0  0  0  0  0  0  0
   -8.0173   21.0969  -32.6667 H   0  0  0  0  0  0  0  0  0  0  0  0
   -6.8430   19.6460  -33.7730 C   0  0  0  0  0  0  0  0  0  0  0  0
   -6.6590   20.3276  -34.6166 H   0  0  0  0  0  0  0  0  0  0  0  0
   -4.5940   21.6110  -32.8000 C   0  0  0  0  0  0  0  0  0  0  0  0
   -5.4208   21.2950  -33.4531 H   0  0  0  0  0  0  0  0  0  0  0  0
   -4.7640   22.7020  -31.9450 C   0  0  0  0  0  0  0  0  0  0  0  0
   -5.7270   23.2329  -31.9196 H   0  0  0  0  0  0  0  0  0  0  0  0
   -0.5160   24.6070  -28.0000 C   0  0  0  0  0  0  0  0  0  0  0  0
   -0.0846   25.5625  -28.3331 H   0  0  0  0  0  0  0  0  0  0  0  0
    0.1590   23.8160  -27.0700 C   0  0  0  0  0  0  0  0  0  0  0  0
    1.1244   24.1486  -26.6610 H   0  0  0  0  0  0  0  0  0  0  0  0
   -0.3940   22.6000  -26.6590 C   0  0  0  0  0  0  0  0  0  0  0  0
    0.1312   21.9697  -25.9263 H   0  0  0  0  0  0  0  0  0  0  0  0
  1  2  1  0
  2  3  1  0
  3  4  1  0
  4  5  2  0
  5  6  1  0
  6  7  2  0
  6  8  2  0
  6  9  1  0
  9 10  2  0
 10 11  1  0
 10 12  1  0
 12 13  1  0
 12 14  2  0
 14 15  1  0
 15 16  1  0
 15 17  1  0
 17 18  2  0
 17 19  1  0
 19 20  1  0
 19 21  1  0
 19 22  1  0
 22 23  1  0
 22 24  1  0
 22 25  1  0
 25 26  1  0
 26 27  2  0
 27 28  1  0
 27 29  1  0
 29 30  1  0
 29 31  2  0
 31 32  1  0
 31 33  1  0
 33 34  1  0
 33 35  2  0
 35 36  1  0
 14 37  1  0
 37 38  1  0
 37 39  2  0
 39 40  1  0
  4 41  1  0
 41 42  1  0
 41 43  2  0
 43 44  1  0
 43 45  1  0
 45 46  1  0
 45  2  2  0
 39  9  1  0
 35 26  1  0
M  CHG  1   3  -1
M  END
>  <UniqueID>  (1) 
1

>  <SMILES>  (1) 
O=C(CCSc1ccccc1)Nc1ccc(S(=O)(=O)/N=c2/cccc[n-]2)cc1

>  <Energy>  (1) 
48.54117179525804

>  <Genealogy>  (1) 
O=C(CCSc1ccccc1)Nc1ccc(S(=O)(=O)N=c2cccc[n-]2)cc1 (protonated)
O=C(CCSc1ccccc1)Nc1ccc(S(=O)(=O)/N=c2/cccc[n-]2)cc1 (cis-trans isomerization)
O=C(CCSc1ccccc1)Nc1ccc(S(=O)(=O)/N=c2/cccc[n-]2)cc1 (3D coordinates assigned)
O=C(CCSc1ccccc1)Nc1ccc(S(=O)(=O)/N=c2/cccc[n-]2)cc1 (optimized conformer: 48.54117179525804 kcal/mol)

>  <smiles>  (1) 
O=C(CCSc1ccccc1)Nc1ccc(S(=O)(=O)N=c2cccc[nH]2)cc1

>  <score_type>  (1) 
oracle

>  <origin>  (1) 
adgpu

>  <m_score__min__energy>  (1) 
-10.449999999999999

>  <m_primary>  (1) 
energy

$$$$
1:0
     RDKit          3D

 48 51  0  0  0  0  0  0  0  0999 V2000
   -8.2730   21.9330  -30.2150 C   0  0  0  0  0  0  0  0  0  0  0  0
   -7.7990   23.2350  -30.5530 O   0  0  0  0  0  0  0  0  0  0  0  0
   -6.4850   23.6770  -30.3460 C   0  0  0  0  0  0  0  0  0  0  0  0
   -5.9550   24.8110  -30.9920 C   0  0  0  0  0  0  0  0  0  0  0  0
   -4.6410   25.2160  -30.7400 C   0  0  0  0  0  0  0  0  0  0  0  0
   -3.8310   24.4870  -29.8630 C   0  0  0  0  0  0  0  0  0  0  0  0
   -2.4940   24.9400  -29.6100 N   0  0  0  0  0  0  0  0  0  0  0  0
   -1.3880   24.1110  -29.2280 C   0  0  0  0  0  0  0  0  0  0  0  0
   -0.4420   24.6290  -28.5780 O   0  0  0  0  0  0  0  0  0  0  0  0
   -1.3050   22.6860  -29.6230 C   0  0  0  0  0  0  0  0  0  0  0  0
   -0.6820   21.7450  -28.7840 C   0  0  0  0  0  0  0  0  0  0  0  0
   -0.6040   20.4030  -29.1620 C   0  0  0  0  0  0  0  0  0  0  0  0
   -1.1560   19.9840  -30.3730 C   0  0  0  0  0  0  0  0  0  0  0  0
   -1.8000   20.9040  -31.2090 C   0  0  0  0  0  0  0  0  0  0  0  0
   -2.4630   20.3730  -32.7520 S   0  0  0  0  0  0  0  0  0  0  0  0
   -1.8350   21.1730  -33.8590 O   0  0  0  0  0  0  0  0  0  0  0  0
   -2.1570   18.9150  -32.9620 O   0  0  0  0  0  0  0  0  0  0  0  0
   -4.1810   20.6100  -32.7580 N   0  0  0  0  0  0  0  0  0  0  0  0
   -4.8420   21.9130  -32.7430 C   0  0  0  0  0  0  0  0  0  0  0  0
   -6.3620   21.6150  -32.7140 C   0  0  0  0  0  0  0  0  0  0  0  0
   -6.4230   20.1250  -32.7160 C   0  0  0  0  0  0  0  0  0  0  0  0
   -7.5540   19.3080  -32.6880 C   0  0  0  0  0  0  0  0  0  0  0  0
   -7.3730   17.9150  -32.6830 C   0  0  0  0  0  0  0  0  0  0  0  0
   -6.0760   17.3680  -32.7010 C   0  0  0  0  0  0  0  0  0  0  0  0
   -4.9520   18.2110  -32.7280 C   0  0  0  0  0  0  0  0  0  0  0  0
   -5.1630   19.5930  -32.7380 C   0  0  0  0  0  0  0  0  0  0  0  0
   -1.8730   22.2530  -30.8320 C   0  0  0  0  0  0  0  0  0  0  0  0
   -4.3620   23.3640  -29.2070 C   0  0  0  0  0  0  0  0  0  0  0  0
   -5.6780   22.9630  -29.4510 C   0  0  0  0  0  0  0  0  0  0  0  0
   -8.3108   21.8292  -29.1206 H   0  0  0  0  0  0  0  0  0  0  0  0
   -9.2809   21.7900  -30.6319 H   0  0  0  0  0  0  0  0  0  0  0  0
   -7.5929   21.1755  -30.6319 H   0  0  0  0  0  0  0  0  0  0  0  0
   -6.5777   25.3803  -31.6978 H   0  0  0  0  0  0  0  0  0  0  0  0
   -4.2414   26.1137  -31.2345 H   0  0  0  0  0  0  0  0  0  0  0  0
   -0.2534   22.0681  -27.8239 H   0  0  0  0  0  0  0  0  0  0  0  0
   -0.1067   19.6751  -28.5041 H   0  0  0  0  0  0  0  0  0  0  0  0
   -1.0850   18.9277  -30.6717 H   0  0  0  0  0  0  0  0  0  0  0  0
   -4.5462   22.4823  -31.8495 H   0  0  0  0  0  0  0  0  0  0  0  0
   -4.5647   22.5177  -33.6190 H   0  0  0  0  0  0  0  0  0  0  0  0
   -6.8264   22.0266  -31.8057 H   0  0  0  0  0  0  0  0  0  0  0  0
   -6.9042   22.0678  -33.5572 H   0  0  0  0  0  0  0  0  0  0  0  0
   -8.5635   19.7446  -32.6703 H   0  0  0  0  0  0  0  0  0  0  0  0
   -8.2482   17.2489  -32.6649 H   0  0  0  0  0  0  0  0  0  0  0  0
   -5.9418   16.2762  -32.6939 H   0  0  0  0  0  0  0  0  0  0  0  0
   -3.9338   17.7948  -32.7409 H   0  0  0  0  0  0  0  0  0  0  0  0
   -2.3787   22.9768  -31.4880 H   0  0  0  0  0  0  0  0  0  0  0  0
   -3.7393   22.7981  -28.4985 H   0  0  0  0  0  0  0  0  0  0  0  0
   -6.0836   22.0796  -28.9362 H   0  0  0  0  0  0  0  0  0  0  0  0
  1  2  1  0
  2  3  1  0
  3  4  2  0
  4  5  1  0
  5  6  2  0
  6  7  1  0
  7  8  1  0
  8  9  2  0
  8 10  1  0
 10 11  2  0
 11 12  1  0
 12 13  2  0
 13 14  1  0
 14 15  1  0
 15 16  2  0
 15 17  2  0
 15 18  1  0
 18 19  1  0
 19 20  1  0
 20 21  1  0
 21 22  2  0
 22 23  1  0
 23 24  2  0
 24 25  1  0
 25 26  2  0
 14 27  2  0
  6 28  1  0
 28 29  2  0
 29  3  1  0
 27 10  1  0
 26 18  1  0
 26 21  1  0
  1 30  1  0
  1 31  1  0
  1 32  1  0
  4 33  1  0
  5 34  1  0
 11 35  1  0
 12 36  1  0
 13 37  1  0
 19 38  1  0
 19 39  1  0
 20 40  1  0
 20 41  1  0
 22 42  1  0
 23 43  1  0
 24 44  1  0
 25 45  1  0
 27 46  1  0
 28 47  1  0
 29 48  1  0
M  CHG  1   7  -1
M  END
>  <UniqueID>  (2) 
2

>  <SMILES>  (2) 
COc1ccc([N-]C(=O)c2cccc(S(=O)(=O)N3CCc4ccccc43)c2)cc1

>  <Energy>  (2) 
74.07722530755652

>  <Genealogy>  (2) 
COc1ccc([N-]C(=O)c2cccc(S(=O)(=O)N3CCc4ccccc43)c2)cc1 (protonated)
COc1ccc([N-]C(=O)c2cccc(S(=O)(=O)N3CCc4ccccc43)c2)cc1 (3D coordinates assigned)
COc1ccc([N-]C(=O)c2cccc(S(=O)(=O)N3CCc4ccccc43)c2)cc1 (nonaromatic ring conformer: 74.07722530755652 kcal/mol)

>  <smiles>  (2) 
COc1ccc(NC(=O)c2cccc(S(=O)(=O)N3CCc4ccccc43)c2)cc1

>  <score_type>  (2) 
oracle

>  <origin>  (2) 
adgpu

>  <m_score__min__energy>  (2) 
-10.970000000000001

>  <m_primary>  (2) 
energy

$$$$
2:0
     RDKit          3D

 40 42  0  0  0  0  0  0  0  0999 V2000
   -0.4050   26.3070  -26.6600 C   0  0  0  0  0  0  0  0  0  0  0  0
   -0.7480   25.3930  -27.7860 C   0  0  0  0  0  0  0  0  0  0  0  0
   -1.9830   25.2720  -28.3840 C   0  0  0  0  0  0  0  0  0  0  0  0
   -1.7690   24.2880  -29.3330 C   0  0  0  0  0  0  0  0  0  0  0  0
   -2.6470   23.7900  -30.1510 N   0  0  0  0  0  0  0  0  0  0  0  0
   -4.3150   24.2720  -30.2120 S   0  0  0  0  0  0  0  0  0  0  0  0
   -4.4130   25.6370  -30.8320 O   0  0  0  0  0  0  0  0  0  0  0  0
   -4.8600   24.3250  -28.8120 O   0  0  0  0  0  0  0  0  0  0  0  0
   -5.2330   23.1310  -31.1900 C   0  0  0  0  0  0  0  0  0  0  0  0
   -4.5600   22.2190  -32.0120 C   0  0  0  0  0  0  0  0  0  0  0  0
   -5.2740   21.2480  -32.7190 C   0  0  0  0  0  0  0  0  0  0  0  0
   -6.6760   21.1800  -32.6140 C   0  0  0  0  0  0  0  0  0  0  0  0
   -7.4330   20.1520  -33.2810 N   0  0  0  0  0  0  0  0  0  0  0  0
   -7.5720   18.7850  -32.7750 C   0  0  0  0  0  0  0  0  0  0  0  0
   -6.4620   17.9120  -33.3030 C   0  0  0  0  0  0  0  0  0  0  0  0
   -6.0880   16.7380  -32.6280 C   0  0  0  0  0  0  0  0  0  0  0  0
   -5.0770   15.9200  -33.1400 C   0  0  0  0  0  0  0  0  0  0  0  0
   -4.4240   16.2720  -34.3270 C   0  0  0  0  0  0  0  0  0  0  0  0
   -3.1550   15.2450  -34.9690 Cl  0  0  0  0  0  0  0  0  0  0  0  0
   -4.7860   17.4430  -35.0010 C   0  0  0  0  0  0  0  0  0  0  0  0
   -5.7990   18.2610  -34.4910 C   0  0  0  0  0  0  0  0  0  0  0  0
   -7.3470   22.1270  -31.8250 C   0  0  0  0  0  0  0  0  0  0  0  0
   -6.6310   23.0930  -31.1150 C   0  0  0  0  0  0  0  0  0  0  0  0
   -0.4910   23.8700  -29.2940 N   0  0  0  0  0  0  0  0  0  0  0  0
    0.0910   24.5550  -28.3520 O   0  0  0  0  0  0  0  0  0  0  0  0
   -0.5959   25.7982  -25.7036 H   0  0  0  0  0  0  0  0  0  0  0  0
    0.6579   26.5831  -26.7226 H   0  0  0  0  0  0  0  0  0  0  0  0
   -1.0238   27.2143  -26.7226 H   0  0  0  0  0  0  0  0  0  0  0  0
   -2.9097   25.8215  -28.1621 H   0  0  0  0  0  0  0  0  0  0  0  0
   -3.4647   22.2671  -32.1016 H   0  0  0  0  0  0  0  0  0  0  0  0
   -4.7379   20.5333  -33.3607 H   0  0  0  0  0  0  0  0  0  0  0  0
   -8.0220   20.4210  -34.1020 H   0  0  0  0  0  0  0  0  0  0  0  0
   -7.5296   18.7996  -31.6759 H   0  0  0  0  0  0  0  0  0  0  0  0
   -8.5366   18.3771  -33.1115 H   0  0  0  0  0  0  0  0  0  0  0  0
   -6.5937   16.4610  -31.6912 H   0  0  0  0  0  0  0  0  0  0  0  0
   -4.7942   14.9987  -32.6097 H   0  0  0  0  0  0  0  0  0  0  0  0
   -4.2731   17.7208  -35.9336 H   0  0  0  0  0  0  0  0  0  0  0  0
   -6.0780   19.1825  -35.0229 H   0  0  0  0  0  0  0  0  0  0  0  0
   -8.4452   22.1082  -31.7654 H   0  0  0  0  0  0  0  0  0  0  0  0
   -7.1668   23.8266  -30.4947 H   0  0  0  0  0  0  0  0  0  0  0  0
  1  2  1  0
  2  3  2  0
  3  4  1  0
  4  5  2  3
  5  6  1  0
  6  7  2  0
  6  8  2  0
  6  9  1  0
  9 10  2  0
 10 11  1  0
 11 12  2  0
 12 13  1  0
 13 14  1  0
 14 15  1  0
 15 16  2  0
 16 17  1  0
 17 18  2  0
 18 19  1  0
 18 20  1  0
 20 21  2  0
 12 22  1  0
 22 23  2  0
  4 24  1  0
 24 25  1  0
 25  2  1  0
 23  9  1  0
 21 15  1  0
  1 26  1  0
  1 27  1  0
  1 28  1  0
  3 29  1  0
 10 30  1  0
 11 31  1  0
 13 32  1  0
 14 33  1  0
 14 34  1  0
 16 35  1  0
 17 36  1  0
 20 37  1  0
 21 38  1  0
 22 39  1  0
 23 40  1  0
M  CHG  1  24  -1
M  END
>  <UniqueID>  (3) 
3

>  <SMILES>  (3) 
Cc1cc(=NS(=O)(=O)c2ccc(NCc3ccc(Cl)cc3)cc2)[n-]o1

>  <Energy>  (3) 
73.2421578280487

>  <Genealogy>  (3) 
Cc1cc(=NS(=O)(=O)c2ccc(NCc3ccc(Cl)cc3)cc2)[n-]o1 (protonated)
Cc1cc(=NS(=O)(=O)c2ccc(NCc3ccc(Cl)cc3)cc2)[n-]o1 (3D coordinates assigned)
Cc1cc(=NS(=O)(=O)c2ccc(NCc3ccc(Cl)cc3)cc2)[n-]o1 (optimized conformer: 73.2421578280487 kcal/mol)

>  <smiles>  (3) 
Cc1cc(=NS(=O)(=O)c2ccc(NCc3ccc(Cl)cc3)cc2)[nH]o1

>  <score_type>  (3) 
oracle

>  <origin>  (3) 
adgpu

>  <m_score__min__energy>  (3) 
-10.5

>  <m_primary>  (3) 
energy

$$$$
3:0
     RDKit          3D

 42 43  0  0  0  0  0  0  0  0999 V2000
   -9.4160   21.5900  -31.1370 C   0  0  0  0  0  0  0  0  0  0  0  0
   -8.6370   22.5190  -31.8810 O   0  0  0  0  0  0  0  0  0  0  0  0
   -7.2360   22.4900  -31.9780 C   0  0  0  0  0  0  0  0  0  0  0  0
   -6.4330   23.5100  -31.4380 C   0  0  0  0  0  0  0  0  0  0  0  0
   -5.0460   23.4670  -31.5640 C   0  0  0  0  0  0  0  0  0  0  0  0
   -4.2640   24.5190  -30.9820 N   0  0  0  0  0  0  0  0  0  0  0  0
   -3.7870   24.5600  -29.6330 C   0  0  0  0  0  0  0  0  0  0  0  0
   -4.5840   24.2830  -28.6970 O   0  0  0  0  0  0  0  0  0  0  0  0
   -2.4540   25.0050  -29.3380 N   0  0  0  0  0  0  0  0  0  0  0  0
   -1.7520   24.6970  -28.1220 C   0  0  0  0  0  0  0  0  0  0  0  0
   -1.2350   25.7120  -27.2960 C   0  0  0  0  0  0  0  0  0  0  0  0
   -0.5910   25.3880  -26.1000 C   0  0  0  0  0  0  0  0  0  0  0  0
   -0.4620   24.0530  -25.7110 C   0  0  0  0  0  0  0  0  0  0  0  0
   -0.9740   23.0290  -26.5210 C   0  0  0  0  0  0  0  0  0  0  0  0
   -0.8840   21.5960  -26.0860 C   0  0  0  0  0  0  0  0  0  0  0  0
   -1.6350   23.3580  -27.7140 C   0  0  0  0  0  0  0  0  0  0  0  0
   -4.4450   22.3680  -32.1950 C   0  0  0  0  0  0  0  0  0  0  0  0
   -5.2260   21.3340  -32.7470 C   0  0  0  0  0  0  0  0  0  0  0  0
   -4.6210   20.2450  -33.3940 O   0  0  0  0  0  0  0  0  0  0  0  0
   -4.3460   18.9850  -32.7910 C   0  0  0  0  0  0  0  0  0  0  0  0
   -6.6400   21.4020  -32.6400 C   0  0  0  0  0  0  0  0  0  0  0  0
   -7.5110   20.4270  -33.1630 O   0  0  0  0  0  0  0  0  0  0  0  0
   -7.7360   19.1220  -32.6420 C   0  0  0  0  0  0  0  0  0  0  0  0
   -9.2683   21.7662  -30.0613 H   0  0  0  0  0  0  0  0  0  0  0  0
  -10.4793   21.7198  -31.3872 H   0  0  0  0  0  0  0  0  0  0  0  0
   -9.1029   20.5656  -31.3872 H   0  0  0  0  0  0  0  0  0  0  0  0
   -6.9051   24.3516  -30.9100 H   0  0  0  0  0  0  0  0  0  0  0  0
   -1.9920   25.6400  -30.0280 H   0  0  0  0  0  0  0  0  0  0  0  0
   -1.3386   26.7658  -27.5938 H   0  0  0  0  0  0  0  0  0  0  0  0
   -0.1841   26.1867  -25.4624 H   0  0  0  0  0  0  0  0  0  0  0  0
    0.0429   23.8038  -24.7660 H   0  0  0  0  0  0  0  0  0  0  0  0
   -0.8809   21.5459  -24.9871 H   0  0  0  0  0  0  0  0  0  0  0  0
   -1.7490   21.0394  -26.4760 H   0  0  0  0  0  0  0  0  0  0  0  0
    0.0438   21.1520  -26.4760 H   0  0  0  0  0  0  0  0  0  0  0  0
   -2.0658   22.5595  -28.3359 H   0  0  0  0  0  0  0  0  0  0  0  0
   -3.3483   22.3128  -32.2597 H   0  0  0  0  0  0  0  0  0  0  0  0
   -4.3688   19.0897  -31.6962 H   0  0  0  0  0  0  0  0  0  0  0  0
   -5.1058   18.2544  -33.1054 H   0  0  0  0  0  0  0  0  0  0  0  0
   -3.3509   18.6374  -33.1054 H   0  0  0  0  0  0  0  0  0  0  0  0
   -7.7295   19.1599  -31.5427 H   0  0  0  0  0  0  0  0  0  0  0  0
   -8.7113   18.7513  -32.9903 H   0  0  0  0  0  0  0  0  0  0  0  0
   -6.9411   18.4461  -32.9903 H   0  0  0  0  0  0  0  0  0  0  0  0
  1  2  1  0
  2  3  1  0
  3  4  2  0
  4  5  1  0
  5  6  1  0
  6  7  1  0
  7  8  2  0
  7  9  1  0
  9 10  1  0
 10 11  2  0
 11 12  1  0
 12 13  2  0
 13 14  1  0
 14 15  1  0
 14 16  2  0
  5 17  2  0
 17 18  1  0
 18 19  1  0
 19 20  1  0
 18 21  2  0
 21 22  1  0
 22 23  1  0
 21  3  1  0
 16 10  1  0
  1 24  1  0
  1 25  1  0
  1 26  1  0
  4 27  1  0
  9 28  1  0
 11 29  1  0
 12 30  1  0
 13 31  1  0
 15 32  1  0
 15 33  1  0
 15 34  1  0
 16 35  1  0
 17 36  1  0
 20 37  1  0
 20 38  1  0
 20 39  1  0
 23 40  1  0
 23 41  1  0
 23 42  1  0
M  CHG  1   6  -1
M  END
>  <UniqueID>  (4) 
4

>  <SMILES>  (4) 
COc1cc([N-]C(=O)Nc2cccc(C)c2)cc(OC)c1OC

>  <Energy>  (4) 
49.29712593275995

>  <Genealogy>  (4) 
COc1cc([N-]C(=O)Nc2cccc(C)c2)cc(OC)c1OC (protonated)
COc1cc([N-]C(=O)Nc2cccc(C)c2)cc(OC)c1OC (3D coordinates assigned)
COc1cc([N-]C(=O)Nc2cccc(C)c2)cc(OC)c1OC (optimized conformer: 49.29712593275995 kcal/mol)

>  <smiles>  (4) 
COc1cc(NC(=O)Nc2cccc(C)c2)cc(OC)c1OC

>  <score_type>  (4) 
oracle

>  <origin>  (4) 
adgpu

>  <m_score__min__energy>  (4) 
-7.9800000000000004

>  <m_primary>  (4) 
energy

$$$$
4:0
     RDKit          3D

 51 54  0  0  0  0  0  0  0  0999 V2000
   -9.1160   23.1930  -31.9330 C   0  0  0  0  0  0  0  0  0  0  0  0
   -8.1850   22.0360  -32.1570 C   0  0  0  0  0  0  0  0  0  0  0  0
   -6.8380   22.2690  -32.4590 C   0  0  0  0  0  0  0  0  0  0  0  0
   -5.9780   21.1970  -32.7160 C   0  0  0  0  0  0  0  0  0  0  0  0
   -6.4500   19.8740  -32.6850 C   0  0  0  0  0  0  0  0  0  0  0  0
   -5.3110   18.5570  -33.0180 S   0  0  0  0  0  0  0  0  0  0  0  0
   -5.0520   18.4480  -34.4970 O   0  0  0  0  0  0  0  0  0  0  0  0
   -5.9070   17.2610  -32.5480 O   0  0  0  0  0  0  0  0  0  0  0  0
   -3.8130   18.9080  -32.2080 N   0  0  0  0  0  0  0  0  0  0  0  0
   -2.7020   19.6320  -32.7520 C   0  0  0  0  0  0  0  0  0  0  0  0
   -2.2600   19.3040  -34.0400 C   0  0  0  0  0  0  0  0  0  0  0  0
   -1.2030   20.0060  -34.6280 C   0  0  0  0  0  0  0  0  0  0  0  0
   -0.5660   21.0440  -33.9330 C   0  0  0  0  0  0  0  0  0  0  0  0
    0.5240   21.8030  -34.5760 C   0  0  0  0  0  0  0  0  0  0  0  0
    1.8380   21.5460  -34.4140 N   0  0  0  0  0  0  0  0  0  0  0  0
    2.4890   22.4580  -35.1230 N   0  0  0  0  0  0  0  0  0  0  0  0
    1.5450   23.2300  -35.6900 C   0  0  0  0  0  0  0  0  0  0  0  0
    1.8910   24.6410  -36.7370 S   0  0  0  0  0  0  0  0  0  0  0  0
    0.9640   25.8320  -35.7050 C   0  0  0  0  0  0  0  0  0  0  0  0
   -0.0320   26.6070  -36.5350 C   0  0  0  0  0  0  0  0  0  0  0  0
   -0.1100   26.3430  -37.9140 C   0  0  0  0  0  0  0  0  0  0  0  0
   -1.0530   26.9940  -38.7140 C   0  0  0  0  0  0  0  0  0  0  0  0
   -1.9360   27.9130  -38.1450 C   0  0  0  0  0  0  0  0  0  0  0  0
   -1.8700   28.1900  -36.7800 C   0  0  0  0  0  0  0  0  0  0  0  0
   -0.9230   27.5500  -35.9680 C   0  0  0  0  0  0  0  0  0  0  0  0
   -0.9030   27.9560  -34.2530 Cl  0  0  0  0  0  0  0  0  0  0  0  0
    0.3390   22.8350  -35.3640 O   0  0  0  0  0  0  0  0  0  0  0  0
   -0.9840   21.3500  -32.6250 C   0  0  0  0  0  0  0  0  0  0  0  0
   -2.0380   20.6410  -32.0360 C   0  0  0  0  0  0  0  0  0  0  0  0
   -7.8110   19.6280  -32.3680 C   0  0  0  0  0  0  0  0  0  0  0  0
   -8.3830   18.2330  -32.3250 C   0  0  0  0  0  0  0  0  0  0  0  0
   -8.6700   20.7190  -32.1310 C   0  0  0  0  0  0  0  0  0  0  0  0
   -9.2463   23.3550  -30.8528 H   0  0  0  0  0  0  0  0  0  0  0  0
   -8.6920   24.0988  -32.3911 H   0  0  0  0  0  0  0  0  0  0  0  0
  -10.0915   22.9727  -32.3911 H   0  0  0  0  0  0  0  0  0  0  0  0
   -6.4547   23.2995  -32.4942 H   0  0  0  0  0  0  0  0  0  0  0  0
   -4.9199   21.3916  -32.9451 H   0  0  0  0  0  0  0  0  0  0  0  0
   -2.7480   18.4880  -34.5932 H   0  0  0  0  0  0  0  0  0  0  0  0
   -0.8691   19.7422  -35.6424 H   0  0  0  0  0  0  0  0  0  0  0  0
    0.4264   25.2835  -34.9175 H   0  0  0  0  0  0  0  0  0  0  0  0
    1.6781   26.5416  -35.2616 H   0  0  0  0  0  0  0  0  0  0  0  0
    0.5791   25.6158  -38.3682 H   0  0  0  0  0  0  0  0  0  0  0  0
   -1.0993   26.7821  -39.7924 H   0  0  0  0  0  0  0  0  0  0  0  0
   -2.6839   28.4187  -38.7733 H   0  0  0  0  0  0  0  0  0  0  0  0
   -2.5667   28.9167  -36.3366 H   0  0  0  0  0  0  0  0  0  0  0  0
   -0.4805   22.1500  -32.0624 H   0  0  0  0  0  0  0  0  0  0  0  0
   -2.3475   20.8757  -31.0069 H   0  0  0  0  0  0  0  0  0  0  0  0
   -8.5108   17.9212  -31.2779 H   0  0  0  0  0  0  0  0  0  0  0  0
   -9.3587   18.2209  -32.8329 H   0  0  0  0  0  0  0  0  0  0  0  0
   -7.6967   17.5395  -32.8329 H   0  0  0  0  0  0  0  0  0  0  0  0
   -9.7346   20.5365  -31.9229 H   0  0  0  0  0  0  0  0  0  0  0  0
  1  2  1  0
  2  3  2  0
  3  4  1  0
  4  5  2  0
  5  6  1  0
  6  7  2  0
  6  8  2  0
  6  9  1  0
  9 10  1  0
 10 11  2  0
 11 12  1  0
 12 13  2  0
 13 14  1  0
 14 15  2  0
 15 16  1  0
 16 17  2  0
 17 18  1  0
 18 19  1  0
 19 20  1  0
 20 21  2  0
 21 22  1  0
 22 23  2  0
 23 24  1  0
 24 25  2  0
 25 26  1  0
 17 27  1  0
 13 28  1  0
 28 29  2  0
  5 30  1  0
 30 31  1  0
 30 32  2  0
 32  2  1  0
 29 10  1  0
 27 14  1  0
 25 20  1  0
  1 33  1  0
  1 34  1  0
  1 35  1  0
  3 36  1  0
  4 37  1  0
 11 38  1  0
 12 39  1  0
 19 40  1  0
 19 41  1  0
 21 42  1  0
 22 43  1  0
 23 44  1  0
 24 45  1  0
 28 46  1  0
 29 47  1  0
 31 48  1  0
 31 49  1  0
 31 50  1  0
 32 51  1  0
M  CHG  1   9  -1
M  END
>  <UniqueID>  (5) 
5

>  <SMILES>  (5) 
Cc1ccc(S(=O)(=O)[N-]c2ccc(-c3nnc(SCc4ccccc4Cl)o3)cc2)c(C)c1

>  <Energy>  (5) 
94.29054952044577

>  <Genealogy>  (5) 
Cc1ccc(S(=O)(=O)[N-]c2ccc(-c3nnc(SCc4ccccc4Cl)o3)cc2)c(C)c1 (protonated)
Cc1ccc(S(=O)(=O)[N-]c2ccc(-c3nnc(SCc4ccccc4Cl)o3)cc2)c(C)c1 (3D coordinates assigned)
Cc1ccc(S(=O)(=O)[N-]c2ccc(-c3nnc(SCc4ccccc4Cl)o3)cc2)c(C)c1 (optimized conformer: 94.29054952044577 kcal/mol)

>  <smiles>  (5) 
Cc1ccc(S(=O)(=O)Nc2ccc(-c3nnc(SCc4ccccc4Cl)o3)cc2)c(C)c1

>  <score_type>  (5) 
oracle

>  <origin>  (5) 
adgpu

>  <m_score__min__energy>  (5) 
-12.390000000000001

>  <m_primary>  (5) 
energy

$$$$
5:0
     RDKit          3D

 40 42  0  0  0  0  0  0  0  0999 V2000
   -0.6890   21.4080  -33.8050 C   0  0  0  0  0  0  0  0  0  0  0  0
   -1.9960   21.8430  -33.4460 O   0  0  0  0  0  0  0  0  0  0  0  0
   -3.0140   21.0010  -32.9720 C   0  0  0  0  0  0  0  0  0  0  0  0
   -3.7310   20.1440  -33.8300 C   0  0  0  0  0  0  0  0  0  0  0  0
   -4.7150   19.2950  -33.3170 C   0  0  0  0  0  0  0  0  0  0  0  0
   -4.9930   19.2890  -31.9500 C   0  0  0  0  0  0  0  0  0  0  0  0
   -4.2940   20.1390  -31.0910 C   0  0  0  0  0  0  0  0  0  0  0  0
   -3.3120   21.0050  -31.5940 C   0  0  0  0  0  0  0  0  0  0  0  0
   -2.6270   21.8960  -30.6980 N   0  0  0  0  0  0  0  0  0  0  0  0
   -1.3350   21.8020  -30.3290 C   0  0  0  0  0  0  0  0  0  0  0  0
   -0.4650   20.8110  -30.7730 O   0  0  0  0  0  0  0  0  0  0  0  0
   -1.0040   22.8160  -29.4650 C   0  0  0  0  0  0  0  0  0  0  0  0
    0.2450   22.9930  -28.8750 O   0  0  0  0  0  0  0  0  0  0  0  0
   -2.1460   23.5840  -29.2780 C   0  0  0  0  0  0  0  0  0  0  0  0
   -2.2810   24.7460  -28.3730 C   0  0  0  0  0  0  0  0  0  0  0  0
   -3.0880   24.6730  -27.1140 C   0  0  0  0  0  0  0  0  0  0  0  0
   -1.7130   25.8310  -28.6670 O   0  0  0  0  0  0  0  0  0  0  0  0
   -3.1360   22.9840  -30.0630 C   0  0  0  0  0  0  0  0  0  0  0  0
   -4.5340   23.4440  -30.2080 C   0  0  0  0  0  0  0  0  0  0  0  0
   -5.5880   22.5390  -30.0050 C   0  0  0  0  0  0  0  0  0  0  0  0
   -6.9130   22.9530  -30.1690 C   0  0  0  0  0  0  0  0  0  0  0  0
   -7.1950   24.2680  -30.5420 C   0  0  0  0  0  0  0  0  0  0  0  0
   -6.1520   25.1730  -30.7570 C   0  0  0  0  0  0  0  0  0  0  0  0
   -4.8230   24.7660  -30.5980 C   0  0  0  0  0  0  0  0  0  0  0  0
   -3.7980   25.6730  -30.8450 O   0  0  0  0  0  0  0  0  0  0  0  0
   -0.1042   21.2134  -32.8939 H   0  0  0  0  0  0  0  0  0  0  0  0
   -0.7600   20.4851  -34.3993 H   0  0  0  0  0  0  0  0  0  0  0  0
   -0.1928   22.1894  -34.3993 H   0  0  0  0  0  0  0  0  0  0  0  0
   -3.5152   20.1432  -34.9086 H   0  0  0  0  0  0  0  0  0  0  0  0
   -5.2720   18.6295  -33.9929 H   0  0  0  0  0  0  0  0  0  0  0  0
   -5.7634   18.6141  -31.5487 H   0  0  0  0  0  0  0  0  0  0  0  0
   -4.5147   20.1295  -30.0134 H   0  0  0  0  0  0  0  0  0  0  0  0
    0.9400   22.2590  -28.8640 H   0  0  0  0  0  0  0  0  0  0  0  0
   -2.4171   24.7337  -26.2444 H   0  0  0  0  0  0  0  0  0  0  0  0
   -3.8008   25.5103  -27.0863 H   0  0  0  0  0  0  0  0  0  0  0  0
   -3.6390   23.7213  -27.0863 H   0  0  0  0  0  0  0  0  0  0  0  0
   -5.3703   21.5003  -29.7158 H   0  0  0  0  0  0  0  0  0  0  0  0
   -7.7350   22.2410  -30.0038 H   0  0  0  0  0  0  0  0  0  0  0  0
   -8.2387   24.5922  -30.6668 H   0  0  0  0  0  0  0  0  0  0  0  0
   -6.3767   26.2086  -31.0522 H   0  0  0  0  0  0  0  0  0  0  0  0
  1  2  1  0
  2  3  1  0
  3  4  2  0
  4  5  1  0
  5  6  2  0
  6  7  1  0
  7  8  2  0
  8  9  1  0
  9 10  1  0
 10 11  1  0
 10 12  2  0
 12 13  1  0
 12 14  1  0
 14 15  1  0
 15 16  1  0
 15 17  2  0
 14 18  2  0
 18 19  1  0
 19 20  2  0
 20 21  1  0
 21 22  2  0
 22 23  1  0
 23 24  2  0
 24 25  1  0
  8  3  1  0
 18  9  1  0
 24 19  1  0
  1 26  1  0
  1 27  1  0
  1 28  1  0
  4 29  1  0
  5 30  1  0
  6 31  1  0
  7 32  1  0
 13 33  1  0
 16 34  1  0
 16 35  1  0
 16 36  1  0
 20 37  1  0
 21 38  1  0
 22 39  1  0
 23 40  1  0
M  CHG  2  11  -1  25  -1
M  END
>  <UniqueID>  (6) 
6

>  <SMILES>  (6) 
COc1ccccc1-n1c([O-])c(O)c(C(C)=O)c1-c1ccccc1[O-]

>  <Energy>  (6) 
83.79881716120157

>  <Genealogy>  (6) 
COc1ccccc1-n1c([O-])c(O)c(C(C)=O)c1-c1ccccc1[O-] (protonated)
COc1ccccc1-n1c([O-])c(O)c(C(C)=O)c1-c1ccccc1[O-] (3D coordinates assigned)
COc1ccccc1-n1c([O-])c(O)c(C(C)=O)c1-c1ccccc1[O-] (optimized conformer: 83.79881716120157 kcal/mol)

>  <smiles>  (6) 
COc1ccccc1-n1c(O)c(O)c(C(C)=O)c1-c1ccccc1O

>  <score_type>  (6) 
oracle

>  <origin>  (6) 
adgpu

>  <m_score__min__energy>  (6) 
-11.029999999999999

>  <m_primary>  (6) 
energy

$$$$
6:0
     RDKit          3D

 51 54  0  0  0  0  0  0  0  0999 V2000
   -2.0200   21.1200  -31.4790 C   0  0  0  0  0  0  0  0  0  0  0  0
   -2.8340   22.2510  -31.7670 O   0  0  0  0  0  0  0  0  0  0  0  0
   -4.2400   22.2530  -31.7480 C   0  0  0  0  0  0  0  0  0  0  0  0
   -4.9860   21.6210  -32.7630 C   0  0  0  0  0  0  0  0  0  0  0  0
   -6.3810   21.6240  -32.7250 C   0  0  0  0  0  0  0  0  0  0  0  0
   -7.0510   22.2560  -31.6800 C   0  0  0  0  0  0  0  0  0  0  0  0
   -8.8050   22.2610  -31.6410 Cl  0  0  0  0  0  0  0  0  0  0  0  0
   -6.3280   22.8890  -30.6670 C   0  0  0  0  0  0  0  0  0  0  0  0
   -4.9190   22.8970  -30.6840 C   0  0  0  0  0  0  0  0  0  0  0  0
   -4.1610   23.5800  -29.6030 C   0  0  0  0  0  0  0  0  0  0  0  0
   -4.5530   23.7310  -28.2790 C   0  0  0  0  0  0  0  0  0  0  0  0
   -3.5380   24.4230  -27.6550 C   0  0  0  0  0  0  0  0  0  0  0  0
   -2.5890   24.6540  -28.6300 C   0  0  0  0  0  0  0  0  0  0  0  0
   -1.3180   25.3610  -28.4470 C   0  0  0  0  0  0  0  0  0  0  0  0
   -1.1580   26.4960  -28.9700 O   0  0  0  0  0  0  0  0  0  0  0  0
   -0.2960   24.7800  -27.6280 N   0  0  0  0  0  0  0  0  0  0  0  0
   -0.4510   23.7020  -26.6920 C   0  0  0  0  0  0  0  0  0  0  0  0
   -0.9150   22.4380  -27.1010 C   0  0  0  0  0  0  0  0  0  0  0  0
   -1.1090   21.4190  -26.1640 C   0  0  0  0  0  0  0  0  0  0  0  0
   -1.7370   19.7070  -26.7320 Br  0  0  0  0  0  0  0  0  0  0  0  0
   -0.8610   21.6560  -24.8110 C   0  0  0  0  0  0  0  0  0  0  0  0
   -0.4240   22.9120  -24.3900 C   0  0  0  0  0  0  0  0  0  0  0  0
   -0.2190   23.9430  -25.3210 C   0  0  0  0  0  0  0  0  0  0  0  0
    0.2350   25.2290  -24.8630 N   0  0  0  0  0  0  0  0  0  0  0  0
    1.5940   25.6900  -25.1700 C   0  0  0  0  0  0  0  0  0  0  0  0
    2.2210   26.4280  -23.9670 C   0  0  0  0  0  0  0  0  0  0  0  0
    1.2310   27.0570  -23.0630 N   0  0  0  0  0  0  0  0  0  0  0  0
   -0.0200   27.4120  -23.7440 C   0  0  0  0  0  0  0  0  0  0  0  0
   -0.7250   26.1450  -24.2380 C   0  0  0  0  0  0  0  0  0  0  0  0
   -2.9850   24.1430  -29.7720 O   0  0  0  0  0  0  0  0  0  0  0  0
   -1.9329   20.9989  -30.3892 H   0  0  0  0  0  0  0  0  0  0  0  0
   -2.4779   20.2187  -31.9126 H   0  0  0  0  0  0  0  0  0  0  0  0
   -1.0200   21.2680  -31.9126 H   0  0  0  0  0  0  0  0  0  0  0  0
   -4.4642   21.1210  -33.5923 H   0  0  0  0  0  0  0  0  0  0  0  0
   -6.9528   21.1262  -33.5220 H   0  0  0  0  0  0  0  0  0  0  0  0
   -6.8646   23.3872  -29.8461 H   0  0  0  0  0  0  0  0  0  0  0  0
   -5.4859   23.3707  -27.8209 H   0  0  0  0  0  0  0  0  0  0  0  0
   -3.4934   24.7280  -26.5991 H   0  0  0  0  0  0  0  0  0  0  0  0
   -1.1262   22.2508  -28.1642 H   0  0  0  0  0  0  0  0  0  0  0  0
   -1.0103   20.8514  -24.0759 H   0  0  0  0  0  0  0  0  0  0  0  0
   -0.2387   23.0961  -23.3215 H   0  0  0  0  0  0  0  0  0  0  0  0
    2.2189   24.8206  -25.4224 H   0  0  0  0  0  0  0  0  0  0  0  0
    1.5404   26.3896  -26.0171 H   0  0  0  0  0  0  0  0  0  0  0  0
    2.8092   25.7032  -23.3850 H   0  0  0  0  0  0  0  0  0  0  0  0
    2.8373   27.2409  -24.3786 H   0  0  0  0  0  0  0  0  0  0  0  0
    1.0170   26.4030  -22.2730 H   0  0  0  0  0  0  0  0  0  0  0  0
    1.6490   27.9240  -22.6520 H   0  0  0  0  0  0  0  0  0  0  0  0
   -0.6782   27.9451  -23.0422 H   0  0  0  0  0  0  0  0  0  0  0  0
    0.2080   28.0575  -24.6050 H   0  0  0  0  0  0  0  0  0  0  0  0
   -1.2023   25.6410  -23.3846 H   0  0  0  0  0  0  0  0  0  0  0  0
   -1.4813   26.4288  -24.9846 H   0  0  0  0  0  0  0  0  0  0  0  0
  1  2  1  0
  2  3  1  0
  3  4  2  0
  4  5  1  0
  5  6  2  0
  6  7  1  0
  6  8  1  0
  8  9  2  0
  9 10  1  0
 10 11  2  0
 11 12  1  0
 12 13  2  0
 13 14  1  0
 14 15  2  0
 14 16  1  0
 16 17  1  0
 17 18  2  0
 18 19  1  0
 19 20  1  0
 19 21  2  0
 21 22  1  0
 22 23  2  0
 23 24  1  0
 24 25  1  0
 25 26  1  0
 26 27  1  0
 27 28  1  0
 28 29  1  0
 13 30  1  0
  9  3  1  0
 30 10  1  0
 23 17  1  0
 29 24  1  0
  1 31  1  0
  1 32  1  0
  1 33  1  0
  4 34  1  0
  5 35  1  0
  8 36  1  0
 11 37  1  0
 12 38  1  0
 18 39  1  0
 21 40  1  0
 22 41  1  0
 25 42  1  0
 25 43  1  0
 26 44  1  0
 26 45  1  0
 27 46  1  0
 27 47  1  0
 28 48  1  0
 28 49  1  0
 29 50  1  0
 29 51  1  0
M  CHG  2  16  -1  27   1
M  END
>  <UniqueID>  (7) 
7

>  <SMILES>  (7) 
COc1ccc(Cl)cc1-c1ccc(C(=O)[N-]c2cc(Br)ccc2N2CC[NH2+]CC2)o1

>  <Energy>  (7) 
93.14939478523789

>  <Genealogy>  (7) 
COc1ccc(Cl)cc1-c1ccc(C(=O)[N-]c2cc(Br)ccc2N2CC[NH2+]CC2)o1 (protonated)
COc1ccc(Cl)cc1-c1ccc(C(=O)[N-]c2cc(Br)ccc2N2CC[NH2+]CC2)o1 (3D coordinates assigned)
COc1ccc(Cl)cc1-c1ccc(C(=O)[N-]c2cc(Br)ccc2N2CC[NH2+]CC2)o1 (nonaromatic ring conformer: 93.14939478523789 kcal/mol)

>  <smiles>  (7) 
COc1ccc(Cl)cc1-c1ccc(C(=O)Nc2cc(Br)ccc2N2CCNCC2)o1

>  <score_type>  (7) 
oracle

>  <origin>  (7) 
adgpu

>  <m_score__min__energy>  (7) 
-10.720000000000001

>  <m_primary>  (7) 
energy

$$$$
7:0
     RDKit          3D

 50 52  0  0  0  0  0  0  0  0999 V2000
   -9.3243   21.4567  -31.8481 H   0  0  0  0  0  0  0  0  0  0  0  0
   -8.5640   20.6830  -32.0310 C   0  0  0  0  0  0  0  0  0  0  0  0
   -7.6212   20.9462  -32.5328 H   0  0  0  0  0  0  0  0  0  0  0  0
   -8.7850   19.4280  -31.6450 C   0  0  0  0  0  0  0  0  0  0  0  0
   -9.7366   19.1936  -31.1455 H   0  0  0  0  0  0  0  0  0  0  0  0
   -7.8150   18.3370  -31.8550 C   0  0  0  0  0  0  0  0  0  0  0  0
   -7.2360   17.8450  -30.8490 O   0  0  0  0  0  0  0  0  0  0  0  0
   -7.5650   17.7960  -33.1630 N   0  0  0  0  0  0  0  0  0  0  0  0
   -8.3390   17.8220  -33.8640 H   0  0  0  0  0  0  0  0  0  0  0  0
   -6.3570   17.0990  -33.5210 C   0  0  0  0  0  0  0  0  0  0  0  0
   -6.4180   15.7360  -33.8410 C   0  0  0  0  0  0  0  0  0  0  0  0
   -7.3804   15.2056  -33.7917 H   0  0  0  0  0  0  0  0  0  0  0  0
   -5.2650   15.0470  -34.2220 C   0  0  0  0  0  0  0  0  0  0  0  0
   -5.3207   13.9743  -34.4592 H   0  0  0  0  0  0  0  0  0  0  0  0
   -4.0410   15.7150  -34.3030 C   0  0  0  0  0  0  0  0  0  0  0  0
   -3.1359   15.1633  -34.5969 H   0  0  0  0  0  0  0  0  0  0  0  0
   -3.9580   17.0900  -34.0110 C   0  0  0  0  0  0  0  0  0  0  0  0
   -2.7030   17.8010  -34.1180 N   0  0  0  0  0  0  0  0  0  0  0  0
   -2.6440   19.1920  -33.7430 C   0  0  0  0  0  0  0  0  0  0  0  0
   -3.6170   19.7150  -32.9470 N   0  0  0  0  0  0  0  0  0  0  0  0
   -3.5850   21.0120  -32.5410 C   0  0  0  0  0  0  0  0  0  0  0  0
   -4.5230   21.4500  -31.7530 N   0  0  0  0  0  0  0  0  0  0  0  0
   -4.6710   22.7880  -31.2500 C   0  0  0  0  0  0  0  0  0  0  0  0
   -5.8880   23.4870  -31.3350 C   0  0  0  0  0  0  0  0  0  0  0  0
   -6.7520   23.0250  -31.8350 H   0  0  0  0  0  0  0  0  0  0  0  0
   -6.0030   24.7670  -30.7860 C   0  0  0  0  0  0  0  0  0  0  0  0
   -6.9560   25.3115  -30.8585 H   0  0  0  0  0  0  0  0  0  0  0  0
   -4.9100   25.3570  -30.1450 C   0  0  0  0  0  0  0  0  0  0  0  0
   -5.0080   26.3625  -29.7100 H   0  0  0  0  0  0  0  0  0  0  0  0
   -3.6920   24.6750  -30.0540 C   0  0  0  0  0  0  0  0  0  0  0  0
   -2.6020   25.2930  -29.3560 N   0  0  0  0  0  0  0  0  0  0  0  0
   -1.6110   24.6310  -28.5570 C   0  0  0  0  0  0  0  0  0  0  0  0
   -0.4010   24.9440  -28.7040 O   0  0  0  0  0  0  0  0  0  0  0  0
   -1.9670   23.5500  -27.5820 C   0  0  0  0  0  0  0  0  0  0  0  0
   -1.8430   23.9264  -26.5559 H   0  0  0  0  0  0  0  0  0  0  0  0
   -3.0127   23.2460  -27.7372 H   0  0  0  0  0  0  0  0  0  0  0  0
   -1.3066   22.6841  -27.7372 H   0  0  0  0  0  0  0  0  0  0  0  0
   -3.5900   23.3740  -30.5770 C   0  0  0  0  0  0  0  0  0  0  0  0
   -2.6529   22.8105  -30.4569 H   0  0  0  0  0  0  0  0  0  0  0  0
   -2.5470   21.8070  -32.9200 N   0  0  0  0  0  0  0  0  0  0  0  0
   -1.5520   21.3320  -33.7090 C   0  0  0  0  0  0  0  0  0  0  0  0
   -0.7268   21.9936  -34.0110 H   0  0  0  0  0  0  0  0  0  0  0  0
   -1.5740   20.0050  -34.1380 C   0  0  0  0  0  0  0  0  0  0  0  0
   -0.7689   19.6058  -34.7724 H   0  0  0  0  0  0  0  0  0  0  0  0
   -1.5700   17.1910  -34.8240 C   0  0  0  0  0  0  0  0  0  0  0  0
   -0.8477   16.8021  -34.0911 H   0  0  0  0  0  0  0  0  0  0  0  0
   -1.9323   16.3660  -35.4550 H   0  0  0  0  0  0  0  0  0  0  0  0
   -1.0808   17.9477  -35.4550 H   0  0  0  0  0  0  0  0  0  0  0  0
   -5.1260   17.7730  -33.6190 C   0  0  0  0  0  0  0  0  0  0  0  0
   -5.0749   18.8470  -33.3866 H   0  0  0  0  0  0  0  0  0  0  0  0
  1  2  1  0
  2  3  1  0
  2  4  2  0
  4  5  1  0
  4  6  1  0
  6  7  2  0
  6  8  1  0
  8  9  1  0
  8 10  1  0
 10 11  2  0
 11 12  1  0
 11 13  1  0
 13 14  1  0
 13 15  2  0
 15 16  1  0
 15 17  1  0
 17 18  1  0
 18 19  1  0
 19 20  2  0
 20 21  1  0
 21 22  2  0
 22 23  1  0
 23 24  2  0
 24 25  1  0
 24 26  1  0
 26 27  1  0
 26 28  2  0
 28 29  1  0
 28 30  1  0
 30 31  1  0
 31 32  1  0
 32 33  2  0
 32 34  1  0
 34 35  1  0
 34 36  1  0
 34 37  1  0
 30 38  2  0
 38 39  1  0
 21 40  1  0
 40 41  1  0
 41 42  1  0
 41 43  2  0
 43 44  1  0
 18 45  1  0
 45 46  1  0
 45 47  1  0
 45 48  1  0
 17 49  2  0
 49 50  1  0
 49 10  1  0
 43 19  1  0
 38 23  1  0
M  CHG  2  31  -1  40  -1
M  END
>  <UniqueID>  (8) 
8

>  <SMILES>  (8) 
C=CC(=O)Nc1cccc(N(C)c2cc[n-]/c(=N\c3cccc([N-]C(C)=O)c3)n2)c1

>  <Energy>  (8) 
73.04999538793743

>  <Genealogy>  (8) 
C=CC(=O)Nc1cccc(N(C)c2cc[n-]c(=Nc3cccc([N-]C(C)=O)c3)n2)c1 (protonated)
C=CC(=O)Nc1cccc(N(C)c2cc[n-]/c(=N\c3cccc([N-]C(C)=O)c3)n2)c1 (cis-trans isomerization)
C=CC(=O)Nc1cccc(N(C)c2cc[n-]/c(=N\c3cccc([N-]C(C)=O)c3)n2)c1 (3D coordinates assigned)
C=CC(=O)Nc1cccc(N(C)c2cc[n-]/c(=N\c3cccc([N-]C(C)=O)c3)n2)c1 (optimized conformer: 73.04999538793743 kcal/mol)

>  <smiles>  (8) 
C=CC(=O)Nc1cccc(N(C)c2cc[nH]c(=Nc3cccc(NC(C)=O)c3)n2)c1

>  <score_type>  (8) 
oracle

>  <origin>  (8) 
adgpu

>  <m_score__min__energy>  (8) 
-10.92

>  <m_primary>  (8) 
energy

$$$$
8:0
     RDKit          3D

 33 35  0  0  0  0  0  0  0  0999 V2000
   -2.0040   21.0720  -31.7940 S   0  0  0  0  0  0  0  0  0  0  0  0
   -2.6020   22.4600  -31.2330 C   0  0  0  0  0  0  0  0  0  0  0  0
   -3.0740   23.5560  -30.7910 N   0  0  0  0  0  0  0  0  0  0  0  0
   -4.4780   23.8330  -30.6700 C   0  0  0  0  0  0  0  0  0  0  0  0
   -4.9600   25.0550  -30.1630 C   0  0  0  0  0  0  0  0  0  0  0  0
   -6.3330   25.2840  -30.0700 C   0  0  0  0  0  0  0  0  0  0  0  0
   -7.2390   24.3040  -30.4790 C   0  0  0  0  0  0  0  0  0  0  0  0
   -6.7820   23.0720  -30.9840 C   0  0  0  0  0  0  0  0  0  0  0  0
   -7.7630   22.0420  -31.4130 C   0  0  0  0  0  0  0  0  0  0  0  0
   -9.0540   22.3240  -31.8750 C   0  0  0  0  0  0  0  0  0  0  0  0
   -9.7960   20.8700  -32.2750 S   0  0  0  0  0  0  0  0  0  0  0  0
   -8.4670   19.9430  -31.8340 C   0  0  0  0  0  0  0  0  0  0  0  0
   -8.3650   18.4620  -31.9970 C   0  0  0  0  0  0  0  0  0  0  0  0
   -7.2450   18.1250  -32.9410 C   0  0  0  0  0  0  0  0  0  0  0  0
   -6.8520   16.7880  -33.1260 C   0  0  0  0  0  0  0  0  0  0  0  0
   -5.7850   16.4800  -33.9760 C   0  0  0  0  0  0  0  0  0  0  0  0
   -5.0970   17.5010  -34.6370 C   0  0  0  0  0  0  0  0  0  0  0  0
   -5.4740   18.8340  -34.4480 C   0  0  0  0  0  0  0  0  0  0  0  0
   -6.5400   19.1470  -33.6000 C   0  0  0  0  0  0  0  0  0  0  0  0
   -7.4470   20.7170  -31.4070 N   0  0  0  0  0  0  0  0  0  0  0  0
   -5.3920   22.8530  -31.0790 C   0  0  0  0  0  0  0  0  0  0  0  0
   -4.2516   25.8317  -29.8392 H   0  0  0  0  0  0  0  0  0  0  0  0
   -6.7031   26.2407  -29.6728 H   0  0  0  0  0  0  0  0  0  0  0  0
   -8.3196   24.4961  -30.4060 H   0  0  0  0  0  0  0  0  0  0  0  0
   -9.5046   23.3238  -31.9613 H   0  0  0  0  0  0  0  0  0  0  0  0
   -8.1678   18.0005  -31.0182 H   0  0  0  0  0  0  0  0  0  0  0  0
   -9.3107   18.0777  -32.4067 H   0  0  0  0  0  0  0  0  0  0  0  0
   -7.3852   15.9819  -32.6008 H   0  0  0  0  0  0  0  0  0  0  0  0
   -5.4867   15.4317  -34.1246 H   0  0  0  0  0  0  0  0  0  0  0  0
   -4.2589   17.2560  -35.3060 H   0  0  0  0  0  0  0  0  0  0  0  0
   -4.9310   19.6374  -34.9673 H   0  0  0  0  0  0  0  0  0  0  0  0
   -6.8285   20.1975  -33.4477 H   0  0  0  0  0  0  0  0  0  0  0  0
   -5.0200   21.8987  -31.4801 H   0  0  0  0  0  0  0  0  0  0  0  0
  1  2  2  0
  2  3  2  0
  3  4  1  0
  4  5  2  0
  5  6  1  0
  6  7  2  0
  7  8  1  0
  8  9  1  0
  9 10  2  0
 10 11  1  0
 11 12  1  0
 12 13  1  0
 13 14  1  0
 14 15  2  0
 15 16  1  0
 16 17  2  0
 17 18  1  0
 18 19  2  0
 12 20  2  0
  8 21  2  0
 21  4  1  0
 20  9  1  0
 19 14  1  0
  5 22  1  0
  6 23  1  0
  7 24  1  0
 10 25  1  0
 13 26  1  0
 13 27  1  0
 15 28  1  0
 16 29  1  0
 17 30  1  0
 18 31  1  0
 19 32  1  0
 21 33  1  0
M  END
>  <UniqueID>  (9) 
9

>  <SMILES>  (9) 
S=C=Nc1cccc(-c2csc(Cc3ccccc3)n2)c1

>  <Energy>  (9) 
66.13328974740017

>  <Genealogy>  (9) 
S=C=Nc1cccc(-c2csc(Cc3ccccc3)n2)c1 (3D coordinates assigned)
S=C=Nc1cccc(-c2csc(Cc3ccccc3)n2)c1 (optimized conformer: 66.13328974740017 kcal/mol)

>  <smiles>  (9) 
S=C=Nc1cccc(-c2csc(Cc3ccccc3)n2)c1

>  <score_type>  (9) 
oracle

>  <origin>  (9) 
adgpu

>  <m_score__min__energy>  (9) 
-8.5500000000000007

>  <m_primary>  (9) 
energy

$$$$
9:0
     RDKit          3D

 51 53  0  0  0  0  0  0  0  0999 V2000
    0.0230   24.6310  -26.4450 C   0  0  0  0  0  0  0  0  0  0  0  0
   -0.5580   25.0080  -27.8070 C   0  0  0  0  0  0  0  0  0  0  0  0
   -2.0840   24.8930  -27.7900 C   0  0  0  0  0  0  0  0  0  0  0  0
   -0.0090   24.1420  -28.8000 O   0  0  0  0  0  0  0  0  0  0  0  0
   -0.3040   22.7750  -28.8880 C   0  0  0  0  0  0  0  0  0  0  0  0
    0.1820   21.9690  -28.0480 O   0  0  0  0  0  0  0  0  0  0  0  0
   -1.2000   22.2830  -29.9580 C   0  0  0  0  0  0  0  0  0  0  0  0
   -2.5840   22.1760  -29.7400 C   0  0  0  0  0  0  0  0  0  0  0  0
   -3.4310   21.7410  -30.7620 C   0  0  0  0  0  0  0  0  0  0  0  0
   -2.9110   21.4140  -32.0280 C   0  0  0  0  0  0  0  0  0  0  0  0
   -3.7610   21.0270  -33.1250 N   0  0  0  0  0  0  0  0  0  0  0  0
   -3.7700   19.6860  -33.7160 C   0  0  0  0  0  0  0  0  0  0  0  0
   -5.0370   18.9440  -33.3550 C   0  0  0  0  0  0  0  0  0  0  0  0
   -5.0100   17.5400  -33.2970 C   0  0  0  0  0  0  0  0  0  0  0  0
   -6.1660   16.8190  -32.9880 C   0  0  0  0  0  0  0  0  0  0  0  0
   -7.3620   17.4900  -32.7320 C   0  0  0  0  0  0  0  0  0  0  0  0
   -7.4050   18.8840  -32.7780 C   0  0  0  0  0  0  0  0  0  0  0  0
   -6.2510   19.6230  -33.0680 C   0  0  0  0  0  0  0  0  0  0  0  0
   -6.3590   21.0190  -33.1130 O   0  0  0  0  0  0  0  0  0  0  0  0
   -6.6830   21.8380  -32.0210 C   0  0  0  0  0  0  0  0  0  0  0  0
   -7.6930   21.4850  -31.1080 C   0  0  0  0  0  0  0  0  0  0  0  0
   -7.9590   22.3020  -30.0070 C   0  0  0  0  0  0  0  0  0  0  0  0
   -7.2370   23.4810  -29.8170 C   0  0  0  0  0  0  0  0  0  0  0  0
   -6.2550   23.8610  -30.7380 C   0  0  0  0  0  0  0  0  0  0  0  0
   -5.3650   25.3520  -30.4510 Cl  0  0  0  0  0  0  0  0  0  0  0  0
   -5.9880   23.0470  -31.8540 C   0  0  0  0  0  0  0  0  0  0  0  0
   -5.0310   23.4070  -32.8060 O   0  0  0  0  0  0  0  0  0  0  0  0
   -1.5260   21.4890  -32.2320 C   0  0  0  0  0  0  0  0  0  0  0  0
   -0.6780   21.9250  -31.2100 C   0  0  0  0  0  0  0  0  0  0  0  0
   -0.6131   25.0437  -25.6481 H   0  0  0  0  0  0  0  0  0  0  0  0
    0.0613   23.5355  -26.3532 H   0  0  0  0  0  0  0  0  0  0  0  0
    1.0390   25.0424  -26.3532 H   0  0  0  0  0  0  0  0  0  0  0  0
   -0.2971   26.0511  -28.0393 H   0  0  0  0  0  0  0  0  0  0  0  0
   -2.4381   24.8663  -26.7489 H   0  0  0  0  0  0  0  0  0  0  0  0
   -2.5228   25.7606  -28.3044 H   0  0  0  0  0  0  0  0  0  0  0  0
   -2.3879   23.9694  -28.3044 H   0  0  0  0  0  0  0  0  0  0  0  0
   -3.0036   22.4368  -28.7572 H   0  0  0  0  0  0  0  0  0  0  0  0
   -4.5116   21.6535  -30.5759 H   0  0  0  0  0  0  0  0  0  0  0  0
   -4.4060   21.7470  -33.5330 H   0  0  0  0  0  0  0  0  0  0  0  0
   -3.7043   19.7747  -34.8105 H   0  0  0  0  0  0  0  0  0  0  0  0
   -2.9101   19.1237  -33.3230 H   0  0  0  0  0  0  0  0  0  0  0  0
   -4.0703   17.0041  -33.4967 H   0  0  0  0  0  0  0  0  0  0  0  0
   -6.1331   15.7203  -32.9465 H   0  0  0  0  0  0  0  0  0  0  0  0
   -8.2719   16.9197  -32.4937 H   0  0  0  0  0  0  0  0  0  0  0  0
   -8.3533   19.4070  -32.5849 H   0  0  0  0  0  0  0  0  0  0  0  0
   -8.2744   20.5639  -31.2614 H   0  0  0  0  0  0  0  0  0  0  0  0
   -8.7400   22.0153  -29.2874 H   0  0  0  0  0  0  0  0  0  0  0  0
   -7.4407   24.1135  -28.9404 H   0  0  0  0  0  0  0  0  0  0  0  0
   -4.9840   22.9830  -33.7230 H   0  0  0  0  0  0  0  0  0  0  0  0
   -1.1026   21.2019  -33.2058 H   0  0  0  0  0  0  0  0  0  0  0  0
    0.4056   21.9878  -31.3885 H   0  0  0  0  0  0  0  0  0  0  0  0
  1  2  1  0
  2  3  1  0
  2  4  1  0
  4  5  1  0
  5  6  2  0
  5  7  1  0
  7  8  2  0
  8  9  1  0
  9 10  2  0
 10 11  1  0
 11 12  1  0
 12 13  1  0
 13 14  2  0
 14 15  1  0
 15 16  2  0
 16 17  1  0
 17 18  2  0
 18 19  1  0
 19 20  1  0
 20 21  2  0
 21 22  1  0
 22 23  2  0
 23 24  1  0
 24 25  1  0
 24 26  2  0
 26 27  1  0
 10 28  1  0
 28 29  2  0
 29  7  1  0
 18 13  1  0
 26 20  1  0
  1 30  1  0
  1 31  1  0
  1 32  1  0
  2 33  1  0
  3 34  1  0
  3 35  1  0
  3 36  1  0
  8 37  1  0
  9 38  1  0
 11 39  1  0
 12 40  1  0
 12 41  1  0
 14 42  1  0
 15 43  1  0
 16 44  1  0
 17 45  1  0
 21 46  1  0
 22 47  1  0
 23 48  1  0
 27 49  1  0
 28 50  1  0
 29 51  1  0
M  END
>  <UniqueID>  (10) 
10

>  <SMILES>  (10) 
CC(C)OC(=O)c1ccc(NCc2ccccc2Oc2cccc(Cl)c2O)cc1

>  <Energy>  (10) 
54.792543671428184

>  <Genealogy>  (10) 
CC(C)OC(=O)c1ccc(NCc2ccccc2Oc2cccc(Cl)c2O)cc1 (3D coordinates assigned)
CC(C)OC(=O)c1ccc(NCc2ccccc2Oc2cccc(Cl)c2O)cc1 (optimized conformer: 54.792543671428184 kcal/mol)

>  <smiles>  (10) 
CC(C)OC(=O)c1ccc(NCc2ccccc2Oc2cccc(Cl)c2O)cc1

>  <score_type>  (10) 
oracle

>  <origin>  (10) 
adgpu

>  <m_score__min__energy>  (10) 
-10.25

>  <m_primary>  (10) 
energy

$$$$
10:0
     RDKit          3D

 39 41  0  0  0  0  0  0  0  0999 V2000
   -0.3700   20.3080  -31.4720 C   0  0  0  0  0  0  0  0  0  0  0  0
   -1.5850   20.8840  -32.0370 N   0  0  0  0  0  0  0  0  0  0  0  0
   -2.0000   20.7720  -33.3090 C   0  0  0  0  0  0  0  0  0  0  0  0
   -3.1420   21.5260  -33.4530 C   0  0  0  0  0  0  0  0  0  0  0  0
   -3.4410   22.1260  -32.2820 N   0  0  0  0  0  0  0  0  0  0  0  0
   -2.4630   21.7200  -31.4460 C   0  0  0  0  0  0  0  0  0  0  0  0
   -2.3700   22.2590  -29.7350 S   0  0  0  0  0  0  0  0  0  0  0  0
   -3.8880   23.2110  -29.8490 C   0  0  0  0  0  0  0  0  0  0  0  0
   -5.1170   22.5430  -29.9330 C   0  0  0  0  0  0  0  0  0  0  0  0
   -6.3160   23.2700  -30.0390 C   0  0  0  0  0  0  0  0  0  0  0  0
   -7.5920   22.6260  -30.1480 N   0  0  0  0  0  0  0  0  0  0  0  0
   -8.3770   22.2150  -31.6380 S   0  0  0  0  0  0  0  0  0  0  0  0
   -7.9260   23.1480  -32.7260 O   0  0  0  0  0  0  0  0  0  0  0  0
   -9.8680   22.3200  -31.4800 O   0  0  0  0  0  0  0  0  0  0  0  0
   -7.9550   20.5590  -32.0620 C   0  0  0  0  0  0  0  0  0  0  0  0
   -8.6780   19.4850  -31.5300 C   0  0  0  0  0  0  0  0  0  0  0  0
   -8.3470   18.1740  -31.8820 C   0  0  0  0  0  0  0  0  0  0  0  0
   -7.2960   17.9300  -32.7690 C   0  0  0  0  0  0  0  0  0  0  0  0
   -6.5630   18.9980  -33.3180 C   0  0  0  0  0  0  0  0  0  0  0  0
   -5.4810   18.7510  -34.2360 N   0  0  0  0  0  0  0  0  0  0  0  0
   -4.2980   18.7400  -33.8390 O   0  0  0  0  0  0  0  0  0  0  0  0
   -5.7350   18.5260  -35.5700 O   0  0  0  0  0  0  0  0  0  0  0  0
   -6.9040   20.3140  -32.9580 C   0  0  0  0  0  0  0  0  0  0  0  0
   -6.2700   24.6700  -30.0440 C   0  0  0  0  0  0  0  0  0  0  0  0
   -5.0460   25.3380  -29.9440 C   0  0  0  0  0  0  0  0  0  0  0  0
   -3.8560   24.6130  -29.8420 C   0  0  0  0  0  0  0  0  0  0  0  0
   -2.6480   25.2920  -29.7240 O   0  0  0  0  0  0  0  0  0  0  0  0
   -0.4276   20.3353  -30.3738 H   0  0  0  0  0  0  0  0  0  0  0  0
   -0.2678   19.2656  -31.8080 H   0  0  0  0  0  0  0  0  0  0  0  0
    0.5017   20.8887  -31.8080 H   0  0  0  0  0  0  0  0  0  0  0  0
   -1.5123   20.1808  -34.0981 H   0  0  0  0  0  0  0  0  0  0  0  0
   -3.7230   21.6246  -34.3818 H   0  0  0  0  0  0  0  0  0  0  0  0
   -5.1440   21.4435  -29.9159 H   0  0  0  0  0  0  0  0  0  0  0  0
   -9.5083   19.6735  -30.8335 H   0  0  0  0  0  0  0  0  0  0  0  0
   -8.9153   17.3322  -31.4597 H   0  0  0  0  0  0  0  0  0  0  0  0
   -7.0395   16.8953  -33.0403 H   0  0  0  0  0  0  0  0  0  0  0  0
   -6.3416   21.1586  -33.3828 H   0  0  0  0  0  0  0  0  0  0  0  0
   -7.2026   25.2473  -30.1271 H   0  0  0  0  0  0  0  0  0  0  0  0
   -5.0197   26.4377  -29.9456 H   0  0  0  0  0  0  0  0  0  0  0  0
  1  2  1  0
  2  3  1  0
  3  4  2  0
  4  5  1  0
  5  6  2  0
  6  7  1  0
  7  8  1  0
  8  9  2  0
  9 10  1  0
 10 11  1  0
 11 12  1  0
 12 13  2  0
 12 14  2  0
 12 15  1  0
 15 16  2  0
 16 17  1  0
 17 18  2  0
 18 19  1  0
 19 20  1  0
 20 21  2  0
 20 22  1  0
 19 23  2  0
 10 24  2  0
 24 25  1  0
 25 26  2  0
 26 27  1  0
  6  2  1  0
 26  8  1  0
 23 15  1  0
  1 28  1  0
  1 29  1  0
  1 30  1  0
  3 31  1  0
  4 32  1  0
  9 33  1  0
 16 34  1  0
 17 35  1  0
 18 36  1  0
 23 37  1  0
 24 38  1  0
 25 39  1  0
M  CHG  4  11  -1  20   1  22  -1  27  -1
M  END
>  <UniqueID>  (11) 
11

>  <SMILES>  (11) 
Cn1ccnc1Sc1cc([N-]S(=O)(=O)c2cccc([N+](=O)[O-])c2)ccc1[O-]

>  <Energy>  (11) 
71.63828891724688

>  <Genealogy>  (11) 
Cn1ccnc1Sc1cc([N-]S(=O)(=O)c2cccc([N+](=O)[O-])c2)ccc1[O-] (protonated)
Cn1ccnc1Sc1cc([N-]S(=O)(=O)c2cccc([N+](=O)[O-])c2)ccc1[O-] (3D coordinates assigned)
Cn1ccnc1Sc1cc([N-]S(=O)(=O)c2cccc([N+](=O)[O-])c2)ccc1[O-] (optimized conformer: 71.63828891724688 kcal/mol)

>  <smiles>  (11) 
Cn1ccnc1Sc1cc(NS(=O)(=O)c2cccc([N+](=O)[O-])c2)ccc1O

>  <score_type>  (11) 
oracle

>  <origin>  (11) 
adgpu

>  <m_score__min__energy>  (11) 
-11.81

>  <m_primary>  (11) 
energy

$$$$
11:0
     RDKit          3D

 46 49  0  0  0  0  0  0  0  0999 V2000
   -8.7960   19.1000  -31.6110 C   0  0  0  0  0  0  0  0  0  0  0  0
   -8.0730   20.3990  -31.7650 C   0  0  0  0  0  0  0  0  0  0  0  0
   -8.7600   21.6080  -31.6600 C   0  0  0  0  0  0  0  0  0  0  0  0
   -8.0560   22.8050  -31.7570 C   0  0  0  0  0  0  0  0  0  0  0  0
   -6.6640   22.8050  -31.9520 C   0  0  0  0  0  0  0  0  0  0  0  0
   -5.9350   24.1330  -31.9470 C   0  0  0  0  0  0  0  0  0  0  0  0
   -5.6390   24.5920  -30.5700 N   0  0  0  0  0  0  0  0  0  0  0  0
   -6.8540   25.1720  -29.9720 C   0  0  0  0  0  0  0  0  0  0  0  0
   -5.1170   23.5010  -29.7120 C   0  0  0  0  0  0  0  0  0  0  0  0
   -3.8890   23.9600  -28.9700 C   0  0  0  0  0  0  0  0  0  0  0  0
   -3.9290   24.1550  -27.5820 C   0  0  0  0  0  0  0  0  0  0  0  0
   -2.7990   24.6210  -26.9090 C   0  0  0  0  0  0  0  0  0  0  0  0
   -1.6300   24.8730  -27.6280 C   0  0  0  0  0  0  0  0  0  0  0  0
   -1.5960   24.6580  -28.9700 N   0  0  0  0  0  0  0  0  0  0  0  0
   -2.6850   24.2070  -29.6490 C   0  0  0  0  0  0  0  0  0  0  0  0
   -6.0040   21.5510  -32.0820 C   0  0  0  0  0  0  0  0  0  0  0  0
   -4.5480   21.4030  -32.2880 C   0  0  0  0  0  0  0  0  0  0  0  0
   -3.9640   21.0630  -33.4690 N   0  0  0  0  0  0  0  0  0  0  0  0
   -2.6590   21.0620  -33.1510 C   0  0  0  0  0  0  0  0  0  0  0  0
   -1.5760   20.7900  -33.9810 C   0  0  0  0  0  0  0  0  0  0  0  0
   -0.2880   20.8540  -33.4140 C   0  0  0  0  0  0  0  0  0  0  0  0
   -0.1230   21.1820  -32.0480 C   0  0  0  0  0  0  0  0  0  0  0  0
   -1.2440   21.4500  -31.2390 C   0  0  0  0  0  0  0  0  0  0  0  0
   -2.4980   21.3780  -31.8370 C   0  0  0  0  0  0  0  0  0  0  0  0
   -3.6740   21.5830  -31.3090 O   0  0  0  0  0  0  0  0  0  0  0  0
   -6.7300   20.4050  -31.9650 N   0  0  0  0  0  0  0  0  0  0  0  0
   -8.9214   18.8747  -30.5416 H   0  0  0  0  0  0  0  0  0  0  0  0
   -9.7841   19.1714  -32.0890 H   0  0  0  0  0  0  0  0  0  0  0  0
   -8.2146   18.2978  -32.0890 H   0  0  0  0  0  0  0  0  0  0  0  0
   -9.8486   21.6157  -31.5019 H   0  0  0  0  0  0  0  0  0  0  0  0
   -8.5948   23.7610  -31.6802 H   0  0  0  0  0  0  0  0  0  0  0  0
   -4.9886   24.0219  -32.4966 H   0  0  0  0  0  0  0  0  0  0  0  0
   -6.5839   24.8815  -32.4252 H   0  0  0  0  0  0  0  0  0  0  0  0
   -6.7765   25.1350  -28.8754 H   0  0  0  0  0  0  0  0  0  0  0  0
   -6.9594   26.2176  -30.2971 H   0  0  0  0  0  0  0  0  0  0  0  0
   -7.7333   24.5965  -30.2971 H   0  0  0  0  0  0  0  0  0  0  0  0
   -5.8906   23.2082  -28.9869 H   0  0  0  0  0  0  0  0  0  0  0  0
   -4.8510   22.6431  -30.3471 H   0  0  0  0  0  0  0  0  0  0  0  0
   -4.8519   23.9404  -27.0233 H   0  0  0  0  0  0  0  0  0  0  0  0
   -2.8294   24.7881  -25.8222 H   0  0  0  0  0  0  0  0  0  0  0  0
   -0.7350   25.2460  -27.1085 H   0  0  0  0  0  0  0  0  0  0  0  0
   -2.6222   24.0352  -30.7337 H   0  0  0  0  0  0  0  0  0  0  0  0
   -1.7202   20.5343  -35.0411 H   0  0  0  0  0  0  0  0  0  0  0  0
    0.5946   20.6477  -34.0372 H   0  0  0  0  0  0  0  0  0  0  0  0
    0.8872   21.2280  -31.6150 H   0  0  0  0  0  0  0  0  0  0  0  0
   -1.1324   21.7064  -30.1751 H   0  0  0  0  0  0  0  0  0  0  0  0
  1  2  1  0
  2  3  2  0
  3  4  1  0
  4  5  2  0
  5  6  1  0
  6  7  1  0
  7  8  1  0
  7  9  1  0
  9 10  1  0
 10 11  2  0
 11 12  1  0
 12 13  2  0
 13 14  1  0
 14 15  2  0
  5 16  1  0
 16 17  1  0
 17 18  2  0
 18 19  1  0
 19 20  2  0
 20 21  1  0
 21 22  2  0
 22 23  1  0
 23 24  2  0
 24 25  1  0
 16 26  2  0
 26  2  1  0
 15 10  1  0
 25 17  1  0
 24 19  1  0
  1 27  1  0
  1 28  1  0
  1 29  1  0
  3 30  1  0
  4 31  1  0
  6 32  1  0
  6 33  1  0
  8 34  1  0
  8 35  1  0
  8 36  1  0
  9 37  1  0
  9 38  1  0
 11 39  1  0
 12 40  1  0
 13 41  1  0
 15 42  1  0
 20 43  1  0
 21 44  1  0
 22 45  1  0
 23 46  1  0
M  END
>  <UniqueID>  (12) 
12

>  <SMILES>  (12) 
Cc1ccc(CN(C)Cc2cccnc2)c(-c2nc3ccccc3o2)n1

>  <Energy>  (12) 
88.75609384545817

>  <Genealogy>  (12) 
Cc1ccc(CN(C)Cc2cccnc2)c(-c2nc3ccccc3o2)n1 (3D coordinates assigned)
Cc1ccc(CN(C)Cc2cccnc2)c(-c2nc3ccccc3o2)n1 (optimized conformer: 88.75609384545817 kcal/mol)

>  <smiles>  (12) 
Cc1ccc(CN(C)Cc2cccnc2)c(-c2nc3ccccc3o2)n1

>  <score_type>  (12) 
oracle

>  <origin>  (12) 
adgpu

>  <m_score__min__energy>  (12) 
-8.1899999999999995

>  <m_primary>  (12) 
energy

$$$$
12:0
     RDKit          3D

 26 27  0  0  0  0  0  0  0  0999 V2000
   -2.7150   24.9370  -29.3530 N   0  0  0  0  0  0  0  0  0  0  0  0
   -3.8120   24.4330  -30.1210 C   0  0  0  0  0  0  0  0  0  0  0  0
   -3.6560   23.2800  -30.9010 C   0  0  0  0  0  0  0  0  0  0  0  0
   -4.7270   22.7860  -31.6520 C   0  0  0  0  0  0  0  0  0  0  0  0
   -5.9750   23.4380  -31.6300 C   0  0  0  0  0  0  0  0  0  0  0  0
   -7.1010   22.9560  -32.3850 N   0  0  0  0  0  0  0  0  0  0  0  0
   -8.3250   21.9070  -31.7430 S   0  0  0  0  0  0  0  0  0  0  0  0
   -9.6620   22.3000  -32.3070 O   0  0  0  0  0  0  0  0  0  0  0  0
   -8.3640   22.0440  -30.2480 O   0  0  0  0  0  0  0  0  0  0  0  0
   -7.9560   20.2410  -32.1480 C   0  0  0  0  0  0  0  0  0  0  0  0
   -6.9330   19.8150  -32.9820 C   0  0  0  0  0  0  0  0  0  0  0  0
   -6.8740   18.4220  -33.1010 C   0  0  0  0  0  0  0  0  0  0  0  0
   -7.8450   17.7560  -32.3610 C   0  0  0  0  0  0  0  0  0  0  0  0
   -8.7800   18.9020  -31.5580 S   0  0  0  0  0  0  0  0  0  0  0  0
   -6.1210   24.5980  -30.8500 C   0  0  0  0  0  0  0  0  0  0  0  0
   -5.0480   25.0900  -30.1000 C   0  0  0  0  0  0  0  0  0  0  0  0
   -2.8760   25.3930  -28.4280 H   0  0  0  0  0  0  0  0  0  0  0  0
   -1.7350   24.8580  -29.7060 H   0  0  0  0  0  0  0  0  0  0  0  0
   -2.6865   22.7608  -30.9228 H   0  0  0  0  0  0  0  0  0  0  0  0
   -4.5938   21.8819  -32.2642 H   0  0  0  0  0  0  0  0  0  0  0  0
   -7.2390   23.2980  -33.3630 H   0  0  0  0  0  0  0  0  0  0  0  0
   -6.2415   20.4994  -33.4953 H   0  0  0  0  0  0  0  0  0  0  0  0
   -6.1293   17.9024  -33.7218 H   0  0  0  0  0  0  0  0  0  0  0  0
   -7.9791   16.6654  -32.3093 H   0  0  0  0  0  0  0  0  0  0  0  0
   -7.0873   25.1233  -30.8293 H   0  0  0  0  0  0  0  0  0  0  0  0
   -5.1758   25.9971  -29.4910 H   0  0  0  0  0  0  0  0  0  0  0  0
  1  2  1  0
  2  3  2  0
  3  4  1  0
  4  5  2  0
  5  6  1  0
  6  7  1  0
  7  8  2  0
  7  9  2  0
  7 10  1  0
 10 11  2  0
 11 12  1  0
 12 13  2  0
 13 14  1  0
  5 15  1  0
 15 16  2  0
 16  2  1  0
 14 10  1  0
  1 17  1  0
  1 18  1  0
  3 19  1  0
  4 20  1  0
  6 21  1  0
 11 22  1  0
 12 23  1  0
 13 24  1  0
 15 25  1  0
 16 26  1  0
M  END
>  <UniqueID>  (13) 
13

>  <SMILES>  (13) 
Nc1ccc(NS(=O)(=O)c2cccs2)cc1

>  <Energy>  (13) 
54.15850894266176

>  <Genealogy>  (13) 
Nc1ccc(NS(=O)(=O)c2cccs2)cc1 (3D coordinates assigned)
Nc1ccc(NS(=O)(=O)c2cccs2)cc1 (optimized conformer: 54.15850894266176 kcal/mol)

>  <smiles>  (13) 
Nc1ccc(NS(=O)(=O)c2cccs2)cc1

>  <score_type>  (13) 
oracle

>  <origin>  (13) 
adgpu

>  <m_score__min__energy>  (13) 
-7.5599999999999996

>  <m_primary>  (13) 
energy

$$$$
13:0
     RDKit          3D

 39 41  0  0  0  0  0  0  0  0999 V2000
   -8.0350   18.3480  -32.3110 C   0  0  0  0  0  0  0  0  0  0  0  0
   -6.6720   17.7970  -33.3820 S   0  0  0  0  0  0  0  0  0  0  0  0
   -5.5830   19.1340  -32.8890 C   0  0  0  0  0  0  0  0  0  0  0  0
   -5.6080   19.6080  -31.5720 C   0  0  0  0  0  0  0  0  0  0  0  0
   -4.7570   20.6470  -31.1860 C   0  0  0  0  0  0  0  0  0  0  0  0
   -3.8780   21.2310  -32.1130 C   0  0  0  0  0  0  0  0  0  0  0  0
   -2.9970   22.2830  -31.6850 N   0  0  0  0  0  0  0  0  0  0  0  0
   -1.8580   22.0770  -30.8420 C   0  0  0  0  0  0  0  0  0  0  0  0
   -1.2210   20.9910  -30.9060 O   0  0  0  0  0  0  0  0  0  0  0  0
   -1.3720   23.1370  -29.9390 C   0  0  0  0  0  0  0  0  0  0  0  0
   -0.1140   23.1630  -29.4620 N   0  0  0  0  0  0  0  0  0  0  0  0
   -0.1090   24.1920  -28.5910 C   0  0  0  0  0  0  0  0  0  0  0  0
   -1.3040   24.8050  -28.4700 N   0  0  0  0  0  0  0  0  0  0  0  0
   -2.0970   24.1530  -29.3390 C   0  0  0  0  0  0  0  0  0  0  0  0
   -3.5430   24.4020  -29.4320 C   0  0  0  0  0  0  0  0  0  0  0  0
   -4.2010   24.5440  -28.3700 O   0  0  0  0  0  0  0  0  0  0  0  0
   -4.2320   24.4560  -30.6880 N   0  0  0  0  0  0  0  0  0  0  0  0
   -5.4720   23.8130  -31.0190 C   0  0  0  0  0  0  0  0  0  0  0  0
   -6.2360   23.2520  -29.9890 C   0  0  0  0  0  0  0  0  0  0  0  0
   -7.4540   22.6250  -30.2710 C   0  0  0  0  0  0  0  0  0  0  0  0
   -7.9250   22.5710  -31.5870 C   0  0  0  0  0  0  0  0  0  0  0  0
   -9.4530   21.7870  -31.9420 Cl  0  0  0  0  0  0  0  0  0  0  0  0
   -7.1820   23.1560  -32.6180 C   0  0  0  0  0  0  0  0  0  0  0  0
   -5.9640   23.7830  -32.3370 C   0  0  0  0  0  0  0  0  0  0  0  0
   -3.8430   20.7330  -33.4290 C   0  0  0  0  0  0  0  0  0  0  0  0
   -4.6950   19.6940  -33.8130 C   0  0  0  0  0  0  0  0  0  0  0  0
   -7.7436   18.2302  -31.2569 H   0  0  0  0  0  0  0  0  0  0  0  0
   -8.2562   19.4062  -32.5142 H   0  0  0  0  0  0  0  0  0  0  0  0
   -8.9295   17.7408  -32.5142 H   0  0  0  0  0  0  0  0  0  0  0  0
   -6.2980   19.1622  -30.8405 H   0  0  0  0  0  0  0  0  0  0  0  0
   -4.7756   21.0104  -30.1479 H   0  0  0  0  0  0  0  0  0  0  0  0
   -3.1090   23.2260  -32.1160 H   0  0  0  0  0  0  0  0  0  0  0  0
    0.7858   24.5024  -28.0316 H   0  0  0  0  0  0  0  0  0  0  0  0
   -5.8761   23.3046  -28.9509 H   0  0  0  0  0  0  0  0  0  0  0  0
   -8.0417   22.1742  -29.4577 H   0  0  0  0  0  0  0  0  0  0  0  0
   -7.5566   23.1227  -33.6517 H   0  0  0  0  0  0  0  0  0  0  0  0
   -5.3892   24.2538  -33.1481 H   0  0  0  0  0  0  0  0  0  0  0  0
   -3.1416   21.1637  -34.1587 H   0  0  0  0  0  0  0  0  0  0  0  0
   -4.6671   19.3154  -34.8454 H   0  0  0  0  0  0  0  0  0  0  0  0
  1  2  1  0
  2  3  1  0
  3  4  2  0
  4  5  1  0
  5  6  2  0
  6  7  1  0
  7  8  1  0
  8  9  2  0
  8 10  1  0
 10 11  1  0
 11 12  1  0
 12 13  2  0
 13 14  1  0
 14 15  1  0
 15 16  2  0
 15 17  1  0
 17 18  1  0
 18 19  2  0
 19 20  1  0
 20 21  2  0
 21 22  1  0
 21 23  1  0
 23 24  2  0
  6 25  1  0
 25 26  2  0
 26  3  1  0
 14 10  2  0
 24 18  1  0
  1 27  1  0
  1 28  1  0
  1 29  1  0
  4 30  1  0
  5 31  1  0
  7 32  1  0
 12 33  1  0
 19 34  1  0
 20 35  1  0
 23 36  1  0
 24 37  1  0
 25 38  1  0
 26 39  1  0
M  CHG  2  11  -1  17  -1
M  END
>  <UniqueID>  (14) 
14

>  <SMILES>  (14) 
CSc1ccc(NC(=O)c2[n-]cnc2C(=O)[N-]c2ccc(Cl)cc2)cc1

>  <Energy>  (14) 
81.60252649378097

>  <Genealogy>  (14) 
CSc1ccc(NC(=O)c2[n-]cnc2C(=O)[N-]c2ccc(Cl)cc2)cc1 (protonated)
CSc1ccc(NC(=O)c2[n-]cnc2C(=O)[N-]c2ccc(Cl)cc2)cc1 (3D coordinates assigned)
CSc1ccc(NC(=O)c2[n-]cnc2C(=O)[N-]c2ccc(Cl)cc2)cc1 (optimized conformer: 81.60252649378097 kcal/mol)

>  <smiles>  (14) 
CSc1ccc(NC(=O)c2[nH]cnc2C(=O)Nc2ccc(Cl)cc2)cc1

>  <score_type>  (14) 
oracle

>  <origin>  (14) 
adgpu

>  <m_score__min__energy>  (14) 
-10.92

>  <m_primary>  (14) 
energy

$$$$
14:0
     RDKit          3D

 35 37  0  0  0  0  0  0  0  0999 V2000
   -1.2340   26.9480  -24.9140 C   0  0  0  0  0  0  0  0  0  0  0  0
   -1.2340   25.5590  -25.3910 N   0  0  0  0  0  0  0  0  0  0  0  0
   -0.3870   24.5740  -24.7080 C   0  0  0  0  0  0  0  0  0  0  0  0
   -2.0580   25.1670  -26.5210 C   0  0  0  0  0  0  0  0  0  0  0  0
   -1.5020   25.0220  -27.8080 C   0  0  0  0  0  0  0  0  0  0  0  0
   -2.2960   24.6460  -28.8940 C   0  0  0  0  0  0  0  0  0  0  0  0
   -3.6670   24.4020  -28.7240 C   0  0  0  0  0  0  0  0  0  0  0  0
   -4.5070   24.0030  -29.8740 C   0  0  0  0  0  0  0  0  0  0  0  0
   -4.5830   24.6940  -31.0270 N   0  0  0  0  0  0  0  0  0  0  0  0
   -5.4130   24.0240  -31.7650 O   0  0  0  0  0  0  0  0  0  0  0  0
   -5.8410   22.9680  -31.1140 C   0  0  0  0  0  0  0  0  0  0  0  0
   -6.8050   21.9870  -31.6750 C   0  0  0  0  0  0  0  0  0  0  0  0
   -8.1610   22.1090  -31.3160 C   0  0  0  0  0  0  0  0  0  0  0  0
   -9.1160   21.2180  -31.8100 C   0  0  0  0  0  0  0  0  0  0  0  0
   -8.7340   20.1920  -32.6710 C   0  0  0  0  0  0  0  0  0  0  0  0
   -7.3960   20.0520  -33.0400 C   0  0  0  0  0  0  0  0  0  0  0  0
   -6.4250   20.9380  -32.5530 C   0  0  0  0  0  0  0  0  0  0  0  0
   -4.7670   20.6720  -33.0820 Cl  0  0  0  0  0  0  0  0  0  0  0  0
   -5.2880   22.9030  -29.8870 N   0  0  0  0  0  0  0  0  0  0  0  0
   -4.2300   24.5450  -27.4470 C   0  0  0  0  0  0  0  0  0  0  0  0
   -3.4370   24.9210  -26.3600 C   0  0  0  0  0  0  0  0  0  0  0  0
   -0.1969   27.2948  -24.7949 H   0  0  0  0  0  0  0  0  0  0  0  0
   -1.7525   27.5865  -25.6444 H   0  0  0  0  0  0  0  0  0  0  0  0
   -1.7525   27.0031  -23.9455 H   0  0  0  0  0  0  0  0  0  0  0  0
   -0.4901   24.6939  -23.6194 H   0  0  0  0  0  0  0  0  0  0  0  0
   -0.6991   23.5594  -24.9963 H   0  0  0  0  0  0  0  0  0  0  0  0
    0.6629   24.7305  -24.9963 H   0  0  0  0  0  0  0  0  0  0  0  0
   -0.4283   25.2074  -27.9593 H   0  0  0  0  0  0  0  0  0  0  0  0
   -1.8426   24.5404  -29.8906 H   0  0  0  0  0  0  0  0  0  0  0  0
   -8.4722   22.9169  -30.6374 H   0  0  0  0  0  0  0  0  0  0  0  0
  -10.1712   21.3266  -31.5188 H   0  0  0  0  0  0  0  0  0  0  0  0
   -9.4877   19.4917  -33.0602 H   0  0  0  0  0  0  0  0  0  0  0  0
   -7.1002   19.2390  -33.7193 H   0  0  0  0  0  0  0  0  0  0  0  0
   -5.3043   24.3596  -27.3004 H   0  0  0  0  0  0  0  0  0  0  0  0
   -3.8945   25.0265  -25.3653 H   0  0  0  0  0  0  0  0  0  0  0  0
  1  2  1  0
  2  3  1  0
  2  4  1  0
  4  5  2  0
  5  6  1  0
  6  7  2  0
  7  8  1  0
  8  9  2  0
  9 10  1  0
 10 11  1  0
 11 12  1  0
 12 13  2  0
 13 14  1  0
 14 15  2  0
 15 16  1  0
 16 17  2  0
 17 18  1  0
 11 19  2  0
  7 20  1  0
 20 21  2  0
 21  4  1  0
 19  8  1  0
 17 12  1  0
  1 22  1  0
  1 23  1  0
  1 24  1  0
  3 25  1  0
  3 26  1  0
  3 27  1  0
  5 28  1  0
  6 29  1  0
 13 30  1  0
 14 31  1  0
 15 32  1  0
 16 33  1  0
 20 34  1  0
 21 35  1  0
M  END
>  <UniqueID>  (15) 
15

>  <SMILES>  (15) 
CN(C)c1ccc(-c2noc(-c3ccccc3Cl)n2)cc1

>  <Energy>  (15) 
75.92093696017828

>  <Genealogy>  (15) 
CN(C)c1ccc(-c2noc(-c3ccccc3Cl)n2)cc1 (3D coordinates assigned)
CN(C)c1ccc(-c2noc(-c3ccccc3Cl)n2)cc1 (optimized conformer: 75.92093696017828 kcal/mol)

>  <smiles>  (15) 
CN(C)c1ccc(-c2noc(-c3ccccc3Cl)n2)cc1

>  <score_type>  (15) 
oracle

>  <origin>  (15) 
adgpu

>  <m_score__min__energy>  (15) 
-8.3699999999999992

>  <m_primary>  (15) 
energy

$$$$
15:0
     RDKit          3D

 44 46  0  0  0  0  0  0  0  0999 V2000
    0.3540   21.7880  -35.5280 C   0  0  0  0  0  0  0  0  0  0  0  0
   -0.1740   21.7050  -34.2080 O   0  0  0  0  0  0  0  0  0  0  0  0
   -1.3120   20.9650  -33.8550 C   0  0  0  0  0  0  0  0  0  0  0  0
   -2.4270   21.5480  -33.2220 C   0  0  0  0  0  0  0  0  0  0  0  0
   -3.5400   20.7690  -32.8920 C   0  0  0  0  0  0  0  0  0  0  0  0
   -3.5610   19.3950  -33.1970 C   0  0  0  0  0  0  0  0  0  0  0  0
   -4.6740   18.5550  -32.8650 N   0  0  0  0  0  0  0  0  0  0  0  0
   -6.2330   18.6220  -33.6230 S   0  0  0  0  0  0  0  0  0  0  0  0
   -6.9030   17.2830  -33.4800 O   0  0  0  0  0  0  0  0  0  0  0  0
   -6.0600   18.9260  -35.0840 O   0  0  0  0  0  0  0  0  0  0  0  0
   -7.2170   19.8860  -32.8930 C   0  0  0  0  0  0  0  0  0  0  0  0
   -8.5430   19.6270  -32.5200 C   0  0  0  0  0  0  0  0  0  0  0  0
   -9.3290   20.6430  -31.9710 C   0  0  0  0  0  0  0  0  0  0  0  0
   -8.7950   21.9210  -31.7900 C   0  0  0  0  0  0  0  0  0  0  0  0
   -7.4660   22.1890  -32.1420 C   0  0  0  0  0  0  0  0  0  0  0  0
   -6.9610   23.5210  -31.9830 N   0  0  0  0  0  0  0  0  0  0  0  0
   -6.3890   24.0600  -30.7840 C   0  0  0  0  0  0  0  0  0  0  0  0
   -7.1260   24.7390  -30.0190 O   0  0  0  0  0  0  0  0  0  0  0  0
   -4.9870   23.7840  -30.3910 C   0  0  0  0  0  0  0  0  0  0  0  0
   -4.5200   22.4640  -30.2700 C   0  0  0  0  0  0  0  0  0  0  0  0
   -3.2200   22.2120  -29.8240 C   0  0  0  0  0  0  0  0  0  0  0  0
   -2.3690   23.2710  -29.4930 C   0  0  0  0  0  0  0  0  0  0  0  0
   -1.0880   22.9880  -29.0190 O   0  0  0  0  0  0  0  0  0  0  0  0
   -2.8180   24.5940  -29.6340 C   0  0  0  0  0  0  0  0  0  0  0  0
   -1.9780   25.6620  -29.3360 O   0  0  0  0  0  0  0  0  0  0  0  0
   -4.1220   24.8460  -30.0750 C   0  0  0  0  0  0  0  0  0  0  0  0
   -6.6810   21.1670  -32.7050 C   0  0  0  0  0  0  0  0  0  0  0  0
   -2.4550   18.8200  -33.8360 C   0  0  0  0  0  0  0  0  0  0  0  0
   -1.3360   19.5970  -34.1510 C   0  0  0  0  0  0  0  0  0  0  0  0
    1.4396   21.9586  -35.4786 H   0  0  0  0  0  0  0  0  0  0  0  0
    0.1546   20.8475  -36.0625 H   0  0  0  0  0  0  0  0  0  0  0  0
   -0.1243   22.6220  -36.0625 H   0  0  0  0  0  0  0  0  0  0  0  0
   -2.4220   22.6224  -32.9859 H   0  0  0  0  0  0  0  0  0  0  0  0
   -4.4033   21.2320  -32.3917 H   0  0  0  0  0  0  0  0  0  0  0  0
   -8.9658   18.6212  -32.6599 H   0  0  0  0  0  0  0  0  0  0  0  0
  -10.3697   20.4364  -31.6809 H   0  0  0  0  0  0  0  0  0  0  0  0
   -9.4214   22.7211  -31.3688 H   0  0  0  0  0  0  0  0  0  0  0  0
   -5.1819   21.6241  -30.5280 H   0  0  0  0  0  0  0  0  0  0  0  0
   -2.8642   21.1751  -29.7328 H   0  0  0  0  0  0  0  0  0  0  0  0
   -0.4310   23.7170  -28.7720 H   0  0  0  0  0  0  0  0  0  0  0  0
   -4.4730   25.8837  -30.1752 H   0  0  0  0  0  0  0  0  0  0  0  0
   -5.6415   21.3741  -32.9991 H   0  0  0  0  0  0  0  0  0  0  0  0
   -2.4669   17.7502  -34.0917 H   0  0  0  0  0  0  0  0  0  0  0  0
   -0.4666   19.1290  -34.6359 H   0  0  0  0  0  0  0  0  0  0  0  0
  1  2  1  0
  2  3  1  0
  3  4  2  0
  4  5  1  0
  5  6  2  0
  6  7  1  0
  7  8  1  0
  8  9  2  0
  8 10  2  0
  8 11  1  0
 11 12  2  0
 12 13  1  0
 13 14  2  0
 14 15  1  0
 15 16  1  0
 16 17  1  0
 17 18  2  0
 17 19  1  0
 19 20  2  0
 20 21  1  0
 21 22  2  0
 22 23  1  0
 22 24  1  0
 24 25  1  0
 24 26  2  0
 15 27  2  0
  6 28  1  0
 28 29  2  0
 29  3  1  0
 27 11  1  0
 26 19  1  0
  1 30  1  0
  1 31  1  0
  1 32  1  0
  4 33  1  0
  5 34  1  0
 12 35  1  0
 13 36  1  0
 14 37  1  0
 20 38  1  0
 21 39  1  0
 23 40  1  0
 26 41  1  0
 27 42  1  0
 28 43  1  0
 29 44  1  0
M  CHG  3   7  -1  16  -1  25  -1
M  END
>  <UniqueID>  (16) 
16

>  <SMILES>  (16) 
COc1ccc([N-]S(=O)(=O)c2cccc([N-]C(=O)c3ccc(O)c([O-])c3)c2)cc1

>  <Energy>  (16) 
51.70054447736781

>  <Genealogy>  (16) 
COc1ccc([N-]S(=O)(=O)c2cccc([N-]C(=O)c3ccc(O)c([O-])c3)c2)cc1 (protonated)
COc1ccc([N-]S(=O)(=O)c2cccc([N-]C(=O)c3ccc(O)c([O-])c3)c2)cc1 (3D coordinates assigned)
COc1ccc([N-]S(=O)(=O)c2cccc([N-]C(=O)c3ccc(O)c([O-])c3)c2)cc1 (optimized conformer: 51.70054447736781 kcal/mol)

>  <smiles>  (16) 
COc1ccc(NS(=O)(=O)c2cccc(NC(=O)c3ccc(O)c(O)c3)c2)cc1

>  <score_type>  (16) 
oracle

>  <origin>  (16) 
adgpu

>  <m_score__min__energy>  (16) 
-11.779999999999999

>  <m_primary>  (16) 
energy

$$$$
16:0
     RDKit          3D

 52 54  0  0  0  0  0  0  0  0999 V2000
   -5.6830   19.1100  -33.8270 C   0  0  0  0  0  0  0  0  0  0  0  0
   -6.9750   19.1700  -33.0220 C   0  0  0  0  0  0  0  0  0  0  0  0
   -7.7540   20.3490  -33.4100 N   0  0  0  0  0  0  0  0  0  0  0  0
   -8.1930   21.2670  -31.9980 S   0  0  0  0  0  0  0  0  0  0  0  0
   -9.3380   22.1770  -32.3450 O   0  0  0  0  0  0  0  0  0  0  0  0
   -8.6330   20.3260  -30.9110 O   0  0  0  0  0  0  0  0  0  0  0  0
   -6.8240   22.2140  -31.4160 C   0  0  0  0  0  0  0  0  0  0  0  0
   -7.0090   23.2530  -30.4930 C   0  0  0  0  0  0  0  0  0  0  0  0
   -5.9330   24.0690  -30.1260 C   0  0  0  0  0  0  0  0  0  0  0  0
   -4.6730   23.8670  -30.6990 C   0  0  0  0  0  0  0  0  0  0  0  0
   -3.6190   24.8060  -30.4510 N   0  0  0  0  0  0  0  0  0  0  0  0
   -2.6230   24.5850  -29.4420 C   0  0  0  0  0  0  0  0  0  0  0  0
   -1.9940   25.5650  -28.9640 O   0  0  0  0  0  0  0  0  0  0  0  0
   -2.3310   23.2190  -28.9710 C   0  0  0  0  0  0  0  0  0  0  0  0
   -2.5870   22.8710  -27.6390 C   0  0  0  0  0  0  0  0  0  0  0  0
   -2.1660   21.6390  -27.1400 C   0  0  0  0  0  0  0  0  0  0  0  0
   -1.4640   20.7460  -27.9550 C   0  0  0  0  0  0  0  0  0  0  0  0
   -0.8900   19.2590  -27.2100 Cl  0  0  0  0  0  0  0  0  0  0  0  0
   -1.2060   21.0820  -29.3060 C   0  0  0  0  0  0  0  0  0  0  0  0
   -0.1870   20.0920  -30.3620 S   0  0  0  0  0  0  0  0  0  0  0  0
   -0.8400   18.7490  -30.5330 O   0  0  0  0  0  0  0  0  0  0  0  0
    1.1750   19.8730  -29.7630 O   0  0  0  0  0  0  0  0  0  0  0  0
   -0.0520   20.8660  -31.9220 N   0  0  0  0  0  0  0  0  0  0  0  0
    0.9920   20.2140  -32.7300 C   0  0  0  0  0  0  0  0  0  0  0  0
    0.9760   20.7450  -34.1780 C   0  0  0  0  0  0  0  0  0  0  0  0
    0.1100   21.8560  -34.3060 O   0  0  0  0  0  0  0  0  0  0  0  0
   -1.2200   21.4610  -34.0190 C   0  0  0  0  0  0  0  0  0  0  0  0
   -1.3440   20.8120  -32.6240 C   0  0  0  0  0  0  0  0  0  0  0  0
   -1.6630   22.3130  -29.8050 C   0  0  0  0  0  0  0  0  0  0  0  0
   -4.4760   22.7830  -31.5700 C   0  0  0  0  0  0  0  0  0  0  0  0
   -5.5430   21.9600  -31.9230 C   0  0  0  0  0  0  0  0  0  0  0  0
   -4.8246   19.0701  -33.1403 H   0  0  0  0  0  0  0  0  0  0  0  0
   -5.6874   18.2111  -34.4610 H   0  0  0  0  0  0  0  0  0  0  0  0
   -5.6041   20.0054  -34.4610 H   0  0  0  0  0  0  0  0  0  0  0  0
   -7.5667   18.2630  -33.2150 H   0  0  0  0  0  0  0  0  0  0  0  0
   -6.7303   19.2356  -31.9516 H   0  0  0  0  0  0  0  0  0  0  0  0
   -8.6430   20.0270  -33.8560 H   0  0  0  0  0  0  0  0  0  0  0  0
   -8.0032   23.4273  -30.0559 H   0  0  0  0  0  0  0  0  0  0  0  0
   -6.0782   24.8700  -29.3862 H   0  0  0  0  0  0  0  0  0  0  0  0
   -3.1228   23.5730  -26.9832 H   0  0  0  0  0  0  0  0  0  0  0  0
   -2.3879   21.3677  -26.0973 H   0  0  0  0  0  0  0  0  0  0  0  0
    1.9754   20.4188  -32.2817 H   0  0  0  0  0  0  0  0  0  0  0  0
    0.7978   19.1314  -32.7495 H   0  0  0  0  0  0  0  0  0  0  0  0
    1.9947   21.0498  -34.4596 H   0  0  0  0  0  0  0  0  0  0  0  0
    0.6142   19.9435  -34.8389 H   0  0  0  0  0  0  0  0  0  0  0  0
   -1.8695   22.3480  -34.0567 H   0  0  0  0  0  0  0  0  0  0  0  0
   -1.5211   20.7141  -34.7684 H   0  0  0  0  0  0  0  0  0  0  0  0
   -2.0996   21.3544  -32.0367 H   0  0  0  0  0  0  0  0  0  0  0  0
   -1.6444   19.7605  -32.7427 H   0  0  0  0  0  0  0  0  0  0  0  0
   -1.4946   22.5683  -30.8616 H   0  0  0  0  0  0  0  0  0  0  0  0
   -3.4734   22.5827  -31.9758 H   0  0  0  0  0  0  0  0  0  0  0  0
   -5.3795   21.1093  -32.6009 H   0  0  0  0  0  0  0  0  0  0  0  0
  1  2  1  0
  2  3  1  0
  3  4  1  0
  4  5  2  0
  4  6  2  0
  4  7  1  0
  7  8  2  0
  8  9  1  0
  9 10  2  0
 10 11  1  0
 11 12  1  0
 12 13  2  0
 12 14  1  0
 14 15  2  0
 15 16  1  0
 16 17  2  0
 17 18  1  0
 17 19  1  0
 19 20  1  0
 20 21  2  0
 20 22  2  0
 20 23  1  0
 23 24  1  0
 24 25  1  0
 25 26  1  0
 26 27  1  0
 27 28  1  0
 19 29  2  0
 10 30  1  0
 30 31  2  0
 31  7  1  0
 29 14  1  0
 28 23  1  0
  1 32  1  0
  1 33  1  0
  1 34  1  0
  2 35  1  0
  2 36  1  0
  3 37  1  0
  8 38  1  0
  9 39  1  0
 15 40  1  0
 16 41  1  0
 24 42  1  0
 24 43  1  0
 25 44  1  0
 25 45  1  0
 27 46  1  0
 27 47  1  0
 28 48  1  0
 28 49  1  0
 29 50  1  0
 30 51  1  0
 31 52  1  0
M  CHG  1  11  -1
M  END
>  <UniqueID>  (17) 
17

>  <SMILES>  (17) 
CCNS(=O)(=O)c1ccc([N-]C(=O)c2ccc(Cl)c(S(=O)(=O)N3CCOCC3)c2)cc1

>  <Energy>  (17) 
64.30781924110583

>  <Genealogy>  (17) 
CCNS(=O)(=O)c1ccc([N-]C(=O)c2ccc(Cl)c(S(=O)(=O)N3CCOCC3)c2)cc1 (protonated)
CCNS(=O)(=O)c1ccc([N-]C(=O)c2ccc(Cl)c(S(=O)(=O)N3CCOCC3)c2)cc1 (3D coordinates assigned)
CCNS(=O)(=O)c1ccc([N-]C(=O)c2ccc(Cl)c(S(=O)(=O)N3CCOCC3)c2)cc1 (nonaromatic ring conformer: 64.30781924110583 kcal/mol)

>  <smiles>  (17) 
CCNS(=O)(=O)c1ccc(NC(=O)c2ccc(Cl)c(S(=O)(=O)N3CCOCC3)c2)cc1

>  <score_type>  (17) 
oracle

>  <origin>  (17) 
adgpu

>  <m_score__min__energy>  (17) 
-11.609999999999999

>  <m_primary>  (17) 
energy

$$$$
17:0
     RDKit          3D

 39 41  0  0  0  0  0  0  0  0999 V2000
   -7.2180   14.3600  -34.5720 C   0  0  0  0  0  0  0  0  0  0  0  0
   -6.5010   15.5880  -34.1200 C   0  0  0  0  0  0  0  0  0  0  0  0
   -5.1350   15.7930  -34.1760 C   0  0  0  0  0  0  0  0  0  0  0  0
   -4.9680   17.0790  -33.7030 C   0  0  0  0  0  0  0  0  0  0  0  0
   -3.6460   17.7600  -33.5230 C   0  0  0  0  0  0  0  0  0  0  0  0
   -6.1840   17.6040  -33.4210 N   0  0  0  0  0  0  0  0  0  0  0  0
   -6.4870   18.9140  -32.9140 C   0  0  0  0  0  0  0  0  0  0  0  0
   -5.6000   19.9750  -33.1540 C   0  0  0  0  0  0  0  0  0  0  0  0
   -5.8700   21.2510  -32.6480 C   0  0  0  0  0  0  0  0  0  0  0  0
   -7.0210   21.4760  -31.8810 C   0  0  0  0  0  0  0  0  0  0  0  0
   -7.3590   23.0750  -31.2260 S   0  0  0  0  0  0  0  0  0  0  0  0
   -8.5520   23.6860  -31.9080 O   0  0  0  0  0  0  0  0  0  0  0  0
   -7.6460   22.9490  -29.7580 O   0  0  0  0  0  0  0  0  0  0  0  0
   -5.9870   24.1130  -31.4510 N   0  0  0  0  0  0  0  0  0  0  0  0
   -5.0430   24.2780  -30.5720 C   0  0  0  0  0  0  0  0  0  0  0  0
   -4.9470   23.6780  -29.3280 C   0  0  0  0  0  0  0  0  0  0  0  0
   -3.7750   24.2080  -28.8190 C   0  0  0  0  0  0  0  0  0  0  0  0
   -3.1720   23.8880  -27.4940 C   0  0  0  0  0  0  0  0  0  0  0  0
   -3.2480   25.0310  -29.6990 O   0  0  0  0  0  0  0  0  0  0  0  0
   -3.9930   25.0920  -30.7630 N   0  0  0  0  0  0  0  0  0  0  0  0
   -7.9000   20.4160  -31.6270 C   0  0  0  0  0  0  0  0  0  0  0  0
   -7.6310   19.1410  -32.1320 C   0  0  0  0  0  0  0  0  0  0  0  0
   -7.1180   16.6970  -33.6690 N   0  0  0  0  0  0  0  0  0  0  0  0
   -7.5526   13.7869  -33.6947 H   0  0  0  0  0  0  0  0  0  0  0  0
   -8.0906   14.6467  -35.1773 H   0  0  0  0  0  0  0  0  0  0  0  0
   -6.5394   13.7410  -35.1773 H   0  0  0  0  0  0  0  0  0  0  0  0
   -4.3594   15.0923  -34.5187 H   0  0  0  0  0  0  0  0  0  0  0  0
   -3.4332   17.8696  -32.4494 H   0  0  0  0  0  0  0  0  0  0  0  0
   -2.8557   17.1568  -33.9937 H   0  0  0  0  0  0  0  0  0  0  0  0
   -3.6783   18.7537  -33.9937 H   0  0  0  0  0  0  0  0  0  0  0  0
   -4.6874   19.8022  -33.7433 H   0  0  0  0  0  0  0  0  0  0  0  0
   -5.1768   22.0801  -32.8528 H   0  0  0  0  0  0  0  0  0  0  0  0
   -5.6336   22.9574  -28.8597 H   0  0  0  0  0  0  0  0  0  0  0  0
   -3.8380   24.2414  -26.6931 H   0  0  0  0  0  0  0  0  0  0  0  0
   -3.0375   22.7998  -27.4055 H   0  0  0  0  0  0  0  0  0  0  0  0
   -2.1955   24.3866  -27.4055 H   0  0  0  0  0  0  0  0  0  0  0  0
   -3.7920   25.6780  -31.6040 H   0  0  0  0  0  0  0  0  0  0  0  0
   -8.8061   20.5876  -31.0274 H   0  0  0  0  0  0  0  0  0  0  0  0
   -8.3193   18.3106  -31.9157 H   0  0  0  0  0  0  0  0  0  0  0  0
  1  2  1  0
  2  3  1  0
  3  4  2  0
  4  5  1  0
  4  6  1  0
  6  7  1  0
  7  8  2  0
  8  9  1  0
  9 10  2  0
 10 11  1  0
 11 12  2  0
 11 13  2  0
 11 14  1  0
 14 15  2  3
 15 16  1  0
 16 17  2  0
 17 18  1  0
 17 19  1  0
 19 20  1  0
 10 21  1  0
 21 22  2  0
  6 23  1  0
 23  2  2  0
 22  7  1  0
 20 15  1  0
  1 24  1  0
  1 25  1  0
  1 26  1  0
  3 27  1  0
  5 28  1  0
  5 29  1  0
  5 30  1  0
  8 31  1  0
  9 32  1  0
 16 33  1  0
 18 34  1  0
 18 35  1  0
 18 36  1  0
 20 37  1  0
 21 38  1  0
 22 39  1  0
M  END
>  <UniqueID>  (18) 
18

>  <SMILES>  (18) 
Cc1cc(C)n(-c2ccc(S(=O)(=O)N=c3cc(C)o[nH]3)cc2)n1

>  <Energy>  (18) 
107.3989232970539

>  <Genealogy>  (18) 
Cc1cc(C)n(-c2ccc(S(=O)(=O)N=c3cc(C)o[nH]3)cc2)n1 (3D coordinates assigned)
Cc1cc(C)n(-c2ccc(S(=O)(=O)N=c3cc(C)o[nH]3)cc2)n1 (optimized conformer: 107.3989232970539 kcal/mol)

>  <smiles>  (18) 
Cc1cc(C)n(-c2ccc(S(=O)(=O)N=c3cc(C)o[nH]3)cc2)n1

>  <score_type>  (18) 
oracle

>  <origin>  (18) 
adgpu

>  <m_score__min__energy>  (18) 
-9.7699999999999996

>  <m_primary>  (18) 
energy

$$$$
18:0
     RDKit          3D

 33 35  0  0  0  0  0  0  0  0999 V2000
   -3.6310   24.9920  -30.0720 N   0  0  0  0  0  0  0  0  0  0  0  0
   -3.5710   23.5900  -30.3460 C   0  0  0  0  0  0  0  0  0  0  0  0
   -3.0800   22.7030  -29.3790 C   0  0  0  0  0  0  0  0  0  0  0  0
   -3.0300   21.3330  -29.6440 C   0  0  0  0  0  0  0  0  0  0  0  0
   -3.4620   20.8390  -30.8770 C   0  0  0  0  0  0  0  0  0  0  0  0
   -3.9380   21.7170  -31.8680 C   0  0  0  0  0  0  0  0  0  0  0  0
   -4.4390   21.2030  -33.2000 C   0  0  0  0  0  0  0  0  0  0  0  0
   -5.6430   20.3660  -33.0530 N   0  0  0  0  0  0  0  0  0  0  0  0
   -5.6480   19.0180  -33.5850 C   0  0  0  0  0  0  0  0  0  0  0  0
   -4.6510   18.5730  -34.2160 O   0  0  0  0  0  0  0  0  0  0  0  0
   -6.8460   18.1360  -33.4100 C   0  0  0  0  0  0  0  0  0  0  0  0
   -7.3540   18.2110  -31.6710 S   0  0  0  0  0  0  0  0  0  0  0  0
   -7.7290   19.9650  -31.7660 C   0  0  0  0  0  0  0  0  0  0  0  0
   -8.9320   20.4290  -31.2210 C   0  0  0  0  0  0  0  0  0  0  0  0
   -9.2220   21.7930  -31.2180 C   0  0  0  0  0  0  0  0  0  0  0  0
   -8.3130   22.6990  -31.7640 C   0  0  0  0  0  0  0  0  0  0  0  0
   -7.1220   22.2430  -32.3350 C   0  0  0  0  0  0  0  0  0  0  0  0
   -6.8180   20.8660  -32.3600 C   0  0  0  0  0  0  0  0  0  0  0  0
   -4.0060   23.0930  -31.5840 C   0  0  0  0  0  0  0  0  0  0  0  0
   -3.0910   25.6730  -30.6510 H   0  0  0  0  0  0  0  0  0  0  0  0
   -4.2150   25.3580  -29.2880 H   0  0  0  0  0  0  0  0  0  0  0  0
   -2.7329   23.0869  -28.4084 H   0  0  0  0  0  0  0  0  0  0  0  0
   -2.6491   20.6403  -28.8791 H   0  0  0  0  0  0  0  0  0  0  0  0
   -3.4299   19.7573  -31.0744 H   0  0  0  0  0  0  0  0  0  0  0  0
   -4.6802   22.0617  -33.8437 H   0  0  0  0  0  0  0  0  0  0  0  0
   -3.6466   20.5823  -33.6437 H   0  0  0  0  0  0  0  0  0  0  0  0
   -7.6656   18.4890  -34.0531 H   0  0  0  0  0  0  0  0  0  0  0  0
   -6.6006   17.1010  -33.6903 H   0  0  0  0  0  0  0  0  0  0  0  0
   -9.6513   19.7150  -30.7935 H   0  0  0  0  0  0  0  0  0  0  0  0
  -10.1667   22.1540  -30.7854 H   0  0  0  0  0  0  0  0  0  0  0  0
   -8.5344   23.7763  -31.7451 H   0  0  0  0  0  0  0  0  0  0  0  0
   -6.4147   22.9649  -32.7692 H   0  0  0  0  0  0  0  0  0  0  0  0
   -4.4040   23.7861  -32.3397 H   0  0  0  0  0  0  0  0  0  0  0  0
  1  2  1  0
  2  3  2  0
  3  4  1  0
  4  5  2  0
  5  6  1  0
  6  7  1  0
  7  8  1  0
  8  9  1  0
  9 10  2  0
  9 11  1  0
 11 12  1  0
 12 13  1  0
 13 14  2  0
 14 15  1  0
 15 16  2  0
 16 17  1  0
 17 18  2  0
  6 19  2  0
 19  2  1  0
 18  8  1  0
 18 13  1  0
  1 20  1  0
  1 21  1  0
  3 22  1  0
  4 23  1  0
  5 24  1  0
  7 25  1  0
  7 26  1  0
 11 27  1  0
 11 28  1  0
 14 29  1  0
 15 30  1  0
 16 31  1  0
 17 32  1  0
 19 33  1  0
M  END
>  <UniqueID>  (19) 
19

>  <SMILES>  (19) 
Nc1cccc(CN2C(=O)CSc3ccccc32)c1

>  <Energy>  (19) 
41.391117947480964

>  <Genealogy>  (19) 
Nc1cccc(CN2C(=O)CSc3ccccc32)c1 (3D coordinates assigned)
Nc1cccc(CN2C(=O)CSc3ccccc32)c1 (nonaromatic ring conformer: 41.391117947480964 kcal/mol)

>  <smiles>  (19) 
Nc1cccc(CN2C(=O)CSc3ccccc32)c1

>  <score_type>  (19) 
oracle

>  <origin>  (19) 
adgpu

>  <m_score__min__energy>  (19) 
-7.9500000000000002

>  <m_primary>  (19) 
energy

$$$$
19:0
     RDKit          3D

 26 27  0  0  0  0  0  0  0  0999 V2000
   -3.4416   21.4448  -27.9933 H   0  0  0  0  0  0  0  0  0  0  0  0
   -2.9800   22.4050  -28.2670 C   0  0  0  0  0  0  0  0  0  0  0  0
   -3.6330   23.2620  -29.0960 N   0  0  0  0  0  0  0  0  0  0  0  0
   -3.1040   24.4660  -29.4570 C   0  0  0  0  0  0  0  0  0  0  0  0
   -3.7370   25.2610  -30.2730 N   0  0  0  0  0  0  0  0  0  0  0  0
   -5.0500   25.0510  -30.8110 C   0  0  0  0  0  0  0  0  0  0  0  0
   -5.8090   26.0450  -30.9690 O   0  0  0  0  0  0  0  0  0  0  0  0
   -5.5300   23.7310  -31.1130 N   0  0  0  0  0  0  0  0  0  0  0  0
   -5.0460   22.9010  -30.7000 H   0  0  0  0  0  0  0  0  0  0  0  0
   -6.7040   23.5020  -31.9490 C   0  0  0  0  0  0  0  0  0  0  0  0
   -7.5379   24.1187  -31.5826 H   0  0  0  0  0  0  0  0  0  0  0  0
   -6.4662   23.7750  -32.9877 H   0  0  0  0  0  0  0  0  0  0  0  0
   -7.0950   22.0600  -31.8980 C   0  0  0  0  0  0  0  0  0  0  0  0
   -6.2570   21.0760  -31.6640 O   0  0  0  0  0  0  0  0  0  0  0  0
   -6.9280   19.9470  -31.6710 C   0  0  0  0  0  0  0  0  0  0  0  0
   -6.4919   18.9506  -31.5070 H   0  0  0  0  0  0  0  0  0  0  0  0
   -8.2620   20.1990  -31.9150 C   0  0  0  0  0  0  0  0  0  0  0  0
   -9.0735   19.4592  -31.9794 H   0  0  0  0  0  0  0  0  0  0  0  0
   -8.3730   21.5660  -32.0620 C   0  0  0  0  0  0  0  0  0  0  0  0
   -9.2879   22.1414  -32.2669 H   0  0  0  0  0  0  0  0  0  0  0  0
   -1.8380   24.8330  -28.9770 C   0  0  0  0  0  0  0  0  0  0  0  0
   -1.2630   26.0470  -29.3410 O   0  0  0  0  0  0  0  0  0  0  0  0
   -1.1510   23.9650  -28.1230 C   0  0  0  0  0  0  0  0  0  0  0  0
   -0.1603   24.2445  -27.7352 H   0  0  0  0  0  0  0  0  0  0  0  0
   -1.7220   22.7450  -27.7630 C   0  0  0  0  0  0  0  0  0  0  0  0
   -1.1882   22.0580  -27.0899 H   0  0  0  0  0  0  0  0  0  0  0  0
  1  2  1  0
  2  3  1  0
  3  4  1  0
  4  5  2  0
  5  6  1  0
  6  7  2  0
  6  8  1  0
  8  9  1  0
  8 10  1  0
 10 11  1  0
 10 12  1  0
 10 13  1  0
 13 14  1  0
 14 15  1  0
 15 16  1  0
 15 17  2  0
 17 18  1  0
 17 19  1  0
 19 20  1  0
  4 21  1  0
 21 22  1  0
 21 23  2  0
 23 24  1  0
 23 25  1  0
 25 26  1  0
 25  2  2  0
 19 13  2  0
M  CHG  2   3  -1  22  -1
M  END
>  <UniqueID>  (20) 
20

>  <SMILES>  (20) 
O=C(/N=c1\[n-]cccc1[O-])NCc1ccco1

>  <Energy>  (20) 
54.756684331045435

>  <Genealogy>  (20) 
O=C(N=c1[n-]cccc1[O-])NCc1ccco1 (protonated)
O=C(/N=c1\[n-]cccc1[O-])NCc1ccco1 (cis-trans isomerization)
O=C(/N=c1\[n-]cccc1[O-])NCc1ccco1 (3D coordinates assigned)
O=C(/N=c1\[n-]cccc1[O-])NCc1ccco1 (optimized conformer: 54.756684331045435 kcal/mol)

>  <smiles>  (20) 
O=C(N=c1[nH]cccc1O)NCc1ccco1

>  <score_type>  (20) 
oracle

>  <origin>  (20) 
adgpu

>  <m_score__min__energy>  (20) 
-9.7799999999999994

>  <m_primary>  (20) 
energy

$$$$
20:0
     RDKit          3D

 36 38  0  0  1  0  0  0  0  0999 V2000
   -4.2700   19.6750  -33.7630 C   0  0  0  0  0  0  0  0  0  0  0  0
   -5.5850   20.1700  -33.2880 C   0  0  0  0  0  0  0  0  0  0  0  0
   -6.7380   19.5920  -33.6140 N   0  0  0  0  0  0  0  0  0  0  0  0
   -7.7250   20.2100  -33.0150 C   0  0  0  0  0  0  0  0  0  0  0  0
   -9.0460   19.9890  -33.0500 N   0  0  0  0  0  0  0  0  0  0  0  0
   -9.8520   20.7810  -32.3350 C   0  0  0  0  0  0  0  0  0  0  0  0
   -9.3640   21.7750  -31.5940 N   0  0  0  0  0  0  0  0  0  0  0  0
   -8.0190   21.9950  -31.5600 C   0  0  0  0  0  0  0  0  0  0  0  0
   -7.5980   22.8500  -30.8030 N   0  0  0  0  0  0  0  0  0  0  0  0
   -6.5240   23.4460  -30.3700 C   0  0  0  0  0  0  0  0  0  0  0  0
   -6.0230   24.6210  -30.9940 C   0  0  0  0  0  0  0  0  0  0  0  0
   -4.7980   25.1380  -30.6250 C   0  0  0  0  0  0  0  0  0  0  0  0
   -4.0200   24.5540  -29.6570 C   0  0  0  0  0  0  0  0  0  0  0  0
   -2.8160   25.1320  -29.3510 O   0  0  0  0  0  0  0  0  0  0  0  0
   -1.7920   24.5220  -28.5930 C   0  0  0  0  0  0  0  0  0  0  0  0
   -2.1920   24.1980  -27.3290 F   0  0  0  0  0  0  0  0  0  0  0  0
   -1.3140   23.4160  -29.2890 F   0  0  0  0  0  0  0  0  0  0  0  0
   -0.7470   25.4220  -28.4790 F   0  0  0  0  0  0  0  0  0  0  0  0
   -4.4850   23.4260  -29.0480 C   0  0  0  0  0  0  0  0  0  0  0  0
   -5.6950   22.8660  -29.3730 C   0  0  0  0  0  0  0  0  0  0  0  0
   -7.1480   21.2390  -32.2630 C   0  0  0  0  0  0  0  0  0  0  0  0
   -5.8090   21.2580  -32.4070 C   0  0  0  0  0  0  0  0  0  0  0  0
   -4.6600   22.0660  -32.0030 C   0  0  0  0  0  0  0  0  0  0  0  0
   -3.6341   19.4356  -32.8980 H   0  0  0  0  0  0  0  0  0  0  0  0
   -4.4167   18.7706  -34.3717 H   0  0  0  0  0  0  0  0  0  0  0  0
   -3.7839   20.4517  -34.3717 H   0  0  0  0  0  0  0  0  0  0  0  0
   -6.8360   18.7760  -34.2490 H   0  0  0  0  0  0  0  0  0  0  0  0
   -9.4350   19.2050  -33.6300 H   0  0  0  0  0  0  0  0  0  0  0  0
  -10.9382   20.6087  -32.3590 H   0  0  0  0  0  0  0  0  0  0  0  0
   -6.6149   25.1206  -31.7750 H   0  0  0  0  0  0  0  0  0  0  0  0
   -4.4330   26.0483  -31.1232 H   0  0  0  0  0  0  0  0  0  0  0  0
   -3.8699   22.9492  -28.2706 H   0  0  0  0  0  0  0  0  0  0  0  0
   -6.0276   21.9550  -28.8540 H   0  0  0  0  0  0  0  0  0  0  0  0
   -4.6062   22.1038  -30.9050 H   0  0  0  0  0  0  0  0  0  0  0  0
   -3.7379   21.6165  -32.4000 H   0  0  0  0  0  0  0  0  0  0  0  0
   -4.7711   23.0858  -32.4000 H   0  0  0  0  0  0  0  0  0  0  0  0
  1  2  1  0
  2  3  1  0
  3  4  1  0
  4  5  1  0
  5  6  1  0
  6  7  2  0
  7  8  1  0
  8  9  2  0
  9 10  1  0
 10 11  2  0
 11 12  1  0
 12 13  2  0
 13 14  1  0
 14 15  1  0
 15 16  1  0
 15 17  1  0
 15 18  1  0
 13 19  1  0
 19 20  2  0
  8 21  1  0
 21 22  1  0
 22 23  1  0
 22  2  2  0
 21  4  2  0
 20 10  1  0
  1 24  1  0
  1 25  1  0
  1 26  1  0
  3 27  1  0
  5 28  1  0
  6 29  1  0
 11 30  1  0
 12 31  1  0
 19 32  1  0
 20 33  1  0
 23 34  1  0
 23 35  1  0
 23 36  1  0
M  END
>  <smiles>  (21) 
Cc1[nH]c2[nH]cnc(=Nc3ccc(OC(F)(F)F)cc3)c2c1C

>  <score_type>  (21) 
oracle

>  <origin>  (21) 
adgpu

>  <m_score__min__energy>  (21) 
-7.71

>  <m_primary>  (21) 
energy

$$$$
21:0
     RDKit          3D

 27 28  0  0  0  0  0  0  0  0999 V2000
   -1.1240   25.8680  -28.8450 N   0  0  0  0  0  0  0  0  0  0  0  0
   -2.3610   24.6590  -28.8310 S   0  0  0  0  0  0  0  0  0  0  0  0
   -3.0990   24.7370  -27.5250 O   0  0  0  0  0  0  0  0  0  0  0  0
   -1.7460   23.2940  -28.9620 O   0  0  0  0  0  0  0  0  0  0  0  0
   -3.4700   24.9350  -30.1070 O   0  0  0  0  0  0  0  0  0  0  0  0
   -4.5010   24.0640  -30.4900 C   0  0  0  0  0  0  0  0  0  0  0  0
   -5.8630   24.3910  -30.3730 C   0  0  0  0  0  0  0  0  0  0  0  0
   -6.8470   23.4800  -30.7710 C   0  0  0  0  0  0  0  0  0  0  0  0
   -6.4880   22.2280  -31.2990 C   0  0  0  0  0  0  0  0  0  0  0  0
   -7.5330   21.2600  -31.7240 C   0  0  0  0  0  0  0  0  0  0  0  0
   -7.1890   19.9370  -32.0630 C   0  0  0  0  0  0  0  0  0  0  0  0
   -8.1750   19.0290  -32.4620 C   0  0  0  0  0  0  0  0  0  0  0  0
   -9.5120   19.4300  -32.5270 C   0  0  0  0  0  0  0  0  0  0  0  0
   -9.8660   20.7390  -32.1950 C   0  0  0  0  0  0  0  0  0  0  0  0
   -8.8840   21.6510  -31.7950 C   0  0  0  0  0  0  0  0  0  0  0  0
   -5.1250   21.9070  -31.4210 C   0  0  0  0  0  0  0  0  0  0  0  0
   -4.1450   22.8200  -31.0200 C   0  0  0  0  0  0  0  0  0  0  0  0
   -1.2290   26.4210  -29.7230 H   0  0  0  0  0  0  0  0  0  0  0  0
   -6.1570   25.3697  -29.9658 H   0  0  0  0  0  0  0  0  0  0  0  0
   -7.9097   23.7455  -30.6700 H   0  0  0  0  0  0  0  0  0  0  0  0
   -6.1381   19.6158  -32.0136 H   0  0  0  0  0  0  0  0  0  0  0  0
   -7.8976   17.9976  -32.7251 H   0  0  0  0  0  0  0  0  0  0  0  0
  -10.2861   18.7138  -32.8400 H   0  0  0  0  0  0  0  0  0  0  0  0
  -10.9187   21.0535  -32.2481 H   0  0  0  0  0  0  0  0  0  0  0  0
   -9.1689   22.6809  -31.5340 H   0  0  0  0  0  0  0  0  0  0  0  0
   -4.8277   20.9319  -31.8343 H   0  0  0  0  0  0  0  0  0  0  0  0
   -3.0819   22.5567  -31.1226 H   0  0  0  0  0  0  0  0  0  0  0  0
  1  2  1  0
  2  3  2  0
  2  4  2  0
  2  5  1  0
  5  6  1  0
  6  7  2  0
  7  8  1  0
  8  9  2  0
  9 10  1  0
 10 11  2  0
 11 12  1  0
 12 13  2  0
 13 14  1  0
 14 15  2  0
  9 16  1  0
 16 17  2  0
 17  6  1  0
 15 10  1  0
  1 18  1  0
  7 19  1  0
  8 20  1  0
 11 21  1  0
 12 22  1  0
 13 23  1  0
 14 24  1  0
 15 25  1  0
 16 26  1  0
 17 27  1  0
M  CHG  1   1  -1
M  END
>  <UniqueID>  (22) 
21

>  <SMILES>  (22) 
[NH-]S(=O)(=O)Oc1ccc(-c2ccccc2)cc1

>  <Energy>  (22) 
31.428260791470574

>  <Genealogy>  (22) 
[NH-]S(=O)(=O)Oc1ccc(-c2ccccc2)cc1 (protonated)
[NH-]S(=O)(=O)Oc1ccc(-c2ccccc2)cc1 (3D coordinates assigned)
[NH-]S(=O)(=O)Oc1ccc(-c2ccccc2)cc1 (optimized conformer: 31.428260791470574 kcal/mol)

>  <smiles>  (22) 
NS(=O)(=O)Oc1ccc(-c2ccccc2)cc1

>  <score_type>  (22) 
oracle

>  <origin>  (22) 
adgpu

>  <m_score__min__energy>  (22) 
-9.9499999999999993

>  <m_primary>  (22) 
energy

$$$$
22:0
     RDKit          3D

 43 45  0  0  0  0  0  0  0  0999 V2000
    2.1720   24.5770  -27.8730 C   0  0  0  0  0  0  0  0  0  0  0  0
    0.8050   24.8980  -28.1100 O   0  0  0  0  0  0  0  0  0  0  0  0
   -0.1520   25.2740  -27.1500 C   0  0  0  0  0  0  0  0  0  0  0  0
    0.2770   25.2840  -25.8160 C   0  0  0  0  0  0  0  0  0  0  0  0
   -0.5910   25.6410  -24.7840 C   0  0  0  0  0  0  0  0  0  0  0  0
   -1.9070   25.9940  -25.0720 C   0  0  0  0  0  0  0  0  0  0  0  0
   -2.3590   25.9900  -26.3910 C   0  0  0  0  0  0  0  0  0  0  0  0
   -1.4970   25.6310  -27.4470 C   0  0  0  0  0  0  0  0  0  0  0  0
   -1.9710   25.6200  -28.8020 N   0  0  0  0  0  0  0  0  0  0  0  0
   -3.1730   24.5510  -29.4520 S   0  0  0  0  0  0  0  0  0  0  0  0
   -4.1980   24.2620  -28.3910 O   0  0  0  0  0  0  0  0  0  0  0  0
   -3.8460   25.2230  -30.6150 O   0  0  0  0  0  0  0  0  0  0  0  0
   -2.4200   23.0620  -30.0140 C   0  0  0  0  0  0  0  0  0  0  0  0
   -1.0750   22.8030  -29.7220 C   0  0  0  0  0  0  0  0  0  0  0  0
   -0.4820   21.6120  -30.1460 C   0  0  0  0  0  0  0  0  0  0  0  0
   -1.2240   20.6810  -30.8760 C   0  0  0  0  0  0  0  0  0  0  0  0
   -2.5640   20.9380  -31.2040 C   0  0  0  0  0  0  0  0  0  0  0  0
   -3.3120   19.9590  -31.9460 N   0  0  0  0  0  0  0  0  0  0  0  0
   -4.5110   20.2580  -32.6800 C   0  0  0  0  0  0  0  0  0  0  0  0
   -4.7560   21.4490  -33.0190 O   0  0  0  0  0  0  0  0  0  0  0  0
   -5.4420   19.1780  -33.0890 C   0  0  0  0  0  0  0  0  0  0  0  0
   -5.1970   18.4040  -34.2370 C   0  0  0  0  0  0  0  0  0  0  0  0
   -6.0890   17.3880  -34.5890 C   0  0  0  0  0  0  0  0  0  0  0  0
   -7.1840   17.1440  -33.8220 N   0  0  0  0  0  0  0  0  0  0  0  0
   -7.4450   17.8700  -32.7040 C   0  0  0  0  0  0  0  0  0  0  0  0
   -6.5800   18.8940  -32.3150 C   0  0  0  0  0  0  0  0  0  0  0  0
   -3.1630   22.1290  -30.7520 C   0  0  0  0  0  0  0  0  0  0  0  0
    2.3559   24.5338  -26.7893 H   0  0  0  0  0  0  0  0  0  0  0  0
    2.4027   23.6003  -28.3233 H   0  0  0  0  0  0  0  0  0  0  0  0
    2.8133   25.3490  -28.3233 H   0  0  0  0  0  0  0  0  0  0  0  0
    1.3145   25.0060  -25.5789 H   0  0  0  0  0  0  0  0  0  0  0  0
   -0.2360   25.6437  -23.7429 H   0  0  0  0  0  0  0  0  0  0  0  0
   -2.5907   26.2763  -24.2579 H   0  0  0  0  0  0  0  0  0  0  0  0
   -3.3999   26.2701  -26.6100 H   0  0  0  0  0  0  0  0  0  0  0  0
   -0.4844   23.5394  -29.1574 H   0  0  0  0  0  0  0  0  0  0  0  0
    0.5714   21.4068  -29.9046 H   0  0  0  0  0  0  0  0  0  0  0  0
   -0.7546   19.7392  -31.1963 H   0  0  0  0  0  0  0  0  0  0  0  0
   -2.8920   19.0090  -32.0550 H   0  0  0  0  0  0  0  0  0  0  0  0
   -4.3076   18.5974  -34.8547 H   0  0  0  0  0  0  0  0  0  0  0  0
   -5.9045   16.7838  -35.4895 H   0  0  0  0  0  0  0  0  0  0  0  0
   -8.3402   17.6504  -32.1038 H   0  0  0  0  0  0  0  0  0  0  0  0
   -6.7884   19.4768  -31.4056 H   0  0  0  0  0  0  0  0  0  0  0  0
   -4.2205   22.3292  -30.9790 H   0  0  0  0  0  0  0  0  0  0  0  0
  1  2  1  0
  2  3  1  0
  3  4  2  0
  4  5  1  0
  5  6  2  0
  6  7  1  0
  7  8  2  0
  8  9  1  0
  9 10  1  0
 10 11  2  0
 10 12  2  0
 10 13  1  0
 13 14  2  0
 14 15  1  0
 15 16  2  0
 16 17  1  0
 17 18  1  0
 18 19  1  0
 19 20  2  0
 19 21  1  0
 21 22  2  0
 22 23  1  0
 23 24  2  0
 24 25  1  0
 25 26  2  0
 17 27  2  0
  8  3  1  0
 27 13  1  0
 26 21  1  0
  1 28  1  0
  1 29  1  0
  1 30  1  0
  4 31  1  0
  5 32  1  0
  6 33  1  0
  7 34  1  0
 14 35  1  0
 15 36  1  0
 16 37  1  0
 18 38  1  0
 22 39  1  0
 23 40  1  0
 25 41  1  0
 26 42  1  0
 27 43  1  0
M  CHG  1   9  -1
M  END
>  <UniqueID>  (23) 
22

>  <SMILES>  (23) 
COc1ccccc1[N-]S(=O)(=O)c1cccc(NC(=O)c2ccncc2)c1

>  <Energy>  (23) 
58.13596553630295

>  <Genealogy>  (23) 
COc1ccccc1[N-]S(=O)(=O)c1cccc(NC(=O)c2ccncc2)c1 (protonated)
COc1ccccc1[N-]S(=O)(=O)c1cccc(NC(=O)c2ccncc2)c1 (3D coordinates assigned)
COc1ccccc1[N-]S(=O)(=O)c1cccc(NC(=O)c2ccncc2)c1 (optimized conformer: 58.13596553630295 kcal/mol)

>  <smiles>  (23) 
COc1ccccc1NS(=O)(=O)c1cccc(NC(=O)c2ccncc2)c1

>  <score_type>  (23) 
oracle

>  <origin>  (23) 
adgpu

>  <m_score__min__energy>  (23) 
-10.65

>  <m_primary>  (23) 
energy

$$$$
23:0
     RDKit          3D

 58 60  0  0  0  0  0  0  0  0999 V2000
   -4.4460   18.9280  -34.2030 C   0  0  0  0  0  0  0  0  0  0  0  0
   -5.6520   18.7390  -33.2530 C   0  0  1  0  0  0  0  0  0  0  0  0
   -6.9080   19.3240  -33.8140 N   0  0  0  0  0  0  0  0  0  0  0  0
   -7.7070   20.0970  -32.8940 C   0  0  0  0  0  0  0  0  0  0  0  0
   -7.6730   21.3930  -32.3870 C   0  0  0  0  0  0  0  0  0  0  0  0
   -6.8440   22.5500  -32.5400 N   0  0  0  0  0  0  0  0  0  0  0  0
   -5.9310   23.0080  -31.5320 C   0  0  0  0  0  0  0  0  0  0  0  0
   -6.3160   23.9750  -30.5890 C   0  0  0  0  0  0  0  0  0  0  0  0
   -5.4160   24.4040  -29.6120 C   0  0  0  0  0  0  0  0  0  0  0  0
   -4.1150   23.8900  -29.5770 C   0  0  0  0  0  0  0  0  0  0  0  0
   -3.0050   24.4150  -28.3130 S   0  0  0  0  0  0  0  0  0  0  0  0
   -3.7700   24.9080  -27.1190 O   0  0  0  0  0  0  0  0  0  0  0  0
   -2.1720   23.2410  -27.8890 O   0  0  0  0  0  0  0  0  0  0  0  0
   -1.9530   25.6660  -28.9060 N   0  0  0  0  0  0  0  0  0  0  0  0
   -0.6430   25.6170  -28.2500 C   0  0  0  0  0  0  0  0  0  0  0  0
   -0.7530   26.0270  -26.8040 C   0  0  0  0  0  0  0  0  0  0  0  0
   -0.7560   25.0500  -25.7950 C   0  0  0  0  0  0  0  0  0  0  0  0
   -0.8640   25.4260  -24.4530 C   0  0  0  0  0  0  0  0  0  0  0  0
   -0.9710   26.7750  -24.1090 C   0  0  0  0  0  0  0  0  0  0  0  0
   -0.9680   27.7540  -25.1070 C   0  0  0  0  0  0  0  0  0  0  0  0
   -0.8580   27.3840  -26.4500 C   0  0  0  0  0  0  0  0  0  0  0  0
   -3.7170   22.9470  -30.5350 C   0  0  0  0  0  0  0  0  0  0  0  0
   -4.6180   22.5170  -31.5130 C   0  0  0  0  0  0  0  0  0  0  0  0
   -8.8140   21.1340  -31.6580 C   0  0  0  0  0  0  0  0  0  0  0  0
   -9.5480   21.8080  -30.8880 O   0  0  0  0  0  0  0  0  0  0  0  0
   -8.7840   19.8190  -32.0690 C   0  0  0  0  0  0  0  0  0  0  0  0
   -9.4630   18.7960  -31.7980 O   0  0  0  0  0  0  0  0  0  0  0  0
   -5.8010   17.2690  -32.6760 C   0  0  0  0  0  0  0  0  0  0  0  0
   -6.8560   16.4750  -33.4880 C   0  0  0  0  0  0  0  0  0  0  0  0
   -4.4610   16.5000  -32.8080 C   0  0  0  0  0  0  0  0  0  0  0  0
   -6.2330   17.2550  -31.1960 C   0  0  0  0  0  0  0  0  0  0  0  0
   -3.5309   19.0714  -33.6097 H   0  0  0  0  0  0  0  0  0  0  0  0
   -4.3357   18.0362  -34.8374 H   0  0  0  0  0  0  0  0  0  0  0  0
   -4.6138   19.8108  -34.8374 H   0  0  0  0  0  0  0  0  0  0  0  0
   -5.4300   19.3327  -32.3540 H   0  0  0  0  0  0  0  0  0  0  0  0
   -6.7120   19.9190  -34.6470 H   0  0  0  0  0  0  0  0  0  0  0  0
   -7.5040   18.5400  -34.1620 H   0  0  0  0  0  0  0  0  0  0  0  0
   -6.9590   23.1230  -33.4060 H   0  0  0  0  0  0  0  0  0  0  0  0
   -7.3316   24.3963  -30.6205 H   0  0  0  0  0  0  0  0  0  0  0  0
   -5.7308   25.1492  -28.8666 H   0  0  0  0  0  0  0  0  0  0  0  0
   -0.2502   24.5910  -28.3051 H   0  0  0  0  0  0  0  0  0  0  0  0
    0.0349   26.3145  -28.7637 H   0  0  0  0  0  0  0  0  0  0  0  0
   -0.6731   23.9860  -26.0615 H   0  0  0  0  0  0  0  0  0  0  0  0
   -0.8647   24.6573  -23.6661 H   0  0  0  0  0  0  0  0  0  0  0  0
   -1.0577   27.0676  -23.0522 H   0  0  0  0  0  0  0  0  0  0  0  0
   -1.0523   28.8165  -24.8348 H   0  0  0  0  0  0  0  0  0  0  0  0
   -0.8535   28.1567  -27.2329 H   0  0  0  0  0  0  0  0  0  0  0  0
   -2.6934   22.5447  -30.5169 H   0  0  0  0  0  0  0  0  0  0  0  0
   -4.2952   21.7893  -32.2721 H   0  0  0  0  0  0  0  0  0  0  0  0
   -7.5396   15.9605  -32.7967 H   0  0  0  0  0  0  0  0  0  0  0  0
   -7.4286   17.1681  -34.1218 H   0  0  0  0  0  0  0  0  0  0  0  0
   -6.3484   15.7329  -34.1218 H   0  0  0  0  0  0  0  0  0  0  0  0
   -4.0676   16.2742  -31.8059 H   0  0  0  0  0  0  0  0  0  0  0  0
   -4.6295   15.5611  -33.3559 H   0  0  0  0  0  0  0  0  0  0  0  0
   -3.7354   17.1191  -33.3559 H   0  0  0  0  0  0  0  0  0  0  0  0
   -5.3408   17.2839  -30.5533 H   0  0  0  0  0  0  0  0  0  0  0  0
   -6.8623   18.1332  -30.9894 H   0  0  0  0  0  0  0  0  0  0  0  0
   -6.8041   16.3379  -30.9894 H   0  0  0  0  0  0  0  0  0  0  0  0
  1  2  1  0
  2  3  1  0
  3  4  1  0
  4  5  2  0
  5  6  1  0
  6  7  1  0
  7  8  2  0
  8  9  1  0
  9 10  2  0
 10 11  1  0
 11 12  2  0
 11 13  2  0
 11 14  1  0
 14 15  1  0
 15 16  1  0
 16 17  2  0
 17 18  1  0
 18 19  2  0
 19 20  1  0
 20 21  2  0
 10 22  1  0
 22 23  2  0
  5 24  1  0
 24 25  2  0
 24 26  1  0
 26 27  2  0
  2 28  1  0
 28 29  1  0
 28 30  1  0
 28 31  1  0
 26  4  1  0
 23  7  1  0
 21 16  1  0
  1 32  1  0
  1 33  1  0
  1 34  1  0
  2 35  1  1
  3 36  1  0
  3 37  1  0
  6 38  1  0
  8 39  1  0
  9 40  1  0
 15 41  1  0
 15 42  1  0
 17 43  1  0
 18 44  1  0
 19 45  1  0
 20 46  1  0
 21 47  1  0
 22 48  1  0
 23 49  1  0
 29 50  1  0
 29 51  1  0
 29 52  1  0
 30 53  1  0
 30 54  1  0
 30 55  1  0
 31 56  1  0
 31 57  1  0
 31 58  1  0
M  CHG  2   3   1  14  -1
M  END
>  <UniqueID>  (24) 
23

>  <SMILES>  (24) 
C[C@@H]([NH2+]c1c(Nc2ccc(S(=O)(=O)[N-]Cc3ccccc3)cc2)c(=O)c1=O)C(C)(C)C

>  <Energy>  (24) 
59.128128195485104

>  <Genealogy>  (24) 
CC([NH2+]c1c(Nc2ccc(S(=O)(=O)[N-]Cc3ccccc3)cc2)c(=O)c1=O)C(C)(C)C (protonated)
C[C@@H]([NH2+]c1c(Nc2ccc(S(=O)(=O)[N-]Cc3ccccc3)cc2)c(=O)c1=O)C(C)(C)C (chirality)
C[C@@H]([NH2+]c1c(Nc2ccc(S(=O)(=O)[N-]Cc3ccccc3)cc2)c(=O)c1=O)C(C)(C)C (3D coordinates assigned)
C[C@@H]([NH2+]c1c(Nc2ccc(S(=O)(=O)[N-]Cc3ccccc3)cc2)c(=O)c1=O)C(C)(C)C (optimized conformer: 59.128128195485104 kcal/mol)

>  <smiles>  (24) 
CC(Nc1c(Nc2ccc(S(=O)(=O)NCc3ccccc3)cc2)c(=O)c1=O)C(C)(C)C

>  <score_type>  (24) 
oracle

>  <origin>  (24) 
adgpu

>  <m_score__min__energy>  (24) 
-10.83

>  <m_primary>  (24) 
energy

$$$$
24:0
     RDKit          3D

 50 52  0  0  0  0  0  0  0  0999 V2000
   -1.3070   12.5350  -31.1780 C   0  0  0  0  0  0  0  0  0  0  0  0
   -2.1080   12.5120  -32.3560 O   0  0  0  0  0  0  0  0  0  0  0  0
   -2.9640   13.5500  -32.7500 C   0  0  0  0  0  0  0  0  0  0  0  0
   -4.0710   13.8400  -31.9450 C   0  0  0  0  0  0  0  0  0  0  0  0
   -4.9500   14.8710  -32.2890 C   0  0  0  0  0  0  0  0  0  0  0  0
   -4.7420   15.6250  -33.4560 C   0  0  0  0  0  0  0  0  0  0  0  0
   -5.6370   16.7010  -33.8030 N   0  0  0  0  0  0  0  0  0  0  0  0
   -7.0110   16.7380  -33.2810 C   0  0  0  0  0  0  0  0  0  0  0  0
   -7.2290   18.0420  -32.5040 C   0  0  0  0  0  0  0  0  0  0  0  0
   -6.6440   19.1910  -33.2160 N   0  0  0  0  0  0  0  0  0  0  0  0
   -6.4320   20.4280  -32.5100 C   0  0  0  0  0  0  0  0  0  0  0  0
   -7.4620   20.9760  -31.7280 C   0  0  0  0  0  0  0  0  0  0  0  0
   -7.2730   22.1840  -31.0520 C   0  0  0  0  0  0  0  0  0  0  0  0
   -6.0480   22.8620  -31.1420 C   0  0  0  0  0  0  0  0  0  0  0  0
   -5.8500   24.1040  -30.4410 N   0  0  0  0  0  0  0  0  0  0  0  0
   -7.0150   24.9300  -30.1060 C   0  0  0  0  0  0  0  0  0  0  0  0
   -4.5500   24.4760  -29.9330 C   0  0  0  0  0  0  0  0  0  0  0  0
   -4.0140   23.9070  -28.6530 C   0  0  0  0  0  0  0  0  0  0  0  0
   -3.8370   25.2970  -30.5720 O   0  0  0  0  0  0  0  0  0  0  0  0
   -5.0200   22.3220  -31.9310 C   0  0  0  0  0  0  0  0  0  0  0  0
   -5.2060   21.1120  -32.6080 C   0  0  0  0  0  0  0  0  0  0  0  0
   -4.1820   20.5980  -33.3330 F   0  0  0  0  0  0  0  0  0  0  0  0
   -6.1170   19.0130  -34.5760 C   0  0  0  0  0  0  0  0  0  0  0  0
   -5.1370   17.8320  -34.6010 C   0  0  0  0  0  0  0  0  0  0  0  0
   -3.6320   15.3330  -34.2670 C   0  0  0  0  0  0  0  0  0  0  0  0
   -2.7510   14.3040  -33.9190 C   0  0  0  0  0  0  0  0  0  0  0  0
   -1.9580   12.5163  -30.2915 H   0  0  0  0  0  0  0  0  0  0  0  0
   -0.6465   11.6555  -31.1665 H   0  0  0  0  0  0  0  0  0  0  0  0
   -0.6981   13.4510  -31.1665 H   0  0  0  0  0  0  0  0  0  0  0  0
   -4.2512   13.2515  -31.0333 H   0  0  0  0  0  0  0  0  0  0  0  0
   -5.8108   15.0936  -31.6413 H   0  0  0  0  0  0  0  0  0  0  0  0
   -7.7226   16.6870  -34.1183 H   0  0  0  0  0  0  0  0  0  0  0  0
   -7.1711   15.8810  -32.6103 H   0  0  0  0  0  0  0  0  0  0  0  0
   -8.3091   18.2092  -32.3796 H   0  0  0  0  0  0  0  0  0  0  0  0
   -6.7351   17.9508  -31.5253 H   0  0  0  0  0  0  0  0  0  0  0  0
   -8.4248   20.4501  -31.6472 H   0  0  0  0  0  0  0  0  0  0  0  0
   -8.0887   22.6056  -30.4462 H   0  0  0  0  0  0  0  0  0  0  0  0
   -7.1130   24.9995  -29.0126 H   0  0  0  0  0  0  0  0  0  0  0  0
   -6.8833   25.9376  -30.5271 H   0  0  0  0  0  0  0  0  0  0  0  0
   -7.9223   24.4723  -30.5271 H   0  0  0  0  0  0  0  0  0  0  0  0
   -4.4899   24.4122  -27.7995 H   0  0  0  0  0  0  0  0  0  0  0  0
   -4.2333   22.8299  -28.6103 H   0  0  0  0  0  0  0  0  0  0  0  0
   -2.9258   24.0616  -28.6103 H   0  0  0  0  0  0  0  0  0  0  0  0
   -4.0612   22.8542  -32.0175 H   0  0  0  0  0  0  0  0  0  0  0  0
   -6.9489   18.8124  -35.2671 H   0  0  0  0  0  0  0  0  0  0  0  0
   -5.5918   19.9286  -34.8857 H   0  0  0  0  0  0  0  0  0  0  0  0
   -5.0001   17.5027  -35.6416 H   0  0  0  0  0  0  0  0  0  0  0  0
   -4.1825   18.1656  -34.1678 H   0  0  0  0  0  0  0  0  0  0  0  0
   -3.4549   15.9177  -35.1817 H   0  0  0  0  0  0  0  0  0  0  0  0
   -1.8868   14.0828  -34.5626 H   0  0  0  0  0  0  0  0  0  0  0  0
  1  2  1  0
  2  3  1  0
  3  4  2  0
  4  5  1  0
  5  6  2  0
  6  7  1  0
  7  8  1  0
  8  9  1  0
  9 10  1  0
 10 11  1  0
 11 12  2  0
 12 13  1  0
 13 14  2  0
 14 15  1  0
 15 16  1  0
 15 17  1  0
 17 18  1  0
 17 19  2  0
 14 20  1  0
 20 21  2  0
 21 22  1  0
 10 23  1  0
 23 24  1  0
  6 25  1  0
 25 26  2  0
 26  3  1  0
 24  7  1  0
 21 11  1  0
  1 27  1  0
  1 28  1  0
  1 29  1  0
  4 30  1  0
  5 31  1  0
  8 32  1  0
  8 33  1  0
  9 34  1  0
  9 35  1  0
 12 36  1  0
 13 37  1  0
 16 38  1  0
 16 39  1  0
 16 40  1  0
 18 41  1  0
 18 42  1  0
 18 43  1  0
 20 44  1  0
 23 45  1  0
 23 46  1  0
 24 47  1  0
 24 48  1  0
 25 49  1  0
 26 50  1  0
M  END
>  <UniqueID>  (25) 
24

>  <SMILES>  (25) 
COc1ccc(N2CCN(c3ccc(N(C)C(C)=O)cc3F)CC2)cc1

>  <Energy>  (25) 
64.80953854548565

>  <Genealogy>  (25) 
COc1ccc(N2CCN(c3ccc(N(C)C(C)=O)cc3F)CC2)cc1 (3D coordinates assigned)
COc1ccc(N2CCN(c3ccc(N(C)C(C)=O)cc3F)CC2)cc1 (nonaromatic ring conformer: 64.80953854548565 kcal/mol)

>  <smiles>  (25) 
COc1ccc(N2CCN(c3ccc(N(C)C(C)=O)cc3F)CC2)cc1

>  <score_type>  (25) 
oracle

>  <origin>  (25) 
adgpu

>  <m_score__min__energy>  (25) 
-7.71

>  <m_primary>  (25) 
energy

$$$$
25:0
     RDKit          3D

 27 28  0  0  0  0  0  0  0  0999 V2000
   -9.0420   21.3785  -32.3577 H   0  0  0  0  0  0  0  0  0  0  0  0
   -8.0190   21.6860  -32.0950 C   0  0  0  0  0  0  0  0  0  0  0  0
   -7.5590   23.1980  -31.5140 S   0  0  0  0  0  0  0  0  0  0  0  0
   -5.9280   22.7880  -31.4020 C   0  0  0  0  0  0  0  0  0  0  0  0
   -4.9570   23.5380  -30.9620 N   0  0  0  0  0  0  0  0  0  0  0  0
   -4.9910   24.9140  -30.5460 C   0  0  0  0  0  0  0  0  0  0  0  0
   -4.0160   25.6530  -30.8420 O   0  0  0  0  0  0  0  0  0  0  0  0
   -6.1510   25.5200  -29.8160 C   0  0  0  0  0  0  0  0  0  0  0  0
   -5.9870   25.4343  -28.7317 H   0  0  0  0  0  0  0  0  0  0  0  0
   -6.2428   26.5813  -30.0902 H   0  0  0  0  0  0  0  0  0  0  0  0
   -7.0746   24.9892  -30.0902 H   0  0  0  0  0  0  0  0  0  0  0  0
   -5.7280   21.5090  -31.7850 N   0  0  0  0  0  0  0  0  0  0  0  0
   -4.7890   21.0500  -31.7790 H   0  0  0  0  0  0  0  0  0  0  0  0
   -6.8750   20.8910  -32.1850 C   0  0  0  0  0  0  0  0  0  0  0  0
   -6.8810   19.4750  -32.6140 C   0  0  0  0  0  0  0  0  0  0  0  0
   -5.6740   18.7780  -33.5600 S   0  0  0  0  0  0  0  0  0  0  0  0
   -6.4040   17.2670  -33.5860 C   0  0  0  0  0  0  0  0  0  0  0  0
   -5.8210   16.0520  -34.2210 C   0  0  0  0  0  0  0  0  0  0  0  0
   -5.4863   15.3544  -33.4391 H   0  0  0  0  0  0  0  0  0  0  0  0
   -6.5829   15.5637  -34.8464 H   0  0  0  0  0  0  0  0  0  0  0  0
   -4.9634   16.3408  -34.8464 H   0  0  0  0  0  0  0  0  0  0  0  0
   -7.5550   17.2630  -32.8820 N   0  0  0  0  0  0  0  0  0  0  0  0
   -7.8410   18.4840  -32.3520 C   0  0  0  0  0  0  0  0  0  0  0  0
   -9.1020   18.6950  -31.5730 C   0  0  0  0  0  0  0  0  0  0  0  0
   -8.8786   18.6576  -30.4966 H   0  0  0  0  0  0  0  0  0  0  0  0
   -9.5287   19.6770  -31.8250 H   0  0  0  0  0  0  0  0  0  0  0  0
   -9.8252   17.9054  -31.8250 H   0  0  0  0  0  0  0  0  0  0  0  0
  1  2  1  0
  2  3  1  0
  3  4  1  0
  4  5  2  0
  5  6  1  0
  6  7  2  0
  6  8  1  0
  8  9  1  0
  8 10  1  0
  8 11  1  0
  4 12  1  0
 12 13  1  0
 12 14  1  0
 14 15  1  0
 15 16  1  0
 16 17  1  0
 17 18  1  0
 18 19  1  0
 18 20  1  0
 18 21  1  0
 17 22  2  0
 22 23  1  0
 23 24  1  0
 24 25  1  0
 24 26  1  0
 24 27  1  0
 14  2  2  0
 23 15  2  0
M  END
>  <UniqueID>  (26) 
25

>  <SMILES>  (26) 
CC(=O)/N=c1/[nH]c(-c2sc(C)nc2C)cs1

>  <Energy>  (26) 
91.6388962669023

>  <Genealogy>  (26) 
CC(=O)/N=c1/[nH]c(-c2sc(C)nc2C)cs1 (cis-trans isomerization)
CC(=O)/N=c1/[nH]c(-c2sc(C)nc2C)cs1 (3D coordinates assigned)
CC(=O)/N=c1/[nH]c(-c2sc(C)nc2C)cs1 (optimized conformer: 91.6388962669023 kcal/mol)

>  <smiles>  (26) 
CC(=O)N=c1[nH]c(-c2sc(C)nc2C)cs1

>  <score_type>  (26) 
oracle

>  <origin>  (26) 
adgpu

>  <m_score__min__energy>  (26) 
-7.6399999999999997

>  <m_primary>  (26) 
energy

$$$$
26:0
     RDKit          3D

 40 42  0  0  0  0  0  0  0  0999 V2000
   -8.2490   23.3540  -31.7960 C   0  0  0  0  0  0  0  0  0  0  0  0
   -7.7970   21.9180  -31.8550 C   0  0  0  0  0  0  0  0  0  0  0  0
   -8.7090   20.9450  -32.3020 C   0  0  0  0  0  0  0  0  0  0  0  0
   -8.3290   19.6070  -32.4040 C   0  0  0  0  0  0  0  0  0  0  0  0
   -7.0380   19.2190  -32.0560 C   0  0  0  0  0  0  0  0  0  0  0  0
   -6.1220   20.1670  -31.5960 C   0  0  0  0  0  0  0  0  0  0  0  0
   -6.4830   21.5220  -31.4770 C   0  0  0  0  0  0  0  0  0  0  0  0
   -5.4810   22.4860  -30.9550 C   0  0  0  0  0  0  0  0  0  0  0  0
   -5.0530   22.5880  -29.6410 C   0  0  0  0  0  0  0  0  0  0  0  0
   -4.1510   23.6360  -29.6480 C   0  0  0  0  0  0  0  0  0  0  0  0
   -3.3930   24.1570  -28.4830 C   0  0  0  0  0  0  0  0  0  0  0  0
   -4.0550   24.4950  -27.2920 C   0  0  0  0  0  0  0  0  0  0  0  0
   -3.3430   24.9870  -26.1940 C   0  0  0  0  0  0  0  0  0  0  0  0
   -1.9450   25.1520  -26.2540 C   0  0  0  0  0  0  0  0  0  0  0  0
   -1.2050   25.6610  -25.1140 N   0  0  0  0  0  0  0  0  0  0  0  0
   -1.1630   27.1020  -24.8320 C   0  0  0  0  0  0  0  0  0  0  0  0
   -0.4850   24.7440  -24.2210 C   0  0  0  0  0  0  0  0  0  0  0  0
   -1.2860   24.8080  -27.4510 C   0  0  0  0  0  0  0  0  0  0  0  0
   -1.9990   24.3180  -28.5480 C   0  0  0  0  0  0  0  0  0  0  0  0
   -4.0690   24.1210  -30.9040 N   0  0  0  0  0  0  0  0  0  0  0  0
   -4.8740   23.4350  -31.6970 N   0  0  0  0  0  0  0  0  0  0  0  0
   -8.3468   23.6647  -30.7453 H   0  0  0  0  0  0  0  0  0  0  0  0
   -7.5084   23.9925  -32.2998 H   0  0  0  0  0  0  0  0  0  0  0  0
   -9.2218   23.4532  -32.2998 H   0  0  0  0  0  0  0  0  0  0  0  0
   -9.7325   21.2424  -32.5739 H   0  0  0  0  0  0  0  0  0  0  0  0
   -9.0506   18.8569  -32.7600 H   0  0  0  0  0  0  0  0  0  0  0  0
   -6.7392   18.1640  -32.1436 H   0  0  0  0  0  0  0  0  0  0  0  0
   -5.1045   19.8505  -31.3229 H   0  0  0  0  0  0  0  0  0  0  0  0
   -5.3620   21.9724  -28.7834 H   0  0  0  0  0  0  0  0  0  0  0  0
   -5.1458   24.3714  -27.2220 H   0  0  0  0  0  0  0  0  0  0  0  0
   -3.8813   25.2487  -25.2711 H   0  0  0  0  0  0  0  0  0  0  0  0
   -1.1583   27.2627  -23.7438 H   0  0  0  0  0  0  0  0  0  0  0  0
   -0.2519   27.5350  -25.2705 H   0  0  0  0  0  0  0  0  0  0  0  0
   -2.0474   27.5874  -25.2705 H   0  0  0  0  0  0  0  0  0  0  0  0
   -0.6947   25.0111  -23.1747 H   0  0  0  0  0  0  0  0  0  0  0  0
   -0.8169   23.7124  -24.4097 H   0  0  0  0  0  0  0  0  0  0  0  0
    0.5959   24.8217  -24.4097 H   0  0  0  0  0  0  0  0  0  0  0  0
   -0.1948   24.9269  -27.5227 H   0  0  0  0  0  0  0  0  0  0  0  0
   -1.4633   24.0556  -29.4722 H   0  0  0  0  0  0  0  0  0  0  0  0
   -3.4910   24.9260  -31.2300 H   0  0  0  0  0  0  0  0  0  0  0  0
  1  2  1  0
  2  3  2  0
  3  4  1  0
  4  5  2  0
  5  6  1  0
  6  7  2  0
  7  8  1  0
  8  9  1  0
  9 10  2  0
 10 11  1  0
 11 12  2  0
 12 13  1  0
 13 14  2  0
 14 15  1  0
 15 16  1  0
 15 17  1  0
 14 18  1  0
 18 19  2  0
 10 20  1  0
 20 21  1  0
  7  2  1  0
 21  8  2  0
 19 11  1  0
  1 22  1  0
  1 23  1  0
  1 24  1  0
  3 25  1  0
  4 26  1  0
  5 27  1  0
  6 28  1  0
  9 29  1  0
 12 30  1  0
 13 31  1  0
 16 32  1  0
 16 33  1  0
 16 34  1  0
 17 35  1  0
 17 36  1  0
 17 37  1  0
 18 38  1  0
 19 39  1  0
 20 40  1  0
M  END
>  <UniqueID>  (27) 
26

>  <SMILES>  (27) 
Cc1ccccc1-c1cc(-c2ccc(N(C)C)cc2)[nH]n1

>  <Energy>  (27) 
80.43076141711533

>  <Genealogy>  (27) 
Cc1ccccc1-c1cc(-c2ccc(N(C)C)cc2)[nH]n1 (3D coordinates assigned)
Cc1ccccc1-c1cc(-c2ccc(N(C)C)cc2)[nH]n1 (optimized conformer: 80.43076141711533 kcal/mol)

>  <smiles>  (27) 
Cc1ccccc1-c1cc(-c2ccc(N(C)C)cc2)[nH]n1

>  <score_type>  (27) 
oracle

>  <origin>  (27) 
adgpu

>  <m_score__min__energy>  (27) 
-8.5

>  <m_primary>  (27) 
energy

$$$$
27:0
     RDKit          3D

 32 34  0  0  0  0  0  0  0  0999 V2000
   -7.1920   18.6110  -32.0020 C   0  0  0  0  0  0  0  0  0  0  0  0
   -5.7900   18.5470  -31.7650 O   0  0  0  0  0  0  0  0  0  0  0  0
   -4.8950   19.5960  -32.0200 C   0  0  0  0  0  0  0  0  0  0  0  0
   -3.7410   19.3210  -32.7620 C   0  0  0  0  0  0  0  0  0  0  0  0
   -2.8130   20.3310  -33.0290 C   0  0  0  0  0  0  0  0  0  0  0  0
   -3.0300   21.6260  -32.5550 C   0  0  0  0  0  0  0  0  0  0  0  0
   -4.1840   21.9230  -31.8130 C   0  0  0  0  0  0  0  0  0  0  0  0
   -4.3970   23.2530  -31.3000 N   0  0  0  0  0  0  0  0  0  0  0  0
   -3.7190   23.8980  -30.3240 C   0  0  0  0  0  0  0  0  0  0  0  0
   -2.5000   23.4030  -29.6500 C   0  0  0  0  0  0  0  0  0  0  0  0
   -2.3500   22.0240  -29.4320 C   0  0  0  0  0  0  0  0  0  0  0  0
   -1.1940   21.5260  -28.8240 C   0  0  0  0  0  0  0  0  0  0  0  0
   -0.1840   22.4020  -28.4160 C   0  0  0  0  0  0  0  0  0  0  0  0
    0.9670   21.9050  -27.8170 O   0  0  0  0  0  0  0  0  0  0  0  0
   -0.3350   23.7790  -28.6070 C   0  0  0  0  0  0  0  0  0  0  0  0
   -1.4920   24.2840  -29.2090 C   0  0  0  0  0  0  0  0  0  0  0  0
   -1.6390   25.6600  -29.3460 O   0  0  0  0  0  0  0  0  0  0  0  0
   -4.3060   25.0690  -30.0090 N   0  0  0  0  0  0  0  0  0  0  0  0
   -5.3710   25.1940  -30.7870 N   0  0  0  0  0  0  0  0  0  0  0  0
   -5.4180   24.0980  -31.5650 C   0  0  0  0  0  0  0  0  0  0  0  0
   -6.6530   23.7920  -32.5960 S   0  0  0  0  0  0  0  0  0  0  0  0
   -5.1170   20.9060  -31.5540 C   0  0  0  0  0  0  0  0  0  0  0  0
   -7.7257   18.6354  -31.0404 H   0  0  0  0  0  0  0  0  0  0  0  0
   -7.4260   19.5208  -32.5744 H   0  0  0  0  0  0  0  0  0  0  0  0
   -7.5079   17.7263  -32.5744 H   0  0  0  0  0  0  0  0  0  0  0  0
   -3.5631   18.3026  -33.1378 H   0  0  0  0  0  0  0  0  0  0  0  0
   -1.9093   20.1051  -33.6141 H   0  0  0  0  0  0  0  0  0  0  0  0
   -2.2941   22.4165  -32.7637 H   0  0  0  0  0  0  0  0  0  0  0  0
   -3.1468   21.3316  -29.7415 H   0  0  0  0  0  0  0  0  0  0  0  0
   -1.0790   20.4434  -28.6664 H   0  0  0  0  0  0  0  0  0  0  0  0
    0.4591   24.4676  -28.2826 H   0  0  0  0  0  0  0  0  0  0  0  0
   -6.0286   21.1346  -30.9825 H   0  0  0  0  0  0  0  0  0  0  0  0
  1  2  1  0
  2  3  1  0
  3  4  2  0
  4  5  1  0
  5  6  2  0
  6  7  1  0
  7  8  1  0
  8  9  1  0
  9 10  1  0
 10 11  2  0
 11 12  1  0
 12 13  2  0
 13 14  1  0
 13 15  1  0
 15 16  2  0
 16 17  1  0
  9 18  2  0
 18 19  1  0
 19 20  1  0
 20 21  2  0
  7 22  2  0
 22  3  1  0
 20  8  1  0
 16 10  1  0
  1 23  1  0
  1 24  1  0
  1 25  1  0
  4 26  1  0
  5 27  1  0
  6 28  1  0
 11 29  1  0
 12 30  1  0
 15 31  1  0
 22 32  1  0
M  CHG  3  14  -1  17  -1  19  -1
M  END
>  <UniqueID>  (28) 
27

>  <SMILES>  (28) 
COc1cccc(-n2c(-c3ccc([O-])cc3[O-])n[n-]c2=S)c1

>  <Energy>  (28) 
80.8931346334571

>  <Genealogy>  (28) 
COc1cccc(-n2c(-c3ccc([O-])cc3[O-])n[n-]c2=S)c1 (protonated)
COc1cccc(-n2c(-c3ccc([O-])cc3[O-])n[n-]c2=S)c1 (3D coordinates assigned)
COc1cccc(-n2c(-c3ccc([O-])cc3[O-])n[n-]c2=S)c1 (optimized conformer: 80.8931346334571 kcal/mol)

>  <smiles>  (28) 
COc1cccc(-n2c(-c3ccc(O)cc3O)n[nH]c2=S)c1

>  <score_type>  (28) 
oracle

>  <origin>  (28) 
adgpu

>  <m_score__min__energy>  (28) 
-10.710000000000001

>  <m_primary>  (28) 
energy

$$$$
28:0
     RDKit          3D

 41 43  0  0  0  0  0  0  0  0999 V2000
   -1.9940   25.2940  -27.9100 C   0  0  0  0  0  0  0  0  0  0  0  0
   -2.3980   25.2930  -29.2760 O   0  0  0  0  0  0  0  0  0  0  0  0
   -3.3570   24.4250  -29.8250 C   0  0  0  0  0  0  0  0  0  0  0  0
   -4.6380   24.8800  -30.1890 C   0  0  0  0  0  0  0  0  0  0  0  0
   -5.5850   24.0000  -30.7130 C   0  0  0  0  0  0  0  0  0  0  0  0
   -5.2800   22.6420  -30.8840 C   0  0  0  0  0  0  0  0  0  0  0  0
   -6.3000   21.7250  -31.4560 C   0  0  0  0  0  0  0  0  0  0  0  0
   -7.6560   22.0780  -31.5340 C   0  0  0  0  0  0  0  0  0  0  0  0
   -8.5540   21.1700  -32.0890 C   0  0  0  0  0  0  0  0  0  0  0  0
   -8.1130   19.9710  -32.5460 N   0  0  0  0  0  0  0  0  0  0  0  0
   -6.7970   19.6290  -32.4750 C   0  0  0  0  0  0  0  0  0  0  0  0
   -6.3470   18.3530  -32.9870 N   0  0  0  0  0  0  0  0  0  0  0  0
   -6.1060   18.2280  -34.3300 C   0  0  0  0  0  0  0  0  0  0  0  0
   -5.6600   17.0220  -34.8730 C   0  0  0  0  0  0  0  0  0  0  0  0
   -5.4700   15.9170  -34.0400 C   0  0  0  0  0  0  0  0  0  0  0  0
   -4.9520   14.6250  -34.6000 C   0  0  0  0  0  0  0  0  0  0  0  0
   -5.7040   16.0520  -32.6700 C   0  0  0  0  0  0  0  0  0  0  0  0
   -6.1540   17.2730  -32.1550 C   0  0  0  0  0  0  0  0  0  0  0  0
   -6.3910   17.3550  -30.9180 O   0  0  0  0  0  0  0  0  0  0  0  0
   -5.9100   20.5130  -31.9390 N   0  0  0  0  0  0  0  0  0  0  0  0
   -3.9960   22.1850  -30.5390 C   0  0  0  0  0  0  0  0  0  0  0  0
   -3.0330   23.0610  -30.0040 C   0  0  0  0  0  0  0  0  0  0  0  0
   -1.6840   22.5460  -29.6580 C   0  0  0  0  0  0  0  0  0  0  0  0
   -0.5370   23.4010  -29.6910 N   0  0  0  0  0  0  0  0  0  0  0  0
   -1.5350   21.3390  -29.3280 O   0  0  0  0  0  0  0  0  0  0  0  0
   -2.8845   25.2918  -27.2643 H   0  0  0  0  0  0  0  0  0  0  0  0
   -1.3905   24.3973  -27.7055 H   0  0  0  0  0  0  0  0  0  0  0  0
   -1.3950   26.1936  -27.7055 H   0  0  0  0  0  0  0  0  0  0  0  0
   -4.8954   25.9415  -30.0588 H   0  0  0  0  0  0  0  0  0  0  0  0
   -6.5801   24.3747  -30.9946 H   0  0  0  0  0  0  0  0  0  0  0  0
   -8.0030   23.0539  -31.1636 H   0  0  0  0  0  0  0  0  0  0  0  0
   -9.6219   21.4250  -32.1570 H   0  0  0  0  0  0  0  0  0  0  0  0
   -6.2667   19.0923  -34.9912 H   0  0  0  0  0  0  0  0  0  0  0  0
   -5.4591   16.9422  -35.9516 H   0  0  0  0  0  0  0  0  0  0  0  0
   -4.6814   13.9500  -33.7747 H   0  0  0  0  0  0  0  0  0  0  0  0
   -5.7311   14.1547  -35.2179 H   0  0  0  0  0  0  0  0  0  0  0  0
   -4.0638   14.8231  -35.2179 H   0  0  0  0  0  0  0  0  0  0  0  0
   -5.5348   15.1993  -31.9961 H   0  0  0  0  0  0  0  0  0  0  0  0
   -3.7399   21.1259  -30.6896 H   0  0  0  0  0  0  0  0  0  0  0  0
    0.3950   23.0350  -29.3960 H   0  0  0  0  0  0  0  0  0  0  0  0
   -0.5910   24.3700  -30.0750 H   0  0  0  0  0  0  0  0  0  0  0  0
  1  2  1  0
  2  3  1  0
  3  4  2  0
  4  5  1  0
  5  6  2  0
  6  7  1  0
  7  8  2  0
  8  9  1  0
  9 10  2  0
 10 11  1  0
 11 12  1  0
 12 13  1  0
 13 14  2  0
 14 15  1  0
 15 16  1  0
 15 17  2  0
 17 18  1  0
 18 19  2  0
 11 20  2  0
  6 21  1  0
 21 22  2  0
 22 23  1  0
 23 24  1  0
 23 25  2  0
 22  3  1  0
 20  7  1  0
 18 12  1  0
  1 26  1  0
  1 27  1  0
  1 28  1  0
  4 29  1  0
  5 30  1  0
  8 31  1  0
  9 32  1  0
 13 33  1  0
 14 34  1  0
 16 35  1  0
 16 36  1  0
 16 37  1  0
 17 38  1  0
 21 39  1  0
 24 40  1  0
 24 41  1  0
M  END
>  <UniqueID>  (29) 
28

>  <SMILES>  (29) 
COc1ccc(-c2ccnc(-n3ccc(C)cc3=O)n2)cc1C(N)=O

>  <Energy>  (29) 
56.53155059215177

>  <Genealogy>  (29) 
COc1ccc(-c2ccnc(-n3ccc(C)cc3=O)n2)cc1C(N)=O (3D coordinates assigned)
COc1ccc(-c2ccnc(-n3ccc(C)cc3=O)n2)cc1C(N)=O (optimized conformer: 56.53155059215177 kcal/mol)

>  <smiles>  (29) 
COc1ccc(-c2ccnc(-n3ccc(C)cc3=O)n2)cc1C(N)=O

>  <score_type>  (29) 
oracle

>  <origin>  (29) 
adgpu

>  <m_score__min__energy>  (29) 
-8.6300000000000008

>  <m_primary>  (29) 
energy

$$$$
29:0
     RDKit          3D

 56 59  0  0  0  0  0  0  0  0999 V2000
   -2.7190   20.3990  -27.7660 O   0  0  0  0  0  0  0  0  0  0  0  0
   -2.1480   20.8400  -28.7930 C   0  0  0  0  0  0  0  0  0  0  0  0
   -1.6990   19.9080  -29.7820 N   0  0  0  0  0  0  0  0  0  0  0  0
   -0.3730   19.9190  -30.3910 C   0  0  0  0  0  0  0  0  0  0  0  0
    0.2510   18.5260  -30.2760 C   0  0  0  0  0  0  0  0  0  0  0  0
    1.5270   18.3890  -31.1200 C   0  0  0  0  0  0  0  0  0  0  0  0
    1.1990   17.7270  -32.7950 S   0  0  0  0  0  0  0  0  0  0  0  0
    0.3070   19.1680  -33.3690 C   0  0  0  0  0  0  0  0  0  0  0  0
   -1.0130   19.3080  -33.0870 N   0  0  0  0  0  0  0  0  0  0  0  0
   -1.6930   20.4030  -33.5160 C   0  0  0  0  0  0  0  0  0  0  0  0
   -3.1370   20.5610  -33.2160 C   0  0  0  0  0  0  0  0  0  0  0  0
   -4.0380   19.5150  -33.4830 C   0  0  0  0  0  0  0  0  0  0  0  0
   -5.3990   19.6580  -33.1950 C   0  0  0  0  0  0  0  0  0  0  0  0
   -5.8780   20.8500  -32.6490 C   0  0  0  0  0  0  0  0  0  0  0  0
   -7.5870   21.0250  -32.2920 Cl  0  0  0  0  0  0  0  0  0  0  0  0
   -4.9930   21.8990  -32.3860 C   0  0  0  0  0  0  0  0  0  0  0  0
   -3.6290   21.7550  -32.6610 C   0  0  0  0  0  0  0  0  0  0  0  0
   -1.0340   21.3600  -34.2200 N   0  0  0  0  0  0  0  0  0  0  0  0
    0.2900   21.2310  -34.5040 C   0  0  0  0  0  0  0  0  0  0  0  0
    0.9900   22.2800  -35.2050 N   0  0  0  0  0  0  0  0  0  0  0  0
    2.4120   22.0910  -35.5200 C   0  0  0  0  0  0  0  0  0  0  0  0
    3.0710   23.4080  -35.9330 C   0  0  0  0  0  0  0  0  0  0  0  0
    2.3010   24.0720  -36.9110 O   0  0  0  0  0  0  0  0  0  0  0  0
    1.0800   24.4870  -36.3350 C   0  0  0  0  0  0  0  0  0  0  0  0
    0.2140   23.2790  -35.9550 C   0  0  0  0  0  0  0  0  0  0  0  0
    0.9530   20.1230  -34.0820 N   0  0  0  0  0  0  0  0  0  0  0  0
   -1.9190   22.2900  -28.9130 C   0  0  0  0  0  0  0  0  0  0  0  0
   -2.8620   23.1170  -29.5430 C   0  0  0  0  0  0  0  0  0  0  0  0
   -2.6260   24.4890  -29.6600 C   0  0  0  0  0  0  0  0  0  0  0  0
   -3.5530   25.2910  -30.3040 O   0  0  0  0  0  0  0  0  0  0  0  0
   -1.4570   25.0500  -29.1320 C   0  0  0  0  0  0  0  0  0  0  0  0
   -1.2220   26.4150  -29.2670 O   0  0  0  0  0  0  0  0  0  0  0  0
   -0.5250   24.2330  -28.4710 C   0  0  0  0  0  0  0  0  0  0  0  0
    0.6420   24.7660  -27.9260 O   0  0  0  0  0  0  0  0  0  0  0  0
   -0.7640   22.8600  -28.3590 C   0  0  0  0  0  0  0  0  0  0  0  0
   -0.4588   20.1962  -31.4520 H   0  0  0  0  0  0  0  0  0  0  0  0
    0.2636   20.6507  -29.8720 H   0  0  0  0  0  0  0  0  0  0  0  0
    0.5017   18.3363  -29.2219 H   0  0  0  0  0  0  0  0  0  0  0  0
   -0.4816   17.7964  -30.6515 H   0  0  0  0  0  0  0  0  0  0  0  0
    1.9918   19.3811  -31.2186 H   0  0  0  0  0  0  0  0  0  0  0  0
    2.1904   17.6780  -30.6059 H   0  0  0  0  0  0  0  0  0  0  0  0
   -3.6692   18.5763  -33.9221 H   0  0  0  0  0  0  0  0  0  0  0  0
   -6.0933   18.8296  -33.3991 H   0  0  0  0  0  0  0  0  0  0  0  0
   -5.3702   22.8410  -31.9614 H   0  0  0  0  0  0  0  0  0  0  0  0
   -2.9370   22.5814  -32.4415 H   0  0  0  0  0  0  0  0  0  0  0  0
    2.9263   21.6966  -34.6312 H   0  0  0  0  0  0  0  0  0  0  0  0
    2.4900   21.3858  -36.3606 H   0  0  0  0  0  0  0  0  0  0  0  0
    3.1663   24.0556  -35.0490 H   0  0  0  0  0  0  0  0  0  0  0  0
    4.0619   23.1872  -36.3565 H   0  0  0  0  0  0  0  0  0  0  0  0
    1.2907   25.0774  -35.4311 H   0  0  0  0  0  0  0  0  0  0  0  0
    0.5326   25.0933  -37.0717 H   0  0  0  0  0  0  0  0  0  0  0  0
   -0.6256   23.6217  -35.3324 H   0  0  0  0  0  0  0  0  0  0  0  0
   -0.1533   22.8104  -36.8800 H   0  0  0  0  0  0  0  0  0  0  0  0
   -3.7894   22.6837  -29.9457 H   0  0  0  0  0  0  0  0  0  0  0  0
    1.0130   25.6620  -28.2160 H   0  0  0  0  0  0  0  0  0  0  0  0
   -0.0398   22.2216  -27.8318 H   0  0  0  0  0  0  0  0  0  0  0  0
  1  2  2  0
  2  3  1  0
  3  4  1  0
  4  5  1  0
  5  6  1  0
  6  7  1  0
  7  8  1  0
  8  9  2  0
  9 10  1  0
 10 11  1  0
 11 12  2  0
 12 13  1  0
 13 14  2  0
 14 15  1  0
 14 16  1  0
 16 17  2  0
 10 18  2  0
 18 19  1  0
 19 20  1  0
 20 21  1  0
 21 22  1  0
 22 23  1  0
 23 24  1  0
 24 25  1  0
 19 26  2  0
  2 27  1  0
 27 28  2  0
 28 29  1  0
 29 30  1  0
 29 31  2  0
 31 32  1  0
 31 33  1  0
 33 34  1  0
 33 35  2  0
 26  8  1  0
 35 27  1  0
 17 11  1  0
 25 20  1  0
  4 36  1  0
  4 37  1  0
  5 38  1  0
  5 39  1  0
  6 40  1  0
  6 41  1  0
 12 42  1  0
 13 43  1  0
 16 44  1  0
 17 45  1  0
 21 46  1  0
 21 47  1  0
 22 48  1  0
 22 49  1  0
 24 50  1  0
 24 51  1  0
 25 52  1  0
 25 53  1  0
 28 54  1  0
 34 55  1  0
 35 56  1  0
M  CHG  3   3  -1  30  -1  32  -1
M  END
>  <UniqueID>  (30) 
29

>  <SMILES>  (30) 
O=C([N-]CCCSc1nc(-c2ccc(Cl)cc2)nc(N2CCOCC2)n1)c1cc([O-])c([O-])c(O)c1

>  <Energy>  (30) 
60.220360471516756

>  <Genealogy>  (30) 
O=C([N-]CCCSc1nc(-c2ccc(Cl)cc2)nc(N2CCOCC2)n1)c1cc([O-])c([O-])c(O)c1 (protonated)
O=C([N-]CCCSc1nc(-c2ccc(Cl)cc2)nc(N2CCOCC2)n1)c1cc([O-])c([O-])c(O)c1 (3D coordinates assigned)
O=C([N-]CCCSc1nc(-c2ccc(Cl)cc2)nc(N2CCOCC2)n1)c1cc([O-])c([O-])c(O)c1 (nonaromatic ring conformer: 60.220360471516756 kcal/mol)

>  <smiles>  (30) 
O=C(NCCCSc1nc(-c2ccc(Cl)cc2)nc(N2CCOCC2)n1)c1cc(O)c(O)c(O)c1

>  <score_type>  (30) 
oracle

>  <origin>  (30) 
adgpu

>  <m_score__min__energy>  (30) 
-14.41

>  <m_primary>  (30) 
energy

$$$$
30:0
     RDKit          3D

 40 42  0  0  0  0  0  0  0  0999 V2000
   -2.6992   21.3779  -31.8718 H   0  0  0  0  0  0  0  0  0  0  0  0
   -3.3190   22.2240  -31.5400 C   0  0  0  0  0  0  0  0  0  0  0  0
   -2.8480   23.0740  -30.5910 N   0  0  0  0  0  0  0  0  0  0  0  0
   -3.5740   24.1370  -30.1470 C   0  0  0  0  0  0  0  0  0  0  0  0
   -3.1150   24.9280  -29.2200 N   0  0  0  0  0  0  0  0  0  0  0  0
   -1.8120   24.8860  -28.6140 C   0  0  0  0  0  0  0  0  0  0  0  0
   -1.1970   26.0360  -28.0880 C   0  0  0  0  0  0  0  0  0  0  0  0
   -1.7043   27.0095  -28.1586 H   0  0  0  0  0  0  0  0  0  0  0  0
    0.0560   25.9470  -27.4760 C   0  0  0  0  0  0  0  0  0  0  0  0
    0.5396   26.8528  -27.0815 H   0  0  0  0  0  0  0  0  0  0  0  0
    0.6960   24.7100  -27.3640 C   0  0  0  0  0  0  0  0  0  0  0  0
    1.6867   24.6459  -26.8903 H   0  0  0  0  0  0  0  0  0  0  0  0
    0.0760   23.5450  -27.8560 C   0  0  0  0  0  0  0  0  0  0  0  0
    0.6710   22.2780  -27.7550 O   0  0  0  0  0  0  0  0  0  0  0  0
   -0.0190   21.0490  -27.9570 C   0  0  0  0  0  0  0  0  0  0  0  0
   -0.2687   20.6042  -26.9824 H   0  0  0  0  0  0  0  0  0  0  0  0
   -0.9438   21.2363  -28.5223 H   0  0  0  0  0  0  0  0  0  0  0  0
    0.6225   20.3570  -28.5223 H   0  0  0  0  0  0  0  0  0  0  0  0
   -1.1790   23.6450  -28.4680 C   0  0  0  0  0  0  0  0  0  0  0  0
   -1.6751   22.7362  -28.8395 H   0  0  0  0  0  0  0  0  0  0  0  0
   -4.8560   24.3560  -30.6600 C   0  0  0  0  0  0  0  0  0  0  0  0
   -5.4596   25.1981  -30.2905 H   0  0  0  0  0  0  0  0  0  0  0  0
   -5.3730   23.5020  -31.6460 C   0  0  0  0  0  0  0  0  0  0  0  0
   -6.7520   23.7510  -32.1930 C   0  0  0  0  0  0  0  0  0  0  0  0
   -7.4592   23.8787  -31.3602 H   0  0  0  0  0  0  0  0  0  0  0  0
   -6.7430   24.6620  -32.8094 H   0  0  0  0  0  0  0  0  0  0  0  0
   -7.0622   22.8943  -32.8094 H   0  0  0  0  0  0  0  0  0  0  0  0
   -4.5910   22.4180  -32.1000 C   0  0  0  0  0  0  0  0  0  0  0  0
   -5.1060   21.4920  -33.0760 N   0  0  0  0  0  0  0  0  0  0  0  0
   -4.9760   21.7300  -34.0820 H   0  0  0  0  0  0  0  0  0  0  0  0
   -5.6980   20.2280  -32.7180 C   0  0  0  0  0  0  0  0  0  0  0  0
   -5.5310   19.7690  -31.5560 O   0  0  0  0  0  0  0  0  0  0  0  0
   -6.5010   19.3940  -33.6910 C   0  0  0  0  0  0  0  0  0  0  0  0
   -7.2269   20.1958  -33.8913 H   0  0  0  0  0  0  0  0  0  0  0  0
   -6.5820   17.9050  -33.3900 C   0  0  0  0  0  0  0  0  0  0  0  0
   -6.0904   17.4972  -32.4944 H   0  0  0  0  0  0  0  0  0  0  0  0
   -7.3993   17.1782  -33.2720 H   0  0  0  0  0  0  0  0  0  0  0  0
   -5.7420   18.4030  -34.5610 C   0  0  0  0  0  0  0  0  0  0  0  0
   -4.6442   18.3547  -34.5105 H   0  0  0  0  0  0  0  0  0  0  0  0
   -5.7017   18.1847  -35.6384 H   0  0  0  0  0  0  0  0  0  0  0  0
  1  2  1  0
  2  3  1  0
  3  4  1  0
  4  5  2  0
  5  6  1  0
  6  7  2  0
  7  8  1  0
  7  9  1  0
  9 10  1  0
  9 11  2  0
 11 12  1  0
 11 13  1  0
 13 14  1  0
 14 15  1  0
 15 16  1  0
 15 17  1  0
 15 18  1  0
 13 19  2  0
 19 20  1  0
  4 21  1  0
 21 22  1  0
 21 23  2  0
 23 24  1  0
 24 25  1  0
 24 26  1  0
 24 27  1  0
 23 28  1  0
 28 29  1  0
 29 30  1  0
 29 31  1  0
 31 32  2  0
 31 33  1  0
 33 34  1  0
 33 35  1  0
 35 36  1  0
 35 37  1  0
 35 38  1  0
 38 39  1  0
 38 40  1  0
 28  2  2  0
 38 33  1  0
 19  6  1  0
M  CHG  1   3  -1
M  END
>  <UniqueID>  (31) 
30

>  <SMILES>  (31) 
COc1cccc(/N=c2/cc(C)c(NC(=O)C3CC3)c[n-]2)c1

>  <Energy>  (31) 
317.618561557311

>  <Genealogy>  (31) 
COc1cccc(N=c2cc(C)c(NC(=O)C3CC3)c[n-]2)c1 (protonated)
COc1cccc(/N=c2/cc(C)c(NC(=O)C3CC3)c[n-]2)c1 (cis-trans isomerization)
COc1cccc(/N=c2/cc(C)c(NC(=O)C3CC3)c[n-]2)c1 (3D coordinates assigned)
COc1cccc(/N=c2/cc(C)c(NC(=O)C3CC3)c[n-]2)c1 (nonaromatic ring conformer: 317.618561557311 kcal/mol)

>  <smiles>  (31) 
COc1cccc(N=c2cc(C)c(NC(=O)C3CC3)c[nH]2)c1

>  <score_type>  (31) 
oracle

>  <origin>  (31) 
adgpu

>  <m_score__min__energy>  (31) 
-7.8799999999999999

>  <m_primary>  (31) 
energy

$$$$
31:0
     RDKit          3D

 28 29  0  0  0  0  0  0  0  0999 V2000
   -1.9740   24.9410  -28.1940 C   0  0  0  0  0  0  0  0  0  0  0  0
   -2.7340   25.2960  -29.3440 O   0  0  0  0  0  0  0  0  0  0  0  0
   -3.7960   24.5360  -29.8570 C   0  0  0  0  0  0  0  0  0  0  0  0
   -4.9190   25.1240  -30.4710 C   0  0  0  0  0  0  0  0  0  0  0  0
   -5.9510   24.3230  -30.9680 C   0  0  0  0  0  0  0  0  0  0  0  0
   -5.8740   22.9260  -30.8690 C   0  0  0  0  0  0  0  0  0  0  0  0
   -6.9790   22.0820  -31.3760 C   0  0  0  0  0  0  0  0  0  0  0  0
   -8.2770   22.3170  -30.8880 C   0  0  0  0  0  0  0  0  0  0  0  0
   -9.3470   21.5230  -31.3000 C   0  0  0  0  0  0  0  0  0  0  0  0
   -9.1390   20.4850  -32.2060 C   0  0  0  0  0  0  0  0  0  0  0  0
   -7.8610   20.2440  -32.7130 C   0  0  0  0  0  0  0  0  0  0  0  0
   -6.7680   21.0380  -32.3170 C   0  0  0  0  0  0  0  0  0  0  0  0
   -5.4370   20.7990  -32.9240 C   0  0  0  0  0  0  0  0  0  0  0  0
   -5.2740   19.9060  -33.7980 O   0  0  0  0  0  0  0  0  0  0  0  0
   -4.7620   22.3410  -30.2460 C   0  0  0  0  0  0  0  0  0  0  0  0
   -3.7290   23.1420  -29.7490 C   0  0  0  0  0  0  0  0  0  0  0  0
   -2.5374   25.2042  -27.2866 H   0  0  0  0  0  0  0  0  0  0  0  0
   -1.7788   23.8585  -28.2033 H   0  0  0  0  0  0  0  0  0  0  0  0
   -1.0185   25.4860  -28.2033 H   0  0  0  0  0  0  0  0  0  0  0  0
   -4.9841   26.2185  -30.5598 H   0  0  0  0  0  0  0  0  0  0  0  0
   -6.8281   24.7906  -31.4392 H   0  0  0  0  0  0  0  0  0  0  0  0
   -8.4500   23.1356  -30.1739 H   0  0  0  0  0  0  0  0  0  0  0  0
  -10.3568   21.7165  -30.9091 H   0  0  0  0  0  0  0  0  0  0  0  0
   -9.9832   19.8546  -32.5222 H   0  0  0  0  0  0  0  0  0  0  0  0
   -7.7061   19.4244  -33.4301 H   0  0  0  0  0  0  0  0  0  0  0  0
   -4.5791   21.4101  -32.6069 H   0  0  0  0  0  0  0  0  0  0  0  0
   -4.7021   21.2470  -30.1478 H   0  0  0  0  0  0  0  0  0  0  0  0
   -2.8571   22.6730  -29.2695 H   0  0  0  0  0  0  0  0  0  0  0  0
  1  2  1  0
  2  3  1  0
  3  4  2  0
  4  5  1  0
  5  6  2  0
  6  7  1  0
  7  8  2  0
  8  9  1  0
  9 10  2  0
 10 11  1  0
 11 12  2  0
 12 13  1  0
 13 14  2  0
  6 15  1  0
 15 16  2  0
 16  3  1  0
 12  7  1  0
  1 17  1  0
  1 18  1  0
  1 19  1  0
  4 20  1  0
  5 21  1  0
  8 22  1  0
  9 23  1  0
 10 24  1  0
 11 25  1  0
 13 26  1  0
 15 27  1  0
 16 28  1  0
M  END
>  <UniqueID>  (32) 
31

>  <SMILES>  (32) 
COc1ccc(-c2ccccc2C=O)cc1

>  <Energy>  (32) 
36.75692314571455

>  <Genealogy>  (32) 
COc1ccc(-c2ccccc2C=O)cc1 (3D coordinates assigned)
COc1ccc(-c2ccccc2C=O)cc1 (optimized conformer: 36.75692314571455 kcal/mol)

>  <smiles>  (32) 
COc1ccc(-c2ccccc2C=O)cc1

>  <score_type>  (32) 
oracle

>  <origin>  (32) 
adgpu

>  <m_score__min__energy>  (32) 
-7.0700000000000003

>  <m_primary>  (32) 
energy

$$$$
32:0
     RDKit          3D

 44 47  0  0  0  0  0  0  0  0999 V2000
   -7.6200   23.4770  -31.4540 C   0  0  0  0  0  0  0  0  0  0  0  0
   -6.9190   24.4480  -30.6870 O   0  0  0  0  0  0  0  0  0  0  0  0
   -5.5410   24.3750  -30.4810 C   0  0  0  0  0  0  0  0  0  0  0  0
   -4.8880   23.3280  -29.8710 C   0  0  0  0  0  0  0  0  0  0  0  0
   -3.5650   23.7260  -29.9010 C   0  0  0  0  0  0  0  0  0  0  0  0
   -2.4060   22.9860  -29.3590 C   0  0  0  0  0  0  0  0  0  0  0  0
   -2.2040   22.9500  -27.9680 C   0  0  0  0  0  0  0  0  0  0  0  0
   -1.0500   22.3710  -27.4330 C   0  0  0  0  0  0  0  0  0  0  0  0
   -0.8050   22.3470  -25.6960 Cl  0  0  0  0  0  0  0  0  0  0  0  0
   -0.0810   21.8320  -28.2810 C   0  0  0  0  0  0  0  0  0  0  0  0
   -0.2770   21.8440  -29.6630 C   0  0  0  0  0  0  0  0  0  0  0  0
   -1.4480   22.3810  -30.2120 C   0  0  0  0  0  0  0  0  0  0  0  0
   -1.6310   22.2800  -31.5990 O   0  0  0  0  0  0  0  0  0  0  0  0
   -2.4020   21.2930  -32.2340 C   0  0  0  0  0  0  0  0  0  0  0  0
   -3.7070   21.0790  -31.7710 C   0  0  0  0  0  0  0  0  0  0  0  0
   -4.4970   20.0630  -32.3130 C   0  0  0  0  0  0  0  0  0  0  0  0
   -4.0050   19.2700  -33.3550 C   0  0  0  0  0  0  0  0  0  0  0  0
   -4.9950   17.9700  -34.0110 S   0  0  0  0  0  0  0  0  0  0  0  0
   -5.5220   18.3900  -35.3540 O   0  0  0  0  0  0  0  0  0  0  0  0
   -4.1790   16.7200  -34.1940 O   0  0  0  0  0  0  0  0  0  0  0  0
   -6.3320   17.6430  -32.9550 N   0  0  0  0  0  0  0  0  0  0  0  0
   -7.2670   18.4960  -32.6620 C   0  0  0  0  0  0  0  0  0  0  0  0
   -8.2770   18.2060  -31.8170 N   0  0  0  0  0  0  0  0  0  0  0  0
   -9.1290   19.2520  -31.6500 C   0  0  0  0  0  0  0  0  0  0  0  0
   -8.8000   20.3930  -32.3760 C   0  0  0  0  0  0  0  0  0  0  0  0
   -7.3930   20.0730  -33.2440 S   0  0  0  0  0  0  0  0  0  0  0  0
   -2.7230   19.5150  -33.8630 C   0  0  0  0  0  0  0  0  0  0  0  0
   -1.9190   20.5210  -33.3170 C   0  0  0  0  0  0  0  0  0  0  0  0
   -0.3570   20.8200  -34.0700 Cl  0  0  0  0  0  0  0  0  0  0  0  0
   -3.4890   24.9030  -30.4780 O   0  0  0  0  0  0  0  0  0  0  0  0
   -4.6630   25.3280  -30.8450 N   0  0  0  0  0  0  0  0  0  0  0  0
   -8.1281   22.7732  -30.7784 H   0  0  0  0  0  0  0  0  0  0  0  0
   -8.3652   23.9791  -32.0884 H   0  0  0  0  0  0  0  0  0  0  0  0
   -6.9088   22.9277  -32.0884 H   0  0  0  0  0  0  0  0  0  0  0  0
   -5.3149   22.4012  -29.4601 H   0  0  0  0  0  0  0  0  0  0  0  0
   -2.9603   23.3810  -27.2955 H   0  0  0  0  0  0  0  0  0  0  0  0
    0.8376   21.3975  -27.8599 H   0  0  0  0  0  0  0  0  0  0  0  0
    0.4952   21.4279  -30.3267 H   0  0  0  0  0  0  0  0  0  0  0  0
   -4.1132   21.7176  -30.9727 H   0  0  0  0  0  0  0  0  0  0  0  0
   -5.5088   19.8858  -31.9195 H   0  0  0  0  0  0  0  0  0  0  0  0
   -8.3960   17.2840  -31.3410 H   0  0  0  0  0  0  0  0  0  0  0  0
  -10.0095   19.2007  -30.9926 H   0  0  0  0  0  0  0  0  0  0  0  0
   -9.3613   21.3390  -32.3818 H   0  0  0  0  0  0  0  0  0  0  0  0
   -2.3445   18.9100  -34.7001 H   0  0  0  0  0  0  0  0  0  0  0  0
  1  2  1  0
  2  3  1  0
  3  4  1  0
  4  5  2  0
  5  6  1  0
  6  7  2  0
  7  8  1  0
  8  9  1  0
  8 10  2  0
 10 11  1  0
 11 12  2  0
 12 13  1  0
 13 14  1  0
 14 15  2  0
 15 16  1  0
 16 17  2  0
 17 18  1  0
 18 19  2  0
 18 20  2  0
 18 21  1  0
 21 22  2  3
 22 23  1  0
 23 24  1  0
 24 25  2  0
 25 26  1  0
 17 27  1  0
 27 28  2  0
 28 29  1  0
  5 30  1  0
 30 31  1  0
 31  3  2  0
 12  6  1  0
 28 14  1  0
 26 22  1  0
  1 32  1  0
  1 33  1  0
  1 34  1  0
  4 35  1  0
  7 36  1  0
 10 37  1  0
 11 38  1  0
 15 39  1  0
 16 40  1  0
 23 41  1  0
 24 42  1  0
 25 43  1  0
 27 44  1  0
M  END
>  <UniqueID>  (33) 
32

>  <SMILES>  (33) 
COc1cc(-c2cc(Cl)ccc2Oc2ccc(S(=O)(=O)N=c3[nH]ccs3)cc2Cl)on1

>  <Energy>  (33) 
120.80574322453216

>  <Genealogy>  (33) 
COc1cc(-c2cc(Cl)ccc2Oc2ccc(S(=O)(=O)N=c3[nH]ccs3)cc2Cl)on1 (3D coordinates assigned)
COc1cc(-c2cc(Cl)ccc2Oc2ccc(S(=O)(=O)N=c3[nH]ccs3)cc2Cl)on1 (optimized conformer: 120.80574322453216 kcal/mol)

>  <smiles>  (33) 
COc1cc(-c2cc(Cl)ccc2Oc2ccc(S(=O)(=O)N=c3[nH]ccs3)cc2Cl)on1

>  <score_type>  (33) 
oracle

>  <origin>  (33) 
adgpu

>  <m_score__min__energy>  (33) 
-10.17

>  <m_primary>  (33) 
energy

$$$$
33:0
     RDKit          3D

 54 57  0  0  0  0  0  0  0  0999 V2000
   -6.5970   25.6860  -29.4200 C   0  0  0  0  0  0  0  0  0  0  0  0
   -5.9780   25.2720  -30.6330 O   0  0  0  0  0  0  0  0  0  0  0  0
   -5.7290   23.9360  -30.9830 C   0  0  0  0  0  0  0  0  0  0  0  0
   -6.7610   23.0660  -31.3910 C   0  0  0  0  0  0  0  0  0  0  0  0
   -6.4700   21.7510  -31.7600 C   0  0  0  0  0  0  0  0  0  0  0  0
   -5.1520   21.2920  -31.7350 C   0  0  0  0  0  0  0  0  0  0  0  0
   -4.1210   22.1450  -31.3350 C   0  0  0  0  0  0  0  0  0  0  0  0
   -4.4070   23.4590  -30.9410 C   0  0  0  0  0  0  0  0  0  0  0  0
   -3.3400   24.3050  -30.5120 N   0  0  0  0  0  0  0  0  0  0  0  0
   -2.8670   24.3990  -28.8480 S   0  0  0  0  0  0  0  0  0  0  0  0
   -1.9230   25.5560  -28.6810 O   0  0  0  0  0  0  0  0  0  0  0  0
   -4.0670   24.6290  -27.9730 O   0  0  0  0  0  0  0  0  0  0  0  0
   -2.0800   22.8940  -28.3880 C   0  0  0  0  0  0  0  0  0  0  0  0
   -0.6830   22.8310  -28.3490 C   0  0  0  0  0  0  0  0  0  0  0  0
   -0.0400   21.6590  -27.9390 C   0  0  0  0  0  0  0  0  0  0  0  0
   -0.7920   20.5310  -27.5700 C   0  0  0  0  0  0  0  0  0  0  0  0
   -0.1720   19.3180  -27.1260 N   0  0  0  0  0  0  0  0  0  0  0  0
    0.9150   18.3520  -28.0720 S   0  0  0  0  0  0  0  0  0  0  0  0
    0.5040   16.9060  -28.0370 O   0  0  0  0  0  0  0  0  0  0  0  0
    2.2940   18.4590  -27.4860 O   0  0  0  0  0  0  0  0  0  0  0  0
    0.9450   18.9620  -29.7250 C   0  0  0  0  0  0  0  0  0  0  0  0
    2.1290   18.9030  -30.4650 C   0  0  0  0  0  0  0  0  0  0  0  0
    2.1720   19.4120  -31.7620 C   0  0  0  0  0  0  0  0  0  0  0  0
    1.0440   20.0100  -32.3400 C   0  0  0  0  0  0  0  0  0  0  0  0
   -0.1560   20.0860  -31.5930 C   0  0  0  0  0  0  0  0  0  0  0  0
   -0.1930   19.5470  -30.2920 C   0  0  0  0  0  0  0  0  0  0  0  0
   -1.3870   20.7590  -32.1340 C   0  0  0  0  0  0  0  0  0  0  0  0
   -1.8260   20.0850  -33.4390 C   0  0  0  0  0  0  0  0  0  0  0  0
   -1.2330   20.7730  -34.6640 C   0  0  0  0  0  0  0  0  0  0  0  0
    0.2420   21.0730  -34.6050 C   0  0  0  0  0  0  0  0  0  0  0  0
    0.6700   22.0070  -35.3330 O   0  0  0  0  0  0  0  0  0  0  0  0
    1.1690   20.4510  -33.7030 N   0  0  0  0  0  0  0  0  0  0  0  0
   -2.1890   20.5840  -27.6480 C   0  0  0  0  0  0  0  0  0  0  0  0
   -2.8320   21.7610  -28.0450 C   0  0  0  0  0  0  0  0  0  0  0  0
   -6.0218   25.3013  -28.5649 H   0  0  0  0  0  0  0  0  0  0  0  0
   -6.6245   26.7849  -29.3788 H   0  0  0  0  0  0  0  0  0  0  0  0
   -7.6231   25.2918  -29.3788 H   0  0  0  0  0  0  0  0  0  0  0  0
   -7.8004   23.4249  -31.4187 H   0  0  0  0  0  0  0  0  0  0  0  0
   -7.2808   21.0757  -32.0709 H   0  0  0  0  0  0  0  0  0  0  0  0
   -4.9251   20.2571  -32.0307 H   0  0  0  0  0  0  0  0  0  0  0  0
   -3.0818   21.7844  -31.3292 H   0  0  0  0  0  0  0  0  0  0  0  0
   -0.0873   23.7080  -28.6424 H   0  0  0  0  0  0  0  0  0  0  0  0
    1.0588   21.6200  -27.9052 H   0  0  0  0  0  0  0  0  0  0  0  0
    3.0301   18.4534  -30.0225 H   0  0  0  0  0  0  0  0  0  0  0  0
    3.1051   19.3433  -32.3404 H   0  0  0  0  0  0  0  0  0  0  0  0
   -1.1283   19.5864  -29.7144 H   0  0  0  0  0  0  0  0  0  0  0  0
   -2.1979   20.6829  -31.3946 H   0  0  0  0  0  0  0  0  0  0  0  0
   -1.1605   21.8167  -32.3338 H   0  0  0  0  0  0  0  0  0  0  0  0
   -1.4953   19.0360  -33.4258 H   0  0  0  0  0  0  0  0  0  0  0  0
   -2.9217   20.1556  -33.5064 H   0  0  0  0  0  0  0  0  0  0  0  0
   -1.4094   20.1226  -35.5334 H   0  0  0  0  0  0  0  0  0  0  0  0
   -1.7319   21.7515  -34.7245 H   0  0  0  0  0  0  0  0  0  0  0  0
   -2.7846   19.6943  -27.3955 H   0  0  0  0  0  0  0  0  0  0  0  0
   -3.9305   21.7981  -28.0883 H   0  0  0  0  0  0  0  0  0  0  0  0
  1  2  1  0
  2  3  1  0
  3  4  2  0
  4  5  1  0
  5  6  2  0
  6  7  1  0
  7  8  2  0
  8  9  1  0
  9 10  1  0
 10 11  2  0
 10 12  2  0
 10 13  1  0
 13 14  2  0
 14 15  1  0
 15 16  2  0
 16 17  1  0
 17 18  1  0
 18 19  2  0
 18 20  2  0
 18 21  1  0
 21 22  2  0
 22 23  1  0
 23 24  2  0
 24 25  1  0
 25 26  2  0
 25 27  1  0
 27 28  1  0
 28 29  1  0
 29 30  1  0
 30 31  2  0
 30 32  1  0
 16 33  1  0
 33 34  2  0
  8  3  1  0
 34 13  1  0
 26 21  1  0
 32 24  1  0
  1 35  1  0
  1 36  1  0
  1 37  1  0
  4 38  1  0
  5 39  1  0
  6 40  1  0
  7 41  1  0
 14 42  1  0
 15 43  1  0
 22 44  1  0
 23 45  1  0
 26 46  1  0
 27 47  1  0
 27 48  1  0
 28 49  1  0
 28 50  1  0
 29 51  1  0
 29 52  1  0
 33 53  1  0
 34 54  1  0
M  CHG  3   9  -1  17  -1  32  -1
M  END
>  <UniqueID>  (34) 
33

>  <SMILES>  (34) 
COc1ccccc1[N-]S(=O)(=O)c1ccc([N-]S(=O)(=O)c2ccc3c(c2)CCCC(=O)[N-]3)cc1

>  <Energy>  (34) 
79.90217765366103

>  <Genealogy>  (34) 
COc1ccccc1[N-]S(=O)(=O)c1ccc([N-]S(=O)(=O)c2ccc3c(c2)CCCC(=O)[N-]3)cc1 (protonated)
COc1ccccc1[N-]S(=O)(=O)c1ccc([N-]S(=O)(=O)c2ccc3c(c2)CCCC(=O)[N-]3)cc1 (3D coordinates assigned)
COc1ccccc1[N-]S(=O)(=O)c1ccc([N-]S(=O)(=O)c2ccc3c(c2)CCCC(=O)[N-]3)cc1 (nonaromatic ring conformer: 79.90217765366103 kcal/mol)

>  <smiles>  (34) 
COc1ccccc1NS(=O)(=O)c1ccc(NS(=O)(=O)c2ccc3c(c2)CCCC(=O)N3)cc1

>  <score_type>  (34) 
oracle

>  <origin>  (34) 
adgpu

>  <m_score__min__energy>  (34) 
-9.4900000000000002

>  <m_primary>  (34) 
energy

$$$$
34:0
     RDKit          3D

 47 49  0  0  0  0  0  0  0  0999 V2000
   -8.3070   23.9150  -31.6270 H   0  0  0  0  0  0  0  0  0  0  0  0
   -7.3540   24.1690  -31.2900 N   0  0  0  0  0  0  0  0  0  0  0  0
   -6.4470   23.2830  -31.0230 C   0  0  0  0  0  0  0  0  0  0  0  0
   -5.1550   23.5300  -30.6030 C   0  0  0  0  0  0  0  0  0  0  0  0
   -4.5020   24.8250  -30.3300 C   0  0  0  0  0  0  0  0  0  0  0  0
   -5.2110   25.8630  -30.2660 O   0  0  0  0  0  0  0  0  0  0  0  0
   -3.0930   24.9350  -30.0970 N   0  0  0  0  0  0  0  0  0  0  0  0
   -2.3720   24.3630  -28.9950 C   0  0  0  0  0  0  0  0  0  0  0  0
   -2.5730   24.8150  -27.6780 C   0  0  0  0  0  0  0  0  0  0  0  0
   -3.2880   25.6274  -27.4814 H   0  0  0  0  0  0  0  0  0  0  0  0
   -1.8700   24.2380  -26.6200 C   0  0  0  0  0  0  0  0  0  0  0  0
   -2.0245   24.6034  -25.5940 H   0  0  0  0  0  0  0  0  0  0  0  0
   -0.9720   23.1990  -26.8610 C   0  0  0  0  0  0  0  0  0  0  0  0
   -0.4143   22.7506  -26.0256 H   0  0  0  0  0  0  0  0  0  0  0  0
   -0.7790   22.7260  -28.1620 C   0  0  0  0  0  0  0  0  0  0  0  0
   -0.0759   21.9004  -28.3462 H   0  0  0  0  0  0  0  0  0  0  0  0
   -1.4820   23.3030  -29.2390 C   0  0  0  0  0  0  0  0  0  0  0  0
   -1.3170   22.8560  -30.5600 O   0  0  0  0  0  0  0  0  0  0  0  0
   -1.5070   21.5100  -30.9870 C   0  0  0  0  0  0  0  0  0  0  0  0
   -0.5349   20.9965  -31.0242 H   0  0  0  0  0  0  0  0  0  0  0  0
   -2.1693   20.9908  -30.2786 H   0  0  0  0  0  0  0  0  0  0  0  0
   -2.1380   21.5010  -32.3700 C   0  0  0  0  0  0  0  0  0  0  0  0
   -3.2336   21.4854  -32.2731 H   0  0  0  0  0  0  0  0  0  0  0  0
   -1.8313   22.4036  -32.9188 H   0  0  0  0  0  0  0  0  0  0  0  0
   -1.8057   20.6075  -32.9188 H   0  0  0  0  0  0  0  0  0  0  0  0
   -4.5210   22.3390  -30.5350 N   0  0  0  0  0  0  0  0  0  0  0  0
   -5.4090   21.4150  -30.8810 N   0  0  0  0  0  0  0  0  0  0  0  0
   -5.1950   20.3930  -30.9310 H   0  0  0  0  0  0  0  0  0  0  0  0
   -6.5840   21.9510  -31.1750 N   0  0  0  0  0  0  0  0  0  0  0  0
   -7.7360   21.2010  -31.6740 C   0  0  0  0  0  0  0  0  0  0  0  0
   -8.3683   20.9000  -30.8257 H   0  0  0  0  0  0  0  0  0  0  0  0
   -8.3087   21.8401  -32.3622 H   0  0  0  0  0  0  0  0  0  0  0  0
   -7.2780   19.9720  -32.4130 C   0  0  0  0  0  0  0  0  0  0  0  0
   -7.6790   18.7010  -31.9760 C   0  0  0  0  0  0  0  0  0  0  0  0
   -8.3411   18.6068  -31.1027 H   0  0  0  0  0  0  0  0  0  0  0  0
   -7.2420   17.5530  -32.6440 C   0  0  0  0  0  0  0  0  0  0  0  0
   -7.5606   16.5604  -32.2929 H   0  0  0  0  0  0  0  0  0  0  0  0
   -6.3960   17.6620  -33.7640 C   0  0  0  0  0  0  0  0  0  0  0  0
   -5.9310   16.5430  -34.4690 O   0  0  0  0  0  0  0  0  0  0  0  0
   -4.5610   16.1670  -34.5660 C   0  0  0  0  0  0  0  0  0  0  0  0
   -4.1401   16.0515  -33.5563 H   0  0  0  0  0  0  0  0  0  0  0  0
   -4.4800   15.2134  -35.1083 H   0  0  0  0  0  0  0  0  0  0  0  0
   -4.0046   16.9456  -35.1083 H   0  0  0  0  0  0  0  0  0  0  0  0
   -5.9990   18.9330  -34.1970 C   0  0  0  0  0  0  0  0  0  0  0  0
   -5.3384   19.0291  -35.0713 H   0  0  0  0  0  0  0  0  0  0  0  0
   -6.4340   20.0800  -33.5290 C   0  0  0  0  0  0  0  0  0  0  0  0
   -6.1136   21.0723  -33.8792 H   0  0  0  0  0  0  0  0  0  0  0  0
  1  2  1  0
  2  3  2  0
  3  4  1  0
  4  5  1  0
  5  6  2  0
  5  7  1  0
  7  8  1  0
  8  9  2  0
  9 10  1  0
  9 11  1  0
 11 12  1  0
 11 13  2  0
 13 14  1  0
 13 15  1  0
 15 16  1  0
 15 17  2  0
 17 18  1  0
 18 19  1  0
 19 20  1  0
 19 21  1  0
 19 22  1  0
 22 23  1  0
 22 24  1  0
 22 25  1  0
  4 26  2  0
 26 27  1  0
 27 28  1  0
 27 29  1  0
 29 30  1  0
 30 31  1  0
 30 32  1  0
 30 33  1  0
 33 34  2  0
 34 35  1  0
 34 36  1  0
 36 37  1  0
 36 38  2  0
 38 39  1  0
 39 40  1  0
 40 41  1  0
 40 42  1  0
 40 43  1  0
 38 44  1  0
 44 45  1  0
 44 46  2  0
 46 47  1  0
 29  3  1  0
 46 33  1  0
 17  8  1  0
M  CHG  1   7  -1
M  END
>  <UniqueID>  (35) 
34

>  <SMILES>  (35) 
[H]/N=c1/c(C(=O)[N-]c2ccccc2OCC)n[nH]n1Cc1ccc(OC)cc1

>  <Energy>  (35) 
88.02798880854456

>  <Genealogy>  (35) 
CCOc1ccccc1[N-]C(=O)c1n[nH]n(Cc2ccc(OC)cc2)c1=N (protonated)
[H]/N=c1/c(C(=O)[N-]c2ccccc2OCC)n[nH]n1Cc1ccc(OC)cc1 (cis-trans isomerization)
[H]/N=c1/c(C(=O)[N-]c2ccccc2OCC)n[nH]n1Cc1ccc(OC)cc1 (3D coordinates assigned)
[H]/N=c1/c(C(=O)[N-]c2ccccc2OCC)n[nH]n1Cc1ccc(OC)cc1 (optimized conformer: 88.02798880854456 kcal/mol)

>  <smiles>  (35) 
CCOc1ccccc1NC(=O)c1n[nH]n(Cc2ccc(OC)cc2)c1=N

>  <score_type>  (35) 
oracle

>  <origin>  (35) 
adgpu

>  <m_score__min__energy>  (35) 
-10.859999999999999

>  <m_primary>  (35) 
energy

$$$$
35:0
     RDKit          3D

 28 29  0  0  0  0  0  0  0  0999 V2000
   -6.7780   24.6110  -30.4900 C   0  0  0  0  0  0  0  0  0  0  0  0
   -6.7680   23.1800  -30.9490 C   0  0  0  0  0  0  0  0  0  0  0  0
   -7.9240   22.3920  -30.8200 C   0  0  0  0  0  0  0  0  0  0  0  0
   -7.9220   21.0590  -31.2350 C   0  0  0  0  0  0  0  0  0  0  0  0
   -6.7700   20.5010  -31.7880 C   0  0  0  0  0  0  0  0  0  0  0  0
   -5.6120   21.2690  -31.9190 C   0  0  0  0  0  0  0  0  0  0  0  0
   -5.5930   22.6080  -31.4830 C   0  0  0  0  0  0  0  0  0  0  0  0
   -4.4110   23.4140  -31.6200 N   0  0  0  0  0  0  0  0  0  0  0  0
   -3.7820   24.1810  -30.5840 C   0  0  0  0  0  0  0  0  0  0  0  0
   -4.0660   25.4040  -30.4810 O   0  0  0  0  0  0  0  0  0  0  0  0
   -2.8390   23.5720  -29.6170 C   0  0  0  0  0  0  0  0  0  0  0  0
   -2.9530   22.2060  -29.3100 C   0  0  0  0  0  0  0  0  0  0  0  0
   -2.0870   21.6120  -28.3880 C   0  0  0  0  0  0  0  0  0  0  0  0
   -1.0910   22.3730  -27.7720 C   0  0  0  0  0  0  0  0  0  0  0  0
   -0.2330   21.7820  -26.8530 O   0  0  0  0  0  0  0  0  0  0  0  0
   -0.9550   23.7280  -28.0840 C   0  0  0  0  0  0  0  0  0  0  0  0
   -1.8160   24.3300  -29.0100 C   0  0  0  0  0  0  0  0  0  0  0  0
   -1.6280   25.6680  -29.3350 O   0  0  0  0  0  0  0  0  0  0  0  0
   -6.7782   24.6434  -29.3905 H   0  0  0  0  0  0  0  0  0  0  0  0
   -5.8834   25.1248  -30.8718 H   0  0  0  0  0  0  0  0  0  0  0  0
   -7.6797   25.1122  -30.8718 H   0  0  0  0  0  0  0  0  0  0  0  0
   -8.8371   22.8284  -30.3890 H   0  0  0  0  0  0  0  0  0  0  0  0
   -8.8303   20.4482  -31.1256 H   0  0  0  0  0  0  0  0  0  0  0  0
   -6.7739   19.4529  -32.1218 H   0  0  0  0  0  0  0  0  0  0  0  0
   -4.7094   20.8261  -32.3652 H   0  0  0  0  0  0  0  0  0  0  0  0
   -3.7296   21.5995  -29.7989 H   0  0  0  0  0  0  0  0  0  0  0  0
   -2.1899   20.5436  -28.1471 H   0  0  0  0  0  0  0  0  0  0  0  0
   -0.1679   24.3248  -27.6000 H   0  0  0  0  0  0  0  0  0  0  0  0
  1  2  1  0
  2  3  2  0
  3  4  1  0
  4  5  2  0
  5  6  1  0
  6  7  2  0
  7  8  1  0
  8  9  1  0
  9 10  2  0
  9 11  1  0
 11 12  2  0
 12 13  1  0
 13 14  2  0
 14 15  1  0
 14 16  1  0
 16 17  2  0
 17 18  1  0
  7  2  1  0
 17 11  1  0
  1 19  1  0
  1 20  1  0
  1 21  1  0
  3 22  1  0
  4 23  1  0
  5 24  1  0
  6 25  1  0
 12 26  1  0
 13 27  1  0
 16 28  1  0
M  CHG  3   8  -1  15  -1  18  -1
M  END
>  <UniqueID>  (36) 
35

>  <SMILES>  (36) 
Cc1ccccc1[N-]C(=O)c1ccc([O-])cc1[O-]

>  <Energy>  (36) 
37.352627342654706

>  <Genealogy>  (36) 
Cc1ccccc1[N-]C(=O)c1ccc([O-])cc1[O-] (protonated)
Cc1ccccc1[N-]C(=O)c1ccc([O-])cc1[O-] (3D coordinates assigned)
Cc1ccccc1[N-]C(=O)c1ccc([O-])cc1[O-] (optimized conformer: 37.352627342654706 kcal/mol)

>  <smiles>  (36) 
Cc1ccccc1NC(=O)c1ccc(O)cc1O

>  <score_type>  (36) 
oracle

>  <origin>  (36) 
adgpu

>  <m_score__min__energy>  (36) 
-10.73

>  <m_primary>  (36) 
energy

$$$$
36:0
     RDKit          3D

 31 33  0  0  0  0  0  0  0  0999 V2000
   -5.3730   26.4170  -30.7250 O   0  0  0  0  0  0  0  0  0  0  0  0
   -4.9410   25.2430  -30.5790 C   0  0  0  0  0  0  0  0  0  0  0  0
   -3.5360   24.9880  -30.4550 N   0  0  0  0  0  0  0  0  0  0  0  0
   -2.8970   24.1520  -29.4770 C   0  0  0  0  0  0  0  0  0  0  0  0
   -2.7240   24.5740  -28.1450 C   0  0  0  0  0  0  0  0  0  0  0  0
   -2.1180   23.7280  -27.2110 C   0  0  0  0  0  0  0  0  0  0  0  0
   -1.6930   22.4540  -27.5910 C   0  0  0  0  0  0  0  0  0  0  0  0
   -1.8820   22.0180  -28.9040 C   0  0  0  0  0  0  0  0  0  0  0  0
   -2.4890   22.8570  -29.8450 C   0  0  0  0  0  0  0  0  0  0  0  0
   -2.7180   22.2750  -31.4880 Cl  0  0  0  0  0  0  0  0  0  0  0  0
   -5.8850   24.1190  -30.5910 C   0  0  0  0  0  0  0  0  0  0  0  0
   -5.8510   23.0370  -31.4460 C   0  0  0  0  0  0  0  0  0  0  0  0
   -6.9390   22.2770  -31.0520 C   0  0  0  0  0  0  0  0  0  0  0  0
   -7.3950   20.9910  -31.6240 C   0  0  0  0  0  0  0  0  0  0  0  0
   -8.6850   20.4890  -31.3660 C   0  0  0  0  0  0  0  0  0  0  0  0
   -9.0930   19.2700  -31.9170 C   0  0  0  0  0  0  0  0  0  0  0  0
   -8.2240   18.5410  -32.7300 C   0  0  0  0  0  0  0  0  0  0  0  0
   -6.9410   19.0290  -32.9950 C   0  0  0  0  0  0  0  0  0  0  0  0
   -5.7510   18.0310  -34.1080 Br  0  0  0  0  0  0  0  0  0  0  0  0
   -6.5280   20.2470  -32.4450 C   0  0  0  0  0  0  0  0  0  0  0  0
   -7.5330   22.8900  -30.0520 O   0  0  0  0  0  0  0  0  0  0  0  0
   -6.9280   24.0010  -29.7480 N   0  0  0  0  0  0  0  0  0  0  0  0
   -3.0669   25.5731  -27.8379 H   0  0  0  0  0  0  0  0  0  0  0  0
   -1.9759   24.0673  -26.1743 H   0  0  0  0  0  0  0  0  0  0  0  0
   -1.2093   21.7935  -26.8563 H   0  0  0  0  0  0  0  0  0  0  0  0
   -1.5524   21.0111  -29.1997 H   0  0  0  0  0  0  0  0  0  0  0  0
   -5.1303   22.8277  -32.2502 H   0  0  0  0  0  0  0  0  0  0  0  0
   -9.3759   21.0589  -30.7274 H   0  0  0  0  0  0  0  0  0  0  0  0
  -10.1021   18.8846  -31.7089 H   0  0  0  0  0  0  0  0  0  0  0  0
   -8.5484   17.5829  -33.1621 H   0  0  0  0  0  0  0  0  0  0  0  0
   -5.5172   20.6262  -32.6561 H   0  0  0  0  0  0  0  0  0  0  0  0
  1  2  2  0
  2  3  1  0
  3  4  1  0
  4  5  2  0
  5  6  1  0
  6  7  2  0
  7  8  1  0
  8  9  2  0
  9 10  1  0
  2 11  1  0
 11 12  1  0
 12 13  2  0
 13 14  1  0
 14 15  2  0
 15 16  1  0
 16 17  2  0
 17 18  1  0
 18 19  1  0
 18 20  2  0
 13 21  1  0
 21 22  1  0
  9  4  1  0
 22 11  2  0
 20 14  1  0
  5 23  1  0
  6 24  1  0
  7 25  1  0
  8 26  1  0
 12 27  1  0
 15 28  1  0
 16 29  1  0
 17 30  1  0
 20 31  1  0
M  CHG  1   3  -1
M  END
>  <UniqueID>  (37) 
36

>  <SMILES>  (37) 
O=C([N-]c1ccccc1Cl)c1cc(-c2cccc(Br)c2)on1

>  <Energy>  (37) 
67.92306888901105

>  <Genealogy>  (37) 
O=C([N-]c1ccccc1Cl)c1cc(-c2cccc(Br)c2)on1 (protonated)
O=C([N-]c1ccccc1Cl)c1cc(-c2cccc(Br)c2)on1 (3D coordinates assigned)
O=C([N-]c1ccccc1Cl)c1cc(-c2cccc(Br)c2)on1 (optimized conformer: 67.92306888901105 kcal/mol)

>  <smiles>  (37) 
O=C(Nc1ccccc1Cl)c1cc(-c2cccc(Br)c2)on1

>  <score_type>  (37) 
oracle

>  <origin>  (37) 
adgpu

>  <m_score__min__energy>  (37) 
-10.970000000000001

>  <m_primary>  (37) 
energy

$$$$
37:0
     RDKit          3D

 38 39  0  0  0  0  0  0  0  0999 V2000
   -5.8410   18.2400  -34.3940 C   0  0  0  0  0  0  0  0  0  0  0  0
   -6.0510   17.8440  -32.9340 C   0  0  0  0  0  0  0  0  0  0  0  0
   -7.5230   17.5750  -32.5860 C   0  0  0  0  0  0  0  0  0  0  0  0
   -8.5080   19.0530  -32.3240 S   0  0  0  0  0  0  0  0  0  0  0  0
   -9.8820   18.7840  -32.8700 O   0  0  0  0  0  0  0  0  0  0  0  0
   -8.6450   19.3560  -30.8600 O   0  0  0  0  0  0  0  0  0  0  0  0
   -7.8490   20.4160  -33.1790 N   0  0  0  0  0  0  0  0  0  0  0  0
   -7.1790   21.5030  -32.5260 C   0  0  0  0  0  0  0  0  0  0  0  0
   -7.8920   22.5840  -31.9830 C   0  0  0  0  0  0  0  0  0  0  0  0
   -7.2220   23.5870  -31.2770 C   0  0  0  0  0  0  0  0  0  0  0  0
   -5.8330   23.5300  -31.1180 C   0  0  0  0  0  0  0  0  0  0  0  0
   -5.0250   24.7280  -30.1130 S   0  0  0  0  0  0  0  0  0  0  0  0
   -6.0520   25.6770  -29.5630 O   0  0  0  0  0  0  0  0  0  0  0  0
   -4.0170   25.5040  -30.9130 O   0  0  0  0  0  0  0  0  0  0  0  0
   -4.2160   23.9320  -28.7990 N   0  0  0  0  0  0  0  0  0  0  0  0
   -3.0250   24.2470  -28.3870 C   0  0  0  0  0  0  0  0  0  0  0  0
   -2.4680   23.5490  -27.3630 N   0  0  0  0  0  0  0  0  0  0  0  0
   -1.2180   23.8400  -26.9150 C   0  0  0  0  0  0  0  0  0  0  0  0
   -0.4880   24.8680  -27.5090 C   0  0  0  0  0  0  0  0  0  0  0  0
   -1.0730   25.5780  -28.5560 C   0  0  0  0  0  0  0  0  0  0  0  0
   -2.3240   25.2580  -28.9740 N   0  0  0  0  0  0  0  0  0  0  0  0
   -5.1110   22.4830  -31.7050 C   0  0  0  0  0  0  0  0  0  0  0  0
   -5.7810   21.4790  -32.4130 C   0  0  0  0  0  0  0  0  0  0  0  0
   -5.3261   19.2110  -34.4401 H   0  0  0  0  0  0  0  0  0  0  0  0
   -5.2293   17.4763  -34.8967 H   0  0  0  0  0  0  0  0  0  0  0  0
   -6.8163   18.3179  -34.8967 H   0  0  0  0  0  0  0  0  0  0  0  0
   -5.4716   16.9310  -32.7325 H   0  0  0  0  0  0  0  0  0  0  0  0
   -5.7178   18.6897  -32.3146 H   0  0  0  0  0  0  0  0  0  0  0  0
   -7.9726   17.0044  -33.4120 H   0  0  0  0  0  0  0  0  0  0  0  0
   -7.5239   17.0254  -31.6331 H   0  0  0  0  0  0  0  0  0  0  0  0
   -7.7030   20.2910  -34.2060 H   0  0  0  0  0  0  0  0  0  0  0  0
   -8.9827   22.6417  -32.1139 H   0  0  0  0  0  0  0  0  0  0  0  0
   -7.7889   24.4246  -30.8446 H   0  0  0  0  0  0  0  0  0  0  0  0
   -0.7831   23.2647  -26.0844 H   0  0  0  0  0  0  0  0  0  0  0  0
    0.5259   25.1132  -27.1597 H   0  0  0  0  0  0  0  0  0  0  0  0
   -0.5218   26.3962  -29.0426 H   0  0  0  0  0  0  0  0  0  0  0  0
   -4.0157   22.4500  -31.6093 H   0  0  0  0  0  0  0  0  0  0  0  0
   -5.2082   20.6664  -32.8836 H   0  0  0  0  0  0  0  0  0  0  0  0
  1  2  1  0
  2  3  1  0
  3  4  1  0
  4  5  2  0
  4  6  2  0
  4  7  1  0
  7  8  1  0
  8  9  2  0
  9 10  1  0
 10 11  2  0
 11 12  1  0
 12 13  2  0
 12 14  2  0
 12 15  1  0
 15 16  2  3
 16 17  1  0
 17 18  2  0
 18 19  1  0
 19 20  2  0
 20 21  1  0
 11 22  1  0
 22 23  2  0
 23  8  1  0
 21 16  1  0
  1 24  1  0
  1 25  1  0
  1 26  1  0
  2 27  1  0
  2 28  1  0
  3 29  1  0
  3 30  1  0
  7 31  1  0
  9 32  1  0
 10 33  1  0
 18 34  1  0
 19 35  1  0
 20 36  1  0
 22 37  1  0
 23 38  1  0
M  CHG  1  21  -1
M  END
>  <UniqueID>  (38) 
37

>  <SMILES>  (38) 
CCCS(=O)(=O)Nc1ccc(S(=O)(=O)N=c2nccc[n-]2)cc1

>  <Energy>  (38) 
38.05909308741648

>  <Genealogy>  (38) 
CCCS(=O)(=O)Nc1ccc(S(=O)(=O)N=c2nccc[n-]2)cc1 (protonated)
CCCS(=O)(=O)Nc1ccc(S(=O)(=O)N=c2nccc[n-]2)cc1 (3D coordinates assigned)
CCCS(=O)(=O)Nc1ccc(S(=O)(=O)N=c2nccc[n-]2)cc1 (optimized conformer: 38.05909308741648 kcal/mol)

>  <smiles>  (38) 
CCCS(=O)(=O)Nc1ccc(S(=O)(=O)N=c2nccc[nH]2)cc1

>  <score_type>  (38) 
oracle

>  <origin>  (38) 
adgpu

>  <m_score__min__energy>  (38) 
-10.01

>  <m_primary>  (38) 
energy

$$$$
38:0
     RDKit          3D

 31 32  0  0  0  0  0  0  0  0999 V2000
   -8.8160   19.1730  -31.6060 C   0  0  0  0  0  0  0  0  0  0  0  0
   -9.0060   20.2690  -32.6480 C   0  0  0  0  0  0  0  0  0  0  0  0
   -9.0970   21.9170  -31.8630 S   0  0  0  0  0  0  0  0  0  0  0  0
   -7.3320   22.2260  -31.9430 C   0  0  0  0  0  0  0  0  0  0  0  0
   -6.4990   21.2500  -32.3900 N   0  0  0  0  0  0  0  0  0  0  0  0
   -5.1570   21.4500  -32.4640 C   0  0  0  0  0  0  0  0  0  0  0  0
   -4.2670   20.3350  -32.9290 C   0  0  0  0  0  0  0  0  0  0  0  0
   -5.0790   19.0920  -33.1710 C   0  0  0  0  0  0  0  0  0  0  0  0
   -5.3770   18.6840  -34.4820 C   0  0  0  0  0  0  0  0  0  0  0  0
   -6.1020   17.5090  -34.7070 C   0  0  0  0  0  0  0  0  0  0  0  0
   -6.5250   16.7300  -33.6260 C   0  0  0  0  0  0  0  0  0  0  0  0
   -7.2250   15.5900  -33.8450 F   0  0  0  0  0  0  0  0  0  0  0  0
   -6.2200   17.1230  -32.3190 C   0  0  0  0  0  0  0  0  0  0  0  0
   -5.4960   18.2970  -32.0910 C   0  0  0  0  0  0  0  0  0  0  0  0
   -4.6180   22.6730  -32.0520 C   0  0  0  0  0  0  0  0  0  0  0  0
   -5.4870   23.6630  -31.5900 C   0  0  0  0  0  0  0  0  0  0  0  0
   -5.0290   24.7750  -31.2130 O   0  0  0  0  0  0  0  0  0  0  0  0
   -6.8260   23.4240  -31.5420 N   0  0  0  0  0  0  0  0  0  0  0  0
   -8.8914   19.6079  -30.5985 H   0  0  0  0  0  0  0  0  0  0  0  0
   -9.5947   18.4066  -31.7338 H   0  0  0  0  0  0  0  0  0  0  0  0
   -7.8248   18.7135  -31.7338 H   0  0  0  0  0  0  0  0  0  0  0  0
   -8.1569   20.2508  -33.3471 H   0  0  0  0  0  0  0  0  0  0  0  0
   -9.9504   20.0838  -33.1807 H   0  0  0  0  0  0  0  0  0  0  0  0
   -3.7696   20.6324  -33.8640 H   0  0  0  0  0  0  0  0  0  0  0  0
   -3.5143   20.1281  -32.1540 H   0  0  0  0  0  0  0  0  0  0  0  0
   -5.0389   19.2909  -35.3348 H   0  0  0  0  0  0  0  0  0  0  0  0
   -6.3394   17.1979  -35.7350 H   0  0  0  0  0  0  0  0  0  0  0  0
   -6.5502   16.5075  -31.4692 H   0  0  0  0  0  0  0  0  0  0  0  0
   -5.2520   18.5992  -31.0618 H   0  0  0  0  0  0  0  0  0  0  0  0
   -3.5332   22.8509  -32.0911 H   0  0  0  0  0  0  0  0  0  0  0  0
   -7.4720   24.1660  -31.1890 H   0  0  0  0  0  0  0  0  0  0  0  0
  1  2  1  0
  2  3  1  0
  3  4  1  0
  4  5  2  0
  5  6  1  0
  6  7  1  0
  7  8  1  0
  8  9  2  0
  9 10  1  0
 10 11  2  0
 11 12  1  0
 11 13  1  0
 13 14  2  0
  6 15  2  0
 15 16  1  0
 16 17  2  0
 16 18  1  0
 18  4  1  0
 14  8  1  0
  1 19  1  0
  1 20  1  0
  1 21  1  0
  2 22  1  0
  2 23  1  0
  7 24  1  0
  7 25  1  0
  9 26  1  0
 10 27  1  0
 13 28  1  0
 14 29  1  0
 15 30  1  0
 18 31  1  0
M  END
>  <UniqueID>  (39) 
38

>  <SMILES>  (39) 
CCSc1nc(Cc2ccc(F)cc2)cc(=O)[nH]1

>  <Energy>  (39) 
23.893431118583997

>  <Genealogy>  (39) 
CCSc1nc(Cc2ccc(F)cc2)cc(=O)[nH]1 (3D coordinates assigned)
CCSc1nc(Cc2ccc(F)cc2)cc(=O)[nH]1 (optimized conformer: 23.893431118583997 kcal/mol)

>  <smiles>  (39) 
CCSc1nc(Cc2ccc(F)cc2)cc(=O)[nH]1

>  <score_type>  (39) 
oracle

>  <origin>  (39) 
adgpu

>  <m_score__min__energy>  (39) 
-6.7400000000000002

>  <m_primary>  (39) 
energy

$$$$
39:0
     RDKit          3D

 43 45  0  0  0  0  0  0  0  0999 V2000
   -3.3624   13.5510  -36.0786 H   0  0  0  0  0  0  0  0  0  0  0  0
   -3.8240   14.3560  -35.4880 C   0  0  0  0  0  0  0  0  0  0  0  0
   -3.4150   15.6400  -35.6540 N   0  0  0  0  0  0  0  0  0  0  0  0
   -3.9650   16.6650  -34.9500 C   0  0  0  0  0  0  0  0  0  0  0  0
   -3.6065   17.6925  -35.1101 H   0  0  0  0  0  0  0  0  0  0  0  0
   -4.9910   16.4190  -34.0170 C   0  0  0  0  0  0  0  0  0  0  0  0
   -5.6090   17.5130  -33.2240 C   0  0  0  0  0  0  0  0  0  0  0  0
   -5.0860   18.7680  -33.2990 N   0  0  0  0  0  0  0  0  0  0  0  0
   -5.5980   19.8080  -32.5910 C   0  0  0  0  0  0  0  0  0  0  0  0
   -5.0500   20.9820  -32.7260 N   0  0  0  0  0  0  0  0  0  0  0  0
   -5.3680   22.1790  -32.0010 C   0  0  0  0  0  0  0  0  0  0  0  0
   -6.6780   22.4480  -31.5800 C   0  0  0  0  0  0  0  0  0  0  0  0
   -7.4890   21.7499  -31.8346 H   0  0  0  0  0  0  0  0  0  0  0  0
   -6.9580   23.5980  -30.8390 C   0  0  0  0  0  0  0  0  0  0  0  0
   -7.9928   23.8111  -30.5327 H   0  0  0  0  0  0  0  0  0  0  0  0
   -5.9300   24.4840  -30.4820 C   0  0  0  0  0  0  0  0  0  0  0  0
   -6.2830   25.7420  -29.7320 C   0  0  0  0  0  0  0  0  0  0  0  0
   -6.2294   25.5511  -28.6500 H   0  0  0  0  0  0  0  0  0  0  0  0
   -5.5739   26.5394  -29.9992 H   0  0  0  0  0  0  0  0  0  0  0  0
   -7.3034   26.0541  -29.9992 H   0  0  0  0  0  0  0  0  0  0  0  0
   -4.5940   24.1660  -30.8260 C   0  0  0  0  0  0  0  0  0  0  0  0
   -3.4920   24.9990  -30.4450 N   0  0  0  0  0  0  0  0  0  0  0  0
   -2.7140   24.8080  -29.2590 C   0  0  0  0  0  0  0  0  0  0  0  0
   -1.7860   25.6100  -28.9680 O   0  0  0  0  0  0  0  0  0  0  0  0
   -3.0610   23.6990  -28.3170 C   0  0  0  0  0  0  0  0  0  0  0  0
   -2.1351   23.2762  -27.8999 H   0  0  0  0  0  0  0  0  0  0  0  0
   -3.6177   22.9270  -28.8684 H   0  0  0  0  0  0  0  0  0  0  0  0
   -3.9330   24.2140  -27.1790 C   0  0  0  0  0  0  0  0  0  0  0  0
   -3.4758   23.9440  -26.2156 H   0  0  0  0  0  0  0  0  0  0  0  0
   -4.0197   25.3083  -27.2498 H   0  0  0  0  0  0  0  0  0  0  0  0
   -4.9332   23.7616  -27.2498 H   0  0  0  0  0  0  0  0  0  0  0  0
   -4.3300   23.0280  -31.5990 C   0  0  0  0  0  0  0  0  0  0  0  0
   -3.2952   22.7988  -31.8935 H   0  0  0  0  0  0  0  0  0  0  0  0
   -6.6920   19.6040  -31.7950 N   0  0  0  0  0  0  0  0  0  0  0  0
   -7.1550   20.3860  -31.2840 H   0  0  0  0  0  0  0  0  0  0  0  0
   -7.2390   18.3650  -31.6750 C   0  0  0  0  0  0  0  0  0  0  0  0
   -8.1069   18.2113  -31.0169 H   0  0  0  0  0  0  0  0  0  0  0  0
   -6.7060   17.2900  -32.3810 C   0  0  0  0  0  0  0  0  0  0  0  0
   -7.1382   16.2836  -32.2789 H   0  0  0  0  0  0  0  0  0  0  0  0
   -5.4100   15.0890  -33.8300 C   0  0  0  0  0  0  0  0  0  0  0  0
   -6.1989   14.8610  -33.0981 H   0  0  0  0  0  0  0  0  0  0  0  0
   -4.8290   14.0580  -34.5690 C   0  0  0  0  0  0  0  0  0  0  0  0
   -5.1611   13.0189  -34.4277 H   0  0  0  0  0  0  0  0  0  0  0  0
  1  2  1  0
  2  3  2  0
  3  4  1  0
  4  5  1  0
  4  6  2  0
  6  7  1  0
  7  8  2  0
  8  9  1  0
  9 10  2  0
 10 11  1  0
 11 12  2  0
 12 13  1  0
 12 14  1  0
 14 15  1  0
 14 16  2  0
 16 17  1  0
 17 18  1  0
 17 19  1  0
 17 20  1  0
 16 21  1  0
 21 22  1  0
 22 23  1  0
 23 24  2  0
 23 25  1  0
 25 26  1  0
 25 27  1  0
 25 28  1  0
 28 29  1  0
 28 30  1  0
 28 31  1  0
 21 32  2  0
 32 33  1  0
  9 34  1  0
 34 35  1  0
 34 36  1  0
 36 37  1  0
 36 38  2  0
 38 39  1  0
  6 40  1  0
 40 41  1  0
 40 42  2  0
 42 43  1  0
 42  2  1  0
 38  7  1  0
 32 11  1  0
M  CHG  1  22  -1
M  END
>  <UniqueID>  (40) 
39

>  <SMILES>  (40) 
CCC(=O)[N-]c1cc(/N=c2/nc(-c3cccnc3)cc[nH]2)ccc1C

>  <Energy>  (40) 
61.830480026823096

>  <Genealogy>  (40) 
CCC(=O)[N-]c1cc(N=c2nc(-c3cccnc3)cc[nH]2)ccc1C (protonated)
CCC(=O)[N-]c1cc(/N=c2/nc(-c3cccnc3)cc[nH]2)ccc1C (cis-trans isomerization)
CCC(=O)[N-]c1cc(/N=c2/nc(-c3cccnc3)cc[nH]2)ccc1C (3D coordinates assigned)
CCC(=O)[N-]c1cc(/N=c2/nc(-c3cccnc3)cc[nH]2)ccc1C (optimized conformer: 61.830480026823096 kcal/mol)

>  <smiles>  (40) 
CCC(=O)Nc1cc(N=c2nc(-c3cccnc3)cc[nH]2)ccc1C

>  <score_type>  (40) 
oracle

>  <origin>  (40) 
adgpu

>  <m_score__min__energy>  (40) 
-10.09

>  <m_primary>  (40) 
energy

$$$$
40:0
     RDKit          3D

 38 40  0  0  0  0  0  0  0  0999 V2000
   -8.0230   19.7910  -32.9950 C   0  0  0  0  0  0  0  0  0  0  0  0
   -8.3120   20.9360  -32.1260 N   0  0  0  0  0  0  0  0  0  0  0  0
   -9.6940   21.4100  -31.9830 C   0  0  0  0  0  0  0  0  0  0  0  0
   -7.2200   21.5770  -31.4220 C   0  0  0  0  0  0  0  0  0  0  0  0
   -7.4420   22.6060  -30.4870 C   0  0  0  0  0  0  0  0  0  0  0  0
   -6.3560   23.1930  -29.8350 C   0  0  0  0  0  0  0  0  0  0  0  0
   -5.0490   22.7680  -30.1120 C   0  0  0  0  0  0  0  0  0  0  0  0
   -3.8960   23.3910  -29.4210 C   0  0  0  0  0  0  0  0  0  0  0  0
   -3.0280   22.8200  -28.4900 C   0  0  0  0  0  0  0  0  0  0  0  0
   -3.1220   21.1720  -27.7840 S   0  0  0  0  0  0  0  0  0  0  0  0
   -1.7320   20.5580  -28.7420 C   0  0  0  0  0  0  0  0  0  0  0  0
   -0.8520   19.6110  -28.2020 C   0  0  0  0  0  0  0  0  0  0  0  0
    0.2240   19.1390  -28.9600 C   0  0  0  0  0  0  0  0  0  0  0  0
    0.4200   19.6040  -30.2640 C   0  0  0  0  0  0  0  0  0  0  0  0
    1.7700   19.0120  -31.2150 Cl  0  0  0  0  0  0  0  0  0  0  0  0
   -0.4670   20.5370  -30.8130 C   0  0  0  0  0  0  0  0  0  0  0  0
   -1.5430   21.0080  -30.0550 C   0  0  0  0  0  0  0  0  0  0  0  0
   -2.0480   23.6580  -28.2100 O   0  0  0  0  0  0  0  0  0  0  0  0
   -2.2320   24.7560  -28.9020 C   0  0  0  0  0  0  0  0  0  0  0  0
   -1.3860   25.8590  -28.8470 O   0  0  0  0  0  0  0  0  0  0  0  0
   -3.3620   24.6400  -29.6760 C   0  0  0  0  0  0  0  0  0  0  0  0
   -3.8660   25.6030  -30.5420 O   0  0  0  0  0  0  0  0  0  0  0  0
   -4.8680   21.7400  -31.0440 C   0  0  0  0  0  0  0  0  0  0  0  0
   -5.9400   21.1800  -31.6650 N   0  0  0  0  0  0  0  0  0  0  0  0
   -7.8003   18.9087  -32.3770 H   0  0  0  0  0  0  0  0  0  0  0  0
   -8.8968   19.5828  -33.6300 H   0  0  0  0  0  0  0  0  0  0  0  0
   -7.1551   20.0224  -33.6300 H   0  0  0  0  0  0  0  0  0  0  0  0
   -9.9436   21.4956  -30.9151 H   0  0  0  0  0  0  0  0  0  0  0  0
   -9.7956   22.3943  -32.4634 H   0  0  0  0  0  0  0  0  0  0  0  0
  -10.3784   20.6952  -32.4634 H   0  0  0  0  0  0  0  0  0  0  0  0
   -8.4658   22.9457  -30.2714 H   0  0  0  0  0  0  0  0  0  0  0  0
   -6.5267   23.9933  -29.0999 H   0  0  0  0  0  0  0  0  0  0  0  0
   -1.0080   19.2378  -27.1791 H   0  0  0  0  0  0  0  0  0  0  0  0
    0.9171   18.4010  -28.5299 H   0  0  0  0  0  0  0  0  0  0  0  0
   -0.3175   20.8996  -31.8407 H   0  0  0  0  0  0  0  0  0  0  0  0
   -2.2440   21.7348  -30.4913 H   0  0  0  0  0  0  0  0  0  0  0  0
   -1.6100   26.7130  -29.3430 H   0  0  0  0  0  0  0  0  0  0  0  0
   -3.8535   21.3833  -31.2753 H   0  0  0  0  0  0  0  0  0  0  0  0
  1  2  1  0
  2  3  1  0
  2  4  1  0
  4  5  2  0
  5  6  1  0
  6  7  2  0
  7  8  1  0
  8  9  2  0
  9 10  1  0
 10 11  1  0
 11 12  2  0
 12 13  1  0
 13 14  2  0
 14 15  1  0
 14 16  1  0
 16 17  2  0
  9 18  1  0
 18 19  1  0
 19 20  1  0
 19 21  2  0
 21 22  1  0
  7 23  1  0
 23 24  2  0
 24  4  1  0
 21  8  1  0
 17 11  1  0
  1 25  1  0
  1 26  1  0
  1 27  1  0
  3 28  1  0
  3 29  1  0
  3 30  1  0
  5 31  1  0
  6 32  1  0
 12 33  1  0
 13 34  1  0
 16 35  1  0
 17 36  1  0
 20 37  1  0
 23 38  1  0
M  CHG  1  22  -1
M  END
>  <UniqueID>  (41) 
40

>  <SMILES>  (41) 
CN(C)c1ccc(-c2c(Sc3ccc(Cl)cc3)oc(O)c2[O-])cn1

>  <Energy>  (41) 
72.2589446467672

>  <Genealogy>  (41) 
CN(C)c1ccc(-c2c(Sc3ccc(Cl)cc3)oc(O)c2[O-])cn1 (protonated)
CN(C)c1ccc(-c2c(Sc3ccc(Cl)cc3)oc(O)c2[O-])cn1 (3D coordinates assigned)
CN(C)c1ccc(-c2c(Sc3ccc(Cl)cc3)oc(O)c2[O-])cn1 (optimized conformer: 72.2589446467672 kcal/mol)

>  <smiles>  (41) 
CN(C)c1ccc(-c2c(Sc3ccc(Cl)cc3)oc(O)c2O)cn1

>  <score_type>  (41) 
oracle

>  <origin>  (41) 
adgpu

>  <m_score__min__energy>  (41) 
-10.56

>  <m_primary>  (41) 
energy

$$$$
41:0
     RDKit          3D

 40 41  0  0  0  0  0  0  0  0999 V2000
   -6.2877   26.0799  -31.3780 H   0  0  0  0  0  0  0  0  0  0  0  0
   -5.5660   25.2770  -31.1670 C   0  0  0  0  0  0  0  0  0  0  0  0
   -4.4700   25.5340  -30.4070 N   0  0  0  0  0  0  0  0  0  0  0  0
   -3.5480   24.5790  -30.1140 C   0  0  0  0  0  0  0  0  0  0  0  0
   -2.5220   24.9090  -29.3800 N   0  0  0  0  0  0  0  0  0  0  0  0
   -1.4200   24.0390  -28.9630 C   0  0  0  0  0  0  0  0  0  0  0  0
   -1.7712   22.9968  -28.9411 H   0  0  0  0  0  0  0  0  0  0  0  0
   -0.5928   24.1482  -29.6798 H   0  0  0  0  0  0  0  0  0  0  0  0
   -0.9160   24.4320  -27.5620 C   0  0  0  0  0  0  0  0  0  0  0  0
   -1.0198   23.5654  -26.8924 H   0  0  0  0  0  0  0  0  0  0  0  0
    0.1352   24.7420  -27.6565 H   0  0  0  0  0  0  0  0  0  0  0  0
   -1.6760   25.5700  -26.9910 N   0  0  0  0  0  0  0  0  0  0  0  0
   -2.5500   25.7270  -27.5480 H   0  0  0  0  0  0  0  0  0  0  0  0
   -2.0520   25.3130  -25.5870 C   0  0  0  0  0  0  0  0  0  0  0  0
   -1.3310   25.8058  -24.9182 H   0  0  0  0  0  0  0  0  0  0  0  0
   -3.0594   25.7123  -25.3982 H   0  0  0  0  0  0  0  0  0  0  0  0
   -2.0458   24.2293  -25.3982 H   0  0  0  0  0  0  0  0  0  0  0  0
   -0.8720   26.8030  -27.0640 C   0  0  0  0  0  0  0  0  0  0  0  0
   -0.6439   27.1528  -26.0463 H   0  0  0  0  0  0  0  0  0  0  0  0
    0.0663   26.5977  -27.6001 H   0  0  0  0  0  0  0  0  0  0  0  0
   -1.4383   27.5788  -27.6001 H   0  0  0  0  0  0  0  0  0  0  0  0
   -3.7370   23.2720  -30.6100 C   0  0  0  0  0  0  0  0  0  0  0  0
   -3.0054   22.4847  -30.3755 H   0  0  0  0  0  0  0  0  0  0  0  0
   -4.8580   22.9740  -31.4030 C   0  0  0  0  0  0  0  0  0  0  0  0
   -5.0310   21.6010  -31.9430 C   0  0  0  0  0  0  0  0  0  0  0  0
   -6.1940   20.9140  -31.7620 N   0  0  0  0  0  0  0  0  0  0  0  0
   -6.1550   19.6950  -32.3400 C   0  0  0  0  0  0  0  0  0  0  0  0
   -7.1370   18.8460  -32.3070 N   0  0  0  0  0  0  0  0  0  0  0  0
   -8.4180   19.0970  -31.6480 C   0  0  0  0  0  0  0  0  0  0  0  0
   -8.2357   19.3659  -30.5971 H   0  0  0  0  0  0  0  0  0  0  0  0
   -9.0300   18.1851  -31.7109 H   0  0  0  0  0  0  0  0  0  0  0  0
   -9.1690   20.2360  -32.3320 C   0  0  0  0  0  0  0  0  0  0  0  0
   -9.6053   20.8977  -31.5692 H   0  0  0  0  0  0  0  0  0  0  0  0
   -8.4717   20.8100  -32.9599 H   0  0  0  0  0  0  0  0  0  0  0  0
   -9.9713   19.8212  -32.9599 H   0  0  0  0  0  0  0  0  0  0  0  0
   -4.6910   19.4040  -33.1000 S   0  0  0  0  0  0  0  0  0  0  0  0
   -4.0610   20.9080  -32.6770 C   0  0  0  0  0  0  0  0  0  0  0  0
   -3.0588   21.2817  -32.9336 H   0  0  0  0  0  0  0  0  0  0  0  0
   -5.7790   23.9970  -31.6810 C   0  0  0  0  0  0  0  0  0  0  0  0
   -6.6640   23.7905  -32.3008 H   0  0  0  0  0  0  0  0  0  0  0  0
  1  2  1  0
  2  3  1  0
  3  4  1  0
  4  5  2  0
  5  6  1  0
  6  7  1  0
  6  8  1  0
  6  9  1  0
  9 10  1  0
  9 11  1  0
  9 12  1  0
 12 13  1  0
 12 14  1  0
 14 15  1  0
 14 16  1  0
 14 17  1  0
 12 18  1  0
 18 19  1  0
 18 20  1  0
 18 21  1  0
  4 22  1  0
 22 23  1  0
 22 24  2  0
 24 25  1  0
 25 26  1  0
 26 27  1  0
 27 28  2  0
 28 29  1  0
 29 30  1  0
 29 31  1  0
 29 32  1  0
 32 33  1  0
 32 34  1  0
 32 35  1  0
 27 36  1  0
 36 37  1  0
 37 38  1  0
 24 39  1  0
 39 40  1  0
 39  2  2  0
 37 25  2  0
M  CHG  3   3  -1  12   1  26  -1
M  END
>  <UniqueID>  (42) 
41

>  <SMILES>  (42) 
CC/N=c1\[n-]c(-c2cc[n-]/c(=N/CC[NH+](C)C)c2)cs1

>  <Energy>  (42) 
69.33107534206916

>  <Genealogy>  (42) 
CCN=c1[n-]c(-c2cc[n-]c(=NCC[NH+](C)C)c2)cs1 (protonated)
CC/N=c1\[n-]c(-c2cc[n-]/c(=N/CC[NH+](C)C)c2)cs1 (cis-trans isomerization)
CC/N=c1\[n-]c(-c2cc[n-]/c(=N/CC[NH+](C)C)c2)cs1 (3D coordinates assigned)
CC/N=c1\[n-]c(-c2cc[n-]/c(=N/CC[NH+](C)C)c2)cs1 (optimized conformer: 69.33107534206916 kcal/mol)

>  <smiles>  (42) 
CCN=c1[nH]c(-c2cc[nH]c(=NCCN(C)C)c2)cs1

>  <score_type>  (42) 
oracle

>  <origin>  (42) 
adgpu

>  <m_score__min__energy>  (42) 
-7.4400000000000004

>  <m_primary>  (42) 
energy

$$$$
42:0
     RDKit          3D

 26 27  0  0  0  0  0  0  0  0999 V2000
   -4.5890   22.1330  -33.2320 O   0  0  0  0  0  0  0  0  0  0  0  0
   -5.4820   22.3930  -32.3780 C   0  0  0  0  0  0  0  0  0  0  0  0
   -5.3770   23.5810  -31.5800 N   0  0  0  0  0  0  0  0  0  0  0  0
   -4.5890   23.7500  -30.3930 C   0  0  0  0  0  0  0  0  0  0  0  0
   -4.9220   23.1190  -29.1790 C   0  0  0  0  0  0  0  0  0  0  0  0
   -4.1400   23.3310  -28.0390 C   0  0  0  0  0  0  0  0  0  0  0  0
   -3.0330   24.1820  -28.0960 C   0  0  0  0  0  0  0  0  0  0  0  0
   -2.7110   24.8300  -29.2920 C   0  0  0  0  0  0  0  0  0  0  0  0
   -1.6170   25.6850  -29.3460 O   0  0  0  0  0  0  0  0  0  0  0  0
   -3.4910   24.6210  -30.4340 C   0  0  0  0  0  0  0  0  0  0  0  0
   -6.6640   21.4970  -32.2540 C   0  0  0  0  0  0  0  0  0  0  0  0
   -6.4960   20.1070  -32.4220 C   0  0  0  0  0  0  0  0  0  0  0  0
   -7.5840   19.2350  -32.3160 C   0  0  0  0  0  0  0  0  0  0  0  0
   -7.3510   17.5100  -32.5330 Cl  0  0  0  0  0  0  0  0  0  0  0  0
   -8.8560   19.7370  -32.0410 C   0  0  0  0  0  0  0  0  0  0  0  0
   -9.0420   21.1090  -31.8680 C   0  0  0  0  0  0  0  0  0  0  0  0
   -7.9590   21.9940  -31.9680 C   0  0  0  0  0  0  0  0  0  0  0  0
   -8.1770   23.3580  -31.7760 O   0  0  0  0  0  0  0  0  0  0  0  0
   -5.7994   22.4576  -29.1271 H   0  0  0  0  0  0  0  0  0  0  0  0
   -4.3968   22.8269  -27.0957 H   0  0  0  0  0  0  0  0  0  0  0  0
   -2.4152   24.3419  -27.2000 H   0  0  0  0  0  0  0  0  0  0  0  0
   -3.2416   25.1429  -31.3696 H   0  0  0  0  0  0  0  0  0  0  0  0
   -5.4960   19.7034  -32.6393 H   0  0  0  0  0  0  0  0  0  0  0  0
   -9.7124   19.0513  -31.9605 H   0  0  0  0  0  0  0  0  0  0  0  0
  -10.0471   21.4998  -31.6512 H   0  0  0  0  0  0  0  0  0  0  0  0
   -7.4120   24.0030  -31.6160 H   0  0  0  0  0  0  0  0  0  0  0  0
  1  2  2  0
  2  3  1  0
  3  4  1  0
  4  5  2  0
  5  6  1  0
  6  7  2  0
  7  8  1  0
  8  9  1  0
  8 10  2  0
  2 11  1  0
 11 12  2  0
 12 13  1  0
 13 14  1  0
 13 15  2  0
 15 16  1  0
 16 17  2  0
 17 18  1  0
 10  4  1  0
 17 11  1  0
  5 19  1  0
  6 20  1  0
  7 21  1  0
 10 22  1  0
 12 23  1  0
 15 24  1  0
 16 25  1  0
 18 26  1  0
M  CHG  2   3  -1   9  -1
M  END
>  <UniqueID>  (43) 
42

>  <SMILES>  (43) 
O=C([N-]c1cccc([O-])c1)c1cc(Cl)ccc1O

>  <Energy>  (43) 
33.00399488053842

>  <Genealogy>  (43) 
O=C([N-]c1cccc([O-])c1)c1cc(Cl)ccc1O (protonated)
O=C([N-]c1cccc([O-])c1)c1cc(Cl)ccc1O (3D coordinates assigned)
O=C([N-]c1cccc([O-])c1)c1cc(Cl)ccc1O (optimized conformer: 33.00399488053842 kcal/mol)

>  <smiles>  (43) 
O=C(Nc1cccc(O)c1)c1cc(Cl)ccc1O

>  <score_type>  (43) 
oracle

>  <origin>  (43) 
adgpu

>  <m_score__min__energy>  (43) 
-9.9299999999999997

>  <m_primary>  (43) 
energy

$$$$
43:0
     RDKit          3D

 44 46  0  0  0  0  0  0  0  0999 V2000
   -8.8780   21.9160  -30.9210 C   0  0  0  0  0  0  0  0  0  0  0  0
   -7.4900   22.3000  -31.3410 C   0  0  0  0  0  0  0  0  0  0  0  0
   -6.7920   21.5180  -32.2720 C   0  0  0  0  0  0  0  0  0  0  0  0
   -5.5170   21.8990  -32.6930 C   0  0  0  0  0  0  0  0  0  0  0  0
   -4.9310   23.0650  -32.1950 C   0  0  0  0  0  0  0  0  0  0  0  0
   -5.6160   23.8620  -31.2610 C   0  0  0  0  0  0  0  0  0  0  0  0
   -5.0090   25.1070  -30.7360 C   0  0  0  0  0  0  0  0  0  0  0  0
   -5.7240   26.1340  -30.5990 O   0  0  0  0  0  0  0  0  0  0  0  0
   -3.6120   25.1980  -30.4220 N   0  0  0  0  0  0  0  0  0  0  0  0
   -2.8400   24.2230  -29.7040 C   0  0  0  0  0  0  0  0  0  0  0  0
   -3.2150   22.8680  -29.6890 C   0  0  0  0  0  0  0  0  0  0  0  0
   -2.4580   21.9330  -28.9790 C   0  0  0  0  0  0  0  0  0  0  0  0
   -1.3120   22.3350  -28.2830 C   0  0  0  0  0  0  0  0  0  0  0  0
   -0.5090   21.3320  -27.5090 C   0  0  0  0  0  0  0  0  0  0  0  0
   -0.9590   23.6920  -28.2600 C   0  0  0  0  0  0  0  0  0  0  0  0
   -1.7310   24.6440  -28.9510 C   0  0  0  0  0  0  0  0  0  0  0  0
   -1.3680   26.0340  -28.9700 N   0  0  0  0  0  0  0  0  0  0  0  0
   -0.7960   26.7850  -27.8900 C   0  0  0  0  0  0  0  0  0  0  0  0
   -0.5180   28.0060  -28.0470 O   0  0  0  0  0  0  0  0  0  0  0  0
   -0.4800   26.1150  -26.6070 C   0  0  0  0  0  0  0  0  0  0  0  0
   -1.4960   25.8370  -25.6750 C   0  0  0  0  0  0  0  0  0  0  0  0
   -1.1930   25.2050  -24.4640 C   0  0  0  0  0  0  0  0  0  0  0  0
    0.1220   24.8440  -24.1710 C   0  0  0  0  0  0  0  0  0  0  0  0
    1.1420   25.1140  -25.0880 C   0  0  0  0  0  0  0  0  0  0  0  0
    2.7960   24.6600  -24.7160 Cl  0  0  0  0  0  0  0  0  0  0  0  0
    0.8450   25.7460  -26.3000 C   0  0  0  0  0  0  0  0  0  0  0  0
   -6.9070   23.4810  -30.8540 C   0  0  0  0  0  0  0  0  0  0  0  0
   -8.9374   21.8996  -29.8227 H   0  0  0  0  0  0  0  0  0  0  0  0
   -9.5967   22.6491  -31.3161 H   0  0  0  0  0  0  0  0  0  0  0  0
   -9.1177   20.9178  -31.3161 H   0  0  0  0  0  0  0  0  0  0  0  0
   -7.2505   20.6015  -32.6718 H   0  0  0  0  0  0  0  0  0  0  0  0
   -4.9717   21.2788  -33.4196 H   0  0  0  0  0  0  0  0  0  0  0  0
   -3.9279   23.3614  -32.5355 H   0  0  0  0  0  0  0  0  0  0  0  0
   -4.1098   22.5422  -30.2396 H   0  0  0  0  0  0  0  0  0  0  0  0
   -2.7638   20.8764  -28.9668 H   0  0  0  0  0  0  0  0  0  0  0  0
   -0.6472   21.5046  -26.4314 H   0  0  0  0  0  0  0  0  0  0  0  0
   -0.8466   20.3166  -27.7640 H   0  0  0  0  0  0  0  0  0  0  0  0
    0.5557   21.4393  -27.7640 H   0  0  0  0  0  0  0  0  0  0  0  0
   -0.0709   24.0149  -27.6969 H   0  0  0  0  0  0  0  0  0  0  0  0
   -2.5355   26.1182  -25.8996 H   0  0  0  0  0  0  0  0  0  0  0  0
   -1.9942   24.9922  -23.7409 H   0  0  0  0  0  0  0  0  0  0  0  0
    0.3565   24.3468  -23.2182 H   0  0  0  0  0  0  0  0  0  0  0  0
    1.6511   25.9564  -27.0183 H   0  0  0  0  0  0  0  0  0  0  0  0
   -7.4650   24.1136  -30.1480 H   0  0  0  0  0  0  0  0  0  0  0  0
  1  2  1  0
  2  3  2  0
  3  4  1  0
  4  5  2  0
  5  6  1  0
  6  7  1  0
  7  8  2  0
  7  9  1  0
  9 10  1  0
 10 11  2  0
 11 12  1  0
 12 13  2  0
 13 14  1  0
 13 15  1  0
 15 16  2  0
 16 17  1  0
 17 18  1  0
 18 19  2  0
 18 20  1  0
 20 21  2  0
 21 22  1  0
 22 23  2  0
 23 24  1  0
 24 25  1  0
 24 26  2  0
  6 27  2  0
 27  2  1  0
 16 10  1  0
 26 20  1  0
  1 28  1  0
  1 29  1  0
  1 30  1  0
  3 31  1  0
  4 32  1  0
  5 33  1  0
 11 34  1  0
 12 35  1  0
 14 36  1  0
 14 37  1  0
 14 38  1  0
 15 39  1  0
 21 40  1  0
 22 41  1  0
 23 42  1  0
 26 43  1  0
 27 44  1  0
M  CHG  2   9  -1  17  -1
M  END
>  <UniqueID>  (44) 
43

>  <SMILES>  (44) 
Cc1cccc(C(=O)[N-]c2ccc(C)cc2[N-]C(=O)c2cccc(Cl)c2)c1

>  <Energy>  (44) 
56.47113053266051

>  <Genealogy>  (44) 
Cc1cccc(C(=O)[N-]c2ccc(C)cc2[N-]C(=O)c2cccc(Cl)c2)c1 (protonated)
Cc1cccc(C(=O)[N-]c2ccc(C)cc2[N-]C(=O)c2cccc(Cl)c2)c1 (3D coordinates assigned)
Cc1cccc(C(=O)[N-]c2ccc(C)cc2[N-]C(=O)c2cccc(Cl)c2)c1 (optimized conformer: 56.47113053266051 kcal/mol)

>  <smiles>  (44) 
Cc1cccc(C(=O)Nc2ccc(C)cc2NC(=O)c2cccc(Cl)c2)c1

>  <score_type>  (44) 
oracle

>  <origin>  (44) 
adgpu

>  <m_score__min__energy>  (44) 
-11.68

>  <m_primary>  (44) 
energy

$$$$
44:0
     RDKit          3D

 45 46  0  0  0  0  0  0  0  0999 V2000
    2.5880   25.0260  -36.4520 C   0  0  0  0  0  0  0  0  0  0  0  0
    2.4040   23.6570  -36.7970 O   0  0  0  0  0  0  0  0  0  0  0  0
    1.8150   22.7020  -35.9550 C   0  0  0  0  0  0  0  0  0  0  0  0
    2.5610   21.6840  -35.3310 C   0  0  0  0  0  0  0  0  0  0  0  0
    1.9270   20.7540  -34.5010 C   0  0  0  0  0  0  0  0  0  0  0  0
    0.5450   20.8320  -34.2810 C   0  0  0  0  0  0  0  0  0  0  0  0
   -0.1050   19.8680  -33.4420 N   0  0  0  0  0  0  0  0  0  0  0  0
   -1.1690   19.0210  -33.9860 C   0  0  0  0  0  0  0  0  0  0  0  0
   -2.5110   19.6360  -33.7340 C   0  0  0  0  0  0  0  0  0  0  0  0
   -3.4800   19.3330  -34.4820 O   0  0  0  0  0  0  0  0  0  0  0  0
   -2.7000   20.5070  -32.6080 N   0  0  0  0  0  0  0  0  0  0  0  0
   -3.9190   21.2190  -32.3380 C   0  0  0  0  0  0  0  0  0  0  0  0
   -5.1420   20.6670  -32.7490 C   0  0  0  0  0  0  0  0  0  0  0  0
   -6.3410   21.3330  -32.4880 C   0  0  0  0  0  0  0  0  0  0  0  0
   -6.3340   22.5480  -31.7990 C   0  0  0  0  0  0  0  0  0  0  0  0
   -5.1230   23.0960  -31.3540 C   0  0  0  0  0  0  0  0  0  0  0  0
   -5.1050   24.6230  -30.4760 S   0  0  0  0  0  0  0  0  0  0  0  0
   -3.5100   25.2860  -30.5070 N   0  0  0  0  0  0  0  0  0  0  0  0
   -5.5290   24.3930  -29.0530 O   0  0  0  0  0  0  0  0  0  0  0  0
   -6.0590   25.5940  -31.1130 O   0  0  0  0  0  0  0  0  0  0  0  0
   -3.9190   22.4310  -31.6230 C   0  0  0  0  0  0  0  0  0  0  0  0
    0.1820   19.9120  -31.7290 S   0  0  0  0  0  0  0  0  0  0  0  0
    1.8490   19.3930  -31.3780 C   0  0  0  0  0  0  0  0  0  0  0  0
   -0.0300   21.3080  -31.2180 O   0  0  0  0  0  0  0  0  0  0  0  0
   -0.7610   18.9740  -31.0290 O   0  0  0  0  0  0  0  0  0  0  0  0
   -0.2000   21.8400  -34.9060 C   0  0  0  0  0  0  0  0  0  0  0  0
    0.4330   22.7690  -35.7360 C   0  0  0  0  0  0  0  0  0  0  0  0
    2.6019   25.1295  -35.3570 H   0  0  0  0  0  0  0  0  0  0  0  0
    3.5423   25.3835  -36.8662 H   0  0  0  0  0  0  0  0  0  0  0  0
    1.7620   25.6227  -36.8662 H   0  0  0  0  0  0  0  0  0  0  0  0
    3.6465   21.6199  -35.4969 H   0  0  0  0  0  0  0  0  0  0  0  0
    2.5148   19.9588  -34.0193 H   0  0  0  0  0  0  0  0  0  0  0  0
   -1.0214   18.9062  -35.0700 H   0  0  0  0  0  0  0  0  0  0  0  0
   -1.1295   18.0393  -33.4913 H   0  0  0  0  0  0  0  0  0  0  0  0
   -1.9480   20.5330  -31.8820 H   0  0  0  0  0  0  0  0  0  0  0  0
   -5.1561   19.7038  -33.2800 H   0  0  0  0  0  0  0  0  0  0  0  0
   -7.2939   20.8996  -32.8259 H   0  0  0  0  0  0  0  0  0  0  0  0
   -7.2798   23.0753  -31.6054 H   0  0  0  0  0  0  0  0  0  0  0  0
   -3.5120   26.0530  -31.2170 H   0  0  0  0  0  0  0  0  0  0  0  0
   -2.9681   22.8591  -31.2730 H   0  0  0  0  0  0  0  0  0  0  0  0
    1.9971   19.3469  -30.2890 H   0  0  0  0  0  0  0  0  0  0  0  0
    2.0228   18.3982  -31.8141 H   0  0  0  0  0  0  0  0  0  0  0  0
    2.5568   20.1133  -31.8141 H   0  0  0  0  0  0  0  0  0  0  0  0
   -1.2862   21.9005  -34.7431 H   0  0  0  0  0  0  0  0  0  0  0  0
   -0.1586   23.5592  -36.2213 H   0  0  0  0  0  0  0  0  0  0  0  0
  1  2  1  0
  2  3  1  0
  3  4  2  0
  4  5  1  0
  5  6  2  0
  6  7  1  0
  7  8  1  0
  8  9  1  0
  9 10  2  0
  9 11  1  0
 11 12  1  0
 12 13  2  0
 13 14  1  0
 14 15  2  0
 15 16  1  0
 16 17  1  0
 17 18  1  0
 17 19  2  0
 17 20  2  0
 16 21  2  0
  7 22  1  0
 22 23  1  0
 22 24  2  0
 22 25  2  0
  6 26  1  0
 26 27  2  0
 27  3  1  0
 21 12  1  0
  1 28  1  0
  1 29  1  0
  1 30  1  0
  4 31  1  0
  5 32  1  0
  8 33  1  0
  8 34  1  0
 11 35  1  0
 13 36  1  0
 14 37  1  0
 15 38  1  0
 18 39  1  0
 21 40  1  0
 23 41  1  0
 23 42  1  0
 23 43  1  0
 26 44  1  0
 27 45  1  0
M  CHG  1  18  -1
M  END
>  <UniqueID>  (45) 
44

>  <SMILES>  (45) 
COc1ccc(N(CC(=O)Nc2cccc(S([NH-])(=O)=O)c2)S(C)(=O)=O)cc1

>  <Energy>  (45) 
47.275798946117064

>  <Genealogy>  (45) 
COc1ccc(N(CC(=O)Nc2cccc(S([NH-])(=O)=O)c2)S(C)(=O)=O)cc1 (protonated)
COc1ccc(N(CC(=O)Nc2cccc(S([NH-])(=O)=O)c2)S(C)(=O)=O)cc1 (3D coordinates assigned)
COc1ccc(N(CC(=O)Nc2cccc(S([NH-])(=O)=O)c2)S(C)(=O)=O)cc1 (optimized conformer: 47.275798946117064 kcal/mol)

>  <smiles>  (45) 
COc1ccc(N(CC(=O)Nc2cccc(S(N)(=O)=O)c2)S(C)(=O)=O)cc1

>  <score_type>  (45) 
oracle

>  <origin>  (45) 
adgpu

>  <m_score__min__energy>  (45) 
-10.970000000000001

>  <m_primary>  (45) 
energy

$$$$
45:0
     RDKit          3D

 40 43  0  0  0  0  0  0  0  0999 V2000
    2.6050   19.9420  -36.8600 C   0  0  0  0  0  0  0  0  0  0  0  0
    1.5470   19.0370  -36.2930 C   0  0  0  0  0  0  0  0  0  0  0  0
    0.5180   19.5710  -35.4980 C   0  0  0  0  0  0  0  0  0  0  0  0
   -0.4830   18.7400  -34.9580 C   0  0  0  0  0  0  0  0  0  0  0  0
   -1.5750   19.2930  -34.1190 C   0  0  0  0  0  0  0  0  0  0  0  0
   -2.9280   19.0030  -34.2070 C   0  0  0  0  0  0  0  0  0  0  0  0
   -3.5140   19.7780  -33.2260 C   0  0  0  0  0  0  0  0  0  0  0  0
   -4.9690   19.8750  -32.9880 C   0  0  0  0  0  0  0  0  0  0  0  0
   -5.7730   18.7290  -33.0760 C   0  0  0  0  0  0  0  0  0  0  0  0
   -7.1530   18.8180  -32.8720 C   0  0  0  0  0  0  0  0  0  0  0  0
   -7.7420   20.0560  -32.5940 C   0  0  0  0  0  0  0  0  0  0  0  0
   -9.4740   20.1670  -32.3370 Cl  0  0  0  0  0  0  0  0  0  0  0  0
   -6.9500   21.2060  -32.5280 C   0  0  0  0  0  0  0  0  0  0  0  0
   -5.5700   21.1190  -32.7340 C   0  0  0  0  0  0  0  0  0  0  0  0
   -2.5440   20.4740  -32.5860 N   0  0  0  0  0  0  0  0  0  0  0  0
   -2.6760   21.3230  -31.4370 C   0  0  0  0  0  0  0  0  0  0  0  0
   -2.8350   22.6620  -31.5030 N   0  0  0  0  0  0  0  0  0  0  0  0
   -2.9870   23.2150  -30.2680 C   0  0  0  0  0  0  0  0  0  0  0  0
   -3.1610   24.6620  -30.0880 C   0  0  0  0  0  0  0  0  0  0  0  0
   -2.4180   25.2930  -29.2900 O   0  0  0  0  0  0  0  0  0  0  0  0
   -4.1450   25.3450  -30.7910 O   0  0  0  0  0  0  0  0  0  0  0  0
   -2.9640   22.3100  -29.2090 C   0  0  0  0  0  0  0  0  0  0  0  0
   -2.7480   20.7680  -29.8510 S   0  0  0  0  0  0  0  0  0  0  0  0
   -1.3720   20.1850  -33.1270 N   0  0  0  0  0  0  0  0  0  0  0  0
   -0.4380   17.3620  -35.2270 C   0  0  0  0  0  0  0  0  0  0  0  0
    0.5810   16.8260  -36.0150 C   0  0  0  0  0  0  0  0  0  0  0  0
    1.5730   17.6520  -36.5490 C   0  0  0  0  0  0  0  0  0  0  0  0
    2.8350   16.9220  -37.5360 Cl  0  0  0  0  0  0  0  0  0  0  0  0
    3.1603   20.4170  -36.0378 H   0  0  0  0  0  0  0  0  0  0  0  0
    3.2982   19.3531  -37.4785 H   0  0  0  0  0  0  0  0  0  0  0  0
    2.1306   20.7181  -37.4785 H   0  0  0  0  0  0  0  0  0  0  0  0
    0.4942   20.6518  -35.2950 H   0  0  0  0  0  0  0  0  0  0  0  0
   -3.4238   18.3102  -34.9029 H   0  0  0  0  0  0  0  0  0  0  0  0
   -5.3154   17.7557  -33.3066 H   0  0  0  0  0  0  0  0  0  0  0  0
   -7.7765   17.9136  -32.9301 H   0  0  0  0  0  0  0  0  0  0  0  0
   -7.4131   22.1805  -32.3137 H   0  0  0  0  0  0  0  0  0  0  0  0
   -4.9523   22.0284  -32.6970 H   0  0  0  0  0  0  0  0  0  0  0  0
   -3.0684   22.5585  -28.1425 H   0  0  0  0  0  0  0  0  0  0  0  0
   -1.2127   16.6999  -34.8129 H   0  0  0  0  0  0  0  0  0  0  0  0
    0.6034   15.7450  -36.2173 H   0  0  0  0  0  0  0  0  0  0  0  0
  1  2  1  0
  2  3  2  0
  3  4  1  0
  4  5  1  0
  5  6  1  0
  6  7  2  0
  7  8  1  0
  8  9  2  0
  9 10  1  0
 10 11  2  0
 11 12  1  0
 11 13  1  0
 13 14  2  0
  7 15  1  0
 15 16  1  0
 16 17  2  0
 17 18  1  0
 18 19  1  0
 19 20  2  0
 19 21  1  0
 18 22  2  0
 22 23  1  0
 15 24  1  0
  4 25  2  0
 25 26  1  0
 26 27  2  0
 27 28  1  0
 27  2  1  0
 24  5  2  0
 14  8  1  0
 23 16  1  0
  1 29  1  0
  1 30  1  0
  1 31  1  0
  3 32  1  0
  6 33  1  0
  9 34  1  0
 10 35  1  0
 13 36  1  0
 14 37  1  0
 22 38  1  0
 25 39  1  0
 26 40  1  0
M  CHG  1  21  -1
M  END
>  <UniqueID>  (46) 
45

>  <SMILES>  (46) 
Cc1cc(-c2cc(-c3ccc(Cl)cc3)n(-c3nc(C(=O)[O-])cs3)n2)ccc1Cl

>  <Energy>  (46) 
111.65128688606922

>  <Genealogy>  (46) 
Cc1cc(-c2cc(-c3ccc(Cl)cc3)n(-c3nc(C(=O)[O-])cs3)n2)ccc1Cl (protonated)
Cc1cc(-c2cc(-c3ccc(Cl)cc3)n(-c3nc(C(=O)[O-])cs3)n2)ccc1Cl (3D coordinates assigned)
Cc1cc(-c2cc(-c3ccc(Cl)cc3)n(-c3nc(C(=O)[O-])cs3)n2)ccc1Cl (optimized conformer: 111.65128688606922 kcal/mol)

>  <smiles>  (46) 
Cc1cc(-c2cc(-c3ccc(Cl)cc3)n(-c3nc(C(=O)O)cs3)n2)ccc1Cl

>  <score_type>  (46) 
oracle

>  <origin>  (46) 
adgpu

>  <m_score__min__energy>  (46) 
-10.220000000000001

>  <m_primary>  (46) 
energy

$$$$
46:0
     RDKit          3D

 45 47  0  0  0  0  0  0  0  0999 V2000
   -1.4350   25.6670  -29.1780 O   0  0  0  0  0  0  0  0  0  0  0  0
   -2.3980   24.8630  -29.2980 C   0  0  0  0  0  0  0  0  0  0  0  0
   -2.4280   23.6160  -28.5040 C   0  0  0  0  0  0  0  0  0  0  0  0
   -1.8870   22.4730  -28.9470 C   0  0  0  0  0  0  0  0  0  0  0  0
   -1.8990   21.2070  -28.1740 C   0  0  0  0  0  0  0  0  0  0  0  0
   -0.7640   20.3820  -28.0400 C   0  0  0  0  0  0  0  0  0  0  0  0
   -0.8360   19.2090  -27.2880 C   0  0  0  0  0  0  0  0  0  0  0  0
   -2.0350   18.8670  -26.6640 C   0  0  0  0  0  0  0  0  0  0  0  0
   -3.1190   19.6770  -26.7850 N   0  0  0  0  0  0  0  0  0  0  0  0
   -3.0770   20.8260  -27.5120 C   0  0  0  0  0  0  0  0  0  0  0  0
   -3.4880   25.2180  -30.1590 N   0  0  0  0  0  0  0  0  0  0  0  0
   -4.6480   24.4180  -30.4240 C   0  0  0  0  0  0  0  0  0  0  0  0
   -4.5470   23.1520  -31.0260 C   0  0  0  0  0  0  0  0  0  0  0  0
   -5.6970   22.4010  -31.2830 C   0  0  0  0  0  0  0  0  0  0  0  0
   -6.9610   22.9140  -30.9620 C   0  0  0  0  0  0  0  0  0  0  0  0
   -8.4120   21.9530  -31.2410 S   0  0  0  0  0  0  0  0  0  0  0  0
   -9.2420   22.5760  -32.3300 O   0  0  0  0  0  0  0  0  0  0  0  0
   -9.2310   21.9200  -29.9810 O   0  0  0  0  0  0  0  0  0  0  0  0
   -7.9830   20.3290  -31.6860 N   0  0  0  0  0  0  0  0  0  0  0  0
   -7.5170   20.3010  -33.0740 C   0  0  0  0  0  0  0  0  0  0  0  0
   -6.8140   19.0000  -33.3450 C   0  0  0  0  0  0  0  0  0  0  0  0
   -5.7700   18.9330  -34.2800 C   0  0  0  0  0  0  0  0  0  0  0  0
   -5.1040   17.7250  -34.4950 C   0  0  0  0  0  0  0  0  0  0  0  0
   -5.4800   16.5970  -33.7640 C   0  0  0  0  0  0  0  0  0  0  0  0
   -6.4820   16.6810  -32.8500 N   0  0  0  0  0  0  0  0  0  0  0  0
   -7.1470   17.8450  -32.6220 C   0  0  0  0  0  0  0  0  0  0  0  0
   -7.0640   24.1860  -30.3850 C   0  0  0  0  0  0  0  0  0  0  0  0
   -5.9140   24.9380  -30.1300 C   0  0  0  0  0  0  0  0  0  0  0  0
   -2.9110   23.6270  -27.5158 H   0  0  0  0  0  0  0  0  0  0  0  0
   -1.4081   22.4735  -29.9373 H   0  0  0  0  0  0  0  0  0  0  0  0
    0.1802   20.6635  -28.5292 H   0  0  0  0  0  0  0  0  0  0  0  0
    0.0460   18.5593  -27.1882 H   0  0  0  0  0  0  0  0  0  0  0  0
   -2.1033   17.9413  -26.0737 H   0  0  0  0  0  0  0  0  0  0  0  0
   -3.9724   21.4611  -27.5817 H   0  0  0  0  0  0  0  0  0  0  0  0
   -3.5589   22.7508  -31.2959 H   0  0  0  0  0  0  0  0  0  0  0  0
   -5.6098   21.4037  -31.7388 H   0  0  0  0  0  0  0  0  0  0  0  0
   -7.1870   20.0480  -31.0690 H   0  0  0  0  0  0  0  0  0  0  0  0
   -8.3783   20.3995  -33.7512 H   0  0  0  0  0  0  0  0  0  0  0  0
   -6.8191   21.1346  -33.2414 H   0  0  0  0  0  0  0  0  0  0  0  0
   -5.4766   19.8313  -34.8430 H   0  0  0  0  0  0  0  0  0  0  0  0
   -4.2909   17.6628  -35.2333 H   0  0  0  0  0  0  0  0  0  0  0  0
   -4.9647   15.6391  -33.9279 H   0  0  0  0  0  0  0  0  0  0  0  0
   -7.9479   17.8809  -31.8689 H   0  0  0  0  0  0  0  0  0  0  0  0
   -8.0534   24.5945  -30.1317 H   0  0  0  0  0  0  0  0  0  0  0  0
   -6.0042   25.9446  -29.6956 H   0  0  0  0  0  0  0  0  0  0  0  0
  1  2  2  0
  2  3  1  0
  3  4  2  3
  4  5  1  0
  5  6  2  0
  6  7  1  0
  7  8  2  0
  8  9  1  0
  9 10  2  0
  2 11  1  0
 11 12  1  0
 12 13  2  0
 13 14  1  0
 14 15  2  0
 15 16  1  0
 16 17  2  0
 16 18  2  0
 16 19  1  0
 19 20  1  0
 20 21  1  0
 21 22  2  0
 22 23  1  0
 23 24  2  0
 24 25  1  0
 25 26  2  0
 15 27  1  0
 27 28  2  0
 10  5  1  0
 28 12  1  0
 26 21  1  0
  3 29  1  0
  4 30  1  0
  6 31  1  0
  7 32  1  0
  8 33  1  0
 10 34  1  0
 13 35  1  0
 14 36  1  0
 19 37  1  0
 20 38  1  0
 20 39  1  0
 22 40  1  0
 23 41  1  0
 24 42  1  0
 26 43  1  0
 27 44  1  0
 28 45  1  0
M  CHG  1  11  -1
M  END
>  <UniqueID>  (47) 
46

>  <SMILES>  (47) 
O=C(C=Cc1cccnc1)[N-]c1ccc(S(=O)(=O)NCc2cccnc2)cc1

>  <Energy>  (47) 
52.130749885384475

>  <Genealogy>  (47) 
O=C(C=Cc1cccnc1)[N-]c1ccc(S(=O)(=O)NCc2cccnc2)cc1 (protonated)
O=C(C=Cc1cccnc1)[N-]c1ccc(S(=O)(=O)NCc2cccnc2)cc1 (3D coordinates assigned)
O=C(C=Cc1cccnc1)[N-]c1ccc(S(=O)(=O)NCc2cccnc2)cc1 (optimized conformer: 52.130749885384475 kcal/mol)

>  <smiles>  (47) 
O=C(C=Cc1cccnc1)Nc1ccc(S(=O)(=O)NCc2cccnc2)cc1

>  <score_type>  (47) 
oracle

>  <origin>  (47) 
adgpu

>  <m_score__min__energy>  (47) 
-11.880000000000001

>  <m_primary>  (47) 
energy

$$$$
47:0
     RDKit          3D

 24 26  0  0  0  0  0  0  0  0999 V2000
    2.9420   24.4250  -28.4390 H   0  0  0  0  0  0  0  0  0  0  0  0
    2.3690   24.5840  -27.5790 N   0  0  0  0  0  0  0  0  0  0  0  0
    1.0780   24.5140  -27.6120 C   0  0  0  0  0  0  0  0  0  0  0  0
    0.3890   24.2350  -28.7510 N   0  0  0  0  0  0  0  0  0  0  0  0
   -0.8750   24.2700  -28.3110 C   0  0  0  0  0  0  0  0  0  0  0  0
   -1.9910   24.0560  -29.0480 N   0  0  0  0  0  0  0  0  0  0  0  0
   -3.2310   24.1230  -28.4630 C   0  0  0  0  0  0  0  0  0  0  0  0
   -4.4540   23.8810  -29.3100 C   0  0  0  0  0  0  0  0  0  0  0  0
   -5.3850   22.8630  -28.9880 C   0  0  0  0  0  0  0  0  0  0  0  0
   -5.2138   22.2348  -28.1014 H   0  0  0  0  0  0  0  0  0  0  0  0
   -6.5170   22.6430  -29.7770 C   0  0  0  0  0  0  0  0  0  0  0  0
   -7.2248   21.8449  -29.5085 H   0  0  0  0  0  0  0  0  0  0  0  0
   -6.7530   23.4290  -30.9010 C   0  0  0  0  0  0  0  0  0  0  0  0
   -7.6464   23.2540  -31.5184 H   0  0  0  0  0  0  0  0  0  0  0  0
   -5.8560   24.4370  -31.2420 C   0  0  0  0  0  0  0  0  0  0  0  0
   -6.0441   25.0560  -32.1317 H   0  0  0  0  0  0  0  0  0  0  0  0
   -4.7180   24.6700  -30.4640 C   0  0  0  0  0  0  0  0  0  0  0  0
   -3.8630   25.6940  -30.8600 O   0  0  0  0  0  0  0  0  0  0  0  0
   -3.3060   24.4220  -27.0650 C   0  0  0  0  0  0  0  0  0  0  0  0
   -4.2868   24.4816  -26.5705 H   0  0  0  0  0  0  0  0  0  0  0  0
   -2.1330   24.6400  -26.3200 C   0  0  0  0  0  0  0  0  0  0  0  0
   -2.1742   24.8709  -25.2453 H   0  0  0  0  0  0  0  0  0  0  0  0
   -0.9230   24.5530  -26.9910 C   0  0  0  0  0  0  0  0  0  0  0  0
    0.3160   24.7170  -26.5050 N   0  0  0  0  0  0  0  0  0  0  0  0
  1  2  1  0
  2  3  2  0
  3  4  1  0
  4  5  1  0
  5  6  2  0
  6  7  1  0
  7  8  1  0
  8  9  2  0
  9 10  1  0
  9 11  1  0
 11 12  1  0
 11 13  2  0
 13 14  1  0
 13 15  1  0
 15 16  1  0
 15 17  2  0
 17 18  1  0
  7 19  2  0
 19 20  1  0
 19 21  1  0
 21 22  1  0
 21 23  2  0
 23 24  1  0
 24  3  1  0
 23  5  1  0
 17  8  1  0
M  CHG  3   4  -1  18  -1  24  -1
M  END
>  <UniqueID>  (48) 
47

>  <SMILES>  (48) 
[H]/N=c1/[n-]c2ccc(-c3ccccc3[O-])nc2[n-]1

>  <Energy>  (48) 
71.4819725200359

>  <Genealogy>  (48) 
N=c1[n-]c2ccc(-c3ccccc3[O-])nc2[n-]1 (protonated)
[H]/N=c1/[n-]c2ccc(-c3ccccc3[O-])nc2[n-]1 (cis-trans isomerization)
[H]/N=c1/[n-]c2ccc(-c3ccccc3[O-])nc2[n-]1 (3D coordinates assigned)
[H]/N=c1/[n-]c2ccc(-c3ccccc3[O-])nc2[n-]1 (optimized conformer: 71.4819725200359 kcal/mol)

>  <smiles>  (48) 
N=c1[nH]c2ccc(-c3ccccc3O)nc2[nH]1

>  <score_type>  (48) 
oracle

>  <origin>  (48) 
adgpu

>  <m_score__min__energy>  (48) 
-10.68

>  <m_primary>  (48) 
energy

$$$$
48:0
     RDKit          3D

 47 49  0  0  0  0  0  0  0  0999 V2000
   -9.7020   20.5060  -32.3340 C   0  0  0  0  0  0  0  0  0  0  0  0
   -8.9400   19.3040  -32.3850 O   0  0  0  0  0  0  0  0  0  0  0  0
   -7.5460   19.2560  -32.5220 C   0  0  0  0  0  0  0  0  0  0  0  0
   -6.8290   20.2000  -33.2790 C   0  0  0  0  0  0  0  0  0  0  0  0
   -5.4380   20.1070  -33.3880 C   0  0  0  0  0  0  0  0  0  0  0  0
   -4.7340   19.0620  -32.7620 C   0  0  0  0  0  0  0  0  0  0  0  0
   -3.2920   18.9690  -32.8630 N   0  0  0  0  0  0  0  0  0  0  0  0
   -2.6330   17.6610  -32.8270 C   0  0  0  0  0  0  0  0  0  0  0  0
   -2.3000   20.4000  -32.9740 S   0  0  0  0  0  0  0  0  0  0  0  0
   -0.9560   20.0280  -33.5360 O   0  0  0  0  0  0  0  0  0  0  0  0
   -2.9420   21.4040  -33.8900 O   0  0  0  0  0  0  0  0  0  0  0  0
   -2.1260   21.1550  -31.3900 C   0  0  0  0  0  0  0  0  0  0  0  0
   -1.5010   20.4740  -30.3370 C   0  0  0  0  0  0  0  0  0  0  0  0
   -1.3230   21.1030  -29.1030 C   0  0  0  0  0  0  0  0  0  0  0  0
   -1.7590   22.4170  -28.9150 C   0  0  0  0  0  0  0  0  0  0  0  0
   -2.3990   23.1080  -29.9580 C   0  0  0  0  0  0  0  0  0  0  0  0
   -2.8240   24.5130  -29.7680 C   0  0  0  0  0  0  0  0  0  0  0  0
   -2.1280   25.2820  -29.0520 O   0  0  0  0  0  0  0  0  0  0  0  0
   -3.9830   25.0430  -30.4240 N   0  0  0  0  0  0  0  0  0  0  0  0
   -5.1980   24.3230  -30.6700 C   0  0  0  0  0  0  0  0  0  0  0  0
   -5.7320   24.2010  -31.9660 C   0  0  0  0  0  0  0  0  0  0  0  0
   -6.8850   23.4420  -32.1820 C   0  0  0  0  0  0  0  0  0  0  0  0
   -7.5150   22.8040  -31.1100 C   0  0  0  0  0  0  0  0  0  0  0  0
   -6.9880   22.9180  -29.8210 C   0  0  0  0  0  0  0  0  0  0  0  0
   -5.8270   23.6670  -29.6030 C   0  0  0  0  0  0  0  0  0  0  0  0
   -2.5820   22.4650  -31.1950 C   0  0  0  0  0  0  0  0  0  0  0  0
   -5.4620   18.1240  -32.0030 C   0  0  0  0  0  0  0  0  0  0  0  0
   -6.8500   18.2290  -31.8800 C   0  0  0  0  0  0  0  0  0  0  0  0
   -9.8783   20.7841  -31.2844 H   0  0  0  0  0  0  0  0  0  0  0  0
   -9.1496   21.3121  -32.8391 H   0  0  0  0  0  0  0  0  0  0  0  0
  -10.6667   20.3503  -32.8391 H   0  0  0  0  0  0  0  0  0  0  0  0
   -7.3648   21.0150  -33.7875 H   0  0  0  0  0  0  0  0  0  0  0  0
   -4.8873   20.8603  -33.9705 H   0  0  0  0  0  0  0  0  0  0  0  0
   -2.4795   17.3564  -31.7812 H   0  0  0  0  0  0  0  0  0  0  0  0
   -3.2644   16.9181  -33.3364 H   0  0  0  0  0  0  0  0  0  0  0  0
   -1.6602   17.7264  -33.3364 H   0  0  0  0  0  0  0  0  0  0  0  0
   -1.1498   19.4418  -30.4826 H   0  0  0  0  0  0  0  0  0  0  0  0
   -0.8382   20.5625  -28.2767 H   0  0  0  0  0  0  0  0  0  0  0  0
   -1.6006   22.9130  -27.9460 H   0  0  0  0  0  0  0  0  0  0  0  0
   -5.2404   24.7045  -32.8114 H   0  0  0  0  0  0  0  0  0  0  0  0
   -7.2975   23.3465  -33.1973 H   0  0  0  0  0  0  0  0  0  0  0  0
   -8.4261   22.2119  -31.2811 H   0  0  0  0  0  0  0  0  0  0  0  0
   -7.4864   22.4184  -28.9772 H   0  0  0  0  0  0  0  0  0  0  0  0
   -5.4057   23.7415  -28.5896 H   0  0  0  0  0  0  0  0  0  0  0  0
   -3.0872   22.9949  -32.0160 H   0  0  0  0  0  0  0  0  0  0  0  0
   -4.9320   17.3005  -31.5021 H   0  0  0  0  0  0  0  0  0  0  0  0
   -7.3999   17.4958  -31.2717 H   0  0  0  0  0  0  0  0  0  0  0  0
  1  2  1  0
  2  3  1  0
  3  4  2  0
  4  5  1  0
  5  6  2  0
  6  7  1  0
  7  8  1  0
  7  9  1  0
  9 10  2  0
  9 11  2  0
  9 12  1  0
 12 13  2  0
 13 14  1  0
 14 15  2  0
 15 16  1  0
 16 17  1  0
 17 18  2  0
 17 19  1  0
 19 20  1  0
 20 21  2  0
 21 22  1  0
 22 23  2  0
 23 24  1  0
 24 25  2  0
 16 26  2  0
  6 27  1  0
 27 28  2  0
 28  3  1  0
 26 12  1  0
 25 20  1  0
  1 29  1  0
  1 30  1  0
  1 31  1  0
  4 32  1  0
  5 33  1  0
  8 34  1  0
  8 35  1  0
  8 36  1  0
 13 37  1  0
 14 38  1  0
 15 39  1  0
 21 40  1  0
 22 41  1  0
 23 42  1  0
 24 43  1  0
 25 44  1  0
 26 45  1  0
 27 46  1  0
 28 47  1  0
M  CHG  1  19  -1
M  END
>  <UniqueID>  (49) 
48

>  <SMILES>  (49) 
COc1ccc(N(C)S(=O)(=O)c2cccc(C(=O)[N-]c3ccccc3)c2)cc1

>  <Energy>  (49) 
56.48470484148576

>  <Genealogy>  (49) 
COc1ccc(N(C)S(=O)(=O)c2cccc(C(=O)[N-]c3ccccc3)c2)cc1 (protonated)
COc1ccc(N(C)S(=O)(=O)c2cccc(C(=O)[N-]c3ccccc3)c2)cc1 (3D coordinates assigned)
COc1ccc(N(C)S(=O)(=O)c2cccc(C(=O)[N-]c3ccccc3)c2)cc1 (optimized conformer: 56.48470484148576 kcal/mol)

>  <smiles>  (49) 
COc1ccc(N(C)S(=O)(=O)c2cccc(C(=O)Nc3ccccc3)c2)cc1

>  <score_type>  (49) 
oracle

>  <origin>  (49) 
adgpu

>  <m_score__min__energy>  (49) 
-10.19

>  <m_primary>  (49) 
energy

$$$$
49:0
     RDKit          3D

 46 49  0  0  0  0  0  0  0  0999 V2000
   -0.5550   21.9970  -28.8070 C   0  0  0  0  0  0  0  0  0  0  0  0
    0.5280   22.8640  -27.6910 S   0  0  0  0  0  0  0  0  0  0  0  0
    1.7830   22.0730  -27.4560 O   0  0  0  0  0  0  0  0  0  0  0  0
    0.8970   24.1840  -28.3060 O   0  0  0  0  0  0  0  0  0  0  0  0
   -0.2800   23.1600  -26.1850 N   0  0  0  0  0  0  0  0  0  0  0  0
   -0.4360   24.4340  -25.5400 C   0  0  0  0  0  0  0  0  0  0  0  0
    0.4210   24.8400  -24.5000 C   0  0  0  0  0  0  0  0  0  0  0  0
    0.2240   26.0620  -23.8540 C   0  0  0  0  0  0  0  0  0  0  0  0
   -0.8280   26.8940  -24.2350 C   0  0  0  0  0  0  0  0  0  0  0  0
   -1.6830   26.5090  -25.2680 C   0  0  0  0  0  0  0  0  0  0  0  0
   -1.4950   25.2860  -25.9350 C   0  0  0  0  0  0  0  0  0  0  0  0
   -2.4150   24.9150  -27.0370 C   0  0  0  0  0  0  0  0  0  0  0  0
   -1.9630   24.9060  -28.3640 C   0  0  0  0  0  0  0  0  0  0  0  0
   -2.8240   24.5470  -29.4060 C   0  0  0  0  0  0  0  0  0  0  0  0
   -4.1560   24.1820  -29.1400 C   0  0  0  0  0  0  0  0  0  0  0  0
   -5.0900   23.8000  -30.2290 C   0  0  0  0  0  0  0  0  0  0  0  0
   -5.7390   22.6140  -30.2550 N   0  0  0  0  0  0  0  0  0  0  0  0
   -6.4730   22.6520  -31.3870 C   0  0  0  0  0  0  0  0  0  0  0  0
   -7.3580   21.5470  -31.8290 C   0  0  0  0  0  0  0  0  0  0  0  0
   -8.7560   21.6980  -31.7590 C   0  0  0  0  0  0  0  0  0  0  0  0
   -9.6040   20.6660  -32.1710 C   0  0  0  0  0  0  0  0  0  0  0  0
   -9.0690   19.4720  -32.6590 C   0  0  0  0  0  0  0  0  0  0  0  0
   -7.6840   19.3090  -32.7350 C   0  0  0  0  0  0  0  0  0  0  0  0
   -6.8310   20.3370  -32.3230 C   0  0  0  0  0  0  0  0  0  0  0  0
   -6.2550   23.8570  -32.0270 C   0  0  0  0  0  0  0  0  0  0  0  0
   -5.3870   24.5710  -31.2970 N   0  0  0  0  0  0  0  0  0  0  0  0
   -4.6030   24.1850  -27.8060 C   0  0  0  0  0  0  0  0  0  0  0  0
   -3.7420   24.5430  -26.7650 C   0  0  0  0  0  0  0  0  0  0  0  0
   -1.2855   21.4122  -28.2287 H   0  0  0  0  0  0  0  0  0  0  0  0
   -1.0856   22.7227  -29.4409 H   0  0  0  0  0  0  0  0  0  0  0  0
    0.0370   21.3204  -29.4409 H   0  0  0  0  0  0  0  0  0  0  0  0
    1.2531   24.1890  -24.1935 H   0  0  0  0  0  0  0  0  0  0  0  0
    0.9003   26.3691  -23.0426 H   0  0  0  0  0  0  0  0  0  0  0  0
   -0.9838   27.8540  -23.7211 H   0  0  0  0  0  0  0  0  0  0  0  0
   -2.5121   27.1688  -25.5633 H   0  0  0  0  0  0  0  0  0  0  0  0
   -0.9224   25.1836  -28.5876 H   0  0  0  0  0  0  0  0  0  0  0  0
   -2.4562   24.5501  -30.4427 H   0  0  0  0  0  0  0  0  0  0  0  0
   -9.1846   22.6362  -31.3768 H   0  0  0  0  0  0  0  0  0  0  0  0
  -10.6948   20.7947  -32.1107 H   0  0  0  0  0  0  0  0  0  0  0  0
   -9.7376   18.6609  -32.9831 H   0  0  0  0  0  0  0  0  0  0  0  0
   -7.2630   18.3686  -33.1203 H   0  0  0  0  0  0  0  0  0  0  0  0
   -5.7413   20.2005  -32.3848 H   0  0  0  0  0  0  0  0  0  0  0  0
   -6.7152   24.1758  -32.9739 H   0  0  0  0  0  0  0  0  0  0  0  0
   -5.0280   25.5220  -31.5350 H   0  0  0  0  0  0  0  0  0  0  0  0
   -5.6417   23.9024  -27.5798 H   0  0  0  0  0  0  0  0  0  0  0  0
   -4.1055   24.5334  -25.7268 H   0  0  0  0  0  0  0  0  0  0  0  0
  1  2  1  0
  2  3  2  0
  2  4  2  0
  2  5  1  0
  5  6  1  0
  6  7  2  0
  7  8  1  0
  8  9  2  0
  9 10  1  0
 10 11  2  0
 11 12  1  0
 12 13  2  0
 13 14  1  0
 14 15  2  0
 15 16  1  0
 16 17  2  0
 17 18  1  0
 18 19  1  0
 19 20  2  0
 20 21  1  0
 21 22  2  0
 22 23  1  0
 23 24  2  0
 18 25  2  0
 25 26  1  0
 15 27  1  0
 27 28  2  0
 11  6  1  0
 28 12  1  0
 26 16  1  0
 24 19  1  0
  1 29  1  0
  1 30  1  0
  1 31  1  0
  7 32  1  0
  8 33  1  0
  9 34  1  0
 10 35  1  0
 13 36  1  0
 14 37  1  0
 20 38  1  0
 21 39  1  0
 22 40  1  0
 23 41  1  0
 24 42  1  0
 25 43  1  0
 26 44  1  0
 27 45  1  0
 28 46  1  0
M  CHG  1   5  -1
M  END
>  <UniqueID>  (50) 
49

>  <SMILES>  (50) 
CS(=O)(=O)[N-]c1ccccc1-c1ccc(-c2nc(-c3ccccc3)c[nH]2)cc1

>  <Energy>  (50) 
88.3764357887281

>  <Genealogy>  (50) 
CS(=O)(=O)[N-]c1ccccc1-c1ccc(-c2nc(-c3ccccc3)c[nH]2)cc1 (protonated)
CS(=O)(=O)[N-]c1ccccc1-c1ccc(-c2nc(-c3ccccc3)c[nH]2)cc1 (3D coordinates assigned)
CS(=O)(=O)[N-]c1ccccc1-c1ccc(-c2nc(-c3ccccc3)c[nH]2)cc1 (optimized conformer: 88.3764357887281 kcal/mol)

>  <smiles>  (50) 
CS(=O)(=O)Nc1ccccc1-c1ccc(-c2nc(-c3ccccc3)c[nH]2)cc1

>  <score_type>  (50) 
oracle

>  <origin>  (50) 
adgpu

>  <m_score__min__energy>  (50) 
-9.6699999999999999

>  <m_primary>  (50) 
energy

$$$$
