0:0
     RDKit          3D

 42 45  0  0  0  0  0  0  0  0999 V2000
   -0.4330   21.9040  -34.5880 O   0  0  0  0  0  0  0  0  0  0  0  0
   -0.7290   20.7970  -33.6170 S   0  0  0  0  0  0  0  0  0  0  0  0
   -0.2420   19.5040  -34.2080 O   0  0  0  0  0  0  0  0  0  0  0  0
    0.1070   21.1100  -32.1310 N   0  0  0  0  0  0  0  0  0  0  0  0
   -0.4940   21.1490  -30.8290 C   0  0  0  0  0  0  0  0  0  0  0  0
   -0.6870   19.9890  -30.0580 C   0  0  0  0  0  0  0  0  0  0  0  0
   -1.2660   20.0760  -28.7880 C   0  0  0  0  0  0  0  0  0  0  0  0
   -1.6440   21.3160  -28.2710 C   0  0  0  0  0  0  0  0  0  0  0  0
   -2.2130   21.3880  -27.0040 O   0  0  0  0  0  0  0  0  0  0  0  0
   -1.4500   22.4810  -29.0300 C   0  0  0  0  0  0  0  0  0  0  0  0
   -1.9070   24.0870  -28.3730 S   0  0  0  0  0  0  0  0  0  0  0  0
   -3.3800   24.1690  -29.3840 C   0  0  0  0  0  0  0  0  0  0  0  0
   -4.5100   23.4920  -29.1100 N   0  0  0  0  0  0  0  0  0  0  0  0
   -5.3180   23.8990  -30.1050 C   0  0  0  0  0  0  0  0  0  0  0  0
   -4.7120   24.7700  -30.9340 N   0  0  0  0  0  0  0  0  0  0  0  0
   -3.4850   24.9410  -30.4780 N   0  0  0  0  0  0  0  0  0  0  0  0
   -0.8800   22.3910  -30.3070 C   0  0  0  0  0  0  0  0  0  0  0  0
   -2.4620   20.7460  -33.3200 C   0  0  0  0  0  0  0  0  0  0  0  0
   -3.1080   21.8740  -32.8010 C   0  0  0  0  0  0  0  0  0  0  0  0
   -4.4820   21.8440  -32.5420 C   0  0  0  0  0  0  0  0  0  0  0  0
   -5.2320   20.6780  -32.7920 C   0  0  0  0  0  0  0  0  0  0  0  0
   -6.6940   20.6510  -32.5310 C   0  0  0  0  0  0  0  0  0  0  0  0
   -7.4410   19.4790  -32.7520 C   0  0  0  0  0  0  0  0  0  0  0  0
   -8.8120   19.4520  -32.4850 C   0  0  0  0  0  0  0  0  0  0  0  0
   -9.4530   20.5910  -31.9950 C   0  0  0  0  0  0  0  0  0  0  0  0
   -8.7240   21.7620  -31.7720 C   0  0  0  0  0  0  0  0  0  0  0  0
   -7.3520   21.7930  -32.0400 C   0  0  0  0  0  0  0  0  0  0  0  0
   -4.5740   19.5460  -33.3070 C   0  0  0  0  0  0  0  0  0  0  0  0
   -3.2020   19.5820  -33.5770 C   0  0  0  0  0  0  0  0  0  0  0  0
   -0.3815   19.0098  -30.4552 H   0  0  0  0  0  0  0  0  0  0  0  0
   -1.4241   19.1636  -28.1943 H   0  0  0  0  0  0  0  0  0  0  0  0
   -6.3568   23.5587  -30.2278 H   0  0  0  0  0  0  0  0  0  0  0  0
   -0.7343   23.3029  -30.9047 H   0  0  0  0  0  0  0  0  0  0  0  0
   -2.5322   22.7885  -32.5958 H   0  0  0  0  0  0  0  0  0  0  0  0
   -4.9811   22.7380  -32.1399 H   0  0  0  0  0  0  0  0  0  0  0  0
   -6.9419   18.5778  -33.1377 H   0  0  0  0  0  0  0  0  0  0  0  0
   -9.3875   18.5313  -32.6613 H   0  0  0  0  0  0  0  0  0  0  0  0
  -10.5324   20.5667  -31.7843 H   0  0  0  0  0  0  0  0  0  0  0  0
   -9.2294   22.6594  -31.3856 H   0  0  0  0  0  0  0  0  0  0  0  0
   -6.7827   22.7179  -31.8654 H   0  0  0  0  0  0  0  0  0  0  0  0
   -5.1435   18.6247  -33.4990 H   0  0  0  0  0  0  0  0  0  0  0  0
   -2.7016   18.6948  -33.9922 H   0  0  0  0  0  0  0  0  0  0  0  0
  1  2  2  0
  2  3  2  0
  2  4  1  0
  4  5  1  0
  5  6  2  0
  6  7  1  0
  7  8  2  0
  8  9  1  0
  8 10  1  0
 10 11  1  0
 11 12  1  0
 12 13  1  0
 13 14  2  0
 14 15  1  0
 15 16  1  0
 10 17  2  0
  2 18  1  0
 18 19  2  0
 19 20  1  0
 20 21  2  0
 21 22  1  0
 22 23  2  0
 23 24  1  0
 24 25  2  0
 25 26  1  0
 26 27  2  0
 21 28  1  0
 28 29  2  0
 17  5  1  0
 29 18  1  0
 16 12  2  0
 27 22  1  0
  6 30  1  0
  7 31  1  0
 14 32  1  0
 17 33  1  0
 19 34  1  0
 20 35  1  0
 23 36  1  0
 24 37  1  0
 25 38  1  0
 26 39  1  0
 27 40  1  0
 28 41  1  0
 29 42  1  0
M  CHG  3   4  -1   9  -1  15  -1
M  END
>  <UniqueID>  (1) 
1

>  <SMILES>  (1) 
O=S(=O)([N-]c1ccc([O-])c(Sc2nc[n-]n2)c1)c1ccc(-c2ccccc2)cc1

>  <Energy>  (1) 
83.90848217840205

>  <Genealogy>  (1) 
O=S(=O)([N-]c1ccc([O-])c(Sc2nc[n-]n2)c1)c1ccc(-c2ccccc2)cc1 (protonated)
O=S(=O)([N-]c1ccc([O-])c(Sc2nc[n-]n2)c1)c1ccc(-c2ccccc2)cc1 (3D coordinates assigned)
O=S(=O)([N-]c1ccc([O-])c(Sc2nc[n-]n2)c1)c1ccc(-c2ccccc2)cc1 (optimized conformer: 83.90848217840205 kcal/mol)

>  <smiles>  (1) 
O=S(=O)(Nc1ccc(O)c(Sc2nc[nH]n2)c1)c1ccc(-c2ccccc2)cc1

>  <score_type>  (1) 
oracle

>  <origin>  (1) 
adgpu

>  <m_score__min__energy>  (1) 
-12.77

>  <m_primary>  (1) 
energy

$$$$
1:0
     RDKit          3D

 56 59  0  0  0  0  0  0  0  0999 V2000
   -3.5240   21.8180  -33.1860 C   0  0  0  0  0  0  0  0  0  0  0  0
   -3.7490   20.9420  -31.9500 C   0  0  0  0  0  0  0  0  0  0  0  0
   -4.0140   21.7780  -30.6650 C   0  0  2  0  0  0  0  0  0  0  0  0
   -4.5110   23.1950  -30.9450 C   0  0  0  0  0  0  0  0  0  0  0  0
   -3.8830   24.2760  -30.4380 N   0  0  0  0  0  0  0  0  0  0  0  0
   -4.5770   25.3240  -30.8540 N   0  0  0  0  0  0  0  0  0  0  0  0
   -5.6000   24.9210  -31.5910 N   0  0  0  0  0  0  0  0  0  0  0  0
   -5.5810   23.6010  -31.6760 N   0  0  0  0  0  0  0  0  0  0  0  0
   -6.6130   22.8410  -32.3840 C   0  0  0  0  0  0  0  0  0  0  0  0
   -7.5010   22.0870  -31.3860 C   0  0  0  0  0  0  0  0  0  0  0  0
   -7.6430   20.6440  -31.7870 C   0  0  0  0  0  0  0  0  0  0  0  0
   -6.7310   20.0680  -32.6890 C   0  0  0  0  0  0  0  0  0  0  0  0
   -6.8890   18.7400  -33.0950 C   0  0  0  0  0  0  0  0  0  0  0  0
   -7.9580   17.9800  -32.6120 C   0  0  0  0  0  0  0  0  0  0  0  0
   -8.8760   18.5500  -31.7270 C   0  0  0  0  0  0  0  0  0  0  0  0
   -8.7240   19.8800  -31.3190 C   0  0  0  0  0  0  0  0  0  0  0  0
   -2.9090   21.7110  -29.6560 N   0  0  0  0  0  0  0  0  0  0  0  0
   -1.5960   21.5240  -30.3310 C   0  0  0  0  0  0  0  0  0  0  0  0
   -0.4390   21.5500  -29.3250 C   0  0  0  0  0  0  0  0  0  0  0  0
   -0.7000   20.5580  -28.2820 N   0  0  0  0  0  0  0  0  0  0  0  0
    0.0300   19.3170  -28.2420 C   0  0  0  0  0  0  0  0  0  0  0  0
   -0.4360   18.2350  -27.4780 C   0  0  0  0  0  0  0  0  0  0  0  0
    0.2940   17.0440  -27.4590 C   0  0  0  0  0  0  0  0  0  0  0  0
    1.4700   16.9370  -28.2030 C   0  0  0  0  0  0  0  0  0  0  0  0
    1.9000   18.0290  -28.9590 C   0  0  0  0  0  0  0  0  0  0  0  0
    1.1790   19.1810  -28.9620 N   0  0  0  0  0  0  0  0  0  0  0  0
   -1.9790   20.6870  -27.5850 C   0  0  0  0  0  0  0  0  0  0  0  0
   -3.1150   20.6730  -28.6140 C   0  0  0  0  0  0  0  0  0  0  0  0
   -3.2619   22.8384  -32.8695 H   0  0  0  0  0  0  0  0  0  0  0  0
   -2.7043   21.3990  -33.7881 H   0  0  0  0  0  0  0  0  0  0  0  0
   -4.4441   21.8458  -33.7881 H   0  0  0  0  0  0  0  0  0  0  0  0
   -4.6171   20.2915  -32.1324 H   0  0  0  0  0  0  0  0  0  0  0  0
   -2.8320   20.3575  -31.7842 H   0  0  0  0  0  0  0  0  0  0  0  0
   -4.8618   21.2752  -30.1767 H   0  0  0  0  0  0  0  0  0  0  0  0
   -7.2344   23.5333  -32.9710 H   0  0  0  0  0  0  0  0  0  0  0  0
   -6.1264   22.1129  -33.0496 H   0  0  0  0  0  0  0  0  0  0  0  0
   -7.0467   22.1410  -30.3857 H   0  0  0  0  0  0  0  0  0  0  0  0
   -8.4979   22.5519  -31.3774 H   0  0  0  0  0  0  0  0  0  0  0  0
   -5.8913   20.6639  -33.0760 H   0  0  0  0  0  0  0  0  0  0  0  0
   -6.1701   18.2917  -33.7966 H   0  0  0  0  0  0  0  0  0  0  0  0
   -8.0763   16.9333  -32.9288 H   0  0  0  0  0  0  0  0  0  0  0  0
   -9.7195   17.9528  -31.3503 H   0  0  0  0  0  0  0  0  0  0  0  0
   -9.4541   20.3285  -30.6292 H   0  0  0  0  0  0  0  0  0  0  0  0
   -2.8690   22.6410  -29.1740 H   0  0  0  0  0  0  0  0  0  0  0  0
   -1.5961   20.5546  -30.8509 H   0  0  0  0  0  0  0  0  0  0  0  0
   -1.4530   22.3499  -31.0433 H   0  0  0  0  0  0  0  0  0  0  0  0
    0.5031   21.3077  -29.8385 H   0  0  0  0  0  0  0  0  0  0  0  0
   -0.3554   22.5510  -28.8767 H   0  0  0  0  0  0  0  0  0  0  0  0
   -1.3674   18.3243  -26.8997 H   0  0  0  0  0  0  0  0  0  0  0  0
   -0.0575   16.1919  -26.8586 H   0  0  0  0  0  0  0  0  0  0  0  0
    2.0512   16.0031  -28.1938 H   0  0  0  0  0  0  0  0  0  0  0  0
    2.8232   17.9569  -29.5528 H   0  0  0  0  0  0  0  0  0  0  0  0
   -2.1043   19.8464  -26.8867 H   0  0  0  0  0  0  0  0  0  0  0  0
   -2.0005   21.6319  -27.0222 H   0  0  0  0  0  0  0  0  0  0  0  0
   -3.1514   19.6843  -29.0948 H   0  0  0  0  0  0  0  0  0  0  0  0
   -4.0598   20.8859  -28.0925 H   0  0  0  0  0  0  0  0  0  0  0  0
  1  2  1  0
  2  3  1  0
  3  4  1  0
  4  5  2  0
  5  6  1  0
  6  7  2  0
  7  8  1  0
  8  9  1  0
  9 10  1  0
 10 11  1  0
 11 12  2  0
 12 13  1  0
 13 14  2  0
 14 15  1  0
 15 16  2  0
  3 17  1  0
 17 18  1  0
 18 19  1  0
 19 20  1  0
 20 21  1  0
 21 22  2  0
 22 23  1  0
 23 24  2  0
 24 25  1  0
 25 26  2  0
 20 27  1  0
 27 28  1  0
  8  4  1  0
 16 11  1  0
 28 17  1  0
 26 21  1  0
  1 29  1  0
  1 30  1  0
  1 31  1  0
  2 32  1  0
  2 33  1  0
  3 34  1  1
  9 35  1  0
  9 36  1  0
 10 37  1  0
 10 38  1  0
 12 39  1  0
 13 40  1  0
 14 41  1  0
 15 42  1  0
 16 43  1  0
 17 44  1  0
 18 45  1  0
 18 46  1  0
 19 47  1  0
 19 48  1  0
 22 49  1  0
 23 50  1  0
 24 51  1  0
 25 52  1  0
 27 53  1  0
 27 54  1  0
 28 55  1  0
 28 56  1  0
M  CHG  1  17   1
M  END
>  <UniqueID>  (2) 
2

>  <SMILES>  (2) 
CC[C@H](c1nnnn1CCc1ccccc1)[NH+]1CCN(c2ccccn2)CC1

>  <Energy>  (2) 
108.25220110502657

>  <Genealogy>  (2) 
CCC(c1nnnn1CCc1ccccc1)[NH+]1CCN(c2ccccn2)CC1 (protonated)
CC[C@H](c1nnnn1CCc1ccccc1)[NH+]1CCN(c2ccccn2)CC1 (chirality)
CC[C@H](c1nnnn1CCc1ccccc1)[NH+]1CCN(c2ccccn2)CC1 (3D coordinates assigned)
CC[C@H](c1nnnn1CCc1ccccc1)[NH+]1CCN(c2ccccn2)CC1 (nonaromatic ring conformer: 108.25220110502657 kcal/mol)

>  <smiles>  (2) 
CCC(c1nnnn1CCc1ccccc1)N1CCN(c2ccccn2)CC1

>  <score_type>  (2) 
oracle

>  <origin>  (2) 
adgpu

>  <m_score__min__energy>  (2) 
-8.9600000000000009

>  <m_primary>  (2) 
energy

$$$$
2:0
     RDKit          3D

 44 46  0  0  1  0  0  0  0  0999 V2000
   -3.4460   24.5290  -29.3350 C   0  0  0  0  0  0  0  0  0  0  0  0
   -3.7460   25.2920  -30.4760 O   0  0  0  0  0  0  0  0  0  0  0  0
   -5.1350   25.4850  -30.4650 C   0  0  0  0  0  0  0  0  0  0  0  0
   -5.7290   24.3620  -29.6350 C   0  0  0  0  0  0  0  0  0  0  0  0
   -6.9200   23.7880  -30.1380 N   0  0  0  0  0  0  0  0  0  0  0  0
   -7.0510   22.7190  -30.7910 C   0  0  0  0  0  0  0  0  0  0  0  0
   -8.2700   22.3370  -31.1820 N   0  0  0  0  0  0  0  0  0  0  0  0
   -8.5020   21.2100  -31.8790 C   0  0  0  0  0  0  0  0  0  0  0  0
   -9.8590   20.7850  -32.3150 C   0  0  0  0  0  0  0  0  0  0  0  0
   -7.4290   20.4550  -32.1790 N   0  0  0  0  0  0  0  0  0  0  0  0
   -6.1780   20.7980  -31.8060 C   0  0  0  0  0  0  0  0  0  0  0  0
   -5.9690   21.9660  -31.0880 C   0  0  0  0  0  0  0  0  0  0  0  0
   -4.6470   22.0990  -30.8330 C   0  0  0  0  0  0  0  0  0  0  0  0
   -4.0730   20.9920  -31.4080 N   0  0  0  0  0  0  0  0  0  0  0  0
   -4.9770   20.2250  -31.9820 N   0  0  0  0  0  0  0  0  0  0  0  0
   -4.6800   19.0070  -32.6610 C   0  0  0  0  0  0  0  0  0  0  0  0
   -3.6600   19.0010  -33.6000 C   0  0  0  0  0  0  0  0  0  0  0  0
   -2.8980   20.2570  -33.8800 C   0  0  0  0  0  0  0  0  0  0  0  0
   -3.3420   17.8270  -34.2830 C   0  0  0  0  0  0  0  0  0  0  0  0
   -4.0160   16.6440  -34.0590 C   0  0  0  0  0  0  0  0  0  0  0  0
   -3.6400   15.4190  -34.8130 C   0  0  0  0  0  0  0  0  0  0  0  0
   -5.0290   16.6560  -33.1250 C   0  0  0  0  0  0  0  0  0  0  0  0
   -5.3410   17.8350  -32.4450 C   0  0  0  0  0  0  0  0  0  0  0  0
   -6.6310   17.7850  -31.2760 Cl  0  0  0  0  0  0  0  0  0  0  0  0
   -3.6759   25.1137  -28.4321 H   0  0  0  0  0  0  0  0  0  0  0  0
   -4.0495   23.6093  -29.3398 H   0  0  0  0  0  0  0  0  0  0  0  0
   -2.3778   24.2666  -29.3398 H   0  0  0  0  0  0  0  0  0  0  0  0
   -5.3782   26.4583  -30.0139 H   0  0  0  0  0  0  0  0  0  0  0  0
   -5.5419   25.4773  -31.4869 H   0  0  0  0  0  0  0  0  0  0  0  0
   -4.9758   23.5640  -29.5588 H   0  0  0  0  0  0  0  0  0  0  0  0
   -6.0002   24.8151  -28.6700 H   0  0  0  0  0  0  0  0  0  0  0  0
   -9.0900   22.9200  -30.9510 H   0  0  0  0  0  0  0  0  0  0  0  0
  -10.4837   20.5894  -31.4310 H   0  0  0  0  0  0  0  0  0  0  0  0
  -10.3169   21.5827  -32.9182 H   0  0  0  0  0  0  0  0  0  0  0  0
   -9.7800   19.8686  -32.9182 H   0  0  0  0  0  0  0  0  0  0  0  0
   -4.1447   22.9115  -30.2875 H   0  0  0  0  0  0  0  0  0  0  0  0
   -2.6105   20.7309  -32.9299 H   0  0  0  0  0  0  0  0  0  0  0  0
   -1.9937   20.0161  -34.4580 H   0  0  0  0  0  0  0  0  0  0  0  0
   -3.5294   20.9478  -34.4580 H   0  0  0  0  0  0  0  0  0  0  0  0
   -2.5285   17.8449  -35.0233 H   0  0  0  0  0  0  0  0  0  0  0  0
   -3.3929   14.6141  -34.1051 H   0  0  0  0  0  0  0  0  0  0  0  0
   -4.4830   15.1047  -35.4459 H   0  0  0  0  0  0  0  0  0  0  0  0
   -2.7658   15.6318  -35.4459 H   0  0  0  0  0  0  0  0  0  0  0  0
   -5.5929   15.7352  -32.9147 H   0  0  0  0  0  0  0  0  0  0  0  0
  1  2  1  0
  2  3  1  0
  3  4  1  0
  4  5  1  0
  5  6  2  0
  6  7  1  0
  7  8  1  0
  8  9  1  0
  8 10  2  0
 10 11  1  0
 11 12  2  0
 12 13  1  0
 13 14  2  0
 14 15  1  0
 15 16  1  0
 16 17  2  0
 17 18  1  0
 17 19  1  0
 19 20  2  0
 20 21  1  0
 20 22  1  0
 22 23  2  0
 23 24  1  0
 12  6  1  0
 23 16  1  0
 15 11  1  0
  1 25  1  0
  1 26  1  0
  1 27  1  0
  3 28  1  0
  3 29  1  0
  4 30  1  0
  4 31  1  0
  7 32  1  0
  9 33  1  0
  9 34  1  0
  9 35  1  0
 13 36  1  0
 18 37  1  0
 18 38  1  0
 18 39  1  0
 19 40  1  0
 21 41  1  0
 21 42  1  0
 21 43  1  0
 22 44  1  0
M  END
>  <smiles>  (3) 
COCCN=c1[nH]c(C)nc2c1cnn2-c1c(C)cc(C)cc1Cl

>  <score_type>  (3) 
oracle

>  <origin>  (3) 
adgpu

>  <m_score__min__energy>  (3) 
-7.7199999999999998

>  <m_primary>  (3) 
energy

$$$$
3:0
     RDKit          3D

 45 47  0  0  0  0  0  0  0  0999 V2000
   -3.9920   24.1600  -28.3140 C   0  0  0  0  0  0  0  0  0  0  0  0
   -2.9670   24.5570  -29.3710 C   0  0  0  0  0  0  0  0  0  0  0  0
   -3.6120   25.2680  -30.4690 N   0  0  0  0  0  0  0  0  0  0  0  0
   -5.0300   25.2940  -30.6800 C   0  0  0  0  0  0  0  0  0  0  0  0
   -5.6790   26.3460  -30.4290 O   0  0  0  0  0  0  0  0  0  0  0  0
   -5.7300   24.0890  -31.1840 C   0  0  0  0  0  0  0  0  0  0  0  0
   -7.1300   23.9980  -31.1200 C   0  0  0  0  0  0  0  0  0  0  0  0
   -7.7740   22.8600  -31.6090 C   0  0  0  0  0  0  0  0  0  0  0  0
   -9.1700   22.7820  -31.5510 O   0  0  0  0  0  0  0  0  0  0  0  0
   -9.8750   21.5520  -31.6540 C   0  0  0  0  0  0  0  0  0  0  0  0
   -7.0420   21.8420  -32.1360 N   0  0  0  0  0  0  0  0  0  0  0  0
   -5.6830   21.8810  -32.2100 C   0  0  0  0  0  0  0  0  0  0  0  0
   -4.9570   20.7290  -32.8040 C   0  0  0  0  0  0  0  0  0  0  0  0
   -5.6350   19.7240  -33.5190 C   0  0  0  0  0  0  0  0  0  0  0  0
   -4.9310   18.6540  -34.0790 C   0  0  0  0  0  0  0  0  0  0  0  0
   -3.5360   18.5640  -33.9290 C   0  0  0  0  0  0  0  0  0  0  0  0
   -2.7950   17.5130  -34.4870 O   0  0  0  0  0  0  0  0  0  0  0  0
   -2.7390   16.2030  -33.9890 C   0  0  0  0  0  0  0  0  0  0  0  0
   -3.7250   15.7850  -33.0850 C   0  0  0  0  0  0  0  0  0  0  0  0
   -3.7130   14.4810  -32.5790 C   0  0  0  0  0  0  0  0  0  0  0  0
   -2.7220   13.5810  -32.9840 C   0  0  0  0  0  0  0  0  0  0  0  0
   -2.7120   12.3170  -32.4950 F   0  0  0  0  0  0  0  0  0  0  0  0
   -1.7460   13.9830  -33.9010 C   0  0  0  0  0  0  0  0  0  0  0  0
   -1.7560   15.2870  -34.4080 C   0  0  0  0  0  0  0  0  0  0  0  0
   -2.8570   19.5770  -33.2460 C   0  0  0  0  0  0  0  0  0  0  0  0
   -3.5580   20.6490  -32.6860 C   0  0  0  0  0  0  0  0  0  0  0  0
   -5.0060   23.0210  -31.7380 C   0  0  0  0  0  0  0  0  0  0  0  0
   -3.5681   24.3242  -27.3123 H   0  0  0  0  0  0  0  0  0  0  0  0
   -4.8980   24.7722  -28.4336 H   0  0  0  0  0  0  0  0  0  0  0  0
   -4.2492   23.0972  -28.4336 H   0  0  0  0  0  0  0  0  0  0  0  0
   -2.2094   25.2099  -28.9129 H   0  0  0  0  0  0  0  0  0  0  0  0
   -2.4945   23.6460  -29.7670 H   0  0  0  0  0  0  0  0  0  0  0  0
   -7.7172   24.8207  -30.6860 H   0  0  0  0  0  0  0  0  0  0  0  0
  -10.0942   21.1695  -30.6462 H   0  0  0  0  0  0  0  0  0  0  0  0
  -10.8174   21.7139  -32.1978 H   0  0  0  0  0  0  0  0  0  0  0  0
   -9.2589   20.8207  -32.1978 H   0  0  0  0  0  0  0  0  0  0  0  0
   -6.7271   19.7809  -33.6380 H   0  0  0  0  0  0  0  0  0  0  0  0
   -5.4717   17.8778  -34.6404 H   0  0  0  0  0  0  0  0  0  0  0  0
   -4.5126   16.4861  -32.7717 H   0  0  0  0  0  0  0  0  0  0  0  0
   -4.4839   14.1630  -31.8617 H   0  0  0  0  0  0  0  0  0  0  0  0
   -0.9698   13.2736  -34.2240 H   0  0  0  0  0  0  0  0  0  0  0  0
   -0.9928   15.5974  -35.1368 H   0  0  0  0  0  0  0  0  0  0  0  0
   -1.7623   19.5303  -33.1484 H   0  0  0  0  0  0  0  0  0  0  0  0
   -3.0104   21.4370  -32.1482 H   0  0  0  0  0  0  0  0  0  0  0  0
   -3.9093   23.0754  -31.8031 H   0  0  0  0  0  0  0  0  0  0  0  0
  1  2  1  0
  2  3  1  0
  3  4  1  0
  4  5  2  0
  4  6  1  0
  6  7  2  0
  7  8  1  0
  8  9  1  0
  9 10  1  0
  8 11  2  0
 11 12  1  0
 12 13  1  0
 13 14  2  0
 14 15  1  0
 15 16  2  0
 16 17  1  0
 17 18  1  0
 18 19  2  0
 19 20  1  0
 20 21  2  0
 21 22  1  0
 21 23  1  0
 23 24  2  0
 16 25  1  0
 25 26  2  0
 12 27  2  0
 27  6  1  0
 26 13  1  0
 24 18  1  0
  1 28  1  0
  1 29  1  0
  1 30  1  0
  2 31  1  0
  2 32  1  0
  7 33  1  0
 10 34  1  0
 10 35  1  0
 10 36  1  0
 14 37  1  0
 15 38  1  0
 19 39  1  0
 20 40  1  0
 23 41  1  0
 24 42  1  0
 25 43  1  0
 26 44  1  0
 27 45  1  0
M  CHG  1   3  -1
M  END
>  <UniqueID>  (4) 
3

>  <SMILES>  (4) 
CC[N-]C(=O)c1cc(OC)nc(-c2ccc(Oc3ccc(F)cc3)cc2)c1

>  <Energy>  (4) 
52.45877796442128

>  <Genealogy>  (4) 
CC[N-]C(=O)c1cc(OC)nc(-c2ccc(Oc3ccc(F)cc3)cc2)c1 (protonated)
CC[N-]C(=O)c1cc(OC)nc(-c2ccc(Oc3ccc(F)cc3)cc2)c1 (3D coordinates assigned)
CC[N-]C(=O)c1cc(OC)nc(-c2ccc(Oc3ccc(F)cc3)cc2)c1 (optimized conformer: 52.45877796442128 kcal/mol)

>  <smiles>  (4) 
CCNC(=O)c1cc(OC)nc(-c2ccc(Oc3ccc(F)cc3)cc2)c1

>  <score_type>  (4) 
oracle

>  <origin>  (4) 
adgpu

>  <m_score__min__energy>  (4) 
-8.8200000000000003

>  <m_primary>  (4) 
energy

$$$$
4:0
     RDKit          3D

 47 48  0  0  0  0  0  0  0  0999 V2000
   -1.5510   21.4020  -26.9400 C   0  0  0  0  0  0  0  0  0  0  0  0
   -0.9860   21.9440  -28.2520 C   0  0  0  0  0  0  0  0  0  0  0  0
   -1.9500   22.9290  -28.8970 C   0  0  0  0  0  0  0  0  0  0  0  0
   -1.7210   24.3260  -28.7830 C   0  0  0  0  0  0  0  0  0  0  0  0
   -0.5230   24.8950  -28.0760 C   0  0  0  0  0  0  0  0  0  0  0  0
   -2.5890   25.2040  -29.3460 N   0  0  0  0  0  0  0  0  0  0  0  0
   -3.6960   24.8120  -30.0160 C   0  0  0  0  0  0  0  0  0  0  0  0
   -4.4600   25.6820  -30.5100 O   0  0  0  0  0  0  0  0  0  0  0  0
   -3.9900   23.4500  -30.1510 C   0  0  0  0  0  0  0  0  0  0  0  0
   -5.1670   23.0440  -30.8710 N   0  0  0  0  0  0  0  0  0  0  0  0
   -5.1430   23.0490  -32.3330 C   0  0  0  0  0  0  0  0  0  0  0  0
   -6.4600   23.0820  -30.1900 C   0  0  0  0  0  0  0  0  0  0  0  0
   -3.1250   22.4890  -29.5790 C   0  0  0  0  0  0  0  0  0  0  0  0
   -3.4690   21.0140  -29.7450 C   0  0  0  0  0  0  0  0  0  0  0  0
   -3.3370   20.5710  -31.1820 C   0  0  0  0  0  0  0  0  0  0  0  0
   -2.1770   20.8800  -31.9120 C   0  0  0  0  0  0  0  0  0  0  0  0
   -2.0400   20.4630  -33.2430 C   0  0  0  0  0  0  0  0  0  0  0  0
   -0.8080   20.8200  -34.0200 C   0  0  0  0  0  0  0  0  0  0  0  0
   -3.0890   19.7690  -33.8620 C   0  0  0  0  0  0  0  0  0  0  0  0
   -4.2520   19.4530  -33.1450 C   0  0  0  0  0  0  0  0  0  0  0  0
   -5.3840   18.7360  -33.8200 C   0  0  0  0  0  0  0  0  0  0  0  0
   -4.3790   19.8700  -31.8130 C   0  0  0  0  0  0  0  0  0  0  0  0
   -1.0439   21.8884  -26.0937 H   0  0  0  0  0  0  0  0  0  0  0  0
   -2.6297   21.6118  -26.8909 H   0  0  0  0  0  0  0  0  0  0  0  0
   -1.3862   20.3155  -26.8909 H   0  0  0  0  0  0  0  0  0  0  0  0
   -0.0328   22.4543  -28.0493 H   0  0  0  0  0  0  0  0  0  0  0  0
   -0.8336   21.1010  -28.9420 H   0  0  0  0  0  0  0  0  0  0  0  0
   -0.6714   24.8245  -26.9883 H   0  0  0  0  0  0  0  0  0  0  0  0
    0.3749   24.3272  -28.3611 H   0  0  0  0  0  0  0  0  0  0  0  0
   -0.3957   25.9498  -28.3611 H   0  0  0  0  0  0  0  0  0  0  0  0
   -4.1218   23.2617  -32.6822 H   0  0  0  0  0  0  0  0  0  0  0  0
   -5.4614   22.0653  -32.7083 H   0  0  0  0  0  0  0  0  0  0  0  0
   -5.8277   23.8238  -32.7083 H   0  0  0  0  0  0  0  0  0  0  0  0
   -6.3014   23.0773  -29.1015 H   0  0  0  0  0  0  0  0  0  0  0  0
   -6.9994   23.9964  -30.4780 H   0  0  0  0  0  0  0  0  0  0  0  0
   -7.0522   22.2009  -30.4780 H   0  0  0  0  0  0  0  0  0  0  0  0
   -2.7866   20.4161  -29.1230 H   0  0  0  0  0  0  0  0  0  0  0  0
   -4.5140   20.8673  -29.4343 H   0  0  0  0  0  0  0  0  0  0  0  0
   -1.3693   21.4542  -31.4347 H   0  0  0  0  0  0  0  0  0  0  0  0
    0.0093   21.0568  -33.3229 H   0  0  0  0  0  0  0  0  0  0  0  0
   -0.5149   19.9699  -34.6535 H   0  0  0  0  0  0  0  0  0  0  0  0
   -1.0148   21.6952  -34.6535 H   0  0  0  0  0  0  0  0  0  0  0  0
   -2.9993   19.4704  -34.9169 H   0  0  0  0  0  0  0  0  0  0  0  0
   -6.0548   18.3111  -33.0587 H   0  0  0  0  0  0  0  0  0  0  0  0
   -5.9441   19.4444  -34.4481 H   0  0  0  0  0  0  0  0  0  0  0  0
   -4.9830   17.9269  -34.4481 H   0  0  0  0  0  0  0  0  0  0  0  0
   -5.3015   19.6469  -31.2570 H   0  0  0  0  0  0  0  0  0  0  0  0
  1  2  1  0
  2  3  1  0
  3  4  2  0
  4  5  1  0
  4  6  1  0
  6  7  1  0
  7  8  2  0
  7  9  1  0
  9 10  1  0
 10 11  1  0
 10 12  1  0
  9 13  2  0
 13 14  1  0
 14 15  1  0
 15 16  2  0
 16 17  1  0
 17 18  1  0
 17 19  2  0
 19 20  1  0
 20 21  1  0
 20 22  2  0
 13  3  1  0
 22 15  1  0
  1 23  1  0
  1 24  1  0
  1 25  1  0
  2 26  1  0
  2 27  1  0
  5 28  1  0
  5 29  1  0
  5 30  1  0
 11 31  1  0
 11 32  1  0
 11 33  1  0
 12 34  1  0
 12 35  1  0
 12 36  1  0
 14 37  1  0
 14 38  1  0
 16 39  1  0
 18 40  1  0
 18 41  1  0
 18 42  1  0
 19 43  1  0
 21 44  1  0
 21 45  1  0
 21 46  1  0
 22 47  1  0
M  CHG  1   6  -1
M  END
>  <UniqueID>  (5) 
4

>  <SMILES>  (5) 
CCc1c(C)[n-]c(=O)c(N(C)C)c1Cc1cc(C)cc(C)c1

>  <Energy>  (5) 
49.8914916258384

>  <Genealogy>  (5) 
CCc1c(C)[n-]c(=O)c(N(C)C)c1Cc1cc(C)cc(C)c1 (protonated)
CCc1c(C)[n-]c(=O)c(N(C)C)c1Cc1cc(C)cc(C)c1 (3D coordinates assigned)
CCc1c(C)[n-]c(=O)c(N(C)C)c1Cc1cc(C)cc(C)c1 (optimized conformer: 49.8914916258384 kcal/mol)

>  <smiles>  (5) 
CCc1c(C)[nH]c(=O)c(N(C)C)c1Cc1cc(C)cc(C)c1

>  <score_type>  (5) 
oracle

>  <origin>  (5) 
adgpu

>  <m_score__min__energy>  (5) 
-8.3599999999999994

>  <m_primary>  (5) 
energy

$$$$
5:0
     RDKit          3D

 26 27  0  0  0  0  0  0  0  0999 V2000
   -3.6320   19.8470  -31.2160 O   0  0  0  0  0  0  0  0  0  0  0  0
   -4.0420   21.0000  -31.5250 C   0  0  0  0  0  0  0  0  0  0  0  0
   -5.0660   21.1580  -32.4700 O   0  0  0  0  0  0  0  0  0  0  0  0
   -6.3520   20.6030  -32.3780 C   0  0  0  0  0  0  0  0  0  0  0  0
   -7.4840   21.3750  -32.0530 C   0  0  0  0  0  0  0  0  0  0  0  0
   -8.7430   20.7730  -31.9600 C   0  0  0  0  0  0  0  0  0  0  0  0
   -8.8810   19.4000  -32.1820 C   0  0  0  0  0  0  0  0  0  0  0  0
   -7.7580   18.6250  -32.4860 C   0  0  0  0  0  0  0  0  0  0  0  0
   -6.4980   19.2250  -32.5780 C   0  0  0  0  0  0  0  0  0  0  0  0
   -3.4850   22.1900  -30.8450 C   0  0  0  0  0  0  0  0  0  0  0  0
   -4.1070   23.4420  -30.9820 C   0  0  0  0  0  0  0  0  0  0  0  0
   -3.5830   24.5700  -30.3420 C   0  0  0  0  0  0  0  0  0  0  0  0
   -4.2120   25.8010  -30.4910 O   0  0  0  0  0  0  0  0  0  0  0  0
   -2.4280   24.4620  -29.5560 C   0  0  0  0  0  0  0  0  0  0  0  0
   -1.9220   25.5990  -28.9260 O   0  0  0  0  0  0  0  0  0  0  0  0
   -1.8000   23.2150  -29.4140 C   0  0  0  0  0  0  0  0  0  0  0  0
   -0.6530   23.0880  -28.6380 O   0  0  0  0  0  0  0  0  0  0  0  0
   -2.3250   22.0880  -30.0550 C   0  0  0  0  0  0  0  0  0  0  0  0
   -7.3777   22.4547  -31.8717 H   0  0  0  0  0  0  0  0  0  0  0  0
   -9.6256   21.3808  -31.7118 H   0  0  0  0  0  0  0  0  0  0  0  0
   -9.8731   18.9293  -32.1175 H   0  0  0  0  0  0  0  0  0  0  0  0
   -7.8653   17.5430  -32.6529 H   0  0  0  0  0  0  0  0  0  0  0  0
   -5.6157   18.6101  -32.8091 H   0  0  0  0  0  0  0  0  0  0  0  0
   -5.0137   23.5361  -31.5977 H   0  0  0  0  0  0  0  0  0  0  0  0
   -2.3940   26.4940  -28.9690 H   0  0  0  0  0  0  0  0  0  0  0  0
   -1.8269   21.1139  -29.9406 H   0  0  0  0  0  0  0  0  0  0  0  0
  1  2  2  0
  2  3  1  0
  3  4  1  0
  4  5  2  0
  5  6  1  0
  6  7  2  0
  7  8  1  0
  8  9  2  0
  2 10  1  0
 10 11  2  0
 11 12  1  0
 12 13  1  0
 12 14  2  0
 14 15  1  0
 14 16  1  0
 16 17  1  0
 16 18  2  0
  9  4  1  0
 18 10  1  0
  5 19  1  0
  6 20  1  0
  7 21  1  0
  8 22  1  0
  9 23  1  0
 11 24  1  0
 15 25  1  0
 18 26  1  0
M  CHG  2  13  -1  17  -1
M  END
>  <UniqueID>  (6) 
5

>  <SMILES>  (6) 
O=C(Oc1ccccc1)c1cc([O-])c(O)c([O-])c1

>  <Energy>  (6) 
32.60023539350985

>  <Genealogy>  (6) 
O=C(Oc1ccccc1)c1cc([O-])c(O)c([O-])c1 (protonated)
O=C(Oc1ccccc1)c1cc([O-])c(O)c([O-])c1 (3D coordinates assigned)
O=C(Oc1ccccc1)c1cc([O-])c(O)c([O-])c1 (optimized conformer: 32.60023539350985 kcal/mol)

>  <smiles>  (6) 
O=C(Oc1ccccc1)c1cc(O)c(O)c(O)c1

>  <score_type>  (6) 
oracle

>  <origin>  (6) 
adgpu

>  <m_score__min__energy>  (6) 
-9.7300000000000004

>  <m_primary>  (6) 
energy

$$$$
6:0
     RDKit          3D

 40 40  0  0  0  0  0  0  0  0999 V2000
   -2.1991   24.0316  -30.9217 H   0  0  0  0  0  0  0  0  0  0  0  0
   -2.0740   23.3530  -30.0650 C   0  0  0  0  0  0  0  0  0  0  0  0
   -3.1600   22.6620  -29.6470 C   0  0  0  0  0  0  0  0  0  0  0  0
   -3.1020   21.7240  -28.4650 C   0  0  0  0  0  0  0  0  0  0  0  0
   -3.1380   22.3065  -27.5326 H   0  0  0  0  0  0  0  0  0  0  0  0
   -3.9593   21.0357  -28.5007 H   0  0  0  0  0  0  0  0  0  0  0  0
   -2.1664   21.1466  -28.5007 H   0  0  0  0  0  0  0  0  0  0  0  0
   -4.4720   22.8380  -30.3830 C   0  0  0  0  0  0  0  0  0  0  0  0
   -4.2596   23.1384  -31.4196 H   0  0  0  0  0  0  0  0  0  0  0  0
   -5.0114   21.8800  -30.3476 H   0  0  0  0  0  0  0  0  0  0  0  0
   -5.3610   23.9050  -29.7310 C   0  0  0  0  0  0  0  0  0  0  0  0
   -6.4150   23.6138  -29.8508 H   0  0  0  0  0  0  0  0  0  0  0  0
   -5.0919   23.9744  -28.6667 H   0  0  0  0  0  0  0  0  0  0  0  0
   -5.1540   25.2500  -30.3560 C   0  0  0  0  0  0  0  0  0  0  0  0
   -6.1250   26.0420  -30.4940 O   0  0  0  0  0  0  0  0  0  0  0  0
   -3.8980   25.6120  -30.8260 O   0  0  0  0  0  0  0  0  0  0  0  0
   -0.7020   23.2590  -29.4390 C   0  0  0  0  0  0  0  0  0  0  0  0
    0.0386   23.6622  -30.1454 H   0  0  0  0  0  0  0  0  0  0  0  0
   -0.5041   22.2006  -29.2142 H   0  0  0  0  0  0  0  0  0  0  0  0
   -0.6130   24.0370  -28.1400 C   0  0  0  0  0  0  0  0  0  0  0  0
   -0.8910   25.4170  -28.1280 C   0  0  0  0  0  0  0  0  0  0  0  0
   -1.2390   26.0380  -29.3240 O   0  0  0  0  0  0  0  0  0  0  0  0
   -0.8050   26.1580  -26.9270 C   0  0  0  0  0  0  0  0  0  0  0  0
   -1.1090   27.5330  -26.8510 O   0  0  0  0  0  0  0  0  0  0  0  0
   -0.2200   28.6190  -27.0890 C   0  0  0  0  0  0  0  0  0  0  0  0
    0.1188   29.0329  -26.1278 H   0  0  0  0  0  0  0  0  0  0  0  0
    0.6491   28.2627  -27.6616 H   0  0  0  0  0  0  0  0  0  0  0  0
   -0.7409   29.4006  -27.6616 H   0  0  0  0  0  0  0  0  0  0  0  0
   -0.3980   25.5100  -25.7390 C   0  0  0  0  0  0  0  0  0  0  0  0
   -0.2920   26.3040  -24.4540 C   0  0  0  0  0  0  0  0  0  0  0  0
   -0.3828   25.6239  -23.5942 H   0  0  0  0  0  0  0  0  0  0  0  0
    0.6821   26.8136  -24.4172 H   0  0  0  0  0  0  0  0  0  0  0  0
   -1.0983   27.0513  -24.4172 H   0  0  0  0  0  0  0  0  0  0  0  0
   -0.1460   24.1160  -25.7420 C   0  0  0  0  0  0  0  0  0  0  0  0
    0.2570   23.4000  -24.4730 C   0  0  0  0  0  0  0  0  0  0  0  0
   -0.0723   23.9850  -23.6016 H   0  0  0  0  0  0  0  0  0  0  0  0
   -0.2144   22.4065  -24.4470 H   0  0  0  0  0  0  0  0  0  0  0  0
    1.3509   23.2876  -24.4470 H   0  0  0  0  0  0  0  0  0  0  0  0
   -0.2240   23.3970  -26.9500 C   0  0  0  0  0  0  0  0  0  0  0  0
    0.0850   22.0390  -26.9660 O   0  0  0  0  0  0  0  0  0  0  0  0
  1  2  1  0
  2  3  2  0
  3  4  1  0
  4  5  1  0
  4  6  1  0
  4  7  1  0
  3  8  1  0
  8  9  1  0
  8 10  1  0
  8 11  1  0
 11 12  1  0
 11 13  1  0
 11 14  1  0
 14 15  2  0
 14 16  1  0
  2 17  1  0
 17 18  1  0
 17 19  1  0
 17 20  1  0
 20 21  2  0
 21 22  1  0
 21 23  1  0
 23 24  1  0
 24 25  1  0
 25 26  1  0
 25 27  1  0
 25 28  1  0
 23 29  2  0
 29 30  1  0
 30 31  1  0
 30 32  1  0
 30 33  1  0
 29 34  1  0
 34 35  1  0
 35 36  1  0
 35 37  1  0
 35 38  1  0
 34 39  2  0
 39 40  1  0
 39 20  1  0
M  CHG  3  16  -1  22  -1  40  -1
M  END
>  <UniqueID>  (7) 
6

>  <SMILES>  (7) 
COc1c(C)c(C)c([O-])c(C/C=C(\C)CCC(=O)[O-])c1[O-]

>  <Energy>  (7) 
38.12546588963031

>  <Genealogy>  (7) 
COc1c(C)c(C)c([O-])c(CC=C(C)CCC(=O)[O-])c1[O-] (protonated)
COc1c(C)c(C)c([O-])c(C/C=C(\C)CCC(=O)[O-])c1[O-] (cis-trans isomerization)
COc1c(C)c(C)c([O-])c(C/C=C(\C)CCC(=O)[O-])c1[O-] (3D coordinates assigned)
COc1c(C)c(C)c([O-])c(C/C=C(\C)CCC(=O)[O-])c1[O-] (optimized conformer: 38.12546588963031 kcal/mol)

>  <smiles>  (7) 
COc1c(C)c(C)c(O)c(CC=C(C)CCC(=O)O)c1O

>  <score_type>  (7) 
oracle

>  <origin>  (7) 
adgpu

>  <m_score__min__energy>  (7) 
-10.81

>  <m_primary>  (7) 
energy

$$$$
7:0
     RDKit          3D

 40 42  0  0  0  0  0  0  0  0999 V2000
   -8.8330   22.3350  -32.0420 C   0  0  0  0  0  0  0  0  0  0  0  0
   -8.5100   20.8770  -32.1760 C   0  0  0  0  0  0  0  0  0  0  0  0
   -9.4660   19.9090  -31.8380 C   0  0  0  0  0  0  0  0  0  0  0  0
   -9.1820   18.5520  -32.0040 C   0  0  0  0  0  0  0  0  0  0  0  0
   -7.9440   18.1510  -32.5150 C   0  0  0  0  0  0  0  0  0  0  0  0
   -6.9750   19.1090  -32.8570 C   0  0  0  0  0  0  0  0  0  0  0  0
   -5.6710   18.6960  -33.4180 C   0  0  0  0  0  0  0  0  0  0  0  0
   -5.4820   17.6010  -34.2390 C   0  0  0  0  0  0  0  0  0  0  0  0
   -4.1110   17.5220  -34.3960 C   0  0  0  0  0  0  0  0  0  0  0  0
   -3.3730   16.4440  -35.1240 C   0  0  0  0  0  0  0  0  0  0  0  0
   -2.0210   16.7280  -35.1430 F   0  0  0  0  0  0  0  0  0  0  0  0
   -3.8410   16.3630  -36.4210 F   0  0  0  0  0  0  0  0  0  0  0  0
   -3.5690   15.2290  -34.4940 F   0  0  0  0  0  0  0  0  0  0  0  0
   -3.5110   18.5080  -33.7000 N   0  0  0  0  0  0  0  0  0  0  0  0
   -4.4590   19.2290  -33.1220 N   0  0  0  0  0  0  0  0  0  0  0  0
   -4.1660   20.4080  -32.3570 C   0  0  0  0  0  0  0  0  0  0  0  0
   -3.0860   21.2410  -32.6890 C   0  0  0  0  0  0  0  0  0  0  0  0
   -2.8230   22.3680  -31.9080 C   0  0  0  0  0  0  0  0  0  0  0  0
   -3.6180   22.6450  -30.7920 C   0  0  0  0  0  0  0  0  0  0  0  0
   -3.3080   24.0730  -29.8110 S   0  0  0  0  0  0  0  0  0  0  0  0
   -4.0830   23.8770  -28.2220 C   0  0  0  0  0  0  0  0  0  0  0  0
   -1.8260   24.2550  -29.6280 O   0  0  0  0  0  0  0  0  0  0  0  0
   -3.8620   25.2910  -30.4950 O   0  0  0  0  0  0  0  0  0  0  0  0
   -4.6730   21.7820  -30.4800 C   0  0  0  0  0  0  0  0  0  0  0  0
   -4.9160   20.6910  -31.2560 N   0  0  0  0  0  0  0  0  0  0  0  0
   -7.2740   20.4730  -32.7060 C   0  0  0  0  0  0  0  0  0  0  0  0
   -8.8919   22.6011  -30.9763 H   0  0  0  0  0  0  0  0  0  0  0  0
   -8.0451   22.9311  -32.5257 H   0  0  0  0  0  0  0  0  0  0  0  0
   -9.7989   22.5425  -32.5257 H   0  0  0  0  0  0  0  0  0  0  0  0
  -10.4435   20.2196  -31.4405 H   0  0  0  0  0  0  0  0  0  0  0  0
   -9.9341   17.7967  -31.7321 H   0  0  0  0  0  0  0  0  0  0  0  0
   -7.7277   17.0809  -32.6498 H   0  0  0  0  0  0  0  0  0  0  0  0
   -6.2492   16.9412  -34.6703 H   0  0  0  0  0  0  0  0  0  0  0  0
   -2.4522   21.0078  -33.5573 H   0  0  0  0  0  0  0  0  0  0  0  0
   -1.9907   23.0376  -32.1707 H   0  0  0  0  0  0  0  0  0  0  0  0
   -3.3446   24.0637  -27.4284 H   0  0  0  0  0  0  0  0  0  0  0  0
   -4.9121   24.5938  -28.1275 H   0  0  0  0  0  0  0  0  0  0  0  0
   -4.4716   22.8523  -28.1275 H   0  0  0  0  0  0  0  0  0  0  0  0
   -5.3080   21.9855  -29.6052 H   0  0  0  0  0  0  0  0  0  0  0  0
   -6.5345   21.2304  -33.0051 H   0  0  0  0  0  0  0  0  0  0  0  0
  1  2  1  0
  2  3  2  0
  3  4  1  0
  4  5  2  0
  5  6  1  0
  6  7  1  0
  7  8  2  0
  8  9  1  0
  9 10  1  0
 10 11  1  0
 10 12  1  0
 10 13  1  0
  9 14  2  0
 14 15  1  0
 15 16  1  0
 16 17  2  0
 17 18  1  0
 18 19  2  0
 19 20  1  0
 20 21  1  0
 20 22  2  0
 20 23  2  0
 19 24  1  0
 24 25  2  0
  6 26  2  0
 26  2  1  0
 15  7  1  0
 25 16  1  0
  1 27  1  0
  1 28  1  0
  1 29  1  0
  3 30  1  0
  4 31  1  0
  5 32  1  0
  8 33  1  0
 17 34  1  0
 18 35  1  0
 21 36  1  0
 21 37  1  0
 21 38  1  0
 24 39  1  0
 26 40  1  0
M  END
>  <UniqueID>  (8) 
7

>  <SMILES>  (8) 
Cc1cccc(-c2cc(C(F)(F)F)nn2-c2ccc(S(C)(=O)=O)cn2)c1

>  <Energy>  (8) 
77.0913563568009

>  <Genealogy>  (8) 
Cc1cccc(-c2cc(C(F)(F)F)nn2-c2ccc(S(C)(=O)=O)cn2)c1 (3D coordinates assigned)
Cc1cccc(-c2cc(C(F)(F)F)nn2-c2ccc(S(C)(=O)=O)cn2)c1 (optimized conformer: 77.0913563568009 kcal/mol)

>  <smiles>  (8) 
Cc1cccc(-c2cc(C(F)(F)F)nn2-c2ccc(S(C)(=O)=O)cn2)c1

>  <score_type>  (8) 
oracle

>  <origin>  (8) 
adgpu

>  <m_score__min__energy>  (8) 
-8.7599999999999998

>  <m_primary>  (8) 
energy

$$$$
8:0
     RDKit          3D

 45 46  0  0  0  0  0  0  0  0999 V2000
   -4.8290   24.5850  -28.4380 N   0  0  0  0  0  0  0  0  0  0  0  0
   -5.0240   24.7690  -30.1460 S   0  0  0  0  0  0  0  0  0  0  0  0
   -3.7420   24.4010  -30.8420 O   0  0  0  0  0  0  0  0  0  0  0  0
   -5.3520   26.2010  -30.4640 O   0  0  0  0  0  0  0  0  0  0  0  0
   -6.3250   23.7200  -30.7010 C   0  0  0  0  0  0  0  0  0  0  0  0
   -6.9420   22.8320  -29.8090 C   0  0  0  0  0  0  0  0  0  0  0  0
   -8.0140   22.0400  -30.2330 C   0  0  0  0  0  0  0  0  0  0  0  0
   -8.4670   22.1160  -31.5590 C   0  0  0  0  0  0  0  0  0  0  0  0
   -9.6500   21.2970  -31.9980 C   0  0  0  0  0  0  0  0  0  0  0  0
   -9.2100   20.0480  -32.6380 N   0  0  0  0  0  0  0  0  0  0  0  0
   -9.0240   18.9410  -31.6800 C   0  0  0  0  0  0  0  0  0  0  0  0
   -7.6290   18.3250  -31.8180 C   0  0  0  0  0  0  0  0  0  0  0  0
   -6.9350   18.8710  -32.9840 N   0  0  0  0  0  0  0  0  0  0  0  0
   -5.6360   19.4810  -32.9010 C   0  0  0  0  0  0  0  0  0  0  0  0
   -5.3530   20.3810  -31.8600 C   0  0  0  0  0  0  0  0  0  0  0  0
   -4.0830   20.9400  -31.7250 C   0  0  0  0  0  0  0  0  0  0  0  0
   -3.0670   20.6250  -32.6380 C   0  0  0  0  0  0  0  0  0  0  0  0
   -1.6840   21.2070  -32.4770 C   0  0  0  0  0  0  0  0  0  0  0  0
   -0.8070   20.2640  -31.9700 F   0  0  0  0  0  0  0  0  0  0  0  0
   -1.2240   21.6330  -33.7090 F   0  0  0  0  0  0  0  0  0  0  0  0
   -1.7090   22.2820  -31.6070 F   0  0  0  0  0  0  0  0  0  0  0  0
   -3.3280   19.6880  -33.6490 C   0  0  0  0  0  0  0  0  0  0  0  0
   -4.6040   19.1200  -33.8010 C   0  0  0  0  0  0  0  0  0  0  0  0
   -4.8330   18.1990  -34.8820 N   0  0  0  0  0  0  0  0  0  0  0  0
   -3.9070   17.4880  -35.3200 O   0  0  0  0  0  0  0  0  0  0  0  0
   -6.1140   17.9770  -35.3360 O   0  0  0  0  0  0  0  0  0  0  0  0
   -7.8380   22.9950  -32.4550 C   0  0  0  0  0  0  0  0  0  0  0  0
   -6.7800   23.8010  -32.0240 C   0  0  0  0  0  0  0  0  0  0  0  0
   -4.7460   25.5440  -28.0320 H   0  0  0  0  0  0  0  0  0  0  0  0
   -5.7180   24.1770  -28.0720 H   0  0  0  0  0  0  0  0  0  0  0  0
   -6.5819   22.7578  -28.7723 H   0  0  0  0  0  0  0  0  0  0  0  0
   -8.5036   21.3553  -29.5248 H   0  0  0  0  0  0  0  0  0  0  0  0
  -10.2670   21.0548  -31.1202 H   0  0  0  0  0  0  0  0  0  0  0  0
  -10.2331   21.8805  -32.7257 H   0  0  0  0  0  0  0  0  0  0  0  0
   -9.9670   19.7640  -33.3060 H   0  0  0  0  0  0  0  0  0  0  0  0
   -9.1478   19.3259  -30.6570 H   0  0  0  0  0  0  0  0  0  0  0  0
   -9.7730   18.1639  -31.8924 H   0  0  0  0  0  0  0  0  0  0  0  0
   -7.0448   18.5481  -30.9130 H   0  0  0  0  0  0  0  0  0  0  0  0
   -7.7341   17.2376  -31.9465 H   0  0  0  0  0  0  0  0  0  0  0  0
   -7.4810   18.9550  -33.8720 H   0  0  0  0  0  0  0  0  0  0  0  0
   -6.1431   20.6479  -31.1427 H   0  0  0  0  0  0  0  0  0  0  0  0
   -3.8767   21.6332  -30.8962 H   0  0  0  0  0  0  0  0  0  0  0  0
   -2.5198   19.3930  -34.3344 H   0  0  0  0  0  0  0  0  0  0  0  0
   -8.1787   23.0497  -33.4995 H   0  0  0  0  0  0  0  0  0  0  0  0
   -6.3031   24.5011  -32.7257 H   0  0  0  0  0  0  0  0  0  0  0  0
  1  2  1  0
  2  3  2  0
  2  4  2  0
  2  5  1  0
  5  6  2  0
  6  7  1  0
  7  8  2  0
  8  9  1  0
  9 10  1  0
 10 11  1  0
 11 12  1  0
 12 13  1  0
 13 14  1  0
 14 15  2  0
 15 16  1  0
 16 17  2  0
 17 18  1  0
 18 19  1  0
 18 20  1  0
 18 21  1  0
 17 22  1  0
 22 23  2  0
 23 24  1  0
 24 25  2  0
 24 26  1  0
  8 27  1  0
 27 28  2  0
 28  5  1  0
 23 14  1  0
  1 29  1  0
  1 30  1  0
  6 31  1  0
  7 32  1  0
  9 33  1  0
  9 34  1  0
 10 35  1  0
 11 36  1  0
 11 37  1  0
 12 38  1  0
 12 39  1  0
 13 40  1  0
 15 41  1  0
 16 42  1  0
 22 43  1  0
 27 44  1  0
 28 45  1  0
M  CHG  2  24   1  26  -1
M  END
>  <UniqueID>  (9) 
8

>  <SMILES>  (9) 
NS(=O)(=O)c1ccc(CNCCNc2ccc(C(F)(F)F)cc2[N+](=O)[O-])cc1

>  <Energy>  (9) 
44.918447311157905

>  <Genealogy>  (9) 
NS(=O)(=O)c1ccc(CNCCNc2ccc(C(F)(F)F)cc2[N+](=O)[O-])cc1 (3D coordinates assigned)
NS(=O)(=O)c1ccc(CNCCNc2ccc(C(F)(F)F)cc2[N+](=O)[O-])cc1 (optimized conformer: 44.918447311157905 kcal/mol)

>  <smiles>  (9) 
NS(=O)(=O)c1ccc(CNCCNc2ccc(C(F)(F)F)cc2[N+](=O)[O-])cc1

>  <score_type>  (9) 
oracle

>  <origin>  (9) 
adgpu

>  <m_score__min__energy>  (9) 
-9.5399999999999991

>  <m_primary>  (9) 
energy

$$$$
9:0
     RDKit          3D

 69 72  0  0  0  0  0  0  0  0999 V2000
    0.3190   13.5910  -26.0030 C   0  0  0  0  0  0  0  0  0  0  0  0
    1.7840   13.8720  -26.3220 C   0  0  0  0  0  0  0  0  0  0  0  0
    1.9300   15.1630  -27.0120 N   0  0  0  0  0  0  0  0  0  0  0  0
    2.6800   16.2420  -26.3440 C   0  0  0  0  0  0  0  0  0  0  0  0
    3.8950   16.6680  -27.1660 C   0  0  0  0  0  0  0  0  0  0  0  0
    1.4730   15.2810  -28.3790 C   0  0  0  0  0  0  0  0  0  0  0  0
    1.4350   14.2520  -29.1080 O   0  0  0  0  0  0  0  0  0  0  0  0
    1.0360   16.5670  -28.9600 C   0  0  0  0  0  0  0  0  0  0  0  0
    1.0540   16.8840  -30.3060 C   0  0  0  0  0  0  0  0  0  0  0  0
    0.5400   18.1650  -30.3680 C   0  0  0  0  0  0  0  0  0  0  0  0
    0.2480   18.9060  -31.6160 C   0  0  0  0  0  0  0  0  0  0  0  0
    1.0440   19.7980  -32.0090 O   0  0  0  0  0  0  0  0  0  0  0  0
   -0.9700   18.7030  -32.3440 N   0  0  0  0  0  0  0  0  0  0  0  0
   -2.1590   19.4970  -32.2330 C   0  0  0  0  0  0  0  0  0  0  0  0
   -2.4550   20.1000  -31.0040 C   0  0  0  0  0  0  0  0  0  0  0  0
   -3.6120   20.8690  -30.8550 C   0  0  0  0  0  0  0  0  0  0  0  0
   -4.4700   21.0710  -31.9430 C   0  0  0  0  0  0  0  0  0  0  0  0
   -5.6880   21.8870  -31.7840 C   0  0  0  0  0  0  0  0  0  0  0  0
   -6.9150   21.3430  -32.1960 C   0  0  0  0  0  0  0  0  0  0  0  0
   -8.0910   22.0880  -32.0870 C   0  0  0  0  0  0  0  0  0  0  0  0
   -8.0530   23.3810  -31.5660 C   0  0  0  0  0  0  0  0  0  0  0  0
   -6.8420   23.9320  -31.1450 C   0  0  0  0  0  0  0  0  0  0  0  0
   -5.6510   23.1930  -31.2390 C   0  0  0  0  0  0  0  0  0  0  0  0
   -4.1440   23.9200  -30.6560 S   0  0  0  0  0  0  0  0  0  0  0  0
   -4.2270   25.6380  -30.8270 N   0  0  0  0  0  0  0  0  0  0  0  0
   -3.9340   23.5810  -29.2070 O   0  0  0  0  0  0  0  0  0  0  0  0
   -2.9790   23.3870  -31.4410 O   0  0  0  0  0  0  0  0  0  0  0  0
   -4.1650   20.4900  -33.1820 C   0  0  0  0  0  0  0  0  0  0  0  0
   -3.0110   19.7140  -33.3330 C   0  0  0  0  0  0  0  0  0  0  0  0
   -2.7150   19.2100  -34.5570 F   0  0  0  0  0  0  0  0  0  0  0  0
    0.2290   18.5640  -29.1120 N   0  0  0  0  0  0  0  0  0  0  0  0
   -0.2870   19.8350  -28.6860 C   0  0  0  0  0  0  0  0  0  0  0  0
   -1.2890   19.8900  -27.7080 C   0  0  0  0  0  0  0  0  0  0  0  0
   -1.7760   21.1230  -27.2640 C   0  0  0  0  0  0  0  0  0  0  0  0
   -1.2560   22.3190  -27.7740 C   0  0  0  0  0  0  0  0  0  0  0  0
   -1.7850   23.5600  -27.2860 N   0  0  0  0  0  0  0  0  0  0  0  0
   -1.2140   25.1420  -27.7100 S   0  0  0  0  0  0  0  0  0  0  0  0
   -1.5410   26.2840  -26.3840 C   0  0  0  0  0  0  0  0  0  0  0  0
   -1.9470   25.6050  -28.9370 O   0  0  0  0  0  0  0  0  0  0  0  0
    0.2570   25.0950  -28.0140 O   0  0  0  0  0  0  0  0  0  0  0  0
   -0.2350   22.2650  -28.7400 C   0  0  0  0  0  0  0  0  0  0  0  0
    0.2480   21.0330  -29.1870 C   0  0  0  0  0  0  0  0  0  0  0  0
    0.5220   17.5940  -28.2590 N   0  0  0  0  0  0  0  0  0  0  0  0
    0.1799   13.5643  -24.9122 H   0  0  0  0  0  0  0  0  0  0  0  0
   -0.3088   14.3851  -26.4334 H   0  0  0  0  0  0  0  0  0  0  0  0
    0.0295   12.6210  -26.4334 H   0  0  0  0  0  0  0  0  0  0  0  0
    2.3588   13.8971  -25.3845 H   0  0  0  0  0  0  0  0  0  0  0  0
    2.1605   13.0756  -26.9807 H   0  0  0  0  0  0  0  0  0  0  0  0
    2.0166   17.1092  -26.2102 H   0  0  0  0  0  0  0  0  0  0  0  0
    3.0337   15.8673  -25.3721 H   0  0  0  0  0  0  0  0  0  0  0  0
    4.7133   16.9549  -26.4892 H   0  0  0  0  0  0  0  0  0  0  0  0
    4.2205   15.8304  -27.8004 H   0  0  0  0  0  0  0  0  0  0  0  0
    3.6262   17.5255  -27.8004 H   0  0  0  0  0  0  0  0  0  0  0  0
    1.4001   16.2566  -31.1406 H   0  0  0  0  0  0  0  0  0  0  0  0
   -1.7728   19.9674  -30.1513 H   0  0  0  0  0  0  0  0  0  0  0  0
   -3.8498   21.3175  -29.8791 H   0  0  0  0  0  0  0  0  0  0  0  0
   -6.9502   20.3234  -32.6073 H   0  0  0  0  0  0  0  0  0  0  0  0
   -9.0482   21.6546  -32.4124 H   0  0  0  0  0  0  0  0  0  0  0  0
   -8.9799   23.9680  -31.4867 H   0  0  0  0  0  0  0  0  0  0  0  0
   -6.8198   24.9530  -30.7363 H   0  0  0  0  0  0  0  0  0  0  0  0
   -3.8610   26.0500  -29.9410 H   0  0  0  0  0  0  0  0  0  0  0  0
   -4.8364   20.6451  -34.0394 H   0  0  0  0  0  0  0  0  0  0  0  0
   -1.6946   18.9580  -27.2873 H   0  0  0  0  0  0  0  0  0  0  0  0
   -2.5742   21.1539  -26.5078 H   0  0  0  0  0  0  0  0  0  0  0  0
   -1.3957   25.7766  -25.4189 H   0  0  0  0  0  0  0  0  0  0  0  0
   -0.8512   27.1378  -26.4569 H   0  0  0  0  0  0  0  0  0  0  0  0
   -2.5781   26.6433  -26.4569 H   0  0  0  0  0  0  0  0  0  0  0  0
    0.1850   23.1974  -29.1453 H   0  0  0  0  0  0  0  0  0  0  0  0
    1.0527   21.0009  -29.9363 H   0  0  0  0  0  0  0  0  0  0  0  0
  1  2  1  0
  2  3  1  0
  3  4  1  0
  4  5  1  0
  3  6  1  0
  6  7  2  0
  6  8  1  0
  8  9  1  0
  9 10  2  0
 10 11  1  0
 11 12  2  0
 11 13  1  0
 13 14  1  0
 14 15  2  0
 15 16  1  0
 16 17  2  0
 17 18  1  0
 18 19  2  0
 19 20  1  0
 20 21  2  0
 21 22  1  0
 22 23  2  0
 23 24  1  0
 24 25  1  0
 24 26  2  0
 24 27  2  0
 17 28  1  0
 28 29  2  0
 29 30  1  0
 10 31  1  0
 31 32  1  0
 32 33  2  0
 33 34  1  0
 34 35  2  0
 35 36  1  0
 36 37  1  0
 37 38  1  0
 37 39  2  0
 37 40  2  0
 35 41  1  0
 41 42  2  0
 31 43  1  0
 43  8  2  0
 29 14  1  0
 42 32  1  0
 23 18  1  0
  1 44  1  0
  1 45  1  0
  1 46  1  0
  2 47  1  0
  2 48  1  0
  4 49  1  0
  4 50  1  0
  5 51  1  0
  5 52  1  0
  5 53  1  0
  9 54  1  0
 15 55  1  0
 16 56  1  0
 19 57  1  0
 20 58  1  0
 21 59  1  0
 22 60  1  0
 25 61  1  0
 28 62  1  0
 33 63  1  0
 34 64  1  0
 38 65  1  0
 38 66  1  0
 38 67  1  0
 41 68  1  0
 42 69  1  0
M  CHG  3  13  -1  25  -1  36  -1
M  END
>  <UniqueID>  (10) 
9

>  <SMILES>  (10) 
CCN(CC)C(=O)c1cc(C(=O)[N-]c2ccc(-c3ccccc3S([NH-])(=O)=O)cc2F)n(-c2ccc([N-]S(C)(=O)=O)cc2)n1

>  <Energy>  (10) 
118.09632498086494

>  <Genealogy>  (10) 
CCN(CC)C(=O)c1cc(C(=O)[N-]c2ccc(-c3ccccc3S([NH-])(=O)=O)cc2F)n(-c2ccc([N-]S(C)(=O)=O)cc2)n1 (protonated)
CCN(CC)C(=O)c1cc(C(=O)[N-]c2ccc(-c3ccccc3S([NH-])(=O)=O)cc2F)n(-c2ccc([N-]S(C)(=O)=O)cc2)n1 (3D coordinates assigned)
CCN(CC)C(=O)c1cc(C(=O)[N-]c2ccc(-c3ccccc3S([NH-])(=O)=O)cc2F)n(-c2ccc([N-]S(C)(=O)=O)cc2)n1 (optimized conformer: 118.09632498086494 kcal/mol)

>  <smiles>  (10) 
CCN(CC)C(=O)c1cc(C(=O)Nc2ccc(-c3ccccc3S(N)(=O)=O)cc2F)n(-c2ccc(NS(C)(=O)=O)cc2)n1

>  <score_type>  (10) 
oracle

>  <origin>  (10) 
adgpu

>  <m_score__min__energy>  (10) 
-12.710000000000001

>  <m_primary>  (10) 
energy

$$$$
10:0
     RDKit          3D

 43 45  0  0  0  0  0  0  0  0999 V2000
   -5.5199   17.3875  -35.1365 H   0  0  0  0  0  0  0  0  0  0  0  0
   -5.8970   17.8370  -34.2060 C   0  0  0  0  0  0  0  0  0  0  0  0
   -6.2220   19.1590  -34.1720 N   0  0  0  0  0  0  0  0  0  0  0  0
   -6.6980   19.7630  -33.0500 C   0  0  0  0  0  0  0  0  0  0  0  0
   -6.9990   21.0290  -33.1060 N   0  0  0  0  0  0  0  0  0  0  0  0
   -7.6590   21.9930  -31.8190 S   0  0  0  0  0  0  0  0  0  0  0  0
   -8.6830   22.9390  -32.3870 O   0  0  0  0  0  0  0  0  0  0  0  0
   -8.3280   21.0920  -30.8200 O   0  0  0  0  0  0  0  0  0  0  0  0
   -6.3660   22.8820  -31.0160 C   0  0  0  0  0  0  0  0  0  0  0  0
   -6.6740   23.9950  -30.2240 C   0  0  0  0  0  0  0  0  0  0  0  0
   -7.7140   24.3458  -30.1511 H   0  0  0  0  0  0  0  0  0  0  0  0
   -5.6630   24.6610  -29.5260 C   0  0  0  0  0  0  0  0  0  0  0  0
   -5.9113   25.5369  -28.9087 H   0  0  0  0  0  0  0  0  0  0  0  0
   -4.3360   24.2210  -29.6070 C   0  0  0  0  0  0  0  0  0  0  0  0
   -3.3440   24.9010  -28.8290 N   0  0  0  0  0  0  0  0  0  0  0  0
   -1.6470   24.5450  -28.8040 S   0  0  0  0  0  0  0  0  0  0  0  0
   -1.3380   23.3380  -29.6480 O   0  0  0  0  0  0  0  0  0  0  0  0
   -0.8810   25.7250  -29.3350 O   0  0  0  0  0  0  0  0  0  0  0  0
   -1.1850   24.1930  -27.1330 C   0  0  0  0  0  0  0  0  0  0  0  0
   -1.0680   25.2480  -26.2110 C   0  0  0  0  0  0  0  0  0  0  0  0
   -1.2497   26.2820  -26.5392 H   0  0  0  0  0  0  0  0  0  0  0  0
   -0.7220   24.9930  -24.8780 C   0  0  0  0  0  0  0  0  0  0  0  0
   -0.5760   26.4370  -23.6330 Br  0  0  0  0  0  0  0  0  0  0  0  0
   -0.4830   23.6830  -24.4540 C   0  0  0  0  0  0  0  0  0  0  0  0
   -0.2040   23.4848  -23.4086 H   0  0  0  0  0  0  0  0  0  0  0  0
   -0.5990   22.6250  -25.3600 C   0  0  0  0  0  0  0  0  0  0  0  0
   -0.4061   21.5953  -25.0246 H   0  0  0  0  0  0  0  0  0  0  0  0
   -0.9600   22.8670  -26.6950 C   0  0  0  0  0  0  0  0  0  0  0  0
   -1.1250   21.4520  -27.8020 S   0  0  0  0  0  0  0  0  0  0  0  0
   -2.9470   21.4690  -27.7690 C   0  0  0  0  0  0  0  0  0  0  0  0
   -3.2948   21.4722  -26.7254 H   0  0  0  0  0  0  0  0  0  0  0  0
   -3.3146   22.3706  -28.2808 H   0  0  0  0  0  0  0  0  0  0  0  0
   -3.3314   20.5744  -28.2808 H   0  0  0  0  0  0  0  0  0  0  0  0
   -4.0200   23.1340  -30.4420 C   0  0  0  0  0  0  0  0  0  0  0  0
   -2.9744   22.8093  -30.5478 H   0  0  0  0  0  0  0  0  0  0  0  0
   -5.0320   22.4650  -31.1380 C   0  0  0  0  0  0  0  0  0  0  0  0
   -4.7814   21.6097  -31.7827 H   0  0  0  0  0  0  0  0  0  0  0  0
   -6.8490   18.9970  -31.8740 C   0  0  0  0  0  0  0  0  0  0  0  0
   -7.2309   19.4637  -30.9540 H   0  0  0  0  0  0  0  0  0  0  0  0
   -6.5100   17.6420  -31.8870 C   0  0  0  0  0  0  0  0  0  0  0  0
   -6.6121   17.0405  -30.9717 H   0  0  0  0  0  0  0  0  0  0  0  0
   -6.0420   17.0520  -33.0610 C   0  0  0  0  0  0  0  0  0  0  0  0
   -5.7903   15.9814  -33.0842 H   0  0  0  0  0  0  0  0  0  0  0  0
  1  2  1  0
  2  3  1  0
  3  4  1  0
  4  5  2  0
  5  6  1  0
  6  7  2  0
  6  8  2  0
  6  9  1  0
  9 10  2  0
 10 11  1  0
 10 12  1  0
 12 13  1  0
 12 14  2  0
 14 15  1  0
 15 16  1  0
 16 17  2  0
 16 18  2  0
 16 19  1  0
 19 20  2  0
 20 21  1  0
 20 22  1  0
 22 23  1  0
 22 24  2  0
 24 25  1  0
 24 26  1  0
 26 27  1  0
 26 28  2  0
 28 29  1  0
 29 30  1  0
 30 31  1  0
 30 32  1  0
 30 33  1  0
 14 34  1  0
 34 35  1  0
 34 36  2  0
 36 37  1  0
  4 38  1  0
 38 39  1  0
 38 40  2  0
 40 41  1  0
 40 42  1  0
 42 43  1  0
 42  2  2  0
 36  9  1  0
 28 19  1  0
M  CHG  2   3  -1  15  -1
M  END
>  <UniqueID>  (11) 
10

>  <SMILES>  (11) 
CSc1ccc(Br)cc1S(=O)(=O)[N-]c1ccc(S(=O)(=O)/N=c2\cccc[n-]2)cc1

>  <Energy>  (11) 
53.6112896774858

>  <Genealogy>  (11) 
CSc1ccc(Br)cc1S(=O)(=O)[N-]c1ccc(S(=O)(=O)N=c2cccc[n-]2)cc1 (protonated)
CSc1ccc(Br)cc1S(=O)(=O)[N-]c1ccc(S(=O)(=O)/N=c2\cccc[n-]2)cc1 (cis-trans isomerization)
CSc1ccc(Br)cc1S(=O)(=O)[N-]c1ccc(S(=O)(=O)/N=c2\cccc[n-]2)cc1 (3D coordinates assigned)
CSc1ccc(Br)cc1S(=O)(=O)[N-]c1ccc(S(=O)(=O)/N=c2\cccc[n-]2)cc1 (optimized conformer: 53.6112896774858 kcal/mol)

>  <smiles>  (11) 
CSc1ccc(Br)cc1S(=O)(=O)Nc1ccc(S(=O)(=O)N=c2cccc[nH]2)cc1

>  <score_type>  (11) 
oracle

>  <origin>  (11) 
adgpu

>  <m_score__min__energy>  (11) 
-11.52

>  <m_primary>  (11) 
energy

$$$$
11:0
     RDKit          3D

 32 33  0  0  0  0  0  0  0  0999 V2000
   -2.3760   24.5650  -28.7940 C   0  0  0  0  0  0  0  0  0  0  0  0
   -3.2290   25.2190  -29.7270 O   0  0  0  0  0  0  0  0  0  0  0  0
   -4.4690   24.7200  -30.1540 C   0  0  0  0  0  0  0  0  0  0  0  0
   -5.6300   25.3740  -29.7260 C   0  0  0  0  0  0  0  0  0  0  0  0
   -6.8880   24.9250  -30.1350 C   0  0  0  0  0  0  0  0  0  0  0  0
   -6.9970   23.8100  -30.9680 C   0  0  0  0  0  0  0  0  0  0  0  0
   -5.8490   23.1250  -31.3910 C   0  0  0  0  0  0  0  0  0  0  0  0
   -5.9860   21.9910  -32.2670 N   0  0  0  0  0  0  0  0  0  0  0  0
   -6.9610   20.9510  -32.0770 C   0  0  0  0  0  0  0  0  0  0  0  0
   -7.9950   21.1810  -31.3930 O   0  0  0  0  0  0  0  0  0  0  0  0
   -6.7920   19.6240  -32.7190 C   0  0  0  0  0  0  0  0  0  0  0  0
   -6.0290   19.4810  -33.8930 C   0  0  0  0  0  0  0  0  0  0  0  0
   -5.8700   18.2250  -34.4870 C   0  0  0  0  0  0  0  0  0  0  0  0
   -6.4650   17.0920  -33.9160 C   0  0  0  0  0  0  0  0  0  0  0  0
   -6.3010   15.8090  -34.5240 N   0  0  0  0  0  0  0  0  0  0  0  0
   -7.2170   17.2260  -32.7420 C   0  0  0  0  0  0  0  0  0  0  0  0
   -7.3770   18.4810  -32.1460 C   0  0  0  0  0  0  0  0  0  0  0  0
   -4.5820   23.5950  -30.9950 C   0  0  0  0  0  0  0  0  0  0  0  0
   -2.6958   24.8102  -27.7705 H   0  0  0  0  0  0  0  0  0  0  0  0
   -2.4330   23.4769  -28.9452 H   0  0  0  0  0  0  0  0  0  0  0  0
   -1.3400   24.9025  -28.9452 H   0  0  0  0  0  0  0  0  0  0  0  0
   -5.5513   26.2480  -29.0627 H   0  0  0  0  0  0  0  0  0  0  0  0
   -7.7943   25.4509  -29.8001 H   0  0  0  0  0  0  0  0  0  0  0  0
   -7.9897   23.4667  -31.2946 H   0  0  0  0  0  0  0  0  0  0  0  0
   -5.4260   21.9850  -33.1490 H   0  0  0  0  0  0  0  0  0  0  0  0
   -5.5543   20.3636  -34.3466 H   0  0  0  0  0  0  0  0  0  0  0  0
   -5.2750   18.1259  -35.4069 H   0  0  0  0  0  0  0  0  0  0  0  0
   -7.1030   15.1430  -34.5910 H   0  0  0  0  0  0  0  0  0  0  0  0
   -5.3780   15.5150  -34.9140 H   0  0  0  0  0  0  0  0  0  0  0  0
   -7.6839   16.3401  -32.2867 H   0  0  0  0  0  0  0  0  0  0  0  0
   -7.9654   18.5747  -31.2213 H   0  0  0  0  0  0  0  0  0  0  0  0
   -3.6746   23.0806  -31.3444 H   0  0  0  0  0  0  0  0  0  0  0  0
  1  2  1  0
  2  3  1  0
  3  4  2  0
  4  5  1  0
  5  6  2  0
  6  7  1  0
  7  8  1  0
  8  9  1  0
  9 10  2  0
  9 11  1  0
 11 12  2  0
 12 13  1  0
 13 14  2  0
 14 15  1  0
 14 16  1  0
 16 17  2  0
  7 18  2  0
 18  3  1  0
 17 11  1  0
  1 19  1  0
  1 20  1  0
  1 21  1  0
  4 22  1  0
  5 23  1  0
  6 24  1  0
  8 25  1  0
 12 26  1  0
 13 27  1  0
 15 28  1  0
 15 29  1  0
 16 30  1  0
 17 31  1  0
 18 32  1  0
M  END
>  <UniqueID>  (12) 
11

>  <SMILES>  (12) 
COc1cccc(NC(=O)c2ccc(N)cc2)c1

>  <Energy>  (12) 
36.43497216137462

>  <Genealogy>  (12) 
COc1cccc(NC(=O)c2ccc(N)cc2)c1 (3D coordinates assigned)
COc1cccc(NC(=O)c2ccc(N)cc2)c1 (optimized conformer: 36.43497216137462 kcal/mol)

>  <smiles>  (12) 
COc1cccc(NC(=O)c2ccc(N)cc2)c1

>  <score_type>  (12) 
oracle

>  <origin>  (12) 
adgpu

>  <m_score__min__energy>  (12) 
-7.04

>  <m_primary>  (12) 
energy

$$$$
12:0
     RDKit          3D

 46 48  0  0  0  0  0  0  0  0999 V2000
   -6.7210   15.9550  -34.1100 C   0  0  0  0  0  0  0  0  0  0  0  0
   -6.2580   17.1560  -33.3400 C   0  0  0  0  0  0  0  0  0  0  0  0
   -7.1430   17.8330  -32.4890 C   0  0  0  0  0  0  0  0  0  0  0  0
   -6.7010   18.9270  -31.7440 C   0  0  0  0  0  0  0  0  0  0  0  0
   -5.3720   19.3470  -31.8320 C   0  0  0  0  0  0  0  0  0  0  0  0
   -4.4610   18.6700  -32.6640 C   0  0  0  0  0  0  0  0  0  0  0  0
   -3.0870   19.1020  -32.7550 N   0  0  0  0  0  0  0  0  0  0  0  0
   -1.9940   18.1430  -32.5740 C   0  0  0  0  0  0  0  0  0  0  0  0
   -2.6970   20.7650  -33.0990 S   0  0  0  0  0  0  0  0  0  0  0  0
   -1.4140   20.8130  -33.8810 O   0  0  0  0  0  0  0  0  0  0  0  0
   -3.7880   21.3810  -33.9300 O   0  0  0  0  0  0  0  0  0  0  0  0
   -2.5160   21.6810  -31.6050 C   0  0  0  0  0  0  0  0  0  0  0  0
   -1.7350   21.1810  -30.5530 C   0  0  0  0  0  0  0  0  0  0  0  0
   -1.5770   21.9240  -29.3830 C   0  0  0  0  0  0  0  0  0  0  0  0
   -2.2050   23.1650  -29.2490 C   0  0  0  0  0  0  0  0  0  0  0  0
   -3.0140   23.6640  -30.2780 C   0  0  0  0  0  0  0  0  0  0  0  0
   -3.6280   24.9500  -30.1090 N   0  0  0  0  0  0  0  0  0  0  0  0
   -4.9840   25.2990  -30.4220 C   0  0  0  0  0  0  0  0  0  0  0  0
   -5.3450   26.5070  -30.4040 O   0  0  0  0  0  0  0  0  0  0  0  0
   -5.9470   24.2470  -30.8200 C   0  0  0  0  0  0  0  0  0  0  0  0
   -6.7000   23.5560  -29.8570 C   0  0  0  0  0  0  0  0  0  0  0  0
   -7.6070   22.5700  -30.2490 C   0  0  0  0  0  0  0  0  0  0  0  0
   -7.7560   22.2760  -31.6050 C   0  0  0  0  0  0  0  0  0  0  0  0
   -8.5710   21.3870  -31.9700 O   0  0  0  0  0  0  0  0  0  0  0  0
   -7.0240   22.9500  -32.5340 N   0  0  0  0  0  0  0  0  0  0  0  0
   -6.1330   23.9170  -32.1750 C   0  0  0  0  0  0  0  0  0  0  0  0
   -3.1510   22.9230  -31.4660 C   0  0  0  0  0  0  0  0  0  0  0  0
   -4.9180   17.5690  -33.4130 C   0  0  0  0  0  0  0  0  0  0  0  0
   -7.0257   15.1646  -33.4082 H   0  0  0  0  0  0  0  0  0  0  0  0
   -7.5765   16.2329  -34.7432 H   0  0  0  0  0  0  0  0  0  0  0  0
   -5.9004   15.5867  -34.7432 H   0  0  0  0  0  0  0  0  0  0  0  0
   -8.1886   17.5009  -32.4084 H   0  0  0  0  0  0  0  0  0  0  0  0
   -7.4019   19.4605  -31.0851 H   0  0  0  0  0  0  0  0  0  0  0  0
   -5.0344   20.2145  -31.2459 H   0  0  0  0  0  0  0  0  0  0  0  0
   -1.8168   17.9875  -31.4996 H   0  0  0  0  0  0  0  0  0  0  0  0
   -2.2647   17.1857  -33.0433 H   0  0  0  0  0  0  0  0  0  0  0  0
   -1.0800   18.5359  -33.0433 H   0  0  0  0  0  0  0  0  0  0  0  0
   -1.2458   20.2006  -30.6507 H   0  0  0  0  0  0  0  0  0  0  0  0
   -0.9564   21.5319  -28.5638 H   0  0  0  0  0  0  0  0  0  0  0  0
   -2.0633   23.7534  -28.3304 H   0  0  0  0  0  0  0  0  0  0  0  0
   -6.5747   23.7925  -28.7901 H   0  0  0  0  0  0  0  0  0  0  0  0
   -8.1990   22.0296  -29.4957 H   0  0  0  0  0  0  0  0  0  0  0  0
   -7.1410   22.7250  -33.5480 H   0  0  0  0  0  0  0  0  0  0  0  0
   -5.5556   24.4428  -32.9497 H   0  0  0  0  0  0  0  0  0  0  0  0
   -3.7602   23.3207  -32.2910 H   0  0  0  0  0  0  0  0  0  0  0  0
   -4.2167   17.0257  -34.0634 H   0  0  0  0  0  0  0  0  0  0  0  0
  1  2  1  0
  2  3  2  0
  3  4  1  0
  4  5  2  0
  5  6  1  0
  6  7  1  0
  7  8  1  0
  7  9  1  0
  9 10  2  0
  9 11  2  0
  9 12  1  0
 12 13  2  0
 13 14  1  0
 14 15  2  0
 15 16  1  0
 16 17  1  0
 17 18  1  0
 18 19  2  0
 18 20  1  0
 20 21  1  0
 21 22  2  0
 22 23  1  0
 23 24  2  0
 23 25  1  0
 25 26  1  0
 16 27  2  0
  6 28  2  0
 28  2  1  0
 27 12  1  0
 26 20  2  0
  1 29  1  0
  1 30  1  0
  1 31  1  0
  3 32  1  0
  4 33  1  0
  5 34  1  0
  8 35  1  0
  8 36  1  0
  8 37  1  0
 13 38  1  0
 14 39  1  0
 15 40  1  0
 21 41  1  0
 22 42  1  0
 25 43  1  0
 26 44  1  0
 27 45  1  0
 28 46  1  0
M  CHG  1  17  -1
M  END
>  <UniqueID>  (13) 
12

>  <SMILES>  (13) 
Cc1cccc(N(C)S(=O)(=O)c2cccc([N-]C(=O)c3ccc(=O)[nH]c3)c2)c1

>  <Energy>  (13) 
56.52521362793693

>  <Genealogy>  (13) 
Cc1cccc(N(C)S(=O)(=O)c2cccc([N-]C(=O)c3ccc(=O)[nH]c3)c2)c1 (protonated)
Cc1cccc(N(C)S(=O)(=O)c2cccc([N-]C(=O)c3ccc(=O)[nH]c3)c2)c1 (3D coordinates assigned)
Cc1cccc(N(C)S(=O)(=O)c2cccc([N-]C(=O)c3ccc(=O)[nH]c3)c2)c1 (optimized conformer: 56.52521362793693 kcal/mol)

>  <smiles>  (13) 
Cc1cccc(N(C)S(=O)(=O)c2cccc(NC(=O)c3ccc(=O)[nH]c3)c2)c1

>  <score_type>  (13) 
oracle

>  <origin>  (13) 
adgpu

>  <m_score__min__energy>  (13) 
-10.949999999999999

>  <m_primary>  (13) 
energy

$$$$
13:0
     RDKit          3D

 42 44  0  0  0  0  0  0  0  0999 V2000
   -2.6420   21.9680  -30.9660 C   0  0  0  0  0  0  0  0  0  0  0  0
   -3.4330   22.8610  -31.7430 O   0  0  0  0  0  0  0  0  0  0  0  0
   -4.6600   23.4030  -31.3260 C   0  0  0  0  0  0  0  0  0  0  0  0
   -5.8860   22.7480  -31.5510 C   0  0  0  0  0  0  0  0  0  0  0  0
   -7.0910   23.3200  -31.1100 C   0  0  0  0  0  0  0  0  0  0  0  0
   -8.4030   22.6350  -31.3890 C   0  0  0  0  0  0  0  0  0  0  0  0
   -8.4250   21.3000  -30.7890 N   0  0  0  0  0  0  0  0  0  0  0  0
   -7.9980   20.1130  -31.4840 C   0  0  0  0  0  0  0  0  0  0  0  0
   -8.8440   18.9990  -31.6350 C   0  0  0  0  0  0  0  0  0  0  0  0
   -8.3980   17.8620  -32.3110 C   0  0  0  0  0  0  0  0  0  0  0  0
   -7.1090   17.8200  -32.8460 C   0  0  0  0  0  0  0  0  0  0  0  0
   -6.2470   18.9210  -32.7090 C   0  0  0  0  0  0  0  0  0  0  0  0
   -4.8750   18.8790  -33.2780 C   0  0  0  0  0  0  0  0  0  0  0  0
   -4.3420   17.6760  -33.7720 C   0  0  0  0  0  0  0  0  0  0  0  0
   -3.0500   17.6580  -34.3020 C   0  0  0  0  0  0  0  0  0  0  0  0
   -2.3120   18.7980  -34.3410 N   0  0  0  0  0  0  0  0  0  0  0  0
   -2.7950   19.9800  -33.8730 C   0  0  0  0  0  0  0  0  0  0  0  0
   -1.9820   21.1530  -33.9410 N   0  0  0  0  0  0  0  0  0  0  0  0
   -4.0860   20.0410  -33.3330 C   0  0  0  0  0  0  0  0  0  0  0  0
   -6.7030   20.0630  -32.0250 C   0  0  0  0  0  0  0  0  0  0  0  0
   -7.0680   24.5660  -30.4680 C   0  0  0  0  0  0  0  0  0  0  0  0
   -5.8540   25.2190  -30.2420 C   0  0  0  0  0  0  0  0  0  0  0  0
   -4.6540   24.6400  -30.6670 C   0  0  0  0  0  0  0  0  0  0  0  0
   -3.4540   25.3010  -30.4350 O   0  0  0  0  0  0  0  0  0  0  0  0
   -2.8136   22.1617  -29.8969 H   0  0  0  0  0  0  0  0  0  0  0  0
   -2.9229   20.9306  -31.2004 H   0  0  0  0  0  0  0  0  0  0  0  0
   -1.5783   22.1217  -31.2004 H   0  0  0  0  0  0  0  0  0  0  0  0
   -5.9004   21.7814  -32.0759 H   0  0  0  0  0  0  0  0  0  0  0  0
   -9.2216   23.2353  -30.9652 H   0  0  0  0  0  0  0  0  0  0  0  0
   -8.5273   22.5367  -32.4775 H   0  0  0  0  0  0  0  0  0  0  0  0
   -8.7690   21.1960  -29.8060 H   0  0  0  0  0  0  0  0  0  0  0  0
   -9.8617   19.0241  -31.2184 H   0  0  0  0  0  0  0  0  0  0  0  0
   -9.0654   16.9948  -32.4228 H   0  0  0  0  0  0  0  0  0  0  0  0
   -6.7665   16.9200  -33.3777 H   0  0  0  0  0  0  0  0  0  0  0  0
   -4.9396   16.7530  -33.7413 H   0  0  0  0  0  0  0  0  0  0  0  0
   -2.6288   16.7184  -34.6889 H   0  0  0  0  0  0  0  0  0  0  0  0
   -1.3380   21.3140  -34.7470 H   0  0  0  0  0  0  0  0  0  0  0  0
   -2.0260   21.8670  -33.1800 H   0  0  0  0  0  0  0  0  0  0  0  0
   -4.4810   20.9949  -32.9533 H   0  0  0  0  0  0  0  0  0  0  0  0
   -6.0350   20.9297  -31.9123 H   0  0  0  0  0  0  0  0  0  0  0  0
   -8.0096   25.0313  -30.1409 H   0  0  0  0  0  0  0  0  0  0  0  0
   -5.8418   26.1916  -29.7282 H   0  0  0  0  0  0  0  0  0  0  0  0
  1  2  1  0
  2  3  1  0
  3  4  2  0
  4  5  1  0
  5  6  1  0
  6  7  1  0
  7  8  1  0
  8  9  2  0
  9 10  1  0
 10 11  2  0
 11 12  1  0
 12 13  1  0
 13 14  2  0
 14 15  1  0
 15 16  2  0
 16 17  1  0
 17 18  1  0
 17 19  2  0
 12 20  2  0
  5 21  2  0
 21 22  1  0
 22 23  2  0
 23 24  1  0
 23  3  1  0
 20  8  1  0
 19 13  1  0
  1 25  1  0
  1 26  1  0
  1 27  1  0
  4 28  1  0
  6 29  1  0
  6 30  1  0
  7 31  1  0
  9 32  1  0
 10 33  1  0
 11 34  1  0
 14 35  1  0
 15 36  1  0
 18 37  1  0
 18 38  1  0
 19 39  1  0
 20 40  1  0
 21 41  1  0
 22 42  1  0
M  CHG  1  24  -1
M  END
>  <UniqueID>  (14) 
13

>  <SMILES>  (14) 
COc1cc(CNc2cccc(-c3ccnc(N)c3)c2)ccc1[O-]

>  <Energy>  (14) 
48.40637539193104

>  <Genealogy>  (14) 
COc1cc(CNc2cccc(-c3ccnc(N)c3)c2)ccc1[O-] (protonated)
COc1cc(CNc2cccc(-c3ccnc(N)c3)c2)ccc1[O-] (3D coordinates assigned)
COc1cc(CNc2cccc(-c3ccnc(N)c3)c2)ccc1[O-] (optimized conformer: 48.40637539193104 kcal/mol)

>  <smiles>  (14) 
COc1cc(CNc2cccc(-c3ccnc(N)c3)c2)ccc1O

>  <score_type>  (14) 
oracle

>  <origin>  (14) 
adgpu

>  <m_score__min__energy>  (14) 
-11.300000000000001

>  <m_primary>  (14) 
energy

$$$$
14:0
     RDKit          3D

 53 56  0  0  0  0  0  0  0  0999 V2000
   -8.3310   21.7410  -31.5740 C   0  0  0  0  0  0  0  0  0  0  0  0
   -7.1000   22.5560  -31.2800 C   0  0  0  0  0  0  0  0  0  0  0  0
   -7.2190   23.7350  -30.5290 C   0  0  0  0  0  0  0  0  0  0  0  0
   -6.0960   24.5140  -30.2460 C   0  0  0  0  0  0  0  0  0  0  0  0
   -4.8310   24.1300  -30.7160 C   0  0  0  0  0  0  0  0  0  0  0  0
   -3.6660   24.9300  -30.4680 N   0  0  0  0  0  0  0  0  0  0  0  0
   -2.5700   24.5500  -29.6250 C   0  0  0  0  0  0  0  0  0  0  0  0
   -1.9720   25.4450  -28.9730 O   0  0  0  0  0  0  0  0  0  0  0  0
   -2.0990   23.1440  -29.5470 C   0  0  0  0  0  0  0  0  0  0  0  0
   -1.4170   22.5550  -30.6250 C   0  0  0  0  0  0  0  0  0  0  0  0
   -0.9850   21.2290  -30.5480 C   0  0  0  0  0  0  0  0  0  0  0  0
   -1.2080   20.4830  -29.3890 C   0  0  0  0  0  0  0  0  0  0  0  0
   -1.8430   21.0670  -28.2790 C   0  0  0  0  0  0  0  0  0  0  0  0
   -2.1120   20.2480  -27.0400 C   0  0  0  0  0  0  0  0  0  0  0  0
   -1.6220   20.9220  -25.9370 F   0  0  0  0  0  0  0  0  0  0  0  0
   -1.4930   19.0120  -27.1240 F   0  0  0  0  0  0  0  0  0  0  0  0
   -3.4720   20.0410  -26.8790 F   0  0  0  0  0  0  0  0  0  0  0  0
   -2.3040   22.3930  -28.3740 C   0  0  0  0  0  0  0  0  0  0  0  0
   -4.7070   22.9720  -31.4890 C   0  0  0  0  0  0  0  0  0  0  0  0
   -5.8300   22.1790  -31.7770 C   0  0  0  0  0  0  0  0  0  0  0  0
   -5.6480   20.9580  -32.5830 C   0  0  0  0  0  0  0  0  0  0  0  0
   -6.6830   20.4880  -33.3980 C   0  0  0  0  0  0  0  0  0  0  0  0
   -6.4950   19.3220  -34.1370 C   0  0  0  0  0  0  0  0  0  0  0  0
   -5.3180   18.6470  -34.0560 N   0  0  0  0  0  0  0  0  0  0  0  0
   -4.2840   19.0700  -33.2750 C   0  0  0  0  0  0  0  0  0  0  0  0
   -3.0730   18.2810  -33.2090 N   0  0  0  0  0  0  0  0  0  0  0  0
   -1.7920   18.9690  -32.9970 C   0  0  0  0  0  0  0  0  0  0  0  0
   -0.7580   18.0080  -32.4090 C   0  0  0  0  0  0  0  0  0  0  0  0
   -0.6740   16.8320  -33.1880 O   0  0  0  0  0  0  0  0  0  0  0  0
   -1.8870   16.1170  -33.0930 C   0  0  0  0  0  0  0  0  0  0  0  0
   -3.0370   16.9060  -33.7260 C   0  0  0  0  0  0  0  0  0  0  0  0
   -4.4390   20.2520  -32.5240 C   0  0  0  0  0  0  0  0  0  0  0  0
   -8.7997   21.4307  -30.6285 H   0  0  0  0  0  0  0  0  0  0  0  0
   -9.0422   22.3473  -32.1542 H   0  0  0  0  0  0  0  0  0  0  0  0
   -8.0506   20.8495  -32.1542 H   0  0  0  0  0  0  0  0  0  0  0  0
   -8.2066   24.0484  -30.1597 H   0  0  0  0  0  0  0  0  0  0  0  0
   -6.2032   25.4334  -29.6517 H   0  0  0  0  0  0  0  0  0  0  0  0
   -1.2222   23.1416  -31.5349 H   0  0  0  0  0  0  0  0  0  0  0  0
   -0.4672   20.7708  -31.4035 H   0  0  0  0  0  0  0  0  0  0  0  0
   -0.8850   19.4324  -29.3442 H   0  0  0  0  0  0  0  0  0  0  0  0
   -2.8305   22.8480  -27.5221 H   0  0  0  0  0  0  0  0  0  0  0  0
   -3.7199   22.6787  -31.8757 H   0  0  0  0  0  0  0  0  0  0  0  0
   -7.6363   21.0338  -33.4549 H   0  0  0  0  0  0  0  0  0  0  0  0
   -7.2998   18.9473  -34.7866 H   0  0  0  0  0  0  0  0  0  0  0  0
   -1.4234   19.3522  -33.9599 H   0  0  0  0  0  0  0  0  0  0  0  0
   -1.9468   19.7993  -32.2922 H   0  0  0  0  0  0  0  0  0  0  0  0
    0.2251   18.5011  -32.3912 H   0  0  0  0  0  0  0  0  0  0  0  0
   -1.0655   17.7366  -31.3883 H   0  0  0  0  0  0  0  0  0  0  0  0
   -1.7799   15.1549  -33.6153 H   0  0  0  0  0  0  0  0  0  0  0  0
   -2.1163   15.9533  -32.0297 H   0  0  0  0  0  0  0  0  0  0  0  0
   -2.8975   16.9344  -34.8167 H   0  0  0  0  0  0  0  0  0  0  0  0
   -3.9858   16.4096  -33.4742 H   0  0  0  0  0  0  0  0  0  0  0  0
   -3.6149   20.6188  -31.8944 H   0  0  0  0  0  0  0  0  0  0  0  0
  1  2  1  0
  2  3  2  0
  3  4  1  0
  4  5  2  0
  5  6  1  0
  6  7  1  0
  7  8  2  0
  7  9  1  0
  9 10  2  0
 10 11  1  0
 11 12  2  0
 12 13  1  0
 13 14  1  0
 14 15  1  0
 14 16  1  0
 14 17  1  0
 13 18  2  0
  5 19  1  0
 19 20  2  0
 20 21  1  0
 21 22  2  0
 22 23  1  0
 23 24  2  0
 24 25  1  0
 25 26  1  0
 26 27  1  0
 27 28  1  0
 28 29  1  0
 29 30  1  0
 30 31  1  0
 25 32  2  0
 20  2  1  0
 32 21  1  0
 18  9  1  0
 31 26  1  0
  1 33  1  0
  1 34  1  0
  1 35  1  0
  3 36  1  0
  4 37  1  0
 10 38  1  0
 11 39  1  0
 12 40  1  0
 18 41  1  0
 19 42  1  0
 22 43  1  0
 23 44  1  0
 27 45  1  0
 27 46  1  0
 28 47  1  0
 28 48  1  0
 30 49  1  0
 30 50  1  0
 31 51  1  0
 31 52  1  0
 32 53  1  0
M  CHG  1   6  -1
M  END
>  <UniqueID>  (15) 
14

>  <SMILES>  (15) 
Cc1ccc([N-]C(=O)c2cccc(C(F)(F)F)c2)cc1-c1ccnc(N2CCOCC2)c1

>  <Energy>  (15) 
76.40468190811589

>  <Genealogy>  (15) 
Cc1ccc([N-]C(=O)c2cccc(C(F)(F)F)c2)cc1-c1ccnc(N2CCOCC2)c1 (protonated)
Cc1ccc([N-]C(=O)c2cccc(C(F)(F)F)c2)cc1-c1ccnc(N2CCOCC2)c1 (3D coordinates assigned)
Cc1ccc([N-]C(=O)c2cccc(C(F)(F)F)c2)cc1-c1ccnc(N2CCOCC2)c1 (nonaromatic ring conformer: 76.40468190811589 kcal/mol)

>  <smiles>  (15) 
Cc1ccc(NC(=O)c2cccc(C(F)(F)F)c2)cc1-c1ccnc(N2CCOCC2)c1

>  <score_type>  (15) 
oracle

>  <origin>  (15) 
adgpu

>  <m_score__min__energy>  (15) 
-10.52

>  <m_primary>  (15) 
energy

$$$$
15:0
     RDKit          3D

 44 46  0  0  0  0  0  0  0  0999 V2000
   -6.4890   26.0070  -29.0150 C   0  0  0  0  0  0  0  0  0  0  0  0
   -5.5500   25.8790  -30.0770 O   0  0  0  0  0  0  0  0  0  0  0  0
   -5.2110   24.6670  -30.6990 C   0  0  0  0  0  0  0  0  0  0  0  0
   -6.1350   23.9460  -31.4820 C   0  0  0  0  0  0  0  0  0  0  0  0
   -5.7600   22.7480  -32.0920 C   0  0  0  0  0  0  0  0  0  0  0  0
   -4.4680   22.2410  -31.9130 C   0  0  0  0  0  0  0  0  0  0  0  0
   -3.9670   20.7640  -32.7300 S   0  0  0  0  0  0  0  0  0  0  0  0
   -2.7550   21.0310  -33.5770 O   0  0  0  0  0  0  0  0  0  0  0  0
   -3.6190   19.7150  -31.7110 O   0  0  0  0  0  0  0  0  0  0  0  0
   -5.2560   20.1790  -33.7260 N   0  0  0  0  0  0  0  0  0  0  0  0
   -6.4310   19.6180  -33.1440 C   0  0  0  0  0  0  0  0  0  0  0  0
   -7.5660   20.4200  -32.9730 C   0  0  0  0  0  0  0  0  0  0  0  0
   -8.7160   19.8950  -32.3790 C   0  0  0  0  0  0  0  0  0  0  0  0
   -8.7380   18.5640  -31.9570 C   0  0  0  0  0  0  0  0  0  0  0  0
   -7.6120   17.7540  -32.1280 C   0  0  0  0  0  0  0  0  0  0  0  0
   -6.4470   18.2740  -32.7270 C   0  0  0  0  0  0  0  0  0  0  0  0
   -5.2960   17.4960  -32.9180 O   0  0  0  0  0  0  0  0  0  0  0  0
   -4.7520   17.1590  -34.1900 C   0  0  0  0  0  0  0  0  0  0  0  0
   -3.5480   22.9480  -31.1300 C   0  0  0  0  0  0  0  0  0  0  0  0
   -3.9060   24.1740  -30.5400 C   0  0  0  0  0  0  0  0  0  0  0  0
   -2.9770   24.9210  -29.7400 N   0  0  0  0  0  0  0  0  0  0  0  0
   -1.8160   24.4060  -29.0750 C   0  0  0  0  0  0  0  0  0  0  0  0
   -0.7980   25.1260  -28.9040 O   0  0  0  0  0  0  0  0  0  0  0  0
   -1.8300   23.0410  -28.5360 C   0  0  0  0  0  0  0  0  0  0  0  0
   -2.8500   22.4680  -27.8010 C   0  0  0  0  0  0  0  0  0  0  0  0
   -2.4250   21.1890  -27.5150 C   0  0  0  0  0  0  0  0  0  0  0  0
   -1.1770   21.0600  -28.0910 C   0  0  0  0  0  0  0  0  0  0  0  0
   -0.8500   22.1810  -28.6920 O   0  0  0  0  0  0  0  0  0  0  0  0
   -5.9642   25.9355  -28.0509 H   0  0  0  0  0  0  0  0  0  0  0  0
   -6.9929   26.9821  -29.0867 H   0  0  0  0  0  0  0  0  0  0  0  0
   -7.2356   25.2023  -29.0867 H   0  0  0  0  0  0  0  0  0  0  0  0
   -7.1575   24.3297  -31.6131 H   0  0  0  0  0  0  0  0  0  0  0  0
   -6.4823   22.2006  -32.7154 H   0  0  0  0  0  0  0  0  0  0  0  0
   -7.5519   21.4677  -33.3078 H   0  0  0  0  0  0  0  0  0  0  0  0
   -9.6041   20.5298  -32.2437 H   0  0  0  0  0  0  0  0  0  0  0  0
   -9.6441   18.1520  -31.4887 H   0  0  0  0  0  0  0  0  0  0  0  0
   -7.6351   16.7063  -31.7937 H   0  0  0  0  0  0  0  0  0  0  0  0
   -3.8243   16.5843  -34.0515 H   0  0  0  0  0  0  0  0  0  0  0  0
   -5.4787   16.5527  -34.7506 H   0  0  0  0  0  0  0  0  0  0  0  0
   -4.5327   18.0797  -34.7506 H   0  0  0  0  0  0  0  0  0  0  0  0
   -2.5375   22.5420  -30.9748 H   0  0  0  0  0  0  0  0  0  0  0  0
   -3.8014   22.9348  -27.5062 H   0  0  0  0  0  0  0  0  0  0  0  0
   -2.9705   20.4242  -26.9427 H   0  0  0  0  0  0  0  0  0  0  0  0
   -0.5517   20.1559  -28.0524 H   0  0  0  0  0  0  0  0  0  0  0  0
  1  2  1  0
  2  3  1  0
  3  4  2  0
  4  5  1  0
  5  6  2  0
  6  7  1  0
  7  8  2  0
  7  9  2  0
  7 10  1  0
 10 11  1  0
 11 12  2  0
 12 13  1  0
 13 14  2  0
 14 15  1  0
 15 16  2  0
 16 17  1  0
 17 18  1  0
  6 19  1  0
 19 20  2  0
 20 21  1  0
 21 22  1  0
 22 23  2  0
 22 24  1  0
 24 25  2  0
 25 26  1  0
 26 27  2  0
 27 28  1  0
 20  3  1  0
 28 24  1  0
 16 11  1  0
  1 29  1  0
  1 30  1  0
  1 31  1  0
  4 32  1  0
  5 33  1  0
 12 34  1  0
 13 35  1  0
 14 36  1  0
 15 37  1  0
 18 38  1  0
 18 39  1  0
 18 40  1  0
 19 41  1  0
 25 42  1  0
 26 43  1  0
 27 44  1  0
M  CHG  2  10  -1  21  -1
M  END
>  <UniqueID>  (16) 
15

>  <SMILES>  (16) 
COc1ccc(S(=O)(=O)[N-]c2ccccc2OC)cc1[N-]C(=O)c1ccco1

>  <Energy>  (16) 
80.37672998803704

>  <Genealogy>  (16) 
COc1ccc(S(=O)(=O)[N-]c2ccccc2OC)cc1[N-]C(=O)c1ccco1 (protonated)
COc1ccc(S(=O)(=O)[N-]c2ccccc2OC)cc1[N-]C(=O)c1ccco1 (3D coordinates assigned)
COc1ccc(S(=O)(=O)[N-]c2ccccc2OC)cc1[N-]C(=O)c1ccco1 (optimized conformer: 80.37672998803704 kcal/mol)

>  <smiles>  (16) 
COc1ccc(S(=O)(=O)Nc2ccccc2OC)cc1NC(=O)c1ccco1

>  <score_type>  (16) 
oracle

>  <origin>  (16) 
adgpu

>  <m_score__min__energy>  (16) 
-10.220000000000001

>  <m_primary>  (16) 
energy

$$$$
16:0
     RDKit          3D

 32 33  0  0  0  0  0  0  0  0999 V2000
   -2.3580   20.2350  -27.0950 Cl  0  0  0  0  0  0  0  0  0  0  0  0
   -2.8060   21.6150  -28.0800 C   0  0  0  0  0  0  0  0  0  0  0  0
   -2.9320   22.8790  -27.4980 C   0  0  0  0  0  0  0  0  0  0  0  0
   -3.2870   23.9810  -28.2800 C   0  0  0  0  0  0  0  0  0  0  0  0
   -3.5170   23.8280  -29.6640 C   0  0  0  0  0  0  0  0  0  0  0  0
   -3.8750   24.9020  -30.5000 O   0  0  0  0  0  0  0  0  0  0  0  0
   -5.1820   25.4560  -30.6660 C   0  0  0  0  0  0  0  0  0  0  0  0
   -6.2670   24.3950  -30.4500 C   0  0  0  0  0  0  0  0  0  0  0  0
   -6.7020   23.7150  -31.7560 C   0  0  0  0  0  0  0  0  0  0  0  0
   -8.0390   22.9790  -31.6040 C   0  0  0  0  0  0  0  0  0  0  0  0
   -7.9130   21.5740  -31.9870 N   0  0  0  0  0  0  0  0  0  0  0  0
   -8.8070   20.5950  -31.7710 C   0  0  0  0  0  0  0  0  0  0  0  0
   -8.3110   19.4400  -32.3340 C   0  0  0  0  0  0  0  0  0  0  0  0
   -7.1150   19.6920  -32.9070 N   0  0  0  0  0  0  0  0  0  0  0  0
   -6.9050   21.0060  -32.6770 C   0  0  0  0  0  0  0  0  0  0  0  0
   -3.3950   22.5520  -30.2370 C   0  0  0  0  0  0  0  0  0  0  0  0
   -3.6720   22.3170  -31.9560 Cl  0  0  0  0  0  0  0  0  0  0  0  0
   -3.0380   21.4520  -29.4480 C   0  0  0  0  0  0  0  0  0  0  0  0
   -2.7511   23.0069  -26.4205 H   0  0  0  0  0  0  0  0  0  0  0  0
   -3.3877   24.9727  -27.8147 H   0  0  0  0  0  0  0  0  0  0  0  0
   -5.3231   26.2668  -29.9361 H   0  0  0  0  0  0  0  0  0  0  0  0
   -5.2695   25.8386  -31.6936 H   0  0  0  0  0  0  0  0  0  0  0  0
   -5.8762   23.6266  -29.7668 H   0  0  0  0  0  0  0  0  0  0  0  0
   -7.1484   24.9028  -30.0313 H   0  0  0  0  0  0  0  0  0  0  0  0
   -6.8058   24.4817  -32.5379 H   0  0  0  0  0  0  0  0  0  0  0  0
   -5.9350   22.9735  -32.0244 H   0  0  0  0  0  0  0  0  0  0  0  0
   -8.3640   23.0375  -30.5547 H   0  0  0  0  0  0  0  0  0  0  0  0
   -8.7776   23.4563  -32.2648 H   0  0  0  0  0  0  0  0  0  0  0  0
   -9.7645   20.6975  -31.2393 H   0  0  0  0  0  0  0  0  0  0  0  0
   -8.8130   18.4613  -32.3190 H   0  0  0  0  0  0  0  0  0  0  0  0
   -6.0114   21.5512  -33.0150 H   0  0  0  0  0  0  0  0  0  0  0  0
   -2.9399   20.4569  -29.9063 H   0  0  0  0  0  0  0  0  0  0  0  0
  1  2  1  0
  2  3  2  0
  3  4  1  0
  4  5  2  0
  5  6  1  0
  6  7  1  0
  7  8  1  0
  8  9  1  0
  9 10  1  0
 10 11  1  0
 11 12  1  0
 12 13  2  0
 13 14  1  0
 14 15  2  0
  5 16  1  0
 16 17  1  0
 16 18  2  0
 18  2  1  0
 15 11  1  0
  3 19  1  0
  4 20  1  0
  7 21  1  0
  7 22  1  0
  8 23  1  0
  8 24  1  0
  9 25  1  0
  9 26  1  0
 10 27  1  0
 10 28  1  0
 12 29  1  0
 13 30  1  0
 15 31  1  0
 18 32  1  0
M  END
>  <UniqueID>  (17) 
16

>  <SMILES>  (17) 
Clc1ccc(OCCCCn2ccnc2)c(Cl)c1

>  <Energy>  (17) 
56.546771156865724

>  <Genealogy>  (17) 
Clc1ccc(OCCCCn2ccnc2)c(Cl)c1 (3D coordinates assigned)
Clc1ccc(OCCCCn2ccnc2)c(Cl)c1 (optimized conformer: 56.546771156865724 kcal/mol)

>  <smiles>  (17) 
Clc1ccc(OCCCCn2ccnc2)c(Cl)c1

>  <score_type>  (17) 
oracle

>  <origin>  (17) 
adgpu

>  <m_score__min__energy>  (17) 
-6.75

>  <m_primary>  (17) 
energy

$$$$
17:0
     RDKit          3D

 60 63  0  0  1  0  0  0  0  0999 V2000
   -3.4950   24.1310  -29.9490 C   0  0  0  0  0  0  0  0  0  0  0  0
   -3.8880   25.3020  -30.5360 O   0  0  0  0  0  0  0  0  0  0  0  0
   -5.1940   25.6780  -30.3940 C   0  0  0  0  0  0  0  0  0  0  0  0
   -6.1880   24.5570  -30.2730 C   0  0  0  0  0  0  0  0  0  0  0  0
   -6.6520   24.1010  -31.5040 O   0  0  0  0  0  0  0  0  0  0  0  0
   -6.4340   22.8330  -32.0070 C   0  0  0  0  0  0  0  0  0  0  0  0
   -5.1290   22.4050  -32.2580 C   0  0  0  0  0  0  0  0  0  0  0  0
   -4.9720   21.1290  -32.7600 C   0  0  0  0  0  0  0  0  0  0  0  0
   -3.7110   20.6410  -33.0310 C   0  0  0  0  0  0  0  0  0  0  0  0
   -2.7180   21.4270  -32.7930 N   0  0  0  0  0  0  0  0  0  0  0  0
   -1.4160   20.9590  -33.0590 C   0  0  0  0  0  0  0  0  0  0  0  0
   -0.7500   20.0430  -32.2620 C   0  0  0  0  0  0  0  0  0  0  0  0
    0.5390   19.6320  -32.5980 C   0  0  0  0  0  0  0  0  0  0  0  0
    1.1470   20.1480  -33.7370 C   0  0  0  0  0  0  0  0  0  0  0  0
    2.3950   19.7830  -34.1110 F   0  0  0  0  0  0  0  0  0  0  0  0
    0.4910   21.0720  -34.5530 C   0  0  0  0  0  0  0  0  0  0  0  0
    1.2410   21.7310  -35.9900 Cl  0  0  0  0  0  0  0  0  0  0  0  0
   -0.7880   21.4660  -34.2000 C   0  0  0  0  0  0  0  0  0  0  0  0
   -3.5450   19.3870  -33.5250 N   0  0  0  0  0  0  0  0  0  0  0  0
   -4.6460   18.6160  -33.7500 C   0  0  0  0  0  0  0  0  0  0  0  0
   -4.5430   17.2940  -34.2670 N   0  0  0  0  0  0  0  0  0  0  0  0
   -5.6150   16.3220  -34.1820 C   0  0  0  0  0  0  0  0  0  0  0  0
   -5.1260   14.9560  -33.7920 C   0  0  0  0  0  0  0  0  0  0  0  0
   -3.8610   14.5850  -34.3310 N   0  0  0  0  0  0  0  0  0  0  0  0
   -3.6890   13.2030  -34.6430 C   0  0  0  0  0  0  0  0  0  0  0  0
   -3.3530   15.4650  -35.3620 C   0  0  0  0  0  0  0  0  0  0  0  0
   -3.2940   16.8880  -34.9200 C   0  0  0  0  0  0  0  0  0  0  0  0
   -5.8900   19.0940  -33.4840 N   0  0  0  0  0  0  0  0  0  0  0  0
   -6.0650   20.3200  -33.0000 C   0  0  0  0  0  0  0  0  0  0  0  0
   -7.3550   20.7440  -32.7520 C   0  0  0  0  0  0  0  0  0  0  0  0
   -7.5230   22.0220  -32.2480 C   0  0  0  0  0  0  0  0  0  0  0  0
   -8.8070   22.4830  -31.9850 O   0  0  0  0  0  0  0  0  0  0  0  0
   -9.6760   21.6610  -31.2060 C   0  0  0  0  0  0  0  0  0  0  0  0
   -3.5313   24.2391  -28.8549 H   0  0  0  0  0  0  0  0  0  0  0  0
   -4.1703   23.3203  -30.2600 H   0  0  0  0  0  0  0  0  0  0  0  0
   -2.4673   23.8918  -30.2600 H   0  0  0  0  0  0  0  0  0  0  0  0
   -5.2705   26.2963  -29.4874 H   0  0  0  0  0  0  0  0  0  0  0  0
   -5.4544   26.2094  -31.3213 H   0  0  0  0  0  0  0  0  0  0  0  0
   -5.7072   23.7184  -29.7480 H   0  0  0  0  0  0  0  0  0  0  0  0
   -7.0555   24.9471  -29.7204 H   0  0  0  0  0  0  0  0  0  0  0  0
   -4.2639   23.0562  -32.0642 H   0  0  0  0  0  0  0  0  0  0  0  0
   -1.2386   19.6393  -31.3629 H   0  0  0  0  0  0  0  0  0  0  0  0
    1.0711   18.9050  -31.9668 H   0  0  0  0  0  0  0  0  0  0  0  0
   -1.3211   22.1930  -34.8303 H   0  0  0  0  0  0  0  0  0  0  0  0
   -6.3419   16.6639  -33.4306 H   0  0  0  0  0  0  0  0  0  0  0  0
   -6.0711   16.2406  -35.1797 H   0  0  0  0  0  0  0  0  0  0  0  0
   -5.0510   14.9224  -32.6951 H   0  0  0  0  0  0  0  0  0  0  0  0
   -5.8539   14.2429  -34.2063 H   0  0  0  0  0  0  0  0  0  0  0  0
   -3.6168   12.6230  -33.7112 H   0  0  0  0  0  0  0  0  0  0  0  0
   -4.5501   12.8495  -35.2292 H   0  0  0  0  0  0  0  0  0  0  0  0
   -2.7675   13.0714  -35.2292 H   0  0  0  0  0  0  0  0  0  0  0  0
   -2.3390   15.1385  -35.6364 H   0  0  0  0  0  0  0  0  0  0  0  0
   -4.0414   15.4092  -36.2182 H   0  0  0  0  0  0  0  0  0  0  0  0
   -2.4625   17.0088  -34.2101 H   0  0  0  0  0  0  0  0  0  0  0  0
   -3.1431   17.5216  -35.8065 H   0  0  0  0  0  0  0  0  0  0  0  0
   -6.7100   18.4750  -33.6690 H   0  0  0  0  0  0  0  0  0  0  0  0
   -8.2177   20.0902  -32.9477 H   0  0  0  0  0  0  0  0  0  0  0  0
   -9.4881   21.8388  -30.1369 H   0  0  0  0  0  0  0  0  0  0  0  0
  -10.7220   21.9079  -31.4404 H   0  0  0  0  0  0  0  0  0  0  0  0
   -9.4876   20.6029  -31.4404 H   0  0  0  0  0  0  0  0  0  0  0  0
  1  2  1  0
  2  3  1  0
  3  4  1  0
  4  5  1  0
  5  6  1  0
  6  7  2  0
  7  8  1  0
  8  9  1  0
  9 10  2  0
 10 11  1  0
 11 12  2  0
 12 13  1  0
 13 14  2  0
 14 15  1  0
 14 16  1  0
 16 17  1  0
 16 18  2  0
  9 19  1  0
 19 20  2  0
 20 21  1  0
 21 22  1  0
 22 23  1  0
 23 24  1  0
 24 25  1  0
 24 26  1  0
 26 27  1  0
 20 28  1  0
 28 29  1  0
 29 30  1  0
 30 31  2  0
 31 32  1  0
 32 33  1  0
 31  6  1  0
 29  8  2  0
 18 11  1  0
 27 21  1  0
  1 34  1  0
  1 35  1  0
  1 36  1  0
  3 37  1  0
  3 38  1  0
  4 39  1  0
  4 40  1  0
  7 41  1  0
 12 42  1  0
 13 43  1  0
 18 44  1  0
 22 45  1  0
 22 46  1  0
 23 47  1  0
 23 48  1  0
 25 49  1  0
 25 50  1  0
 25 51  1  0
 26 52  1  0
 26 53  1  0
 27 54  1  0
 27 55  1  0
 28 56  1  0
 30 57  1  0
 33 58  1  0
 33 59  1  0
 33 60  1  0
M  END
>  <smiles>  (18) 
COCCOc1cc2c(=Nc3ccc(F)c(Cl)c3)nc(N3CCN(C)CC3)[nH]c2cc1OC

>  <score_type>  (18) 
oracle

>  <origin>  (18) 
adgpu

>  <m_score__min__energy>  (18) 
-8.4900000000000002

>  <m_primary>  (18) 
energy

$$$$
18:0
     RDKit          3D

 47 49  0  0  0  0  0  0  0  0999 V2000
   -6.2050   16.3720  -33.7190 C   0  0  0  0  0  0  0  0  0  0  0  0
   -6.2920   17.6150  -34.4720 N   0  0  0  0  0  0  0  0  0  0  0  0
   -5.9790   18.8900  -33.9030 C   0  0  0  0  0  0  0  0  0  0  0  0
   -4.8410   19.3990  -34.0990 O   0  0  0  0  0  0  0  0  0  0  0  0
   -6.9850   19.6110  -33.0880 C   0  0  0  0  0  0  0  0  0  0  0  0
   -8.1720   18.9720  -32.6840 C   0  0  0  0  0  0  0  0  0  0  0  0
   -9.1110   19.6520  -31.9060 C   0  0  0  0  0  0  0  0  0  0  0  0
   -8.8850   20.9770  -31.5290 C   0  0  0  0  0  0  0  0  0  0  0  0
   -7.7240   21.6400  -31.9360 C   0  0  0  0  0  0  0  0  0  0  0  0
   -7.5270   22.9670  -31.5270 O   0  0  0  0  0  0  0  0  0  0  0  0
   -6.3360   23.4870  -31.0000 C   0  0  0  0  0  0  0  0  0  0  0  0
   -5.3760   22.6000  -30.5020 C   0  0  0  0  0  0  0  0  0  0  0  0
   -4.1810   23.0810  -29.9600 C   0  0  0  0  0  0  0  0  0  0  0  0
   -3.9390   24.4600  -29.8800 C   0  0  0  0  0  0  0  0  0  0  0  0
   -2.6890   24.9280  -29.3460 N   0  0  0  0  0  0  0  0  0  0  0  0
   -1.5550   24.0820  -29.0950 C   0  0  0  0  0  0  0  0  0  0  0  0
   -1.4190   23.0020  -29.7280 O   0  0  0  0  0  0  0  0  0  0  0  0
   -0.5150   24.4990  -28.2040 N   0  0  0  0  0  0  0  0  0  0  0  0
   -0.6190   25.5310  -27.2130 C   0  0  0  0  0  0  0  0  0  0  0  0
   -0.5000   25.2500  -25.8410 C   0  0  0  0  0  0  0  0  0  0  0  0
   -0.5750   26.2840  -24.8940 C   0  0  0  0  0  0  0  0  0  0  0  0
   -0.4960   25.9730  -23.4280 C   0  0  0  0  0  0  0  0  0  0  0  0
   -0.7830   27.6020  -25.3260 C   0  0  0  0  0  0  0  0  0  0  0  0
   -0.8720   27.8880  -26.6910 C   0  0  0  0  0  0  0  0  0  0  0  0
   -0.7800   26.8600  -27.6320 C   0  0  0  0  0  0  0  0  0  0  0  0
   -0.8670   27.1520  -28.9530 F   0  0  0  0  0  0  0  0  0  0  0  0
   -4.9060   25.3530  -30.3770 C   0  0  0  0  0  0  0  0  0  0  0  0
   -6.1000   24.8710  -30.9200 C   0  0  0  0  0  0  0  0  0  0  0  0
   -6.7660   20.9470  -32.7010 C   0  0  0  0  0  0  0  0  0  0  0  0
   -6.2205   16.5940  -32.6418 H   0  0  0  0  0  0  0  0  0  0  0  0
   -7.0603   15.7287  -33.9732 H   0  0  0  0  0  0  0  0  0  0  0  0
   -5.2684   15.8541  -33.9732 H   0  0  0  0  0  0  0  0  0  0  0  0
   -8.3612   17.9305  -32.9830 H   0  0  0  0  0  0  0  0  0  0  0  0
  -10.0324   19.1417  -31.5889 H   0  0  0  0  0  0  0  0  0  0  0  0
   -9.6253   21.5024  -30.9078 H   0  0  0  0  0  0  0  0  0  0  0  0
   -5.5628   21.5166  -30.5372 H   0  0  0  0  0  0  0  0  0  0  0  0
   -3.4241   22.3721  -29.5932 H   0  0  0  0  0  0  0  0  0  0  0  0
   -2.5710   25.9550  -29.1930 H   0  0  0  0  0  0  0  0  0  0  0  0
   -0.3471   24.2132  -25.5069 H   0  0  0  0  0  0  0  0  0  0  0  0
   -0.7261   26.8789  -22.8481 H   0  0  0  0  0  0  0  0  0  0  0  0
   -1.2225   25.1849  -23.1807 H   0  0  0  0  0  0  0  0  0  0  0  0
    0.5185   25.6272  -23.1807 H   0  0  0  0  0  0  0  0  0  0  0  0
   -0.8763   28.4127  -24.5884 H   0  0  0  0  0  0  0  0  0  0  0  0
   -1.0150   28.9261  -27.0254 H   0  0  0  0  0  0  0  0  0  0  0  0
   -4.7211   26.4366  -30.3379 H   0  0  0  0  0  0  0  0  0  0  0  0
   -6.8590   25.5777  -31.2867 H   0  0  0  0  0  0  0  0  0  0  0  0
   -5.8369   21.4547  -32.9993 H   0  0  0  0  0  0  0  0  0  0  0  0
  1  2  1  0
  2  3  1  0
  3  4  2  0
  3  5  1  0
  5  6  2  0
  6  7  1  0
  7  8  2  0
  8  9  1  0
  9 10  1  0
 10 11  1  0
 11 12  2  0
 12 13  1  0
 13 14  2  0
 14 15  1  0
 15 16  1  0
 16 17  2  0
 16 18  1  0
 18 19  1  0
 19 20  2  0
 20 21  1  0
 21 22  1  0
 21 23  2  0
 23 24  1  0
 24 25  2  0
 25 26  1  0
 14 27  1  0
 27 28  2  0
  9 29  2  0
 29  5  1  0
 28 11  1  0
 25 19  1  0
  1 30  1  0
  1 31  1  0
  1 32  1  0
  6 33  1  0
  7 34  1  0
  8 35  1  0
 12 36  1  0
 13 37  1  0
 15 38  1  0
 20 39  1  0
 22 40  1  0
 22 41  1  0
 22 42  1  0
 23 43  1  0
 24 44  1  0
 27 45  1  0
 28 46  1  0
 29 47  1  0
M  CHG  2   2  -1  18  -1
M  END
>  <UniqueID>  (19) 
17

>  <SMILES>  (19) 
C[N-]C(=O)c1cccc(Oc2ccc(NC(=O)[N-]c3cc(C)ccc3F)cc2)c1

>  <Energy>  (19) 
60.32156997402678

>  <Genealogy>  (19) 
C[N-]C(=O)c1cccc(Oc2ccc(NC(=O)[N-]c3cc(C)ccc3F)cc2)c1 (protonated)
C[N-]C(=O)c1cccc(Oc2ccc(NC(=O)[N-]c3cc(C)ccc3F)cc2)c1 (3D coordinates assigned)
C[N-]C(=O)c1cccc(Oc2ccc(NC(=O)[N-]c3cc(C)ccc3F)cc2)c1 (optimized conformer: 60.32156997402678 kcal/mol)

>  <smiles>  (19) 
CNC(=O)c1cccc(Oc2ccc(NC(=O)Nc3cc(C)ccc3F)cc2)c1

>  <score_type>  (19) 
oracle

>  <origin>  (19) 
adgpu

>  <m_score__min__energy>  (19) 
-10.67

>  <m_primary>  (19) 
energy

$$$$
19:0
     RDKit          3D

 47 49  0  0  0  0  0  0  0  0999 V2000
    3.5670   14.7160  -26.1700 C   0  0  0  0  0  0  0  0  0  0  0  0
    3.7240   16.0100  -26.7430 O   0  0  0  0  0  0  0  0  0  0  0  0
    2.6600   16.8300  -27.1460 C   0  0  0  0  0  0  0  0  0  0  0  0
    2.8460   18.1660  -27.5490 C   0  0  0  0  0  0  0  0  0  0  0  0
    1.7540   18.9410  -27.9490 C   0  0  0  0  0  0  0  0  0  0  0  0
    0.4580   18.3910  -27.9610 C   0  0  0  0  0  0  0  0  0  0  0  0
   -0.6870   19.1410  -28.3920 N   0  0  0  0  0  0  0  0  0  0  0  0
   -1.6740   20.1280  -27.3640 S   0  0  0  0  0  0  0  0  0  0  0  0
   -2.9150   19.3700  -26.9880 O   0  0  0  0  0  0  0  0  0  0  0  0
   -0.9090   20.4630  -26.1140 O   0  0  0  0  0  0  0  0  0  0  0  0
   -2.1390   21.5890  -28.2300 C   0  0  0  0  0  0  0  0  0  0  0  0
   -1.4170   22.0160  -29.3520 C   0  0  0  0  0  0  0  0  0  0  0  0
   -1.8480   23.1250  -30.0840 C   0  0  0  0  0  0  0  0  0  0  0  0
   -3.0130   23.8140  -29.7030 C   0  0  0  0  0  0  0  0  0  0  0  0
   -3.5040   24.9270  -30.4640 N   0  0  0  0  0  0  0  0  0  0  0  0
   -4.8790   25.1530  -30.8040 C   0  0  0  0  0  0  0  0  0  0  0  0
   -5.3400   26.3220  -30.7120 O   0  0  0  0  0  0  0  0  0  0  0  0
   -5.7750   24.0470  -31.2150 C   0  0  0  0  0  0  0  0  0  0  0  0
   -5.2800   22.9570  -31.9530 C   0  0  0  0  0  0  0  0  0  0  0  0
   -6.1330   21.9250  -32.3510 C   0  0  0  0  0  0  0  0  0  0  0  0
   -7.4970   21.9590  -32.0080 C   0  0  0  0  0  0  0  0  0  0  0  0
   -8.3950   20.9510  -32.3920 O   0  0  0  0  0  0  0  0  0  0  0  0
   -8.4400   19.6520  -31.8100 C   0  0  0  0  0  0  0  0  0  0  0  0
   -7.9850   23.0330  -31.2560 C   0  0  0  0  0  0  0  0  0  0  0  0
   -7.1320   24.0670  -30.8560 C   0  0  0  0  0  0  0  0  0  0  0  0
   -3.7020   23.4160  -28.5520 C   0  0  0  0  0  0  0  0  0  0  0  0
   -3.2740   22.3020  -27.8250 C   0  0  0  0  0  0  0  0  0  0  0  0
    0.2760   17.0670  -27.5460 C   0  0  0  0  0  0  0  0  0  0  0  0
    1.3680   16.2940  -27.1430 C   0  0  0  0  0  0  0  0  0  0  0  0
    3.5768   14.7971  -25.0730 H   0  0  0  0  0  0  0  0  0  0  0  0
    2.6098   14.2838  -26.4971 H   0  0  0  0  0  0  0  0  0  0  0  0
    4.3930   14.0674  -26.4971 H   0  0  0  0  0  0  0  0  0  0  0  0
    3.8559   18.6021  -27.5490 H   0  0  0  0  0  0  0  0  0  0  0  0
    1.9078   19.9860  -28.2560 H   0  0  0  0  0  0  0  0  0  0  0  0
   -0.5083   21.4766  -29.6574 H   0  0  0  0  0  0  0  0  0  0  0  0
   -1.2745   23.4601  -30.9608 H   0  0  0  0  0  0  0  0  0  0  0  0
   -4.2133   22.9169  -32.2187 H   0  0  0  0  0  0  0  0  0  0  0  0
   -5.7364   21.0817  -32.9354 H   0  0  0  0  0  0  0  0  0  0  0  0
   -8.4369   19.7411  -30.7136 H   0  0  0  0  0  0  0  0  0  0  0  0
   -9.3565   19.1369  -32.1334 H   0  0  0  0  0  0  0  0  0  0  0  0
   -7.5613   19.0747  -32.1334 H   0  0  0  0  0  0  0  0  0  0  0  0
   -9.0485   23.0646  -30.9769 H   0  0  0  0  0  0  0  0  0  0  0  0
   -7.5268   24.9006  -30.2567 H   0  0  0  0  0  0  0  0  0  0  0  0
   -4.5840   23.9822  -28.2181 H   0  0  0  0  0  0  0  0  0  0  0  0
   -3.8308   21.9840  -26.9312 H   0  0  0  0  0  0  0  0  0  0  0  0
   -0.7341   16.6316  -27.5370 H   0  0  0  0  0  0  0  0  0  0  0  0
    1.2102   15.2543  -26.8204 H   0  0  0  0  0  0  0  0  0  0  0  0
  1  2  1  0
  2  3  1  0
  3  4  2  0
  4  5  1  0
  5  6  2  0
  6  7  1  0
  7  8  1  0
  8  9  2  0
  8 10  2  0
  8 11  1  0
 11 12  2  0
 12 13  1  0
 13 14  2  0
 14 15  1  0
 15 16  1  0
 16 17  2  0
 16 18  1  0
 18 19  2  0
 19 20  1  0
 20 21  2  0
 21 22  1  0
 22 23  1  0
 21 24  1  0
 24 25  2  0
 14 26  1  0
 26 27  2  0
  6 28  1  0
 28 29  2  0
 29  3  1  0
 27 11  1  0
 25 18  1  0
  1 30  1  0
  1 31  1  0
  1 32  1  0
  4 33  1  0
  5 34  1  0
 12 35  1  0
 13 36  1  0
 19 37  1  0
 20 38  1  0
 23 39  1  0
 23 40  1  0
 23 41  1  0
 24 42  1  0
 25 43  1  0
 26 44  1  0
 27 45  1  0
 28 46  1  0
 29 47  1  0
M  CHG  2   7  -1  15  -1
M  END
>  <UniqueID>  (20) 
18

>  <SMILES>  (20) 
COc1ccc([N-]S(=O)(=O)c2ccc([N-]C(=O)c3ccc(OC)cc3)cc2)cc1

>  <Energy>  (20) 
55.9184520279337

>  <Genealogy>  (20) 
COc1ccc([N-]S(=O)(=O)c2ccc([N-]C(=O)c3ccc(OC)cc3)cc2)cc1 (protonated)
COc1ccc([N-]S(=O)(=O)c2ccc([N-]C(=O)c3ccc(OC)cc3)cc2)cc1 (3D coordinates assigned)
COc1ccc([N-]S(=O)(=O)c2ccc([N-]C(=O)c3ccc(OC)cc3)cc2)cc1 (optimized conformer: 55.9184520279337 kcal/mol)

>  <smiles>  (20) 
COc1ccc(NS(=O)(=O)c2ccc(NC(=O)c3ccc(OC)cc3)cc2)cc1

>  <score_type>  (20) 
oracle

>  <origin>  (20) 
adgpu

>  <m_score__min__energy>  (20) 
-10.81

>  <m_primary>  (20) 
energy

$$$$
20:0
     RDKit          3D

 64 68  0  0  0  0  0  0  0  0999 V2000
   -4.1260   16.0960  -34.8920 N   0  0  0  0  0  0  0  0  0  0  0  0
   -4.4940   17.3450  -34.2870 C   0  0  0  0  0  0  0  0  0  0  0  0
   -5.6190   18.0350  -34.7580 C   0  0  0  0  0  0  0  0  0  0  0  0
   -5.9920   19.2550  -34.1930 C   0  0  0  0  0  0  0  0  0  0  0  0
   -5.2530   19.8030  -33.1330 C   0  0  0  0  0  0  0  0  0  0  0  0
   -5.6670   21.0860  -32.5170 C   0  0  0  0  0  0  0  0  0  0  0  0
   -6.9750   21.5690  -32.6910 C   0  0  0  0  0  0  0  0  0  0  0  0
   -7.3750   22.7610  -32.0870 C   0  0  0  0  0  0  0  0  0  0  0  0
   -8.6390   23.2160  -32.2710 F   0  0  0  0  0  0  0  0  0  0  0  0
   -6.4770   23.4840  -31.2960 C   0  0  0  0  0  0  0  0  0  0  0  0
   -5.1600   23.0300  -31.1210 C   0  0  0  0  0  0  0  0  0  0  0  0
   -4.2280   23.7880  -30.2560 C   0  0  0  0  0  0  0  0  0  0  0  0
   -3.8720   24.9450  -30.6080 O   0  0  0  0  0  0  0  0  0  0  0  0
   -3.7460   23.2260  -29.0200 N   0  0  0  0  0  0  0  0  0  0  0  0
   -2.9960   23.9710  -28.0460 C   0  0  0  0  0  0  0  0  0  0  0  0
   -3.6740   24.5850  -26.9820 C   0  0  0  0  0  0  0  0  0  0  0  0
   -2.9670   25.3060  -26.0180 C   0  0  0  0  0  0  0  0  0  0  0  0
   -1.5750   25.4140  -26.1010 C   0  0  0  0  0  0  0  0  0  0  0  0
   -0.8760   24.8050  -27.1580 C   0  0  0  0  0  0  0  0  0  0  0  0
    0.6280   24.8790  -27.2210 C   0  0  0  0  0  0  0  0  0  0  0  0
    1.1120   24.1550  -28.2970 F   0  0  0  0  0  0  0  0  0  0  0  0
    1.0170   26.1980  -27.3570 F   0  0  0  0  0  0  0  0  0  0  0  0
    1.1880   24.3630  -26.0670 F   0  0  0  0  0  0  0  0  0  0  0  0
   -1.5940   24.0550  -28.1090 C   0  0  0  0  0  0  0  0  0  0  0  0
   -4.7630   21.8280  -31.7340 C   0  0  0  0  0  0  0  0  0  0  0  0
   -4.1260   19.1090  -32.6550 C   0  0  0  0  0  0  0  0  0  0  0  0
   -3.7290   17.8920  -33.2390 C   0  0  0  0  0  0  0  0  0  0  0  0
   -2.5860   17.1790  -32.7470 N   0  0  0  0  0  0  0  0  0  0  0  0
   -1.3190   17.7570  -32.4180 C   0  0  0  0  0  0  0  0  0  0  0  0
   -0.5810   17.1850  -31.5690 O   0  0  0  0  0  0  0  0  0  0  0  0
   -0.9320   19.0750  -33.0000 C   0  0  0  0  0  0  0  0  0  0  0  0
   -0.7110   19.1600  -34.3910 C   0  0  0  0  0  0  0  0  0  0  0  0
   -0.4470   20.3850  -35.0000 C   0  0  0  0  0  0  0  0  0  0  0  0
   -0.3890   21.5480  -34.2350 C   0  0  0  0  0  0  0  0  0  0  0  0
   -0.5780   21.4900  -32.8560 C   0  0  0  0  0  0  0  0  0  0  0  0
   -0.8350   20.2620  -32.2190 C   0  0  0  0  0  0  0  0  0  0  0  0
   -0.9550   20.2660  -30.7450 C   0  0  0  0  0  0  0  0  0  0  0  0
    0.1660   19.9900  -29.9460 C   0  0  0  0  0  0  0  0  0  0  0  0
    0.0460   19.9580  -28.5530 C   0  0  0  0  0  0  0  0  0  0  0  0
   -1.1940   20.1960  -27.9490 C   0  0  0  0  0  0  0  0  0  0  0  0
   -2.3140   20.4670  -28.7390 C   0  0  0  0  0  0  0  0  0  0  0  0
   -2.1980   20.5020  -30.1320 C   0  0  0  0  0  0  0  0  0  0  0  0
   -3.3100   15.5540  -34.5310 H   0  0  0  0  0  0  0  0  0  0  0  0
   -4.6690   15.6850  -35.6800 H   0  0  0  0  0  0  0  0  0  0  0  0
   -6.2135   17.6110  -35.5807 H   0  0  0  0  0  0  0  0  0  0  0  0
   -6.8709   19.7908  -34.5808 H   0  0  0  0  0  0  0  0  0  0  0  0
   -7.6886   21.0031  -33.3079 H   0  0  0  0  0  0  0  0  0  0  0  0
   -6.8042   24.4139  -30.8080 H   0  0  0  0  0  0  0  0  0  0  0  0
   -4.0390   22.2560  -28.7620 H   0  0  0  0  0  0  0  0  0  0  0  0
   -4.7680   24.4978  -26.9071 H   0  0  0  0  0  0  0  0  0  0  0  0
   -3.5063   25.7906  -25.1907 H   0  0  0  0  0  0  0  0  0  0  0  0
   -1.0238   25.9788  -25.3347 H   0  0  0  0  0  0  0  0  0  0  0  0
   -1.0525   23.5295  -28.9094 H   0  0  0  0  0  0  0  0  0  0  0  0
   -3.7338   21.4635  -31.5999 H   0  0  0  0  0  0  0  0  0  0  0  0
   -3.5487   19.5227  -31.8150 H   0  0  0  0  0  0  0  0  0  0  0  0
   -0.7476   18.2467  -35.0029 H   0  0  0  0  0  0  0  0  0  0  0  0
   -0.2841   20.4340  -36.0868 H   0  0  0  0  0  0  0  0  0  0  0  0
   -0.1934   22.5150  -34.7214 H   0  0  0  0  0  0  0  0  0  0  0  0
   -0.5258   22.4128  -32.2596 H   0  0  0  0  0  0  0  0  0  0  0  0
    1.1414   19.7984  -30.4170 H   0  0  0  0  0  0  0  0  0  0  0  0
    0.9279   19.7454  -27.9308 H   0  0  0  0  0  0  0  0  0  0  0  0
   -1.2866   20.1697  -26.8532 H   0  0  0  0  0  0  0  0  0  0  0  0
   -3.2887   20.6531  -28.2643 H   0  0  0  0  0  0  0  0  0  0  0  0
   -3.0824   20.7149  -30.7504 H   0  0  0  0  0  0  0  0  0  0  0  0
  1  2  1  0
  2  3  2  0
  3  4  1  0
  4  5  2  0
  5  6  1  0
  6  7  2  0
  7  8  1  0
  8  9  1  0
  8 10  2  0
 10 11  1  0
 11 12  1  0
 12 13  2  0
 12 14  1  0
 14 15  1  0
 15 16  2  0
 16 17  1  0
 17 18  2  0
 18 19  1  0
 19 20  1  0
 20 21  1  0
 20 22  1  0
 20 23  1  0
 19 24  2  0
 11 25  2  0
  5 26  1  0
 26 27  2  0
 27 28  1  0
 28 29  1  0
 29 30  2  0
 29 31  1  0
 31 32  2  0
 32 33  1  0
 33 34  2  0
 34 35  1  0
 35 36  2  0
 36 37  1  0
 37 38  2  0
 38 39  1  0
 39 40  2  0
 40 41  1  0
 41 42  2  0
 27  2  1  0
 36 31  1  0
 42 37  1  0
 25  6  1  0
 24 15  1  0
  1 43  1  0
  1 44  1  0
  3 45  1  0
  4 46  1  0
  7 47  1  0
 10 48  1  0
 14 49  1  0
 16 50  1  0
 17 51  1  0
 18 52  1  0
 24 53  1  0
 25 54  1  0
 26 55  1  0
 32 56  1  0
 33 57  1  0
 34 58  1  0
 35 59  1  0
 38 60  1  0
 39 61  1  0
 40 62  1  0
 41 63  1  0
 42 64  1  0
M  CHG  1  28  -1
M  END
>  <UniqueID>  (21) 
19

>  <SMILES>  (21) 
Nc1ccc(-c2cc(F)cc(C(=O)Nc3cccc(C(F)(F)F)c3)c2)cc1[N-]C(=O)c1ccccc1-c1ccccc1

>  <Energy>  (21) 
98.04040554621957

>  <Genealogy>  (21) 
Nc1ccc(-c2cc(F)cc(C(=O)Nc3cccc(C(F)(F)F)c3)c2)cc1[N-]C(=O)c1ccccc1-c1ccccc1 (protonated)
Nc1ccc(-c2cc(F)cc(C(=O)Nc3cccc(C(F)(F)F)c3)c2)cc1[N-]C(=O)c1ccccc1-c1ccccc1 (3D coordinates assigned)
Nc1ccc(-c2cc(F)cc(C(=O)Nc3cccc(C(F)(F)F)c3)c2)cc1[N-]C(=O)c1ccccc1-c1ccccc1 (optimized conformer: 98.04040554621957 kcal/mol)

>  <smiles>  (21) 
Nc1ccc(-c2cc(F)cc(C(=O)Nc3cccc(C(F)(F)F)c3)c2)cc1NC(=O)c1ccccc1-c1ccccc1

>  <score_type>  (21) 
oracle

>  <origin>  (21) 
adgpu

>  <m_score__min__energy>  (21) 
-12.800000000000001

>  <m_primary>  (21) 
energy

$$$$
21:0
     RDKit          3D

 39 41  0  0  0  0  0  0  0  0999 V2000
   -1.3910   26.0420  -28.9680 N   0  0  0  0  0  0  0  0  0  0  0  0
   -0.5110   25.5190  -27.9740 C   0  0  0  0  0  0  0  0  0  0  0  0
    0.4270   26.2480  -27.5520 O   0  0  0  0  0  0  0  0  0  0  0  0
   -0.6930   24.1460  -27.4260 C   0  0  0  0  0  0  0  0  0  0  0  0
   -0.3200   23.8870  -26.0920 C   0  0  0  0  0  0  0  0  0  0  0  0
   -0.4780   22.6160  -25.5380 C   0  0  0  0  0  0  0  0  0  0  0  0
   -1.0000   21.5790  -26.3080 C   0  0  0  0  0  0  0  0  0  0  0  0
   -1.3710   21.8110  -27.6310 C   0  0  0  0  0  0  0  0  0  0  0  0
   -1.2380   23.0910  -28.2010 C   0  0  0  0  0  0  0  0  0  0  0  0
   -1.5850   23.3080  -29.5430 O   0  0  0  0  0  0  0  0  0  0  0  0
   -2.8890   23.2780  -30.0620 C   0  0  0  0  0  0  0  0  0  0  0  0
   -3.9100   23.9170  -29.3510 C   0  0  0  0  0  0  0  0  0  0  0  0
   -5.2240   23.8960  -29.8270 C   0  0  0  0  0  0  0  0  0  0  0  0
   -5.5320   23.2300  -31.0200 C   0  0  0  0  0  0  0  0  0  0  0  0
   -7.1900   23.1900  -31.6100 S   0  0  0  0  0  0  0  0  0  0  0  0
   -7.9850   24.2740  -30.9370 O   0  0  0  0  0  0  0  0  0  0  0  0
   -7.1950   23.4180  -33.0960 O   0  0  0  0  0  0  0  0  0  0  0  0
   -7.8730   21.6350  -31.2450 N   0  0  0  0  0  0  0  0  0  0  0  0
   -7.6230   20.5150  -31.8600 C   0  0  0  0  0  0  0  0  0  0  0  0
   -6.7240   20.4280  -32.9430 C   0  0  0  0  0  0  0  0  0  0  0  0
   -6.5030   19.1910  -33.5530 C   0  0  0  0  0  0  0  0  0  0  0  0
   -7.1700   18.0570  -33.0900 C   0  0  0  0  0  0  0  0  0  0  0  0
   -6.9620   16.8520  -33.6760 F   0  0  0  0  0  0  0  0  0  0  0  0
   -8.0530   18.1750  -32.0160 C   0  0  0  0  0  0  0  0  0  0  0  0
   -8.2560   19.3870  -31.4340 N   0  0  0  0  0  0  0  0  0  0  0  0
   -4.5170   22.5660  -31.7220 C   0  0  0  0  0  0  0  0  0  0  0  0
   -3.2030   22.5860  -31.2460 C   0  0  0  0  0  0  0  0  0  0  0  0
   -1.6020   25.5020  -29.8360 H   0  0  0  0  0  0  0  0  0  0  0  0
    0.1013   24.6975  -25.4792 H   0  0  0  0  0  0  0  0  0  0  0  0
   -0.1901   22.4327  -24.4923 H   0  0  0  0  0  0  0  0  0  0  0  0
   -1.1194   20.5765  -25.8714 H   0  0  0  0  0  0  0  0  0  0  0  0
   -1.7721   20.9848  -28.2364 H   0  0  0  0  0  0  0  0  0  0  0  0
   -3.6774   24.4394  -28.4113 H   0  0  0  0  0  0  0  0  0  0  0  0
   -6.0194   24.4046  -29.2624 H   0  0  0  0  0  0  0  0  0  0  0  0
   -6.2015   21.3261  -33.3041 H   0  0  0  0  0  0  0  0  0  0  0  0
   -5.8033   19.1113  -34.3980 H   0  0  0  0  0  0  0  0  0  0  0  0
   -8.5845   17.2882  -31.6404 H   0  0  0  0  0  0  0  0  0  0  0  0
   -4.7553   22.0272  -32.6509 H   0  0  0  0  0  0  0  0  0  0  0  0
   -2.4116   22.0589  -31.7990 H   0  0  0  0  0  0  0  0  0  0  0  0
  1  2  1  0
  2  3  2  0
  2  4  1  0
  4  5  2  0
  5  6  1  0
  6  7  2  0
  7  8  1  0
  8  9  2  0
  9 10  1  0
 10 11  1  0
 11 12  2  0
 12 13  1  0
 13 14  2  0
 14 15  1  0
 15 16  2  0
 15 17  2  0
 15 18  1  0
 18 19  2  3
 19 20  1  0
 20 21  2  0
 21 22  1  0
 22 23  1  0
 22 24  2  0
 24 25  1  0
 14 26  1  0
 26 27  2  0
  9  4  1  0
 27 11  1  0
 25 19  1  0
  1 28  1  0
  5 29  1  0
  6 30  1  0
  7 31  1  0
  8 32  1  0
 12 33  1  0
 13 34  1  0
 20 35  1  0
 21 36  1  0
 24 37  1  0
 26 38  1  0
 27 39  1  0
M  CHG  2   1  -1  25  -1
M  END
>  <UniqueID>  (22) 
20

>  <SMILES>  (22) 
[NH-]C(=O)c1ccccc1Oc1ccc(S(=O)(=O)N=c2ccc(F)c[n-]2)cc1

>  <Energy>  (22) 
57.84020620018115

>  <Genealogy>  (22) 
[NH-]C(=O)c1ccccc1Oc1ccc(S(=O)(=O)N=c2ccc(F)c[n-]2)cc1 (protonated)
[NH-]C(=O)c1ccccc1Oc1ccc(S(=O)(=O)N=c2ccc(F)c[n-]2)cc1 (3D coordinates assigned)
[NH-]C(=O)c1ccccc1Oc1ccc(S(=O)(=O)N=c2ccc(F)c[n-]2)cc1 (optimized conformer: 57.84020620018115 kcal/mol)

>  <smiles>  (22) 
NC(=O)c1ccccc1Oc1ccc(S(=O)(=O)N=c2ccc(F)c[nH]2)cc1

>  <score_type>  (22) 
oracle

>  <origin>  (22) 
adgpu

>  <m_score__min__energy>  (22) 
-10.9

>  <m_primary>  (22) 
energy

$$$$
22:0
     RDKit          3D

 43 45  0  0  1  0  0  0  0  0999 V2000
   -5.9630   17.0730  -34.4980 N   0  0  0  0  0  0  0  0  0  0  0  0
   -6.1070   18.2460  -33.9810 C   0  0  0  0  0  0  0  0  0  0  0  0
   -7.2760   18.6410  -33.4060 N   0  0  0  0  0  0  0  0  0  0  0  0
   -7.3610   19.8800  -32.8840 C   0  0  0  0  0  0  0  0  0  0  0  0
   -8.4600   20.2320  -32.3510 N   0  0  0  0  0  0  0  0  0  0  0  0
   -8.7360   21.5180  -31.7410 C   0  0  0  0  0  0  0  0  0  0  0  0
   -7.9790   21.7580  -30.4670 C   0  0  0  0  0  0  0  0  0  0  0  0
   -6.9050   22.7440  -30.5440 C   0  0  0  0  0  0  0  0  0  0  0  0
   -7.2240   24.0820  -30.7930 C   0  0  0  0  0  0  0  0  0  0  0  0
   -6.1950   24.9990  -30.8610 C   0  0  0  0  0  0  0  0  0  0  0  0
   -4.8630   24.6170  -30.6900 C   0  0  0  0  0  0  0  0  0  0  0  0
   -3.8210   25.5270  -30.7560 O   0  0  0  0  0  0  0  0  0  0  0  0
   -4.5640   23.2840  -30.4430 C   0  0  0  0  0  0  0  0  0  0  0  0
   -5.5940   22.3400  -30.3700 C   0  0  0  0  0  0  0  0  0  0  0  0
   -6.3500   20.7480  -32.9010 N   0  0  0  0  0  0  0  0  0  0  0  0
   -5.1690   20.4210  -33.4530 C   0  0  0  0  0  0  0  0  0  0  0  0
   -5.0680   19.1530  -33.9930 C   0  0  0  0  0  0  0  0  0  0  0  0
   -3.8670   18.7510  -34.5820 O   0  0  0  0  0  0  0  0  0  0  0  0
   -2.8700   18.1130  -33.8640 C   0  0  0  0  0  0  0  0  0  0  0  0
   -2.7830   16.7440  -33.7270 C   0  0  0  0  0  0  0  0  0  0  0  0
   -3.7520   15.9520  -34.3450 O   0  0  0  0  0  0  0  0  0  0  0  0
   -1.7550   16.2300  -32.9960 C   0  0  0  0  0  0  0  0  0  0  0  0
   -0.8010   17.0180  -32.3870 C   0  0  0  0  0  0  0  0  0  0  0  0
   -0.8820   18.3910  -32.5200 C   0  0  0  0  0  0  0  0  0  0  0  0
   -1.9200   18.9450  -33.2620 C   0  0  0  0  0  0  0  0  0  0  0  0
   -2.0410   20.8520  -33.4530 Br  0  0  0  0  0  0  0  0  0  0  0  0
   -5.0590   16.7740  -34.9400 H   0  0  0  0  0  0  0  0  0  0  0  0
   -8.0940   17.9930  -33.3710 H   0  0  0  0  0  0  0  0  0  0  0  0
   -8.4670   22.3073  -32.4584 H   0  0  0  0  0  0  0  0  0  0  0  0
   -9.8059   21.5289  -31.4855 H   0  0  0  0  0  0  0  0  0  0  0  0
   -8.6969   22.0992  -29.7066 H   0  0  0  0  0  0  0  0  0  0  0  0
   -7.4914   20.8024  -30.2238 H   0  0  0  0  0  0  0  0  0  0  0  0
   -8.2691   24.3961  -30.9313 H   0  0  0  0  0  0  0  0  0  0  0  0
   -6.4298   26.0561  -31.0545 H   0  0  0  0  0  0  0  0  0  0  0  0
   -3.3090   25.6690  -31.6120 H   0  0  0  0  0  0  0  0  0  0  0  0
   -3.5187   22.9704  -30.3049 H   0  0  0  0  0  0  0  0  0  0  0  0
   -5.3623   21.2825  -30.1753 H   0  0  0  0  0  0  0  0  0  0  0  0
   -6.4490   21.6810  -32.4950 H   0  0  0  0  0  0  0  0  0  0  0  0
   -4.3256   21.1269  -33.4739 H   0  0  0  0  0  0  0  0  0  0  0  0
   -4.5690   15.7400  -33.7790 H   0  0  0  0  0  0  0  0  0  0  0  0
   -1.6825   15.1379  -32.8865 H   0  0  0  0  0  0  0  0  0  0  0  0
    0.0121   16.5605  -31.8042 H   0  0  0  0  0  0  0  0  0  0  0  0
   -0.1325   19.0400  -32.0435 H   0  0  0  0  0  0  0  0  0  0  0  0
  1  2  2  3
  2  3  1  0
  3  4  1  0
  4  5  2  0
  5  6  1  0
  6  7  1  0
  7  8  1  0
  8  9  2  0
  9 10  1  0
 10 11  2  0
 11 12  1  0
 11 13  1  0
 13 14  2  0
  4 15  1  0
 15 16  1  0
 16 17  2  0
 17 18  1  0
 18 19  1  0
 19 20  2  0
 20 21  1  0
 20 22  1  0
 22 23  2  0
 23 24  1  0
 24 25  2  0
 25 26  1  0
 17  2  1  0
 25 19  1  0
 14  8  1  0
  1 27  1  0
  3 28  1  0
  6 29  1  0
  6 30  1  0
  7 31  1  0
  7 32  1  0
  9 33  1  0
 10 34  1  0
 12 35  1  0
 13 36  1  0
 14 37  1  0
 15 38  1  0
 16 39  1  0
 21 40  1  0
 22 41  1  0
 23 42  1  0
 24 43  1  0
M  END
>  <smiles>  (23) 
N=c1[nH]c(=NCCc2ccc(O)cc2)[nH]cc1Oc1c(O)cccc1Br

>  <score_type>  (23) 
oracle

>  <origin>  (23) 
adgpu

>  <m_score__min__energy>  (23) 
-9.1699999999999999

>  <m_primary>  (23) 
energy

$$$$
23:0
     RDKit          3D

 13 13  0  0  0  0  0  0  0  0999 V2000
   -3.1530   21.9450  -32.4380 N   0  0  0  0  0  0  0  0  0  0  0  0
   -3.9510   22.5750  -31.8860 C   0  0  0  0  0  0  0  0  0  0  0  0
   -4.9470   23.3610  -31.1990 C   0  0  0  0  0  0  0  0  0  0  0  0
   -6.2860   22.9570  -31.2200 C   0  0  0  0  0  0  0  0  0  0  0  0
   -7.2510   23.7150  -30.5550 C   0  0  0  0  0  0  0  0  0  0  0  0
   -6.8650   24.8720  -29.8760 C   0  0  0  0  0  0  0  0  0  0  0  0
   -5.5590   25.2550  -29.8640 N   0  0  0  0  0  0  0  0  0  0  0  0
   -4.5970   24.5330  -30.5040 C   0  0  0  0  0  0  0  0  0  0  0  0
   -3.3970   24.9210  -30.4690 O   0  0  0  0  0  0  0  0  0  0  0  0
   -6.5778   22.0439  -31.7595 H   0  0  0  0  0  0  0  0  0  0  0  0
   -8.3059   23.4036  -30.5658 H   0  0  0  0  0  0  0  0  0  0  0  0
   -7.6185   25.4759  -29.3491 H   0  0  0  0  0  0  0  0  0  0  0  0
   -5.2940   26.1260  -29.3480 H   0  0  0  0  0  0  0  0  0  0  0  0
  1  2  3  0
  2  3  1  0
  3  4  2  0
  4  5  1  0
  5  6  2  0
  6  7  1  0
  7  8  1  0
  8  9  2  0
  8  3  1  0
  4 10  1  0
  5 11  1  0
  6 12  1  0
  7 13  1  0
M  END
>  <UniqueID>  (24) 
21

>  <SMILES>  (24) 
N#Cc1ccc[nH]c1=O

>  <Energy>  (24) 
12.078978957464598

>  <Genealogy>  (24) 
N#Cc1ccc[nH]c1=O (3D coordinates assigned)
N#Cc1ccc[nH]c1=O (optimized conformer: 12.078978957464598 kcal/mol)

>  <smiles>  (24) 
N#Cc1ccc[nH]c1=O

>  <score_type>  (24) 
oracle

>  <origin>  (24) 
adgpu

>  <m_score__min__energy>  (24) 
-4.79

>  <m_primary>  (24) 
energy

$$$$
24:0
     RDKit          3D

 46 48  0  0  0  0  0  0  0  0999 V2000
   -2.1980   20.5380  -28.7020 C   0  0  0  0  0  0  0  0  0  0  0  0
   -1.0960   21.2160  -29.3960 N   0  0  0  0  0  0  0  0  0  0  0  0
    0.0200   21.7920  -28.6330 C   0  0  0  0  0  0  0  0  0  0  0  0
   -1.0420   21.2260  -30.8390 C   0  0  0  0  0  0  0  0  0  0  0  0
    0.0680   21.3740  -31.4250 O   0  0  0  0  0  0  0  0  0  0  0  0
   -2.2710   21.1310  -31.6550 C   0  0  0  0  0  0  0  0  0  0  0  0
   -2.5320   19.9380  -32.3470 C   0  0  0  0  0  0  0  0  0  0  0  0
   -3.6940   19.7990  -33.1060 C   0  0  0  0  0  0  0  0  0  0  0  0
   -4.6170   20.8420  -33.1650 C   0  0  0  0  0  0  0  0  0  0  0  0
   -4.3910   22.0330  -32.4590 C   0  0  0  0  0  0  0  0  0  0  0  0
   -5.3470   23.0960  -32.5690 N   0  0  0  0  0  0  0  0  0  0  0  0
   -5.7450   23.9070  -31.4570 C   0  0  0  0  0  0  0  0  0  0  0  0
   -6.8240   23.8950  -30.5880 C   0  0  0  0  0  0  0  0  0  0  0  0
   -7.9800   23.0650  -30.4540 N   0  0  0  0  0  0  0  0  0  0  0  0
   -8.7170   22.5410  -31.6060 C   0  0  0  0  0  0  0  0  0  0  0  0
   -8.4560   21.0670  -31.8240 C   0  0  0  0  0  0  0  0  0  0  0  0
   -9.4410   20.2660  -32.4320 C   0  0  0  0  0  0  0  0  0  0  0  0
   -9.1910   18.9180  -32.7070 C   0  0  0  0  0  0  0  0  0  0  0  0
   -7.9550   18.3580  -32.3790 C   0  0  0  0  0  0  0  0  0  0  0  0
   -7.7230   17.0490  -32.6510 F   0  0  0  0  0  0  0  0  0  0  0  0
   -6.9680   19.1470  -31.7740 C   0  0  0  0  0  0  0  0  0  0  0  0
   -7.2160   20.4990  -31.5050 C   0  0  0  0  0  0  0  0  0  0  0  0
   -6.3160   25.0090  -29.9450 C   0  0  0  0  0  0  0  0  0  0  0  0
   -6.6820   25.7280  -28.9770 O   0  0  0  0  0  0  0  0  0  0  0  0
   -5.2110   24.9880  -30.7750 C   0  0  0  0  0  0  0  0  0  0  0  0
   -4.1490   25.6670  -30.8690 O   0  0  0  0  0  0  0  0  0  0  0  0
   -3.1960   22.1970  -31.7290 C   0  0  0  0  0  0  0  0  0  0  0  0
   -2.9290   23.4290  -31.1320 O   0  0  0  0  0  0  0  0  0  0  0  0
   -2.0557   20.6256  -27.6148 H   0  0  0  0  0  0  0  0  0  0  0  0
   -3.1526   21.0052  -28.9856 H   0  0  0  0  0  0  0  0  0  0  0  0
   -2.2113   19.4753  -28.9856 H   0  0  0  0  0  0  0  0  0  0  0  0
   -0.1800   21.6887  -27.5563 H   0  0  0  0  0  0  0  0  0  0  0  0
    0.9496   21.2611  -28.8858 H   0  0  0  0  0  0  0  0  0  0  0  0
    0.1258   22.8573  -28.8858 H   0  0  0  0  0  0  0  0  0  0  0  0
   -1.8145   19.1061  -32.2903 H   0  0  0  0  0  0  0  0  0  0  0  0
   -3.8820   18.8663  -33.6580 H   0  0  0  0  0  0  0  0  0  0  0  0
   -5.5292   20.7303  -33.7695 H   0  0  0  0  0  0  0  0  0  0  0  0
   -5.8540   23.2240  -33.4750 H   0  0  0  0  0  0  0  0  0  0  0  0
   -8.2420   22.7440  -29.4960 H   0  0  0  0  0  0  0  0  0  0  0  0
   -9.7936   22.6895  -31.4361 H   0  0  0  0  0  0  0  0  0  0  0  0
   -8.3767   23.0820  -32.5013 H   0  0  0  0  0  0  0  0  0  0  0  0
  -10.4156   20.7042  -32.6930 H   0  0  0  0  0  0  0  0  0  0  0  0
   -9.9673   18.2996  -33.1812 H   0  0  0  0  0  0  0  0  0  0  0  0
   -5.9965   18.7039  -31.5098 H   0  0  0  0  0  0  0  0  0  0  0  0
   -6.4335   21.1175  -31.0412 H   0  0  0  0  0  0  0  0  0  0  0  0
   -3.0910   24.3120  -31.5940 H   0  0  0  0  0  0  0  0  0  0  0  0
  1  2  1  0
  2  3  1  0
  2  4  1  0
  4  5  2  0
  4  6  1  0
  6  7  2  0
  7  8  1  0
  8  9  2  0
  9 10  1  0
 10 11  1  0
 11 12  1  0
 12 13  2  0
 13 14  1  0
 14 15  1  0
 15 16  1  0
 16 17  2  0
 17 18  1  0
 18 19  2  0
 19 20  1  0
 19 21  1  0
 21 22  2  0
 13 23  1  0
 23 24  2  0
 23 25  1  0
 25 26  2  0
 10 27  2  0
 27 28  1  0
 27  6  1  0
 25 12  1  0
 22 16  1  0
  1 29  1  0
  1 30  1  0
  1 31  1  0
  3 32  1  0
  3 33  1  0
  3 34  1  0
  7 35  1  0
  8 36  1  0
  9 37  1  0
 11 38  1  0
 14 39  1  0
 15 40  1  0
 15 41  1  0
 17 42  1  0
 18 43  1  0
 21 44  1  0
 22 45  1  0
 28 46  1  0
M  END
>  <UniqueID>  (25) 
22

>  <SMILES>  (25) 
CN(C)C(=O)c1cccc(Nc2c(NCc3ccc(F)cc3)c(=O)c2=O)c1O

>  <Energy>  (25) 
47.00904797124376

>  <Genealogy>  (25) 
CN(C)C(=O)c1cccc(Nc2c(NCc3ccc(F)cc3)c(=O)c2=O)c1O (3D coordinates assigned)
CN(C)C(=O)c1cccc(Nc2c(NCc3ccc(F)cc3)c(=O)c2=O)c1O (optimized conformer: 47.00904797124376 kcal/mol)

>  <smiles>  (25) 
CN(C)C(=O)c1cccc(Nc2c(NCc3ccc(F)cc3)c(=O)c2=O)c1O

>  <score_type>  (25) 
oracle

>  <origin>  (25) 
adgpu

>  <m_score__min__energy>  (25) 
-9.9800000000000004

>  <m_primary>  (25) 
energy

$$$$
25:0
     RDKit          3D

 57 60  0  0  0  0  0  0  0  0999 V2000
    0.6240   27.5240  -23.0810 C   0  0  0  0  0  0  0  0  0  0  0  0
   -0.1130   26.3520  -23.7350 C   0  0  0  0  0  0  0  0  0  0  0  0
    0.8870   25.3800  -24.3580 C   0  0  0  0  0  0  0  0  0  0  0  0
   -0.9880   26.8270  -24.7600 O   0  0  0  0  0  0  0  0  0  0  0  0
   -1.3800   26.1090  -25.9040 C   0  0  0  0  0  0  0  0  0  0  0  0
   -2.5420   25.3340  -25.8280 C   0  0  0  0  0  0  0  0  0  0  0  0
   -2.9860   24.6050  -26.9340 C   0  0  0  0  0  0  0  0  0  0  0  0
   -2.2750   24.6430  -28.1450 C   0  0  0  0  0  0  0  0  0  0  0  0
   -2.7380   23.8940  -29.2850 N   0  0  0  0  0  0  0  0  0  0  0  0
   -2.5720   22.5690  -29.4870 C   0  0  0  0  0  0  0  0  0  0  0  0
   -3.1630   22.1980  -30.6860 C   0  0  0  0  0  0  0  0  0  0  0  0
   -3.2050   20.8350  -31.2460 C   0  0  0  0  0  0  0  0  0  0  0  0
   -2.3400   19.9940  -30.8790 O   0  0  0  0  0  0  0  0  0  0  0  0
   -4.1920   20.4760  -32.2260 N   0  0  0  0  0  0  0  0  0  0  0  0
   -4.5270   19.1200  -32.5700 C   0  0  0  0  0  0  0  0  0  0  0  0
   -5.7430   18.5380  -32.1650 C   0  0  0  0  0  0  0  0  0  0  0  0
   -6.0550   17.2270  -32.5370 C   0  0  0  0  0  0  0  0  0  0  0  0
   -5.1680   16.4840  -33.3250 C   0  0  0  0  0  0  0  0  0  0  0  0
   -5.5670   14.8310  -33.7830 S   0  0  0  0  0  0  0  0  0  0  0  0
   -5.3780   13.9400  -32.5890 O   0  0  0  0  0  0  0  0  0  0  0  0
   -6.9950   14.7360  -34.2430 O   0  0  0  0  0  0  0  0  0  0  0  0
   -4.5190   14.2940  -35.0620 N   0  0  0  0  0  0  0  0  0  0  0  0
   -3.2530   14.0080  -34.9580 C   0  0  0  0  0  0  0  0  0  0  0  0
   -2.5460   14.1100  -33.7410 C   0  0  0  0  0  0  0  0  0  0  0  0
   -1.1900   13.7770  -33.7040 C   0  0  0  0  0  0  0  0  0  0  0  0
   -0.5450   13.3510  -34.8660 C   0  0  0  0  0  0  0  0  0  0  0  0
   -1.2710   13.2650  -36.0540 C   0  0  0  0  0  0  0  0  0  0  0  0
   -2.5900   13.5910  -36.0720 N   0  0  0  0  0  0  0  0  0  0  0  0
   -3.9700   17.0690  -33.7530 C   0  0  0  0  0  0  0  0  0  0  0  0
   -3.6540   18.3800  -33.3830 C   0  0  0  0  0  0  0  0  0  0  0  0
   -3.7220   23.3410  -31.2330 C   0  0  0  0  0  0  0  0  0  0  0  0
   -3.4420   24.3540  -30.3410 C   0  0  0  0  0  0  0  0  0  0  0  0
   -3.8640   25.6710  -30.4910 O   0  0  0  0  0  0  0  0  0  0  0  0
   -1.1040   25.4150  -28.2200 C   0  0  0  0  0  0  0  0  0  0  0  0
   -0.6600   26.1450  -27.1140 C   0  0  0  0  0  0  0  0  0  0  0  0
    0.5647   27.4297  -21.9867 H   0  0  0  0  0  0  0  0  0  0  0  0
    1.6787   27.5140  -23.3933 H   0  0  0  0  0  0  0  0  0  0  0  0
    0.1581   28.4703  -23.3933 H   0  0  0  0  0  0  0  0  0  0  0  0
   -0.6966   25.8378  -22.9571 H   0  0  0  0  0  0  0  0  0  0  0  0
    1.4304   24.8518  -23.5607 H   0  0  0  0  0  0  0  0  0  0  0  0
    0.3494   24.6500  -24.9810 H   0  0  0  0  0  0  0  0  0  0  0  0
    1.6014   25.9381  -24.9810 H   0  0  0  0  0  0  0  0  0  0  0  0
   -3.1120   25.2982  -24.8879 H   0  0  0  0  0  0  0  0  0  0  0  0
   -3.8992   23.9967  -26.8560 H   0  0  0  0  0  0  0  0  0  0  0  0
   -2.0467   21.8861  -28.8031 H   0  0  0  0  0  0  0  0  0  0  0  0
   -4.6290   21.2410  -32.7870 H   0  0  0  0  0  0  0  0  0  0  0  0
   -6.4506   19.1170  -31.5534 H   0  0  0  0  0  0  0  0  0  0  0  0
   -7.0032   16.7765  -32.2085 H   0  0  0  0  0  0  0  0  0  0  0  0
   -3.0587   14.4491  -32.8288 H   0  0  0  0  0  0  0  0  0  0  0  0
   -0.6308   13.8505  -32.7596 H   0  0  0  0  0  0  0  0  0  0  0  0
    0.5225   13.0864  -34.8453 H   0  0  0  0  0  0  0  0  0  0  0  0
   -0.7749   12.9327  -36.9778 H   0  0  0  0  0  0  0  0  0  0  0  0
   -3.2745   16.4949  -34.3829 H   0  0  0  0  0  0  0  0  0  0  0  0
   -2.7149   18.8346  -33.7314 H   0  0  0  0  0  0  0  0  0  0  0  0
   -4.2739   23.4233  -32.1809 H   0  0  0  0  0  0  0  0  0  0  0  0
   -0.5308   25.4453  -29.1584 H   0  0  0  0  0  0  0  0  0  0  0  0
    0.2555   26.7502  -27.1888 H   0  0  0  0  0  0  0  0  0  0  0  0
  1  2  1  0
  2  3  1  0
  2  4  1  0
  4  5  1  0
  5  6  2  0
  6  7  1  0
  7  8  2  0
  8  9  1  0
  9 10  1  0
 10 11  2  0
 11 12  1  0
 12 13  2  0
 12 14  1  0
 14 15  1  0
 15 16  2  0
 16 17  1  0
 17 18  2  0
 18 19  1  0
 19 20  2  0
 19 21  2  0
 19 22  1  0
 22 23  2  3
 23 24  1  0
 24 25  2  0
 25 26  1  0
 26 27  2  0
 27 28  1  0
 18 29  1  0
 29 30  2  0
 11 31  1  0
 31 32  2  0
 32 33  1  0
  8 34  1  0
 34 35  2  0
 35  5  1  0
 32  9  1  0
 30 15  1  0
 28 23  1  0
  1 36  1  0
  1 37  1  0
  1 38  1  0
  2 39  1  0
  3 40  1  0
  3 41  1  0
  3 42  1  0
  6 43  1  0
  7 44  1  0
 10 45  1  0
 14 46  1  0
 16 47  1  0
 17 48  1  0
 24 49  1  0
 25 50  1  0
 26 51  1  0
 27 52  1  0
 29 53  1  0
 30 54  1  0
 31 55  1  0
 34 56  1  0
 35 57  1  0
M  CHG  2  28  -1  33  -1
M  END
>  <UniqueID>  (26) 
23

>  <SMILES>  (26) 
CC(C)Oc1ccc(-n2cc(C(=O)Nc3ccc(S(=O)(=O)N=c4cccc[n-]4)cc3)cc2[O-])cc1

>  <Energy>  (26) 
98.62899454150553

>  <Genealogy>  (26) 
CC(C)Oc1ccc(-n2cc(C(=O)Nc3ccc(S(=O)(=O)N=c4cccc[n-]4)cc3)cc2[O-])cc1 (protonated)
CC(C)Oc1ccc(-n2cc(C(=O)Nc3ccc(S(=O)(=O)N=c4cccc[n-]4)cc3)cc2[O-])cc1 (3D coordinates assigned)
CC(C)Oc1ccc(-n2cc(C(=O)Nc3ccc(S(=O)(=O)N=c4cccc[n-]4)cc3)cc2[O-])cc1 (optimized conformer: 98.62899454150553 kcal/mol)

>  <smiles>  (26) 
CC(C)Oc1ccc(-n2cc(C(=O)Nc3ccc(S(=O)(=O)N=c4cccc[nH]4)cc3)cc2O)cc1

>  <score_type>  (26) 
oracle

>  <origin>  (26) 
adgpu

>  <m_score__min__energy>  (26) 
-10.220000000000001

>  <m_primary>  (26) 
energy

$$$$
26:0
     RDKit          3D

 36 37  0  0  0  0  0  0  0  0999 V2000
   -2.2680   18.1370  -33.7540 C   0  0  0  0  0  0  0  0  0  0  0  0
   -3.4660   18.2720  -34.5120 O   0  0  0  0  0  0  0  0  0  0  0  0
   -4.7150   18.6180  -33.9710 C   0  0  0  0  0  0  0  0  0  0  0  0
   -5.7830   17.7030  -33.9120 C   0  0  0  0  0  0  0  0  0  0  0  0
   -7.0100   18.0830  -33.3660 C   0  0  0  0  0  0  0  0  0  0  0  0
   -7.1870   19.3780  -32.8680 C   0  0  0  0  0  0  0  0  0  0  0  0
   -8.7350   19.8430  -32.1660 S   0  0  0  0  0  0  0  0  0  0  0  0
   -9.8680   19.4640  -33.0790 O   0  0  0  0  0  0  0  0  0  0  0  0
   -8.9050   19.1340  -30.8530 O   0  0  0  0  0  0  0  0  0  0  0  0
   -8.7740   21.5550  -31.8980 N   0  0  0  0  0  0  0  0  0  0  0  0
   -7.6550   22.3560  -31.4950 C   0  0  0  0  0  0  0  0  0  0  0  0
   -6.9670   23.1880  -32.3950 C   0  0  0  0  0  0  0  0  0  0  0  0
   -5.8740   23.9450  -31.9620 C   0  0  0  0  0  0  0  0  0  0  0  0
   -5.4510   23.8870  -30.6220 C   0  0  0  0  0  0  0  0  0  0  0  0
   -4.2940   24.6880  -30.1690 C   0  0  0  0  0  0  0  0  0  0  0  0
   -3.8830   25.6630  -30.8520 O   0  0  0  0  0  0  0  0  0  0  0  0
   -3.6420   24.3760  -28.9810 O   0  0  0  0  0  0  0  0  0  0  0  0
   -6.1450   23.0550  -29.7260 C   0  0  0  0  0  0  0  0  0  0  0  0
   -7.2370   22.2990  -30.1600 C   0  0  0  0  0  0  0  0  0  0  0  0
   -6.1320   20.2960  -32.9290 C   0  0  0  0  0  0  0  0  0  0  0  0
   -4.8900   19.9210  -33.4790 C   0  0  0  0  0  0  0  0  0  0  0  0
   -3.8070   20.8130  -33.5510 O   0  0  0  0  0  0  0  0  0  0  0  0
   -3.3500   21.6160  -32.4680 C   0  0  0  0  0  0  0  0  0  0  0  0
   -2.5081   18.1641  -32.6809 H   0  0  0  0  0  0  0  0  0  0  0  0
   -1.7858   17.1788  -33.9978 H   0  0  0  0  0  0  0  0  0  0  0  0
   -1.5847   18.9638  -33.9978 H   0  0  0  0  0  0  0  0  0  0  0  0
   -5.6497   16.6819  -34.2987 H   0  0  0  0  0  0  0  0  0  0  0  0
   -7.8400   17.3622  -33.3272 H   0  0  0  0  0  0  0  0  0  0  0  0
   -7.2900   23.2439  -33.4450 H   0  0  0  0  0  0  0  0  0  0  0  0
   -5.3408   24.5910  -32.6751 H   0  0  0  0  0  0  0  0  0  0  0  0
   -5.8257   22.9988  -28.6749 H   0  0  0  0  0  0  0  0  0  0  0  0
   -7.7723   21.6542  -29.4474 H   0  0  0  0  0  0  0  0  0  0  0  0
   -6.2734   21.3170  -32.5450 H   0  0  0  0  0  0  0  0  0  0  0  0
   -3.6225   21.1371  -31.5160 H   0  0  0  0  0  0  0  0  0  0  0  0
   -2.2566   21.7214  -32.5256 H   0  0  0  0  0  0  0  0  0  0  0  0
   -3.8178   22.6099  -32.5256 H   0  0  0  0  0  0  0  0  0  0  0  0
  1  2  1  0
  2  3  1  0
  3  4  2  0
  4  5  1  0
  5  6  2  0
  6  7  1  0
  7  8  2  0
  7  9  2  0
  7 10  1  0
 10 11  1  0
 11 12  2  0
 12 13  1  0
 13 14  2  0
 14 15  1  0
 15 16  2  0
 15 17  1  0
 14 18  1  0
 18 19  2  0
  6 20  1  0
 20 21  2  0
 21 22  1  0
 22 23  1  0
 21  3  1  0
 19 11  1  0
  1 24  1  0
  1 25  1  0
  1 26  1  0
  4 27  1  0
  5 28  1  0
 12 29  1  0
 13 30  1  0
 18 31  1  0
 19 32  1  0
 20 33  1  0
 23 34  1  0
 23 35  1  0
 23 36  1  0
M  CHG  2  10  -1  17  -1
M  END
>  <UniqueID>  (27) 
24

>  <SMILES>  (27) 
COc1ccc(S(=O)(=O)[N-]c2ccc(C(=O)[O-])cc2)cc1OC

>  <Energy>  (27) 
39.00785784069356

>  <Genealogy>  (27) 
COc1ccc(S(=O)(=O)[N-]c2ccc(C(=O)[O-])cc2)cc1OC (protonated)
COc1ccc(S(=O)(=O)[N-]c2ccc(C(=O)[O-])cc2)cc1OC (3D coordinates assigned)
COc1ccc(S(=O)(=O)[N-]c2ccc(C(=O)[O-])cc2)cc1OC (optimized conformer: 39.00785784069356 kcal/mol)

>  <smiles>  (27) 
COc1ccc(S(=O)(=O)Nc2ccc(C(=O)O)cc2)cc1OC

>  <score_type>  (27) 
oracle

>  <origin>  (27) 
adgpu

>  <m_score__min__energy>  (27) 
-9.3699999999999992

>  <m_primary>  (27) 
energy

$$$$
27:0
     RDKit          3D

 56 59  0  0  0  0  0  0  0  0999 V2000
   -2.7880   19.5720  -31.6820 H   0  0  0  0  0  0  0  0  0  0  0  0
   -2.3710   20.0880  -30.9410 O   0  0  0  0  0  0  0  0  0  0  0  0
   -1.9820   21.3250  -31.4760 C   0  0  1  0  0  0  0  0  0  0  0  0
   -2.5046   22.1388  -30.9520 H   0  0  0  0  0  0  0  0  0  0  0  0
   -0.4730   21.4890  -31.2940 C   0  0  0  0  0  0  0  0  0  0  0  0
   -0.2338   21.5150  -30.2206 H   0  0  0  0  0  0  0  0  0  0  0  0
    0.0473   20.6421  -31.7652 H   0  0  0  0  0  0  0  0  0  0  0  0
   -0.1467   22.4279  -31.7652 H   0  0  0  0  0  0  0  0  0  0  0  0
   -2.3550   21.3970  -32.9670 C   0  0  0  0  0  0  0  0  0  0  0  0
   -3.4296   21.6135  -33.0580 H   0  0  0  0  0  0  0  0  0  0  0  0
   -1.7581   22.1922  -33.4375 H   0  0  0  0  0  0  0  0  0  0  0  0
   -2.0630   20.1340  -33.6470 N   0  0  0  0  0  0  0  0  0  0  0  0
   -2.9010   19.1490  -33.7800 C   0  0  0  0  0  0  0  0  0  0  0  0
   -4.1670   19.2360  -33.2860 N   0  0  0  0  0  0  0  0  0  0  0  0
   -5.0550   18.2180  -33.4390 C   0  0  0  0  0  0  0  0  0  0  0  0
   -6.3820   18.3500  -32.9140 N   0  0  0  0  0  0  0  0  0  0  0  0
   -7.1900   19.4340  -32.9290 C   0  0  0  0  0  0  0  0  0  0  0  0
   -6.7980   20.7890  -33.4520 C   0  0  0  0  0  0  0  0  0  0  0  0
   -5.8418   20.7078  -33.9897 H   0  0  0  0  0  0  0  0  0  0  0  0
   -7.5831   21.1510  -34.1321 H   0  0  0  0  0  0  0  0  0  0  0  0
   -6.6470   21.7650  -32.3140 C   0  0  0  0  0  0  0  0  0  0  0  0
   -7.7540   22.4840  -31.8360 C   0  0  0  0  0  0  0  0  0  0  0  0
   -8.7472   22.3185  -32.2790 H   0  0  0  0  0  0  0  0  0  0  0  0
   -7.6000   23.4080  -30.8010 C   0  0  0  0  0  0  0  0  0  0  0  0
   -8.4726   23.9643  -30.4279 H   0  0  0  0  0  0  0  0  0  0  0  0
   -6.3410   23.6280  -30.2380 C   0  0  0  0  0  0  0  0  0  0  0  0
   -6.2282   24.3486  -29.4146 H   0  0  0  0  0  0  0  0  0  0  0  0
   -5.2200   22.9350  -30.7170 C   0  0  0  0  0  0  0  0  0  0  0  0
   -3.9370   23.1700  -30.1130 N   0  0  0  0  0  0  0  0  0  0  0  0
   -3.4670   22.3550  -29.6600 H   0  0  0  0  0  0  0  0  0  0  0  0
   -3.3150   24.4640  -30.0220 C   0  0  0  0  0  0  0  0  0  0  0  0
   -3.8790   25.4790  -30.5120 O   0  0  0  0  0  0  0  0  0  0  0  0
   -2.0310   24.6210  -29.4050 N   0  0  0  0  0  0  0  0  0  0  0  0
   -1.7950   25.0970  -28.0740 C   0  0  0  0  0  0  0  0  0  0  0  0
   -0.6950   25.9290  -27.8340 C   0  0  0  0  0  0  0  0  0  0  0  0
   -0.0169   26.1917  -28.6594 H   0  0  0  0  0  0  0  0  0  0  0  0
   -0.4540   26.4280  -26.5490 C   0  0  0  0  0  0  0  0  0  0  0  0
    0.4209   27.0687  -26.3643 H   0  0  0  0  0  0  0  0  0  0  0  0
   -1.3230   26.1140  -25.4990 C   0  0  0  0  0  0  0  0  0  0  0  0
   -1.0220   26.7440  -23.8900 Cl  0  0  0  0  0  0  0  0  0  0  0  0
   -2.4410   25.3060  -25.7380 C   0  0  0  0  0  0  0  0  0  0  0  0
   -3.1310   25.0650  -24.9159 H   0  0  0  0  0  0  0  0  0  0  0  0
   -2.6810   24.8050  -27.0220 C   0  0  0  0  0  0  0  0  0  0  0  0
   -3.5666   24.1800  -27.2093 H   0  0  0  0  0  0  0  0  0  0  0  0
   -5.3830   21.9860  -31.7410 C   0  0  0  0  0  0  0  0  0  0  0  0
   -4.5146   21.4120  -32.0965 H   0  0  0  0  0  0  0  0  0  0  0  0
   -8.3410   19.2260  -32.2550 N   0  0  0  0  0  0  0  0  0  0  0  0
   -8.2440   17.9570  -31.8090 C   0  0  0  0  0  0  0  0  0  0  0  0
   -9.0125   17.4299  -31.2246 H   0  0  0  0  0  0  0  0  0  0  0  0
   -7.0360   17.4220  -32.1970 C   0  0  0  0  0  0  0  0  0  0  0  0
   -6.6708   16.4116  -31.9610 H   0  0  0  0  0  0  0  0  0  0  0  0
   -4.6560   17.0490  -34.0930 C   0  0  0  0  0  0  0  0  0  0  0  0
   -5.3515   16.2049  -34.2104 H   0  0  0  0  0  0  0  0  0  0  0  0
   -3.3570   16.9770  -34.5930 C   0  0  0  0  0  0  0  0  0  0  0  0
   -3.0199   16.0721  -35.1198 H   0  0  0  0  0  0  0  0  0  0  0  0
   -2.5080   18.0230  -34.4300 N   0  0  0  0  0  0  0  0  0  0  0  0
  1  2  1  0
  2  3  1  0
  3  4  1  1
  3  5  1  0
  5  6  1  0
  5  7  1  0
  5  8  1  0
  3  9  1  0
  9 10  1  0
  9 11  1  0
  9 12  1  0
 12 13  2  0
 13 14  1  0
 14 15  2  0
 15 16  1  0
 16 17  1  0
 17 18  1  0
 18 19  1  0
 18 20  1  0
 18 21  1  0
 21 22  2  0
 22 23  1  0
 22 24  1  0
 24 25  1  0
 24 26  2  0
 26 27  1  0
 26 28  1  0
 28 29  1  0
 29 30  1  0
 29 31  1  0
 31 32  2  0
 31 33  1  0
 33 34  1  0
 34 35  2  0
 35 36  1  0
 35 37  1  0
 37 38  1  0
 37 39  2  0
 39 40  1  0
 39 41  1  0
 41 42  1  0
 41 43  2  0
 43 44  1  0
 28 45  2  0
 45 46  1  0
 17 47  2  0
 47 48  1  0
 48 49  1  0
 48 50  2  0
 50 51  1  0
 15 52  1  0
 52 53  1  0
 52 54  2  0
 54 55  1  0
 54 56  1  0
 56 13  1  0
 50 16  1  0
 45 21  1  0
 43 34  1  0
M  CHG  2  33  -1  56  -1
M  END
>  <UniqueID>  (28) 
25

>  <SMILES>  (28) 
C[C@H](O)C/N=c1\nc(-n2ccnc2Cc2cccc(NC(=O)[N-]c3ccc(Cl)cc3)c2)cc[n-]1

>  <Energy>  (28) 
96.53631377653338

>  <Genealogy>  (28) 
CC(O)CN=c1nc(-n2ccnc2Cc2cccc(NC(=O)[N-]c3ccc(Cl)cc3)c2)cc[n-]1 (protonated)
C[C@H](O)CN=c1nc(-n2ccnc2Cc2cccc(NC(=O)[N-]c3ccc(Cl)cc3)c2)cc[n-]1 (chirality)
C[C@H](O)C/N=c1\nc(-n2ccnc2Cc2cccc(NC(=O)[N-]c3ccc(Cl)cc3)c2)cc[n-]1 (cis-trans isomerization)
C[C@H](O)C/N=c1\nc(-n2ccnc2Cc2cccc(NC(=O)[N-]c3ccc(Cl)cc3)c2)cc[n-]1 (3D coordinates assigned)
C[C@H](O)C/N=c1\nc(-n2ccnc2Cc2cccc(NC(=O)[N-]c3ccc(Cl)cc3)c2)cc[n-]1 (optimized conformer: 96.53631377653338 kcal/mol)

>  <smiles>  (28) 
CC(O)CN=c1nc(-n2ccnc2Cc2cccc(NC(=O)Nc3ccc(Cl)cc3)c2)cc[nH]1

>  <score_type>  (28) 
oracle

>  <origin>  (28) 
adgpu

>  <m_score__min__energy>  (28) 
-12.279999999999999

>  <m_primary>  (28) 
energy

$$$$
28:0
     RDKit          3D

 39 40  0  0  0  0  0  0  0  0999 V2000
   -8.6100   22.7390  -31.9580 C   0  0  0  0  0  0  0  0  0  0  0  0
   -7.6320   22.8410  -30.7810 C   0  0  0  0  0  0  0  0  0  0  0  0
   -6.1920   22.7220  -31.1340 N   0  0  1  0  0  0  0  0  0  0  0  0
   -5.2440   23.3220  -30.1560 C   0  0  0  0  0  0  0  0  0  0  0  0
   -4.6110   24.6330  -30.5890 C   0  0  0  0  0  0  0  0  0  0  0  0
   -5.1060   25.2580  -31.5630 O   0  0  0  0  0  0  0  0  0  0  0  0
   -3.4880   25.2140  -29.9100 N   0  0  0  0  0  0  0  0  0  0  0  0
   -2.3630   24.5180  -29.3580 C   0  0  0  0  0  0  0  0  0  0  0  0
   -1.5380   25.1860  -28.4460 C   0  0  0  0  0  0  0  0  0  0  0  0
   -0.4270   24.5440  -27.8970 C   0  0  0  0  0  0  0  0  0  0  0  0
   -0.1220   23.2310  -28.2670 C   0  0  0  0  0  0  0  0  0  0  0  0
   -0.9260   22.5570  -29.1990 C   0  0  0  0  0  0  0  0  0  0  0  0
   -0.5650   21.1700  -29.6420 C   0  0  0  0  0  0  0  0  0  0  0  0
   -2.0270   23.2170  -29.7680 C   0  0  0  0  0  0  0  0  0  0  0  0
   -5.8100   21.3910  -31.5640 C   0  0  0  0  0  0  0  0  0  0  0  0
   -6.5660   20.4030  -31.3520 O   0  0  0  0  0  0  0  0  0  0  0  0
   -4.5130   21.1640  -32.2300 C   0  0  0  0  0  0  0  0  0  0  0  0
   -3.9850   19.9380  -32.5860 C   0  0  0  0  0  0  0  0  0  0  0  0
   -2.7600   20.2100  -33.1520 C   0  0  0  0  0  0  0  0  0  0  0  0
   -2.6140   21.5830  -33.1090 C   0  0  0  0  0  0  0  0  0  0  0  0
   -3.6760   22.1220  -32.5560 O   0  0  0  0  0  0  0  0  0  0  0  0
   -9.6354   22.6321  -31.5745 H   0  0  0  0  0  0  0  0  0  0  0  0
   -8.5412   23.6492  -32.5718 H   0  0  0  0  0  0  0  0  0  0  0  0
   -8.3548   21.8626  -32.5718 H   0  0  0  0  0  0  0  0  0  0  0  0
   -7.7832   23.8178  -30.2982 H   0  0  0  0  0  0  0  0  0  0  0  0
   -7.8549   21.9847  -30.1275 H   0  0  0  0  0  0  0  0  0  0  0  0
   -6.1070   23.3220  -31.9890 H   0  0  0  0  0  0  0  0  0  0  0  0
   -5.7907   23.5015  -29.2185 H   0  0  0  0  0  0  0  0  0  0  0  0
   -4.4174   22.6037  -30.0524 H   0  0  0  0  0  0  0  0  0  0  0  0
   -1.7666   26.2233  -28.1601 H   0  0  0  0  0  0  0  0  0  0  0  0
    0.2097   25.0721  -27.1719 H   0  0  0  0  0  0  0  0  0  0  0  0
    0.7499   22.7251  -27.8268 H   0  0  0  0  0  0  0  0  0  0  0  0
   -0.3996   20.5346  -28.7594 H   0  0  0  0  0  0  0  0  0  0  0  0
   -1.3845   20.7529  -30.2457 H   0  0  0  0  0  0  0  0  0  0  0  0
    0.3539   21.2054  -30.2457 H   0  0  0  0  0  0  0  0  0  0  0  0
   -2.6292   22.7131  -30.5383 H   0  0  0  0  0  0  0  0  0  0  0  0
   -4.4474   18.9498  -32.4462 H   0  0  0  0  0  0  0  0  0  0  0  0
   -2.0423   19.4812  -33.5568 H   0  0  0  0  0  0  0  0  0  0  0  0
   -1.7414   22.1397  -33.4812 H   0  0  0  0  0  0  0  0  0  0  0  0
  1  2  1  0
  2  3  1  0
  3  4  1  0
  4  5  1  0
  5  6  2  0
  5  7  1  0
  7  8  1  0
  8  9  2  0
  9 10  1  0
 10 11  2  0
 11 12  1  0
 12 13  1  0
 12 14  2  0
  3 15  1  0
 15 16  2  0
 15 17  1  0
 17 18  2  0
 18 19  1  0
 19 20  2  0
 20 21  1  0
 14  8  1  0
 21 17  1  0
  1 22  1  0
  1 23  1  0
  1 24  1  0
  2 25  1  0
  2 26  1  0
  3 27  1  6
  4 28  1  0
  4 29  1  0
  9 30  1  0
 10 31  1  0
 11 32  1  0
 13 33  1  0
 13 34  1  0
 13 35  1  0
 14 36  1  0
 18 37  1  0
 19 38  1  0
 20 39  1  0
M  CHG  2   3   1   7  -1
M  END
>  <UniqueID>  (29) 
26

>  <SMILES>  (29) 
CC[N@@H+](CC(=O)[N-]c1cccc(C)c1)C(=O)c1ccco1

>  <Energy>  (29) 
76.09891212391493

>  <Genealogy>  (29) 
CC[NH+](CC(=O)[N-]c1cccc(C)c1)C(=O)c1ccco1 (protonated)
CC[N@@H+](CC(=O)[N-]c1cccc(C)c1)C(=O)c1ccco1 (chirality)
CC[N@@H+](CC(=O)[N-]c1cccc(C)c1)C(=O)c1ccco1 (3D coordinates assigned)
CC[N@@H+](CC(=O)[N-]c1cccc(C)c1)C(=O)c1ccco1 (optimized conformer: 76.09891212391493 kcal/mol)

>  <smiles>  (29) 
CCN(CC(=O)Nc1cccc(C)c1)C(=O)c1ccco1

>  <score_type>  (29) 
oracle

>  <origin>  (29) 
adgpu

>  <m_score__min__energy>  (29) 
-7.4400000000000004

>  <m_primary>  (29) 
energy

$$$$
29:0
     RDKit          3D

 33 34  0  0  0  0  0  0  0  0999 V2000
   -8.7000   21.7820  -31.9530 C   0  0  0  0  0  0  0  0  0  0  0  0
   -8.3780   20.3300  -32.1010 C   0  0  0  0  0  0  0  0  0  0  0  0
   -9.0880   19.3470  -31.5110 N   0  0  0  0  0  0  0  0  0  0  0  0
   -8.4930   18.2190  -31.7870 O   0  0  0  0  0  0  0  0  0  0  0  0
   -7.4290   18.4120  -32.5320 C   0  0  0  0  0  0  0  0  0  0  0  0
   -6.5040   17.3360  -32.9940 C   0  0  0  0  0  0  0  0  0  0  0  0
   -7.3220   19.7580  -32.7890 C   0  0  0  0  0  0  0  0  0  0  0  0
   -6.2430   20.4050  -33.4720 N   0  0  0  0  0  0  0  0  0  0  0  0
   -5.2190   21.1790  -32.8400 C   0  0  0  0  0  0  0  0  0  0  0  0
   -4.1490   21.3930  -33.4680 O   0  0  0  0  0  0  0  0  0  0  0  0
   -5.4180   21.7230  -31.5240 N   0  0  0  0  0  0  0  0  0  0  0  0
   -4.4300   22.4800  -30.8060 C   0  0  0  0  0  0  0  0  0  0  0  0
   -3.0900   22.0630  -30.8390 C   0  0  0  0  0  0  0  0  0  0  0  0
   -2.1120   22.7680  -30.1320 C   0  0  0  0  0  0  0  0  0  0  0  0
   -2.4620   23.8930  -29.3740 C   0  0  0  0  0  0  0  0  0  0  0  0
   -1.2310   24.7690  -28.4710 S   0  0  0  0  0  0  0  0  0  0  0  0
   -1.2250   26.4260  -28.9600 N   0  0  0  0  0  0  0  0  0  0  0  0
   -1.5220   24.6810  -26.9980 O   0  0  0  0  0  0  0  0  0  0  0  0
    0.1200   24.1660  -28.7330 O   0  0  0  0  0  0  0  0  0  0  0  0
   -3.8040   24.2930  -29.3100 C   0  0  0  0  0  0  0  0  0  0  0  0
   -4.7830   23.5890  -30.0180 C   0  0  0  0  0  0  0  0  0  0  0  0
   -8.7568   22.0379  -30.8847 H   0  0  0  0  0  0  0  0  0  0  0  0
   -7.9133   22.3828  -32.4327 H   0  0  0  0  0  0  0  0  0  0  0  0
   -9.6670   21.9939  -32.4327 H   0  0  0  0  0  0  0  0  0  0  0  0
   -6.0674   16.8281  -32.1214 H   0  0  0  0  0  0  0  0  0  0  0  0
   -7.0624   16.6079  -33.6006 H   0  0  0  0  0  0  0  0  0  0  0  0
   -5.7003   17.7788  -33.6006 H   0  0  0  0  0  0  0  0  0  0  0  0
   -6.3050   21.4920  -31.0220 H   0  0  0  0  0  0  0  0  0  0  0  0
   -2.8079   21.1758  -31.4250 H   0  0  0  0  0  0  0  0  0  0  0  0
   -1.0633   22.4382  -30.1709 H   0  0  0  0  0  0  0  0  0  0  0  0
   -0.8960   26.4500  -29.9510 H   0  0  0  0  0  0  0  0  0  0  0  0
   -4.0879   25.1637  -28.7007 H   0  0  0  0  0  0  0  0  0  0  0  0
   -5.8350   23.9048  -29.9579 H   0  0  0  0  0  0  0  0  0  0  0  0
  1  2  1  0
  2  3  2  0
  3  4  1  0
  4  5  1  0
  5  6  1  0
  5  7  2  0
  7  8  1  0
  8  9  1  0
  9 10  2  0
  9 11  1  0
 11 12  1  0
 12 13  2  0
 13 14  1  0
 14 15  2  0
 15 16  1  0
 16 17  1  0
 16 18  2  0
 16 19  2  0
 15 20  1  0
 20 21  2  0
  7  2  1  0
 21 12  1  0
  1 22  1  0
  1 23  1  0
  1 24  1  0
  6 25  1  0
  6 26  1  0
  6 27  1  0
 11 28  1  0
 13 29  1  0
 14 30  1  0
 17 31  1  0
 20 32  1  0
 21 33  1  0
M  CHG  2   8  -1  17  -1
M  END
>  <UniqueID>  (30) 
27

>  <SMILES>  (30) 
Cc1noc(C)c1[N-]C(=O)Nc1ccc(S([NH-])(=O)=O)cc1

>  <Energy>  (30) 
71.30052847633718

>  <Genealogy>  (30) 
Cc1noc(C)c1[N-]C(=O)Nc1ccc(S([NH-])(=O)=O)cc1 (protonated)
Cc1noc(C)c1[N-]C(=O)Nc1ccc(S([NH-])(=O)=O)cc1 (3D coordinates assigned)
Cc1noc(C)c1[N-]C(=O)Nc1ccc(S([NH-])(=O)=O)cc1 (optimized conformer: 71.30052847633718 kcal/mol)

>  <smiles>  (30) 
Cc1noc(C)c1NC(=O)Nc1ccc(S(N)(=O)=O)cc1

>  <score_type>  (30) 
oracle

>  <origin>  (30) 
adgpu

>  <m_score__min__energy>  (30) 
-9.7100000000000009

>  <m_primary>  (30) 
energy

$$$$
30:0
     RDKit          3D

 52 55  0  0  0  0  0  0  0  0999 V2000
   -3.5000   24.9290  -31.4280 H   0  0  0  0  0  0  0  0  0  0  0  0
   -3.5480   25.1270  -30.4570 O   0  0  0  0  0  0  0  0  0  0  0  0
   -3.6200   23.8910  -29.7970 C   0  0  0  0  0  0  0  0  0  0  0  0
   -2.8932   23.1990  -30.2474 H   0  0  0  0  0  0  0  0  0  0  0  0
   -3.3923   24.0467  -28.7322 H   0  0  0  0  0  0  0  0  0  0  0  0
   -5.0330   23.2870  -29.9160 C   0  0  2  0  0  0  0  0  0  0  0  0
   -5.2900   22.7968  -28.9654 H   0  0  0  0  0  0  0  0  0  0  0  0
   -5.0700   22.1880  -31.0100 C   0  0  0  0  0  0  0  0  0  0  0  0
   -4.7718   21.2287  -30.5618 H   0  0  0  0  0  0  0  0  0  0  0  0
   -4.3774   22.4803  -31.8131 H   0  0  0  0  0  0  0  0  0  0  0  0
   -6.4120   22.0450  -31.5920 N   0  0  0  0  0  0  0  0  0  0  0  0
   -6.8980   20.7310  -31.9230 C   0  0  0  0  0  0  0  0  0  0  0  0
   -6.3350   19.9870  -32.9840 C   0  0  0  0  0  0  0  0  0  0  0  0
   -5.2240   20.4500  -33.6980 O   0  0  0  0  0  0  0  0  0  0  0  0
   -3.8910   20.2330  -33.3220 C   0  0  0  0  0  0  0  0  0  0  0  0
   -3.0450   21.3390  -33.1820 C   0  0  0  0  0  0  0  0  0  0  0  0
   -3.4306   22.3503  -33.3785 H   0  0  0  0  0  0  0  0  0  0  0  0
   -1.7130   21.1670  -32.7940 C   0  0  0  0  0  0  0  0  0  0  0  0
   -1.0659   22.0451  -32.6519 H   0  0  0  0  0  0  0  0  0  0  0  0
   -1.1980   19.8770  -32.5850 C   0  0  0  0  0  0  0  0  0  0  0  0
    0.1480   19.6800  -32.1240 N   0  0  0  0  0  0  0  0  0  0  0  0
    0.5460   19.4440  -30.9020 C   0  0  0  0  0  0  0  0  0  0  0  0
   -0.3340   19.4880  -29.7990 C   0  0  0  0  0  0  0  0  0  0  0  0
   -1.3992   19.7182  -29.9488 H   0  0  0  0  0  0  0  0  0  0  0  0
    0.1580   19.2370  -28.5160 C   0  0  0  0  0  0  0  0  0  0  0  0
   -0.5218   19.2604  -27.6515 H   0  0  0  0  0  0  0  0  0  0  0  0
    1.5100   18.9570  -28.3320 C   0  0  0  0  0  0  0  0  0  0  0  0
    1.9031   18.7508  -27.3256 H   0  0  0  0  0  0  0  0  0  0  0  0
    2.3600   18.9410  -29.4380 C   0  0  0  0  0  0  0  0  0  0  0  0
    3.4308   18.7287  -29.3027 H   0  0  0  0  0  0  0  0  0  0  0  0
    1.8700   19.1870  -30.6840 N   0  0  0  0  0  0  0  0  0  0  0  0
    2.5340   19.1690  -31.4910 H   0  0  0  0  0  0  0  0  0  0  0  0
   -2.0430   18.7710  -32.7170 C   0  0  0  0  0  0  0  0  0  0  0  0
   -1.6570   17.7607  -32.5161 H   0  0  0  0  0  0  0  0  0  0  0  0
   -3.3760   18.9420  -33.1030 C   0  0  0  0  0  0  0  0  0  0  0  0
   -4.0247   18.0637  -33.2360 H   0  0  0  0  0  0  0  0  0  0  0  0
   -6.8870   18.7960  -33.3400 N   0  0  0  0  0  0  0  0  0  0  0  0
   -7.9550   18.2710  -32.6850 C   0  0  0  0  0  0  0  0  0  0  0  0
   -8.3704   17.3023  -32.9997 H   0  0  0  0  0  0  0  0  0  0  0  0
   -8.5250   18.9580  -31.6150 C   0  0  0  0  0  0  0  0  0  0  0  0
   -9.3812   18.5301  -31.0730 H   0  0  0  0  0  0  0  0  0  0  0  0
   -7.9990   20.1940  -31.2380 C   0  0  0  0  0  0  0  0  0  0  0  0
   -8.4485   20.7492  -30.4015 H   0  0  0  0  0  0  0  0  0  0  0  0
   -7.1140   23.2280  -32.1150 C   0  0  0  0  0  0  0  0  0  0  0  0
   -8.1638   23.1927  -31.7885 H   0  0  0  0  0  0  0  0  0  0  0  0
   -7.0415   23.2122  -33.2125 H   0  0  0  0  0  0  0  0  0  0  0  0
   -6.4810   24.5320  -31.6130 C   0  0  0  0  0  0  0  0  0  0  0  0
   -7.2037   25.3537  -31.7248 H   0  0  0  0  0  0  0  0  0  0  0  0
   -5.5779   24.7444  -32.2041 H   0  0  0  0  0  0  0  0  0  0  0  0
   -6.0940   24.3960  -30.1400 C   0  0  0  0  0  0  0  0  0  0  0  0
   -6.9941   24.1486  -29.5581 H   0  0  0  0  0  0  0  0  0  0  0  0
   -5.6588   25.3523  -29.8142 H   0  0  0  0  0  0  0  0  0  0  0  0
  1  2  1  0
  2  3  1  0
  3  4  1  0
  3  5  1  0
  3  6  1  0
  6  7  1  1
  6  8  1  0
  8  9  1  0
  8 10  1  0
  8 11  1  0
 11 12  1  0
 12 13  1  0
 13 14  1  0
 14 15  1  0
 15 16  2  0
 16 17  1  0
 16 18  1  0
 18 19  1  0
 18 20  2  0
 20 21  1  0
 21 22  2  0
 22 23  1  0
 23 24  1  0
 23 25  2  0
 25 26  1  0
 25 27  1  0
 27 28  1  0
 27 29  2  0
 29 30  1  0
 29 31  1  0
 31 32  1  0
 20 33  1  0
 33 34  1  0
 33 35  2  0
 35 36  1  0
 13 37  2  0
 37 38  1  0
 38 39  1  0
 38 40  2  0
 40 41  1  0
 40 42  1  0
 42 43  1  0
 11 44  1  0
 44 45  1  0
 44 46  1  0
 44 47  1  0
 47 48  1  0
 47 49  1  0
 47 50  1  0
 50 51  1  0
 50 52  1  0
 50  6  1  0
 42 12  2  0
 35 15  1  0
 31 22  1  0
M  END
>  <UniqueID>  (31) 
28

>  <SMILES>  (31) 
OC[C@H]1CCCN(c2cccnc2Oc2ccc(/N=c3\cccc[nH]3)cc2)C1

>  <Energy>  (31) 
76.75076173507613

>  <Genealogy>  (31) 
OC[C@H]1CCCN(c2cccnc2Oc2ccc(N=c3cccc[nH]3)cc2)C1 (chirality)
OC[C@H]1CCCN(c2cccnc2Oc2ccc(/N=c3\cccc[nH]3)cc2)C1 (cis-trans isomerization)
OC[C@H]1CCCN(c2cccnc2Oc2ccc(/N=c3\cccc[nH]3)cc2)C1 (3D coordinates assigned)
OC[C@H]1CCCN(c2cccnc2Oc2ccc(/N=c3\cccc[nH]3)cc2)C1 (nonaromatic ring conformer: 76.75076173507613 kcal/mol)

>  <smiles>  (31) 
OCC1CCCN(c2cccnc2Oc2ccc(N=c3cccc[nH]3)cc2)C1

>  <score_type>  (31) 
oracle

>  <origin>  (31) 
adgpu

>  <m_score__min__energy>  (31) 
-9.0299999999999994

>  <m_primary>  (31) 
energy

$$$$
31:0
     RDKit          3D

 25 27  0  0  0  0  0  0  0  0999 V2000
   -9.0110   21.8530  -30.3850 O   0  0  0  0  0  0  0  0  0  0  0  0
   -7.8770   21.6700  -30.9080 C   0  0  0  0  0  0  0  0  0  0  0  0
   -6.8340   22.7130  -30.7900 C   0  0  0  0  0  0  0  0  0  0  0  0
   -7.0950   23.9110  -30.1000 C   0  0  0  0  0  0  0  0  0  0  0  0
   -6.1120   24.8990  -29.9880 C   0  0  0  0  0  0  0  0  0  0  0  0
   -6.4050   26.0730  -29.2960 O   0  0  0  0  0  0  0  0  0  0  0  0
   -4.8520   24.6940  -30.5690 C   0  0  0  0  0  0  0  0  0  0  0  0
   -3.8620   25.6660  -30.4670 O   0  0  0  0  0  0  0  0  0  0  0  0
   -4.5830   23.5080  -31.2570 C   0  0  0  0  0  0  0  0  0  0  0  0
   -5.5680   22.5090  -31.3740 C   0  0  0  0  0  0  0  0  0  0  0  0
   -5.2810   21.2510  -32.1040 C   0  0  0  0  0  0  0  0  0  0  0  0
   -4.1430   21.0820  -32.6230 O   0  0  0  0  0  0  0  0  0  0  0  0
   -6.3250   20.1980  -32.2260 C   0  0  0  0  0  0  0  0  0  0  0  0
   -6.0830   18.9870  -32.9170 C   0  0  0  0  0  0  0  0  0  0  0  0
   -4.8520   18.7300  -33.5130 O   0  0  0  0  0  0  0  0  0  0  0  0
   -7.0850   18.0180  -33.0130 C   0  0  0  0  0  0  0  0  0  0  0  0
   -8.3310   18.2330  -32.4300 C   0  0  0  0  0  0  0  0  0  0  0  0
   -8.5880   19.4200  -31.7470 C   0  0  0  0  0  0  0  0  0  0  0  0
   -7.5940   20.4110  -31.6370 C   0  0  0  0  0  0  0  0  0  0  0  0
   -8.0829   24.0721  -29.6438 H   0  0  0  0  0  0  0  0  0  0  0  0
   -5.6800   26.7050  -28.9790 H   0  0  0  0  0  0  0  0  0  0  0  0
   -3.5931   23.3536  -31.7111 H   0  0  0  0  0  0  0  0  0  0  0  0
   -6.8883   17.0797  -33.5524 H   0  0  0  0  0  0  0  0  0  0  0  0
   -9.1139   17.4644  -32.5087 H   0  0  0  0  0  0  0  0  0  0  0  0
   -9.5751   19.5841  -31.2902 H   0  0  0  0  0  0  0  0  0  0  0  0
  1  2  2  0
  2  3  1  0
  3  4  2  0
  4  5  1  0
  5  6  1  0
  5  7  2  0
  7  8  1  0
  7  9  1  0
  9 10  2  0
 10 11  1  0
 11 12  2  0
 11 13  1  0
 13 14  2  0
 14 15  1  0
 14 16  1  0
 16 17  2  0
 17 18  1  0
 18 19  2  0
 19  2  1  0
 10  3  1  0
 19 13  1  0
  4 20  1  0
  6 21  1  0
  9 22  1  0
 16 23  1  0
 17 24  1  0
 18 25  1  0
M  CHG  2   8  -1  15  -1
M  END
>  <UniqueID>  (32) 
29

>  <SMILES>  (32) 
O=C1c2cc(O)c([O-])cc2C(=O)c2c([O-])cccc21

>  <Energy>  (32) 
34.86300020769871

>  <Genealogy>  (32) 
O=C1c2cc(O)c([O-])cc2C(=O)c2c([O-])cccc21 (protonated)
O=C1c2cc(O)c([O-])cc2C(=O)c2c([O-])cccc21 (3D coordinates assigned)
O=C1c2cc(O)c([O-])cc2C(=O)c2c([O-])cccc21 (nonaromatic ring conformer: 34.86300020769871 kcal/mol)

>  <smiles>  (32) 
O=C1c2cc(O)c(O)cc2C(=O)c2c(O)cccc21

>  <score_type>  (32) 
oracle

>  <origin>  (32) 
adgpu

>  <m_score__min__energy>  (32) 
-11.039999999999999

>  <m_primary>  (32) 
energy

$$$$
32:0
     RDKit          3D

 64 69  0  0  0  0  0  0  0  0999 V2000
   -2.3780   14.5850  -35.9830 C   0  0  0  0  0  0  0  0  0  0  0  0
   -1.5890   15.8430  -35.7910 C   0  0  0  0  0  0  0  0  0  0  0  0
   -0.4340   16.1970  -36.4700 C   0  0  0  0  0  0  0  0  0  0  0  0
   -0.0420   17.3800  -35.8720 C   0  0  0  0  0  0  0  0  0  0  0  0
    1.1660   18.1380  -36.2090 C   0  0  0  0  0  0  0  0  0  0  0  0
    1.2160   18.7030  -37.3300 O   0  0  0  0  0  0  0  0  0  0  0  0
    2.2820   18.2930  -35.3200 N   0  0  0  0  0  0  0  0  0  0  0  0
    2.4430   18.0970  -33.9020 C   0  0  0  0  0  0  0  0  0  0  0  0
    3.0710   19.0230  -33.0470 C   0  0  0  0  0  0  0  0  0  0  0  0
    3.1180   18.7970  -31.6690 C   0  0  0  0  0  0  0  0  0  0  0  0
    2.5020   17.6620  -31.1080 C   0  0  0  0  0  0  0  0  0  0  0  0
    2.4560   17.4580  -29.7170 O   0  0  0  0  0  0  0  0  0  0  0  0
    1.4150   17.8880  -28.8840 C   0  0  0  0  0  0  0  0  0  0  0  0
    0.9040   17.0400  -27.9540 N   0  0  0  0  0  0  0  0  0  0  0  0
   -0.1130   17.4260  -27.1450 C   0  0  0  0  0  0  0  0  0  0  0  0
   -0.6550   18.7080  -27.2620 C   0  0  0  0  0  0  0  0  0  0  0  0
   -0.1280   19.5740  -28.2310 C   0  0  0  0  0  0  0  0  0  0  0  0
   -0.6720   20.9350  -28.4600 C   0  0  0  0  0  0  0  0  0  0  0  0
    0.1050   22.0900  -28.2540 C   0  0  0  0  0  0  0  0  0  0  0  0
   -0.4330   23.3570  -28.5090 C   0  0  0  0  0  0  0  0  0  0  0  0
   -1.7430   23.4850  -29.0040 C   0  0  0  0  0  0  0  0  0  0  0  0
   -2.3170   24.8110  -29.3190 C   0  0  0  0  0  0  0  0  0  0  0  0
   -1.8480   25.8340  -28.7430 O   0  0  0  0  0  0  0  0  0  0  0  0
   -3.4470   24.9700  -30.1840 N   0  0  0  0  0  0  0  0  0  0  0  0
   -4.8110   24.5740  -29.8360 C   0  0  0  0  0  0  0  0  0  0  0  0
   -5.8220   25.6560  -30.1550 C   0  0  0  0  0  0  0  0  0  0  0  0
   -5.7170   24.4230  -31.0400 C   0  0  0  0  0  0  0  0  0  0  0  0
   -2.5240   22.3370  -29.1900 C   0  0  0  0  0  0  0  0  0  0  0  0
   -1.9940   21.0750  -28.9230 C   0  0  0  0  0  0  0  0  0  0  0  0
    0.8810   19.1300  -29.0230 N   0  0  0  0  0  0  0  0  0  0  0  0
    1.9230   16.7070  -31.9610 C   0  0  0  0  0  0  0  0  0  0  0  0
    1.0860   15.1290  -31.2470 Br  0  0  0  0  0  0  0  0  0  0  0  0
    1.8800   16.9350  -33.3440 C   0  0  0  0  0  0  0  0  0  0  0  0
   -0.9230   17.6950  -34.9030 N   0  0  0  0  0  0  0  0  0  0  0  0
   -0.8790   18.8340  -34.0280 C   0  0  0  0  0  0  0  0  0  0  0  0
   -0.7210   20.1200  -34.5720 C   0  0  0  0  0  0  0  0  0  0  0  0
   -0.6370   21.2330  -33.7280 C   0  0  0  0  0  0  0  0  0  0  0  0
   -0.7150   21.0760  -32.3410 C   0  0  0  0  0  0  0  0  0  0  0  0
   -0.6320   22.1680  -31.5300 F   0  0  0  0  0  0  0  0  0  0  0  0
   -0.8610   19.7980  -31.7910 C   0  0  0  0  0  0  0  0  0  0  0  0
   -0.9340   18.6740  -32.6290 C   0  0  0  0  0  0  0  0  0  0  0  0
   -1.0020   17.4300  -32.0830 F   0  0  0  0  0  0  0  0  0  0  0  0
   -1.8610   16.7560  -34.8390 N   0  0  0  0  0  0  0  0  0  0  0  0
   -2.6419   14.1643  -35.0015 H   0  0  0  0  0  0  0  0  0  0  0  0
   -3.2968   14.8105  -36.5443 H   0  0  0  0  0  0  0  0  0  0  0  0
   -1.7750   13.8561  -36.5443 H   0  0  0  0  0  0  0  0  0  0  0  0
    0.0576   15.6603  -37.2948 H   0  0  0  0  0  0  0  0  0  0  0  0
    3.5280   19.9311  -33.4671 H   0  0  0  0  0  0  0  0  0  0  0  0
    3.6408   19.5120  -31.0167 H   0  0  0  0  0  0  0  0  0  0  0  0
   -0.5124   16.7279  -26.3946 H   0  0  0  0  0  0  0  0  0  0  0  0
   -1.4780   19.0316  -26.6078 H   0  0  0  0  0  0  0  0  0  0  0  0
    1.1393   21.9969  -27.8912 H   0  0  0  0  0  0  0  0  0  0  0  0
    0.1717   24.2565  -28.3213 H   0  0  0  0  0  0  0  0  0  0  0  0
   -4.5766   23.9507  -28.9605 H   0  0  0  0  0  0  0  0  0  0  0  0
   -6.7007   25.7962  -29.5083 H   0  0  0  0  0  0  0  0  0  0  0  0
   -5.7735   26.7419  -30.3235 H   0  0  0  0  0  0  0  0  0  0  0  0
   -6.5199   23.6711  -31.0338 H   0  0  0  0  0  0  0  0  0  0  0  0
   -5.5611   24.2469  -32.1146 H   0  0  0  0  0  0  0  0  0  0  0  0
   -3.5598   22.4314  -29.5482 H   0  0  0  0  0  0  0  0  0  0  0  0
   -2.6151   20.1801  -29.0757 H   0  0  0  0  0  0  0  0  0  0  0  0
    1.3996   16.1953  -34.0013 H   0  0  0  0  0  0  0  0  0  0  0  0
   -0.6633   20.2519  -35.6625 H   0  0  0  0  0  0  0  0  0  0  0  0
   -0.5089   22.2372  -34.1583 H   0  0  0  0  0  0  0  0  0  0  0  0
   -0.9187   19.6735  -30.6996 H   0  0  0  0  0  0  0  0  0  0  0  0
  1  2  1  0
  2  3  1  0
  3  4  2  0
  4  5  1  0
  5  6  2  0
  5  7  1  0
  7  8  1  0
  8  9  2  0
  9 10  1  0
 10 11  2  0
 11 12  1  0
 12 13  1  0
 13 14  2  0
 14 15  1  0
 15 16  2  0
 16 17  1  0
 17 18  1  0
 18 19  2  0
 19 20  1  0
 20 21  2  0
 21 22  1  0
 22 23  2  0
 22 24  1  0
 24 25  1  0
 25 26  1  0
 26 27  1  0
 21 28  1  0
 28 29  2  0
 17 30  2  0
 11 31  1  0
 31 32  1  0
 31 33  2  0
  4 34  1  0
 34 35  1  0
 35 36  2  0
 36 37  1  0
 37 38  2  0
 38 39  1  0
 38 40  1  0
 40 41  2  0
 41 42  1  0
 34 43  1  0
 43  2  2  0
 33  8  1  0
 41 35  1  0
 30 13  1  0
 29 18  1  0
 27 25  1  0
  1 44  1  0
  1 45  1  0
  1 46  1  0
  3 47  1  0
  9 48  1  0
 10 49  1  0
 15 50  1  0
 16 51  1  0
 19 52  1  0
 20 53  1  0
 25 54  1  0
 26 55  1  0
 26 56  1  0
 27 57  1  0
 27 58  1  0
 28 59  1  0
 29 60  1  0
 33 61  1  0
 36 62  1  0
 37 63  1  0
 40 64  1  0
M  CHG  2   7  -1  24  -1
M  END
>  <UniqueID>  (33) 
30

>  <SMILES>  (33) 
Cc1cc(C(=O)[N-]c2ccc(Oc3nccc(-c4ccc(C(=O)[N-]C5CC5)cc4)n3)c(Br)c2)n(-c2ccc(F)cc2F)n1

>  <Energy>  (33) 
396.8604661547758

>  <Genealogy>  (33) 
Cc1cc(C(=O)[N-]c2ccc(Oc3nccc(-c4ccc(C(=O)[N-]C5CC5)cc4)n3)c(Br)c2)n(-c2ccc(F)cc2F)n1 (protonated)
Cc1cc(C(=O)[N-]c2ccc(Oc3nccc(-c4ccc(C(=O)[N-]C5CC5)cc4)n3)c(Br)c2)n(-c2ccc(F)cc2F)n1 (3D coordinates assigned)
Cc1cc(C(=O)[N-]c2ccc(Oc3nccc(-c4ccc(C(=O)[N-]C5CC5)cc4)n3)c(Br)c2)n(-c2ccc(F)cc2F)n1 (nonaromatic ring conformer: 396.8604661547758 kcal/mol)

>  <smiles>  (33) 
Cc1cc(C(=O)Nc2ccc(Oc3nccc(-c4ccc(C(=O)NC5CC5)cc4)n3)c(Br)c2)n(-c2ccc(F)cc2F)n1

>  <score_type>  (33) 
oracle

>  <origin>  (33) 
adgpu

>  <m_score__min__energy>  (33) 
-12.529999999999999

>  <m_primary>  (33) 
energy

$$$$
33:0
     RDKit          3D

 43 45  0  0  0  0  0  0  0  0999 V2000
    1.8180   20.6340  -36.1470 C   0  0  0  0  0  0  0  0  0  0  0  0
    1.1700   21.2740  -34.9570 C   0  0  0  0  0  0  0  0  0  0  0  0
    0.9800   22.5180  -34.9630 O   0  0  0  0  0  0  0  0  0  0  0  0
    0.7990   20.5220  -33.7940 N   0  0  0  0  0  0  0  0  0  0  0  0
   -0.5300   20.3240  -33.2910 C   0  0  0  0  0  0  0  0  0  0  0  0
   -1.0430   19.0230  -33.2340 C   0  0  0  0  0  0  0  0  0  0  0  0
   -2.3270   18.7910  -32.7370 C   0  0  0  0  0  0  0  0  0  0  0  0
   -3.1010   19.8560  -32.2710 C   0  0  0  0  0  0  0  0  0  0  0  0
   -2.5880   21.1650  -32.2830 C   0  0  0  0  0  0  0  0  0  0  0  0
   -3.4110   22.2900  -31.7780 C   0  0  0  0  0  0  0  0  0  0  0  0
   -4.7630   22.3680  -32.1470 C   0  0  0  0  0  0  0  0  0  0  0  0
   -5.5850   23.3970  -31.6570 C   0  0  0  0  0  0  0  0  0  0  0  0
   -6.9830   23.4690  -31.9720 N   0  0  0  0  0  0  0  0  0  0  0  0
   -8.1840   22.3420  -31.4260 S   0  0  0  0  0  0  0  0  0  0  0  0
   -8.1810   22.3040  -29.9250 O   0  0  0  0  0  0  0  0  0  0  0  0
   -9.5340   22.7960  -31.9050 O   0  0  0  0  0  0  0  0  0  0  0  0
   -7.8150   20.7300  -32.0360 C   0  0  0  0  0  0  0  0  0  0  0  0
   -8.4250   19.6080  -31.4550 C   0  0  0  0  0  0  0  0  0  0  0  0
   -8.1000   18.3230  -31.9000 C   0  0  0  0  0  0  0  0  0  0  0  0
   -7.1680   18.1530  -32.9280 C   0  0  0  0  0  0  0  0  0  0  0  0
   -6.5610   19.2680  -33.5120 C   0  0  0  0  0  0  0  0  0  0  0  0
   -6.8830   20.5550  -33.0700 C   0  0  0  0  0  0  0  0  0  0  0  0
   -5.0320   24.3760  -30.8270 C   0  0  0  0  0  0  0  0  0  0  0  0
   -3.6860   24.3170  -30.4580 C   0  0  0  0  0  0  0  0  0  0  0  0
   -3.1670   25.2990  -29.6210 O   0  0  0  0  0  0  0  0  0  0  0  0
   -2.8710   23.2700  -30.9200 C   0  0  0  0  0  0  0  0  0  0  0  0
   -1.5360   23.1840  -30.5160 O   0  0  0  0  0  0  0  0  0  0  0  0
   -1.2980   21.3910  -32.7930 C   0  0  0  0  0  0  0  0  0  0  0  0
    2.5625   19.8987  -35.8079 H   0  0  0  0  0  0  0  0  0  0  0  0
    1.0525   20.1277  -36.7533 H   0  0  0  0  0  0  0  0  0  0  0  0
    2.3147   21.4058  -36.7533 H   0  0  0  0  0  0  0  0  0  0  0  0
   -0.4309   18.1782  -33.5829 H   0  0  0  0  0  0  0  0  0  0  0  0
   -2.7296   17.7676  -32.7124 H   0  0  0  0  0  0  0  0  0  0  0  0
   -4.1170   19.6698  -31.8927 H   0  0  0  0  0  0  0  0  0  0  0  0
   -5.1844   21.6142  -32.8283 H   0  0  0  0  0  0  0  0  0  0  0  0
   -9.1605   19.7396  -30.6477 H   0  0  0  0  0  0  0  0  0  0  0  0
   -8.5780   17.4451  -31.4409 H   0  0  0  0  0  0  0  0  0  0  0  0
   -6.9125   17.1417  -33.2771 H   0  0  0  0  0  0  0  0  0  0  0  0
   -5.8282   19.1330  -34.3212 H   0  0  0  0  0  0  0  0  0  0  0  0
   -6.4052   21.4308  -33.5333 H   0  0  0  0  0  0  0  0  0  0  0  0
   -5.6621   25.2001  -30.4611 H   0  0  0  0  0  0  0  0  0  0  0  0
   -1.0360   23.9760  -30.1310 H   0  0  0  0  0  0  0  0  0  0  0  0
   -0.8860   22.4109  -32.8026 H   0  0  0  0  0  0  0  0  0  0  0  0
  1  2  1  0
  2  3  2  0
  2  4  1  0
  4  5  1  0
  5  6  2  0
  6  7  1  0
  7  8  2  0
  8  9  1  0
  9 10  1  0
 10 11  2  0
 11 12  1  0
 12 13  1  0
 13 14  1  0
 14 15  2  0
 14 16  2  0
 14 17  1  0
 17 18  2  0
 18 19  1  0
 19 20  2  0
 20 21  1  0
 21 22  2  0
 12 23  2  0
 23 24  1  0
 24 25  1  0
 24 26  2  0
 26 27  1  0
  9 28  2  0
 28  5  1  0
 26 10  1  0
 22 17  1  0
  1 29  1  0
  1 30  1  0
  1 31  1  0
  6 32  1  0
  7 33  1  0
  8 34  1  0
 11 35  1  0
 18 36  1  0
 19 37  1  0
 20 38  1  0
 21 39  1  0
 22 40  1  0
 23 41  1  0
 27 42  1  0
 28 43  1  0
M  CHG  3   4  -1  13  -1  25  -1
M  END
>  <UniqueID>  (34) 
31

>  <SMILES>  (34) 
CC(=O)[N-]c1cccc(-c2cc([N-]S(=O)(=O)c3ccccc3)cc([O-])c2O)c1

>  <Energy>  (34) 
57.587615406408716

>  <Genealogy>  (34) 
CC(=O)[N-]c1cccc(-c2cc([N-]S(=O)(=O)c3ccccc3)cc([O-])c2O)c1 (protonated)
CC(=O)[N-]c1cccc(-c2cc([N-]S(=O)(=O)c3ccccc3)cc([O-])c2O)c1 (3D coordinates assigned)
CC(=O)[N-]c1cccc(-c2cc([N-]S(=O)(=O)c3ccccc3)cc([O-])c2O)c1 (optimized conformer: 57.587615406408716 kcal/mol)

>  <smiles>  (34) 
CC(=O)Nc1cccc(-c2cc(NS(=O)(=O)c3ccccc3)cc(O)c2O)c1

>  <score_type>  (34) 
oracle

>  <origin>  (34) 
adgpu

>  <m_score__min__energy>  (34) 
-12.59

>  <m_primary>  (34) 
energy

$$$$
34:0
     RDKit          3D

 37 38  0  0  0  0  0  0  0  0999 V2000
   -2.7380   20.7040  -33.4790 C   0  0  0  0  0  0  0  0  0  0  0  0
   -3.8080   21.1440  -32.5710 N   0  0  0  0  0  0  0  0  0  0  0  0
   -3.9010   20.2140  -31.4320 C   0  0  0  0  0  0  0  0  0  0  0  0
   -3.5410   22.5210  -32.1070 C   0  0  0  0  0  0  0  0  0  0  0  0
   -4.7980   23.1490  -31.5470 C   0  0  0  0  0  0  0  0  0  0  0  0
   -6.0330   22.5310  -31.8050 C   0  0  0  0  0  0  0  0  0  0  0  0
   -7.2170   23.0670  -31.2920 C   0  0  0  0  0  0  0  0  0  0  0  0
   -8.7520   22.2870  -31.6280 Cl  0  0  0  0  0  0  0  0  0  0  0  0
   -7.1770   24.2220  -30.5110 C   0  0  0  0  0  0  0  0  0  0  0  0
   -5.9570   24.8410  -30.2350 C   0  0  0  0  0  0  0  0  0  0  0  0
   -4.7550   24.3140  -30.7460 C   0  0  0  0  0  0  0  0  0  0  0  0
   -3.4890   24.9320  -30.4640 N   0  0  0  0  0  0  0  0  0  0  0  0
   -2.4790   24.5870  -29.0980 S   0  0  0  0  0  0  0  0  0  0  0  0
   -3.2650   24.8170  -27.8380 O   0  0  0  0  0  0  0  0  0  0  0  0
   -1.2990   25.5170  -29.1150 O   0  0  0  0  0  0  0  0  0  0  0  0
   -1.9520   22.9080  -29.1430 C   0  0  0  0  0  0  0  0  0  0  0  0
   -2.5670   21.9500  -28.3240 C   0  0  0  0  0  0  0  0  0  0  0  0
   -2.1390   20.6200  -28.3590 C   0  0  0  0  0  0  0  0  0  0  0  0
   -1.0980   20.2400  -29.2120 C   0  0  0  0  0  0  0  0  0  0  0  0
   -0.4850   21.1920  -30.0330 C   0  0  0  0  0  0  0  0  0  0  0  0
   -0.9120   22.5230  -30.0000 C   0  0  0  0  0  0  0  0  0  0  0  0
   -1.8791   20.3508  -32.8895 H   0  0  0  0  0  0  0  0  0  0  0  0
   -3.1089   19.8854  -34.1133 H   0  0  0  0  0  0  0  0  0  0  0  0
   -2.4257   21.5467  -34.1133 H   0  0  0  0  0  0  0  0  0  0  0  0
   -3.8444   20.7803  -30.4907 H   0  0  0  0  0  0  0  0  0  0  0  0
   -4.8577   19.6731  -31.4775 H   0  0  0  0  0  0  0  0  0  0  0  0
   -3.0703   19.4943  -31.4775 H   0  0  0  0  0  0  0  0  0  0  0  0
   -2.7701   22.4948  -31.3228 H   0  0  0  0  0  0  0  0  0  0  0  0
   -3.1956   23.1217  -32.9614 H   0  0  0  0  0  0  0  0  0  0  0  0
   -6.0682   21.6171  -32.4162 H   0  0  0  0  0  0  0  0  0  0  0  0
   -8.1099   24.6463  -30.1114 H   0  0  0  0  0  0  0  0  0  0  0  0
   -5.9340   25.7481  -29.6132 H   0  0  0  0  0  0  0  0  0  0  0  0
   -3.3872   22.2457  -27.6533 H   0  0  0  0  0  0  0  0  0  0  0  0
   -2.6218   19.8707  -27.7144 H   0  0  0  0  0  0  0  0  0  0  0  0
   -0.7615   19.1930  -29.2372 H   0  0  0  0  0  0  0  0  0  0  0  0
    0.3333   20.8935  -30.7048 H   0  0  0  0  0  0  0  0  0  0  0  0
   -0.4305   23.2699  -30.6483 H   0  0  0  0  0  0  0  0  0  0  0  0
  1  2  1  0
  2  3  1  0
  2  4  1  0
  4  5  1  0
  5  6  2  0
  6  7  1  0
  7  8  1  0
  7  9  2  0
  9 10  1  0
 10 11  2  0
 11 12  1  0
 12 13  1  0
 13 14  2  0
 13 15  2  0
 13 16  1  0
 16 17  2  0
 17 18  1  0
 18 19  2  0
 19 20  1  0
 20 21  2  0
 11  5  1  0
 21 16  1  0
  1 22  1  0
  1 23  1  0
  1 24  1  0
  3 25  1  0
  3 26  1  0
  3 27  1  0
  4 28  1  0
  4 29  1  0
  6 30  1  0
  9 31  1  0
 10 32  1  0
 17 33  1  0
 18 34  1  0
 19 35  1  0
 20 36  1  0
 21 37  1  0
M  CHG  1  12  -1
M  END
>  <UniqueID>  (35) 
32

>  <SMILES>  (35) 
CN(C)Cc1cc(Cl)ccc1[N-]S(=O)(=O)c1ccccc1

>  <Energy>  (35) 
40.58413834967905

>  <Genealogy>  (35) 
CN(C)Cc1cc(Cl)ccc1[N-]S(=O)(=O)c1ccccc1 (protonated)
CN(C)Cc1cc(Cl)ccc1[N-]S(=O)(=O)c1ccccc1 (3D coordinates assigned)
CN(C)Cc1cc(Cl)ccc1[N-]S(=O)(=O)c1ccccc1 (optimized conformer: 40.58413834967905 kcal/mol)

>  <smiles>  (35) 
CN(C)Cc1cc(Cl)ccc1NS(=O)(=O)c1ccccc1

>  <score_type>  (35) 
oracle

>  <origin>  (35) 
adgpu

>  <m_score__min__energy>  (35) 
-8.5899999999999999

>  <m_primary>  (35) 
energy

$$$$
35:0
     RDKit          3D

 51 54  0  0  0  0  0  0  0  0999 V2000
   -1.6330   23.4620  -27.0140 N   0  0  0  0  0  0  0  0  0  0  0  0
   -1.7670   22.6560  -28.1940 C   0  0  0  0  0  0  0  0  0  0  0  0
   -1.4490   21.2940  -28.1140 C   0  0  0  0  0  0  0  0  0  0  0  0
   -1.4850   20.4830  -29.2500 C   0  0  0  0  0  0  0  0  0  0  0  0
   -1.8410   21.0190  -30.4970 C   0  0  0  0  0  0  0  0  0  0  0  0
   -1.8820   20.1550  -31.7060 C   0  0  0  0  0  0  0  0  0  0  0  0
   -0.9280   19.1340  -31.8870 C   0  0  0  0  0  0  0  0  0  0  0  0
   -0.9720   18.3170  -33.0220 C   0  0  0  0  0  0  0  0  0  0  0  0
   -1.9590   18.5150  -33.9900 C   0  0  0  0  0  0  0  0  0  0  0  0
   -2.9070   19.5290  -33.8250 C   0  0  0  0  0  0  0  0  0  0  0  0
   -2.8720   20.3440  -32.6890 C   0  0  0  0  0  0  0  0  0  0  0  0
   -2.1690   22.3820  -30.5830 C   0  0  0  0  0  0  0  0  0  0  0  0
   -2.1540   23.2060  -29.4430 C   0  0  0  0  0  0  0  0  0  0  0  0
   -2.5830   24.6150  -29.5920 C   0  0  0  0  0  0  0  0  0  0  0  0
   -1.9830   25.5320  -28.9650 O   0  0  0  0  0  0  0  0  0  0  0  0
   -3.6800   24.9300  -30.4600 N   0  0  0  0  0  0  0  0  0  0  0  0
   -4.8540   24.1310  -30.6690 C   0  0  0  0  0  0  0  0  0  0  0  0
   -4.9450   23.2030  -31.7210 C   0  0  0  0  0  0  0  0  0  0  0  0
   -6.1110   22.4530  -31.9020 C   0  0  0  0  0  0  0  0  0  0  0  0
   -7.2100   22.6300  -31.0370 C   0  0  0  0  0  0  0  0  0  0  0  0
   -8.4000   21.8970  -31.1650 O   0  0  0  0  0  0  0  0  0  0  0  0
   -8.8220   21.2050  -32.3420 C   0  0  0  0  0  0  0  0  0  0  0  0
   -7.9440   20.0050  -32.6070 C   0  0  0  0  0  0  0  0  0  0  0  0
   -6.9650   20.0690  -33.6150 C   0  0  0  0  0  0  0  0  0  0  0  0
   -6.1600   18.9580  -33.8920 C   0  0  0  0  0  0  0  0  0  0  0  0
   -6.3310   17.7730  -33.1720 C   0  0  0  0  0  0  0  0  0  0  0  0
   -7.3100   17.6930  -32.1780 C   0  0  0  0  0  0  0  0  0  0  0  0
   -8.1170   18.8010  -31.8920 C   0  0  0  0  0  0  0  0  0  0  0  0
   -9.0620   18.6970  -30.9200 F   0  0  0  0  0  0  0  0  0  0  0  0
   -7.1210   23.5730  -30.0080 C   0  0  0  0  0  0  0  0  0  0  0  0
   -5.9560   24.3230  -29.8290 C   0  0  0  0  0  0  0  0  0  0  0  0
   -1.5300   23.0430  -26.0630 H   0  0  0  0  0  0  0  0  0  0  0  0
   -1.7420   24.5010  -27.0660 H   0  0  0  0  0  0  0  0  0  0  0  0
   -1.1674   20.8580  -27.1441 H   0  0  0  0  0  0  0  0  0  0  0  0
   -1.2323   19.4156  -29.1668 H   0  0  0  0  0  0  0  0  0  0  0  0
   -0.1439   18.9783  -31.1314 H   0  0  0  0  0  0  0  0  0  0  0  0
   -0.2279   17.5174  -33.1521 H   0  0  0  0  0  0  0  0  0  0  0  0
   -1.9904   17.8728  -34.8826 H   0  0  0  0  0  0  0  0  0  0  0  0
   -3.6818   19.6861  -34.5899 H   0  0  0  0  0  0  0  0  0  0  0  0
   -3.6229   21.1379  -32.5627 H   0  0  0  0  0  0  0  0  0  0  0  0
   -2.4421   22.8122  -31.5579 H   0  0  0  0  0  0  0  0  0  0  0  0
   -4.0946   23.0662  -32.4052 H   0  0  0  0  0  0  0  0  0  0  0  0
   -6.1710   21.7224  -32.7221 H   0  0  0  0  0  0  0  0  0  0  0  0
   -9.8608   20.8686  -32.2088 H   0  0  0  0  0  0  0  0  0  0  0  0
   -8.7466   21.8911  -33.1985 H   0  0  0  0  0  0  0  0  0  0  0  0
   -6.8313   20.9978  -34.1890 H   0  0  0  0  0  0  0  0  0  0  0  0
   -5.3920   19.0179  -34.6773 H   0  0  0  0  0  0  0  0  0  0  0  0
   -5.6945   16.9022  -33.3877 H   0  0  0  0  0  0  0  0  0  0  0  0
   -7.4472   16.7561  -31.6182 H   0  0  0  0  0  0  0  0  0  0  0  0
   -7.9763   23.7256  -29.3333 H   0  0  0  0  0  0  0  0  0  0  0  0
   -5.9049   25.0692  -29.0224 H   0  0  0  0  0  0  0  0  0  0  0  0
  1  2  1  0
  2  3  2  0
  3  4  1  0
  4  5  2  0
  5  6  1  0
  6  7  2  0
  7  8  1  0
  8  9  2  0
  9 10  1  0
 10 11  2  0
  5 12  1  0
 12 13  2  0
 13 14  1  0
 14 15  2  0
 14 16  1  0
 16 17  1  0
 17 18  2  0
 18 19  1  0
 19 20  2  0
 20 21  1  0
 21 22  1  0
 22 23  1  0
 23 24  2  0
 24 25  1  0
 25 26  2  0
 26 27  1  0
 27 28  2  0
 28 29  1  0
 20 30  1  0
 30 31  2  0
 13  2  1  0
 31 17  1  0
 11  6  1  0
 28 23  1  0
  1 32  1  0
  1 33  1  0
  3 34  1  0
  4 35  1  0
  7 36  1  0
  8 37  1  0
  9 38  1  0
 10 39  1  0
 11 40  1  0
 12 41  1  0
 18 42  1  0
 19 43  1  0
 22 44  1  0
 22 45  1  0
 24 46  1  0
 25 47  1  0
 26 48  1  0
 27 49  1  0
 30 50  1  0
 31 51  1  0
M  CHG  1  16  -1
M  END
>  <UniqueID>  (36) 
33

>  <SMILES>  (36) 
Nc1ccc(-c2ccccc2)cc1C(=O)[N-]c1ccc(OCc2ccccc2F)cc1

>  <Energy>  (36) 
70.56575204112049

>  <Genealogy>  (36) 
Nc1ccc(-c2ccccc2)cc1C(=O)[N-]c1ccc(OCc2ccccc2F)cc1 (protonated)
Nc1ccc(-c2ccccc2)cc1C(=O)[N-]c1ccc(OCc2ccccc2F)cc1 (3D coordinates assigned)
Nc1ccc(-c2ccccc2)cc1C(=O)[N-]c1ccc(OCc2ccccc2F)cc1 (optimized conformer: 70.56575204112049 kcal/mol)

>  <smiles>  (36) 
Nc1ccc(-c2ccccc2)cc1C(=O)Nc1ccc(OCc2ccccc2F)cc1

>  <score_type>  (36) 
oracle

>  <origin>  (36) 
adgpu

>  <m_score__min__energy>  (36) 
-10.380000000000001

>  <m_primary>  (36) 
energy

$$$$
36:0
     RDKit          3D

 45 48  0  0  0  0  0  0  0  0999 V2000
   -3.2528   19.8608  -31.0402 H   0  0  0  0  0  0  0  0  0  0  0  0
   -3.7760   20.7940  -31.2960 C   0  0  0  0  0  0  0  0  0  0  0  0
   -4.7820   20.7590  -32.1150 N   0  0  0  0  0  0  0  0  0  0  0  0
   -5.2680   19.5580  -32.7220 C   0  0  0  0  0  0  0  0  0  0  0  0
   -4.6610   18.3550  -32.6160 N   0  0  0  0  0  0  0  0  0  0  0  0
   -5.3390   17.3870  -33.2910 C   0  0  0  0  0  0  0  0  0  0  0  0
   -4.8730   15.9850  -33.2870 C   0  0  0  0  0  0  0  0  0  0  0  0
   -5.5430   14.8220  -33.6700 C   0  0  0  0  0  0  0  0  0  0  0  0
   -6.9300   14.7350  -34.2390 C   0  0  0  0  0  0  0  0  0  0  0  0
   -7.6608   14.6892  -33.4182 H   0  0  0  0  0  0  0  0  0  0  0  0
   -7.1288   15.6224  -34.8578 H   0  0  0  0  0  0  0  0  0  0  0  0
   -7.0163   13.8297  -34.8578 H   0  0  0  0  0  0  0  0  0  0  0  0
   -4.7240   13.7570  -33.4690 N   0  0  0  0  0  0  0  0  0  0  0  0
   -5.0670   12.3520  -33.7000 C   0  0  0  0  0  0  0  0  0  0  0  0
   -5.1917   11.8414  -32.7337 H   0  0  0  0  0  0  0  0  0  0  0  0
   -6.0060   12.2927  -34.2699 H   0  0  0  0  0  0  0  0  0  0  0  0
   -4.2610   11.8667  -34.2699 H   0  0  0  0  0  0  0  0  0  0  0  0
   -3.5500   14.1990  -33.0260 N   0  0  0  0  0  0  0  0  0  0  0  0
   -2.3910   13.3910  -32.7500 C   0  0  0  0  0  0  0  0  0  0  0  0
   -1.3770   13.2520  -33.7110 C   0  0  0  0  0  0  0  0  0  0  0  0
   -1.4724   13.7546  -34.6848 H   0  0  0  0  0  0  0  0  0  0  0  0
   -0.2460   12.4770  -33.4350 C   0  0  0  0  0  0  0  0  0  0  0  0
    0.5433   12.3670  -34.1932 H   0  0  0  0  0  0  0  0  0  0  0  0
   -0.1180   11.8420  -32.1960 C   0  0  0  0  0  0  0  0  0  0  0  0
    0.7707   11.2305  -31.9806 H   0  0  0  0  0  0  0  0  0  0  0  0
   -1.1190   11.9840  -31.2310 C   0  0  0  0  0  0  0  0  0  0  0  0
   -1.0168   11.4855  -30.2558 H   0  0  0  0  0  0  0  0  0  0  0  0
   -2.2500   12.7590  -31.5040 C   0  0  0  0  0  0  0  0  0  0  0  0
   -3.0326   12.8742  -30.7397 H   0  0  0  0  0  0  0  0  0  0  0  0
   -3.6210   15.5390  -32.9070 C   0  0  0  0  0  0  0  0  0  0  0  0
   -2.6710   16.2680  -32.5110 O   0  0  0  0  0  0  0  0  0  0  0  0
   -6.5050   17.8240  -33.9240 C   0  0  0  0  0  0  0  0  0  0  0  0
   -7.1952   17.1987  -34.5094 H   0  0  0  0  0  0  0  0  0  0  0  0
   -6.6700   19.4740  -33.6350 S   0  0  0  0  0  0  0  0  0  0  0  0
   -3.3230   22.0690  -30.7020 C   0  0  0  0  0  0  0  0  0  0  0  0
   -2.2860   22.0580  -29.7550 C   0  0  0  0  0  0  0  0  0  0  0  0
   -1.8215   21.1044  -29.4635 H   0  0  0  0  0  0  0  0  0  0  0  0
   -1.8410   23.2520  -29.1810 C   0  0  0  0  0  0  0  0  0  0  0  0
   -1.0282   23.2344  -28.4401 H   0  0  0  0  0  0  0  0  0  0  0  0
   -2.4250   24.4680  -29.5450 C   0  0  0  0  0  0  0  0  0  0  0  0
   -1.9770   25.6520  -28.9690 O   0  0  0  0  0  0  0  0  0  0  0  0
   -3.4600   24.4900  -30.4880 C   0  0  0  0  0  0  0  0  0  0  0  0
   -4.0450   25.6970  -30.8530 O   0  0  0  0  0  0  0  0  0  0  0  0
   -3.9080   23.2970  -31.0650 C   0  0  0  0  0  0  0  0  0  0  0  0
   -4.7210   23.3185  -31.8057 H   0  0  0  0  0  0  0  0  0  0  0  0
  1  2  1  0
  2  3  2  0
  3  4  1  0
  4  5  2  0
  5  6  1  0
  6  7  1  0
  7  8  2  0
  8  9  1  0
  9 10  1  0
  9 11  1  0
  9 12  1  0
  8 13  1  0
 13 14  1  0
 14 15  1  0
 14 16  1  0
 14 17  1  0
 13 18  1  0
 18 19  1  0
 19 20  2  0
 20 21  1  0
 20 22  1  0
 22 23  1  0
 22 24  2  0
 24 25  1  0
 24 26  1  0
 26 27  1  0
 26 28  2  0
 28 29  1  0
 18 30  1  0
 30 31  2  0
  6 32  2  0
 32 33  1  0
 32 34  1  0
  2 35  1  0
 35 36  2  0
 36 37  1  0
 36 38  1  0
 38 39  1  0
 38 40  2  0
 40 41  1  0
 40 42  1  0
 42 43  1  0
 42 44  2  0
 44 45  1  0
 34  4  1  0
 44 35  1  0
 30  7  1  0
 28 19  1  0
M  CHG  2  41  -1  43  -1
M  END
>  <UniqueID>  (37) 
34

>  <SMILES>  (37) 
Cc1c(-c2csc(/N=C/c3ccc([O-])c([O-])c3)n2)c(=O)n(-c2ccccc2)n1C

>  <Energy>  (37) 
122.05691063975699

>  <Genealogy>  (37) 
Cc1c(-c2csc(N=Cc3ccc([O-])c([O-])c3)n2)c(=O)n(-c2ccccc2)n1C (protonated)
Cc1c(-c2csc(/N=C/c3ccc([O-])c([O-])c3)n2)c(=O)n(-c2ccccc2)n1C (cis-trans isomerization)
Cc1c(-c2csc(/N=C/c3ccc([O-])c([O-])c3)n2)c(=O)n(-c2ccccc2)n1C (3D coordinates assigned)
Cc1c(-c2csc(/N=C/c3ccc([O-])c([O-])c3)n2)c(=O)n(-c2ccccc2)n1C (optimized conformer: 122.05691063975699 kcal/mol)

>  <smiles>  (37) 
Cc1c(-c2csc(N=Cc3ccc(O)c(O)c3)n2)c(=O)n(-c2ccccc2)n1C

>  <score_type>  (37) 
oracle

>  <origin>  (37) 
adgpu

>  <m_score__min__energy>  (37) 
-12.15

>  <m_primary>  (37) 
energy

$$$$
37:0
     RDKit          3D

 48 51  0  0  0  0  0  0  0  0999 V2000
   -6.5590   16.3670  -34.1320 C   0  0  0  0  0  0  0  0  0  0  0  0
   -6.4410   17.7130  -33.4810 C   0  0  0  0  0  0  0  0  0  0  0  0
   -6.6930   17.8600  -32.1090 C   0  0  0  0  0  0  0  0  0  0  0  0
   -6.5490   19.1080  -31.4950 C   0  0  0  0  0  0  0  0  0  0  0  0
   -6.1490   20.2260  -32.2430 C   0  0  0  0  0  0  0  0  0  0  0  0
   -5.9970   21.5410  -31.5800 C   0  0  0  0  0  0  0  0  0  0  0  0
   -7.2800   22.4170  -30.9320 S   0  0  0  0  0  0  0  0  0  0  0  0
   -6.3550   23.6830  -30.3400 C   0  0  0  0  0  0  0  0  0  0  0  0
   -6.9080   24.8420  -29.7110 N   0  0  0  0  0  0  0  0  0  0  0  0
   -5.0100   23.4650  -30.6470 C   0  0  0  0  0  0  0  0  0  0  0  0
   -3.9260   24.4120  -30.3170 C   0  0  0  0  0  0  0  0  0  0  0  0
   -3.9090   25.5580  -30.8400 O   0  0  0  0  0  0  0  0  0  0  0  0
   -2.8810   24.0100  -29.4240 N   0  0  0  0  0  0  0  0  0  0  0  0
   -2.4480   24.7120  -28.2510 C   0  0  0  0  0  0  0  0  0  0  0  0
   -1.3290   25.5660  -28.2660 C   0  0  0  0  0  0  0  0  0  0  0  0
   -0.9630   26.2660  -27.1130 C   0  0  0  0  0  0  0  0  0  0  0  0
   -1.7170   26.1330  -25.9380 C   0  0  0  0  0  0  0  0  0  0  0  0
   -1.3610   26.8250  -24.7830 O   0  0  0  0  0  0  0  0  0  0  0  0
   -2.8410   25.3010  -25.9280 C   0  0  0  0  0  0  0  0  0  0  0  0
   -3.2090   24.6010  -27.0800 C   0  0  0  0  0  0  0  0  0  0  0  0
   -4.8070   22.2480  -31.3480 C   0  0  0  0  0  0  0  0  0  0  0  0
   -3.4790   21.7830  -31.8090 C   0  0  0  0  0  0  0  0  0  0  0  0
   -3.2020   21.6770  -33.1810 C   0  0  0  0  0  0  0  0  0  0  0  0
   -1.9540   21.2190  -33.6150 C   0  0  0  0  0  0  0  0  0  0  0  0
   -0.9720   20.8720  -32.6810 C   0  0  0  0  0  0  0  0  0  0  0  0
    0.2670   20.4170  -33.1130 O   0  0  0  0  0  0  0  0  0  0  0  0
   -1.2390   20.9830  -31.3120 C   0  0  0  0  0  0  0  0  0  0  0  0
   -2.4880   21.4350  -30.8760 C   0  0  0  0  0  0  0  0  0  0  0  0
   -5.8630   20.0680  -33.6090 C   0  0  0  0  0  0  0  0  0  0  0  0
   -6.0070   18.8220  -34.2230 C   0  0  0  0  0  0  0  0  0  0  0  0
   -6.6272   15.5895  -33.3569 H   0  0  0  0  0  0  0  0  0  0  0  0
   -7.4629   16.3406  -34.7583 H   0  0  0  0  0  0  0  0  0  0  0  0
   -5.6735   16.1837  -34.7583 H   0  0  0  0  0  0  0  0  0  0  0  0
   -7.0053   16.9896  -31.5134 H   0  0  0  0  0  0  0  0  0  0  0  0
   -6.7505   19.2141  -30.4188 H   0  0  0  0  0  0  0  0  0  0  0  0
   -6.8030   24.9730  -28.6810 H   0  0  0  0  0  0  0  0  0  0  0  0
   -7.4640   25.5440  -30.2450 H   0  0  0  0  0  0  0  0  0  0  0  0
   -0.7408   25.6828  -29.1882 H   0  0  0  0  0  0  0  0  0  0  0  0
   -0.0810   26.9232  -27.1272 H   0  0  0  0  0  0  0  0  0  0  0  0
   -2.0290   27.3980  -24.2810 H   0  0  0  0  0  0  0  0  0  0  0  0
   -3.4377   25.1972  -25.0098 H   0  0  0  0  0  0  0  0  0  0  0  0
   -4.1019   23.9587  -27.0674 H   0  0  0  0  0  0  0  0  0  0  0  0
   -3.9698   21.9554  -33.9179 H   0  0  0  0  0  0  0  0  0  0  0  0
   -1.7444   21.1315  -34.6913 H   0  0  0  0  0  0  0  0  0  0  0  0
   -0.4652   20.7143  -30.5779 H   0  0  0  0  0  0  0  0  0  0  0  0
   -2.6955   21.5184  -29.7990 H   0  0  0  0  0  0  0  0  0  0  0  0
   -5.5232   20.9318  -34.1993 H   0  0  0  0  0  0  0  0  0  0  0  0
   -5.7791   18.7094  -35.2932 H   0  0  0  0  0  0  0  0  0  0  0  0
  1  2  1  0
  2  3  2  0
  3  4  1  0
  4  5  2  0
  5  6  1  0
  6  7  1  0
  7  8  1  0
  8  9  1  0
  8 10  2  0
 10 11  1  0
 11 12  2  0
 11 13  1  0
 13 14  1  0
 14 15  2  0
 15 16  1  0
 16 17  2  0
 17 18  1  0
 17 19  1  0
 19 20  2  0
 10 21  1  0
 21 22  1  0
 22 23  2  0
 23 24  1  0
 24 25  2  0
 25 26  1  0
 25 27  1  0
 27 28  2  0
  5 29  1  0
 29 30  2  0
 30  2  1  0
 21  6  2  0
 28 22  1  0
 20 14  1  0
  1 31  1  0
  1 32  1  0
  1 33  1  0
  3 34  1  0
  4 35  1  0
  9 36  1  0
  9 37  1  0
 15 38  1  0
 16 39  1  0
 18 40  1  0
 19 41  1  0
 20 42  1  0
 23 43  1  0
 24 44  1  0
 27 45  1  0
 28 46  1  0
 29 47  1  0
 30 48  1  0
M  CHG  2  13  -1  26  -1
M  END
>  <UniqueID>  (38) 
35

>  <SMILES>  (38) 
Cc1ccc(-c2sc(N)c(C(=O)[N-]c3ccc(O)cc3)c2-c2ccc([O-])cc2)cc1

>  <Energy>  (38) 
93.62424158852573

>  <Genealogy>  (38) 
Cc1ccc(-c2sc(N)c(C(=O)[N-]c3ccc(O)cc3)c2-c2ccc([O-])cc2)cc1 (protonated)
Cc1ccc(-c2sc(N)c(C(=O)[N-]c3ccc(O)cc3)c2-c2ccc([O-])cc2)cc1 (3D coordinates assigned)
Cc1ccc(-c2sc(N)c(C(=O)[N-]c3ccc(O)cc3)c2-c2ccc([O-])cc2)cc1 (optimized conformer: 93.62424158852573 kcal/mol)

>  <smiles>  (38) 
Cc1ccc(-c2sc(N)c(C(=O)Nc3ccc(O)cc3)c2-c2ccc(O)cc2)cc1

>  <score_type>  (38) 
oracle

>  <origin>  (38) 
adgpu

>  <m_score__min__energy>  (38) 
-11.359999999999999

>  <m_primary>  (38) 
energy

$$$$
38:0
     RDKit          3D

 39 41  0  0  0  0  0  0  0  0999 V2000
   -0.6880   25.3410  -29.6030 H   0  0  0  0  0  0  0  0  0  0  0  0
   -1.6590   25.0560  -29.3420 N   0  0  0  0  0  0  0  0  0  0  0  0
   -1.9310   23.9200  -28.7750 C   0  0  0  0  0  0  0  0  0  0  0  0
   -0.8900   23.0190  -28.4940 C   0  0  0  0  0  0  0  0  0  0  0  0
    0.1485   23.2789  -28.7471 H   0  0  0  0  0  0  0  0  0  0  0  0
   -1.1780   21.7960  -27.8940 C   0  0  0  0  0  0  0  0  0  0  0  0
   -0.3677   21.0878  -27.6662 H   0  0  0  0  0  0  0  0  0  0  0  0
   -2.4950   21.4740  -27.5840 C   0  0  0  0  0  0  0  0  0  0  0  0
   -2.7330   20.5080  -27.1148 H   0  0  0  0  0  0  0  0  0  0  0  0
   -3.5120   22.3840  -27.8720 C   0  0  0  0  0  0  0  0  0  0  0  0
   -4.5540   22.1279  -27.6300 H   0  0  0  0  0  0  0  0  0  0  0  0
   -3.2300   23.5940  -28.4530 N   0  0  0  0  0  0  0  0  0  0  0  0
   -4.3360   24.5330  -28.7190 C   0  0  0  0  0  0  0  0  0  0  0  0
   -5.2411   24.1798  -28.2032 H   0  0  0  0  0  0  0  0  0  0  0  0
   -4.0499   25.5291  -28.3503 H   0  0  0  0  0  0  0  0  0  0  0  0
   -4.6140   24.6260  -30.1980 C   0  0  0  0  0  0  0  0  0  0  0  0
   -4.2410   25.6620  -30.8120 O   0  0  0  0  0  0  0  0  0  0  0  0
   -5.3490   23.5690  -30.9380 C   0  0  0  0  0  0  0  0  0  0  0  0
   -6.7270   23.6750  -31.1980 C   0  0  0  0  0  0  0  0  0  0  0  0
   -7.2828   24.5555  -30.8435 H   0  0  0  0  0  0  0  0  0  0  0  0
   -7.3960   22.6710  -31.9030 C   0  0  0  0  0  0  0  0  0  0  0  0
   -8.4708   22.7754  -32.1127 H   0  0  0  0  0  0  0  0  0  0  0  0
   -6.7110   21.5350  -32.3440 C   0  0  0  0  0  0  0  0  0  0  0  0
   -7.4160   20.5580  -33.0630 O   0  0  0  0  0  0  0  0  0  0  0  0
   -6.9330   19.2820  -33.3890 C   0  0  0  0  0  0  0  0  0  0  0  0
   -6.0550   19.1510  -34.4730 C   0  0  0  0  0  0  0  0  0  0  0  0
   -5.7496   20.0427  -35.0401 H   0  0  0  0  0  0  0  0  0  0  0  0
   -5.5650   17.8940  -34.8380 C   0  0  0  0  0  0  0  0  0  0  0  0
   -4.8690   17.8005  -35.6846 H   0  0  0  0  0  0  0  0  0  0  0  0
   -5.9580   16.7560  -34.1290 C   0  0  0  0  0  0  0  0  0  0  0  0
   -5.5669   15.7681  -34.4138 H   0  0  0  0  0  0  0  0  0  0  0  0
   -6.8480   16.8730  -33.0580 C   0  0  0  0  0  0  0  0  0  0  0  0
   -7.1614   15.9761  -32.5036 H   0  0  0  0  0  0  0  0  0  0  0  0
   -7.3410   18.1300  -32.6900 C   0  0  0  0  0  0  0  0  0  0  0  0
   -8.0489   18.2182  -31.8527 H   0  0  0  0  0  0  0  0  0  0  0  0
   -5.3320   21.4260  -32.0960 C   0  0  0  0  0  0  0  0  0  0  0  0
   -4.7783   20.5473  -32.4584 H   0  0  0  0  0  0  0  0  0  0  0  0
   -4.6610   22.4290  -31.3910 C   0  0  0  0  0  0  0  0  0  0  0  0
   -3.5847   22.3259  -31.1885 H   0  0  0  0  0  0  0  0  0  0  0  0
  1  2  1  0
  2  3  2  0
  3  4  1  0
  4  5  1  0
  4  6  2  0
  6  7  1  0
  6  8  1  0
  8  9  1  0
  8 10  2  0
 10 11  1  0
 10 12  1  0
 12 13  1  0
 13 14  1  0
 13 15  1  0
 13 16  1  0
 16 17  2  0
 16 18  1  0
 18 19  2  0
 19 20  1  0
 19 21  1  0
 21 22  1  0
 21 23  2  0
 23 24  1  0
 24 25  1  0
 25 26  2  0
 26 27  1  0
 26 28  1  0
 28 29  1  0
 28 30  2  0
 30 31  1  0
 30 32  1  0
 32 33  1  0
 32 34  2  0
 34 35  1  0
 23 36  1  0
 36 37  1  0
 36 38  2  0
 38 39  1  0
 12  3  1  0
 38 18  1  0
 34 25  1  0
M  END
>  <UniqueID>  (39) 
36

>  <SMILES>  (39) 
[H]/N=c1\ccccn1CC(=O)c1ccc(Oc2ccccc2)cc1

>  <Energy>  (39) 
53.205710746032224

>  <Genealogy>  (39) 
[H]/N=c1\ccccn1CC(=O)c1ccc(Oc2ccccc2)cc1 (cis-trans isomerization)
[H]/N=c1\ccccn1CC(=O)c1ccc(Oc2ccccc2)cc1 (3D coordinates assigned)
[H]/N=c1\ccccn1CC(=O)c1ccc(Oc2ccccc2)cc1 (optimized conformer: 53.205710746032224 kcal/mol)

>  <smiles>  (39) 
N=c1ccccn1CC(=O)c1ccc(Oc2ccccc2)cc1

>  <score_type>  (39) 
oracle

>  <origin>  (39) 
adgpu

>  <m_score__min__energy>  (39) 
-8.7599999999999998

>  <m_primary>  (39) 
energy

$$$$
39:0
     RDKit          3D

 42 44  0  0  0  0  0  0  0  0999 V2000
   -8.3060   18.7820  -31.1370 C   0  0  0  0  0  0  0  0  0  0  0  0
   -8.1820   19.5680  -32.4610 C   0  0  0  0  0  0  0  0  0  0  0  0
   -9.5920   19.6450  -33.0880 C   0  0  0  0  0  0  0  0  0  0  0  0
   -7.6830   21.0100  -32.1930 C   0  0  0  0  0  0  0  0  0  0  0  0
   -6.2420   20.9970  -31.7870 C   0  0  0  0  0  0  0  0  0  0  0  0
   -5.3990   19.9790  -32.2010 C   0  0  0  0  0  0  0  0  0  0  0  0
   -3.8600   20.2550  -31.5670 S   0  0  0  0  0  0  0  0  0  0  0  0
   -4.2510   21.6970  -30.7970 C   0  0  0  0  0  0  0  0  0  0  0  0
   -3.3320   22.4420  -29.9860 N   0  0  0  0  0  0  0  0  0  0  0  0
   -3.3040   23.8760  -29.9450 C   0  0  0  0  0  0  0  0  0  0  0  0
   -3.8790   24.5470  -30.8450 O   0  0  0  0  0  0  0  0  0  0  0  0
   -2.5740   24.5880  -28.8840 C   0  0  0  0  0  0  0  0  0  0  0  0
   -2.6840   24.3760  -27.5220 C   0  0  0  0  0  0  0  0  0  0  0  0
   -1.8200   25.2760  -26.9350 C   0  0  0  0  0  0  0  0  0  0  0  0
   -1.2390   25.9800  -27.9700 C   0  0  0  0  0  0  0  0  0  0  0  0
   -1.7090   25.5490  -29.1170 O   0  0  0  0  0  0  0  0  0  0  0  0
   -5.6060   21.9720  -30.9960 C   0  0  0  0  0  0  0  0  0  0  0  0
   -6.3060   23.0740  -30.3840 C   0  0  0  0  0  0  0  0  0  0  0  0
   -6.8690   23.9570  -29.8920 N   0  0  0  0  0  0  0  0  0  0  0  0
   -5.8200   18.8260  -33.0890 C   0  0  0  0  0  0  0  0  0  0  0  0
   -4.9990   18.9080  -34.3960 C   0  0  0  0  0  0  0  0  0  0  0  0
   -5.4910   17.4820  -32.4100 C   0  0  0  0  0  0  0  0  0  0  0  0
   -7.2790   18.8650  -33.4150 N   0  0  0  0  0  0  0  0  0  0  0  0
   -8.1969   19.4735  -30.2885 H   0  0  0  0  0  0  0  0  0  0  0  0
   -9.2919   18.2964  -31.0898 H   0  0  0  0  0  0  0  0  0  0  0  0
   -7.5175   18.0164  -31.0898 H   0  0  0  0  0  0  0  0  0  0  0  0
  -10.3469   19.6862  -32.2889 H   0  0  0  0  0  0  0  0  0  0  0  0
   -9.6675   20.5486  -33.7107 H   0  0  0  0  0  0  0  0  0  0  0  0
   -9.7655   18.7550  -33.7107 H   0  0  0  0  0  0  0  0  0  0  0  0
   -7.7961   21.6087  -33.1089 H   0  0  0  0  0  0  0  0  0  0  0  0
   -8.2790   21.4481  -31.3788 H   0  0  0  0  0  0  0  0  0  0  0  0
   -2.5520   21.9130  -29.5370 H   0  0  0  0  0  0  0  0  0  0  0  0
   -3.3266   23.6425  -27.0131 H   0  0  0  0  0  0  0  0  0  0  0  0
   -1.6318   25.4065  -25.8591 H   0  0  0  0  0  0  0  0  0  0  0  0
   -0.4946   26.7812  -27.8515 H   0  0  0  0  0  0  0  0  0  0  0  0
   -3.9316   19.0146  -34.1524 H   0  0  0  0  0  0  0  0  0  0  0  0
   -5.1513   17.9902  -34.9829 H   0  0  0  0  0  0  0  0  0  0  0  0
   -5.3298   19.7776  -34.9829 H   0  0  0  0  0  0  0  0  0  0  0  0
   -5.5214   17.6060  -31.3174 H   0  0  0  0  0  0  0  0  0  0  0  0
   -6.2308   16.7268  -32.7140 H   0  0  0  0  0  0  0  0  0  0  0  0
   -4.4860   17.1539  -32.7140 H   0  0  0  0  0  0  0  0  0  0  0  0
   -7.4150   19.3000  -34.3590 H   0  0  0  0  0  0  0  0  0  0  0  0
  1  2  1  0
  2  3  1  0
  2  4  1  0
  4  5  1  0
  5  6  2  0
  6  7  1  0
  7  8  1  0
  8  9  1  0
  9 10  1  0
 10 11  2  0
 10 12  1  0
 12 13  2  0
 13 14  1  0
 14 15  2  0
 15 16  1  0
  8 17  2  0
 17 18  1  0
 18 19  3  0
  6 20  1  0
 20 21  1  0
 20 22  1  0
 20 23  1  0
 23  2  1  0
 17  5  1  0
 16 12  1  0
  1 24  1  0
  1 25  1  0
  1 26  1  0
  3 27  1  0
  3 28  1  0
  3 29  1  0
  4 30  1  0
  4 31  1  0
  9 32  1  0
 13 33  1  0
 14 34  1  0
 15 35  1  0
 21 36  1  0
 21 37  1  0
 21 38  1  0
 22 39  1  0
 22 40  1  0
 22 41  1  0
 23 42  1  0
M  END
>  <UniqueID>  (40) 
37

>  <SMILES>  (40) 
CC1(C)Cc2c(sc(NC(=O)c3ccco3)c2C#N)C(C)(C)N1

>  <Energy>  (40) 
103.83394296622845

>  <Genealogy>  (40) 
CC1(C)Cc2c(sc(NC(=O)c3ccco3)c2C#N)C(C)(C)N1 (3D coordinates assigned)
CC1(C)Cc2c(sc(NC(=O)c3ccco3)c2C#N)C(C)(C)N1 (nonaromatic ring conformer: 103.83394296622845 kcal/mol)

>  <smiles>  (40) 
CC1(C)Cc2c(sc(NC(=O)c3ccco3)c2C#N)C(C)(C)N1

>  <score_type>  (40) 
oracle

>  <origin>  (40) 
adgpu

>  <m_score__min__energy>  (40) 
-9.3800000000000008

>  <m_primary>  (40) 
energy

$$$$
40:0
     RDKit          3D

 43 45  0  0  0  0  0  0  0  0999 V2000
   -6.4670   25.6600  -29.5900 C   0  0  0  0  0  0  0  0  0  0  0  0
   -6.2650   24.4990  -30.5230 C   0  0  0  0  0  0  0  0  0  0  0  0
   -7.3830   23.7800  -30.9770 C   0  0  0  0  0  0  0  0  0  0  0  0
   -7.2380   22.7020  -31.8640 C   0  0  0  0  0  0  0  0  0  0  0  0
   -8.4100   21.9900  -32.3000 N   0  0  0  0  0  0  0  0  0  0  0  0
   -8.6860   20.3040  -31.9990 S   0  0  0  0  0  0  0  0  0  0  0  0
   -9.8730   19.8420  -32.7970 O   0  0  0  0  0  0  0  0  0  0  0  0
   -8.9670   20.1030  -30.5360 O   0  0  0  0  0  0  0  0  0  0  0  0
   -7.2640   19.3750  -32.4340 C   0  0  0  0  0  0  0  0  0  0  0  0
   -6.5580   18.5060  -31.6270 C   0  0  0  0  0  0  0  0  0  0  0  0
   -5.5320   17.9890  -32.3340 N   0  0  0  0  0  0  0  0  0  0  0  0
   -5.5900   18.5010  -33.5550 N   0  0  0  0  0  0  0  0  0  0  0  0
   -4.6080   18.2310  -34.5950 C   0  0  0  0  0  0  0  0  0  0  0  0
   -6.6220   19.3600  -33.6500 C   0  0  0  0  0  0  0  0  0  0  0  0
   -5.9500   22.3540  -32.3080 C   0  0  0  0  0  0  0  0  0  0  0  0
   -4.8320   23.0510  -31.8470 C   0  0  0  0  0  0  0  0  0  0  0  0
   -4.9740   24.1010  -30.9360 C   0  0  0  0  0  0  0  0  0  0  0  0
   -3.8220   24.7510  -30.4780 O   0  0  0  0  0  0  0  0  0  0  0  0
   -3.0740   24.3420  -29.3640 C   0  0  0  0  0  0  0  0  0  0  0  0
   -3.3780   23.1690  -28.6520 C   0  0  0  0  0  0  0  0  0  0  0  0
   -2.5990   22.8110  -27.5510 C   0  0  0  0  0  0  0  0  0  0  0  0
   -1.5270   23.6230  -27.1520 C   0  0  0  0  0  0  0  0  0  0  0  0
   -0.6490   23.2200  -25.9950 C   0  0  0  0  0  0  0  0  0  0  0  0
   -0.9320   21.9250  -25.5930 F   0  0  0  0  0  0  0  0  0  0  0  0
   -0.8710   24.0790  -24.9340 F   0  0  0  0  0  0  0  0  0  0  0  0
    0.6870   23.2810  -26.3520 F   0  0  0  0  0  0  0  0  0  0  0  0
   -1.2340   24.7640  -27.9140 C   0  0  0  0  0  0  0  0  0  0  0  0
   -2.0080   25.0930  -28.9830 N   0  0  0  0  0  0  0  0  0  0  0  0
   -6.4059   25.3090  -28.5493 H   0  0  0  0  0  0  0  0  0  0  0  0
   -5.6866   26.4143  -29.7689 H   0  0  0  0  0  0  0  0  0  0  0  0
   -7.4563   26.1064  -29.7689 H   0  0  0  0  0  0  0  0  0  0  0  0
   -8.3876   24.0662  -30.6321 H   0  0  0  0  0  0  0  0  0  0  0  0
   -9.1910   22.5230  -32.7450 H   0  0  0  0  0  0  0  0  0  0  0  0
   -6.7936   18.2729  -30.5781 H   0  0  0  0  0  0  0  0  0  0  0  0
   -3.6462   17.9666  -34.1314 H   0  0  0  0  0  0  0  0  0  0  0  0
   -4.9560   17.3952  -35.2198 H   0  0  0  0  0  0  0  0  0  0  0  0
   -4.4798   19.1272  -35.2198 H   0  0  0  0  0  0  0  0  0  0  0  0
   -6.9012   19.9442  -34.5393 H   0  0  0  0  0  0  0  0  0  0  0  0
   -5.8227   21.5277  -33.0228 H   0  0  0  0  0  0  0  0  0  0  0  0
   -3.8299   22.7712  -32.2041 H   0  0  0  0  0  0  0  0  0  0  0  0
   -4.2242   22.5375  -28.9605 H   0  0  0  0  0  0  0  0  0  0  0  0
   -2.8261   21.8897  -26.9946 H   0  0  0  0  0  0  0  0  0  0  0  0
   -0.3742   25.3955  -27.6456 H   0  0  0  0  0  0  0  0  0  0  0  0
  1  2  1  0
  2  3  2  0
  3  4  1  0
  4  5  1  0
  5  6  1  0
  6  7  2  0
  6  8  2  0
  6  9  1  0
  9 10  1  0
 10 11  2  0
 11 12  1  0
 12 13  1  0
 12 14  1  0
  4 15  2  0
 15 16  1  0
 16 17  2  0
 17 18  1  0
 18 19  1  0
 19 20  2  0
 20 21  1  0
 21 22  2  0
 22 23  1  0
 23 24  1  0
 23 25  1  0
 23 26  1  0
 22 27  1  0
 27 28  2  0
 17  2  1  0
 28 19  1  0
 14  9  2  0
  1 29  1  0
  1 30  1  0
  1 31  1  0
  3 32  1  0
  5 33  1  0
 10 34  1  0
 13 35  1  0
 13 36  1  0
 13 37  1  0
 14 38  1  0
 15 39  1  0
 16 40  1  0
 20 41  1  0
 21 42  1  0
 27 43  1  0
M  END
>  <UniqueID>  (41) 
38

>  <SMILES>  (41) 
Cc1cc(NS(=O)(=O)c2cnn(C)c2)ccc1Oc1ccc(C(F)(F)F)cn1

>  <Energy>  (41) 
86.1141304720951

>  <Genealogy>  (41) 
Cc1cc(NS(=O)(=O)c2cnn(C)c2)ccc1Oc1ccc(C(F)(F)F)cn1 (3D coordinates assigned)
Cc1cc(NS(=O)(=O)c2cnn(C)c2)ccc1Oc1ccc(C(F)(F)F)cn1 (optimized conformer: 86.1141304720951 kcal/mol)

>  <smiles>  (41) 
Cc1cc(NS(=O)(=O)c2cnn(C)c2)ccc1Oc1ccc(C(F)(F)F)cn1

>  <score_type>  (41) 
oracle

>  <origin>  (41) 
adgpu

>  <m_score__min__energy>  (41) 
-8.7400000000000002

>  <m_primary>  (41) 
energy

$$$$
41:0
     RDKit          3D

 44 46  0  0  0  0  0  0  0  0999 V2000
   -0.8320   24.9420  -28.2360 C   0  0  0  0  0  0  0  0  0  0  0  0
   -2.2740   24.6950  -28.5290 C   0  0  0  0  0  0  0  0  0  0  0  0
   -3.2130   24.2300  -27.6290 C   0  0  0  0  0  0  0  0  0  0  0  0
   -4.4040   24.1790  -28.3250 C   0  0  0  0  0  0  0  0  0  0  0  0
   -4.1110   24.6280  -29.5980 C   0  0  0  0  0  0  0  0  0  0  0  0
   -5.0790   24.7270  -30.7310 C   0  0  0  0  0  0  0  0  0  0  0  0
   -5.3300   23.3940  -31.2700 N   0  0  0  0  0  0  0  0  0  0  0  0
   -6.4140   23.0490  -32.1390 C   0  0  0  0  0  0  0  0  0  0  0  0
   -6.7070   23.8310  -33.0820 O   0  0  0  0  0  0  0  0  0  0  0  0
   -7.1880   21.7980  -31.9780 C   0  0  0  0  0  0  0  0  0  0  0  0
   -8.5600   21.9010  -31.6950 C   0  0  0  0  0  0  0  0  0  0  0  0
   -9.3360   20.7560  -31.5140 C   0  0  0  0  0  0  0  0  0  0  0  0
   -8.7550   19.4940  -31.6200 C   0  0  0  0  0  0  0  0  0  0  0  0
   -7.3990   19.3700  -31.9220 C   0  0  0  0  0  0  0  0  0  0  0  0
   -6.5980   20.5110  -32.1180 C   0  0  0  0  0  0  0  0  0  0  0  0
   -5.1690   20.3210  -32.4830 C   0  0  0  0  0  0  0  0  0  0  0  0
   -4.8000   19.4660  -33.5340 C   0  0  0  0  0  0  0  0  0  0  0  0
   -3.4550   19.3120  -33.8790 C   0  0  0  0  0  0  0  0  0  0  0  0
   -2.4630   19.9880  -33.1640 C   0  0  0  0  0  0  0  0  0  0  0  0
   -2.8110   20.8170  -32.0880 C   0  0  0  0  0  0  0  0  0  0  0  0
   -1.7460   21.5570  -31.3220 C   0  0  0  0  0  0  0  0  0  0  0  0
   -2.2840   22.7840  -30.7370 N   0  0  0  0  0  0  0  0  0  0  0  0
   -4.1650   20.9890  -31.7600 C   0  0  0  0  0  0  0  0  0  0  0  0
   -2.8350   24.9230  -29.6920 O   0  0  0  0  0  0  0  0  0  0  0  0
   -0.6784   24.9683  -27.1471 H   0  0  0  0  0  0  0  0  0  0  0  0
   -0.2256   24.1346  -28.6724 H   0  0  0  0  0  0  0  0  0  0  0  0
   -0.5289   25.9051  -28.6724 H   0  0  0  0  0  0  0  0  0  0  0  0
   -3.0464   23.9571  -26.5765 H   0  0  0  0  0  0  0  0  0  0  0  0
   -5.3823   23.8495  -27.9451 H   0  0  0  0  0  0  0  0  0  0  0  0
   -6.0232   25.1612  -30.3705 H   0  0  0  0  0  0  0  0  0  0  0  0
   -4.6591   25.3696  -31.5189 H   0  0  0  0  0  0  0  0  0  0  0  0
   -9.0269   22.8938  -31.6154 H   0  0  0  0  0  0  0  0  0  0  0  0
  -10.4083   20.8496  -31.2872 H   0  0  0  0  0  0  0  0  0  0  0  0
   -9.3672   18.5933  -31.4651 H   0  0  0  0  0  0  0  0  0  0  0  0
   -6.9503   18.3693  -32.0080 H   0  0  0  0  0  0  0  0  0  0  0  0
   -5.5738   18.9147  -34.0884 H   0  0  0  0  0  0  0  0  0  0  0  0
   -3.1759   18.6560  -34.7167 H   0  0  0  0  0  0  0  0  0  0  0  0
   -1.4064   19.8696  -33.4459 H   0  0  0  0  0  0  0  0  0  0  0  0
   -1.3658   20.9105  -30.5173 H   0  0  0  0  0  0  0  0  0  0  0  0
   -0.9346   21.8236  -32.0152 H   0  0  0  0  0  0  0  0  0  0  0  0
   -3.1730   23.0450  -31.2210 H   0  0  0  0  0  0  0  0  0  0  0  0
   -1.5920   23.5570  -30.8660 H   0  0  0  0  0  0  0  0  0  0  0  0
   -2.4600   22.6520  -29.7150 H   0  0  0  0  0  0  0  0  0  0  0  0
   -4.4435   21.6533  -30.9287 H   0  0  0  0  0  0  0  0  0  0  0  0
  1  2  1  0
  2  3  2  0
  3  4  1  0
  4  5  2  0
  5  6  1  0
  6  7  1  0
  7  8  1  0
  8  9  2  0
  8 10  1  0
 10 11  2  0
 11 12  1  0
 12 13  2  0
 13 14  1  0
 14 15  2  0
 15 16  1  0
 16 17  2  0
 17 18  1  0
 18 19  2  0
 19 20  1  0
 20 21  1  0
 21 22  1  0
 20 23  2  0
  5 24  1  0
 24  2  1  0
 15 10  1  0
 23 16  1  0
  1 25  1  0
  1 26  1  0
  1 27  1  0
  3 28  1  0
  4 29  1  0
  6 30  1  0
  6 31  1  0
 11 32  1  0
 12 33  1  0
 13 34  1  0
 14 35  1  0
 17 36  1  0
 18 37  1  0
 19 38  1  0
 21 39  1  0
 21 40  1  0
 22 41  1  0
 22 42  1  0
 22 43  1  0
 23 44  1  0
M  CHG  2   7  -1  22   1
M  END
>  <UniqueID>  (42) 
39

>  <SMILES>  (42) 
Cc1ccc(C[N-]C(=O)c2ccccc2-c2cccc(C[NH3+])c2)o1

>  <Energy>  (42) 
76.50838483808616

>  <Genealogy>  (42) 
Cc1ccc(C[N-]C(=O)c2ccccc2-c2cccc(C[NH3+])c2)o1 (protonated)
Cc1ccc(C[N-]C(=O)c2ccccc2-c2cccc(C[NH3+])c2)o1 (3D coordinates assigned)
Cc1ccc(C[N-]C(=O)c2ccccc2-c2cccc(C[NH3+])c2)o1 (optimized conformer: 76.50838483808616 kcal/mol)

>  <smiles>  (42) 
Cc1ccc(CNC(=O)c2ccccc2-c2cccc(CN)c2)o1

>  <score_type>  (42) 
oracle

>  <origin>  (42) 
adgpu

>  <m_score__min__energy>  (42) 
-10.289999999999999

>  <m_primary>  (42) 
energy

$$$$
42:0
     RDKit          3D

 37 39  0  0  0  0  0  0  0  0999 V2000
   -3.9960   24.7310  -26.6030 C   0  0  0  0  0  0  0  0  0  0  0  0
   -2.6140   25.3080  -26.4510 C   0  0  0  0  0  0  0  0  0  0  0  0
   -2.3150   26.0840  -25.3180 C   0  0  0  0  0  0  0  0  0  0  0  0
   -1.0810   26.6270  -25.1610 N   0  0  0  0  0  0  0  0  0  0  0  0
   -0.0990   26.4470  -26.0800 C   0  0  0  0  0  0  0  0  0  0  0  0
   -0.3450   25.6950  -27.2280 C   0  0  0  0  0  0  0  0  0  0  0  0
   -1.6090   25.1220  -27.4310 C   0  0  0  0  0  0  0  0  0  0  0  0
   -1.9020   24.1740  -28.8970 S   0  0  0  0  0  0  0  0  0  0  0  0
   -2.3890   22.8040  -28.5190 O   0  0  0  0  0  0  0  0  0  0  0  0
   -0.6230   24.0730  -29.6810 O   0  0  0  0  0  0  0  0  0  0  0  0
   -3.1080   24.9490  -29.8760 N   0  0  0  0  0  0  0  0  0  0  0  0
   -4.2350   24.2950  -30.4730 C   0  0  0  0  0  0  0  0  0  0  0  0
   -5.5350   24.8250  -30.3970 C   0  0  0  0  0  0  0  0  0  0  0  0
   -6.6050   24.1530  -30.9930 C   0  0  0  0  0  0  0  0  0  0  0  0
   -6.4000   22.9420  -31.6620 C   0  0  0  0  0  0  0  0  0  0  0  0
   -7.4980   22.3060  -32.2610 O   0  0  0  0  0  0  0  0  0  0  0  0
   -7.7300   20.9240  -32.2750 C   0  0  0  0  0  0  0  0  0  0  0  0
   -8.7490   20.3200  -31.5230 C   0  0  0  0  0  0  0  0  0  0  0  0
   -8.9410   18.9780  -31.5930 N   0  0  0  0  0  0  0  0  0  0  0  0
   -8.1600   18.2010  -32.3890 C   0  0  0  0  0  0  0  0  0  0  0  0
   -7.1800   18.7670  -33.1400 N   0  0  0  0  0  0  0  0  0  0  0  0
   -6.9570   20.1070  -33.1020 C   0  0  0  0  0  0  0  0  0  0  0  0
   -5.0970   22.4210  -31.7560 C   0  0  0  0  0  0  0  0  0  0  0  0
   -4.0260   23.0930  -31.1590 C   0  0  0  0  0  0  0  0  0  0  0  0
   -4.4293   24.5501  -25.6082 H   0  0  0  0  0  0  0  0  0  0  0  0
   -4.6304   25.4394  -27.1559 H   0  0  0  0  0  0  0  0  0  0  0  0
   -3.9383   23.7818  -27.1559 H   0  0  0  0  0  0  0  0  0  0  0  0
   -3.0869   26.2526  -24.5527 H   0  0  0  0  0  0  0  0  0  0  0  0
    0.8926   26.8951  -25.9190 H   0  0  0  0  0  0  0  0  0  0  0  0
    0.4511   25.5513  -27.9734 H   0  0  0  0  0  0  0  0  0  0  0  0
   -5.7103   25.7724  -29.8662 H   0  0  0  0  0  0  0  0  0  0  0  0
   -7.6172   24.5799  -30.9356 H   0  0  0  0  0  0  0  0  0  0  0  0
   -9.3927   20.9343  -30.8763 H   0  0  0  0  0  0  0  0  0  0  0  0
   -8.3216   17.1135  -32.4250 H   0  0  0  0  0  0  0  0  0  0  0  0
   -6.1652   20.5491  -33.7246 H   0  0  0  0  0  0  0  0  0  0  0  0
   -4.9199   21.4820  -32.3009 H   0  0  0  0  0  0  0  0  0  0  0  0
   -3.0114   22.6738  -31.2290 H   0  0  0  0  0  0  0  0  0  0  0  0
  1  2  1  0
  2  3  2  0
  3  4  1  0
  4  5  2  0
  5  6  1  0
  6  7  2  0
  7  8  1  0
  8  9  2  0
  8 10  2  0
  8 11  1  0
 11 12  1  0
 12 13  2  0
 13 14  1  0
 14 15  2  0
 15 16  1  0
 16 17  1  0
 17 18  2  0
 18 19  1  0
 19 20  2  0
 20 21  1  0
 21 22  2  0
 15 23  1  0
 23 24  2  0
  7  2  1  0
 24 12  1  0
 22 17  1  0
  1 25  1  0
  1 26  1  0
  1 27  1  0
  3 28  1  0
  5 29  1  0
  6 30  1  0
 13 31  1  0
 14 32  1  0
 18 33  1  0
 20 34  1  0
 22 35  1  0
 23 36  1  0
 24 37  1  0
M  CHG  1  11  -1
M  END
>  <UniqueID>  (43) 
40

>  <SMILES>  (43) 
Cc1cnccc1S(=O)(=O)[N-]c1ccc(Oc2cncnc2)cc1

>  <Energy>  (43) 
53.97226930569015

>  <Genealogy>  (43) 
Cc1cnccc1S(=O)(=O)[N-]c1ccc(Oc2cncnc2)cc1 (protonated)
Cc1cnccc1S(=O)(=O)[N-]c1ccc(Oc2cncnc2)cc1 (3D coordinates assigned)
Cc1cnccc1S(=O)(=O)[N-]c1ccc(Oc2cncnc2)cc1 (optimized conformer: 53.97226930569015 kcal/mol)

>  <smiles>  (43) 
Cc1cnccc1S(=O)(=O)Nc1ccc(Oc2cncnc2)cc1

>  <score_type>  (43) 
oracle

>  <origin>  (43) 
adgpu

>  <m_score__min__energy>  (43) 
-9.0999999999999996

>  <m_primary>  (43) 
energy

$$$$
43:0
     RDKit          3D

 40 42  0  0  0  0  0  0  0  0999 V2000
   -3.1320   24.9130  -26.5680 C   0  0  0  0  0  0  0  0  0  0  0  0
   -1.8560   24.1550  -26.9130 C   0  0  0  0  0  0  0  0  0  0  0  0
   -1.3800   24.4370  -28.6110 S   0  0  0  0  0  0  0  0  0  0  0  0
    0.0830   24.1360  -28.7750 O   0  0  0  0  0  0  0  0  0  0  0  0
   -1.6150   25.8790  -28.9680 O   0  0  0  0  0  0  0  0  0  0  0  0
   -2.3130   23.3930  -29.6790 C   0  0  0  0  0  0  0  0  0  0  0  0
   -3.5130   23.8440  -30.2440 C   0  0  0  0  0  0  0  0  0  0  0  0
   -4.2590   23.0030  -31.0750 C   0  0  0  0  0  0  0  0  0  0  0  0
   -3.8220   21.6930  -31.3400 C   0  0  0  0  0  0  0  0  0  0  0  0
   -4.5910   20.7970  -32.2300 C   0  0  0  0  0  0  0  0  0  0  0  0
   -3.9300   19.8590  -32.9740 N   0  0  0  0  0  0  0  0  0  0  0  0
   -4.5750   18.9980  -33.8240 C   0  0  0  0  0  0  0  0  0  0  0  0
   -3.7880   17.9880  -34.5960 C   0  0  0  0  0  0  0  0  0  0  0  0
   -5.9770   19.0440  -33.9440 C   0  0  0  0  0  0  0  0  0  0  0  0
   -6.6520   19.9910  -33.1800 C   0  0  0  0  0  0  0  0  0  0  0  0
   -7.9810   20.1700  -33.1000 N   0  0  0  0  0  0  0  0  0  0  0  0
   -8.1620   21.1570  -32.1930 C   0  0  0  0  0  0  0  0  0  0  0  0
   -9.5030   21.6170  -31.7270 C   0  0  0  0  0  0  0  0  0  0  0  0
   -6.9440   21.5950  -31.6810 C   0  0  0  0  0  0  0  0  0  0  0  0
   -5.9870   20.8460  -32.3420 C   0  0  0  0  0  0  0  0  0  0  0  0
   -2.6110   21.2530  -30.7830 C   0  0  0  0  0  0  0  0  0  0  0  0
   -1.8660   22.0940  -29.9510 C   0  0  0  0  0  0  0  0  0  0  0  0
   -3.2372   24.9755  -25.4748 H   0  0  0  0  0  0  0  0  0  0  0  0
   -3.0813   25.9275  -26.9901 H   0  0  0  0  0  0  0  0  0  0  0  0
   -3.9987   24.3832  -26.9901 H   0  0  0  0  0  0  0  0  0  0  0  0
   -1.0458   24.4955  -26.2515 H   0  0  0  0  0  0  0  0  0  0  0  0
   -2.0407   23.0793  -26.7759 H   0  0  0  0  0  0  0  0  0  0  0  0
   -3.8694   24.8631  -30.0331 H   0  0  0  0  0  0  0  0  0  0  0  0
   -5.1941   23.3685  -31.5246 H   0  0  0  0  0  0  0  0  0  0  0  0
   -3.2659   17.3179  -33.8972 H   0  0  0  0  0  0  0  0  0  0  0  0
   -4.4680   17.3995  -35.2294 H   0  0  0  0  0  0  0  0  0  0  0  0
   -3.0511   18.5035  -35.2294 H   0  0  0  0  0  0  0  0  0  0  0  0
   -6.5168   18.3591  -34.6145 H   0  0  0  0  0  0  0  0  0  0  0  0
   -8.7210   19.6350  -33.6080 H   0  0  0  0  0  0  0  0  0  0  0  0
   -9.5262   21.6249  -30.6273 H   0  0  0  0  0  0  0  0  0  0  0  0
   -9.6942   22.6321  -32.1051 H   0  0  0  0  0  0  0  0  0  0  0  0
  -10.2771   20.9330  -32.1051 H   0  0  0  0  0  0  0  0  0  0  0  0
   -6.7784   22.3687  -30.9168 H   0  0  0  0  0  0  0  0  0  0  0  0
   -2.2455   20.2390  -31.0028 H   0  0  0  0  0  0  0  0  0  0  0  0
   -0.9254   21.7341  -29.5085 H   0  0  0  0  0  0  0  0  0  0  0  0
  1  2  1  0
  2  3  1  0
  3  4  2  0
  3  5  2  0
  3  6  1  0
  6  7  2  0
  7  8  1  0
  8  9  2  0
  9 10  1  0
 10 11  2  0
 11 12  1  0
 12 13  1  0
 12 14  2  0
 14 15  1  0
 15 16  1  0
 16 17  1  0
 17 18  1  0
 17 19  2  0
 19 20  1  0
  9 21  1  0
 21 22  2  0
 22  6  1  0
 20 10  1  0
 20 15  2  0
  1 23  1  0
  1 24  1  0
  1 25  1  0
  2 26  1  0
  2 27  1  0
  7 28  1  0
  8 29  1  0
 13 30  1  0
 13 31  1  0
 13 32  1  0
 14 33  1  0
 16 34  1  0
 18 35  1  0
 18 36  1  0
 18 37  1  0
 19 38  1  0
 21 39  1  0
 22 40  1  0
M  END
>  <UniqueID>  (44) 
41

>  <SMILES>  (44) 
CCS(=O)(=O)c1ccc(-c2nc(C)cc3[nH]c(C)cc23)cc1

>  <Energy>  (44) 
72.42525169186995

>  <Genealogy>  (44) 
CCS(=O)(=O)c1ccc(-c2nc(C)cc3[nH]c(C)cc23)cc1 (3D coordinates assigned)
CCS(=O)(=O)c1ccc(-c2nc(C)cc3[nH]c(C)cc23)cc1 (optimized conformer: 72.42525169186995 kcal/mol)

>  <smiles>  (44) 
CCS(=O)(=O)c1ccc(-c2nc(C)cc3[nH]c(C)cc23)cc1

>  <score_type>  (44) 
oracle

>  <origin>  (44) 
adgpu

>  <m_score__min__energy>  (44) 
-8.7300000000000004

>  <m_primary>  (44) 
energy

$$$$
44:0
     RDKit          3D

 45 48  0  0  0  0  0  0  0  0999 V2000
    0.4983   21.6101  -31.7670 H   0  0  0  0  0  0  0  0  0  0  0  0
   -0.4560   21.5740  -31.2210 C   0  0  0  0  0  0  0  0  0  0  0  0
   -0.8700   22.6790  -30.4690 C   0  0  0  0  0  0  0  0  0  0  0  0
   -0.2344   23.5750  -30.4130 H   0  0  0  0  0  0  0  0  0  0  0  0
   -2.0940   22.6450  -29.7870 C   0  0  0  0  0  0  0  0  0  0  0  0
   -2.6310   24.0230  -28.8350 S   0  0  0  0  0  0  0  0  0  0  0  0
   -2.0100   25.2950  -29.3360 O   0  0  0  0  0  0  0  0  0  0  0  0
   -2.2250   23.8110  -27.4050 O   0  0  0  0  0  0  0  0  0  0  0  0
   -4.3550   24.1620  -28.9260 N   0  0  0  0  0  0  0  0  0  0  0  0
   -5.0210   24.0030  -30.0250 C   0  0  0  0  0  0  0  0  0  0  0  0
   -4.4700   23.7130  -31.2200 N   0  0  0  0  0  0  0  0  0  0  0  0
   -5.4570   23.6270  -32.0630 O   0  0  0  0  0  0  0  0  0  0  0  0
   -6.6080   23.8530  -31.4700 C   0  0  0  0  0  0  0  0  0  0  0  0
   -7.9330   23.7950  -32.1520 C   0  0  0  0  0  0  0  0  0  0  0  0
   -8.7326   23.7600  -31.3974 H   0  0  0  0  0  0  0  0  0  0  0  0
   -8.0611   24.6884  -32.7808 H   0  0  0  0  0  0  0  0  0  0  0  0
   -7.9826   22.8938  -32.7808 H   0  0  0  0  0  0  0  0  0  0  0  0
   -6.3890   24.1010  -30.1320 C   0  0  0  0  0  0  0  0  0  0  0  0
   -7.1252   24.3223  -29.3452 H   0  0  0  0  0  0  0  0  0  0  0  0
   -2.9070   21.5090  -29.8780 C   0  0  0  0  0  0  0  0  0  0  0  0
   -3.8746   21.4840  -29.3554 H   0  0  0  0  0  0  0  0  0  0  0  0
   -2.4930   20.4060  -30.6310 C   0  0  0  0  0  0  0  0  0  0  0  0
   -3.1433   19.5227  -30.7133 H   0  0  0  0  0  0  0  0  0  0  0  0
   -1.2500   20.4230  -31.2820 C   0  0  0  0  0  0  0  0  0  0  0  0
   -0.7970   19.3010  -32.0470 N   0  0  0  0  0  0  0  0  0  0  0  0
   -1.1880   18.9950  -33.3930 C   0  0  0  0  0  0  0  0  0  0  0  0
   -0.3360   19.1130  -34.3140 O   0  0  0  0  0  0  0  0  0  0  0  0
   -2.5520   18.4530  -33.7270 C   0  0  0  0  0  0  0  0  0  0  0  0
   -2.5698   18.1464  -34.7833 H   0  0  0  0  0  0  0  0  0  0  0  0
   -2.7589   17.5913  -33.0754 H   0  0  0  0  0  0  0  0  0  0  0  0
   -3.6070   19.4930  -33.4990 C   0  0  0  0  0  0  0  0  0  0  0  0
   -3.4280   20.8750  -33.4800 C   0  0  0  0  0  0  0  0  0  0  0  0
   -2.4741   21.3869  -33.6751 H   0  0  0  0  0  0  0  0  0  0  0  0
   -4.5920   21.4980  -33.1880 N   0  0  0  0  0  0  0  0  0  0  0  0
   -4.7450   22.5260  -33.1090 H   0  0  0  0  0  0  0  0  0  0  0  0
   -5.5020   20.5230  -33.0190 C   0  0  0  0  0  0  0  0  0  0  0  0
   -6.8510   20.6730  -32.7010 C   0  0  0  0  0  0  0  0  0  0  0  0
   -7.2938   21.6703  -32.5623 H   0  0  0  0  0  0  0  0  0  0  0  0
   -7.6290   19.5070  -32.5630 C   0  0  0  0  0  0  0  0  0  0  0  0
   -8.6958   19.5885  -32.3074 H   0  0  0  0  0  0  0  0  0  0  0  0
   -7.0470   18.2330  -32.7510 C   0  0  0  0  0  0  0  0  0  0  0  0
   -7.6652   17.3292  -32.6463 H   0  0  0  0  0  0  0  0  0  0  0  0
   -5.6830   18.1130  -33.0710 C   0  0  0  0  0  0  0  0  0  0  0  0
   -5.2181   17.1267  -33.2164 H   0  0  0  0  0  0  0  0  0  0  0  0
   -4.9390   19.2860  -33.1980 C   0  0  0  0  0  0  0  0  0  0  0  0
  1  2  1  0
  2  3  2  0
  3  4  1  0
  3  5  1  0
  5  6  1  0
  6  7  2  0
  6  8  2  0
  6  9  1  0
  9 10  2  0
 10 11  1  0
 11 12  1  0
 12 13  1  0
 13 14  1  0
 14 15  1  0
 14 16  1  0
 14 17  1  0
 13 18  2  0
 18 19  1  0
  5 20  2  0
 20 21  1  0
 20 22  1  0
 22 23  1  0
 22 24  2  0
 24 25  1  0
 25 26  1  0
 26 27  2  0
 26 28  1  0
 28 29  1  0
 28 30  1  0
 28 31  1  0
 31 32  2  0
 32 33  1  0
 32 34  1  0
 34 35  1  0
 34 36  1  0
 36 37  2  0
 37 38  1  0
 37 39  1  0
 39 40  1  0
 39 41  2  0
 41 42  1  0
 41 43  1  0
 43 44  1  0
 43 45  2  0
 24  2  1  0
 45 31  1  0
 18 10  1  0
 45 36  1  0
M  CHG  2  11  -1  25  -1
M  END
>  <UniqueID>  (45) 
42

>  <SMILES>  (45) 
Cc1c/c(=N/S(=O)(=O)c2ccc([N-]C(=O)Cc3c[nH]c4ccccc34)cc2)[n-]o1

>  <Energy>  (45) 
117.12078767002954

>  <Genealogy>  (45) 
Cc1cc(=NS(=O)(=O)c2ccc([N-]C(=O)Cc3c[nH]c4ccccc34)cc2)[n-]o1 (protonated)
Cc1c/c(=N/S(=O)(=O)c2ccc([N-]C(=O)Cc3c[nH]c4ccccc34)cc2)[n-]o1 (cis-trans isomerization)
Cc1c/c(=N/S(=O)(=O)c2ccc([N-]C(=O)Cc3c[nH]c4ccccc34)cc2)[n-]o1 (3D coordinates assigned)
Cc1c/c(=N/S(=O)(=O)c2ccc([N-]C(=O)Cc3c[nH]c4ccccc34)cc2)[n-]o1 (optimized conformer: 117.12078767002954 kcal/mol)

>  <smiles>  (45) 
Cc1cc(=NS(=O)(=O)c2ccc(NC(=O)Cc3c[nH]c4ccccc34)cc2)[nH]o1

>  <score_type>  (45) 
oracle

>  <origin>  (45) 
adgpu

>  <m_score__min__energy>  (45) 
-11.77

>  <m_primary>  (45) 
energy

$$$$
45:0
     RDKit          3D

 50 53  0  0  0  0  0  0  0  0999 V2000
   -3.5496   22.0840  -28.7278 H   0  0  0  0  0  0  0  0  0  0  0  0
   -4.2690   22.7110  -29.2750 C   0  0  0  0  0  0  0  0  0  0  0  0
   -5.1470   22.1250  -30.1890 C   0  0  0  0  0  0  0  0  0  0  0  0
   -5.0998   21.0412  -30.3710 H   0  0  0  0  0  0  0  0  0  0  0  0
   -6.0920   22.9070  -30.8800 C   0  0  0  0  0  0  0  0  0  0  0  0
   -6.9940   22.2900  -31.8290 N   0  0  0  0  0  0  0  0  0  0  0  0
   -6.6320   21.0470  -32.4540 C   0  0  0  0  0  0  0  0  0  0  0  0
   -5.3600   20.9030  -33.0240 C   0  0  0  0  0  0  0  0  0  0  0  0
   -4.6521   21.7444  -32.9936 H   0  0  0  0  0  0  0  0  0  0  0  0
   -4.9780   19.6940  -33.6350 C   0  0  0  0  0  0  0  0  0  0  0  0
   -3.7080   19.5250  -34.2140 O   0  0  0  0  0  0  0  0  0  0  0  0
   -2.4810   19.8870  -33.5890 C   0  0  0  0  0  0  0  0  0  0  0  0
   -2.6017   19.8514  -32.4962 H   0  0  0  0  0  0  0  0  0  0  0  0
   -1.6925   19.1832  -33.8940 H   0  0  0  0  0  0  0  0  0  0  0  0
   -2.2008   20.9061  -33.8940 H   0  0  0  0  0  0  0  0  0  0  0  0
   -5.8900   18.6220  -33.6700 C   0  0  0  0  0  0  0  0  0  0  0  0
   -5.5320   17.3780  -34.2840 N   0  0  0  0  0  0  0  0  0  0  0  0
   -4.5860   17.2460  -34.7070 H   0  0  0  0  0  0  0  0  0  0  0  0
   -6.2010   16.5780  -34.3240 H   0  0  0  0  0  0  0  0  0  0  0  0
   -7.1580   18.7670  -33.0910 C   0  0  0  0  0  0  0  0  0  0  0  0
   -7.8664   17.9258  -33.1149 H   0  0  0  0  0  0  0  0  0  0  0  0
   -7.5320   19.9680  -32.4840 C   0  0  0  0  0  0  0  0  0  0  0  0
   -9.1130   20.0840  -31.7230 Cl  0  0  0  0  0  0  0  0  0  0  0  0
   -8.1620   23.0110  -32.3440 C   0  0  0  0  0  0  0  0  0  0  0  0
   -8.7641   23.3827  -31.5018 H   0  0  0  0  0  0  0  0  0  0  0  0
   -7.8273   23.8599  -32.9583 H   0  0  0  0  0  0  0  0  0  0  0  0
   -8.7709   22.3314  -32.9583 H   0  0  0  0  0  0  0  0  0  0  0  0
   -6.1430   24.2910  -30.6180 C   0  0  0  0  0  0  0  0  0  0  0  0
   -6.8825   24.9176  -31.1381 H   0  0  0  0  0  0  0  0  0  0  0  0
   -5.2620   24.8740  -29.7030 C   0  0  0  0  0  0  0  0  0  0  0  0
   -5.3260   25.9521  -29.4943 H   0  0  0  0  0  0  0  0  0  0  0  0
   -4.3000   24.0970  -29.0510 C   0  0  0  0  0  0  0  0  0  0  0  0
   -3.4440   24.7140  -28.0790 N   0  0  0  0  0  0  0  0  0  0  0  0
   -2.1520   24.5650  -27.9390 C   0  0  0  0  0  0  0  0  0  0  0  0
   -1.3800   23.8420  -28.8710 C   0  0  0  0  0  0  0  0  0  0  0  0
   -1.8647   23.3765  -29.7418 H   0  0  0  0  0  0  0  0  0  0  0  0
   -0.0040   23.7160  -28.6910 C   0  0  0  0  0  0  0  0  0  0  0  0
    0.5905   23.1415  -29.4166 H   0  0  0  0  0  0  0  0  0  0  0  0
    0.6090   24.2960  -27.6280 N   0  0  0  0  0  0  0  0  0  0  0  0
    1.6440   24.1810  -27.5290 H   0  0  0  0  0  0  0  0  0  0  0  0
   -0.0900   25.0250  -26.7120 C   0  0  0  0  0  0  0  0  0  0  0  0
    0.5770   25.6230  -25.6300 C   0  0  0  0  0  0  0  0  0  0  0  0
    1.6649   25.5001  -25.5229 H   0  0  0  0  0  0  0  0  0  0  0  0
   -0.1330   26.3730  -24.6890 C   0  0  0  0  0  0  0  0  0  0  0  0
    0.7100   27.1160  -23.3430 Cl  0  0  0  0  0  0  0  0  0  0  0  0
   -1.5140   26.5310  -24.8200 C   0  0  0  0  0  0  0  0  0  0  0  0
   -2.0701   27.1228  -24.0780 H   0  0  0  0  0  0  0  0  0  0  0  0
   -2.1930   25.9410  -25.8890 C   0  0  0  0  0  0  0  0  0  0  0  0
   -3.2815   26.0698  -25.9821 H   0  0  0  0  0  0  0  0  0  0  0  0
   -1.4940   25.1820  -26.8490 C   0  0  0  0  0  0  0  0  0  0  0  0
  1  2  1  0
  2  3  2  0
  3  4  1  0
  3  5  1  0
  5  6  1  0
  6  7  1  0
  7  8  2  0
  8  9  1  0
  8 10  1  0
 10 11  1  0
 11 12  1  0
 12 13  1  0
 12 14  1  0
 12 15  1  0
 10 16  2  0
 16 17  1  0
 17 18  1  0
 17 19  1  0
 16 20  1  0
 20 21  1  0
 20 22  2  0
 22 23  1  0
  6 24  1  0
 24 25  1  0
 24 26  1  0
 24 27  1  0
  5 28  2  0
 28 29  1  0
 28 30  1  0
 30 31  1  0
 30 32  2  0
 32 33  1  0
 33 34  2  0
 34 35  1  0
 35 36  1  0
 35 37  2  0
 37 38  1  0
 37 39  1  0
 39 40  1  0
 39 41  1  0
 41 42  2  0
 42 43  1  0
 42 44  1  0
 44 45  1  0
 44 46  2  0
 46 47  1  0
 46 48  1  0
 48 49  1  0
 48 50  2  0
 32  2  1  0
 50 34  1  0
 22  7  1  0
 50 41  1  0
M  END
>  <UniqueID>  (46) 
43

>  <SMILES>  (46) 
COc1cc(N(C)c2ccc(/N=c3\cc[nH]c4cc(Cl)ccc34)cc2)c(Cl)cc1N

>  <Energy>  (46) 
77.3117465403914

>  <Genealogy>  (46) 
COc1cc(N(C)c2ccc(/N=c3\cc[nH]c4cc(Cl)ccc34)cc2)c(Cl)cc1N (cis-trans isomerization)
COc1cc(N(C)c2ccc(/N=c3\cc[nH]c4cc(Cl)ccc34)cc2)c(Cl)cc1N (3D coordinates assigned)
COc1cc(N(C)c2ccc(/N=c3\cc[nH]c4cc(Cl)ccc34)cc2)c(Cl)cc1N (optimized conformer: 77.3117465403914 kcal/mol)

>  <smiles>  (46) 
COc1cc(N(C)c2ccc(N=c3cc[nH]c4cc(Cl)ccc34)cc2)c(Cl)cc1N

>  <score_type>  (46) 
oracle

>  <origin>  (46) 
adgpu

>  <m_score__min__energy>  (46) 
-8.1999999999999993

>  <m_primary>  (46) 
energy

$$$$
46:0
     RDKit          3D

 49 51  0  0  0  0  0  0  0  0999 V2000
   -4.2500   17.1060  -35.2650 C   0  0  0  0  0  0  0  0  0  0  0  0
   -3.4560   17.9020  -34.2810 C   0  0  0  0  0  0  0  0  0  0  0  0
   -2.1680   17.7520  -34.0760 O   0  0  0  0  0  0  0  0  0  0  0  0
   -1.7400   18.5730  -33.1610 N   0  0  0  0  0  0  0  0  0  0  0  0
   -2.7990   19.2960  -32.7400 C   0  0  0  0  0  0  0  0  0  0  0  0
   -2.6970   20.4020  -31.7630 C   0  0  0  0  0  0  0  0  0  0  0  0
   -3.6970   20.5630  -30.7860 C   0  0  0  0  0  0  0  0  0  0  0  0
   -3.6170   21.5970  -29.8510 C   0  0  0  0  0  0  0  0  0  0  0  0
   -2.5440   22.4880  -29.8830 C   0  0  0  0  0  0  0  0  0  0  0  0
   -1.5470   22.3460  -30.8500 C   0  0  0  0  0  0  0  0  0  0  0  0
   -1.6140   21.3110  -31.7920 C   0  0  0  0  0  0  0  0  0  0  0  0
   -0.2900   21.1490  -32.9400 Cl  0  0  0  0  0  0  0  0  0  0  0  0
   -3.9250   18.8910  -33.4410 C   0  0  0  0  0  0  0  0  0  0  0  0
   -5.3140   19.3720  -33.3210 C   0  0  0  0  0  0  0  0  0  0  0  0
   -5.6330   20.4330  -33.9240 O   0  0  0  0  0  0  0  0  0  0  0  0
   -6.3090   18.6540  -32.5560 N   0  0  0  0  0  0  0  0  0  0  0  0
   -5.9800   18.0460  -31.2610 C   0  0  0  0  0  0  0  0  0  0  0  0
   -7.7070   18.6420  -33.0040 C   0  0  0  0  0  0  0  0  0  0  0  0
   -8.6250   19.3280  -32.0240 C   0  0  0  0  0  0  0  0  0  0  0  0
   -9.2640   18.6330  -31.1900 O   0  0  0  0  0  0  0  0  0  0  0  0
   -8.8890   20.7330  -32.1020 N   0  0  0  0  0  0  0  0  0  0  0  0
   -8.0100   21.7460  -31.6060 C   0  0  0  0  0  0  0  0  0  0  0  0
   -8.0850   22.1700  -30.2710 C   0  0  0  0  0  0  0  0  0  0  0  0
   -7.2130   23.1520  -29.7940 C   0  0  0  0  0  0  0  0  0  0  0  0
   -6.2770   23.7390  -30.6540 C   0  0  0  0  0  0  0  0  0  0  0  0
   -5.1540   24.9450  -30.0370 S   0  0  0  0  0  0  0  0  0  0  0  0
   -4.7900   24.5940  -28.3840 N   0  0  0  0  0  0  0  0  0  0  0  0
   -5.7720   26.3120  -30.1420 O   0  0  0  0  0  0  0  0  0  0  0  0
   -3.8850   24.9260  -30.8440 O   0  0  0  0  0  0  0  0  0  0  0  0
   -6.2270   23.3430  -31.9980 C   0  0  0  0  0  0  0  0  0  0  0  0
   -7.1010   22.3590  -32.4750 C   0  0  0  0  0  0  0  0  0  0  0  0
   -4.9272   16.4271  -34.7261 H   0  0  0  0  0  0  0  0  0  0  0  0
   -4.8396   17.7867  -35.8967 H   0  0  0  0  0  0  0  0  0  0  0  0
   -3.5678   16.5182  -35.8967 H   0  0  0  0  0  0  0  0  0  0  0  0
   -4.5493   19.8681  -30.7587 H   0  0  0  0  0  0  0  0  0  0  0  0
   -4.4013   21.7092  -29.0879 H   0  0  0  0  0  0  0  0  0  0  0  0
   -2.4835   23.3026  -29.1462 H   0  0  0  0  0  0  0  0  0  0  0  0
   -0.7033   23.0514  -30.8725 H   0  0  0  0  0  0  0  0  0  0  0  0
   -6.3332   18.6988  -30.4491 H   0  0  0  0  0  0  0  0  0  0  0  0
   -6.4700   17.0644  -31.1817 H   0  0  0  0  0  0  0  0  0  0  0  0
   -4.8902   17.9192  -31.1817 H   0  0  0  0  0  0  0  0  0  0  0  0
   -7.7730   19.1589  -33.9727 H   0  0  0  0  0  0  0  0  0  0  0  0
   -8.0258   17.5926  -33.0877 H   0  0  0  0  0  0  0  0  0  0  0  0
   -8.8333   21.7276  -29.5969 H   0  0  0  0  0  0  0  0  0  0  0  0
   -7.2620   23.4646  -28.7405 H   0  0  0  0  0  0  0  0  0  0  0  0
   -5.6320   24.1250  -27.9800 H   0  0  0  0  0  0  0  0  0  0  0  0
   -4.6910   25.5100  -27.8920 H   0  0  0  0  0  0  0  0  0  0  0  0
   -5.4989   23.8069  -32.6797 H   0  0  0  0  0  0  0  0  0  0  0  0
   -7.0730   22.0672  -33.5352 H   0  0  0  0  0  0  0  0  0  0  0  0
  1  2  1  0
  2  3  1  0
  3  4  1  0
  4  5  2  0
  5  6  1  0
  6  7  2  0
  7  8  1  0
  8  9  2  0
  9 10  1  0
 10 11  2  0
 11 12  1  0
  5 13  1  0
 13 14  1  0
 14 15  2  0
 14 16  1  0
 16 17  1  0
 16 18  1  0
 18 19  1  0
 19 20  2  0
 19 21  1  0
 21 22  1  0
 22 23  2  0
 23 24  1  0
 24 25  2  0
 25 26  1  0
 26 27  1  0
 26 28  2  0
 26 29  2  0
 25 30  1  0
 30 31  2  0
 13  2  2  0
 31 22  1  0
 11  6  1  0
  1 32  1  0
  1 33  1  0
  1 34  1  0
  7 35  1  0
  8 36  1  0
  9 37  1  0
 10 38  1  0
 17 39  1  0
 17 40  1  0
 17 41  1  0
 18 42  1  0
 18 43  1  0
 23 44  1  0
 24 45  1  0
 27 46  1  0
 27 47  1  0
 30 48  1  0
 31 49  1  0
M  CHG  1  21  -1
M  END
>  <UniqueID>  (47) 
44

>  <SMILES>  (47) 
Cc1onc(-c2ccccc2Cl)c1C(=O)N(C)CC(=O)[N-]c1ccc(S(N)(=O)=O)cc1

>  <Energy>  (47) 
93.51585704421088

>  <Genealogy>  (47) 
Cc1onc(-c2ccccc2Cl)c1C(=O)N(C)CC(=O)[N-]c1ccc(S(N)(=O)=O)cc1 (protonated)
Cc1onc(-c2ccccc2Cl)c1C(=O)N(C)CC(=O)[N-]c1ccc(S(N)(=O)=O)cc1 (3D coordinates assigned)
Cc1onc(-c2ccccc2Cl)c1C(=O)N(C)CC(=O)[N-]c1ccc(S(N)(=O)=O)cc1 (optimized conformer: 93.51585704421088 kcal/mol)

>  <smiles>  (47) 
Cc1onc(-c2ccccc2Cl)c1C(=O)N(C)CC(=O)Nc1ccc(S(N)(=O)=O)cc1

>  <score_type>  (47) 
oracle

>  <origin>  (47) 
adgpu

>  <m_score__min__energy>  (47) 
-11.710000000000001

>  <m_primary>  (47) 
energy

$$$$
47:0
     RDKit          3D

 50 54  0  0  0  0  0  0  0  0999 V2000
   -0.8420   21.4560  -30.2310 C   0  0  0  0  0  0  0  0  0  0  0  0
   -0.6580   20.0840  -29.9490 C   0  0  0  0  0  0  0  0  0  0  0  0
   -0.8770   19.1160  -30.9440 C   0  0  0  0  0  0  0  0  0  0  0  0
   -1.2850   19.5550  -32.2060 C   0  0  0  0  0  0  0  0  0  0  0  0
   -1.5810   18.8670  -33.3700 C   0  0  0  0  0  0  0  0  0  0  0  0
   -1.5020   17.3830  -33.6120 C   0  0  0  0  0  0  0  0  0  0  0  0
   -2.8910   16.6940  -33.5860 C   0  0  0  0  0  0  0  0  0  0  0  0
   -4.0220   17.5700  -33.1840 N   0  0  0  0  0  0  0  0  0  0  0  0
   -4.6020   18.3140  -34.3400 C   0  0  0  0  0  0  0  0  0  0  0  0
   -6.1130   18.5920  -34.2110 C   0  0  0  0  0  0  0  0  0  0  0  0
   -6.4860   18.7940  -32.8090 N   0  0  0  0  0  0  0  0  0  0  0  0
   -7.3250   19.8960  -32.4430 C   0  0  0  0  0  0  0  0  0  0  0  0
   -8.7150   19.7100  -32.3170 C   0  0  0  0  0  0  0  0  0  0  0  0
   -9.5540   20.7900  -31.9840 C   0  0  0  0  0  0  0  0  0  0  0  0
   -9.0150   22.0680  -31.7710 C   0  0  0  0  0  0  0  0  0  0  0  0
   -7.6380   22.2290  -31.8910 C   0  0  0  0  0  0  0  0  0  0  0  0
   -6.7350   23.6280  -31.6770 S   0  0  0  0  0  0  0  0  0  0  0  0
   -5.2420   22.8990  -31.9880 C   0  0  0  0  0  0  0  0  0  0  0  0
   -5.4420   21.5460  -32.2630 C   0  0  0  0  0  0  0  0  0  0  0  0
   -6.7940   21.1750  -32.2150 C   0  0  0  0  0  0  0  0  0  0  0  0
   -6.0300   17.8600  -31.7780 C   0  0  0  0  0  0  0  0  0  0  0  0
   -5.0320   16.8580  -32.3700 C   0  0  0  0  0  0  0  0  0  0  0  0
   -1.9050   19.8440  -34.3100 C   0  0  0  0  0  0  0  0  0  0  0  0
   -1.8370   21.0750  -33.7560 N   0  0  0  0  0  0  0  0  0  0  0  0
   -1.4600   20.8890  -32.4790 C   0  0  0  0  0  0  0  0  0  0  0  0
   -1.2470   21.8710  -31.5120 C   0  0  0  0  0  0  0  0  0  0  0  0
   -0.6674   22.2041  -29.4437 H   0  0  0  0  0  0  0  0  0  0  0  0
   -0.3410   19.7711  -28.9432 H   0  0  0  0  0  0  0  0  0  0  0  0
   -0.7317   18.0457  -30.7356 H   0  0  0  0  0  0  0  0  0  0  0  0
   -1.0433   17.2117  -34.5970 H   0  0  0  0  0  0  0  0  0  0  0  0
   -0.9013   16.9470  -32.8001 H   0  0  0  0  0  0  0  0  0  0  0  0
   -3.0997   16.3098  -34.5954 H   0  0  0  0  0  0  0  0  0  0  0  0
   -2.8275   15.9057  -32.8215 H   0  0  0  0  0  0  0  0  0  0  0  0
   -3.5960   18.2910  -32.5510 H   0  0  0  0  0  0  0  0  0  0  0  0
   -4.0791   19.2777  -34.4288 H   0  0  0  0  0  0  0  0  0  0  0  0
   -4.4697   17.6776  -35.2274 H   0  0  0  0  0  0  0  0  0  0  0  0
   -6.3638   19.4963  -34.7850 H   0  0  0  0  0  0  0  0  0  0  0  0
   -6.6660   17.7252  -34.6020 H   0  0  0  0  0  0  0  0  0  0  0  0
   -9.1488   18.7124  -32.4802 H   0  0  0  0  0  0  0  0  0  0  0  0
  -10.6384   20.6313  -31.8902 H   0  0  0  0  0  0  0  0  0  0  0  0
   -9.6633   22.9193  -31.5161 H   0  0  0  0  0  0  0  0  0  0  0  0
   -4.2680   23.4100  -31.9755 H   0  0  0  0  0  0  0  0  0  0  0  0
   -4.6263   20.8447  -32.4930 H   0  0  0  0  0  0  0  0  0  0  0  0
   -5.5419   18.4230  -30.9689 H   0  0  0  0  0  0  0  0  0  0  0  0
   -6.8978   17.3101  -31.3849 H   0  0  0  0  0  0  0  0  0  0  0  0
   -4.5282   16.3200  -31.5534 H   0  0  0  0  0  0  0  0  0  0  0  0
   -5.5729   16.1446  -33.0091 H   0  0  0  0  0  0  0  0  0  0  0  0
   -2.1778   19.6415  -35.3562 H   0  0  0  0  0  0  0  0  0  0  0  0
   -2.0280   21.9850  -34.2310 H   0  0  0  0  0  0  0  0  0  0  0  0
   -1.3913   22.9365  -31.7440 H   0  0  0  0  0  0  0  0  0  0  0  0
  1  2  2  0
  2  3  1  0
  3  4  2  0
  4  5  1  0
  5  6  1  0
  6  7  1  0
  7  8  1  0
  8  9  1  0
  9 10  1  0
 10 11  1  0
 11 12  1  0
 12 13  2  0
 13 14  1  0
 14 15  2  0
 15 16  1  0
 16 17  1  0
 17 18  1  0
 18 19  2  0
 19 20  1  0
 11 21  1  0
 21 22  1  0
  5 23  2  0
 23 24  1  0
 24 25  1  0
 25 26  2  0
 26  1  1  0
 25  4  1  0
 22  8  1  0
 20 12  1  0
 20 16  2  0
  1 27  1  0
  2 28  1  0
  3 29  1  0
  6 30  1  0
  6 31  1  0
  7 32  1  0
  7 33  1  0
  8 34  1  0
  9 35  1  0
  9 36  1  0
 10 37  1  0
 10 38  1  0
 13 39  1  0
 14 40  1  0
 15 41  1  0
 18 42  1  0
 19 43  1  0
 21 44  1  0
 21 45  1  0
 22 46  1  0
 22 47  1  0
 23 48  1  0
 24 49  1  0
 26 50  1  0
M  CHG  1   8   1
M  END
>  <UniqueID>  (48) 
45

>  <SMILES>  (48) 
c1ccc2c(CC[NH+]3CCN(c4cccc5sccc45)CC3)c[nH]c2c1

>  <Energy>  (48) 
133.14150378882562

>  <Genealogy>  (48) 
c1ccc2c(CC[NH+]3CCN(c4cccc5sccc45)CC3)c[nH]c2c1 (protonated)
c1ccc2c(CC[NH+]3CCN(c4cccc5sccc45)CC3)c[nH]c2c1 (3D coordinates assigned)
c1ccc2c(CC[NH+]3CCN(c4cccc5sccc45)CC3)c[nH]c2c1 (nonaromatic ring conformer: 133.14150378882562 kcal/mol)

>  <smiles>  (48) 
c1ccc2c(CCN3CCN(c4cccc5sccc45)CC3)c[nH]c2c1

>  <score_type>  (48) 
oracle

>  <origin>  (48) 
adgpu

>  <m_score__min__energy>  (48) 
-8.2699999999999996

>  <m_primary>  (48) 
energy

$$$$
48:0
     RDKit          3D

 27 28  0  0  0  0  0  0  0  0999 V2000
   -3.0610   21.3080  -34.6150 H   0  0  0  0  0  0  0  0  0  0  0  0
   -3.4230   21.4070  -33.6740 O   0  0  0  0  0  0  0  0  0  0  0  0
   -4.6010   20.7770  -33.2770 C   0  0  0  0  0  0  0  0  0  0  0  0
   -4.7720   19.4130  -33.5280 C   0  0  0  0  0  0  0  0  0  0  0  0
   -3.9750   18.8431  -34.0281 H   0  0  0  0  0  0  0  0  0  0  0  0
   -5.9510   18.7720  -33.1460 C   0  0  0  0  0  0  0  0  0  0  0  0
   -6.0824   17.6998  -33.3534 H   0  0  0  0  0  0  0  0  0  0  0  0
   -6.9680   19.4860  -32.5000 C   0  0  0  0  0  0  0  0  0  0  0  0
   -8.4270   18.6230  -32.0230 Cl  0  0  0  0  0  0  0  0  0  0  0  0
   -6.7970   20.8570  -32.2200 C   0  0  0  0  0  0  0  0  0  0  0  0
   -7.8770   21.6290  -31.5610 C   0  0  0  0  0  0  0  0  0  0  0  0
   -8.8962   21.2178  -31.6075 H   0  0  0  0  0  0  0  0  0  0  0  0
   -7.7070   22.7910  -30.9120 C   0  0  0  0  0  0  0  0  0  0  0  0
   -8.6114   23.3234  -30.5824 H   0  0  0  0  0  0  0  0  0  0  0  0
   -6.4000   23.4140  -30.6040 C   0  0  0  0  0  0  0  0  0  0  0  0
   -5.4760   22.8020  -29.7360 C   0  0  0  0  0  0  0  0  0  0  0  0
   -5.7129   21.8283  -29.2824 H   0  0  0  0  0  0  0  0  0  0  0  0
   -4.2590   23.4260  -29.4480 C   0  0  0  0  0  0  0  0  0  0  0  0
   -3.5342   22.9345  -28.7823 H   0  0  0  0  0  0  0  0  0  0  0  0
   -3.9610   24.6730  -30.0040 C   0  0  0  0  0  0  0  0  0  0  0  0
   -2.7510   25.2920  -29.7180 O   0  0  0  0  0  0  0  0  0  0  0  0
   -4.8860   25.3020  -30.8450 C   0  0  0  0  0  0  0  0  0  0  0  0
   -4.6551   26.2868  -31.2773 H   0  0  0  0  0  0  0  0  0  0  0  0
   -6.1040   24.6790  -31.1360 C   0  0  0  0  0  0  0  0  0  0  0  0
   -6.8345   25.1833  -31.7857 H   0  0  0  0  0  0  0  0  0  0  0  0
   -5.6150   21.4990  -32.6350 C   0  0  0  0  0  0  0  0  0  0  0  0
   -5.4867   22.5763  -32.4536 H   0  0  0  0  0  0  0  0  0  0  0  0
  1  2  1  0
  2  3  1  0
  3  4  2  0
  4  5  1  0
  4  6  1  0
  6  7  1  0
  6  8  2  0
  8  9  1  0
  8 10  1  0
 10 11  1  0
 11 12  1  0
 11 13  2  0
 13 14  1  0
 13 15  1  0
 15 16  2  0
 16 17  1  0
 16 18  1  0
 18 19  1  0
 18 20  2  0
 20 21  1  0
 20 22  1  0
 22 23  1  0
 22 24  2  0
 24 25  1  0
 10 26  2  0
 26 27  1  0
 26  3  1  0
 24 15  1  0
M  CHG  1  21  -1
M  END
>  <UniqueID>  (49) 
46

>  <SMILES>  (49) 
[O-]c1ccc(/C=C\c2cc(O)ccc2Cl)cc1

>  <Energy>  (49) 
37.991478871818416

>  <Genealogy>  (49) 
[O-]c1ccc(C=Cc2cc(O)ccc2Cl)cc1 (protonated)
[O-]c1ccc(/C=C\c2cc(O)ccc2Cl)cc1 (cis-trans isomerization)
[O-]c1ccc(/C=C\c2cc(O)ccc2Cl)cc1 (3D coordinates assigned)
[O-]c1ccc(/C=C\c2cc(O)ccc2Cl)cc1 (optimized conformer: 37.991478871818416 kcal/mol)

>  <smiles>  (49) 
Oc1ccc(C=Cc2cc(O)ccc2Cl)cc1

>  <score_type>  (49) 
oracle

>  <origin>  (49) 
adgpu

>  <m_score__min__energy>  (49) 
-10.779999999999999

>  <m_primary>  (49) 
energy

$$$$
